# generated using pymatgen
data_Sr3MnBiO6
_symmetry_space_group_name_H-M   'P 1'
_cell_length_a   24.01902900
_cell_length_b   5.38530000
_cell_length_c   7.63378487
_cell_angle_alpha   45.08212938
_cell_angle_beta   90.00000000
_cell_angle_gamma   90.00000000
_symmetry_Int_Tables_number   1
_chemical_formula_structural   Sr3MnBiO6
_chemical_formula_sum   'Sr12 Mn4 Bi4 O24'
_cell_volume   699.21688185
_cell_formula_units_Z   4
loop_
 _symmetry_equiv_pos_site_id
 _symmetry_equiv_pos_as_xyz
  1  'x, y, z'
loop_
 _atom_site_type_symbol
 _atom_site_label
 _atom_site_symmetry_multiplicity
 _atom_site_fract_x
 _atom_site_fract_y
 _atom_site_fract_z
 _atom_site_occupancy
  Sr  Sr0  1  0.94383800  0.73926800  0.25400200  1
  Sr  Sr1  1  0.44383800  0.26073200  0.24599800  1
  Sr  Sr2  1  0.55616200  0.73926800  0.75400200  1
  Sr  Sr3  1  0.05616200  0.26073200  0.74599800  1
  Sr  Sr4  1  0.82765400  0.24553100  0.75130000  1
  Sr  Sr5  1  0.32765400  0.75446900  0.74870000  1
  Sr  Sr6  1  0.67305400  0.24406800  0.75269200  1
  Sr  Sr7  1  0.17305400  0.75593200  0.74730800  1
  Sr  Sr8  1  0.32694600  0.75593200  0.24730800  1
  Sr  Sr9  1  0.82694600  0.24406800  0.25269200  1
  Sr  Sr10  1  0.67234600  0.24553100  0.25130000  1
  Sr  Sr11  1  0.17234600  0.75446900  0.24870000  1
  Mn  Mn0  1  0.75526800  0.74836100  0.25044300  1
  Mn  Mn1  1  0.25526800  0.25163900  0.24955700  1
  Mn  Mn2  1  0.24473200  0.25163900  0.74955700  1
  Mn  Mn3  1  0.74473200  0.74836100  0.75044300  1
  Bi  Bi0  1  0.44164000  0.21307700  0.76925700  1
  Bi  Bi1  1  0.94164000  0.78692300  0.73074300  1
  Bi  Bi2  1  0.55836000  0.78692300  0.23074300  1
  Bi  Bi3  1  0.05836000  0.21307700  0.26925700  1
  O  O0  1  0.56167600  0.16792200  0.83163300  1
  O  O1  1  0.06167600  0.83207800  0.66836700  1
  O  O2  1  0.25087500  0.75130600  0.99966300  1
  O  O3  1  0.75087500  0.24869400  0.50033700  1
  O  O4  1  0.55509700  0.17155700  0.24920200  1
  O  O5  1  0.05509700  0.82844300  0.25079800  1
  O  O6  1  0.74912500  0.24869400  0.00033700  1
  O  O7  1  0.24912500  0.75130600  0.49966300  1
  O  O8  1  0.43832400  0.83207800  0.16836700  1
  O  O9  1  0.93832400  0.16792200  0.33163300  1
  O  O10  1  0.84640300  0.75247400  0.24843300  1
  O  O11  1  0.34640300  0.24752600  0.25156700  1
  O  O12  1  0.75059400  0.74943700  0.99980500  1
  O  O13  1  0.25059400  0.25056300  0.50019500  1
  O  O14  1  0.64907000  0.73838800  0.25533300  1
  O  O15  1  0.14907000  0.26161200  0.24466700  1
  O  O16  1  0.24940600  0.25056300  0.00019500  1
  O  O17  1  0.74940600  0.74943700  0.49980500  1
  O  O18  1  0.94490300  0.17155700  0.74920200  1
  O  O19  1  0.44490300  0.82844300  0.75079800  1
  O  O20  1  0.35093000  0.26161200  0.74466700  1
  O  O21  1  0.85093000  0.73838800  0.75533300  1
  O  O22  1  0.65359700  0.75247400  0.74843300  1
  O  O23  1  0.15359700  0.24752600  0.75156700  1
loop_
_geom_bond_atom_site_label_1
_geom_bond_atom_site_label_2
_geom_bond_distance
_geom_bond_site_symmetry_2
Mn0 O3 1.908383 1_555
Mn0 O12 1.912527 1_554
Mn0 O17 1.912861 1_555
Mn0 O6 1.913697 1_565
Mn0 O10 2.189030 1_555
Mn0 O14 2.551056 1_555
Mn1 O2 1.908383 1_554
Mn1 O13 1.912527 1_555
Mn1 O16 1.912861 1_555
Mn1 O7 1.913697 1_545
Mn1 O11 2.189030 1_555
Mn1 O15 2.551056 1_555
Mn2 O7 1.908383 1_555
Mn2 O16 1.912527 1_556
Mn2 O13 1.912861 1_555
Mn2 O2 1.913697 1_545
Mn2 O23 2.189030 1_555
Mn2 O20 2.551056 1_555
Mn3 O6 1.908383 1_556
Mn3 O17 1.912527 1_555
Mn3 O12 1.912861 1_555
Mn3 O3 1.913697 1_565
Mn3 O22 2.189030 1_555
Mn3 O21 2.551056 1_555
Bi0 O8 2.161202 1_546
Bi0 O19 2.174571 1_545
Bi0 O20 2.186616 1_555
Bi1 O9 2.161202 1_565
Bi1 O18 2.174571 1_565
Bi1 O21 2.186616 1_555
Bi2 O0 2.161202 1_564
Bi2 O4 2.174571 1_565
Bi2 O14 2.186616 1_555
Bi3 O1 2.161202 1_545
Bi3 O5 2.174571 1_545
Bi3 O15 2.186616 1_555
O0 Sr2 2.694601 1_555
O0 Sr6 2.709056 1_555
O0 Sr2 2.762152 1_545
O1 Sr3 2.694601 1_555
O1 Sr7 2.709056 1_555
O1 Sr3 2.762152 1_565
O2 Sr8 2.641871 1_556
O2 Sr5 2.650547 1_555
O2 Sr7 2.671668 1_555
O2 Sr11 2.686614 1_556
O3 Sr9 2.641871 1_555
O3 Sr4 2.650547 1_555
O3 Sr6 2.671668 1_555
O3 Sr10 2.686614 1_555
O4 Sr2 2.704976 1_554
O4 Sr1 2.712195 1_555
O4 Sr2 2.757029 1_545
O4 Sr10 2.845872 1_555
O5 Sr3 2.704976 1_555
O5 Sr0 2.712195 1_455
O5 Sr3 2.757029 1_564
O5 Sr11 2.845872 1_555
O6 Sr6 2.641871 1_554
O6 Sr10 2.650547 1_555
O6 Sr9 2.671668 1_555
O6 Sr4 2.686614 1_554
O7 Sr7 2.641871 1_555
O7 Sr11 2.650547 1_555
O7 Sr8 2.671668 1_555
O7 Sr5 2.686614 1_555
O8 Sr1 2.694601 1_555
O8 Sr8 2.709056 1_555
O8 Sr1 2.762152 1_565
O9 Sr0 2.694601 1_555
O9 Sr9 2.709056 1_555
O9 Sr0 2.762152 1_545
O10 Sr0 2.340849 1_555
O10 Sr9 2.711022 1_565
O10 Sr4 2.724899 1_564
O10 Sr9 2.754987 1_555
O10 Sr4 2.755433 1_555
O11 Sr1 2.340849 1_555
O11 Sr8 2.711022 1_545
O11 Sr5 2.724899 1_545
O11 Sr8 2.754987 1_555
O11 Sr5 2.755433 1_554
O12 Sr4 2.646689 1_565
O12 Sr6 2.650776 1_565
O12 Sr9 2.660327 1_556
O12 Sr10 2.687920 1_556
O13 Sr5 2.646689 1_545
O13 Sr7 2.650776 1_545
O13 Sr8 2.660327 1_555
O13 Sr11 2.687920 1_555
O14 Sr10 2.733786 1_555
O14 Sr6 2.749629 1_555
O14 Sr10 2.766544 1_565
O14 Sr6 2.777525 1_564
O15 Sr11 2.733786 1_555
O15 Sr7 2.749629 1_554
O15 Sr11 2.766544 1_545
O15 Sr7 2.777525 1_545
O16 Sr11 2.646689 1_545
O16 Sr8 2.650776 1_545
O16 Sr7 2.660327 1_554
O16 Sr5 2.687920 1_554
O17 Sr10 2.646689 1_565
O17 Sr9 2.650776 1_565
O17 Sr6 2.660327 1_555
O17 Sr4 2.687920 1_555
O18 Sr0 2.704976 1_555
O18 Sr3 2.712195 1_655
O18 Sr0 2.757029 1_546
O18 Sr4 2.845872 1_555
O19 Sr1 2.704976 1_556
O19 Sr2 2.712195 1_555
O19 Sr1 2.757029 1_565
O19 Sr5 2.845872 1_555
O20 Sr5 2.733786 1_555
O20 Sr8 2.749629 1_555
O20 Sr5 2.766544 1_545
O20 Sr8 2.777525 1_546
O21 Sr4 2.733786 1_555
O21 Sr9 2.749629 1_556
O21 Sr4 2.766544 1_565
O21 Sr9 2.777525 1_565
O22 Sr2 2.340849 1_555
O22 Sr6 2.711022 1_565
O22 Sr10 2.724899 1_565
O22 Sr6 2.754987 1_555
O22 Sr10 2.755433 1_556
O23 Sr3 2.340849 1_555
O23 Sr7 2.711022 1_545
O23 Sr11 2.724899 1_546
O23 Sr7 2.754987 1_555
O23 Sr11 2.755433 1_555
