# generated using pymatgen
data_H2
_symmetry_space_group_name_H-M   'P 1'
_cell_length_a   5.44666499
_cell_length_b   5.58835986
_cell_length_c   5.78079860
_cell_angle_alpha   160.25267237
_cell_angle_beta   60.90527046
_cell_angle_gamma   121.16684194
_symmetry_Int_Tables_number   1
_chemical_formula_structural   H2
_chemical_formula_sum   H8
_cell_volume   50.86950323
_cell_formula_units_Z   4
loop_
 _symmetry_equiv_pos_site_id
 _symmetry_equiv_pos_as_xyz
  1  'x, y, z'
loop_
 _atom_site_type_symbol
 _atom_site_label
 _atom_site_symmetry_multiplicity
 _atom_site_fract_x
 _atom_site_fract_y
 _atom_site_fract_z
 _atom_site_occupancy
  H  H0_0  1  0.25135100  0.24961000  0.24997250  1
  H  H0_1  1  0.25135100  0.24961000  0.74997250  1
  H  H0_2  1  0.25135100  0.74961000  0.24997250  1
  H  H0_3  1  0.25135100  0.74961000  0.74997250  1
  H  H0_4  1  0.75135100  0.24961000  0.24997250  1
  H  H0_5  1  0.75135100  0.24961000  0.74997250  1
  H  H0_6  1  0.75135100  0.74961000  0.24997250  1
  H  H0_7  1  0.75135100  0.74961000  0.74997250  1
loop_
_geom_bond_atom_site_label_1
_geom_bond_atom_site_label_2
_geom_bond_distance
_geom_bond_site_symmetry_2
H0_0 H0_3 0.979369 1_544
H0_0 H0_3 0.979369 1_555
H0_1 H0_2 0.979369 1_556
H0_1 H0_2 0.979369 1_545
H0_4 H0_7 0.979369 1_544
H0_4 H0_7 0.979369 1_555
H0_5 H0_6 0.979369 1_556
H0_5 H0_6 0.979369 1_545
