# generated using pymatgen
data_Ti3Se
_symmetry_space_group_name_H-M   'P 1'
_cell_length_a   6.39489120
_cell_length_b   6.39489120
_cell_length_c   15.88549000
_cell_angle_alpha   90.00000000
_cell_angle_beta   90.00000000
_cell_angle_gamma   119.99999170
_symmetry_Int_Tables_number   1
_chemical_formula_structural   Ti3Se
_chemical_formula_sum   'Ti24 Se8'
_cell_volume   562.59724764
_cell_formula_units_Z   8
loop_
 _symmetry_equiv_pos_site_id
 _symmetry_equiv_pos_as_xyz
  1  'x, y, z'
loop_
 _atom_site_type_symbol
 _atom_site_label
 _atom_site_symmetry_multiplicity
 _atom_site_fract_x
 _atom_site_fract_y
 _atom_site_fract_z
 _atom_site_occupancy
  Ti  Ti0_0  1  0.33333350  0.16666650  0.11354900  1
  Ti  Ti0_1  1  0.33333350  0.16666650  0.61354900  1
  Ti  Ti0_2  1  0.33333350  0.66666650  0.11354900  1
  Ti  Ti0_3  1  0.33333350  0.66666650  0.61354900  1
  Ti  Ti0_4  1  0.83333350  0.16666650  0.11354900  1
  Ti  Ti0_5  1  0.83333350  0.16666650  0.61354900  1
  Ti  Ti0_6  1  0.83333350  0.66666650  0.11354900  1
  Ti  Ti0_7  1  0.83333350  0.66666650  0.61354900  1
  Ti  Ti1_0  1  0.33333350  0.16666650  0.38645100  1
  Ti  Ti1_1  1  0.33333350  0.16666650  0.88645100  1
  Ti  Ti1_2  1  0.33333350  0.66666650  0.38645100  1
  Ti  Ti1_3  1  0.33333350  0.66666650  0.88645100  1
  Ti  Ti1_4  1  0.83333350  0.16666650  0.38645100  1
  Ti  Ti1_5  1  0.83333350  0.16666650  0.88645100  1
  Ti  Ti1_6  1  0.83333350  0.66666650  0.38645100  1
  Ti  Ti1_7  1  0.83333350  0.66666650  0.88645100  1
  Ti  Ti2_0  1  0.00000000  0.00000000  0.25000000  1
  Ti  Ti2_1  1  0.00000000  0.00000000  0.75000000  1
  Ti  Ti2_2  1  0.00000000  0.50000000  0.25000000  1
  Ti  Ti2_3  1  0.00000000  0.50000000  0.75000000  1
  Ti  Ti2_4  1  0.50000000  0.00000000  0.25000000  1
  Ti  Ti2_5  1  0.50000000  0.00000000  0.75000000  1
  Ti  Ti2_6  1  0.50000000  0.50000000  0.25000000  1
  Ti  Ti2_7  1  0.50000000  0.50000000  0.75000000  1
  Se  Se0_0  1  0.16666650  0.33333350  0.00000000  1
  Se  Se0_1  1  0.16666650  0.33333350  0.50000000  1
  Se  Se0_2  1  0.16666650  0.83333350  0.00000000  1
  Se  Se0_3  1  0.16666650  0.83333350  0.50000000  1
  Se  Se0_4  1  0.66666650  0.33333350  0.00000000  1
  Se  Se0_5  1  0.66666650  0.33333350  0.50000000  1
  Se  Se0_6  1  0.66666650  0.83333350  0.00000000  1
  Se  Se0_7  1  0.66666650  0.83333350  0.50000000  1
loop_
_geom_bond_atom_site_label_1
_geom_bond_atom_site_label_2
_geom_bond_distance
_geom_bond_site_symmetry_2
Ti0_0 Ti2_4 2.847162 1_555
Ti0_0 Ti2_0 2.847164 1_555
Ti0_0 Ti2_6 2.847164 1_555
Ti0_1 Ti2_5 2.847162 1_555
Ti0_1 Ti2_7 2.847164 1_555
Ti0_1 Ti2_1 2.847164 1_555
Ti0_2 Ti2_6 2.847162 1_555
Ti0_2 Ti2_2 2.847164 1_555
Ti0_2 Ti2_4 2.847164 1_565
Ti0_3 Ti2_7 2.847162 1_555
Ti0_3 Ti2_3 2.847164 1_555
Ti0_3 Ti2_5 2.847164 1_565
Ti0_4 Ti2_0 2.847162 1_655
Ti0_4 Ti2_2 2.847164 1_655
Ti0_4 Ti2_4 2.847164 1_555
Ti0_5 Ti2_1 2.847162 1_655
Ti0_5 Ti2_3 2.847164 1_655
Ti0_5 Ti2_5 2.847164 1_555
Ti0_6 Ti2_2 2.847162 1_655
Ti0_6 Ti2_0 2.847164 1_665
Ti0_6 Ti2_6 2.847164 1_555
Ti0_7 Ti2_3 2.847162 1_655
Ti0_7 Ti2_1 2.847164 1_665
Ti0_7 Ti2_7 2.847164 1_555
Ti1_0 Ti2_4 2.847162 1_555
Ti1_0 Ti2_6 2.847164 1_555
Ti1_0 Ti2_0 2.847164 1_555
Ti1_1 Ti2_5 2.847162 1_555
Ti1_1 Ti2_1 2.847164 1_555
Ti1_1 Ti2_7 2.847164 1_555
Ti1_2 Ti2_6 2.847162 1_555
Ti1_2 Ti2_2 2.847164 1_555
Ti1_2 Ti2_4 2.847164 1_565
Ti1_3 Ti2_7 2.847162 1_555
Ti1_3 Ti2_3 2.847164 1_555
Ti1_3 Ti2_5 2.847164 1_565
Ti1_4 Ti2_0 2.847162 1_655
Ti1_4 Ti2_2 2.847164 1_655
Ti1_4 Ti2_4 2.847164 1_555
Ti1_5 Ti2_1 2.847162 1_655
Ti1_5 Ti2_5 2.847164 1_555
Ti1_5 Ti2_3 2.847164 1_655
Ti1_6 Ti2_2 2.847162 1_655
Ti1_6 Ti2_0 2.847164 1_665
Ti1_6 Ti2_6 2.847164 1_555
Ti1_7 Ti2_3 2.847162 1_655
Ti1_7 Ti2_1 2.847164 1_665
Ti1_7 Ti2_7 2.847164 1_555
Ti2_0 Ti2_2 3.197446 1_545
Ti2_0 Ti2_4 3.197446 1_455
Ti2_0 Ti2_4 3.197446 1_555
Ti2_0 Ti2_2 3.197446 1_555
Ti2_0 Ti2_6 3.197446 1_445
Ti2_0 Ti2_6 3.197446 1_555
Ti2_1 Ti2_5 3.197446 1_455
Ti2_1 Ti2_3 3.197446 1_555
Ti2_1 Ti2_3 3.197446 1_545
Ti2_1 Ti2_5 3.197446 1_555
Ti2_1 Ti2_7 3.197446 1_445
Ti2_1 Ti2_7 3.197446 1_555
Ti2_2 Ti2_6 3.197446 1_455
Ti2_2 Ti2_6 3.197446 1_555
Ti2_2 Ti2_4 3.197446 1_455
Ti2_2 Ti2_4 3.197446 1_565
Ti2_3 Ti2_7 3.197446 1_555
Ti2_3 Ti2_7 3.197446 1_455
Ti2_3 Ti2_5 3.197446 1_565
Ti2_3 Ti2_5 3.197446 1_455
Ti2_4 Ti2_6 3.197446 1_555
Ti2_4 Ti2_6 3.197446 1_545
Ti2_5 Ti2_7 3.197446 1_555
Ti2_5 Ti2_7 3.197446 1_545
Se0_0 Ti0_4 2.580990 1_455
Se0_0 Ti0_2 2.580990 1_555
Se0_0 Ti1_5 2.580990 1_454
Se0_0 Ti1_3 2.580990 1_554
Se0_0 Ti0_0 2.580993 1_555
Se0_0 Ti1_1 2.580993 1_554
Se0_1 Ti1_2 2.580990 1_555
Se0_1 Ti1_4 2.580990 1_455
Se0_1 Ti0_3 2.580990 1_555
Se0_1 Ti0_5 2.580990 1_455
Se0_1 Ti1_0 2.580993 1_555
Se0_1 Ti0_1 2.580993 1_555
Se0_2 Ti0_6 2.580990 1_455
Se0_2 Ti0_0 2.580990 1_565
Se0_2 Ti1_7 2.580990 1_454
Se0_2 Ti1_1 2.580990 1_564
Se0_2 Ti0_2 2.580993 1_555
Se0_2 Ti1_3 2.580993 1_554
Se0_3 Ti1_6 2.580990 1_455
Se0_3 Ti0_7 2.580990 1_455
Se0_3 Ti1_0 2.580990 1_565
Se0_3 Ti0_1 2.580990 1_565
Se0_3 Ti1_2 2.580993 1_555
Se0_3 Ti0_3 2.580993 1_555
Se0_4 Ti0_6 2.580990 1_555
Se0_4 Ti0_0 2.580990 1_555
Se0_4 Ti1_7 2.580990 1_554
Se0_4 Ti1_1 2.580990 1_554
Se0_4 Ti0_4 2.580993 1_555
Se0_4 Ti1_5 2.580993 1_554
Se0_5 Ti1_0 2.580990 1_555
Se0_5 Ti1_6 2.580990 1_555
Se0_5 Ti0_7 2.580990 1_555
Se0_5 Ti0_1 2.580990 1_555
Se0_5 Ti1_4 2.580993 1_555
Se0_5 Ti0_5 2.580993 1_555
Se0_6 Ti0_4 2.580990 1_565
Se0_6 Ti0_2 2.580990 1_555
Se0_6 Ti1_5 2.580990 1_564
Se0_6 Ti1_3 2.580990 1_554
Se0_6 Ti0_6 2.580993 1_555
Se0_6 Ti1_7 2.580993 1_554
Se0_7 Ti1_4 2.580990 1_565
Se0_7 Ti1_2 2.580990 1_555
Se0_7 Ti0_5 2.580990 1_565
Se0_7 Ti0_3 2.580990 1_555
Se0_7 Ti1_6 2.580993 1_555
Se0_7 Ti0_7 2.580993 1_555
