# generated using pymatgen
data_SrZrVSnO6
_symmetry_space_group_name_H-M   'P 1'
_cell_length_a   5.71926407
_cell_length_b   5.71926407
_cell_length_c   5.71926407
_cell_angle_alpha   60.00000000
_cell_angle_beta   60.00000000
_cell_angle_gamma   60.00000000
_symmetry_Int_Tables_number   1
_chemical_formula_structural   SrZrVSnO6
_chemical_formula_sum   'Sr1 Zr1 V1 Sn1 O6'
_cell_volume   132.28343108
_cell_formula_units_Z   1
loop_
 _symmetry_equiv_pos_site_id
 _symmetry_equiv_pos_as_xyz
  1  'x, y, z'
loop_
 _atom_site_type_symbol
 _atom_site_label
 _atom_site_symmetry_multiplicity
 _atom_site_fract_x
 _atom_site_fract_y
 _atom_site_fract_z
 _atom_site_occupancy
  Sr  Sr0  1  0.75000000  0.75000000  0.75000000  1
  Zr  Zr0  1  -0.00000000  0.00000000  -0.00000000  1
  V  V0  1  0.50000000  0.50000000  0.50000000  1
  Sn  Sn0  1  0.25000000  0.25000000  0.25000000  1
  O  O0  1  0.74064234  0.25935766  0.25935766  1
  O  O1  1  0.25935766  0.74064234  0.74064234  1
  O  O2  1  0.74064234  0.25935766  0.74064234  1
  O  O3  1  0.25935766  0.74064234  0.25935766  1
  O  O4  1  0.74064234  0.74064234  0.25935766  1
  O  O5  1  0.25935766  0.25935766  0.74064234  1
loop_
_geom_bond_atom_site_label_1
_geom_bond_atom_site_label_2
_geom_bond_distance
_geom_bond_site_symmetry_2
O0 V0 1.946378 1_555
O0 Zr0 2.097752 1_655
O0 Sr0 2.860633 1_545
O0 Sr0 2.860633 1_554
O1 V0 1.946378 1_555
O1 Zr0 2.097752 1_566
O1 Sr0 2.860633 1_455
O1 Sr0 2.860633 1_555
O2 V0 1.946378 1_555
O2 Zr0 2.097752 1_656
O2 Sr0 2.860633 1_545
O2 Sr0 2.860633 1_555
O3 V0 1.946378 1_555
O3 Zr0 2.097752 1_565
O3 Sr0 2.860633 1_455
O3 Sr0 2.860633 1_554
O4 V0 1.946378 1_555
O4 Zr0 2.097752 1_665
O4 Sr0 2.860633 1_554
O4 Sr0 2.860633 1_555
O5 V0 1.946378 1_555
O5 Zr0 2.097752 1_556
O5 Sr0 2.860633 1_545
O5 Sr0 2.860633 1_455
