# generated using pymatgen
data_Ca(AgO2)2
_symmetry_space_group_name_H-M   'P 1'
_cell_length_a   6.59647527
_cell_length_b   5.92852701
_cell_length_c   11.41827727
_cell_angle_alpha   89.99983260
_cell_angle_beta   90.02539719
_cell_angle_gamma   89.99203064
_symmetry_Int_Tables_number   1
_chemical_formula_structural   Ca(AgO2)2
_chemical_formula_sum   'Ca4 Ag8 O16'
_cell_volume   446.53888038
_cell_formula_units_Z   4
loop_
 _symmetry_equiv_pos_site_id
 _symmetry_equiv_pos_as_xyz
  1  'x, y, z'
loop_
 _atom_site_type_symbol
 _atom_site_label
 _atom_site_symmetry_multiplicity
 _atom_site_fract_x
 _atom_site_fract_y
 _atom_site_fract_z
 _atom_site_occupancy
  Ca  Ca0  1  0.75260600  0.25004000  0.75002600  1
  Ca  Ca1  1  0.24721000  0.74995500  0.24998200  1
  Ca  Ca2  1  0.66149400  0.25000000  0.24993500  1
  Ca  Ca3  1  0.33830700  0.74998300  0.74997400  1
  Ag  Ag0  1  0.52433500  0.75002500  0.49583700  1
  Ag  Ag1  1  0.52417800  0.74999600  0.00420000  1
  Ag  Ag2  1  0.47572800  0.24998700  0.50412600  1
  Ag  Ag3  1  0.47548700  0.24999700  0.99590300  1
  Ag  Ag4  1  0.00015500  0.50038100  0.50006000  1
  Ag  Ag5  1  0.99999800  0.99969200  0.00003000  1
  Ag  Ag6  1  0.00014500  0.99961500  0.50006100  1
  Ag  Ag7  1  0.99998600  0.50031300  0.00002900  1
  O  O0  1  0.97735100  0.75000900  0.37945400  1
  O  O1  1  0.97746600  0.75000900  0.12051100  1
  O  O2  1  0.02300900  0.24999900  0.62080200  1
  O  O3  1  0.02264000  0.25000100  0.87928700  1
  O  O4  1  0.09794800  0.74997400  0.60669800  1
  O  O5  1  0.09741400  0.74998400  0.89313200  1
  O  O6  1  0.90204200  0.25001400  0.39322200  1
  O  O7  1  0.90252300  0.25002600  0.10690100  1
  O  O8  1  0.54628500  0.50074000  0.62091900  1
  O  O9  1  0.54606500  0.99927000  0.87907700  1
  O  O10  1  0.45378100  0.00077800  0.37909500  1
  O  O11  1  0.45385300  0.49927700  0.12083800  1
  O  O12  1  0.45379800  0.49925400  0.37908200  1
  O  O13  1  0.45385700  0.00072800  0.12083600  1
  O  O14  1  0.54628400  0.99925400  0.62091100  1
  O  O15  1  0.54605400  0.50069500  0.87907000  1
loop_
_geom_bond_atom_site_label_1
_geom_bond_atom_site_label_2
_geom_bond_distance
_geom_bond_site_symmetry_2
Ca0 O3 2.312789 1_655
Ca0 O2 2.315402 1_655
Ca0 O8 2.496434 1_555
Ca0 O14 2.497025 1_545
Ca0 O15 2.497399 1_555
Ca0 O9 2.498033 1_545
Ca1 O1 2.312848 1_455
Ca1 O0 2.314447 1_455
Ca1 O12 2.497350 1_555
Ca1 O10 2.498038 1_565
Ca1 O11 2.498482 1_555
Ca1 O13 2.499065 1_565
Ca2 O6 2.278668 1_555
Ca2 O7 2.279817 1_555
Ca2 O11 2.496118 1_555
Ca2 O13 2.496330 1_555
Ca2 O12 2.497296 1_555
Ca2 O10 2.497553 1_555
Ca3 O4 2.277710 1_555
Ca3 O5 2.280206 1_555
Ca3 O15 2.496533 1_555
Ca3 O9 2.496848 1_555
Ca3 O8 2.497658 1_555
Ca3 O14 2.498027 1_555
Ag0 O10 2.050046 1_565
Ag0 O12 2.050294 1_555
Ag0 O14 2.059998 1_555
Ag0 O8 2.060265 1_555
Ag1 O13 2.049094 1_565
Ag1 O11 2.049146 1_555
Ag1 O9 2.060631 1_554
Ag1 O15 2.060774 1_554
Ag2 O14 2.050282 1_545
Ag2 O8 2.050528 1_555
Ag2 O10 2.059572 1_555
Ag2 O12 2.059879 1_555
Ag3 O15 2.050867 1_555
Ag3 O9 2.050868 1_545
Ag3 O13 2.058988 1_556
Ag3 O11 2.059030 1_556
Ag4 O4 2.021853 1_555
Ag4 O0 2.027065 1_455
Ag4 O6 2.027260 1_455
Ag4 O2 2.031409 1_555
Ag5 O5 2.023563 1_654
Ag5 O7 2.026217 1_565
Ag5 O1 2.026322 1_555
Ag5 O3 2.031118 1_664
Ag6 O4 2.021939 1_555
Ag6 O0 2.027009 1_455
Ag6 O6 2.027248 1_465
Ag6 O2 2.031451 1_565
Ag7 O5 2.023546 1_654
Ag7 O7 2.026121 1_555
Ag7 O1 2.026356 1_555
Ag7 O3 2.031104 1_654
