# generated using pymatgen
data_MgFe10(O4F)4
_symmetry_space_group_name_H-M   'P 1'
_cell_length_a   4.90710840
_cell_length_b   12.96601861
_cell_length_c   5.55762551
_cell_angle_alpha   103.34297007
_cell_angle_beta   90.66280380
_cell_angle_gamma   89.95181822
_symmetry_Int_Tables_number   1
_chemical_formula_structural   MgFe10(O4F)4
_chemical_formula_sum   'Mg1 Fe10 O16 F4'
_cell_volume   344.03869712
_cell_formula_units_Z   1
loop_
 _symmetry_equiv_pos_site_id
 _symmetry_equiv_pos_as_xyz
  1  'x, y, z'
loop_
 _atom_site_type_symbol
 _atom_site_label
 _atom_site_symmetry_multiplicity
 _atom_site_fract_x
 _atom_site_fract_y
 _atom_site_fract_z
 _atom_site_occupancy
  Mg  Mg0  1  0.51962297  0.09879457  0.19890126  1
  Fe  Fe0  1  0.48379359  0.98039292  0.54182414  1
  Fe  Fe1  1  0.47136684  0.41486639  0.30039631  1
  Fe  Fe2  1  0.47747265  0.22652828  0.83808206  1
  Fe  Fe3  1  0.50819200  0.60841810  0.69565812  1
  Fe  Fe4  1  0.53015165  0.80209976  0.10604756  1
  Fe  Fe5  1  0.97439617  0.40290058  0.79048624  1
  Fe  Fe6  1  0.99692833  0.79810820  0.62510104  1
  Fe  Fe7  1  0.03275665  0.20163741  0.40426246  1
  Fe  Fe8  1  0.96695754  0.59645786  0.21653181  1
  Fe  Fe9  1  0.03348821  0.99188097  0.02768066  1
  O  O0  1  0.81232803  0.25999089  0.69468232  1
  O  O1  1  0.83248641  0.86538559  0.95023906  1
  O  O2  1  0.81762232  0.66488928  0.53166809  1
  O  O3  1  0.85912239  0.05802678  0.32920819  1
  O  O4  1  0.79507761  0.45749388  0.11792122  1
  O  O5  1  0.67044076  0.46808609  0.61763448  1
  O  O6  1  0.67814356  0.65945442  0.02026343  1
  O  O7  1  0.69186672  0.85316418  0.44204470  1
  O  O8  1  0.29692968  0.35347464  0.98024948  1
  O  O9  1  0.32266736  0.74271788  0.78962478  1
  O  O10  1  0.35199338  0.13264945  0.54293688  1
  O  O11  1  0.36049364  0.94623847  0.19241925  1
  O  O12  1  0.29863375  0.55304351  0.39566370  1
  O  O13  1  0.17714644  0.13809153  0.06191605  1
  O  O14  1  0.17787415  0.93899377  0.70590774  1
  O  O15  1  0.19259344  0.34038221  0.47416804  1
  F  F0  1  0.67107326  0.06300703  0.85397722  1
  F  F1  1  0.66252312  0.24612378  0.19385448  1
  F  F2  1  0.16770518  0.54703084  0.88753998  1
  F  F3  1  0.18204621  0.74592173  0.28263328  1
loop_
_geom_bond_atom_site_label_1
_geom_bond_atom_site_label_2
_geom_bond_distance
_geom_bond_site_symmetry_2
Mg0 O3 1.930439 1_555
Mg0 O13 1.952313 1_555
Mg0 O10 2.042923 1_555
Mg0 O11 2.119615 1_545
Fe0 O14 1.905840 1_555
Fe0 O7 1.912959 1_555
Fe0 O11 1.977213 1_555
Fe0 O10 2.075562 1_565
Fe0 O3 2.530640 1_565
Fe1 O12 1.943874 1_555
Fe1 O8 1.960686 1_554
Fe1 O5 1.984614 1_555
Fe1 O4 2.038304 1_555
Fe1 O15 2.049393 1_555
Fe2 O8 1.879343 1_555
Fe2 O10 1.899402 1_555
Fe2 O0 1.927305 1_555
Fe2 O13 2.395390 1_556
Fe3 O9 1.929347 1_555
Fe3 O12 1.939526 1_555
Fe3 O5 1.942692 1_555
Fe3 O6 1.950143 1_556
Fe3 O2 2.003554 1_555
Fe4 O6 1.942741 1_555
Fe4 O7 1.987720 1_555
Fe4 O1 1.995976 1_554
Fe4 O11 2.002222 1_555
Fe4 O9 2.014179 1_554
Fe5 O0 1.971492 1_555
Fe5 O4 2.007070 1_556
Fe5 O5 2.049727 1_555
Fe5 O15 2.068421 1_655
Fe5 O8 2.073533 1_655
Fe6 O2 1.898800 1_555
Fe6 O14 1.985413 1_655
Fe6 O1 1.995576 1_555
Fe6 O7 2.020818 1_555
Fe6 O9 2.043089 1_655
Fe7 O15 1.917065 1_555
Fe7 O0 1.955240 1_455
Fe7 O3 2.000794 1_455
Fe7 O13 2.026710 1_555
Fe7 O10 2.033723 1_555
Fe8 O2 1.924330 1_555
Fe8 O4 1.947905 1_555
Fe8 O12 2.043674 1_655
Fe8 O6 2.058907 1_555
Fe9 O1 1.874899 1_454
Fe9 O14 1.905968 1_554
Fe9 O3 1.909049 1_465
Fe9 O13 1.989912 1_565
Fe9 O11 1.994461 1_555
F0 Mg0 2.015983 1_556
F0 Fe0 2.026985 1_545
F0 Fe9 2.305132 1_646
F0 Fe2 2.342390 1_555
F1 Mg0 2.041834 1_555
F1 Fe2 2.127351 1_554
F1 Fe7 2.293735 1_655
F1 Fe1 2.330007 1_555
F2 Fe5 2.051596 1_455
F2 Fe8 2.055232 1_456
F2 Fe3 2.235528 1_555
F3 Fe6 2.085702 1_455
F3 Fe8 2.161130 1_455
F3 Fe4 2.186883 1_555
