# generated using pymatgen
data_Si2B2H37C12N5
_symmetry_space_group_name_H-M   'P 1'
_cell_length_a   16.76879300
_cell_length_b   12.46531500
_cell_length_c   12.96271922
_cell_angle_alpha   90.00000000
_cell_angle_beta   102.87702675
_cell_angle_gamma   90.00000000
_symmetry_Int_Tables_number   1
_chemical_formula_structural   Si2B2H37C12N5
_chemical_formula_sum   'Si8 B8 H148 C48 N20'
_cell_volume   2641.43088868
_cell_formula_units_Z   4
loop_
 _symmetry_equiv_pos_site_id
 _symmetry_equiv_pos_as_xyz
  1  'x, y, z'
loop_
 _atom_site_type_symbol
 _atom_site_label
 _atom_site_symmetry_multiplicity
 _atom_site_fract_x
 _atom_site_fract_y
 _atom_site_fract_z
 _atom_site_occupancy
  Si  Si0  1  0.37859400  0.47698500  0.71402600  1
  Si  Si1  1  0.62140600  0.97698500  0.78597400  1
  Si  Si2  1  0.62140600  0.52301500  0.28597400  1
  Si  Si3  1  0.37859400  0.02301500  0.21402600  1
  Si  Si4  1  0.18464200  0.21590600  0.66342300  1
  Si  Si5  1  0.81535700  0.71590600  0.83657700  1
  Si  Si6  1  0.81535700  0.78409400  0.33657700  1
  Si  Si7  1  0.18464200  0.28409400  0.16342300  1
  B  B0  1  0.20968900  0.44874900  0.70216400  1
  B  B1  1  0.79031100  0.94874900  0.79783600  1
  B  B2  1  0.79031100  0.55125100  0.29783600  1
  B  B3  1  0.20968900  0.05125100  0.20216400  1
  B  B4  1  0.26538000  0.64040400  0.72089500  1
  B  B5  1  0.73462000  0.14040400  0.77910500  1
  B  B6  1  0.73462000  0.35959600  0.27910500  1
  B  B7  1  0.26538000  0.85959600  0.22089500  1
  H  H0  1  0.25123600  0.35254200  0.59540200  1
  H  H1  1  0.74876400  0.85254200  0.90459800  1
  H  H2  1  0.74876400  0.64745800  0.40459800  1
  H  H3  1  0.25123600  0.14745800  0.09540200  1
  H  H4  1  0.11200500  0.60825800  0.52719500  1
  H  H5  1  0.88799500  0.10825800  0.97280500  1
  H  H6  1  0.88799500  0.39174200  0.47280500  1
  H  H7  1  0.11200500  0.89174200  0.02719500  1
  H  H8  1  0.17200700  0.69949800  0.47054200  1
  H  H9  1  0.82799300  0.19949800  0.02945800  1
  H  H10  1  0.82799300  0.30050200  0.52945800  1
  H  H11  1  0.17200700  0.80050200  0.97054200  1
  H  H12  1  0.21438200  0.57417200  0.52273900  1
  H  H13  1  0.78561800  0.07417200  0.97726100  1
  H  H14  1  0.78561800  0.42582800  0.47726100  1
  H  H15  1  0.21438200  0.92582800  0.02273900  1
  H  H16  1  0.16968900  0.85243500  0.59777700  1
  H  H17  1  0.83031100  0.35243500  0.90222300  1
  H  H18  1  0.83031100  0.14756500  0.40222300  1
  H  H19  1  0.16968900  0.64756500  0.09777700  1
  H  H20  1  0.09350900  0.77005400  0.63259500  1
  H  H21  1  0.90649100  0.27005400  0.86740500  1
  H  H22  1  0.90649100  0.22994600  0.36740500  1
  H  H23  1  0.09350900  0.72994600  0.13259500  1
  H  H24  1  0.17724100  0.81501100  0.73277400  1
  H  H25  1  0.82275900  0.31501100  0.76722600  1
  H  H26  1  0.82275900  0.18498900  0.26722600  1
  H  H27  1  0.17724100  0.68498900  0.23277400  1
  H  H28  1  0.10457600  0.62504500  0.79391000  1
  H  H29  1  0.89542400  0.12504500  0.70609000  1
  H  H30  1  0.89542400  0.37495500  0.20609000  1
  H  H31  1  0.10457600  0.87495500  0.29391000  1
  H  H32  1  0.10342400  0.51726700  0.88360700  1
  H  H33  1  0.89657600  0.01726700  0.61639300  1
  H  H34  1  0.89657600  0.48273300  0.11639300  1
  H  H35  1  0.10342400  0.98273300  0.38360700  1
  H  H36  1  0.19844500  0.57104600  0.86883000  1
  H  H37  1  0.80155500  0.07104600  0.63117000  1
  H  H38  1  0.80155500  0.42895400  0.13117000  1
  H  H39  1  0.19844500  0.92895400  0.36883000  1
  H  H40  1  0.24977300  0.04316200  0.62925200  1
  H  H41  1  0.75022700  0.54316200  0.87074800  1
  H  H42  1  0.75022700  0.95683800  0.37074800  1
  H  H43  1  0.24977300  0.45683800  0.12925200  1
  H  H44  1  0.26712800  0.14346700  0.54049900  1
  H  H45  1  0.73287200  0.64346700  0.95950100  1
  H  H46  1  0.73287200  0.85653300  0.45950100  1
  H  H47  1  0.26712800  0.35653300  0.04049900  1
  H  H48  1  0.32650100  0.14139600  0.67246600  1
  H  H49  1  0.67349900  0.64139600  0.82753400  1
  H  H50  1  0.67349900  0.85860400  0.32753400  1
  H  H51  1  0.32650100  0.35860400  0.17246600  1
  H  H52  1  0.30138400  0.87100100  0.84439400  1
  H  H53  1  0.69861600  0.37100100  0.65560600  1
  H  H54  1  0.69861600  0.12899900  0.15560600  1
  H  H55  1  0.30138400  0.62899900  0.34439400  1
  H  H56  1  0.39763100  0.83055800  0.82174600  1
  H  H57  1  0.60236900  0.33055800  0.67825400  1
  H  H58  1  0.60236900  0.16944200  0.17825400  1
  H  H59  1  0.39763100  0.66944200  0.32174600  1
  H  H60  1  0.31224000  0.84255100  0.71293700  1
  H  H61  1  0.68776000  0.34255100  0.78706300  1
  H  H62  1  0.68776000  0.15744900  0.28706300  1
  H  H63  1  0.31224000  0.65744900  0.21293700  1
  H  H64  1  0.07805700  0.08377100  0.58634000  1
  H  H65  1  0.92194300  0.58377100  0.91366000  1
  H  H66  1  0.92194300  0.91622900  0.41366000  1
  H  H67  1  0.07805700  0.41622900  0.08634000  1
  H  H68  1  0.02983500  0.20855800  0.59650600  1
  H  H69  1  0.97016500  0.70855800  0.90349400  1
  H  H70  1  0.97016500  0.79144200  0.40349400  1
  H  H71  1  0.02983500  0.29144200  0.09650600  1
  H  H72  1  0.08261600  0.18713800  0.49364200  1
  H  H73  1  0.91738400  0.68713800  0.00635800  1
  H  H74  1  0.91738400  0.81286200  0.50635800  1
  H  H75  1  0.08261600  0.31286200  0.99364200  1
  H  H76  1  0.44795400  0.41745200  0.57527500  1
  H  H77  1  0.55204600  0.91745200  0.92472500  1
  H  H78  1  0.55204600  0.58254800  0.42472500  1
  H  H79  1  0.44795400  0.08254800  0.07527500  1
  H  H80  1  0.36902500  0.32516800  0.57950100  1
  H  H81  1  0.63097500  0.82516800  0.92049900  1
  H  H82  1  0.63097500  0.67483200  0.42049900  1
  H  H83  1  0.36902500  0.17483200  0.07950100  1
  H  H84  1  0.34585000  0.45170800  0.51517800  1
  H  H85  1  0.65415000  0.95170800  0.98482200  1
  H  H86  1  0.65415000  0.54829200  0.48482200  1
  H  H87  1  0.34585000  0.04829200  0.01517800  1
  H  H88  1  0.03404000  0.37877100  0.75289700  1
  H  H89  1  0.96596000  0.87877100  0.74710300  1
  H  H90  1  0.96596000  0.62122900  0.24710300  1
  H  H91  1  0.03404000  0.12122900  0.25289700  1
  H  H92  1  0.01399400  0.49623600  0.67351100  1
  H  H93  1  0.98600600  0.99623600  0.82648900  1
  H  H94  1  0.98600600  0.50376400  0.32648900  1
  H  H95  1  0.01399400  0.00376400  0.17351100  1
  H  H96  1  0.06017500  0.38319500  0.62637200  1
  H  H97  1  0.93982500  0.88319500  0.87362800  1
  H  H98  1  0.93982500  0.61680500  0.37362800  1
  H  H99  1  0.06017500  0.11680500  0.12637200  1
  H  H100  1  0.46619900  0.63083600  0.80298000  1
  H  H101  1  0.53380100  0.13083600  0.69702000  1
  H  H102  1  0.53380100  0.36916400  0.19702000  1
  H  H103  1  0.46619900  0.86916400  0.30298000  1
  H  H104  1  0.51221900  0.55756600  0.71436900  1
  H  H105  1  0.48778100  0.05756600  0.78563100  1
  H  H106  1  0.48778100  0.44243400  0.28563100  1
  H  H107  1  0.51221900  0.94243400  0.21436900  1
  H  H108  1  0.43448500  0.65229900  0.66425800  1
  H  H109  1  0.56551500  0.15229900  0.83574200  1
  H  H110  1  0.56551500  0.34770100  0.33574200  1
  H  H111  1  0.43448500  0.84770100  0.16425800  1
  H  H112  1  0.47766500  0.34807900  0.81934400  1
  H  H113  1  0.52233500  0.84807900  0.68065600  1
  H  H114  1  0.52233500  0.65192100  0.18065600  1
  H  H115  1  0.47766500  0.15192100  0.31934400  1
  H  H116  1  0.42292000  0.41720200  0.90160200  1
  H  H117  1  0.57708000  0.91720200  0.59839800  1
  H  H118  1  0.57708000  0.58279800  0.09839800  1
  H  H119  1  0.42292000  0.08279800  0.40160200  1
  H  H120  1  0.37613800  0.30923900  0.82031200  1
  H  H121  1  0.62386200  0.80923900  0.67968800  1
  H  H122  1  0.62386200  0.69076100  0.17968800  1
  H  H123  1  0.37613800  0.19076100  0.32031200  1
  H  H124  1  0.41259000  0.67523200  0.93497100  1
  H  H125  1  0.58741000  0.17523200  0.56502900  1
  H  H126  1  0.58741000  0.32476800  0.06502900  1
  H  H127  1  0.41259000  0.82476800  0.43497100  1
  H  H128  1  0.31958000  0.70664000  0.97200800  1
  H  H129  1  0.68042000  0.20664000  0.52799200  1
  H  H130  1  0.68042000  0.29336000  0.02799200  1
  H  H131  1  0.31958000  0.79336000  0.47200800  1
  H  H132  1  0.33246000  0.57835700  0.91643700  1
  H  H133  1  0.66754000  0.07835700  0.58356300  1
  H  H134  1  0.66754000  0.42164300  0.08356300  1
  H  H135  1  0.33246000  0.92164300  0.41643700  1
  H  H136  1  0.13365200  0.23533700  0.83143800  1
  H  H137  1  0.86634800  0.73533700  0.66856200  1
  H  H138  1  0.86634800  0.76466300  0.16856200  1
  H  H139  1  0.13365200  0.26466300  0.33143800  1
  H  H140  1  0.16991400  0.10431200  0.81454300  1
  H  H141  1  0.83008600  0.60431200  0.68545700  1
  H  H142  1  0.83008600  0.89568800  0.18545700  1
  H  H143  1  0.16991400  0.39568800  0.31454300  1
  H  H144  1  0.24042700  0.20974900  0.85956900  1
  H  H145  1  0.75957300  0.70974900  0.64043100  1
  H  H146  1  0.75957300  0.79025100  0.14043100  1
  H  H147  1  0.24042700  0.29025100  0.35956900  1
  C  C0  1  0.17458400  0.64048300  0.53492000  1
  C  C1  1  0.82541600  0.14048300  0.96508000  1
  C  C2  1  0.82541600  0.35951700  0.46508000  1
  C  C3  1  0.17458400  0.85951700  0.03492000  1
  C  C4  1  0.15999700  0.78653700  0.65091500  1
  C  C5  1  0.84000300  0.28653700  0.84908500  1
  C  C6  1  0.84000300  0.21346300  0.34908500  1
  C  C7  1  0.15999700  0.71346300  0.15091500  1
  C  C8  1  0.13642700  0.55042500  0.82593800  1
  C  C9  1  0.86357300  0.05042500  0.67406200  1
  C  C10  1  0.86357300  0.44957500  0.17406200  1
  C  C11  1  0.13642700  0.94957500  0.32593800  1
  C  C12  1  0.26473100  0.12859700  0.62346800  1
  C  C13  1  0.73526900  0.62859700  0.87653200  1
  C  C14  1  0.73526900  0.87140300  0.37653200  1
  C  C15  1  0.26473100  0.37140300  0.12346800  1
  C  C16  1  0.33090200  0.81741700  0.79578700  1
  C  C17  1  0.66909800  0.31741700  0.70421300  1
  C  C18  1  0.66909800  0.18258300  0.20421300  1
  C  C19  1  0.33090200  0.68258300  0.29578700  1
  C  C20  1  0.08402600  0.17110600  0.57742000  1
  C  C21  1  0.91597400  0.67110600  0.92258000  1
  C  C22  1  0.91597400  0.82889400  0.42258000  1
  C  C23  1  0.08402600  0.32889400  0.07742000  1
  C  C24  1  0.38428300  0.41103200  0.58395200  1
  C  C25  1  0.61571700  0.91103200  0.91604800  1
  C  C26  1  0.61571700  0.58896800  0.41604800  1
  C  C27  1  0.38428300  0.08896800  0.08395200  1
  C  C28  1  0.05825400  0.43010900  0.69721400  1
  C  C29  1  0.94174600  0.93010900  0.80278600  1
  C  C30  1  0.94174600  0.56989100  0.30278600  1
  C  C31  1  0.05825400  0.06989100  0.19721400  1
  C  C32  1  0.45393000  0.59094200  0.72566600  1
  C  C33  1  0.54607000  0.09094200  0.77433400  1
  C  C34  1  0.54607000  0.40905800  0.27433400  1
  C  C35  1  0.45393000  0.90905800  0.22566600  1
  C  C36  1  0.41702300  0.37870400  0.82395300  1
  C  C37  1  0.58297700  0.87870400  0.67604700  1
  C  C38  1  0.58297700  0.62129600  0.17604700  1
  C  C39  1  0.41702300  0.12129600  0.32395300  1
  C  C40  1  0.34546300  0.66421400  0.91184100  1
  C  C41  1  0.65453700  0.16421400  0.58815900  1
  C  C42  1  0.65453700  0.33578600  0.08815900  1
  C  C43  1  0.34546300  0.83578600  0.41184100  1
  C  C44  1  0.18191300  0.19020300  0.80544000  1
  C  C45  1  0.81808700  0.69020300  0.69456000  1
  C  C46  1  0.81808700  0.80979700  0.19456000  1
  C  C47  1  0.18191300  0.30979700  0.30544000  1
  N  N0  1  0.27939700  0.52339600  0.71689100  1
  N  N1  1  0.72060300  0.02339600  0.78310900  1
  N  N2  1  0.72060300  0.47660400  0.28310900  1
  N  N3  1  0.27939700  0.97660400  0.21689100  1
  N  N4  1  0.20558400  0.69047400  0.63730300  1
  N  N5  1  0.79441600  0.19047400  0.86269700  1
  N  N6  1  0.79441600  0.30952600  0.36269700  1
  N  N7  1  0.20558400  0.80952600  0.13730300  1
  N  N8  1  0.13883400  0.47255100  0.74357000  1
  N  N9  1  0.86116600  0.97255100  0.75643000  1
  N  N10  1  0.86116600  0.52744900  0.25643000  1
  N  N11  1  0.13883400  0.02744900  0.24357000  1
  N  N12  1  0.21146100  0.34900300  0.64431400  1
  N  N13  1  0.78853900  0.84900300  0.85568600  1
  N  N14  1  0.78853900  0.65099700  0.35568600  1
  N  N15  1  0.21146100  0.15099700  0.14431400  1
  N  N16  1  0.31144600  0.70507700  0.80637300  1
  N  N17  1  0.68855400  0.20507700  0.69362700  1
  N  N18  1  0.68855400  0.29492300  0.19362700  1
  N  N19  1  0.31144600  0.79492300  0.30637300  1
loop_
_geom_bond_atom_site_label_1
_geom_bond_atom_site_label_2
_geom_bond_distance
_geom_bond_site_symmetry_2
B0 N8 1.439467 1_555
B0 N12 1.455717 1_555
B0 N0 1.472814 1_555
B1 N9 1.439467 1_555
B1 N13 1.455717 1_555
B1 N1 1.472814 1_565
B2 N10 1.439467 1_555
B2 N14 1.455717 1_555
B2 N2 1.472814 1_555
B3 N11 1.439467 1_555
B3 N15 1.455717 1_555
B3 N3 1.472814 1_545
B4 N4 1.443896 1_555
B4 N16 1.446667 1_555
B4 N0 1.480109 1_555
B5 N5 1.443896 1_555
B5 N17 1.446667 1_555
B5 N1 1.480109 1_555
B6 N6 1.443896 1_555
B6 N18 1.446667 1_555
B6 N2 1.480109 1_555
B7 N7 1.443896 1_555
B7 N19 1.446667 1_555
B7 N3 1.480109 1_555
H0 N12 1.018475 1_555
H1 N13 1.018475 1_555
H2 N14 1.018475 1_555
H3 N15 1.018475 1_555
C0 H12 1.095683 1_555
C0 H8 1.106063 1_555
C0 H4 1.107130 1_555
C0 N4 1.453411 1_555
C1 H13 1.095683 1_555
C1 H9 1.106063 1_556
C1 H5 1.107130 1_555
C1 N5 1.453411 1_555
C2 H14 1.095683 1_555
C2 H10 1.106063 1_555
C2 H6 1.107130 1_555
C2 N6 1.453411 1_555
C3 H15 1.095683 1_555
C3 H11 1.106063 1_554
C3 H7 1.107130 1_555
C3 N7 1.453411 1_555
C4 H24 1.094897 1_555
C4 H20 1.106189 1_555
C4 H16 1.107040 1_555
C4 N4 1.452419 1_555
C5 H25 1.094897 1_555
C5 H21 1.106189 1_555
C5 H17 1.107040 1_555
C5 N5 1.452419 1_555
C6 H26 1.094897 1_555
C6 H22 1.106189 1_555
C6 H18 1.107040 1_555
C6 N6 1.452419 1_555
C7 H27 1.094897 1_555
C7 H23 1.106189 1_555
C7 H19 1.107040 1_555
C7 N7 1.452419 1_555
C8 H36 1.094995 1_555
C8 H32 1.104688 1_555
C8 H28 1.106344 1_555
C8 N8 1.450226 1_555
C9 H37 1.094995 1_555
C9 H33 1.104688 1_555
C9 H29 1.106344 1_555
C9 N9 1.450226 1_545
C10 H38 1.094995 1_555
C10 H34 1.104688 1_555
C10 H30 1.106344 1_555
C10 N10 1.450226 1_555
C11 H39 1.094995 1_555
C11 H35 1.104688 1_555
C11 H31 1.106344 1_555
C11 N11 1.450226 1_565
C12 H48 1.099332 1_555
C12 H40 1.100495 1_555
C12 H44 1.100886 1_555
C12 Si4 1.888488 1_555
C13 H49 1.099332 1_555
C13 H41 1.100495 1_555
C13 H45 1.100886 1_555
C13 Si5 1.888475 1_555
C14 H50 1.099332 1_555
C14 H42 1.100495 1_555
C14 H46 1.100886 1_555
C14 Si6 1.888475 1_555
C15 H51 1.099332 1_555
C15 H43 1.100495 1_555
C15 H47 1.100886 1_555
C15 Si7 1.888488 1_555
C16 H60 1.095301 1_555
C16 H56 1.106490 1_555
C16 H52 1.107773 1_555
C16 N16 1.451281 1_555
C17 H61 1.095301 1_555
C17 H57 1.106490 1_555
C17 H53 1.107773 1_555
C17 N17 1.451281 1_555
C18 H62 1.095301 1_555
C18 H58 1.106490 1_555
C18 H54 1.107773 1_555
C18 N18 1.451281 1_555
C19 H63 1.095301 1_555
C19 H59 1.106490 1_555
C19 H55 1.107773 1_555
C19 N19 1.451281 1_555
C20 H68 1.097786 1_555
C20 H72 1.099285 1_555
C20 H64 1.101691 1_555
C20 Si4 1.887594 1_555
C21 H69 1.097786 1_555
C21 H73 1.099285 1_556
C21 H65 1.101691 1_555
C21 Si5 1.887607 1_555
C22 H70 1.097786 1_555
C22 H74 1.099285 1_555
C22 H66 1.101691 1_555
C22 Si6 1.887607 1_555
C23 H71 1.097786 1_555
C23 H75 1.099285 1_554
C23 H67 1.101691 1_555
C23 Si7 1.887594 1_555
C24 H80 1.099000 1_555
C24 H84 1.100508 1_555
C24 H76 1.101152 1_555
C24 Si0 1.897277 1_555
C25 H81 1.099000 1_555
C25 H85 1.100508 1_555
C25 H77 1.101152 1_555
C25 Si1 1.897277 1_555
C26 H82 1.099000 1_555
C26 H86 1.100508 1_555
C26 H78 1.101152 1_555
C26 Si2 1.897277 1_555
C27 H83 1.099000 1_555
C27 H87 1.100508 1_555
C27 H79 1.101152 1_555
C27 Si3 1.897277 1_555
C28 H96 1.095215 1_555
C28 H92 1.105923 1_555
C28 H88 1.107262 1_555
C28 N8 1.450826 1_555
C29 H97 1.095215 1_555
C29 H93 1.105923 1_555
C29 H89 1.107262 1_555
C29 N9 1.450826 1_555
C30 H98 1.095215 1_555
C30 H94 1.105923 1_555
C30 H90 1.107262 1_555
C30 N10 1.450826 1_555
C31 H99 1.095215 1_555
C31 H95 1.105923 1_555
C31 H91 1.107262 1_555
C31 N11 1.450826 1_555
C32 H100 1.096416 1_555
C32 H108 1.099656 1_555
C32 H104 1.101688 1_555
C32 Si0 1.884560 1_555
C33 H101 1.096416 1_555
C33 H109 1.099656 1_555
C33 H105 1.101688 1_555
C33 Si1 1.884560 1_545
C34 H102 1.096416 1_555
C34 H110 1.099656 1_555
C34 H106 1.101688 1_555
C34 Si2 1.884560 1_555
C35 H103 1.096416 1_555
C35 H111 1.099656 1_555
C35 H107 1.101688 1_555
C35 Si3 1.884560 1_565
C36 H120 1.098922 1_555
C36 H116 1.099471 1_555
C36 H112 1.100206 1_555
C36 Si0 1.880784 1_555
C37 H121 1.098922 1_555
C37 H117 1.099471 1_555
C37 H113 1.100206 1_555
C37 Si1 1.880784 1_555
C38 H122 1.098922 1_555
C38 H118 1.099471 1_555
C38 H114 1.100206 1_555
C38 Si2 1.880784 1_555
C39 H123 1.098922 1_555
C39 H119 1.099471 1_555
C39 H115 1.100206 1_555
C39 Si3 1.880784 1_555
C40 H132 1.096488 1_555
C40 H124 1.106975 1_555
C40 H128 1.107805 1_555
C40 N16 1.451327 1_555
C41 H133 1.096488 1_555
C41 H125 1.106975 1_555
C41 H129 1.107805 1_555
C41 N17 1.451327 1_555
C42 H134 1.096488 1_555
C42 H126 1.106975 1_555
C42 H130 1.107805 1_555
C42 N18 1.451327 1_555
C43 H135 1.096488 1_555
C43 H127 1.106975 1_555
C43 H131 1.107805 1_555
C43 N19 1.451327 1_555
C44 H136 1.098451 1_555
C44 H144 1.098906 1_555
C44 H140 1.100591 1_555
C44 Si4 1.879177 1_555
C45 H137 1.098451 1_555
C45 H145 1.098906 1_555
C45 H141 1.100591 1_555
C45 Si5 1.879181 1_555
C46 H138 1.098451 1_555
C46 H146 1.098906 1_555
C46 H142 1.100591 1_555
C46 Si6 1.879181 1_555
C47 H139 1.098451 1_555
C47 H147 1.098906 1_555
C47 H143 1.100591 1_555
C47 Si7 1.879177 1_555
N0 Si0 1.769337 1_555
N1 Si1 1.769337 1_545
N2 Si2 1.769337 1_555
N3 Si3 1.769337 1_565
N12 Si4 1.750960 1_555
N13 Si5 1.750955 1_555
N14 Si6 1.750955 1_555
N15 Si7 1.750960 1_555
