# generated using pymatgen
data_LiTbGe
_symmetry_space_group_name_H-M   'P 1'
_cell_length_a   7.07482990
_cell_length_b   7.07482990
_cell_length_c   4.24219364
_cell_angle_alpha   90.00000000
_cell_angle_beta   90.00000000
_cell_angle_gamma   119.99999644
_symmetry_Int_Tables_number   1
_chemical_formula_structural   LiTbGe
_chemical_formula_sum   'Li3 Tb3 Ge3'
_cell_volume   183.88789478
_cell_formula_units_Z   3
loop_
 _symmetry_equiv_pos_site_id
 _symmetry_equiv_pos_as_xyz
  1  'x, y, z'
loop_
 _atom_site_type_symbol
 _atom_site_label
 _atom_site_symmetry_multiplicity
 _atom_site_fract_x
 _atom_site_fract_y
 _atom_site_fract_z
 _atom_site_occupancy
  Li  Li0  1  0.76727450  0.76727450  0.50000000  1
  Li  Li1  1  0.23272550  0.00000000  0.50000000  1
  Li  Li2  1  0.00000000  0.23272550  0.50000000  1
  Tb  Tb0  1  0.42206583  0.42206583  -0.00000000  1
  Tb  Tb1  1  0.57793417  -0.00000000  0.00000000  1
  Tb  Tb2  1  -0.00000000  0.57793417  0.00000000  1
  Ge  Ge0  1  -0.00000000  0.00000000  -0.00000000  1
  Ge  Ge1  1  0.66666700  0.33333300  0.50000000  1
  Ge  Ge2  1  0.33333300  0.66666700  0.50000000  1
loop_
_geom_bond_atom_site_label_1
_geom_bond_atom_site_label_2
_geom_bond_distance
_geom_bond_site_symmetry_2
Ge0 Li1 2.685143 1_555
Ge0 Li1 2.685143 1_554
Ge0 Li2 2.685143 1_554
Ge0 Li2 2.685143 1_555
Ge0 Li0 2.685143 1_444
Ge0 Li0 2.685143 1_445
Ge0 Tb1 2.986044 1_455
Ge0 Tb2 2.986044 1_545
Ge0 Tb0 2.986044 1_555
Ge1 Li2 2.783283 1_655
Ge1 Li1 2.783288 1_555
Ge1 Li0 2.783290 1_555
Ge1 Tb1 2.995689 1_555
Ge1 Tb1 2.995689 1_556
Ge1 Tb2 2.995690 1_655
Ge1 Tb2 2.995690 1_656
Ge1 Tb0 2.995694 1_556
Ge1 Tb0 2.995694 1_555
Ge2 Li1 2.783283 1_565
Ge2 Li2 2.783288 1_555
Ge2 Li0 2.783290 1_555
Ge2 Tb2 2.995689 1_555
Ge2 Tb2 2.995689 1_556
Ge2 Tb1 2.995690 1_566
Ge2 Tb1 2.995690 1_565
Ge2 Tb0 2.995694 1_556
Ge2 Tb0 2.995694 1_555
