# generated using pymatgen
data_La3Cu4(As2O)2
_symmetry_space_group_name_H-M   'P 1'
_cell_length_a   4.12622400
_cell_length_b   4.12622400
_cell_length_c   14.31548320
_cell_angle_alpha   98.28618033
_cell_angle_beta   98.28618033
_cell_angle_gamma   90.00000000
_symmetry_Int_Tables_number   1
_chemical_formula_structural   La3Cu4(As2O)2
_chemical_formula_sum   'La3 Cu4 As4 O2'
_cell_volume   238.61551182
_cell_formula_units_Z   1
loop_
 _symmetry_equiv_pos_site_id
 _symmetry_equiv_pos_as_xyz
  1  'x, y, z'
loop_
 _atom_site_type_symbol
 _atom_site_label
 _atom_site_symmetry_multiplicity
 _atom_site_fract_x
 _atom_site_fract_y
 _atom_site_fract_z
 _atom_site_occupancy
  La  La0  1  0.29329100  0.29329100  0.58658200  1
  La  La1  1  0.70670900  0.70670900  0.41341800  1
  La  La2  1  0.00000000  0.00000000  0.00000000  1
  Cu  Cu0  1  0.09454800  0.59454800  0.18909600  1
  Cu  Cu1  1  0.90545200  0.40545200  0.81090400  1
  Cu  Cu2  1  0.59454800  0.09454800  0.18909600  1
  Cu  Cu3  1  0.40545200  0.90545200  0.81090400  1
  As  As0  1  0.45506900  0.45506900  0.91013800  1
  As  As1  1  0.54493100  0.54493100  0.08986200  1
  As  As2  1  0.14173300  0.14173300  0.28346600  1
  As  As3  1  0.85826700  0.85826700  0.71653400  1
  O  O0  1  0.25000000  0.75000000  0.50000000  1
  O  O1  1  0.75000000  0.25000000  0.50000000  1
loop_
_geom_bond_atom_site_label_1
_geom_bond_atom_site_label_2
_geom_bond_distance
_geom_bond_site_symmetry_2
La0 O0 2.393509 1_555
La0 O1 2.393509 1_455
La0 O0 2.393509 1_545
La0 O1 2.393509 1_555
La1 O1 2.393509 1_555
La1 O1 2.393509 1_565
La1 O0 2.393509 1_555
La1 O0 2.393509 1_655
Cu0 La2 3.358554 1_565
Cu0 La2 3.358554 1_555
Cu1 La2 3.358554 1_656
Cu1 La2 3.358554 1_666
Cu2 La2 3.358554 1_655
Cu2 La2 3.358554 1_555
Cu3 La2 3.358554 1_566
Cu3 La2 3.358554 1_666
As0 Cu1 2.488103 1_555
As0 Cu1 2.488103 1_455
As0 Cu3 2.488103 1_545
As0 Cu3 2.488103 1_555
As0 As1 2.518832 1_556
As0 La2 3.177891 1_666
As0 La2 3.177891 1_556
As0 La2 3.177891 1_566
As0 La2 3.177891 1_656
As1 Cu0 2.488103 1_655
As1 Cu2 2.488103 1_565
As1 Cu2 2.488103 1_555
As1 Cu0 2.488103 1_555
As1 La2 3.177891 1_665
As1 La2 3.177891 1_555
As1 La2 3.177891 1_565
As1 La2 3.177891 1_655
As2 Cu0 2.450651 1_555
As2 Cu0 2.450651 1_545
As2 Cu2 2.450651 1_555
As2 Cu2 2.450651 1_455
As2 La1 3.439464 1_445
As2 La1 3.439464 1_455
As2 La1 3.439464 1_555
As2 La1 3.439464 1_545
As3 Cu1 2.450651 1_565
As3 Cu3 2.450651 1_555
As3 Cu3 2.450651 1_655
As3 Cu1 2.450651 1_555
As3 La0 3.439464 1_655
As3 La0 3.439464 1_555
As3 La0 3.439464 1_565
As3 La0 3.439464 1_665
