# generated using pymatgen
data_Si5GeW10
_symmetry_space_group_name_H-M   'P 1'
_cell_length_a   5.01332300
_cell_length_b   7.31110798
_cell_length_c   7.31110798
_cell_angle_alpha   96.75076113
_cell_angle_beta   110.05100425
_cell_angle_gamma   69.94899575
_symmetry_Int_Tables_number   1
_chemical_formula_structural   Si5GeW10
_chemical_formula_sum   'Si5 Ge1 W10'
_cell_volume   236.47318461
_cell_formula_units_Z   1
loop_
 _symmetry_equiv_pos_site_id
 _symmetry_equiv_pos_as_xyz
  1  'x, y, z'
loop_
 _atom_site_type_symbol
 _atom_site_label
 _atom_site_symmetry_multiplicity
 _atom_site_fract_x
 _atom_site_fract_y
 _atom_site_fract_z
 _atom_site_occupancy
  Si  Si0  1  0.33134100  0.50000000  0.16268300  1
  Si  Si1  1  0.66865900  0.50000000  0.83731700  1
  Si  Si2  1  0.83134100  0.83731700  0.50000000  1
  Si  Si3  1  0.16865900  0.16268300  0.50000000  1
  Si  Si4  1  0.25000000  0.00000000  0.00000000  1
  Ge  Ge0  1  0.75000000  0.00000000  0.00000000  1
  W  W0  1  0.42198900  0.84781800  0.69742200  1
  W  W1  1  0.57238500  0.15218200  0.30257800  1
  W  W2  1  0.92761500  0.30257800  0.15218200  1
  W  W3  1  0.07801100  0.69742200  0.84781800  1
  W  W4  1  0.72456700  0.69742200  0.15218200  1
  W  W5  1  0.26980700  0.30257800  0.84781800  1
  W  W6  1  0.77543300  0.15218200  0.69742200  1
  W  W7  1  0.23019300  0.84781800  0.30257800  1
  W  W8  1  0.25000000  0.50000000  0.50000000  1
  W  W9  1  0.75000000  0.50000000  0.50000000  1
loop_
_geom_bond_atom_site_label_1
_geom_bond_atom_site_label_2
_geom_bond_distance
_geom_bond_site_symmetry_2
Si0 W5 2.552442 1_554
Si0 W3 2.552442 1_554
Si0 W1 2.574820 1_555
Si0 W7 2.574820 1_555
Si0 W8 2.633979 1_555
Si0 W9 2.633981 1_555
Si0 W2 2.838392 1_455
Si0 W4 2.838397 1_555
Si0 W4 2.863192 1_455
Si0 W2 2.863197 1_555
Si1 W2 2.552442 1_556
Si1 W4 2.552442 1_556
Si1 W6 2.574820 1_555
Si1 W0 2.574820 1_555
Si1 W9 2.633979 1_555
Si1 W8 2.633981 1_555
Si1 W5 2.838392 1_655
Si1 W3 2.838397 1_555
Si1 W3 2.863192 1_655
Si1 W5 2.863197 1_555
Si2 W1 2.552442 1_565
Si2 W6 2.552442 1_565
Si2 W4 2.574820 1_555
Si2 W3 2.574820 1_655
Si2 W9 2.633979 1_555
Si2 W8 2.633981 1_655
Si2 W7 2.838392 1_555
Si2 W0 2.838397 1_655
Si2 W0 2.863192 1_555
Si2 W7 2.863197 1_655
Si3 W7 2.552442 1_545
Si3 W0 2.552442 1_545
Si3 W2 2.574820 1_455
Si3 W5 2.574820 1_555
Si3 W8 2.633979 1_555
Si3 W9 2.633981 1_455
Si3 W1 2.838392 1_555
Si3 W6 2.838397 1_455
Si3 W6 2.863192 1_555
Si3 W1 2.863197 1_455
Si4 W5 2.635634 1_554
Si4 W7 2.635634 1_545
Si4 W0 2.635635 1_544
Si4 W3 2.635635 1_544
Si4 W1 2.635635 1_555
Si4 W2 2.635635 1_455
Si4 W4 2.635635 1_545
Si4 W6 2.635635 1_454
Ge0 Si4 2.506661 1_655
Ge0 Si4 2.506661 1_555
Ge0 W6 2.649013 1_554
Ge0 W4 2.649013 1_545
Ge0 W2 2.649013 1_555
Ge0 W1 2.649013 1_555
Ge0 W3 2.649013 1_644
Ge0 W0 2.649013 1_544
Ge0 W7 2.649013 1_645
Ge0 W5 2.649013 1_554
W8 W9 2.506661 1_555
W8 W9 2.506661 1_455
