# generated using pymatgen
data_HfMg6Ni
_symmetry_space_group_name_H-M   'P 1'
_cell_length_a   4.81928700
_cell_length_b   6.07647700
_cell_length_c   11.07887100
_cell_angle_alpha   90.00000000
_cell_angle_beta   90.00000000
_cell_angle_gamma   90.00000000
_symmetry_Int_Tables_number   1
_chemical_formula_structural   HfMg6Ni
_chemical_formula_sum   'Hf2 Mg12 Ni2'
_cell_volume   324.43683370
_cell_formula_units_Z   2
loop_
 _symmetry_equiv_pos_site_id
 _symmetry_equiv_pos_as_xyz
  1  'x, y, z'
loop_
 _atom_site_type_symbol
 _atom_site_label
 _atom_site_symmetry_multiplicity
 _atom_site_fract_x
 _atom_site_fract_y
 _atom_site_fract_z
 _atom_site_occupancy
  Hf  Hf0  1  0.50000000  0.50000000  0.19185400  1
  Hf  Hf1  1  0.50000000  0.00000000  0.69185400  1
  Mg  Mg0  1  0.00000000  0.74417300  0.07995300  1
  Mg  Mg1  1  0.00000000  0.25582700  0.07995300  1
  Mg  Mg2  1  0.00000000  0.00000000  0.32543100  1
  Mg  Mg3  1  0.50000000  0.25554600  0.42606200  1
  Mg  Mg4  1  0.50000000  0.74445400  0.42606200  1
  Mg  Mg5  1  0.50000000  0.00000000  0.16660900  1
  Mg  Mg6  1  0.00000000  0.24417300  0.57995300  1
  Mg  Mg7  1  0.00000000  0.75582700  0.57995300  1
  Mg  Mg8  1  0.00000000  0.50000000  0.82543100  1
  Mg  Mg9  1  0.50000000  0.75554600  0.92606200  1
  Mg  Mg10  1  0.50000000  0.24445400  0.92606200  1
  Mg  Mg11  1  0.50000000  0.50000000  0.66660900  1
  Ni  Ni0  1  0.00000000  0.50000000  0.30407500  1
  Ni  Ni1  1  0.00000000  0.00000000  0.80407500  1
loop_
_geom_bond_atom_site_label_1
_geom_bond_atom_site_label_2
_geom_bond_distance
_geom_bond_site_symmetry_2
Hf0 Ni0 2.711481 1_655
Hf0 Ni0 2.711481 1_555
Hf0 Mg4 2.989858 1_555
Hf0 Mg3 2.989858 1_555
Hf0 Mg5 3.051085 1_555
Hf0 Mg5 3.051085 1_565
Hf0 Mg9 3.329018 1_554
Hf0 Mg10 3.329018 1_554
Hf1 Ni1 2.711481 1_655
Hf1 Ni1 2.711481 1_555
Hf1 Mg10 2.989858 1_555
Hf1 Mg9 2.989858 1_545
Hf1 Mg11 3.051085 1_555
Hf1 Mg11 3.051085 1_545
Hf1 Mg3 3.329018 1_555
Hf1 Mg4 3.329018 1_545
Mg0 Ni0 2.892539 1_555
Mg0 Mg9 2.952621 1_554
Mg0 Mg9 2.952621 1_454
Mg0 Mg5 3.024009 1_565
Mg0 Mg5 3.024009 1_465
Mg0 Mg2 3.132552 1_565
Mg0 Mg8 3.186340 1_554
Mg1 Ni0 2.892539 1_555
Mg1 Mg10 2.952621 1_554
Mg1 Mg10 2.952621 1_454
Mg1 Mg5 3.024009 1_455
Mg1 Mg5 3.024009 1_555
Mg1 Mg2 3.132552 1_555
Mg1 Mg8 3.186340 1_554
Mg2 Mg5 2.983700 1_555
Mg2 Mg5 2.983700 1_455
Mg2 Ni0 3.047437 1_545
Mg2 Ni0 3.047437 1_555
Mg2 Mg3 3.075806 1_455
Mg2 Mg3 3.075806 1_555
Mg2 Mg4 3.075806 1_445
Mg2 Mg4 3.075806 1_545
Mg2 Mg6 3.186340 1_555
Mg2 Mg7 3.186340 1_545
Mg3 Mg6 2.952621 1_655
Mg3 Mg6 2.952621 1_555
Mg3 Mg4 2.970838 1_555
Mg3 Mg4 3.105639 1_545
Mg3 Ni0 3.136773 1_655
Mg3 Ni0 3.136773 1_555
Mg3 Mg5 3.267061 1_555
Mg4 Mg7 2.952621 1_555
Mg4 Mg7 2.952621 1_655
Mg4 Ni0 3.136773 1_655
Mg4 Ni0 3.136773 1_555
Mg4 Mg5 3.267061 1_565
Mg5 Mg9 3.051006 1_544
Mg6 Ni1 2.892539 1_555
Mg6 Mg8 3.132552 1_555
Mg7 Ni1 2.892539 1_565
Mg7 Mg8 3.132552 1_555
Mg8 Ni1 3.047437 1_565
Mg8 Ni1 3.047437 1_555
Mg8 Mg9 3.075806 1_555
Mg8 Mg9 3.075806 1_455
Mg9 Ni1 3.136773 1_665
Mg9 Ni1 3.136773 1_565
Mg10 Mg9 2.970838 1_545
Mg10 Mg5 3.051006 1_556
Mg10 Mg8 3.075806 1_555
Mg10 Mg8 3.075806 1_655
Mg10 Mg9 3.105639 1_555
Mg10 Ni1 3.136773 1_655
Mg10 Ni1 3.136773 1_555
Mg10 Mg11 3.267061 1_555
Mg11 Mg8 2.983700 1_555
Mg11 Mg8 2.983700 1_655
Mg11 Mg7 3.024009 1_655
Mg11 Mg7 3.024009 1_555
Mg11 Mg6 3.024009 1_655
Mg11 Mg6 3.024009 1_555
Mg11 Mg3 3.051006 1_555
Mg11 Mg4 3.051006 1_555
Mg11 Mg9 3.267061 1_555
