# generated using pymatgen
data_CeCrSe2O
_symmetry_space_group_name_H-M   'P 1'
_cell_length_a   3.92621028
_cell_length_b   6.09541077
_cell_length_c   8.39456352
_cell_angle_alpha   90.45862856
_cell_angle_beta   90.00347385
_cell_angle_gamma   108.78286465
_symmetry_Int_Tables_number   1
_chemical_formula_structural   CeCrSe2O
_chemical_formula_sum   'Ce2 Cr2 Se4 O2'
_cell_volume   190.19204471
_cell_formula_units_Z   2
loop_
 _symmetry_equiv_pos_site_id
 _symmetry_equiv_pos_as_xyz
  1  'x, y, z'
loop_
 _atom_site_type_symbol
 _atom_site_label
 _atom_site_symmetry_multiplicity
 _atom_site_fract_x
 _atom_site_fract_y
 _atom_site_fract_z
 _atom_site_occupancy
  O  O0  1  0.67245447  0.34502245  0.93700571  1
  O  O1  1  0.32757689  0.65502939  0.06301796  1
  Cr  Cr0  1  0.99995963  0.99995747  0.49998215  1
  Cr  Cr1  1  0.50000406  -0.00002487  1.00001029  1
  Se  Se0  1  0.35468271  0.70919054  0.46424124  1
  Se  Se1  1  0.05243425  0.10453685  0.20335113  1
  Se  Se2  1  0.94759895  0.89544951  0.79664185  1
  Se  Se3  1  0.64527084  0.29077780  0.53573620  1
  Ce  Ce0  1  0.22807973  0.45626216  0.80817943  1
  Ce  Ce1  1  0.77194314  0.54379763  0.19183437  1
loop_
_geom_bond_atom_site_label_1
_geom_bond_atom_site_label_2
_geom_bond_distance
_geom_bond_site_symmetry_2
Cr0 Se1 2.567145 1_665
Cr0 Se2 2.567279 1_555
Cr0 Se0 2.598010 1_555
Cr0 Se3 2.598243 1_665
Cr0 Se0 2.598455 1_655
Cr0 Se3 2.598643 1_565
Cr1 O1 2.064013 1_546
Cr1 O0 2.064573 1_555
Cr1 Se1 2.666839 1_556
Cr1 Se2 2.666961 1_545
Cr1 Se1 2.667625 1_656
Cr1 Se2 2.667706 1_445
Ce0 O0 2.333795 1_555
Ce0 O0 2.334032 1_455
Ce0 O1 2.418791 1_556
Ce0 Se3 3.155709 1_555
Ce0 Se3 3.155963 1_455
Ce0 Se2 3.207889 1_555
Ce0 Se2 3.207976 1_455
Ce0 Se2 3.236968 1_445
Ce0 Se0 3.246206 1_555
Ce1 O1 2.333702 1_555
Ce1 O1 2.334022 1_655
Ce1 O0 2.418739 1_554
Ce1 Se0 3.155390 1_555
Ce1 Se0 3.155529 1_655
Ce1 Se1 3.208104 1_555
Ce1 Se1 3.208418 1_655
Ce1 Se1 3.236541 1_665
Ce1 Se3 3.246175 1_555
