# generated using pymatgen
data_MnPtN2
_symmetry_space_group_name_H-M   'P 1'
_cell_length_a   5.16630800
_cell_length_b   6.15440000
_cell_length_c   5.57276100
_cell_angle_alpha   90.00000000
_cell_angle_beta   90.00000000
_cell_angle_gamma   90.00000000
_symmetry_Int_Tables_number   1
_chemical_formula_structural   MnPtN2
_chemical_formula_sum   'Mn4 Pt4 N8'
_cell_volume   177.18886702
_cell_formula_units_Z   4
loop_
 _symmetry_equiv_pos_site_id
 _symmetry_equiv_pos_as_xyz
  1  'x, y, z'
loop_
 _atom_site_type_symbol
 _atom_site_label
 _atom_site_symmetry_multiplicity
 _atom_site_fract_x
 _atom_site_fract_y
 _atom_site_fract_z
 _atom_site_occupancy
  Mn  Mn0  1  0.57789200  0.89859400  0.97011000  1
  Mn  Mn1  1  0.42210800  0.10140600  0.47011000  1
  Mn  Mn2  1  0.92210800  0.39859400  0.47011000  1
  Mn  Mn3  1  0.07789200  0.60140600  0.97011000  1
  Pt  Pt0  1  0.62005900  0.34704800  0.03991300  1
  Pt  Pt1  1  0.37994100  0.65295300  0.53991300  1
  Pt  Pt2  1  0.87994100  0.84704700  0.53991300  1
  Pt  Pt3  1  0.12005900  0.15295200  0.03991300  1
  N  N0  1  0.57774700  0.88276700  0.29984800  1
  N  N1  1  0.42225300  0.11723300  0.79984800  1
  N  N2  1  0.92225300  0.38276700  0.79984800  1
  N  N3  1  0.07774700  0.61723300  0.29984800  1
  N  N4  1  0.57814700  0.36555400  0.41212700  1
  N  N5  1  0.42185300  0.63444600  0.91212700  1
  N  N6  1  0.92185300  0.86555400  0.91212700  1
  N  N7  1  0.07814700  0.13444600  0.41212700  1
loop_
_geom_bond_atom_site_label_1
_geom_bond_atom_site_label_2
_geom_bond_distance
_geom_bond_site_symmetry_2
Mn0 N6 1.817558 1_555
Mn0 N1 1.832331 1_565
Mn0 N0 1.840131 1_556
Mn0 N5 1.843120 1_555
Mn1 N7 1.817558 1_555
Mn1 N0 1.832331 1_545
Mn1 N1 1.840131 1_555
Mn1 N4 1.843120 1_555
Mn2 N4 1.817558 1_555
Mn2 N3 1.832331 1_655
Mn2 N2 1.840131 1_555
Mn2 N7 1.843120 1_655
Mn3 N5 1.817558 1_555
Mn3 N2 1.832331 1_455
Mn3 N3 1.840131 1_556
Mn3 N6 1.843120 1_455
N0 Pt2 2.067736 1_555
N0 Pt1 2.198760 1_555
N1 Pt3 2.067736 1_556
N1 Pt0 2.198764 1_556
N2 Pt0 2.067736 1_556
N2 Pt3 2.198764 1_656
N3 Pt1 2.067736 1_555
N3 Pt2 2.198760 1_455
N4 Pt0 2.088638 1_555
N4 Pt1 2.164306 1_555
N5 Pt1 2.088639 1_555
N5 Pt0 2.164301 1_556
N6 Pt2 2.088639 1_555
N6 Pt3 2.164301 1_666
N7 Pt3 2.088638 1_555
N7 Pt2 2.164306 1_445
