# generated using pymatgen
data_Li2CrF6
_symmetry_space_group_name_H-M   'P 1'
_cell_length_a   4.67371900
_cell_length_b   4.66108509
_cell_length_c   8.99565715
_cell_angle_alpha   90.38249499
_cell_angle_beta   90.00000000
_cell_angle_gamma   90.00000000
_symmetry_Int_Tables_number   1
_chemical_formula_structural   Li2CrF6
_chemical_formula_sum   'Li4 Cr2 F12'
_cell_volume   195.96244350
_cell_formula_units_Z   2
loop_
 _symmetry_equiv_pos_site_id
 _symmetry_equiv_pos_as_xyz
  1  'x, y, z'
loop_
 _atom_site_type_symbol
 _atom_site_label
 _atom_site_symmetry_multiplicity
 _atom_site_fract_x
 _atom_site_fract_y
 _atom_site_fract_z
 _atom_site_occupancy
  Li  Li0  1  0.48128300  0.50517700  0.16580400  1
  Li  Li1  1  0.98128300  0.99482300  0.33419600  1
  Li  Li2  1  0.51871700  0.49482300  0.83419600  1
  Li  Li3  1  0.01871700  0.00517700  0.66580400  1
  Cr  Cr0  1  0.00000000  0.00000000  0.00000000  1
  Cr  Cr1  1  0.50000000  0.50000000  0.50000000  1
  F  F0  1  0.78028200  0.77911800  0.50035300  1
  F  F1  1  0.71971800  0.27911800  0.00035300  1
  F  F2  1  0.28028200  0.72088200  0.99964700  1
  F  F3  1  0.30714200  0.69297300  0.34876900  1
  F  F4  1  0.80714200  0.80702700  0.15123100  1
  F  F5  1  0.18847300  0.19258200  0.15270400  1
  F  F6  1  0.31152700  0.69258200  0.65270400  1
  F  F7  1  0.69285800  0.30702700  0.65123100  1
  F  F8  1  0.81152700  0.80741800  0.84729600  1
  F  F9  1  0.21971800  0.22088200  0.49964700  1
  F  F10  1  0.19285800  0.19297300  0.84876900  1
  F  F11  1  0.68847300  0.30741800  0.34729600  1
loop_
_geom_bond_atom_site_label_1
_geom_bond_atom_site_label_2
_geom_bond_distance
_geom_bond_site_symmetry_2
Cr0 F2 1.846221 1_544
Cr0 F1 1.846221 1_455
Cr0 F8 1.858011 1_444
Cr0 F5 1.858011 1_555
Cr0 F4 1.867774 1_445
Cr0 F10 1.867774 1_554
Cr1 F9 1.846221 1_555
Cr1 F0 1.846221 1_555
Cr1 F6 1.858011 1_555
Cr1 F11 1.858011 1_555
Cr1 F7 1.867774 1_555
Cr1 F3 1.867774 1_555
F0 Li1 2.036553 1_555
F0 Li3 2.132205 1_665
F1 Li2 2.036553 1_554
F1 Li0 2.132205 1_555
F2 Li0 2.036553 1_556
F2 Li2 2.132205 1_555
F3 Li0 2.029369 1_555
F3 Li1 2.078124 1_455
F4 Li1 2.029369 1_555
F4 Li0 2.078124 1_555
F5 Li0 2.001839 1_555
F5 Li1 2.114939 1_445
F6 Li3 2.001839 1_565
F6 Li2 2.114939 1_555
F7 Li2 2.029369 1_555
F7 Li3 2.078124 1_655
F8 Li2 2.001839 1_555
F8 Li3 2.114939 1_665
F9 Li3 2.036553 1_555
F9 Li1 2.132205 1_445
F10 Li3 2.029369 1_555
F10 Li2 2.078124 1_555
F11 Li1 2.001839 1_545
F11 Li0 2.114939 1_555
