# generated using pymatgen
data_KFeSn3O8
_symmetry_space_group_name_H-M   'P 1'
_cell_length_a   7.59565682
_cell_length_b   7.59565682
_cell_length_c   10.56521112
_cell_angle_alpha   46.66195330
_cell_angle_beta   46.66195330
_cell_angle_gamma   24.39162454
_symmetry_Int_Tables_number   1
_chemical_formula_structural   KFeSn3O8
_chemical_formula_sum   'K1 Fe1 Sn3 O8'
_cell_volume   179.23698635
_cell_formula_units_Z   1
loop_
 _symmetry_equiv_pos_site_id
 _symmetry_equiv_pos_as_xyz
  1  'x, y, z'
loop_
 _atom_site_type_symbol
 _atom_site_label
 _atom_site_symmetry_multiplicity
 _atom_site_fract_x
 _atom_site_fract_y
 _atom_site_fract_z
 _atom_site_occupancy
  K  K0  1  0.49908800  0.49908800  0.99810500  1
  Fe  Fe0  1  0.34942200  0.34942200  0.81463400  1
  Sn  Sn0  1  0.65764900  0.65764900  0.16973000  1
  Sn  Sn1  1  0.15973500  0.15973500  0.49213000  1
  Sn  Sn2  1  0.83615000  0.83615000  0.52039800  1
  O  O0  1  0.15176400  0.15176400  0.04653100  1
  O  O1  1  0.84910500  0.84910500  0.94621300  1
  O  O2  1  0.20079000  0.20079000  0.64888600  1
  O  O3  1  0.79647700  0.79647700  0.36036900  1
  O  O4  1  0.53885000  0.53885000  0.62706200  1
  O  O5  1  0.46019600  0.46019600  0.37311300  1
  O  O6  1  0.16532500  0.16532500  0.29205000  1
  O  O7  1  0.83545000  0.83545000  0.71077900  1
loop_
_geom_bond_atom_site_label_1
_geom_bond_atom_site_label_2
_geom_bond_distance
_geom_bond_site_symmetry_2
K0 O1 3.090234 1_545
K0 O1 3.090234 1_455
K0 O0 3.099136 1_566
K0 O0 3.099136 1_656
K0 O2 3.104812 1_565
K0 O2 3.104812 1_655
K0 O3 3.178789 1_546
K0 O3 3.178789 1_456
Fe0 O4 2.002752 1_555
Fe0 O7 2.035052 1_545
Fe0 O7 2.035052 1_455
Fe0 O1 2.120883 1_455
Fe0 O1 2.120883 1_545
Fe0 O0 2.125704 1_556
O0 Sn0 2.106265 1_545
O0 Sn0 2.106265 1_455
O1 Sn0 2.056901 1_556
O2 Sn1 2.128911 1_555
O2 Sn2 2.150746 1_455
O2 Sn2 2.150746 1_545
O3 Sn2 2.145759 1_555
O3 Sn1 2.160089 1_565
O3 Sn1 2.160089 1_655
O4 Sn1 2.058040 1_655
O4 Sn1 2.058040 1_565
O5 Sn2 2.088979 1_545
O5 Sn2 2.088979 1_455
O5 Sn0 2.089532 1_555
O6 Sn1 2.056457 1_555
O6 Sn0 2.112993 1_545
O6 Sn0 2.112993 1_455
O7 Sn2 2.004131 1_555
