# generated using pymatgen
data_Cu2CO5
_symmetry_space_group_name_H-M   'P 1'
_cell_length_a   8.94087200
_cell_length_b   2.99053900
_cell_length_c   12.83522689
_cell_angle_alpha   80.05562988
_cell_angle_beta   90.00000000
_cell_angle_gamma   90.00000000
_symmetry_Int_Tables_number   1
_chemical_formula_structural   Cu2CO5
_chemical_formula_sum   'Cu8 C4 O20'
_cell_volume   338.03253097
_cell_formula_units_Z   4
loop_
 _symmetry_equiv_pos_site_id
 _symmetry_equiv_pos_as_xyz
  1  'x, y, z'
loop_
 _atom_site_type_symbol
 _atom_site_label
 _atom_site_symmetry_multiplicity
 _atom_site_fract_x
 _atom_site_fract_y
 _atom_site_fract_z
 _atom_site_occupancy
  Cu  Cu0  1  0.50972600  0.01848300  0.72053800  1
  Cu  Cu1  1  0.00972600  0.98151700  0.77946200  1
  Cu  Cu2  1  0.49027400  0.98151700  0.27946200  1
  Cu  Cu3  1  0.99027400  0.01848300  0.22053800  1
  Cu  Cu4  1  0.74146000  0.40536000  0.87946100  1
  Cu  Cu5  1  0.24146000  0.59464000  0.62053900  1
  Cu  Cu6  1  0.25854000  0.59464000  0.12053900  1
  Cu  Cu7  1  0.75854000  0.40536000  0.37946100  1
  C  C0  1  0.78292400  0.36783800  0.62886500  1
  C  C1  1  0.28292400  0.63216200  0.87113500  1
  C  C2  1  0.21707600  0.63216200  0.37113500  1
  C  C3  1  0.71707600  0.36783800  0.12886500  1
  O  O0  1  0.63814300  0.44402400  0.63445400  1
  O  O1  1  0.13814300  0.55597600  0.86554600  1
  O  O2  1  0.36185700  0.55597600  0.36554600  1
  O  O3  1  0.86185700  0.44402400  0.13445400  1
  O  O4  1  0.85726700  0.39528200  0.71715700  1
  O  O5  1  0.35726700  0.60471800  0.78284300  1
  O  O6  1  0.14273300  0.60471800  0.28284300  1
  O  O7  1  0.64273300  0.39528200  0.21715700  1
  O  O8  1  0.84530200  0.28803900  0.54769800  1
  O  O9  1  0.34530200  0.71196100  0.95230200  1
  O  O10  1  0.15469800  0.71196100  0.45230200  1
  O  O11  1  0.65469800  0.28803900  0.04769800  1
  O  O12  1  0.61631900  0.93153800  0.84712500  1
  O  O13  1  0.11631900  0.06846200  0.65287500  1
  O  O14  1  0.38368100  0.06846200  0.15287500  1
  O  O15  1  0.88368100  0.93153800  0.34712500  1
  O  O16  1  0.87442200  0.88971400  0.89703200  1
  O  O17  1  0.37442200  0.11028600  0.60296800  1
  O  O18  1  0.12557800  0.11028600  0.10296800  1
  O  O19  1  0.62557800  0.88971400  0.39703200  1
loop_
_geom_bond_atom_site_label_1
_geom_bond_atom_site_label_2
_geom_bond_distance
_geom_bond_site_symmetry_2
Cu0 O12 1.862755 1_545
Cu0 O17 1.916491 1_555
Cu0 O0 1.916494 1_555
Cu0 O5 1.920142 1_545
Cu0 O5 2.460772 1_555
Cu0 O0 2.479115 1_545
Cu1 O13 1.862755 1_565
Cu1 O16 1.916491 1_455
Cu1 O1 1.916494 1_555
Cu1 O4 1.920142 1_465
Cu1 O4 2.460772 1_455
Cu1 O1 2.479115 1_565
Cu2 O14 1.862755 1_565
Cu2 O19 1.916491 1_555
Cu2 O2 1.916494 1_555
Cu2 O7 1.920142 1_565
Cu2 O7 2.460772 1_555
Cu2 O2 2.479115 1_565
Cu3 O15 1.862755 1_545
Cu3 O18 1.916491 1_655
Cu3 O3 1.916494 1_555
Cu3 O6 1.920142 1_645
Cu3 O6 2.460772 1_655
Cu3 O3 2.479115 1_545
Cu4 O12 1.906591 1_545
Cu4 O12 1.916935 1_555
Cu4 O16 1.917034 1_555
Cu4 O16 1.929230 1_545
Cu4 O11 2.264071 1_556
Cu4 O4 2.331188 1_555
Cu5 O13 1.906591 1_565
Cu5 O13 1.916935 1_555
Cu5 O17 1.917034 1_555
Cu5 O17 1.929230 1_565
Cu5 O10 2.264071 1_555
Cu5 O5 2.331188 1_555
Cu6 O14 1.906591 1_565
Cu6 O14 1.916935 1_555
Cu6 O18 1.917034 1_555
Cu6 O18 1.929230 1_565
Cu6 O9 2.264071 1_554
Cu6 O6 2.331188 1_555
Cu7 O15 1.906591 1_545
Cu7 O15 1.916935 1_555
Cu7 O19 1.917034 1_555
Cu7 O19 1.929230 1_545
Cu7 O8 2.264071 1_555
Cu7 O7 2.331188 1_555
C0 O8 1.240646 1_555
C0 O0 1.318465 1_555
C0 O4 1.328505 1_555
C1 O9 1.240646 1_555
C1 O1 1.318465 1_555
C1 O5 1.328505 1_555
C2 O10 1.240646 1_555
C2 O2 1.318465 1_555
C2 O6 1.328505 1_555
C3 O11 1.240646 1_555
C3 O3 1.318465 1_555
C3 O7 1.328505 1_555
