# generated using pymatgen
data_Sr6CaY2TiCu6(HgO10)2
_symmetry_space_group_name_H-M   'P 1'
_cell_length_a   3.77048200
_cell_length_b   11.62924600
_cell_length_c   12.13166600
_cell_angle_alpha   90.00000000
_cell_angle_beta   90.00000000
_cell_angle_gamma   90.00000000
_symmetry_Int_Tables_number   1
_chemical_formula_structural   Sr6CaY2TiCu6(HgO10)2
_chemical_formula_sum   'Sr6 Ca1 Y2 Ti1 Cu6 Hg2 O20'
_cell_volume   531.94762529
_cell_formula_units_Z   1
loop_
 _symmetry_equiv_pos_site_id
 _symmetry_equiv_pos_as_xyz
  1  'x, y, z'
loop_
 _atom_site_type_symbol
 _atom_site_label
 _atom_site_symmetry_multiplicity
 _atom_site_fract_x
 _atom_site_fract_y
 _atom_site_fract_z
 _atom_site_occupancy
  Sr  Sr0  1  0.50000000  0.00000000  0.77467200  1
  Sr  Sr1  1  0.50000000  0.33755600  0.79530500  1
  Sr  Sr2  1  0.50000000  0.66244400  0.79530500  1
  Sr  Sr3  1  0.50000000  0.00000000  0.22532800  1
  Sr  Sr4  1  0.50000000  0.33755600  0.20469500  1
  Sr  Sr5  1  0.50000000  0.66244400  0.20469500  1
  Ca  Ca0  1  0.50000000  0.00000000  0.50000000  1
  Y  Y0  1  0.50000000  0.33207200  0.50000000  1
  Y  Y1  1  0.50000000  0.66792800  0.50000000  1
  Ti  Ti0  1  0.00000000  0.50000000  0.00000000  1
  Cu  Cu0  1  0.00000000  0.83347700  0.63352600  1
  Cu  Cu1  1  0.00000000  0.16652300  0.63352600  1
  Cu  Cu2  1  0.00000000  0.50000000  0.63566000  1
  Cu  Cu3  1  0.00000000  0.83347700  0.36647400  1
  Cu  Cu4  1  0.00000000  0.16652300  0.36647400  1
  Cu  Cu5  1  0.00000000  0.50000000  0.36434000  1
  Hg  Hg0  1  0.00000000  0.83097600  0.00000000  1
  Hg  Hg1  1  0.00000000  0.16902400  0.00000000  1
  O  O0  1  0.00000000  0.00000000  0.63120400  1
  O  O1  1  0.00000000  0.33373800  0.62294000  1
  O  O2  1  0.00000000  0.66626200  0.62294000  1
  O  O3  1  0.50000000  0.82787400  0.62415400  1
  O  O4  1  0.50000000  0.17212600  0.62415400  1
  O  O5  1  0.50000000  0.50000000  0.62092300  1
  O  O6  1  0.00000000  0.00000000  0.36879600  1
  O  O7  1  0.00000000  0.33373800  0.37706000  1
  O  O8  1  0.00000000  0.66626200  0.37706000  1
  O  O9  1  0.50000000  0.82787400  0.37584600  1
  O  O10  1  0.50000000  0.17212600  0.37584600  1
  O  O11  1  0.50000000  0.50000000  0.37907700  1
  O  O12  1  0.00000000  0.83546500  0.83280300  1
  O  O13  1  0.00000000  0.16453500  0.83280300  1
  O  O14  1  0.00000000  0.50000000  0.84477100  1
  O  O15  1  0.00000000  0.83546500  0.16719700  1
  O  O16  1  0.00000000  0.16453500  0.16719700  1
  O  O17  1  0.00000000  0.50000000  0.15522900  1
  O  O18  1  0.50000000  0.38650300  0.00000000  1
  O  O19  1  0.50000000  0.61349700  0.00000000  1
loop_
_geom_bond_atom_site_label_1
_geom_bond_atom_site_label_2
_geom_bond_distance
_geom_bond_site_symmetry_2
Ca0 O0 2.467330 1_555
Ca0 O6 2.467330 1_555
Ca0 O6 2.467330 1_655
Ca0 O0 2.467330 1_655
Ca0 O10 2.505076 1_555
Ca0 O3 2.505076 1_545
Ca0 O9 2.505076 1_545
Ca0 O4 2.505076 1_555
Cu0 O3 1.889790 1_455
Cu0 O3 1.889790 1_555
Cu0 O0 1.936742 1_565
Cu0 O2 1.948821 1_555
Cu0 O12 2.417673 1_555
Cu1 O4 1.889790 1_455
Cu1 O4 1.889790 1_555
Cu1 O0 1.936742 1_555
Cu1 O1 1.948821 1_555
Cu1 O13 2.417673 1_555
Cu2 O5 1.893699 1_455
Cu2 O5 1.893699 1_555
Cu2 O2 1.939650 1_555
Cu2 O1 1.939650 1_555
Cu2 O14 2.536865 1_555
Cu3 O9 1.889790 1_455
Cu3 O9 1.889790 1_555
Cu3 O6 1.936742 1_565
Cu3 O8 1.948821 1_555
Cu3 O15 2.417673 1_555
Cu4 O10 1.889790 1_555
Cu4 O10 1.889790 1_455
Cu4 O6 1.936742 1_555
Cu4 O7 1.948821 1_555
Cu4 O16 2.417673 1_555
Cu5 O11 1.893699 1_555
Cu5 O11 1.893699 1_455
Cu5 O7 1.939650 1_555
Cu5 O8 1.939650 1_555
Cu5 O17 2.536865 1_555
Hg0 O15 2.029050 1_555
Hg0 O12 2.029050 1_554
Hg1 O16 2.029050 1_555
Hg1 O13 2.029050 1_554
O0 Sr0 2.565832 1_555
O0 Sr0 2.565832 1_455
O1 Y0 2.403952 1_455
O1 Y0 2.403952 1_555
O1 Sr1 2.815794 1_555
O1 Sr1 2.815794 1_455
O2 Y1 2.403952 1_455
O2 Y1 2.403952 1_555
O2 Sr2 2.815794 1_455
O2 Sr2 2.815794 1_555
O3 Y1 2.393411 1_555
O3 Sr0 2.709462 1_565
O3 Sr2 2.830605 1_555
O4 Y0 2.393411 1_555
O4 Sr0 2.709462 1_555
O4 Sr1 2.830605 1_555
O5 Y1 2.442500 1_555
O5 Y0 2.442500 1_555
O5 Sr1 2.836235 1_555
O5 Sr2 2.836235 1_555
O6 Sr3 2.565832 1_555
O6 Sr3 2.565832 1_455
O7 Y0 2.403952 1_555
O7 Y0 2.403952 1_455
O7 Sr4 2.815794 1_455
O7 Sr4 2.815794 1_555
O8 Y1 2.403952 1_555
O8 Y1 2.403952 1_455
O8 Sr5 2.815794 1_455
O8 Sr5 2.815794 1_555
O9 Y1 2.393411 1_555
O9 Sr3 2.709462 1_565
O9 Sr5 2.830605 1_555
O10 Y0 2.393411 1_555
O10 Sr3 2.709462 1_555
O10 Sr4 2.830605 1_555
O11 Y1 2.442500 1_555
O11 Y0 2.442500 1_555
O11 Sr4 2.836235 1_555
O11 Sr5 2.836235 1_555
O12 Sr0 2.777165 1_465
O12 Sr0 2.777165 1_565
O12 Sr2 2.794574 1_555
O12 Sr2 2.794574 1_455
O13 Sr0 2.777165 1_455
O13 Sr0 2.777165 1_555
O13 Sr1 2.794574 1_455
O13 Sr1 2.794574 1_555
O14 Ti0 1.883186 1_556
O14 Sr1 2.735501 1_455
O14 Sr1 2.735501 1_555
O14 Sr2 2.735501 1_455
O14 Sr2 2.735501 1_555
O15 Sr3 2.777165 1_465
O15 Sr3 2.777165 1_565
O15 Sr5 2.794574 1_555
O15 Sr5 2.794574 1_455
O16 Sr3 2.777165 1_455
O16 Sr3 2.777165 1_555
O16 Sr4 2.794574 1_455
O16 Sr4 2.794574 1_555
O17 Ti0 1.883186 1_555
O17 Sr4 2.735501 1_555
O17 Sr4 2.735501 1_455
O17 Sr5 2.735501 1_555
O17 Sr5 2.735501 1_455
O18 Ti0 2.301354 1_655
O18 Ti0 2.301354 1_555
O18 Sr1 2.547694 1_554
O18 Sr4 2.547694 1_555
O19 Ti0 2.301354 1_655
O19 Ti0 2.301354 1_555
O19 Sr2 2.547694 1_554
O19 Sr5 2.547694 1_555
