# generated using pymatgen
data_Sr2CoSbO6
_symmetry_space_group_name_H-M   'P 1'
_cell_length_a   5.70865400
_cell_length_b   5.75264800
_cell_length_c   9.64250432
_cell_angle_alpha   54.02705210
_cell_angle_beta   90.00000000
_cell_angle_gamma   90.00000000
_symmetry_Int_Tables_number   1
_chemical_formula_structural   Sr2CoSbO6
_chemical_formula_sum   'Sr4 Co2 Sb2 O12'
_cell_volume   256.27008528
_cell_formula_units_Z   2
loop_
 _symmetry_equiv_pos_site_id
 _symmetry_equiv_pos_as_xyz
  1  'x, y, z'
loop_
 _atom_site_type_symbol
 _atom_site_label
 _atom_site_symmetry_multiplicity
 _atom_site_fract_x
 _atom_site_fract_y
 _atom_site_fract_z
 _atom_site_occupancy
  Sr  Sr0  1  0.49406700  0.75234100  0.24941300  1
  Sr  Sr1  1  0.50593300  0.24765900  0.75058700  1
  Sr  Sr2  1  0.99406700  0.24765900  0.25058700  1
  Sr  Sr3  1  0.00593300  0.75234100  0.74941300  1
  Co  Co0  1  0.00000000  0.50000000  0.50000000  1
  Co  Co1  1  0.50000000  0.50000000  0.00000000  1
  Sb  Sb0  1  0.00000000  0.00000000  0.00000000  1
  Sb  Sb1  1  0.50000000  0.00000000  0.50000000  1
  O  O0  1  0.00361400  0.68911600  0.25695100  1
  O  O1  1  0.99638600  0.31088400  0.74304900  1
  O  O2  1  0.50361400  0.31088400  0.24304900  1
  O  O3  1  0.49638600  0.68911600  0.75695100  1
  O  O4  1  0.23758700  0.22249100  0.02939300  1
  O  O5  1  0.76241300  0.77750900  0.97060700  1
  O  O6  1  0.73758700  0.77750900  0.47060700  1
  O  O7  1  0.26241300  0.22249100  0.52939300  1
  O  O8  1  0.74569100  0.20502700  0.02994500  1
  O  O9  1  0.25430900  0.79497300  0.97005500  1
  O  O10  1  0.24569100  0.79497300  0.47005500  1
  O  O11  1  0.75430900  0.20502700  0.52994500  1
loop_
_geom_bond_atom_site_label_1
_geom_bond_atom_site_label_2
_geom_bond_distance
_geom_bond_site_symmetry_2
Co0 O1 1.918624 1_455
Co0 O0 1.918624 1_555
Co0 O6 2.083599 1_455
Co0 O7 2.083599 1_555
Co0 O11 2.086705 1_455
Co0 O10 2.086705 1_555
Co1 O3 1.918624 1_554
Co1 O2 1.918624 1_555
Co1 O5 2.083599 1_554
Co1 O4 2.083599 1_555
Co1 O8 2.086705 1_555
Co1 O9 2.086705 1_554
O0 Sb0 2.032721 1_565
O0 Sr2 2.576648 1_455
O0 Sr0 2.818783 1_555
O0 Sr0 2.927079 1_455
O0 Sr2 3.177911 1_465
O1 Sb0 2.032721 1_656
O1 Sr3 2.576648 1_655
O1 Sr1 2.818783 1_555
O1 Sr1 2.927079 1_655
O1 Sr3 3.177911 1_645
O2 Sb1 2.032721 1_555
O2 Sr0 2.576648 1_555
O2 Sr2 2.818783 1_555
O2 Sr2 2.927079 1_455
O2 Sr0 3.177911 1_545
O3 Sb1 2.032721 1_565
O3 Sr1 2.576648 1_555
O3 Sr3 2.818783 1_555
O3 Sr3 2.927079 1_655
O3 Sr1 3.177911 1_565
O4 Sb0 1.996053 1_555
O4 Sr2 2.620197 1_455
O4 Sr0 2.686751 1_545
O4 Sr3 2.942878 1_554
O4 Sr1 3.022883 1_554
O5 Sb0 1.996053 1_666
O5 Sr3 2.620197 1_655
O5 Sr1 2.686751 1_565
O5 Sr2 2.942878 1_556
O5 Sr0 3.022883 1_556
O6 Sb1 1.996053 1_565
O6 Sr0 2.620197 1_555
O6 Sr2 2.686751 1_565
O6 Sr1 2.942878 1_555
O6 Sr3 3.022883 1_655
O7 Sb1 1.996053 1_555
O7 Sr1 2.620197 1_555
O7 Sr3 2.686751 1_545
O7 Sr0 2.942878 1_555
O7 Sr2 3.022883 1_455
O8 Sb0 1.995539 1_655
O8 Sr0 2.617061 1_545
O8 Sr2 2.685141 1_555
O8 Sr1 2.900594 1_554
O8 Sr3 3.071121 1_654
O9 Sb0 1.995539 1_566
O9 Sr1 2.617061 1_565
O9 Sr3 2.685141 1_555
O9 Sr0 2.900594 1_556
O9 Sr2 3.071121 1_456
O10 Sb1 1.995539 1_565
O10 Sr2 2.617061 1_465
O10 Sr0 2.685141 1_555
O10 Sr3 2.900594 1_555
O10 Sr1 3.071121 1_555
O11 Sb1 1.995539 1_555
O11 Sr3 2.617061 1_645
O11 Sr1 2.685141 1_555
O11 Sr2 2.900594 1_555
O11 Sr0 3.071121 1_555
