# generated using pymatgen
data_BaCaPrBiO6
_symmetry_space_group_name_H-M   'P 1'
_cell_length_a   8.70037281
_cell_length_b   8.68188888
_cell_length_c   8.72119573
_cell_angle_alpha   90.00000000
_cell_angle_beta   90.00000000
_cell_angle_gamma   90.00000000
_symmetry_Int_Tables_number   1
_chemical_formula_structural   BaCaPrBiO6
_chemical_formula_sum   'Ba4 Ca4 Pr4 Bi4 O24'
_cell_volume   658.76136224
_cell_formula_units_Z   4
loop_
 _symmetry_equiv_pos_site_id
 _symmetry_equiv_pos_as_xyz
  1  'x, y, z'
loop_
 _atom_site_type_symbol
 _atom_site_label
 _atom_site_symmetry_multiplicity
 _atom_site_fract_x
 _atom_site_fract_y
 _atom_site_fract_z
 _atom_site_occupancy
  Ba  Ba0  1  0.00000000  0.00000000  0.00000000  1
  Ba  Ba1  1  0.50000000  0.50000000  0.50000000  1
  Ba  Ba2  1  0.00000000  0.50000000  0.50000000  1
  Ba  Ba3  1  0.50000000  0.50000000  0.00000000  1
  Ca  Ca0  1  0.50000000  0.00000000  0.50000000  1
  Ca  Ca1  1  0.50000000  0.00000000  0.00000000  1
  Ca  Ca2  1  0.00000000  0.50000000  0.00000000  1
  Ca  Ca3  1  0.00000000  0.00000000  0.50000000  1
  Pr  Pr0  1  0.24784222  0.24458247  0.24932824  1
  Pr  Pr1  1  0.75215778  0.75541753  0.24932824  1
  Pr  Pr2  1  0.75215778  0.24458247  0.75067176  1
  Pr  Pr3  1  0.24784222  0.75541753  0.75067176  1
  Bi  Bi0  1  0.74973984  0.75642630  0.75095609  1
  Bi  Bi1  1  0.25026016  0.24357370  0.75095609  1
  Bi  Bi2  1  0.25026016  0.75642630  0.24904391  1
  Bi  Bi3  1  0.74973984  0.24357370  0.24904391  1
  O  O0  1  0.98520819  0.19149244  0.30255614  1
  O  O1  1  0.01479181  0.80850756  0.30255614  1
  O  O2  1  0.01479181  0.19149244  0.69744386  1
  O  O3  1  0.98520819  0.80850756  0.69744386  1
  O  O4  1  0.29501941  0.98835745  0.18234330  1
  O  O5  1  0.29501941  0.01164255  0.81765670  1
  O  O6  1  0.70498059  0.01164255  0.18234330  1
  O  O7  1  0.70498059  0.98835745  0.81765670  1
  O  O8  1  0.18812636  0.29600165  0.98607763  1
  O  O9  1  0.81187364  0.29600165  0.01392237  1
  O  O10  1  0.18812636  0.70399835  0.01392237  1
  O  O11  1  0.81187364  0.70399835  0.98607763  1
  O  O12  1  0.51013548  0.28386676  0.21407839  1
  O  O13  1  0.48986452  0.71613324  0.21407839  1
  O  O14  1  0.48986452  0.28386676  0.78592161  1
  O  O15  1  0.51013548  0.71613324  0.78592161  1
  O  O16  1  0.22230114  0.51366131  0.29170608  1
  O  O17  1  0.22230114  0.48633869  0.70829392  1
  O  O18  1  0.77769886  0.48633869  0.29170608  1
  O  O19  1  0.77769886  0.51366131  0.70829392  1
  O  O20  1  0.30164415  0.19531256  0.51301571  1
  O  O21  1  0.69835585  0.19531256  0.48698429  1
  O  O22  1  0.30164415  0.80468744  0.48698429  1
  O  O23  1  0.69835585  0.80468744  0.51301571  1
loop_
_geom_bond_atom_site_label_1
_geom_bond_atom_site_label_2
_geom_bond_distance
_geom_bond_site_symmetry_2
Ba0 O5 3.021170 1_554
Ba0 O7 3.021170 1_444
Ba0 O6 3.021170 1_455
Ba0 O4 3.021170 1_545
Ba0 O8 3.049246 1_554
Ba0 O11 3.049246 1_444
Ba0 O10 3.049246 1_545
Ba0 O9 3.049246 1_455
Ba0 O2 3.121378 1_554
Ba0 O0 3.121378 1_455
Ba0 O1 3.121378 1_545
Ba0 O3 3.121378 1_444
Ba1 O19 3.025138 1_555
Ba1 O17 3.025138 1_555
Ba1 O18 3.025138 1_555
Ba1 O16 3.025138 1_555
Ba1 O12 3.121979 1_555
Ba1 O13 3.121979 1_555
Ba1 O15 3.121979 1_555
Ba1 O14 3.121979 1_555
Ba1 O22 3.160472 1_555
Ba1 O20 3.160472 1_555
Ba1 O23 3.160472 1_555
Ba1 O21 3.160472 1_555
Ba2 O17 2.656079 1_555
Ba2 O18 2.656079 1_455
Ba2 O19 2.656079 1_455
Ba2 O16 2.656079 1_555
Ba2 O3 3.186792 1_455
Ba2 O0 3.186792 1_455
Ba2 O2 3.186792 1_555
Ba2 O1 3.186792 1_555
Ba3 O14 2.648506 1_554
Ba3 O15 2.648506 1_554
Ba3 O12 2.648506 1_555
Ba3 O13 2.648506 1_555
Ca0 O21 2.422087 1_555
Ca0 O20 2.422087 1_555
Ca0 O22 2.422087 1_545
Ca0 O23 2.422087 1_545
Ca1 O7 2.391581 1_544
Ca1 O5 2.391581 1_554
Ca1 O6 2.391581 1_555
Ca1 O4 2.391581 1_545
Ca2 O11 2.414647 1_454
Ca2 O10 2.414647 1_555
Ca2 O8 2.414647 1_554
Ca2 O9 2.414647 1_455
Ca3 O3 2.397003 1_445
Ca3 O1 2.397003 1_545
Ca3 O0 2.397003 1_455
Ca3 O2 2.397003 1_555
Bi0 O7 2.131812 1_555
Bi0 O15 2.135677 1_555
Bi0 O3 2.149249 1_555
Bi0 O19 2.154026 1_555
Bi0 O23 2.163692 1_555
Bi0 O11 2.168902 1_555
Bi1 O5 2.131812 1_555
Bi1 O14 2.135677 1_555
Bi1 O2 2.149249 1_555
Bi1 O17 2.154026 1_555
Bi1 O20 2.163692 1_555
Bi1 O8 2.168902 1_555
Bi2 O4 2.131812 1_555
Bi2 O13 2.135677 1_555
Bi2 O1 2.149249 1_555
Bi2 O16 2.154026 1_555
Bi2 O22 2.163692 1_555
Bi2 O10 2.168902 1_555
Bi3 O6 2.131812 1_555
Bi3 O12 2.135677 1_555
Bi3 O0 2.149249 1_555
Bi3 O18 2.154026 1_555
Bi3 O21 2.163692 1_555
Bi3 O9 2.168902 1_555
O0 Pr0 2.376811 1_655
O1 Pr1 2.376811 1_455
O2 Pr2 2.376811 1_455
O3 Pr3 2.376811 1_655
O4 Pr0 2.336285 1_565
O5 Pr3 2.336285 1_545
O6 Pr1 2.336285 1_545
O7 Pr2 2.336285 1_565
O8 Pr0 2.395870 1_556
O9 Pr2 2.395870 1_554
O10 Pr3 2.395870 1_554
O11 Pr1 2.395870 1_556
O12 Pr0 2.327784 1_555
O13 Pr1 2.327784 1_555
O14 Pr2 2.327784 1_555
O15 Pr3 2.327784 1_555
O16 Pr0 2.375583 1_555
O17 Pr3 2.375583 1_555
O18 Pr1 2.375583 1_555
O19 Pr2 2.375583 1_555
O20 Pr0 2.385492 1_555
O21 Pr2 2.385492 1_555
O22 Pr3 2.385492 1_555
O23 Pr1 2.385492 1_555
