# generated using pymatgen
data_Dy3VH3O8
_symmetry_space_group_name_H-M   'P 1'
_cell_length_a   5.60010151
_cell_length_b   6.03003203
_cell_length_c   10.47010100
_cell_angle_alpha   90.00000000
_cell_angle_beta   90.00000000
_cell_angle_gamma   105.94572821
_symmetry_Int_Tables_number   1
_chemical_formula_structural   Dy3VH3O8
_chemical_formula_sum   'Dy6 V2 H6 O16'
_cell_volume   339.95839846
_cell_formula_units_Z   2
loop_
 _symmetry_equiv_pos_site_id
 _symmetry_equiv_pos_as_xyz
  1  'x, y, z'
loop_
 _atom_site_type_symbol
 _atom_site_label
 _atom_site_symmetry_multiplicity
 _atom_site_fract_x
 _atom_site_fract_y
 _atom_site_fract_z
 _atom_site_occupancy
  Dy  Dy0  1  0.67693300  0.30581600  0.53142200  1
  Dy  Dy1  1  0.32306700  0.69418400  0.03142200  1
  Dy  Dy2  1  0.32181300  0.70136400  0.46058600  1
  Dy  Dy3  1  0.67818700  0.29863600  0.96058600  1
  Dy  Dy4  1  0.77580000  0.77996900  0.74750400  1
  Dy  Dy5  1  0.22420000  0.22003100  0.24750400  1
  V  V0  1  0.19033800  0.45673100  0.74604500  1
  V  V1  1  0.80966200  0.54326900  0.24604500  1
  H  H0  1  0.84477700  0.90776700  0.46265100  1
  H  H1  1  0.15522300  0.09223300  0.96265100  1
  H  H2  1  0.15821700  0.09915100  0.53595500  1
  H  H3  1  0.84178300  0.90084900  0.03595500  1
  H  H4  1  0.76828400  0.16537000  0.74321200  1
  H  H5  1  0.23171600  0.83463000  0.24321200  1
  O  O0  1  0.00234700  0.59174600  0.62141400  1
  O  O1  1  0.99765300  0.40825400  0.12141400  1
  O  O2  1  0.99540100  0.41139200  0.37226000  1
  O  O3  1  0.00459900  0.58860800  0.87226000  1
  O  O4  1  0.46215000  0.53970900  0.62572200  1
  O  O5  1  0.53785000  0.46029100  0.12572200  1
  O  O6  1  0.53658900  0.46611800  0.36645700  1
  O  O7  1  0.46341100  0.53388200  0.86645600  1
  O  O8  1  0.72761300  0.94090600  0.52396600  1
  O  O9  1  0.27238700  0.05909400  0.02396600  1
  O  O10  1  0.26825500  0.06539100  0.47059600  1
  O  O11  1  0.73174500  0.93460900  0.97059600  1
  O  O12  1  0.05919500  0.16107800  0.74526300  1
  O  O13  1  0.94080500  0.83892200  0.24526300  1
  O  O14  1  0.58427000  0.11866300  0.74704600  1
  O  O15  1  0.41573000  0.88133700  0.24704600  1
loop_
_geom_bond_atom_site_label_1
_geom_bond_atom_site_label_2
_geom_bond_distance
_geom_bond_site_symmetry_2
Dy0 O6 2.225470 1_555
Dy0 O8 2.296002 1_545
Dy0 O4 2.311460 1_555
Dy0 O0 2.335616 1_655
Dy0 O2 2.395659 1_555
Dy0 O10 2.433556 1_555
Dy0 H4 2.476717 1_555
Dy0 O14 2.513541 1_555
Dy1 O7 2.225478 1_554
Dy1 O9 2.296002 1_565
Dy1 O5 2.311460 1_555
Dy1 O1 2.335616 1_455
Dy1 O3 2.395659 1_554
Dy1 O11 2.433556 1_554
Dy1 H5 2.476717 1_555
Dy1 O15 2.513541 1_555
Dy2 O4 2.231184 1_555
Dy2 O10 2.298071 1_565
Dy2 O6 2.316821 1_555
Dy2 O2 2.344740 1_455
Dy2 O0 2.413152 1_555
Dy2 O8 2.426424 1_555
Dy2 O15 2.477800 1_555
Dy2 H5 2.510572 1_555
Dy3 O5 2.231184 1_556
Dy3 O11 2.298071 1_545
Dy3 O7 2.316826 1_555
Dy3 O3 2.344740 1_655
Dy3 O1 2.413152 1_556
Dy3 O9 2.426424 1_556
Dy3 O14 2.477800 1_555
Dy3 H4 2.510572 1_555
Dy4 O7 2.321031 1_555
Dy4 O4 2.326313 1_555
Dy4 O0 2.330625 1_655
Dy4 H4 2.336327 1_565
Dy4 O3 2.343456 1_655
Dy4 O12 2.407604 1_665
Dy4 O11 2.552007 1_555
Dy4 O14 2.554452 1_565
Dy4 O8 2.576096 1_555
Dy5 O6 2.321037 1_555
Dy5 O5 2.326313 1_555
Dy5 O1 2.330625 1_455
Dy5 H5 2.336327 1_545
Dy5 O2 2.343456 1_455
Dy5 O13 2.407604 1_445
Dy5 O10 2.552007 1_555
Dy5 O15 2.554452 1_545
Dy5 O9 2.576096 1_555
H0 O8 0.977042 1_555
H1 O9 0.977042 1_556
H2 O10 0.978974 1_555
H3 O11 0.978974 1_554
H4 O14 0.991660 1_555
H4 O12 1.636571 1_655
H5 O15 0.991660 1_555
H5 O13 1.636571 1_455
O0 V0 1.986166 1_555
O1 V1 1.986166 1_555
O2 V1 1.978664 1_555
O3 V0 1.978664 1_555
O4 V0 1.932867 1_555
O5 V1 1.932867 1_555
O6 V1 1.937402 1_555
O7 V0 1.937395 1_555
O12 V0 1.731586 1_555
O13 V1 1.731586 1_555
