# generated using pymatgen
data_HfVP
_symmetry_space_group_name_H-M   'P 1'
_cell_length_a   3.47279271
_cell_length_b   6.54574363
_cell_length_c   7.82341833
_cell_angle_alpha   90.00000000
_cell_angle_beta   90.00000000
_cell_angle_gamma   90.00000000
_symmetry_Int_Tables_number   1
_chemical_formula_structural   HfVP
_chemical_formula_sum   'Hf4 V4 P4'
_cell_volume   177.84202966
_cell_formula_units_Z   4
loop_
 _symmetry_equiv_pos_site_id
 _symmetry_equiv_pos_as_xyz
  1  'x, y, z'
loop_
 _atom_site_type_symbol
 _atom_site_label
 _atom_site_symmetry_multiplicity
 _atom_site_fract_x
 _atom_site_fract_y
 _atom_site_fract_z
 _atom_site_occupancy
  Hf  Hf0  1  0.25000000  0.04099020  0.83162045  1
  Hf  Hf1  1  0.25000000  0.54099020  0.66837955  1
  Hf  Hf2  1  0.75000000  0.95900980  0.16837955  1
  Hf  Hf3  1  0.75000000  0.45900980  0.33162045  1
  V  V0  1  0.25000000  0.13024482  0.44238180  1
  V  V1  1  0.25000000  0.63024482  0.05761820  1
  V  V2  1  0.75000000  0.86975518  0.55761820  1
  V  V3  1  0.75000000  0.36975518  0.94238180  1
  P  P0  1  0.25000000  0.75993402  0.36160752  1
  P  P1  1  0.25000000  0.25993402  0.13839248  1
  P  P2  1  0.75000000  0.24006598  0.63839248  1
  P  P3  1  0.75000000  0.74006598  0.86160752  1
loop_
_geom_bond_atom_site_label_1
_geom_bond_atom_site_label_2
_geom_bond_distance
_geom_bond_site_symmetry_2
Hf0 P3 2.636307 1_545
Hf0 P3 2.636307 1_445
Hf0 P2 2.645446 1_555
Hf0 P2 2.645446 1_455
Hf0 P1 2.795344 1_556
Hf1 P2 2.636307 1_455
Hf1 P2 2.636307 1_555
Hf1 P3 2.645446 1_455
Hf1 P3 2.645446 1_555
Hf1 P0 2.795344 1_555
Hf2 P1 2.636307 1_665
Hf2 P1 2.636307 1_565
Hf2 P0 2.645446 1_555
Hf2 P0 2.645446 1_655
Hf2 P3 2.795344 1_554
Hf3 P0 2.636307 1_655
Hf3 P0 2.636307 1_555
Hf3 P1 2.645446 1_555
Hf3 P1 2.645446 1_655
Hf3 P2 2.795344 1_555
P0 V2 2.425567 1_555
P0 V2 2.425567 1_455
P0 V0 2.504978 1_565
P0 V1 2.525204 1_555
P1 V3 2.425567 1_454
P1 V3 2.425567 1_554
P1 V1 2.504978 1_555
P1 V0 2.525204 1_555
P2 V0 2.425567 1_555
P2 V0 2.425567 1_655
P2 V2 2.504978 1_545
P2 V3 2.525204 1_555
P3 V1 2.425567 1_556
P3 V1 2.425567 1_656
P3 V3 2.504978 1_555
P3 V2 2.525204 1_555
