# generated using pymatgen
data_Li2TiV3O8
_symmetry_space_group_name_H-M   'P 1'
_cell_length_a   6.00929851
_cell_length_b   10.35353750
_cell_length_c   6.01747383
_cell_angle_alpha   106.98692388
_cell_angle_beta   120.38532393
_cell_angle_gamma   89.71872029
_symmetry_Int_Tables_number   1
_chemical_formula_structural   Li2TiV3O8
_chemical_formula_sum   'Li4 Ti2 V6 O16'
_cell_volume   304.20983541
_cell_formula_units_Z   2
loop_
 _symmetry_equiv_pos_site_id
 _symmetry_equiv_pos_as_xyz
  1  'x, y, z'
loop_
 _atom_site_type_symbol
 _atom_site_label
 _atom_site_symmetry_multiplicity
 _atom_site_fract_x
 _atom_site_fract_y
 _atom_site_fract_z
 _atom_site_occupancy
  Li  Li0  1  0.06464100  0.18902100  0.12509600  1
  Li  Li1  1  0.56607500  0.69003100  0.12597800  1
  Li  Li2  1  0.43393100  0.30996700  0.87401600  1
  Li  Li3  1  0.93536600  0.81097800  0.87490000  1
  Ti  Ti0  1  0.24850000  0.75952200  0.50080900  1
  Ti  Ti1  1  0.75153300  0.24049100  0.49916500  1
  V  V0  1  0.99993900  0.00001300  0.50002400  1
  V  V1  1  0.00001700  0.50000700  0.99998600  1
  V  V2  1  0.49990500  0.99997200  0.99999600  1
  V  V3  1  0.00002100  0.49999400  0.50001800  1
  V  V4  1  0.49998500  0.00003400  0.50006200  1
  V  V5  1  0.50001900  0.49999800  0.50000000  1
  O  O0  1  0.13387600  0.39421100  0.24952000  1
  O  O1  1  0.63104100  0.89374300  0.26244400  1
  O  O2  1  0.36897000  0.10623500  0.73752500  1
  O  O3  1  0.86613200  0.60578700  0.75047100  1
  O  O4  1  0.36689600  0.61365300  0.70472300  1
  O  O5  1  0.86074200  0.12711000  0.72069400  1
  O  O6  1  0.91107600  0.61854100  0.26272400  1
  O  O7  1  0.40884800  0.12700800  0.26793400  1
  O  O8  1  0.35009800  0.61413300  0.25427800  1
  O  O9  1  0.86022900  0.12920700  0.27002500  1
  O  O10  1  0.13976600  0.87079600  0.72998200  1
  O  O11  1  0.64990900  0.38586300  0.74571500  1
  O  O12  1  0.59115500  0.87299100  0.73204900  1
  O  O13  1  0.08892900  0.38146000  0.73726900  1
  O  O14  1  0.13928600  0.87288900  0.27932000  1
  O  O15  1  0.63311500  0.38634800  0.29527800  1
loop_
_geom_bond_atom_site_label_1
_geom_bond_atom_site_label_2
_geom_bond_distance
_geom_bond_site_symmetry_2
Li0 O5 1.978365 1_454
Li0 O7 1.985029 1_555
Li0 O0 2.002768 1_555
Li0 O9 2.014883 1_455
Li1 O1 1.986700 1_555
Li1 O6 2.034253 1_555
Li1 O4 2.062114 1_554
Li1 O8 2.067892 1_555
Li2 O2 1.986896 1_555
Li2 O13 2.034273 1_555
Li2 O15 2.062148 1_556
Li2 O11 2.067892 1_555
Li3 O14 1.978454 1_656
Li3 O12 1.985049 1_555
Li3 O3 2.002777 1_555
Li3 O10 2.014787 1_655
O0 V1 1.957566 1_554
O0 V5 2.004179 1_555
O0 V3 2.090930 1_555
O1 V0 2.016802 1_565
O1 V2 2.017965 1_554
O1 V4 2.021647 1_565
O2 V0 2.017229 1_455
O2 V2 2.018350 1_545
O2 V4 2.020456 1_555
O3 V1 1.957357 1_655
O3 V5 2.004055 1_555
O3 V3 2.090908 1_655
O4 V5 1.919104 1_555
O4 V3 2.047895 1_555
O4 Ti0 2.117033 1_555
O5 Ti1 1.899345 1_555
O5 V0 2.070362 1_555
O5 V4 2.071025 1_555
O6 V1 2.001520 1_654
O6 V3 2.019060 1_655
O6 Ti0 2.040345 1_655
O7 Ti1 1.930571 1_555
O7 V4 2.066717 1_555
O7 V2 2.067663 1_544
O8 V1 1.968448 1_554
O8 V5 2.014274 1_555
O8 Ti0 2.107563 1_555
O9 Ti1 1.905475 1_555
O9 V0 2.074797 1_555
O9 V2 2.077959 1_544
O10 Ti0 1.905739 1_555
O10 V0 2.074881 1_465
O10 V2 2.076974 1_555
O11 V1 1.968621 1_655
O11 V5 2.014232 1_555
O11 Ti1 2.107647 1_555
O12 Ti0 1.930386 1_555
O12 V4 2.066678 1_565
O12 V2 2.068232 1_555
O13 V1 2.001361 1_555
O13 V3 2.018777 1_555
O13 Ti1 2.040172 1_455
O14 Ti0 1.899055 1_555
O14 V4 2.071048 1_565
O14 V0 2.071276 1_465
O15 V5 1.918958 1_555
O15 V3 2.047961 1_655
O15 Ti1 2.116828 1_555
