# generated using pymatgen
data_Sr8Y4Cu11CO28
_symmetry_space_group_name_H-M   'P 1'
_cell_length_a   13.70665416
_cell_length_b   13.70665416
_cell_length_c   3.87579000
_cell_angle_alpha   90.00000000
_cell_angle_beta   90.00000000
_cell_angle_gamma   112.26318629
_symmetry_Int_Tables_number   1
_chemical_formula_structural   Sr8Y4Cu11CO28
_chemical_formula_sum   'Sr8 Y4 Cu11 C1 O28'
_cell_volume   673.87240614
_cell_formula_units_Z   1
loop_
 _symmetry_equiv_pos_site_id
 _symmetry_equiv_pos_as_xyz
  1  'x, y, z'
loop_
 _atom_site_type_symbol
 _atom_site_label
 _atom_site_symmetry_multiplicity
 _atom_site_fract_x
 _atom_site_fract_y
 _atom_site_fract_z
 _atom_site_occupancy
  Sr  Sr0  1  0.79078500  0.97383600  0.50000000  1
  Sr  Sr1  1  0.21008900  0.02683700  0.50000000  1
  Sr  Sr2  1  0.02683700  0.21008900  0.50000000  1
  Sr  Sr3  1  0.97383600  0.79078500  0.50000000  1
  Sr  Sr4  1  0.56002500  0.73760300  0.50000000  1
  Sr  Sr5  1  0.44435800  0.25983100  0.50000000  1
  Sr  Sr6  1  0.25983100  0.44435800  0.50000000  1
  Sr  Sr7  1  0.73760300  0.56002500  0.50000000  1
  Y  Y0  1  0.62191400  0.12899600  0.50000000  1
  Y  Y1  1  0.37863700  0.86954300  0.50000000  1
  Y  Y2  1  0.86954300  0.37863700  0.50000000  1
  Y  Y3  1  0.12899600  0.62191400  0.50000000  1
  Cu  Cu0  1  0.81988300  0.18026300  0.00000000  1
  Cu  Cu1  1  0.18026300  0.81988300  0.00000000  1
  Cu  Cu2  1  0.32822400  0.67102600  0.00000000  1
  Cu  Cu3  1  0.67102600  0.32822400  0.00000000  1
  Cu  Cu4  1  0.99998600  0.99998600  0.00000000  1
  Cu  Cu5  1  0.57667200  0.93001800  0.00000000  1
  Cu  Cu6  1  0.42379500  0.06854400  0.00000000  1
  Cu  Cu7  1  0.06854400  0.42379500  0.00000000  1
  Cu  Cu8  1  0.93001800  0.57667200  0.00000000  1
  Cu  Cu9  1  0.76300700  0.76300700  0.00000000  1
  Cu  Cu10  1  0.24005800  0.24005800  0.00000000  1
  C  C0  1  0.49823500  0.49823500  0.00000000  1
  O  O0  1  0.44867700  0.80202400  0.00000000  1
  O  O1  1  0.55345400  0.19444500  0.00000000  1
  O  O2  1  0.19444500  0.55345400  0.00000000  1
  O  O3  1  0.80202400  0.44867700  0.00000000  1
  O  O4  1  0.68201500  0.07056000  0.00000000  1
  O  O5  1  0.31926400  0.92755200  0.00000000  1
  O  O6  1  0.92755200  0.31926400  0.00000000  1
  O  O7  1  0.07056000  0.68201500  0.00000000  1
  O  O8  1  0.75567000  0.75567000  0.50000000  1
  O  O9  1  0.25113500  0.25113500  0.50000000  1
  O  O10  1  0.67860100  0.84355700  0.00000000  1
  O  O11  1  0.31952600  0.15464800  0.00000000  1
  O  O12  1  0.15464800  0.31952600  0.00000000  1
  O  O13  1  0.84355700  0.67860100  0.00000000  1
  O  O14  1  0.80906600  0.19114900  0.50000000  1
  O  O15  1  0.19114900  0.80906600  0.50000000  1
  O  O16  1  0.91667000  0.08297100  0.00000000  1
  O  O17  1  0.08297100  0.91667000  0.00000000  1
  O  O18  1  0.32227700  0.67741700  0.50000000  1
  O  O19  1  0.67741700  0.32227700  0.50000000  1
  O  O20  1  0.56603200  0.93832200  0.50000000  1
  O  O21  1  0.43395000  0.06051000  0.50000000  1
  O  O22  1  0.06051000  0.43395000  0.50000000  1
  O  O23  1  0.93832200  0.56603200  0.50000000  1
  O  O24  1  0.00059100  0.00059100  0.50000000  1
  O  O25  1  0.40654600  0.50602700  0.00000000  1
  O  O26  1  0.50602700  0.40654600  0.00000000  1
  O  O27  1  0.58397800  0.58397800  0.00000000  1
loop_
_geom_bond_atom_site_label_1
_geom_bond_atom_site_label_2
_geom_bond_distance
_geom_bond_site_symmetry_2
Cu0 O6 1.917645 1_555
Cu0 O4 1.918056 1_555
Cu0 O14 1.953573 1_555
Cu0 O14 1.953573 1_554
Cu0 O16 2.208798 1_555
Cu1 O5 1.917645 1_555
Cu1 O7 1.918056 1_555
Cu1 O15 1.953573 1_554
Cu1 O15 1.953573 1_555
Cu1 O17 2.208798 1_555
Cu2 O0 1.924465 1_555
Cu2 O2 1.928796 1_555
Cu2 O18 1.942979 1_555
Cu2 O18 1.942979 1_554
Cu3 O3 1.924465 1_555
Cu3 O1 1.928796 1_555
Cu3 O19 1.942979 1_554
Cu3 O19 1.942979 1_555
Cu4 O17 1.892658 1_655
Cu4 O16 1.892658 1_565
Cu4 O24 1.937917 1_665
Cu4 O24 1.937917 1_664
Cu5 O4 1.920450 1_565
Cu5 O20 1.949933 1_555
Cu5 O20 1.949933 1_554
Cu5 O0 1.955383 1_555
Cu5 O10 2.147302 1_555
Cu6 O5 1.920797 1_545
Cu6 O21 1.948987 1_555
Cu6 O21 1.948987 1_554
Cu6 O1 1.952575 1_555
Cu6 O11 2.171056 1_555
Cu7 O6 1.920797 1_455
Cu7 O22 1.948987 1_554
Cu7 O22 1.948987 1_555
Cu7 O2 1.952575 1_555
Cu7 O12 2.171056 1_555
Cu8 O7 1.920450 1_655
Cu8 O23 1.949933 1_554
Cu8 O23 1.949933 1_555
Cu8 O3 1.955383 1_555
Cu8 O13 2.147302 1_555
Cu9 O10 1.877580 1_555
Cu9 O13 1.877580 1_555
Cu9 O8 1.941134 1_555
Cu9 O8 1.941134 1_554
Cu10 O12 1.877010 1_555
Cu10 O11 1.877010 1_555
Cu10 O9 1.945270 1_555
Cu10 O9 1.945270 1_554
C0 O25 1.300973 1_555
C0 O26 1.300973 1_555
C0 O27 1.309904 1_555
O0 Y1 2.491333 1_555
O0 Y1 2.491333 1_554
O0 Sr4 2.808125 1_555
O0 Sr4 2.808125 1_554
O1 Y0 2.465473 1_554
O1 Y0 2.465473 1_555
O1 Sr5 2.794668 1_555
O1 Sr5 2.794668 1_554
O2 Y3 2.465473 1_554
O2 Y3 2.465473 1_555
O2 Sr6 2.794668 1_554
O2 Sr6 2.794668 1_555
O3 Y2 2.491333 1_554
O3 Y2 2.491333 1_555
O3 Sr7 2.808125 1_554
O3 Sr7 2.808125 1_555
O4 Y0 2.361262 1_554
O4 Y0 2.361262 1_555
O4 Sr0 3.038660 1_544
O4 Sr0 3.038660 1_545
O5 Y1 2.353765 1_555
O5 Y1 2.353765 1_554
O5 Sr1 3.064266 1_564
O5 Sr1 3.064266 1_565
O6 Y2 2.353765 1_555
O6 Y2 2.353765 1_554
O6 Sr2 3.064266 1_655
O6 Sr2 3.064266 1_654
O7 Y3 2.361262 1_554
O7 Y3 2.361262 1_555
O7 Sr3 3.038660 1_455
O7 Sr3 3.038660 1_454
O8 Sr4 2.597946 1_555
O8 Sr7 2.597946 1_555
O8 Sr3 2.843086 1_555
O8 Sr0 2.843086 1_555
O9 Sr5 2.605619 1_555
O9 Sr6 2.605619 1_555
O9 Sr1 2.908214 1_555
O9 Sr2 2.908214 1_555
O10 Sr4 2.591830 1_555
O10 Sr4 2.591830 1_554
O10 Sr0 2.688492 1_555
O10 Sr0 2.688492 1_554
O11 Sr5 2.625342 1_554
O11 Sr5 2.625342 1_555
O11 Sr1 2.661455 1_554
O11 Sr1 2.661455 1_555
O12 Sr6 2.625342 1_554
O12 Sr6 2.625342 1_555
O12 Sr2 2.661455 1_554
O12 Sr2 2.661455 1_555
O13 Sr7 2.591830 1_554
O13 Sr7 2.591830 1_555
O13 Sr3 2.688492 1_554
O13 Sr3 2.688492 1_555
O14 Y0 2.377027 1_555
O14 Y2 2.382657 1_555
O14 Sr0 2.893011 1_545
O14 Sr2 2.896539 1_655
O15 Y3 2.377027 1_555
O15 Y1 2.382657 1_555
O15 Sr3 2.893011 1_455
O15 Sr1 2.896539 1_565
O16 Sr0 2.648501 1_544
O16 Sr0 2.648501 1_545
O16 Sr2 2.660424 1_654
O16 Sr2 2.660424 1_655
O17 Sr3 2.648501 1_454
O17 Sr3 2.648501 1_455
O17 Sr1 2.660424 1_564
O17 Sr1 2.660424 1_565
O18 Y1 2.447475 1_555
O18 Y3 2.463750 1_555
O18 Sr6 2.977481 1_555
O18 Sr4 3.043499 1_555
O19 Y2 2.447475 1_555
O19 Y0 2.463750 1_555
O19 Sr5 2.977481 1_555
O19 Sr7 3.043499 1_555
O20 Y1 2.377275 1_555
O20 Y0 2.429044 1_565
O20 Sr4 2.721059 1_555
O20 Sr0 2.931017 1_555
O21 Y0 2.384592 1_555
O21 Y1 2.433621 1_545
O21 Sr5 2.681228 1_555
O21 Sr1 2.924881 1_555
O22 Y3 2.384592 1_555
O22 Y2 2.433621 1_455
O22 Sr6 2.681228 1_555
O22 Sr2 2.924881 1_555
O23 Y2 2.377275 1_555
O23 Y3 2.429044 1_655
O23 Sr7 2.721059 1_555
O23 Sr3 2.931017 1_555
O24 Sr1 2.755410 1_555
O24 Sr2 2.755410 1_555
O24 Sr0 2.757764 1_445
O24 Sr3 2.757764 1_445
O25 Sr6 2.688111 1_555
O25 Sr6 2.688111 1_554
O26 Sr5 2.688111 1_555
O26 Sr5 2.688111 1_554
O27 Sr7 2.970012 1_554
O27 Sr4 2.970012 1_555
O27 Sr4 2.970012 1_554
O27 Sr7 2.970012 1_555
