# generated using pymatgen
data_Fe3(PO4)2
_symmetry_space_group_name_H-M   'P 1'
_cell_length_a   4.78004228
_cell_length_b   6.01013471
_cell_length_c   10.35434276
_cell_angle_alpha   89.06551522
_cell_angle_beta   90.00000000
_cell_angle_gamma   90.00000000
_symmetry_Int_Tables_number   1
_chemical_formula_structural   Fe3(PO4)2
_chemical_formula_sum   'Fe6 P4 O16'
_cell_volume   297.42722288
_cell_formula_units_Z   2
loop_
 _symmetry_equiv_pos_site_id
 _symmetry_equiv_pos_as_xyz
  1  'x, y, z'
loop_
 _atom_site_type_symbol
 _atom_site_label
 _atom_site_symmetry_multiplicity
 _atom_site_fract_x
 _atom_site_fract_y
 _atom_site_fract_z
 _atom_site_occupancy
  Fe  Fe0  1  0.48299408  0.23736901  0.21875891  1
  Fe  Fe1  1  0.98299408  0.76263099  0.28124109  1
  Fe  Fe2  1  0.51700592  0.76263099  0.78124109  1
  Fe  Fe3  1  0.01700592  0.23736901  0.71875891  1
  Fe  Fe4  1  0.50000000  0.50000000  0.50000000  1
  Fe  Fe5  1  -0.00000000  0.50000000  0.00000000  1
  P  P0  1  0.93470589  0.25962822  0.39996095  1
  P  P1  1  0.43470589  0.74037178  0.10003905  1
  P  P2  1  0.06529411  0.74037178  0.60003905  1
  P  P3  1  0.56529411  0.25962822  0.89996095  1
  O  O0  1  0.68188781  0.25300906  0.03796320  1
  O  O1  1  0.18188781  0.74699094  0.46203680  1
  O  O2  1  0.31811219  0.74699094  0.96203680  1
  O  O3  1  0.81811219  0.25300906  0.53796320  1
  O  O4  1  0.74603173  0.72232443  0.60202647  1
  O  O5  1  0.24603173  0.27767557  0.89797353  1
  O  O6  1  0.25396827  0.27767557  0.39797353  1
  O  O7  1  0.75396827  0.72232443  0.10202647  1
  O  O8  1  0.79053703  0.46971492  0.33639110  1
  O  O9  1  0.29053703  0.53028508  0.16360890  1
  O  O10  1  0.67413958  0.06768649  0.81827139  1
  O  O11  1  0.17413958  0.93231351  0.68172861  1
  O  O12  1  0.32586042  0.93231351  0.18172861  1
  O  O13  1  0.82586042  0.06768649  0.31827139  1
  O  O14  1  0.70946297  0.46971492  0.83639110  1
  O  O15  1  0.20946297  0.53028508  0.66360890  1
loop_
_geom_bond_atom_site_label_1
_geom_bond_atom_site_label_2
_geom_bond_distance
_geom_bond_site_symmetry_2
Fe0 O12 2.023746 1_545
Fe0 O9 2.058846 1_555
Fe0 O0 2.100340 1_555
Fe0 O6 2.171466 1_555
Fe0 O13 2.180249 1_555
Fe0 O8 2.377000 1_555
Fe1 O13 2.023746 1_565
Fe1 O8 2.058846 1_555
Fe1 O1 2.100340 1_655
Fe1 O7 2.171466 1_555
Fe1 O12 2.180249 1_655
Fe1 O9 2.377000 1_655
Fe2 O10 2.023746 1_565
Fe2 O14 2.058846 1_555
Fe2 O2 2.100340 1_555
Fe2 O4 2.171466 1_555
Fe2 O11 2.180249 1_555
Fe2 O15 2.377000 1_555
Fe3 O11 2.023746 1_545
Fe3 O15 2.058846 1_555
Fe3 O3 2.100340 1_455
Fe3 O5 2.171466 1_555
Fe3 O10 2.180249 1_455
Fe3 O14 2.377000 1_455
Fe4 O6 2.081001 1_555
Fe4 O4 2.081001 1_555
Fe4 O3 2.156679 1_555
Fe4 O1 2.156679 1_555
Fe4 O15 2.200396 1_555
Fe4 O8 2.200396 1_555
Fe5 O5 2.081001 1_554
Fe5 O7 2.081001 1_455
Fe5 O0 2.156679 1_455
Fe5 O2 2.156679 1_554
Fe5 O9 2.200396 1_555
Fe5 O14 2.200396 1_454
O0 P3 1.533674 1_554
O1 P2 1.533674 1_555
O2 P1 1.533674 1_556
O3 P0 1.533674 1_555
O4 P2 1.530052 1_655
O5 P3 1.530052 1_555
O6 P0 1.530052 1_455
O7 P1 1.530052 1_555
O8 P0 1.573321 1_555
O9 P1 1.573321 1_555
O10 P3 1.532565 1_555
O11 P2 1.532565 1_555
O12 P1 1.532565 1_555
O13 P0 1.532565 1_555
O14 P3 1.573321 1_555
O15 P2 1.573321 1_555
