# generated using pymatgen
data_Mg3Ti(BO4)2
_symmetry_space_group_name_H-M   'P 1'
_cell_length_a   3.12860200
_cell_length_b   9.38849600
_cell_length_c   9.50221900
_cell_angle_alpha   90.00000000
_cell_angle_beta   90.00000000
_cell_angle_gamma   90.00000000
_symmetry_Int_Tables_number   1
_chemical_formula_structural   Mg3Ti(BO4)2
_chemical_formula_sum   'Mg6 Ti2 B4 O16'
_cell_volume   279.10741834
_cell_formula_units_Z   2
loop_
 _symmetry_equiv_pos_site_id
 _symmetry_equiv_pos_as_xyz
  1  'x, y, z'
loop_
 _atom_site_type_symbol
 _atom_site_label
 _atom_site_symmetry_multiplicity
 _atom_site_fract_x
 _atom_site_fract_y
 _atom_site_fract_z
 _atom_site_occupancy
  Mg  Mg0  1  0.00000000  0.89772600  0.43225500  1
  Mg  Mg1  1  0.00000000  0.39772600  0.56774500  1
  Mg  Mg2  1  0.50000000  0.10324900  0.06394500  1
  Mg  Mg3  1  0.50000000  0.60324900  0.93605500  1
  Mg  Mg4  1  0.00000000  0.37103400  0.18105900  1
  Mg  Mg5  1  0.00000000  0.87103400  0.81894100  1
  Ti  Ti0  1  0.50000000  0.60852500  0.31462800  1
  Ti  Ti1  1  0.50000000  0.10852500  0.68537200  1
  B  B0  1  0.50000000  0.66989800  0.62036000  1
  B  B1  1  0.50000000  0.16989800  0.37964000  1
  B  B2  1  0.00000000  0.32928600  0.88181700  1
  B  B3  1  0.00000000  0.82928600  0.11818300  1
  O  O0  1  0.50000000  0.75070000  0.49396000  1
  O  O1  1  0.50000000  0.25070000  0.50604000  1
  O  O2  1  0.00000000  0.24844700  0.00347200  1
  O  O3  1  0.00000000  0.74844700  0.99652800  1
  O  O4  1  0.50000000  0.52578600  0.61012600  1
  O  O5  1  0.50000000  0.02578600  0.38987400  1
  O  O6  1  0.00000000  0.47282000  0.88504200  1
  O  O7  1  0.00000000  0.97282000  0.11495800  1
  O  O8  1  0.00000000  0.50330700  0.36930400  1
  O  O9  1  0.00000000  0.00330700  0.63069600  1
  O  O10  1  0.50000000  0.52204600  0.14463000  1
  O  O11  1  0.50000000  0.02204600  0.85537000  1
  O  O12  1  0.00000000  0.75796400  0.25249000  1
  O  O13  1  0.00000000  0.25796400  0.74751000  1
  O  O14  1  0.50000000  0.23921300  0.25033500  1
  O  O15  1  0.50000000  0.73921300  0.74966500  1
loop_
_geom_bond_atom_site_label_1
_geom_bond_atom_site_label_2
_geom_bond_distance
_geom_bond_site_symmetry_2
Mg0 O5 2.013633 1_565
Mg0 O5 2.013633 1_465
Mg0 O9 2.130298 1_565
Mg0 O12 2.153969 1_555
Mg0 O0 2.167072 1_555
Mg0 O0 2.167072 1_455
Mg1 O4 2.013633 1_455
Mg1 O4 2.013633 1_555
Mg1 O8 2.130298 1_555
Mg1 O13 2.153969 1_555
Mg1 O1 2.167072 1_555
Mg1 O1 2.167072 1_455
Mg2 O7 2.044868 1_545
Mg2 O7 2.044868 1_645
Mg2 O11 2.123498 1_554
Mg2 O2 2.153027 1_555
Mg2 O2 2.153027 1_655
Mg2 O14 2.183187 1_555
Mg3 O6 2.044868 1_655
Mg3 O6 2.044868 1_555
Mg3 O10 2.123498 1_556
Mg3 O3 2.153027 1_555
Mg3 O3 2.153027 1_655
Mg3 O15 2.183187 1_555
Mg4 O2 2.042583 1_555
Mg4 O14 2.100481 1_455
Mg4 O14 2.100481 1_555
Mg4 O10 2.139381 1_555
Mg4 O10 2.139381 1_455
Mg4 O8 2.177565 1_555
Mg5 O3 2.042583 1_555
Mg5 O15 2.100481 1_455
Mg5 O15 2.100481 1_555
Mg5 O11 2.139381 1_465
Mg5 O11 2.139381 1_565
Mg5 O9 2.177565 1_565
B0 O4 1.356485 1_555
B0 O15 1.390381 1_555
B0 O0 1.420592 1_555
B1 O5 1.356485 1_555
B1 O14 1.390381 1_555
B1 O1 1.420592 1_555
B2 O6 1.347917 1_555
B2 O2 1.382872 1_556
B2 O13 1.441213 1_555
B3 O7 1.347917 1_555
B3 O3 1.382872 1_554
B3 O12 1.441213 1_555
O0 Ti0 2.164604 1_555
O1 Ti1 2.164604 1_555
O8 Ti0 1.921663 1_455
O8 Ti0 1.921663 1_555
O9 Ti1 1.921663 1_555
O9 Ti1 1.921663 1_455
O10 Ti0 1.807920 1_555
O11 Ti1 1.807920 1_555
O12 Ti0 2.182681 1_555
O12 Ti0 2.182681 1_455
O13 Ti1 2.182681 1_455
O13 Ti1 2.182681 1_555
