# generated using pymatgen
data_K7NaGe8
_symmetry_space_group_name_H-M   'P 1'
_cell_length_a   12.95180000
_cell_length_b   12.95180000
_cell_length_c   12.95180000
_cell_angle_alpha   90.00000000
_cell_angle_beta   90.00000000
_cell_angle_gamma   90.00000000
_symmetry_Int_Tables_number   1
_chemical_formula_structural   K7NaGe8
_chemical_formula_sum   'K28 Na4 Ge32'
_cell_volume   2172.65309438
_cell_formula_units_Z   4
loop_
 _symmetry_equiv_pos_site_id
 _symmetry_equiv_pos_as_xyz
  1  'x, y, z'
loop_
 _atom_site_type_symbol
 _atom_site_label
 _atom_site_symmetry_multiplicity
 _atom_site_fract_x
 _atom_site_fract_y
 _atom_site_fract_z
 _atom_site_occupancy
  K  K0  1  0.18535049  0.45744825  0.27361185  1
  K  K1  1  0.81464951  0.54255175  0.72638815  1
  K  K2  1  0.31464951  0.54255175  0.77361185  1
  K  K3  1  0.81464951  0.95744825  0.22638815  1
  K  K4  1  0.27361185  0.18535049  0.45744825  1
  K  K5  1  0.68535049  0.45744825  0.22638815  1
  K  K6  1  0.18535049  0.04255175  0.77361185  1
  K  K7  1  0.72638815  0.81464951  0.54255175  1
  K  K8  1  0.68535049  0.04255175  0.72638815  1
  K  K9  1  0.77361185  0.31464951  0.54255175  1
  K  K10  1  0.31464951  0.95744825  0.27361185  1
  K  K11  1  0.22638815  0.68535049  0.45744825  1
  K  K12  1  0.22638815  0.81464951  0.95744825  1
  K  K13  1  0.77361185  0.18535049  0.04255175  1
  K  K14  1  0.72638815  0.68535049  0.04255175  1
  K  K15  1  0.27361185  0.31464951  0.95744825  1
  K  K16  1  0.45744825  0.27361185  0.18535049  1
  K  K17  1  0.54255175  0.72638815  0.81464951  1
  K  K18  1  0.95744825  0.22638815  0.81464951  1
  K  K19  1  0.04255175  0.77361185  0.18535049  1
  K  K20  1  0.04255175  0.72638815  0.68535049  1
  K  K21  1  0.95744825  0.27361185  0.31464951  1
  K  K22  1  0.54255175  0.77361185  0.31464951  1
  K  K23  1  0.45744825  0.22638815  0.68535049  1
  K  K24  1  0.50000000  0.50000000  0.50000000  1
  K  K25  1  -0.00000000  0.50000000  0.00000000  1
  K  K26  1  0.50000000  -0.00000000  0.00000000  1
  K  K27  1  -0.00000000  -0.00000000  0.50000000  1
  Na  Na0  1  -0.00000000  -0.00000000  0.00000000  1
  Na  Na1  1  0.50000000  -0.00000000  0.50000000  1
  Na  Na2  1  -0.00000000  0.50000000  0.50000000  1
  Na  Na3  1  0.50000000  0.50000000  0.00000000  1
  Ge  Ge0  1  0.05517504  0.20878508  0.07356447  1
  Ge  Ge1  1  0.94482496  0.79121492  0.92643553  1
  Ge  Ge2  1  0.44482496  0.79121492  0.57356447  1
  Ge  Ge3  1  0.94482496  0.70878508  0.42643553  1
  Ge  Ge4  1  0.07356447  0.05517504  0.20878508  1
  Ge  Ge5  1  0.55517504  0.20878508  0.42643553  1
  Ge  Ge6  1  0.05517504  0.29121492  0.57356447  1
  Ge  Ge7  1  0.92643553  0.94482496  0.79121492  1
  Ge  Ge8  1  0.55517504  0.29121492  0.92643553  1
  Ge  Ge9  1  0.57356447  0.44482496  0.79121492  1
  Ge  Ge10  1  0.44482496  0.70878508  0.07356447  1
  Ge  Ge11  1  0.42643553  0.55517504  0.20878508  1
  Ge  Ge12  1  0.42643553  0.94482496  0.70878508  1
  Ge  Ge13  1  0.57356447  0.05517504  0.29121492  1
  Ge  Ge14  1  0.92643553  0.55517504  0.29121492  1
  Ge  Ge15  1  0.07356447  0.44482496  0.70878508  1
  Ge  Ge16  1  0.20878508  0.07356447  0.05517504  1
  Ge  Ge17  1  0.79121492  0.92643553  0.94482496  1
  Ge  Ge18  1  0.70878508  0.42643553  0.94482496  1
  Ge  Ge19  1  0.29121492  0.57356447  0.05517504  1
  Ge  Ge20  1  0.29121492  0.92643553  0.55517504  1
  Ge  Ge21  1  0.70878508  0.07356447  0.44482496  1
  Ge  Ge22  1  0.79121492  0.57356447  0.44482496  1
  Ge  Ge23  1  0.20878508  0.42643553  0.55517504  1
  Ge  Ge24  1  0.20434103  0.20434103  0.20434103  1
  Ge  Ge25  1  0.79565897  0.79565897  0.79565897  1
  Ge  Ge26  1  0.29565897  0.79565897  0.70434103  1
  Ge  Ge27  1  0.79565897  0.70434103  0.29565897  1
  Ge  Ge28  1  0.70434103  0.20434103  0.29565897  1
  Ge  Ge29  1  0.20434103  0.29565897  0.70434103  1
  Ge  Ge30  1  0.70434103  0.29565897  0.79565897  1
  Ge  Ge31  1  0.29565897  0.70434103  0.20434103  1
loop_
_geom_bond_atom_site_label_1
_geom_bond_atom_site_label_2
_geom_bond_distance
_geom_bond_site_symmetry_2
Ge0 Ge24 2.569970 1_555
Ge0 Ge16 2.661235 1_555
Ge0 Ge4 2.661235 1_555
Ge0 Na0 2.954806 1_555
Ge0 K21 3.472315 1_455
Ge0 K15 3.485091 1_554
Ge0 K18 3.591582 1_454
Ge0 K13 3.681338 1_455
Ge0 K25 3.955331 1_555
Ge1 Ge25 2.569970 1_555
Ge1 Ge7 2.661235 1_555
Ge1 Ge17 2.661235 1_555
Ge1 Na0 2.954806 1_666
Ge1 K20 3.472315 1_655
Ge1 K14 3.485091 1_556
Ge1 K19 3.591582 1_656
Ge1 K12 3.681338 1_655
Ge1 K25 3.955331 1_656
Ge2 Ge26 2.569970 1_555
Ge2 Ge20 2.661235 1_555
Ge2 Na1 2.954806 1_565
Ge2 K17 3.472315 1_555
Ge2 K11 3.485091 1_555
Ge2 K22 3.591582 1_555
Ge2 K7 3.681338 1_555
Ge2 K24 3.955331 1_555
Ge3 Na2 2.954806 1_655
Ge3 K19 3.472315 1_655
Ge3 K7 3.485091 1_555
Ge3 K20 3.591582 1_655
Ge3 K11 3.681338 1_655
Ge3 K27 3.955331 1_665
Ge4 Na0 2.954806 1_555
Ge4 K10 3.472315 1_545
Ge4 K21 3.485091 1_455
Ge4 K3 3.591582 1_445
Ge4 K19 3.681338 1_545
Ge4 K27 3.955331 1_555
Ge5 Na1 2.954806 1_555
Ge5 K16 3.472315 1_555
Ge5 K9 3.485091 1_555
Ge5 K23 3.591582 1_555
Ge5 K4 3.681338 1_555
Ge5 K24 3.955331 1_555
Ge6 Na2 2.954806 1_555
Ge6 K18 3.472315 1_455
Ge6 K4 3.485091 1_555
Ge6 K21 3.591582 1_455
Ge6 K9 3.681338 1_455
Ge6 K27 3.955331 1_555
Ge7 Na0 2.954806 1_666
Ge7 K8 3.472315 1_565
Ge7 K20 3.485091 1_655
Ge7 K6 3.591582 1_665
Ge7 K18 3.681338 1_565
Ge7 K27 3.955331 1_665
Ge8 Ge9 2.661235 1_555
Ge8 Na3 2.954806 1_556
Ge8 K23 3.472315 1_555
Ge8 K13 3.485091 1_556
Ge8 K16 3.591582 1_556
Ge8 K15 3.681338 1_555
Ge8 K26 3.955331 1_556
Ge9 Na3 2.954806 1_556
Ge9 K1 3.472315 1_555
Ge9 K23 3.485091 1_555
Ge9 K2 3.591582 1_555
Ge9 K17 3.681338 1_555
Ge9 K24 3.955331 1_555
Ge10 Ge31 2.569970 1_555
Ge10 Ge19 2.661235 1_555
Ge10 Ge11 2.661235 1_555
Ge10 Na3 2.954806 1_555
Ge10 K22 3.472315 1_555
Ge10 K12 3.485091 1_554
Ge10 K17 3.591582 1_554
Ge10 K14 3.681338 1_555
Ge10 K26 3.955331 1_565
Ge11 Ge31 2.569970 1_555
Ge11 Ge19 2.661235 1_555
Ge11 Na3 2.954806 1_555
Ge11 K0 3.472315 1_555
Ge11 K22 3.485091 1_555
Ge11 K5 3.591582 1_555
Ge11 K16 3.681338 1_555
Ge11 K24 3.955331 1_555
Ge12 Ge26 2.569970 1_555
Ge12 Ge2 2.661235 1_555
Ge12 Ge20 2.661235 1_555
Ge12 Na1 2.954806 1_565
Ge12 K6 3.472315 1_565
Ge12 K17 3.485091 1_555
Ge12 K8 3.591582 1_565
Ge12 K23 3.681338 1_565
Ge12 K26 3.955331 1_566
Ge13 Ge28 2.569970 1_555
Ge13 Ge21 2.661235 1_555
Ge13 Ge5 2.661235 1_555
Ge13 Na1 2.954806 1_555
Ge13 K3 3.472315 1_545
Ge13 K16 3.485091 1_555
Ge13 K10 3.591582 1_545
Ge13 K22 3.681338 1_545
Ge13 K26 3.955331 1_555
Ge14 Ge27 2.569970 1_555
Ge14 Ge22 2.661235 1_555
Ge14 Ge3 2.661235 1_555
Ge14 Na2 2.954806 1_655
Ge14 K5 3.472315 1_555
Ge14 K19 3.485091 1_655
Ge14 K0 3.591582 1_655
Ge14 K21 3.681338 1_555
Ge14 K25 3.955331 1_655
Ge15 Ge29 2.569970 1_555
Ge15 Ge6 2.661235 1_555
Ge15 Ge23 2.661235 1_555
Ge15 Na2 2.954806 1_555
Ge15 K2 3.472315 1_555
Ge15 K18 3.485091 1_455
Ge15 K1 3.591582 1_455
Ge15 K20 3.681338 1_555
Ge15 K25 3.955331 1_556
Ge16 Ge24 2.569970 1_555
Ge16 Ge4 2.661235 1_555
Ge16 Na0 2.954806 1_555
Ge16 K15 3.472315 1_554
Ge16 K10 3.485091 1_545
Ge16 K12 3.591582 1_544
Ge16 K6 3.681338 1_554
Ge16 K26 3.955331 1_555
Ge17 Ge25 2.569970 1_555
Ge17 Ge7 2.661235 1_555
Ge17 Na0 2.954806 1_666
Ge17 K14 3.472315 1_556
Ge17 K8 3.485091 1_565
Ge17 K13 3.591582 1_566
Ge17 K3 3.681338 1_556
Ge17 K26 3.955331 1_566
Ge18 Ge30 2.569970 1_555
Ge18 Ge9 2.661235 1_555
Ge18 Ge8 2.661235 1_555
Ge18 Na3 2.954806 1_556
Ge18 K13 3.472315 1_556
Ge18 K1 3.485091 1_555
Ge18 K14 3.591582 1_556
Ge18 K5 3.681338 1_556
Ge18 K25 3.955331 1_656
Ge19 Ge31 2.569970 1_555
Ge19 Na3 2.954806 1_555
Ge19 K12 3.472315 1_554
Ge19 K0 3.485091 1_555
Ge19 K15 3.591582 1_554
Ge19 K2 3.681338 1_554
Ge19 K25 3.955331 1_555
Ge20 Ge26 2.569970 1_555
Ge20 Na1 2.954806 1_565
Ge20 K11 3.472315 1_555
Ge20 K6 3.485091 1_565
Ge20 K4 3.591582 1_565
Ge20 K10 3.681338 1_555
Ge20 K27 3.955331 1_565
Ge21 Ge28 2.569970 1_555
Ge21 Ge5 2.661235 1_555
Ge21 Na1 2.954806 1_555
Ge21 K9 3.472315 1_555
Ge21 K3 3.485091 1_545
Ge21 K7 3.591582 1_545
Ge21 K8 3.681338 1_555
Ge21 K27 3.955331 1_655
Ge22 Ge27 2.569970 1_555
Ge22 Ge3 2.661235 1_555
Ge22 Na2 2.954806 1_655
Ge22 K7 3.472315 1_555
Ge22 K5 3.485091 1_555
Ge22 K9 3.591582 1_555
Ge22 K1 3.681338 1_555
Ge22 K24 3.955331 1_555
Ge23 Ge29 2.569970 1_555
Ge23 Ge6 2.661235 1_555
Ge23 Na2 2.954806 1_555
Ge23 K4 3.472315 1_555
Ge23 K2 3.485091 1_555
Ge23 K11 3.591582 1_555
Ge23 K0 3.681338 1_555
Ge23 K24 3.955331 1_555
Ge24 Ge4 2.569970 1_555
Ge24 K0 3.407637 1_555
Ge24 K16 3.407637 1_555
Ge24 K4 3.407637 1_555
Ge24 K15 3.615442 1_554
Ge24 K21 3.615442 1_455
Ge24 K10 3.615442 1_545
Ge25 Ge7 2.569970 1_555
Ge25 K1 3.407637 1_555
Ge25 K17 3.407637 1_555
Ge25 K7 3.407637 1_555
Ge25 K14 3.615442 1_556
Ge25 K20 3.615442 1_655
Ge25 K8 3.615442 1_565
Ge26 K2 3.407637 1_555
Ge26 K12 3.407637 1_555
Ge26 K20 3.407637 1_555
Ge26 K6 3.615442 1_565
Ge26 K17 3.615442 1_555
Ge26 K11 3.615442 1_555
Ge27 Ge3 2.569970 1_555
Ge27 K22 3.407637 1_555
Ge27 K3 3.407637 1_555
Ge27 K14 3.407637 1_555
Ge27 K19 3.615442 1_655
Ge27 K7 3.615442 1_555
Ge27 K5 3.615442 1_555
Ge28 Ge5 2.569970 1_555
Ge28 K21 3.407637 1_555
Ge28 K5 3.407637 1_555
Ge28 K13 3.407637 1_555
Ge28 K3 3.615442 1_545
Ge28 K9 3.615442 1_555
Ge28 K16 3.615442 1_555
Ge29 Ge6 2.569970 1_555
Ge29 K15 3.407637 1_555
Ge29 K6 3.407637 1_555
Ge29 K23 3.407637 1_555
Ge29 K18 3.615442 1_455
Ge29 K2 3.615442 1_555
Ge29 K4 3.615442 1_555
Ge30 Ge9 2.569970 1_555
Ge30 Ge8 2.569970 1_555
Ge30 K9 3.407637 1_555
Ge30 K18 3.407637 1_555
Ge30 K8 3.407637 1_555
Ge30 K13 3.615442 1_556
Ge30 K1 3.615442 1_555
Ge30 K23 3.615442 1_555
Ge31 K10 3.407637 1_555
Ge31 K19 3.407637 1_555
Ge31 K11 3.407637 1_555
Ge31 K12 3.615442 1_554
Ge31 K22 3.615442 1_555
Ge31 K0 3.615442 1_555
