# generated using pymatgen
data_Ba4NaGa2B8(BrO6)3
_symmetry_space_group_name_H-M   'P 1'
_cell_length_a   6.98922769
_cell_length_b   12.39014309
_cell_length_c   12.39014309
_cell_angle_alpha   90.00000000
_cell_angle_beta   90.00000000
_cell_angle_gamma   90.00000000
_symmetry_Int_Tables_number   1
_chemical_formula_structural   Ba4NaGa2B8(BrO6)3
_chemical_formula_sum   'Ba8 Na2 Ga4 B16 Br6 O36'
_cell_volume   1072.95580241
_cell_formula_units_Z   2
loop_
 _symmetry_equiv_pos_site_id
 _symmetry_equiv_pos_as_xyz
  1  'x, y, z'
loop_
 _atom_site_type_symbol
 _atom_site_label
 _atom_site_symmetry_multiplicity
 _atom_site_fract_x
 _atom_site_fract_y
 _atom_site_fract_z
 _atom_site_occupancy
  Ba  Ba0  1  0.01237680  0.27391694  0.98327094  1
  Ba  Ba1  1  0.01237680  0.72608306  0.01672906  1
  Ba  Ba2  1  0.51237680  0.77391694  0.51672906  1
  Ba  Ba3  1  0.51237680  0.22608306  0.48327094  1
  Ba  Ba4  1  0.01237680  0.01672906  0.72608306  1
  Ba  Ba5  1  0.01237680  0.98327094  0.27391694  1
  Ba  Ba6  1  0.51237680  0.51672906  0.77391694  1
  Ba  Ba7  1  0.51237680  0.48327094  0.22608306  1
  Na  Na0  1  0.35956853  -0.00000000  -0.00000000  1
  Na  Na1  1  0.85956853  0.50000000  0.50000000  1
  Ga  Ga0  1  0.51760366  0.20182621  0.79817379  1
  Ga  Ga1  1  0.51760366  0.79817379  0.20182621  1
  Ga  Ga2  1  0.01760366  0.70182621  0.70182621  1
  Ga  Ga3  1  0.01760366  0.29817379  0.29817379  1
  B  B0  1  0.55291239  0.23265561  0.03677790  1
  B  B1  1  0.55291239  0.76734439  0.96322210  1
  B  B2  1  0.05291239  0.73265561  0.46322210  1
  B  B3  1  0.05291239  0.26734439  0.53677790  1
  B  B4  1  0.55291239  0.96322210  0.76734439  1
  B  B5  1  0.55291239  0.03677790  0.23265561  1
  B  B6  1  0.05291239  0.46322210  0.73265561  1
  B  B7  1  0.05291239  0.53677790  0.26734439  1
  B  B8  1  0.14292948  0.26698583  0.73301417  1
  B  B9  1  0.14292948  0.73301417  0.26698583  1
  B  B10  1  0.64292948  0.76698583  0.76698583  1
  B  B11  1  0.64292948  0.23301417  0.23301417  1
  B  B12  1  0.81813805  0.31618266  0.68381734  1
  B  B13  1  0.81813805  0.68381734  0.31618266  1
  B  B14  1  0.31813805  0.81618266  0.81618266  1
  B  B15  1  0.31813805  0.18381734  0.18381734  1
  Br  Br0  1  0.93384847  -0.00000000  -0.00000000  1
  Br  Br1  1  0.43384847  0.50000000  0.50000000  1
  Br  Br2  1  0.78262453  0.50000000  -0.00000000  1
  Br  Br3  1  0.28262453  -0.00000000  0.50000000  1
  Br  Br4  1  0.78262453  -0.00000000  0.50000000  1
  Br  Br5  1  0.28262453  0.50000000  -0.00000000  1
  O  O0  1  0.93709188  0.24749826  0.75250174  1
  O  O1  1  0.93709188  0.75250174  0.24749826  1
  O  O2  1  0.43709188  0.74749826  0.74749826  1
  O  O3  1  0.43709188  0.25250174  0.25250174  1
  O  O4  1  0.68564283  0.25638976  0.11659982  1
  O  O5  1  0.68564283  0.74361024  0.88340018  1
  O  O6  1  0.18564283  0.75638976  0.38340018  1
  O  O7  1  0.18564283  0.24361024  0.61659982  1
  O  O8  1  0.68564283  0.88340018  0.74361024  1
  O  O9  1  0.68564283  0.11659982  0.25638976  1
  O  O10  1  0.18564283  0.38340018  0.75638976  1
  O  O11  1  0.18564283  0.61659982  0.24361024  1
  O  O12  1  0.36814372  0.20094670  0.06402755  1
  O  O13  1  0.36814372  0.79905330  0.93597245  1
  O  O14  1  0.86814372  0.70094670  0.43597245  1
  O  O15  1  0.86814372  0.29905330  0.56402755  1
  O  O16  1  0.36814372  0.93597245  0.79905330  1
  O  O17  1  0.36814372  0.06402755  0.20094670  1
  O  O18  1  0.86814372  0.43597245  0.70094670  1
  O  O19  1  0.86814372  0.56402755  0.29905330  1
  O  O20  1  0.61497990  0.30078279  0.69921721  1
  O  O21  1  0.61497990  0.69921721  0.30078279  1
  O  O22  1  0.11497990  0.80078279  0.80078279  1
  O  O23  1  0.11497990  0.19921721  0.19921721  1
  O  O24  1  0.25214541  0.19654216  0.80345784  1
  O  O25  1  0.25214541  0.80345784  0.19654216  1
  O  O26  1  0.75214541  0.69654216  0.69654216  1
  O  O27  1  0.75214541  0.30345784  0.30345784  1
  O  O28  1  0.61681356  0.23766681  0.93279380  1
  O  O29  1  0.61681356  0.76233319  0.06720620  1
  O  O30  1  0.11681356  0.73766681  0.56720620  1
  O  O31  1  0.11681356  0.26233319  0.43279380  1
  O  O32  1  0.61681356  0.06720620  0.76233319  1
  O  O33  1  0.61681356  0.93279380  0.23766681  1
  O  O34  1  0.11681356  0.56720620  0.73766681  1
  O  O35  1  0.11681356  0.43279380  0.26233319  1
loop_
_geom_bond_atom_site_label_1
_geom_bond_atom_site_label_2
_geom_bond_distance
_geom_bond_site_symmetry_2
Ba0 O4 2.826846 1_456
Ba0 O12 2.828684 1_556
Ba0 O28 2.869903 1_455
Ba0 O23 2.920573 1_556
Ba0 O0 2.925646 1_455
Ba0 O24 2.948043 1_555
Ba0 Br2 3.235469 1_456
Ba0 O10 3.347965 1_555
Ba0 Br5 3.384870 1_556
Ba0 Br0 3.444206 1_456
Ba1 O5 2.826846 1_454
Ba1 O13 2.828684 1_554
Ba1 O29 2.869903 1_455
Ba1 O22 2.920573 1_554
Ba1 O1 2.925646 1_455
Ba1 O25 2.948043 1_555
Ba1 Br2 3.235469 1_455
Ba1 O11 3.347965 1_555
Ba1 Br5 3.384870 1_555
Ba1 Br0 3.444206 1_465
Ba2 O6 2.826846 1_555
Ba2 O14 2.828684 1_555
Ba2 O30 2.869903 1_555
Ba2 O21 2.920573 1_555
Ba2 O2 2.925646 1_555
Ba2 O26 2.948043 1_555
Ba2 Br3 3.235469 1_565
Ba2 O8 3.347965 1_555
Ba2 Br4 3.384870 1_565
Ba2 Br1 3.444206 1_555
Ba3 O7 2.826846 1_555
Ba3 O15 2.828684 1_555
Ba3 O31 2.869903 1_555
Ba3 O20 2.920573 1_555
Ba3 O3 2.925646 1_555
Ba3 O27 2.948043 1_555
Ba3 Br3 3.235469 1_555
Ba3 O9 3.347965 1_555
Ba3 Br4 3.384870 1_555
Ba3 Br1 3.444206 1_555
Ba4 O8 2.826846 1_445
Ba4 O16 2.828684 1_545
Ba4 O32 2.869903 1_455
Ba4 O22 2.920573 1_545
Ba4 O0 2.925646 1_455
Ba4 O24 2.948043 1_555
Ba4 Br4 3.235469 1_455
Ba4 O7 3.347965 1_555
Ba4 Br3 3.384870 1_555
Ba4 Br0 3.444206 1_456
Ba5 O9 2.826846 1_465
Ba5 O17 2.828684 1_565
Ba5 O33 2.869903 1_455
Ba5 O23 2.920573 1_565
Ba5 O1 2.925646 1_455
Ba5 O25 2.948043 1_555
Ba5 Br4 3.235469 1_465
Ba5 O6 3.347965 1_555
Ba5 Br3 3.384870 1_565
Ba5 Br0 3.444206 1_465
Ba6 O10 2.826846 1_555
Ba6 O18 2.828684 1_555
Ba6 O34 2.869903 1_555
Ba6 O20 2.920573 1_555
Ba6 O2 2.925646 1_555
Ba6 O26 2.948043 1_555
Ba6 Br5 3.235469 1_556
Ba6 O5 3.347965 1_555
Ba6 Br2 3.384870 1_556
Ba6 Br1 3.444206 1_555
Ba7 O11 2.826846 1_555
Ba7 O19 2.828684 1_555
Ba7 O35 2.869903 1_555
Ba7 O21 2.920573 1_555
Ba7 O3 2.925646 1_555
Ba7 O27 2.948043 1_555
Ba7 Br5 3.235469 1_555
Ba7 O4 3.347965 1_555
Ba7 Br2 3.384870 1_555
Ba7 Br1 3.444206 1_555
Na0 O12 2.613777 1_555
Na0 O17 2.613777 1_555
Na0 O16 2.613777 1_544
Na0 O13 2.613777 1_544
Na1 O15 2.613777 1_555
Na1 O19 2.613777 1_555
Na1 O14 2.613777 1_555
Na1 O18 2.613777 1_555
Ga0 O24 1.857657 1_555
Ga0 O28 1.860134 1_555
Ga0 O32 1.860134 1_555
Ga0 O20 1.862732 1_555
Ga1 O25 1.857657 1_555
Ga1 O29 1.860134 1_555
Ga1 O33 1.860134 1_555
Ga1 O21 1.862732 1_555
Ga2 O26 1.857657 1_455
Ga2 O34 1.860134 1_555
Ga2 O30 1.860134 1_555
Ga2 O22 1.862732 1_555
Ga3 O27 1.857657 1_455
Ga3 O35 1.860134 1_555
Ga3 O31 1.860134 1_555
Ga3 O23 1.862732 1_555
B0 O28 1.365006 1_554
B0 O4 1.387517 1_555
B0 O12 1.391414 1_555
B1 O29 1.365006 1_556
B1 O5 1.387517 1_555
B1 O13 1.391414 1_555
B2 O30 1.365006 1_555
B2 O6 1.387517 1_555
B2 O14 1.391414 1_455
B3 O31 1.365006 1_555
B3 O7 1.387517 1_555
B3 O15 1.391414 1_455
B4 O32 1.365006 1_565
B4 O8 1.387517 1_555
B4 O16 1.391414 1_555
B5 O33 1.365006 1_545
B5 O9 1.387517 1_555
B5 O17 1.391414 1_555
B6 O34 1.365006 1_555
B6 O10 1.387517 1_555
B6 O18 1.391414 1_455
B7 O35 1.365006 1_555
B7 O11 1.387517 1_555
B7 O19 1.391414 1_455
B8 O24 1.451298 1_555
B8 O0 1.478615 1_455
B8 O10 1.501165 1_555
B8 O7 1.501165 1_555
B9 O25 1.451298 1_555
B9 O1 1.478615 1_455
B9 O11 1.501165 1_555
B9 O6 1.501165 1_555
B10 O26 1.451298 1_555
B10 O2 1.478615 1_555
B10 O8 1.501165 1_555
B10 O5 1.501165 1_555
B11 O27 1.451298 1_555
B11 O3 1.478615 1_555
B11 O9 1.501165 1_555
B11 O4 1.501165 1_555
B12 O20 1.445331 1_555
B12 O0 1.462755 1_555
B12 O18 1.539507 1_555
B12 O15 1.539507 1_555
B13 O21 1.445331 1_555
B13 O1 1.462755 1_555
B13 O19 1.539507 1_555
B13 O14 1.539507 1_555
B14 O22 1.445331 1_555
B14 O2 1.462755 1_555
B14 O13 1.539507 1_555
B14 O16 1.539507 1_555
B15 O23 1.445331 1_555
B15 O3 1.462755 1_555
B15 O12 1.539507 1_555
B15 O17 1.539507 1_555
Br0 Na0 2.975454 1_655
Br1 Na1 2.975454 1_555
