# generated using pymatgen
data_MgSc4(FeO3)4
_symmetry_space_group_name_H-M   'P 1'
_cell_length_a   5.14896942
_cell_length_b   5.45294588
_cell_length_c   8.60938656
_cell_angle_alpha   88.68883341
_cell_angle_beta   92.70574909
_cell_angle_gamma   88.58149408
_symmetry_Int_Tables_number   1
_chemical_formula_structural   MgSc4(FeO3)4
_chemical_formula_sum   'Mg1 Sc4 Fe4 O12'
_cell_volume   241.31268361
_cell_formula_units_Z   1
loop_
 _symmetry_equiv_pos_site_id
 _symmetry_equiv_pos_as_xyz
  1  'x, y, z'
loop_
 _atom_site_type_symbol
 _atom_site_label
 _atom_site_symmetry_multiplicity
 _atom_site_fract_x
 _atom_site_fract_y
 _atom_site_fract_z
 _atom_site_occupancy
  Mg  Mg0  1  0.40324700  0.14870600  0.12128700  1
  Sc  Sc0  1  0.05660300  0.92424300  0.74391400  1
  Sc  Sc1  1  0.44813900  0.42197700  0.75475400  1
  Sc  Sc2  1  0.54415400  0.60977900  0.26413000  1
  Sc  Sc3  1  0.92196900  0.08125600  0.27360900  1
  Fe  Fe0  1  0.98503900  0.49388000  0.99600100  1
  Fe  Fe1  1  0.03701700  0.50521500  0.47137500  1
  Fe  Fe2  1  0.58706900  0.88063700  0.89488500  1
  Fe  Fe3  1  0.49617200  0.01340600  0.50831000  1
  O  O0  1  0.18559600  0.41893500  0.26336400  1
  O  O1  1  0.20274400  0.21725400  0.58731900  1
  O  O2  1  0.23504800  0.16425800  0.90914000  1
  O  O3  1  0.29101100  0.70873300  0.59266200  1
  O  O4  1  0.27471200  0.66906600  0.90430900  1
  O  O5  1  0.29995400  0.93504200  0.29751500  1
  O  O6  1  0.68111900  0.09327000  0.71518000  1
  O  O7  1  0.70069600  0.35928200  0.11352700  1
  O  O8  1  0.70969500  0.30938700  0.41815100  1
  O  O9  1  0.71580100  0.87186000  0.11571200  1
  O  O10  1  0.79328800  0.79985200  0.42594600  1
  O  O11  1  0.79342900  0.61146300  0.77891000  1
loop_
_geom_bond_atom_site_label_1
_geom_bond_atom_site_label_2
_geom_bond_distance
_geom_bond_site_symmetry_2
Mg0 O7 1.939548 1_555
Mg0 O2 1.983207 1_554
Mg0 O5 1.992041 1_545
Mg0 O9 2.182097 1_545
Mg0 O0 2.248024 1_555
Fe0 O7 1.965979 1_556
Fe0 O4 1.976753 1_655
Fe0 O11 2.148826 1_555
Fe0 O2 2.341982 1_655
Fe0 O0 2.498693 1_656
Fe0 O9 2.706074 1_556
Fe1 O1 1.992919 1_555
Fe1 O3 2.007058 1_555
Fe1 O10 2.033285 1_455
Fe1 O0 2.040550 1_555
Fe1 O8 2.056529 1_455
Fe2 O9 1.982785 1_556
Fe2 O6 1.997250 1_565
Fe2 O4 2.006030 1_555
Fe2 O11 2.090544 1_555
Fe2 O2 2.362871 1_565
Fe3 O1 2.007348 1_555
Fe3 O6 2.040698 1_555
Fe3 O10 2.061870 1_545
Fe3 O5 2.093001 1_545
Fe3 O3 2.123098 1_545
Fe3 O8 2.127727 1_555
O0 Sc2 2.141443 1_555
O0 Sc3 2.317004 1_455
O1 Sc1 2.211834 1_555
O1 Sc0 2.234599 1_545
O2 Sc0 2.145220 1_545
O2 Sc1 2.252560 1_555
O3 Sc0 2.163712 1_555
O3 Sc1 2.185856 1_555
O4 Sc1 2.097383 1_555
O4 Sc0 2.189192 1_555
O5 Sc3 2.084157 1_465
O5 Sc2 2.180930 1_555
O6 Sc0 2.122444 1_645
O6 Sc1 2.174395 1_555
O7 Sc2 2.078913 1_555
O7 Sc3 2.273010 1_555
O8 Sc3 2.103010 1_555
O8 Sc2 2.211955 1_555
O9 Sc3 2.067225 1_565
O9 Sc2 2.131151 1_555
O10 Sc3 2.134015 1_565
O10 Sc2 2.150300 1_555
O11 Sc1 2.082698 1_555
O11 Sc0 2.228327 1_655
