# generated using pymatgen
data_DyAsPt
_symmetry_space_group_name_H-M   'P 1'
_cell_length_a   4.26004050
_cell_length_b   4.26004050
_cell_length_c   15.32744153
_cell_angle_alpha   90.00000000
_cell_angle_beta   90.00000000
_cell_angle_gamma   120.00001466
_symmetry_Int_Tables_number   1
_chemical_formula_structural   DyAsPt
_chemical_formula_sum   'Dy4 As4 Pt4'
_cell_volume   240.89494808
_cell_formula_units_Z   4
loop_
 _symmetry_equiv_pos_site_id
 _symmetry_equiv_pos_as_xyz
  1  'x, y, z'
loop_
 _atom_site_type_symbol
 _atom_site_label
 _atom_site_symmetry_multiplicity
 _atom_site_fract_x
 _atom_site_fract_y
 _atom_site_fract_z
 _atom_site_occupancy
  Dy  Dy0  1  0.00000000  0.00000000  0.50000000  1
  Dy  Dy1  1  0.00000000  0.00000000  0.00000000  1
  Dy  Dy2  1  0.00000000  0.00000000  0.25000000  1
  Dy  Dy3  1  0.00000000  0.00000000  0.75000000  1
  As  As0  1  0.33333300  0.66666700  0.88373489  1
  As  As1  1  0.66666700  0.33333300  0.11626511  1
  As  As2  1  0.66666700  0.33333300  0.38373489  1
  As  As3  1  0.33333300  0.66666700  0.61626511  1
  Pt  Pt0  1  0.33333300  0.66666700  0.36458442  1
  Pt  Pt1  1  0.66666700  0.33333300  0.63541558  1
  Pt  Pt2  1  0.66666700  0.33333300  0.86458442  1
  Pt  Pt3  1  0.33333300  0.66666700  0.13541558  1
loop_
_geom_bond_atom_site_label_1
_geom_bond_atom_site_label_2
_geom_bond_distance
_geom_bond_site_symmetry_2
Dy0 Pt1 3.218278 1_455
Dy0 Pt0 3.218278 1_545
Dy0 Pt0 3.218280 1_445
Dy0 Pt1 3.218280 1_555
Dy0 Pt1 3.218280 1_445
Dy0 Pt0 3.218280 1_555
Dy1 Pt2 3.218278 1_454
Dy1 Pt3 3.218278 1_545
Dy1 Pt3 3.218280 1_445
Dy1 Pt2 3.218280 1_554
Dy1 Pt2 3.218280 1_444
Dy1 Pt3 3.218280 1_555
Dy2 Pt0 3.022225 1_545
Dy2 Pt3 3.022225 1_545
Dy2 Pt3 3.022228 1_445
Dy2 Pt3 3.022228 1_555
Dy2 Pt0 3.022228 1_555
Dy2 Pt0 3.022228 1_445
Dy3 Pt1 3.022225 1_455
Dy3 Pt2 3.022225 1_455
Dy3 Pt1 3.022228 1_445
Dy3 Pt2 3.022228 1_555
Dy3 Pt2 3.022228 1_445
Dy3 Pt1 3.022228 1_555
As0 Pt2 2.476986 1_455
As0 Pt2 2.476986 1_565
As0 Pt2 2.476994 1_555
As0 Dy1 3.037268 1_566
As0 Dy1 3.037270 1_556
As0 Dy1 3.037270 1_666
As0 Dy3 3.201725 1_565
As0 Dy3 3.201727 1_555
As0 Dy3 3.201727 1_665
As1 Pt3 2.476986 1_545
As1 Pt3 2.476986 1_655
As1 Pt3 2.476994 1_555
As1 Dy1 3.037268 1_655
As1 Dy1 3.037270 1_665
As1 Dy1 3.037270 1_555
As1 Dy2 3.201725 1_655
As1 Dy2 3.201727 1_665
As1 Dy2 3.201727 1_555
As2 Pt0 2.476986 1_655
As2 Pt0 2.476986 1_545
As2 Pt0 2.476994 1_555
As2 Dy0 3.037268 1_655
As2 Dy0 3.037270 1_555
As2 Dy0 3.037270 1_665
As2 Dy2 3.201725 1_655
As2 Dy2 3.201727 1_665
As2 Dy2 3.201727 1_555
As3 Pt1 2.476986 1_455
As3 Pt1 2.476986 1_565
As3 Pt1 2.476994 1_555
As3 Dy0 3.037268 1_565
As3 Dy0 3.037270 1_665
As3 Dy0 3.037270 1_555
As3 Dy3 3.201725 1_565
As3 Dy3 3.201727 1_555
As3 Dy3 3.201727 1_665
