# generated using pymatgen
data_NbSiGe
_symmetry_space_group_name_H-M   'P 1'
_cell_length_a   4.91592617
_cell_length_b   4.91592617
_cell_length_c   6.72432400
_cell_angle_alpha   90.00000000
_cell_angle_beta   90.00000000
_cell_angle_gamma   120.00000234
_symmetry_Int_Tables_number   1
_chemical_formula_structural   NbSiGe
_chemical_formula_sum   'Nb3 Si3 Ge3'
_cell_volume   140.73105933
_cell_formula_units_Z   3
loop_
 _symmetry_equiv_pos_site_id
 _symmetry_equiv_pos_as_xyz
  1  'x, y, z'
loop_
 _atom_site_type_symbol
 _atom_site_label
 _atom_site_symmetry_multiplicity
 _atom_site_fract_x
 _atom_site_fract_y
 _atom_site_fract_z
 _atom_site_occupancy
  Nb  Nb0  1  0.00373400  0.50186700  0.50000000  1
  Nb  Nb1  1  0.49813300  0.50186700  0.16666700  1
  Nb  Nb2  1  0.49813300  0.99626600  0.83333300  1
  Si  Si0  1  0.67536200  0.83768100  0.50000000  1
  Si  Si1  1  0.16231900  0.83768100  0.16666700  1
  Si  Si2  1  0.16231900  0.32463800  0.83333300  1
  Ge  Ge0  1  0.32325600  0.16162800  0.50000000  1
  Ge  Ge1  1  0.83837200  0.16162800  0.16666700  1
  Ge  Ge2  1  0.83837200  0.67674400  0.83333300  1
loop_
_geom_bond_atom_site_label_1
_geom_bond_atom_site_label_2
_geom_bond_distance
_geom_bond_site_symmetry_2
Nb0 Si1 2.658965 1_555
Nb0 Si2 2.658965 1_555
Nb0 Si0 2.827709 1_445
Nb0 Si0 2.827710 1_455
Nb0 Si0 2.859333 1_555
Nb1 Si0 2.658965 1_555
Nb1 Si2 2.658971 1_554
Nb1 Si1 2.827709 1_545
Nb1 Si1 2.827709 1_655
Nb1 Si1 2.859333 1_555
Nb2 Si0 2.658965 1_555
Nb2 Si1 2.658971 1_556
Nb2 Si2 2.827709 1_665
Nb2 Si2 2.827710 1_565
Nb2 Si2 2.859333 1_555
Ge0 Si1 2.631752 1_545
Ge0 Si2 2.631752 1_555
Ge0 Nb1 2.668851 1_555
Ge0 Nb2 2.668851 1_545
Ge0 Si0 2.758290 1_445
Ge0 Nb0 2.809273 1_545
Ge0 Nb0 2.809273 1_555
Ge0 Si0 2.879004 1_555
Ge0 Si0 2.879004 1_545
Ge0 Nb0 2.897010 1_655
Ge1 Si0 2.631752 1_545
Ge1 Si2 2.631757 1_654
Ge1 Nb0 2.668851 1_655
Ge1 Nb2 2.668856 1_544
Ge1 Si1 2.758290 1_645
Ge1 Nb1 2.809273 1_655
Ge1 Nb1 2.809273 1_545
Ge1 Si1 2.879004 1_545
Ge1 Si1 2.879004 1_655
Ge1 Nb1 2.897011 1_555
Ge2 Si0 2.631752 1_555
Ge2 Si1 2.631757 1_656
Ge2 Nb0 2.668851 1_655
Ge2 Nb1 2.668856 1_556
Ge2 Si2 2.758290 1_665
Ge2 Nb2 2.809273 1_655
Ge2 Nb2 2.809273 1_555
Ge2 Si2 2.879004 1_555
Ge2 Si2 2.879004 1_655
Ge2 Nb2 2.897010 1_545
