# generated using pymatgen
data_Sm8Ni18P11
_symmetry_space_group_name_H-M   'P 1'
_cell_length_a   18.13731428
_cell_length_b   18.13731428
_cell_length_c   3.88853700
_cell_angle_alpha   90.00000000
_cell_angle_beta   90.00000000
_cell_angle_gamma   120.00000101
_symmetry_Int_Tables_number   1
_chemical_formula_structural   Sm8Ni18P11
_chemical_formula_sum   'Sm16 Ni36 P22'
_cell_volume   1107.80372132
_cell_formula_units_Z   2
loop_
 _symmetry_equiv_pos_site_id
 _symmetry_equiv_pos_as_xyz
  1  'x, y, z'
loop_
 _atom_site_type_symbol
 _atom_site_label
 _atom_site_symmetry_multiplicity
 _atom_site_fract_x
 _atom_site_fract_y
 _atom_site_fract_z
 _atom_site_occupancy
  Sm  Sm0  1  0.47710900  0.52289100  0.50000000  1
  Sm  Sm1  1  0.47710900  0.95421700  0.50000000  1
  Sm  Sm2  1  0.04578300  0.52289100  0.50000000  1
  Sm  Sm3  1  0.26023000  0.73977000  0.50000000  1
  Sm  Sm4  1  0.26023000  0.52046000  0.50000000  1
  Sm  Sm5  1  0.47954000  0.73977000  0.50000000  1
  Sm  Sm6  1  0.77945900  0.22054100  0.00000000  1
  Sm  Sm7  1  0.77945900  0.55891900  0.00000000  1
  Sm  Sm8  1  0.44108100  0.22054100  0.00000000  1
  Sm  Sm9  1  0.00128000  0.21781700  0.00000000  1
  Sm  Sm10  1  0.78218300  0.78346400  0.00000000  1
  Sm  Sm11  1  0.78218300  0.99872000  0.00000000  1
  Sm  Sm12  1  0.21653600  0.99872000  0.00000000  1
  Sm  Sm13  1  0.21653600  0.21781700  0.00000000  1
  Sm  Sm14  1  0.00128000  0.78346400  0.00000000  1
  Sm  Sm15  1  0.00000000  0.00000000  0.00000000  1
  Ni  Ni0  1  0.71046800  0.28953200  0.50000000  1
  Ni  Ni1  1  0.71046800  0.42093600  0.50000000  1
  Ni  Ni2  1  0.57906400  0.28953200  0.50000000  1
  Ni  Ni3  1  0.07607500  0.36984200  0.50000000  1
  Ni  Ni4  1  0.63015800  0.70623300  0.50000000  1
  Ni  Ni5  1  0.63015800  0.92392500  0.50000000  1
  Ni  Ni6  1  0.29376700  0.92392500  0.50000000  1
  Ni  Ni7  1  0.29376700  0.36984200  0.50000000  1
  Ni  Ni8  1  0.07607500  0.70623300  0.50000000  1
  Ni  Ni9  1  0.40006100  0.03006800  0.00000000  1
  Ni  Ni10  1  0.96993200  0.36999300  0.00000000  1
  Ni  Ni11  1  0.96993200  0.59993900  0.00000000  1
  Ni  Ni12  1  0.63000700  0.59993900  0.00000000  1
  Ni  Ni13  1  0.63000700  0.03006800  0.00000000  1
  Ni  Ni14  1  0.40006100  0.36999300  0.00000000  1
  Ni  Ni15  1  0.18417500  0.81582500  0.00000000  1
  Ni  Ni16  1  0.18417500  0.36834900  0.00000000  1
  Ni  Ni17  1  0.63165100  0.81582500  0.00000000  1
  Ni  Ni18  1  0.40576500  0.59423500  0.00000000  1
  Ni  Ni19  1  0.40576500  0.81153000  0.00000000  1
  Ni  Ni20  1  0.18847000  0.59423500  0.00000000  1
  Ni  Ni21  1  0.07290700  0.92709300  0.50000000  1
  Ni  Ni22  1  0.07290700  0.14581300  0.50000000  1
  Ni  Ni23  1  0.85418700  0.92709300  0.50000000  1
  Ni  Ni24  1  0.49776200  0.12933600  0.50000000  1
  Ni  Ni25  1  0.87066400  0.36842600  0.50000000  1
  Ni  Ni26  1  0.87066400  0.50223800  0.50000000  1
  Ni  Ni27  1  0.63157400  0.50223800  0.50000000  1
  Ni  Ni28  1  0.63157400  0.12933600  0.50000000  1
  Ni  Ni29  1  0.49776200  0.36842600  0.50000000  1
  Ni  Ni30  1  0.61608400  0.38391600  0.00000000  1
  Ni  Ni31  1  0.61608400  0.23216800  0.00000000  1
  Ni  Ni32  1  0.76783200  0.38391600  0.00000000  1
  Ni  Ni33  1  0.85557900  0.14442100  0.50000000  1
  Ni  Ni34  1  0.85557900  0.71115800  0.50000000  1
  Ni  Ni35  1  0.28884200  0.14442100  0.50000000  1
  P  P0  1  0.33333300  0.66666700  0.00000000  1
  P  P1  1  0.14479500  0.85520500  0.50000000  1
  P  P2  1  0.14479500  0.28959000  0.50000000  1
  P  P3  1  0.71041000  0.85520500  0.50000000  1
  P  P4  1  0.11810600  0.45053700  0.00000000  1
  P  P5  1  0.54946300  0.66756900  0.00000000  1
  P  P6  1  0.54946300  0.88189400  0.00000000  1
  P  P7  1  0.33243100  0.88189400  0.00000000  1
  P  P8  1  0.33243100  0.45053700  0.00000000  1
  P  P9  1  0.11810600  0.66756900  0.00000000  1
  P  P10  1  0.54723200  0.45276800  0.00000000  1
  P  P11  1  0.54723200  0.09446300  0.00000000  1
  P  P12  1  0.90553700  0.45276800  0.00000000  1
  P  P13  1  0.35781800  0.07174700  0.50000000  1
  P  P14  1  0.92825300  0.28607100  0.50000000  1
  P  P15  1  0.92825300  0.64218200  0.50000000  1
  P  P16  1  0.71392900  0.64218200  0.50000000  1
  P  P17  1  0.71392900  0.07174700  0.50000000  1
  P  P18  1  0.35781800  0.28607100  0.50000000  1
  P  P19  1  0.92810000  0.07190000  0.50000000  1
  P  P20  1  0.92810000  0.85619900  0.50000000  1
  P  P21  1  0.14380100  0.07190000  0.50000000  1
loop_
_geom_bond_atom_site_label_1
_geom_bond_atom_site_label_2
_geom_bond_distance
_geom_bond_site_symmetry_2
Ni0 Ni1 2.383316 1_555
Ni0 Ni2 2.383316 1_555
Ni0 Ni32 2.451958 1_556
Ni0 Ni32 2.451958 1_555
Ni0 Ni31 2.451958 1_556
Ni0 Ni31 2.451958 1_555
Ni0 Ni28 2.516353 1_555
Ni0 Ni25 2.516353 1_555
Ni0 Sm6 2.911618 1_555
Ni0 Sm6 2.911618 1_556
Ni1 Ni2 2.383316 1_555
Ni1 Ni30 2.451958 1_555
Ni1 Ni30 2.451958 1_556
Ni1 Ni32 2.451958 1_555
Ni1 Ni32 2.451958 1_556
Ni1 Ni26 2.516353 1_555
Ni1 Ni27 2.516353 1_555
Ni1 Sm7 2.911630 1_555
Ni1 Sm7 2.911630 1_556
Ni2 Ni30 2.451958 1_556
Ni2 Ni30 2.451958 1_555
Ni2 Ni31 2.451958 1_556
Ni2 Ni31 2.451958 1_555
Ni2 Ni24 2.516353 1_555
Ni2 Ni29 2.516353 1_555
Ni2 Sm8 2.911630 1_556
Ni2 Sm8 2.911630 1_555
Ni3 P4 2.321139 1_555
Ni3 P4 2.321139 1_556
Ni3 P14 2.328772 1_455
Ni3 P2 2.342295 1_555
Ni3 Sm9 3.079415 1_556
Ni3 Sm9 3.079415 1_555
Ni3 Sm4 3.081304 1_555
Ni3 Sm2 3.087489 1_555
Ni4 P5 2.321139 1_556
Ni4 P5 2.321139 1_555
Ni4 P16 2.328772 1_555
Ni4 P3 2.342295 1_555
Ni4 Sm10 3.079416 1_556
Ni4 Sm10 3.079416 1_555
Ni4 Sm5 3.081304 1_555
Ni4 Sm0 3.087500 1_555
Ni5 P6 2.321139 1_555
Ni5 P6 2.321139 1_556
Ni5 P17 2.328772 1_565
Ni5 P3 2.342295 1_555
Ni5 Sm11 3.079415 1_555
Ni5 Sm11 3.079415 1_556
Ni5 Sm5 3.081304 1_555
Ni5 Sm1 3.087489 1_555
Ni6 P7 2.321139 1_555
Ni6 P7 2.321139 1_556
Ni6 P13 2.328772 1_565
Ni6 P1 2.342295 1_555
Ni6 Sm12 3.079428 1_556
Ni6 Sm12 3.079428 1_555
Ni6 Sm3 3.081304 1_555
Ni6 Sm1 3.087507 1_555
Ni7 P8 2.321139 1_555
Ni7 P8 2.321139 1_556
Ni7 P18 2.328772 1_555
Ni7 P2 2.342295 1_555
Ni7 Sm13 3.079416 1_556
Ni7 Sm13 3.079416 1_555
Ni7 Sm4 3.081304 1_555
Ni7 Sm0 3.087500 1_555
Ni8 P9 2.321139 1_556
Ni8 P9 2.321139 1_555
Ni8 P15 2.328772 1_455
Ni8 P1 2.342295 1_555
Ni8 Sm14 3.079428 1_555
Ni8 Sm14 3.079428 1_556
Ni8 Sm3 3.081304 1_555
Ni8 Sm2 3.087507 1_555
Ni9 P11 2.317672 1_555
Ni9 P7 2.330369 1_545
Ni9 P13 2.349009 1_555
Ni9 P13 2.349009 1_554
Ni9 Sm12 3.083929 1_545
Ni9 Sm1 3.090013 1_544
Ni9 Sm1 3.090013 1_545
Ni9 Sm8 3.149288 1_555
Ni10 P12 2.317656 1_555
Ni10 P4 2.330369 1_655
Ni10 P14 2.349009 1_555
Ni10 P14 2.349009 1_554
Ni10 Sm9 3.083911 1_655
Ni10 Sm2 3.090001 1_654
Ni10 Sm2 3.090001 1_655
Ni10 Sm6 3.149282 1_555
Ni11 P12 2.317672 1_555
Ni11 P9 2.330369 1_655
Ni11 P15 2.349009 1_555
Ni11 P15 2.349009 1_554
Ni11 Sm14 3.083929 1_655
Ni11 Sm2 3.090013 1_654
Ni11 Sm2 3.090013 1_655
Ni11 Sm7 3.149288 1_555
Ni12 P10 2.317671 1_555
Ni12 P5 2.330369 1_555
Ni12 P16 2.349009 1_554
Ni12 P16 2.349009 1_555
Ni12 Sm10 3.083923 1_555
Ni12 Sm0 3.090001 1_555
Ni12 Sm0 3.090001 1_554
Ni12 Sm7 3.149270 1_555
Ni13 P11 2.317656 1_555
Ni13 P6 2.330369 1_545
Ni13 P17 2.349009 1_555
Ni13 P17 2.349009 1_554
Ni13 Sm11 3.083911 1_545
Ni13 Sm1 3.090001 1_544
Ni13 Sm1 3.090001 1_545
Ni13 Sm6 3.149282 1_555
Ni14 P10 2.317671 1_555
Ni14 P8 2.330369 1_555
Ni14 P18 2.349009 1_554
Ni14 P18 2.349009 1_555
Ni14 Sm13 3.083923 1_555
Ni14 Sm0 3.090001 1_554
Ni14 Sm0 3.090001 1_555
Ni14 Sm8 3.149270 1_555
Ni15 P1 2.304480 1_554
Ni15 P1 2.304480 1_555
Ni15 P9 2.333295 1_555
Ni15 P7 2.333295 1_555
Ni15 Sm14 3.066180 1_555
Ni15 Sm12 3.066180 1_555
Ni15 Sm3 3.080372 1_554
Ni15 Sm3 3.080372 1_555
Ni16 P2 2.304472 1_555
Ni16 P2 2.304472 1_554
Ni16 P8 2.333297 1_555
Ni16 P4 2.333312 1_555
Ni16 Sm13 3.066144 1_555
Ni16 Sm9 3.066167 1_555
Ni16 Sm4 3.080384 1_555
Ni16 Sm4 3.080384 1_554
Ni17 P3 2.304472 1_554
Ni17 P3 2.304472 1_555
Ni17 P5 2.333297 1_555
Ni17 P6 2.333312 1_555
Ni17 Sm10 3.066144 1_555
Ni17 Sm11 3.066167 1_555
Ni17 Sm5 3.080384 1_555
Ni17 Sm5 3.080384 1_554
Ni18 P5 2.257279 1_555
Ni18 P8 2.257279 1_555
Ni18 P0 2.275433 1_555
Ni18 Sm0 2.967052 1_554
Ni18 Sm0 2.967052 1_555
Ni18 Sm4 3.001031 1_555
Ni18 Sm4 3.001031 1_554
Ni18 Sm5 3.001031 1_555
Ni18 Sm5 3.001031 1_554
Ni19 P6 2.257279 1_555
Ni19 P7 2.257279 1_555
Ni19 P0 2.275417 1_555
Ni19 Sm1 2.967040 1_555
Ni19 Sm1 2.967040 1_554
Ni19 Sm3 3.001031 1_554
Ni19 Sm3 3.001031 1_555
Ni19 Sm5 3.001031 1_554
Ni19 Sm5 3.001031 1_555
Ni20 P4 2.257279 1_555
Ni20 P9 2.257279 1_555
Ni20 P0 2.275417 1_555
Ni20 Sm2 2.967040 1_555
Ni20 Sm2 2.967040 1_554
Ni20 Sm3 3.001031 1_554
Ni20 Sm3 3.001031 1_555
Ni20 Sm4 3.001031 1_555
Ni20 Sm4 3.001031 1_554
Ni21 P1 2.258344 1_555
Ni21 P20 2.274703 1_455
Ni21 P21 2.274703 1_565
Ni21 Sm12 2.978235 1_555
Ni21 Sm12 2.978235 1_556
Ni21 Sm14 2.978235 1_555
Ni21 Sm14 2.978235 1_556
Ni21 Sm15 3.004315 1_566
Ni21 Sm15 3.004315 1_565
Ni22 P2 2.258359 1_555
Ni22 P19 2.274703 1_455
Ni22 P21 2.274703 1_555
Ni22 Sm13 2.978235 1_556
Ni22 Sm13 2.978235 1_555
Ni22 Sm9 2.978259 1_556
Ni22 Sm9 2.978259 1_555
Ni22 Sm15 3.004303 1_556
Ni22 Sm15 3.004303 1_555
Ni23 P3 2.258359 1_555
Ni23 P19 2.274703 1_565
Ni23 P20 2.274703 1_555
Ni23 Sm10 2.978235 1_556
Ni23 Sm10 2.978235 1_555
Ni23 Sm11 2.978259 1_555
Ni23 Sm11 2.978259 1_556
Ni23 Sm15 3.004303 1_666
Ni23 Sm15 3.004303 1_665
Ni24 P13 2.209597 1_555
Ni24 P11 2.356442 1_556
Ni24 P11 2.356442 1_555
Ni24 Sm1 3.006447 1_545
Ni24 Sm8 3.045336 1_555
Ni24 Sm8 3.045336 1_556
Ni25 P14 2.209597 1_555
Ni25 P12 2.356432 1_555
Ni25 P12 2.356432 1_556
Ni25 Sm2 3.006439 1_655
Ni25 Sm6 3.045325 1_555
Ni25 Sm6 3.045325 1_556
Ni26 P15 2.209597 1_555
Ni26 P12 2.356442 1_555
Ni26 P12 2.356442 1_556
Ni26 Sm2 3.006447 1_655
Ni26 Sm7 3.045336 1_556
Ni26 Sm7 3.045336 1_555
Ni27 P16 2.209597 1_555
Ni27 P10 2.356433 1_555
Ni27 P10 2.356433 1_556
Ni27 Sm0 3.006429 1_555
Ni27 Sm7 3.045323 1_555
Ni27 Sm7 3.045323 1_556
Ni28 P17 2.209597 1_555
Ni28 P11 2.356432 1_556
Ni28 P11 2.356432 1_555
Ni28 Sm1 3.006439 1_545
Ni28 Sm6 3.045325 1_556
Ni28 Sm6 3.045325 1_555
Ni29 P18 2.209597 1_555
Ni29 P10 2.356433 1_555
Ni29 P10 2.356433 1_556
Ni29 Sm0 3.006429 1_555
Ni29 Sm8 3.045323 1_555
Ni29 Sm8 3.045323 1_556
Ni30 P10 2.162968 1_555
Ni30 Sm7 3.074065 1_555
Ni30 Sm8 3.074065 1_555
Ni31 P11 2.162984 1_555
Ni31 Sm6 3.074055 1_555
Ni31 Sm8 3.074073 1_555
Ni32 P12 2.162984 1_555
Ni32 Sm6 3.074055 1_555
Ni32 Sm7 3.074073 1_555
Ni33 P14 2.225202 1_555
Ni33 P17 2.225202 1_555
Ni33 P19 2.278229 1_555
Ni33 Sm9 3.002978 1_656
Ni33 Sm11 3.002978 1_546
Ni33 Sm9 3.002978 1_655
Ni33 Sm11 3.002978 1_545
Ni33 Sm6 3.081956 1_555
Ni33 Sm6 3.081956 1_556
Ni34 P16 2.225202 1_555
Ni34 P15 2.225202 1_555
Ni34 P20 2.278213 1_555
Ni34 Sm14 3.002978 1_656
Ni34 Sm14 3.002978 1_655
Ni34 Sm10 3.002990 1_555
Ni34 Sm10 3.002990 1_556
Ni34 Sm7 3.081944 1_555
Ni34 Sm7 3.081944 1_556
Ni35 P18 2.225202 1_555
Ni35 P13 2.225202 1_555
Ni35 P21 2.278213 1_555
Ni35 Sm12 3.002978 1_546
Ni35 Sm12 3.002978 1_545
Ni35 Sm13 3.002990 1_556
Ni35 Sm13 3.002990 1_555
Ni35 Sm8 3.081944 1_555
Ni35 Sm8 3.081944 1_556
P0 Sm3 3.009011 1_554
P0 Sm3 3.009011 1_555
P0 Sm4 3.009023 1_555
P0 Sm4 3.009023 1_554
P0 Sm5 3.009023 1_554
P0 Sm5 3.009023 1_555
P1 Sm14 2.976877 1_556
P1 Sm14 2.976877 1_555
P1 Sm12 2.976877 1_555
P1 Sm12 2.976877 1_556
P2 Sm13 2.976865 1_556
P2 Sm13 2.976865 1_555
P2 Sm9 2.976877 1_556
P2 Sm9 2.976877 1_555
P3 Sm10 2.976865 1_556
P3 Sm10 2.976865 1_555
P3 Sm11 2.976877 1_555
P3 Sm11 2.976877 1_556
P4 Sm4 2.960438 1_555
P4 Sm4 2.960438 1_554
P4 Sm2 2.990722 1_554
P4 Sm2 2.990722 1_555
P5 Sm5 2.960438 1_554
P5 Sm5 2.960438 1_555
P5 Sm0 2.990734 1_555
P5 Sm0 2.990734 1_554
P6 Sm5 2.960438 1_554
P6 Sm5 2.960438 1_555
P6 Sm1 2.990722 1_555
P6 Sm1 2.990722 1_554
P7 Sm3 2.960438 1_554
P7 Sm3 2.960438 1_555
P7 Sm1 2.990734 1_555
P7 Sm1 2.990734 1_554
P8 Sm4 2.960438 1_555
P8 Sm4 2.960438 1_554
P8 Sm0 2.990734 1_554
P8 Sm0 2.990734 1_555
P9 Sm3 2.960438 1_554
P9 Sm3 2.960438 1_555
P9 Sm2 2.990734 1_555
P9 Sm2 2.990734 1_554
P10 Sm0 2.938185 1_554
P10 Sm0 2.938185 1_555
P11 Sm1 2.938185 1_545
P11 Sm1 2.938185 1_544
P12 Sm2 2.938185 1_654
P12 Sm2 2.938185 1_655
P13 Sm12 2.950723 1_546
P13 Sm12 2.950723 1_545
P13 Sm8 3.044400 1_555
P13 Sm8 3.044400 1_556
P14 Sm9 2.950711 1_655
P14 Sm9 2.950711 1_656
P14 Sm6 3.044401 1_555
P14 Sm6 3.044401 1_556
P15 Sm14 2.950723 1_655
P15 Sm14 2.950723 1_656
P15 Sm7 3.044400 1_555
P15 Sm7 3.044400 1_556
P16 Sm10 2.950723 1_556
P16 Sm10 2.950723 1_555
P16 Sm7 3.044388 1_556
P16 Sm7 3.044388 1_555
P17 Sm11 2.950711 1_546
P17 Sm11 2.950711 1_545
P17 Sm6 3.044401 1_555
P17 Sm6 3.044401 1_556
P18 Sm13 2.950723 1_556
P18 Sm13 2.950723 1_555
P18 Sm8 3.044388 1_555
P18 Sm8 3.044388 1_556
P19 Sm15 2.980268 1_656
P19 Sm15 2.980268 1_655
P19 Sm9 3.005551 1_655
P19 Sm9 3.005551 1_656
P19 Sm11 3.005551 1_546
P19 Sm11 3.005551 1_545
P20 Sm15 2.980280 1_666
P20 Sm15 2.980280 1_665
P20 Sm14 3.005527 1_655
P20 Sm14 3.005527 1_656
P20 Sm10 3.005551 1_556
P20 Sm10 3.005551 1_555
P21 Sm15 2.980280 1_556
P21 Sm15 2.980280 1_555
P21 Sm12 3.005527 1_545
P21 Sm12 3.005527 1_546
P21 Sm13 3.005551 1_556
P21 Sm13 3.005551 1_555
