# generated using pymatgen
data_TbCo3
_symmetry_space_group_name_H-M   'P 1'
_cell_length_a   5.22937196
_cell_length_b   4.99568662
_cell_length_c   8.44917719
_cell_angle_alpha   73.33141292
_cell_angle_beta   72.38212999
_cell_angle_gamma   57.79199734
_symmetry_Int_Tables_number   1
_chemical_formula_structural   TbCo3
_chemical_formula_sum   'Tb3 Co9'
_cell_volume   175.83371593
_cell_formula_units_Z   3
loop_
 _symmetry_equiv_pos_site_id
 _symmetry_equiv_pos_as_xyz
  1  'x, y, z'
loop_
 _atom_site_type_symbol
 _atom_site_label
 _atom_site_symmetry_multiplicity
 _atom_site_fract_x
 _atom_site_fract_y
 _atom_site_fract_z
 _atom_site_occupancy
  Tb  Tb0  1  0.14418856  0.13576543  0.57598974  1
  Tb  Tb1  1  0.85581144  0.86423457  0.42401026  1
  Tb  Tb2  1  0.00000000  -0.00000000  0.00000000  1
  Co  Co0  1  0.08511638  0.57695216  0.75694632  1
  Co  Co1  1  0.58127705  0.57775001  0.75741340  1
  Co  Co2  1  0.57819436  0.08883172  0.75583679  1
  Co  Co3  1  0.91488362  0.42304784  0.24305368  1
  Co  Co4  1  0.41872295  0.42224999  0.24258660  1
  Co  Co5  1  0.42180564  0.91116828  0.24416321  1
  Co  Co6  1  0.32862772  0.33181638  0.00965330  1
  Co  Co7  1  0.67137228  0.66818362  -0.00965330  1
  Co  Co8  1  0.50000000  0.50000000  0.50000000  1
loop_
_geom_bond_atom_site_label_1
_geom_bond_atom_site_label_2
_geom_bond_distance
_geom_bond_site_symmetry_2
Co0 Co7 2.378981 1_456
Co0 Co2 2.427115 1_555
Co0 Co6 2.482682 1_556
Co0 Co8 2.511281 1_555
Co0 Co2 2.518262 1_465
Co0 Co1 2.597933 1_555
Co0 Co1 2.631450 1_455
Co0 Tb0 2.865712 1_555
Co0 Tb0 2.900209 1_565
Co0 Tb1 3.049943 1_455
Co0 Tb2 3.132992 1_566
Co0 Tb2 3.184583 1_556
Co1 Co7 2.365955 1_556
Co1 Co2 2.454980 1_555
Co1 Co8 2.506396 1_555
Co1 Co6 2.514138 1_556
Co1 Co2 2.540872 1_565
Co1 Tb0 2.858653 1_655
Co1 Tb0 2.867495 1_565
Co1 Tb1 3.078003 1_555
Co1 Tb2 3.124792 1_566
Co1 Tb2 3.148372 1_656
Co2 Co7 2.384050 1_546
Co2 Co6 2.426152 1_556
Co2 Co8 2.480224 1_555
Co2 Tb0 2.971704 1_555
Co2 Tb1 2.971772 1_545
Co2 Tb0 2.989524 1_655
Co2 Tb2 3.241014 1_656
Co2 Tb2 3.274789 1_556
Co3 Co6 2.378981 1_655
Co3 Co5 2.427115 1_555
Co3 Co7 2.482682 1_555
Co3 Co8 2.511281 1_555
Co3 Co5 2.518262 1_645
Co3 Co4 2.597933 1_555
Co3 Co4 2.631450 1_655
Co3 Tb1 2.865712 1_555
Co3 Tb1 2.900209 1_545
Co3 Tb0 3.049943 1_655
Co3 Tb2 3.132992 1_655
Co3 Tb2 3.184583 1_665
Co4 Co6 2.365955 1_555
Co4 Co5 2.454980 1_555
Co4 Co8 2.506396 1_555
Co4 Co7 2.514138 1_555
Co4 Co5 2.540872 1_545
Co4 Tb1 2.858653 1_455
Co4 Tb1 2.867495 1_545
Co4 Tb0 3.078003 1_555
Co4 Tb2 3.124792 1_655
Co4 Tb2 3.148372 1_565
Co5 Co6 2.384050 1_565
Co5 Co7 2.426152 1_555
Co5 Co8 2.480224 1_555
Co5 Tb1 2.971704 1_555
Co5 Tb0 2.971772 1_565
Co5 Tb1 2.989524 1_455
Co5 Tb2 3.241014 1_565
Co5 Tb2 3.274789 1_665
Co6 Tb2 2.813553 1_565
Co6 Tb2 2.963271 1_655
Co6 Tb2 2.984434 1_555
Co7 Tb2 2.813553 1_655
Co7 Tb2 2.963271 1_565
Co7 Tb2 2.984434 1_665
Co8 Tb1 2.847612 1_545
Co8 Tb0 2.847612 1_565
Co8 Tb0 3.029224 1_655
Co8 Tb1 3.029224 1_455
Co8 Tb0 3.066106 1_555
Co8 Tb1 3.066106 1_555
