# generated using pymatgen
data_Ba2Na(FeAs)6
_symmetry_space_group_name_H-M   'P 1'
_cell_length_a   5.50215908
_cell_length_b   6.99761080
_cell_length_c   8.80283642
_cell_angle_alpha   112.20382030
_cell_angle_beta   71.78871961
_cell_angle_gamma   90.00000000
_symmetry_Int_Tables_number   1
_chemical_formula_structural   Ba2Na(FeAs)6
_chemical_formula_sum   'Ba2 Na1 Fe6 As6'
_cell_volume   295.37591905
_cell_formula_units_Z   1
loop_
 _symmetry_equiv_pos_site_id
 _symmetry_equiv_pos_as_xyz
  1  'x, y, z'
loop_
 _atom_site_type_symbol
 _atom_site_label
 _atom_site_symmetry_multiplicity
 _atom_site_fract_x
 _atom_site_fract_y
 _atom_site_fract_z
 _atom_site_occupancy
  Ba  Ba0  1  0.33800100  0.00032800  0.32399800  1
  Ba  Ba1  1  0.66199900  0.99967200  0.67600200  1
  Na  Na0  1  0.00000000  0.00000000  0.00000000  1
  Fe  Fe0  1  0.25126400  0.50000000  0.00000000  1
  Fe  Fe1  1  0.91663900  0.49900600  0.66661800  1
  Fe  Fe2  1  0.58325600  0.50099400  0.33338200  1
  Fe  Fe3  1  0.41674400  0.49900600  0.66661800  1
  Fe  Fe4  1  0.08336100  0.50099400  0.33338200  1
  Fe  Fe5  1  0.74873600  0.50000000  0.00000000  1
  As  As0  1  0.11658100  0.30123900  0.76683900  1
  As  As1  1  0.78312500  0.30443500  0.43374900  1
  As  As2  1  0.44906400  0.30108700  0.10187100  1
  As  As3  1  0.55093600  0.69891300  0.89812900  1
  As  As4  1  0.21687500  0.69556500  0.56625100  1
  As  As5  1  0.88341900  0.69876100  0.23316100  1
loop_
_geom_bond_atom_site_label_1
_geom_bond_atom_site_label_2
_geom_bond_distance
_geom_bond_site_symmetry_2
As0 Fe3 2.330913 1_555
As0 Fe1 2.330913 1_455
As0 Fe0 2.342942 1_556
As0 Fe5 2.342945 1_456
As0 Ba1 3.364992 1_545
As0 Ba1 3.364997 1_445
As0 Na0 3.393331 1_556
As0 Ba0 3.455723 1_555
As1 Fe2 2.325420 1_555
As1 Fe4 2.325420 1_655
As1 Fe3 2.329658 1_555
As1 Fe1 2.329665 1_555
As1 Ba0 3.374203 1_555
As1 Ba0 3.374208 1_655
As1 Na0 3.397855 1_655
As1 Ba1 3.476889 1_545
As2 Fe4 2.332614 1_555
As2 Fe2 2.332614 1_555
As2 Fe0 2.340827 1_555
As2 Fe5 2.340830 1_555
As2 Ba0 3.315052 1_555
As2 Ba1 3.339724 1_544
As2 Na0 3.362297 1_555
As2 Na0 3.362302 1_655
As3 Fe3 2.332614 1_555
As3 Fe1 2.332614 1_555
As3 Fe5 2.340827 1_556
As3 Fe0 2.340830 1_556
As3 Ba1 3.315052 1_555
As3 Ba0 3.339724 1_566
As3 Na0 3.362297 1_666
As3 Na0 3.362302 1_566
As4 Fe1 2.325420 1_455
As4 Fe3 2.325420 1_555
As4 Fe2 2.329658 1_555
As4 Fe4 2.329665 1_555
As4 Ba1 3.374203 1_555
As4 Ba1 3.374208 1_455
As4 Na0 3.397855 1_566
As4 Ba0 3.476889 1_565
As5 Fe2 2.330913 1_555
As5 Fe4 2.330913 1_655
As5 Fe5 2.342942 1_555
As5 Fe0 2.342945 1_655
As5 Ba0 3.364992 1_565
As5 Ba0 3.364997 1_665
As5 Na0 3.393331 1_665
As5 Ba1 3.455723 1_555
