# generated using pymatgen
data_Y2CuTe2(SO7)2
_symmetry_space_group_name_H-M   'P 1'
_cell_length_a   5.21942643
_cell_length_b   7.98835783
_cell_length_c   8.24716846
_cell_angle_alpha   62.22141911
_cell_angle_beta   74.22375467
_cell_angle_gamma   85.33951112
_symmetry_Int_Tables_number   1
_chemical_formula_structural   Y2CuTe2(SO7)2
_chemical_formula_sum   'Y2 Cu1 Te2 S2 O14'
_cell_volume   292.35650063
_cell_formula_units_Z   1
loop_
 _symmetry_equiv_pos_site_id
 _symmetry_equiv_pos_as_xyz
  1  'x, y, z'
loop_
 _atom_site_type_symbol
 _atom_site_label
 _atom_site_symmetry_multiplicity
 _atom_site_fract_x
 _atom_site_fract_y
 _atom_site_fract_z
 _atom_site_occupancy
  Y  Y0  1  0.92630700  0.74876900  0.98196600  1
  Y  Y1  1  0.07369300  0.25123100  0.01803400  1
  Cu  Cu0  1  0.00000000  0.00000000  0.50000000  1
  Te  Te0  1  0.48824200  0.72842800  0.65548700  1
  Te  Te1  1  0.51175800  0.27157200  0.34451300  1
  S  S0  1  0.25177700  0.74807000  0.24975700  1
  S  S1  1  0.74822300  0.25193000  0.75024300  1
  O  O0  1  0.13748100  0.58845600  0.24043500  1
  O  O1  1  0.86251900  0.41154400  0.75956500  1
  O  O2  1  0.14125900  0.74745900  0.43397100  1
  O  O3  1  0.85874100  0.25254100  0.56602900  1
  O  O4  1  0.54620700  0.73762400  0.21279500  1
  O  O5  1  0.45379300  0.26237600  0.78720500  1
  O  O6  1  0.17521000  0.92236600  0.09231800  1
  O  O7  1  0.82479000  0.07763400  0.90768200  1
  O  O8  1  0.25031800  0.56112600  0.89084100  1
  O  O9  1  0.74968200  0.43887400  0.10915900  1
  O  O10  1  0.72848900  0.81321900  0.74429500  1
  O  O11  1  0.27151100  0.18678100  0.25570500  1
  O  O12  1  0.24894700  0.92703100  0.65849200  1
  O  O13  1  0.75105300  0.07296900  0.34150800  1
loop_
_geom_bond_atom_site_label_1
_geom_bond_atom_site_label_2
_geom_bond_distance
_geom_bond_site_symmetry_2
Cu0 O12 1.956249 1_545
Cu0 O13 1.956249 1_455
Cu0 O11 2.069480 1_555
Cu0 O10 2.069480 1_445
Cu0 O2 2.339649 1_545
Cu0 O3 2.339649 1_455
O0 S0 1.492472 1_555
O0 Y0 2.429493 1_454
O1 S1 1.492472 1_555
O1 Y1 2.429493 1_656
O2 S0 1.468974 1_555
O3 S1 1.468974 1_555
O4 S0 1.486489 1_555
O4 Y0 2.320539 1_554
O5 S1 1.486489 1_555
O5 Y1 2.320539 1_556
O6 S0 1.513554 1_555
O6 Y1 2.451083 1_565
O6 Y0 2.559523 1_454
O7 S1 1.513554 1_555
O7 Y0 2.451083 1_545
O7 Y1 2.559523 1_656
O8 Te0 1.907043 1_555
O8 Y1 2.345866 1_556
O8 Y0 2.370371 1_455
O9 Te1 1.907043 1_555
O9 Y0 2.345866 1_554
O9 Y1 2.370371 1_655
O10 Te0 1.915059 1_555
O10 Y0 2.290545 1_555
O11 Te1 1.915059 1_555
O11 Y1 2.290545 1_555
O12 Te0 1.943041 1_555
O12 Y0 2.527126 1_455
O13 Te1 1.943041 1_555
O13 Y1 2.527126 1_655
