# generated using pymatgen
data_NbFe2
_symmetry_space_group_name_H-M   'P 1'
_cell_length_a   4.88604292
_cell_length_b   4.88603364
_cell_length_c   4.88602281
_cell_angle_alpha   59.99995816
_cell_angle_beta   60.00002102
_cell_angle_gamma   60.00008383
_symmetry_Int_Tables_number   1
_chemical_formula_structural   NbFe2
_chemical_formula_sum   'Nb2 Fe4'
_cell_volume   82.48109721
_cell_formula_units_Z   2
loop_
 _symmetry_equiv_pos_site_id
 _symmetry_equiv_pos_as_xyz
  1  'x, y, z'
loop_
 _atom_site_type_symbol
 _atom_site_label
 _atom_site_symmetry_multiplicity
 _atom_site_fract_x
 _atom_site_fract_y
 _atom_site_fract_z
 _atom_site_occupancy
  Nb  Nb0  1  0.74999900  0.75000000  0.75000000  1
  Nb  Nb1  1  0.00000100  -0.00000000  0.00000000  1
  Fe  Fe0  1  0.87500000  0.37500000  0.37500000  1
  Fe  Fe1  1  0.37500000  0.87500000  0.37500000  1
  Fe  Fe2  1  0.37500000  0.37500000  0.87500000  1
  Fe  Fe3  1  0.37500000  0.37500000  0.37500000  1
loop_
_geom_bond_atom_site_label_1
_geom_bond_atom_site_label_2
_geom_bond_distance
_geom_bond_site_symmetry_2
Nb0 Nb1 2.992065 1_665
Nb0 Nb1 2.992073 1_566
Nb0 Nb1 2.992073 1_656
Nb0 Nb1 2.992080 1_666
Fe0 Fe2 2.443017 1_555
Fe0 Fe2 2.443017 1_654
Fe0 Fe3 2.443021 1_555
Fe0 Fe3 2.443021 1_655
Fe0 Fe1 2.443022 1_555
Fe0 Fe1 2.443022 1_645
Fe0 Nb1 2.864686 1_655
Fe0 Nb0 2.864686 1_555
Fe0 Nb1 2.864687 1_656
Fe0 Nb0 2.864687 1_554
Fe0 Nb1 2.864692 1_665
Fe0 Nb0 2.864692 1_545
Fe1 Fe2 2.443013 1_564
Fe1 Fe2 2.443013 1_555
Fe1 Fe3 2.443017 1_555
Fe1 Fe3 2.443017 1_565
Fe1 Nb1 2.864686 1_565
Fe1 Nb0 2.864686 1_555
Fe1 Nb1 2.864687 1_566
Fe1 Nb0 2.864687 1_554
Fe1 Nb0 2.864700 1_455
Fe1 Nb1 2.864700 1_665
Fe2 Fe3 2.443011 1_555
Fe2 Fe3 2.443011 1_556
Fe2 Nb0 2.864689 1_555
Fe2 Nb1 2.864689 1_556
Fe2 Nb1 2.864694 1_566
Fe2 Nb0 2.864694 1_545
Fe2 Nb1 2.864702 1_656
Fe2 Nb0 2.864702 1_455
Fe3 Nb0 2.864686 1_554
Fe3 Nb1 2.864686 1_556
Fe3 Nb1 2.864690 1_565
Fe3 Nb0 2.864690 1_545
Fe3 Nb1 2.864698 1_655
Fe3 Nb0 2.864698 1_455
