# generated using pymatgen
data_Zn2SiO4
_symmetry_space_group_name_H-M   'P 1'
_cell_length_a   8.09005700
_cell_length_b   5.55075300
_cell_length_c   9.04815730
_cell_angle_alpha   58.69641784
_cell_angle_beta   90.00000000
_cell_angle_gamma   90.00000000
_symmetry_Int_Tables_number   1
_chemical_formula_structural   Zn2SiO4
_chemical_formula_sum   'Zn8 Si4 O16'
_cell_volume   347.16685751
_cell_formula_units_Z   4
loop_
 _symmetry_equiv_pos_site_id
 _symmetry_equiv_pos_as_xyz
  1  'x, y, z'
loop_
 _atom_site_type_symbol
 _atom_site_label
 _atom_site_symmetry_multiplicity
 _atom_site_fract_x
 _atom_site_fract_y
 _atom_site_fract_z
 _atom_site_occupancy
  Zn  Zn0  1  0.88121400  0.24323800  0.90245100  1
  Zn  Zn1  1  0.61878600  0.24323800  0.40245100  1
  Zn  Zn2  1  0.11878600  0.75676200  0.09754900  1
  Zn  Zn3  1  0.38121400  0.75676200  0.59754900  1
  Zn  Zn4  1  0.49168800  0.85941300  0.19063500  1
  Zn  Zn5  1  0.00831200  0.85941300  0.69063500  1
  Zn  Zn6  1  0.50831200  0.14058700  0.80936500  1
  Zn  Zn7  1  0.99168800  0.14058700  0.30936500  1
  Si  Si0  1  0.23810800  0.36498900  0.95969600  1
  Si  Si1  1  0.26189200  0.36498900  0.45969600  1
  Si  Si2  1  0.76189200  0.63501100  0.04030400  1
  Si  Si3  1  0.73810800  0.63501100  0.54030400  1
  O  O0  1  0.42724700  0.23430500  0.99522800  1
  O  O1  1  0.07275300  0.23430500  0.49522800  1
  O  O2  1  0.57275300  0.76569500  0.00477200  1
  O  O3  1  0.92724700  0.76569500  0.50477200  1
  O  O4  1  0.23490000  0.69317300  0.79119100  1
  O  O5  1  0.26510000  0.69317300  0.29119100  1
  O  O6  1  0.76510000  0.30682700  0.20880900  1
  O  O7  1  0.73490000  0.30682700  0.70880900  1
  O  O8  1  0.12457500  0.16395200  0.91526700  1
  O  O9  1  0.37542500  0.16395200  0.41526700  1
  O  O10  1  0.87542500  0.83604800  0.08473300  1
  O  O11  1  0.62457500  0.83604800  0.58473300  1
  O  O12  1  0.14732700  0.37984900  0.11929000  1
  O  O13  1  0.35267300  0.37984900  0.61929000  1
  O  O14  1  0.85267300  0.62015100  0.88071000  1
  O  O15  1  0.64732700  0.62015100  0.38071000  1
loop_
_geom_bond_atom_site_label_1
_geom_bond_atom_site_label_2
_geom_bond_distance
_geom_bond_site_symmetry_2
O0 Si0 1.651836 1_555
O0 Zn4 1.976078 1_546
O0 Zn6 2.106650 1_555
O1 Si1 1.651836 1_555
O1 Zn5 1.976078 1_545
O1 Zn7 2.106650 1_455
O2 Si2 1.651836 1_555
O2 Zn6 1.976078 1_564
O2 Zn4 2.106650 1_555
O3 Si3 1.651836 1_555
O3 Zn7 1.976078 1_565
O3 Zn5 2.106650 1_655
O4 Si0 1.660599 1_555
O4 Zn3 1.988197 1_555
O4 Zn5 2.041362 1_555
O5 Si1 1.660599 1_555
O5 Zn2 1.988197 1_555
O5 Zn4 2.041362 1_555
O6 Si2 1.660599 1_555
O6 Zn1 1.988197 1_555
O6 Zn7 2.041362 1_555
O7 Si3 1.660599 1_555
O7 Zn0 1.988197 1_555
O7 Zn6 2.041362 1_555
O8 Si0 1.648220 1_555
O8 Zn2 1.989287 1_546
O8 Zn0 2.007558 1_455
O9 Si1 1.648220 1_555
O9 Zn3 1.989287 1_545
O9 Zn1 2.007558 1_555
O10 Si2 1.648220 1_555
O10 Zn0 1.989287 1_564
O10 Zn2 2.007558 1_655
O11 Si3 1.648220 1_555
O11 Zn1 1.989287 1_565
O11 Zn3 2.007558 1_555
O12 Si0 1.659874 1_554
O12 Zn7 1.983314 1_455
O12 Zn2 2.010333 1_555
O13 Si1 1.659874 1_555
O13 Zn6 1.983314 1_555
O13 Zn3 2.010333 1_555
O14 Si2 1.659874 1_556
O14 Zn5 1.983314 1_655
O14 Zn0 2.010333 1_555
O15 Si3 1.659874 1_555
O15 Zn4 1.983314 1_555
O15 Zn1 2.010333 1_555
