# generated using pymatgen
data_Fe2PtRh
_symmetry_space_group_name_H-M   'P 1'
_cell_length_a   5.28860200
_cell_length_b   5.28860200
_cell_length_c   14.65105400
_cell_angle_alpha   90.00000000
_cell_angle_beta   90.00000000
_cell_angle_gamma   90.00000000
_symmetry_Int_Tables_number   1
_chemical_formula_structural   Fe2PtRh
_chemical_formula_sum   'Fe16 Pt8 Rh8'
_cell_volume   409.77988748
_cell_formula_units_Z   8
loop_
 _symmetry_equiv_pos_site_id
 _symmetry_equiv_pos_as_xyz
  1  'x, y, z'
loop_
 _atom_site_type_symbol
 _atom_site_label
 _atom_site_symmetry_multiplicity
 _atom_site_fract_x
 _atom_site_fract_y
 _atom_site_fract_z
 _atom_site_occupancy
  Fe  Fe0_0  1  0.25000000  0.25000000  0.37204050  1
  Fe  Fe0_1  1  0.25000000  0.25000000  0.87204050  1
  Fe  Fe0_2  1  0.25000000  0.75000000  0.37204050  1
  Fe  Fe0_3  1  0.25000000  0.75000000  0.87204050  1
  Fe  Fe0_4  1  0.75000000  0.25000000  0.37204050  1
  Fe  Fe0_5  1  0.75000000  0.25000000  0.87204050  1
  Fe  Fe0_6  1  0.75000000  0.75000000  0.37204050  1
  Fe  Fe0_7  1  0.75000000  0.75000000  0.87204050  1
  Fe  Fe1_0  1  0.25000000  0.25000000  0.12795950  1
  Fe  Fe1_1  1  0.25000000  0.25000000  0.62795950  1
  Fe  Fe1_2  1  0.25000000  0.75000000  0.12795950  1
  Fe  Fe1_3  1  0.25000000  0.75000000  0.62795950  1
  Fe  Fe1_4  1  0.75000000  0.25000000  0.12795950  1
  Fe  Fe1_5  1  0.75000000  0.25000000  0.62795950  1
  Fe  Fe1_6  1  0.75000000  0.75000000  0.12795950  1
  Fe  Fe1_7  1  0.75000000  0.75000000  0.62795950  1
  Pt  Pt0_0  1  0.00000000  0.00000000  0.00000000  1
  Pt  Pt0_1  1  0.00000000  0.00000000  0.50000000  1
  Pt  Pt0_2  1  0.00000000  0.50000000  0.00000000  1
  Pt  Pt0_3  1  0.00000000  0.50000000  0.50000000  1
  Pt  Pt0_4  1  0.50000000  0.00000000  0.00000000  1
  Pt  Pt0_5  1  0.50000000  0.00000000  0.50000000  1
  Pt  Pt0_6  1  0.50000000  0.50000000  0.00000000  1
  Pt  Pt0_7  1  0.50000000  0.50000000  0.50000000  1
  Rh  Rh0_0  1  0.00000000  0.00000000  0.25000000  1
  Rh  Rh0_1  1  0.00000000  0.00000000  0.75000000  1
  Rh  Rh0_2  1  0.00000000  0.50000000  0.25000000  1
  Rh  Rh0_3  1  0.00000000  0.50000000  0.75000000  1
  Rh  Rh0_4  1  0.50000000  0.00000000  0.25000000  1
  Rh  Rh0_5  1  0.50000000  0.00000000  0.75000000  1
  Rh  Rh0_6  1  0.50000000  0.50000000  0.25000000  1
  Rh  Rh0_7  1  0.50000000  0.50000000  0.75000000  1
loop_
_geom_bond_atom_site_label_1
_geom_bond_atom_site_label_2
_geom_bond_distance
_geom_bond_site_symmetry_2
Fe0_0 Rh0_4 2.587119 1_555
Fe0_0 Rh0_6 2.587119 1_555
Fe0_0 Rh0_0 2.587119 1_555
Fe0_0 Rh0_2 2.587119 1_555
Fe0_0 Fe0_2 2.644301 1_555
Fe0_0 Fe0_4 2.644301 1_555
Fe0_0 Fe0_4 2.644301 1_455
Fe0_0 Fe0_2 2.644301 1_545
Fe0_0 Pt0_1 2.647795 1_555
Fe0_0 Pt0_5 2.647795 1_555
Fe0_0 Pt0_3 2.647795 1_555
Fe0_0 Pt0_7 2.647795 1_555
Fe0_1 Rh0_1 2.587119 1_555
Fe0_1 Rh0_3 2.587119 1_555
Fe0_1 Rh0_7 2.587119 1_555
Fe0_1 Rh0_5 2.587119 1_555
Fe0_1 Fe0_5 2.644301 1_455
Fe0_1 Fe0_5 2.644301 1_555
Fe0_1 Fe0_3 2.644301 1_545
Fe0_1 Fe0_3 2.644301 1_555
Fe0_1 Pt0_6 2.647795 1_556
Fe0_1 Pt0_0 2.647795 1_556
Fe0_1 Pt0_4 2.647795 1_556
Fe0_1 Pt0_2 2.647795 1_556
Fe0_2 Rh0_0 2.587119 1_565
Fe0_2 Rh0_4 2.587119 1_565
Fe0_2 Rh0_6 2.587119 1_555
Fe0_2 Rh0_2 2.587119 1_555
Fe0_2 Fe0_6 2.644301 1_455
Fe0_2 Fe0_6 2.644301 1_555
Fe0_2 Pt0_1 2.647795 1_565
Fe0_2 Pt0_3 2.647795 1_555
Fe0_2 Pt0_5 2.647795 1_565
Fe0_2 Pt0_7 2.647795 1_555
Fe0_3 Rh0_1 2.587119 1_565
Fe0_3 Rh0_5 2.587119 1_565
Fe0_3 Rh0_3 2.587119 1_555
Fe0_3 Rh0_7 2.587119 1_555
Fe0_3 Fe0_7 2.644301 1_455
Fe0_3 Fe0_7 2.644301 1_555
Fe0_3 Pt0_6 2.647795 1_556
Fe0_3 Pt0_0 2.647795 1_566
Fe0_3 Pt0_2 2.647795 1_556
Fe0_3 Pt0_4 2.647795 1_566
Fe0_4 Rh0_4 2.587119 1_555
Fe0_4 Rh0_6 2.587119 1_555
Fe0_4 Rh0_0 2.587119 1_655
Fe0_4 Rh0_2 2.587119 1_655
Fe0_4 Fe0_6 2.644301 1_545
Fe0_4 Fe0_6 2.644301 1_555
Fe0_4 Pt0_3 2.647795 1_655
Fe0_4 Pt0_1 2.647795 1_655
Fe0_4 Pt0_5 2.647795 1_555
Fe0_4 Pt0_7 2.647795 1_555
Fe0_5 Rh0_1 2.587119 1_655
Fe0_5 Rh0_7 2.587119 1_555
Fe0_5 Rh0_3 2.587119 1_655
Fe0_5 Rh0_5 2.587119 1_555
Fe0_5 Fe0_7 2.644301 1_545
Fe0_5 Fe0_7 2.644301 1_555
Fe0_5 Pt0_6 2.647795 1_556
Fe0_5 Pt0_0 2.647795 1_656
Fe0_5 Pt0_2 2.647795 1_656
Fe0_5 Pt0_4 2.647795 1_556
Fe0_6 Rh0_4 2.587119 1_565
Fe0_6 Rh0_6 2.587119 1_555
Fe0_6 Rh0_0 2.587119 1_665
Fe0_6 Rh0_2 2.587119 1_655
Fe0_6 Pt0_3 2.647795 1_655
Fe0_6 Pt0_5 2.647795 1_565
Fe0_6 Pt0_7 2.647795 1_555
Fe0_6 Pt0_1 2.647795 1_665
Fe0_7 Rh0_1 2.587119 1_665
Fe0_7 Rh0_5 2.587119 1_565
Fe0_7 Rh0_7 2.587119 1_555
Fe0_7 Rh0_3 2.587119 1_655
Fe0_7 Pt0_6 2.647795 1_556
Fe0_7 Pt0_2 2.647795 1_656
Fe0_7 Pt0_0 2.647795 1_666
Fe0_7 Pt0_4 2.647795 1_566
Fe1_0 Rh0_4 2.587119 1_555
Fe1_0 Rh0_6 2.587119 1_555
Fe1_0 Rh0_0 2.587119 1_555
Fe1_0 Rh0_2 2.587119 1_555
Fe1_0 Fe1_4 2.644301 1_455
Fe1_0 Fe1_4 2.644301 1_555
Fe1_0 Fe1_2 2.644301 1_545
Fe1_0 Fe1_2 2.644301 1_555
Fe1_0 Pt0_4 2.647795 1_555
Fe1_0 Pt0_2 2.647795 1_555
Fe1_0 Pt0_6 2.647795 1_555
Fe1_0 Pt0_0 2.647795 1_555
Fe1_1 Rh0_1 2.587119 1_555
Fe1_1 Rh0_3 2.587119 1_555
Fe1_1 Rh0_7 2.587119 1_555
Fe1_1 Rh0_5 2.587119 1_555
Fe1_1 Fe1_3 2.644301 1_555
Fe1_1 Fe1_5 2.644301 1_455
Fe1_1 Fe1_3 2.644301 1_545
Fe1_1 Fe1_5 2.644301 1_555
Fe1_1 Pt0_7 2.647795 1_555
Fe1_1 Pt0_1 2.647795 1_555
Fe1_1 Pt0_5 2.647795 1_555
Fe1_1 Pt0_3 2.647795 1_555
Fe1_2 Rh0_0 2.587119 1_565
Fe1_2 Rh0_4 2.587119 1_565
Fe1_2 Rh0_6 2.587119 1_555
Fe1_2 Rh0_2 2.587119 1_555
Fe1_2 Fe1_6 2.644301 1_555
Fe1_2 Fe1_6 2.644301 1_455
Fe1_2 Pt0_0 2.647795 1_565
Fe1_2 Pt0_2 2.647795 1_555
Fe1_2 Pt0_4 2.647795 1_565
Fe1_2 Pt0_6 2.647795 1_555
Fe1_3 Rh0_1 2.587119 1_565
Fe1_3 Rh0_5 2.587119 1_565
Fe1_3 Rh0_3 2.587119 1_555
Fe1_3 Rh0_7 2.587119 1_555
Fe1_3 Fe1_7 2.644301 1_555
Fe1_3 Fe1_7 2.644301 1_455
Fe1_3 Pt0_7 2.647795 1_555
Fe1_3 Pt0_3 2.647795 1_555
Fe1_3 Pt0_1 2.647795 1_565
Fe1_3 Pt0_5 2.647795 1_565
Fe1_4 Rh0_4 2.587119 1_555
Fe1_4 Rh0_6 2.587119 1_555
Fe1_4 Rh0_0 2.587119 1_655
Fe1_4 Rh0_2 2.587119 1_655
Fe1_4 Fe1_6 2.644301 1_555
Fe1_4 Fe1_6 2.644301 1_545
Fe1_4 Pt0_4 2.647795 1_555
Fe1_4 Pt0_0 2.647795 1_655
Fe1_4 Pt0_6 2.647795 1_555
Fe1_4 Pt0_2 2.647795 1_655
Fe1_5 Rh0_1 2.587119 1_655
Fe1_5 Rh0_7 2.587119 1_555
Fe1_5 Rh0_3 2.587119 1_655
Fe1_5 Rh0_5 2.587119 1_555
Fe1_5 Fe1_7 2.644301 1_555
Fe1_5 Fe1_7 2.644301 1_545
Fe1_5 Pt0_7 2.647795 1_555
Fe1_5 Pt0_3 2.647795 1_655
Fe1_5 Pt0_5 2.647795 1_555
Fe1_5 Pt0_1 2.647795 1_655
Fe1_6 Rh0_4 2.587119 1_565
Fe1_6 Rh0_6 2.587119 1_555
Fe1_6 Rh0_0 2.587119 1_665
Fe1_6 Rh0_2 2.587119 1_655
Fe1_6 Pt0_0 2.647795 1_665
Fe1_6 Pt0_4 2.647795 1_565
Fe1_6 Pt0_6 2.647795 1_555
Fe1_6 Pt0_2 2.647795 1_655
Fe1_7 Rh0_1 2.587119 1_665
Fe1_7 Rh0_5 2.587119 1_565
Fe1_7 Rh0_7 2.587119 1_555
Fe1_7 Rh0_3 2.587119 1_655
Fe1_7 Pt0_7 2.647795 1_555
Fe1_7 Pt0_3 2.647795 1_655
Fe1_7 Pt0_1 2.647795 1_665
Fe1_7 Pt0_5 2.647795 1_565
Pt0_0 Pt0_4 2.644301 1_555
Pt0_0 Pt0_2 2.644301 1_555
Pt0_0 Pt0_4 2.644301 1_455
Pt0_0 Pt0_2 2.644301 1_545
Pt0_1 Pt0_5 2.644301 1_455
Pt0_1 Pt0_3 2.644301 1_545
Pt0_1 Pt0_5 2.644301 1_555
Pt0_1 Pt0_3 2.644301 1_555
Pt0_2 Pt0_6 2.644301 1_455
Pt0_2 Pt0_6 2.644301 1_555
Pt0_3 Pt0_7 2.644301 1_455
Pt0_3 Pt0_7 2.644301 1_555
Pt0_4 Pt0_6 2.644301 1_545
Pt0_4 Pt0_6 2.644301 1_555
Pt0_5 Pt0_7 2.644301 1_545
Pt0_5 Pt0_7 2.644301 1_555
Rh0_0 Rh0_4 2.644301 1_555
Rh0_0 Rh0_4 2.644301 1_455
Rh0_0 Rh0_2 2.644301 1_545
Rh0_0 Rh0_2 2.644301 1_555
Rh0_1 Rh0_3 2.644301 1_555
Rh0_1 Rh0_3 2.644301 1_545
Rh0_1 Rh0_5 2.644301 1_455
Rh0_1 Rh0_5 2.644301 1_555
Rh0_2 Rh0_6 2.644301 1_555
Rh0_2 Rh0_6 2.644301 1_455
Rh0_3 Rh0_7 2.644301 1_455
Rh0_3 Rh0_7 2.644301 1_555
Rh0_4 Rh0_6 2.644301 1_545
Rh0_4 Rh0_6 2.644301 1_555
Rh0_5 Rh0_7 2.644301 1_555
Rh0_5 Rh0_7 2.644301 1_545
