# generated using pymatgen
data_DyAl3(BO3)4
_symmetry_space_group_name_H-M   'P 1'
_cell_length_a   5.92836334
_cell_length_b   5.92836334
_cell_length_c   5.92836319
_cell_angle_alpha   104.26838532
_cell_angle_beta   104.26838532
_cell_angle_gamma   104.26839786
_symmetry_Int_Tables_number   1
_chemical_formula_structural   DyAl3(BO3)4
_chemical_formula_sum   'Dy1 Al3 B4 O12'
_cell_volume   184.93486667
_cell_formula_units_Z   1
loop_
 _symmetry_equiv_pos_site_id
 _symmetry_equiv_pos_as_xyz
  1  'x, y, z'
loop_
 _atom_site_type_symbol
 _atom_site_label
 _atom_site_symmetry_multiplicity
 _atom_site_fract_x
 _atom_site_fract_y
 _atom_site_fract_z
 _atom_site_occupancy
  Dy  Dy0  1  0.50000000  0.50000000  0.50000000  1
  Al  Al0  1  0.05575100  0.94424900  0.50000000  1
  Al  Al1  1  0.94424900  0.50000000  0.05575100  1
  Al  Al2  1  0.50000000  0.05575100  0.94424900  1
  B  B0  1  0.44323300  0.55676700  0.00000000  1
  B  B1  1  0.55676700  0.00000000  0.44323300  1
  B  B2  1  0.00000000  0.44323300  0.55676700  1
  B  B3  1  0.00000000  0.00000000  0.00000000  1
  O  O0  1  0.27922300  0.52865400  0.12838000  1
  O  O1  1  0.52865400  0.12838000  0.27922300  1
  O  O2  1  0.72077700  0.87162000  0.47134600  1
  O  O3  1  0.12838000  0.27922300  0.52865400  1
  O  O4  1  0.47134600  0.72077700  0.87162000  1
  O  O5  1  0.87162000  0.47134600  0.72077700  1
  O  O6  1  0.85132000  0.14868000  0.00000000  1
  O  O7  1  0.14868000  0.00000000  0.85132000  1
  O  O8  1  0.00000000  0.85132000  0.14868000  1
  O  O9  1  0.59150200  0.40849800  0.00000000  1
  O  O10  1  0.40849800  0.00000000  0.59150200  1
  O  O11  1  0.00000000  0.59150200  0.40849800  1
loop_
_geom_bond_atom_site_label_1
_geom_bond_atom_site_label_2
_geom_bond_distance
_geom_bond_site_symmetry_2
Dy0 O3 2.338435 1_555
Dy0 O2 2.338435 1_555
Dy0 O0 2.338435 1_555
Dy0 O4 2.338435 1_555
Dy0 O1 2.338435 1_555
Dy0 O5 2.338435 1_555
Al0 O2 1.879900 1_455
Al0 O3 1.879900 1_565
Al0 O7 1.938023 1_565
Al0 O8 1.938023 1_555
Al0 O10 1.946386 1_565
Al0 O11 1.946386 1_555
Al1 O5 1.879900 1_554
Al1 O0 1.879900 1_655
Al1 O6 1.938023 1_555
Al1 O8 1.938023 1_655
Al1 O9 1.946386 1_555
Al1 O11 1.946386 1_655
Al2 O1 1.879900 1_556
Al2 O4 1.879900 1_545
Al2 O6 1.938023 1_556
Al2 O7 1.938023 1_555
Al2 O9 1.946386 1_556
Al2 O10 1.946386 1_555
B0 O4 1.378344 1_554
B0 O0 1.378344 1_555
B0 O9 1.387842 1_555
B1 O1 1.378344 1_555
B1 O2 1.378344 1_545
B1 O10 1.387842 1_555
B2 O5 1.378344 1_455
B2 O3 1.378344 1_555
B2 O11 1.387842 1_555
B3 O7 1.391689 1_554
B3 O8 1.391689 1_545
B3 O6 1.391689 1_455
