# generated using pymatgen
data_BaTa4O14
_symmetry_space_group_name_H-M   'P 1'
_cell_length_a   7.52941262
_cell_length_b   7.52941262
_cell_length_c   7.52941293
_cell_angle_alpha   60.43202610
_cell_angle_beta   60.43202610
_cell_angle_gamma   60.43202085
_symmetry_Int_Tables_number   1
_chemical_formula_structural   BaTa4O14
_chemical_formula_sum   'Ba1 Ta4 O14'
_cell_volume   304.78243082
_cell_formula_units_Z   1
loop_
 _symmetry_equiv_pos_site_id
 _symmetry_equiv_pos_as_xyz
  1  'x, y, z'
loop_
 _atom_site_type_symbol
 _atom_site_label
 _atom_site_symmetry_multiplicity
 _atom_site_fract_x
 _atom_site_fract_y
 _atom_site_fract_z
 _atom_site_occupancy
  Ba  Ba0  1  0.50000000  0.50000000  0.50000000  1
  Ta  Ta0  1  0.00000000  0.00000000  0.00000000  1
  Ta  Ta1  1  0.50000000  0.00000000  0.00000000  1
  Ta  Ta2  1  0.00000000  0.00000000  0.50000000  1
  Ta  Ta3  1  0.00000000  0.50000000  0.00000000  1
  O  O0  1  0.93323800  0.30896600  0.30896600  1
  O  O1  1  0.31019100  0.93934100  0.93934100  1
  O  O2  1  0.30896600  0.30896600  0.93323800  1
  O  O3  1  0.93934100  0.93934100  0.31019100  1
  O  O4  1  0.93934100  0.31019100  0.93934100  1
  O  O5  1  0.30896600  0.93323800  0.30896600  1
  O  O6  1  0.06676200  0.69103400  0.69103400  1
  O  O7  1  0.68980900  0.06065900  0.06065900  1
  O  O8  1  0.69103400  0.69103400  0.06676200  1
  O  O9  1  0.06065900  0.06065900  0.68980900  1
  O  O10  1  0.06065900  0.68980900  0.06065900  1
  O  O11  1  0.69103400  0.06676200  0.69103400  1
  O  O12  1  0.33571600  0.33571600  0.33571600  1
  O  O13  1  0.66428400  0.66428400  0.66428400  1
loop_
_geom_bond_atom_site_label_1
_geom_bond_atom_site_label_2
_geom_bond_distance
_geom_bond_site_symmetry_2
Ba0 O5 2.749417 1_555
Ba0 O0 2.749417 1_555
Ba0 O6 2.749417 1_555
Ba0 O11 2.749417 1_555
Ba0 O2 2.749417 1_555
Ba0 O8 2.749417 1_555
Ba0 O13 3.019995 1_555
Ba0 O12 3.019995 1_555
O0 Ta2 1.997642 1_655
O0 Ta3 1.997642 1_655
O1 Ta1 1.988445 1_566
O1 Ta0 1.993086 1_566
O2 Ta1 1.997642 1_556
O2 Ta3 1.997642 1_556
O3 Ta2 1.988445 1_665
O3 Ta0 1.993086 1_665
O4 Ta3 1.988445 1_656
O4 Ta0 1.993086 1_656
O5 Ta2 1.997642 1_565
O5 Ta1 1.997642 1_565
O6 Ta2 1.997642 1_565
O6 Ta3 1.997642 1_556
O7 Ta1 1.988445 1_555
O7 Ta0 1.993086 1_655
O8 Ta3 1.997642 1_655
O8 Ta1 1.997642 1_565
O9 Ta2 1.988445 1_555
O9 Ta0 1.993086 1_556
O10 Ta3 1.988445 1_555
O10 Ta0 1.993086 1_565
O11 Ta2 1.997642 1_655
O11 Ta1 1.997642 1_556
