# generated using pymatgen
data_Nd2SO6
_symmetry_space_group_name_H-M   'P 1'
_cell_length_a   4.15042273
_cell_length_b   4.15343277
_cell_length_c   7.89070758
_cell_angle_alpha   105.25773387
_cell_angle_beta   105.24548017
_cell_angle_gamma   89.99878104
_symmetry_Int_Tables_number   1
_chemical_formula_structural   Nd2SO6
_chemical_formula_sum   'Nd2 S1 O6'
_cell_volume   126.26099956
_cell_formula_units_Z   1
loop_
 _symmetry_equiv_pos_site_id
 _symmetry_equiv_pos_as_xyz
  1  'x, y, z'
loop_
 _atom_site_type_symbol
 _atom_site_label
 _atom_site_symmetry_multiplicity
 _atom_site_fract_x
 _atom_site_fract_y
 _atom_site_fract_z
 _atom_site_occupancy
  Nd  Nd0  1  0.82713671  0.32713243  0.65422793  1
  Nd  Nd1  1  0.17289623  0.67289353  0.34579995  1
  S  S0  1  0.49999599  -0.00000518  -0.00000251  1
  O  O0  1  0.23911081  0.73922410  0.88182119  1
  O  O1  1  0.64265503  0.14255395  0.88177551  1
  O  O2  1  0.35728531  0.26076528  0.11817826  1
  O  O3  1  0.76089224  0.85741247  0.11818086  1
  O  O4  1  0.75008275  0.75007597  0.50013648  1
  O  O5  1  0.24994493  0.24994745  0.49988234  1
loop_
_geom_bond_atom_site_label_1
_geom_bond_atom_site_label_2
_geom_bond_distance
_geom_bond_site_symmetry_2
Nd0 O5 2.363036 1_655
Nd0 O5 2.363270 1_555
Nd0 O4 2.363515 1_555
Nd0 O4 2.363656 1_545
Nd0 O1 2.417720 1_555
Nd0 O0 2.417800 1_655
Nd1 O4 2.363007 1_455
Nd1 O4 2.363236 1_555
Nd1 O5 2.363476 1_555
Nd1 O5 2.363632 1_565
Nd1 O2 2.417929 1_555
Nd1 O3 2.417956 1_455
O0 S0 1.467149 1_566
O1 S0 1.467174 1_556
O2 S0 1.467104 1_555
O3 S0 1.467126 1_565
