# generated using pymatgen
data_Sr2InBiO6
_symmetry_space_group_name_H-M   'P 1'
_cell_length_a   8.43146020
_cell_length_b   8.43146020
_cell_length_c   8.43146020
_cell_angle_alpha   90.00000000
_cell_angle_beta   90.00000000
_cell_angle_gamma   90.00000000
_symmetry_Int_Tables_number   1
_chemical_formula_structural   Sr2InBiO6
_chemical_formula_sum   'Sr8 In4 Bi4 O24'
_cell_volume   599.38846783
_cell_formula_units_Z   4
loop_
 _symmetry_equiv_pos_site_id
 _symmetry_equiv_pos_as_xyz
  1  'x, y, z'
loop_
 _atom_site_type_symbol
 _atom_site_label
 _atom_site_symmetry_multiplicity
 _atom_site_fract_x
 _atom_site_fract_y
 _atom_site_fract_z
 _atom_site_occupancy
  Sr  Sr0  1  0.50000000  0.50000000  0.50000000  1
  Sr  Sr1  1  0.00000000  0.00000000  0.00000000  1
  Sr  Sr2  1  0.00000000  0.00000000  0.50000000  1
  Sr  Sr3  1  0.00000000  0.50000000  0.00000000  1
  Sr  Sr4  1  0.50000000  0.00000000  0.00000000  1
  Sr  Sr5  1  0.50000000  0.50000000  0.00000000  1
  Sr  Sr6  1  0.50000000  0.00000000  0.50000000  1
  Sr  Sr7  1  0.00000000  0.50000000  0.50000000  1
  In  In0  1  0.25000000  0.25000000  0.25000000  1
  In  In1  1  0.25000000  0.75000000  0.75000000  1
  In  In2  1  0.75000000  0.25000000  0.75000000  1
  In  In3  1  0.75000000  0.75000000  0.25000000  1
  Bi  Bi0  1  0.75000000  0.75000000  0.75000000  1
  Bi  Bi1  1  0.75000000  0.25000000  0.25000000  1
  Bi  Bi2  1  0.25000000  0.75000000  0.25000000  1
  Bi  Bi3  1  0.25000000  0.25000000  0.75000000  1
  O  O0  1  0.21553507  0.29253091  0.50236801  1
  O  O1  1  0.21553507  0.70746909  0.49763199  1
  O  O2  1  0.78446493  0.29253091  0.49763199  1
  O  O3  1  0.78446493  0.70746909  0.50236801  1
  O  O4  1  0.29253091  0.50236801  0.21553507  1
  O  O5  1  0.70746909  0.49763199  0.21553507  1
  O  O6  1  0.29253091  0.49763199  0.78446493  1
  O  O7  1  0.70746909  0.50236801  0.78446493  1
  O  O8  1  0.50236801  0.21553507  0.29253091  1
  O  O9  1  0.49763199  0.21553507  0.70746909  1
  O  O10  1  0.49763199  0.78446493  0.29253091  1
  O  O11  1  0.50236801  0.78446493  0.70746909  1
  O  O12  1  0.28446493  0.20746909  0.99763199  1
  O  O13  1  0.28446493  0.79253091  0.00236801  1
  O  O14  1  0.71553507  0.20746909  0.00236801  1
  O  O15  1  0.71553507  0.79253091  0.99763199  1
  O  O16  1  0.20746909  0.99763199  0.28446493  1
  O  O17  1  0.79253091  0.00236801  0.28446493  1
  O  O18  1  0.20746909  0.00236801  0.71553507  1
  O  O19  1  0.79253091  0.99763199  0.71553507  1
  O  O20  1  0.99763199  0.28446493  0.20746909  1
  O  O21  1  0.00236801  0.28446493  0.79253091  1
  O  O22  1  0.00236801  0.71553507  0.20746909  1
  O  O23  1  0.99763199  0.71553507  0.79253091  1
loop_
_geom_bond_atom_site_label_1
_geom_bond_atom_site_label_2
_geom_bond_distance
_geom_bond_site_symmetry_2
In0 O8 2.177315 1_555
In0 O0 2.177315 1_555
In0 O20 2.177315 1_455
In0 O16 2.177315 1_545
In0 O4 2.177315 1_555
In0 O12 2.177315 1_554
In1 O23 2.177315 1_455
In1 O11 2.177315 1_555
In1 O1 2.177315 1_555
In1 O6 2.177315 1_555
In1 O13 2.177315 1_556
In1 O18 2.177315 1_565
In2 O7 2.177315 1_555
In2 O9 2.177315 1_555
In2 O19 2.177315 1_545
In2 O2 2.177315 1_555
In2 O14 2.177315 1_556
In2 O21 2.177315 1_655
In3 O15 2.177315 1_554
In3 O10 2.177315 1_555
In3 O3 2.177315 1_555
In3 O5 2.177315 1_555
In3 O22 2.177315 1_655
In3 O17 2.177315 1_565
Bi0 O15 2.138307 1_555
Bi0 O7 2.138307 1_555
Bi0 O19 2.138307 1_555
Bi0 O11 2.138307 1_555
Bi0 O3 2.138307 1_555
Bi0 O23 2.138307 1_555
Bi1 O17 2.138307 1_555
Bi1 O14 2.138307 1_555
Bi1 O8 2.138307 1_555
Bi1 O5 2.138307 1_555
Bi1 O2 2.138307 1_555
Bi1 O20 2.138307 1_555
Bi2 O13 2.138307 1_555
Bi2 O22 2.138307 1_555
Bi2 O16 2.138307 1_555
Bi2 O10 2.138307 1_555
Bi2 O4 2.138307 1_555
Bi2 O1 2.138307 1_555
Bi3 O18 2.138307 1_555
Bi3 O21 2.138307 1_555
Bi3 O6 2.138307 1_555
Bi3 O12 2.138307 1_555
Bi3 O9 2.138307 1_555
Bi3 O0 2.138307 1_555
O0 Sr7 2.522464 1_555
O0 Sr0 2.968656 1_555
O0 Sr2 3.063711 1_555
O1 Sr7 2.522464 1_555
O1 Sr0 2.968656 1_555
O1 Sr2 3.063711 1_565
O2 Sr7 2.522464 1_655
O2 Sr0 2.968656 1_555
O2 Sr2 3.063711 1_655
O3 Sr7 2.522464 1_655
O3 Sr0 2.968656 1_555
O3 Sr2 3.063711 1_665
O4 Sr5 2.522464 1_555
O4 Sr0 2.968656 1_555
O4 Sr3 3.063711 1_555
O5 Sr5 2.522464 1_555
O5 Sr0 2.968656 1_555
O5 Sr3 3.063711 1_655
O6 Sr5 2.522464 1_556
O6 Sr0 2.968656 1_555
O6 Sr3 3.063711 1_556
O7 Sr5 2.522464 1_556
O7 Sr0 2.968656 1_555
O7 Sr3 3.063711 1_656
O8 Sr6 2.522464 1_555
O8 Sr0 2.968656 1_555
O8 Sr4 3.063711 1_555
O9 Sr6 2.522464 1_555
O9 Sr0 2.968656 1_555
O9 Sr4 3.063711 1_556
O10 Sr6 2.522464 1_565
O10 Sr0 2.968656 1_555
O10 Sr4 3.063711 1_565
O11 Sr6 2.522464 1_565
O11 Sr0 2.968656 1_555
O11 Sr4 3.063711 1_566
O12 Sr4 2.522464 1_556
O12 Sr1 2.968656 1_556
O12 Sr5 3.063711 1_556
O13 Sr4 2.522464 1_565
O13 Sr1 2.968656 1_565
O13 Sr5 3.063711 1_555
O14 Sr4 2.522464 1_555
O14 Sr1 2.968656 1_655
O14 Sr5 3.063711 1_555
O15 Sr4 2.522464 1_566
O15 Sr1 2.968656 1_666
O15 Sr5 3.063711 1_556
O16 Sr2 2.522464 1_565
O16 Sr1 2.968656 1_565
O16 Sr6 3.063711 1_565
O17 Sr2 2.522464 1_655
O17 Sr1 2.968656 1_655
O17 Sr6 3.063711 1_555
O18 Sr2 2.522464 1_555
O18 Sr1 2.968656 1_556
O18 Sr6 3.063711 1_555
O19 Sr2 2.522464 1_665
O19 Sr1 2.968656 1_666
O19 Sr6 3.063711 1_565
O20 Sr3 2.522464 1_655
O20 Sr1 2.968656 1_655
O20 Sr7 3.063711 1_655
O21 Sr3 2.522464 1_556
O21 Sr1 2.968656 1_556
O21 Sr7 3.063711 1_555
O22 Sr3 2.522464 1_555
O22 Sr1 2.968656 1_565
O22 Sr7 3.063711 1_555
O23 Sr3 2.522464 1_656
O23 Sr1 2.968656 1_666
O23 Sr7 3.063711 1_655
