# generated using pymatgen
data_Li4SiO4
_symmetry_space_group_name_H-M   'P 1'
_cell_length_a   4.98181878
_cell_length_b   4.98430893
_cell_length_c   7.45868188
_cell_angle_alpha   82.62832057
_cell_angle_beta   70.99567042
_cell_angle_gamma   68.24452594
_symmetry_Int_Tables_number   1
_chemical_formula_structural   Li4SiO4
_chemical_formula_sum   'Li8 Si2 O8'
_cell_volume   162.63257654
_cell_formula_units_Z   2
loop_
 _symmetry_equiv_pos_site_id
 _symmetry_equiv_pos_as_xyz
  1  'x, y, z'
loop_
 _atom_site_type_symbol
 _atom_site_label
 _atom_site_symmetry_multiplicity
 _atom_site_fract_x
 _atom_site_fract_y
 _atom_site_fract_z
 _atom_site_occupancy
  Li  Li0  1  0.76251311  0.73493627  0.00517848  1
  Li  Li1  1  0.23748689  0.26506373  0.99482152  1
  Li  Li2  1  0.51171231  0.76242155  0.44343563  1
  Li  Li3  1  0.48828769  0.23757845  0.55656437  1
  Li  Li4  1  0.07681525  0.24972340  0.40757833  1
  Li  Li5  1  0.92318475  0.75027660  0.59242167  1
  Li  Li6  1  0.60955555  0.21285489  0.19447836  1
  Li  Li7  1  0.39044445  0.78714511  0.80552164  1
  Si  Si0  1  0.84093053  0.21817685  0.76312539  1
  Si  Si1  1  0.15906947  0.78182315  0.23687461  1
  O  O0  1  0.63554440  0.01311117  0.80603325  1
  O  O1  1  0.36445560  0.98688883  0.19396675  1
  O  O2  1  0.30038308  0.51746974  0.37468219  1
  O  O3  1  0.69961692  0.48253026  0.62531781  1
  O  O4  1  0.81940426  0.97128573  0.36941657  1
  O  O5  1  0.18059574  0.02871427  0.63058343  1
  O  O6  1  0.15020703  0.66504892  0.04697233  1
  O  O7  1  0.84979297  0.33495108  0.95302767  1
loop_
_geom_bond_atom_site_label_1
_geom_bond_atom_site_label_2
_geom_bond_distance
_geom_bond_site_symmetry_2
Li0 O7 1.939394 1_554
Li0 O6 1.953054 1_655
Li0 O0 1.990504 1_564
Li0 O1 2.069161 1_555
Li1 O6 1.939394 1_556
Li1 O7 1.953054 1_455
Li1 O1 1.990504 1_546
Li1 O0 2.069161 1_555
Li2 O5 1.945251 1_565
Li2 O3 2.009035 1_555
Li2 O4 2.054882 1_555
Li2 O2 2.080176 1_555
Li2 O1 2.235741 1_555
Li3 O4 1.945251 1_545
Li3 O2 2.009035 1_555
Li3 O5 2.054882 1_555
Li3 O3 2.080176 1_555
Li3 O0 2.235741 1_555
Li4 O5 1.978669 1_555
Li4 O2 1.980276 1_555
Li4 O1 1.991279 1_545
Li4 O3 2.096373 1_455
Li4 O4 2.304326 1_445
Li5 O4 1.978669 1_555
Li5 O3 1.980276 1_555
Li5 O0 1.991279 1_565
Li5 O2 2.096373 1_655
Li5 O5 2.304326 1_665
Li6 O1 1.945012 1_545
Li6 O4 1.948676 1_545
Li6 O7 1.975075 1_554
Li6 O2 1.981404 1_555
Li7 O0 1.945012 1_565
Li7 O5 1.948676 1_565
Li7 O6 1.975075 1_556
Li7 O3 1.981404 1_555
O0 Si0 1.634660 1_555
O1 Si1 1.634660 1_555
O2 Si1 1.650561 1_555
O3 Si0 1.650561 1_555
O4 Si1 1.642551 1_655
O5 Si0 1.642551 1_455
O6 Si1 1.618115 1_555
O7 Si0 1.618115 1_555
