# generated using pymatgen
data_CaAl2SiO6
_symmetry_space_group_name_H-M   'P 1'
_cell_length_a   8.75132800
_cell_length_b   5.33435000
_cell_length_c   9.69689454
_cell_angle_alpha   74.62660104
_cell_angle_beta   90.00000000
_cell_angle_gamma   90.00000000
_symmetry_Int_Tables_number   1
_chemical_formula_structural   CaAl2SiO6
_chemical_formula_sum   'Ca4 Al8 Si4 O24'
_cell_volume   436.47929042
_cell_formula_units_Z   4
loop_
 _symmetry_equiv_pos_site_id
 _symmetry_equiv_pos_as_xyz
  1  'x, y, z'
loop_
 _atom_site_type_symbol
 _atom_site_label
 _atom_site_symmetry_multiplicity
 _atom_site_fract_x
 _atom_site_fract_y
 _atom_site_fract_z
 _atom_site_occupancy
  Ca  Ca0  1  0.93674600  0.00000000  0.75000000  1
  Ca  Ca1  1  0.44201600  0.50000000  0.25000000  1
  Ca  Ca2  1  0.55798400  0.50000000  0.75000000  1
  Ca  Ca3  1  0.06325400  0.00000000  0.25000000  1
  Al  Al0  1  0.65372100  0.82394100  0.96630500  1
  Al  Al1  1  0.65372100  0.17605900  0.53369500  1
  Al  Al2  1  0.34627900  0.17605900  0.03369500  1
  Al  Al3  1  0.34627900  0.82394100  0.46630500  1
  Al  Al4  1  0.34718600  0.00000000  0.75000000  1
  Al  Al5  1  0.83917900  0.50000000  0.25000000  1
  Al  Al6  1  0.16082100  0.50000000  0.75000000  1
  Al  Al7  1  0.65281400  0.00000000  0.25000000  1
  Si  Si0  1  0.15211500  0.32630900  0.45783700  1
  Si  Si1  1  0.15211500  0.67369100  0.04216300  1
  Si  Si2  1  0.84788500  0.67369100  0.54216300  1
  Si  Si3  1  0.84788500  0.32630900  0.95783700  1
  O  O0  1  0.15763800  0.23740500  0.63579400  1
  O  O1  1  0.98732600  0.30573600  0.38217900  1
  O  O2  1  0.22477400  0.61780800  0.39579500  1
  O  O3  1  0.67705800  0.73238300  0.15405900  1
  O  O4  1  0.48028600  0.80413900  0.88312600  1
  O  O5  1  0.73685600  0.13249200  0.89441000  1
  O  O6  1  0.15763800  0.76259500  0.86420600  1
  O  O7  1  0.98732600  0.69426400  0.11782100  1
  O  O8  1  0.22477400  0.38219200  0.10420500  1
  O  O9  1  0.67705800  0.26761700  0.34594100  1
  O  O10  1  0.48028600  0.19586100  0.61687400  1
  O  O11  1  0.73685600  0.86750800  0.60559000  1
  O  O12  1  0.32294200  0.26761700  0.84594100  1
  O  O13  1  0.51971400  0.19586100  0.11687400  1
  O  O14  1  0.26314400  0.86750800  0.10559000  1
  O  O15  1  0.84236200  0.76259500  0.36420600  1
  O  O16  1  0.01267400  0.69426400  0.61782100  1
  O  O17  1  0.77522600  0.38219200  0.60420500  1
  O  O18  1  0.32294200  0.73238300  0.65405900  1
  O  O19  1  0.51971400  0.80413900  0.38312600  1
  O  O20  1  0.26314400  0.13249200  0.39441000  1
  O  O21  1  0.84236200  0.23740500  0.13579400  1
  O  O22  1  0.01267400  0.30573600  0.88217900  1
  O  O23  1  0.77522600  0.61780800  0.89579500  1
loop_
_geom_bond_atom_site_label_1
_geom_bond_atom_site_label_2
_geom_bond_distance
_geom_bond_site_symmetry_2
Ca0 O0 2.413185 1_655
Ca0 O6 2.413185 1_645
Ca0 O16 2.419202 1_645
Ca0 O22 2.419202 1_655
Ca0 O5 2.458707 1_555
Ca0 O11 2.458707 1_545
Ca0 O23 2.573904 1_545
Ca0 O17 2.573904 1_555
Ca1 O13 2.423093 1_555
Ca1 O19 2.423093 1_555
Ca1 O3 2.453903 1_555
Ca1 O9 2.453903 1_555
Ca1 O8 2.545408 1_555
Ca1 O2 2.545408 1_555
Ca1 O20 2.607482 1_555
Ca1 O14 2.607482 1_555
Ca2 O4 2.423093 1_555
Ca2 O10 2.423093 1_555
Ca2 O12 2.453903 1_555
Ca2 O18 2.453903 1_555
Ca2 O17 2.545408 1_555
Ca2 O23 2.545408 1_555
Ca2 O11 2.607482 1_555
Ca2 O5 2.607482 1_555
Ca3 O15 2.413185 1_445
Ca3 O21 2.413185 1_455
Ca3 O7 2.419202 1_445
Ca3 O1 2.419202 1_455
Ca3 O20 2.458707 1_555
Ca3 O14 2.458707 1_545
Ca3 O8 2.573904 1_555
Ca3 O2 2.573904 1_545
Al0 O4 1.735101 1_555
Al0 O5 1.765217 1_565
Al0 O3 1.767335 1_556
Al0 O23 1.790494 1_555
Al1 O10 1.735101 1_555
Al1 O11 1.765217 1_545
Al1 O9 1.767335 1_555
Al1 O17 1.790494 1_555
Al2 O13 1.735101 1_555
Al2 O14 1.765217 1_545
Al2 O12 1.767335 1_554
Al2 O8 1.790494 1_555
Al3 O19 1.735101 1_555
Al3 O20 1.765217 1_565
Al3 O18 1.767335 1_555
Al3 O2 1.790494 1_555
Al4 O4 1.843821 1_545
Al4 O10 1.843821 1_555
Al4 O12 1.911190 1_555
Al4 O18 1.911190 1_545
Al4 O0 2.199590 1_555
Al4 O6 2.199590 1_545
Al5 O7 1.921798 1_555
Al5 O1 1.921798 1_555
Al5 O9 1.950282 1_555
Al5 O3 1.950282 1_555
Al5 O21 2.002970 1_555
Al5 O15 2.002970 1_555
Al6 O16 1.921798 1_555
Al6 O22 1.921798 1_555
Al6 O18 1.950282 1_555
Al6 O12 1.950282 1_555
Al6 O6 2.002970 1_555
Al6 O0 2.002970 1_555
Al7 O13 1.843821 1_555
Al7 O19 1.843821 1_545
Al7 O3 1.911190 1_545
Al7 O9 1.911190 1_555
Al7 O15 2.199590 1_545
Al7 O21 2.199590 1_555
O0 Si0 1.664671 1_555
O1 Si0 1.634836 1_655
O2 Si0 1.639556 1_555
O5 Si3 1.651808 1_555
O6 Si1 1.664671 1_556
O7 Si1 1.634836 1_655
O8 Si1 1.639556 1_555
O11 Si2 1.651808 1_555
O14 Si1 1.651808 1_555
O15 Si2 1.664671 1_555
O16 Si2 1.634836 1_455
O17 Si2 1.639556 1_555
O20 Si0 1.651808 1_555
O21 Si3 1.664671 1_554
O22 Si3 1.634836 1_455
O23 Si3 1.639556 1_555
