# generated using pymatgen
data_TbNdCo4
_symmetry_space_group_name_H-M   'P 1'
_cell_length_a   5.11822351
_cell_length_b   5.11822351
_cell_length_c   5.11822351
_cell_angle_alpha   60.00000000
_cell_angle_beta   60.00000000
_cell_angle_gamma   60.00000000
_symmetry_Int_Tables_number   1
_chemical_formula_structural   TbNdCo4
_chemical_formula_sum   'Tb1 Nd1 Co4'
_cell_volume   94.80751069
_cell_formula_units_Z   1
loop_
 _symmetry_equiv_pos_site_id
 _symmetry_equiv_pos_as_xyz
  1  'x, y, z'
loop_
 _atom_site_type_symbol
 _atom_site_label
 _atom_site_symmetry_multiplicity
 _atom_site_fract_x
 _atom_site_fract_y
 _atom_site_fract_z
 _atom_site_occupancy
  Tb  Tb0  1  0.25000000  0.25000000  0.25000000  1
  Nd  Nd0  1  0.50000000  0.50000000  0.50000000  1
  Co  Co0  1  0.87541775  0.87541775  0.37374674  1
  Co  Co1  1  0.87541775  0.37374674  0.87541775  1
  Co  Co2  1  0.87541775  0.87541775  0.87541775  1
  Co  Co3  1  0.37374674  0.87541775  0.87541775  1
loop_
_geom_bond_atom_site_label_1
_geom_bond_atom_site_label_2
_geom_bond_distance
_geom_bond_site_symmetry_2
Nd0 Tb0 3.134259 1_555
Nd0 Tb0 3.134259 1_556
Nd0 Tb0 3.134259 1_565
Nd0 Tb0 3.134259 1_655
Co0 Co2 2.550559 1_554
Co0 Co3 2.550559 1_654
Co0 Co1 2.550559 1_564
Co0 Co2 2.567664 1_555
Co0 Co3 2.567664 1_555
Co0 Co1 2.567664 1_555
Co0 Tb0 2.999917 1_565
Co0 Tb0 2.999917 1_655
Co0 Tb0 2.999917 1_665
Co0 Nd0 3.001741 1_555
Co0 Nd0 3.001741 1_565
Co0 Nd0 3.001741 1_655
Co1 Co2 2.550559 1_545
Co1 Co3 2.550559 1_645
Co1 Co2 2.567664 1_555
Co1 Co3 2.567664 1_555
Co1 Tb0 2.999917 1_655
Co1 Tb0 2.999917 1_556
Co1 Tb0 2.999917 1_656
Co1 Nd0 3.001741 1_555
Co1 Nd0 3.001741 1_655
Co1 Nd0 3.001741 1_556
Co2 Co3 2.550559 1_655
Co2 Co3 2.567664 1_555
Co2 Tb0 2.999917 1_566
Co2 Tb0 2.999917 1_656
Co2 Tb0 2.999917 1_665
Co2 Nd0 3.001741 1_556
Co2 Nd0 3.001741 1_565
Co2 Nd0 3.001741 1_655
Co3 Tb0 2.999917 1_565
Co3 Tb0 2.999917 1_556
Co3 Tb0 2.999917 1_566
Co3 Nd0 3.001741 1_555
Co3 Nd0 3.001741 1_565
Co3 Nd0 3.001741 1_556
