# generated using pymatgen
data_Au3Cl
_symmetry_space_group_name_H-M   'P 1'
_cell_length_a   5.16410716
_cell_length_b   5.16410716
_cell_length_c   5.16410716
_cell_angle_alpha   131.26935022
_cell_angle_beta   131.26935022
_cell_angle_gamma   71.38548599
_symmetry_Int_Tables_number   1
_chemical_formula_structural   Au3Cl
_chemical_formula_sum   'Au3 Cl1'
_cell_volume   76.14579011
_cell_formula_units_Z   1
loop_
 _symmetry_equiv_pos_site_id
 _symmetry_equiv_pos_as_xyz
  1  'x, y, z'
loop_
 _atom_site_type_symbol
 _atom_site_label
 _atom_site_symmetry_multiplicity
 _atom_site_fract_x
 _atom_site_fract_y
 _atom_site_fract_z
 _atom_site_occupancy
  Au  Au0  1  0.75000000  0.25000000  0.50000000  1
  Au  Au1  1  0.25000000  0.75000000  0.50000000  1
  Au  Au2  1  0.50000000  0.50000000  0.00000000  1
  Cl  Cl0  1  0.00000000  0.00000000  0.00000000  1
loop_
_geom_bond_atom_site_label_1
_geom_bond_atom_site_label_2
_geom_bond_distance
_geom_bond_site_symmetry_2
Au0 Cl0 2.989390 1_555
Au0 Au2 2.989390 1_556
Au0 Cl0 2.989390 1_666
Au0 Au2 2.989390 1_555
Au0 Cl0 2.989390 1_656
Au0 Au2 2.989390 1_656
Au0 Cl0 2.989390 1_655
Au0 Au2 2.989390 1_545
Au0 Au1 3.012938 1_656
Au0 Au1 3.012938 1_645
Au0 Au1 3.012938 1_544
Au0 Au1 3.012938 1_555
Au1 Cl0 2.989390 1_555
Au1 Au2 2.989390 1_556
Au1 Cl0 2.989390 1_566
Au1 Au2 2.989390 1_455
Au1 Cl0 2.989390 1_666
Au1 Au2 2.989390 1_555
Au1 Au2 2.989390 1_566
Au1 Cl0 2.989390 1_565
Au2 Cl0 3.012938 1_666
Au2 Cl0 3.012938 1_565
Au2 Cl0 3.012938 1_655
Au2 Cl0 3.012938 1_554
