# generated using pymatgen
data_LiCo(CO3)2
_symmetry_space_group_name_H-M   'P 1'
_cell_length_a   5.17427397
_cell_length_b   6.62670312
_cell_length_c   15.52716319
_cell_angle_alpha   90.30087484
_cell_angle_beta   89.34229898
_cell_angle_gamma   113.43845474
_symmetry_Int_Tables_number   1
_chemical_formula_structural   LiCo(CO3)2
_chemical_formula_sum   'Li4 Co4 C8 O24'
_cell_volume   488.43935339
_cell_formula_units_Z   4
loop_
 _symmetry_equiv_pos_site_id
 _symmetry_equiv_pos_as_xyz
  1  'x, y, z'
loop_
 _atom_site_type_symbol
 _atom_site_label
 _atom_site_symmetry_multiplicity
 _atom_site_fract_x
 _atom_site_fract_y
 _atom_site_fract_z
 _atom_site_occupancy
  Li  Li0  1  0.41224800  0.75403400  0.03988000  1
  Li  Li1  1  0.37166200  0.59895600  0.53494200  1
  Li  Li2  1  0.58593000  0.77601700  0.28858600  1
  Li  Li3  1  0.64691000  0.86333900  0.77926500  1
  Co  Co0  1  0.01199800  0.01467300  0.99830500  1
  Co  Co1  1  0.98888700  0.48067700  0.74960900  1
  Co  Co2  1  0.01356000  0.01201900  0.49638100  1
  Co  Co3  1  0.97632300  0.48965200  0.24776600  1
  C  C0  1  0.87261600  0.13928600  0.13017700  1
  C  C1  1  0.88375700  0.10895500  0.62904500  1
  C  C2  1  0.13122400  0.39024000  0.38185000  1
  C  C3  1  0.10106400  0.35887100  0.87808200  1
  C  C4  1  0.86750900  0.65698600  0.11902700  1
  C  C5  1  0.86480000  0.61791800  0.62267500  1
  C  C6  1  0.12945900  0.86998200  0.36845400  1
  C  C7  1  0.14827200  0.85987400  0.87060700  1
  O  O0  1  0.69485600  0.07530800  0.06780900  1
  O  O1  1  0.72818900  0.06937800  0.56038700  1
  O  O2  1  0.30160800  0.45377400  0.31526200  1
  O  O3  1  0.26185300  0.40037900  0.81024000  1
  O  O4  1  0.80369100  0.19889200  0.20385200  1
  O  O5  1  0.80456000  0.14510200  0.70331100  1
  O  O6  1  0.21094500  0.34315000  0.45435500  1
  O  O7  1  0.17140300  0.30648800  0.95089900  1
  O  O8  1  0.88139500  0.38474400  0.36985600  1
  O  O9  1  0.86704500  0.38402200  0.86578600  1
  O  O10  1  0.11724200  0.13359900  0.11729300  1
  O  O11  1  0.12775100  0.09978900  0.61303600  1
  O  O12  1  0.72172700  0.62526200  0.18993400  1
  O  O13  1  0.72845100  0.58764900  0.69664100  1
  O  O14  1  0.27799800  0.91155000  0.43855300  1
  O  O15  1  0.28343400  0.89624800  0.94369500  1
  O  O16  1  0.78353500  0.71617900  0.04874400  1
  O  O17  1  0.77858200  0.67098600  0.55422600  1
  O  O18  1  0.20737400  0.80957900  0.29831500  1
  O  O19  1  0.24192400  0.80312600  0.80240400  1
  O  O20  1  0.89489200  0.90050100  0.37729700  1
  O  O21  1  0.91416800  0.89174500  0.87350900  1
  O  O22  1  0.09548200  0.61992000  0.12162600  1
  O  O23  1  0.09567900  0.58115000  0.62863100  1
loop_
_geom_bond_atom_site_label_1
_geom_bond_atom_site_label_2
_geom_bond_distance
_geom_bond_site_symmetry_2
Li0 O22 1.972975 1_555
Li0 O15 2.024895 1_554
Li0 O16 2.040213 1_555
Li0 O0 2.094557 1_565
Li1 O17 1.991017 1_555
Li1 O23 1.997356 1_555
Li1 O6 2.002743 1_555
Li2 O20 2.030520 1_555
Li2 O18 2.061167 1_555
Li2 O12 2.087043 1_555
Li2 O2 2.095704 1_555
Li3 O21 1.981314 1_555
Li3 O19 1.999626 1_555
Li3 O5 2.081332 1_565
Li3 O13 2.395342 1_555
Co0 O7 1.921912 1_555
Co0 O10 1.999363 1_556
Co0 O16 2.014508 1_446
Co0 O15 2.037138 1_545
Co0 O21 2.086268 1_445
Co0 O0 2.120912 1_456
Co1 O9 1.930427 1_555
Co1 O13 1.945853 1_555
Co1 O3 1.948839 1_655
Co1 O23 1.993443 1_655
Co1 O5 2.164076 1_555
Co1 O19 2.175470 1_655
Co2 O11 1.925721 1_555
Co2 O1 1.929073 1_455
Co2 O14 1.952405 1_545
Co2 O20 1.998202 1_445
Co2 O6 2.121505 1_555
Co2 O17 2.280922 1_445
Co3 O4 1.899030 1_555
Co3 O8 2.009750 1_555
Co3 O12 2.080078 1_555
Co3 O2 2.085474 1_655
Co3 O18 2.127842 1_655
Co3 O22 2.127924 1_655
C0 O0 1.292073 1_555
C0 O10 1.294469 1_655
C0 O4 1.299928 1_555
C1 O5 1.272546 1_555
C1 O1 1.304623 1_555
C1 O11 1.308818 1_655
C2 O6 1.285185 1_555
C2 O8 1.294234 1_455
C2 O2 1.308381 1_555
C3 O7 1.282725 1_555
C3 O3 1.295507 1_555
C3 O9 1.302554 1_455
C4 O12 1.297138 1_555
C4 O16 1.297903 1_555
C4 O22 1.298112 1_655
C5 O17 1.261700 1_555
C5 O13 1.314620 1_555
C5 O23 1.315063 1_655
C6 O18 1.273782 1_555
C6 O14 1.303429 1_555
C6 O20 1.313016 1_455
C7 O19 1.275428 1_555
C7 O21 1.309998 1_455
C7 O15 1.310090 1_555
