# generated using pymatgen
data_MgV8(OF)8
_symmetry_space_group_name_H-M   'P 1'
_cell_length_a   4.91824539
_cell_length_b   10.49622666
_cell_length_c   5.72775859
_cell_angle_alpha   83.98767740
_cell_angle_beta   92.82543033
_cell_angle_gamma   88.94211472
_symmetry_Int_Tables_number   1
_chemical_formula_structural   MgV8(OF)8
_chemical_formula_sum   'Mg1 V8 O8 F8'
_cell_volume   293.61718461
_cell_formula_units_Z   1
loop_
 _symmetry_equiv_pos_site_id
 _symmetry_equiv_pos_as_xyz
  1  'x, y, z'
loop_
 _atom_site_type_symbol
 _atom_site_label
 _atom_site_symmetry_multiplicity
 _atom_site_fract_x
 _atom_site_fract_y
 _atom_site_fract_z
 _atom_site_occupancy
  Mg  Mg0  1  0.00663101  0.10682999  0.62562118  1
  V  V0  1  0.48379194  0.27380946  0.73875518  1
  V  V1  1  0.50129813  0.99361801  0.50853984  1
  V  V2  1  0.52254985  0.73385296  0.26343487  1
  V  V3  1  0.49680130  0.50656465  0.99010070  1
  V  V4  1  0.97743262  0.25732340  0.22055416  1
  V  V5  1  0.02215313  0.76344291  0.75468401  1
  V  V6  1  0.00492629  0.50681021  0.49773879  1
  V  V7  1  0.98528406  0.98905762  0.05756343  1
  O  O0  1  0.81044836  0.08367055  0.31981781  1
  O  O1  1  0.69406779  0.82568488  0.53162378  1
  O  O2  1  0.69701179  0.56870527  0.28135716  1
  O  O3  1  0.68962809  0.33789349  0.02576946  1
  O  O4  1  0.29644711  0.44769504  0.71458218  1
  O  O5  1  0.30801357  0.68252127  0.98258452  1
  O  O6  1  0.30844320  0.17626069  0.46020312  1
  O  O7  1  0.17887906  0.93720521  0.72598444  1
  F  F0  1  0.81511731  0.58471292  0.76987042  1
  F  F1  1  0.83544342  0.31883189  0.53441323  1
  F  F2  1  0.80977232  0.81377335  0.04115562  1
  F  F3  1  0.67594825  0.07837807  0.80320446  1
  F  F4  1  0.33439529  0.91641764  0.22551211  1
  F  F5  1  0.18937827  0.68368753  0.47159504  1
  F  F6  1  0.15259483  0.17883415  0.93878142  1
  F  F7  1  0.18965400  0.42816882  0.21893408  1
loop_
_geom_bond_atom_site_label_1
_geom_bond_atom_site_label_2
_geom_bond_distance
_geom_bond_site_symmetry_2
Mg0 O6 1.914721 1_555
Mg0 O7 1.974822 1_545
Mg0 O0 1.997324 1_455
O0 V4 2.050413 1_555
O0 V1 2.091602 1_545
O0 V7 2.095305 1_545
O1 V1 1.974956 1_555
O1 V2 2.052511 1_555
O1 V5 2.060547 1_655
O2 V2 1.910673 1_555
O2 V6 1.965069 1_655
O2 V3 2.065860 1_554
O3 V4 1.888385 1_555
O3 V3 1.979553 1_554
O3 V0 2.067024 1_554
O4 V6 1.900916 1_555
O4 V3 1.979057 1_555
O4 V0 2.017844 1_555
O5 V5 1.986140 1_555
O5 V2 2.006632 1_556
O5 V3 2.047199 1_555
O6 V1 2.108842 1_545
O6 V0 2.139353 1_555
O6 V4 2.177696 1_455
O7 V5 1.987260 1_555
O7 V1 2.119257 1_555
O7 V7 2.277158 1_456
F0 V6 2.086121 1_655
F0 V5 2.146818 1_655
F0 V3 2.177234 1_555
F1 V4 2.118134 1_555
F1 V6 2.150137 1_655
F1 V0 2.167552 1_555
F1 Mg0 2.361636 1_655
F2 V7 2.055670 1_555
F2 V2 2.077857 1_555
F2 V5 2.095873 1_654
F3 Mg0 1.971366 1_655
F3 V1 2.139564 1_545
F3 V7 2.181477 1_546
F3 V0 2.229938 1_555
F4 V7 2.022381 1_455
F4 V1 2.031501 1_555
F4 V2 2.098337 1_555
F5 V6 2.075934 1_555
F5 V5 2.096847 1_555
F5 V2 2.115854 1_555
F6 V4 2.101199 1_456
F6 Mg0 2.116838 1_555
F6 V7 2.222530 1_446
F6 V0 2.228102 1_555
F7 V4 2.090880 1_455
F7 V6 2.109132 1_555
F7 V3 2.166147 1_554
