# generated using pymatgen
data_PrSe2NO13
_symmetry_space_group_name_H-M   'P 1'
_cell_length_a   5.88459000
_cell_length_b   10.17138800
_cell_length_c   18.44318800
_cell_angle_alpha   90.00000000
_cell_angle_beta   90.00000000
_cell_angle_gamma   90.00000000
_symmetry_Int_Tables_number   1
_chemical_formula_structural   PrSe2NO13
_chemical_formula_sum   'Pr4 Se8 N4 O52'
_cell_volume   1103.90683915
_cell_formula_units_Z   4
loop_
 _symmetry_equiv_pos_site_id
 _symmetry_equiv_pos_as_xyz
  1  'x, y, z'
loop_
 _atom_site_type_symbol
 _atom_site_label
 _atom_site_symmetry_multiplicity
 _atom_site_fract_x
 _atom_site_fract_y
 _atom_site_fract_z
 _atom_site_occupancy
  Pr  Pr0  1  0.25000000  0.25000000  0.95238400  1
  Pr  Pr1  1  0.75000000  0.75000000  0.54761600  1
  Pr  Pr2  1  0.75000000  0.75000000  0.04761600  1
  Pr  Pr3  1  0.25000000  0.25000000  0.45238400  1
  Se  Se0  1  0.25826500  0.98592400  0.11274000  1
  Se  Se1  1  0.24173500  0.51407600  0.11274000  1
  Se  Se2  1  0.75826500  0.01407600  0.38726000  1
  Se  Se3  1  0.74173500  0.48592400  0.38726000  1
  Se  Se4  1  0.74173500  0.01407600  0.88726000  1
  Se  Se5  1  0.75826500  0.48592400  0.88726000  1
  Se  Se6  1  0.24173500  0.98592400  0.61274000  1
  Se  Se7  1  0.25826500  0.51407600  0.61274000  1
  N  N0  1  0.75000000  0.25000000  0.70492900  1
  N  N1  1  0.25000000  0.75000000  0.79507100  1
  N  N2  1  0.25000000  0.75000000  0.29507100  1
  N  N3  1  0.75000000  0.25000000  0.20492900  1
  O  O0  1  0.28348900  0.45999400  0.69688200  1
  O  O1  1  0.21651100  0.04000600  0.69688200  1
  O  O2  1  0.78348900  0.54000600  0.80311800  1
  O  O3  1  0.71651100  0.95999400  0.80311800  1
  O  O4  1  0.71651100  0.54000600  0.30311800  1
  O  O5  1  0.78348900  0.95999400  0.30311800  1
  O  O6  1  0.21651100  0.45999400  0.19688200  1
  O  O7  1  0.28348900  0.04000600  0.19688200  1
  O  O8  1  0.56013000  0.36656600  0.89253300  1
  O  O9  1  0.93987000  0.13343400  0.89253300  1
  O  O10  1  0.06013000  0.63343400  0.60746700  1
  O  O11  1  0.43987000  0.86656600  0.60746700  1
  O  O12  1  0.43987000  0.63343400  0.10746700  1
  O  O13  1  0.06013000  0.86656600  0.10746700  1
  O  O14  1  0.93987000  0.36656600  0.39253300  1
  O  O15  1  0.56013000  0.13343400  0.39253300  1
  O  O16  1  0.84825400  0.34776500  0.70721800  1
  O  O17  1  0.65174600  0.15223500  0.70721800  1
  O  O18  1  0.34825400  0.65223500  0.79278200  1
  O  O19  1  0.15174600  0.84776500  0.79278200  1
  O  O20  1  0.15174600  0.65223500  0.29278200  1
  O  O21  1  0.34825400  0.84776500  0.29278200  1
  O  O22  1  0.65174600  0.34776500  0.20721800  1
  O  O23  1  0.84825400  0.15223500  0.20721800  1
  O  O24  1  0.18259800  0.39318800  0.55617100  1
  O  O25  1  0.31740200  0.10681200  0.55617100  1
  O  O26  1  0.68259800  0.60681200  0.94382900  1
  O  O27  1  0.81740200  0.89318800  0.94382900  1
  O  O28  1  0.81740200  0.60681200  0.44382900  1
  O  O29  1  0.68259800  0.89318800  0.44382900  1
  O  O30  1  0.31740200  0.39318800  0.05617100  1
  O  O31  1  0.18259800  0.10681200  0.05617100  1
  O  O32  1  0.25000000  0.25000000  0.81755900  1
  O  O33  1  0.75000000  0.75000000  0.68244100  1
  O  O34  1  0.75000000  0.75000000  0.18244100  1
  O  O35  1  0.25000000  0.25000000  0.31755900  1
  O  O36  1  0.00991100  0.42603800  0.91512200  1
  O  O37  1  0.49008900  0.07396200  0.91512200  1
  O  O38  1  0.50991100  0.57396200  0.58487800  1
  O  O39  1  0.99008900  0.92603800  0.58487800  1
  O  O40  1  0.99008900  0.57396200  0.08487800  1
  O  O41  1  0.50991100  0.92603800  0.08487800  1
  O  O42  1  0.49008900  0.42603800  0.41512200  1
  O  O43  1  0.00991100  0.07396200  0.41512200  1
  O  O44  1  0.82307600  0.29359300  0.04142000  1
  O  O45  1  0.67692400  0.20640700  0.04142000  1
  O  O46  1  0.32307600  0.70640700  0.45858000  1
  O  O47  1  0.17692400  0.79359300  0.45858000  1
  O  O48  1  0.17692400  0.70640700  0.95858000  1
  O  O49  1  0.32307600  0.79359300  0.95858000  1
  O  O50  1  0.67692400  0.29359300  0.54142000  1
  O  O51  1  0.82307600  0.20640700  0.54142000  1
loop_
_geom_bond_atom_site_label_1
_geom_bond_atom_site_label_2
_geom_bond_distance
_geom_bond_site_symmetry_2
N0 O16 1.151053 1_555
N0 O17 1.151053 1_555
N1 O19 1.151053 1_555
N1 O18 1.151053 1_555
N2 O20 1.151053 1_555
N2 O21 1.151053 1_555
N3 O22 1.151053 1_555
N3 O23 1.151053 1_555
O0 Se7 1.653136 1_555
O1 Se6 1.653136 1_545
O2 Se5 1.653136 1_555
O3 Se4 1.653136 1_565
O4 Se3 1.653136 1_555
O5 Se2 1.653136 1_565
O6 Se1 1.653136 1_555
O7 Se0 1.653136 1_545
O8 Se5 1.686050 1_555
O8 Pr0 2.440243 1_555
O9 Se4 1.686050 1_555
O9 Pr0 2.440243 1_655
O10 Se7 1.686050 1_555
O10 Pr1 2.440243 1_455
O11 Se6 1.686050 1_555
O11 Pr1 2.440243 1_555
O12 Se1 1.686050 1_555
O12 Pr2 2.440243 1_555
O13 Se0 1.686050 1_555
O13 Pr2 2.440243 1_455
O14 Se3 1.686050 1_555
O14 Pr3 2.440243 1_655
O15 Se2 1.686050 1_555
O15 Pr3 2.440243 1_555
O24 Se7 1.672925 1_555
O24 Pr3 2.437724 1_555
O25 Se6 1.672925 1_545
O25 Pr3 2.437724 1_555
O26 Se5 1.672925 1_555
O26 Pr2 2.437724 1_556
O27 Se4 1.672925 1_565
O27 Pr2 2.437724 1_556
O28 Se3 1.672925 1_555
O28 Pr1 2.437724 1_555
O29 Se2 1.672925 1_565
O29 Pr1 2.437724 1_555
O30 Se1 1.672925 1_555
O30 Pr0 2.437724 1_554
O31 Se0 1.672925 1_545
O31 Pr0 2.437724 1_554
O32 Pr0 2.486603 1_555
O33 Pr1 2.486603 1_555
O34 Pr2 2.486603 1_555
O35 Pr3 2.486603 1_555
O36 Se5 1.681653 1_455
O36 Pr0 2.382107 1_555
O37 Se4 1.681653 1_555
O37 Pr0 2.382107 1_555
O38 Se7 1.681653 1_555
O38 Pr1 2.382107 1_555
O39 Se6 1.681653 1_655
O39 Pr1 2.382107 1_555
O40 Se1 1.681653 1_655
O40 Pr2 2.382107 1_555
O41 Se0 1.681653 1_555
O41 Pr2 2.382107 1_555
O42 Se3 1.681653 1_555
O42 Pr3 2.382107 1_555
O43 Se2 1.681653 1_455
O43 Pr3 2.382107 1_555
O44 O45 1.235352 1_555
O46 O47 1.235352 1_555
O48 O49 1.235352 1_555
O50 O51 1.235352 1_555
