# generated using pymatgen
data_Pr3Sb4Pt3
_symmetry_space_group_name_H-M   'P 1'
_cell_length_a   8.64527120
_cell_length_b   8.64569797
_cell_length_c   8.64593868
_cell_angle_alpha   109.47306014
_cell_angle_beta   109.47319751
_cell_angle_gamma   109.47095283
_symmetry_Int_Tables_number   1
_chemical_formula_structural   Pr3Sb4Pt3
_chemical_formula_sum   'Pr6 Sb8 Pt6'
_cell_volume   497.45055576
_cell_formula_units_Z   2
loop_
 _symmetry_equiv_pos_site_id
 _symmetry_equiv_pos_as_xyz
  1  'x, y, z'
loop_
 _atom_site_type_symbol
 _atom_site_label
 _atom_site_symmetry_multiplicity
 _atom_site_fract_x
 _atom_site_fract_y
 _atom_site_fract_z
 _atom_site_occupancy
  Pr  Pr0  1  0.87499450  0.24997890  0.12499009  1
  Pr  Pr1  1  0.62501502  0.75002145  0.37499888  1
  Pr  Pr2  1  0.24999138  0.12499761  0.87498859  1
  Pr  Pr3  1  0.75000318  0.37499998  0.62501037  1
  Pr  Pr4  1  0.12498850  0.87500988  0.24999534  1
  Pr  Pr5  1  0.37501547  0.62500663  0.75001824  1
  Sb  Sb0  1  0.65763787  0.50010453  -0.00000822  1
  Sb  Sb1  1  0.50000849  0.00000658  0.65762736  1
  Sb  Sb2  1  -0.00000155  0.65762435  0.50000026  1
  Sb  Sb3  1  0.84236487  0.84236428  0.84246647  1
  Sb  Sb4  1  0.49999359  -0.00009729  0.15757102  1
  Sb  Sb5  1  0.15761394  0.50002965  -0.00003125  1
  Sb  Sb6  1  0.00000936  0.15757854  0.49991217  1
  Sb  Sb7  1  0.34235654  0.34236003  0.34246103  1
  Pt  Pt0  1  0.37500104  0.25000229  0.62499792  1
  Pt  Pt1  1  0.12500242  0.75000174  0.87499966  1
  Pt  Pt2  1  0.25000064  0.62500210  0.37500096  1
  Pt  Pt3  1  0.75000054  0.87500052  0.12499877  1
  Pt  Pt4  1  0.62500260  0.37500396  0.25000129  1
  Pt  Pt5  1  0.87500161  0.12500425  0.75000107  1
loop_
_geom_bond_atom_site_label_1
_geom_bond_atom_site_label_2
_geom_bond_distance
_geom_bond_site_symmetry_2
Pr0 Pt3 3.056580 1_545
Pr0 Pt2 3.056631 1_655
Pr0 Pt5 3.056706 1_554
Pr0 Pt4 3.056721 1_555
Pr0 Sb3 3.406480 1_544
Pr0 Sb4 3.406828 1_555
Pr0 Sb2 3.406996 1_655
Pr0 Sb5 3.407256 1_655
Pr0 Sb6 3.504317 1_655
Pr0 Sb7 3.504396 1_655
Pr0 Sb1 3.504446 1_554
Pr0 Sb0 3.505523 1_555
Pr1 Pt5 3.056529 1_565
Pr1 Pt3 3.056654 1_555
Pr1 Pt2 3.056696 1_555
Pr1 Pt4 3.056773 1_555
Pr1 Sb6 3.406654 1_665
Pr1 Sb0 3.406717 1_555
Pr1 Sb1 3.406895 1_565
Pr1 Sb7 3.407592 1_555
Pr1 Sb4 3.504167 1_565
Pr1 Sb2 3.504531 1_655
Pr1 Sb5 3.504675 1_555
Pr1 Sb3 3.505500 1_555
Pr2 Pt5 3.056471 1_455
Pr2 Pt4 3.056609 1_556
Pr2 Pt1 3.056732 1_545
Pr2 Pt0 3.056779 1_555
Pr2 Sb6 3.407116 1_555
Pr2 Sb3 3.407261 1_445
Pr2 Sb4 3.407295 1_556
Pr2 Sb0 3.407320 1_556
Pr2 Sb2 3.504539 1_545
Pr2 Sb1 3.504692 1_555
Pr2 Sb5 3.504907 1_556
Pr2 Sb7 3.505504 1_556
Pr3 Pt1 3.056516 1_655
Pr3 Pt0 3.056537 1_555
Pr3 Pt5 3.056633 1_555
Pr3 Pt4 3.056854 1_555
Pr3 Sb5 3.406382 1_656
Pr3 Sb7 3.406578 1_555
Pr3 Sb1 3.406811 1_555
Pr3 Sb2 3.406988 1_655
Pr3 Sb0 3.504626 1_556
Pr3 Sb3 3.504657 1_555
Pr3 Sb6 3.505209 1_655
Pr3 Sb4 3.505232 1_555
Pr4 Pt3 3.056391 1_455
Pr4 Pt0 3.056569 1_565
Pr4 Pt1 3.056788 1_554
Pr4 Pt2 3.056848 1_555
Pr4 Sb6 3.406087 1_565
Pr4 Sb3 3.406134 1_454
Pr4 Sb5 3.406827 1_555
Pr4 Sb1 3.406897 1_565
Pr4 Sb0 3.504038 1_455
Pr4 Sb7 3.504199 1_565
Pr4 Sb4 3.504854 1_565
Pr4 Sb2 3.504869 1_555
Pr5 Pt3 3.056372 1_556
Pr5 Pt1 3.056650 1_555
Pr5 Pt0 3.056658 1_555
Pr5 Pt2 3.056886 1_555
Pr5 Sb0 3.406067 1_556
Pr5 Sb4 3.406100 1_566
Pr5 Sb7 3.406387 1_555
Pr5 Sb2 3.406885 1_555
Pr5 Sb3 3.504064 1_555
Pr5 Sb5 3.504457 1_556
Pr5 Sb6 3.504765 1_555
Pr5 Sb1 3.504834 1_565
Pt0 Sb7 2.770484 1_555
Pt0 Sb6 2.770795 1_555
Pt0 Sb0 2.771175 1_556
Pt0 Sb1 2.771214 1_555
Pt1 Sb4 2.770773 1_566
Pt1 Sb5 2.770849 1_556
Pt1 Sb3 2.771222 1_455
Pt1 Sb2 2.771242 1_555
Pt2 Sb1 2.771134 1_565
Pt2 Sb2 2.771182 1_555
Pt2 Sb7 2.771308 1_555
Pt2 Sb5 2.771522 1_555
Pt3 Sb0 2.770365 1_555
Pt3 Sb3 2.770465 1_554
Pt3 Sb4 2.770564 1_565
Pt3 Sb6 2.770569 1_665
Pt4 Sb2 2.770980 1_655
Pt4 Sb7 2.771766 1_555
Pt4 Sb4 2.771908 1_555
Pt4 Sb0 2.771953 1_555
Pt5 Sb1 2.770990 1_555
Pt5 Sb5 2.771167 1_656
Pt5 Sb3 2.771867 1_545
Pt5 Sb6 2.771956 1_655
