# generated using pymatgen
data_YPd3S4
_symmetry_space_group_name_H-M   'P 1'
_cell_length_a   6.67227342
_cell_length_b   6.67227342
_cell_length_c   6.67227342
_cell_angle_alpha   90.00000000
_cell_angle_beta   90.00000000
_cell_angle_gamma   90.00000000
_symmetry_Int_Tables_number   1
_chemical_formula_structural   YPd3S4
_chemical_formula_sum   'Y2 Pd6 S8'
_cell_volume   297.04449230
_cell_formula_units_Z   2
loop_
 _symmetry_equiv_pos_site_id
 _symmetry_equiv_pos_as_xyz
  1  'x, y, z'
loop_
 _atom_site_type_symbol
 _atom_site_label
 _atom_site_symmetry_multiplicity
 _atom_site_fract_x
 _atom_site_fract_y
 _atom_site_fract_z
 _atom_site_occupancy
  Y  Y0  1  0.00000000  -0.00000000  -0.00000000  1
  Y  Y1  1  0.50000000  0.50000000  0.50000000  1
  Pd  Pd0  1  0.25000000  -0.00000000  0.50000000  1
  Pd  Pd1  1  0.75000000  -0.00000000  0.50000000  1
  Pd  Pd2  1  0.50000000  0.25000000  -0.00000000  1
  Pd  Pd3  1  0.50000000  0.75000000  -0.00000000  1
  Pd  Pd4  1  0.00000000  0.50000000  0.25000000  1
  Pd  Pd5  1  0.00000000  0.50000000  0.75000000  1
  S  S0  1  0.25000000  0.25000000  0.25000000  1
  S  S1  1  0.75000000  0.75000000  0.75000000  1
  S  S2  1  0.75000000  0.75000000  0.25000000  1
  S  S3  1  0.75000000  0.25000000  0.75000000  1
  S  S4  1  0.25000000  0.25000000  0.75000000  1
  S  S5  1  0.25000000  0.75000000  0.25000000  1
  S  S6  1  0.25000000  0.75000000  0.75000000  1
  S  S7  1  0.75000000  0.25000000  0.25000000  1
loop_
_geom_bond_atom_site_label_1
_geom_bond_atom_site_label_2
_geom_bond_distance
_geom_bond_site_symmetry_2
Pd0 S0 2.359005 1_555
Pd0 S5 2.359005 1_545
Pd0 S6 2.359005 1_545
Pd0 S4 2.359005 1_555
Pd1 S7 2.359005 1_555
Pd1 S3 2.359005 1_555
Pd1 S2 2.359005 1_545
Pd1 S1 2.359005 1_545
Pd2 S7 2.359005 1_555
Pd2 S3 2.359005 1_554
Pd2 S0 2.359005 1_555
Pd2 S4 2.359005 1_554
Pd3 S6 2.359005 1_554
Pd3 S1 2.359005 1_554
Pd3 S5 2.359005 1_555
Pd3 S2 2.359005 1_555
Pd4 S5 2.359005 1_555
Pd4 S0 2.359005 1_555
Pd4 S2 2.359005 1_455
Pd4 S7 2.359005 1_455
Pd5 S6 2.359005 1_555
Pd5 S1 2.359005 1_455
Pd5 S3 2.359005 1_455
Pd5 S4 2.359005 1_555
S0 Y1 2.889179 1_555
S0 Y0 2.889179 1_555
S1 Y1 2.889179 1_555
S1 Y0 2.889179 1_666
S2 Y1 2.889179 1_555
S2 Y0 2.889179 1_665
S3 Y1 2.889179 1_555
S3 Y0 2.889179 1_656
S4 Y1 2.889179 1_555
S4 Y0 2.889179 1_556
S5 Y1 2.889179 1_555
S5 Y0 2.889179 1_565
S6 Y1 2.889179 1_555
S6 Y0 2.889179 1_566
S7 Y1 2.889179 1_555
S7 Y0 2.889179 1_655
