# generated using pymatgen
data_NaLiMg14O15
_symmetry_space_group_name_H-M   'P 1'
_cell_length_a   4.28158800
_cell_length_b   8.53176100
_cell_length_c   8.62417100
_cell_angle_alpha   90.00000000
_cell_angle_beta   90.00000000
_cell_angle_gamma   90.00000000
_symmetry_Int_Tables_number   1
_chemical_formula_structural   NaLiMg14O15
_chemical_formula_sum   'Na1 Li1 Mg14 O15'
_cell_volume   315.03652964
_cell_formula_units_Z   1
loop_
 _symmetry_equiv_pos_site_id
 _symmetry_equiv_pos_as_xyz
  1  'x, y, z'
loop_
 _atom_site_type_symbol
 _atom_site_label
 _atom_site_symmetry_multiplicity
 _atom_site_fract_x
 _atom_site_fract_y
 _atom_site_fract_z
 _atom_site_occupancy
  Na  Na0  1  0.00000000  0.49644200  0.50000000  1
  Li  Li0  1  0.00000000  0.02243300  0.00000000  1
  Mg  Mg0  1  0.00000000  0.00200200  0.50000000  1
  Mg  Mg1  1  0.00000000  0.47777000  0.00000000  1
  Mg  Mg2  1  0.50000000  0.99889300  0.24520400  1
  Mg  Mg3  1  0.50000000  0.99889300  0.75479600  1
  Mg  Mg4  1  0.50000000  0.50123000  0.25271900  1
  Mg  Mg5  1  0.50000000  0.50123000  0.74728100  1
  Mg  Mg6  1  0.50000000  0.75432300  0.00000000  1
  Mg  Mg7  1  0.50000000  0.74804600  0.50000000  1
  Mg  Mg8  1  0.50000000  0.23892100  0.00000000  1
  Mg  Mg9  1  0.50000000  0.25219000  0.50000000  1
  Mg  Mg10  1  0.00000000  0.75162000  0.27327800  1
  Mg  Mg11  1  0.00000000  0.75162000  0.72672200  1
  Mg  Mg12  1  0.00000000  0.24434400  0.25064300  1
  Mg  Mg13  1  0.00000000  0.24434400  0.74935700  1
  O  O0  1  0.00000000  0.76282400  0.50000000  1
  O  O1  1  0.00000000  0.24831300  0.00000000  1
  O  O2  1  0.00000000  0.23658800  0.50000000  1
  O  O3  1  0.50000000  0.75033400  0.24114400  1
  O  O4  1  0.50000000  0.75033400  0.75885600  1
  O  O5  1  0.50000000  0.25111400  0.24683400  1
  O  O6  1  0.50000000  0.25111400  0.75316600  1
  O  O7  1  0.50000000  0.98868000  0.00000000  1
  O  O8  1  0.50000000  0.99693300  0.50000000  1
  O  O9  1  0.50000000  0.51286600  0.00000000  1
  O  O10  1  0.50000000  0.50346300  0.50000000  1
  O  O11  1  0.00000000  0.99242700  0.24800600  1
  O  O12  1  0.00000000  0.99242700  0.75199400  1
  O  O13  1  0.00000000  0.51414100  0.22774300  1
  O  O14  1  0.00000000  0.51414100  0.77225700  1
loop_
_geom_bond_atom_site_label_1
_geom_bond_atom_site_label_2
_geom_bond_distance
_geom_bond_site_symmetry_2
Na0 O10 2.141632 1_455
Na0 O10 2.141632 1_555
Na0 O2 2.217012 1_555
Na0 O0 2.272708 1_555
Na0 O14 2.352842 1_555
Na0 O13 2.352842 1_555
Li0 O1 1.927154 1_555
Li0 O11 2.154113 1_545
Li0 O12 2.154113 1_544
Li0 O7 2.160076 1_445
Li0 O7 2.160076 1_545
Mg0 O2 2.001432 1_555
Mg0 O0 2.040610 1_545
Mg0 O8 2.141231 1_445
Mg0 O8 2.141231 1_545
Mg0 O12 2.174774 1_545
Mg0 O11 2.174774 1_545
Mg1 O1 1.957672 1_555
Mg1 O13 1.988456 1_555
Mg1 O14 1.988456 1_554
Mg1 O9 2.161633 1_455
Mg1 O9 2.161633 1_555
Mg2 O7 2.116476 1_555
Mg2 O3 2.120935 1_555
Mg2 O11 2.141641 1_655
Mg2 O11 2.141641 1_555
Mg2 O5 2.151935 1_565
Mg2 O8 2.197468 1_555
Mg3 O7 2.116476 1_556
Mg3 O4 2.120935 1_555
Mg3 O12 2.141641 1_655
Mg3 O12 2.141641 1_555
Mg3 O6 2.151935 1_565
Mg3 O8 2.197468 1_555
Mg4 O3 2.127639 1_555
Mg4 O10 2.132679 1_555
Mg4 O5 2.134533 1_555
Mg4 O13 2.154421 1_555
Mg4 O13 2.154421 1_655
Mg4 O9 2.181752 1_555
Mg5 O4 2.127639 1_555
Mg5 O10 2.132679 1_555
Mg5 O6 2.134533 1_555
Mg5 O14 2.154421 1_555
Mg5 O14 2.154421 1_655
Mg5 O9 2.181752 1_556
Mg6 O7 1.999478 1_555
Mg6 O9 2.060053 1_555
Mg6 O3 2.079946 1_555
Mg6 O4 2.079946 1_554
Mg7 O10 2.086724 1_555
Mg7 O8 2.123444 1_555
Mg7 O0 2.144504 1_555
Mg7 O0 2.144504 1_655
Mg7 O4 2.232504 1_555
Mg7 O3 2.232504 1_555
Mg8 O5 2.131279 1_555
Mg8 O6 2.131279 1_554
Mg8 O7 2.134996 1_545
Mg8 O1 2.142293 1_655
Mg8 O1 2.142293 1_555
Mg8 O9 2.337233 1_555
Mg9 O10 2.143801 1_555
Mg9 O2 2.144928 1_555
Mg9 O2 2.144928 1_655
Mg9 O8 2.177792 1_545
Mg9 O6 2.183366 1_555
Mg9 O5 2.183366 1_555
Mg10 O0 1.957624 1_555
Mg10 O13 2.063820 1_555
Mg10 O11 2.066036 1_555
Mg10 O3 2.158685 1_455
Mg10 O3 2.158685 1_555
Mg11 O0 1.957624 1_555
Mg11 O14 2.063820 1_555
Mg11 O12 2.066036 1_555
Mg11 O4 2.158685 1_555
Mg11 O4 2.158685 1_455
Mg12 O5 2.141825 1_455
Mg12 O5 2.141825 1_555
Mg12 O11 2.149416 1_545
Mg12 O2 2.151515 1_555
Mg12 O1 2.161853 1_555
Mg12 O13 2.310300 1_555
Mg13 O6 2.141825 1_555
Mg13 O6 2.141825 1_455
Mg13 O12 2.149416 1_545
Mg13 O2 2.151515 1_555
Mg13 O1 2.161853 1_556
Mg13 O14 2.310300 1_555
