# generated using pymatgen
data_Na2AgAsBr6
_symmetry_space_group_name_H-M   'P 1'
_cell_length_a   7.68575149
_cell_length_b   7.68575149
_cell_length_c   7.68575149
_cell_angle_alpha   60.00000000
_cell_angle_beta   60.00000000
_cell_angle_gamma   60.00000000
_symmetry_Int_Tables_number   1
_chemical_formula_structural   Na2AgAsBr6
_chemical_formula_sum   'Na2 Ag1 As1 Br6'
_cell_volume   321.02881573
_cell_formula_units_Z   1
loop_
 _symmetry_equiv_pos_site_id
 _symmetry_equiv_pos_as_xyz
  1  'x, y, z'
loop_
 _atom_site_type_symbol
 _atom_site_label
 _atom_site_symmetry_multiplicity
 _atom_site_fract_x
 _atom_site_fract_y
 _atom_site_fract_z
 _atom_site_occupancy
  Na  Na0  1  0.75000000  0.75000000  0.75000000  1
  Na  Na1  1  0.25000000  0.25000000  0.25000000  1
  Ag  Ag0  1  0.50000000  0.50000000  0.50000000  1
  As  As0  1  0.00000000  0.00000000  0.00000000  1
  Br  Br0  1  0.75562700  0.24437300  0.24437300  1
  Br  Br1  1  0.24437300  0.24437300  0.75562700  1
  Br  Br2  1  0.24437300  0.75562700  0.75562700  1
  Br  Br3  1  0.24437300  0.75562700  0.24437300  1
  Br  Br4  1  0.75562700  0.24437300  0.75562700  1
  Br  Br5  1  0.75562700  0.75562700  0.24437300  1
loop_
_geom_bond_atom_site_label_1
_geom_bond_atom_site_label_2
_geom_bond_distance
_geom_bond_site_symmetry_2
Ag0 Br4 2.778485 1_555
Ag0 Br5 2.778485 1_555
Ag0 Br2 2.778485 1_555
Ag0 Br3 2.778485 1_555
Ag0 Br0 2.778485 1_555
Ag0 Br1 2.778485 1_555
As0 Br0 2.656162 1_455
As0 Br3 2.656162 1_545
As0 Br1 2.656162 1_554
As0 Br2 2.656162 1_544
As0 Br5 2.656162 1_445
As0 Br4 2.656162 1_454
