# generated using pymatgen
data_ZrZnGe
_symmetry_space_group_name_H-M   'P 1'
_cell_length_a   7.01979989
_cell_length_b   7.01979989
_cell_length_c   3.74363900
_cell_angle_alpha   90.00000000
_cell_angle_beta   90.00000000
_cell_angle_gamma   119.99999894
_symmetry_Int_Tables_number   1
_chemical_formula_structural   ZrZnGe
_chemical_formula_sum   'Zr3 Zn3 Ge3'
_cell_volume   159.76221135
_cell_formula_units_Z   3
loop_
 _symmetry_equiv_pos_site_id
 _symmetry_equiv_pos_as_xyz
  1  'x, y, z'
loop_
 _atom_site_type_symbol
 _atom_site_label
 _atom_site_symmetry_multiplicity
 _atom_site_fract_x
 _atom_site_fract_y
 _atom_site_fract_z
 _atom_site_occupancy
  Zr  Zr0  1  0.63019100  0.00000000  0.00000000  1
  Zr  Zr1  1  0.00000000  0.63019100  0.00000000  1
  Zr  Zr2  1  0.36980900  0.36980900  0.00000000  1
  Zn  Zn0  1  0.33333300  0.66666700  0.50000000  1
  Zn  Zn1  1  0.66666700  0.33333300  0.50000000  1
  Zn  Zn2  1  0.00000000  0.00000000  0.00000000  1
  Ge  Ge0  1  0.29531400  0.00000000  0.50000000  1
  Ge  Ge1  1  0.00000000  0.29531400  0.50000000  1
  Ge  Ge2  1  0.70468600  0.70468600  0.50000000  1
loop_
_geom_bond_atom_site_label_1
_geom_bond_atom_site_label_2
_geom_bond_distance
_geom_bond_site_symmetry_2
Zn0 Zr1 2.906097 1_555
Zn0 Zr1 2.906097 1_556
Zn0 Zr0 2.906099 1_566
Zn0 Zr0 2.906099 1_565
Zn0 Zr2 2.906102 1_556
Zn0 Zr2 2.906102 1_555
Zn1 Zr0 2.906097 1_555
Zn1 Zr0 2.906097 1_556
Zn1 Zr1 2.906099 1_656
Zn1 Zr1 2.906099 1_655
Zn1 Zr2 2.906102 1_556
Zn1 Zr2 2.906102 1_555
Zn2 Zr1 2.595985 1_545
Zn2 Zr0 2.595985 1_455
Zn2 Zr2 2.595985 1_555
Ge0 Zn0 2.484150 1_545
Ge0 Zn1 2.484154 1_555
Ge0 Zn2 2.793067 1_555
Ge0 Zn2 2.793067 1_556
Ge0 Zr0 3.004967 1_555
Ge0 Zr0 3.004967 1_556
Ge0 Zr2 3.026346 1_555
Ge0 Zr2 3.026346 1_556
Ge0 Zr1 3.026346 1_545
Ge0 Zr1 3.026346 1_546
Ge1 Zn1 2.484150 1_455
Ge1 Zn0 2.484154 1_555
Ge1 Zn2 2.793067 1_555
Ge1 Zn2 2.793067 1_556
Ge1 Zr1 3.004967 1_555
Ge1 Zr1 3.004967 1_556
Ge1 Zr2 3.026346 1_555
Ge1 Zr2 3.026346 1_556
Ge1 Zr0 3.026346 1_455
Ge1 Zr0 3.026346 1_456
Ge2 Zn1 2.484157 1_555
Ge2 Zn0 2.484157 1_555
Ge2 Zn2 2.793067 1_666
Ge2 Zn2 2.793067 1_665
Ge2 Zr2 3.004967 1_555
Ge2 Zr2 3.004967 1_556
Ge2 Zr0 3.026346 1_565
Ge2 Zr1 3.026346 1_656
Ge2 Zr1 3.026346 1_655
Ge2 Zr0 3.026346 1_566
