# generated using pymatgen
data_Li7Mn5O12
_symmetry_space_group_name_H-M   'P 1'
_cell_length_a   5.96681331
_cell_length_b   5.99509718
_cell_length_c   6.54356531
_cell_angle_alpha   103.40150269
_cell_angle_beta   104.53626747
_cell_angle_gamma   86.28551401
_symmetry_Int_Tables_number   1
_chemical_formula_structural   Li7Mn5O12
_chemical_formula_sum   'Li7 Mn5 O12'
_cell_volume   220.40573840
_cell_formula_units_Z   1
loop_
 _symmetry_equiv_pos_site_id
 _symmetry_equiv_pos_as_xyz
  1  'x, y, z'
loop_
 _atom_site_type_symbol
 _atom_site_label
 _atom_site_symmetry_multiplicity
 _atom_site_fract_x
 _atom_site_fract_y
 _atom_site_fract_z
 _atom_site_occupancy
  Li  Li0  1  0.16667900  0.16668600  0.66673800  1
  Li  Li1  1  0.16666800  0.66667100  0.66670800  1
  Li  Li2  1  0.66669200  0.16668800  0.66673700  1
  Li  Li3  1  0.83255000  0.32778100  0.33703600  1
  Li  Li4  1  0.50079600  0.00555200  0.99630500  1
  Li  Li5  1  0.50204900  0.49018800  0.98660400  1
  Li  Li6  1  0.83129400  0.84312600  0.34672600  1
  Mn  Mn0  1  0.99229000  0.49066100  0.99440200  1
  Mn  Mn1  1  0.34100900  0.84263500  0.33887100  1
  Mn  Mn2  1  0.66668100  0.66667100  0.66668900  1
  Mn  Mn3  1  0.99353000  0.99800300  0.00057500  1
  Mn  Mn4  1  0.33977900  0.33534600  0.33272900  1
  O  O0  1  0.89653900  0.89549800  0.68569000  1
  O  O1  1  0.43678700  0.43783500  0.64759300  1
  O  O2  1  0.55812600  0.08367500  0.32602500  1
  O  O3  1  0.77511700  0.24952800  0.00726500  1
  O  O4  1  0.24460600  0.26883200  0.00620000  1
  O  O5  1  0.08874700  0.06447800  0.32710100  1
  O  O6  1  0.91044100  0.43325400  0.67837300  1
  O  O7  1  0.42287800  0.90008700  0.65490200  1
  O  O8  1  0.58740600  0.61117500  0.35304400  1
  O  O9  1  0.74591300  0.72216900  0.98026800  1
  O  O10  1  0.23293400  0.75458500  0.01897900  1
  O  O11  1  0.10048900  0.57887800  0.31444000  1
loop_
_geom_bond_atom_site_label_1
_geom_bond_atom_site_label_2
_geom_bond_distance
_geom_bond_site_symmetry_2
Li0 O4 2.100766 1_556
Li0 O5 2.101857 1_555
Li0 O6 2.140743 1_455
Li0 O7 2.140770 1_545
Li0 O0 2.406261 1_445
Li0 O1 2.406427 1_555
Li1 O0 2.056774 1_455
Li1 O1 2.056851 1_555
Li1 O6 2.164887 1_455
Li1 O7 2.165140 1_555
Li1 O10 2.180356 1_556
Li1 O11 2.180367 1_555
Li2 O0 2.063664 1_545
Li2 O1 2.063770 1_555
Li2 O3 2.106031 1_556
Li2 O2 2.107205 1_555
Li2 O6 2.205479 1_555
Li2 O7 2.205520 1_545
Li3 O3 2.043114 1_555
Li3 O6 2.113511 1_555
Li3 O5 2.126616 1_655
Li3 O8 2.170134 1_555
Li3 O2 2.242862 1_555
Li3 O11 2.318963 1_655
Li4 O2 2.042848 1_556
Li4 O7 2.113906 1_545
Li4 O4 2.126482 1_556
Li4 O9 2.169991 1_545
Li4 O3 2.241953 1_556
Li4 O10 2.318265 1_546
Li5 O9 2.091030 1_555
Li5 O3 2.104735 1_556
Li5 O1 2.104908 1_555
Li5 O4 2.139868 1_556
Li5 O10 2.195713 1_556
Li5 O8 2.272372 1_556
Li6 O8 2.090967 1_555
Li6 O0 2.104607 1_555
Li6 O2 2.104736 1_565
Li6 O5 2.139971 1_665
Li6 O11 2.195403 1_655
Li6 O9 2.272462 1_554
Mn0 O4 1.941902 1_656
Mn0 O6 1.954045 1_555
Mn0 O9 1.955222 1_555
Mn0 O11 1.983502 1_656
Mn0 O3 2.032225 1_556
Mn0 O10 2.156762 1_656
Mn1 O5 1.941723 1_565
Mn1 O7 1.954043 1_555
Mn1 O8 1.955117 1_555
Mn1 O10 1.982530 1_555
Mn1 O2 2.031528 1_565
Mn1 O11 2.155739 1_555
Mn2 O9 1.939472 1_555
Mn2 O8 1.939883 1_555
Mn2 O6 1.951817 1_555
Mn2 O7 1.952002 1_555
Mn2 O0 1.964074 1_555
Mn2 O1 1.964100 1_555
Mn3 O3 1.928095 1_565
Mn3 O0 1.954135 1_554
Mn3 O10 1.977287 1_655
Mn3 O5 2.017947 1_665
Mn3 O9 2.247518 1_554
Mn3 O4 2.267540 1_665
Mn4 O2 1.928490 1_555
Mn4 O1 1.954008 1_555
Mn4 O11 1.977282 1_555
Mn4 O4 2.017951 1_555
Mn4 O8 2.247522 1_555
Mn4 O5 2.267526 1_555
