# generated using pymatgen
data_Sm3Si3Ni
_symmetry_space_group_name_H-M   'P 1'
_cell_length_a   9.37418754
_cell_length_b   9.37418754
_cell_length_c   9.37418754
_cell_angle_alpha   155.46506491
_cell_angle_beta   153.82473523
_cell_angle_gamma   36.18090111
_symmetry_Int_Tables_number   1
_chemical_formula_structural   Sm3Si3Ni
_chemical_formula_sum   'Sm3 Si3 Ni1'
_cell_volume   150.69820868
_cell_formula_units_Z   1
loop_
 _symmetry_equiv_pos_site_id
 _symmetry_equiv_pos_as_xyz
  1  'x, y, z'
loop_
 _atom_site_type_symbol
 _atom_site_label
 _atom_site_symmetry_multiplicity
 _atom_site_fract_x
 _atom_site_fract_y
 _atom_site_fract_z
 _atom_site_occupancy
  Sm  Sm0  1  0.81529700  0.31529700  0.50000000  1
  Sm  Sm1  1  0.18165300  0.68165300  0.50000000  1
  Sm  Sm2  1  0.00052300  0.00052300  0.00000000  1
  Si  Si0  1  0.63595700  0.13595700  0.50000000  1
  Si  Si1  1  0.35891900  0.85891900  0.50000000  1
  Si  Si2  1  0.44056100  0.44056100  0.00000000  1
  Ni  Ni0  1  0.56709100  0.56709100  0.00000000  1
loop_
_geom_bond_atom_site_label_1
_geom_bond_atom_site_label_2
_geom_bond_distance
_geom_bond_site_symmetry_2
Si0 Sm1 3.022628 1_645
Si0 Sm1 3.022628 1_656
Si0 Sm1 3.022628 1_544
Si0 Sm1 3.022628 1_555
Si0 Sm0 3.196125 1_555
Si0 Sm2 3.214275 1_555
Si0 Sm2 3.214275 1_656
Si1 Si2 2.466619 1_555
Si1 Si2 2.466619 1_566
Si1 Sm0 3.012880 1_555
Si1 Sm0 3.012880 1_566
Si1 Sm0 3.012880 1_454
Si1 Sm0 3.012880 1_465
Si1 Sm1 3.159163 1_555
Si1 Sm2 3.297645 1_565
Si1 Sm2 3.297645 1_666
Si2 Sm0 3.080501 1_555
Si2 Sm0 3.080501 1_454
Si2 Sm2 3.100809 1_554
Si2 Sm2 3.100809 1_565
Si2 Sm2 3.100809 1_666
Si2 Sm2 3.100809 1_655
Ni0 Si2 2.254967 1_555
Ni0 Si0 2.339547 1_565
Ni0 Si0 2.339547 1_554
Ni0 Sm1 2.945218 1_655
Ni0 Sm1 2.945218 1_554
Ni0 Sm2 3.143325 1_666
Ni0 Sm2 3.143325 1_554
Ni0 Sm2 3.143325 1_565
Ni0 Sm2 3.143325 1_655
