# generated using pymatgen
data_Te3MoWSe
_symmetry_space_group_name_H-M   'P 1'
_cell_length_a   3.50032716
_cell_length_b   3.50032716
_cell_length_c   39.60830700
_cell_angle_alpha   90.00000000
_cell_angle_beta   90.00000000
_cell_angle_gamma   119.99998413
_symmetry_Int_Tables_number   1
_chemical_formula_structural   Te3MoWSe
_chemical_formula_sum   'Te6 Mo2 W2 Se2'
_cell_volume   420.27567697
_cell_formula_units_Z   2
loop_
 _symmetry_equiv_pos_site_id
 _symmetry_equiv_pos_as_xyz
  1  'x, y, z'
loop_
 _atom_site_type_symbol
 _atom_site_label
 _atom_site_symmetry_multiplicity
 _atom_site_fract_x
 _atom_site_fract_y
 _atom_site_fract_z
 _atom_site_occupancy
  Te  Te0  1  0.00000000  0.00000000  0.32800800  1
  Te  Te1  1  0.00000000  0.00000000  0.70404600  1
  Te  Te2  1  0.33333300  0.66666700  0.42315500  1
  Te  Te3  1  0.33333300  0.66666700  0.51616500  1
  Te  Te4  1  0.00000000  0.00000000  0.23556100  1
  Te  Te5  1  0.00000000  0.00000000  0.61102000  1
  Mo  Mo0  1  0.00000000  0.00000000  0.09391500  1
  Mo  Mo1  1  0.33333300  0.66666700  0.28177600  1
  W  W0  1  0.00000000  0.00000000  0.46966200  1
  W  W1  1  0.33333300  0.66666700  0.65755100  1
  Se  Se0  1  0.33333300  0.66666700  0.05307800  1
  Se  Se1  1  0.33333300  0.66666700  0.13481000  1
loop_
_geom_bond_atom_site_label_1
_geom_bond_atom_site_label_2
_geom_bond_distance
_geom_bond_site_symmetry_2
Te1 W1 2.734142 1_545
Te1 W1 2.734145 1_445
Te1 W1 2.734145 1_555
Te2 W0 2.734463 1_565
Te2 W0 2.734465 1_665
Te2 W0 2.734465 1_555
Te3 W0 2.734356 1_565
Te3 W0 2.734359 1_665
Te3 W0 2.734359 1_555
Te5 W1 2.735103 1_545
Te5 W1 2.735106 1_445
Te5 W1 2.735106 1_555
Mo0 Se0 2.588502 1_545
Mo0 Se0 2.588505 1_445
Mo0 Se0 2.588505 1_555
Mo0 Se1 2.589938 1_545
Mo0 Se1 2.589941 1_445
Mo0 Se1 2.589941 1_555
Mo1 Te4 2.726685 1_565
Mo1 Te4 2.726688 1_555
Mo1 Te4 2.726688 1_665
Mo1 Te0 2.727137 1_565
Mo1 Te0 2.727140 1_555
Mo1 Te0 2.727140 1_665
