# generated using pymatgen
data_CeAl3Pt
_symmetry_space_group_name_H-M   'P 1'
_cell_length_a   6.27885123
_cell_length_b   6.27885123
_cell_length_c   6.27885123
_cell_angle_alpha   141.40997204
_cell_angle_beta   141.40997204
_cell_angle_gamma   55.71858298
_symmetry_Int_Tables_number   1
_chemical_formula_structural   CeAl3Pt
_chemical_formula_sum   'Ce1 Al3 Pt1'
_cell_volume   95.57972916
_cell_formula_units_Z   1
loop_
 _symmetry_equiv_pos_site_id
 _symmetry_equiv_pos_as_xyz
  1  'x, y, z'
loop_
 _atom_site_type_symbol
 _atom_site_label
 _atom_site_symmetry_multiplicity
 _atom_site_fract_x
 _atom_site_fract_y
 _atom_site_fract_z
 _atom_site_occupancy
  Ce  Ce0  1  0.00000000  0.00000000  0.00000000  1
  Al  Al0  1  0.61446300  0.61446300  0.00000000  1
  Al  Al1  1  0.38553700  0.38553700  0.00000000  1
  Al  Al2  1  0.75000000  0.25000000  0.50000000  1
  Pt  Pt0  1  0.25000000  0.75000000  0.50000000  1
loop_
_geom_bond_atom_site_label_1
_geom_bond_atom_site_label_2
_geom_bond_distance
_geom_bond_site_symmetry_2
Ce0 Pt0 3.465293 1_444
Ce0 Pt0 3.465293 1_545
Ce0 Pt0 3.465293 1_544
Ce0 Pt0 3.465293 1_555
Al0 Al1 2.541591 1_555
Al0 Al2 2.562975 1_565
Al0 Pt0 2.562975 1_655
Al0 Pt0 2.562975 1_554
Al0 Al2 2.562975 1_554
Al0 Ce0 3.197495 1_666
Al0 Ce0 3.197495 1_554
Al0 Ce0 3.197495 1_565
Al0 Ce0 3.197495 1_655
Al1 Pt0 2.562975 1_544
Al1 Al2 2.562975 1_555
Al1 Al2 2.562975 1_454
Al1 Pt0 2.562975 1_555
Al1 Ce0 3.197495 1_554
Al1 Ce0 3.197495 1_666
Al1 Ce0 3.197495 1_565
Al1 Ce0 3.197495 1_655
Al2 Pt0 2.934118 1_555
Al2 Pt0 2.934118 1_645
Al2 Pt0 2.934118 1_656
Al2 Pt0 2.934118 1_544
Al2 Ce0 3.465293 1_666
Al2 Ce0 3.465293 1_656
Al2 Ce0 3.465293 1_555
Al2 Ce0 3.465293 1_655
