# generated using pymatgen
data_Ni2Mo3N
_symmetry_space_group_name_H-M   'P 1'
_cell_length_a   6.86028700
_cell_length_b   6.86028700
_cell_length_c   6.86028700
_cell_angle_alpha   90.00000000
_cell_angle_beta   90.00000000
_cell_angle_gamma   90.00000000
_symmetry_Int_Tables_number   1
_chemical_formula_structural   Ni2Mo3N
_chemical_formula_sum   'Ni8 Mo12 N4'
_cell_volume   322.86937601
_cell_formula_units_Z   4
loop_
 _symmetry_equiv_pos_site_id
 _symmetry_equiv_pos_as_xyz
  1  'x, y, z'
loop_
 _atom_site_type_symbol
 _atom_site_label
 _atom_site_symmetry_multiplicity
 _atom_site_fract_x
 _atom_site_fract_y
 _atom_site_fract_z
 _atom_site_occupancy
  Ni  Ni0  1  0.04407800  0.95592200  0.45592200  1
  Ni  Ni1  1  0.45592200  0.04407800  0.95592200  1
  Ni  Ni2  1  0.95592200  0.45592200  0.04407800  1
  Ni  Ni3  1  0.54407800  0.54407800  0.54407800  1
  Ni  Ni4  1  0.70592200  0.29407800  0.79407800  1
  Ni  Ni5  1  0.29407800  0.79407800  0.70592200  1
  Ni  Ni6  1  0.79407800  0.70592200  0.29407800  1
  Ni  Ni7  1  0.20592200  0.20592200  0.20592200  1
  Mo  Mo0  1  0.17208100  0.57791900  0.37500000  1
  Mo  Mo1  1  0.32791900  0.42208100  0.87500000  1
  Mo  Mo2  1  0.82791900  0.07791900  0.12500000  1
  Mo  Mo3  1  0.67208100  0.92208100  0.62500000  1
  Mo  Mo4  1  0.57791900  0.37500000  0.17208100  1
  Mo  Mo5  1  0.42208100  0.87500000  0.32791900  1
  Mo  Mo6  1  0.07791900  0.12500000  0.82791900  1
  Mo  Mo7  1  0.92208100  0.62500000  0.67208100  1
  Mo  Mo8  1  0.37500000  0.17208100  0.57791900  1
  Mo  Mo9  1  0.87500000  0.32791900  0.42208100  1
  Mo  Mo10  1  0.12500000  0.82791900  0.07791900  1
  Mo  Mo11  1  0.62500000  0.67208100  0.92208100  1
  N  N0  1  0.87500000  0.12500000  0.62500000  1
  N  N1  1  0.62500000  0.87500000  0.12500000  1
  N  N2  1  0.12500000  0.62500000  0.87500000  1
  N  N3  1  0.37500000  0.37500000  0.37500000  1
loop_
_geom_bond_atom_site_label_1
_geom_bond_atom_site_label_2
_geom_bond_distance
_geom_bond_site_symmetry_2
Mo0 N3 1.968702 1_555
Mo1 N2 1.968702 1_555
Mo2 N1 1.968702 1_545
Mo3 N0 1.968702 1_565
Mo4 N3 1.968702 1_555
Mo5 N1 1.968702 1_555
Mo6 N0 1.968702 1_455
Mo7 N2 1.968702 1_655
Mo8 N3 1.968702 1_555
Mo9 N0 1.968702 1_555
Mo10 N2 1.968702 1_554
Mo11 N1 1.968702 1_556
N0 Ni4 2.009047 1_555
N0 Ni0 2.009047 1_645
N1 Ni6 2.009047 1_555
N1 Ni1 2.009047 1_564
N2 Ni5 2.009047 1_555
N2 Ni2 2.009047 1_456
N3 Ni3 2.009047 1_555
N3 Ni7 2.009047 1_555
