# generated using pymatgen
data_InGaS3
_symmetry_space_group_name_H-M   'P 1'
_cell_length_a   6.75637900
_cell_length_b   6.75735581
_cell_length_c   15.58159360
_cell_angle_alpha   81.41070760
_cell_angle_beta   85.32545575
_cell_angle_gamma   60.01131650
_symmetry_Int_Tables_number   1
_chemical_formula_structural   InGaS3
_chemical_formula_sum   'In5 Ga5 S15'
_cell_volume   609.21487279
_cell_formula_units_Z   5
loop_
 _symmetry_equiv_pos_site_id
 _symmetry_equiv_pos_as_xyz
  1  'x, y, z'
loop_
 _atom_site_type_symbol
 _atom_site_label
 _atom_site_symmetry_multiplicity
 _atom_site_fract_x
 _atom_site_fract_y
 _atom_site_fract_z
 _atom_site_occupancy
  In  In0  1  0.66641000  0.65566000  0.00627900  1
  In  In1  1  0.34147800  0.32969400  0.00890100  1
  In  In2  1  0.98840900  0.00888500  0.00702000  1
  In  In3  1  0.00231400  0.41663500  0.74931600  1
  In  In4  1  0.66532200  0.08236600  0.74926900  1
  Ga  Ga0  1  0.32854500  0.92539000  0.25440000  1
  Ga  Ga1  1  0.00741900  0.56985000  0.25405200  1
  Ga  Ga2  1  0.00166500  0.84896100  0.44688200  1
  Ga  Ga3  1  0.66718900  0.51880200  0.44683200  1
  Ga  Ga4  1  0.33070600  0.75035200  0.75894200  1
  S  S0  1  0.98189900  0.52149300  0.48823900  1
  S  S1  1  0.68825700  0.17084000  0.48675900  1
  S  S2  1  0.33329400  0.82034000  0.48578500  1
  S  S3  1  0.99579600  0.63954700  0.09092700  1
  S  S4  1  0.66329300  0.30541700  0.09169300  1
  S  S5  1  0.33042400  0.96681100  0.09117200  1
  S  S6  1  0.64178500  0.46241800  0.69269700  1
  S  S7  1  0.33415200  0.07831900  0.68841600  1
  S  S8  1  0.02730000  0.77065500  0.68982000  1
  S  S9  1  0.01045700  0.36173800  0.91056200  1
  S  S10  1  0.66659500  0.02274800  0.91064500  1
  S  S11  1  0.32698200  0.70364300  0.90704400  1
  S  S12  1  0.66380700  0.57956800  0.28552100  1
  S  S13  1  0.33203300  0.23869200  0.28100000  1
  S  S14  1  0.00463700  0.89504400  0.28572700  1
loop_
_geom_bond_atom_site_label_1
_geom_bond_atom_site_label_2
_geom_bond_distance
_geom_bond_site_symmetry_2
In0 S4 2.545083 1_555
In0 S5 2.625573 1_555
In0 S3 2.626298 1_555
In0 S10 2.696718 1_564
In0 S9 2.697584 1_654
In0 S11 2.727659 1_554
In1 S4 2.540883 1_555
In1 S5 2.624947 1_545
In1 S3 2.626142 1_455
In1 S10 2.704986 1_554
In1 S9 2.715153 1_554
In1 S11 2.737467 1_554
In2 S4 2.549147 1_555
In2 S3 2.617638 1_545
In2 S5 2.620230 1_645
In2 S9 2.685962 1_654
In2 S10 2.697763 1_554
In2 S11 2.752482 1_644
In3 S9 2.485332 1_555
In3 S6 2.514534 1_455
In3 S8 2.515250 1_555
In3 S7 2.516129 1_555
In4 S10 2.486471 1_555
In4 S7 2.514154 1_555
In4 S6 2.517156 1_555
In4 S8 2.517917 1_645
Ga0 S13 2.228900 1_565
Ga0 S14 2.305255 1_555
Ga0 S12 2.318611 1_555
Ga0 S5 2.516505 1_555
Ga1 S13 2.226495 1_555
Ga1 S12 2.303501 1_455
Ga1 S14 2.313847 1_555
Ga1 S3 2.515243 1_455
Ga2 S2 2.275599 1_555
Ga2 S0 2.277084 1_455
Ga2 S1 2.277251 1_465
Ga2 S14 2.483389 1_555
Ga3 S2 2.271679 1_555
Ga3 S1 2.275707 1_555
Ga3 S0 2.281120 1_555
Ga3 S12 2.485643 1_555
Ga4 S11 2.281772 1_555
Ga4 S8 2.327143 1_555
Ga4 S6 2.329559 1_555
Ga4 S7 2.332294 1_565
