# generated using pymatgen
data_KMg14CoO16
_symmetry_space_group_name_H-M   'P 1'
_cell_length_a   8.62192847
_cell_length_b   8.58631034
_cell_length_c   4.32105881
_cell_angle_alpha   90.00000000
_cell_angle_beta   90.00000000
_cell_angle_gamma   90.00000000
_symmetry_Int_Tables_number   1
_chemical_formula_structural   KMg14CoO16
_chemical_formula_sum   'K1 Mg14 Co1 O16'
_cell_volume   319.89037572
_cell_formula_units_Z   1
loop_
 _symmetry_equiv_pos_site_id
 _symmetry_equiv_pos_as_xyz
  1  'x, y, z'
loop_
 _atom_site_type_symbol
 _atom_site_label
 _atom_site_symmetry_multiplicity
 _atom_site_fract_x
 _atom_site_fract_y
 _atom_site_fract_z
 _atom_site_occupancy
  K  K0  1  0.00000000  0.50000000  0.00000000  1
  Mg  Mg0  1  0.50000000  0.00000000  0.00000000  1
  Mg  Mg1  1  0.50000000  0.50000000  0.00000000  1
  Mg  Mg2  1  0.00000000  0.24535584  0.50000000  1
  Mg  Mg3  1  0.00000000  0.75464416  0.50000000  1
  Mg  Mg4  1  0.50000000  0.25005321  0.50000000  1
  Mg  Mg5  1  0.50000000  0.74994679  0.50000000  1
  Mg  Mg6  1  0.24728856  0.00000000  0.50000000  1
  Mg  Mg7  1  0.25633987  0.50000000  0.50000000  1
  Mg  Mg8  1  0.75271144  0.00000000  0.50000000  1
  Mg  Mg9  1  0.74366013  0.50000000  0.50000000  1
  Mg  Mg10  1  0.25129662  0.25029980  0.00000000  1
  Mg  Mg11  1  0.25129662  0.74970020  0.00000000  1
  Mg  Mg12  1  0.74870338  0.25029980  0.00000000  1
  Mg  Mg13  1  0.74870338  0.74970020  0.00000000  1
  Co  Co0  1  0.00000000  0.00000000  0.00000000  1
  O  O0  1  0.23969667  0.00000000  0.00000000  1
  O  O1  1  0.27401551  0.50000000  0.00000000  1
  O  O2  1  0.76030333  0.00000000  0.00000000  1
  O  O3  1  0.72598449  0.50000000  0.00000000  1
  O  O4  1  0.24868887  0.24925056  0.50000000  1
  O  O5  1  0.24868887  0.75074944  0.50000000  1
  O  O6  1  0.75131113  0.24925056  0.50000000  1
  O  O7  1  0.75131113  0.75074944  0.50000000  1
  O  O8  1  0.00000000  0.00000000  0.50000000  1
  O  O9  1  0.00000000  0.50000000  0.50000000  1
  O  O10  1  0.50000000  0.00000000  0.50000000  1
  O  O11  1  0.50000000  0.50000000  0.50000000  1
  O  O12  1  0.00000000  0.22132429  0.00000000  1
  O  O13  1  0.00000000  0.77867571  0.00000000  1
  O  O14  1  0.50000000  0.24075512  0.00000000  1
  O  O15  1  0.50000000  0.75924488  0.00000000  1
loop_
_geom_bond_atom_site_label_1
_geom_bond_atom_site_label_2
_geom_bond_distance
_geom_bond_site_symmetry_2
K0 O9 2.160529 1_555
K0 O9 2.160529 1_554
K0 O3 2.362542 1_455
K0 O1 2.362542 1_555
K0 O12 2.392796 1_555
K0 O13 2.392796 1_555
Mg0 O14 2.067198 1_555
Mg0 O15 2.067198 1_545
Mg0 O10 2.160529 1_555
Mg0 O10 2.160529 1_554
Mg0 O0 2.244317 1_555
Mg0 O2 2.244317 1_555
Mg1 O3 1.948422 1_555
Mg1 O1 1.948422 1_555
Mg1 O11 2.160529 1_554
Mg1 O11 2.160529 1_555
Mg1 O14 2.225957 1_555
Mg1 O15 2.225957 1_555
Mg2 O8 2.106701 1_555
Mg2 O6 2.144438 1_455
Mg2 O4 2.144438 1_555
Mg2 O12 2.170360 1_555
Mg2 O12 2.170360 1_556
Mg2 O9 2.186454 1_555
Mg3 O8 2.106701 1_565
Mg3 O7 2.144438 1_455
Mg3 O5 2.144438 1_555
Mg3 O13 2.170360 1_556
Mg3 O13 2.170360 1_555
Mg3 O9 2.186454 1_555
Mg4 O11 2.146121 1_555
Mg4 O10 2.147034 1_555
Mg4 O14 2.162004 1_556
Mg4 O14 2.162004 1_555
Mg4 O4 2.166798 1_555
Mg4 O6 2.166798 1_555
Mg5 O11 2.146121 1_555
Mg5 O10 2.147034 1_565
Mg5 O15 2.162004 1_556
Mg5 O15 2.162004 1_555
Mg5 O5 2.166798 1_555
Mg5 O7 2.166798 1_555
Mg6 O8 2.132104 1_555
Mg6 O5 2.140177 1_545
Mg6 O4 2.140177 1_555
Mg6 O0 2.161521 1_555
Mg6 O0 2.161521 1_556
Mg6 O10 2.178860 1_555
Mg7 O11 2.100820 1_555
Mg7 O5 2.154023 1_555
Mg7 O4 2.154023 1_555
Mg7 O1 2.165898 1_556
Mg7 O1 2.165898 1_555
Mg7 O9 2.210144 1_555
Mg8 O8 2.132104 1_655
Mg8 O6 2.140177 1_555
Mg8 O7 2.140177 1_545
Mg8 O2 2.161521 1_555
Mg8 O2 2.161521 1_556
Mg8 O10 2.178860 1_555
Mg9 O11 2.100820 1_555
Mg9 O7 2.154023 1_555
Mg9 O6 2.154023 1_555
Mg9 O3 2.165898 1_556
Mg9 O3 2.165898 1_555
Mg9 O9 2.210144 1_655
Mg10 O14 2.145868 1_555
Mg10 O0 2.151478 1_555
Mg10 O1 2.152933 1_555
Mg10 O4 2.160665 1_555
Mg10 O4 2.160665 1_554
Mg10 O12 2.180899 1_555
Mg11 O15 2.145868 1_555
Mg11 O0 2.151478 1_565
Mg11 O1 2.152933 1_555
Mg11 O5 2.160665 1_555
Mg11 O5 2.160665 1_554
Mg11 O13 2.180899 1_555
Mg12 O14 2.145868 1_555
Mg12 O2 2.151478 1_555
Mg12 O3 2.152933 1_555
Mg12 O6 2.160665 1_555
Mg12 O6 2.160665 1_554
Mg12 O12 2.180899 1_655
Mg13 O15 2.145868 1_555
Mg13 O2 2.151478 1_565
Mg13 O3 2.152933 1_555
Mg13 O7 2.160665 1_555
Mg13 O7 2.160665 1_554
Mg13 O13 2.180899 1_655
Co0 O13 1.900359 1_545
Co0 O12 1.900359 1_555
Co0 O2 2.066648 1_455
Co0 O0 2.066648 1_555
Co0 O8 2.160529 1_554
Co0 O8 2.160529 1_555
