# generated using pymatgen
data_MgTi
_symmetry_space_group_name_H-M   'P 1'
_cell_length_a   4.86637300
_cell_length_b   5.24321100
_cell_length_c   9.17415200
_cell_angle_alpha   90.00000000
_cell_angle_beta   90.00000000
_cell_angle_gamma   90.00000000
_symmetry_Int_Tables_number   1
_chemical_formula_structural   MgTi
_chemical_formula_sum   'Mg6 Ti6'
_cell_volume   234.08234549
_cell_formula_units_Z   6
loop_
 _symmetry_equiv_pos_site_id
 _symmetry_equiv_pos_as_xyz
  1  'x, y, z'
loop_
 _atom_site_type_symbol
 _atom_site_label
 _atom_site_symmetry_multiplicity
 _atom_site_fract_x
 _atom_site_fract_y
 _atom_site_fract_z
 _atom_site_occupancy
  Mg  Mg0  1  0.00000000  0.99874900  0.91178900  1
  Mg  Mg1  1  0.00000000  0.00732100  0.58391900  1
  Mg  Mg2  1  0.50000000  0.33453000  0.90875200  1
  Mg  Mg3  1  0.00000000  0.50732100  0.41608100  1
  Mg  Mg4  1  0.00000000  0.49874900  0.08821100  1
  Mg  Mg5  1  0.50000000  0.83453000  0.09124800  1
  Ti  Ti0  1  0.00000000  0.01299600  0.26435200  1
  Ti  Ti1  1  0.50000000  0.33142700  0.57282700  1
  Ti  Ti2  1  0.50000000  0.31503600  0.26700800  1
  Ti  Ti3  1  0.00000000  0.51299600  0.73564800  1
  Ti  Ti4  1  0.50000000  0.81503600  0.73299200  1
  Ti  Ti5  1  0.50000000  0.83142700  0.42717300  1
loop_
_geom_bond_atom_site_label_1
_geom_bond_atom_site_label_2
_geom_bond_distance
_geom_bond_site_symmetry_2
Mg0 Mg2 3.003462 1_565
Mg0 Mg2 3.003462 1_465
Mg0 Mg1 3.008265 1_565
Mg0 Ti3 3.016290 1_555
Mg0 Mg5 3.061431 1_556
Mg0 Mg5 3.061431 1_456
Mg0 Mg4 3.080979 1_556
Mg0 Mg4 3.080979 1_566
Mg0 Ti4 3.088504 1_455
Mg0 Ti4 3.088504 1_555
Mg0 Ti3 3.143460 1_565
Mg0 Ti0 3.235329 1_566
Mg1 Ti0 2.931907 1_555
Mg1 Ti3 2.941991 1_545
Mg1 Ti4 2.967697 1_545
Mg1 Ti4 2.967697 1_445
Mg1 Ti1 2.969607 1_455
Mg1 Ti1 2.969607 1_555
Mg1 Ti5 2.973015 1_545
Mg1 Ti5 2.973015 1_445
Mg1 Ti3 2.994551 1_555
Mg1 Mg3 3.040347 1_545
Mg1 Mg3 3.040347 1_555
Mg2 Ti4 2.991210 1_555
Mg2 Ti3 3.052540 1_655
Mg2 Ti3 3.052540 1_555
Mg2 Mg4 3.061431 1_556
Mg2 Mg4 3.061431 1_656
Mg2 Ti1 3.081870 1_555
Mg2 Mg5 3.110613 1_556
Mg2 Mg5 3.110613 1_546
Mg2 Ti4 3.165307 1_545
Mg2 Ti2 3.288284 1_556
Mg3 Ti3 2.931907 1_555
Mg3 Ti0 2.941991 1_555
Mg3 Ti2 2.967697 1_455
Mg3 Ti2 2.967697 1_555
Mg3 Ti5 2.969607 1_455
Mg3 Ti5 2.969607 1_555
Mg3 Ti1 2.973015 1_455
Mg3 Ti1 2.973015 1_555
Mg3 Ti0 2.994551 1_565
Mg3 Mg4 3.008265 1_555
Mg4 Mg5 3.003462 1_455
Mg4 Mg5 3.003462 1_555
Mg4 Ti0 3.016290 1_555
Mg4 Ti2 3.088504 1_455
Mg4 Ti2 3.088504 1_555
Mg4 Ti0 3.143460 1_565
Mg4 Ti3 3.235329 1_554
Mg5 Ti2 2.991210 1_565
Mg5 Ti0 3.052540 1_565
Mg5 Ti0 3.052540 1_665
Mg5 Ti5 3.081870 1_555
Mg5 Ti2 3.165307 1_555
Mg5 Ti4 3.288284 1_554
Ti0 Ti2 2.903268 1_455
Ti0 Ti2 2.903268 1_555
Ti0 Ti5 3.009648 1_545
Ti0 Ti5 3.009648 1_445
Ti1 Ti2 2.806946 1_555
Ti1 Ti4 2.930642 1_555
Ti1 Ti5 2.942513 1_555
Ti1 Ti5 2.942513 1_545
Ti1 Ti3 3.009648 1_655
Ti1 Ti3 3.009648 1_555
Ti1 Ti4 3.080565 1_545
Ti2 Ti5 2.930642 1_545
Ti2 Ti5 3.080565 1_555
Ti3 Ti4 2.903268 1_555
Ti3 Ti4 2.903268 1_455
Ti4 Ti5 2.806946 1_555
