# generated using pymatgen
data_CsNd2Ti2NbO10
_symmetry_space_group_name_H-M   'P 1'
_cell_length_a   3.87325743
_cell_length_b   3.87325743
_cell_length_c   15.76811709
_cell_angle_alpha   89.48529947
_cell_angle_beta   89.48529947
_cell_angle_gamma   89.80186677
_symmetry_Int_Tables_number   1
_chemical_formula_structural   CsNd2Ti2NbO10
_chemical_formula_sum   'Cs1 Nd2 Ti2 Nb1 O10'
_cell_volume   236.53479560
_cell_formula_units_Z   1
loop_
 _symmetry_equiv_pos_site_id
 _symmetry_equiv_pos_as_xyz
  1  'x, y, z'
loop_
 _atom_site_type_symbol
 _atom_site_label
 _atom_site_symmetry_multiplicity
 _atom_site_fract_x
 _atom_site_fract_y
 _atom_site_fract_z
 _atom_site_occupancy
  Cs  Cs0  1  0.50005300  0.50005300  0.51186500  1
  Nd  Nd0  1  0.48761500  0.48761500  0.84506600  1
  Nd  Nd1  1  0.48463700  0.48463700  0.12739200  1
  Ti  Ti0  1  0.01106200  0.01106200  0.99846600  1
  Ti  Ti1  1  0.99943000  0.99943000  0.71714100  1
  Nb  Nb0  1  0.99907400  0.99907400  0.27845600  1
  O  O0  1  0.00187100  0.00187100  0.60887800  1
  O  O1  1  0.99669600  0.99669600  0.39250500  1
  O  O2  1  0.01652600  0.01652600  0.87916800  1
  O  O3  1  0.02336100  0.02336100  0.12711500  1
  O  O4  1  0.50069200  0.99791100  0.75286700  1
  O  O5  1  0.99791100  0.50069200  0.75286700  1
  O  O6  1  0.50494600  0.00969600  0.24527100  1
  O  O7  1  0.00969600  0.50494600  0.24527100  1
  O  O8  1  0.52476500  0.04566600  0.00883600  1
  O  O9  1  0.04566600  0.52476500  0.00883600  1
loop_
_geom_bond_atom_site_label_1
_geom_bond_atom_site_label_2
_geom_bond_distance
_geom_bond_site_symmetry_2
Cs0 O0 3.115497 1_555
Cs0 O0 3.132990 1_565
Cs0 O0 3.132990 1_655
Cs0 O0 3.166811 1_665
Cs0 O1 3.292174 1_555
Cs0 O1 3.319424 1_455
Cs0 O1 3.319424 1_545
Cs0 O1 3.361919 1_445
Nd0 O4 2.400276 1_545
Nd0 O5 2.400276 1_455
Nd0 O4 2.443449 1_555
Nd0 O5 2.443449 1_555
Nd0 O2 2.633554 1_555
Nd0 O2 2.791344 1_565
Nd0 O2 2.791344 1_655
Nd0 O2 2.958268 1_665
Nd0 O8 3.089492 1_556
Nd0 O9 3.089492 1_556
Nd1 O3 2.531116 1_555
Nd1 O9 2.541600 1_555
Nd1 O8 2.541600 1_555
Nd1 O6 2.604856 1_555
Nd1 O7 2.604856 1_555
Nd1 O3 2.742310 1_565
Nd1 O3 2.742310 1_655
Nd1 O6 2.769224 1_565
Nd1 O7 2.769224 1_655
Nd1 O8 2.857435 1_565
Nd1 O9 2.857435 1_655
Nd1 O3 2.955967 1_665
Nb0 O1 1.798220 1_555
Nb0 O6 1.988848 1_565
Nb0 O7 1.988848 1_655
Nb0 O6 2.023954 1_665
Nb0 O7 2.023954 1_665
Nb0 O3 2.388393 1_665
O0 Ti1 1.706986 1_445
O2 Ti0 1.880964 1_555
O3 Ti0 2.030530 1_554
O4 Ti1 2.007353 1_555
O4 Ti1 2.026420 1_455
O5 Ti1 2.007353 1_555
O5 Ti1 2.026420 1_545
O8 Ti0 1.893565 1_654
O8 Ti0 2.002925 1_554
O9 Ti0 1.893565 1_564
O9 Ti0 2.002925 1_554
