# generated using pymatgen
data_Cs3FeMo4O15
_symmetry_space_group_name_H-M   'P 1'
_cell_length_a   10.32267000
_cell_length_b   11.77034300
_cell_length_c   18.99871757
_cell_angle_alpha   52.66910121
_cell_angle_beta   90.00000000
_cell_angle_gamma   90.00000000
_symmetry_Int_Tables_number   1
_chemical_formula_structural   Cs3FeMo4O15
_chemical_formula_sum   'Cs12 Fe4 Mo16 O60'
_cell_volume   1835.49259204
_cell_formula_units_Z   4
loop_
 _symmetry_equiv_pos_site_id
 _symmetry_equiv_pos_as_xyz
  1  'x, y, z'
loop_
 _atom_site_type_symbol
 _atom_site_label
 _atom_site_symmetry_multiplicity
 _atom_site_fract_x
 _atom_site_fract_y
 _atom_site_fract_z
 _atom_site_occupancy
  Cs  Cs0  1  0.82020500  0.31759200  0.93997500  1
  Cs  Cs1  1  0.67979500  0.31759200  0.43997500  1
  Cs  Cs2  1  0.17979500  0.68240800  0.06002500  1
  Cs  Cs3  1  0.32020500  0.68240800  0.56002500  1
  Cs  Cs4  1  0.87703200  0.80530300  0.18562900  1
  Cs  Cs5  1  0.62296800  0.80530300  0.68562900  1
  Cs  Cs6  1  0.12296800  0.19469700  0.81437100  1
  Cs  Cs7  1  0.37703200  0.19469700  0.31437100  1
  Cs  Cs8  1  0.38750400  0.69526100  0.31777400  1
  Cs  Cs9  1  0.11249600  0.69526100  0.81777400  1
  Cs  Cs10  1  0.61249600  0.30473900  0.68222600  1
  Cs  Cs11  1  0.88750400  0.30473900  0.18222600  1
  Fe  Fe0  1  0.00000000  0.50000000  0.50000000  1
  Fe  Fe1  1  0.50000000  0.50000000  0.00000000  1
  Fe  Fe2  1  0.00000000  0.00000000  0.50000000  1
  Fe  Fe3  1  0.50000000  0.00000000  0.00000000  1
  Mo  Mo0  1  0.72898800  0.66390200  0.44305100  1
  Mo  Mo1  1  0.77101200  0.66390200  0.94305100  1
  Mo  Mo2  1  0.27101200  0.33609800  0.55694900  1
  Mo  Mo3  1  0.22898800  0.33609800  0.05694900  1
  Mo  Mo4  1  0.70463200  0.97650500  0.43158700  1
  Mo  Mo5  1  0.79536800  0.97650500  0.93158700  1
  Mo  Mo6  1  0.29536800  0.02349500  0.56841300  1
  Mo  Mo7  1  0.20463200  0.02349500  0.06841300  1
  Mo  Mo8  1  0.06497600  0.38048000  0.37664400  1
  Mo  Mo9  1  0.43502400  0.38048000  0.87664400  1
  Mo  Mo10  1  0.93502400  0.61952000  0.62335600  1
  Mo  Mo11  1  0.56497600  0.61952000  0.12335600  1
  Mo  Mo12  1  0.02056000  0.89871800  0.35910600  1
  Mo  Mo13  1  0.47944000  0.89871800  0.85910600  1
  Mo  Mo14  1  0.97944000  0.10128200  0.64089400  1
  Mo  Mo15  1  0.52056000  0.10128200  0.14089400  1
  O  O0  1  0.57309200  0.62998300  0.48764600  1
  O  O1  1  0.92690800  0.62998300  0.98764600  1
  O  O2  1  0.42690800  0.37001700  0.51235400  1
  O  O3  1  0.07309200  0.37001700  0.01235400  1
  O  O4  1  0.70262200  0.68709100  0.34394600  1
  O  O5  1  0.79737800  0.68709100  0.84394600  1
  O  O6  1  0.29737800  0.31290900  0.65605400  1
  O  O7  1  0.20262200  0.31290900  0.15605400  1
  O  O8  1  0.80644200  0.48411900  0.51416600  1
  O  O9  1  0.69355800  0.48411900  0.01416600  1
  O  O10  1  0.19355800  0.51588100  0.48583400  1
  O  O11  1  0.30644200  0.51588100  0.98583400  1
  O  O12  1  0.75454300  0.87024800  0.39174300  1
  O  O13  1  0.74545700  0.87024800  0.89174300  1
  O  O14  1  0.24545700  0.12975200  0.60825700  1
  O  O15  1  0.25454300  0.12975200  0.10825700  1
  O  O16  1  0.95325800  0.71007900  0.42607500  1
  O  O17  1  0.54674200  0.71007900  0.92607500  1
  O  O18  1  0.04674200  0.28992100  0.57392500  1
  O  O19  1  0.45325800  0.28992100  0.07392500  1
  O  O20  1  0.77582200  0.65327200  0.57758900  1
  O  O21  1  0.72417800  0.65327200  0.07758900  1
  O  O22  1  0.22417800  0.34672800  0.42241100  1
  O  O23  1  0.27582200  0.34672800  0.92241100  1
  O  O24  1  0.55302700  0.91076000  0.48071300  1
  O  O25  1  0.94697300  0.91076000  0.98071300  1
  O  O26  1  0.44697300  0.08924000  0.51928700  1
  O  O27  1  0.05302700  0.08924000  0.01928700  1
  O  O28  1  0.68278100  0.15730200  0.33999500  1
  O  O29  1  0.81721900  0.15730200  0.83999500  1
  O  O30  1  0.31721900  0.84269800  0.66000500  1
  O  O31  1  0.18278100  0.84269800  0.16000500  1
  O  O32  1  0.80444300  0.97003100  0.51394100  1
  O  O33  1  0.69555700  0.97003100  0.01394100  1
  O  O34  1  0.19555700  0.02996900  0.48605900  1
  O  O35  1  0.30444300  0.02996900  0.98605900  1
  O  O36  1  0.07382000  0.46087300  0.26264300  1
  O  O37  1  0.42618000  0.46087300  0.76264300  1
  O  O38  1  0.92618000  0.53912700  0.73735700  1
  O  O39  1  0.57382000  0.53912700  0.23735700  1
  O  O40  1  0.97351100  0.21372800  0.43254100  1
  O  O41  1  0.52648900  0.21372800  0.93254100  1
  O  O42  1  0.02648900  0.78627200  0.56745900  1
  O  O43  1  0.47351100  0.78627200  0.06745900  1
  O  O44  1  0.98193000  0.50130600  0.39144600  1
  O  O45  1  0.51807000  0.50130600  0.89144600  1
  O  O46  1  0.01807000  0.49869400  0.60855400  1
  O  O47  1  0.48193000  0.49869400  0.10855400  1
  O  O48  1  0.18932900  0.87879400  0.36897000  1
  O  O49  1  0.31067100  0.87879400  0.86897000  1
  O  O50  1  0.81067100  0.12120600  0.63103000  1
  O  O51  1  0.68932900  0.12120600  0.13103000  1
  O  O52  1  0.97915700  0.98895300  0.24795600  1
  O  O53  1  0.52084300  0.98895300  0.74795600  1
  O  O54  1  0.02084300  0.01104700  0.75204400  1
  O  O55  1  0.47915700  0.01104700  0.25204400  1
  O  O56  1  0.97544700  0.01651500  0.38888300  1
  O  O57  1  0.52455300  0.01651500  0.88888300  1
  O  O58  1  0.02455300  0.98348500  0.61111700  1
  O  O59  1  0.47544700  0.98348500  0.11111700  1
loop_
_geom_bond_atom_site_label_1
_geom_bond_atom_site_label_2
_geom_bond_distance
_geom_bond_site_symmetry_2
Cs0 O3 3.180465 1_656
Cs0 O51 3.188673 1_556
Cs0 O27 3.218502 1_656
Cs0 O38 3.261970 1_555
Cs0 O9 3.299794 1_556
Cs0 O41 3.304016 1_555
Cs0 O29 3.393374 1_555
Cs0 O5 3.560273 1_555
Cs0 O45 3.582609 1_555
Cs0 O33 3.659724 1_546
Cs1 O2 3.180465 1_555
Cs1 O50 3.188673 1_555
Cs1 O26 3.218502 1_555
Cs1 O39 3.261970 1_555
Cs1 O8 3.299794 1_555
Cs1 O40 3.304016 1_555
Cs1 O28 3.393374 1_555
Cs1 O4 3.560273 1_555
Cs1 O44 3.582609 1_555
Cs1 O32 3.659724 1_545
Cs2 O1 3.180465 1_454
Cs2 O49 3.188673 1_554
Cs2 O25 3.218502 1_454
Cs2 O36 3.261970 1_555
Cs2 O11 3.299794 1_554
Cs2 O43 3.304016 1_555
Cs2 O31 3.393374 1_555
Cs2 O7 3.560273 1_555
Cs2 O47 3.582609 1_555
Cs2 O35 3.659724 1_564
Cs3 O0 3.180465 1_555
Cs3 O48 3.188673 1_555
Cs3 O24 3.218502 1_555
Cs3 O37 3.261970 1_555
Cs3 O10 3.299794 1_555
Cs3 O42 3.304016 1_555
Cs3 O30 3.393374 1_555
Cs3 O6 3.560273 1_555
Cs3 O46 3.582609 1_555
Cs3 O34 3.659724 1_565
Cs4 O4 3.024653 1_555
Cs4 O31 3.183097 1_655
Cs4 O33 3.199661 1_555
Cs4 O52 3.207891 1_555
Cs4 O25 3.370106 1_554
Cs4 O27 3.412835 1_665
Cs4 O44 3.506626 1_555
Cs4 O51 3.738719 1_565
Cs4 O21 3.789445 1_555
Cs5 O5 3.024653 1_555
Cs5 O30 3.183097 1_555
Cs5 O32 3.199661 1_555
Cs5 O53 3.207891 1_555
Cs5 O24 3.370106 1_555
Cs5 O26 3.412835 1_565
Cs5 O45 3.506626 1_555
Cs5 O50 3.738719 1_565
Cs5 O20 3.789445 1_555
Cs6 O6 3.024653 1_555
Cs6 O29 3.183097 1_455
Cs6 O35 3.199661 1_555
Cs6 O54 3.207891 1_555
Cs6 O27 3.370106 1_556
Cs6 O25 3.412835 1_445
Cs6 O46 3.506626 1_555
Cs6 O49 3.738719 1_545
Cs6 O23 3.789445 1_555
Cs7 O7 3.024653 1_555
Cs7 O28 3.183097 1_555
Cs7 O34 3.199661 1_555
Cs7 O55 3.207891 1_555
Cs7 O26 3.370106 1_555
Cs7 O24 3.412835 1_545
Cs7 O47 3.506626 1_555
Cs7 O48 3.738719 1_545
Cs7 O22 3.789445 1_555
Cs8 O31 3.186417 1_555
Cs8 O10 3.237987 1_555
Cs8 O55 3.261974 1_565
Cs8 O4 3.283228 1_555
Cs8 O2 3.364933 1_555
Cs8 O59 3.404961 1_555
Cs8 O0 3.415963 1_555
Cs8 O48 3.513685 1_555
Cs8 O39 3.579930 1_555
Cs8 O22 3.705765 1_555
Cs9 O30 3.186417 1_555
Cs9 O11 3.237987 1_555
Cs9 O54 3.261974 1_565
Cs9 O5 3.283228 1_455
Cs9 O3 3.364933 1_556
Cs9 O58 3.404961 1_555
Cs9 O1 3.415963 1_455
Cs9 O49 3.513685 1_555
Cs9 O38 3.579930 1_455
Cs9 O23 3.705765 1_555
Cs10 O29 3.186417 1_555
Cs10 O8 3.237987 1_555
Cs10 O53 3.261974 1_545
Cs10 O6 3.283228 1_555
Cs10 O0 3.364933 1_555
Cs10 O57 3.404961 1_555
Cs10 O2 3.415963 1_555
Cs10 O50 3.513685 1_555
Cs10 O37 3.579930 1_555
Cs10 O20 3.705765 1_555
Cs11 O28 3.186417 1_555
Cs11 O9 3.237987 1_555
Cs11 O52 3.261974 1_545
Cs11 O7 3.283228 1_655
Cs11 O1 3.364933 1_554
Cs11 O56 3.404961 1_555
Cs11 O3 3.415963 1_655
Cs11 O51 3.513685 1_555
Cs11 O36 3.579930 1_655
Cs11 O21 3.705765 1_555
Fe0 O10 2.009603 1_555
Fe0 O8 2.009603 1_455
Fe0 O16 2.026727 1_455
Fe0 O18 2.026727 1_555
Fe0 O44 2.061557 1_455
Fe0 O46 2.061557 1_555
Fe1 O9 2.009603 1_555
Fe1 O11 2.009603 1_554
Fe1 O17 2.026727 1_554
Fe1 O19 2.026727 1_555
Fe1 O47 2.061557 1_555
Fe1 O45 2.061557 1_554
Fe2 O56 2.015187 1_455
Fe2 O58 2.015187 1_545
Fe2 O42 2.033594 1_545
Fe2 O40 2.033594 1_455
Fe2 O32 2.038700 1_445
Fe2 O34 2.038700 1_555
Fe3 O59 2.015187 1_545
Fe3 O57 2.015187 1_554
Fe3 O41 2.033594 1_554
Fe3 O43 2.033594 1_545
Fe3 O35 2.038700 1_554
Fe3 O33 2.038700 1_545
Mo0 O0 1.748342 1_555
Mo0 O4 1.752276 1_555
Mo0 O8 1.864149 1_555
Mo0 O12 2.011783 1_555
Mo0 O16 2.355070 1_555
Mo0 O20 2.528813 1_555
Mo1 O1 1.748342 1_555
Mo1 O5 1.752276 1_555
Mo1 O9 1.864149 1_556
Mo1 O13 2.011783 1_555
Mo1 O17 2.355070 1_555
Mo1 O21 2.528813 1_556
Mo2 O2 1.748342 1_555
Mo2 O6 1.752276 1_555
Mo2 O10 1.864149 1_555
Mo2 O14 2.011783 1_555
Mo2 O18 2.355070 1_555
Mo2 O22 2.528813 1_555
Mo3 O3 1.748342 1_555
Mo3 O7 1.752276 1_555
Mo3 O11 1.864149 1_554
Mo3 O15 2.011783 1_555
Mo3 O19 2.355070 1_555
Mo3 O23 2.528813 1_554
Mo4 O24 1.744446 1_555
Mo4 O28 1.765300 1_565
Mo4 O32 1.835972 1_555
Mo4 O12 1.884389 1_555
Mo5 O25 1.744446 1_555
Mo5 O29 1.765300 1_565
Mo5 O33 1.835972 1_556
Mo5 O13 1.884389 1_555
Mo6 O26 1.744446 1_555
Mo6 O30 1.765300 1_545
Mo6 O34 1.835972 1_555
Mo6 O14 1.884389 1_555
Mo7 O27 1.744446 1_555
Mo7 O31 1.765300 1_545
Mo7 O35 1.835972 1_554
Mo7 O15 1.884389 1_555
Mo8 O36 1.763257 1_555
Mo8 O22 1.787640 1_555
Mo8 O44 1.822521 1_455
Mo8 O40 1.828536 1_455
Mo9 O37 1.763257 1_555
Mo9 O23 1.787640 1_555
Mo9 O45 1.822521 1_555
Mo9 O41 1.828536 1_555
Mo10 O38 1.763257 1_555
Mo10 O20 1.787640 1_555
Mo10 O46 1.822521 1_655
Mo10 O42 1.828536 1_655
Mo11 O39 1.763257 1_555
Mo11 O21 1.787640 1_555
Mo11 O47 1.822521 1_555
Mo11 O43 1.828536 1_555
Mo12 O52 1.746376 1_455
Mo12 O48 1.752681 1_555
Mo12 O56 1.846794 1_465
Mo12 O16 1.898722 1_455
Mo13 O53 1.746376 1_555
Mo13 O49 1.752681 1_555
Mo13 O57 1.846794 1_565
Mo13 O17 1.898722 1_555
Mo14 O54 1.746376 1_655
Mo14 O50 1.752681 1_555
Mo14 O58 1.846794 1_645
Mo14 O18 1.898722 1_655
Mo15 O55 1.746376 1_555
Mo15 O51 1.752681 1_555
Mo15 O59 1.846794 1_545
Mo15 O19 1.898722 1_555
