# generated using pymatgen
data_LiCe2O3
_symmetry_space_group_name_H-M   'P 1'
_cell_length_a   3.94146600
_cell_length_b   4.08150059
_cell_length_c   6.96654492
_cell_angle_alpha   106.77822012
_cell_angle_beta   90.00000000
_cell_angle_gamma   118.87139249
_symmetry_Int_Tables_number   1
_chemical_formula_structural   LiCe2O3
_chemical_formula_sum   'Li1 Ce2 O3'
_cell_volume   92.65616360
_cell_formula_units_Z   1
loop_
 _symmetry_equiv_pos_site_id
 _symmetry_equiv_pos_as_xyz
  1  'x, y, z'
loop_
 _atom_site_type_symbol
 _atom_site_label
 _atom_site_symmetry_multiplicity
 _atom_site_fract_x
 _atom_site_fract_y
 _atom_site_fract_z
 _atom_site_occupancy
  Li  Li0  1  0.44070200  0.88140400  0.99715900  1
  Ce  Ce0  1  0.67248000  0.34495900  0.71521400  1
  Ce  Ce1  1  0.21755400  0.43510900  0.29195400  1
  O  O0  1  0.55448300  0.10896500  0.31859200  1
  O  O1  1  0.33613600  0.67227400  0.66837500  1
  O  O2  1  0.11793000  0.23586000  0.94620600  1
loop_
_geom_bond_atom_site_label_1
_geom_bond_atom_site_label_2
_geom_bond_distance
_geom_bond_site_symmetry_2
Li0 O0 2.115453 1_566
Li0 O1 2.162479 1_555
Li0 O2 2.215778 1_555
Li0 O2 2.431315 1_565
Li0 O2 2.431315 1_665
Ce0 O1 2.317312 1_545
Ce0 O1 2.368660 1_655
Ce0 O1 2.368670 1_555
Ce0 O0 2.609516 1_555
Ce0 O2 2.653132 1_655
Ce0 O2 2.653135 1_555
Ce0 O2 3.057906 1_665
Ce1 O2 2.275512 1_554
Ce1 O0 2.328023 1_455
Ce1 O0 2.328030 1_555
Ce1 O0 2.353848 1_565
Ce1 O1 2.475838 1_555
