# generated using pymatgen
data_Ba4Tb2Cd3S10
_symmetry_space_group_name_H-M   'P 1'
_cell_length_a   9.37230770
_cell_length_b   9.37230770
_cell_length_c   26.94282500
_cell_angle_alpha   90.00000000
_cell_angle_beta   90.00000000
_cell_angle_gamma   154.16126240
_symmetry_Int_Tables_number   1
_chemical_formula_structural   Ba4Tb2Cd3S10
_chemical_formula_sum   'Ba8 Tb4 Cd6 S20'
_cell_volume   1031.48519328
_cell_formula_units_Z   2
loop_
 _symmetry_equiv_pos_site_id
 _symmetry_equiv_pos_as_xyz
  1  'x, y, z'
loop_
 _atom_site_type_symbol
 _atom_site_label
 _atom_site_symmetry_multiplicity
 _atom_site_fract_x
 _atom_site_fract_y
 _atom_site_fract_z
 _atom_site_occupancy
  Ba  Ba0  1  0.59476700  0.40523300  0.33932600  1
  Ba  Ba1  1  0.40523300  0.59476700  0.83932600  1
  Ba  Ba2  1  0.57561800  0.42438200  0.15620100  1
  Ba  Ba3  1  0.42438200  0.57561800  0.65620100  1
  Ba  Ba4  1  0.16261400  0.83738600  0.61122400  1
  Ba  Ba5  1  0.83738600  0.16261400  0.11122400  1
  Ba  Ba6  1  0.16188700  0.83811300  0.89010900  1
  Ba  Ba7  1  0.83811300  0.16188700  0.39010900  1
  Tb  Tb0  1  0.50282100  0.49717900  0.49990500  1
  Tb  Tb1  1  0.49717900  0.50282100  0.99990500  1
  Tb  Tb2  1  0.07876600  0.92123400  0.75330200  1
  Tb  Tb3  1  0.92123400  0.07876600  0.25330200  1
  Cd  Cd0  1  0.21731600  0.78268400  0.23173800  1
  Cd  Cd1  1  0.78268400  0.21731600  0.73173800  1
  Cd  Cd2  1  0.15900100  0.84099900  0.46200400  1
  Cd  Cd3  1  0.84099900  0.15900100  0.96200400  1
  Cd  Cd4  1  0.15370400  0.84629600  0.04397200  1
  Cd  Cd5  1  0.84629600  0.15370400  0.54397200  1
  S  S0  1  0.42366000  0.57634000  0.32051900  1
  S  S1  1  0.57634000  0.42366000  0.82051900  1
  S  S2  1  0.41059800  0.58940200  0.18432300  1
  S  S3  1  0.58940200  0.41059800  0.68432300  1
  S  S4  1  0.34985400  0.65014600  0.48920100  1
  S  S5  1  0.65014600  0.34985400  0.98920100  1
  S  S6  1  0.34696400  0.65303600  0.01879400  1
  S  S7  1  0.65303600  0.34696400  0.51879400  1
  S  S8  1  0.23004700  0.76995300  0.76599900  1
  S  S9  1  0.76995300  0.23004700  0.26599900  1
  S  S10  1  0.21108500  0.78891500  0.37800000  1
  S  S11  1  0.78891500  0.21108500  0.87800000  1
  S  S12  1  0.20743000  0.79257000  0.13114600  1
  S  S13  1  0.79257000  0.20743000  0.63114600  1
  S  S14  1  0.07333400  0.92666600  0.24717100  1
  S  S15  1  0.92666600  0.07333400  0.74717100  1
  S  S16  1  0.01579200  0.98420800  0.43333700  1
  S  S17  1  0.98420800  0.01579200  0.93333700  1
  S  S18  1  0.98872300  0.01127700  0.57064800  1
  S  S19  1  0.01127700  0.98872300  0.07064800  1
loop_
_geom_bond_atom_site_label_1
_geom_bond_atom_site_label_2
_geom_bond_distance
_geom_bond_site_symmetry_2
Ba0 S10 3.161156 1_545
Ba0 S10 3.161156 1_655
Ba0 S0 3.166944 1_555
Ba0 S14 3.272484 1_545
Ba0 S14 3.272484 1_655
Ba0 S16 3.590061 1_545
Ba0 S16 3.590061 1_655
Ba0 S9 3.761304 1_555
Ba1 S11 3.161156 1_455
Ba1 S11 3.161156 1_565
Ba1 S1 3.166944 1_555
Ba1 S15 3.272484 1_455
Ba1 S15 3.272484 1_565
Ba1 S17 3.590061 1_455
Ba1 S17 3.590061 1_565
Ba1 S8 3.761304 1_555
Ba2 S2 3.108683 1_555
Ba2 S14 3.224907 1_545
Ba2 S14 3.224907 1_655
Ba2 S12 3.262845 1_655
Ba2 S12 3.262845 1_545
Ba2 S19 3.329563 1_545
Ba2 S19 3.329563 1_655
Ba3 S3 3.108683 1_555
Ba3 S15 3.224907 1_565
Ba3 S15 3.224907 1_455
Ba3 S13 3.262845 1_565
Ba3 S13 3.262845 1_455
Ba3 S18 3.329563 1_565
Ba3 S18 3.329563 1_455
Ba4 S3 3.171592 1_455
Ba4 S3 3.171592 1_565
Ba4 S13 3.211914 1_565
Ba4 S13 3.211914 1_455
Ba4 S7 3.259338 1_565
Ba4 S7 3.259338 1_455
Ba4 S18 3.359841 1_465
Ba5 S2 3.171592 1_545
Ba5 S2 3.171592 1_655
Ba5 S12 3.211914 1_655
Ba5 S12 3.211914 1_545
Ba5 S6 3.259338 1_545
Ba5 S6 3.259338 1_655
Ba5 S19 3.359841 1_645
Ba6 S11 3.143813 1_565
Ba6 S11 3.143813 1_455
Ba6 S1 3.217018 1_565
Ba6 S1 3.217018 1_455
Ba6 S5 3.400718 1_565
Ba6 S5 3.400718 1_455
Ba6 S17 3.448826 1_465
Ba6 S8 3.568227 1_555
Ba7 S10 3.143813 1_545
Ba7 S10 3.143813 1_655
Ba7 S0 3.217018 1_655
Ba7 S0 3.217018 1_545
Ba7 S4 3.400718 1_545
Ba7 S4 3.400718 1_655
Ba7 S16 3.448826 1_645
Ba7 S9 3.568227 1_555
Cd0 S9 2.483519 1_455
Cd0 S9 2.483519 1_565
Cd0 S14 2.663227 1_555
Cd0 S12 2.716244 1_555
Cd1 S8 2.483519 1_545
Cd1 S8 2.483519 1_655
Cd1 S15 2.663227 1_555
Cd1 S13 2.716244 1_555
Cd2 S10 2.455210 1_555
Cd2 S7 2.596916 1_565
Cd2 S7 2.596916 1_455
Cd2 S16 2.728064 1_555
Cd3 S11 2.455210 1_555
Cd3 S6 2.596916 1_546
Cd3 S6 2.596916 1_656
Cd3 S17 2.728064 1_555
Cd4 S12 2.545576 1_555
Cd4 S5 2.563750 1_454
Cd4 S5 2.563750 1_564
Cd4 S19 2.699590 1_555
Cd5 S13 2.545576 1_555
Cd5 S4 2.563750 1_655
Cd5 S4 2.563750 1_545
Cd5 S18 2.699590 1_555
S0 Tb3 2.769961 1_455
S0 Tb3 2.769961 1_565
S1 Tb2 2.769961 1_545
S1 Tb2 2.769961 1_655
S2 Tb3 2.807612 1_455
S2 Tb3 2.807612 1_565
S3 Tb2 2.807612 1_655
S3 Tb2 2.807612 1_545
S4 Tb0 2.809564 1_555
S5 Tb1 2.809564 1_555
S6 Tb1 2.791232 1_554
S7 Tb0 2.791232 1_555
S8 Tb2 2.785010 1_555
S9 Tb3 2.785010 1_555
S14 Tb3 2.783789 1_465
S15 Tb2 2.783789 1_645
S16 Tb0 2.768366 1_455
S16 Tb0 2.768366 1_565
S17 Tb1 2.768366 1_545
S17 Tb1 2.768366 1_655
S18 Tb0 2.844324 1_545
S18 Tb0 2.844324 1_655
S19 Tb1 2.844324 1_564
S19 Tb1 2.844324 1_454
