# generated using pymatgen
data_Y2Mn3(SiO4)3
_symmetry_space_group_name_H-M   'P 1'
_cell_length_a   10.78135810
_cell_length_b   10.78135810
_cell_length_c   10.78135810
_cell_angle_alpha   109.47122063
_cell_angle_beta   109.47122063
_cell_angle_gamma   109.47122063
_symmetry_Int_Tables_number   1
_chemical_formula_structural   Y2Mn3(SiO4)3
_chemical_formula_sum   'Y8 Mn12 Si12 O48'
_cell_volume   964.71387044
_cell_formula_units_Z   4
loop_
 _symmetry_equiv_pos_site_id
 _symmetry_equiv_pos_as_xyz
  1  'x, y, z'
loop_
 _atom_site_type_symbol
 _atom_site_label
 _atom_site_symmetry_multiplicity
 _atom_site_fract_x
 _atom_site_fract_y
 _atom_site_fract_z
 _atom_site_occupancy
  Y  Y0  1  0.00000000  0.00000000  0.50000000  1
  Y  Y1  1  0.00000000  0.00000000  0.00000000  1
  Y  Y2  1  0.50000000  0.00000000  0.00000000  1
  Y  Y3  1  0.00000000  0.50000000  0.00000000  1
  Y  Y4  1  0.50000000  0.50000000  0.00000000  1
  Y  Y5  1  0.00000000  0.50000000  0.50000000  1
  Y  Y6  1  0.50000000  0.00000000  0.50000000  1
  Y  Y7  1  0.50000000  0.50000000  0.50000000  1
  Mn  Mn0  1  0.87500000  0.62500000  0.25000000  1
  Mn  Mn1  1  0.62500000  0.25000000  0.87500000  1
  Mn  Mn2  1  0.87500000  0.75000000  0.62500000  1
  Mn  Mn3  1  0.75000000  0.62500000  0.87500000  1
  Mn  Mn4  1  0.25000000  0.87500000  0.62500000  1
  Mn  Mn5  1  0.62500000  0.87500000  0.75000000  1
  Mn  Mn6  1  0.12500000  0.37500000  0.75000000  1
  Mn  Mn7  1  0.37500000  0.75000000  0.12500000  1
  Mn  Mn8  1  0.12500000  0.25000000  0.37500000  1
  Mn  Mn9  1  0.25000000  0.37500000  0.12500000  1
  Mn  Mn10  1  0.75000000  0.12500000  0.37500000  1
  Mn  Mn11  1  0.37500000  0.12500000  0.25000000  1
  Si  Si0  1  0.12500000  0.87500000  0.25000000  1
  Si  Si1  1  0.25000000  0.12500000  0.87500000  1
  Si  Si2  1  0.75000000  0.37500000  0.62500000  1
  Si  Si3  1  0.62500000  0.37500000  0.25000000  1
  Si  Si4  1  0.62500000  0.75000000  0.37500000  1
  Si  Si5  1  0.37500000  0.62500000  0.75000000  1
  Si  Si6  1  0.12500000  0.75000000  0.87500000  1
  Si  Si7  1  0.75000000  0.87500000  0.12500000  1
  Si  Si8  1  0.87500000  0.25000000  0.12500000  1
  Si  Si9  1  0.37500000  0.25000000  0.62500000  1
  Si  Si10  1  0.25000000  0.62500000  0.37500000  1
  Si  Si11  1  0.87500000  0.12500000  0.75000000  1
  O  O0  1  0.48132100  0.37280100  0.27702300  1
  O  O1  1  0.29570200  0.89148000  0.01867900  1
  O  O2  1  0.60852000  0.90422200  0.12719900  1
  O  O3  1  0.59577800  0.20429800  0.22297700  1
  O  O4  1  0.12719900  0.01867900  0.22297700  1
  O  O5  1  0.20429800  0.22297700  0.59577800  1
  O  O6  1  0.20429800  0.48132100  0.60852000  1
  O  O7  1  0.22297700  0.59577800  0.20429800  1
  O  O8  1  0.37280100  0.59577800  0.89148000  1
  O  O9  1  0.90422200  0.27702300  0.29570200  1
  O  O10  1  0.27702300  0.29570200  0.90422200  1
  O  O11  1  0.22297700  0.12719900  0.01867900  1
  O  O12  1  0.48132100  0.60852000  0.20429800  1
  O  O13  1  0.89148000  0.37280100  0.59577800  1
  O  O14  1  0.01867900  0.22297700  0.12719900  1
  O  O15  1  0.60852000  0.20429800  0.48132100  1
  O  O16  1  0.59577800  0.89148000  0.37280100  1
  O  O17  1  0.01867900  0.29570200  0.89148000  1
  O  O18  1  0.90422200  0.12719900  0.60852000  1
  O  O19  1  0.62719900  0.40422200  0.10852000  1
  O  O20  1  0.37280100  0.27702300  0.48132100  1
  O  O21  1  0.27702300  0.48132100  0.37280100  1
  O  O22  1  0.89148000  0.01867900  0.29570200  1
  O  O23  1  0.29570200  0.90422200  0.27702300  1
  O  O24  1  0.51867900  0.62719900  0.72297700  1
  O  O25  1  0.70429800  0.10852000  0.98132100  1
  O  O26  1  0.39148000  0.09577800  0.87280100  1
  O  O27  1  0.40422200  0.79570200  0.77702300  1
  O  O28  1  0.87280100  0.98132100  0.77702300  1
  O  O29  1  0.79570200  0.77702300  0.40422200  1
  O  O30  1  0.79570200  0.51867900  0.39148000  1
  O  O31  1  0.77702300  0.40422200  0.79570200  1
  O  O32  1  0.70429800  0.09577800  0.72297700  1
  O  O33  1  0.10852000  0.98132100  0.70429800  1
  O  O34  1  0.72297700  0.51867900  0.62719900  1
  O  O35  1  0.62719900  0.72297700  0.51867900  1
  O  O36  1  0.87280100  0.39148000  0.09577800  1
  O  O37  1  0.09577800  0.87280100  0.39148000  1
  O  O38  1  0.98132100  0.70429800  0.10852000  1
  O  O39  1  0.40422200  0.10852000  0.62719900  1
  O  O40  1  0.39148000  0.79570200  0.51867900  1
  O  O41  1  0.98132100  0.77702300  0.87280100  1
  O  O42  1  0.10852000  0.62719900  0.40422200  1
  O  O43  1  0.51867900  0.39148000  0.79570200  1
  O  O44  1  0.77702300  0.87280100  0.98132100  1
  O  O45  1  0.72297700  0.70429800  0.09577800  1
  O  O46  1  0.09577800  0.72297700  0.70429800  1
  O  O47  1  0.12719900  0.60852000  0.90422200  1
loop_
_geom_bond_atom_site_label_1
_geom_bond_atom_site_label_2
_geom_bond_distance
_geom_bond_site_symmetry_2
Mn0 O37 2.398599 1_655
Mn0 O38 2.398599 1_555
Mn0 O30 2.398599 1_555
Mn0 O19 2.398599 1_555
Mn0 O36 2.499396 1_555
Mn0 O42 2.499396 1_655
Mn0 O45 2.499396 1_555
Mn0 O29 2.499396 1_555
Mn1 O36 2.398599 1_556
Mn1 O25 2.398599 1_555
Mn1 O39 2.398599 1_555
Mn1 O43 2.398599 1_555
Mn1 O26 2.499396 1_555
Mn1 O19 2.499396 1_556
Mn1 O32 2.499396 1_555
Mn1 O31 2.499396 1_555
Mn2 O41 2.398599 1_555
Mn2 O46 2.398599 1_655
Mn2 O35 2.398599 1_555
Mn2 O29 2.398599 1_555
Mn2 O30 2.499396 1_555
Mn2 O34 2.499396 1_555
Mn2 O33 2.499396 1_655
Mn2 O28 2.499396 1_555
Mn3 O44 2.398599 1_555
Mn3 O45 2.398599 1_556
Mn3 O34 2.398599 1_555
Mn3 O31 2.398599 1_555
Mn3 O43 2.499396 1_555
Mn3 O38 2.499396 1_556
Mn3 O24 2.499396 1_555
Mn3 O41 2.499396 1_555
Mn4 O26 2.398599 1_565
Mn4 O33 2.398599 1_555
Mn4 O42 2.398599 1_555
Mn4 O40 2.398599 1_555
Mn4 O37 2.499396 1_555
Mn4 O39 2.499396 1_565
Mn4 O46 2.499396 1_555
Mn4 O27 2.499396 1_555
Mn5 O28 2.398599 1_555
Mn5 O32 2.398599 1_565
Mn5 O24 2.398599 1_555
Mn5 O27 2.398599 1_555
Mn5 O40 2.499396 1_555
Mn5 O35 2.499396 1_555
Mn5 O25 2.499396 1_565
Mn5 O44 2.499396 1_555
Mn6 O6 2.398599 1_555
Mn6 O8 2.398599 1_555
Mn6 O18 2.398599 1_455
Mn6 O17 2.398599 1_555
Mn6 O47 2.499396 1_555
Mn6 O10 2.499396 1_555
Mn6 O13 2.499396 1_455
Mn6 O5 2.499396 1_555
Mn7 O12 2.398599 1_555
Mn7 O16 2.398599 1_555
Mn7 O47 2.398599 1_554
Mn7 O1 2.398599 1_555
Mn7 O2 2.499396 1_555
Mn7 O23 2.499396 1_555
Mn7 O7 2.499396 1_555
Mn7 O8 2.499396 1_554
Mn8 O9 2.398599 1_455
Mn8 O5 2.398599 1_555
Mn8 O14 2.398599 1_555
Mn8 O20 2.398599 1_555
Mn8 O21 2.499396 1_555
Mn8 O22 2.499396 1_455
Mn8 O6 2.499396 1_555
Mn8 O4 2.499396 1_555
Mn9 O10 2.398599 1_554
Mn9 O7 2.398599 1_555
Mn9 O11 2.398599 1_555
Mn9 O21 2.398599 1_555
Mn9 O0 2.499396 1_555
Mn9 O17 2.499396 1_554
Mn9 O12 2.499396 1_555
Mn9 O14 2.499396 1_555
Mn10 O15 2.398599 1_555
Mn10 O13 2.398599 1_555
Mn10 O2 2.398599 1_545
Mn10 O22 2.398599 1_555
Mn10 O18 2.499396 1_555
Mn10 O9 2.499396 1_555
Mn10 O16 2.499396 1_545
Mn10 O3 2.499396 1_555
Mn11 O23 2.398599 1_545
Mn11 O3 2.398599 1_555
Mn11 O4 2.398599 1_555
Mn11 O0 2.398599 1_555
Mn11 O20 2.499396 1_555
Mn11 O1 2.499396 1_545
Mn11 O15 2.499396 1_555
Mn11 O11 2.499396 1_555
O0 Si3 1.663132 1_555
O0 Y7 2.235106 1_555
O1 Si6 1.663132 1_554
O1 Y2 2.235106 1_565
O2 Si7 1.663132 1_555
O2 Y2 2.235106 1_565
O3 Si3 1.663132 1_555
O3 Y2 2.235106 1_555
O4 Si0 1.663132 1_545
O4 Y1 2.235106 1_555
O5 Si9 1.663132 1_555
O5 Y0 2.235106 1_555
O6 Si5 1.663132 1_555
O6 Y5 2.235106 1_555
O7 Si10 1.663132 1_555
O7 Y3 2.235106 1_555
O8 Si5 1.663132 1_555
O8 Y4 2.235106 1_556
O9 Si8 1.663132 1_555
O9 Y5 2.235106 1_655
O10 Si1 1.663132 1_555
O10 Y4 2.235106 1_556
O11 Si1 1.663132 1_554
O11 Y1 2.235106 1_555
O12 Si4 1.663132 1_555
O12 Y4 2.235106 1_555
O13 Si2 1.663132 1_555
O13 Y5 2.235106 1_655
O14 Si8 1.663132 1_455
O14 Y1 2.235106 1_555
O15 Si2 1.663132 1_555
O15 Y6 2.235106 1_555
O16 Si4 1.663132 1_555
O16 Y6 2.235106 1_565
O17 Si11 1.663132 1_455
O17 Y3 2.235106 1_556
O18 Si11 1.663132 1_555
O18 Y0 2.235106 1_655
O19 Si3 1.663132 1_555
O19 Y4 2.235106 1_555
O20 Si9 1.663132 1_555
O20 Y7 2.235106 1_555
O21 Si10 1.663132 1_555
O21 Y7 2.235106 1_555
O22 Si7 1.663132 1_545
O22 Y0 2.235106 1_655
O23 Si0 1.663132 1_555
O23 Y6 2.235106 1_565
O24 Si5 1.663132 1_555
O24 Y7 2.235106 1_555
O25 Si8 1.663132 1_556
O25 Y2 2.235106 1_556
O26 Si1 1.663132 1_555
O26 Y2 2.235106 1_556
O27 Si5 1.663132 1_555
O27 Y2 2.235106 1_566
O28 Si11 1.663132 1_565
O28 Y1 2.235106 1_666
O29 Si4 1.663132 1_555
O29 Y0 2.235106 1_665
O30 Si3 1.663132 1_555
O30 Y5 2.235106 1_655
O31 Si2 1.663132 1_555
O31 Y3 2.235106 1_656
O32 Si11 1.663132 1_555
O32 Y6 2.235106 1_555
O33 Si1 1.663132 1_565
O33 Y0 2.235106 1_565
O34 Si2 1.663132 1_555
O34 Y7 2.235106 1_555
O35 Si4 1.663132 1_555
O35 Y7 2.235106 1_555
O36 Si8 1.663132 1_555
O36 Y3 2.235106 1_655
O37 Si0 1.663132 1_555
O37 Y0 2.235106 1_565
O38 Si0 1.663132 1_655
O38 Y3 2.235106 1_655
O39 Si9 1.663132 1_555
O39 Y6 2.235106 1_555
O40 Si10 1.663132 1_555
O40 Y6 2.235106 1_565
O41 Si6 1.663132 1_655
O41 Y1 2.235106 1_666
O42 Si10 1.663132 1_555
O42 Y5 2.235106 1_555
O43 Si9 1.663132 1_555
O43 Y4 2.235106 1_556
O44 Si7 1.663132 1_556
O44 Y1 2.235106 1_666
O45 Si7 1.663132 1_555
O45 Y4 2.235106 1_555
O46 Si6 1.663132 1_555
O46 Y5 2.235106 1_555
O47 Si6 1.663132 1_555
O47 Y3 2.235106 1_556
