# generated using pymatgen
data_Na3InF6
_symmetry_space_group_name_H-M   'P 1'
_cell_length_a   5.82869639
_cell_length_b   5.56417590
_cell_length_c   9.70227543
_cell_angle_alpha   56.55497585
_cell_angle_beta   90.00000000
_cell_angle_gamma   90.00000000
_symmetry_Int_Tables_number   1
_chemical_formula_structural   Na3InF6
_chemical_formula_sum   'Na6 In2 F12'
_cell_volume   262.55965986
_cell_formula_units_Z   2
loop_
 _symmetry_equiv_pos_site_id
 _symmetry_equiv_pos_as_xyz
  1  'x, y, z'
loop_
 _atom_site_type_symbol
 _atom_site_label
 _atom_site_symmetry_multiplicity
 _atom_site_fract_x
 _atom_site_fract_y
 _atom_site_fract_z
 _atom_site_occupancy
  Na  Na0  1  0.50000000  0.50000000  -0.00000000  1
  Na  Na1  1  -0.00000000  0.50000000  0.50000000  1
  Na  Na2  1  0.06400903  0.71853623  0.76157540  1
  Na  Na3  1  0.93599097  0.28146377  0.23842460  1
  Na  Na4  1  0.56400903  0.28146377  0.73842460  1
  Na  Na5  1  0.43599097  0.71853623  0.26157540  1
  In  In0  1  0.50000000  -0.00000000  0.50000000  1
  In  In1  1  -0.00000000  -0.00000000  -0.00000000  1
  F  F0  1  0.79417193  0.74230145  0.58321021  1
  F  F1  1  0.20582807  0.25769855  0.41678979  1
  F  F2  1  0.29417193  0.25769855  0.91678979  1
  F  F3  1  0.70582807  0.74230145  0.08321021  1
  F  F4  1  0.42766611  0.89861939  0.73759750  1
  F  F5  1  0.57233389  0.10138061  0.26240250  1
  F  F6  1  0.92766611  0.10138061  0.76240250  1
  F  F7  1  0.07233389  0.89861939  0.23759750  1
  F  F8  1  0.31968465  0.63462194  0.55820076  1
  F  F9  1  0.68031535  0.36537806  0.44179924  1
  F  F10  1  0.81968465  0.36537806  0.94179924  1
  F  F11  1  0.18031535  0.63462194  0.05820076  1
loop_
_geom_bond_atom_site_label_1
_geom_bond_atom_site_label_2
_geom_bond_distance
_geom_bond_site_symmetry_2
F0 In0 2.090878 1_565
F0 Na1 2.260202 1_655
F0 Na2 2.287736 1_655
F0 Na4 2.527094 1_555
F1 In0 2.090878 1_555
F1 Na1 2.260202 1_555
F1 Na3 2.287736 1_455
F1 Na5 2.527094 1_555
F2 In1 2.090878 1_556
F2 Na0 2.260202 1_556
F2 Na4 2.287736 1_555
F2 Na2 2.527094 1_555
F3 In1 2.090878 1_665
F3 Na0 2.260202 1_555
F3 Na5 2.287736 1_555
F3 Na3 2.527094 1_555
F4 In0 2.092057 1_565
F4 Na4 2.277777 1_565
F4 Na2 2.300893 1_555
F4 Na0 2.313990 1_556
F5 In0 2.092057 1_555
F5 Na5 2.277777 1_545
F5 Na3 2.300893 1_555
F5 Na0 2.313990 1_555
F6 In1 2.092057 1_656
F6 Na2 2.277777 1_645
F6 Na4 2.300893 1_555
F6 Na1 2.313990 1_655
F7 In1 2.092057 1_565
F7 Na3 2.277777 1_465
F7 Na5 2.300893 1_555
F7 Na1 2.313990 1_555
F8 In0 2.071534 1_565
F8 Na1 2.195050 1_555
F8 Na4 2.271453 1_555
F8 Na2 2.710704 1_555
F8 Na5 2.734765 1_555
F9 In0 2.071534 1_555
F9 Na1 2.195050 1_655
F9 Na5 2.271453 1_555
F9 Na3 2.710704 1_555
F9 Na4 2.734765 1_555
F10 In1 2.071534 1_656
F10 Na0 2.195050 1_556
F10 Na2 2.271453 1_655
F10 Na4 2.710704 1_555
F10 Na3 2.734765 1_556
F11 In1 2.071534 1_565
F11 Na0 2.195050 1_555
F11 Na3 2.271453 1_455
F11 Na5 2.710704 1_555
F11 Na2 2.734765 1_554
