# generated using pymatgen
data_CeMg
_symmetry_space_group_name_H-M   'P 1'
_cell_length_a   6.23180495
_cell_length_b   6.23180495
_cell_length_c   34.63452054
_cell_angle_alpha   90.00000000
_cell_angle_beta   90.00000000
_cell_angle_gamma   120.00114471
_symmetry_Int_Tables_number   1
_chemical_formula_structural   CeMg
_chemical_formula_sum   'Ce24 Mg24'
_cell_volume   1164.82988641
_cell_formula_units_Z   24
loop_
 _symmetry_equiv_pos_site_id
 _symmetry_equiv_pos_as_xyz
  1  'x, y, z'
loop_
 _atom_site_type_symbol
 _atom_site_label
 _atom_site_symmetry_multiplicity
 _atom_site_fract_x
 _atom_site_fract_y
 _atom_site_fract_z
 _atom_site_occupancy
  Ce  Ce0_0  1  0.33333178  0.16666822  0.00000000  1
  Ce  Ce0_1  1  0.33333178  0.16666822  0.50000000  1
  Ce  Ce0_2  1  0.33333178  0.66666822  0.00000000  1
  Ce  Ce0_3  1  0.33333178  0.66666822  0.50000000  1
  Ce  Ce0_4  1  0.83333178  0.16666822  0.00000000  1
  Ce  Ce0_5  1  0.83333178  0.16666822  0.50000000  1
  Ce  Ce0_6  1  0.83333178  0.66666822  0.00000000  1
  Ce  Ce0_7  1  0.83333178  0.66666822  0.50000000  1
  Ce  Ce1_0  1  0.99999014  0.00000986  0.41049604  1
  Ce  Ce1_1  1  0.99999014  0.00000986  0.91049604  1
  Ce  Ce1_2  1  0.99999014  0.50000986  0.41049604  1
  Ce  Ce1_3  1  0.99999014  0.50000986  0.91049604  1
  Ce  Ce1_4  1  0.49999014  0.00000986  0.41049604  1
  Ce  Ce1_5  1  0.49999014  0.00000986  0.91049604  1
  Ce  Ce1_6  1  0.49999014  0.50000986  0.41049604  1
  Ce  Ce1_7  1  0.49999014  0.50000986  0.91049604  1
  Ce  Ce2_0  1  0.99999014  0.00000986  0.08950395  1
  Ce  Ce2_1  1  0.99999014  0.00000986  0.58950395  1
  Ce  Ce2_2  1  0.99999014  0.50000986  0.08950395  1
  Ce  Ce2_3  1  0.99999014  0.50000986  0.58950395  1
  Ce  Ce2_4  1  0.49999014  0.00000986  0.08950395  1
  Ce  Ce2_5  1  0.49999014  0.00000986  0.58950395  1
  Ce  Ce2_6  1  0.49999014  0.50000986  0.08950395  1
  Ce  Ce2_7  1  0.49999014  0.50000986  0.58950395  1
  Mg  Mg0_0  1  0.33332602  0.16667398  0.32553227  1
  Mg  Mg0_1  1  0.33332602  0.16667398  0.82553228  1
  Mg  Mg0_2  1  0.33332602  0.66667398  0.32553227  1
  Mg  Mg0_3  1  0.33332602  0.66667398  0.82553228  1
  Mg  Mg0_4  1  0.83332602  0.16667398  0.32553227  1
  Mg  Mg0_5  1  0.83332602  0.16667398  0.82553228  1
  Mg  Mg0_6  1  0.83332602  0.66667398  0.32553227  1
  Mg  Mg0_7  1  0.83332602  0.66667398  0.82553228  1
  Mg  Mg1_0  1  0.00003640  0.99996360  0.25000000  1
  Mg  Mg1_1  1  0.00003640  0.99996360  0.75000000  1
  Mg  Mg1_2  1  0.00003640  0.49996360  0.25000000  1
  Mg  Mg1_3  1  0.00003640  0.49996360  0.75000000  1
  Mg  Mg1_4  1  0.50003640  0.99996360  0.25000000  1
  Mg  Mg1_5  1  0.50003640  0.99996360  0.75000000  1
  Mg  Mg1_6  1  0.50003640  0.49996360  0.25000000  1
  Mg  Mg1_7  1  0.50003640  0.49996360  0.75000000  1
  Mg  Mg2_0  1  0.33332602  0.16667398  0.17446772  1
  Mg  Mg2_1  1  0.33332602  0.16667398  0.67446772  1
  Mg  Mg2_2  1  0.33332602  0.66667398  0.17446772  1
  Mg  Mg2_3  1  0.33332602  0.66667398  0.67446772  1
  Mg  Mg2_4  1  0.83332602  0.16667398  0.17446772  1
  Mg  Mg2_5  1  0.83332602  0.16667398  0.67446772  1
  Mg  Mg2_6  1  0.83332602  0.66667398  0.17446772  1
  Mg  Mg2_7  1  0.83332602  0.66667398  0.67446772  1
loop_
_geom_bond_atom_site_label_1
_geom_bond_atom_site_label_2
_geom_bond_distance
_geom_bond_site_symmetry_2
Ce0_0 Ce0_6 3.115849 1_555
Ce0_0 Ce0_6 3.115849 1_445
Ce0_0 Ce0_4 3.115902 1_555
Ce0_0 Ce0_2 3.115902 1_545
Ce0_0 Ce0_2 3.115902 1_555
Ce0_0 Ce0_4 3.115902 1_455
Ce0_0 Ce2_4 3.584068 1_555
Ce0_0 Ce1_5 3.584068 1_554
Ce0_0 Ce2_6 3.584120 1_555
Ce0_0 Ce2_0 3.584120 1_455
Ce0_0 Ce1_7 3.584120 1_554
Ce0_0 Ce1_1 3.584120 1_454
Ce0_1 Ce0_7 3.115849 1_555
Ce0_1 Ce0_7 3.115849 1_445
Ce0_1 Ce0_3 3.115902 1_545
Ce0_1 Ce0_5 3.115902 1_555
Ce0_1 Ce0_3 3.115902 1_555
Ce0_1 Ce0_5 3.115902 1_455
Ce0_1 Ce2_5 3.584068 1_555
Ce0_1 Ce1_4 3.584068 1_555
Ce0_1 Ce2_7 3.584120 1_555
Ce0_1 Ce2_1 3.584120 1_455
Ce0_1 Ce1_6 3.584120 1_555
Ce0_1 Ce1_0 3.584120 1_455
Ce0_2 Ce0_4 3.115849 1_455
Ce0_2 Ce0_4 3.115849 1_565
Ce0_2 Ce0_6 3.115902 1_555
Ce0_2 Ce0_6 3.115902 1_455
Ce0_2 Ce2_6 3.584068 1_555
Ce0_2 Ce1_7 3.584068 1_554
Ce0_2 Ce2_4 3.584120 1_565
Ce0_2 Ce2_2 3.584120 1_455
Ce0_2 Ce1_3 3.584120 1_454
Ce0_2 Ce1_5 3.584120 1_564
Ce0_3 Ce0_5 3.115849 1_565
Ce0_3 Ce0_5 3.115849 1_455
Ce0_3 Ce0_7 3.115902 1_555
Ce0_3 Ce0_7 3.115902 1_455
Ce0_3 Ce2_7 3.584068 1_555
Ce0_3 Ce1_6 3.584068 1_555
Ce0_3 Ce2_5 3.584120 1_565
Ce0_3 Ce2_3 3.584120 1_455
Ce0_3 Ce1_2 3.584120 1_455
Ce0_3 Ce1_4 3.584120 1_565
Ce0_4 Ce0_6 3.115902 1_555
Ce0_4 Ce0_6 3.115902 1_545
Ce0_4 Ce2_0 3.584068 1_555
Ce0_4 Ce1_1 3.584068 1_554
Ce0_4 Ce2_4 3.584120 1_555
Ce0_4 Ce2_2 3.584120 1_555
Ce0_4 Ce1_5 3.584120 1_554
Ce0_4 Ce1_3 3.584120 1_554
Ce0_5 Ce0_7 3.115902 1_555
Ce0_5 Ce0_7 3.115902 1_545
Ce0_5 Ce2_1 3.584068 1_555
Ce0_5 Ce1_0 3.584068 1_555
Ce0_5 Ce2_5 3.584120 1_555
Ce0_5 Ce2_3 3.584120 1_555
Ce0_5 Ce1_4 3.584120 1_555
Ce0_5 Ce1_2 3.584120 1_555
Ce0_6 Ce2_2 3.584068 1_555
Ce0_6 Ce1_3 3.584068 1_554
Ce0_6 Ce2_6 3.584120 1_555
Ce0_6 Ce2_0 3.584120 1_565
Ce0_6 Ce1_1 3.584120 1_564
Ce0_6 Ce1_7 3.584120 1_554
Ce0_7 Ce2_3 3.584068 1_555
Ce0_7 Ce1_2 3.584068 1_555
Ce0_7 Ce2_1 3.584120 1_565
Ce0_7 Ce2_7 3.584120 1_555
Ce0_7 Ce1_6 3.584120 1_555
Ce0_7 Ce1_0 3.584120 1_565
Ce1_0 Ce1_6 3.115849 1_655
Ce1_0 Ce1_6 3.115849 1_545
Ce1_0 Ce1_2 3.115902 1_545
Ce1_0 Ce1_4 3.115902 1_655
Ce1_0 Ce1_2 3.115902 1_555
Ce1_0 Ce1_4 3.115902 1_555
Ce1_0 Mg0_4 3.448997 1_555
Ce1_0 Mg0_6 3.449003 1_545
Ce1_0 Mg0_0 3.449003 1_655
Ce1_1 Ce1_7 3.115849 1_545
Ce1_1 Ce1_7 3.115849 1_655
Ce1_1 Ce1_3 3.115902 1_545
Ce1_1 Ce1_5 3.115902 1_555
Ce1_1 Ce1_3 3.115902 1_555
Ce1_1 Ce1_5 3.115902 1_655
Ce1_1 Mg0_5 3.448997 1_555
Ce1_1 Mg0_7 3.449003 1_545
Ce1_1 Mg0_1 3.449003 1_655
Ce1_2 Ce1_4 3.115849 1_555
Ce1_2 Ce1_4 3.115849 1_665
Ce1_2 Ce1_6 3.115902 1_555
Ce1_2 Ce1_6 3.115902 1_655
Ce1_2 Mg0_6 3.448997 1_555
Ce1_2 Mg0_2 3.449003 1_655
Ce1_2 Mg0_4 3.449003 1_555
Ce1_3 Ce1_5 3.115849 1_665
Ce1_3 Ce1_5 3.115849 1_555
Ce1_3 Ce1_7 3.115902 1_655
Ce1_3 Ce1_7 3.115902 1_555
Ce1_3 Mg0_7 3.448997 1_555
Ce1_3 Mg0_5 3.449003 1_555
Ce1_3 Mg0_3 3.449003 1_655
Ce1_4 Ce1_6 3.115902 1_545
Ce1_4 Ce1_6 3.115902 1_555
Ce1_4 Mg0_0 3.448997 1_555
Ce1_4 Mg0_2 3.449003 1_545
Ce1_4 Mg0_4 3.449003 1_555
Ce1_5 Ce1_7 3.115902 1_545
Ce1_5 Ce1_7 3.115902 1_555
Ce1_5 Mg0_1 3.448997 1_555
Ce1_5 Mg0_5 3.449003 1_555
Ce1_5 Mg0_3 3.449003 1_545
Ce1_6 Mg0_2 3.448997 1_555
Ce1_6 Mg0_6 3.449003 1_555
Ce1_6 Mg0_0 3.449003 1_555
Ce1_7 Mg0_3 3.448997 1_555
Ce1_7 Mg0_1 3.449003 1_555
Ce1_7 Mg0_7 3.449003 1_555
Ce2_0 Ce2_6 3.115849 1_545
Ce2_0 Ce2_6 3.115849 1_655
Ce2_0 Ce2_2 3.115902 1_545
Ce2_0 Ce2_4 3.115902 1_555
Ce2_0 Ce2_2 3.115902 1_555
Ce2_0 Ce2_4 3.115902 1_655
Ce2_0 Mg2_4 3.448997 1_555
Ce2_0 Mg2_0 3.449003 1_655
Ce2_0 Mg2_6 3.449003 1_545
Ce2_1 Ce2_7 3.115849 1_655
Ce2_1 Ce2_7 3.115849 1_545
Ce2_1 Ce2_3 3.115902 1_545
Ce2_1 Ce2_5 3.115902 1_555
Ce2_1 Ce2_5 3.115902 1_655
Ce2_1 Ce2_3 3.115902 1_555
Ce2_1 Mg2_5 3.448997 1_555
Ce2_1 Mg2_1 3.449003 1_655
Ce2_1 Mg2_7 3.449003 1_545
Ce2_2 Ce2_4 3.115849 1_665
Ce2_2 Ce2_4 3.115849 1_555
Ce2_2 Ce2_6 3.115902 1_655
Ce2_2 Ce2_6 3.115902 1_555
Ce2_2 Mg2_6 3.448997 1_555
Ce2_2 Mg2_2 3.449003 1_655
Ce2_2 Mg2_4 3.449003 1_555
Ce2_3 Ce2_5 3.115849 1_555
Ce2_3 Ce2_5 3.115849 1_665
Ce2_3 Ce2_7 3.115902 1_655
Ce2_3 Ce2_7 3.115902 1_555
Ce2_3 Mg2_7 3.448997 1_555
Ce2_3 Mg2_3 3.449003 1_655
Ce2_3 Mg2_5 3.449003 1_555
Ce2_4 Ce2_6 3.115902 1_545
Ce2_4 Ce2_6 3.115902 1_555
Ce2_4 Mg2_0 3.448997 1_555
Ce2_4 Mg2_4 3.449003 1_555
Ce2_4 Mg2_2 3.449003 1_545
Ce2_5 Ce2_7 3.115902 1_545
Ce2_5 Ce2_7 3.115902 1_555
Ce2_5 Mg2_1 3.448997 1_555
Ce2_5 Mg2_3 3.449003 1_545
Ce2_5 Mg2_5 3.449003 1_555
Ce2_6 Mg2_2 3.448997 1_555
Ce2_6 Mg2_6 3.449003 1_555
Ce2_6 Mg2_0 3.449003 1_555
Ce2_7 Mg2_3 3.448997 1_555
Ce2_7 Mg2_7 3.449003 1_555
Ce2_7 Mg2_1 3.449003 1_555
Mg0_0 Mg0_6 3.115849 1_445
Mg0_0 Mg0_6 3.115849 1_555
Mg0_0 Mg0_4 3.115902 1_555
Mg0_0 Mg0_2 3.115902 1_545
Mg0_0 Mg0_2 3.115902 1_555
Mg0_0 Mg0_4 3.115902 1_455
Mg0_0 Mg1_0 3.174735 1_545
Mg0_0 Mg1_6 3.174735 1_555
Mg0_0 Mg1_4 3.175154 1_545
Mg0_1 Mg0_7 3.115849 1_445
Mg0_1 Mg0_7 3.115849 1_555
Mg0_1 Mg0_5 3.115902 1_555
Mg0_1 Mg0_3 3.115902 1_545
Mg0_1 Mg0_5 3.115902 1_455
Mg0_1 Mg0_3 3.115902 1_555
Mg0_1 Mg1_1 3.174735 1_545
Mg0_1 Mg1_7 3.174735 1_555
Mg0_1 Mg1_5 3.175154 1_545
Mg0_2 Mg0_4 3.115849 1_565
Mg0_2 Mg0_4 3.115849 1_455
Mg0_2 Mg0_6 3.115902 1_455
Mg0_2 Mg0_6 3.115902 1_555
Mg0_2 Mg1_2 3.174735 1_555
Mg0_2 Mg1_4 3.174735 1_555
Mg0_2 Mg1_6 3.175154 1_555
Mg0_3 Mg0_5 3.115849 1_565
Mg0_3 Mg0_5 3.115849 1_455
Mg0_3 Mg0_7 3.115902 1_555
Mg0_3 Mg0_7 3.115902 1_455
Mg0_3 Mg1_3 3.174735 1_555
Mg0_3 Mg1_5 3.174735 1_555
Mg0_3 Mg1_7 3.175154 1_555
Mg0_4 Mg0_6 3.115902 1_555
Mg0_4 Mg0_6 3.115902 1_545
Mg0_4 Mg1_4 3.174735 1_545
Mg0_4 Mg1_2 3.174735 1_655
Mg0_4 Mg1_0 3.175154 1_645
Mg0_5 Mg0_7 3.115902 1_545
Mg0_5 Mg0_7 3.115902 1_555
Mg0_5 Mg1_5 3.174735 1_545
Mg0_5 Mg1_3 3.174735 1_655
Mg0_5 Mg1_1 3.175154 1_645
Mg0_6 Mg1_0 3.174735 1_655
Mg0_6 Mg1_6 3.174735 1_555
Mg0_6 Mg1_2 3.175154 1_655
Mg0_7 Mg1_7 3.174735 1_555
Mg0_7 Mg1_1 3.174735 1_655
Mg0_7 Mg1_3 3.175154 1_655
Mg1_0 Mg1_6 3.115849 1_565
Mg1_0 Mg1_6 3.115849 1_455
Mg1_0 Mg1_2 3.115902 1_555
Mg1_0 Mg1_4 3.115902 1_555
Mg1_0 Mg1_4 3.115902 1_455
Mg1_0 Mg1_2 3.115902 1_565
Mg1_0 Mg2_0 3.174735 1_565
Mg1_0 Mg2_6 3.174735 1_455
Mg1_0 Mg2_4 3.175154 1_465
Mg1_1 Mg1_7 3.115849 1_565
Mg1_1 Mg1_7 3.115849 1_455
Mg1_1 Mg1_3 3.115902 1_555
Mg1_1 Mg1_5 3.115902 1_555
Mg1_1 Mg1_5 3.115902 1_455
Mg1_1 Mg1_3 3.115902 1_565
Mg1_1 Mg2_7 3.174735 1_455
Mg1_1 Mg2_1 3.174735 1_565
Mg1_1 Mg2_5 3.175154 1_465
Mg1_2 Mg1_4 3.115849 1_555
Mg1_2 Mg1_4 3.115849 1_445
Mg1_2 Mg1_6 3.115902 1_555
Mg1_2 Mg1_6 3.115902 1_455
Mg1_2 Mg2_2 3.174735 1_555
Mg1_2 Mg2_4 3.174735 1_455
Mg1_2 Mg2_6 3.175154 1_455
Mg1_3 Mg1_5 3.115849 1_445
Mg1_3 Mg1_5 3.115849 1_555
Mg1_3 Mg1_7 3.115902 1_455
Mg1_3 Mg1_7 3.115902 1_555
Mg1_3 Mg2_3 3.174735 1_555
Mg1_3 Mg2_5 3.174735 1_455
Mg1_3 Mg2_7 3.175154 1_455
Mg1_4 Mg1_6 3.115902 1_555
Mg1_4 Mg1_6 3.115902 1_565
Mg1_4 Mg2_4 3.174735 1_565
Mg1_4 Mg2_2 3.174735 1_555
Mg1_4 Mg2_0 3.175154 1_565
Mg1_5 Mg1_7 3.115902 1_555
Mg1_5 Mg1_7 3.115902 1_565
Mg1_5 Mg2_3 3.174735 1_555
Mg1_5 Mg2_5 3.174735 1_565
Mg1_5 Mg2_1 3.175154 1_565
Mg1_6 Mg2_0 3.174735 1_555
Mg1_6 Mg2_6 3.174735 1_555
Mg1_6 Mg2_2 3.175154 1_555
Mg1_7 Mg2_7 3.174735 1_555
Mg1_7 Mg2_1 3.174735 1_555
Mg1_7 Mg2_3 3.175154 1_555
Mg2_0 Mg2_6 3.115849 1_555
Mg2_0 Mg2_6 3.115849 1_445
Mg2_0 Mg2_4 3.115902 1_555
Mg2_0 Mg2_2 3.115902 1_545
Mg2_0 Mg2_2 3.115902 1_555
Mg2_0 Mg2_4 3.115902 1_455
Mg2_1 Mg2_7 3.115849 1_445
Mg2_1 Mg2_7 3.115849 1_555
Mg2_1 Mg2_3 3.115902 1_545
Mg2_1 Mg2_5 3.115902 1_555
Mg2_1 Mg2_3 3.115902 1_555
Mg2_1 Mg2_5 3.115902 1_455
Mg2_2 Mg2_4 3.115849 1_565
Mg2_2 Mg2_4 3.115849 1_455
Mg2_2 Mg2_6 3.115902 1_455
Mg2_2 Mg2_6 3.115902 1_555
Mg2_3 Mg2_5 3.115849 1_565
Mg2_3 Mg2_5 3.115849 1_455
Mg2_3 Mg2_7 3.115902 1_455
Mg2_3 Mg2_7 3.115902 1_555
Mg2_4 Mg2_6 3.115902 1_555
Mg2_4 Mg2_6 3.115902 1_545
Mg2_5 Mg2_7 3.115902 1_545
Mg2_5 Mg2_7 3.115902 1_555
