# generated using pymatgen
data_CrPb6(Cl3O4)2
_symmetry_space_group_name_H-M   'P 1'
_cell_length_a   8.31746458
_cell_length_b   8.31746458
_cell_length_c   8.31746449
_cell_angle_alpha   108.50198785
_cell_angle_beta   108.50198785
_cell_angle_gamma   108.50198444
_symmetry_Int_Tables_number   1
_chemical_formula_structural   CrPb6(Cl3O4)2
_chemical_formula_sum   'Cr1 Pb6 Cl6 O8'
_cell_volume   458.15200665
_cell_formula_units_Z   1
loop_
 _symmetry_equiv_pos_site_id
 _symmetry_equiv_pos_as_xyz
  1  'x, y, z'
loop_
 _atom_site_type_symbol
 _atom_site_label
 _atom_site_symmetry_multiplicity
 _atom_site_fract_x
 _atom_site_fract_y
 _atom_site_fract_z
 _atom_site_occupancy
  Cr  Cr0  1  0.50000000  0.50000000  0.50000000  1
  Pb  Pb0  1  0.89320700  0.77928200  0.54070200  1
  Pb  Pb1  1  0.54070200  0.89320700  0.77928200  1
  Pb  Pb2  1  0.77928200  0.54070200  0.89320700  1
  Pb  Pb3  1  0.10679300  0.22071800  0.45929800  1
  Pb  Pb4  1  0.45929800  0.10679300  0.22071800  1
  Pb  Pb5  1  0.22071800  0.45929800  0.10679300  1
  Cl  Cl0  1  0.20701600  0.72013400  0.83584800  1
  Cl  Cl1  1  0.83584800  0.20701600  0.72013400  1
  Cl  Cl2  1  0.72013400  0.83584800  0.20701600  1
  Cl  Cl3  1  0.79298400  0.27986600  0.16415200  1
  Cl  Cl4  1  0.16415200  0.79298400  0.27986600  1
  Cl  Cl5  1  0.27986600  0.16415200  0.79298400  1
  O  O0  1  0.47288600  0.40273600  0.25365600  1
  O  O1  1  0.25365600  0.47288600  0.40273600  1
  O  O2  1  0.40273600  0.25365600  0.47288600  1
  O  O3  1  0.52711400  0.59726400  0.74634400  1
  O  O4  1  0.74634400  0.52711400  0.59726400  1
  O  O5  1  0.59726400  0.74634400  0.52711400  1
  O  O6  1  0.92747700  0.92747700  0.92747700  1
  O  O7  1  0.07252300  0.07252300  0.07252300  1
loop_
_geom_bond_atom_site_label_1
_geom_bond_atom_site_label_2
_geom_bond_distance
_geom_bond_site_symmetry_2
Cr0 O0 1.855386 1_555
Cr0 O3 1.855386 1_555
Cr0 O1 1.855387 1_555
Cr0 O4 1.855387 1_555
Cr0 O2 1.855387 1_555
Cr0 O5 1.855387 1_555
Cl0 Pb1 2.952872 1_555
Cl0 Pb4 3.148500 1_566
Cl1 Pb2 2.952872 1_555
Cl1 Pb5 3.148500 1_656
Cl2 Pb0 2.952872 1_555
Cl2 Pb3 3.148500 1_665
Cl3 Pb4 2.952872 1_555
Cl3 Pb1 3.148500 1_544
Cl4 Pb5 2.952872 1_555
Cl4 Pb2 3.148500 1_454
Cl5 Pb3 2.952872 1_555
Cl5 Pb0 3.148500 1_445
O0 Pb5 2.340397 1_555
O0 Pb4 2.350017 1_555
O1 Pb3 2.340397 1_555
O1 Pb5 2.350017 1_555
O2 Pb4 2.340397 1_555
O2 Pb3 2.350017 1_555
O3 Pb2 2.340397 1_555
O3 Pb1 2.350017 1_555
O4 Pb0 2.340397 1_555
O4 Pb2 2.350017 1_555
O5 Pb1 2.340397 1_555
O5 Pb0 2.350017 1_555
O6 O7 1.262982 1_666
