# generated using pymatgen
data_Pr3AsS5Cl2
_symmetry_space_group_name_H-M   'P 1'
_cell_length_a   11.63505554
_cell_length_b   11.63505554
_cell_length_c   7.11403942
_cell_angle_alpha   81.58989843
_cell_angle_beta   81.58989843
_cell_angle_gamma   34.95571447
_symmetry_Int_Tables_number   1
_chemical_formula_structural   Pr3AsS5Cl2
_chemical_formula_sum   'Pr6 As2 S10 Cl4'
_cell_volume   545.25308720
_cell_formula_units_Z   2
loop_
 _symmetry_equiv_pos_site_id
 _symmetry_equiv_pos_as_xyz
  1  'x, y, z'
loop_
 _atom_site_type_symbol
 _atom_site_label
 _atom_site_symmetry_multiplicity
 _atom_site_fract_x
 _atom_site_fract_y
 _atom_site_fract_z
 _atom_site_occupancy
  Pr  Pr0  1  0.29346800  0.70737500  0.49891000  1
  Pr  Pr1  1  0.70737500  0.29346800  0.99891000  1
  Pr  Pr2  1  0.85678800  0.43752900  0.51527900  1
  Pr  Pr3  1  0.43752900  0.85678800  0.01527900  1
  Pr  Pr4  1  0.14551800  0.54893600  0.15163700  1
  Pr  Pr5  1  0.54893600  0.14551800  0.65163700  1
  As  As0  1  0.99249800  0.60987500  0.70718500  1
  As  As1  1  0.60987500  0.99249800  0.20718500  1
  S  S0  1  0.63182100  0.52147900  0.25425400  1
  S  S1  1  0.52147900  0.63182100  0.75425400  1
  S  S2  1  0.36266700  0.47815100  0.82073100  1
  S  S3  1  0.47815100  0.36266700  0.32073100  1
  S  S4  1  0.78668600  0.68036900  0.17769800  1
  S  S5  1  0.68036900  0.78668600  0.67769800  1
  S  S6  1  0.18475600  0.34702900  0.51751300  1
  S  S7  1  0.34702900  0.18475600  0.01751300  1
  S  S8  1  0.95285100  0.80348800  0.48228600  1
  S  S9  1  0.80348800  0.95285100  0.98228600  1
  Cl  Cl0  1  0.03100300  0.23321100  0.88050800  1
  Cl  Cl1  1  0.23321100  0.03100300  0.38050800  1
  Cl  Cl2  1  0.89832900  0.11747400  0.63221900  1
  Cl  Cl3  1  0.11747400  0.89832900  0.13221900  1
loop_
_geom_bond_atom_site_label_1
_geom_bond_atom_site_label_2
_geom_bond_distance
_geom_bond_site_symmetry_2
Pr0 S1 2.868850 1_555
Pr0 S2 2.869861 1_555
Pr0 S0 2.888768 1_555
Pr0 S3 2.978807 1_555
Pr0 S8 3.131205 1_455
Pr1 S0 2.868850 1_556
Pr1 S3 2.869861 1_556
Pr1 S1 2.888768 1_555
Pr1 S2 2.978807 1_555
Pr1 S9 3.131205 1_545
Pr2 S1 2.819303 1_555
Pr2 S0 2.820277 1_555
Pr2 S5 3.010390 1_555
Pr2 S6 3.016084 1_655
Pr2 S4 3.037515 1_555
Pr3 S0 2.819303 1_555
Pr3 S1 2.820277 1_554
Pr3 S4 3.010390 1_555
Pr3 S7 3.016084 1_565
Pr3 S5 3.037515 1_554
Pr4 S3 2.823599 1_555
Pr4 S2 2.831935 1_554
Pr4 S9 2.909310 1_454
Pr4 S7 2.933491 1_555
Pr4 S8 2.990398 1_455
Pr4 S4 3.032287 1_455
Pr4 S6 3.050078 1_555
Pr5 S2 2.823599 1_555
Pr5 S3 2.831935 1_555
Pr5 S8 2.909310 1_545
Pr5 S6 2.933491 1_555
Pr5 S9 2.990398 1_545
Pr5 S5 3.032287 1_545
Pr5 S7 3.050078 1_556
As0 S6 2.299502 1_655
As0 S8 2.303364 1_555
As0 S5 2.305444 1_555
As1 S7 2.299502 1_565
As1 S9 2.303364 1_554
As1 S4 2.305444 1_555
Cl0 Pr2 2.888949 1_455
Cl0 Pr3 2.935063 1_546
Cl0 Pr1 3.208916 1_455
Cl1 Pr3 2.888949 1_545
Cl1 Pr2 2.935063 1_455
Cl1 Pr0 3.208916 1_545
Cl2 Pr1 2.888608 1_555
Cl2 Pr0 2.982119 1_645
Cl2 Pr2 3.324744 1_555
Cl3 Pr0 2.888608 1_555
Cl3 Pr1 2.982119 1_464
Cl3 Pr3 3.324744 1_555
