# generated using pymatgen
data_H5S2NO7
_symmetry_space_group_name_H-M   'P 1'
_cell_length_a   11.18751400
_cell_length_b   7.45682500
_cell_length_c   8.61540110
_cell_angle_alpha   73.18416643
_cell_angle_beta   90.00000000
_cell_angle_gamma   90.00000000
_symmetry_Int_Tables_number   1
_chemical_formula_structural   H5S2NO7
_chemical_formula_sum   'H20 S8 N4 O28'
_cell_volume   687.99248645
_cell_formula_units_Z   4
loop_
 _symmetry_equiv_pos_site_id
 _symmetry_equiv_pos_as_xyz
  1  'x, y, z'
loop_
 _atom_site_type_symbol
 _atom_site_label
 _atom_site_symmetry_multiplicity
 _atom_site_fract_x
 _atom_site_fract_y
 _atom_site_fract_z
 _atom_site_occupancy
  H  H0  1  0.04415500  0.89579600  0.28720700  1
  H  H1  1  0.54415500  0.10420400  0.21279300  1
  H  H2  1  0.95584500  0.10420400  0.71279300  1
  H  H3  1  0.45584500  0.89579600  0.78720700  1
  H  H4  1  0.25693800  0.41955800  0.08044000  1
  H  H5  1  0.75693800  0.58044200  0.41956000  1
  H  H6  1  0.74306200  0.58044200  0.91956000  1
  H  H7  1  0.24306200  0.41955800  0.58044000  1
  H  H8  1  0.14461700  0.41861300  0.94863700  1
  H  H9  1  0.64461700  0.58138700  0.55136300  1
  H  H10  1  0.85538300  0.58138700  0.05136300  1
  H  H11  1  0.35538300  0.41861300  0.44863700  1
  H  H12  1  0.25277600  0.25827300  0.97782000  1
  H  H13  1  0.75277600  0.74172700  0.52218000  1
  H  H14  1  0.74722400  0.74172700  0.02218000  1
  H  H15  1  0.24722400  0.25827300  0.47782000  1
  H  H16  1  0.15432200  0.24714800  0.12700900  1
  H  H17  1  0.65432200  0.75285200  0.37299100  1
  H  H18  1  0.84567800  0.75285200  0.87299100  1
  H  H19  1  0.34567800  0.24714800  0.62700900  1
  S  S0  1  0.89947300  0.08673600  0.17488200  1
  S  S1  1  0.39947300  0.91326400  0.32511800  1
  S  S2  1  0.10052700  0.91326400  0.82511800  1
  S  S3  1  0.60052700  0.08673600  0.67488200  1
  S  S4  1  0.94360800  0.31552400  0.39310100  1
  S  S5  1  0.44360800  0.68447600  0.10689900  1
  S  S6  1  0.05639200  0.68447600  0.60689900  1
  S  S7  1  0.55639200  0.31552400  0.89310100  1
  N  N0  1  0.20180800  0.33613400  0.03378500  1
  N  N1  1  0.70180800  0.66386600  0.46621500  1
  N  N2  1  0.79819200  0.66386600  0.96621500  1
  N  N3  1  0.29819200  0.33613400  0.53378500  1
  O  O0  1  0.81463800  0.94213400  0.17605200  1
  O  O1  1  0.31463800  0.05786600  0.32394800  1
  O  O2  1  0.18536200  0.05786600  0.82394800  1
  O  O3  1  0.68536200  0.94213400  0.67605200  1
  O  O4  1  0.90059500  0.25962900  0.04681900  1
  O  O5  1  0.40059500  0.74037100  0.45318100  1
  O  O6  1  0.09940500  0.74037100  0.95318100  1
  O  O7  1  0.59940500  0.25962900  0.54681900  1
  O  O8  1  0.02994000  0.00946700  0.18695600  1
  O  O9  1  0.52994000  0.99053300  0.31304400  1
  O  O10  1  0.97006000  0.99053300  0.81304400  1
  O  O11  1  0.47006000  0.00946700  0.68695600  1
  O  O12  1  0.06799200  0.30918100  0.34955300  1
  O  O13  1  0.56799200  0.69081900  0.15044700  1
  O  O14  1  0.93200800  0.69081900  0.65044700  1
  O  O15  1  0.43200800  0.30918100  0.84955300  1
  O  O16  1  0.87550600  0.47670400  0.29946200  1
  O  O17  1  0.37550600  0.52329600  0.20053800  1
  O  O18  1  0.12449400  0.52329600  0.70053800  1
  O  O19  1  0.62449400  0.47670400  0.79946200  1
  O  O20  1  0.91654900  0.26478300  0.56604400  1
  O  O21  1  0.41654900  0.73521700  0.93395600  1
  O  O22  1  0.08345100  0.73521700  0.43395600  1
  O  O23  1  0.58345100  0.26478300  0.06604400  1
  O  O24  1  0.87818800  0.12566700  0.34759400  1
  O  O25  1  0.37818800  0.87433300  0.15240600  1
  O  O26  1  0.12181200  0.87433300  0.65240600  1
  O  O27  1  0.62181200  0.12566700  0.84759400  1
loop_
_geom_bond_atom_site_label_1
_geom_bond_atom_site_label_2
_geom_bond_distance
_geom_bond_site_symmetry_2
H0 O8 1.032548 1_565
H0 O22 1.532838 1_555
H1 O9 1.032548 1_545
H1 O23 1.532838 1_555
H2 O10 1.032548 1_545
H2 O20 1.532838 1_555
H3 O11 1.032548 1_565
H3 O21 1.532838 1_555
H4 N0 1.036158 1_555
H5 N1 1.036158 1_555
H6 N2 1.036158 1_555
H7 N3 1.036158 1_555
H8 N0 1.031861 1_556
H9 N1 1.031861 1_555
H10 N2 1.031861 1_554
H11 N3 1.031861 1_555
H12 N0 1.027948 1_556
H13 N1 1.027948 1_555
H14 N2 1.027948 1_554
H15 N3 1.027948 1_555
H16 N0 1.029195 1_555
H17 N1 1.029195 1_555
H18 N2 1.029195 1_555
H19 N3 1.029195 1_555
O0 S0 1.434315 1_565
O1 S1 1.434315 1_545
O2 S2 1.434315 1_545
O3 S3 1.434315 1_565
O4 S0 1.434076 1_555
O5 S1 1.434076 1_555
O6 S2 1.434076 1_555
O7 S3 1.434076 1_555
O8 S0 1.561590 1_455
O9 S1 1.561590 1_555
O10 S2 1.561590 1_655
O11 S3 1.561590 1_555
O12 S4 1.445570 1_455
O13 S5 1.445570 1_555
O14 S6 1.445570 1_655
O15 S7 1.445570 1_555
O16 S4 1.454248 1_555
O17 S5 1.454248 1_555
O18 S6 1.454248 1_555
O19 S7 1.454248 1_555
O20 S4 1.458985 1_555
O21 S5 1.458985 1_556
O22 S6 1.458985 1_555
O23 S7 1.458985 1_554
O24 S0 1.614003 1_555
O24 S4 1.736322 1_555
O25 S1 1.614003 1_555
O25 S5 1.736322 1_555
O26 S2 1.614003 1_555
O26 S6 1.736322 1_555
O27 S3 1.614003 1_555
O27 S7 1.736322 1_555
