# generated using pymatgen
data_Te4MoW3Se4
_symmetry_space_group_name_H-M   'P 1'
_cell_length_a   3.43781824
_cell_length_b   3.43781824
_cell_length_c   39.16381800
_cell_angle_alpha   90.00000000
_cell_angle_beta   90.00000000
_cell_angle_gamma   120.00000464
_symmetry_Int_Tables_number   1
_chemical_formula_structural   Te4MoW3Se4
_chemical_formula_sum   'Te4 Mo1 W3 Se4'
_cell_volume   400.84960347
_cell_formula_units_Z   1
loop_
 _symmetry_equiv_pos_site_id
 _symmetry_equiv_pos_as_xyz
  1  'x, y, z'
loop_
 _atom_site_type_symbol
 _atom_site_label
 _atom_site_symmetry_multiplicity
 _atom_site_fract_x
 _atom_site_fract_y
 _atom_site_fract_z
 _atom_site_occupancy
  Te  Te0  1  0.00000000  0.00000000  0.70524500  1
  Te  Te1  1  0.33333300  0.66666700  0.04658600  1
  Te  Te2  1  0.33333300  0.66666700  0.14125800  1
  Te  Te3  1  0.00000000  0.00000000  0.60981600  1
  Mo  Mo0  1  0.00000000  0.00000000  0.09392400  1
  W  W0  1  0.00000000  0.00000000  0.46964700  1
  W  W1  1  0.33333300  0.66666700  0.28181500  1
  W  W2  1  0.33333300  0.66666700  0.65753200  1
  Se  Se0  1  0.00000000  0.00000000  0.32376100  1
  Se  Se1  1  0.33333300  0.66666700  0.42770300  1
  Se  Se2  1  0.33333300  0.66666700  0.51161600  1
  Se  Se3  1  0.00000000  0.00000000  0.23984400  1
loop_
_geom_bond_atom_site_label_1
_geom_bond_atom_site_label_2
_geom_bond_distance
_geom_bond_site_symmetry_2
Te0 W2 2.726037 1_545
Te0 W2 2.726039 1_445
Te0 W2 2.726039 1_555
Te3 W2 2.726117 1_545
Te3 W2 2.726119 1_445
Te3 W2 2.726119 1_555
Mo0 Te2 2.715884 1_545
Mo0 Te2 2.715886 1_555
Mo0 Te2 2.715886 1_445
Mo0 Te1 2.715991 1_545
Mo0 Te1 2.715993 1_555
Mo0 Te1 2.715993 1_445
Se0 W1 2.576471 1_545
Se0 W1 2.576473 1_555
Se0 W1 2.576473 1_445
Se1 W0 2.576421 1_565
Se1 W0 2.576423 1_555
Se1 W0 2.576423 1_665
Se2 W0 2.577045 1_565
Se2 W0 2.577048 1_555
Se2 W0 2.577048 1_665
Se3 W1 2.577095 1_545
Se3 W1 2.577097 1_555
Se3 W1 2.577097 1_445
