# generated using pymatgen
data_Cu6PdN2
_symmetry_space_group_name_H-M   'P 1'
_cell_length_a   3.83542900
_cell_length_b   3.83542900
_cell_length_c   7.70871700
_cell_angle_alpha   90.00000000
_cell_angle_beta   90.00000000
_cell_angle_gamma   90.00000000
_symmetry_Int_Tables_number   1
_chemical_formula_structural   Cu6PdN2
_chemical_formula_sum   'Cu6 Pd1 N2'
_cell_volume   113.39920179
_cell_formula_units_Z   1
loop_
 _symmetry_equiv_pos_site_id
 _symmetry_equiv_pos_as_xyz
  1  'x, y, z'
loop_
 _atom_site_type_symbol
 _atom_site_label
 _atom_site_symmetry_multiplicity
 _atom_site_fract_x
 _atom_site_fract_y
 _atom_site_fract_z
 _atom_site_occupancy
  Cu  Cu0  1  0.00000000  0.50000000  0.74992000  1
  Cu  Cu1  1  0.00000000  0.50000000  0.25008000  1
  Cu  Cu2  1  0.50000000  0.00000000  0.74992000  1
  Cu  Cu3  1  0.50000000  0.00000000  0.25008000  1
  Cu  Cu4  1  0.00000000  0.00000000  0.00000000  1
  Cu  Cu5  1  0.00000000  0.00000000  0.50000000  1
  Pd  Pd0  1  0.50000000  0.50000000  0.00000000  1
  N  N0  1  0.00000000  0.00000000  0.74355200  1
  N  N1  1  0.00000000  0.00000000  0.25644800  1
loop_
_geom_bond_atom_site_label_1
_geom_bond_atom_site_label_2
_geom_bond_distance
_geom_bond_site_symmetry_2
Cu0 N0 1.918343 1_555
Cu0 N0 1.918343 1_565
Cu0 Pd0 2.719196 1_456
Cu0 Pd0 2.719196 1_556
Cu1 N1 1.918343 1_565
Cu1 N1 1.918343 1_555
Cu1 Pd0 2.719196 1_455
Cu1 Pd0 2.719196 1_555
Cu2 N0 1.918343 1_555
Cu2 N0 1.918343 1_655
Cu2 Pd0 2.719196 1_556
Cu2 Pd0 2.719196 1_546
Cu3 N1 1.918343 1_555
Cu3 N1 1.918343 1_655
Cu3 Pd0 2.719196 1_545
Cu3 Pd0 2.719196 1_555
Cu4 N0 1.976885 1_554
Cu4 N1 1.976885 1_555
Cu4 Pd0 2.712058 1_445
Cu4 Pd0 2.712058 1_455
Cu4 Pd0 2.712058 1_545
Cu4 Pd0 2.712058 1_555
Cu5 N0 1.877473 1_555
Cu5 N1 1.877473 1_555
