# generated using pymatgen
data_NaMg6Ni
_symmetry_space_group_name_H-M   'P 1'
_cell_length_a   4.95540600
_cell_length_b   6.29261500
_cell_length_c   10.77013400
_cell_angle_alpha   90.00000000
_cell_angle_beta   90.00000000
_cell_angle_gamma   90.00000000
_symmetry_Int_Tables_number   1
_chemical_formula_structural   NaMg6Ni
_chemical_formula_sum   'Na2 Mg12 Ni2'
_cell_volume   335.83929555
_cell_formula_units_Z   2
loop_
 _symmetry_equiv_pos_site_id
 _symmetry_equiv_pos_as_xyz
  1  'x, y, z'
loop_
 _atom_site_type_symbol
 _atom_site_label
 _atom_site_symmetry_multiplicity
 _atom_site_fract_x
 _atom_site_fract_y
 _atom_site_fract_z
 _atom_site_occupancy
  Na  Na0  1  0.50000000  0.50000000  0.16755700  1
  Na  Na1  1  0.50000000  0.00000000  0.66755700  1
  Mg  Mg0  1  0.00000000  0.24160200  0.07810700  1
  Mg  Mg1  1  0.00000000  0.75839800  0.07810700  1
  Mg  Mg2  1  0.00000000  0.50000000  0.83444300  1
  Mg  Mg3  1  0.50000000  0.23335800  0.90749300  1
  Mg  Mg4  1  0.50000000  0.76664200  0.90749300  1
  Mg  Mg5  1  0.50000000  0.50000000  0.66394700  1
  Mg  Mg6  1  0.00000000  0.74160200  0.57810700  1
  Mg  Mg7  1  0.00000000  0.25839800  0.57810700  1
  Mg  Mg8  1  0.00000000  0.00000000  0.33444300  1
  Mg  Mg9  1  0.50000000  0.73335800  0.40749300  1
  Mg  Mg10  1  0.50000000  0.26664200  0.40749300  1
  Mg  Mg11  1  0.50000000  0.00000000  0.16394700  1
  Ni  Ni0  1  0.00000000  0.50000000  0.36285300  1
  Ni  Ni1  1  0.00000000  0.00000000  0.86285300  1
loop_
_geom_bond_atom_site_label_1
_geom_bond_atom_site_label_2
_geom_bond_distance
_geom_bond_site_symmetry_2
Na0 Ni0 3.250100 1_655
Na0 Ni0 3.250100 1_555
Na1 Ni1 3.250100 1_555
Na1 Ni1 3.250100 1_655
Mg0 Ni1 2.772349 1_554
Mg0 Mg11 3.050421 1_455
Mg0 Mg11 3.050421 1_555
Mg0 Mg3 3.085165 1_454
Mg0 Mg3 3.085165 1_554
Mg0 Mg2 3.087198 1_554
Mg0 Na0 3.116248 1_555
Mg0 Na0 3.116248 1_455
Mg0 Mg8 3.151699 1_555
Mg1 Ni1 2.772349 1_564
Mg1 Mg11 3.050421 1_465
Mg1 Mg11 3.050421 1_565
Mg1 Mg4 3.085165 1_554
Mg1 Mg4 3.085165 1_454
Mg1 Mg2 3.087198 1_554
Mg1 Na0 3.116248 1_455
Mg1 Na0 3.116248 1_555
Mg1 Mg8 3.151699 1_565
Mg2 Mg5 3.083972 1_455
Mg2 Mg5 3.083972 1_555
Mg2 Mg4 3.094070 1_455
Mg2 Mg4 3.094070 1_555
Mg2 Mg3 3.094070 1_455
Mg2 Mg3 3.094070 1_555
Mg2 Mg6 3.151699 1_555
Mg2 Mg7 3.151699 1_555
Mg2 Ni1 3.161151 1_565
Mg2 Ni1 3.161151 1_555
Mg3 Ni1 2.920009 1_555
Mg3 Ni1 2.920009 1_655
Mg3 Mg4 2.936864 1_545
Mg3 Na1 2.972219 1_555
Mg3 Mg5 3.113762 1_555
Mg3 Na0 3.265033 1_556
Mg3 Mg4 3.355751 1_555
Mg4 Ni1 2.920009 1_565
Mg4 Ni1 2.920009 1_665
Mg4 Na1 2.972219 1_565
Mg4 Mg5 3.113762 1_555
Mg4 Na0 3.265033 1_556
Mg5 Mg6 3.050421 1_655
Mg5 Mg6 3.050421 1_555
Mg5 Mg7 3.050421 1_555
Mg5 Mg7 3.050421 1_655
Mg5 Mg9 3.128127 1_555
Mg5 Na1 3.146548 1_555
Mg5 Na1 3.146548 1_565
Mg6 Ni0 2.772349 1_555
Mg6 Mg9 3.085165 1_455
Mg6 Mg9 3.085165 1_555
Mg6 Mg8 3.087198 1_565
Mg6 Na1 3.116248 1_565
Mg6 Na1 3.116248 1_465
Mg7 Ni0 2.772349 1_555
Mg7 Mg8 3.087198 1_555
Mg7 Na1 3.116248 1_455
Mg7 Na1 3.116248 1_555
Mg8 Mg9 3.094070 1_545
Mg8 Mg9 3.094070 1_445
Mg8 Ni0 3.161151 1_555
Mg8 Ni0 3.161151 1_545
Mg9 Ni0 2.920009 1_655
Mg9 Ni0 2.920009 1_555
Mg9 Na0 2.972219 1_555
Mg9 Na1 3.265033 1_565
Mg10 Ni0 2.920009 1_655
Mg10 Ni0 2.920009 1_555
Mg10 Mg9 2.936864 1_555
Mg10 Na0 2.972219 1_555
Mg10 Mg7 3.085165 1_555
Mg10 Mg7 3.085165 1_655
Mg10 Mg8 3.094070 1_555
Mg10 Mg8 3.094070 1_655
Mg10 Mg11 3.113762 1_555
Mg10 Mg5 3.128127 1_555
Mg10 Na1 3.265033 1_555
Mg10 Mg9 3.355751 1_545
Mg11 Mg8 3.083972 1_555
Mg11 Mg8 3.083972 1_655
Mg11 Mg9 3.113762 1_545
Mg11 Mg3 3.128127 1_554
Mg11 Mg4 3.128127 1_544
Mg11 Na0 3.146548 1_555
Mg11 Na0 3.146548 1_545
