# generated using pymatgen
data_TaNbW
_symmetry_space_group_name_H-M   'P 1'
_cell_length_a   14.53365591
_cell_length_b   14.13584391
_cell_length_c   5.68261502
_cell_angle_alpha   82.52982609
_cell_angle_beta   74.66005286
_cell_angle_gamma   22.81012105
_symmetry_Int_Tables_number   1
_chemical_formula_structural   TaNbW
_chemical_formula_sum   'Ta8 Nb8 W8'
_cell_volume   415.74842073
_cell_formula_units_Z   8
loop_
 _symmetry_equiv_pos_site_id
 _symmetry_equiv_pos_as_xyz
  1  'x, y, z'
loop_
 _atom_site_type_symbol
 _atom_site_label
 _atom_site_symmetry_multiplicity
 _atom_site_fract_x
 _atom_site_fract_y
 _atom_site_fract_z
 _atom_site_occupancy
  Ta  Ta0_0  1  0.33552757  0.33552758  0.16447243  1
  Ta  Ta0_1  1  0.33552757  0.33552757  0.66447243  1
  Ta  Ta0_2  1  0.33552758  0.83552757  0.16447243  1
  Ta  Ta0_3  1  0.33552758  0.83552757  0.66447243  1
  Ta  Ta0_4  1  0.83552757  0.33552758  0.16447243  1
  Ta  Ta0_5  1  0.83552757  0.33552758  0.66447243  1
  Ta  Ta0_6  1  0.83552757  0.83552757  0.16447243  1
  Ta  Ta0_7  1  0.83552757  0.83552757  0.66447243  1
  Nb  Nb0_0  1  0.49828103  0.49828103  0.00171897  1
  Nb  Nb0_1  1  0.49828103  0.49828103  0.50171897  1
  Nb  Nb0_2  1  0.49828103  0.99828103  0.00171897  1
  Nb  Nb0_3  1  0.49828103  0.99828103  0.50171897  1
  Nb  Nb0_4  1  0.99828103  0.49828103  0.00171897  1
  Nb  Nb0_5  1  0.99828103  0.49828103  0.50171897  1
  Nb  Nb0_6  1  0.99828103  0.99828103  0.00171897  1
  Nb  Nb0_7  1  0.99828103  0.99828103  0.50171897  1
  W  W0_0  1  0.16619289  0.16619289  0.33380711  1
  W  W0_1  1  0.16619289  0.16619289  0.83380711  1
  W  W0_2  1  0.16619289  0.66619290  0.33380711  1
  W  W0_3  1  0.16619289  0.66619289  0.83380711  1
  W  W0_4  1  0.66619289  0.16619289  0.33380711  1
  W  W0_5  1  0.66619289  0.16619289  0.83380711  1
  W  W0_6  1  0.66619289  0.66619289  0.33380711  1
  W  W0_7  1  0.66619289  0.66619289  0.83380711  1
loop_
_geom_bond_atom_site_label_1
_geom_bond_atom_site_label_2
_geom_bond_distance
_geom_bond_site_symmetry_2
Ta0_0 W0_5 2.745896 1_554
Ta0_0 W0_2 2.745896 1_555
Ta0_0 Ta0_6 2.841308 1_455
Ta0_0 Ta0_1 2.841308 1_554
Ta0_0 Ta0_1 2.841308 1_555
Ta0_0 Ta0_6 2.841308 1_545
Ta0_1 W0_4 2.745896 1_555
Ta0_1 W0_3 2.745896 1_555
Ta0_1 Ta0_7 2.841308 1_455
Ta0_1 Ta0_7 2.841308 1_545
Ta0_2 W0_7 2.745896 1_554
Ta0_2 W0_0 2.745896 1_565
Ta0_2 Ta0_4 2.841308 1_555
Ta0_2 Ta0_3 2.841308 1_554
Ta0_2 Ta0_4 2.841308 1_465
Ta0_2 Ta0_3 2.841308 1_555
Ta0_3 W0_6 2.745896 1_555
Ta0_3 W0_1 2.745896 1_565
Ta0_3 Ta0_5 2.841308 1_555
Ta0_3 Ta0_5 2.841308 1_465
Ta0_4 W0_1 2.745896 1_654
Ta0_4 W0_6 2.745896 1_555
Ta0_4 Ta0_5 2.841308 1_555
Ta0_4 Ta0_5 2.841308 1_554
Ta0_5 W0_7 2.745896 1_555
Ta0_5 W0_0 2.745896 1_655
Ta0_6 W0_3 2.745896 1_654
Ta0_6 W0_4 2.745896 1_565
Ta0_6 Ta0_7 2.841308 1_554
Ta0_6 Ta0_7 2.841308 1_555
Ta0_7 W0_5 2.745896 1_565
Ta0_7 W0_2 2.745896 1_655
Nb0_0 W0_2 2.777654 1_555
Nb0_0 W0_5 2.777654 1_554
Nb0_0 Nb0_6 2.841308 1_455
Nb0_0 Nb0_1 2.841308 1_554
Nb0_0 Nb0_6 2.841308 1_545
Nb0_0 Nb0_1 2.841308 1_555
Nb0_0 Ta0_5 2.894313 1_554
Nb0_0 Ta0_2 2.894313 1_555
Nb0_1 W0_3 2.777654 1_555
Nb0_1 W0_4 2.777654 1_555
Nb0_1 Nb0_7 2.841308 1_455
Nb0_1 Nb0_7 2.841308 1_545
Nb0_1 Ta0_4 2.894313 1_555
Nb0_1 Ta0_3 2.894313 1_555
Nb0_2 W0_0 2.777654 1_565
Nb0_2 W0_7 2.777654 1_554
Nb0_2 Nb0_4 2.841308 1_465
Nb0_2 Nb0_3 2.841308 1_554
Nb0_2 Nb0_4 2.841308 1_555
Nb0_2 Nb0_3 2.841308 1_555
Nb0_2 Ta0_7 2.894313 1_554
Nb0_2 Ta0_0 2.894313 1_565
Nb0_3 W0_6 2.777654 1_555
Nb0_3 W0_1 2.777654 1_565
Nb0_3 Nb0_5 2.841308 1_555
Nb0_3 Nb0_5 2.841308 1_465
Nb0_3 Ta0_6 2.894313 1_555
Nb0_3 Ta0_1 2.894313 1_565
Nb0_4 W0_1 2.777654 1_654
Nb0_4 W0_6 2.777654 1_555
Nb0_4 Nb0_5 2.841308 1_555
Nb0_4 Nb0_5 2.841308 1_554
Nb0_4 Ta0_6 2.894313 1_555
Nb0_4 Ta0_1 2.894313 1_654
Nb0_5 W0_0 2.777654 1_655
Nb0_5 W0_7 2.777654 1_555
Nb0_5 Ta0_7 2.894313 1_555
Nb0_5 Ta0_0 2.894313 1_655
Nb0_6 W0_3 2.777654 1_654
Nb0_6 W0_4 2.777654 1_565
Nb0_6 Nb0_7 2.841308 1_555
Nb0_6 Nb0_7 2.841308 1_554
Nb0_6 Ta0_3 2.894313 1_654
Nb0_6 Ta0_4 2.894313 1_565
Nb0_7 W0_2 2.777654 1_655
Nb0_7 W0_5 2.777654 1_565
Nb0_7 Ta0_5 2.894313 1_565
Nb0_7 Ta0_2 2.894313 1_655
W0_0 W0_6 2.841308 1_455
W0_0 W0_1 2.841308 1_554
W0_0 W0_6 2.841308 1_545
W0_0 W0_1 2.841308 1_555
W0_1 W0_7 2.841308 1_455
W0_1 W0_7 2.841308 1_545
W0_2 W0_3 2.841308 1_555
W0_2 W0_3 2.841308 1_554
W0_2 W0_4 2.841308 1_465
W0_2 W0_4 2.841308 1_555
W0_3 W0_5 2.841308 1_555
W0_3 W0_5 2.841308 1_465
W0_4 W0_5 2.841308 1_555
W0_4 W0_5 2.841308 1_554
W0_6 W0_7 2.841308 1_554
W0_6 W0_7 2.841308 1_555
