# generated using pymatgen
data_Ca2FeCuSO3
_symmetry_space_group_name_H-M   'P 1'
_cell_length_a   3.87717203
_cell_length_b   3.87472426
_cell_length_c   14.90745591
_cell_angle_alpha   90.03974904
_cell_angle_beta   90.00472766
_cell_angle_gamma   89.98749329
_symmetry_Int_Tables_number   1
_chemical_formula_structural   Ca2FeCuSO3
_chemical_formula_sum   'Ca4 Fe2 Cu2 S2 O6'
_cell_volume   223.95424013
_cell_formula_units_Z   2
loop_
 _symmetry_equiv_pos_site_id
 _symmetry_equiv_pos_as_xyz
  1  'x, y, z'
loop_
 _atom_site_type_symbol
 _atom_site_label
 _atom_site_symmetry_multiplicity
 _atom_site_fract_x
 _atom_site_fract_y
 _atom_site_fract_z
 _atom_site_occupancy
  Ca  Ca0  1  0.74988000  0.75005900  0.18819100  1
  Ca  Ca1  1  0.25015400  0.24990900  0.81181500  1
  Ca  Ca2  1  0.75003800  0.74992400  0.41384700  1
  Ca  Ca3  1  0.25000400  0.25000400  0.58615300  1
  Fe  Fe0  1  0.24996300  0.24997300  0.30793800  1
  Fe  Fe1  1  0.74994200  0.75000000  0.69202200  1
  Cu  Cu0  1  0.25089300  0.75066800  0.00016600  1
  Cu  Cu1  1  0.74901400  0.24955200  0.99985500  1
  S  S0  1  0.75052100  0.74970800  0.90354000  1
  S  S1  1  0.24948900  0.25033600  0.09647500  1
  O  O0  1  0.75003000  0.74996100  0.56347100  1
  O  O1  1  0.25001100  0.24998300  0.43652400  1
  O  O2  1  0.75003500  0.24999000  0.71405200  1
  O  O3  1  0.25007300  0.74998700  0.71404100  1
  O  O4  1  0.25000000  0.74999100  0.28595000  1
  O  O5  1  0.74995300  0.24995500  0.28596100  1
loop_
_geom_bond_atom_site_label_1
_geom_bond_atom_site_label_2
_geom_bond_distance
_geom_bond_site_symmetry_2
Ca0 O5 2.423263 1_565
Ca0 O4 2.424998 1_555
Ca0 O5 2.425523 1_555
Ca0 O4 2.425549 1_655
Ca0 S1 3.060386 1_655
Ca0 S1 3.062698 1_555
Ca0 S1 3.063479 1_665
Ca0 S1 3.064719 1_565
Ca1 O3 2.423380 1_545
Ca1 O2 2.425036 1_555
Ca1 O3 2.425479 1_555
Ca1 O2 2.425582 1_455
Ca1 S0 3.060691 1_455
Ca1 S0 3.062885 1_555
Ca1 S0 3.063412 1_445
Ca1 S0 3.064534 1_545
Ca2 O0 2.230513 1_555
Ca2 O5 2.717049 1_555
Ca2 O4 2.719057 1_555
Ca2 O4 2.719072 1_655
Ca2 O5 2.719105 1_565
Ca2 O1 2.761094 1_655
Ca2 O1 2.761272 1_565
Ca2 O1 2.761679 1_665
Ca2 O1 2.761874 1_555
Ca3 O1 2.230588 1_555
Ca3 O3 2.717108 1_555
Ca3 O2 2.719059 1_555
Ca3 O3 2.719087 1_545
Ca3 O2 2.719112 1_455
Ca3 O0 2.761149 1_455
Ca3 O0 2.761235 1_545
Ca3 O0 2.761648 1_445
Ca3 O0 2.761924 1_555
Fe0 O1 1.916890 1_555
Fe0 O4 1.964603 1_545
Fe0 O4 1.965189 1_555
Fe0 O5 1.966064 1_555
Fe0 O5 1.966087 1_455
Fe1 O0 1.916368 1_555
Fe1 O2 1.964738 1_565
Fe1 O2 1.965263 1_555
Fe1 O3 1.965705 1_555
Fe1 O3 1.966654 1_655
Cu0 S1 2.409535 1_565
Cu0 S1 2.413204 1_555
Cu0 S0 2.414100 1_554
Cu0 S0 2.416226 1_454
Cu1 S0 2.410136 1_545
Cu1 S0 2.412710 1_555
Cu1 S1 2.413726 1_556
Cu1 S1 2.416493 1_656
