# generated using pymatgen
data_YMnSn2
_symmetry_space_group_name_H-M   'P 1'
_cell_length_a   9.01869300
_cell_length_b   10.48597000
_cell_length_c   11.46213800
_cell_angle_alpha   90.00000000
_cell_angle_beta   90.00000000
_cell_angle_gamma   90.00000000
_symmetry_Int_Tables_number   1
_chemical_formula_structural   YMnSn2
_chemical_formula_sum   'Y12 Mn12 Sn24'
_cell_volume   1083.97145907
_cell_formula_units_Z   12
loop_
 _symmetry_equiv_pos_site_id
 _symmetry_equiv_pos_as_xyz
  1  'x, y, z'
loop_
 _atom_site_type_symbol
 _atom_site_label
 _atom_site_symmetry_multiplicity
 _atom_site_fract_x
 _atom_site_fract_y
 _atom_site_fract_z
 _atom_site_occupancy
  Y  Y0  1  0.24399900  0.82860000  0.45239800  1
  Y  Y1  1  0.24399900  0.17140000  0.54760200  1
  Y  Y2  1  0.75600100  0.32860000  0.04760200  1
  Y  Y3  1  0.75600100  0.67140000  0.95239800  1
  Y  Y4  1  0.75600100  0.17140000  0.54760200  1
  Y  Y5  1  0.75600100  0.82860000  0.45239800  1
  Y  Y6  1  0.24399900  0.67140000  0.95239800  1
  Y  Y7  1  0.24399900  0.32860000  0.04760200  1
  Y  Y8  1  0.00000000  0.83545100  0.17962100  1
  Y  Y9  1  0.00000000  0.16454900  0.82037900  1
  Y  Y10  1  0.00000000  0.33545100  0.32037900  1
  Y  Y11  1  0.00000000  0.66454900  0.67962100  1
  Mn  Mn0  1  0.24709900  0.58796000  0.25451500  1
  Mn  Mn1  1  0.24709900  0.41204000  0.74548500  1
  Mn  Mn2  1  0.75290100  0.08796000  0.24548500  1
  Mn  Mn3  1  0.75290100  0.91204000  0.75451500  1
  Mn  Mn4  1  0.75290100  0.41204000  0.74548500  1
  Mn  Mn5  1  0.75290100  0.58796000  0.25451500  1
  Mn  Mn6  1  0.24709900  0.91204000  0.75451500  1
  Mn  Mn7  1  0.24709900  0.08796000  0.24548500  1
  Mn  Mn8  1  0.24304500  0.50000000  0.50000000  1
  Mn  Mn9  1  0.75695500  0.00000000  0.00000000  1
  Mn  Mn10  1  0.75695500  0.50000000  0.50000000  1
  Mn  Mn11  1  0.24304500  0.00000000  0.00000000  1
  Sn  Sn0  1  0.33859700  0.83803300  0.18095700  1
  Sn  Sn1  1  0.33859700  0.16196700  0.81904300  1
  Sn  Sn2  1  0.66140300  0.33803300  0.31904300  1
  Sn  Sn3  1  0.66140300  0.66196700  0.68095700  1
  Sn  Sn4  1  0.66140300  0.16196700  0.81904300  1
  Sn  Sn5  1  0.66140300  0.83803300  0.18095700  1
  Sn  Sn6  1  0.33859700  0.66196700  0.68095700  1
  Sn  Sn7  1  0.33859700  0.33803300  0.31904300  1
  Sn  Sn8  1  0.50000000  0.54481600  0.12462500  1
  Sn  Sn9  1  0.50000000  0.45518400  0.87537500  1
  Sn  Sn10  1  0.50000000  0.04481600  0.37537500  1
  Sn  Sn11  1  0.50000000  0.95518400  0.62462500  1
  Sn  Sn12  1  0.00000000  0.54087400  0.12224400  1
  Sn  Sn13  1  0.00000000  0.45912600  0.87775600  1
  Sn  Sn14  1  0.00000000  0.04087400  0.37775600  1
  Sn  Sn15  1  0.00000000  0.95912600  0.62224400  1
  Sn  Sn16  1  0.50000000  0.62387000  0.40510300  1
  Sn  Sn17  1  0.50000000  0.37613000  0.59489700  1
  Sn  Sn18  1  0.50000000  0.12387000  0.09489700  1
  Sn  Sn19  1  0.50000000  0.87613000  0.90510300  1
  Sn  Sn20  1  0.00000000  0.62853200  0.39934100  1
  Sn  Sn21  1  0.00000000  0.37146800  0.60065900  1
  Sn  Sn22  1  0.00000000  0.12853200  0.10065900  1
  Sn  Sn23  1  0.00000000  0.87146800  0.89934100  1
loop_
_geom_bond_atom_site_label_1
_geom_bond_atom_site_label_2
_geom_bond_distance
_geom_bond_site_symmetry_2
Mn0 Sn12 2.740187 1_555
Mn0 Sn8 2.761062 1_555
Mn0 Sn20 2.811211 1_555
Mn0 Sn7 2.845383 1_555
Mn0 Sn0 2.875422 1_555
Mn0 Sn16 2.885011 1_555
Mn1 Sn13 2.740187 1_555
Mn1 Sn9 2.761062 1_555
Mn1 Sn21 2.811211 1_555
Mn1 Sn6 2.845383 1_555
Mn1 Sn1 2.875422 1_555
Mn1 Sn17 2.885011 1_555
Mn2 Sn14 2.740187 1_655
Mn2 Sn10 2.761062 1_555
Mn2 Sn22 2.811211 1_655
Mn2 Sn5 2.845383 1_545
Mn2 Sn2 2.875422 1_555
Mn2 Sn18 2.885011 1_555
Mn3 Sn15 2.740187 1_655
Mn3 Sn11 2.761062 1_555
Mn3 Sn23 2.811211 1_655
Mn3 Sn4 2.845383 1_565
Mn3 Sn3 2.875422 1_555
Mn3 Sn19 2.885011 1_555
Mn4 Sn13 2.740187 1_655
Mn4 Sn9 2.761062 1_555
Mn4 Sn21 2.811211 1_655
Mn4 Sn3 2.845383 1_555
Mn4 Sn4 2.875422 1_555
Mn4 Sn17 2.885011 1_555
Mn5 Sn12 2.740187 1_655
Mn5 Sn8 2.761062 1_555
Mn5 Sn20 2.811211 1_655
Mn5 Sn2 2.845383 1_555
Mn5 Sn5 2.875422 1_555
Mn5 Sn16 2.885011 1_555
Mn6 Sn15 2.740187 1_555
Mn6 Sn11 2.761062 1_555
Mn6 Sn23 2.811211 1_555
Mn6 Sn1 2.845383 1_565
Mn6 Sn6 2.875422 1_555
Mn6 Sn19 2.885011 1_555
Mn7 Sn14 2.740187 1_555
Mn7 Sn10 2.761062 1_555
Mn7 Sn22 2.811211 1_555
Mn7 Sn0 2.845383 1_545
Mn7 Sn7 2.875422 1_555
Mn7 Sn18 2.885011 1_555
Mn8 Sn6 2.815890 1_555
Mn8 Sn7 2.815890 1_555
Mn8 Sn20 2.819988 1_555
Mn8 Sn21 2.819988 1_555
Mn8 Sn17 2.870646 1_555
Mn8 Sn16 2.870646 1_555
Mn9 Sn5 2.815890 1_545
Mn9 Sn4 2.815890 1_554
Mn9 Sn22 2.819988 1_655
Mn9 Sn23 2.819988 1_644
Mn9 Sn19 2.870646 1_544
Mn9 Sn18 2.870646 1_555
Mn10 Sn3 2.815890 1_555
Mn10 Sn2 2.815890 1_555
Mn10 Sn20 2.819988 1_655
Mn10 Sn21 2.819988 1_655
Mn10 Sn17 2.870646 1_555
Mn10 Sn16 2.870646 1_555
Mn11 Sn0 2.815890 1_545
Mn11 Sn1 2.815890 1_554
Mn11 Sn22 2.819988 1_555
Mn11 Sn23 2.819988 1_544
Mn11 Sn19 2.870646 1_544
Mn11 Sn18 2.870646 1_555
Sn0 Sn5 2.911288 1_555
Sn0 Y8 3.053861 1_555
Sn0 Y0 3.227662 1_555
Sn0 Y6 3.262541 1_554
Sn1 Sn4 2.911288 1_555
Sn1 Y9 3.053861 1_555
Sn1 Y1 3.227662 1_555
Sn1 Y7 3.262541 1_556
Sn2 Sn7 2.911288 1_555
Sn2 Y10 3.053861 1_655
Sn2 Y2 3.227662 1_555
Sn2 Y4 3.262541 1_555
Sn3 Sn6 2.911288 1_555
Sn3 Y11 3.053861 1_655
Sn3 Y3 3.227662 1_555
Sn3 Y5 3.262541 1_555
Sn4 Y9 3.053861 1_655
Sn4 Y4 3.227662 1_555
Sn4 Y2 3.262541 1_556
Sn5 Y8 3.053861 1_655
Sn5 Y5 3.227662 1_555
Sn5 Y3 3.262541 1_554
Sn6 Y11 3.053861 1_555
Sn6 Y6 3.227662 1_555
Sn6 Y0 3.262541 1_555
Sn7 Y10 3.053861 1_555
Sn7 Y7 3.227662 1_555
Sn7 Y1 3.262541 1_555
Sn8 Y3 3.315032 1_554
Sn8 Y6 3.315032 1_554
Sn8 Y2 3.354147 1_555
Sn8 Y7 3.354147 1_555
Sn9 Y2 3.315032 1_556
Sn9 Y7 3.315032 1_556
Sn9 Y3 3.354147 1_555
Sn9 Y6 3.354147 1_555
Sn10 Y4 3.315032 1_555
Sn10 Y1 3.315032 1_555
Sn10 Y5 3.354147 1_545
Sn10 Y0 3.354147 1_545
Sn11 Y5 3.315032 1_555
Sn11 Y0 3.315032 1_555
Sn11 Y4 3.354147 1_565
Sn11 Y1 3.354147 1_565
Sn12 Sn13 2.930529 1_554
Sn12 Y10 3.130119 1_555
Sn12 Y8 3.158161 1_555
Sn12 Y6 3.241261 1_554
Sn12 Y3 3.241261 1_454
Sn12 Y7 3.244847 1_555
Sn12 Y2 3.244847 1_455
Sn13 Y11 3.130119 1_555
Sn13 Y9 3.158161 1_555
Sn13 Y7 3.241261 1_556
Sn13 Y2 3.241261 1_456
Sn13 Y6 3.244847 1_555
Sn13 Y3 3.244847 1_455
Sn14 Sn15 2.930529 1_545
Sn14 Y8 3.130119 1_545
Sn14 Y10 3.158161 1_555
Sn14 Y1 3.241261 1_555
Sn14 Y4 3.241261 1_455
Sn14 Y0 3.244847 1_545
Sn14 Y5 3.244847 1_445
Sn15 Y9 3.130119 1_565
Sn15 Y11 3.158161 1_555
Sn15 Y0 3.241261 1_555
Sn15 Y5 3.241261 1_455
Sn15 Y1 3.244847 1_565
Sn15 Y4 3.244847 1_465
Sn16 Y5 3.198926 1_555
Sn16 Y0 3.198926 1_555
Sn17 Y4 3.198926 1_555
Sn17 Y1 3.198926 1_555
Sn18 Y2 3.198926 1_555
Sn18 Y7 3.198926 1_555
Sn19 Y3 3.198926 1_555
Sn19 Y6 3.198926 1_555
Sn20 Y0 3.100562 1_555
Sn20 Y5 3.100562 1_455
Sn20 Y10 3.203740 1_555
Sn20 Y11 3.234731 1_555
Sn20 Y8 3.324221 1_555
Sn21 Y1 3.100562 1_555
Sn21 Y4 3.100562 1_455
Sn21 Y11 3.203740 1_555
Sn21 Y10 3.234731 1_555
Sn21 Y9 3.324221 1_555
Sn22 Y7 3.100562 1_555
Sn22 Y2 3.100562 1_455
Sn22 Y8 3.203740 1_545
Sn22 Y9 3.234731 1_554
Sn22 Y10 3.324221 1_555
Sn23 Y6 3.100562 1_555
Sn23 Y3 3.100562 1_455
Sn23 Y9 3.203740 1_565
Sn23 Y8 3.234731 1_556
Sn23 Y11 3.324221 1_555
