# generated using pymatgen
data_Sr7MnN6
_symmetry_space_group_name_H-M   'P 1'
_cell_length_a   11.84345172
_cell_length_b   6.71505469
_cell_length_c   13.66548096
_cell_angle_alpha   90.00000000
_cell_angle_beta   90.00000000
_cell_angle_gamma   90.00000000
_symmetry_Int_Tables_number   1
_chemical_formula_structural   Sr7MnN6
_chemical_formula_sum   'Sr28 Mn4 N24'
_cell_volume   1086.80785701
_cell_formula_units_Z   4
loop_
 _symmetry_equiv_pos_site_id
 _symmetry_equiv_pos_as_xyz
  1  'x, y, z'
loop_
 _atom_site_type_symbol
 _atom_site_label
 _atom_site_symmetry_multiplicity
 _atom_site_fract_x
 _atom_site_fract_y
 _atom_site_fract_z
 _atom_site_occupancy
  Sr  Sr0  1  0.03716393  0.73545512  0.97896651  1
  Sr  Sr1  1  0.46283607  0.76454488  0.47896651  1
  Sr  Sr2  1  0.53716393  0.76454488  0.02103349  1
  Sr  Sr3  1  0.96283607  0.73545512  0.52103349  1
  Sr  Sr4  1  0.96283607  0.26454488  0.02103349  1
  Sr  Sr5  1  0.53716393  0.23545512  0.52103349  1
  Sr  Sr6  1  0.46283607  0.23545512  0.97896651  1
  Sr  Sr7  1  0.03716393  0.26454488  0.47896651  1
  Sr  Sr8  1  0.21845715  0.86219181  0.62139855  1
  Sr  Sr9  1  0.28154285  0.63780819  0.12139855  1
  Sr  Sr10  1  0.71845715  0.63780819  0.37860145  1
  Sr  Sr11  1  0.78154285  0.86219181  0.87860145  1
  Sr  Sr12  1  0.78154285  0.13780819  0.37860145  1
  Sr  Sr13  1  0.71845715  0.36219181  0.87860145  1
  Sr  Sr14  1  0.28154285  0.36219181  0.62139855  1
  Sr  Sr15  1  0.21845715  0.13780819  0.12139855  1
  Sr  Sr16  1  0.29156485  0.61453124  0.86978592  1
  Sr  Sr17  1  0.20843515  0.88546876  0.36978592  1
  Sr  Sr18  1  0.79156485  0.88546876  0.13021408  1
  Sr  Sr19  1  0.70843515  0.61453124  0.63021408  1
  Sr  Sr20  1  0.70843515  0.38546876  0.13021408  1
  Sr  Sr21  1  0.79156485  0.11453124  0.63021408  1
  Sr  Sr22  1  0.20843515  0.11453124  0.86978592  1
  Sr  Sr23  1  0.29156485  0.38546876  0.36978592  1
  Sr  Sr24  1  -0.00000000  0.43506224  0.75000000  1
  Sr  Sr25  1  0.50000000  0.06493776  0.25000000  1
  Sr  Sr26  1  -0.00000000  0.56493776  0.25000000  1
  Sr  Sr27  1  0.50000000  0.93506224  0.75000000  1
  Mn  Mn0  1  -0.00000000  0.92744221  0.75000000  1
  Mn  Mn1  1  0.50000000  0.57255779  0.25000000  1
  Mn  Mn2  1  -0.00000000  0.07255779  0.25000000  1
  Mn  Mn3  1  0.50000000  0.42744221  0.75000000  1
  N  N0  1  0.11741806  0.77260096  0.78727929  1
  N  N1  1  0.38258194  0.72739904  0.28727929  1
  N  N2  1  0.61741806  0.72739904  0.21272071  1
  N  N3  1  0.88258194  0.77260096  0.71272071  1
  N  N4  1  0.88258194  0.22739904  0.21272071  1
  N  N5  1  0.61741806  0.27260096  0.71272071  1
  N  N6  1  0.38258194  0.27260096  0.78727929  1
  N  N7  1  0.11741806  0.22739904  0.28727929  1
  N  N8  1  0.16609094  0.59056444  0.49713511  1
  N  N9  1  0.33390906  0.90943556  0.99713511  1
  N  N10  1  0.66609094  0.90943556  0.50286489  1
  N  N11  1  0.83390906  0.59056444  0.00286489  1
  N  N12  1  0.83390906  0.40943556  0.50286489  1
  N  N13  1  0.66609094  0.09056444  0.00286489  1
  N  N14  1  0.33390906  0.09056444  0.49713511  1
  N  N15  1  0.16609094  0.40943556  0.99713511  1
  N  N16  1  0.46062732  0.58359543  0.64668230  1
  N  N17  1  0.03937268  0.91640457  0.14668230  1
  N  N18  1  0.96062732  0.91640457  0.35331770  1
  N  N19  1  0.53937268  0.58359543  0.85331770  1
  N  N20  1  0.53937268  0.41640457  0.35331770  1
  N  N21  1  0.96062732  0.08359543  0.85331770  1
  N  N22  1  0.03937268  0.08359543  0.64668230  1
  N  N23  1  0.46062732  0.41640457  0.14668230  1
loop_
_geom_bond_atom_site_label_1
_geom_bond_atom_site_label_2
_geom_bond_distance
_geom_bond_site_symmetry_2
Mn0 N3 1.809561 1_455
Mn0 N0 1.809561 1_555
Mn0 N21 1.819445 1_465
Mn0 N22 1.819445 1_565
Mn1 N2 1.809561 1_555
Mn1 N1 1.809561 1_555
Mn1 N20 1.819445 1_555
Mn1 N23 1.819445 1_555
Mn2 N4 1.809561 1_455
Mn2 N7 1.809561 1_555
Mn2 N18 1.819445 1_445
Mn2 N17 1.819445 1_545
Mn3 N6 1.809561 1_555
Mn3 N5 1.809561 1_555
Mn3 N19 1.819445 1_555
Mn3 N16 1.819445 1_555
N0 Sr16 2.579111 1_555
N0 Sr8 2.632959 1_555
N0 Sr24 2.707550 1_555
N0 Sr22 2.775827 1_565
N0 Sr0 2.797751 1_555
N1 Sr17 2.579111 1_555
N1 Sr9 2.632959 1_555
N1 Sr25 2.707550 1_565
N1 Sr23 2.775827 1_555
N1 Sr1 2.797751 1_555
N2 Sr18 2.579111 1_555
N2 Sr10 2.632959 1_555
N2 Sr25 2.707550 1_565
N2 Sr20 2.775827 1_555
N2 Sr2 2.797751 1_555
N3 Sr19 2.579111 1_555
N3 Sr11 2.632959 1_555
N3 Sr24 2.707550 1_655
N3 Sr21 2.775827 1_565
N3 Sr3 2.797751 1_555
N4 Sr20 2.579111 1_555
N4 Sr12 2.632959 1_555
N4 Sr26 2.707550 1_655
N4 Sr18 2.775827 1_545
N4 Sr4 2.797751 1_555
N5 Sr21 2.579111 1_555
N5 Sr13 2.632959 1_555
N5 Sr27 2.707550 1_545
N5 Sr19 2.775827 1_555
N5 Sr5 2.797751 1_555
N6 Sr22 2.579111 1_555
N6 Sr14 2.632959 1_555
N6 Sr27 2.707550 1_545
N6 Sr16 2.775827 1_555
N6 Sr6 2.797751 1_555
N7 Sr23 2.579111 1_555
N7 Sr15 2.632959 1_555
N7 Sr26 2.707550 1_555
N7 Sr17 2.775827 1_545
N7 Sr7 2.797751 1_555
N8 Sr8 2.568113 1_555
N8 Sr3 2.616885 1_455
N8 Sr14 2.665517 1_555
N8 Sr23 2.670897 1_555
N8 Sr7 2.680664 1_555
N8 Sr17 2.683596 1_555
N9 Sr9 2.568113 1_556
N9 Sr2 2.616885 1_556
N9 Sr15 2.665517 1_566
N9 Sr22 2.670897 1_565
N9 Sr6 2.680664 1_565
N9 Sr16 2.683596 1_555
N10 Sr10 2.568113 1_555
N10 Sr1 2.616885 1_555
N10 Sr12 2.665517 1_565
N10 Sr21 2.670897 1_565
N10 Sr5 2.680664 1_565
N10 Sr19 2.683596 1_555
N11 Sr11 2.568113 1_554
N11 Sr0 2.616885 1_654
N11 Sr13 2.665517 1_554
N11 Sr20 2.670897 1_555
N11 Sr4 2.680664 1_555
N11 Sr18 2.683596 1_555
N12 Sr12 2.568113 1_555
N12 Sr7 2.616885 1_655
N12 Sr10 2.665517 1_555
N12 Sr19 2.670897 1_555
N12 Sr3 2.680664 1_555
N12 Sr21 2.683596 1_555
N13 Sr13 2.568113 1_554
N13 Sr6 2.616885 1_554
N13 Sr11 2.665517 1_544
N13 Sr18 2.670897 1_545
N13 Sr2 2.680664 1_545
N13 Sr20 2.683596 1_555
N14 Sr14 2.568113 1_555
N14 Sr5 2.616885 1_555
N14 Sr8 2.665517 1_545
N14 Sr17 2.670897 1_545
N14 Sr1 2.680664 1_545
N14 Sr23 2.683596 1_555
N15 Sr15 2.568113 1_556
N15 Sr4 2.616885 1_456
N15 Sr9 2.665517 1_556
N15 Sr16 2.670897 1_555
N15 Sr0 2.680664 1_555
N15 Sr22 2.683596 1_555
N16 Sr1 2.594224 1_555
N16 Sr14 2.613105 1_555
N16 Sr27 2.789449 1_555
N16 Sr19 2.950837 1_555
N16 Sr5 3.038939 1_555
N17 Sr0 2.594224 1_554
N17 Sr15 2.613105 1_565
N17 Sr26 2.789449 1_555
N17 Sr18 2.950837 1_455
N17 Sr4 3.038939 1_465
N18 Sr3 2.594224 1_555
N18 Sr12 2.613105 1_565
N18 Sr26 2.789449 1_655
N18 Sr17 2.950837 1_655
N18 Sr7 3.038939 1_665
N19 Sr2 2.594224 1_556
N19 Sr13 2.613105 1_555
N19 Sr27 2.789449 1_555
N19 Sr16 2.950837 1_555
N19 Sr6 3.038939 1_555
N20 Sr5 2.594224 1_555
N20 Sr10 2.613105 1_555
N20 Sr25 2.789449 1_555
N20 Sr23 2.950837 1_555
N20 Sr1 3.038939 1_555
N21 Sr4 2.594224 1_556
N21 Sr11 2.613105 1_545
N21 Sr24 2.789449 1_655
N21 Sr22 2.950837 1_655
N21 Sr0 3.038939 1_645
N22 Sr7 2.594224 1_555
N22 Sr8 2.613105 1_545
N22 Sr24 2.789449 1_555
N22 Sr21 2.950837 1_455
N22 Sr3 3.038939 1_445
N23 Sr6 2.594224 1_554
N23 Sr9 2.613105 1_555
N23 Sr25 2.789449 1_555
N23 Sr20 2.950837 1_555
N23 Sr2 3.038939 1_555
