# generated using pymatgen
data_Mo8N6O31
_symmetry_space_group_name_H-M   'P 1'
_cell_length_a   11.98883300
_cell_length_b   9.95920900
_cell_length_c   15.71443304
_cell_angle_alpha   69.61291087
_cell_angle_beta   90.00000000
_cell_angle_gamma   90.00000000
_symmetry_Int_Tables_number   1
_chemical_formula_structural   Mo8N6O31
_chemical_formula_sum   'Mo16 N12 O62'
_cell_volume   1758.76221999
_cell_formula_units_Z   2
loop_
 _symmetry_equiv_pos_site_id
 _symmetry_equiv_pos_as_xyz
  1  'x, y, z'
loop_
 _atom_site_type_symbol
 _atom_site_label
 _atom_site_symmetry_multiplicity
 _atom_site_fract_x
 _atom_site_fract_y
 _atom_site_fract_z
 _atom_site_occupancy
  Mo  Mo0  1  0.46037700  0.87793300  0.42883800  1
  Mo  Mo1  1  0.96037700  0.12206700  0.07116200  1
  Mo  Mo2  1  0.53962300  0.12206700  0.57116200  1
  Mo  Mo3  1  0.03962300  0.87793300  0.92883800  1
  Mo  Mo4  1  0.74481200  0.91619300  0.46205500  1
  Mo  Mo5  1  0.24481200  0.08380700  0.03794500  1
  Mo  Mo6  1  0.25518800  0.08380700  0.53794500  1
  Mo  Mo7  1  0.75518800  0.91619300  0.96205500  1
  Mo  Mo8  1  0.62542000  0.57815500  0.54115200  1
  Mo  Mo9  1  0.12542000  0.42184500  0.95884800  1
  Mo  Mo10  1  0.37458000  0.42184500  0.45884800  1
  Mo  Mo11  1  0.87458000  0.57815500  0.04115200  1
  Mo  Mo12  1  0.41224600  0.77515200  0.65534500  1
  Mo  Mo13  1  0.91224600  0.22484800  0.84465500  1
  Mo  Mo14  1  0.58775400  0.22484800  0.34465500  1
  Mo  Mo15  1  0.08775400  0.77515200  0.15534500  1
  N  N0  1  0.00098000  0.77210400  0.69679300  1
  N  N1  1  0.50098000  0.22789600  0.80320700  1
  N  N2  1  0.99902000  0.22789600  0.30320700  1
  N  N3  1  0.49902000  0.77210400  0.19679300  1
  N  N4  1  0.09118100  0.72612400  0.46011700  1
  N  N5  1  0.59118100  0.27387600  0.03988300  1
  N  N6  1  0.90881900  0.27387600  0.53988300  1
  N  N7  1  0.40881900  0.72612400  0.96011700  1
  N  N8  1  0.70729600  0.82863400  0.79829500  1
  N  N9  1  0.20729600  0.17136600  0.70170500  1
  N  N10  1  0.29270400  0.17136600  0.20170500  1
  N  N11  1  0.79270400  0.82863400  0.29829500  1
  O  O0  1  0.48982000  0.73466300  0.55919600  1
  O  O1  1  0.98982000  0.26533700  0.94080400  1
  O  O2  1  0.51018000  0.26533700  0.44080400  1
  O  O3  1  0.01018000  0.73466300  0.05919600  1
  O  O4  1  0.63000300  0.03274500  0.48460900  1
  O  O5  1  0.13000300  0.96725500  0.01539100  1
  O  O6  1  0.36999700  0.96725500  0.51539100  1
  O  O7  1  0.86999700  0.03274500  0.98460900  1
  O  O8  1  0.59216100  0.79616100  0.41343500  1
  O  O9  1  0.09216100  0.20383900  0.08656500  1
  O  O10  1  0.40783900  0.20383900  0.58656500  1
  O  O11  1  0.90783900  0.79616100  0.91343500  1
  O  O12  1  0.35757600  0.80387300  0.38468600  1
  O  O13  1  0.85757600  0.19612700  0.11531400  1
  O  O14  1  0.64242400  0.19612700  0.61531400  1
  O  O15  1  0.14242400  0.80387300  0.88468600  1
  O  O16  1  0.72904000  0.74638200  0.55187500  1
  O  O17  1  0.22904000  0.25361800  0.94812500  1
  O  O18  1  0.27096000  0.25361800  0.44812500  1
  O  O19  1  0.77096000  0.74638200  0.05187500  1
  O  O20  1  0.86720200  0.98126200  0.48646600  1
  O  O21  1  0.36720200  0.01873800  0.01353400  1
  O  O22  1  0.13279800  0.01873800  0.51353400  1
  O  O23  1  0.63279800  0.98126200  0.98646600  1
  O  O24  1  0.82017700  0.79641600  0.37857300  1
  O  O25  1  0.32017700  0.20358400  0.12142700  1
  O  O26  1  0.17982300  0.20358400  0.62142700  1
  O  O27  1  0.67982300  0.79641600  0.87857300  1
  O  O28  1  0.63240300  0.48012300  0.65482400  1
  O  O29  1  0.13240300  0.51987700  0.84517600  1
  O  O30  1  0.36759700  0.51987700  0.34517600  1
  O  O31  1  0.86759700  0.48012300  0.15482400  1
  O  O32  1  0.73243100  0.51803900  0.49100300  1
  O  O33  1  0.23243100  0.48196100  0.00899700  1
  O  O34  1  0.26756900  0.48196100  0.50899700  1
  O  O35  1  0.76756900  0.51803900  0.99100300  1
  O  O36  1  0.50000000  0.50000000  0.50000000  1
  O  O37  1  0.00000000  0.50000000  0.00000000  1
  O  O38  1  0.46903000  0.63152200  0.76474200  1
  O  O39  1  0.96903000  0.36847800  0.73525800  1
  O  O40  1  0.53097000  0.36847800  0.23525800  1
  O  O41  1  0.03097000  0.63152200  0.26474200  1
  O  O42  1  0.51725200  0.94080200  0.65580700  1
  O  O43  1  0.01725200  0.05919800  0.84419300  1
  O  O44  1  0.48274800  0.05919800  0.34419300  1
  O  O45  1  0.98274800  0.94080200  0.15580700  1
  O  O46  1  0.27578600  0.97078500  0.67610500  1
  O  O47  1  0.77578600  0.02921500  0.82389500  1
  O  O48  1  0.72421400  0.02921500  0.32389500  1
  O  O49  1  0.22421400  0.97078500  0.17610500  1
  O  O50  1  0.27734300  0.71860500  0.65698900  1
  O  O51  1  0.77734300  0.28139500  0.84301100  1
  O  O52  1  0.72265700  0.28139500  0.34301100  1
  O  O53  1  0.22265700  0.71860500  0.15698900  1
  O  O54  1  0.76343200  0.94862800  0.76333300  1
  O  O55  1  0.26343200  0.05137200  0.73666700  1
  O  O56  1  0.23656800  0.05137200  0.23666700  1
  O  O57  1  0.73656800  0.94862800  0.26333300  1
  O  O58  1  0.92828500  0.48468400  0.67727700  1
  O  O59  1  0.42828500  0.51531600  0.82272300  1
  O  O60  1  0.07171500  0.51531600  0.32272300  1
  O  O61  1  0.57171500  0.48468400  0.17727700  1
loop_
_geom_bond_atom_site_label_1
_geom_bond_atom_site_label_2
_geom_bond_distance
_geom_bond_site_symmetry_2
Mo0 O12 1.703211 1_555
Mo0 O8 1.831761 1_555
Mo0 O44 1.851261 1_565
Mo0 O0 2.078562 1_555
Mo0 O6 2.158328 1_555
Mo1 O13 1.703211 1_555
Mo1 O9 1.831761 1_655
Mo1 O45 1.851261 1_545
Mo1 O1 2.078562 1_554
Mo1 O7 2.158328 1_554
Mo2 O14 1.703211 1_555
Mo2 O10 1.831761 1_555
Mo2 O42 1.851261 1_545
Mo2 O2 2.078562 1_555
Mo2 O4 2.158328 1_555
Mo3 O15 1.703211 1_555
Mo3 O11 1.831761 1_455
Mo3 O43 1.851261 1_565
Mo3 O3 2.078562 1_556
Mo3 O5 2.158328 1_556
Mo4 O20 1.700973 1_555
Mo4 O16 1.795826 1_555
Mo4 O4 1.911589 1_565
Mo4 O48 2.083031 1_565
Mo4 O24 2.247370 1_555
Mo4 O8 2.449169 1_555
Mo5 O21 1.700973 1_555
Mo5 O17 1.795826 1_554
Mo5 O5 1.911589 1_545
Mo5 O49 2.083031 1_545
Mo5 O25 2.247370 1_555
Mo5 O9 2.449169 1_555
Mo6 O22 1.700973 1_555
Mo6 O18 1.795826 1_555
Mo6 O6 1.911589 1_545
Mo6 O46 2.083031 1_545
Mo6 O26 2.247370 1_555
Mo6 O10 2.449169 1_555
Mo7 O23 1.700973 1_555
Mo7 O19 1.795826 1_556
Mo7 O7 1.911589 1_565
Mo7 O47 2.083031 1_565
Mo7 O27 2.247370 1_555
Mo7 O11 2.449169 1_555
Mo8 O28 1.713467 1_555
Mo8 O32 1.718764 1_555
Mo8 O36 1.906743 1_555
Mo8 O16 2.139006 1_555
Mo8 O0 2.336818 1_555
Mo8 O8 2.421780 1_555
Mo9 O29 1.713467 1_555
Mo9 O33 1.718764 1_556
Mo9 O37 1.906743 1_556
Mo9 O17 2.139006 1_555
Mo9 O1 2.336818 1_455
Mo9 O9 2.421780 1_556
Mo10 O30 1.713467 1_555
Mo10 O34 1.718764 1_555
Mo10 O36 1.906743 1_555
Mo10 O18 2.139006 1_555
Mo10 O2 2.336818 1_555
Mo10 O10 2.421780 1_555
Mo11 O31 1.713467 1_555
Mo11 O35 1.718764 1_554
Mo11 O37 1.906743 1_655
Mo11 O19 2.139006 1_555
Mo11 O3 2.336818 1_655
Mo11 O11 2.421780 1_554
Mo12 O50 1.709807 1_555
Mo12 O0 1.932597 1_555
Mo12 O38 1.936920 1_555
Mo12 O42 2.077228 1_555
Mo12 O6 2.412923 1_555
Mo12 O46 2.649872 1_555
Mo13 O51 1.709807 1_555
Mo13 O1 1.932597 1_555
Mo13 O39 1.936920 1_555
Mo13 O43 2.077228 1_655
Mo13 O7 2.412923 1_555
Mo13 O47 2.649872 1_555
Mo14 O52 1.709807 1_555
Mo14 O2 1.932597 1_555
Mo14 O40 1.936920 1_555
Mo14 O44 2.077228 1_555
Mo14 O4 2.412923 1_555
Mo14 O48 2.649872 1_555
Mo15 O53 1.709807 1_555
Mo15 O3 1.932597 1_555
Mo15 O41 1.936920 1_555
Mo15 O45 2.077228 1_455
Mo15 O5 2.412923 1_555
Mo15 O49 2.649872 1_555
N8 O27 1.233232 1_555
N8 O54 1.313573 1_555
N9 O26 1.233232 1_555
N9 O55 1.313573 1_555
N10 O25 1.233232 1_555
N10 O56 1.313573 1_555
N11 O24 1.233232 1_555
N11 O57 1.313573 1_555
O38 O59 1.293639 1_555
O39 O58 1.293639 1_555
O40 O61 1.293639 1_555
O41 O60 1.293639 1_555
O46 O55 1.450507 1_565
O47 O54 1.450507 1_545
O48 O57 1.450507 1_545
O49 O56 1.450507 1_565
