# generated using pymatgen
data_Pd2PbO4
_symmetry_space_group_name_H-M   'P 1'
_cell_length_a   6.51583100
_cell_length_b   6.51583100
_cell_length_c   6.51583100
_cell_angle_alpha   126.77696059
_cell_angle_beta   126.77696059
_cell_angle_gamma   78.61485791
_symmetry_Int_Tables_number   1
_chemical_formula_structural   Pd2PbO4
_chemical_formula_sum   'Pd4 Pb2 O8'
_cell_volume   171.79562240
_cell_formula_units_Z   2
loop_
 _symmetry_equiv_pos_site_id
 _symmetry_equiv_pos_as_xyz
  1  'x, y, z'
loop_
 _atom_site_type_symbol
 _atom_site_label
 _atom_site_symmetry_multiplicity
 _atom_site_fract_x
 _atom_site_fract_y
 _atom_site_fract_z
 _atom_site_occupancy
  Pd  Pd0  1  0.37500000  0.12500000  0.75000000  1
  Pd  Pd1  1  0.37500000  0.62500000  0.25000000  1
  Pd  Pd2  1  0.37500000  0.62500000  0.75000000  1
  Pd  Pd3  1  0.87500000  0.62500000  0.25000000  1
  Pb  Pb0  1  0.00000000  -0.00000000  0.00000000  1
  Pb  Pb1  1  0.75000000  0.25000000  0.50000000  1
  O  O0  1  0.75420611  0.61255131  0.46359359  1
  O  O1  1  0.14895672  0.29061252  0.53640641  1
  O  O2  1  0.60104328  0.95938748  0.96359359  1
  O  O3  1  0.99579389  0.63744869  0.03640641  1
  O  O4  1  0.70938748  0.24579389  0.85834420  1
  O  O5  1  0.38744869  0.85104328  0.14165580  1
  O  O6  1  0.36255131  0.39895672  0.35834420  1
  O  O7  1  0.04061252  0.00420611  0.64165580  1
loop_
_geom_bond_atom_site_label_1
_geom_bond_atom_site_label_2
_geom_bond_distance
_geom_bond_site_symmetry_2
O0 Pd1 1.996756 1_555
O0 Pd3 2.008735 1_555
O0 Pb0 2.341469 1_666
O0 Pb1 2.518322 1_555
O1 Pd0 1.996758 1_555
O1 Pd2 2.008739 1_555
O1 Pb0 2.341471 1_555
O1 Pb1 2.518316 1_455
O2 Pd0 1.996758 1_565
O2 Pd2 2.008739 1_555
O2 Pb1 2.341471 1_566
O2 Pb0 2.518316 1_666
O3 Pd1 1.996756 1_655
O3 Pd3 2.008735 1_555
O3 Pb1 2.341469 1_554
O3 Pb0 2.518322 1_665
O4 Pd3 1.996758 1_556
O4 Pd0 2.008739 1_555
O4 Pb0 2.341471 1_656
O4 Pb1 2.518316 1_555
O5 Pd2 1.996762 1_554
O5 Pd1 2.008736 1_555
O5 Pb0 2.341466 1_565
O5 Pb1 2.518320 1_565
O6 Pd2 1.996762 1_555
O6 Pd1 2.008736 1_555
O6 Pb1 2.341466 1_555
O6 Pb0 2.518320 1_555
O7 Pd3 1.996758 1_445
O7 Pd0 2.008739 1_555
O7 Pb1 2.341471 1_455
O7 Pb0 2.518316 1_556
