# generated using pymatgen
data_Sm2FeSbO7
_symmetry_space_group_name_H-M   'P 1'
_cell_length_a   7.41042169
_cell_length_b   7.41042169
_cell_length_c   7.41042169
_cell_angle_alpha   120.39250872
_cell_angle_beta   119.36671018
_cell_angle_gamma   90.21093666
_symmetry_Int_Tables_number   1
_chemical_formula_structural   Sm2FeSbO7
_chemical_formula_sum   'Sm4 Fe2 Sb2 O14'
_cell_volume   288.24172049
_cell_formula_units_Z   2
loop_
 _symmetry_equiv_pos_site_id
 _symmetry_equiv_pos_as_xyz
  1  'x, y, z'
loop_
 _atom_site_type_symbol
 _atom_site_label
 _atom_site_symmetry_multiplicity
 _atom_site_fract_x
 _atom_site_fract_y
 _atom_site_fract_z
 _atom_site_occupancy
  Sm  Sm0  1  0.50000000  0.00000000  0.00000000  1
  Sm  Sm1  1  0.50000000  0.50000000  0.50000000  1
  Sm  Sm2  1  0.50000000  0.00000000  0.50000000  1
  Sm  Sm3  1  0.00000000  0.00000000  0.00000000  1
  Fe  Fe0  1  0.00000000  0.50000000  0.00000000  1
  Fe  Fe1  1  0.00000000  0.00000000  0.50000000  1
  Sb  Sb0  1  0.00000000  0.50000000  0.50000000  1
  Sb  Sb1  1  0.50000000  0.50000000  0.00000000  1
  O  O0  1  0.91435200  0.16435200  0.75000000  1
  O  O1  1  0.32814400  0.57814400  0.75000000  1
  O  O2  1  0.91351300  0.57637900  0.74011400  1
  O  O3  1  0.33626400  0.17339900  0.75988600  1
  O  O4  1  0.91351300  0.17339900  0.33713400  1
  O  O5  1  0.33626400  0.57637900  0.16286600  1
  O  O6  1  0.08564800  0.83564800  0.25000000  1
  O  O7  1  0.67185600  0.42185600  0.25000000  1
  O  O8  1  0.08648700  0.42362100  0.25988600  1
  O  O9  1  0.66373600  0.82660100  0.24011400  1
  O  O10  1  0.08648700  0.82660100  0.66286600  1
  O  O11  1  0.66373600  0.42362100  0.83713400  1
  O  O12  1  0.62338200  0.87338200  0.75000000  1
  O  O13  1  0.37661800  0.12661800  0.25000000  1
loop_
_geom_bond_atom_site_label_1
_geom_bond_atom_site_label_2
_geom_bond_distance
_geom_bond_site_symmetry_2
Fe0 O0 2.047973 1_454
Fe0 O6 2.047973 1_555
Fe0 O11 2.082083 1_454
Fe0 O5 2.082083 1_555
Fe0 O2 2.082090 1_454
Fe0 O8 2.082090 1_555
Fe1 O6 2.047973 1_545
Fe1 O0 2.047973 1_455
Fe1 O3 2.082085 1_555
Fe1 O9 2.082085 1_445
Fe1 O4 2.082090 1_455
Fe1 O10 2.082090 1_545
O0 Sm2 2.540430 1_555
O0 Sm3 2.540430 1_656
O1 Sb0 2.041142 1_555
O1 Sb1 2.041142 1_556
O1 Sm1 2.573576 1_555
O1 Sm0 2.573576 1_566
O2 Sb0 1.999828 1_655
O2 Sm1 2.548891 1_555
O2 Sm3 2.575201 1_666
O3 Sb1 1.999829 1_556
O3 Sm0 2.548892 1_556
O3 Sm2 2.575208 1_555
O4 Sb0 1.999828 1_655
O4 Sm0 2.548891 1_555
O4 Sm3 2.575201 1_655
O5 Sb1 1.999835 1_555
O5 Sm1 2.548891 1_555
O5 Sm2 2.575201 1_565
O6 Sm2 2.540430 1_565
O6 Sm3 2.540430 1_565
O7 Sb0 2.041142 1_655
O7 Sb1 2.041142 1_555
O7 Sm0 2.573576 1_555
O7 Sm1 2.573576 1_555
O8 Sb0 1.999828 1_555
O8 Sm1 2.548891 1_555
O8 Sm3 2.575201 1_555
O9 Sb1 1.999829 1_555
O9 Sm0 2.548892 1_565
O9 Sm2 2.575208 1_565
O10 Sb0 1.999828 1_555
O10 Sm0 2.548891 1_566
O10 Sm3 2.575201 1_566
O11 Sb1 1.999835 1_556
O11 Sm1 2.548891 1_555
O11 Sm2 2.575201 1_555
O12 Sm1 2.248840 1_555
O12 Sm0 2.248840 1_566
O12 Sm2 2.291804 1_565
O12 Sm3 2.291804 1_666
O13 Sm0 2.248840 1_555
O13 Sm1 2.248840 1_555
O13 Sm2 2.291804 1_555
O13 Sm3 2.291804 1_555
