# generated using pymatgen
data_ZrCrAgS4
_symmetry_space_group_name_H-M   'P 1'
_cell_length_a   7.23430054
_cell_length_b   6.15044266
_cell_length_c   6.57682433
_cell_angle_alpha   91.68269212
_cell_angle_beta   89.99901209
_cell_angle_gamma   90.00108043
_symmetry_Int_Tables_number   1
_chemical_formula_structural   ZrCrAgS4
_chemical_formula_sum   'Zr2 Cr2 Ag2 S8'
_cell_volume   292.50402354
_cell_formula_units_Z   2
loop_
 _symmetry_equiv_pos_site_id
 _symmetry_equiv_pos_as_xyz
  1  'x, y, z'
loop_
 _atom_site_type_symbol
 _atom_site_label
 _atom_site_symmetry_multiplicity
 _atom_site_fract_x
 _atom_site_fract_y
 _atom_site_fract_z
 _atom_site_occupancy
  Zr  Zr0  1  0.25001800  0.50005000  0.49996500  1
  Zr  Zr1  1  0.74996900  0.50004900  0.49997700  1
  Cr  Cr0  1  0.99999200  0.00003000  0.49992500  1
  Cr  Cr1  1  0.50001200  0.99998100  0.50003300  1
  Ag  Ag0  1  0.00000100  0.00002000  0.99997700  1
  Ag  Ag1  1  0.50001200  0.00002200  0.99998600  1
  S  S0  1  0.00002200  0.31646500  0.27941500  1
  S  S1  1  0.49999500  0.31647400  0.27943000  1
  S  S2  1  0.24999800  0.84388500  0.28872700  1
  S  S3  1  0.74999900  0.84388600  0.28873700  1
  S  S4  1  0.24998600  0.15612200  0.71130100  1
  S  S5  1  0.74999800  0.15611100  0.71128600  1
  S  S6  1  0.49999700  0.68343900  0.72060100  1
  S  S7  1  0.00000000  0.68346700  0.72063900  1
loop_
_geom_bond_atom_site_label_1
_geom_bond_atom_site_label_2
_geom_bond_distance
_geom_bond_site_symmetry_2
Cr0 S3 2.458434 1_545
Cr0 S2 2.458533 1_645
Cr0 S5 2.458916 1_555
Cr0 S4 2.459004 1_655
Cr0 S0 2.461048 1_655
Cr0 S7 2.462506 1_645
Cr1 S5 2.458601 1_565
Cr1 S3 2.458674 1_555
Cr1 S2 2.458865 1_555
Cr1 S4 2.458885 1_565
Cr1 S1 2.461711 1_565
Cr1 S6 2.461813 1_555
Ag0 S0 2.637326 1_556
Ag0 S7 2.637359 1_545
Ag0 S4 2.811366 1_555
Ag0 S5 2.811558 1_455
Ag0 S2 2.811894 1_546
Ag0 S3 2.811895 1_446
Ag1 S1 2.637384 1_556
Ag1 S6 2.637700 1_545
Ag1 S5 2.811450 1_555
Ag1 S4 2.811658 1_555
Ag1 S3 2.811854 1_546
Ag1 S2 2.811871 1_546
S0 Zr0 2.560000 1_555
S0 Zr1 2.560328 1_455
S1 Zr0 2.559820 1_555
S1 Zr1 2.559851 1_555
S2 Zr0 2.564126 1_555
S3 Zr1 2.564144 1_555
S4 Zr0 2.564972 1_555
S5 Zr1 2.564923 1_555
S6 Zr1 2.559633 1_555
S6 Zr0 2.559715 1_555
S7 Zr0 2.560121 1_555
S7 Zr1 2.560152 1_455
