# generated using pymatgen
data_NaMg6Sn
_symmetry_space_group_name_H-M   'P 1'
_cell_length_a   5.16689200
_cell_length_b   6.46718300
_cell_length_c   11.39265700
_cell_angle_alpha   90.00000000
_cell_angle_beta   90.00000000
_cell_angle_gamma   90.00000000
_symmetry_Int_Tables_number   1
_chemical_formula_structural   NaMg6Sn
_chemical_formula_sum   'Na2 Mg12 Sn2'
_cell_volume   380.68832352
_cell_formula_units_Z   2
loop_
 _symmetry_equiv_pos_site_id
 _symmetry_equiv_pos_as_xyz
  1  'x, y, z'
loop_
 _atom_site_type_symbol
 _atom_site_label
 _atom_site_symmetry_multiplicity
 _atom_site_fract_x
 _atom_site_fract_y
 _atom_site_fract_z
 _atom_site_occupancy
  Na  Na0  1  0.50000000  0.50000000  0.16699200  1
  Na  Na1  1  0.50000000  0.00000000  0.66699200  1
  Mg  Mg0  1  0.50000000  0.25160300  0.41634900  1
  Mg  Mg1  1  0.50000000  0.74839700  0.41634900  1
  Mg  Mg2  1  0.00000000  0.74908800  0.08181200  1
  Mg  Mg3  1  0.00000000  0.25091200  0.08181200  1
  Mg  Mg4  1  0.00000000  0.00000000  0.33575100  1
  Mg  Mg5  1  0.00000000  0.50000000  0.33516500  1
  Mg  Mg6  1  0.50000000  0.75160300  0.91634900  1
  Mg  Mg7  1  0.50000000  0.24839700  0.91634900  1
  Mg  Mg8  1  0.00000000  0.24908800  0.58181200  1
  Mg  Mg9  1  0.00000000  0.75091200  0.58181200  1
  Mg  Mg10  1  0.00000000  0.50000000  0.83575100  1
  Mg  Mg11  1  0.00000000  0.00000000  0.83516500  1
  Sn  Sn0  1  0.50000000  0.00000000  0.16576700  1
  Sn  Sn1  1  0.50000000  0.50000000  0.66576700  1
loop_
_geom_bond_atom_site_label_1
_geom_bond_atom_site_label_2
_geom_bond_distance
_geom_bond_site_symmetry_2
Na0 Sn0 3.233622 1_565
Na0 Sn0 3.233622 1_555
Na1 Sn1 3.233622 1_545
Na1 Sn1 3.233622 1_555
Mg0 Mg5 3.179662 1_655
Mg0 Mg5 3.179662 1_555
Mg0 Mg4 3.188258 1_555
Mg0 Mg4 3.188258 1_655
Mg0 Mg8 3.198112 1_555
Mg0 Mg8 3.198112 1_655
Mg0 Mg1 3.212858 1_555
Mg0 Mg1 3.254325 1_545
Mg0 Na0 3.263584 1_555
Mg0 Sn1 3.264189 1_555
Mg0 Sn0 3.285957 1_555
Mg0 Na1 3.286560 1_555
Mg1 Mg5 3.179662 1_555
Mg1 Mg5 3.179662 1_655
Mg1 Mg4 3.188258 1_565
Mg1 Mg4 3.188258 1_665
Mg1 Mg9 3.198112 1_555
Mg1 Mg9 3.198112 1_655
Mg1 Na0 3.263584 1_555
Mg1 Sn1 3.264189 1_555
Mg1 Sn0 3.285957 1_565
Mg1 Na1 3.286560 1_565
Mg2 Na0 3.195452 1_555
Mg2 Na0 3.195452 1_455
Mg2 Sn0 3.197212 1_465
Mg2 Sn0 3.197212 1_565
Mg2 Mg6 3.198112 1_554
Mg2 Mg6 3.198112 1_454
Mg2 Mg3 3.221795 1_555
Mg2 Mg3 3.245388 1_565
Mg2 Mg5 3.305463 1_555
Mg2 Mg4 3.317049 1_565
Mg3 Na0 3.195452 1_555
Mg3 Na0 3.195452 1_455
Mg3 Sn0 3.197212 1_555
Mg3 Sn0 3.197212 1_455
Mg3 Mg7 3.198112 1_554
Mg3 Mg7 3.198112 1_454
Mg3 Mg5 3.305463 1_555
Mg3 Mg4 3.317049 1_555
Mg4 Sn0 3.228699 1_555
Mg4 Sn0 3.228699 1_455
Mg4 Mg8 3.233175 1_555
Mg4 Mg9 3.233175 1_545
Mg4 Mg5 3.233598 1_545
Mg4 Mg5 3.233598 1_555
Mg5 Na0 3.216366 1_455
Mg5 Na0 3.216366 1_555
Mg5 Mg9 3.244848 1_555
Mg5 Mg8 3.244848 1_555
Mg6 Mg7 3.212858 1_565
Mg6 Mg7 3.254325 1_555
Mg6 Na1 3.263584 1_565
Mg6 Sn0 3.264189 1_566
Mg6 Sn1 3.285957 1_555
Mg6 Na0 3.286560 1_556
Mg7 Na1 3.263584 1_555
Mg7 Sn0 3.264189 1_556
Mg7 Sn1 3.285957 1_555
Mg7 Na0 3.286560 1_556
Mg8 Na1 3.195452 1_555
Mg8 Na1 3.195452 1_455
Mg8 Sn1 3.197212 1_555
Mg8 Sn1 3.197212 1_455
Mg8 Mg9 3.221795 1_545
Mg8 Mg9 3.245388 1_555
Mg9 Na1 3.195452 1_465
Mg9 Na1 3.195452 1_565
Mg9 Sn1 3.197212 1_455
Mg9 Sn1 3.197212 1_555
Mg10 Mg6 3.188258 1_555
Mg10 Mg6 3.188258 1_455
Mg10 Mg7 3.188258 1_555
Mg10 Mg7 3.188258 1_455
Mg10 Sn1 3.228699 1_455
Mg10 Sn1 3.228699 1_555
Mg10 Mg2 3.233175 1_556
Mg10 Mg3 3.233175 1_556
Mg10 Mg11 3.233598 1_565
Mg10 Mg11 3.233598 1_555
Mg10 Mg9 3.317049 1_555
Mg10 Mg8 3.317049 1_555
Mg11 Mg7 3.179662 1_455
Mg11 Mg7 3.179662 1_555
Mg11 Mg6 3.179662 1_445
Mg11 Mg6 3.179662 1_545
Mg11 Na1 3.216366 1_555
Mg11 Na1 3.216366 1_455
Mg11 Mg3 3.244848 1_556
Mg11 Mg2 3.244848 1_546
Mg11 Mg8 3.305463 1_555
Mg11 Mg9 3.305463 1_545
