# generated using pymatgen
data_CrSiH8(O2F3)2
_symmetry_space_group_name_H-M   'P 1'
_cell_length_a   9.87427700
_cell_length_b   5.55563000
_cell_length_c   7.40326018
_cell_angle_alpha   74.95768082
_cell_angle_beta   90.00000000
_cell_angle_gamma   90.00000000
_symmetry_Int_Tables_number   1
_chemical_formula_structural   CrSiH8(O2F3)2
_chemical_formula_sum   'Cr2 Si2 H16 O8 F12'
_cell_volume   392.21060542
_cell_formula_units_Z   2
loop_
 _symmetry_equiv_pos_site_id
 _symmetry_equiv_pos_as_xyz
  1  'x, y, z'
loop_
 _atom_site_type_symbol
 _atom_site_label
 _atom_site_symmetry_multiplicity
 _atom_site_fract_x
 _atom_site_fract_y
 _atom_site_fract_z
 _atom_site_occupancy
  Cr  Cr0  1  0.00000000  0.00000000  0.00000000  1
  Cr  Cr1  1  0.50000000  0.00000000  0.50000000  1
  Si  Si0  1  0.00000000  0.50000000  0.50000000  1
  Si  Si1  1  0.50000000  0.50000000  0.00000000  1
  H  H0  1  0.85384900  0.22452500  0.21745600  1
  H  H1  1  0.35384900  0.77547500  0.28254400  1
  H  H2  1  0.14615100  0.77547500  0.78254400  1
  H  H3  1  0.64615100  0.22452500  0.71745600  1
  H  H4  1  0.76328700  0.22592900  0.04064200  1
  H  H5  1  0.26328700  0.77407100  0.45935800  1
  H  H6  1  0.23671300  0.77407100  0.95935800  1
  H  H7  1  0.73671300  0.22592900  0.54064200  1
  H  H8  1  0.22790000  0.24169300  0.05191200  1
  H  H9  1  0.72790000  0.75830700  0.44808800  1
  H  H10  1  0.77210000  0.75830700  0.94808800  1
  H  H11  1  0.27210000  0.24169300  0.55191200  1
  H  H12  1  0.12770600  0.25385100  0.21750600  1
  H  H13  1  0.62770600  0.74614900  0.28249400  1
  H  H14  1  0.87229400  0.74614900  0.78249400  1
  H  H15  1  0.37229400  0.25385100  0.71750600  1
  O  O0  1  0.83541800  0.13282300  0.12258600  1
  O  O1  1  0.33541800  0.86717700  0.37741400  1
  O  O2  1  0.16458200  0.86717700  0.87741400  1
  O  O3  1  0.66458200  0.13282300  0.62258600  1
  O  O4  1  0.13155900  0.24055900  0.08706800  1
  O  O5  1  0.63155900  0.75944100  0.41293200  1
  O  O6  1  0.86844100  0.75944100  0.91293200  1
  O  O7  1  0.36844100  0.24055900  0.58706800  1
  F  F0  1  0.04056400  0.69427100  0.29082000  1
  F  F1  1  0.54056400  0.30572900  0.20918000  1
  F  F2  1  0.95943600  0.30572900  0.70918000  1
  F  F3  1  0.45943600  0.69427100  0.79082000  1
  F  F4  1  0.10958500  0.27918600  0.45443700  1
  F  F5  1  0.60958500  0.72081400  0.04556300  1
  F  F6  1  0.89041500  0.72081400  0.54556300  1
  F  F7  1  0.39041500  0.27918600  0.95443700  1
  F  F8  1  0.86755300  0.37615800  0.39692300  1
  F  F9  1  0.36755300  0.62384200  0.10307700  1
  F  F10  1  0.13244700  0.62384200  0.60307700  1
  F  F11  1  0.63244700  0.37615800  0.89692300  1
loop_
_geom_bond_atom_site_label_1
_geom_bond_atom_site_label_2
_geom_bond_distance
_geom_bond_site_symmetry_2
Cr0 O6 2.082377 1_444
Cr0 O4 2.082377 1_555
Cr0 O2 2.087293 1_544
Cr0 O0 2.087293 1_455
Cr0 F2 2.404721 1_454
Cr0 F0 2.404721 1_545
Cr1 O5 2.082377 1_545
Cr1 O7 2.082377 1_555
Cr1 O3 2.087293 1_555
Cr1 O1 2.087293 1_545
Cr1 F1 2.404721 1_555
Cr1 F3 2.404721 1_545
H0 O0 0.985747 1_555
H1 O1 0.985747 1_555
H2 O2 0.985747 1_555
H3 O3 0.985747 1_555
H4 O0 0.989947 1_555
H5 O1 0.989947 1_555
H6 O2 0.989947 1_555
H7 O3 0.989947 1_555
H8 O4 0.985848 1_555
H9 O5 0.985848 1_555
H10 O6 0.985848 1_555
H11 O7 0.985848 1_555
H12 O4 0.988143 1_555
H13 O5 0.988143 1_555
H14 O6 0.988143 1_555
H15 O7 0.988143 1_555
F0 Si0 1.689955 1_555
F1 Si1 1.689955 1_555
F2 Si0 1.689955 1_655
F3 Si1 1.689955 1_556
F4 Si0 1.733319 1_555
F5 Si1 1.733319 1_555
F6 Si0 1.733319 1_655
F7 Si1 1.733319 1_556
F8 Si0 1.743163 1_655
F9 Si1 1.743163 1_555
F10 Si0 1.743163 1_555
F11 Si1 1.743163 1_556
