# generated using pymatgen
data_Zn2BiWO6
_symmetry_space_group_name_H-M   'P 1'
_cell_length_a   5.52628500
_cell_length_b   5.52214200
_cell_length_c   9.81808977
_cell_angle_alpha   57.33426512
_cell_angle_beta   90.00000000
_cell_angle_gamma   90.00000000
_symmetry_Int_Tables_number   1
_chemical_formula_structural   Zn2BiWO6
_chemical_formula_sum   'Zn4 Bi2 W2 O12'
_cell_volume   252.22850347
_cell_formula_units_Z   2
loop_
 _symmetry_equiv_pos_site_id
 _symmetry_equiv_pos_as_xyz
  1  'x, y, z'
loop_
 _atom_site_type_symbol
 _atom_site_label
 _atom_site_symmetry_multiplicity
 _atom_site_fract_x
 _atom_site_fract_y
 _atom_site_fract_z
 _atom_site_occupancy
  Zn  Zn0  1  0.48452700  0.21972700  0.75477800  1
  Zn  Zn1  1  0.98452700  0.78027300  0.74522200  1
  Zn  Zn2  1  0.51547300  0.78027300  0.24522200  1
  Zn  Zn3  1  0.01547300  0.21972700  0.25477800  1
  Bi  Bi0  1  0.50000000  0.00000000  0.50000000  1
  Bi  Bi1  1  0.00000000  0.00000000  0.00000000  1
  W  W0  1  0.50000000  0.50000000  0.00000000  1
  W  W1  1  0.00000000  0.50000000  0.50000000  1
  O  O0  1  0.18418800  0.45924100  0.91301000  1
  O  O1  1  0.68418800  0.54075900  0.58699000  1
  O  O2  1  0.81581200  0.54075900  0.08699000  1
  O  O3  1  0.31581200  0.45924100  0.41301000  1
  O  O4  1  0.36623800  0.75393300  0.06504100  1
  O  O5  1  0.86623800  0.24606700  0.43495900  1
  O  O6  1  0.63376200  0.24606700  0.93495900  1
  O  O7  1  0.13376200  0.75393300  0.56504100  1
  O  O8  1  0.12665800  0.15146300  0.72344800  1
  O  O9  1  0.62665800  0.84853700  0.77655200  1
  O  O10  1  0.37334200  0.15146300  0.22344800  1
  O  O11  1  0.87334200  0.84853700  0.27655200  1
loop_
_geom_bond_atom_site_label_1
_geom_bond_atom_site_label_2
_geom_bond_distance
_geom_bond_site_symmetry_2
Bi0 O5 2.326759 1_555
Bi0 O7 2.326759 1_545
Bi0 O3 2.420478 1_555
Bi0 O1 2.420478 1_545
Bi0 O9 2.471919 1_545
Bi0 O10 2.471919 1_555
Bi1 O6 2.326759 1_454
Bi1 O4 2.326759 1_545
Bi1 O0 2.420478 1_554
Bi1 O2 2.420478 1_445
Bi1 O8 2.471919 1_554
Bi1 O11 2.471919 1_445
O0 Zn1 1.980278 1_455
O0 W0 2.008376 1_556
O1 Zn0 1.980278 1_555
O1 W1 2.008376 1_655
O2 Zn3 1.980278 1_655
O2 W0 2.008376 1_555
O3 Zn2 1.980278 1_555
O3 W1 2.008376 1_555
O4 W0 1.971583 1_555
O4 Zn2 2.026956 1_555
O5 W1 1.971583 1_655
O5 Zn3 2.026956 1_655
O6 W0 1.971583 1_556
O6 Zn0 2.026956 1_555
O7 W1 1.971583 1_555
O7 Zn1 2.026956 1_455
O8 Zn0 2.067155 1_555
O8 Zn1 2.095508 1_445
O8 W1 2.109315 1_555
O9 Zn1 2.067155 1_555
O9 Zn0 2.095508 1_565
O9 W0 2.109315 1_556
O10 Zn3 2.067155 1_555
O10 Zn2 2.095508 1_545
O10 W0 2.109315 1_555
O11 Zn2 2.067155 1_555
O11 Zn3 2.095508 1_665
O11 W1 2.109315 1_655
