# generated using pymatgen
data_BaMg14Co
_symmetry_space_group_name_H-M   'P 1'
_cell_length_a   6.60280328
_cell_length_b   6.19470313
_cell_length_c   10.53158126
_cell_angle_alpha   90.00000000
_cell_angle_beta   90.00000000
_cell_angle_gamma   117.97566657
_symmetry_Int_Tables_number   1
_chemical_formula_structural   BaMg14Co
_chemical_formula_sum   'Ba1 Mg14 Co1'
_cell_volume   380.43055218
_cell_formula_units_Z   1
loop_
 _symmetry_equiv_pos_site_id
 _symmetry_equiv_pos_as_xyz
  1  'x, y, z'
loop_
 _atom_site_type_symbol
 _atom_site_label
 _atom_site_symmetry_multiplicity
 _atom_site_fract_x
 _atom_site_fract_y
 _atom_site_fract_z
 _atom_site_occupancy
  Ba  Ba0  1  0.11581658  0.80790779  0.12500000  1
  Mg  Mg0  1  0.15158511  0.32579206  0.62500000  1
  Mg  Mg1  1  0.17181037  0.83590469  0.62500000  1
  Mg  Mg2  1  0.60703171  0.31465880  0.12500000  1
  Mg  Mg3  1  0.65940212  0.32474604  0.62500000  1
  Mg  Mg4  1  0.60703171  0.79237191  0.12500000  1
  Mg  Mg5  1  0.65940212  0.83465507  0.62500000  1
  Mg  Mg6  1  0.34900923  0.18182196  0.38102940  1
  Mg  Mg7  1  0.34900923  0.18182196  0.86897060  1
  Mg  Mg8  1  0.34900923  0.66718827  0.38102940  1
  Mg  Mg9  1  0.34900923  0.66718827  0.86897060  1
  Mg  Mg10  1  0.87764998  0.18882549  0.33295238  1
  Mg  Mg11  1  0.87764998  0.18882549  0.91704762  1
  Mg  Mg12  1  0.83232057  0.66616079  0.40011143  1
  Mg  Mg13  1  0.83232057  0.66616079  0.84988857  1
  Co  Co0  1  0.21194227  0.35597063  0.12500000  1
loop_
_geom_bond_atom_site_label_1
_geom_bond_atom_site_label_2
_geom_bond_distance
_geom_bond_site_symmetry_2
Ba0 Co0 3.147663 1_565
Ba0 Co0 3.147663 1_555
Ba0 Mg2 3.289641 1_565
Ba0 Mg4 3.289641 1_555
Ba0 Mg2 3.315350 1_455
Ba0 Mg4 3.315350 1_455
Ba0 Mg12 3.335797 1_455
Ba0 Mg13 3.335797 1_454
Ba0 Mg9 3.414737 1_554
Ba0 Mg8 3.414737 1_555
Ba0 Mg7 3.414743 1_564
Ba0 Mg6 3.414743 1_565
Mg0 Mg1 3.099596 1_555
Mg0 Mg1 3.099596 1_545
Mg0 Mg6 3.191734 1_555
Mg0 Mg7 3.191734 1_555
Mg0 Mg8 3.191740 1_555
Mg0 Mg9 3.191740 1_555
Mg0 Mg5 3.246753 1_445
Mg0 Mg3 3.246753 1_455
Mg0 Mg5 3.356060 1_555
Mg0 Mg3 3.356060 1_555
Mg0 Mg11 3.465791 1_455
Mg0 Mg10 3.465791 1_455
Mg1 Mg13 3.086823 1_455
Mg1 Mg12 3.086823 1_455
Mg1 Mg8 3.195357 1_555
Mg1 Mg9 3.195357 1_555
Mg1 Mg6 3.195363 1_565
Mg1 Mg7 3.195363 1_565
Mg1 Mg3 3.223111 1_565
Mg1 Mg5 3.223111 1_555
Mg1 Mg3 3.379706 1_455
Mg1 Mg5 3.379707 1_455
Mg2 Mg7 3.087864 1_554
Mg2 Mg6 3.087864 1_555
Mg3 Mg5 3.035968 1_545
Mg3 Mg6 3.143818 1_555
Mg3 Mg7 3.143818 1_555
Mg3 Mg5 3.158735 1_555
Mg4 Mg9 3.087864 1_554
Mg4 Mg8 3.087864 1_555
Mg5 Mg8 3.143818 1_555
Mg5 Mg9 3.143818 1_555
Mg6 Mg8 3.006700 1_555
Mg6 Mg8 3.188003 1_545
Mg7 Mg9 3.006700 1_555
Mg7 Mg9 3.188003 1_545
Mg10 Mg8 3.173530 1_655
Mg10 Mg6 3.173530 1_655
Mg10 Mg12 3.188058 1_545
Mg10 Mg12 3.188058 1_555
Mg10 Mg8 3.507113 1_545
Mg10 Mg6 3.507113 1_555
Mg11 Mg9 3.173530 1_655
Mg11 Mg7 3.173530 1_655
Mg11 Mg13 3.188058 1_545
Mg11 Mg13 3.188058 1_555
Mg11 Mg9 3.507113 1_545
Mg11 Mg7 3.507113 1_555
Mg12 Mg5 3.020030 1_555
Mg12 Mg3 3.020037 1_555
Mg12 Mg6 3.200516 1_555
Mg12 Mg8 3.200516 1_555
Mg12 Mg6 3.414531 1_665
Mg12 Mg8 3.414531 1_655
Mg12 Mg4 3.508542 1_555
Mg12 Mg2 3.508547 1_555
Mg13 Mg5 3.020030 1_555
Mg13 Mg3 3.020037 1_555
Mg13 Mg7 3.200516 1_555
Mg13 Mg9 3.200516 1_555
Mg13 Mg7 3.414531 1_665
Mg13 Mg9 3.414531 1_655
Mg13 Mg4 3.508542 1_556
Mg13 Mg2 3.508547 1_556
Co0 Mg4 2.738090 1_555
Co0 Mg2 2.738090 1_555
Co0 Mg10 2.931949 1_455
Co0 Mg11 2.931949 1_454
Co0 Mg7 3.188953 1_554
Co0 Mg6 3.188953 1_555
Co0 Mg9 3.188959 1_554
Co0 Mg8 3.188959 1_555
