# generated using pymatgen
data_ZnS
_symmetry_space_group_name_H-M   'P 1'
_cell_length_a   13.25357291
_cell_length_b   13.08764495
_cell_length_c   14.12566130
_cell_angle_alpha   94.85717355
_cell_angle_beta   97.10879442
_cell_angle_gamma   87.70839161
_symmetry_Int_Tables_number   1
_chemical_formula_structural   ZnS
_chemical_formula_sum   'Zn50 S50'
_cell_volume   2421.56445532
_cell_formula_units_Z   50
loop_
 _symmetry_equiv_pos_site_id
 _symmetry_equiv_pos_as_xyz
  1  'x, y, z'
loop_
 _atom_site_type_symbol
 _atom_site_label
 _atom_site_symmetry_multiplicity
 _atom_site_fract_x
 _atom_site_fract_y
 _atom_site_fract_z
 _atom_site_occupancy
  Zn  Zn0  1  0.38080983  0.85502680  0.47432049  1
  Zn  Zn1  1  0.40280484  0.59073846  0.44791983  1
  Zn  Zn2  1  0.01447811  0.93982508  0.81187943  1
  Zn  Zn3  1  0.58944000  0.44194698  0.28193271  1
  Zn  Zn4  1  0.20978898  0.86084016  0.53613457  1
  Zn  Zn5  1  0.49587384  0.00531272  0.30418820  1
  Zn  Zn6  1  0.78706074  0.84400119  0.29992764  1
  Zn  Zn7  1  0.29588388  0.17983707  0.23587599  1
  Zn  Zn8  1  0.46807905  0.53966048  0.96382215  1
  Zn  Zn9  1  0.87974412  0.72382049  0.11912029  1
  Zn  Zn10  1  0.72518391  0.37166889  0.78925023  1
  Zn  Zn11  1  0.48486075  0.97961297  0.90633981  1
  Zn  Zn12  1  0.26107820  0.15465374  0.62407431  1
  Zn  Zn13  1  0.64162528  0.13682006  0.86032739  1
  Zn  Zn14  1  0.78438149  0.88969120  0.74900767  1
  Zn  Zn15  1  0.67070697  0.60798319  0.12074824  1
  Zn  Zn16  1  0.19071459  0.66540637  0.76134407  1
  Zn  Zn17  1  0.99963234  0.03022486  0.65824709  1
  Zn  Zn18  1  0.25320222  0.22456298  0.96068233  1
  Zn  Zn19  1  0.00755961  0.38222655  0.92386844  1
  Zn  Zn20  1  0.29026374  0.98145899  0.97447195  1
  Zn  Zn21  1  0.17324338  0.99633414  0.75148712  1
  Zn  Zn22  1  0.58436424  0.44593598  0.56088469  1
  Zn  Zn23  1  0.37937901  0.81492184  0.66050266  1
  Zn  Zn24  1  0.69136892  0.57913417  0.49145246  1
  Zn  Zn25  1  0.11506684  0.75905319  0.98744114  1
  Zn  Zn26  1  0.53125694  0.28636098  0.98242184  1
  Zn  Zn27  1  0.83905526  0.31130771  0.27785322  1
  Zn  Zn28  1  0.04071012  0.33866732  0.60151830  1
  Zn  Zn29  1  0.48320874  0.32311554  0.66463116  1
  Zn  Zn30  1  0.65042022  0.61733013  0.66079612  1
  Zn  Zn31  1  0.56960202  0.95320850  0.63415807  1
  Zn  Zn32  1  0.91872539  0.06725699  0.22577319  1
  Zn  Zn33  1  0.47282850  0.22961571  0.13919227  1
  Zn  Zn34  1  0.43190932  0.50648825  0.65725166  1
  Zn  Zn35  1  0.41020315  0.71578018  0.95578307  1
  Zn  Zn36  1  0.76806319  0.14294300  0.62518832  1
  Zn  Zn37  1  0.23810332  0.55623040  0.33400203  1
  Zn  Zn38  1  0.22166566  0.48264313  0.85412435  1
  Zn  Zn39  1  0.88779593  0.04393678  0.41731808  1
  Zn  Zn40  1  0.81898134  0.60896864  0.89121979  1
  Zn  Zn41  1  0.62039050  0.88928026  0.48136477  1
  Zn  Zn42  1  0.40083567  0.41358568  0.11511780  1
  Zn  Zn43  1  0.91605106  0.54356717  0.31671108  1
  Zn  Zn44  1  0.23724285  0.59783100  0.52194819  1
  Zn  Zn45  1  0.14429047  0.36490686  0.18393905  1
  Zn  Zn46  1  0.95844057  0.93635032  0.02800524  1
  Zn  Zn47  1  0.85676670  0.32813410  0.05347650  1
  Zn  Zn48  1  0.81816620  0.38674285  0.51375331  1
  Zn  Zn49  1  0.37327601  0.28521689  0.41421558  1
  S  S0  1  0.43167659  0.87807684  0.01725759  1
  S  S1  1  0.68423968  0.36663956  0.07314668  1
  S  S2  1  0.07360487  0.64195990  0.34735232  1
  S  S3  1  0.07722974  0.24743413  0.79237156  1
  S  S4  1  0.25713078  0.49736251  0.18066273  1
  S  S5  1  0.12592627  0.93189928  0.95546888  1
  S  S6  1  0.02818802  0.79573376  0.11570531  1
  S  S7  1  0.80024800  0.67183467  0.24716326  1
  S  S8  1  0.70746332  0.04949090  0.73781417  1
  S  S9  1  0.96015291  0.21352059  0.68109549  1
  S  S10  1  0.89791622  0.84007385  0.86984876  1
  S  S11  1  0.50748383  0.89239447  0.76239826  1
  S  S12  1  0.21281795  0.81901688  0.70284894  1
  S  S13  1  0.52291029  0.55560928  0.16820688  1
  S  S14  1  0.77977621  0.73774885  0.64860693  1
  S  S15  1  0.95056309  0.40280852  0.19548099  1
  S  S16  1  0.58247901  0.10545449  0.99662280  1
  S  S17  1  0.85542515  0.29882708  0.89059530  1
  S  S18  1  0.47227706  0.66534389  0.61119860  1
  S  S19  1  0.10835983  0.28580292  0.02737101  1
  S  S20  1  0.48604631  0.72464387  0.38866931  1
  S  S21  1  0.67888117  0.54257244  0.80247258  1
  S  S22  1  0.35292989  0.91187845  0.30426431  1
  S  S23  1  0.94115589  0.91819086  0.30930821  1
  S  S24  1  0.32516322  0.12643282  0.08609285  1
  S  S25  1  0.14605342  0.03141552  0.56703151  1
  S  S26  1  0.41303021  0.76730984  0.25626346  1
  S  S27  1  0.47379176  0.17879955  0.30244017  1
  S  S28  1  0.75707230  0.46969278  0.37089752  1
  S  S29  1  0.05611442  0.53316412  0.77774376  1
  S  S30  1  0.73985380  0.69805324  0.01076846  1
  S  S31  1  0.18462114  0.29804208  0.70900785  1
  S  S32  1  0.30126504  0.09115679  0.84057269  1
  S  S33  1  0.93202380  0.19166855  0.35895929  1
  S  S34  1  0.40165499  0.19924582  0.55951890  1
  S  S35  1  0.20391947  0.27953006  0.33050952  1
  S  S36  1  0.74639557  0.74956692  0.49973679  1
  S  S37  1  0.66130781  0.95696541  0.34365910  1
  S  S38  1  0.71768389  0.31145501  0.60942276  1
  S  S39  1  0.25845235  0.52353312  0.66914560  1
  S  S40  1  0.34591687  0.38624822  0.93911950  1
  S  S41  1  0.09829392  0.71098377  0.49001096  1
  S  S42  1  0.99326108  0.56288274  0.90970403  1
  S  S43  1  0.24080442  0.65880409  0.92685996  1
  S  S44  1  0.66743456  0.29501829  0.19687685  1
  S  S45  1  0.84698119  0.00180785  0.55774455  1
  S  S46  1  0.48384011  0.42755130  0.40873223  1
  S  S47  1  0.97011310  0.45758062  0.51561277  1
  S  S48  1  0.57134658  0.29349535  0.81560944  1
  S  S49  1  0.88413988  0.08848922  0.07244374  1
loop_
_geom_bond_atom_site_label_1
_geom_bond_atom_site_label_2
_geom_bond_distance
_geom_bond_site_symmetry_2
Zn35 Zn8 2.407414 1_555
S0 Zn35 2.240893 1_554
S0 Zn20 2.316031 1_554
S0 Zn11 2.327748 1_554
S1 S44 2.091272 1_555
S1 Zn47 2.366662 1_555
S1 Zn26 2.481228 1_554
S2 S41 2.129815 1_555
S2 Zn37 2.432691 1_555
S2 Zn43 2.470408 1_455
S3 S9 2.099689 1_455
S3 S31 2.115066 1_555
S3 Zn19 2.674752 1_555
S4 Zn37 2.277251 1_555
S4 Zn45 2.341358 1_555
S4 Zn42 2.405092 1_555
S5 Zn20 2.274970 1_555
S5 Zn25 2.357358 1_555
S5 Zn2 2.363975 1_555
S5 Zn46 2.554052 1_456
S6 Zn9 2.222185 1_455
S6 Zn25 2.272409 1_554
S6 Zn46 2.396381 1_455
S7 Zn6 2.319390 1_555
S7 Zn9 2.362571 1_555
S7 Zn43 2.416380 1_555
S7 Zn15 2.436790 1_555
S8 Zn13 2.240907 1_555
S8 Zn14 2.298657 1_545
S8 Zn36 2.322994 1_555
S8 Zn31 2.505952 1_545
S9 Zn28 2.415531 1_655
S9 Zn17 2.437831 1_555
S9 Zn36 2.743221 1_555
S10 Zn14 2.252439 1_555
S10 Zn2 2.327423 1_655
S10 Zn46 2.526414 1_556
S11 Zn11 2.292936 1_555
S11 Zn31 2.293123 1_555
S11 Zn23 2.295240 1_555
S12 Zn16 2.280041 1_555
S12 Zn23 2.354952 1_555
S12 Zn21 2.419602 1_555
S12 Zn4 2.457672 1_555
S13 Zn15 2.294886 1_555
S13 Zn3 2.349521 1_555
S13 Zn42 2.517771 1_555
S13 Zn8 2.880562 1_554
S14 S36 2.112140 1_555
S14 Zn14 2.340979 1_555
S14 Zn30 2.405779 1_555
S15 Zn47 2.381634 1_555
S15 Zn27 2.403162 1_555
S15 Zn43 2.475415 1_555
S15 Zn45 2.617856 1_655
S16 Zn13 2.241151 1_555
S16 Zn11 2.327905 1_545
S16 Zn26 2.454590 1_555
S17 Zn47 2.298284 1_556
S17 Zn19 2.309203 1_655
S17 Zn10 2.329322 1_555
S18 Zn34 2.331523 1_555
S18 Zn23 2.371047 1_555
S18 Zn30 2.450853 1_555
S18 Zn1 2.507121 1_555
S19 Zn19 2.282342 1_554
S19 Zn18 2.326293 1_554
S19 Zn45 2.362392 1_555
S20 S26 2.105247 1_555
S20 Zn1 2.370753 1_555
S20 Zn0 2.489718 1_555
S20 Zn41 2.963030 1_555
S21 Zn40 2.267794 1_555
S21 Zn30 2.284706 1_555
S21 Zn10 2.293965 1_555
S22 S26 2.114244 1_555
S22 Zn5 2.295761 1_565
S22 Zn0 2.553723 1_555
S23 Zn6 2.280611 1_555
S23 Zn39 2.298936 1_565
S23 Zn32 2.354462 1_565
S24 Zn7 2.246497 1_555
S24 Zn18 2.359324 1_554
S24 Zn20 2.383915 1_544
S24 Zn33 2.427538 1_555
S25 Zn12 2.290696 1_555
S25 Zn4 2.379753 1_545
S25 Zn17 2.459889 1_455
S25 Zn21 2.662058 1_545
S27 Zn5 2.279507 1_555
S27 Zn7 2.427943 1_555
S27 Zn33 2.451894 1_555
S27 Zn49 2.491438 1_555
S28 Zn24 2.358820 1_555
S28 Zn48 2.408844 1_555
S28 Zn3 2.437907 1_555
S28 Zn43 2.578306 1_555
S28 Zn27 2.629997 1_555
S29 S42 2.134351 1_455
S29 Zn38 2.415451 1_555
S29 Zn16 2.578495 1_555
S30 Zn9 2.270245 1_555
S30 Zn40 2.306082 1_554
S30 Zn15 2.322030 1_555
S31 Zn28 2.358997 1_555
S31 Zn12 2.399054 1_555
S32 Zn21 2.319062 1_545
S32 Zn18 2.451459 1_555
S32 Zn20 2.490935 1_545
S32 Zn11 2.881186 1_545
S33 Zn27 2.254467 1_555
S33 Zn39 2.289451 1_555
S33 Zn32 2.375679 1_555
S34 Zn12 2.289330 1_555
S34 Zn29 2.310050 1_555
S34 Zn49 2.405493 1_555
S35 Zn7 2.226126 1_555
S35 Zn49 2.404855 1_555
S35 Zn45 2.464925 1_555
S36 Zn24 2.363419 1_555
S36 Zn41 2.434887 1_555
S37 Zn5 2.272645 1_565
S37 Zn6 2.290914 1_555
S37 Zn41 2.335347 1_555
S38 Zn36 2.299551 1_555
S38 Zn48 2.312272 1_555
S38 Zn22 2.519084 1_555
S38 Zn10 2.586158 1_555
S39 Zn34 2.326217 1_555
S39 Zn44 2.350264 1_555
S39 Zn16 2.386706 1_555
S39 Zn38 2.815061 1_555
S40 Zn38 2.312125 1_555
S40 Zn42 2.502155 1_556
S40 Zn18 2.547596 1_555
S40 Zn8 2.603070 1_555
S40 Zn26 2.761134 1_555
S41 Zn44 2.340382 1_555
S41 Zn4 2.496350 1_555
S42 Zn40 2.352289 1_555
S42 Zn19 2.387689 1_655
S43 Zn25 2.284475 1_555
S43 Zn16 2.357963 1_555
S43 Zn35 2.370416 1_555
S43 Zn38 2.452870 1_555
S44 Zn27 2.425099 1_555
S44 Zn3 2.442745 1_555
S44 Zn33 2.754506 1_555
S45 Zn39 2.237410 1_555
S45 Zn36 2.282021 1_555
S45 Zn17 2.346670 1_555
S46 Zn22 2.383601 1_555
S46 Zn1 2.405157 1_555
S46 Zn49 2.427805 1_555
S46 Zn3 2.429225 1_555
S47 Zn28 2.166189 1_655
S47 Zn48 2.246741 1_555
S48 Zn13 2.322104 1_555
S48 Zn29 2.355906 1_555
S48 Zn10 2.400356 1_555
S48 Zn26 2.488866 1_555
S49 Zn32 2.196446 1_555
S49 Zn46 2.261181 1_545
