# generated using pymatgen
data_SrGa
_symmetry_space_group_name_H-M   'P 1'
_cell_length_a   12.59135400
_cell_length_b   12.59135400
_cell_length_c   12.59135400
_cell_angle_alpha   90.00000000
_cell_angle_beta   90.00000000
_cell_angle_gamma   90.00000000
_symmetry_Int_Tables_number   1
_chemical_formula_structural   SrGa
_chemical_formula_sum   'Sr32 Ga32'
_cell_volume   1996.26090815
_cell_formula_units_Z   32
loop_
 _symmetry_equiv_pos_site_id
 _symmetry_equiv_pos_as_xyz
  1  'x, y, z'
loop_
 _atom_site_type_symbol
 _atom_site_label
 _atom_site_symmetry_multiplicity
 _atom_site_fract_x
 _atom_site_fract_y
 _atom_site_fract_z
 _atom_site_occupancy
  Sr  Sr0  1  0.50785500  0.79834500  0.93989900  1
  Sr  Sr1  1  0.06010100  0.00785500  0.70165500  1
  Sr  Sr2  1  0.29834500  0.56010100  0.49214500  1
  Sr  Sr3  1  0.00785500  0.70165500  0.06010100  1
  Sr  Sr4  1  0.56010100  0.49214500  0.29834500  1
  Sr  Sr5  1  0.79834500  0.93989900  0.50785500  1
  Sr  Sr6  1  0.49214500  0.29834500  0.56010100  1
  Sr  Sr7  1  0.93989900  0.50785500  0.79834500  1
  Sr  Sr8  1  0.70165500  0.06010100  0.00785500  1
  Sr  Sr9  1  0.99214500  0.20165500  0.43989900  1
  Sr  Sr10  1  0.43989900  0.99214500  0.20165500  1
  Sr  Sr11  1  0.20165500  0.43989900  0.99214500  1
  Sr  Sr12  1  0.43651600  0.51957600  0.79123200  1
  Sr  Sr13  1  0.20876800  0.93651600  0.98042400  1
  Sr  Sr14  1  0.01957600  0.70876800  0.56348400  1
  Sr  Sr15  1  0.93651600  0.98042400  0.20876800  1
  Sr  Sr16  1  0.70876800  0.56348400  0.01957600  1
  Sr  Sr17  1  0.51957600  0.79123200  0.43651600  1
  Sr  Sr18  1  0.56348400  0.01957600  0.70876800  1
  Sr  Sr19  1  0.79123200  0.43651600  0.51957600  1
  Sr  Sr20  1  0.98042400  0.20876800  0.93651600  1
  Sr  Sr21  1  0.06348400  0.48042400  0.29123200  1
  Sr  Sr22  1  0.29123200  0.06348400  0.48042400  1
  Sr  Sr23  1  0.48042400  0.29123200  0.06348400  1
  Sr  Sr24  1  0.31347200  0.81347200  0.68652800  1
  Sr  Sr25  1  0.81347200  0.68652800  0.31347200  1
  Sr  Sr26  1  0.68652800  0.31347200  0.81347200  1
  Sr  Sr27  1  0.18652800  0.18652800  0.18652800  1
  Sr  Sr28  1  0.69421500  0.19421500  0.30578500  1
  Sr  Sr29  1  0.19421500  0.30578500  0.69421500  1
  Sr  Sr30  1  0.30578500  0.69421500  0.19421500  1
  Sr  Sr31  1  0.80578500  0.80578500  0.80578500  1
  Ga  Ga0  1  0.07364300  0.75324400  0.30989000  1
  Ga  Ga1  1  0.69011000  0.57364300  0.74675600  1
  Ga  Ga2  1  0.25324400  0.19011000  0.92635700  1
  Ga  Ga3  1  0.57364300  0.74675600  0.69011000  1
  Ga  Ga4  1  0.19011000  0.92635700  0.25324400  1
  Ga  Ga5  1  0.75324400  0.30989000  0.07364300  1
  Ga  Ga6  1  0.92635700  0.25324400  0.19011000  1
  Ga  Ga7  1  0.30989000  0.07364300  0.75324400  1
  Ga  Ga8  1  0.74675600  0.69011000  0.57364300  1
  Ga  Ga9  1  0.42635700  0.24675600  0.80989000  1
  Ga  Ga10  1  0.80989000  0.42635700  0.24675600  1
  Ga  Ga11  1  0.24675600  0.80989000  0.42635700  1
  Ga  Ga12  1  0.08112100  0.76335900  0.81817200  1
  Ga  Ga13  1  0.18182800  0.58112100  0.73664100  1
  Ga  Ga14  1  0.26335900  0.68182800  0.91887900  1
  Ga  Ga15  1  0.58112100  0.73664100  0.18182800  1
  Ga  Ga16  1  0.68182800  0.91887900  0.26335900  1
  Ga  Ga17  1  0.76335900  0.81817200  0.08112100  1
  Ga  Ga18  1  0.91887900  0.26335900  0.68182800  1
  Ga  Ga19  1  0.81817200  0.08112100  0.76335900  1
  Ga  Ga20  1  0.73664100  0.18182800  0.58112100  1
  Ga  Ga21  1  0.41887900  0.23664100  0.31817200  1
  Ga  Ga22  1  0.31817200  0.41887900  0.23664100  1
  Ga  Ga23  1  0.23664100  0.31817200  0.41887900  1
  Ga  Ga24  1  0.93406300  0.43406300  0.06593700  1
  Ga  Ga25  1  0.43406300  0.06593700  0.93406300  1
  Ga  Ga26  1  0.06593700  0.93406300  0.43406300  1
  Ga  Ga27  1  0.56593700  0.56593700  0.56593700  1
  Ga  Ga28  1  0.55258900  0.05258900  0.44741100  1
  Ga  Ga29  1  0.05258900  0.44741100  0.55258900  1
  Ga  Ga30  1  0.44741100  0.55258900  0.05258900  1
  Ga  Ga31  1  0.94741100  0.94741100  0.94741100  1
loop_
_geom_bond_atom_site_label_1
_geom_bond_atom_site_label_2
_geom_bond_distance
_geom_bond_site_symmetry_2
Ga0 Ga4 2.722222 1_555
Ga0 Ga11 2.722222 1_555
Ga0 Ga26 2.763618 1_555
Ga0 Sr14 3.312538 1_555
Ga0 Sr3 3.316669 1_555
Ga0 Sr30 3.349277 1_555
Ga0 Sr25 3.382198 1_455
Ga0 Sr21 3.445572 1_555
Ga0 Sr15 3.575595 1_455
Ga1 Ga3 2.722222 1_555
Ga1 Ga8 2.722222 1_555
Ga1 Ga27 2.763618 1_555
Ga1 Sr12 3.312538 1_555
Ga1 Sr7 3.316669 1_555
Ga1 Sr31 3.349277 1_555
Ga1 Sr26 3.382198 1_555
Ga1 Sr16 3.445572 1_556
Ga1 Sr19 3.575595 1_555
Ga2 Ga7 2.722222 1_555
Ga2 Ga9 2.722222 1_555
Ga2 Ga25 2.763618 1_555
Ga2 Sr13 3.312538 1_545
Ga2 Sr11 3.316669 1_555
Ga2 Sr29 3.349277 1_555
Ga2 Sr27 3.382198 1_556
Ga2 Sr20 3.445572 1_455
Ga2 Sr23 3.575595 1_556
Ga3 Ga8 2.722222 1_555
Ga3 Sr17 3.312538 1_555
Ga3 Sr0 3.316669 1_555
Ga3 Sr31 3.349277 1_555
Ga3 Sr24 3.382198 1_555
Ga3 Sr18 3.445572 1_565
Ga3 Sr12 3.575595 1_555
Ga4 Sr15 3.312538 1_455
Ga4 Sr10 3.316669 1_555
Ga4 Sr30 3.349277 1_555
Ga4 Sr27 3.382198 1_565
Ga4 Sr13 3.445572 1_554
Ga4 Sr22 3.575595 1_565
Ga5 Ga6 2.722222 1_555
Ga5 Sr16 3.312538 1_555
Ga5 Sr8 3.316669 1_555
Ga5 Sr28 3.349277 1_555
Ga5 Sr26 3.382198 1_554
Ga5 Sr23 3.445572 1_555
Ga5 Sr20 3.575595 1_554
Ga6 Sr20 3.312538 1_554
Ga6 Sr9 3.316669 1_555
Ga6 Sr28 3.349277 1_555
Ga6 Sr27 3.382198 1_655
Ga6 Sr15 3.445572 1_545
Ga6 Sr21 3.575595 1_655
Ga7 Ga9 2.722222 1_555
Ga7 Sr18 3.312538 1_555
Ga7 Sr1 3.316669 1_555
Ga7 Sr29 3.349277 1_555
Ga7 Sr24 3.382198 1_545
Ga7 Sr22 3.445572 1_555
Ga7 Sr13 3.575595 1_545
Ga8 Sr19 3.312538 1_555
Ga8 Sr5 3.316669 1_555
Ga8 Sr31 3.349277 1_555
Ga8 Sr25 3.382198 1_555
Ga8 Sr14 3.445572 1_655
Ga8 Sr17 3.575595 1_555
Ga9 Sr23 3.312538 1_556
Ga9 Sr6 3.316669 1_555
Ga9 Sr29 3.349277 1_555
Ga9 Sr26 3.382198 1_555
Ga9 Sr12 3.445572 1_555
Ga9 Sr18 3.575595 1_555
Ga10 Ga6 2.722222 1_555
Ga10 Ga5 2.722222 1_555
Ga10 Ga24 2.763618 1_555
Ga10 Sr21 3.312538 1_655
Ga10 Sr4 3.316669 1_555
Ga10 Sr28 3.349277 1_555
Ga10 Sr25 3.382198 1_555
Ga10 Sr19 3.445572 1_555
Ga10 Sr16 3.575595 1_555
Ga11 Ga4 2.722222 1_555
Ga11 Ga26 2.763618 1_555
Ga11 Sr22 3.312538 1_565
Ga11 Sr2 3.316669 1_555
Ga11 Sr30 3.349277 1_555
Ga11 Sr24 3.382198 1_555
Ga11 Sr17 3.445572 1_555
Ga11 Sr14 3.575595 1_555
Ga12 Ga13 2.815509 1_555
Ga12 Ga14 2.815509 1_555
Ga12 Sr3 3.276292 1_556
Ga12 Sr14 3.370015 1_555
Ga12 Sr13 3.392729 1_555
Ga12 Sr1 3.420502 1_565
Ga12 Sr24 3.421246 1_555
Ga12 Sr31 3.511234 1_455
Ga12 Sr7 3.684323 1_455
Ga13 Ga14 2.815509 1_555
Ga13 Sr7 3.276292 1_455
Ga13 Sr12 3.370015 1_555
Ga13 Sr14 3.392729 1_555
Ga13 Sr2 3.420502 1_555
Ga13 Sr24 3.421246 1_555
Ga13 Sr29 3.511234 1_555
Ga13 Sr11 3.684323 1_555
Ga14 Sr11 3.276292 1_555
Ga14 Sr13 3.370015 1_555
Ga14 Sr12 3.392729 1_555
Ga14 Sr0 3.420502 1_555
Ga14 Sr24 3.421246 1_555
Ga14 Sr30 3.511234 1_556
Ga14 Sr3 3.684323 1_556
Ga15 Ga16 2.815509 1_555
Ga15 Ga17 2.815509 1_555
Ga15 Sr0 3.276292 1_554
Ga15 Sr17 3.370015 1_555
Ga15 Sr16 3.392729 1_555
Ga15 Sr4 3.420502 1_555
Ga15 Sr25 3.421246 1_555
Ga15 Sr30 3.511234 1_555
Ga15 Sr10 3.684323 1_555
Ga16 Ga17 2.815509 1_555
Ga16 Sr10 3.276292 1_555
Ga16 Sr15 3.370015 1_555
Ga16 Sr17 3.392729 1_555
Ga16 Sr5 3.420502 1_555
Ga16 Sr25 3.421246 1_555
Ga16 Sr28 3.511234 1_565
Ga16 Sr8 3.684323 1_565
Ga17 Sr8 3.276292 1_565
Ga17 Sr16 3.370015 1_555
Ga17 Sr15 3.392729 1_555
Ga17 Sr3 3.420502 1_655
Ga17 Sr25 3.421246 1_555
Ga17 Sr31 3.511234 1_554
Ga17 Sr0 3.684323 1_554
Ga18 Ga19 2.815509 1_555
Ga18 Ga20 2.815509 1_555
Ga18 Sr9 3.276292 1_555
Ga18 Sr20 3.370015 1_555
Ga18 Sr19 3.392729 1_555
Ga18 Sr7 3.420502 1_555
Ga18 Sr26 3.421246 1_555
Ga18 Sr29 3.511234 1_655
Ga18 Sr1 3.684323 1_655
Ga19 Ga20 2.815509 1_555
Ga19 Sr1 3.276292 1_655
Ga19 Sr18 3.370015 1_555
Ga19 Sr20 3.392729 1_555
Ga19 Sr8 3.420502 1_556
Ga19 Sr26 3.421246 1_555
Ga19 Sr31 3.511234 1_545
Ga19 Sr5 3.684323 1_545
Ga20 Sr5 3.276292 1_545
Ga20 Sr19 3.370015 1_555
Ga20 Sr18 3.392729 1_555
Ga20 Sr6 3.420502 1_555
Ga20 Sr26 3.421246 1_555
Ga20 Sr28 3.511234 1_555
Ga20 Sr9 3.684323 1_555
Ga21 Ga22 2.815509 1_555
Ga21 Ga23 2.815509 1_555
Ga21 Sr6 3.276292 1_555
Ga21 Sr23 3.370015 1_555
Ga21 Sr22 3.392729 1_555
Ga21 Sr10 3.420502 1_545
Ga21 Sr27 3.421246 1_555
Ga21 Sr28 3.511234 1_555
Ga21 Sr4 3.684323 1_555
Ga22 Ga23 2.815509 1_555
Ga22 Sr4 3.276292 1_555
Ga22 Sr21 3.370015 1_555
Ga22 Sr23 3.392729 1_555
Ga22 Sr11 3.420502 1_554
Ga22 Sr27 3.421246 1_555
Ga22 Sr30 3.511234 1_555
Ga22 Sr2 3.684323 1_555
Ga23 Sr2 3.276292 1_555
Ga23 Sr22 3.370015 1_555
Ga23 Sr21 3.392729 1_555
Ga23 Sr9 3.420502 1_455
Ga23 Sr27 3.421246 1_555
Ga23 Sr29 3.511234 1_555
Ga23 Sr6 3.684323 1_555
Ga24 Ga5 2.763618 1_555
Ga24 Ga6 2.763618 1_555
Ga24 Sr20 3.323187 1_554
Ga24 Sr16 3.323187 1_555
Ga24 Sr21 3.323187 1_655
Ga24 Sr11 3.495882 1_654
Ga24 Sr7 3.495882 1_554
Ga24 Sr3 3.495882 1_655
Ga25 Ga7 2.763618 1_555
Ga25 Ga9 2.763618 1_555
Ga25 Sr13 3.323187 1_545
Ga25 Sr18 3.323187 1_555
Ga25 Sr23 3.323187 1_556
Ga25 Sr10 3.495882 1_546
Ga25 Sr8 3.495882 1_556
Ga25 Sr0 3.495882 1_545
Ga26 Ga4 2.763618 1_555
Ga26 Sr15 3.323187 1_455
Ga26 Sr14 3.323187 1_555
Ga26 Sr22 3.323187 1_565
Ga26 Sr9 3.495882 1_465
Ga26 Sr5 3.495882 1_455
Ga26 Sr1 3.495882 1_565
Ga27 Ga3 2.763618 1_555
Ga27 Ga8 2.763618 1_555
Ga27 Sr12 3.323187 1_555
Ga27 Sr19 3.323187 1_555
Ga27 Sr17 3.323187 1_555
Ga27 Sr2 3.495882 1_555
Ga27 Sr4 3.495882 1_555
Ga27 Sr6 3.495882 1_555
Ga28 Sr28 3.088702 1_555
Ga28 Sr17 3.319823 1_545
Ga28 Sr18 3.319823 1_555
Ga28 Sr22 3.319823 1_555
Ga28 Sr5 3.488249 1_545
Ga28 Sr10 3.488249 1_545
Ga28 Sr6 3.488249 1_555
Ga29 Sr29 3.088702 1_555
Ga29 Sr19 3.319823 1_455
Ga29 Sr14 3.319823 1_555
Ga29 Sr21 3.319823 1_555
Ga29 Sr7 3.488249 1_455
Ga29 Sr9 3.488249 1_455
Ga29 Sr2 3.488249 1_555
Ga30 Sr30 3.088702 1_555
Ga30 Sr16 3.319823 1_555
Ga30 Sr12 3.319823 1_554
Ga30 Sr23 3.319823 1_555
Ga30 Sr0 3.488249 1_554
Ga30 Sr11 3.488249 1_554
Ga30 Sr4 3.488249 1_555
Ga31 Sr31 3.088702 1_555
Ga31 Sr20 3.319823 1_565
Ga31 Sr13 3.319823 1_655
Ga31 Sr15 3.319823 1_556
Ga31 Sr1 3.488249 1_665
Ga31 Sr8 3.488249 1_566
Ga31 Sr3 3.488249 1_656
