# generated using pymatgen
data_Sm(MgBi)2
_symmetry_space_group_name_H-M   'P 1'
_cell_length_a   4.86968755
_cell_length_b   4.86968755
_cell_length_c   7.40570900
_cell_angle_alpha   90.00000000
_cell_angle_beta   90.00000000
_cell_angle_gamma   119.99999392
_symmetry_Int_Tables_number   1
_chemical_formula_structural   Sm(MgBi)2
_chemical_formula_sum   'Sm1 Mg2 Bi2'
_cell_volume   152.08959215
_cell_formula_units_Z   1
loop_
 _symmetry_equiv_pos_site_id
 _symmetry_equiv_pos_as_xyz
  1  'x, y, z'
loop_
 _atom_site_type_symbol
 _atom_site_label
 _atom_site_symmetry_multiplicity
 _atom_site_fract_x
 _atom_site_fract_y
 _atom_site_fract_z
 _atom_site_occupancy
  Sm  Sm0  1  0.00000000  0.00000000  0.00000000  1
  Mg  Mg0  1  0.66666700  0.33333300  0.64252200  1
  Mg  Mg1  1  0.33333300  0.66666700  0.35747800  1
  Bi  Bi0  1  0.66666700  0.33333300  0.24041600  1
  Bi  Bi1  1  0.33333300  0.66666700  0.75958400  1
loop_
_geom_bond_atom_site_label_1
_geom_bond_atom_site_label_2
_geom_bond_distance
_geom_bond_site_symmetry_2
Bi0 Mg1 2.942136 1_545
Bi0 Mg1 2.942136 1_655
Bi0 Mg1 2.942144 1_555
Bi0 Mg0 2.977880 1_555
Bi0 Sm0 3.327853 1_655
Bi0 Sm0 3.327857 1_555
Bi0 Sm0 3.327857 1_665
Bi1 Mg0 2.942136 1_455
Bi1 Mg0 2.942136 1_565
Bi1 Mg0 2.942144 1_555
Bi1 Mg1 2.977880 1_555
Bi1 Sm0 3.327853 1_566
Bi1 Sm0 3.327857 1_666
Bi1 Sm0 3.327857 1_556
