# generated using pymatgen
data_LiV2Zn2(SiO5)2
_symmetry_space_group_name_H-M   'P 1'
_cell_length_a   5.54065181
_cell_length_b   7.25222572
_cell_length_c   8.09460523
_cell_angle_alpha   89.60237908
_cell_angle_beta   40.91730364
_cell_angle_gamma   107.50582684
_symmetry_Int_Tables_number   1
_chemical_formula_structural   LiV2Zn2(SiO5)2
_chemical_formula_sum   'Li1 V2 Zn2 Si2 O10'
_cell_volume   188.34064843
_cell_formula_units_Z   1
loop_
 _symmetry_equiv_pos_site_id
 _symmetry_equiv_pos_as_xyz
  1  'x, y, z'
loop_
 _atom_site_type_symbol
 _atom_site_label
 _atom_site_symmetry_multiplicity
 _atom_site_fract_x
 _atom_site_fract_y
 _atom_site_fract_z
 _atom_site_occupancy
  Li  Li0  1  0.08025600  0.81109900  0.00123700  1
  V  V0  1  0.46697100  0.49814000  0.53087300  1
  V  V1  1  0.53346700  0.00688600  0.47477300  1
  Zn  Zn0  1  0.40796200  0.27788000  0.24533800  1
  Zn  Zn1  1  0.68570000  0.73490800  0.73240400  1
  Si  Si0  1  0.55433300  0.24892900  0.81847000  1
  Si  Si1  1  0.43492400  0.74817900  0.17756000  1
  O  O0  1  0.77045400  0.14430900  0.58254800  1
  O  O1  1  0.52192200  0.44322500  0.74514700  1
  O  O2  1  0.30837300  0.88810500  0.36773200  1
  O  O3  1  0.48158900  0.57321900  0.27167800  1
  O  O4  1  0.11409100  0.66059600  0.18601800  1
  O  O5  1  0.88887500  0.88430200  0.85382400  1
  O  O6  1  0.82452000  0.33512600  0.85275500  1
  O  O7  1  0.09187900  0.06394400  0.10978600  1
  O  O8  1  0.45675300  0.75985600  0.62657100  1
  O  O9  1  0.53223800  0.25034200  0.41754100  1
loop_
_geom_bond_atom_site_label_1
_geom_bond_atom_site_label_2
_geom_bond_distance
_geom_bond_site_symmetry_2
Li0 O4 1.996972 1_555
Li0 O7 2.043391 1_565
Li0 O3 2.074080 1_455
Li0 O8 2.146652 1_554
Li0 O5 2.252156 1_454
O0 Si0 1.663481 1_555
O0 Zn0 2.049166 1_655
O0 V1 2.105820 1_555
O1 Si0 1.634540 1_555
O1 Zn1 2.002371 1_555
O1 V0 2.030056 1_555
O2 Si1 1.646072 1_555
O2 V1 2.011318 1_565
O2 Zn1 2.026777 1_455
O3 Si1 1.654959 1_555
O3 V0 2.098993 1_555
O3 Zn0 2.100380 1_555
O4 Si1 1.644467 1_555
O4 V0 2.079101 1_455
O4 Zn1 2.274611 1_554
O5 Si1 1.636140 1_556
O5 Zn1 2.088119 1_555
O5 V1 2.109666 1_665
O6 Si0 1.666176 1_555
O6 Zn0 1.979489 1_556
O6 V0 2.065395 1_655
O7 Si0 1.637767 1_554
O7 V1 1.967374 1_455
O8 V1 1.903164 1_565
O8 Zn1 2.038146 1_555
O8 V0 2.055367 1_555
O9 V1 1.825555 1_555
O9 Zn0 1.996609 1_555
O9 V0 2.028386 1_555
