# generated using pymatgen
data_Eu2N
_symmetry_space_group_name_H-M   'P 1'
_cell_length_a   7.42679570
_cell_length_b   7.42693044
_cell_length_c   7.42704739
_cell_angle_alpha   119.99384729
_cell_angle_beta   119.99692135
_cell_angle_gamma   89.99861672
_symmetry_Int_Tables_number   1
_chemical_formula_structural   Eu2N
_chemical_formula_sum   'Eu8 N4'
_cell_volume   289.71958659
_cell_formula_units_Z   4
loop_
 _symmetry_equiv_pos_site_id
 _symmetry_equiv_pos_as_xyz
  1  'x, y, z'
loop_
 _atom_site_type_symbol
 _atom_site_label
 _atom_site_symmetry_multiplicity
 _atom_site_fract_x
 _atom_site_fract_y
 _atom_site_fract_z
 _atom_site_occupancy
  Eu  Eu0  1  0.36578348  0.63418949  0.73156117  1
  Eu  Eu1  1  0.36578702  0.09737045  0.73156656  1
  Eu  Eu2  1  0.34740055  0.11579448  0.23159552  1
  Eu  Eu3  1  0.88421298  0.65262955  0.76843344  1
  Eu  Eu4  1  0.88421652  0.11581051  0.76843883  1
  Eu  Eu5  1  0.88419603  0.11577184  0.23155152  1
  Eu  Eu6  1  0.90259945  0.63420552  0.26840448  1
  Eu  Eu7  1  0.36580397  0.63422816  0.26844848  1
  N  N0  1  0.12500000  0.37500000  0.25000000  1
  N  N1  1  0.12500000  0.87500000  0.25000000  1
  N  N2  1  0.12500000  0.87500000  0.75000000  1
  N  N3  1  0.62500000  0.87500000  0.75000000  1
loop_
_geom_bond_atom_site_label_1
_geom_bond_atom_site_label_2
_geom_bond_distance
_geom_bond_site_symmetry_2
Eu0 N2 2.532805 1_555
Eu0 N3 2.532842 1_555
Eu0 N0 2.533117 1_555
Eu1 N3 2.532738 1_545
Eu1 N2 2.532831 1_545
Eu1 N1 2.533109 1_545
Eu2 N0 2.532863 1_555
Eu2 N1 2.532869 1_545
Eu2 N2 2.533265 1_544
Eu3 N3 2.532738 1_555
Eu3 N2 2.532831 1_655
Eu3 N1 2.533109 1_656
Eu4 N2 2.532805 1_645
Eu4 N3 2.532842 1_545
Eu4 N0 2.533117 1_656
Eu5 N1 2.532705 1_645
Eu5 N0 2.532828 1_655
Eu5 N3 2.533060 1_544
Eu6 N0 2.532863 1_655
Eu6 N1 2.532869 1_655
Eu6 N2 2.533265 1_655
Eu7 N1 2.532705 1_555
Eu7 N0 2.532828 1_555
Eu7 N3 2.533060 1_555
