# generated using pymatgen
data_LiMg14SiO16
_symmetry_space_group_name_H-M   'P 1'
_cell_length_a   8.51102606
_cell_length_b   8.49466371
_cell_length_c   4.25524619
_cell_angle_alpha   90.00000000
_cell_angle_beta   90.00000000
_cell_angle_gamma   90.00000000
_symmetry_Int_Tables_number   1
_chemical_formula_structural   LiMg14SiO16
_chemical_formula_sum   'Li1 Mg14 Si1 O16'
_cell_volume   307.64708352
_cell_formula_units_Z   1
loop_
 _symmetry_equiv_pos_site_id
 _symmetry_equiv_pos_as_xyz
  1  'x, y, z'
loop_
 _atom_site_type_symbol
 _atom_site_label
 _atom_site_symmetry_multiplicity
 _atom_site_fract_x
 _atom_site_fract_y
 _atom_site_fract_z
 _atom_site_occupancy
  Li  Li0  1  -0.00000000  -0.00000000  -0.00000000  1
  Mg  Mg0  1  0.50000000  -0.00000000  -0.00000000  1
  Mg  Mg1  1  0.50000000  0.50000000  -0.00000000  1
  Mg  Mg2  1  -0.00000000  0.24142824  0.50000000  1
  Mg  Mg3  1  -0.00000000  0.75857176  0.50000000  1
  Mg  Mg4  1  0.50000000  0.24768156  0.50000000  1
  Mg  Mg5  1  0.50000000  0.75231844  0.50000000  1
  Mg  Mg6  1  0.24443833  -0.00000000  0.50000000  1
  Mg  Mg7  1  0.25084524  0.50000000  0.50000000  1
  Mg  Mg8  1  0.75556167  -0.00000000  0.50000000  1
  Mg  Mg9  1  0.74915476  0.50000000  0.50000000  1
  Mg  Mg10  1  0.24933283  0.24395040  0.00000000  1
  Mg  Mg11  1  0.24933283  0.75604960  0.00000000  1
  Mg  Mg12  1  0.75066717  0.24395040  -0.00000000  1
  Mg  Mg13  1  0.75066717  0.75604960  -0.00000000  1
  Si  Si0  1  -0.00000000  0.50000000  -0.00000000  1
  O  O0  1  0.25514227  -0.00000000  -0.00000000  1
  O  O1  1  0.24189058  0.50000000  -0.00000000  1
  O  O2  1  0.74485773  -0.00000000  -0.00000000  1
  O  O3  1  0.75810942  0.50000000  -0.00000000  1
  O  O4  1  0.24891714  0.25166724  0.50000000  1
  O  O5  1  0.24891714  0.74833276  0.50000000  1
  O  O6  1  0.75108286  0.25166724  0.50000000  1
  O  O7  1  0.75108286  0.74833276  0.50000000  1
  O  O8  1  -0.00000000  -0.00000000  0.50000000  1
  O  O9  1  -0.00000000  0.50000000  0.50000000  1
  O  O10  1  0.50000000  -0.00000000  0.50000000  1
  O  O11  1  0.50000000  0.50000000  0.50000000  1
  O  O12  1  -0.00000000  0.27385332  0.00000000  1
  O  O13  1  -0.00000000  0.72614668  -0.00000000  1
  O  O14  1  0.50000000  0.25371771  -0.00000000  1
  O  O15  1  0.50000000  0.74628229  0.00000000  1
loop_
_geom_bond_atom_site_label_1
_geom_bond_atom_site_label_2
_geom_bond_distance
_geom_bond_site_symmetry_2
Li0 O8 2.127623 1_554
Li0 O8 2.127623 1_555
Li0 O0 2.171523 1_555
Li0 O2 2.171523 1_455
Li0 O13 2.326292 1_545
Li0 O12 2.326292 1_555
Mg0 O2 2.083991 1_555
Mg0 O0 2.083991 1_555
Mg0 O10 2.127623 1_555
Mg0 O10 2.127623 1_554
Mg0 O14 2.155247 1_555
Mg0 O15 2.155247 1_545
Mg1 O14 2.092085 1_555
Mg1 O15 2.092085 1_555
Mg1 O11 2.127623 1_554
Mg1 O11 2.127623 1_555
Mg1 O3 2.196776 1_555
Mg1 O1 2.196776 1_555
Mg2 O8 2.050852 1_555
Mg2 O6 2.120325 1_455
Mg2 O4 2.120325 1_555
Mg2 O12 2.145378 1_555
Mg2 O12 2.145378 1_556
Mg2 O9 2.196480 1_555
Mg3 O8 2.050852 1_565
Mg3 O7 2.120325 1_455
Mg3 O5 2.120325 1_555
Mg3 O13 2.145378 1_555
Mg3 O13 2.145378 1_556
Mg3 O9 2.196480 1_555
Mg4 O10 2.103972 1_555
Mg4 O14 2.128241 1_556
Mg4 O14 2.128241 1_555
Mg4 O6 2.137241 1_555
Mg4 O4 2.137241 1_555
Mg4 O11 2.143360 1_555
Mg5 O10 2.103972 1_565
Mg5 O15 2.128241 1_556
Mg5 O15 2.128241 1_555
Mg5 O7 2.137241 1_555
Mg5 O5 2.137241 1_555
Mg5 O11 2.143360 1_555
Mg6 O8 2.080421 1_555
Mg6 O0 2.129573 1_555
Mg6 O0 2.129573 1_556
Mg6 O5 2.138168 1_545
Mg6 O4 2.138168 1_555
Mg6 O10 2.175092 1_555
Mg7 O4 2.109567 1_555
Mg7 O5 2.109567 1_555
Mg7 O11 2.120563 1_555
Mg7 O1 2.128988 1_555
Mg7 O1 2.128988 1_556
Mg7 O9 2.134950 1_555
Mg8 O8 2.080421 1_655
Mg8 O2 2.129573 1_556
Mg8 O2 2.129573 1_555
Mg8 O7 2.138168 1_545
Mg8 O6 2.138168 1_555
Mg8 O10 2.175092 1_555
Mg9 O6 2.109567 1_555
Mg9 O7 2.109567 1_555
Mg9 O11 2.120563 1_555
Mg9 O3 2.128988 1_556
Mg9 O3 2.128988 1_555
Mg9 O9 2.134950 1_655
Mg10 O0 2.072866 1_555
Mg10 O4 2.128636 1_554
Mg10 O4 2.128636 1_555
Mg10 O14 2.135048 1_555
Mg10 O12 2.137227 1_555
Mg10 O1 2.175977 1_555
Mg11 O0 2.072866 1_565
Mg11 O5 2.128636 1_555
Mg11 O5 2.128636 1_554
Mg11 O15 2.135048 1_555
Mg11 O13 2.137227 1_555
Mg11 O1 2.175977 1_555
Mg12 O2 2.072866 1_555
Mg12 O6 2.128636 1_555
Mg12 O6 2.128636 1_554
Mg12 O14 2.135048 1_555
Mg12 O12 2.137227 1_655
Mg12 O3 2.175977 1_555
Mg13 O2 2.072866 1_565
Mg13 O7 2.128636 1_555
Mg13 O7 2.128636 1_554
Mg13 O15 2.135048 1_555
Mg13 O13 2.137227 1_655
Mg13 O3 2.175977 1_555
O1 Si0 2.058737 1_555
O3 Si0 2.058737 1_655
O9 Si0 2.127623 1_555
O9 Si0 2.127623 1_556
O12 Si0 1.921040 1_555
O13 Si0 1.921040 1_555
