# generated using pymatgen
data_Ho3Co6Sn5
_symmetry_space_group_name_H-M   'P 1'
_cell_length_a   4.31946400
_cell_length_b   8.08400706
_cell_length_c   8.08400706
_cell_angle_alpha   72.65797000
_cell_angle_beta   74.50459625
_cell_angle_gamma   74.50459625
_symmetry_Int_Tables_number   1
_chemical_formula_structural   Ho3Co6Sn5
_chemical_formula_sum   'Ho3 Co6 Sn5'
_cell_volume   254.20297691
_cell_formula_units_Z   1
loop_
 _symmetry_equiv_pos_site_id
 _symmetry_equiv_pos_as_xyz
  1  'x, y, z'
loop_
 _atom_site_type_symbol
 _atom_site_label
 _atom_site_symmetry_multiplicity
 _atom_site_fract_x
 _atom_site_fract_y
 _atom_site_fract_z
 _atom_site_occupancy
  Ho  Ho0  1  0.00000000  0.00000000  0.00000000  1
  Ho  Ho1  1  0.68223100  0.31776900  0.31776900  1
  Ho  Ho2  1  0.31776900  0.68223100  0.68223100  1
  Co  Co0  1  0.50000000  0.30479500  0.69520500  1
  Co  Co1  1  0.50000000  0.69520500  0.30479500  1
  Co  Co2  1  0.89227500  0.83433700  0.38111300  1
  Co  Co3  1  0.10772500  0.16566300  0.61888700  1
  Co  Co4  1  0.89227500  0.38111300  0.83433700  1
  Co  Co5  1  0.10772500  0.61888700  0.16566300  1
  Sn  Sn0  1  0.67667000  0.98233500  0.66432400  1
  Sn  Sn1  1  0.32333000  0.01766500  0.33567600  1
  Sn  Sn2  1  0.67667000  0.66432400  0.98233500  1
  Sn  Sn3  1  0.32333000  0.33567600  0.01766500  1
  Sn  Sn4  1  0.00000000  0.50000000  0.50000000  1
loop_
_geom_bond_atom_site_label_1
_geom_bond_atom_site_label_2
_geom_bond_distance
_geom_bond_site_symmetry_2
Ho0 Sn1 3.420110 1_455
Ho0 Sn3 3.420110 1_455
Ho0 Sn2 3.420110 1_544
Ho0 Sn0 3.420110 1_544
Ho0 Sn3 3.420113 1_555
Ho0 Sn0 3.420113 1_444
Ho0 Sn2 3.420113 1_444
Ho0 Sn1 3.420113 1_555
Ho1 Sn4 3.111108 1_655
Ho1 Sn4 3.111108 1_555
Ho1 Sn3 3.160736 1_555
Ho1 Sn1 3.160736 1_555
Ho1 Sn3 3.160739 1_655
Ho1 Sn1 3.160739 1_655
Ho1 Sn0 3.266851 1_545
Ho1 Sn2 3.266851 1_554
Ho2 Sn4 3.111108 1_555
Ho2 Sn4 3.111108 1_655
Ho2 Sn2 3.160736 1_555
Ho2 Sn0 3.160736 1_555
Ho2 Sn2 3.160739 1_455
Ho2 Sn0 3.160739 1_455
Ho2 Sn3 3.266851 1_556
Ho2 Sn1 3.266851 1_565
Co0 Co3 2.550938 1_555
Co0 Co4 2.550938 1_455
Co0 Co4 2.550938 1_555
Co0 Co3 2.550938 1_655
Co0 Sn0 2.581310 1_545
Co0 Sn3 2.581310 1_556
Co0 Sn4 2.856627 1_555
Co0 Sn4 2.856627 1_655
Co0 Ho1 2.917263 1_555
Co0 Ho2 2.917263 1_555
Co1 Co5 2.550938 1_555
Co1 Co2 2.550938 1_455
Co1 Co2 2.550938 1_555
Co1 Co5 2.550938 1_655
Co1 Sn2 2.581310 1_554
Co1 Sn1 2.581310 1_565
Co1 Sn4 2.856627 1_555
Co1 Sn4 2.856627 1_655
Co1 Ho1 2.917263 1_555
Co1 Ho2 2.917263 1_555
Co2 Sn4 2.542369 1_655
Co2 Sn1 2.565645 1_565
Co2 Sn1 2.565649 1_665
Co2 Co5 2.647526 1_655
Co2 Sn0 2.727412 1_555
Co2 Ho0 2.934166 1_665
Co2 Ho2 3.195931 1_555
Co2 Ho2 3.195931 1_655
Co3 Sn4 2.542369 1_555
Co3 Sn0 2.565645 1_545
Co3 Sn0 2.565649 1_445
Co3 Co4 2.647526 1_455
Co3 Sn1 2.727412 1_555
Co3 Ho0 2.934166 1_556
Co3 Ho1 3.195931 1_455
Co3 Ho1 3.195931 1_555
Co4 Sn4 2.542369 1_655
Co4 Sn3 2.565645 1_556
Co4 Sn3 2.565649 1_656
Co4 Sn2 2.727412 1_555
Co4 Ho0 2.934166 1_656
Co4 Ho2 3.195931 1_555
Co4 Ho2 3.195931 1_655
Co5 Sn4 2.542369 1_555
Co5 Sn2 2.565645 1_554
Co5 Sn2 2.565649 1_454
Co5 Sn3 2.727412 1_555
Co5 Ho0 2.934166 1_565
Co5 Ho1 3.195931 1_455
Co5 Ho1 3.195931 1_555
Sn0 Sn2 3.045995 1_555
Sn1 Sn3 3.045995 1_555
