# generated using pymatgen
data_Ca2VWO6
_symmetry_space_group_name_H-M   'P 1'
_cell_length_a   5.57174108
_cell_length_b   7.94116753
_cell_length_c   5.61032747
_cell_angle_alpha   90.05342427
_cell_angle_beta   90.21941827
_cell_angle_gamma   89.76298083
_symmetry_Int_Tables_number   1
_chemical_formula_structural   Ca2VWO6
_chemical_formula_sum   'Ca4 V2 W2 O12'
_cell_volume   248.23122650
_cell_formula_units_Z   2
loop_
 _symmetry_equiv_pos_site_id
 _symmetry_equiv_pos_as_xyz
  1  'x, y, z'
loop_
 _atom_site_type_symbol
 _atom_site_label
 _atom_site_symmetry_multiplicity
 _atom_site_fract_x
 _atom_site_fract_y
 _atom_site_fract_z
 _atom_site_occupancy
  Ca  Ca0  1  0.99610800  0.74280900  0.48631300  1
  Ca  Ca1  1  0.49610800  0.24280600  0.98631300  1
  Ca  Ca2  1  0.47308600  0.76009500  0.01109100  1
  Ca  Ca3  1  0.97308900  0.26009200  0.51109200  1
  V  V0  1  0.98466400  0.50146500  0.99878200  1
  V  V1  1  0.48463900  0.00145600  0.49880600  1
  W  W0  1  0.98469700  0.00151800  0.99866700  1
  W  W1  1  0.48469700  0.50151900  0.49866800  1
  O  O0  1  0.43778200  0.74221900  0.43843300  1
  O  O1  1  0.93777800  0.24223200  0.93842900  1
  O  O2  1  0.03148200  0.76080300  0.05887600  1
  O  O3  1  0.53148000  0.26081700  0.55887200  1
  O  O4  1  0.16616000  0.04989000  0.28984600  1
  O  O5  1  0.66616100  0.54988600  0.78986000  1
  O  O6  1  0.30327800  0.45325200  0.20737600  1
  O  O7  1  0.80328600  0.95324700  0.70738400  1
  O  O8  1  0.78484100  0.49903200  0.31812500  1
  O  O9  1  0.28483400  0.99903200  0.81812700  1
  O  O10  1  0.68457200  0.00393800  0.17920200  1
  O  O11  1  0.18456100  0.50393900  0.67921000  1
loop_
_geom_bond_atom_site_label_1
_geom_bond_atom_site_label_2
_geom_bond_distance
_geom_bond_site_symmetry_2
Ca0 O7 2.340229 1_555
Ca0 O2 2.411318 1_655
Ca0 O11 2.418804 1_655
Ca0 O8 2.455714 1_555
Ca0 O0 2.476518 1_655
Ca1 O6 2.340271 1_556
Ca1 O3 2.411348 1_555
Ca1 O10 2.418798 1_556
Ca1 O9 2.455710 1_545
Ca1 O1 2.476498 1_555
Ca2 O5 2.340059 1_554
Ca2 O0 2.410698 1_555
Ca2 O9 2.418909 1_554
Ca2 O10 2.456551 1_565
Ca2 O2 2.476068 1_555
Ca3 O4 2.340054 1_655
Ca3 O1 2.410666 1_555
Ca3 O8 2.418925 1_555
Ca3 O11 2.456553 1_655
Ca3 O3 2.476093 1_555
O0 W1 1.957683 1_555
O0 V1 2.103181 1_565
O1 W0 1.957798 1_555
O1 V0 2.103153 1_555
O2 W0 1.957681 1_464
O2 V0 2.103690 1_454
O3 W1 1.957574 1_555
O3 V1 2.103860 1_555
O4 W0 1.956497 1_454
O4 V1 2.156467 1_555
O5 W1 1.956553 1_555
O5 V0 2.156443 1_555
O6 W1 1.956734 1_555
O6 V0 2.155668 1_454
O7 W0 1.956676 1_565
O7 V1 2.155765 1_565
O8 W1 1.958494 1_555
O8 V0 2.113141 1_554
O9 W0 1.958452 1_465
O9 V1 2.112982 1_565
O10 W0 1.958377 1_554
O10 V1 2.114716 1_555
O11 W1 1.958450 1_555
O11 V0 2.114456 1_455
