# generated using pymatgen
data_CaMgVO5
_symmetry_space_group_name_H-M   'P 1'
_cell_length_a   6.05694900
_cell_length_b   7.42925000
_cell_length_c   9.15937000
_cell_angle_alpha   90.00000000
_cell_angle_beta   90.00000000
_cell_angle_gamma   90.00000000
_symmetry_Int_Tables_number   1
_chemical_formula_structural   CaMgVO5
_chemical_formula_sum   'Ca4 Mg4 V4 O20'
_cell_volume   412.15872025
_cell_formula_units_Z   4
loop_
 _symmetry_equiv_pos_site_id
 _symmetry_equiv_pos_as_xyz
  1  'x, y, z'
loop_
 _atom_site_type_symbol
 _atom_site_label
 _atom_site_symmetry_multiplicity
 _atom_site_fract_x
 _atom_site_fract_y
 _atom_site_fract_z
 _atom_site_occupancy
  Ca  Ca0  1  0.47389500  0.12939700  0.33649800  1
  Ca  Ca1  1  0.02610500  0.87060300  0.83649800  1
  Ca  Ca2  1  0.52610500  0.62939700  0.16350200  1
  Ca  Ca3  1  0.97389500  0.37060300  0.66350200  1
  Mg  Mg0  1  0.25420600  0.25793700  0.99529300  1
  Mg  Mg1  1  0.24579400  0.74206300  0.49529300  1
  Mg  Mg2  1  0.74579400  0.75793700  0.50470700  1
  Mg  Mg3  1  0.75420600  0.24206300  0.00470700  1
  V  V0  1  0.01494000  0.38082000  0.31777100  1
  V  V1  1  0.48506000  0.61918000  0.81777100  1
  V  V2  1  0.98506000  0.88082000  0.18222900  1
  V  V3  1  0.51494000  0.11918000  0.68222900  1
  O  O0  1  0.01185000  0.06433800  0.05973200  1
  O  O1  1  0.48815000  0.93566200  0.55973200  1
  O  O2  1  0.98815000  0.56433800  0.44026800  1
  O  O3  1  0.51185000  0.43566200  0.94026800  1
  O  O4  1  0.49457800  0.11306400  0.08748800  1
  O  O5  1  0.00542200  0.88693600  0.58748800  1
  O  O6  1  0.50542200  0.61306400  0.41251200  1
  O  O7  1  0.99457800  0.38693600  0.91251200  1
  O  O8  1  0.26410300  0.15227500  0.77668400  1
  O  O9  1  0.23589700  0.84772500  0.27668400  1
  O  O10  1  0.73589700  0.65227500  0.72331600  1
  O  O11  1  0.76410300  0.34772500  0.22331600  1
  O  O12  1  0.07735800  0.20858900  0.43486600  1
  O  O13  1  0.42264200  0.79141100  0.93486600  1
  O  O14  1  0.92264200  0.70858900  0.06513400  1
  O  O15  1  0.57735800  0.29141100  0.56513400  1
  O  O16  1  0.24507600  0.39116700  0.20202300  1
  O  O17  1  0.25492400  0.60883300  0.70202300  1
  O  O18  1  0.75492400  0.89116700  0.29797700  1
  O  O19  1  0.74507600  0.10883300  0.79797700  1
loop_
_geom_bond_atom_site_label_1
_geom_bond_atom_site_label_2
_geom_bond_distance
_geom_bond_site_symmetry_2
Ca0 O4 2.287433 1_555
Ca0 O18 2.480794 1_545
Ca0 O15 2.495393 1_555
Ca0 O1 2.501956 1_545
Ca0 O9 2.599464 1_545
Ca0 O11 2.606798 1_555
Ca0 O12 2.631841 1_555
Ca0 O16 2.687009 1_555
Ca1 O5 2.287433 1_555
Ca1 O19 2.480794 1_465
Ca1 O14 2.495393 1_456
Ca1 O0 2.501956 1_566
Ca1 O8 2.599464 1_565
Ca1 O10 2.606798 1_455
Ca1 O13 2.631841 1_555
Ca1 O17 2.687009 1_555
Ca2 O6 2.287433 1_555
Ca2 O16 2.480794 1_555
Ca2 O13 2.495393 1_554
Ca2 O3 2.501956 1_554
Ca2 O11 2.599464 1_555
Ca2 O9 2.606798 1_555
Ca2 O14 2.631841 1_555
Ca2 O18 2.687009 1_555
Ca3 O7 2.287433 1_555
Ca3 O17 2.480794 1_655
Ca3 O12 2.495393 1_655
Ca3 O2 2.501956 1_555
Ca3 O10 2.599464 1_555
Ca3 O8 2.606798 1_655
Ca3 O15 2.631841 1_555
Ca3 O19 2.687009 1_555
Mg0 O7 1.991555 1_455
Mg0 O4 1.997803 1_556
Mg0 O3 2.105385 1_555
Mg0 O16 2.137327 1_556
Mg0 O0 2.138199 1_556
Mg0 O8 2.151532 1_555
Mg1 O6 1.991555 1_555
Mg1 O5 1.997803 1_555
Mg1 O2 2.105385 1_455
Mg1 O17 2.137327 1_555
Mg1 O1 2.138199 1_555
Mg1 O9 2.151532 1_555
Mg2 O5 1.991555 1_655
Mg2 O6 1.997803 1_555
Mg2 O1 2.105385 1_555
Mg2 O18 2.137327 1_555
Mg2 O2 2.138199 1_555
Mg2 O10 2.151532 1_555
Mg3 O4 1.991555 1_555
Mg3 O7 1.997803 1_554
Mg3 O0 2.105385 1_655
Mg3 O19 2.137327 1_554
Mg3 O3 2.138199 1_554
Mg3 O11 2.151532 1_555
O0 V2 1.773152 1_445
O1 V3 1.773152 1_565
O2 V0 1.773152 1_655
O3 V1 1.773152 1_555
O8 V3 1.765567 1_555
O9 V2 1.765567 1_455
O10 V1 1.765567 1_555
O11 V0 1.765567 1_655
O12 V0 1.711860 1_555
O13 V1 1.711860 1_555
O14 V2 1.711860 1_555
O15 V3 1.711860 1_555
O16 V0 1.752971 1_555
O17 V1 1.752971 1_555
O18 V2 1.752971 1_555
O19 V3 1.752971 1_555
