# generated using pymatgen
data_BaCaEuBiO6
_symmetry_space_group_name_H-M   'P 1'
_cell_length_a   6.02730175
_cell_length_b   6.13530116
_cell_length_c   8.62200596
_cell_angle_alpha   90.32065232
_cell_angle_beta   89.68640278
_cell_angle_gamma   89.91183803
_symmetry_Int_Tables_number   1
_chemical_formula_structural   BaCaEuBiO6
_chemical_formula_sum   'Ba2 Ca2 Eu2 Bi2 O12'
_cell_volume   318.82568231
_cell_formula_units_Z   2
loop_
 _symmetry_equiv_pos_site_id
 _symmetry_equiv_pos_as_xyz
  1  'x, y, z'
loop_
 _atom_site_type_symbol
 _atom_site_label
 _atom_site_symmetry_multiplicity
 _atom_site_fract_x
 _atom_site_fract_y
 _atom_site_fract_z
 _atom_site_occupancy
  Ba  Ba0  1  0.99393647  0.03942922  0.25066292  1
  Ba  Ba1  1  0.00606353  0.96057078  0.74933708  1
  Ca  Ca0  1  0.51102394  0.54732658  0.25195308  1
  Ca  Ca1  1  0.48897606  0.45267342  0.74804692  1
  Eu  Eu0  1  0.50000000  0.00000000  0.00000000  1
  Eu  Eu1  1  0.00000000  0.50000000  0.50000000  1
  Bi  Bi0  1  0.00000000  0.50000000  0.00000000  1
  Bi  Bi1  1  0.50000000  0.00000000  0.50000000  1
  O  O0  1  0.19920031  0.21872968  0.95415945  1
  O  O1  1  0.31462420  0.70817560  0.55841226  1
  O  O2  1  0.80079969  0.78127032  0.04584055  1
  O  O3  1  0.68537580  0.29182440  0.44158774  1
  O  O4  1  0.28886384  0.68934862  0.93562907  1
  O  O5  1  0.21679257  0.20360769  0.53920401  1
  O  O6  1  0.71113616  0.31065138  0.06437093  1
  O  O7  1  0.78320743  0.79639231  0.46079599  1
  O  O8  1  0.42729223  0.93646261  0.25953993  1
  O  O9  1  0.11950094  0.48949758  0.23831171  1
  O  O10  1  0.57270777  0.06353739  0.74046007  1
  O  O11  1  0.88049906  0.51050242  0.76168829  1
loop_
_geom_bond_atom_site_label_1
_geom_bond_atom_site_label_2
_geom_bond_distance
_geom_bond_site_symmetry_2
Ba0 O2 2.641846 1_545
Ba0 O7 2.670206 1_545
Ba0 O8 2.687929 1_645
Ba0 O9 2.866663 1_655
Ba0 O6 2.881920 1_555
Ba0 O3 2.914729 1_555
Ba0 O5 3.003452 1_655
Ba0 O0 3.045862 1_654
Ba1 O0 2.641846 1_565
Ba1 O5 2.670206 1_565
Ba1 O10 2.687929 1_465
Ba1 O11 2.866663 1_455
Ba1 O4 2.881920 1_555
Ba1 O1 2.914729 1_555
Ba1 O7 3.003452 1_455
Ba1 O2 3.045862 1_456
Ca0 O9 2.390324 1_555
Ca0 O8 2.439909 1_555
Ca0 O6 2.475081 1_555
Ca0 O3 2.505474 1_555
Ca0 O2 2.875936 1_555
Ca0 O7 2.877150 1_555
Ca0 O1 3.047928 1_555
Ca1 O11 2.390324 1_555
Ca1 O10 2.439909 1_555
Ca1 O4 2.475081 1_555
Ca1 O1 2.505474 1_555
Ca1 O0 2.875936 1_555
Ca1 O5 2.877150 1_555
Ca1 O3 3.047928 1_555
Eu0 O0 2.291376 1_554
Eu0 O2 2.291376 1_545
Eu0 O10 2.313246 1_554
Eu0 O8 2.313246 1_545
Eu0 O4 2.358698 1_544
Eu0 O6 2.358698 1_555
Eu1 O7 2.265577 1_455
Eu1 O5 2.265577 1_555
Eu1 O1 2.343444 1_555
Eu1 O3 2.343444 1_455
Eu1 O9 2.365200 1_555
Eu1 O11 2.365200 1_455
Bi0 O2 2.134598 1_455
Bi0 O0 2.134598 1_554
Bi0 O4 2.166054 1_554
Bi0 O6 2.166054 1_455
Bi0 O11 2.182286 1_454
Bi0 O9 2.182286 1_555
Bi1 O5 2.137968 1_555
Bi1 O7 2.137968 1_545
Bi1 O8 2.154946 1_545
Bi1 O10 2.154946 1_555
Bi1 O3 2.172043 1_555
Bi1 O1 2.172043 1_545
