# generated using pymatgen
data_ZnSn(PO3)4
_symmetry_space_group_name_H-M   'P 1'
_cell_length_a   7.59880691
_cell_length_b   7.59880691
_cell_length_c   10.99160787
_cell_angle_alpha   65.68353033
_cell_angle_beta   65.68353033
_cell_angle_gamma   70.25753883
_symmetry_Int_Tables_number   1
_chemical_formula_structural   ZnSn(PO3)4
_chemical_formula_sum   'Zn2 Sn2 P8 O24'
_cell_volume   516.13190777
_cell_formula_units_Z   2
loop_
 _symmetry_equiv_pos_site_id
 _symmetry_equiv_pos_as_xyz
  1  'x, y, z'
loop_
 _atom_site_type_symbol
 _atom_site_label
 _atom_site_symmetry_multiplicity
 _atom_site_fract_x
 _atom_site_fract_y
 _atom_site_fract_z
 _atom_site_occupancy
  Zn  Zn0  1  0.99282700  0.00717300  0.25000000  1
  Zn  Zn1  1  0.00717300  0.99282700  0.75000000  1
  Sn  Sn0  1  0.00000000  0.50000000  0.00000000  1
  Sn  Sn1  1  0.50000000  0.00000000  0.50000000  1
  P  P0  1  0.70354800  0.68433300  0.31696700  1
  P  P1  1  0.31566700  0.29645200  0.18303300  1
  P  P2  1  0.29645200  0.31566700  0.68303300  1
  P  P3  1  0.68433300  0.70354800  0.81696700  1
  P  P4  1  0.75526300  0.27158300  0.51354200  1
  P  P5  1  0.72841700  0.24473700  0.98645800  1
  P  P6  1  0.24473700  0.72841700  0.48645800  1
  P  P7  1  0.27158300  0.75526300  0.01354200  1
  O  O0  1  0.46711600  0.71071700  0.37619400  1
  O  O1  1  0.28928300  0.53288400  0.12380600  1
  O  O2  1  0.53288400  0.28928300  0.62380600  1
  O  O3  1  0.71071700  0.46711600  0.87619400  1
  O  O4  1  0.77694900  0.49849100  0.43777600  1
  O  O5  1  0.50150900  0.22305100  0.06222400  1
  O  O6  1  0.22305100  0.50150900  0.56222400  1
  O  O7  1  0.49849100  0.77694900  0.93777600  1
  O  O8  1  0.77361100  0.64679000  0.18039400  1
  O  O9  1  0.35321000  0.22638900  0.31960600  1
  O  O10  1  0.22638900  0.35321000  0.81960600  1
  O  O11  1  0.64679000  0.77361100  0.68039400  1
  O  O12  1  0.75640900  0.85804500  0.32028500  1
  O  O13  1  0.14195500  0.24359100  0.17971500  1
  O  O14  1  0.24359100  0.14195500  0.67971500  1
  O  O15  1  0.85804500  0.75640900  0.82028500  1
  O  O16  1  0.76236500  0.18557600  0.40883700  1
  O  O17  1  0.81442400  0.23763500  0.09116300  1
  O  O18  1  0.23763500  0.81442400  0.59116300  1
  O  O19  1  0.18557600  0.76236500  0.90883700  1
  O  O20  1  0.89668300  0.17471500  0.59468900  1
  O  O21  1  0.82528500  0.10331700  0.90531100  1
  O  O22  1  0.10331700  0.82528500  0.40531100  1
  O  O23  1  0.17471500  0.89668300  0.09468900  1
loop_
_geom_bond_atom_site_label_1
_geom_bond_atom_site_label_2
_geom_bond_distance
_geom_bond_site_symmetry_2
O0 P0 1.610186 1_555
O0 P6 1.623732 1_555
O1 P1 1.610186 1_555
O1 P7 1.623732 1_555
O2 P2 1.610186 1_555
O2 P4 1.623732 1_555
O3 P3 1.610186 1_555
O3 P5 1.623732 1_555
O4 P4 1.609361 1_555
O4 P0 1.613107 1_555
O5 P5 1.609361 1_554
O5 P1 1.613107 1_555
O6 P6 1.609361 1_555
O6 P2 1.613107 1_555
O7 P7 1.609361 1_556
O7 P3 1.613107 1_555
O8 P0 1.486671 1_555
O8 Sn0 2.418901 1_655
O9 P1 1.486671 1_555
O9 Sn1 2.418901 1_555
O10 P2 1.486671 1_555
O10 Sn0 2.418901 1_556
O11 P3 1.486671 1_555
O11 Sn1 2.418901 1_565
O12 P0 1.521515 1_555
O12 Zn0 2.149356 1_565
O12 Sn1 2.455020 1_565
O13 P1 1.521515 1_555
O13 Zn0 2.149356 1_455
O13 Sn0 2.455020 1_555
O14 P2 1.521515 1_555
O14 Zn1 2.149356 1_545
O14 Sn1 2.455020 1_555
O15 P3 1.521515 1_555
O15 Zn1 2.149356 1_655
O15 Sn0 2.455020 1_656
O16 P4 1.516252 1_555
O16 Zn0 2.404169 1_555
O16 Sn1 2.461240 1_555
O17 P5 1.516252 1_554
O17 Zn0 2.404169 1_555
O17 Sn0 2.461240 1_655
O18 P6 1.516252 1_555
O18 Zn1 2.404169 1_555
O18 Sn1 2.461240 1_565
O19 P7 1.516252 1_556
O19 Zn1 2.404169 1_555
O19 Sn0 2.461240 1_556
O20 P4 1.485417 1_555
O20 Zn1 1.995678 1_645
O21 P5 1.485417 1_555
O21 Zn1 1.995678 1_645
O22 P6 1.485417 1_555
O22 Zn0 1.995678 1_465
O23 P7 1.485417 1_555
O23 Zn0 1.995678 1_465
