# generated using pymatgen
data_Tl3Sb
_symmetry_space_group_name_H-M   'P 1'
_cell_length_a   4.94354825
_cell_length_b   4.94354825
_cell_length_c   4.94354825
_cell_angle_alpha   90.00000000
_cell_angle_beta   90.00000000
_cell_angle_gamma   90.00000000
_symmetry_Int_Tables_number   1
_chemical_formula_structural   Tl3Sb
_chemical_formula_sum   'Tl3 Sb1'
_cell_volume   120.81374085
_cell_formula_units_Z   1
loop_
 _symmetry_equiv_pos_site_id
 _symmetry_equiv_pos_as_xyz
  1  'x, y, z'
loop_
 _atom_site_type_symbol
 _atom_site_label
 _atom_site_symmetry_multiplicity
 _atom_site_fract_x
 _atom_site_fract_y
 _atom_site_fract_z
 _atom_site_occupancy
  Tl  Tl0  1  0.00000000  0.50000000  0.50000000  1
  Tl  Tl1  1  0.50000000  -0.00000000  0.50000000  1
  Tl  Tl2  1  0.50000000  0.50000000  0.00000000  1
  Sb  Sb0  1  0.00000000  -0.00000000  0.00000000  1
loop_
_geom_bond_atom_site_label_1
_geom_bond_atom_site_label_2
_geom_bond_distance
_geom_bond_site_symmetry_2
Tl0 Tl1 3.495616 1_455
Tl0 Tl2 3.495616 1_456
Tl0 Tl1 3.495616 1_555
Tl0 Tl1 3.495616 1_465
Tl0 Tl1 3.495616 1_565
Tl0 Tl2 3.495616 1_555
Tl0 Tl2 3.495616 1_455
Tl0 Tl2 3.495616 1_556
Tl1 Tl2 3.495616 1_546
Tl1 Tl2 3.495616 1_556
Tl1 Tl2 3.495616 1_555
Tl1 Tl2 3.495616 1_545
Sb0 Tl0 3.495616 1_555
Sb0 Tl0 3.495616 1_545
Sb0 Tl1 3.495616 1_455
Sb0 Tl0 3.495616 1_544
Sb0 Tl1 3.495616 1_555
Sb0 Tl1 3.495616 1_454
Sb0 Tl0 3.495616 1_554
Sb0 Tl2 3.495616 1_455
Sb0 Tl2 3.495616 1_555
Sb0 Tl2 3.495616 1_545
Sb0 Tl1 3.495616 1_554
Sb0 Tl2 3.495616 1_445
