# generated using pymatgen
data_Pu2Sn3
_symmetry_space_group_name_H-M   'P 1'
_cell_length_a   7.26790200
_cell_length_b   7.26790200
_cell_length_c   11.92623643
_cell_angle_alpha   107.74025108
_cell_angle_beta   107.74025108
_cell_angle_gamma   90.00000000
_symmetry_Int_Tables_number   1
_chemical_formula_structural   Pu2Sn3
_chemical_formula_sum   'Pu8 Sn12'
_cell_volume   568.48269223
_cell_formula_units_Z   4
loop_
 _symmetry_equiv_pos_site_id
 _symmetry_equiv_pos_as_xyz
  1  'x, y, z'
loop_
 _atom_site_type_symbol
 _atom_site_label
 _atom_site_symmetry_multiplicity
 _atom_site_fract_x
 _atom_site_fract_y
 _atom_site_fract_z
 _atom_site_occupancy
  Pu  Pu0  1  0.29594200  0.51667200  0.59188500  1
  Pu  Pu1  1  0.29594200  0.07521300  0.59188500  1
  Pu  Pu2  1  0.32521300  0.04594200  0.09188500  1
  Pu  Pu3  1  0.95405800  0.67478700  0.90811500  1
  Pu  Pu4  1  0.95405800  0.23332800  0.90811500  1
  Pu  Pu5  1  0.76667200  0.04594200  0.09188500  1
  Pu  Pu6  1  0.92478700  0.70405800  0.40811500  1
  Pu  Pu7  1  0.48332800  0.70405800  0.40811500  1
  Sn  Sn0  1  0.80106200  0.08056200  0.60212400  1
  Sn  Sn1  1  0.80106200  0.52156200  0.60212400  1
  Sn  Sn2  1  0.77156200  0.55106200  0.10212400  1
  Sn  Sn3  1  0.44893800  0.22843800  0.89787600  1
  Sn  Sn4  1  0.44893800  0.66943800  0.89787600  1
  Sn  Sn5  1  0.33056200  0.55106200  0.10212400  1
  Sn  Sn6  1  0.47843800  0.19893800  0.39787600  1
  Sn  Sn7  1  0.91943800  0.19893800  0.39787600  1
  Sn  Sn8  1  0.12500000  0.37500000  0.25000000  1
  Sn  Sn9  1  0.12500000  0.87500000  0.25000000  1
  Sn  Sn10  1  0.12500000  0.87500000  0.75000000  1
  Sn  Sn11  1  0.62500000  0.87500000  0.75000000  1
loop_
_geom_bond_atom_site_label_1
_geom_bond_atom_site_label_2
_geom_bond_distance
_geom_bond_site_symmetry_2
Pu0 Pu1 3.208481 1_555
Pu0 Sn10 3.211970 1_555
Pu0 Sn11 3.211974 1_555
Pu0 Sn4 3.293122 1_555
Pu0 Sn7 3.325601 1_455
Pu0 Sn6 3.325606 1_555
Pu0 Pu6 3.485827 1_455
Pu0 Pu7 3.485831 1_555
Pu0 Sn1 3.635618 1_455
Pu0 Sn1 3.635625 1_555
Pu0 Sn8 3.685563 1_555
Pu1 Sn10 3.211970 1_545
Pu1 Sn11 3.211974 1_545
Pu1 Sn3 3.293122 1_555
Pu1 Sn7 3.325601 1_455
Pu1 Sn6 3.325606 1_555
Pu1 Pu6 3.485822 1_445
Pu1 Pu7 3.485827 1_545
Pu1 Sn0 3.635618 1_455
Pu1 Sn0 3.635625 1_555
Pu1 Sn9 3.685563 1_545
Pu2 Pu5 3.208481 1_555
Pu2 Sn9 3.211970 1_545
Pu2 Sn8 3.211974 1_555
Pu2 Sn6 3.293122 1_555
Pu2 Sn4 3.325601 1_544
Pu2 Sn3 3.325606 1_554
Pu2 Pu3 3.485822 1_444
Pu2 Pu4 3.485827 1_454
Pu2 Sn5 3.635618 1_545
Pu2 Sn5 3.635625 1_555
Pu2 Sn10 3.685563 1_544
Pu3 Pu4 3.208481 1_555
Pu3 Sn10 3.211970 1_655
Pu3 Sn11 3.211974 1_555
Pu3 Sn1 3.293122 1_555
Pu3 Sn5 3.325601 1_656
Pu3 Sn2 3.325606 1_556
Pu3 Pu5 3.485827 1_566
Pu3 Sn4 3.635618 1_655
Pu3 Sn4 3.635625 1_555
Pu3 Sn9 3.685563 1_656
Pu4 Sn10 3.211970 1_645
Pu4 Sn11 3.211974 1_545
Pu4 Sn0 3.293122 1_555
Pu4 Sn5 3.325601 1_656
Pu4 Sn2 3.325606 1_556
Pu4 Pu5 3.485831 1_556
Pu4 Sn3 3.635618 1_655
Pu4 Sn3 3.635625 1_555
Pu4 Sn8 3.685563 1_656
Pu5 Sn9 3.211970 1_645
Pu5 Sn8 3.211974 1_655
Pu5 Sn7 3.293122 1_555
Pu5 Sn4 3.325601 1_544
Pu5 Sn3 3.325606 1_554
Pu5 Sn2 3.635618 1_545
Pu5 Sn2 3.635625 1_555
Pu5 Sn11 3.685563 1_544
Pu6 Pu7 3.208481 1_555
Pu6 Sn9 3.211970 1_655
Pu6 Sn8 3.211974 1_655
Pu6 Sn2 3.293122 1_555
Pu6 Sn0 3.325601 1_565
Pu6 Sn1 3.325606 1_555
Pu6 Sn7 3.635618 1_565
Pu6 Sn7 3.635625 1_555
Pu6 Sn10 3.685563 1_655
Pu7 Sn9 3.211970 1_555
Pu7 Sn8 3.211974 1_555
Pu7 Sn5 3.293122 1_555
Pu7 Sn0 3.325601 1_565
Pu7 Sn1 3.325606 1_555
Pu7 Sn6 3.635618 1_565
Pu7 Sn6 3.635625 1_555
Pu7 Sn11 3.685563 1_555
Sn0 Sn11 3.156051 1_545
Sn0 Sn10 3.156051 1_645
Sn0 Sn7 3.157266 1_555
Sn0 Sn6 3.157266 1_555
Sn0 Sn1 3.205145 1_555
Sn1 Sn10 3.156051 1_655
Sn1 Sn11 3.156051 1_555
Sn1 Sn7 3.157266 1_555
Sn1 Sn6 3.157266 1_555
Sn2 Sn8 3.156051 1_655
Sn2 Sn9 3.156051 1_655
Sn2 Sn4 3.157266 1_554
Sn2 Sn3 3.157266 1_554
Sn2 Sn5 3.205145 1_555
Sn3 Sn5 3.157266 1_556
Sn3 Sn4 3.205145 1_555
Sn4 Sn5 3.157266 1_556
Sn5 Sn9 3.156051 1_555
Sn5 Sn8 3.156051 1_555
Sn6 Sn8 3.156051 1_555
Sn6 Sn9 3.156051 1_545
Sn6 Sn7 3.205145 1_555
Sn7 Sn9 3.156051 1_645
Sn7 Sn8 3.156051 1_655
Sn10 Sn3 3.156051 1_565
Sn10 Sn4 3.156051 1_555
Sn11 Sn3 3.156051 1_565
Sn11 Sn4 3.156051 1_555
