# generated using pymatgen
data_NdLuS3
_symmetry_space_group_name_H-M   'P 1'
_cell_length_a   6.65305366
_cell_length_b   6.65305366
_cell_length_c   9.86643400
_cell_angle_alpha   90.00000000
_cell_angle_beta   90.00000000
_cell_angle_gamma   146.90491261
_symmetry_Int_Tables_number   1
_chemical_formula_structural   NdLuS3
_chemical_formula_sum   'Nd2 Lu2 S6'
_cell_volume   238.46183267
_cell_formula_units_Z   2
loop_
 _symmetry_equiv_pos_site_id
 _symmetry_equiv_pos_as_xyz
  1  'x, y, z'
loop_
 _atom_site_type_symbol
 _atom_site_label
 _atom_site_symmetry_multiplicity
 _atom_site_fract_x
 _atom_site_fract_y
 _atom_site_fract_z
 _atom_site_occupancy
  Nd  Nd0  1  0.00000000  0.00000000  0.00000000  1
  Nd  Nd1  1  0.00000000  0.00000000  0.50000000  1
  Lu  Lu0  1  0.24566700  0.75433300  0.25000000  1
  Lu  Lu1  1  0.75433300  0.24566700  0.75000000  1
  S  S0  1  0.89232000  0.10768000  0.25000000  1
  S  S1  1  0.10768000  0.89232000  0.75000000  1
  S  S2  1  0.64916200  0.35083800  0.08125800  1
  S  S3  1  0.35083800  0.64916200  0.58125800  1
  S  S4  1  0.64916200  0.35083800  0.41874200  1
  S  S5  1  0.35083800  0.64916200  0.91874200  1
loop_
_geom_bond_atom_site_label_1
_geom_bond_atom_site_label_2
_geom_bond_distance
_geom_bond_site_symmetry_2
Nd0 S5 2.802324 1_554
Nd0 S2 2.802324 1_555
Nd0 S2 2.802324 1_445
Nd0 S5 2.802324 1_444
Nd0 S1 2.823216 1_544
Nd0 S0 2.823216 1_455
Nd1 S3 2.802324 1_555
Nd1 S4 2.802324 1_555
Nd1 S4 2.802324 1_445
Nd1 S3 2.802324 1_445
Nd1 S1 2.823216 1_545
Nd1 S0 2.823216 1_455
Lu0 S0 2.662612 1_565
Lu0 S0 2.662612 1_455
Lu0 S2 2.806689 1_455
Lu0 S4 2.806689 1_565
Lu0 S2 2.806689 1_565
Lu0 S4 2.806689 1_455
Lu1 S1 2.662612 1_545
Lu1 S1 2.662612 1_655
Lu1 S5 2.806689 1_545
Lu1 S3 2.806689 1_545
Lu1 S3 2.806689 1_655
Lu1 S5 2.806689 1_655
