# generated using pymatgen
data_Li5Mn3O8
_symmetry_space_group_name_H-M   'P 1'
_cell_length_a   5.13560756
_cell_length_b   10.20333663
_cell_length_c   5.76916224
_cell_angle_alpha   106.51409936
_cell_angle_beta   90.00803517
_cell_angle_gamma   81.31452347
_symmetry_Int_Tables_number   1
_chemical_formula_structural   Li5Mn3O8
_chemical_formula_sum   'Li10 Mn6 O16'
_cell_volume   286.21997099
_cell_formula_units_Z   2
loop_
 _symmetry_equiv_pos_site_id
 _symmetry_equiv_pos_as_xyz
  1  'x, y, z'
loop_
 _atom_site_type_symbol
 _atom_site_label
 _atom_site_symmetry_multiplicity
 _atom_site_fract_x
 _atom_site_fract_y
 _atom_site_fract_z
 _atom_site_occupancy
  Li  Li0  1  0.24998800  0.24996300  0.62492800  1
  Li  Li1  1  0.24998100  0.24997200  0.12492100  1
  Li  Li2  1  0.74998600  0.75016200  0.87517800  1
  Li  Li3  1  0.75027600  0.74971400  0.37475100  1
  Li  Li4  1  0.74998100  0.24989500  0.37500000  1
  Li  Li5  1  0.74994000  0.25006500  0.87487800  1
  Li  Li6  1  0.00286600  0.48827300  0.49120400  1
  Li  Li7  1  0.00295200  0.48861300  0.99144200  1
  Li  Li8  1  0.49708000  0.01142800  0.25847800  1
  Li  Li9  1  0.49706300  0.01164400  0.75862500  1
  Mn  Mn0  1  0.25005900  0.75006400  0.62513200  1
  Mn  Mn1  1  0.25009800  0.75008600  0.12510900  1
  Mn  Mn2  1  0.97165300  0.00970600  0.00709700  1
  Mn  Mn3  1  0.97173400  0.00959300  0.50751300  1
  Mn  Mn4  1  0.52824200  0.49039600  0.74254000  1
  Mn  Mn5  1  0.52824900  0.49034500  0.24293300  1
  O  O0  1  0.10821300  0.10985500  0.30783100  1
  O  O1  1  0.10817200  0.11008800  0.80798000  1
  O  O2  1  0.39168200  0.38993000  0.44205800  1
  O  O3  1  0.39162900  0.39011600  0.94222600  1
  O  O4  1  0.85094100  0.38427100  0.18911700  1
  O  O5  1  0.85090600  0.38452800  0.68972200  1
  O  O6  1  0.64906500  0.11543300  0.56022200  1
  O  O7  1  0.64899000  0.11566300  0.06072800  1
  O  O8  1  0.62971500  0.61016000  0.55310000  1
  O  O9  1  0.62871600  0.61054300  0.05309800  1
  O  O10  1  0.87035500  0.88978000  0.69695300  1
  O  O11  1  0.87131800  0.88946500  0.19689900  1
  O  O12  1  0.33780600  0.87087400  0.43681300  1
  O  O13  1  0.33782100  0.87087600  0.93707900  1
  O  O14  1  0.16220600  0.62926400  0.81353400  1
  O  O15  1  0.16231800  0.62923700  0.31290900  1
loop_
_geom_bond_atom_site_label_1
_geom_bond_atom_site_label_2
_geom_bond_distance
_geom_bond_site_symmetry_2
Li0 O0 2.178915 1_555
Li0 O3 2.179589 1_555
Li0 O2 2.202898 1_555
Li0 O1 2.203080 1_555
Li0 O6 2.254604 1_555
Li0 O5 2.254773 1_455
Li1 O1 2.177334 1_554
Li1 O2 2.178185 1_555
Li1 O3 2.203635 1_554
Li1 O0 2.204491 1_555
Li1 O7 2.253386 1_555
Li1 O4 2.253472 1_455
Li2 O10 2.137196 1_555
Li2 O9 2.137834 1_556
Li2 O11 2.149621 1_556
Li2 O8 2.152180 1_555
Li2 O13 2.255620 1_555
Li2 O14 2.256533 1_655
Li3 O8 2.137507 1_555
Li3 O11 2.138254 1_555
Li3 O9 2.149193 1_555
Li3 O10 2.152583 1_555
Li3 O15 2.254210 1_655
Li3 O12 2.258601 1_555
Li4 O7 2.057833 1_555
Li4 O5 2.061365 1_555
Li4 O6 2.083527 1_555
Li4 O4 2.085539 1_555
Li4 O0 2.113757 1_655
Li4 O2 2.114002 1_555
Li5 O4 2.057599 1_556
Li5 O6 2.061007 1_555
Li5 O5 2.083358 1_555
Li5 O7 2.085610 1_556
Li5 O1 2.113454 1_655
Li5 O3 2.114115 1_555
Li6 O4 1.992596 1_455
Li6 O5 1.995041 1_455
Li6 O2 2.075516 1_555
Li6 O8 2.091539 1_455
Li6 O15 2.234807 1_555
Li6 O14 2.243087 1_555
Li7 O5 1.991650 1_455
Li7 O4 1.996235 1_456
Li7 O3 2.075352 1_555
Li7 O9 2.096323 1_456
Li7 O14 2.230249 1_555
Li7 O15 2.238204 1_556
Li8 O6 1.991321 1_555
Li8 O7 1.995480 1_555
Li8 O0 2.076005 1_555
Li8 O11 2.096468 1_545
Li8 O12 2.231061 1_545
Li8 O13 2.237358 1_544
Li9 O7 1.992727 1_556
Li9 O6 1.995000 1_555
Li9 O1 2.076166 1_555
Li9 O10 2.092040 1_545
Li9 O13 2.233238 1_545
Li9 O12 2.239918 1_545
Mn0 O12 1.957587 1_555
Mn0 O14 1.958032 1_555
Mn0 O13 1.966688 1_555
Mn0 O15 1.967889 1_555
Mn0 O10 2.198026 1_455
Mn0 O8 2.198722 1_555
Mn1 O15 1.955773 1_555
Mn1 O13 1.956155 1_554
Mn1 O14 1.965365 1_554
Mn1 O12 1.965468 1_555
Mn1 O11 2.192695 1_455
Mn1 O9 2.192816 1_555
Mn2 O7 1.810894 1_555
Mn2 O1 1.935508 1_654
Mn2 O0 1.937628 1_655
Mn2 O10 1.979074 1_544
Mn2 O11 1.981045 1_545
Mn2 O13 2.139250 1_644
Mn3 O6 1.810430 1_555
Mn3 O0 1.936923 1_655
Mn3 O1 1.937364 1_655
Mn3 O10 1.977868 1_545
Mn3 O11 1.980268 1_545
Mn3 O12 2.138334 1_645
Mn4 O5 1.810525 1_555
Mn4 O3 1.937383 1_555
Mn4 O2 1.937608 1_555
Mn4 O8 1.977633 1_555
Mn4 O9 1.980216 1_556
Mn4 O14 2.138917 1_555
Mn5 O4 1.811508 1_555
Mn5 O2 1.935905 1_555
Mn5 O3 1.937916 1_554
Mn5 O8 1.979024 1_555
Mn5 O9 1.981066 1_555
Mn5 O15 2.138603 1_555
