# generated using pymatgen
data_Mg(CuO2)2
_symmetry_space_group_name_H-M   'P 1'
_cell_length_a   5.97178256
_cell_length_b   5.97178256
_cell_length_c   5.97178256
_cell_angle_alpha   121.63327416
_cell_angle_beta   121.63327416
_cell_angle_gamma   87.19362478
_symmetry_Int_Tables_number   1
_chemical_formula_structural   Mg(CuO2)2
_chemical_formula_sum   'Mg2 Cu4 O8'
_cell_volume   146.68137792
_cell_formula_units_Z   2
loop_
 _symmetry_equiv_pos_site_id
 _symmetry_equiv_pos_as_xyz
  1  'x, y, z'
loop_
 _atom_site_type_symbol
 _atom_site_label
 _atom_site_symmetry_multiplicity
 _atom_site_fract_x
 _atom_site_fract_y
 _atom_site_fract_z
 _atom_site_occupancy
  Mg  Mg0  1  0.25000000  0.75000000  0.50000000  1
  Mg  Mg1  1  0.50000000  0.50000000  0.00000000  1
  Cu  Cu0  1  0.87500000  0.12500000  0.25000000  1
  Cu  Cu1  1  0.87500000  0.62500000  0.75000000  1
  Cu  Cu2  1  0.87500000  0.12500000  0.75000000  1
  Cu  Cu3  1  0.37500000  0.12500000  0.25000000  1
  O  O0  1  0.76782000  0.89835300  0.32783200  1
  O  O1  1  0.56001300  0.23218000  0.13053300  1
  O  O2  1  0.10164700  0.42947900  0.86946700  1
  O  O3  1  0.17947900  0.81001300  0.82783200  1
  O  O4  1  0.64835300  0.82052100  0.63053300  1
  O  O5  1  0.18998700  0.01782000  0.36946700  1
  O  O6  1  0.57052100  0.43998700  0.67216800  1
  O  O7  1  0.98218000  0.35164700  0.17216800  1
loop_
_geom_bond_atom_site_label_1
_geom_bond_atom_site_label_2
_geom_bond_distance
_geom_bond_site_symmetry_2
Mg0 O3 2.062191 1_555
Mg0 O5 2.062193 1_565
Mg0 O4 2.062193 1_555
Mg0 O7 2.062193 1_455
Mg1 O6 2.062191 1_554
Mg1 O1 2.062193 1_555
Mg1 O0 2.062193 1_555
Mg1 O2 2.062193 1_554
Cu0 O5 1.846713 1_655
Cu0 O1 1.846713 1_555
Cu0 O7 1.874678 1_555
Cu0 O0 1.874678 1_545
Cu1 O4 1.846718 1_555
Cu1 O2 1.846718 1_655
Cu1 O3 1.874681 1_655
Cu1 O6 1.874681 1_555
Cu2 O0 1.846718 1_545
Cu2 O7 1.846718 1_556
Cu2 O4 1.874678 1_545
Cu2 O2 1.874678 1_655
Cu3 O6 1.846716 1_555
Cu3 O3 1.846716 1_544
Cu3 O5 1.874683 1_555
Cu3 O1 1.874683 1_555
