# generated using pymatgen
data_Mg14AlNi
_symmetry_space_group_name_H-M   'P 1'
_cell_length_a   6.21870677
_cell_length_b   6.22104195
_cell_length_c   9.98798718
_cell_angle_alpha   90.00000000
_cell_angle_beta   90.00000000
_cell_angle_gamma   120.01242759
_symmetry_Int_Tables_number   1
_chemical_formula_structural   Mg14AlNi
_chemical_formula_sum   'Mg14 Al1 Ni1'
_cell_volume   334.59343606
_cell_formula_units_Z   1
loop_
 _symmetry_equiv_pos_site_id
 _symmetry_equiv_pos_as_xyz
  1  'x, y, z'
loop_
 _atom_site_type_symbol
 _atom_site_label
 _atom_site_symmetry_multiplicity
 _atom_site_fract_x
 _atom_site_fract_y
 _atom_site_fract_z
 _atom_site_occupancy
  Mg  Mg0  1  0.16939253  0.33469577  0.62500000  1
  Mg  Mg1  1  0.16731314  0.83365607  0.62500000  1
  Mg  Mg2  1  0.67437158  0.33542629  0.12500000  1
  Mg  Mg3  1  0.66551310  0.33421830  0.62500000  1
  Mg  Mg4  1  0.67437158  0.83894429  0.12500000  1
  Mg  Mg5  1  0.66551310  0.83129380  0.62500000  1
  Mg  Mg6  1  0.32566551  0.15781346  0.35677275  1
  Mg  Mg7  1  0.32566551  0.15781346  0.89322725  1
  Mg  Mg8  1  0.32566551  0.66785305  0.35677275  1
  Mg  Mg9  1  0.32566551  0.66785305  0.89322725  1
  Mg  Mg10  1  0.83701639  0.16850870  0.37412044  1
  Mg  Mg11  1  0.83701639  0.16850870  0.87587956  1
  Mg  Mg12  1  0.84365601  0.67182850  0.36460374  1
  Mg  Mg13  1  0.84365601  0.67182850  0.88539626  1
  Al  Al0  1  0.15708005  0.32853952  0.12500000  1
  Ni  Ni0  1  0.16243808  0.83121854  0.12500000  1
loop_
_geom_bond_atom_site_label_1
_geom_bond_atom_site_label_2
_geom_bond_distance
_geom_bond_site_symmetry_2
Mg0 Mg10 3.079343 1_455
Mg0 Mg11 3.079343 1_455
Mg0 Mg5 3.086715 1_555
Mg0 Mg3 3.086715 1_555
Mg0 Mg1 3.110541 1_555
Mg0 Mg1 3.110541 1_545
Mg0 Mg5 3.131994 1_445
Mg0 Mg3 3.131994 1_455
Mg0 Mg7 3.225272 1_555
Mg0 Mg6 3.225272 1_555
Mg0 Mg9 3.225278 1_555
Mg0 Mg8 3.225278 1_555
Mg1 Mg3 3.105536 1_565
Mg1 Mg5 3.105536 1_555
Mg1 Mg3 3.113222 1_455
Mg1 Mg5 3.113223 1_455
Mg1 Mg12 3.130797 1_455
Mg1 Mg13 3.130797 1_455
Mg1 Mg8 3.197980 1_555
Mg1 Mg9 3.197980 1_555
Mg1 Mg6 3.197986 1_565
Mg1 Mg7 3.197986 1_565
Mg2 Mg7 2.980820 1_554
Mg2 Mg6 2.980820 1_555
Mg2 Ni0 3.059465 1_655
Mg2 Mg4 3.088635 1_545
Mg2 Mg4 3.132407 1_555
Mg2 Ni0 3.159798 1_545
Mg3 Mg5 3.092328 1_555
Mg3 Mg5 3.128714 1_545
Mg3 Mg6 3.244685 1_555
Mg3 Mg7 3.244685 1_555
Mg4 Mg9 2.980820 1_554
Mg4 Mg8 2.980820 1_555
Mg4 Ni0 3.059466 1_655
Mg4 Ni0 3.159798 1_555
Mg5 Mg8 3.244685 1_555
Mg5 Mg9 3.244685 1_555
Mg6 Ni0 2.907615 1_545
Mg7 Ni0 2.907615 1_546
Mg8 Ni0 2.907609 1_555
Mg9 Ni0 2.907609 1_556
Mg10 Mg2 3.056659 1_555
Mg10 Mg4 3.056665 1_545
Mg10 Mg8 3.077467 1_655
Mg10 Mg6 3.077468 1_655
Mg10 Mg3 3.095002 1_555
Mg10 Mg5 3.095008 1_545
Mg10 Mg12 3.112178 1_555
Mg10 Mg12 3.112178 1_545
Mg10 Mg8 3.151954 1_545
Mg10 Mg6 3.151954 1_555
Mg11 Mg2 3.056659 1_556
Mg11 Mg4 3.056665 1_546
Mg11 Mg9 3.077467 1_655
Mg11 Mg7 3.077468 1_655
Mg11 Mg3 3.095002 1_555
Mg11 Mg5 3.095008 1_545
Mg11 Mg13 3.112178 1_555
Mg11 Mg13 3.112178 1_545
Mg11 Mg9 3.151954 1_545
Mg11 Mg7 3.151954 1_555
Mg12 Ni0 2.945155 1_655
Mg12 Mg4 3.001859 1_555
Mg12 Mg2 3.001865 1_555
Mg12 Mg5 3.174139 1_555
Mg12 Mg3 3.174145 1_555
Mg13 Ni0 2.945155 1_656
Mg13 Mg4 3.001859 1_556
Mg13 Mg2 3.001865 1_556
Mg13 Mg5 3.174139 1_555
Mg13 Mg3 3.174145 1_555
Al0 Mg7 2.949579 1_554
Al0 Mg6 2.949579 1_555
Al0 Mg8 2.949585 1_555
Al0 Mg9 2.949585 1_554
Al0 Mg4 3.023479 1_445
Al0 Mg2 3.023480 1_455
Al0 Mg10 3.026825 1_455
Al0 Mg11 3.026825 1_454
Al0 Ni0 3.110655 1_545
Al0 Ni0 3.110655 1_555
Al0 Mg4 3.195670 1_555
Al0 Mg2 3.195670 1_555
