# generated using pymatgen
data_Mg9Si5
_symmetry_space_group_name_H-M   'P 1'
_cell_length_a   5.04674700
_cell_length_b   7.87920368
_cell_length_c   14.12021403
_cell_angle_alpha   83.67996149
_cell_angle_beta   80.27247181
_cell_angle_gamma   80.75378260
_symmetry_Int_Tables_number   1
_chemical_formula_structural   Mg9Si5
_chemical_formula_sum   'Mg18 Si10'
_cell_volume   544.22940597
_cell_formula_units_Z   2
loop_
 _symmetry_equiv_pos_site_id
 _symmetry_equiv_pos_as_xyz
  1  'x, y, z'
loop_
 _atom_site_type_symbol
 _atom_site_label
 _atom_site_symmetry_multiplicity
 _atom_site_fract_x
 _atom_site_fract_y
 _atom_site_fract_z
 _atom_site_occupancy
  Mg  Mg0  1  0.87271600  0.91034900  0.31966500  1
  Mg  Mg1  1  0.47474600  0.92345100  0.50080100  1
  Mg  Mg2  1  0.43558300  0.70535000  0.32252100  1
  Mg  Mg3  1  0.96708600  0.15372000  0.46199800  1
  Mg  Mg4  1  0.96482200  0.50855000  0.37520100  1
  Mg  Mg5  1  0.43975100  0.50283500  0.52887600  1
  Mg  Mg6  1  0.45449900  0.90386200  0.79703000  1
  Mg  Mg7  1  0.07807800  0.47518600  0.99010200  1
  Mg  Mg8  1  0.80322100  0.13817500  0.85731600  1
  Mg  Mg9  1  0.23744000  0.08985500  0.98522900  1
  Mg  Mg10  1  0.65472600  0.50607900  0.83814200  1
  Mg  Mg11  1  0.50320000  0.69548800  0.01110500  1
  Mg  Mg12  1  0.17094500  0.61885900  0.73640800  1
  Mg  Mg13  1  0.92374500  0.24410900  0.19285300  1
  Mg  Mg14  1  0.90950000  0.35198200  0.64606000  1
  Mg  Mg15  1  0.71203000  0.96444300  0.09867800  1
  Mg  Mg16  1  0.98125800  0.97026000  0.66129900  1
  Mg  Mg17  1  0.38869100  0.43882300  0.19185300  1
  Si  Si0  1  0.29402700  0.27054800  0.79444200  1
  Si  Si1  1  0.45676500  0.17999500  0.62719700  1
  Si  Si2  1  0.00471200  0.76899200  0.49936200  1
  Si  Si3  1  0.90300100  0.63195500  0.17906900  1
  Si  Si4  1  0.97285800  0.79915000  0.90190800  1
  Si  Si5  1  0.36020900  0.07364600  0.28372500  1
  Si  Si6  1  0.61385600  0.31009100  0.02330700  1
  Si  Si7  1  0.20634500  0.86923500  0.15524800  1
  Si  Si8  1  0.52192400  0.30853500  0.36960900  1
  Si  Si9  1  0.69411600  0.68604900  0.65131800  1
loop_
_geom_bond_atom_site_label_1
_geom_bond_atom_site_label_2
_geom_bond_distance
_geom_bond_site_symmetry_2
Mg0 Si7 2.645585 1_655
Mg0 Si2 2.798753 1_655
Mg0 Si5 2.798806 1_565
Mg0 Si5 2.901281 1_665
Mg0 Mg2 2.928850 1_555
Mg0 Mg2 3.038053 1_655
Mg0 Si3 3.086191 1_555
Mg1 Si2 2.752472 1_655
Mg1 Si1 2.821351 1_565
Mg1 Si2 2.838672 1_555
Mg1 Si9 2.914791 1_555
Mg1 Mg16 3.075087 1_455
Mg1 Mg2 3.249452 1_555
Mg2 Si3 2.864752 1_555
Mg2 Si5 2.869041 1_565
Mg2 Si7 2.890744 1_555
Mg2 Mg4 2.989142 1_455
Mg2 Mg4 3.029549 1_555
Mg2 Si2 3.050486 1_555
Mg2 Si8 3.099984 1_555
Mg2 Mg5 3.165905 1_555
Mg3 Si8 2.827810 1_555
Mg3 Si5 2.988408 1_655
Mg3 Si2 3.000043 1_645
Mg3 Si1 3.165744 1_555
Mg4 Si3 2.883423 1_555
Mg4 Si2 2.892971 1_655
Mg4 Si8 2.950425 1_555
Mg4 Si8 2.987172 1_655
Mg5 Si1 2.756429 1_555
Mg5 Si8 2.794999 1_555
Mg5 Si2 2.833560 1_555
Mg5 Si9 2.935299 1_555
Mg6 Si9 2.812583 1_555
Mg6 Si4 2.818017 1_455
Mg6 Si0 2.870451 1_565
Mg6 Si1 3.055264 1_565
Mg7 Si4 2.726992 1_455
Mg7 Si6 2.806171 1_456
Mg7 Si6 2.896041 1_556
Mg7 Si3 3.000708 1_456
Mg8 Si4 2.709594 1_545
Mg8 Si6 2.787067 1_556
Mg8 Si0 2.809741 1_655
Mg8 Si0 2.861036 1_555
Mg9 Si7 2.802018 1_546
Mg9 Si0 2.896924 1_555
Mg9 Si6 2.918729 1_556
Mg10 Si9 2.845895 1_555
Mg10 Si6 2.879995 1_556
Mg10 Si0 2.975858 1_555
Mg11 Si7 2.680505 1_555
Mg11 Si4 2.787912 1_554
Mg11 Si6 2.989146 1_555
Mg12 Si0 2.778166 1_555
Mg12 Si9 2.816422 1_555
Mg12 Si9 2.818223 1_455
Mg12 Si4 2.821965 1_455
Mg12 Mg16 2.924392 1_455
Mg13 Si5 2.815550 1_655
Mg13 Si8 2.972708 1_555
Mg13 Si3 3.026649 1_555
Mg13 Si6 3.029430 1_555
Mg13 Si7 3.126671 1_645
Mg14 Si9 2.685470 1_555
Mg14 Si1 2.857195 1_655
Mg14 Si1 2.899636 1_555
Mg14 Mg16 2.959278 1_545
Mg14 Si0 3.040615 1_655
Mg15 Si7 2.713726 1_655
Mg15 Si7 2.740118 1_555
Mg15 Si6 2.810984 1_565
Mg15 Si3 2.825609 1_555
Mg15 Si5 3.025966 1_565
Mg16 Si9 2.883731 1_555
Mg16 Si2 2.898949 1_655
Mg16 Si1 2.969702 1_565
Mg16 Mg3 3.025457 1_565
Mg16 Si1 3.070888 1_665
Mg16 Mg6 3.085209 1_555
Mg16 Mg8 3.130861 1_565
Mg16 Mg6 3.252000 1_655
Mg17 Si6 2.689096 1_555
Mg17 Si3 2.691986 1_455
Mg17 Si8 2.754455 1_555
Mg17 Mg2 3.005105 1_555
Mg17 Si5 3.038177 1_555
Mg17 Si3 3.183679 1_555
Si0 Si1 2.507524 1_555
Si2 Si9 2.524261 1_455
Si3 Si7 2.561136 1_655
Si5 Si8 2.622199 1_555
Si5 Si7 2.830061 1_545
