# generated using pymatgen
data_Dy4NiB13
_symmetry_space_group_name_H-M   'P 1'
_cell_length_a   7.31734500
_cell_length_b   7.31734500
_cell_length_c   6.90666000
_cell_angle_alpha   90.00000000
_cell_angle_beta   90.00000000
_cell_angle_gamma   90.00000000
_symmetry_Int_Tables_number   1
_chemical_formula_structural   Dy4NiB13
_chemical_formula_sum   'Dy8 Ni2 B26'
_cell_volume   369.80701112
_cell_formula_units_Z   2
loop_
 _symmetry_equiv_pos_site_id
 _symmetry_equiv_pos_as_xyz
  1  'x, y, z'
loop_
 _atom_site_type_symbol
 _atom_site_label
 _atom_site_symmetry_multiplicity
 _atom_site_fract_x
 _atom_site_fract_y
 _atom_site_fract_z
 _atom_site_occupancy
  Dy  Dy0  1  0.68432300  0.18010900  0.50000000  1
  Dy  Dy1  1  0.31567700  0.81989100  0.50000000  1
  Dy  Dy2  1  0.18432300  0.31989100  0.00000000  1
  Dy  Dy3  1  0.81567700  0.68010900  0.00000000  1
  Dy  Dy4  1  0.81989100  0.68432300  0.50000000  1
  Dy  Dy5  1  0.18010900  0.31567700  0.50000000  1
  Dy  Dy6  1  0.68010900  0.18432300  0.00000000  1
  Dy  Dy7  1  0.31989100  0.81567700  0.00000000  1
  Ni  Ni0  1  0.50000000  0.50000000  0.50000000  1
  Ni  Ni1  1  0.00000000  0.00000000  0.00000000  1
  B  B0  1  0.50000000  0.50000000  0.00000000  1
  B  B1  1  0.00000000  0.00000000  0.50000000  1
  B  B2  1  0.90732000  0.40732000  0.25000000  1
  B  B3  1  0.09268000  0.59268000  0.25000000  1
  B  B4  1  0.40732000  0.09268000  0.75000000  1
  B  B5  1  0.59268000  0.90732000  0.75000000  1
  B  B6  1  0.59268000  0.90732000  0.25000000  1
  B  B7  1  0.40732000  0.09268000  0.25000000  1
  B  B8  1  0.90732000  0.40732000  0.75000000  1
  B  B9  1  0.09268000  0.59268000  0.75000000  1
  B  B10  1  0.53997500  0.66999700  0.24335200  1
  B  B11  1  0.46002500  0.33000300  0.24335200  1
  B  B12  1  0.03997500  0.83000300  0.74335200  1
  B  B13  1  0.96002500  0.16999700  0.74335200  1
  B  B14  1  0.33000300  0.53997500  0.24335200  1
  B  B15  1  0.66999700  0.46002500  0.24335200  1
  B  B16  1  0.16999700  0.03997500  0.74335200  1
  B  B17  1  0.83000300  0.96002500  0.74335200  1
  B  B18  1  0.46002500  0.33000300  0.75664800  1
  B  B19  1  0.53997500  0.66999700  0.75664800  1
  B  B20  1  0.96002500  0.16999700  0.25664800  1
  B  B21  1  0.03997500  0.83000300  0.25664800  1
  B  B22  1  0.66999700  0.46002500  0.75664800  1
  B  B23  1  0.33000300  0.53997500  0.75664800  1
  B  B24  1  0.83000300  0.96002500  0.25664800  1
  B  B25  1  0.16999700  0.03997500  0.25664800  1
loop_
_geom_bond_atom_site_label_1
_geom_bond_atom_site_label_2
_geom_bond_distance
_geom_bond_site_symmetry_2
Dy0 Ni0 2.701530 1_555
Dy1 Ni0 2.701530 1_555
Dy2 Ni1 2.701530 1_555
Dy3 Ni1 2.701530 1_665
Dy4 Ni0 2.701530 1_555
Dy5 Ni0 2.701530 1_555
Dy6 Ni1 2.701530 1_655
Dy7 Ni1 2.701530 1_565
B0 B15 2.111359 1_555
B0 B22 2.111359 1_554
B0 B19 2.111359 1_554
B0 B10 2.111359 1_555
B0 B23 2.111359 1_554
B0 B14 2.111359 1_555
B0 B11 2.111359 1_555
B0 B18 2.111359 1_554
B0 Dy3 2.659442 1_555
B0 Dy6 2.659442 1_555
B0 Dy7 2.659442 1_555
B0 Dy2 2.659442 1_555
B1 B17 2.111359 1_445
B1 B24 2.111359 1_445
B1 B20 2.111359 1_455
B1 B12 2.111359 1_545
B1 B21 2.111359 1_545
B1 B13 2.111359 1_455
B1 B25 2.111359 1_555
B1 B16 2.111359 1_555
B1 Dy4 2.659442 1_445
B1 Dy0 2.659442 1_455
B1 Dy1 2.659442 1_545
B1 Dy5 2.659442 1_555
B2 B20 1.779475 1_555
B2 B3 1.918159 1_655
B2 Dy3 2.723130 1_555
B2 Dy5 2.723130 1_655
B2 Dy4 2.738445 1_555
B2 Dy2 2.738445 1_655
B2 Dy0 2.899680 1_555
B2 Dy6 2.899680 1_555
B3 Dy2 2.723130 1_555
B3 Dy4 2.723130 1_455
B3 Dy5 2.738445 1_555
B3 Dy3 2.738445 1_455
B3 Dy7 2.899680 1_555
B3 Dy1 2.899680 1_555
B4 B5 1.918159 1_545
B4 Dy1 2.723130 1_545
B4 Dy6 2.723130 1_556
B4 Dy7 2.738445 1_546
B4 Dy0 2.738445 1_555
B4 Dy5 2.899680 1_555
B4 Dy2 2.899680 1_556
B5 Dy7 2.723130 1_556
B5 Dy0 2.723130 1_565
B5 Dy6 2.738445 1_566
B5 Dy1 2.738445 1_555
B5 Dy3 2.899680 1_556
B5 Dy4 2.899680 1_555
B6 B7 1.918159 1_565
B6 Dy7 2.723130 1_555
B6 Dy0 2.723130 1_565
B6 Dy6 2.738445 1_565
B6 Dy1 2.738445 1_555
B6 Dy3 2.899680 1_555
B6 Dy4 2.899680 1_555
B7 Dy6 2.723130 1_555
B7 Dy1 2.723130 1_545
B7 Dy0 2.738445 1_555
B7 Dy7 2.738445 1_545
B7 Dy5 2.899680 1_555
B7 Dy2 2.899680 1_555
B8 B9 1.918159 1_655
B8 Dy3 2.723130 1_556
B8 Dy5 2.723130 1_655
B8 Dy4 2.738445 1_555
B8 Dy2 2.738445 1_656
B8 Dy0 2.899680 1_555
B8 Dy6 2.899680 1_556
B9 Dy4 2.723130 1_455
B9 Dy2 2.723130 1_556
B9 Dy5 2.738445 1_555
B9 Dy3 2.738445 1_456
B9 Dy7 2.899680 1_556
B9 Dy1 2.899680 1_555
B10 B6 1.779475 1_555
B10 B15 1.807161 1_555
B10 B14 1.807161 1_555
B10 Ni0 2.185168 1_555
B10 Dy7 2.560223 1_555
B10 Dy3 2.626847 1_555
B10 Dy1 2.653078 1_555
B10 Dy4 2.710780 1_555
B11 B7 1.779475 1_555
B11 B15 1.807161 1_555
B11 B14 1.807161 1_555
B11 Ni0 2.185168 1_555
B11 Dy6 2.560223 1_555
B11 Dy2 2.626847 1_555
B11 Dy0 2.653078 1_555
B11 Dy5 2.710780 1_555
B12 B9 1.779475 1_555
B12 B17 1.807161 1_455
B12 B16 1.807161 1_565
B12 Ni1 2.185168 1_566
B12 Dy4 2.560223 1_455
B12 Dy1 2.626847 1_555
B12 Dy3 2.653078 1_456
B12 Dy7 2.710780 1_556
B13 B8 1.779475 1_555
B13 B16 1.807161 1_655
B13 B17 1.807161 1_545
B13 Ni1 2.185168 1_656
B13 Dy5 2.560223 1_655
B13 Dy0 2.626847 1_555
B13 Dy2 2.653078 1_656
B13 Dy6 2.710780 1_556
B14 B3 1.779475 1_555
B14 Ni0 2.185168 1_555
B14 Dy2 2.560223 1_555
B14 Dy7 2.626847 1_555
B14 Dy5 2.653078 1_555
B14 Dy1 2.710780 1_555
B15 B2 1.779475 1_555
B15 Ni0 2.185168 1_555
B15 Dy3 2.560223 1_555
B15 Dy6 2.626847 1_555
B15 Dy4 2.653078 1_555
B15 Dy0 2.710780 1_555
B16 B4 1.779475 1_555
B16 Ni1 2.185168 1_556
B16 Dy1 2.560223 1_545
B16 Dy5 2.626847 1_555
B16 Dy7 2.653078 1_546
B16 Dy2 2.710780 1_556
B17 B5 1.779475 1_555
B17 Ni1 2.185168 1_666
B17 Dy0 2.560223 1_565
B17 Dy4 2.626847 1_555
B17 Dy6 2.653078 1_566
B17 Dy3 2.710780 1_556
B18 B4 1.779475 1_555
B18 B22 1.807161 1_555
B18 B23 1.807161 1_555
B18 Ni0 2.185168 1_555
B18 Dy6 2.560223 1_556
B18 Dy2 2.626847 1_556
B18 Dy0 2.653078 1_555
B18 Dy5 2.710780 1_555
B19 B5 1.779475 1_555
B19 B22 1.807161 1_555
B19 B23 1.807161 1_555
B19 Ni0 2.185168 1_555
B19 Dy7 2.560223 1_556
B19 Dy3 2.626847 1_556
B19 Dy1 2.653078 1_555
B19 Dy4 2.710780 1_555
B20 B25 1.807161 1_655
B20 B24 1.807161 1_545
B20 Ni1 2.185168 1_655
B20 Dy5 2.560223 1_655
B20 Dy0 2.626847 1_555
B20 Dy2 2.653078 1_655
B20 Dy6 2.710780 1_555
B21 B3 1.779475 1_555
B21 B24 1.807161 1_455
B21 B25 1.807161 1_565
B21 Ni1 2.185168 1_565
B21 Dy4 2.560223 1_455
B21 Dy1 2.626847 1_555
B21 Dy3 2.653078 1_455
B21 Dy7 2.710780 1_555
B22 B8 1.779475 1_555
B22 Ni0 2.185168 1_555
B22 Dy3 2.560223 1_556
B22 Dy6 2.626847 1_556
B22 Dy4 2.653078 1_555
B22 Dy0 2.710780 1_555
B23 B9 1.779475 1_555
B23 Ni0 2.185168 1_555
B23 Dy2 2.560223 1_556
B23 Dy7 2.626847 1_556
B23 Dy5 2.653078 1_555
B23 Dy1 2.710780 1_555
B24 B6 1.779475 1_555
B24 Ni1 2.185168 1_665
B24 Dy0 2.560223 1_565
B24 Dy4 2.626847 1_555
B24 Dy6 2.653078 1_565
B24 Dy3 2.710780 1_555
B25 B7 1.779475 1_555
B25 Ni1 2.185168 1_555
B25 Dy1 2.560223 1_545
B25 Dy5 2.626847 1_555
B25 Dy7 2.653078 1_545
B25 Dy2 2.710780 1_555
