# generated using pymatgen
data_Mg14NbNiO16
_symmetry_space_group_name_H-M   'P 1'
_cell_length_a   8.62110336
_cell_length_b   8.67055198
_cell_length_c   4.24682953
_cell_angle_alpha   90.00000000
_cell_angle_beta   90.00000000
_cell_angle_gamma   90.00000000
_symmetry_Int_Tables_number   1
_chemical_formula_structural   Mg14NbNiO16
_chemical_formula_sum   'Mg14 Nb1 Ni1 O16'
_cell_volume   317.44933867
_cell_formula_units_Z   1
loop_
 _symmetry_equiv_pos_site_id
 _symmetry_equiv_pos_as_xyz
  1  'x, y, z'
loop_
 _atom_site_type_symbol
 _atom_site_label
 _atom_site_symmetry_multiplicity
 _atom_site_fract_x
 _atom_site_fract_y
 _atom_site_fract_z
 _atom_site_occupancy
  Mg  Mg0  1  0.50000000  0.00000000  0.00000000  1
  Mg  Mg1  1  0.50000000  0.50000000  0.00000000  1
  Mg  Mg2  1  0.00000000  0.23504757  0.50000000  1
  Mg  Mg3  1  0.00000000  0.76495243  0.50000000  1
  Mg  Mg4  1  0.50000000  0.24692022  0.50000000  1
  Mg  Mg5  1  0.50000000  0.75307978  0.50000000  1
  Mg  Mg6  1  0.24792197  0.00000000  0.50000000  1
  Mg  Mg7  1  0.25834191  0.50000000  0.50000000  1
  Mg  Mg8  1  0.75207803  0.00000000  0.50000000  1
  Mg  Mg9  1  0.74165809  0.50000000  0.50000000  1
  Mg  Mg10  1  0.25112734  0.24077574  0.00000000  1
  Mg  Mg11  1  0.25112734  0.75922426  0.00000000  1
  Mg  Mg12  1  0.74887266  0.24077574  0.00000000  1
  Mg  Mg13  1  0.74887266  0.75922426  0.00000000  1
  Nb  Nb0  1  0.00000000  0.50000000  0.00000000  1
  Ni  Ni0  1  0.00000000  0.00000000  0.00000000  1
  O  O0  1  0.26687220  0.00000000  0.00000000  1
  O  O1  1  0.25564856  0.50000000  0.00000000  1
  O  O2  1  0.73312780  0.00000000  0.00000000  1
  O  O3  1  0.74435144  0.50000000  0.00000000  1
  O  O4  1  0.24815185  0.25131493  0.50000000  1
  O  O5  1  0.24815185  0.74868507  0.50000000  1
  O  O6  1  0.75184815  0.25131493  0.50000000  1
  O  O7  1  0.75184815  0.74868507  0.50000000  1
  O  O8  1  0.00000000  0.00000000  0.50000000  1
  O  O9  1  0.00000000  0.50000000  0.50000000  1
  O  O10  1  0.50000000  0.00000000  0.50000000  1
  O  O11  1  0.50000000  0.50000000  0.50000000  1
  O  O12  1  0.00000000  0.25488619  0.00000000  1
  O  O13  1  0.00000000  0.74511381  0.00000000  1
  O  O14  1  0.50000000  0.25373812  0.00000000  1
  O  O15  1  0.50000000  0.74626188  0.00000000  1
loop_
_geom_bond_atom_site_label_1
_geom_bond_atom_site_label_2
_geom_bond_distance
_geom_bond_site_symmetry_2
Mg0 O0 2.009819 1_555
Mg0 O2 2.009819 1_555
Mg0 O10 2.123415 1_555
Mg0 O10 2.123415 1_554
Mg0 O15 2.200050 1_545
Mg0 O14 2.200050 1_555
Mg1 O3 2.106579 1_555
Mg1 O1 2.106579 1_555
Mg1 O11 2.123415 1_554
Mg1 O11 2.123415 1_555
Mg1 O14 2.135226 1_555
Mg1 O15 2.135226 1_555
Mg2 O8 2.037992 1_555
Mg2 O12 2.130370 1_556
Mg2 O12 2.130370 1_555
Mg2 O6 2.143987 1_455
Mg2 O4 2.143987 1_555
Mg2 O9 2.297284 1_555
Mg3 O8 2.037992 1_565
Mg3 O13 2.130370 1_555
Mg3 O13 2.130370 1_556
Mg3 O7 2.143987 1_455
Mg3 O5 2.143987 1_555
Mg3 O9 2.297284 1_555
Mg4 O14 2.124237 1_556
Mg4 O14 2.124237 1_555
Mg4 O10 2.140935 1_555
Mg4 O4 2.171543 1_555
Mg4 O6 2.171543 1_555
Mg4 O11 2.194341 1_555
Mg5 O15 2.124237 1_556
Mg5 O15 2.124237 1_555
Mg5 O10 2.140935 1_565
Mg5 O5 2.171543 1_555
Mg5 O7 2.171543 1_555
Mg5 O11 2.194341 1_555
Mg6 O0 2.129690 1_555
Mg6 O0 2.129690 1_556
Mg6 O8 2.137361 1_555
Mg6 O10 2.173191 1_555
Mg6 O5 2.179040 1_545
Mg6 O4 2.179040 1_555
Mg7 O11 2.083359 1_555
Mg7 O1 2.123542 1_556
Mg7 O1 2.123542 1_555
Mg7 O4 2.158026 1_555
Mg7 O5 2.158026 1_555
Mg7 O9 2.227192 1_555
Mg8 O2 2.129690 1_556
Mg8 O2 2.129690 1_555
Mg8 O8 2.137361 1_655
Mg8 O10 2.173191 1_555
Mg8 O7 2.179040 1_545
Mg8 O6 2.179040 1_555
Mg9 O11 2.083359 1_555
Mg9 O3 2.123542 1_556
Mg9 O3 2.123542 1_555
Mg9 O6 2.158026 1_555
Mg9 O7 2.158026 1_555
Mg9 O9 2.227192 1_655
Mg10 O0 2.092067 1_555
Mg10 O4 2.125535 1_554
Mg10 O4 2.125535 1_555
Mg10 O14 2.148499 1_555
Mg10 O12 2.168449 1_555
Mg10 O1 2.247955 1_555
Mg11 O0 2.092067 1_565
Mg11 O5 2.125535 1_554
Mg11 O5 2.125535 1_555
Mg11 O15 2.148499 1_555
Mg11 O13 2.168449 1_555
Mg11 O1 2.247955 1_555
Mg12 O2 2.092067 1_555
Mg12 O6 2.125535 1_555
Mg12 O6 2.125535 1_554
Mg12 O14 2.148499 1_555
Mg12 O12 2.168449 1_655
Mg12 O3 2.247955 1_555
Mg13 O2 2.092067 1_565
Mg13 O7 2.125535 1_555
Mg13 O7 2.125535 1_554
Mg13 O15 2.148499 1_555
Mg13 O13 2.168449 1_655
Mg13 O3 2.247955 1_555
Nb0 O9 2.123415 1_554
Nb0 O9 2.123415 1_555
Nb0 O13 2.125272 1_555
Nb0 O12 2.125272 1_555
Nb0 O3 2.203973 1_455
Nb0 O1 2.203973 1_555
Ni0 O8 2.123415 1_554
Ni0 O8 2.123415 1_555
Ni0 O12 2.210004 1_555
Ni0 O13 2.210004 1_545
Ni0 O0 2.300733 1_555
Ni0 O2 2.300733 1_455
