# generated using pymatgen
data_PrZn(BiO3)2
_symmetry_space_group_name_H-M   'P 1'
_cell_length_a   5.95820906
_cell_length_b   5.91227212
_cell_length_c   5.95820906
_cell_angle_alpha   120.25735625
_cell_angle_beta   90.00000000
_cell_angle_gamma   120.25735614
_symmetry_Int_Tables_number   1
_chemical_formula_structural   PrZn(BiO3)2
_chemical_formula_sum   'Pr1 Zn1 Bi2 O6'
_cell_volume   147.25047976
_cell_formula_units_Z   1
loop_
 _symmetry_equiv_pos_site_id
 _symmetry_equiv_pos_as_xyz
  1  'x, y, z'
loop_
 _atom_site_type_symbol
 _atom_site_label
 _atom_site_symmetry_multiplicity
 _atom_site_fract_x
 _atom_site_fract_y
 _atom_site_fract_z
 _atom_site_occupancy
  Pr  Pr0  1  -0.00000000  -0.00000000  -0.00000000  1
  Zn  Zn0  1  0.50000000  -0.00000000  0.50000000  1
  Bi  Bi0  1  0.25000000  0.50000000  0.75000000  1
  Bi  Bi1  1  0.75000000  0.50000000  0.25000000  1
  O  O0  1  0.73062977  0.46125954  0.73062977  1
  O  O1  1  0.26937023  0.53874046  0.26937023  1
  O  O2  1  0.64311980  -0.00000000  0.17410779  1
  O  O3  1  0.35688020  -0.00000000  0.82589221  1
  O  O4  1  0.82589221  -0.00000000  0.64311980  1
  O  O5  1  0.17410779  -0.00000000  0.35688020  1
loop_
_geom_bond_atom_site_label_1
_geom_bond_atom_site_label_2
_geom_bond_distance
_geom_bond_site_symmetry_2
Bi0 O5 2.470730 1_555
Bi0 O2 2.470730 1_566
Bi0 O3 2.470730 1_565
Bi0 O4 2.470730 1_455
Bi1 O4 2.470730 1_565
Bi1 O3 2.470730 1_554
Bi1 O2 2.470730 1_555
Bi1 O5 2.470730 1_665
O0 Zn0 1.913245 1_555
O0 Pr0 2.234626 1_666
O1 Zn0 1.913245 1_565
O1 Pr0 2.234626 1_555
O2 Zn0 2.120729 1_555
O2 Pr0 2.365919 1_655
O3 Zn0 2.120729 1_555
O3 Pr0 2.365919 1_556
O4 Zn0 2.120729 1_555
O4 Pr0 2.365919 1_656
O5 Zn0 2.120729 1_555
O5 Pr0 2.365919 1_555
