# generated using pymatgen
data_K2RbPdF5
_symmetry_space_group_name_H-M   'P 1'
_cell_length_a   7.35296400
_cell_length_b   7.35296400
_cell_length_c   6.35873000
_cell_angle_alpha   90.00000000
_cell_angle_beta   90.00000000
_cell_angle_gamma   90.00000000
_symmetry_Int_Tables_number   1
_chemical_formula_structural   K2RbPdF5
_chemical_formula_sum   'K4 Rb2 Pd2 F10'
_cell_volume   343.79160224
_cell_formula_units_Z   2
loop_
 _symmetry_equiv_pos_site_id
 _symmetry_equiv_pos_as_xyz
  1  'x, y, z'
loop_
 _atom_site_type_symbol
 _atom_site_label
 _atom_site_symmetry_multiplicity
 _atom_site_fract_x
 _atom_site_fract_y
 _atom_site_fract_z
 _atom_site_occupancy
  K  K0  1  0.17653700  0.32346300  0.50000000  1
  K  K1  1  0.67653700  0.17653700  0.50000000  1
  K  K2  1  0.32346300  0.82346300  0.50000000  1
  K  K3  1  0.82346300  0.67653700  0.50000000  1
  Rb  Rb0  1  0.00000000  0.00000000  0.00000000  1
  Rb  Rb1  1  0.50000000  0.50000000  0.00000000  1
  Pd  Pd0  1  0.50000000  0.00000000  0.00000000  1
  Pd  Pd1  1  0.00000000  0.50000000  0.00000000  1
  F  F0  1  0.13479500  0.63479500  0.77822600  1
  F  F1  1  0.86520500  0.36520500  0.77822600  1
  F  F2  1  0.36520500  0.13479500  0.77822600  1
  F  F3  1  0.63479500  0.86520500  0.77822600  1
  F  F4  1  0.13479500  0.63479500  0.22177400  1
  F  F5  1  0.63479500  0.86520500  0.22177400  1
  F  F6  1  0.36520500  0.13479500  0.22177400  1
  F  F7  1  0.86520500  0.36520500  0.22177400  1
  F  F8  1  0.00000000  0.00000000  0.50000000  1
  F  F9  1  0.50000000  0.50000000  0.50000000  1
loop_
_geom_bond_atom_site_label_1
_geom_bond_atom_site_label_2
_geom_bond_distance
_geom_bond_site_symmetry_2
F0 Pd1 1.988315 1_556
F0 K2 2.641774 1_555
F0 K0 2.909406 1_555
F0 K3 2.909406 1_455
F0 Rb0 3.190937 1_566
F0 Rb1 3.190937 1_556
F1 Pd1 1.988315 1_656
F1 K1 2.641774 1_555
F1 K0 2.909406 1_655
F1 K3 2.909406 1_555
F1 Rb0 3.190937 1_656
F1 Rb1 3.190937 1_556
F2 Pd0 1.988315 1_556
F2 K0 2.641774 1_555
F2 K2 2.909406 1_545
F2 K1 2.909406 1_555
F2 Rb0 3.190937 1_556
F2 Rb1 3.190937 1_556
F3 Pd0 1.988315 1_566
F3 K3 2.641774 1_555
F3 K1 2.909406 1_565
F3 K2 2.909406 1_555
F3 Rb0 3.190937 1_666
F3 Rb1 3.190937 1_556
F4 Pd1 1.988315 1_555
F4 K2 2.641774 1_555
F4 K0 2.909406 1_555
F4 K3 2.909406 1_455
F4 Rb1 3.190937 1_555
F4 Rb0 3.190937 1_565
F5 Pd0 1.988315 1_565
F5 K3 2.641774 1_555
F5 K1 2.909406 1_565
F5 K2 2.909406 1_555
F5 Rb0 3.190937 1_665
F5 Rb1 3.190937 1_555
F6 Pd0 1.988315 1_555
F6 K0 2.641774 1_555
F6 K2 2.909406 1_545
F6 K1 2.909406 1_555
F6 Rb0 3.190937 1_555
F6 Rb1 3.190937 1_555
F7 Pd1 1.988315 1_655
F7 K1 2.641774 1_555
F7 K0 2.909406 1_655
F7 K3 2.909406 1_555
F7 Rb0 3.190937 1_655
F7 Rb1 3.190937 1_555
F8 K1 2.709581 1_455
F8 K2 2.709581 1_545
F8 K0 2.709581 1_555
F8 K3 2.709581 1_445
F8 Rb0 3.179365 1_555
F8 Rb0 3.179365 1_556
F9 K2 2.709581 1_555
F9 K3 2.709581 1_555
F9 K0 2.709581 1_555
F9 K1 2.709581 1_555
F9 Rb1 3.179365 1_555
F9 Rb1 3.179365 1_556
