# generated using pymatgen
data_MgSnP2
_symmetry_space_group_name_H-M   'P 1'
_cell_length_a   5.90049120
_cell_length_b   5.90049120
_cell_length_c   7.09919621
_cell_angle_alpha   114.55551565
_cell_angle_beta   114.55551565
_cell_angle_gamma   90.00000000
_symmetry_Int_Tables_number   1
_chemical_formula_structural   MgSnP2
_chemical_formula_sum   'Mg2 Sn2 P4'
_cell_volume   199.97326923
_cell_formula_units_Z   2
loop_
 _symmetry_equiv_pos_site_id
 _symmetry_equiv_pos_as_xyz
  1  'x, y, z'
loop_
 _atom_site_type_symbol
 _atom_site_label
 _atom_site_symmetry_multiplicity
 _atom_site_fract_x
 _atom_site_fract_y
 _atom_site_fract_z
 _atom_site_occupancy
  Mg  Mg0  1  0.50000000  0.50000000  -0.00000000  1
  Mg  Mg1  1  0.75000000  0.25000000  0.50000000  1
  Sn  Sn0  1  0.00000000  0.00000000  0.00000000  1
  Sn  Sn1  1  0.25000000  0.75000000  0.50000000  1
  P  P0  1  0.87944153  0.87500000  0.25000000  1
  P  P1  1  0.12500000  0.62944153  0.75000000  1
  P  P2  1  0.62500000  0.12055847  0.75000000  1
  P  P3  1  0.37055847  0.37500000  0.25000000  1
loop_
_geom_bond_atom_site_label_1
_geom_bond_atom_site_label_2
_geom_bond_distance
_geom_bond_site_symmetry_2
Mg0 P0 2.547920 1_555
Mg0 P2 2.547920 1_554
Mg0 P1 2.547920 1_554
Mg0 P3 2.547920 1_555
Mg1 P1 2.547920 1_655
Mg1 P3 2.547920 1_555
Mg1 P0 2.547920 1_545
Mg1 P2 2.547920 1_555
P0 Sn1 2.517392 1_655
P0 Sn0 2.517392 1_665
P1 Sn0 2.517392 1_566
P1 Sn1 2.517392 1_555
P2 Sn1 2.517391 1_545
P2 Sn0 2.517392 1_656
P3 Sn0 2.517391 1_555
P3 Sn1 2.517392 1_555
