# generated using pymatgen
data_EuZr2SnO6
_symmetry_space_group_name_H-M   'P 1'
_cell_length_a   4.22824956
_cell_length_b   5.80211691
_cell_length_c   5.80211691
_cell_angle_alpha   90.41598224
_cell_angle_beta   90.00000000
_cell_angle_gamma   90.00000000
_symmetry_Int_Tables_number   1
_chemical_formula_structural   EuZr2SnO6
_chemical_formula_sum   'Eu1 Zr2 Sn1 O6'
_cell_volume   142.33841220
_cell_formula_units_Z   1
loop_
 _symmetry_equiv_pos_site_id
 _symmetry_equiv_pos_as_xyz
  1  'x, y, z'
loop_
 _atom_site_type_symbol
 _atom_site_label
 _atom_site_symmetry_multiplicity
 _atom_site_fract_x
 _atom_site_fract_y
 _atom_site_fract_z
 _atom_site_occupancy
  Eu  Eu0  1  0.50000000  0.50000000  0.50000000  1
  Zr  Zr0  1  -0.00000000  -0.00000000  0.50000000  1
  Zr  Zr1  1  -0.00000000  0.50000000  0.00000000  1
  Sn  Sn0  1  0.50000000  -0.00000000  0.00000000  1
  O  O0  1  0.50000000  -0.00000000  0.50000000  1
  O  O1  1  0.50000000  0.50000000  0.00000000  1
  O  O2  1  -0.00000000  0.31669511  0.68330489  1
  O  O3  1  -0.00000000  0.68330489  0.31669511  1
  O  O4  1  -0.00000000  0.81349942  0.81349942  1
  O  O5  1  0.00000000  0.18650058  0.18650058  1
loop_
_geom_bond_atom_site_label_1
_geom_bond_atom_site_label_2
_geom_bond_distance
_geom_bond_site_symmetry_2
Eu0 O2 2.597740 1_655
Eu0 O3 2.597740 1_555
Eu0 O2 2.597740 1_555
Eu0 O3 2.597740 1_655
Eu0 O0 2.901058 1_555
Eu0 O0 2.901058 1_565
Eu0 O1 2.901058 1_555
Eu0 O1 2.901058 1_556
O0 Zr0 2.114125 1_555
O0 Zr0 2.114125 1_655
O1 Zr1 2.114125 1_555
O1 Zr1 2.114125 1_655
O2 Zr1 2.116409 1_556
O2 Zr0 2.116409 1_555
O3 Zr0 2.116409 1_565
O3 Zr1 2.116409 1_555
O4 Zr1 2.123237 1_556
O4 Zr0 2.123237 1_565
O4 Sn0 2.606606 1_566
O4 Sn0 2.606606 1_466
O5 Zr1 2.123237 1_555
O5 Zr0 2.123237 1_555
O5 Sn0 2.606606 1_555
O5 Sn0 2.606606 1_455
