# generated using pymatgen
data_SmClO2
_symmetry_space_group_name_H-M   'P 1'
_cell_length_a   3.60843200
_cell_length_b   6.14613800
_cell_length_c   6.81053661
_cell_angle_alpha   106.29649490
_cell_angle_beta   90.00000000
_cell_angle_gamma   90.00000000
_symmetry_Int_Tables_number   1
_chemical_formula_structural   SmClO2
_chemical_formula_sum   'Sm2 Cl2 O4'
_cell_volume   144.97498509
_cell_formula_units_Z   2
loop_
 _symmetry_equiv_pos_site_id
 _symmetry_equiv_pos_as_xyz
  1  'x, y, z'
loop_
 _atom_site_type_symbol
 _atom_site_label
 _atom_site_symmetry_multiplicity
 _atom_site_fract_x
 _atom_site_fract_y
 _atom_site_fract_z
 _atom_site_occupancy
  Sm  Sm0  1  0.75000000  0.85672500  0.17627900  1
  Sm  Sm1  1  0.25000000  0.14327500  0.82372100  1
  Cl  Cl0  1  0.75000000  0.25388900  0.53478600  1
  Cl  Cl1  1  0.25000000  0.74611100  0.46521400  1
  O  O0  1  0.25000000  0.53789400  0.98079800  1
  O  O1  1  0.75000000  0.46210600  0.01920200  1
  O  O2  1  0.25000000  0.06799300  0.14315200  1
  O  O3  1  0.75000000  0.93200700  0.85684800  1
loop_
_geom_bond_atom_site_label_1
_geom_bond_atom_site_label_2
_geom_bond_distance
_geom_bond_site_symmetry_2
Cl0 Sm1 2.887981 1_555
Cl0 Sm1 2.887981 1_655
Cl0 Sm0 2.928353 1_545
Cl1 Sm0 2.887981 1_555
Cl1 Sm0 2.887981 1_455
Cl1 Sm1 2.928353 1_565
O0 O1 1.899724 1_456
O0 O1 1.899724 1_556
O0 Sm1 2.360247 1_555
O0 Sm0 2.720930 1_556
O0 Sm0 2.720930 1_456
O1 Sm0 2.360247 1_555
O1 Sm1 2.720930 1_554
O1 Sm1 2.720930 1_654
O2 Sm0 2.270807 1_445
O2 Sm0 2.270807 1_545
O2 Sm1 2.347719 1_554
O3 Sm1 2.270807 1_565
O3 Sm1 2.270807 1_665
O3 Sm0 2.347719 1_556
