# generated using pymatgen
data_Tb6Al39Cr8
_symmetry_space_group_name_H-M   'P 1'
_cell_length_a   10.91328248
_cell_length_b   10.91328248
_cell_length_c   17.33582300
_cell_angle_alpha   90.00000000
_cell_angle_beta   90.00000000
_cell_angle_gamma   120.00000288
_symmetry_Int_Tables_number   1
_chemical_formula_structural   Tb6Al39Cr8
_chemical_formula_sum   'Tb12 Al78 Cr16'
_cell_volume   1788.07559726
_cell_formula_units_Z   2
loop_
 _symmetry_equiv_pos_site_id
 _symmetry_equiv_pos_as_xyz
  1  'x, y, z'
loop_
 _atom_site_type_symbol
 _atom_site_label
 _atom_site_symmetry_multiplicity
 _atom_site_fract_x
 _atom_site_fract_y
 _atom_site_fract_z
 _atom_site_occupancy
  Tb  Tb0  1  0.53329800  0.00000000  0.59734800  1
  Tb  Tb1  1  0.46670200  0.00000000  0.40265200  1
  Tb  Tb2  1  0.00000000  0.53329800  0.59734800  1
  Tb  Tb3  1  0.46670200  0.00000000  0.09734800  1
  Tb  Tb4  1  0.00000000  0.53329800  0.90265200  1
  Tb  Tb5  1  0.00000000  0.46670200  0.40265200  1
  Tb  Tb6  1  0.53329800  0.00000000  0.90265200  1
  Tb  Tb7  1  0.00000000  0.46670200  0.09734800  1
  Tb  Tb8  1  0.46670200  0.46670200  0.59734800  1
  Tb  Tb9  1  0.53329800  0.53329800  0.40265200  1
  Tb  Tb10  1  0.53329800  0.53329800  0.09734800  1
  Tb  Tb11  1  0.46670200  0.46670200  0.90265200  1
  Al  Al0  1  0.15235400  0.60488600  0.75000000  1
  Al  Al1  1  0.84764600  0.39511400  0.25000000  1
  Al  Al2  1  0.39511400  0.54746800  0.75000000  1
  Al  Al3  1  0.60488600  0.15235400  0.75000000  1
  Al  Al4  1  0.60488600  0.45253200  0.25000000  1
  Al  Al5  1  0.39511400  0.84764600  0.25000000  1
  Al  Al6  1  0.45253200  0.84764600  0.75000000  1
  Al  Al7  1  0.54746800  0.39511400  0.75000000  1
  Al  Al8  1  0.54746800  0.15235400  0.25000000  1
  Al  Al9  1  0.45253200  0.60488600  0.25000000  1
  Al  Al10  1  0.84764600  0.45253200  0.75000000  1
  Al  Al11  1  0.15235400  0.54746800  0.25000000  1
  Al  Al12  1  0.15457400  0.00000000  0.11517400  1
  Al  Al13  1  0.84542600  0.00000000  0.88482600  1
  Al  Al14  1  0.00000000  0.15457400  0.11517400  1
  Al  Al15  1  0.84542600  0.00000000  0.61517400  1
  Al  Al16  1  0.00000000  0.15457400  0.38482600  1
  Al  Al17  1  0.00000000  0.84542600  0.88482600  1
  Al  Al18  1  0.15457400  0.00000000  0.38482600  1
  Al  Al19  1  0.00000000  0.84542600  0.61517400  1
  Al  Al20  1  0.84542600  0.84542600  0.11517400  1
  Al  Al21  1  0.15457400  0.15457400  0.88482600  1
  Al  Al22  1  0.15457400  0.15457400  0.61517400  1
  Al  Al23  1  0.84542600  0.84542600  0.38482600  1
  Al  Al24  1  0.24951300  0.49902700  0.50000000  1
  Al  Al25  1  0.75048700  0.50097300  0.50000000  1
  Al  Al26  1  0.50097300  0.75048700  0.50000000  1
  Al  Al27  1  0.75048700  0.50097300  0.00000000  1
  Al  Al28  1  0.49902700  0.24951300  0.00000000  1
  Al  Al29  1  0.49902700  0.24951300  0.50000000  1
  Al  Al30  1  0.24951300  0.49902700  0.00000000  1
  Al  Al31  1  0.50097300  0.75048700  0.00000000  1
  Al  Al32  1  0.24951300  0.75048700  0.50000000  1
  Al  Al33  1  0.75048700  0.24951300  0.50000000  1
  Al  Al34  1  0.75048700  0.24951300  0.00000000  1
  Al  Al35  1  0.24951300  0.75048700  0.00000000  1
  Al  Al36  1  0.15105800  0.00000000  0.75000000  1
  Al  Al37  1  0.84894200  0.00000000  0.25000000  1
  Al  Al38  1  0.00000000  0.15105800  0.75000000  1
  Al  Al39  1  0.00000000  0.84894200  0.25000000  1
  Al  Al40  1  0.84894200  0.84894200  0.75000000  1
  Al  Al41  1  0.15105800  0.15105800  0.25000000  1
  Al  Al42  1  0.25066600  0.00000000  0.52902500  1
  Al  Al43  1  0.74933400  0.00000000  0.47097500  1
  Al  Al44  1  0.00000000  0.25066600  0.52902500  1
  Al  Al45  1  0.74933400  0.00000000  0.02902500  1
  Al  Al46  1  0.00000000  0.25066600  0.97097500  1
  Al  Al47  1  0.00000000  0.74933400  0.47097500  1
  Al  Al48  1  0.25066600  0.00000000  0.97097500  1
  Al  Al49  1  0.00000000  0.74933400  0.02902500  1
  Al  Al50  1  0.74933400  0.74933400  0.52902500  1
  Al  Al51  1  0.25066600  0.25066600  0.47097500  1
  Al  Al52  1  0.25066600  0.25066600  0.02902500  1
  Al  Al53  1  0.74933400  0.74933400  0.97097500  1
  Al  Al54  1  0.16504600  0.39704300  0.66142400  1
  Al  Al55  1  0.83495400  0.60295700  0.33857600  1
  Al  Al56  1  0.60295700  0.76800200  0.66142400  1
  Al  Al57  1  0.83495400  0.60295700  0.16142400  1
  Al  Al58  1  0.39704300  0.16504600  0.83857600  1
  Al  Al59  1  0.39704300  0.23199800  0.33857600  1
  Al  Al60  1  0.16504600  0.39704300  0.83857600  1
  Al  Al61  1  0.60295700  0.83495400  0.16142400  1
  Al  Al62  1  0.23199800  0.83495400  0.66142400  1
  Al  Al63  1  0.39704300  0.23199800  0.16142400  1
  Al  Al64  1  0.76800200  0.60295700  0.83857600  1
  Al  Al65  1  0.76800200  0.16504600  0.33857600  1
  Al  Al66  1  0.60295700  0.76800200  0.83857600  1
  Al  Al67  1  0.23199800  0.39704300  0.16142400  1
  Al  Al68  1  0.60295700  0.83495400  0.33857600  1
  Al  Al69  1  0.39704300  0.16504600  0.66142400  1
  Al  Al70  1  0.76800200  0.16504600  0.16142400  1
  Al  Al71  1  0.23199800  0.39704300  0.33857600  1
  Al  Al72  1  0.23199800  0.83495400  0.83857600  1
  Al  Al73  1  0.76800200  0.60295700  0.66142400  1
  Al  Al74  1  0.83495400  0.23199800  0.83857600  1
  Al  Al75  1  0.16504600  0.76800200  0.16142400  1
  Al  Al76  1  0.16504600  0.76800200  0.33857600  1
  Al  Al77  1  0.83495400  0.23199800  0.66142400  1
  Cr  Cr0  1  0.33333300  0.66666700  0.63276200  1
  Cr  Cr1  1  0.66666700  0.33333300  0.36723800  1
  Cr  Cr2  1  0.66666700  0.33333300  0.13276200  1
  Cr  Cr3  1  0.66666700  0.33333300  0.86723800  1
  Cr  Cr4  1  0.33333300  0.66666700  0.86723800  1
  Cr  Cr5  1  0.33333300  0.66666700  0.13276200  1
  Cr  Cr6  1  0.33333300  0.66666700  0.36723800  1
  Cr  Cr7  1  0.66666700  0.33333300  0.63276200  1
  Cr  Cr8  1  0.00000000  0.00000000  0.50000000  1
  Cr  Cr9  1  0.00000000  0.00000000  0.00000000  1
  Cr  Cr10  1  0.74203200  0.00000000  0.75000000  1
  Cr  Cr11  1  0.25796800  0.00000000  0.25000000  1
  Cr  Cr12  1  0.00000000  0.74203200  0.75000000  1
  Cr  Cr13  1  0.00000000  0.25796800  0.25000000  1
  Cr  Cr14  1  0.25796800  0.25796800  0.75000000  1
  Cr  Cr15  1  0.74203200  0.74203200  0.25000000  1
loop_
_geom_bond_atom_site_label_1
_geom_bond_atom_site_label_2
_geom_bond_distance
_geom_bond_site_symmetry_2
Tb0 Tb1 3.452577 1_555
Tb2 Tb5 3.452577 1_555
Tb3 Tb6 3.452577 1_554
Tb4 Tb7 3.452577 1_556
Tb8 Tb9 3.452577 1_555
Tb10 Tb11 3.452577 1_554
Al0 Cr0 2.674803 1_555
Al0 Cr4 2.674803 1_555
Al0 Al62 2.689818 1_555
Al0 Al72 2.689818 1_555
Al0 Cr12 2.737375 1_555
Al0 Al54 2.799321 1_555
Al0 Al60 2.799321 1_555
Al0 Al10 2.879850 1_455
Al0 Al6 3.011908 1_555
Al0 Al2 3.011909 1_555
Al0 Tb4 3.013146 1_555
Al0 Tb2 3.013146 1_555
Al1 Cr2 2.674803 1_555
Al1 Cr1 2.674803 1_555
Al1 Al70 2.689818 1_555
Al1 Al65 2.689818 1_555
Al1 Cr13 2.737375 1_655
Al1 Al57 2.799321 1_555
Al1 Al55 2.799321 1_555
Al1 Al11 2.879850 1_655
Al1 Al8 3.011908 1_555
Al1 Al4 3.011909 1_555
Al1 Tb7 3.013146 1_655
Al1 Tb5 3.013146 1_655
Al2 Cr4 2.674809 1_555
Al2 Cr0 2.674809 1_555
Al2 Al60 2.689819 1_555
Al2 Al54 2.689819 1_555
Al2 Cr14 2.737375 1_555
Al2 Al66 2.799315 1_555
Al2 Al56 2.799315 1_555
Al2 Al7 2.879850 1_555
Al2 Al6 3.011909 1_555
Al2 Tb11 3.013146 1_555
Al2 Tb8 3.013146 1_555
Al3 Cr3 2.674803 1_555
Al3 Cr7 2.674803 1_555
Al3 Al74 2.689818 1_555
Al3 Al77 2.689818 1_555
Al3 Cr10 2.737375 1_555
Al3 Al58 2.799321 1_555
Al3 Al69 2.799321 1_555
Al3 Al6 2.879850 1_545
Al3 Al7 3.011909 1_555
Al3 Tb6 3.013146 1_555
Al3 Tb0 3.013146 1_555
Al4 Cr1 2.674809 1_555
Al4 Cr2 2.674809 1_555
Al4 Al57 2.689819 1_555
Al4 Al55 2.689819 1_555
Al4 Cr15 2.737375 1_555
Al4 Al59 2.799315 1_555
Al4 Al63 2.799315 1_555
Al4 Al9 2.879850 1_555
Al4 Al8 3.011909 1_555
Al4 Tb10 3.013146 1_555
Al4 Tb9 3.013146 1_555
Al5 Cr6 2.674803 1_555
Al5 Cr5 2.674803 1_555
Al5 Al75 2.689818 1_555
Al5 Al76 2.689818 1_555
Al5 Cr11 2.737375 1_565
Al5 Al61 2.799321 1_555
Al5 Al68 2.799321 1_555
Al5 Al8 2.879850 1_565
Al5 Al9 3.011909 1_555
Al5 Tb3 3.013146 1_565
Al5 Tb1 3.013146 1_565
Al6 Cr0 2.674804 1_555
Al6 Cr4 2.674804 1_555
Al6 Al66 2.689826 1_555
Al6 Cr10 2.737375 1_565
Al6 Al72 2.799311 1_555
Al6 Al62 2.799311 1_555
Al6 Tb6 3.013146 1_565
Al6 Tb0 3.013146 1_565
Al7 Cr7 2.674809 1_555
Al7 Cr3 2.674809 1_555
Al7 Cr14 2.737375 1_555
Al7 Al73 2.799315 1_555
Al7 Tb11 3.013146 1_555
Al7 Tb8 3.013146 1_555
Al8 Cr1 2.674804 1_555
Al8 Cr2 2.674804 1_555
Al8 Cr11 2.737375 1_555
Al8 Tb3 3.013146 1_555
Al8 Tb1 3.013146 1_555
Al9 Cr5 2.674809 1_555
Al9 Cr6 2.674809 1_555
Al9 Cr15 2.737375 1_555
Al9 Tb10 3.013146 1_555
Al9 Tb9 3.013146 1_555
Al10 Cr7 2.674804 1_555
Al10 Cr3 2.674804 1_555
Al10 Al73 2.689826 1_555
Al10 Al64 2.689826 1_555
Al10 Cr12 2.737375 1_655
Al10 Al74 2.799311 1_555
Al10 Al77 2.799311 1_555
Al10 Al3 3.011908 1_555
Al10 Al7 3.011909 1_555
Al10 Tb4 3.013146 1_655
Al10 Tb2 3.013146 1_655
Al11 Cr6 2.674804 1_555
Al11 Cr5 2.674804 1_555
Al11 Al71 2.689826 1_555
Al11 Al67 2.689826 1_555
Al11 Cr13 2.737375 1_555
Al11 Al76 2.799311 1_555
Al11 Al75 2.799311 1_555
Al11 Al5 3.011908 1_555
Al11 Al9 3.011909 1_555
Al11 Tb5 3.013146 1_555
Al11 Tb7 3.013146 1_555
Al12 Cr11 2.595434 1_555
Al12 Cr9 2.613852 1_555
Al12 Al48 2.710861 1_554
Al12 Al63 2.712111 1_555
Al12 Al75 2.712117 1_545
Al12 Al49 2.818662 1_545
Al12 Al52 2.818662 1_555
Al12 Al39 2.871493 1_545
Al12 Al41 2.871493 1_555
Al12 Al20 2.921813 1_445
Al12 Al14 2.921813 1_555
Al12 Tb3 3.420330 1_555
Al13 Cr10 2.595434 1_555
Al13 Cr9 2.613852 1_656
Al13 Al45 2.710861 1_556
Al13 Al66 2.712111 1_545
Al13 Al74 2.712117 1_555
Al13 Al46 2.818662 1_655
Al13 Al53 2.818662 1_545
Al13 Al38 2.871493 1_655
Al13 Al40 2.871493 1_545
Al13 Al21 2.921813 1_655
Al13 Al17 2.921813 1_645
Al13 Tb6 3.420330 1_555
Al14 Cr13 2.595434 1_555
Al14 Cr9 2.613852 1_555
Al14 Al46 2.710861 1_554
Al14 Al67 2.712111 1_555
Al14 Al70 2.712117 1_455
Al14 Al45 2.818662 1_455
Al14 Al52 2.818662 1_555
Al14 Al37 2.871493 1_455
Al14 Al41 2.871493 1_555
Al14 Al20 2.921813 1_445
Al14 Tb7 3.420330 1_555
Al15 Cr10 2.595434 1_555
Al15 Cr8 2.613852 1_655
Al15 Al43 2.710861 1_555
Al15 Al56 2.712111 1_545
Al15 Al77 2.712117 1_555
Al15 Al44 2.818662 1_655
Al15 Al50 2.818662 1_545
Al15 Al38 2.871493 1_655
Al15 Al40 2.871493 1_545
Al15 Al22 2.921813 1_655
Al15 Al19 2.921813 1_645
Al15 Tb0 3.420330 1_555
Al16 Cr13 2.595434 1_555
Al16 Cr8 2.613852 1_555
Al16 Al44 2.710861 1_555
Al16 Al71 2.712111 1_555
Al16 Al65 2.712117 1_455
Al16 Al43 2.818662 1_455
Al16 Al51 2.818662 1_555
Al16 Al37 2.871493 1_455
Al16 Al41 2.871493 1_555
Al16 Al23 2.921813 1_445
Al16 Al18 2.921813 1_555
Al16 Tb5 3.420330 1_555
Al17 Cr12 2.595434 1_555
Al17 Cr9 2.613852 1_566
Al17 Al49 2.710861 1_556
Al17 Al64 2.712111 1_455
Al17 Al72 2.712117 1_555
Al17 Al48 2.818662 1_565
Al17 Al53 2.818662 1_455
Al17 Al36 2.871493 1_565
Al17 Al40 2.871493 1_455
Al17 Al21 2.921813 1_565
Al17 Tb4 3.420330 1_555
Al18 Cr11 2.595434 1_555
Al18 Cr8 2.613852 1_555
Al18 Al42 2.710861 1_555
Al18 Al59 2.712111 1_555
Al18 Al76 2.712117 1_545
Al18 Al47 2.818662 1_545
Al18 Al51 2.818662 1_555
Al18 Al39 2.871493 1_545
Al18 Al41 2.871493 1_555
Al18 Al23 2.921813 1_445
Al18 Tb1 3.420330 1_555
Al19 Cr12 2.595434 1_555
Al19 Cr8 2.613852 1_565
Al19 Al47 2.710861 1_555
Al19 Al73 2.712111 1_455
Al19 Al62 2.712117 1_555
Al19 Al42 2.818662 1_565
Al19 Al50 2.818662 1_455
Al19 Al36 2.871493 1_565
Al19 Al40 2.871493 1_455
Al19 Al22 2.921813 1_565
Al19 Tb2 3.420330 1_555
Al20 Cr15 2.595434 1_555
Al20 Cr9 2.613852 1_665
Al20 Al53 2.710861 1_554
Al20 Al57 2.712107 1_555
Al20 Al61 2.712107 1_555
Al20 Al45 2.818662 1_565
Al20 Al49 2.818662 1_655
Al20 Al37 2.871493 1_565
Al20 Al39 2.871493 1_655
Al20 Tb10 3.420330 1_555
Al21 Cr14 2.595434 1_555
Al21 Cr9 2.613852 1_556
Al21 Al52 2.710861 1_556
Al21 Al58 2.712107 1_555
Al21 Al60 2.712107 1_555
Al21 Al46 2.818662 1_555
Al21 Al48 2.818662 1_555
Al21 Al36 2.871493 1_555
Al21 Al38 2.871493 1_555
Al21 Tb11 3.420330 1_555
Al22 Cr14 2.595434 1_555
Al22 Cr8 2.613852 1_555
Al22 Al51 2.710861 1_555
Al22 Al69 2.712107 1_555
Al22 Al54 2.712107 1_555
Al22 Al44 2.818662 1_555
Al22 Al42 2.818662 1_555
Al22 Al36 2.871493 1_555
Al22 Al38 2.871493 1_555
Al22 Tb8 3.420330 1_555
Al23 Cr15 2.595434 1_555
Al23 Cr8 2.613852 1_665
Al23 Al50 2.710861 1_555
Al23 Al55 2.712107 1_555
Al23 Al68 2.712107 1_555
Al23 Al47 2.818662 1_655
Al23 Al43 2.818662 1_565
Al23 Al37 2.871493 1_565
Al23 Al39 2.871493 1_655
Al23 Tb9 3.420330 1_555
Al24 Al26 2.744254 1_555
Al24 Al32 2.744254 1_555
Al24 Al44 2.762945 1_555
Al24 Al51 2.762951 1_555
Al24 Cr6 2.794171 1_555
Al24 Cr0 2.794171 1_555
Al24 Al54 2.982222 1_555
Al24 Al71 2.982224 1_555
Al24 Tb5 3.070282 1_555
Al24 Tb8 3.070291 1_555
Al24 Tb2 3.379511 1_555
Al24 Tb9 3.379520 1_555
Al25 Al29 2.744254 1_555
Al25 Al33 2.744254 1_555
Al25 Al47 2.762945 1_655
Al25 Al50 2.762951 1_555
Al25 Cr1 2.794171 1_555
Al25 Cr7 2.794171 1_555
Al25 Al55 2.982222 1_555
Al25 Al73 2.982224 1_555
Al25 Tb2 3.070282 1_655
Al25 Tb9 3.070291 1_555
Al25 Tb5 3.379511 1_655
Al25 Tb8 3.379520 1_555
Al26 Al32 2.744254 1_555
Al26 Al43 2.762945 1_565
Al26 Al50 2.762951 1_555
Al26 Cr6 2.794171 1_555
Al26 Cr0 2.794171 1_555
Al26 Al68 2.982222 1_555
Al26 Al56 2.982224 1_555
Al26 Tb0 3.070282 1_565
Al26 Tb9 3.070291 1_555
Al26 Tb1 3.379511 1_565
Al26 Tb8 3.379520 1_555
Al27 Al28 2.744254 1_555
Al27 Al34 2.744254 1_555
Al27 Al49 2.762945 1_655
Al27 Al53 2.762951 1_554
Al27 Cr2 2.794171 1_555
Al27 Cr3 2.794171 1_554
Al27 Al57 2.982222 1_555
Al27 Al64 2.982224 1_554
Al27 Tb4 3.070282 1_654
Al27 Tb10 3.070291 1_555
Al27 Tb7 3.379511 1_655
Al27 Tb11 3.379520 1_554
Al28 Al34 2.744254 1_555
Al28 Al48 2.762945 1_554
Al28 Al52 2.762951 1_555
Al28 Cr2 2.794171 1_555
Al28 Cr3 2.794171 1_554
Al28 Al58 2.982222 1_554
Al28 Al63 2.982224 1_555
Al28 Tb3 3.070282 1_555
Al28 Tb11 3.070291 1_554
Al28 Tb6 3.379511 1_554
Al28 Tb10 3.379520 1_555
Al29 Al33 2.744254 1_555
Al29 Al42 2.762945 1_555
Al29 Al51 2.762951 1_555
Al29 Cr1 2.794171 1_555
Al29 Cr7 2.794171 1_555
Al29 Al69 2.982222 1_555
Al29 Al59 2.982224 1_555
Al29 Tb1 3.070282 1_555
Al29 Tb8 3.070291 1_555
Al29 Tb0 3.379511 1_555
Al29 Tb9 3.379520 1_555
Al30 Al31 2.744254 1_555
Al30 Al35 2.744254 1_555
Al30 Al46 2.762945 1_554
Al30 Al52 2.762951 1_555
Al30 Cr5 2.794171 1_555
Al30 Cr4 2.794171 1_554
Al30 Al60 2.982222 1_554
Al30 Al67 2.982224 1_555
Al30 Tb7 3.070282 1_555
Al30 Tb11 3.070291 1_554
Al30 Tb4 3.379511 1_554
Al30 Tb10 3.379520 1_555
Al31 Al35 2.744254 1_555
Al31 Al45 2.762945 1_565
Al31 Al53 2.762951 1_554
Al31 Cr5 2.794171 1_555
Al31 Cr4 2.794171 1_554
Al31 Al61 2.982222 1_555
Al31 Al66 2.982224 1_554
Al31 Tb6 3.070282 1_564
Al31 Tb10 3.070291 1_555
Al31 Tb3 3.379511 1_565
Al31 Tb11 3.379520 1_554
Al32 Al42 2.762940 1_565
Al32 Al47 2.762940 1_555
Al32 Cr6 2.794171 1_555
Al32 Cr0 2.794171 1_555
Al32 Al76 2.982217 1_555
Al32 Al62 2.982217 1_555
Al32 Tb2 3.070285 1_555
Al32 Tb1 3.070285 1_565
Al32 Tb0 3.379516 1_565
Al32 Tb5 3.379516 1_555
Al33 Al44 2.762940 1_655
Al33 Al43 2.762940 1_555
Al33 Cr1 2.794171 1_555
Al33 Cr7 2.794171 1_555
Al33 Al65 2.982217 1_555
Al33 Al77 2.982217 1_555
Al33 Tb0 3.070285 1_555
Al33 Tb5 3.070285 1_655
Al33 Tb1 3.379516 1_555
Al33 Tb2 3.379516 1_655
Al34 Al45 2.762940 1_555
Al34 Al46 2.762940 1_654
Al34 Cr2 2.794171 1_555
Al34 Cr3 2.794171 1_554
Al34 Al70 2.982217 1_555
Al34 Al74 2.982217 1_554
Al34 Tb7 3.070285 1_655
Al34 Tb6 3.070285 1_554
Al34 Tb3 3.379516 1_555
Al34 Tb4 3.379516 1_654
Al35 Al48 2.762940 1_564
Al35 Al49 2.762940 1_555
Al35 Cr5 2.794171 1_555
Al35 Cr4 2.794171 1_554
Al35 Al75 2.982217 1_555
Al35 Al72 2.982217 1_554
Al35 Tb4 3.070285 1_554
Al35 Tb3 3.070285 1_565
Al35 Tb6 3.379516 1_564
Al35 Tb7 3.379516 1_555
Al36 Cr12 2.449974 1_545
Al36 Cr14 2.449974 1_555
Al36 Al69 2.823725 1_555
Al36 Al58 2.823725 1_555
Al36 Al72 2.823732 1_545
Al36 Al62 2.823732 1_545
Al36 Al40 2.855353 1_445
Al36 Al38 2.855353 1_555
Al37 Cr13 2.449974 1_655
Al37 Cr15 2.449974 1_545
Al37 Al61 2.823725 1_545
Al37 Al68 2.823725 1_545
Al37 Al70 2.823732 1_555
Al37 Al65 2.823732 1_555
Al37 Al41 2.855353 1_655
Al37 Al39 2.855353 1_645
Al38 Cr10 2.449974 1_455
Al38 Cr14 2.449974 1_555
Al38 Al54 2.823725 1_555
Al38 Al60 2.823725 1_555
Al38 Al77 2.823732 1_455
Al38 Al74 2.823732 1_455
Al38 Al40 2.855353 1_445
Al39 Cr11 2.449974 1_565
Al39 Cr15 2.449974 1_455
Al39 Al55 2.823725 1_455
Al39 Al57 2.823725 1_455
Al39 Al75 2.823732 1_555
Al39 Al76 2.823732 1_555
Al39 Al41 2.855353 1_565
Al40 Cr12 2.449974 1_655
Al40 Cr10 2.449974 1_565
Al40 Al66 2.823723 1_555
Al40 Al64 2.823723 1_555
Al40 Al56 2.823723 1_555
Al40 Al73 2.823723 1_555
Al41 Cr13 2.449974 1_555
Al41 Cr11 2.449974 1_555
Al41 Al71 2.823723 1_555
Al41 Al59 2.823723 1_555
Al41 Al63 2.823723 1_555
Al41 Al67 2.823723 1_555
Al42 Cr8 2.781480 1_555
Al42 Al69 2.861291 1_555
Al42 Al62 2.861294 1_545
Al42 Al47 2.914820 1_545
Al42 Al51 2.914820 1_555
Al42 Tb1 3.218398 1_555
Al42 Tb0 3.304039 1_555
Al43 Cr8 2.781480 1_655
Al43 Al68 2.861291 1_545
Al43 Al65 2.861294 1_555
Al43 Al44 2.914820 1_655
Al43 Al50 2.914820 1_545
Al43 Tb0 3.218398 1_555
Al43 Tb1 3.304039 1_555
Al44 Cr8 2.781480 1_555
Al44 Al54 2.861291 1_555
Al44 Al77 2.861294 1_455
Al44 Al51 2.914820 1_555
Al44 Tb5 3.218398 1_555
Al44 Tb2 3.304039 1_555
Al45 Cr9 2.781480 1_655
Al45 Al61 2.861291 1_545
Al45 Al70 2.861294 1_555
Al45 Al46 2.914820 1_654
Al45 Al53 2.914820 1_544
Al45 Tb6 3.218398 1_554
Al45 Tb3 3.304039 1_555
Al46 Cr9 2.781480 1_556
Al46 Al60 2.861291 1_555
Al46 Al74 2.861294 1_455
Al46 Al52 2.914820 1_556
Al46 Tb7 3.218398 1_556
Al46 Tb4 3.304039 1_555
Al47 Cr8 2.781480 1_565
Al47 Al55 2.861291 1_455
Al47 Al76 2.861294 1_555
Al47 Al50 2.914820 1_455
Al47 Tb2 3.218398 1_555
Al47 Tb5 3.304039 1_555
Al48 Cr9 2.781480 1_556
Al48 Al58 2.861291 1_555
Al48 Al72 2.861294 1_545
Al48 Al49 2.914820 1_546
Al48 Al52 2.914820 1_556
Al48 Tb3 3.218398 1_556
Al48 Tb6 3.304039 1_555
Al49 Cr9 2.781480 1_565
Al49 Al57 2.861291 1_455
Al49 Al75 2.861294 1_555
Al49 Al53 2.914820 1_454
Al49 Tb4 3.218398 1_554
Al49 Tb7 3.304039 1_555
Al50 Cr8 2.781479 1_665
Al50 Al73 2.861287 1_555
Al50 Al56 2.861287 1_555
Al50 Tb9 3.218398 1_555
Al50 Tb8 3.304039 1_555
Al51 Cr8 2.781479 1_555
Al51 Al59 2.861287 1_555
Al51 Al71 2.861287 1_555
Al51 Tb8 3.218398 1_555
Al51 Tb9 3.304039 1_555
Al52 Cr9 2.781479 1_555
Al52 Al63 2.861287 1_555
Al52 Al67 2.861287 1_555
Al52 Tb11 3.218398 1_554
Al52 Tb10 3.304039 1_555
Al53 Cr9 2.781479 1_666
Al53 Al66 2.861287 1_555
Al53 Al64 2.861287 1_555
Al53 Tb10 3.218398 1_556
Al53 Tb11 3.304039 1_555
Al54 Cr0 2.621832 1_555
Al54 Cr14 2.688679 1_555
Al54 Tb2 3.060668 1_555
Al54 Al60 3.071076 1_555
Al54 Al77 3.119759 1_455
Al54 Tb8 3.185405 1_555
Al55 Cr1 2.621832 1_555
Al55 Cr15 2.688679 1_555
Al55 Tb5 3.060668 1_655
Al55 Al57 3.071076 1_555
Al55 Al76 3.119759 1_655
Al55 Tb9 3.185405 1_555
Al56 Cr0 2.621835 1_555
Al56 Cr10 2.688686 1_565
Al56 Al6 2.689826 1_555
Al56 Tb8 3.060659 1_555
Al56 Al66 3.071076 1_555
Al56 Al73 3.119740 1_555
Al56 Tb0 3.185415 1_565
Al57 Cr2 2.621832 1_555
Al57 Cr15 2.688679 1_555
Al57 Tb7 3.060668 1_655
Al57 Al75 3.119759 1_655
Al57 Tb10 3.185405 1_555
Al58 Cr3 2.621832 1_555
Al58 Cr14 2.688679 1_555
Al58 Al7 2.689819 1_555
Al58 Tb6 3.060668 1_555
Al58 Al69 3.071076 1_555
Al58 Al72 3.119759 1_545
Al58 Tb11 3.185405 1_555
Al59 Cr1 2.621835 1_555
Al59 Cr11 2.688686 1_555
Al59 Al8 2.689826 1_555
Al59 Tb9 3.060659 1_555
Al59 Al63 3.071076 1_555
Al59 Al71 3.119740 1_555
Al59 Tb1 3.185415 1_555
Al60 Cr4 2.621832 1_555
Al60 Cr14 2.688679 1_555
Al60 Tb4 3.060668 1_555
Al60 Al74 3.119759 1_455
Al60 Tb11 3.185405 1_555
Al61 Cr5 2.621832 1_555
Al61 Cr15 2.688679 1_555
Al61 Al9 2.689819 1_555
Al61 Tb3 3.060668 1_565
Al61 Al68 3.071076 1_555
Al61 Al70 3.119759 1_565
Al61 Tb10 3.185405 1_555
Al62 Cr0 2.621815 1_555
Al62 Cr12 2.688687 1_555
Al62 Tb0 3.060660 1_565
Al62 Al72 3.071076 1_555
Al62 Al69 3.119759 1_565
Al62 Tb2 3.185408 1_555
Al63 Cr2 2.621835 1_555
Al63 Cr11 2.688686 1_555
Al63 Al8 2.689826 1_555
Al63 Tb10 3.060659 1_555
Al63 Al67 3.119740 1_555
Al63 Tb3 3.185415 1_555
Al64 Cr3 2.621835 1_555
Al64 Cr12 2.688686 1_655
Al64 Al7 2.799315 1_555
Al64 Tb11 3.060659 1_555
Al64 Al73 3.071076 1_555
Al64 Al66 3.119740 1_555
Al64 Tb4 3.185415 1_655
Al65 Cr1 2.621815 1_555
Al65 Cr13 2.688687 1_655
Al65 Al8 2.799311 1_555
Al65 Tb1 3.060660 1_555
Al65 Al70 3.071076 1_555
Al65 Al68 3.119759 1_545
Al65 Tb5 3.185408 1_655
Al66 Cr4 2.621835 1_555
Al66 Cr10 2.688686 1_565
Al66 Tb11 3.060659 1_555
Al66 Tb6 3.185415 1_565
Al67 Cr5 2.621835 1_555
Al67 Cr13 2.688686 1_555
Al67 Al9 2.799315 1_555
Al67 Tb10 3.060659 1_555
Al67 Al71 3.071076 1_555
Al67 Tb7 3.185415 1_555
Al68 Cr6 2.621832 1_555
Al68 Cr15 2.688679 1_555
Al68 Al9 2.689819 1_555
Al68 Tb1 3.060668 1_565
Al68 Tb9 3.185405 1_555
Al69 Cr7 2.621832 1_555
Al69 Cr14 2.688679 1_555
Al69 Al7 2.689819 1_555
Al69 Tb0 3.060668 1_555
Al69 Tb8 3.185405 1_555
Al70 Cr2 2.621815 1_555
Al70 Cr13 2.688687 1_655
Al70 Al8 2.799311 1_555
Al70 Tb3 3.060660 1_555
Al70 Tb7 3.185408 1_655
Al71 Cr6 2.621835 1_555
Al71 Cr13 2.688686 1_555
Al71 Al9 2.799315 1_555
Al71 Tb9 3.060659 1_555
Al71 Tb5 3.185415 1_555
Al72 Cr4 2.621815 1_555
Al72 Cr12 2.688687 1_555
Al72 Tb6 3.060660 1_565
Al72 Tb4 3.185408 1_555
Al73 Cr7 2.621835 1_555
Al73 Cr12 2.688686 1_655
Al73 Tb8 3.060659 1_555
Al73 Tb2 3.185415 1_655
Al74 Cr3 2.621815 1_555
Al74 Cr10 2.688687 1_555
Al74 Tb4 3.060660 1_655
Al74 Al77 3.071076 1_555
Al74 Tb6 3.185408 1_555
Al75 Cr5 2.621815 1_555
Al75 Cr11 2.688687 1_565
Al75 Tb7 3.060660 1_555
Al75 Al76 3.071076 1_555
Al75 Tb3 3.185408 1_565
Al76 Cr6 2.621815 1_555
Al76 Cr11 2.688687 1_565
Al76 Tb5 3.060660 1_555
Al76 Tb1 3.185408 1_565
Al77 Cr7 2.621815 1_555
Al77 Cr10 2.688687 1_555
Al77 Tb2 3.060660 1_655
Al77 Tb0 3.185408 1_555
Cr0 Tb2 3.230157 1_555
Cr0 Tb0 3.230159 1_565
Cr0 Tb8 3.230167 1_555
Cr1 Tb5 3.230157 1_655
Cr1 Tb1 3.230159 1_555
Cr1 Tb9 3.230167 1_555
Cr2 Tb7 3.230157 1_655
Cr2 Tb3 3.230159 1_555
Cr2 Tb10 3.230167 1_555
Cr3 Tb6 3.230157 1_555
Cr3 Tb4 3.230159 1_655
Cr3 Tb11 3.230167 1_555
Cr4 Tb4 3.230157 1_555
Cr4 Tb6 3.230159 1_565
Cr4 Tb11 3.230167 1_555
Cr5 Tb3 3.230157 1_565
Cr5 Tb7 3.230159 1_555
Cr5 Tb10 3.230167 1_555
Cr6 Tb1 3.230157 1_565
Cr6 Tb5 3.230159 1_555
Cr6 Tb9 3.230167 1_555
Cr7 Tb0 3.230157 1_555
Cr7 Tb2 3.230159 1_655
Cr7 Tb8 3.230167 1_555
Cr10 Tb0 3.491750 1_555
Cr10 Tb6 3.491750 1_555
Cr11 Tb3 3.491750 1_555
Cr11 Tb1 3.491750 1_555
Cr12 Tb2 3.491750 1_555
Cr12 Tb4 3.491750 1_555
Cr13 Tb7 3.491750 1_555
Cr13 Tb5 3.491750 1_555
Cr14 Tb8 3.491750 1_555
Cr14 Tb11 3.491750 1_555
Cr15 Tb9 3.491750 1_555
Cr15 Tb10 3.491750 1_555
