# generated using pymatgen
data_Bi12Pb2Cl6O17
_symmetry_space_group_name_H-M   'P 1'
_cell_length_a   15.28480181
_cell_length_b   15.28480181
_cell_length_c   12.81038209
_cell_angle_alpha   74.20310539
_cell_angle_beta   74.20310539
_cell_angle_gamma   14.77554228
_symmetry_Int_Tables_number   1
_chemical_formula_structural   Bi12Pb2Cl6O17
_chemical_formula_sum   'Bi12 Pb2 Cl6 O17'
_cell_volume   733.94899040
_cell_formula_units_Z   1
loop_
 _symmetry_equiv_pos_site_id
 _symmetry_equiv_pos_as_xyz
  1  'x, y, z'
loop_
 _atom_site_type_symbol
 _atom_site_label
 _atom_site_symmetry_multiplicity
 _atom_site_fract_x
 _atom_site_fract_y
 _atom_site_fract_z
 _atom_site_occupancy
  Bi  Bi0  1  0.64243400  0.64243400  0.48478100  1
  Bi  Bi1  1  0.35513700  0.35513700  0.51105700  1
  Bi  Bi2  1  0.54473700  0.54473700  0.33970400  1
  Bi  Bi3  1  0.46044700  0.46044700  0.65797300  1
  Bi  Bi4  1  0.24959800  0.24959800  0.37894400  1
  Bi  Bi5  1  0.74774800  0.74774800  0.62717100  1
  Bi  Bi6  1  0.14745400  0.14745400  0.19659400  1
  Bi  Bi7  1  0.85091800  0.85091800  0.76018700  1
  Bi  Bi8  1  0.44062300  0.44062300  0.20124900  1
  Bi  Bi9  1  0.56109000  0.56109000  0.80034200  1
  Bi  Bi10  1  0.33640500  0.33640500  0.05625900  1
  Bi  Bi11  1  0.65951600  0.65951600  0.94837200  1
  Pb  Pb0  1  0.04907400  0.04907400  0.07761500  1
  Pb  Pb1  1  0.95153400  0.95153400  0.92428700  1
  Cl  Cl0  1  0.84190200  0.84190200  0.31971800  1
  Cl  Cl1  1  0.16394000  0.16394000  0.69625600  1
  Cl  Cl2  1  0.74590600  0.74590600  0.19740600  1
  Cl  Cl3  1  0.26963800  0.26963800  0.80411200  1
  Cl  Cl4  1  0.94008700  0.94008700  0.44079100  1
  Cl  Cl5  1  0.04854300  0.04854300  0.57030800  1
  O  O0  1  0.96419300  0.96419300  0.11807600  1
  O  O1  1  0.03413100  0.03413100  0.87588200  1
  O  O2  1  0.51306000  0.51306000  0.20116700  1
  O  O3  1  0.48338900  0.48338900  0.80170400  1
  O  O4  1  0.07042200  0.07042200  0.26486300  1
  O  O5  1  0.92761900  0.92761900  0.72960400  1
  O  O6  1  0.61889800  0.61889800  0.34425700  1
  O  O7  1  0.37788400  0.37788400  0.66871300  1
  O  O8  1  0.72564100  0.72564100  0.47154300  1
  O  O9  1  0.27595600  0.27595600  0.53737800  1
  O  O10  1  0.17471000  0.17471000  0.41615600  1
  O  O11  1  0.82700800  0.82700800  0.59544600  1
  O  O12  1  0.40381900  0.40381900  0.06237400  1
  O  O13  1  0.58812900  0.58812900  0.94066300  1
  O  O14  1  0.84575100  0.84575100  0.96072800  1
  O  O15  1  0.17351400  0.17351400  0.01205900  1
  O  O16  1  0.62644500  0.62644500  0.12625800  1
loop_
_geom_bond_atom_site_label_1
_geom_bond_atom_site_label_2
_geom_bond_distance
_geom_bond_site_symmetry_2
Bi0 O6 2.110658 1_555
Bi0 O10 2.262899 1_565
Bi0 O10 2.262899 1_655
Bi0 O8 2.481302 1_555
Bi1 O11 2.291826 1_455
Bi1 O11 2.291826 1_545
Bi1 O7 2.306315 1_555
Bi1 O9 2.330543 1_555
Bi1 Cl4 3.167427 1_545
Bi1 Cl4 3.167427 1_455
Bi2 O4 2.231224 1_655
Bi2 O4 2.231224 1_565
Bi2 O2 2.237740 1_555
Bi2 O6 2.264958 1_555
Bi3 O3 2.139391 1_555
Bi3 O5 2.278994 1_545
Bi3 O5 2.278994 1_455
Bi3 O7 2.468746 1_555
Bi3 Cl5 3.257287 1_565
Bi3 Cl5 3.257287 1_655
Bi4 O10 2.187990 1_555
Bi4 O8 2.307454 1_455
Bi4 O8 2.307454 1_545
Bi4 O9 2.376586 1_555
Bi4 Cl2 3.070249 1_545
Bi4 Cl2 3.070249 1_455
Bi5 O8 2.270984 1_555
Bi5 O9 2.318858 1_655
Bi5 O9 2.318858 1_565
Bi5 O11 2.324359 1_555
Bi5 Cl1 3.141127 1_565
Bi5 Cl1 3.141127 1_655
Bi5 Cl3 3.204181 1_655
Bi5 Cl3 3.204181 1_565
Bi6 O4 2.257687 1_555
Bi6 O15 2.277528 1_555
Bi6 O16 2.322776 1_545
Bi6 O16 2.322776 1_455
Bi6 O6 2.700246 1_455
Bi6 O6 2.700246 1_545
Bi7 O5 2.249479 1_555
Bi7 O7 2.319104 1_655
Bi7 O7 2.319104 1_565
Bi7 O11 2.412264 1_555
Bi7 O14 2.530494 1_555
Bi7 Cl3 3.080547 1_565
Bi7 Cl3 3.080547 1_655
Bi8 O2 2.195700 1_555
Bi8 O0 2.256226 1_545
Bi8 O0 2.256226 1_455
Bi8 O12 2.345132 1_555
Bi9 O13 2.170744 1_555
Bi9 O1 2.243413 1_565
Bi9 O1 2.243413 1_655
Bi9 O3 2.350841 1_555
Bi10 O12 2.066589 1_555
Bi10 O14 2.291351 1_454
Bi10 O14 2.291351 1_544
Bi11 O13 2.193322 1_555
Bi11 O15 2.213255 1_566
Bi11 O15 2.213255 1_656
Bi11 O16 2.223448 1_556
O0 Pb0 2.481523 1_665
O0 Pb1 2.614037 1_554
O1 Pb1 2.408746 1_445
O1 Pb0 2.743435 1_556
O2 Pb0 2.571208 1_655
O2 Pb0 2.571208 1_565
O3 Pb1 2.535487 1_455
O3 Pb1 2.535487 1_545
O4 Pb0 2.650470 1_555
O5 Pb1 2.781757 1_555
O12 Pb1 2.771189 1_454
O12 Pb1 2.771189 1_544
O13 Pb0 2.683669 1_566
O13 Pb0 2.683669 1_656
