# generated using pymatgen
data_MnCu2GeTe4
_symmetry_space_group_name_H-M   'P 1'
_cell_length_a   7.40334636
_cell_length_b   7.40334636
_cell_length_c   7.40334636
_cell_angle_alpha   131.23516615
_cell_angle_beta   131.23516615
_cell_angle_gamma   71.43971475
_symmetry_Int_Tables_number   1
_chemical_formula_structural   MnCu2GeTe4
_chemical_formula_sum   'Mn1 Cu2 Ge1 Te4'
_cell_volume   224.57869203
_cell_formula_units_Z   1
loop_
 _symmetry_equiv_pos_site_id
 _symmetry_equiv_pos_as_xyz
  1  'x, y, z'
loop_
 _atom_site_type_symbol
 _atom_site_label
 _atom_site_symmetry_multiplicity
 _atom_site_fract_x
 _atom_site_fract_y
 _atom_site_fract_z
 _atom_site_occupancy
  Mn  Mn0  1  0.00000000  0.00000000  0.00000000  1
  Cu  Cu0  1  0.25000000  0.75000000  0.50000000  1
  Cu  Cu1  1  0.75000000  0.25000000  0.50000000  1
  Ge  Ge0  1  0.50000000  0.50000000  0.00000000  1
  Te  Te0  1  0.38460000  0.88143500  0.00000000  1
  Te  Te1  1  0.88143500  0.38460000  0.00000000  1
  Te  Te2  1  0.11856500  0.11856500  0.50316500  1
  Te  Te3  1  0.61540000  0.61540000  0.49683500  1
loop_
_geom_bond_atom_site_label_1
_geom_bond_atom_site_label_2
_geom_bond_distance
_geom_bond_site_symmetry_2
Mn0 Te2 2.699386 1_555
Mn0 Te0 2.699386 1_545
Mn0 Te1 2.699386 1_455
Mn0 Te3 2.699386 1_444
Cu0 Te3 2.578420 1_555
Cu0 Te1 2.578420 1_455
Cu0 Te0 2.578420 1_556
Cu0 Te2 2.578420 1_565
Cu1 Te3 2.578420 1_555
Cu1 Te0 2.578420 1_545
Cu1 Te1 2.578420 1_556
Cu1 Te2 2.578420 1_655
Ge0 Te0 2.677392 1_555
Ge0 Te2 2.677392 1_554
Ge0 Te1 2.677392 1_555
Ge0 Te3 2.677392 1_555
