# generated using pymatgen
data_Na5Fe2P2(CO7)2
_symmetry_space_group_name_H-M   'P 1'
_cell_length_a   5.28934981
_cell_length_b   6.62957973
_cell_length_c   18.01688955
_cell_angle_alpha   88.15991727
_cell_angle_beta   89.01840808
_cell_angle_gamma   89.78090996
_symmetry_Int_Tables_number   1
_chemical_formula_structural   Na5Fe2P2(CO7)2
_chemical_formula_sum   'Na10 Fe4 P4 C4 O28'
_cell_volume   631.36140640
_cell_formula_units_Z   2
loop_
 _symmetry_equiv_pos_site_id
 _symmetry_equiv_pos_as_xyz
  1  'x, y, z'
loop_
 _atom_site_type_symbol
 _atom_site_label
 _atom_site_symmetry_multiplicity
 _atom_site_fract_x
 _atom_site_fract_y
 _atom_site_fract_z
 _atom_site_occupancy
  Na  Na0  1  0.77511500  0.23436100  0.04606300  1
  Na  Na1  1  0.76675000  0.22710800  0.54484400  1
  Na  Na2  1  0.24509600  0.48512900  0.13430000  1
  Na  Na3  1  0.24694700  0.51350000  0.62793000  1
  Na  Na4  1  0.75199600  0.48647400  0.37271100  1
  Na  Na5  1  0.74578500  0.50593200  0.86748300  1
  Na  Na6  1  0.75110500  0.99661600  0.36966200  1
  Na  Na7  1  0.74720600  0.97860600  0.86446500  1
  Na  Na8  1  0.24612300  0.76351200  0.46297500  1
  Na  Na9  1  0.24223000  0.75719300  0.96444200  1
  Fe  Fe0  1  0.77750700  0.76410900  0.67138400  1
  Fe  Fe1  1  0.21613400  0.24446500  0.82418600  1
  Fe  Fe2  1  0.78264000  0.76700400  0.17357400  1
  Fe  Fe3  1  0.22532900  0.24486400  0.32466100  1
  P  P0  1  0.70613100  0.25667400  0.20885800  1
  P  P1  1  0.71552500  0.25791400  0.71168800  1
  P  P2  1  0.27991500  0.74513300  0.28838800  1
  P  P3  1  0.28393700  0.74433500  0.79245600  1
  C  C0  1  0.72782100  0.74733500  0.03286500  1
  C  C1  1  0.72702100  0.74401600  0.52693000  1
  C  C2  1  0.27736200  0.25292200  0.46928100  1
  C  C3  1  0.27880700  0.25521700  0.96409000  1
  O  O0  1  0.31608000  0.29244300  0.03117100  1
  O  O1  1  0.30359800  0.28792700  0.53770000  1
  O  O2  1  0.95043100  0.75710400  0.06277100  1
  O  O3  1  0.94797900  0.75110600  0.55758200  1
  O  O4  1  0.53406700  0.75051400  0.07828100  1
  O  O5  1  0.52678200  0.74677300  0.56942500  1
  O  O6  1  0.77319800  0.06611000  0.16220000  1
  O  O7  1  0.76244000  0.07107200  0.66640000  1
  O  O8  1  0.78964700  0.44271500  0.15769600  1
  O  O9  1  0.78149000  0.44489100  0.66295200  1
  O  O10  1  0.12036200  0.73988800  0.21693300  1
  O  O11  1  0.14357800  0.73853000  0.71984200  1
  O  O12  1  0.41878500  0.26937700  0.22275500  1
  O  O13  1  0.43090000  0.27099100  0.73807700  1
  O  O14  1  0.56846700  0.74822000  0.26460500  1
  O  O15  1  0.57592000  0.74737600  0.78157400  1
  O  O16  1  0.84794300  0.25079900  0.28291900  1
  O  O17  1  0.86986800  0.25140100  0.78591900  1
  O  O18  1  0.22992100  0.55825300  0.33997600  1
  O  O19  1  0.21168000  0.55714800  0.84584900  1
  O  O20  1  0.21905500  0.93023800  0.33534700  1
  O  O21  1  0.20453300  0.93321900  0.83989600  1
  O  O22  1  0.47587200  0.23215200  0.42474300  1
  O  O23  1  0.46747300  0.23524100  0.91550300  1
  O  O24  1  0.05272100  0.23627500  0.43964800  1
  O  O25  1  0.05137200  0.23557500  0.93657400  1
  O  O26  1  0.70763600  0.73807900  0.45501200  1
  O  O27  1  0.70255900  0.73924600  0.96193600  1
loop_
_geom_bond_atom_site_label_1
_geom_bond_atom_site_label_2
_geom_bond_distance
_geom_bond_site_symmetry_2
Na0 O6 2.339235 1_555
Na0 O25 2.434521 1_654
Na0 O0 2.474664 1_555
Na0 O8 2.478642 1_555
Na0 O23 2.882939 1_554
Na0 O0 2.895356 1_655
Na1 O7 2.391644 1_555
Na1 O24 2.403937 1_655
Na1 O1 2.486050 1_555
Na1 O9 2.612018 1_555
Na1 O22 2.675730 1_555
Na1 O1 2.869710 1_655
Na2 O12 2.307261 1_555
Na2 O0 2.313017 1_555
Na2 O10 2.371417 1_555
Na2 O8 2.454169 1_455
Na2 O4 2.510779 1_555
Na2 O2 2.690579 1_455
Na2 O8 2.929298 1_555
Na3 O1 2.259417 1_555
Na3 O11 2.321249 1_555
Na3 O5 2.356468 1_555
Na3 O3 2.551439 1_455
Na3 O9 2.569671 1_455
Na3 O13 2.705380 1_555
Na3 O9 2.938026 1_555
Na4 O26 2.275971 1_555
Na4 O16 2.333249 1_555
Na4 O22 2.392719 1_555
Na4 O24 2.579337 1_655
Na4 O18 2.627685 1_655
Na4 O14 2.753546 1_555
Na4 O18 2.868371 1_555
Na5 O27 2.343873 1_555
Na5 O17 2.356997 1_555
Na5 O15 2.375432 1_555
Na5 O23 2.452121 1_555
Na5 O19 2.510954 1_655
Na5 O25 2.697810 1_655
Na5 O19 2.875781 1_555
Na6 O26 2.275284 1_555
Na6 O16 2.313984 1_565
Na6 O22 2.361171 1_565
Na6 O20 2.580498 1_655
Na6 O24 2.622302 1_665
Na6 O14 2.739111 1_555
Na6 O20 2.929531 1_555
Na7 O27 2.338279 1_555
Na7 O17 2.346805 1_565
Na7 O15 2.367518 1_555
Na7 O23 2.442151 1_565
Na7 O21 2.470661 1_655
Na7 O25 2.722717 1_665
Na7 O21 2.929898 1_555
Na8 O3 2.301944 1_455
Na8 O5 2.444794 1_555
Na8 O26 2.448348 1_555
Na8 O20 2.525193 1_555
Na8 O18 2.640274 1_555
Na8 O26 2.860200 1_455
Na9 O2 2.329577 1_456
Na9 O27 2.437008 1_555
Na9 O21 2.506433 1_555
Na9 O19 2.558475 1_555
Na9 O4 2.587194 1_556
Na9 O27 2.858631 1_455
Fe0 O7 2.035449 1_565
Fe0 O9 2.126585 1_555
Fe0 O11 2.141510 1_655
Fe0 O3 2.229765 1_555
Fe0 O15 2.237141 1_555
Fe0 O5 2.290119 1_555
Fe1 O13 1.910988 1_555
Fe1 O17 1.967871 1_455
Fe1 O21 2.074726 1_545
Fe1 O19 2.121629 1_555
Fe1 O23 2.132087 1_555
Fe1 O25 2.189834 1_555
Fe2 O10 1.967204 1_655
Fe2 O14 1.978141 1_555
Fe2 O6 1.987477 1_565
Fe2 O2 2.173604 1_555
Fe2 O8 2.178028 1_555
Fe2 O4 2.186048 1_555
Fe3 O12 2.088590 1_555
Fe3 O20 2.088878 1_545
Fe3 O18 2.104931 1_555
Fe3 O16 2.144901 1_455
Fe3 O24 2.248727 1_555
Fe3 O22 2.255205 1_555
C0 O27 1.290006 1_554
C0 O4 1.300953 1_555
C0 O2 1.305945 1_555
C1 O5 1.296631 1_555
C1 O3 1.302809 1_555
C1 O26 1.303403 1_555
C2 O1 1.271666 1_555
C2 O24 1.317413 1_555
C2 O22 1.320024 1_555
C3 O0 1.260221 1_556
C3 O25 1.317450 1_555
C3 O23 1.325213 1_555
O6 P0 1.575798 1_555
O7 P1 1.522271 1_555
O8 P0 1.575827 1_555
O9 P1 1.533693 1_555
O10 P2 1.552786 1_555
O11 P3 1.516896 1_555
O12 P0 1.538550 1_555
O13 P1 1.573901 1_555
O14 P2 1.578209 1_555
O15 P3 1.553585 1_555
O16 P0 1.541225 1_555
O17 P1 1.578110 1_555
O18 P2 1.545609 1_555
O19 P3 1.589290 1_555
O20 P2 1.542628 1_555
O21 P3 1.589785 1_555
