# generated using pymatgen
data_YbCoGe2
_symmetry_space_group_name_H-M   'P 1'
_cell_length_a   8.50072337
_cell_length_b   8.50072337
_cell_length_c   4.05766354
_cell_angle_alpha   90.00000000
_cell_angle_beta   90.00000000
_cell_angle_gamma   152.48478473
_symmetry_Int_Tables_number   1
_chemical_formula_structural   YbCoGe2
_chemical_formula_sum   'Yb2 Co2 Ge4'
_cell_volume   135.46118649
_cell_formula_units_Z   2
loop_
 _symmetry_equiv_pos_site_id
 _symmetry_equiv_pos_as_xyz
  1  'x, y, z'
loop_
 _atom_site_type_symbol
 _atom_site_label
 _atom_site_symmetry_multiplicity
 _atom_site_fract_x
 _atom_site_fract_y
 _atom_site_fract_z
 _atom_site_occupancy
  Yb  Yb0  1  0.88889946  0.11110054  0.75000000  1
  Yb  Yb1  1  0.11110054  0.88889946  0.25000000  1
  Co  Co0  1  0.67897577  0.32102423  0.75000000  1
  Co  Co1  1  0.32102423  0.67897577  0.25000000  1
  Ge  Ge0  1  0.54449960  0.45550040  0.75000000  1
  Ge  Ge1  1  0.45550040  0.54449960  0.25000000  1
  Ge  Ge2  1  0.25093183  0.74906817  0.75000000  1
  Ge  Ge3  1  0.74906817  0.25093183  0.25000000  1
loop_
_geom_bond_atom_site_label_1
_geom_bond_atom_site_label_2
_geom_bond_distance
_geom_bond_site_symmetry_2
Co0 Ge0 2.220697 1_555
Co0 Ge3 2.335793 1_555
Co0 Ge3 2.335793 1_556
Co0 Ge2 2.344956 1_655
Co0 Ge2 2.344956 1_545
Co0 Yb1 3.075609 1_655
Co0 Yb1 3.075609 1_656
Co0 Yb1 3.075609 1_545
Co0 Yb1 3.075609 1_546
Co1 Ge1 2.220697 1_555
Co1 Ge2 2.335793 1_554
Co1 Ge2 2.335793 1_555
Co1 Ge3 2.344956 1_565
Co1 Ge3 2.344956 1_455
Co1 Yb0 3.075609 1_565
Co1 Yb0 3.075609 1_564
Co1 Yb0 3.075609 1_455
Co1 Yb0 3.075609 1_454
Ge0 Ge1 2.505232 1_555
Ge0 Ge1 2.505232 1_556
Ge0 Yb1 3.068002 1_655
Ge0 Yb1 3.068002 1_656
Ge0 Yb1 3.068002 1_546
Ge0 Yb1 3.068002 1_545
Ge0 Yb0 3.269457 1_455
Ge0 Yb0 3.269457 1_565
Ge1 Yb0 3.068002 1_565
Ge1 Yb0 3.068002 1_455
Ge1 Yb0 3.068002 1_454
Ge1 Yb0 3.068002 1_564
Ge1 Yb1 3.269457 1_655
Ge1 Yb1 3.269457 1_545
Ge2 Yb0 3.045941 1_455
Ge2 Yb0 3.045941 1_565
Ge2 Yb1 3.073799 1_556
Ge2 Yb1 3.073799 1_555
Ge3 Yb1 3.045941 1_545
Ge3 Yb1 3.045941 1_655
Ge3 Yb0 3.073799 1_555
Ge3 Yb0 3.073799 1_554
