# generated using pymatgen
data_Sr8Mn6Cu4S4O15
_symmetry_space_group_name_H-M   'P 1'
_cell_length_a   17.56350054
_cell_length_b   17.56350054
_cell_length_c   5.58498271
_cell_angle_alpha   89.94611403
_cell_angle_beta   89.94611403
_cell_angle_gamma   161.70269875
_symmetry_Int_Tables_number   1
_chemical_formula_structural   Sr8Mn6Cu4S4O15
_chemical_formula_sum   'Sr8 Mn6 Cu4 S4 O15'
_cell_volume   540.87106267
_cell_formula_units_Z   1
loop_
 _symmetry_equiv_pos_site_id
 _symmetry_equiv_pos_as_xyz
  1  'x, y, z'
loop_
 _atom_site_type_symbol
 _atom_site_label
 _atom_site_symmetry_multiplicity
 _atom_site_fract_x
 _atom_site_fract_y
 _atom_site_fract_z
 _atom_site_occupancy
  Sr  Sr0  1  0.31577900  0.20009800  0.25786800  1
  Sr  Sr1  1  0.79990200  0.68422100  0.74213200  1
  Sr  Sr2  1  0.68422100  0.79990200  0.74213200  1
  Sr  Sr3  1  0.20009800  0.31577900  0.25786800  1
  Sr  Sr4  1  0.41821500  0.08610200  0.25215300  1
  Sr  Sr5  1  0.91389800  0.58178500  0.74784700  1
  Sr  Sr6  1  0.58178500  0.91389800  0.74784700  1
  Sr  Sr7  1  0.08610200  0.41821500  0.25215300  1
  Mn  Mn0  1  0.35969700  0.13272300  0.75376500  1
  Mn  Mn1  1  0.86727700  0.64030300  0.24623500  1
  Mn  Mn2  1  0.64030300  0.86727700  0.24623500  1
  Mn  Mn3  1  0.13272300  0.35969700  0.75376500  1
  Mn  Mn4  1  0.74331700  0.74331700  0.25674600  1
  Mn  Mn5  1  0.25668300  0.25668300  0.74325400  1
  Cu  Cu0  1  0.25010200  0.74989800  0.00000000  1
  Cu  Cu1  1  0.75016600  0.24983400  0.50000000  1
  Cu  Cu2  1  0.74989800  0.25010200  0.00000000  1
  Cu  Cu3  1  0.24983400  0.75016600  0.50000000  1
  S  S0  1  0.46061000  0.04059000  0.74972600  1
  S  S1  1  0.95941000  0.53939000  0.25027400  1
  S  S2  1  0.53939000  0.95941000  0.25027400  1
  S  S3  1  0.04059000  0.46061000  0.74972600  1
  O  O0  1  0.27450000  0.16511500  0.78020800  1
  O  O1  1  0.83488500  0.72550000  0.21979200  1
  O  O2  1  0.72550000  0.83488500  0.21979200  1
  O  O3  1  0.16511500  0.27450000  0.78020800  1
  O  O4  1  0.12365500  0.87634500  0.00000000  1
  O  O5  1  0.61679500  0.38320500  0.50000000  1
  O  O6  1  0.62057900  0.37942100  0.00000000  1
  O  O7  1  0.12059800  0.87940200  0.50000000  1
  O  O8  1  0.87634500  0.12365500  0.00000000  1
  O  O9  1  0.38320500  0.61679500  0.50000000  1
  O  O10  1  0.37942100  0.62057900  0.00000000  1
  O  O11  1  0.87940200  0.12059800  0.50000000  1
  O  O12  1  0.50000000  0.50000000  0.50000000  1
  O  O13  1  0.00000000  0.00000000  0.50000000  1
  O  O14  1  0.50000000  0.50000000  0.00000000  1
loop_
_geom_bond_atom_site_label_1
_geom_bond_atom_site_label_2
_geom_bond_distance
_geom_bond_site_symmetry_2
Mn0 O4 1.970812 1_546
Mn0 O7 1.995854 1_545
Mn0 O6 1.995971 1_556
Mn0 O5 2.001794 1_555
Mn0 O0 2.049592 1_555
Mn1 O4 1.970812 1_655
Mn1 O7 1.995854 1_655
Mn1 O6 1.995971 1_555
Mn1 O5 2.001794 1_555
Mn1 O1 2.049592 1_555
Mn2 O8 1.970812 1_565
Mn2 O11 1.995854 1_565
Mn2 O10 1.995971 1_555
Mn2 O9 2.001794 1_555
Mn2 O2 2.049592 1_555
Mn3 O8 1.970812 1_456
Mn3 O11 1.995854 1_455
Mn3 O10 1.995971 1_556
Mn3 O9 2.001794 1_555
Mn3 O3 2.049592 1_555
Mn4 O12 1.915879 1_555
Mn4 O2 1.918893 1_555
Mn4 O1 1.918893 1_555
Mn4 O13 1.980893 1_665
Mn4 O14 1.981390 1_555
Mn5 O12 1.915879 1_555
Mn5 O3 1.918893 1_555
Mn5 O0 1.918893 1_555
Mn5 O13 1.980893 1_555
Mn5 O14 1.981390 1_556
Cu0 S0 2.413041 1_564
Cu0 S1 2.413041 1_455
Cu0 S2 2.414665 1_555
Cu0 S3 2.414665 1_554
Cu1 S1 2.408702 1_555
Cu1 S0 2.408702 1_555
Cu1 S3 2.415512 1_655
Cu1 S2 2.415512 1_545
Cu2 S3 2.413041 1_654
Cu2 S2 2.413041 1_545
Cu2 S0 2.414665 1_554
Cu2 S1 2.414665 1_555
Cu3 S2 2.408702 1_555
Cu3 S3 2.408702 1_555
Cu3 S0 2.415512 1_565
Cu3 S1 2.415512 1_455
S0 Sr5 3.167923 1_555
S0 Sr4 3.169513 1_555
S0 Sr4 3.193398 1_556
S0 Sr5 3.195078 1_445
S1 Sr4 3.167923 1_555
S1 Sr5 3.169513 1_555
S1 Sr5 3.193398 1_554
S1 Sr4 3.195078 1_665
S2 Sr7 3.167923 1_555
S2 Sr6 3.169513 1_555
S2 Sr6 3.193398 1_554
S2 Sr7 3.195078 1_665
S3 Sr6 3.167923 1_555
S3 Sr7 3.169513 1_555
S3 Sr7 3.193398 1_556
S3 Sr6 3.195078 1_445
O0 Sr0 2.679690 1_556
O0 Sr1 2.680183 1_445
O0 Sr1 2.925349 1_555
O0 Sr0 2.925804 1_555
O1 Sr1 2.679690 1_554
O1 Sr0 2.680183 1_665
O1 Sr0 2.925349 1_555
O1 Sr1 2.925804 1_555
O2 Sr2 2.679690 1_554
O2 Sr3 2.680183 1_665
O2 Sr3 2.925349 1_555
O2 Sr2 2.925804 1_555
O3 Sr3 2.679690 1_556
O3 Sr2 2.680183 1_445
O3 Sr2 2.925349 1_555
O3 Sr3 2.925804 1_555
O4 Sr5 2.480404 1_454
O4 Sr4 2.480404 1_565
O4 Sr1 3.063272 1_454
O4 Sr0 3.063272 1_565
O5 Sr5 2.602575 1_555
O5 Sr4 2.602575 1_555
O5 Sr0 2.803258 1_555
O5 Sr1 2.803258 1_555
O6 Sr4 2.522630 1_555
O6 Sr5 2.522630 1_554
O6 Sr1 2.934765 1_554
O6 Sr0 2.934765 1_555
O7 Sr5 2.522252 1_455
O7 Sr4 2.522252 1_565
O7 Sr1 2.935627 1_455
O7 Sr0 2.935627 1_565
O8 Sr6 2.480404 1_544
O8 Sr7 2.480404 1_655
O8 Sr2 3.063272 1_544
O8 Sr3 3.063272 1_655
O9 Sr7 2.602575 1_555
O9 Sr6 2.602575 1_555
O9 Sr3 2.803258 1_555
O9 Sr2 2.803258 1_555
O10 Sr7 2.522630 1_555
O10 Sr6 2.522630 1_554
O10 Sr2 2.934765 1_554
O10 Sr3 2.934765 1_555
O11 Sr6 2.522252 1_545
O11 Sr7 2.522252 1_655
O11 Sr2 2.935627 1_545
O11 Sr3 2.935627 1_655
O12 Sr0 2.775207 1_555
O12 Sr3 2.775207 1_555
O12 Sr1 2.775207 1_555
O12 Sr2 2.775207 1_555
O13 Sr3 2.811534 1_555
O13 Sr0 2.811534 1_555
O13 Sr2 2.811534 1_445
O13 Sr1 2.811534 1_445
O14 Sr0 2.811144 1_555
O14 Sr3 2.811144 1_555
O14 Sr1 2.811144 1_554
O14 Sr2 2.811144 1_554
