# generated using pymatgen
data_HoHg2
_symmetry_space_group_name_H-M   'P 1'
_cell_length_a   9.74747950
_cell_length_b   9.74747909
_cell_length_c   6.87692566
_cell_angle_alpha   90.00000000
_cell_angle_beta   90.00000000
_cell_angle_gamma   120.00000133
_symmetry_Int_Tables_number   1
_chemical_formula_structural   HoHg2
_chemical_formula_sum   'Ho8 Hg16'
_cell_volume   565.86078553
_cell_formula_units_Z   8
loop_
 _symmetry_equiv_pos_site_id
 _symmetry_equiv_pos_as_xyz
  1  'x, y, z'
loop_
 _atom_site_type_symbol
 _atom_site_label
 _atom_site_symmetry_multiplicity
 _atom_site_fract_x
 _atom_site_fract_y
 _atom_site_fract_z
 _atom_site_occupancy
  Ho  Ho0_0  1  0.00000000  0.00000000  0.00000000  1
  Ho  Ho0_1  1  0.00000000  0.00000000  0.50000000  1
  Ho  Ho0_2  1  0.00000000  0.50000000  0.00000000  1
  Ho  Ho0_3  1  0.00000000  0.50000000  0.50000000  1
  Ho  Ho0_4  1  0.50000000  0.00000000  0.00000000  1
  Ho  Ho0_5  1  0.50000000  0.00000000  0.50000000  1
  Ho  Ho0_6  1  0.50000000  0.50000000  0.00000000  1
  Ho  Ho0_7  1  0.50000000  0.50000000  0.50000000  1
  Hg  Hg0_0  1  0.33333350  0.16666650  0.25000000  1
  Hg  Hg0_1  1  0.33333350  0.16666650  0.75000000  1
  Hg  Hg0_2  1  0.33333350  0.66666650  0.25000000  1
  Hg  Hg0_3  1  0.33333350  0.66666650  0.75000000  1
  Hg  Hg0_4  1  0.83333350  0.16666650  0.25000000  1
  Hg  Hg0_5  1  0.83333350  0.16666650  0.75000000  1
  Hg  Hg0_6  1  0.83333350  0.66666650  0.25000000  1
  Hg  Hg0_7  1  0.83333350  0.66666650  0.75000000  1
  Hg  Hg1_0  1  0.16666650  0.33333350  0.25000000  1
  Hg  Hg1_1  1  0.16666650  0.33333350  0.75000000  1
  Hg  Hg1_2  1  0.16666650  0.83333350  0.25000000  1
  Hg  Hg1_3  1  0.16666650  0.83333350  0.75000000  1
  Hg  Hg1_4  1  0.66666650  0.33333350  0.25000000  1
  Hg  Hg1_5  1  0.66666650  0.33333350  0.75000000  1
  Hg  Hg1_6  1  0.66666650  0.83333350  0.25000000  1
  Hg  Hg1_7  1  0.66666650  0.83333350  0.75000000  1
loop_
_geom_bond_atom_site_label_1
_geom_bond_atom_site_label_2
_geom_bond_distance
_geom_bond_site_symmetry_2
Ho0_0 Ho0_1 3.438463 1_555
Ho0_0 Ho0_1 3.438463 1_554
Ho0_2 Ho0_3 3.438463 1_555
Ho0_2 Ho0_3 3.438463 1_554
Ho0_4 Ho0_5 3.438463 1_555
Ho0_4 Ho0_5 3.438463 1_554
Ho0_6 Ho0_7 3.438463 1_555
Ho0_6 Ho0_7 3.438463 1_554
Hg0_0 Hg1_2 2.813852 1_545
Hg0_0 Hg1_4 2.813852 1_555
Hg0_0 Hg1_0 2.813861 1_555
Hg0_0 Ho0_4 3.297502 1_555
Hg0_0 Ho0_5 3.297502 1_555
Hg0_0 Ho0_7 3.297506 1_555
Hg0_0 Ho0_6 3.297506 1_555
Hg0_0 Ho0_0 3.297506 1_555
Hg0_0 Ho0_1 3.297506 1_555
Hg0_1 Hg1_3 2.813852 1_545
Hg0_1 Hg1_5 2.813852 1_555
Hg0_1 Hg1_1 2.813861 1_555
Hg0_1 Ho0_5 3.297502 1_555
Hg0_1 Ho0_4 3.297502 1_556
Hg0_1 Ho0_7 3.297506 1_555
Hg0_1 Ho0_6 3.297506 1_556
Hg0_1 Ho0_1 3.297506 1_555
Hg0_1 Ho0_0 3.297506 1_556
Hg0_2 Hg1_0 2.813852 1_555
Hg0_2 Hg1_6 2.813852 1_555
Hg0_2 Hg1_2 2.813861 1_555
Hg0_2 Ho0_6 3.297502 1_555
Hg0_2 Ho0_7 3.297502 1_555
Hg0_2 Ho0_4 3.297506 1_565
Hg0_2 Ho0_5 3.297506 1_565
Hg0_2 Ho0_3 3.297506 1_555
Hg0_2 Ho0_2 3.297506 1_555
Hg0_3 Hg1_1 2.813852 1_555
Hg0_3 Hg1_7 2.813852 1_555
Hg0_3 Hg1_3 2.813861 1_555
Hg0_3 Ho0_7 3.297502 1_555
Hg0_3 Ho0_6 3.297502 1_556
Hg0_3 Ho0_5 3.297506 1_565
Hg0_3 Ho0_4 3.297506 1_566
Hg0_3 Ho0_3 3.297506 1_555
Hg0_3 Ho0_2 3.297506 1_556
Hg0_4 Hg1_6 2.813852 1_545
Hg0_4 Hg1_0 2.813852 1_655
Hg0_4 Hg1_4 2.813861 1_555
Hg0_4 Ho0_0 3.297502 1_655
Hg0_4 Ho0_1 3.297502 1_655
Hg0_4 Ho0_2 3.297506 1_655
Hg0_4 Ho0_3 3.297506 1_655
Hg0_4 Ho0_5 3.297506 1_555
Hg0_4 Ho0_4 3.297506 1_555
Hg0_5 Hg1_7 2.813852 1_545
Hg0_5 Hg1_1 2.813852 1_655
Hg0_5 Hg1_5 2.813861 1_555
Hg0_5 Ho0_1 3.297502 1_655
Hg0_5 Ho0_0 3.297502 1_656
Hg0_5 Ho0_3 3.297506 1_655
Hg0_5 Ho0_2 3.297506 1_656
Hg0_5 Ho0_5 3.297506 1_555
Hg0_5 Ho0_4 3.297506 1_556
Hg0_6 Hg1_4 2.813852 1_555
Hg0_6 Hg1_2 2.813852 1_655
Hg0_6 Hg1_6 2.813861 1_555
Hg0_6 Ho0_2 3.297502 1_655
Hg0_6 Ho0_3 3.297502 1_655
Hg0_6 Ho0_0 3.297506 1_665
Hg0_6 Ho0_1 3.297506 1_665
Hg0_6 Ho0_7 3.297506 1_555
Hg0_6 Ho0_6 3.297506 1_555
Hg0_7 Hg1_5 2.813852 1_555
Hg0_7 Hg1_3 2.813852 1_655
Hg0_7 Hg1_7 2.813861 1_555
Hg0_7 Ho0_3 3.297502 1_655
Hg0_7 Ho0_2 3.297502 1_656
Hg0_7 Ho0_1 3.297506 1_665
Hg0_7 Ho0_0 3.297506 1_666
Hg0_7 Ho0_7 3.297506 1_555
Hg0_7 Ho0_6 3.297506 1_556
Hg1_0 Ho0_2 3.297502 1_555
Hg1_0 Ho0_3 3.297502 1_555
Hg1_0 Ho0_0 3.297506 1_555
Hg1_0 Ho0_1 3.297506 1_555
Hg1_0 Ho0_6 3.297506 1_555
Hg1_0 Ho0_7 3.297506 1_555
Hg1_1 Ho0_3 3.297502 1_555
Hg1_1 Ho0_2 3.297502 1_556
Hg1_1 Ho0_1 3.297506 1_555
Hg1_1 Ho0_0 3.297506 1_556
Hg1_1 Ho0_7 3.297506 1_555
Hg1_1 Ho0_6 3.297506 1_556
Hg1_2 Ho0_0 3.297502 1_565
Hg1_2 Ho0_1 3.297502 1_565
Hg1_2 Ho0_3 3.297506 1_555
Hg1_2 Ho0_2 3.297506 1_555
Hg1_2 Ho0_4 3.297506 1_565
Hg1_2 Ho0_5 3.297506 1_565
Hg1_3 Ho0_1 3.297502 1_565
Hg1_3 Ho0_0 3.297502 1_566
Hg1_3 Ho0_3 3.297506 1_555
Hg1_3 Ho0_2 3.297506 1_556
Hg1_3 Ho0_5 3.297506 1_565
Hg1_3 Ho0_4 3.297506 1_566
Hg1_4 Ho0_7 3.297502 1_555
Hg1_4 Ho0_6 3.297502 1_555
Hg1_4 Ho0_5 3.297506 1_555
Hg1_4 Ho0_4 3.297506 1_555
Hg1_4 Ho0_2 3.297506 1_655
Hg1_4 Ho0_3 3.297506 1_655
Hg1_5 Ho0_7 3.297502 1_555
Hg1_5 Ho0_6 3.297502 1_556
Hg1_5 Ho0_5 3.297506 1_555
Hg1_5 Ho0_4 3.297506 1_556
Hg1_5 Ho0_3 3.297506 1_655
Hg1_5 Ho0_2 3.297506 1_656
Hg1_6 Ho0_4 3.297502 1_565
Hg1_6 Ho0_5 3.297502 1_565
Hg1_6 Ho0_7 3.297506 1_555
Hg1_6 Ho0_6 3.297506 1_555
Hg1_6 Ho0_0 3.297506 1_665
Hg1_6 Ho0_1 3.297506 1_665
Hg1_7 Ho0_5 3.297502 1_565
Hg1_7 Ho0_4 3.297502 1_566
Hg1_7 Ho0_7 3.297506 1_555
Hg1_7 Ho0_6 3.297506 1_556
Hg1_7 Ho0_1 3.297506 1_665
Hg1_7 Ho0_0 3.297506 1_666
