# generated using pymatgen
data_Rb2AgMoCl6
_symmetry_space_group_name_H-M   'P 1'
_cell_length_a   7.36299543
_cell_length_b   7.36299543
_cell_length_c   7.36299543
_cell_angle_alpha   60.00000000
_cell_angle_beta   60.00000000
_cell_angle_gamma   60.00000000
_symmetry_Int_Tables_number   1
_chemical_formula_structural   Rb2AgMoCl6
_chemical_formula_sum   'Rb2 Ag1 Mo1 Cl6'
_cell_volume   282.25951784
_cell_formula_units_Z   1
loop_
 _symmetry_equiv_pos_site_id
 _symmetry_equiv_pos_as_xyz
  1  'x, y, z'
loop_
 _atom_site_type_symbol
 _atom_site_label
 _atom_site_symmetry_multiplicity
 _atom_site_fract_x
 _atom_site_fract_y
 _atom_site_fract_z
 _atom_site_occupancy
  Rb  Rb0  1  0.75000000  0.75000000  0.75000000  1
  Rb  Rb1  1  0.25000000  0.25000000  0.25000000  1
  Ag  Ag0  1  0.50000000  0.50000000  0.50000000  1
  Mo  Mo0  1  0.00000000  0.00000000  0.00000000  1
  Cl  Cl0  1  0.76278400  0.23721600  0.23721600  1
  Cl  Cl1  1  0.23721600  0.23721600  0.76278400  1
  Cl  Cl2  1  0.23721600  0.76278400  0.76278400  1
  Cl  Cl3  1  0.23721600  0.76278400  0.23721600  1
  Cl  Cl4  1  0.76278400  0.23721600  0.76278400  1
  Cl  Cl5  1  0.76278400  0.76278400  0.23721600  1
loop_
_geom_bond_atom_site_label_1
_geom_bond_atom_site_label_2
_geom_bond_distance
_geom_bond_site_symmetry_2
Ag0 Cl4 2.736330 1_555
Ag0 Cl5 2.736330 1_555
Ag0 Cl2 2.736330 1_555
Ag0 Cl1 2.736330 1_555
Ag0 Cl0 2.736330 1_555
Ag0 Cl3 2.736330 1_555
Cl0 Mo0 2.470094 1_655
Cl0 Rb1 3.683904 1_555
Cl0 Rb0 3.683904 1_554
Cl0 Rb0 3.683904 1_545
Cl0 Rb1 3.683904 1_655
Cl1 Mo0 2.470094 1_556
Cl1 Rb1 3.683904 1_555
Cl1 Rb0 3.683904 1_455
Cl1 Rb0 3.683904 1_545
Cl1 Rb1 3.683904 1_556
Cl2 Mo0 2.470094 1_566
Cl2 Rb0 3.683904 1_455
Cl2 Rb1 3.683904 1_556
Cl2 Rb1 3.683904 1_565
Cl2 Rb0 3.683904 1_555
Cl3 Mo0 2.470094 1_565
Cl3 Rb1 3.683904 1_555
Cl3 Rb0 3.683904 1_554
Cl3 Rb0 3.683904 1_455
Cl3 Rb1 3.683904 1_565
Cl4 Mo0 2.470094 1_656
Cl4 Rb0 3.683904 1_545
Cl4 Rb1 3.683904 1_556
Cl4 Rb1 3.683904 1_655
Cl4 Rb0 3.683904 1_555
Cl5 Mo0 2.470094 1_665
Cl5 Rb0 3.683904 1_554
Cl5 Rb1 3.683904 1_565
Cl5 Rb1 3.683904 1_655
Cl5 Rb0 3.683904 1_555
