# generated using pymatgen
data_Lu5Pb3
_symmetry_space_group_name_H-M   'P 1'
_cell_length_a   6.50258800
_cell_length_b   8.86842445
_cell_length_c   8.86592080
_cell_angle_alpha   120.00933948
_cell_angle_beta   90.00000000
_cell_angle_gamma   90.00000000
_symmetry_Int_Tables_number   1
_chemical_formula_structural   Lu5Pb3
_chemical_formula_sum   'Lu10 Pb6'
_cell_volume   442.73750025
_cell_formula_units_Z   2
loop_
 _symmetry_equiv_pos_site_id
 _symmetry_equiv_pos_as_xyz
  1  'x, y, z'
loop_
 _atom_site_type_symbol
 _atom_site_label
 _atom_site_symmetry_multiplicity
 _atom_site_fract_x
 _atom_site_fract_y
 _atom_site_fract_z
 _atom_site_occupancy
  Lu  Lu0  1  0.75001500  0.23638900  0.00000000  1
  Lu  Lu1  1  0.75000100  0.76364500  0.76360200  1
  Lu  Lu2  1  0.75000100  0.00004400  0.23639800  1
  Lu  Lu3  1  0.25001500  0.76361100  0.00000000  1
  Lu  Lu4  1  0.25000100  0.23635500  0.23639800  1
  Lu  Lu5  1  0.25000100  0.99995600  0.76360200  1
  Lu  Lu6  1  0.49999500  0.33331000  0.66668700  1
  Lu  Lu7  1  0.49999500  0.66662300  0.33331300  1
  Lu  Lu8  1  0.99999500  0.66669000  0.33331300  1
  Lu  Lu9  1  0.99999500  0.33337700  0.66668700  1
  Pb  Pb0  1  0.74998700  0.60505000  0.00000000  1
  Pb  Pb1  1  0.75000300  0.39493900  0.39499400  1
  Pb  Pb2  1  0.75000300  0.99994600  0.60500600  1
  Pb  Pb3  1  0.24998700  0.39495000  0.00000000  1
  Pb  Pb4  1  0.25000300  0.60506100  0.60500600  1
  Pb  Pb5  1  0.25000300  0.00005400  0.39499400  1
loop_
_geom_bond_atom_site_label_1
_geom_bond_atom_site_label_2
_geom_bond_distance
_geom_bond_site_symmetry_2
Lu0 Pb2 3.052129 1_544
Lu0 Pb1 3.052130 1_555
Lu0 Pb0 3.269442 1_555
Lu0 Pb3 3.542187 1_655
Lu0 Pb3 3.542521 1_555
Lu1 Pb2 3.052246 1_555
Lu1 Pb0 3.052805 1_556
Lu1 Pb1 3.268484 1_555
Lu1 Pb4 3.542287 1_555
Lu1 Pb4 3.542311 1_655
Lu2 Pb1 3.052230 1_555
Lu2 Pb0 3.052812 1_545
Lu2 Pb2 3.268484 1_545
Lu2 Pb5 3.542290 1_555
Lu2 Pb5 3.542314 1_655
Lu3 Pb5 3.052129 1_565
Lu3 Pb4 3.052130 1_554
Lu3 Pb3 3.269442 1_555
Lu3 Pb0 3.542187 1_555
Lu3 Pb0 3.542521 1_455
Lu4 Pb5 3.052246 1_555
Lu4 Pb3 3.052805 1_555
Lu4 Pb4 3.268484 1_555
Lu4 Pb1 3.542287 1_455
Lu4 Pb1 3.542311 1_555
Lu5 Pb4 3.052230 1_555
Lu5 Pb3 3.052812 1_566
Lu5 Pb5 3.268484 1_565
Lu5 Pb2 3.542290 1_455
Lu5 Pb2 3.542314 1_555
Lu6 Pb5 3.171514 1_555
Lu6 Pb3 3.171533 1_556
Lu6 Pb0 3.171654 1_556
Lu6 Pb1 3.171890 1_555
Lu6 Pb2 3.172560 1_545
Lu6 Pb4 3.173016 1_555
Lu7 Pb4 3.171509 1_555
Lu7 Pb3 3.171533 1_555
Lu7 Pb0 3.171654 1_555
Lu7 Pb2 3.171895 1_555
Lu7 Pb1 3.172567 1_555
Lu7 Pb5 3.173009 1_565
Lu8 Pb2 3.171514 1_555
Lu8 Pb0 3.171533 1_555
Lu8 Pb3 3.171654 1_655
Lu8 Pb4 3.171890 1_655
Lu8 Pb5 3.172560 1_665
Lu8 Pb1 3.173016 1_555
Lu9 Pb1 3.171509 1_555
Lu9 Pb0 3.171533 1_556
Lu9 Pb3 3.171654 1_656
Lu9 Pb5 3.171895 1_655
Lu9 Pb4 3.172567 1_655
Lu9 Pb2 3.173009 1_545
