# generated using pymatgen
data_Rb4MgU4Cr4O24
_symmetry_space_group_name_H-M   'P 1'
_cell_length_a   7.19989606
_cell_length_b   8.64754035
_cell_length_c   10.40677431
_cell_angle_alpha   89.22018527
_cell_angle_beta   103.67702050
_cell_angle_gamma   88.72178270
_symmetry_Int_Tables_number   1
_chemical_formula_structural   Rb4MgU4Cr4O24
_chemical_formula_sum   'Rb4 Mg1 U4 Cr4 O24'
_cell_volume   629.29167016
_cell_formula_units_Z   1
loop_
 _symmetry_equiv_pos_site_id
 _symmetry_equiv_pos_as_xyz
  1  'x, y, z'
loop_
 _atom_site_type_symbol
 _atom_site_label
 _atom_site_symmetry_multiplicity
 _atom_site_fract_x
 _atom_site_fract_y
 _atom_site_fract_z
 _atom_site_occupancy
  Rb  Rb0  1  0.95752638  0.68019723  0.59491319  1
  Rb  Rb1  1  0.08148437  0.33543238  0.89705386  1
  Rb  Rb2  1  0.96979104  0.74540407  0.13739233  1
  Rb  Rb3  1  0.02596664  0.23518463  0.36497092  1
  Mg  Mg0  1  0.95264424  0.99988467  0.75525558  1
  U  U0  1  0.49068369  0.47617613  0.67683448  1
  U  U1  1  0.50306610  0.97778180  0.82505181  1
  U  U2  1  0.51014102  0.51990081  0.31970735  1
  U  U3  1  0.48586285  0.02393609  0.17823125  1
  Cr  Cr0  1  0.59430342  0.14203902  0.55556841  1
  Cr  Cr1  1  0.40075525  0.65183238  0.94310087  1
  Cr  Cr2  1  0.39840694  0.85490278  0.45222825  1
  Cr  Cr3  1  0.60160777  0.35571259  0.04830360  1
  O  O0  1  0.84377908  0.11437528  0.59408986  1
  O  O1  1  0.16008822  0.65317092  0.92508443  1
  O  O2  1  0.17135522  0.86314355  0.44508765  1
  O  O3  1  0.83012445  0.35919405  0.06311649  1
  O  O4  1  0.52171380  0.20234110  0.70590702  1
  O  O5  1  0.45629803  0.71774150  0.78625371  1
  O  O6  1  0.43743291  0.79502439  0.29084611  1
  O  O7  1  0.55096919  0.29049782  0.20475175  1
  O  O8  1  0.22917573  0.45150777  0.61896893  1
  O  O9  1  0.78325973  0.95746817  0.86983793  1
  O  O10  1  0.77226992  0.54802560  0.36293378  1
  O  O11  1  0.22552151  0.06173260  0.12191319  1
  O  O12  1  0.74608269  0.98935160  0.23687645  1
  O  O13  1  0.24944914  0.49143492  0.26924573  1
  O  O14  1  0.22520807  0.00541496  0.77750487  1
  O  O15  1  0.75194091  0.49409775  0.73887840  1
  O  O16  1  0.54345810  0.55992359  0.10195131  1
  O  O17  1  0.45148275  0.06079756  0.39816312  1
  O  O18  1  0.54620223  0.35343283  0.49209984  1
  O  O19  1  0.54774727  0.92718429  0.61312635  1
  O  O20  1  0.52665448  0.15658779  0.98493509  1
  O  O21  1  0.48349550  0.65559651  0.51011611  1
  O  O22  1  0.47891179  0.85919859  0.00653275  1
  O  O23  1  0.44884057  0.43436927  0.88941621  1
loop_
_geom_bond_atom_site_label_1
_geom_bond_atom_site_label_2
_geom_bond_distance
_geom_bond_site_symmetry_2
Mg0 O14 1.922666 1_665
Mg0 O0 1.925133 1_565
Mg0 O9 1.933777 1_555
Mg0 Rb1 3.323708 1_665
Cr0 O0 1.755553 1_555
Cr0 O4 1.841084 1_555
Cr0 O17 1.871164 1_555
Cr0 O18 1.930968 1_555
Cr0 O19 2.003903 1_545
Cr1 O1 1.698003 1_555
Cr1 O5 1.855427 1_555
Cr1 O16 1.882745 1_556
Cr1 O22 1.967126 1_556
Cr1 O23 2.014787 1_555
Cr2 O2 1.618708 1_555
Cr2 O6 1.846083 1_555
Cr2 O21 1.859789 1_555
Cr2 O19 1.886163 1_555
Cr2 O17 1.933257 1_565
Cr3 O3 1.616807 1_555
Cr3 O7 1.834839 1_555
Cr3 O23 1.866140 1_554
Cr3 O20 1.896119 1_554
Cr3 O16 1.926099 1_555
O0 Rb3 3.157493 1_655
O1 Rb1 2.822786 1_555
O1 Rb2 2.970820 1_456
O2 Rb0 2.912187 1_455
O2 Rb2 3.369478 1_455
O2 Rb3 3.391983 1_565
O3 Rb1 2.788579 1_654
O3 Rb3 3.279079 1_655
O3 Rb2 3.551796 1_555
O4 U1 2.313255 1_545
O4 U0 2.381975 1_555
O5 U1 2.308095 1_555
O5 U0 2.428296 1_555
O6 U3 2.361033 1_565
O6 U2 2.423881 1_555
O6 Rb2 3.407534 1_455
O7 U3 2.369336 1_555
O7 U2 2.378617 1_555
O7 Rb3 3.451602 1_655
O8 U0 1.854299 1_555
O8 Rb0 2.716861 1_455
O8 Rb3 3.324886 1_555
O8 Rb1 3.455017 1_555
O9 U1 1.963458 1_555
O9 Rb2 3.301838 1_556
O10 U2 1.856175 1_555
O10 Rb0 2.744808 1_555
O10 Rb3 3.227262 1_655
O10 Rb2 3.467372 1_555
O11 U3 1.847094 1_555
O11 Rb1 3.278013 1_554
O11 Rb2 3.354374 1_445
O11 Rb3 3.526751 1_555
O12 U3 1.844297 1_565
O12 Rb2 2.968630 1_555
O12 Rb3 3.058589 1_665
O13 U2 1.848605 1_555
O13 Rb2 3.028948 1_455
O13 Rb3 3.057582 1_555
O14 U1 1.952299 1_545
O14 Rb1 3.367007 1_555
O15 U0 1.849473 1_555
O15 Rb0 2.848655 1_555
O15 Rb1 2.857990 1_655
O16 U2 2.356296 1_555
O16 Rb2 3.439654 1_555
O17 U3 2.384462 1_555
O17 Rb3 3.325473 1_555
O18 U2 2.247454 1_555
O18 U0 2.320002 1_555
O19 U1 2.348297 1_555
O20 U1 2.266330 1_545
O20 U3 2.383321 1_556
O20 Rb1 3.443194 1_555
O21 U0 2.302363 1_555
O21 U2 2.360779 1_555
O22 U1 2.181579 1_554
O22 U3 2.292346 1_565
O22 Rb2 3.584175 1_555
O23 U0 2.326792 1_555
O23 Rb1 2.816462 1_555
