# generated using pymatgen
data_Pr6Mg(GeS7)2
_symmetry_space_group_name_H-M   'P 1'
_cell_length_a   10.29819340
_cell_length_b   10.29819340
_cell_length_c   5.80273160
_cell_angle_alpha   90.00000000
_cell_angle_beta   90.00000000
_cell_angle_gamma   119.99999655
_symmetry_Int_Tables_number   1
_chemical_formula_structural   Pr6Mg(GeS7)2
_chemical_formula_sum   'Pr6 Mg1 Ge2 S14'
_cell_volume   532.94846711
_cell_formula_units_Z   1
loop_
 _symmetry_equiv_pos_site_id
 _symmetry_equiv_pos_as_xyz
  1  'x, y, z'
loop_
 _atom_site_type_symbol
 _atom_site_label
 _atom_site_symmetry_multiplicity
 _atom_site_fract_x
 _atom_site_fract_y
 _atom_site_fract_z
 _atom_site_occupancy
  Pr  Pr0  1  0.23145629  0.35761534  0.24195614  1
  Pr  Pr1  1  0.12615904  0.76854371  0.24195614  1
  Pr  Pr2  1  0.64238466  0.87384096  0.24195614  1
  Pr  Pr3  1  0.76969113  0.64294761  0.74939430  1
  Pr  Pr4  1  0.87325648  0.23030887  0.74939430  1
  Pr  Pr5  1  0.35705239  0.12674352  0.74939430  1
  Mg  Mg0  1  0.00000000  0.00000000  0.47981591  1
  Ge  Ge0  1  0.33333300  0.66666700  0.82476185  1
  Ge  Ge1  1  0.66666700  0.33333300  0.33387994  1
  S  S0  1  0.91383902  0.16030905  0.23984623  1
  S  S1  1  0.24646904  0.08616098  0.23984623  1
  S  S2  1  0.83969095  0.75353096  0.23984623  1
  S  S3  1  0.08855378  0.84201101  0.71737731  1
  S  S4  1  0.75345723  0.91144622  0.71737731  1
  S  S5  1  0.15798899  0.24654277  0.71737731  1
  S  S6  1  0.33333300  0.66666700  0.45026397  1
  S  S7  1  0.66666700  0.33333300  0.95856506  1
  S  S8  1  0.41303939  0.89277287  0.97661892  1
  S  S9  1  0.47973448  0.58696061  0.97661892  1
  S  S10  1  0.10722713  0.52026552  0.97661892  1
  S  S11  1  0.58601133  0.10675089  0.48327618  1
  S  S12  1  0.52073856  0.41398867  0.48327618  1
  S  S13  1  0.89324911  0.47926144  0.48327618  1
loop_
_geom_bond_atom_site_label_1
_geom_bond_atom_site_label_2
_geom_bond_distance
_geom_bond_site_symmetry_2
Pr0 S0 2.860304 1_455
Pr0 S1 2.875936 1_555
Pr0 S9 2.906446 1_554
Pr0 S5 2.937012 1_555
Pr0 S10 2.992632 1_554
Pr0 S6 3.058123 1_555
Pr0 S12 3.073007 1_555
Pr0 S5 3.206441 1_554
Pr1 S1 2.860306 1_565
Pr1 S2 2.875946 1_455
Pr1 S10 2.906450 1_554
Pr1 S3 2.937012 1_555
Pr1 S8 2.992640 1_554
Pr1 S6 3.058114 1_555
Pr1 S13 3.073010 1_455
Pr1 S3 3.206441 1_554
Pr2 S2 2.860296 1_555
Pr2 S0 2.875942 1_565
Pr2 S8 2.906441 1_554
Pr2 S4 2.937012 1_555
Pr2 S9 2.992639 1_554
Pr2 S6 3.058121 1_555
Pr2 S11 3.073016 1_565
Pr2 S4 3.206441 1_554
Pr3 S4 2.858362 1_555
Pr3 S3 2.878915 1_655
Pr3 S12 2.910668 1_555
Pr3 S13 2.998338 1_555
Pr3 S2 3.015808 1_556
Pr3 S9 3.043955 1_555
Pr3 S7 3.063064 1_555
Pr3 S2 3.120593 1_555
Pr4 S5 2.858362 1_655
Pr4 S4 2.878915 1_545
Pr4 S13 2.910671 1_555
Pr4 S11 2.998346 1_555
Pr4 S0 3.015806 1_556
Pr4 S10 3.043959 1_655
Pr4 S7 3.063055 1_555
Pr4 S0 3.120590 1_555
Pr5 S3 2.858362 1_545
Pr5 S5 2.878915 1_555
Pr5 S11 2.910663 1_555
Pr5 S12 2.998346 1_555
Pr5 S1 3.015809 1_556
Pr5 S8 3.043964 1_545
Pr5 S7 3.063062 1_555
Pr5 S1 3.120593 1_555
Mg0 S3 2.619692 1_545
Mg0 S4 2.619692 1_445
Mg0 S5 2.619692 1_555
Mg0 S1 2.629934 1_555
Mg0 S2 2.629936 1_445
Mg0 S0 2.629942 1_455
Ge0 S6 2.173111 1_555
Ge0 S8 2.227283 1_555
Ge0 S10 2.227286 1_555
Ge0 S9 2.227301 1_555
Ge1 S7 2.177852 1_554
Ge1 S11 2.224410 1_555
Ge1 S13 2.224413 1_555
Ge1 S12 2.224428 1_555
