# generated using pymatgen
data_BaSrYWO6
_symmetry_space_group_name_H-M   'P 1'
_cell_length_a   5.99072996
_cell_length_b   5.96507338
_cell_length_c   8.41460586
_cell_angle_alpha   89.89173285
_cell_angle_beta   89.42192160
_cell_angle_gamma   89.66026140
_symmetry_Int_Tables_number   1
_chemical_formula_structural   BaSrYWO6
_chemical_formula_sum   'Ba2 Sr2 Y2 W2 O12'
_cell_volume   300.67605618
_cell_formula_units_Z   2
loop_
 _symmetry_equiv_pos_site_id
 _symmetry_equiv_pos_as_xyz
  1  'x, y, z'
loop_
 _atom_site_type_symbol
 _atom_site_label
 _atom_site_symmetry_multiplicity
 _atom_site_fract_x
 _atom_site_fract_y
 _atom_site_fract_z
 _atom_site_occupancy
  Ba  Ba0  1  0.99467945  0.01965341  0.24862131  1
  Ba  Ba1  1  0.00532055  0.98034659  0.75137869  1
  Sr  Sr0  1  0.50322119  0.52161037  0.25162154  1
  Sr  Sr1  1  0.49677881  0.47838963  0.74837846  1
  Y  Y0  1  0.50000000  0.00000000  -0.00000000  1
  Y  Y1  1  -0.00000000  0.50000000  0.50000000  1
  W  W0  1  -0.00000000  0.50000000  -0.00000000  1
  W  W1  1  0.50000000  0.00000000  0.50000000  1
  O  O0  1  0.21386068  0.23828434  0.96686243  1
  O  O1  1  0.29481671  0.72830272  0.53185277  1
  O  O2  1  0.78613932  0.76171566  0.03313757  1
  O  O3  1  0.70518329  0.27169728  0.46814723  1
  O  O4  1  0.26696621  0.70250406  0.97110529  1
  O  O5  1  0.24122226  0.21037545  0.52469411  1
  O  O6  1  0.73303379  0.29749594  0.02889471  1
  O  O7  1  0.75877774  0.78962455  0.47530589  1
  O  O8  1  0.44541575  0.99162805  0.26545322  1
  O  O9  1  0.06437739  0.49991407  0.23389888  1
  O  O10  1  0.55458425  0.00837195  0.73454678  1
  O  O11  1  0.93562261  0.50008593  0.76610112  1
loop_
_geom_bond_atom_site_label_1
_geom_bond_atom_site_label_2
_geom_bond_distance
_geom_bond_site_symmetry_2
Ba0 O2 2.700906 1_545
Ba0 O8 2.709534 1_645
Ba0 O7 2.734426 1_545
Ba0 O9 2.899743 1_655
Ba0 O3 2.931780 1_555
Ba0 O6 2.939094 1_555
Ba0 O5 2.995233 1_655
Ba0 O0 2.998640 1_654
Ba0 O9 3.128338 1_645
Ba1 O0 2.700906 1_565
Ba1 O10 2.709534 1_465
Ba1 O5 2.734426 1_565
Ba1 O11 2.899743 1_455
Ba1 O1 2.931780 1_555
Ba1 O4 2.939094 1_555
Ba1 O7 2.995233 1_455
Ba1 O2 2.998640 1_456
Ba1 O11 3.128338 1_465
O0 W0 2.031525 1_556
O0 Y0 2.239589 1_556
O0 Sr1 2.873995 1_555
O1 W1 2.055420 1_565
O1 Y1 2.255051 1_555
O1 Sr1 2.649269 1_555
O1 Sr0 2.927888 1_555
O2 W0 2.031525 1_655
O2 Y0 2.239589 1_565
O2 Sr0 2.873995 1_555
O3 W1 2.055420 1_555
O3 Y1 2.255051 1_655
O3 Sr0 2.649269 1_555
O3 Sr1 2.927888 1_555
O4 W0 2.022387 1_556
O4 Y0 2.279268 1_566
O4 Sr1 2.670331 1_555
O4 Sr0 2.962912 1_556
O5 W1 1.998176 1_555
O5 Y1 2.256389 1_555
O5 Sr1 2.922511 1_555
O6 W0 2.022387 1_655
O6 Y0 2.279268 1_555
O6 Sr0 2.670331 1_555
O6 Sr1 2.962912 1_554
O7 W1 1.998176 1_565
O7 Y1 2.256389 1_655
O7 Sr0 2.922511 1_555
O8 W1 2.004540 1_565
O8 Y0 2.254729 1_565
O8 Sr0 2.825429 1_555
O8 Sr0 3.184116 1_565
O9 W0 2.009411 1_555
O9 Y1 2.268270 1_555
O9 Sr0 2.638678 1_555
O10 W1 2.004540 1_555
O10 Y0 2.254729 1_556
O10 Sr1 2.825429 1_555
O10 Sr1 3.184116 1_545
O11 W0 2.009411 1_656
O11 Y1 2.268270 1_655
O11 Sr1 2.638678 1_555
