# generated using pymatgen
data_Mn(SbO3)2
_symmetry_space_group_name_H-M   'P 1'
_cell_length_a   6.97101950
_cell_length_b   6.97306464
_cell_length_c   10.14824993
_cell_angle_alpha   72.34755830
_cell_angle_beta   74.16165763
_cell_angle_gamma   99.26972276
_symmetry_Int_Tables_number   1
_chemical_formula_structural   Mn(SbO3)2
_chemical_formula_sum   'Mn4 Sb8 O24'
_cell_volume   435.93492670
_cell_formula_units_Z   4
loop_
 _symmetry_equiv_pos_site_id
 _symmetry_equiv_pos_as_xyz
  1  'x, y, z'
loop_
 _atom_site_type_symbol
 _atom_site_label
 _atom_site_symmetry_multiplicity
 _atom_site_fract_x
 _atom_site_fract_y
 _atom_site_fract_z
 _atom_site_occupancy
  Mn  Mn0  1  0.99999732  0.50005472  0.49994893  1
  Mn  Mn1  1  0.50000812  0.74994792  0.75005152  1
  Mn  Mn2  1  0.99999529  0.00005385  0.99994981  1
  Mn  Mn3  1  0.50000502  0.24994527  0.25004869  1
  Sb  Sb0  1  0.41681185  0.79161096  0.12492645  1
  Sb  Sb1  1  0.91654543  0.04175108  0.37504839  1
  Sb  Sb2  1  0.41680900  0.29161658  0.62492247  1
  Sb  Sb3  1  0.91654115  0.54174036  0.87504117  1
  Sb  Sb4  1  0.58319529  0.70838549  0.37506440  1
  Sb  Sb5  1  0.08344883  0.95824927  0.62496528  1
  Sb  Sb6  1  0.58317574  0.20838530  0.87506781  1
  Sb  Sb7  1  0.08346198  0.45825958  0.12496252  1
  O  O0  1  0.31210843  0.70013724  0.34381395  1
  O  O1  1  0.81220589  0.95018143  0.59389181  1
  O  O2  1  0.31208874  0.20013665  0.84381309  1
  O  O3  1  0.81220466  0.45018229  0.09389019  1
  O  O4  1  0.13426631  0.75485284  0.11097680  1
  O  O5  1  0.63398348  0.00494983  0.36092743  1
  O  O6  1  0.13425781  0.25484310  0.61097721  1
  O  O7  1  0.63398514  0.50495281  0.86092609  1
  O  O8  1  0.45597539  0.09392529  0.09388622  1
  O  O9  1  0.95613111  0.34399256  0.34383408  1
  O  O10  1  0.45597537  0.59392337  0.59388565  1
  O  O11  1  0.95613548  0.84397767  0.84383288  1
  O  O12  1  0.68789537  0.79983478  0.15618810  1
  O  O13  1  0.18780999  0.04985160  0.40610097  1
  O  O14  1  0.68787897  0.29983616  0.65618946  1
  O  O15  1  0.18781353  0.54984771  0.90610312  1
  O  O16  1  0.36602154  0.49509735  0.13901352  1
  O  O17  1  0.86573336  0.74510725  0.38908778  1
  O  O18  1  0.36602387  0.99509693  0.63901307  1
  O  O19  1  0.86571704  0.24509374  0.88908915  1
  O  O20  1  0.54400342  0.40606072  0.40610456  1
  O  O21  1  0.04389511  0.65601835  0.65617187  1
  O  O22  1  0.54400320  0.90606610  0.90610548  1
  O  O23  1  0.04388979  0.15603485  0.15617507  1
loop_
_geom_bond_atom_site_label_1
_geom_bond_atom_site_label_2
_geom_bond_distance
_geom_bond_site_symmetry_2
Mn0 O17 2.232873 1_555
Mn0 O0 2.233949 1_655
Mn0 O9 2.233965 1_555
Mn0 O6 2.234266 1_655
Mn0 O14 2.234495 1_555
Mn0 O21 2.234535 1_655
Mn1 O7 2.231294 1_555
Mn1 O18 2.232701 1_555
Mn1 O22 2.233905 1_555
Mn1 O15 2.234161 1_555
Mn1 O10 2.234543 1_555
Mn1 O1 2.234689 1_555
Mn2 O19 2.232879 1_555
Mn2 O2 2.233870 1_655
Mn2 O11 2.234040 1_545
Mn2 O4 2.234261 1_646
Mn2 O12 2.234403 1_546
Mn2 O23 2.234632 1_656
Mn3 O5 2.231318 1_555
Mn3 O16 2.232699 1_555
Mn3 O20 2.233915 1_555
Mn3 O13 2.234153 1_555
Mn3 O8 2.234485 1_555
Mn3 O3 2.234701 1_555
O0 Sb4 1.994549 1_555
O0 Sb0 1.994889 1_555
O1 Sb1 1.994403 1_565
O1 Sb5 1.994953 1_655
O2 Sb6 1.994568 1_555
O2 Sb2 1.994916 1_555
O3 Sb3 1.994461 1_554
O3 Sb7 1.995042 1_655
O4 Sb0 1.994177 1_555
O4 Sb7 1.995355 1_555
O5 Sb4 1.994710 1_545
O5 Sb1 1.994948 1_555
O6 Sb2 1.994198 1_555
O6 Sb5 1.995351 1_545
O7 Sb6 1.994716 1_555
O7 Sb3 1.994885 1_555
O8 Sb6 1.994176 1_554
O8 Sb0 1.995640 1_545
O9 Sb1 1.994563 1_555
O9 Sb7 1.994728 1_655
O10 Sb4 1.994211 1_555
O10 Sb2 1.995594 1_555
O11 Sb3 1.994542 1_555
O11 Sb5 1.994683 1_655
O12 Sb0 1.994587 1_555
O12 Sb4 1.994798 1_555
O13 Sb5 1.994581 1_545
O13 Sb1 1.994994 1_455
O14 Sb2 1.994519 1_555
O14 Sb6 1.994816 1_555
O15 Sb7 1.994542 1_556
O15 Sb3 1.995085 1_455
O16 Sb0 1.994508 1_555
O16 Sb7 1.994660 1_555
O17 Sb4 1.994412 1_555
O17 Sb1 1.995543 1_565
O18 Sb2 1.994540 1_565
O18 Sb5 1.994753 1_555
O19 Sb6 1.994428 1_555
O19 Sb3 1.995536 1_555
O20 Sb2 1.994169 1_555
O20 Sb4 1.995697 1_555
O21 Sb5 1.994523 1_555
O21 Sb3 1.994719 1_455
O22 Sb0 1.994194 1_556
O22 Sb6 1.995674 1_565
O23 Sb7 1.994459 1_555
O23 Sb1 1.994749 1_455
