# generated using pymatgen
data_Ba3Sr2Ca4Mg3(SiO4)6
_symmetry_space_group_name_H-M   'P 1'
_cell_length_a   5.51745508
_cell_length_b   5.51745508
_cell_length_c   20.86068000
_cell_angle_alpha   90.00000000
_cell_angle_beta   90.00000000
_cell_angle_gamma   119.99998899
_symmetry_Int_Tables_number   1
_chemical_formula_structural   Ba3Sr2Ca4Mg3(SiO4)6
_chemical_formula_sum   'Ba3 Sr2 Ca4 Mg3 Si6 O24'
_cell_volume   549.96715495
_cell_formula_units_Z   1
loop_
 _symmetry_equiv_pos_site_id
 _symmetry_equiv_pos_as_xyz
  1  'x, y, z'
loop_
 _atom_site_type_symbol
 _atom_site_label
 _atom_site_symmetry_multiplicity
 _atom_site_fract_x
 _atom_site_fract_y
 _atom_site_fract_z
 _atom_site_occupancy
  Ba  Ba0  1  0.33333300  0.66666700  0.16508500  1
  Ba  Ba1  1  0.33333300  0.66666700  0.50035600  1
  Ba  Ba2  1  0.33333300  0.66666700  0.83455800  1
  Sr  Sr0  1  0.66666700  0.33333300  0.27903300  1
  Sr  Sr1  1  0.66666700  0.33333300  0.61507000  1
  Ca  Ca0  1  0.66666700  0.33333300  0.94567300  1
  Ca  Ca1  1  0.00000000  0.00000000  0.05428000  1
  Ca  Ca2  1  0.00000000  0.00000000  0.38924700  1
  Ca  Ca3  1  0.00000000  0.00000000  0.72356100  1
  Mg  Mg0  1  0.33333300  0.66666700  0.99857400  1
  Mg  Mg1  1  0.33333300  0.66666700  0.33314600  1
  Mg  Mg2  1  0.33333300  0.66666700  0.66828500  1
  Si  Si0  1  0.66666700  0.33333300  0.08774000  1
  Si  Si1  1  0.66666700  0.33333300  0.42406000  1
  Si  Si2  1  0.66666700  0.33333300  0.76017900  1
  Si  Si3  1  0.00000000  0.00000000  0.24166700  1
  Si  Si4  1  0.00000000  0.00000000  0.57644400  1
  Si  Si5  1  0.00000000  0.00000000  0.90918500  1
  O  O0  1  0.66666700  0.33333300  0.16509400  1
  O  O1  1  0.66666700  0.33333300  0.50139800  1
  O  O2  1  0.66666700  0.33333300  0.83750700  1
  O  O3  1  0.00000000  0.00000000  0.16372300  1
  O  O4  1  0.00000000  0.00000000  0.49847200  1
  O  O5  1  0.00000000  0.00000000  0.83115900  1
  O  O6  1  0.97788500  0.55339900  0.05632800  1
  O  O7  1  0.97913000  0.54848400  0.39246000  1
  O  O8  1  0.97907400  0.54676900  0.72800800  1
  O  O9  1  0.44660100  0.42448700  0.05632800  1
  O  O10  1  0.45151600  0.43064600  0.39246000  1
  O  O11  1  0.45323100  0.43230500  0.72800800  1
  O  O12  1  0.57551300  0.02211500  0.05632800  1
  O  O13  1  0.56935400  0.02087000  0.39246000  1
  O  O14  1  0.56769500  0.02092600  0.72800800  1
  O  O15  1  0.68318000  0.81790900  0.27328800  1
  O  O16  1  0.68334700  0.81901800  0.60832100  1
  O  O17  1  0.68857200  0.78124400  0.94043100  1
  O  O18  1  0.18209100  0.86527200  0.27328800  1
  O  O19  1  0.18098200  0.86432900  0.60832100  1
  O  O20  1  0.21875600  0.90732800  0.94043100  1
  O  O21  1  0.13472800  0.31682000  0.27328800  1
  O  O22  1  0.13567100  0.31665300  0.60832100  1
  O  O23  1  0.09267200  0.31142800  0.94043100  1
loop_
_geom_bond_atom_site_label_1
_geom_bond_atom_site_label_2
_geom_bond_distance
_geom_bond_site_symmetry_2
Ba0 O18 2.811834 1_555
Ba0 O15 2.811835 1_555
Ba0 O21 2.811835 1_555
Ba0 O9 2.856276 1_555
Ba0 O6 2.856276 1_455
Ba0 O12 2.856277 1_565
Ba0 O0 3.185501 1_455
Ba0 O0 3.185501 1_565
Ba0 O0 3.185510 1_555
Ba0 O3 3.185628 1_565
Ba0 O3 3.185633 1_555
Ba0 O3 3.185633 1_665
Ba1 O19 2.808065 1_555
Ba1 O22 2.808068 1_555
Ba1 O16 2.808068 1_555
Ba1 O7 2.834814 1_455
Ba1 O13 2.834815 1_565
Ba1 O10 2.834817 1_555
Ba1 O1 3.185576 1_455
Ba1 O1 3.185576 1_565
Ba1 O1 3.185585 1_555
Ba1 O4 3.185743 1_565
Ba1 O4 3.185749 1_665
Ba1 O4 3.185749 1_555
Ba2 O20 2.807143 1_555
Ba2 O23 2.807146 1_555
Ba2 O17 2.807147 1_555
Ba2 O8 2.811672 1_455
Ba2 O14 2.811673 1_565
Ba2 O11 2.811675 1_555
Ba2 O2 3.186095 1_455
Ba2 O2 3.186095 1_565
Ba2 O2 3.186104 1_555
Ba2 O5 3.186290 1_565
Ba2 O5 3.186295 1_665
Ba2 O5 3.186295 1_555
Ca0 O2 2.256416 1_555
Ca0 O23 2.415641 1_655
Ca0 O20 2.415644 1_545
Ca0 O17 2.415646 1_555
Ca1 O3 2.283055 1_555
Ca1 O6 2.405793 1_445
Ca1 O9 2.405796 1_555
Ca1 O12 2.405799 1_455
Ca2 O4 2.278508 1_555
Ca2 O13 2.436609 1_455
Ca2 O7 2.436609 1_445
Ca2 O10 2.436609 1_555
Ca2 O18 2.856619 1_545
Ca2 O15 2.856622 1_445
Ca2 O21 2.856622 1_555
Ca3 O5 2.244567 1_555
Ca3 O14 2.446757 1_455
Ca3 O8 2.446757 1_445
Ca3 O11 2.446758 1_555
Ca3 O19 2.843253 1_545
Ca3 O22 2.843253 1_555
Ca3 O16 2.843253 1_445
Mg0 O9 2.112492 1_556
Mg0 O6 2.112493 1_456
Mg0 O12 2.112493 1_566
Mg0 O20 2.115029 1_555
Mg0 O23 2.115033 1_555
Mg0 O17 2.115033 1_555
Mg1 O18 2.090625 1_555
Mg1 O15 2.090625 1_555
Mg1 O21 2.090625 1_555
Mg1 O7 2.121586 1_455
Mg1 O13 2.121587 1_565
Mg1 O10 2.121590 1_555
Mg2 O19 2.092235 1_555
Mg2 O22 2.092238 1_555
Mg2 O16 2.092239 1_555
Mg2 O8 2.125384 1_455
Mg2 O14 2.125384 1_565
Mg2 O11 2.125388 1_555
O0 Si0 1.613657 1_555
O0 Sr0 2.376845 1_555
O1 Si1 1.613323 1_555
O1 Sr1 2.371275 1_555
O2 Si2 1.613115 1_555
O3 Si3 1.625965 1_555
O4 Si4 1.626549 1_555
O5 Si5 1.627675 1_555
O6 Si0 1.663512 1_555
O7 Si1 1.664138 1_555
O7 Sr0 2.816656 1_555
O8 Si2 1.666865 1_555
O8 Sr1 2.806887 1_555
O9 Si0 1.663519 1_555
O10 Si1 1.664142 1_555
O10 Sr0 2.816658 1_555
O11 Si2 1.666868 1_555
O11 Sr1 2.806889 1_555
O12 Si0 1.663509 1_555
O13 Si1 1.664137 1_555
O13 Sr0 2.816655 1_555
O14 Si2 1.666864 1_555
O14 Sr1 2.806886 1_555
O15 Si3 1.656480 1_665
O15 Sr0 2.631986 1_555
O15 Sr0 2.892944 1_565
O16 Si4 1.657449 1_665
O16 Sr1 2.638694 1_555
O16 Sr1 2.888260 1_565
O17 Si5 1.661396 1_665
O18 Si3 1.656475 1_565
O18 Sr0 2.631981 1_565
O18 Sr0 2.892950 1_455
O19 Si4 1.657449 1_565
O19 Sr1 2.638692 1_565
O19 Sr1 2.888263 1_455
O20 Si5 1.661396 1_565
O21 Si3 1.656480 1_555
O21 Sr0 2.631975 1_455
O21 Sr0 2.892955 1_555
O22 Si4 1.657449 1_555
O22 Sr1 2.638688 1_455
O22 Sr1 2.888266 1_555
O23 Si5 1.661396 1_555
