# generated using pymatgen
data_Zr2Al3
_symmetry_space_group_name_H-M   'P 1'
_cell_length_a   5.53999809
_cell_length_b   5.53993822
_cell_length_c   7.50252654
_cell_angle_alpha   100.73744256
_cell_angle_beta   100.73812136
_cell_angle_gamma   119.69775861
_symmetry_Int_Tables_number   1
_chemical_formula_structural   Zr2Al3
_chemical_formula_sum   'Zr4 Al6'
_cell_volume   185.74767959
_cell_formula_units_Z   2
loop_
 _symmetry_equiv_pos_site_id
 _symmetry_equiv_pos_as_xyz
  1  'x, y, z'
loop_
 _atom_site_type_symbol
 _atom_site_label
 _atom_site_symmetry_multiplicity
 _atom_site_fract_x
 _atom_site_fract_y
 _atom_site_fract_z
 _atom_site_occupancy
  Zr  Zr0  1  0.86532466  0.72772182  0.60539037  1
  Zr  Zr1  1  0.12232302  0.25995324  0.39463172  1
  Zr  Zr2  1  0.97769491  0.61529938  0.10538125  1
  Zr  Zr3  1  0.50994103  0.87232001  0.89462301  1
  Al  Al0  1  0.13457730  0.13448364  0.99997142  1
  Al  Al1  1  0.38449631  0.88458143  0.49997832  1
  Al  Al2  1  0.45485035  0.31681176  0.76881230  1
  Al  Al3  1  0.54802701  0.68596206  0.23119848  1
  Al  Al4  1  0.56680201  0.20482057  0.26880184  1
  Al  Al5  1  0.93596040  0.29804408  0.73120928  1
loop_
_geom_bond_atom_site_label_1
_geom_bond_atom_site_label_2
_geom_bond_distance
_geom_bond_site_symmetry_2
Al0 Al4 2.633715 1_556
Al0 Al5 2.634305 1_455
Al0 Al2 2.683240 1_555
Al0 Al3 2.683371 1_556
Al0 Zr2 2.877563 1_446
Al0 Zr3 2.877876 1_445
Al0 Zr0 2.933407 1_445
Al0 Zr1 2.934238 1_556
Al0 Zr3 3.199341 1_545
Al0 Zr2 3.200180 1_456
Al1 Al2 2.633708 1_565
Al1 Al3 2.634316 1_555
Al1 Al4 2.683202 1_565
Al1 Al5 2.683353 1_565
Al1 Zr0 2.877563 1_455
Al1 Zr1 2.877799 1_555
Al1 Zr2 2.933562 1_455
Al1 Zr3 2.934120 1_555
Al1 Zr1 3.199398 1_565
Al1 Zr0 3.200164 1_555
Al2 Al5 2.781788 1_555
Al2 Al5 2.782935 1_455
Al2 Zr3 2.886968 1_555
Al2 Zr2 2.910895 1_556
Al2 Zr1 2.922710 1_555
Al2 Zr3 2.924241 1_545
Al2 Zr0 2.967531 1_555
Al2 Zr0 3.045690 1_445
Al3 Al4 2.781951 1_555
Al3 Al4 2.782713 1_565
Al3 Zr2 2.886747 1_555
Al3 Zr3 2.911284 1_554
Al3 Zr0 2.922498 1_555
Al3 Zr2 2.924538 1_455
Al3 Zr1 2.967585 1_665
Al3 Zr1 3.045695 1_555
Al4 Zr1 2.886961 1_655
Al4 Zr0 2.911130 1_555
Al4 Zr3 2.922643 1_544
Al4 Zr1 2.924381 1_555
Al4 Zr2 2.967492 1_555
Al4 Zr2 3.045723 1_445
Al5 Zr0 2.886699 1_555
Al5 Zr1 2.911334 1_655
Al5 Zr2 2.922347 1_556
Al5 Zr0 2.924532 1_545
Al5 Zr3 2.967504 1_655
Al5 Zr3 3.045673 1_545
