# generated using pymatgen
data_Sn(C4N3)2
_symmetry_space_group_name_H-M   'P 1'
_cell_length_a   13.83432800
_cell_length_b   13.83409301
_cell_length_c   5.17460500
_cell_angle_alpha   90.00237629
_cell_angle_beta   89.99889691
_cell_angle_gamma   119.99940758
_symmetry_Int_Tables_number   1
_chemical_formula_structural   Sn(C4N3)2
_chemical_formula_sum   'Sn3 C24 N18'
_cell_volume   857.66796139
_cell_formula_units_Z   3
loop_
 _symmetry_equiv_pos_site_id
 _symmetry_equiv_pos_as_xyz
  1  'x, y, z'
loop_
 _atom_site_type_symbol
 _atom_site_label
 _atom_site_symmetry_multiplicity
 _atom_site_fract_x
 _atom_site_fract_y
 _atom_site_fract_z
 _atom_site_occupancy
  Sn  Sn0  1  0.00000000  0.00000300  0.33289700  1
  Sn  Sn1  1  0.33333300  0.66666700  0.78525800  1
  Sn  Sn2  1  0.66666600  0.33333300  0.78525800  1
  C  C0  1  0.00000000  0.61890400  0.19465600  1
  C  C1  1  0.61890500  0.00000000  0.19465000  1
  C  C2  1  0.38109500  0.38109600  0.19464900  1
  C  C3  1  0.00000000  0.71271900  0.30173900  1
  C  C4  1  0.71272100  0.99999700  0.30172600  1
  C  C5  1  0.28728200  0.28727900  0.30172200  1
  C  C6  1  0.10072200  0.62283100  0.13658700  1
  C  C7  1  0.52210700  0.89927300  0.13659700  1
  C  C8  1  0.37716800  0.47789100  0.13660700  1
  C  C9  1  0.89927500  0.52210700  0.13658600  1
  C  C10  1  0.62283300  0.10072300  0.13660500  1
  C  C11  1  0.47789300  0.37716700  0.13659900  1
  C  C12  1  0.71804400  0.71804300  0.77050500  1
  C  C13  1  0.00000000  0.28195700  0.77050300  1
  C  C14  1  0.28195600  0.99999800  0.77050100  1
  C  C15  1  0.80329000  0.80329100  0.91389000  1
  C  C16  1  0.00000000  0.19671300  0.91387800  1
  C  C17  1  0.19670800  0.00000100  0.91389300  1
  C  C18  1  0.62479200  0.72674300  0.69920500  1
  C  C19  1  0.10194500  0.37520500  0.69920300  1
  C  C20  1  0.27325400  0.89805000  0.69919000  1
  C  C21  1  0.37520600  0.10194900  0.69920700  1
  C  C22  1  0.72674600  0.62479400  0.69918800  1
  C  C23  1  0.89805400  0.27325900  0.69920200  1
  N  N0  1  0.00000000  0.79084500  0.38943800  1
  N  N1  1  0.79084000  0.99999300  0.38942500  1
  N  N2  1  0.20915900  0.20915300  0.38942700  1
  N  N3  1  0.18481400  0.62477600  0.09124300  1
  N  N4  1  0.43995900  0.81518700  0.09127000  1
  N  N5  1  0.37522800  0.56003800  0.09128100  1
  N  N6  1  0.81518800  0.43996500  0.09124400  1
  N  N7  1  0.62477100  0.18481000  0.09127800  1
  N  N8  1  0.56004000  0.37522900  0.09127100  1
  N  N9  1  0.87589500  0.87589200  0.03022200  1
  N  N10  1  0.00000000  0.12411200  0.03020000  1
  N  N11  1  0.12410700  0.99999900  0.03021900  1
  N  N12  1  0.54772300  0.73543800  0.63927300  1
  N  N13  1  0.18771300  0.45228200  0.63925500  1
  N  N14  1  0.26455600  0.81228100  0.63924600  1
  N  N15  1  0.45228000  0.18771700  0.63927100  1
  N  N16  1  0.73544500  0.54772400  0.63924300  1
  N  N17  1  0.81228900  0.26456800  0.63925800  1
loop_
_geom_bond_atom_site_label_1
_geom_bond_atom_site_label_2
_geom_bond_distance
_geom_bond_site_symmetry_2
C0 C6 1.399697 1_555
C0 C9 1.399732 1_455
C0 C3 1.411164 1_555
C1 C10 1.399671 1_555
C1 C7 1.399731 1_545
C1 C4 1.411233 1_545
C2 C8 1.399661 1_555
C2 C5 1.411197 1_555
C3 N0 1.172192 1_555
C4 N1 1.172171 1_555
C5 N2 1.172229 1_555
C6 N3 1.173825 1_555
C7 N4 1.173770 1_555
C8 N5 1.173765 1_555
C9 N6 1.173755 1_555
C10 N7 1.173779 1_555
C11 N8 1.173758 1_555
C11 C2 1.399728 1_555
C12 C15 1.393305 1_555
C12 C22 1.403594 1_555
C12 C18 1.403639 1_555
C13 C16 1.393265 1_555
C13 C19 1.403566 1_555
C13 C23 1.403574 1_455
C14 C17 1.393355 1_565
C14 C20 1.403546 1_555
C14 C21 1.403613 1_565
C15 N9 1.170979 1_556
C16 N10 1.170946 1_556
C17 N11 1.170928 1_546
C18 N12 1.172897 1_555
C19 N13 1.172998 1_555
C20 N14 1.172928 1_555
C21 N15 1.172963 1_555
C22 N16 1.172924 1_555
C23 N17 1.172951 1_555
N3 Sn1 2.423577 1_554
N4 Sn1 2.423630 1_554
N5 Sn1 2.423776 1_554
N6 Sn2 2.423610 1_554
N7 Sn2 2.423757 1_554
N8 Sn2 2.423651 1_554
N9 Sn0 2.323975 1_665
N10 Sn0 2.324113 1_555
N11 Sn0 2.323998 1_565
N12 Sn1 2.729628 1_555
N13 Sn1 2.729559 1_555
N14 Sn1 2.729646 1_555
N15 Sn2 2.729581 1_555
N16 Sn2 2.729646 1_555
N17 Sn2 2.729593 1_555
