# generated using pymatgen
data_CsMg6Fe
_symmetry_space_group_name_H-M   'P 1'
_cell_length_a   19.09478993
_cell_length_b   19.09478993
_cell_length_c   9.83974400
_cell_angle_alpha   90.00000000
_cell_angle_beta   90.00000000
_cell_angle_gamma   142.90391004
_symmetry_Int_Tables_number   1
_chemical_formula_structural   CsMg6Fe
_chemical_formula_sum   'Cs8 Mg48 Fe8'
_cell_volume   2163.92130446
_cell_formula_units_Z   8
loop_
 _symmetry_equiv_pos_site_id
 _symmetry_equiv_pos_as_xyz
  1  'x, y, z'
loop_
 _atom_site_type_symbol
 _atom_site_label
 _atom_site_symmetry_multiplicity
 _atom_site_fract_x
 _atom_site_fract_y
 _atom_site_fract_z
 _atom_site_occupancy
  Cs  Cs0_0  1  0.14264900  0.35735100  0.25000000  1
  Cs  Cs0_1  1  0.14264900  0.35735100  0.75000000  1
  Cs  Cs0_2  1  0.14264900  0.85735100  0.25000000  1
  Cs  Cs0_3  1  0.14264900  0.85735100  0.75000000  1
  Cs  Cs0_4  1  0.64264900  0.35735100  0.25000000  1
  Cs  Cs0_5  1  0.64264900  0.35735100  0.75000000  1
  Cs  Cs0_6  1  0.64264900  0.85735100  0.25000000  1
  Cs  Cs0_7  1  0.64264900  0.85735100  0.75000000  1
  Mg  Mg0_0  1  0.16362950  0.09788300  0.25000000  1
  Mg  Mg0_1  1  0.16362950  0.09788300  0.75000000  1
  Mg  Mg0_2  1  0.16362950  0.59788300  0.25000000  1
  Mg  Mg0_3  1  0.16362950  0.59788300  0.75000000  1
  Mg  Mg0_4  1  0.66362950  0.09788300  0.25000000  1
  Mg  Mg0_5  1  0.66362950  0.09788300  0.75000000  1
  Mg  Mg0_6  1  0.66362950  0.59788300  0.25000000  1
  Mg  Mg0_7  1  0.66362950  0.59788300  0.75000000  1
  Mg  Mg1_0  1  0.40211700  0.33637050  0.25000000  1
  Mg  Mg1_1  1  0.40211700  0.33637050  0.75000000  1
  Mg  Mg1_2  1  0.40211700  0.83637050  0.25000000  1
  Mg  Mg1_3  1  0.40211700  0.83637050  0.75000000  1
  Mg  Mg1_4  1  0.90211700  0.33637050  0.25000000  1
  Mg  Mg1_5  1  0.90211700  0.33637050  0.75000000  1
  Mg  Mg1_6  1  0.90211700  0.83637050  0.25000000  1
  Mg  Mg1_7  1  0.90211700  0.83637050  0.75000000  1
  Mg  Mg2_0  1  0.09831750  0.14608750  0.00000000  1
  Mg  Mg2_1  1  0.09831750  0.14608750  0.50000000  1
  Mg  Mg2_2  1  0.09831750  0.64608750  0.00000000  1
  Mg  Mg2_3  1  0.09831750  0.64608750  0.50000000  1
  Mg  Mg2_4  1  0.59831750  0.14608750  0.00000000  1
  Mg  Mg2_5  1  0.59831750  0.14608750  0.50000000  1
  Mg  Mg2_6  1  0.59831750  0.64608750  0.00000000  1
  Mg  Mg2_7  1  0.59831750  0.64608750  0.50000000  1
  Mg  Mg3_0  1  0.35391250  0.40168250  0.00000000  1
  Mg  Mg3_1  1  0.35391250  0.40168250  0.50000000  1
  Mg  Mg3_2  1  0.35391250  0.90168250  0.00000000  1
  Mg  Mg3_3  1  0.35391250  0.90168250  0.50000000  1
  Mg  Mg3_4  1  0.85391250  0.40168250  0.00000000  1
  Mg  Mg3_5  1  0.85391250  0.40168250  0.50000000  1
  Mg  Mg3_6  1  0.85391250  0.90168250  0.00000000  1
  Mg  Mg3_7  1  0.85391250  0.90168250  0.50000000  1
  Mg  Mg4_0  1  0.31520250  0.18479750  0.00000000  1
  Mg  Mg4_1  1  0.31520250  0.18479750  0.50000000  1
  Mg  Mg4_2  1  0.31520250  0.68479750  0.00000000  1
  Mg  Mg4_3  1  0.31520250  0.68479750  0.50000000  1
  Mg  Mg4_4  1  0.81520250  0.18479750  0.00000000  1
  Mg  Mg4_5  1  0.81520250  0.18479750  0.50000000  1
  Mg  Mg4_6  1  0.81520250  0.68479750  0.00000000  1
  Mg  Mg4_7  1  0.81520250  0.68479750  0.50000000  1
  Mg  Mg5_0  1  0.04921800  0.45078200  0.00000000  1
  Mg  Mg5_1  1  0.04921800  0.45078200  0.50000000  1
  Mg  Mg5_2  1  0.04921800  0.95078200  0.00000000  1
  Mg  Mg5_3  1  0.04921800  0.95078200  0.50000000  1
  Mg  Mg5_4  1  0.54921800  0.45078200  0.00000000  1
  Mg  Mg5_5  1  0.54921800  0.45078200  0.50000000  1
  Mg  Mg5_6  1  0.54921800  0.95078200  0.00000000  1
  Mg  Mg5_7  1  0.54921800  0.95078200  0.50000000  1
  Fe  Fe0_0  1  0.47495600  0.02504400  0.25000000  1
  Fe  Fe0_1  1  0.47495600  0.02504400  0.75000000  1
  Fe  Fe0_2  1  0.47495600  0.52504400  0.25000000  1
  Fe  Fe0_3  1  0.47495600  0.52504400  0.75000000  1
  Fe  Fe0_4  1  0.97495600  0.02504400  0.25000000  1
  Fe  Fe0_5  1  0.97495600  0.02504400  0.75000000  1
  Fe  Fe0_6  1  0.97495600  0.52504400  0.25000000  1
  Fe  Fe0_7  1  0.97495600  0.52504400  0.75000000  1
loop_
_geom_bond_atom_site_label_1
_geom_bond_atom_site_label_2
_geom_bond_distance
_geom_bond_site_symmetry_2
Cs0_0 Mg5_1 4.182620 1_555
Cs0_0 Mg5_0 4.182620 1_555
Cs0_0 Mg3_0 4.194495 1_555
Cs0_0 Mg3_1 4.194495 1_555
Cs0_0 Mg2_0 4.194495 1_555
Cs0_0 Mg2_1 4.194495 1_555
Cs0_0 Fe0_4 4.254869 1_455
Cs0_0 Fe0_2 4.254869 1_555
Cs0_0 Mg1_4 4.280191 1_455
Cs0_0 Mg0_2 4.280191 1_555
Cs0_0 Cs0_1 4.919872 1_555
Cs0_0 Cs0_1 4.919872 1_554
Cs0_1 Mg5_1 4.182620 1_555
Cs0_1 Mg5_0 4.182620 1_556
Cs0_1 Mg3_0 4.194495 1_556
Cs0_1 Mg3_1 4.194495 1_555
Cs0_1 Mg2_0 4.194495 1_556
Cs0_1 Mg2_1 4.194495 1_555
Cs0_1 Fe0_3 4.254869 1_555
Cs0_1 Fe0_5 4.254869 1_455
Cs0_1 Mg1_5 4.280191 1_455
Cs0_1 Mg0_3 4.280191 1_555
Cs0_2 Mg5_2 4.182620 1_555
Cs0_2 Mg5_3 4.182620 1_555
Cs0_2 Mg3_2 4.194495 1_555
Cs0_2 Mg3_3 4.194495 1_555
Cs0_2 Mg2_3 4.194495 1_555
Cs0_2 Mg2_2 4.194495 1_555
Cs0_2 Fe0_6 4.254869 1_455
Cs0_2 Fe0_0 4.254869 1_565
Cs0_2 Mg1_6 4.280191 1_455
Cs0_2 Mg0_0 4.280191 1_565
Cs0_2 Cs0_3 4.919872 1_555
Cs0_2 Cs0_3 4.919872 1_554
Cs0_3 Mg5_2 4.182620 1_556
Cs0_3 Mg5_3 4.182620 1_555
Cs0_3 Mg3_2 4.194495 1_556
Cs0_3 Mg3_3 4.194495 1_555
Cs0_3 Mg2_2 4.194495 1_556
Cs0_3 Mg2_3 4.194495 1_555
Cs0_3 Fe0_7 4.254869 1_455
Cs0_3 Fe0_1 4.254869 1_565
Cs0_3 Mg1_7 4.280191 1_455
Cs0_3 Mg0_1 4.280191 1_565
Cs0_4 Mg5_5 4.182620 1_555
Cs0_4 Mg5_4 4.182620 1_555
Cs0_4 Mg3_5 4.194495 1_555
Cs0_4 Mg3_4 4.194495 1_555
Cs0_4 Mg2_5 4.194495 1_555
Cs0_4 Mg2_4 4.194495 1_555
Cs0_4 Fe0_6 4.254869 1_555
Cs0_4 Fe0_0 4.254869 1_555
Cs0_4 Mg1_0 4.280191 1_555
Cs0_4 Mg0_6 4.280191 1_555
Cs0_4 Cs0_5 4.919872 1_554
Cs0_4 Cs0_5 4.919872 1_555
Cs0_5 Mg5_4 4.182620 1_556
Cs0_5 Mg5_5 4.182620 1_555
Cs0_5 Mg3_5 4.194495 1_555
Cs0_5 Mg3_4 4.194495 1_556
Cs0_5 Mg2_5 4.194495 1_555
Cs0_5 Mg2_4 4.194495 1_556
Cs0_5 Fe0_7 4.254869 1_555
Cs0_5 Fe0_1 4.254869 1_555
Cs0_5 Mg1_1 4.280191 1_555
Cs0_5 Mg0_7 4.280191 1_555
Cs0_6 Mg5_6 4.182620 1_555
Cs0_6 Mg5_7 4.182620 1_555
Cs0_6 Mg3_6 4.194495 1_555
Cs0_6 Mg3_7 4.194495 1_555
Cs0_6 Mg2_7 4.194495 1_555
Cs0_6 Mg2_6 4.194495 1_555
Cs0_6 Fe0_2 4.254869 1_555
Cs0_6 Fe0_4 4.254869 1_565
Cs0_6 Mg1_2 4.280191 1_555
Cs0_6 Mg0_4 4.280191 1_565
Cs0_6 Cs0_7 4.919872 1_555
Cs0_6 Cs0_7 4.919872 1_554
Cs0_7 Mg5_6 4.182620 1_556
Cs0_7 Mg5_7 4.182620 1_555
Cs0_7 Mg3_6 4.194495 1_556
Cs0_7 Mg3_7 4.194495 1_555
Cs0_7 Mg2_7 4.194495 1_555
Cs0_7 Mg2_6 4.194495 1_556
Cs0_7 Fe0_3 4.254869 1_555
Cs0_7 Fe0_5 4.254869 1_565
Cs0_7 Mg1_3 4.280191 1_555
Cs0_7 Mg0_5 4.280191 1_565
Mg0_0 Mg1_0 2.897169 1_555
Mg0_0 Mg5_3 2.987411 1_545
Mg0_0 Mg5_2 2.987411 1_545
Mg0_0 Mg4_0 3.085413 1_555
Mg0_0 Mg4_1 3.085413 1_555
Mg0_0 Mg1_6 3.176879 1_445
Mg0_0 Mg2_1 3.207030 1_555
Mg0_0 Mg2_0 3.207030 1_555
Mg0_1 Mg1_1 2.897169 1_555
Mg0_1 Mg5_3 2.987411 1_545
Mg0_1 Mg5_2 2.987411 1_546
Mg0_1 Mg4_1 3.085413 1_555
Mg0_1 Mg4_0 3.085413 1_556
Mg0_1 Mg1_7 3.176879 1_445
Mg0_1 Mg2_1 3.207030 1_555
Mg0_1 Mg2_0 3.207030 1_556
Mg0_2 Mg1_2 2.897169 1_555
Mg0_2 Mg5_0 2.987411 1_555
Mg0_2 Mg5_1 2.987411 1_555
Mg0_2 Mg4_3 3.085413 1_555
Mg0_2 Mg4_2 3.085413 1_555
Mg0_2 Mg1_4 3.176879 1_455
Mg0_2 Mg2_3 3.207030 1_555
Mg0_2 Mg2_2 3.207030 1_555
Mg0_3 Mg1_3 2.897169 1_555
Mg0_3 Mg5_0 2.987411 1_556
Mg0_3 Mg5_1 2.987411 1_555
Mg0_3 Mg4_3 3.085413 1_555
Mg0_3 Mg4_2 3.085413 1_556
Mg0_3 Mg1_5 3.176879 1_455
Mg0_3 Mg2_2 3.207030 1_556
Mg0_3 Mg2_3 3.207030 1_555
Mg0_4 Mg1_4 2.897169 1_555
Mg0_4 Mg5_6 2.987411 1_545
Mg0_4 Mg5_7 2.987411 1_545
Mg0_4 Mg4_4 3.085413 1_555
Mg0_4 Mg4_5 3.085413 1_555
Mg0_4 Mg1_2 3.176879 1_545
Mg0_4 Mg2_5 3.207030 1_555
Mg0_4 Mg2_4 3.207030 1_555
Mg0_5 Mg1_5 2.897169 1_555
Mg0_5 Mg5_6 2.987411 1_546
Mg0_5 Mg5_7 2.987411 1_545
Mg0_5 Mg4_5 3.085413 1_555
Mg0_5 Mg4_4 3.085413 1_556
Mg0_5 Mg1_3 3.176879 1_545
Mg0_5 Mg2_5 3.207030 1_555
Mg0_5 Mg2_4 3.207030 1_556
Mg0_6 Mg1_6 2.897169 1_555
Mg0_6 Mg5_4 2.987411 1_555
Mg0_6 Mg5_5 2.987411 1_555
Mg0_6 Mg4_6 3.085413 1_555
Mg0_6 Mg4_7 3.085413 1_555
Mg0_6 Mg1_0 3.176879 1_555
Mg0_6 Mg2_6 3.207030 1_555
Mg0_6 Mg2_7 3.207030 1_555
Mg0_7 Mg1_7 2.897169 1_555
Mg0_7 Mg5_4 2.987411 1_556
Mg0_7 Mg5_5 2.987411 1_555
Mg0_7 Mg4_7 3.085413 1_555
Mg0_7 Mg4_6 3.085413 1_556
Mg0_7 Mg1_1 3.176879 1_555
Mg0_7 Mg2_6 3.207030 1_556
Mg0_7 Mg2_7 3.207030 1_555
Mg1_0 Mg5_4 2.987411 1_555
Mg1_0 Mg5_5 2.987411 1_555
Mg1_0 Mg4_0 3.085413 1_555
Mg1_0 Mg4_1 3.085413 1_555
Mg1_0 Mg3_0 3.207030 1_555
Mg1_0 Mg3_1 3.207030 1_555
Mg1_1 Mg5_4 2.987411 1_556
Mg1_1 Mg5_5 2.987411 1_555
Mg1_1 Mg4_1 3.085413 1_555
Mg1_1 Mg4_0 3.085413 1_556
Mg1_1 Mg3_0 3.207030 1_556
Mg1_1 Mg3_1 3.207030 1_555
Mg1_2 Mg5_6 2.987411 1_555
Mg1_2 Mg5_7 2.987411 1_555
Mg1_2 Mg4_2 3.085413 1_555
Mg1_2 Mg4_3 3.085413 1_555
Mg1_2 Mg3_2 3.207030 1_555
Mg1_2 Mg3_3 3.207030 1_555
Mg1_3 Mg5_6 2.987411 1_556
Mg1_3 Mg5_7 2.987411 1_555
Mg1_3 Mg4_2 3.085413 1_556
Mg1_3 Mg4_3 3.085413 1_555
Mg1_3 Mg3_2 3.207030 1_556
Mg1_3 Mg3_3 3.207030 1_555
Mg1_4 Mg5_1 2.987411 1_655
Mg1_4 Mg5_0 2.987411 1_655
Mg1_4 Mg4_5 3.085413 1_555
Mg1_4 Mg4_4 3.085413 1_555
Mg1_4 Mg3_5 3.207030 1_555
Mg1_4 Mg3_4 3.207030 1_555
Mg1_5 Mg5_1 2.987411 1_655
Mg1_5 Mg5_0 2.987411 1_656
Mg1_5 Mg4_5 3.085413 1_555
Mg1_5 Mg4_4 3.085413 1_556
Mg1_5 Mg3_5 3.207030 1_555
Mg1_5 Mg3_4 3.207030 1_556
Mg1_6 Mg5_3 2.987411 1_655
Mg1_6 Mg5_2 2.987411 1_655
Mg1_6 Mg4_6 3.085413 1_555
Mg1_6 Mg4_7 3.085413 1_555
Mg1_6 Mg3_6 3.207030 1_555
Mg1_6 Mg3_7 3.207030 1_555
Mg1_7 Mg5_3 2.987411 1_655
Mg1_7 Mg5_2 2.987411 1_656
Mg1_7 Mg4_6 3.085413 1_556
Mg1_7 Mg4_7 3.085413 1_555
Mg1_7 Mg3_6 3.207030 1_556
Mg1_7 Mg3_7 3.207030 1_555
Mg2_0 Mg3_6 2.969055 1_445
Mg2_0 Mg5_2 3.034660 1_545
Mg2_0 Mg3_0 3.104993 1_555
Mg2_1 Mg3_7 2.969055 1_445
Mg2_1 Mg5_3 3.034660 1_545
Mg2_1 Mg3_1 3.104993 1_555
Mg2_2 Mg3_4 2.969055 1_455
Mg2_2 Mg5_0 3.034660 1_555
Mg2_2 Mg3_2 3.104993 1_555
Mg2_3 Mg3_5 2.969055 1_455
Mg2_3 Mg5_1 3.034660 1_555
Mg2_3 Mg3_3 3.104993 1_555
Mg2_4 Mg3_2 2.969055 1_545
Mg2_4 Mg5_6 3.034660 1_545
Mg2_4 Mg3_4 3.104993 1_555
Mg2_5 Mg3_3 2.969055 1_545
Mg2_5 Mg5_7 3.034660 1_545
Mg2_5 Mg3_5 3.104993 1_555
Mg2_6 Mg3_0 2.969055 1_555
Mg2_6 Mg5_4 3.034660 1_555
Mg2_6 Mg3_6 3.104993 1_555
Mg2_7 Mg3_1 2.969055 1_555
Mg2_7 Mg5_5 3.034660 1_555
Mg2_7 Mg3_7 3.104993 1_555
Mg3_0 Mg5_4 3.034660 1_555
Mg3_1 Mg5_5 3.034660 1_555
Mg3_2 Mg5_6 3.034660 1_555
Mg3_3 Mg5_7 3.034660 1_555
Mg3_4 Mg5_0 3.034660 1_655
Mg3_5 Mg5_1 3.034660 1_655
Mg3_6 Mg5_2 3.034660 1_655
Mg3_7 Mg5_3 3.034660 1_655
Mg4_0 Mg5_4 3.091674 1_555
Mg4_0 Mg5_2 3.091674 1_545
Mg4_1 Mg5_5 3.091674 1_555
Mg4_1 Mg5_3 3.091674 1_545
Mg4_2 Mg5_6 3.091674 1_555
Mg4_2 Mg5_0 3.091674 1_555
Mg4_3 Mg5_7 3.091674 1_555
Mg4_3 Mg5_1 3.091674 1_555
Mg4_4 Mg5_0 3.091674 1_655
Mg4_4 Mg5_6 3.091674 1_545
Mg4_5 Mg5_1 3.091674 1_655
Mg4_5 Mg5_7 3.091674 1_545
Mg4_6 Mg5_2 3.091674 1_655
Mg4_6 Mg5_4 3.091674 1_555
Mg4_7 Mg5_3 3.091674 1_655
Mg4_7 Mg5_5 3.091674 1_555
Fe0_0 Mg0_4 2.630651 1_555
Fe0_0 Mg1_2 2.630651 1_545
Fe0_0 Mg2_5 2.873477 1_555
Fe0_0 Mg2_4 2.873477 1_555
Fe0_0 Mg3_2 2.873477 1_545
Fe0_0 Mg3_3 2.873477 1_545
Fe0_1 Mg0_5 2.630651 1_555
Fe0_1 Mg1_3 2.630651 1_545
Fe0_1 Mg2_4 2.873477 1_556
Fe0_1 Mg2_5 2.873477 1_555
Fe0_1 Mg3_2 2.873477 1_546
Fe0_1 Mg3_3 2.873477 1_545
Fe0_2 Mg0_6 2.630651 1_555
Fe0_2 Mg1_0 2.630651 1_555
Fe0_2 Mg2_6 2.873477 1_555
Fe0_2 Mg2_7 2.873477 1_555
Fe0_2 Mg3_0 2.873477 1_555
Fe0_2 Mg3_1 2.873477 1_555
Fe0_3 Mg0_7 2.630651 1_555
Fe0_3 Mg1_1 2.630651 1_555
Fe0_3 Mg2_6 2.873477 1_556
Fe0_3 Mg2_7 2.873477 1_555
Fe0_3 Mg3_0 2.873477 1_556
Fe0_3 Mg3_1 2.873477 1_555
Fe0_4 Mg0_0 2.630651 1_655
Fe0_4 Mg1_6 2.630651 1_545
Fe0_4 Mg2_0 2.873477 1_655
Fe0_4 Mg2_1 2.873477 1_655
Fe0_4 Mg3_7 2.873477 1_545
Fe0_4 Mg3_6 2.873477 1_545
Fe0_5 Mg0_1 2.630651 1_655
Fe0_5 Mg1_7 2.630651 1_545
Fe0_5 Mg2_1 2.873477 1_655
Fe0_5 Mg2_0 2.873477 1_656
Fe0_5 Mg3_7 2.873477 1_545
Fe0_5 Mg3_6 2.873477 1_546
Fe0_6 Mg0_2 2.630651 1_655
Fe0_6 Mg1_4 2.630651 1_555
Fe0_6 Mg2_2 2.873477 1_655
Fe0_6 Mg2_3 2.873477 1_655
Fe0_6 Mg3_4 2.873477 1_555
Fe0_6 Mg3_5 2.873477 1_555
Fe0_7 Mg0_3 2.630651 1_655
Fe0_7 Mg1_5 2.630651 1_555
Fe0_7 Mg2_2 2.873477 1_656
Fe0_7 Mg2_3 2.873477 1_655
Fe0_7 Mg3_5 2.873477 1_555
Fe0_7 Mg3_4 2.873477 1_556
