# generated using pymatgen
data_FeCu2BO5
_symmetry_space_group_name_H-M   'P 1'
_cell_length_a   3.14545800
_cell_length_b   9.74670169
_cell_length_c   12.14921419
_cell_angle_alpha   89.42873780
_cell_angle_beta   89.53839224
_cell_angle_gamma   81.59407378
_symmetry_Int_Tables_number   1
_chemical_formula_structural   FeCu2BO5
_chemical_formula_sum   'Fe4 Cu8 B4 O20'
_cell_volume   368.44081196
_cell_formula_units_Z   4
loop_
 _symmetry_equiv_pos_site_id
 _symmetry_equiv_pos_as_xyz
  1  'x, y, z'
loop_
 _atom_site_type_symbol
 _atom_site_label
 _atom_site_symmetry_multiplicity
 _atom_site_fract_x
 _atom_site_fract_y
 _atom_site_fract_z
 _atom_site_occupancy
  Fe  Fe0  1  0.93868000  0.23504200  0.88335800  1
  Fe  Fe1  1  0.08399800  0.27592200  0.37943500  1
  Fe  Fe2  1  0.05616200  0.76586900  0.11643900  1
  Fe  Fe3  1  0.00947100  0.99420800  0.50353500  1
  Cu  Cu0  1  0.93412300  0.72599900  0.61878600  1
  Cu  Cu1  1  0.99637400  0.50078900  0.99951900  1
  Cu  Cu2  1  0.54998500  0.50941300  0.21998900  1
  Cu  Cu3  1  0.48514100  0.99502300  0.72325800  1
  Cu  Cu4  1  0.43403500  0.48973600  0.77713600  1
  Cu  Cu5  1  0.52467500  0.00538600  0.27867800  1
  Cu  Cu6  1  0.49862500  0.99992500  0.00037700  1
  Cu  Cu7  1  0.49311600  0.50175500  0.50165700  1
  B  B0  1  0.03779600  0.23700400  0.13486100  1
  B  B1  1  0.94710400  0.26498600  0.63420700  1
  B  B2  1  0.96146900  0.76367500  0.86378700  1
  B  B3  1  0.05481900  0.73405200  0.36608800  1
  O  O0  1  0.48986700  0.09983600  0.85681600  1
  O  O1  1  0.51860000  0.40076400  0.35471300  1
  O  O2  1  0.50703500  0.90062600  0.14468100  1
  O  O3  1  0.43724200  0.59164200  0.64471100  1
  O  O4  1  0.04938600  0.16058300  0.03984500  1
  O  O5  1  0.92832800  0.33886600  0.53593400  1
  O  O6  1  0.94693600  0.84022100  0.96014600  1
  O  O7  1  0.05375700  0.65803000  0.46224200  1
  O  O8  1  0.96006700  0.38070800  0.13124500  1
  O  O9  1  0.04017600  0.12206800  0.63251900  1
  O  O10  1  0.04520800  0.61993300  0.86941800  1
  O  O11  1  0.97914000  0.87821800  0.36744700  1
  O  O12  1  0.61154400  0.63026200  0.08805200  1
  O  O13  1  0.55041600  0.89857700  0.57732800  1
  O  O14  1  0.38778400  0.37065800  0.91251100  1
  O  O15  1  0.49226200  0.10917200  0.42225400  1
  O  O16  1  0.12252500  0.66941100  0.26567300  1
  O  O17  1  0.90090400  0.82801700  0.76285800  1
  O  O18  1  0.87728100  0.33085100  0.73360900  1
  O  O19  1  0.09596900  0.17277000  0.23688700  1
loop_
_geom_bond_atom_site_label_1
_geom_bond_atom_site_label_2
_geom_bond_distance
_geom_bond_site_symmetry_2
Fe0 O18 2.034293 1_555
Fe0 O4 2.042486 1_656
Fe0 O0 2.043998 1_655
Fe0 O14 2.050628 1_555
Fe0 O0 2.096021 1_555
Fe0 O14 2.105111 1_655
Fe1 O1 1.977873 1_555
Fe1 O15 1.986179 1_555
Fe1 O19 2.008513 1_555
Fe1 O1 2.025407 1_455
Fe1 O5 2.037563 1_455
Fe2 O16 2.032099 1_555
Fe2 O6 2.039380 1_454
Fe2 O2 2.040199 1_455
Fe2 O12 2.059603 1_555
Fe2 O12 2.092621 1_455
Fe2 O2 2.101327 1_555
Fe3 O11 2.022902 1_455
Fe3 O9 2.023513 1_565
Fe3 O13 2.027793 1_555
Fe3 O13 2.028171 1_455
Fe3 O15 2.085244 1_465
Fe3 O15 2.233414 1_565
Cu0 O3 1.926765 1_655
Cu0 O13 1.984711 1_555
Cu0 O17 2.016129 1_555
Cu0 O7 2.034295 1_655
Cu0 O3 2.199783 1_555
Cu1 O12 1.942709 1_556
Cu1 O14 1.947075 1_655
Cu1 O10 1.970314 1_655
Cu1 O8 1.985654 1_556
Cu2 O1 1.950293 1_555
Cu2 O8 1.982775 1_555
Cu2 O16 1.984938 1_555
Cu2 O12 2.004573 1_555
Cu3 O0 1.927341 1_565
Cu3 O17 1.990843 1_555
Cu3 O13 2.009987 1_555
Cu3 O9 2.049019 1_565
Cu3 O9 2.523963 1_665
Cu3 O17 2.665124 1_455
Cu4 O3 1.883049 1_555
Cu4 O10 1.978802 1_555
Cu4 O18 1.998712 1_555
Cu4 O14 2.020070 1_555
Cu4 O18 2.562976 1_455
Cu5 O2 1.935734 1_545
Cu5 O15 2.019541 1_555
Cu5 O19 2.022150 1_555
Cu5 O11 2.054998 1_545
Cu5 O11 2.491839 1_445
Cu5 O19 2.640918 1_655
Cu6 O0 1.987507 1_564
Cu6 O2 1.992606 1_555
Cu6 O6 2.003167 1_554
Cu6 O4 2.008929 1_565
Cu6 O6 2.547894 1_454
Cu6 O4 2.550411 1_665
Cu7 O3 1.949227 1_555
Cu7 O7 1.959568 1_555
Cu7 O5 1.982060 1_555
Cu7 O1 2.042579 1_555
Cu7 O7 2.533052 1_655
Cu7 O5 2.578666 1_455
B0 O4 1.377401 1_555
B0 O19 1.384406 1_555
B0 O8 1.386479 1_455
B1 O18 1.374319 1_555
B1 O9 1.381217 1_655
B1 O5 1.385303 1_555
B2 O17 1.373558 1_555
B2 O10 1.388300 1_655
B2 O6 1.391330 1_555
B3 O7 1.377360 1_555
B3 O16 1.379320 1_555
B3 O11 1.390672 1_455
