# generated using pymatgen
data_KNaP6(PbO3)8
_symmetry_space_group_name_H-M   'P 1'
_cell_length_a   9.77618128
_cell_length_b   9.77618128
_cell_length_c   7.22366196
_cell_angle_alpha   90.00000000
_cell_angle_beta   90.00000000
_cell_angle_gamma   119.99999742
_symmetry_Int_Tables_number   1
_chemical_formula_structural   KNaP6(PbO3)8
_chemical_formula_sum   'K1 Na1 P6 Pb8 O24'
_cell_volume   597.89724128
_cell_formula_units_Z   1
loop_
 _symmetry_equiv_pos_site_id
 _symmetry_equiv_pos_as_xyz
  1  'x, y, z'
loop_
 _atom_site_type_symbol
 _atom_site_label
 _atom_site_symmetry_multiplicity
 _atom_site_fract_x
 _atom_site_fract_y
 _atom_site_fract_z
 _atom_site_occupancy
  K  K0  1  0.66666700  0.33333300  0.51694334  1
  Na  Na0  1  0.00000000  0.00000000  0.99825846  1
  P  P0  1  0.34669516  0.28627511  0.75479666  1
  P  P1  1  0.93957996  0.65330484  0.75479666  1
  P  P2  1  0.71372489  0.06042004  0.75479666  1
  P  P3  1  0.30862315  0.04073955  0.24112709  1
  P  P4  1  0.73211640  0.69137685  0.24112709  1
  P  P5  1  0.95926045  0.26788360  0.24112709  1
  Pb  Pb0  1  0.33454562  0.40807705  0.24673423  1
  Pb  Pb1  1  0.07353142  0.66545438  0.24673423  1
  Pb  Pb2  1  0.59192295  0.92646858  0.24673423  1
  Pb  Pb3  1  0.32742936  0.91537923  0.75186038  1
  Pb  Pb4  1  0.58794987  0.67257064  0.75186038  1
  Pb  Pb5  1  0.08462077  0.41205013  0.75186038  1
  Pb  Pb6  1  0.66666700  0.33333300  0.01421824  1
  Pb  Pb7  1  0.00000000  0.00000000  0.51211810  1
  O  O0  1  0.16539619  0.18986852  0.76008580  1
  O  O1  1  0.02447333  0.83460381  0.76008580  1
  O  O2  1  0.81013148  0.97552667  0.76008580  1
  O  O3  1  0.48832943  0.14622019  0.24446863  1
  O  O4  1  0.65788976  0.51167057  0.24446863  1
  O  O5  1  0.85377981  0.34211024  0.24446863  1
  O  O6  1  0.41715797  0.17530986  0.76409425  1
  O  O7  1  0.75815189  0.58284203  0.76409425  1
  O  O8  1  0.82469014  0.24184811  0.76409425  1
  O  O9  1  0.22738778  0.14142952  0.21897200  1
  O  O10  1  0.91404274  0.77261222  0.21897200  1
  O  O11  1  0.85857048  0.08595726  0.21897200  1
  O  O12  1  0.41388068  0.40085041  0.92152868  1
  O  O13  1  0.98696973  0.58611932  0.92152868  1
  O  O14  1  0.59914959  0.01303027  0.92152868  1
  O  O15  1  0.24538698  0.94281034  0.42094998  1
  O  O16  1  0.69742336  0.75461302  0.42094998  1
  O  O17  1  0.05718966  0.30257664  0.42094998  1
  O  O18  1  0.25653167  0.91998300  0.08125763  1
  O  O19  1  0.66345133  0.74346833  0.08125763  1
  O  O20  1  0.08001700  0.33654867  0.08125763  1
  O  O21  1  0.40698366  0.38924602  0.58027396  1
  O  O22  1  0.98226236  0.59301634  0.58027396  1
  O  O23  1  0.61075398  0.01773764  0.58027396  1
loop_
_geom_bond_atom_site_label_1
_geom_bond_atom_site_label_2
_geom_bond_distance
_geom_bond_site_symmetry_2
K0 O5 2.659063 1_555
K0 O3 2.659069 1_555
K0 O4 2.659076 1_555
K0 O8 2.784889 1_555
K0 O6 2.784895 1_555
K0 O7 2.784896 1_555
K0 O23 2.888040 1_555
K0 O22 2.888044 1_555
K0 O21 2.888050 1_555
Na0 O2 2.453289 1_445
Na0 O0 2.453291 1_555
Na0 O1 2.453295 1_545
Na0 O11 2.514303 1_456
Na0 O9 2.514309 1_556
Na0 O10 2.514310 1_446
O0 P0 1.536460 1_555
O0 Pb7 2.503420 1_555
O0 Pb5 2.657127 1_555
O1 P1 1.536460 1_455
O1 Pb7 2.503424 1_565
O1 Pb3 2.657118 1_555
O2 P2 1.536468 1_565
O2 Pb7 2.503418 1_665
O2 Pb4 2.657121 1_555
O3 P3 1.529311 1_555
O3 Pb6 2.441923 1_555
O3 Pb2 2.795886 1_545
O4 P4 1.529310 1_555
O4 Pb6 2.441930 1_555
O4 Pb0 2.795877 1_555
O5 P5 1.529319 1_555
O5 Pb6 2.441916 1_555
O5 Pb1 2.795879 1_655
O6 P0 1.550208 1_555
O6 Pb3 2.237308 1_545
O7 P1 1.550208 1_555
O7 Pb4 2.237308 1_555
O8 P2 1.550208 1_555
O8 Pb5 2.237308 1_655
O9 P3 1.551466 1_555
O9 Pb0 2.280830 1_555
O10 P4 1.551475 1_555
O10 Pb1 2.280821 1_655
O11 P5 1.551474 1_555
O11 Pb2 2.280829 1_545
O12 P0 1.549504 1_555
O12 Pb0 2.485952 1_556
O12 Pb4 2.633246 1_555
O13 P1 1.549504 1_555
O13 Pb1 2.485952 1_656
O13 Pb5 2.633246 1_655
O14 P2 1.549504 1_555
O14 Pb2 2.485952 1_546
O14 Pb3 2.633246 1_545
O15 P3 1.547333 1_565
O15 Pb3 2.577644 1_555
O15 Pb1 2.683853 1_555
O16 P4 1.547333 1_555
O16 Pb4 2.577644 1_555
O16 Pb2 2.683853 1_555
O17 P5 1.547333 1_455
O17 Pb5 2.577644 1_555
O17 Pb0 2.683853 1_555
O18 P3 1.544499 1_565
O18 Pb3 2.485040 1_554
O18 Pb1 2.523796 1_555
O19 P4 1.544499 1_555
O19 Pb4 2.485040 1_554
O19 Pb2 2.523796 1_555
O20 P5 1.544499 1_455
O20 Pb5 2.485040 1_554
O20 Pb0 2.523796 1_555
O21 P0 1.535181 1_555
O21 Pb0 2.543790 1_555
O21 Pb4 2.727259 1_555
O22 P1 1.535181 1_555
O22 Pb1 2.543790 1_655
O22 Pb5 2.727258 1_655
O23 P2 1.535181 1_555
O23 Pb2 2.543790 1_545
O23 Pb3 2.727259 1_545
