# generated using pymatgen
data_PH9(NO2)2
_symmetry_space_group_name_H-M   'P 1'
_cell_length_a   6.64385600
_cell_length_b   7.84548900
_cell_length_c   10.69433643
_cell_angle_alpha   68.90120583
_cell_angle_beta   90.00000000
_cell_angle_gamma   90.00000000
_symmetry_Int_Tables_number   1
_chemical_formula_structural   PH9(NO2)2
_chemical_formula_sum   'P4 H36 N8 O16'
_cell_volume   520.06498249
_cell_formula_units_Z   4
loop_
 _symmetry_equiv_pos_site_id
 _symmetry_equiv_pos_as_xyz
  1  'x, y, z'
loop_
 _atom_site_type_symbol
 _atom_site_label
 _atom_site_symmetry_multiplicity
 _atom_site_fract_x
 _atom_site_fract_y
 _atom_site_fract_z
 _atom_site_occupancy
  P  P0  1  0.09678500  0.06356200  0.24187600  1
  P  P1  1  0.59678500  0.43643800  0.75812400  1
  P  P2  1  0.90321500  0.93643800  0.75812400  1
  P  P3  1  0.40321500  0.56356200  0.24187600  1
  H  H0  1  0.69994000  0.10217800  0.16419200  1
  H  H1  1  0.19994000  0.39782200  0.83580800  1
  H  H2  1  0.30006000  0.89782200  0.83580800  1
  H  H3  1  0.80006000  0.60217800  0.16419200  1
  H  H4  1  0.88063700  0.34092300  0.53466800  1
  H  H5  1  0.38063700  0.15907700  0.46533200  1
  H  H6  1  0.11936300  0.65907700  0.46533200  1
  H  H7  1  0.61936300  0.84092300  0.53466800  1
  H  H8  1  0.06552700  0.40241900  0.41170800  1
  H  H9  1  0.56552700  0.09758100  0.58829200  1
  H  H10  1  0.93447300  0.59758100  0.58829200  1
  H  H11  1  0.43447300  0.90241900  0.41170800  1
  H  H12  1  0.13002600  0.36630900  0.16026900  1
  H  H13  1  0.63002600  0.13369100  0.83973100  1
  H  H14  1  0.86997400  0.63369100  0.83973100  1
  H  H15  1  0.36997400  0.86630900  0.16026900  1
  H  H16  1  0.58821200  0.28163700  0.18936300  1
  H  H17  1  0.08821200  0.21836300  0.81063700  1
  H  H18  1  0.41178800  0.71836300  0.81063700  1
  H  H19  1  0.91178800  0.78163700  0.18936300  1
  H  H20  1  0.45467800  0.15246600  0.11761800  1
  H  H21  1  0.95467800  0.34753400  0.88238200  1
  H  H22  1  0.54532200  0.84753400  0.88238200  1
  H  H23  1  0.04532200  0.65246600  0.11761800  1
  H  H24  1  0.96757500  0.18650900  0.47296000  1
  H  H25  1  0.46757500  0.31349100  0.52704000  1
  H  H26  1  0.03242500  0.81349100  0.52704000  1
  H  H27  1  0.53242500  0.68650900  0.47296000  1
  H  H28  1  0.81977700  0.36117900  0.37768600  1
  H  H29  1  0.31977700  0.13882100  0.62231400  1
  H  H30  1  0.18022300  0.63882100  0.62231400  1
  H  H31  1  0.68022300  0.86117900  0.37768600  1
  H  H32  1  0.64378300  0.29783300  0.03247600  1
  H  H33  1  0.14378300  0.20216700  0.96752400  1
  H  H34  1  0.35621700  0.70216700  0.96752400  1
  H  H35  1  0.85621700  0.79783300  0.03247600  1
  N  N0  1  0.93463500  0.32265000  0.44899400  1
  N  N1  1  0.43463500  0.17735000  0.55100600  1
  N  N2  1  0.06536500  0.67735000  0.55100600  1
  N  N3  1  0.56536500  0.82265000  0.44899400  1
  N  N4  1  0.59568100  0.20708200  0.12554600  1
  N  N5  1  0.09568100  0.29291800  0.87445400  1
  N  N6  1  0.40431900  0.79291800  0.87445400  1
  N  N7  1  0.90431900  0.70708200  0.12554600  1
  O  O0  1  0.22294900  0.03441100  0.12846000  1
  O  O1  1  0.72294900  0.46558900  0.87154000  1
  O  O2  1  0.77705100  0.96558900  0.87154000  1
  O  O3  1  0.27705100  0.53441100  0.12846000  1
  O  O4  1  0.22634000  0.03884100  0.36690500  1
  O  O5  1  0.72634000  0.46115900  0.63309500  1
  O  O6  1  0.77366000  0.96115900  0.63309500  1
  O  O7  1  0.27366000  0.53884100  0.36690500  1
  O  O8  1  0.90404100  0.94623000  0.27243100  1
  O  O9  1  0.40404100  0.55377000  0.72756900  1
  O  O10  1  0.09595900  0.05377000  0.72756900  1
  O  O11  1  0.59595900  0.44623000  0.27243100  1
  O  O12  1  0.01748800  0.27098600  0.18171100  1
  O  O13  1  0.51748800  0.22901400  0.81828900  1
  O  O14  1  0.98251200  0.72901400  0.81828900  1
  O  O15  1  0.48251200  0.77098600  0.18171100  1
loop_
_geom_bond_atom_site_label_1
_geom_bond_atom_site_label_2
_geom_bond_distance
_geom_bond_site_symmetry_2
H0 N4 1.040718 1_555
H1 N5 1.040718 1_555
H2 N6 1.040718 1_555
H3 N7 1.040718 1_555
H4 N0 1.040815 1_555
H5 N1 1.040815 1_555
H6 N2 1.040815 1_555
H7 N3 1.040815 1_555
H8 N0 1.061720 1_455
H8 O7 1.708231 1_555
H9 N1 1.061720 1_555
H9 O6 1.708231 1_545
H10 N2 1.061720 1_655
H10 O5 1.708231 1_555
H11 N3 1.061720 1_555
H11 O4 1.708231 1_565
H12 O12 1.023445 1_555
H12 O3 1.576778 1_555
H13 O13 1.023445 1_555
H13 O2 1.576778 1_545
H14 O14 1.023445 1_555
H14 O1 1.576778 1_555
H15 O15 1.023445 1_555
H15 O0 1.576778 1_565
H16 N4 1.047749 1_555
H17 N5 1.047749 1_555
H18 N6 1.047749 1_555
H19 N7 1.047749 1_555
H20 N4 1.046206 1_555
H21 N5 1.046206 1_655
H22 N6 1.046206 1_555
H23 N7 1.046206 1_455
H24 N0 1.028259 1_555
H25 N1 1.028259 1_555
H26 N2 1.028259 1_555
H27 N3 1.028259 1_555
H28 N0 1.043686 1_555
H29 N1 1.043686 1_555
H30 N2 1.043686 1_555
H31 N3 1.043686 1_555
H32 N4 1.043802 1_555
H33 N5 1.043802 1_555
H34 N6 1.043802 1_555
H35 N7 1.043802 1_555
O0 P0 1.557489 1_555
O1 P1 1.557489 1_555
O2 P2 1.557489 1_555
O3 P3 1.557489 1_555
O4 P0 1.542607 1_555
O5 P1 1.542607 1_555
O6 P2 1.542607 1_555
O7 P3 1.542607 1_555
O8 P0 1.541891 1_665
O9 P1 1.541891 1_555
O10 P2 1.541891 1_445
O11 P3 1.541891 1_555
O12 P0 1.608090 1_555
O13 P1 1.608090 1_555
O14 P2 1.608090 1_555
O15 P3 1.608090 1_555
