# generated using pymatgen
data_Li3IrN2
_symmetry_space_group_name_H-M   'P 1'
_cell_length_a   8.51680393
_cell_length_b   9.83435814
_cell_length_c   9.83435778
_cell_angle_alpha   89.99999960
_cell_angle_beta   125.26439087
_cell_angle_gamma   54.73561062
_symmetry_Int_Tables_number   1
_chemical_formula_structural   Li3IrN2
_chemical_formula_sum   'Li24 Ir8 N16'
_cell_volume   475.56297344
_cell_formula_units_Z   8
loop_
 _symmetry_equiv_pos_site_id
 _symmetry_equiv_pos_as_xyz
  1  'x, y, z'
loop_
 _atom_site_type_symbol
 _atom_site_label
 _atom_site_symmetry_multiplicity
 _atom_site_fract_x
 _atom_site_fract_y
 _atom_site_fract_z
 _atom_site_occupancy
  Li  Li0  1  0.23023882  0.03188202  0.99063268  1
  Li  Li1  1  0.76976118  0.76212084  0.50936732  1
  Li  Li2  1  0.76976118  0.46811798  0.76039385  1
  Li  Li3  1  0.23023882  0.73787916  0.73960615  1
  Li  Li4  1  0.24897447  0.76039385  0.27148816  1
  Li  Li5  1  0.75102553  0.73960615  0.02251370  1
  Li  Li6  1  0.24897447  0.99063268  0.47748630  1
  Li  Li7  1  0.75102553  0.50936732  0.22851184  1
  Li  Li8  1  0.70599814  0.02251370  0.73787916  1
  Li  Li9  1  0.70599814  0.27148816  0.46811798  1
  Li  Li10  1  0.29400186  0.22851184  0.76212084  1
  Li  Li11  1  0.29400186  0.47748630  0.03188202  1
  Li  Li12  1  0.76976118  0.96811798  0.00936732  1
  Li  Li13  1  0.23023882  0.23787916  0.49063268  1
  Li  Li14  1  0.23023882  0.53188202  0.23960615  1
  Li  Li15  1  0.76976118  0.26212084  0.26039385  1
  Li  Li16  1  0.75102553  0.23960615  0.72851184  1
  Li  Li17  1  0.24897447  0.26039385  0.97748630  1
  Li  Li18  1  0.75102553  0.00936732  0.52251370  1
  Li  Li19  1  0.24897447  0.49063268  0.77148816  1
  Li  Li20  1  0.29400186  0.97748630  0.26212084  1
  Li  Li21  1  0.29400186  0.72851184  0.53188202  1
  Li  Li22  1  0.70599814  0.77148816  0.23787916  1
  Li  Li23  1  0.70599814  0.52251370  0.96811798  1
  Ir  Ir0  1  0.23455222  1.00000000  0.73455222  1
  Ir  Ir1  1  0.76544778  0.73455222  0.76544778  1
  Ir  Ir2  1  0.76544778  0.50000000  0.50000000  1
  Ir  Ir3  1  0.23455222  0.76544778  -0.00000000  1
  Ir  Ir4  1  0.76544778  0.00000000  0.26544778  1
  Ir  Ir5  1  0.23455222  0.26544778  0.23455222  1
  Ir  Ir6  1  0.23455222  0.50000000  0.50000000  1
  Ir  Ir7  1  0.76544778  0.23455222  -0.00000000  1
  N  N0  1  0.00000000  -0.00000000  0.50000000  1
  N  N1  1  0.00000000  0.50000000  -0.00000000  1
  N  N2  1  0.00000000  0.50000000  0.50000000  1
  N  N3  1  0.00000000  -0.00000000  -0.00000000  1
  N  N4  1  0.50000000  0.98467014  0.75000000  1
  N  N5  1  0.50000000  0.51532986  0.25000000  1
  N  N6  1  0.00000000  0.25000000  0.73467014  1
  N  N7  1  1.00000000  0.75000000  0.76532986  1
  N  N8  1  0.53066072  0.73467014  0.51532986  1
  N  N9  1  0.46933928  0.76532986  0.98467014  1
  N  N10  1  0.50000000  0.01532986  0.25000000  1
  N  N11  1  0.50000000  0.48467014  0.75000000  1
  N  N12  1  1.00000000  0.75000000  0.26532986  1
  N  N13  1  0.00000000  0.25000000  0.23467014  1
  N  N14  1  0.46933928  0.26532986  0.48467014  1
  N  N15  1  0.53066072  0.23467014  0.01532986  1
loop_
_geom_bond_atom_site_label_1
_geom_bond_atom_site_label_2
_geom_bond_distance
_geom_bond_site_symmetry_2
Li0 N6 2.055780 1_555
Li0 N10 2.147661 1_556
Li0 N3 2.206906 1_556
Li0 N9 2.235133 1_545
Li1 N7 2.055780 1_555
Li1 N10 2.147661 1_565
Li1 N2 2.206906 1_655
Li1 N8 2.235127 1_555
Li2 N6 2.055780 1_655
Li2 N11 2.147661 1_555
Li2 N1 2.206906 1_656
Li2 N8 2.235138 1_555
Li3 N7 2.055780 1_455
Li3 N11 2.147661 1_555
Li3 N0 2.206906 1_565
Li3 N9 2.235132 1_555
Li4 N8 2.055780 1_555
Li4 N12 2.147670 1_455
Li4 N3 2.206903 1_565
Li4 N5 2.235132 1_555
Li5 N9 2.055785 1_554
Li5 N12 2.147670 1_555
Li5 N1 2.206903 1_655
Li5 N4 2.235132 1_554
Li6 N8 2.055785 1_555
Li6 N13 2.147663 1_565
Li6 N0 2.206908 1_565
Li6 N4 2.235127 1_555
Li7 N9 2.055780 1_554
Li7 N13 2.147664 1_655
Li7 N2 2.206908 1_655
Li7 N5 2.235127 1_555
Li8 N4 2.055782 1_545
Li8 N14 2.147660 1_555
Li8 N3 2.206908 1_656
Li8 N7 2.235127 1_545
Li9 N5 2.055776 1_555
Li9 N14 2.147678 1_555
Li9 N0 2.206903 1_655
Li9 N6 2.235132 1_655
Li10 N4 2.055782 1_545
Li10 N15 2.147666 1_556
Li10 N2 2.206908 1_555
Li10 N6 2.235127 1_555
Li11 N5 2.055776 1_555
Li11 N15 2.147673 1_555
Li11 N1 2.206903 1_555
Li11 N7 2.235132 1_454
Li12 N12 2.055780 1_555
Li12 N4 2.147661 1_554
Li12 N3 2.206906 1_665
Li12 N15 2.235133 1_565
Li13 N13 2.055780 1_555
Li13 N4 2.147661 1_545
Li13 N2 2.206906 1_555
Li13 N14 2.235127 1_555
Li14 N12 2.055780 1_455
Li14 N5 2.147661 1_555
Li14 N1 2.206906 1_555
Li14 N14 2.235138 1_555
Li15 N13 2.055780 1_655
Li15 N5 2.147661 1_555
Li15 N0 2.206906 1_655
Li15 N15 2.235132 1_555
Li16 N14 2.055780 1_555
Li16 N6 2.147670 1_655
Li16 N3 2.206903 1_656
Li16 N11 2.235132 1_555
Li17 N15 2.055785 1_556
Li17 N6 2.147670 1_555
Li17 N1 2.206903 1_556
Li17 N10 2.235132 1_556
Li18 N14 2.055785 1_555
Li18 N7 2.147663 1_545
Li18 N0 2.206908 1_655
Li18 N10 2.235127 1_555
Li19 N15 2.055780 1_556
Li19 N7 2.147664 1_455
Li19 N2 2.206908 1_555
Li19 N11 2.235127 1_555
Li20 N10 2.055782 1_565
Li20 N8 2.147660 1_555
Li20 N3 2.206908 1_565
Li20 N13 2.235127 1_565
Li21 N11 2.055776 1_555
Li21 N8 2.147678 1_555
Li21 N0 2.206903 1_565
Li21 N12 2.235132 1_455
Li22 N10 2.055782 1_565
Li22 N9 2.147666 1_554
Li22 N2 2.206908 1_655
Li22 N12 2.235127 1_555
Li23 N11 2.055776 1_555
Li23 N9 2.147673 1_555
Li23 N1 2.206903 1_656
Li23 N13 2.235132 1_656
Ir0 N0 1.997635 1_565
Ir0 N4 2.089672 1_555
Ir0 N6 2.089672 1_565
Ir0 N9 2.089675 1_555
Ir1 N1 1.997635 1_656
Ir1 N8 2.089670 1_555
Ir1 N7 2.089672 1_555
Ir1 N4 2.089672 1_555
Ir2 N2 1.997635 1_655
Ir2 N8 2.089669 1_555
Ir2 N5 2.089672 1_555
Ir2 N6 2.089672 1_655
Ir3 N3 1.997635 1_565
Ir3 N9 2.089664 1_554
Ir3 N5 2.089672 1_555
Ir3 N7 2.089672 1_454
Ir4 N0 1.997635 1_655
Ir4 N10 2.089672 1_555
Ir4 N12 2.089672 1_545
Ir4 N15 2.089675 1_555
Ir5 N1 1.997635 1_555
Ir5 N14 2.089670 1_555
Ir5 N13 2.089672 1_555
Ir5 N10 2.089672 1_555
Ir6 N2 1.997635 1_555
Ir6 N14 2.089669 1_555
Ir6 N11 2.089672 1_555
Ir6 N12 2.089672 1_455
Ir7 N3 1.997635 1_655
Ir7 N15 2.089664 1_555
Ir7 N11 2.089672 1_554
Ir7 N13 2.089672 1_655
