# generated using pymatgen
data_Ba3Ho4O9
_symmetry_space_group_name_H-M   'P 1'
_cell_length_a   9.13592375
_cell_length_b   9.13592374
_cell_length_c   9.13592379
_cell_angle_alpha   38.86391169
_cell_angle_beta   38.86391171
_cell_angle_gamma   38.86391393
_symmetry_Int_Tables_number   1
_chemical_formula_structural   Ba3Ho4O9
_chemical_formula_sum   'Ba3 Ho4 O9'
_cell_volume   269.92825612
_cell_formula_units_Z   1
loop_
 _symmetry_equiv_pos_site_id
 _symmetry_equiv_pos_as_xyz
  1  'x, y, z'
loop_
 _atom_site_type_symbol
 _atom_site_label
 _atom_site_symmetry_multiplicity
 _atom_site_fract_x
 _atom_site_fract_y
 _atom_site_fract_z
 _atom_site_occupancy
  Ba  Ba0  1  0.00100271  0.00100271  0.00100271  1
  Ba  Ba1  1  0.83654435  0.83654435  0.83654435  1
  Ba  Ba2  1  0.42319305  0.42319305  0.42319305  1
  Ho  Ho0  1  0.57531582  0.57531582  0.57531582  1
  Ho  Ho1  1  0.13635893  0.13635893  0.13635893  1
  Ho  Ho2  1  0.26188925  0.26188925  0.26188925  1
  Ho  Ho3  1  0.70028294  0.70028294  0.70028294  1
  O  O0  1  0.95971349  0.53906212  0.42278924  1
  O  O1  1  0.53906212  0.42278924  0.95971349  1
  O  O2  1  0.42278924  0.95971349  0.53906212  1
  O  O3  1  0.87276263  0.40316928  0.30836437  1
  O  O4  1  0.40316928  0.30836437  0.87276263  1
  O  O5  1  0.30836437  0.87276263  0.40316928  1
  O  O6  1  0.86236246  0.97332438  0.41996298  1
  O  O7  1  0.41996298  0.86236246  0.97332438  1
  O  O8  1  0.97332438  0.41996298  0.86236246  1
loop_
_geom_bond_atom_site_label_1
_geom_bond_atom_site_label_2
_geom_bond_distance
_geom_bond_site_symmetry_2
Ba0 O0 2.773461 1_445
Ba0 O2 2.773461 1_544
Ba0 O1 2.773461 1_454
Ba0 O8 2.785757 1_454
Ba0 O6 2.785757 1_445
Ba0 O7 2.785757 1_544
Ba1 O7 2.785064 1_555
Ba1 O6 2.785064 1_555
Ba1 O8 2.785064 1_555
Ba1 O5 2.823044 1_655
Ba1 O3 2.823044 1_556
Ba1 O4 2.823044 1_565
Ba2 O8 2.704710 1_455
Ba2 O7 2.704710 1_554
Ba2 O6 2.704710 1_545
Ho0 O4 2.191539 1_555
Ho0 O3 2.191539 1_555
Ho0 O5 2.191539 1_555
Ho0 O1 2.381394 1_555
Ho0 O0 2.381394 1_555
Ho0 O2 2.381394 1_555
Ho1 O6 2.212248 1_445
Ho1 O8 2.212248 1_454
Ho1 O7 2.212248 1_544
Ho1 O4 2.267365 1_554
Ho1 O5 2.267365 1_545
Ho1 O3 2.267365 1_455
Ho2 O1 2.187463 1_554
Ho2 O2 2.187464 1_545
Ho2 O0 2.187464 1_455
Ho2 O4 2.416950 1_554
Ho2 O5 2.416950 1_545
Ho2 O3 2.416950 1_455
Ho3 O6 2.207251 1_555
Ho3 O7 2.207251 1_555
Ho3 O8 2.207251 1_555
Ho3 O1 2.288093 1_555
Ho3 O0 2.288093 1_555
Ho3 O2 2.288093 1_555
