# generated using pymatgen
data_LiAl(GeO3)2
_symmetry_space_group_name_H-M   'P 1'
_cell_length_a   8.49045100
_cell_length_b   5.45884800
_cell_length_c   9.59630031
_cell_angle_alpha   78.85854750
_cell_angle_beta   90.00000000
_cell_angle_gamma   90.00000000
_symmetry_Int_Tables_number   1
_chemical_formula_structural   LiAl(GeO3)2
_chemical_formula_sum   'Li4 Al4 Ge8 O24'
_cell_volume   436.38758011
_cell_formula_units_Z   4
loop_
 _symmetry_equiv_pos_site_id
 _symmetry_equiv_pos_as_xyz
  1  'x, y, z'
loop_
 _atom_site_type_symbol
 _atom_site_label
 _atom_site_symmetry_multiplicity
 _atom_site_fract_x
 _atom_site_fract_y
 _atom_site_fract_z
 _atom_site_occupancy
  Li  Li0  1  0.21709800  0.29516200  0.00796000  1
  Li  Li1  1  0.28290200  0.29516200  0.50796000  1
  Li  Li2  1  0.78290200  0.70483800  0.99204000  1
  Li  Li3  1  0.71709800  0.70483800  0.49204000  1
  Al  Al0  1  0.41342200  0.75034300  0.99544900  1
  Al  Al1  1  0.08657800  0.75034300  0.49544900  1
  Al  Al2  1  0.58657800  0.24965700  0.00455100  1
  Al  Al3  1  0.91342200  0.24965700  0.50455100  1
  Ge  Ge0  1  0.91555900  0.43112000  0.79057200  1
  Ge  Ge1  1  0.58444100  0.43112000  0.29057200  1
  Ge  Ge2  1  0.08444100  0.56888000  0.20942800  1
  Ge  Ge3  1  0.41555900  0.56888000  0.70942800  1
  Ge  Ge4  1  0.11292600  0.94596800  0.77933600  1
  Ge  Ge5  1  0.38707400  0.94596800  0.27933600  1
  Ge  Ge6  1  0.88707400  0.05403200  0.22066400  1
  Ge  Ge7  1  0.61292600  0.05403200  0.72066400  1
  O  O0  1  0.92730900  0.54323000  0.60280400  1
  O  O1  1  0.57269100  0.54323000  0.10280400  1
  O  O2  1  0.07269100  0.45677000  0.39719600  1
  O  O3  1  0.42730900  0.45677000  0.89719600  1
  O  O4  1  0.98926900  0.69850000  0.85928300  1
  O  O5  1  0.51073100  0.69850000  0.35928300  1
  O  O6  1  0.01073100  0.30150000  0.14071700  1
  O  O7  1  0.48926900  0.30150000  0.64071700  1
  O  O8  1  0.74288900  0.41090800  0.88924300  1
  O  O9  1  0.75711100  0.41090800  0.38924300  1
  O  O10  1  0.25711100  0.58909200  0.11075700  1
  O  O11  1  0.24288900  0.58909200  0.61075700  1
  O  O12  1  0.06759300  0.20932500  0.85687100  1
  O  O13  1  0.43240700  0.20932500  0.35687100  1
  O  O14  1  0.93240700  0.79067500  0.14312900  1
  O  O15  1  0.56759300  0.79067500  0.64312900  1
  O  O16  1  0.09815900  0.03557000  0.59013900  1
  O  O17  1  0.40184100  0.03557000  0.09013900  1
  O  O18  1  0.90184100  0.96443000  0.40986100  1
  O  O19  1  0.59815900  0.96443000  0.90986100  1
  O  O20  1  0.31040200  0.88228500  0.82562800  1
  O  O21  1  0.18959800  0.88228500  0.32562800  1
  O  O22  1  0.68959800  0.11771500  0.17437200  1
  O  O23  1  0.81040200  0.11771500  0.67437200  1
loop_
_geom_bond_atom_site_label_1
_geom_bond_atom_site_label_2
_geom_bond_distance
_geom_bond_site_symmetry_2
Li0 O12 2.048316 1_554
Li0 O10 2.067540 1_555
Li0 O17 2.158351 1_555
Li0 O6 2.170546 1_555
Li0 O3 2.175120 1_554
Li1 O13 2.048316 1_555
Li1 O11 2.067540 1_555
Li1 O16 2.158351 1_555
Li1 O7 2.170546 1_555
Li1 O2 2.175120 1_555
Li2 O14 2.048316 1_556
Li2 O8 2.067540 1_555
Li2 O19 2.158351 1_555
Li2 O4 2.170546 1_555
Li2 O1 2.175120 1_556
Li3 O15 2.048316 1_555
Li3 O9 2.067540 1_555
Li3 O18 2.158351 1_555
Li3 O5 2.170546 1_555
Li3 O0 2.175120 1_555
Al0 O10 1.839605 1_556
Al0 O20 1.867081 1_555
Al0 O1 1.928231 1_556
Al0 O17 1.951003 1_566
Al0 O3 2.013723 1_555
Al0 O19 2.032144 1_555
Al1 O11 1.839605 1_555
Al1 O21 1.867081 1_555
Al1 O0 1.928231 1_455
Al1 O16 1.951003 1_565
Al1 O2 2.013723 1_555
Al1 O18 2.032144 1_455
Al2 O8 1.839605 1_554
Al2 O22 1.867081 1_555
Al2 O3 1.928231 1_554
Al2 O19 1.951003 1_544
Al2 O1 2.013723 1_555
Al2 O17 2.032144 1_555
Al3 O9 1.839605 1_555
Al3 O23 1.867081 1_555
Al3 O2 1.928231 1_655
Al3 O18 1.951003 1_545
Al3 O0 2.013723 1_555
Al3 O16 2.032144 1_655
Ge0 O8 1.737143 1_555
Ge0 O0 1.790275 1_555
Ge0 O12 1.799792 1_655
Ge0 O4 1.824490 1_555
Ge0 O23 2.388468 1_555
Ge1 O9 1.737143 1_555
Ge1 O1 1.790275 1_555
Ge1 O13 1.799792 1_555
Ge1 O5 1.824490 1_555
Ge1 O22 2.388468 1_555
Ge2 O10 1.737143 1_555
Ge2 O2 1.790275 1_555
Ge2 O14 1.799792 1_455
Ge2 O6 1.824490 1_555
Ge2 O21 2.388468 1_555
Ge3 O11 1.737143 1_555
Ge3 O3 1.790275 1_555
Ge3 O15 1.799792 1_555
Ge3 O7 1.824490 1_555
Ge3 O20 2.388468 1_555
Ge4 O20 1.752056 1_555
Ge4 O4 1.765010 1_455
Ge4 O12 1.783791 1_565
Ge4 O16 1.791127 1_565
Ge5 O21 1.752056 1_555
Ge5 O5 1.765010 1_555
Ge5 O13 1.783791 1_565
Ge5 O17 1.791127 1_565
Ge6 O22 1.752056 1_555
Ge6 O6 1.765010 1_655
Ge6 O14 1.783791 1_545
Ge6 O18 1.791127 1_545
Ge7 O23 1.752056 1_555
Ge7 O7 1.765010 1_555
Ge7 O15 1.783791 1_545
Ge7 O19 1.791127 1_545
