# generated using pymatgen
data_Zr2Si2O5
_symmetry_space_group_name_H-M   'P 1'
_cell_length_a   3.89586600
_cell_length_b   3.89586600
_cell_length_c   5.95943400
_cell_angle_alpha   90.00000000
_cell_angle_beta   90.00000000
_cell_angle_gamma   90.00000000
_symmetry_Int_Tables_number   1
_chemical_formula_structural   Zr2Si2O5
_chemical_formula_sum   'Zr2 Si2 O5'
_cell_volume   90.45092985
_cell_formula_units_Z   1
loop_
 _symmetry_equiv_pos_site_id
 _symmetry_equiv_pos_as_xyz
  1  'x, y, z'
loop_
 _atom_site_type_symbol
 _atom_site_label
 _atom_site_symmetry_multiplicity
 _atom_site_fract_x
 _atom_site_fract_y
 _atom_site_fract_z
 _atom_site_occupancy
  Zr  Zr0  1  0.00000000  0.00000000  0.00000000  1
  Zr  Zr1  1  0.00000000  0.00000000  0.50000000  1
  Si  Si0  1  0.50000000  0.50000000  0.20306500  1
  Si  Si1  1  0.50000000  0.50000000  0.79693500  1
  O  O0  1  0.50000000  0.00000000  0.24303800  1
  O  O1  1  0.50000000  0.00000000  0.75696200  1
  O  O2  1  0.00000000  0.50000000  0.24303800  1
  O  O3  1  0.00000000  0.50000000  0.75696200  1
  O  O4  1  0.50000000  0.50000000  0.50000000  1
loop_
_geom_bond_atom_site_label_1
_geom_bond_atom_site_label_2
_geom_bond_distance
_geom_bond_site_symmetry_2
O0 Si0 1.962445 1_555
O0 Si0 1.962445 1_545
O0 Zr0 2.427389 1_655
O0 Zr0 2.427389 1_555
O0 Zr1 2.477795 1_655
O0 Zr1 2.477795 1_555
O1 Si1 1.962445 1_555
O1 Si1 1.962445 1_545
O1 Zr0 2.427389 1_656
O1 Zr0 2.427389 1_556
O1 Zr1 2.477795 1_655
O1 Zr1 2.477795 1_555
O2 Si0 1.962445 1_455
O2 Si0 1.962445 1_555
O2 Zr0 2.427389 1_565
O2 Zr0 2.427389 1_555
O2 Zr1 2.477795 1_565
O2 Zr1 2.477795 1_555
O3 Si1 1.962445 1_555
O3 Si1 1.962445 1_455
O3 Zr0 2.427389 1_566
O3 Zr0 2.427389 1_556
O3 Zr1 2.477795 1_565
O3 Zr1 2.477795 1_555
O4 Si1 1.769565 1_555
O4 Si0 1.769565 1_555
O4 Zr1 2.754793 1_555
O4 Zr1 2.754793 1_565
O4 Zr1 2.754793 1_655
O4 Zr1 2.754793 1_665
