# generated using pymatgen
data_Fe8Cu3Te12(Cl5O16)2
_symmetry_space_group_name_H-M   'P 1'
_cell_length_a   5.11730500
_cell_length_b   10.21551200
_cell_length_c   21.16645300
_cell_angle_alpha   90.00000000
_cell_angle_beta   90.00000000
_cell_angle_gamma   90.00000000
_symmetry_Int_Tables_number   1
_chemical_formula_structural   Fe8Cu3Te12(Cl5O16)2
_chemical_formula_sum   'Fe8 Cu3 Te12 Cl10 O32'
_cell_volume   1106.49518216
_cell_formula_units_Z   1
loop_
 _symmetry_equiv_pos_site_id
 _symmetry_equiv_pos_as_xyz
  1  'x, y, z'
loop_
 _atom_site_type_symbol
 _atom_site_label
 _atom_site_symmetry_multiplicity
 _atom_site_fract_x
 _atom_site_fract_y
 _atom_site_fract_z
 _atom_site_occupancy
  Fe  Fe0  1  0.24762500  0.57887500  0.52150600  1
  Fe  Fe1  1  0.24762500  0.57887500  0.97849400  1
  Fe  Fe2  1  0.24762500  0.92112500  0.52150600  1
  Fe  Fe3  1  0.24762500  0.92112500  0.97849400  1
  Fe  Fe4  1  0.75717500  0.42528500  0.47780500  1
  Fe  Fe5  1  0.75717500  0.42528500  0.02219500  1
  Fe  Fe6  1  0.75717500  0.07471500  0.47780500  1
  Fe  Fe7  1  0.75717500  0.07471500  0.02219500  1
  Cu  Cu0  1  0.06902900  0.25000000  0.75000000  1
  Cu  Cu1  1  0.90785200  0.75000000  0.25000000  1
  Cu  Cu2  1  0.55583100  0.25000000  0.75000000  1
  Te  Te0  1  0.29625800  0.25000000  0.56152000  1
  Te  Te1  1  0.29625800  0.25000000  0.93848000  1
  Te  Te2  1  0.70255400  0.75000000  0.43498100  1
  Te  Te3  1  0.70255400  0.75000000  0.06501900  1
  Te  Te4  1  0.74795000  0.57640300  0.63719000  1
  Te  Te5  1  0.74795000  0.57640300  0.86281000  1
  Te  Te6  1  0.74795000  0.92359700  0.63719000  1
  Te  Te7  1  0.74795000  0.92359700  0.86281000  1
  Te  Te8  1  0.25047500  0.42419900  0.36091500  1
  Te  Te9  1  0.25047500  0.42419900  0.13908500  1
  Te  Te10  1  0.25047500  0.07580100  0.36091500  1
  Te  Te11  1  0.25047500  0.07580100  0.13908500  1
  Cl  Cl0  1  0.91605400  0.75000000  0.75000000  1
  Cl  Cl1  1  0.08512900  0.25000000  0.25000000  1
  Cl  Cl2  1  0.31641700  0.06006600  0.75000000  1
  Cl  Cl3  1  0.31641700  0.43993400  0.75000000  1
  Cl  Cl4  1  0.72351500  0.94827400  0.25000000  1
  Cl  Cl5  1  0.72351500  0.55172600  0.25000000  1
  Cl  Cl6  1  0.82523000  0.25000000  0.65716100  1
  Cl  Cl7  1  0.82523000  0.25000000  0.84283900  1
  Cl  Cl8  1  0.15199200  0.75000000  0.34416200  1
  Cl  Cl9  1  0.15199200  0.75000000  0.15583800  1
  O  O0  1  0.58018000  0.49373400  0.56353200  1
  O  O1  1  0.58018000  0.49373400  0.93646800  1
  O  O2  1  0.58018000  0.00626600  0.56353200  1
  O  O3  1  0.58018000  0.00626600  0.93646800  1
  O  O4  1  0.42847200  0.49858600  0.43505700  1
  O  O5  1  0.42847200  0.49858600  0.06494300  1
  O  O6  1  0.42847200  0.00141400  0.43505700  1
  O  O7  1  0.42847200  0.00141400  0.06494300  1
  O  O8  1  0.60491900  0.75000000  0.61661000  1
  O  O9  1  0.60491900  0.75000000  0.88339000  1
  O  O10  1  0.39253800  0.25000000  0.38036300  1
  O  O11  1  0.39253800  0.25000000  0.11963700  1
  O  O12  1  0.58911800  0.25000000  0.50139100  1
  O  O13  1  0.58911800  0.25000000  0.99860900  1
  O  O14  1  0.41099100  0.75000000  0.49610700  1
  O  O15  1  0.41099100  0.75000000  0.00389300  1
  O  O16  1  0.09521000  0.38512500  0.52313300  1
  O  O17  1  0.09521000  0.38512500  0.97686700  1
  O  O18  1  0.09521000  0.11487500  0.52313300  1
  O  O19  1  0.09521000  0.11487500  0.97686700  1
  O  O20  1  0.89432000  0.61394700  0.47598500  1
  O  O21  1  0.89432000  0.61394700  0.02401500  1
  O  O22  1  0.89432000  0.88605300  0.47598500  1
  O  O23  1  0.89432000  0.88605300  0.02401500  1
  O  O24  1  0.08406100  0.59916800  0.60621300  1
  O  O25  1  0.08406100  0.59916800  0.89378700  1
  O  O26  1  0.08406100  0.90083200  0.60621300  1
  O  O27  1  0.08406100  0.90083200  0.89378700  1
  O  O28  1  0.91879100  0.39770700  0.39563600  1
  O  O29  1  0.91879100  0.39770700  0.10436400  1
  O  O30  1  0.91879100  0.10229300  0.39563600  1
  O  O31  1  0.91879100  0.10229300  0.10436400  1
loop_
_geom_bond_atom_site_label_1
_geom_bond_atom_site_label_2
_geom_bond_distance
_geom_bond_site_symmetry_2
Fe0 O24 1.989526 1_555
Fe0 O14 2.010936 1_555
Fe0 O20 2.079780 1_455
Fe0 O0 2.108041 1_555
Fe0 O16 2.127667 1_555
Fe0 O4 2.208486 1_555
Fe1 O25 1.989526 1_555
Fe1 O15 2.010936 1_556
Fe1 O21 2.079780 1_456
Fe1 O1 2.108041 1_555
Fe1 O17 2.127667 1_555
Fe1 O5 2.208486 1_556
Fe2 O26 1.989526 1_555
Fe2 O14 2.010936 1_555
Fe2 O22 2.079780 1_455
Fe2 O2 2.108041 1_565
Fe2 O18 2.127667 1_565
Fe2 O6 2.208486 1_565
Fe3 O27 1.989526 1_555
Fe3 O15 2.010936 1_556
Fe3 O23 2.079780 1_456
Fe3 O3 2.108041 1_565
Fe3 O19 2.127667 1_565
Fe3 O7 2.208486 1_566
Fe4 O28 1.946347 1_555
Fe4 O16 2.020180 1_655
Fe4 O12 2.048212 1_555
Fe4 O20 2.051446 1_555
Fe4 O4 2.051533 1_555
Fe4 O0 2.145190 1_555
Fe5 O29 1.946347 1_555
Fe5 O17 2.020180 1_654
Fe5 O13 2.048212 1_554
Fe5 O21 2.051446 1_555
Fe5 O5 2.051533 1_555
Fe5 O1 2.145190 1_554
Fe6 O30 1.946347 1_555
Fe6 O18 2.020180 1_655
Fe6 O12 2.048212 1_555
Fe6 O22 2.051446 1_545
Fe6 O6 2.051533 1_555
Fe6 O2 2.145190 1_555
Fe7 O31 1.946347 1_555
Fe7 O19 2.020180 1_654
Fe7 O13 2.048212 1_554
Fe7 O23 2.051446 1_545
Fe7 O7 2.051533 1_555
Fe7 O3 2.145190 1_554
Cl0 Te4 3.096195 1_555
Cl0 Te6 3.096195 1_555
Cl0 Te5 3.096195 1_555
Cl0 Te7 3.096195 1_555
Cl1 Te8 3.065004 1_555
Cl1 Te10 3.065004 1_555
Cl1 Te9 3.065004 1_555
Cl1 Te11 3.065004 1_555
Cl2 Cu2 2.294703 1_555
Cl2 Cu0 2.316746 1_555
Cl3 Cu2 2.294703 1_555
Cl3 Cu0 2.316746 1_555
Cl4 Cu1 2.234359 1_555
Cl5 Cu1 2.234359 1_555
Cl6 Cu0 2.327660 1_655
Cl6 Cu2 2.400425 1_555
Cl7 Cu0 2.327660 1_655
Cl7 Cu2 2.400425 1_555
Cl8 Cu1 2.352275 1_455
Cl8 Te2 2.997481 1_455
Cl9 Cu1 2.352275 1_455
Cl9 Te3 2.997481 1_455
O0 Te4 1.970023 1_555
O1 Te5 1.970023 1_555
O2 Te6 1.970023 1_545
O3 Te7 1.970023 1_545
O4 Te8 1.967206 1_555
O5 Te9 1.967206 1_555
O6 Te10 1.967206 1_555
O7 Te11 1.967206 1_555
O8 Te6 1.967324 1_555
O8 Te4 1.967324 1_555
O9 Te7 1.967324 1_555
O9 Te5 1.967324 1_555
O10 Te8 1.965880 1_555
O10 Te10 1.965880 1_555
O11 Te9 1.965880 1_555
O11 Te11 1.965880 1_555
O12 Te0 1.966157 1_555
O13 Te1 1.966157 1_555
O14 Te2 1.974864 1_555
O15 Te3 1.974864 1_555
O16 Te0 1.903703 1_555
O17 Te1 1.903703 1_555
O18 Te0 1.903703 1_555
O19 Te1 1.903703 1_555
O20 Te2 1.909961 1_555
O21 Te3 1.909961 1_555
O22 Te2 1.909961 1_555
O23 Te3 1.909961 1_555
O24 Te4 1.855352 1_455
O25 Te5 1.855352 1_455
O26 Te6 1.855352 1_455
O27 Te7 1.855352 1_455
O28 Te8 1.869297 1_655
O29 Te9 1.869297 1_655
O30 Te10 1.869297 1_655
O31 Te11 1.869297 1_655
