# generated using pymatgen
data_MgNiH2
_symmetry_space_group_name_H-M   'P 1'
_cell_length_a   3.21975679
_cell_length_b   3.21975679
_cell_length_c   3.24370796
_cell_angle_alpha   90.00000000
_cell_angle_beta   90.00000000
_cell_angle_gamma   90.00000000
_symmetry_Int_Tables_number   1
_chemical_formula_structural   MgNiH2
_chemical_formula_sum   'Mg1 Ni1 H2'
_cell_volume   33.62698127
_cell_formula_units_Z   1
loop_
 _symmetry_equiv_pos_site_id
 _symmetry_equiv_pos_as_xyz
  1  'x, y, z'
loop_
 _atom_site_type_symbol
 _atom_site_label
 _atom_site_symmetry_multiplicity
 _atom_site_fract_x
 _atom_site_fract_y
 _atom_site_fract_z
 _atom_site_occupancy
  Mg  Mg0  1  0.00000000  0.00000000  0.00000000  1
  Ni  Ni0  1  0.50000000  0.50000000  0.50000000  1
  H  H0  1  0.00000000  0.50000000  0.50000000  1
  H  H1  1  0.50000000  0.00000000  0.50000000  1
loop_
_geom_bond_atom_site_label_1
_geom_bond_atom_site_label_2
_geom_bond_distance
_geom_bond_site_symmetry_2
H0 Ni0 1.609878 1_555
H0 Ni0 1.609878 1_455
H0 Mg0 2.285196 1_555
H0 Mg0 2.285196 1_556
H0 Mg0 2.285196 1_565
H0 Mg0 2.285196 1_566
H1 Ni0 1.609878 1_555
H1 Ni0 1.609878 1_545
H1 Mg0 2.285196 1_656
H1 Mg0 2.285196 1_555
H1 Mg0 2.285196 1_556
H1 Mg0 2.285196 1_655
