# generated using pymatgen
data_Co19(Si2B)4
_symmetry_space_group_name_H-M   'P 1'
_cell_length_a   6.46098371
_cell_length_b   6.46098371
_cell_length_c   8.45225385
_cell_angle_alpha   109.02193096
_cell_angle_beta   70.97806904
_cell_angle_gamma   96.15853776
_symmetry_Int_Tables_number   1
_chemical_formula_structural   Co19(Si2B)4
_chemical_formula_sum   'Co19 Si8 B4'
_cell_volume   315.35164972
_cell_formula_units_Z   1
loop_
 _symmetry_equiv_pos_site_id
 _symmetry_equiv_pos_as_xyz
  1  'x, y, z'
loop_
 _atom_site_type_symbol
 _atom_site_label
 _atom_site_symmetry_multiplicity
 _atom_site_fract_x
 _atom_site_fract_y
 _atom_site_fract_z
 _atom_site_occupancy
  Co  Co0  1  0.87326700  0.72278000  0.71425800  1
  Co  Co1  1  0.87198600  0.71603100  0.21098900  1
  Co  Co2  1  0.12726700  0.28171400  0.28689900  1
  Co  Co3  1  0.12641600  0.27761300  0.79010800  1
  Co  Co4  1  0.27761300  0.12641600  0.45989200  1
  Co  Co5  1  0.28171400  0.12726700  0.96310100  1
  Co  Co6  1  0.72278000  0.87326700  0.53574200  1
  Co  Co7  1  0.71603100  0.87198600  0.03901100  1
  Co  Co8  1  0.72400000  0.12509700  0.34773600  1
  Co  Co9  1  0.71780000  0.12687400  0.85276800  1
  Co  Co10  1  0.27701200  0.87499400  0.64820500  1
  Co  Co11  1  0.28239100  0.87229000  0.14805400  1
  Co  Co12  1  0.12687400  0.71780000  0.39723200  1
  Co  Co13  1  0.12509700  0.72400000  0.90226400  1
  Co  Co14  1  0.87499400  0.27701200  0.60179500  1
  Co  Co15  1  0.87229000  0.28239100  0.10194600  1
  Co  Co16  1  0.50086800  0.50086800  0.12500000  1
  Co  Co17  1  0.50060500  0.49966500  0.41087500  1
  Co  Co18  1  0.49966500  0.50060500  0.83912500  1
  Si  Si0  1  0.49965700  0.17903200  0.17868200  1
  Si  Si1  1  0.50105200  0.17737300  0.64130800  1
  Si  Si2  1  0.49959000  0.82395700  0.80301300  1
  Si  Si3  1  0.49949700  0.82169300  0.33984300  1
  Si  Si4  1  0.82395700  0.49959000  0.44698700  1
  Si  Si5  1  0.82169300  0.49949700  0.91015700  1
  Si  Si6  1  0.17737300  0.50105200  0.60869200  1
  Si  Si7  1  0.17903200  0.49965700  0.07131800  1
  B  B0  1  0.00147800  0.00147800  0.12500000  1
  B  B1  1  0.99837900  0.99837900  0.62500000  1
  B  B2  1  0.00281200  0.99680900  0.37160100  1
  B  B3  1  0.99680900  0.00281200  0.87839900  1
loop_
_geom_bond_atom_site_label_1
_geom_bond_atom_site_label_2
_geom_bond_distance
_geom_bond_site_symmetry_2
Co0 Si6 2.310163 1_655
Co0 Si4 2.351870 1_555
Co0 Si2 2.378523 1_555
Co0 Si5 2.455226 1_555
Co0 Co10 2.634718 1_655
Co0 Co14 2.722874 1_555
Co1 Si7 2.296993 1_655
Co1 Si3 2.367153 1_555
Co1 Si5 2.578837 1_554
Co1 Si4 2.711549 1_555
Co2 Si4 2.296648 1_455
Co2 Si0 2.361777 1_555
Co2 Si7 2.566931 1_555
Co3 Si5 2.305668 1_455
Co3 Si6 2.357039 1_555
Co3 Si1 2.383505 1_555
Co3 Si7 2.454071 1_556
Co4 Si3 2.305668 1_545
Co4 Si1 2.357039 1_555
Co4 Si6 2.383505 1_555
Co4 Si0 2.454071 1_555
Co5 Si2 2.296648 1_545
Co5 Si7 2.361777 1_556
Co5 Si0 2.566931 1_556
Co6 Si1 2.310163 1_565
Co6 Si2 2.351870 1_555
Co6 Si4 2.378523 1_555
Co6 Si3 2.455226 1_555
Co7 Si0 2.296993 1_565
Co7 Si5 2.367153 1_554
Co7 Si3 2.578837 1_555
Co7 Si2 2.711549 1_554
Co8 Si3 2.306276 1_545
Co8 Si1 2.360980 1_555
Co8 Si4 2.381178 1_555
Co8 Si0 2.459102 1_555
Co9 Si2 2.291916 1_545
Co9 Si5 2.363523 1_555
Co9 Si0 2.579602 1_556
Co10 Si1 2.308243 1_565
Co10 Si2 2.344887 1_555
Co10 Si6 2.375635 1_555
Co10 Si3 2.461076 1_555
Co10 Co12 2.489561 1_555
Co10 Co13 2.512477 1_555
Co10 Co4 2.617681 1_565
Co10 Co3 2.626908 1_565
Co10 Co5 2.637385 1_565
Co10 Co6 2.722874 1_555
Co10 Co17 2.771851 1_555
Co11 Si0 2.295826 1_565
Co11 Si7 2.362736 1_555
Co11 Si3 2.574561 1_555
Co11 Si2 2.721143 1_554
Co12 Si4 2.291916 1_455
Co12 Si3 2.363523 1_555
Co12 Si7 2.579602 1_555
Co13 Si5 2.306276 1_455
Co13 Si6 2.360980 1_555
Co13 Si2 2.381178 1_555
Co13 Si7 2.459102 1_556
Co14 Si6 2.308243 1_655
Co14 Si4 2.344887 1_555
Co14 Si1 2.375635 1_555
Co14 Si5 2.461076 1_555
Co14 Co9 2.489561 1_555
Co14 Co8 2.512477 1_555
Co14 Co3 2.617681 1_655
Co14 Co4 2.626908 1_655
Co14 Co6 2.634718 1_545
Co14 Co2 2.637385 1_655
Co14 Co18 2.771851 1_555
Co15 Si7 2.295826 1_655
Co15 Si0 2.362736 1_555
Co15 Si5 2.574561 1_554
Co15 Si4 2.721143 1_555
Co16 Si3 2.265850 1_555
Co16 Si5 2.265850 1_554
Co16 Si0 2.266927 1_555
Co16 Si7 2.266927 1_555
Co16 Co17 2.418279 1_555
Co16 Co18 2.418279 1_554
Co17 Si4 2.207666 1_555
Co17 Si6 2.207974 1_555
Co17 Si0 2.344800 1_555
Co17 Si3 2.347287 1_555
Co18 Si2 2.207666 1_555
Co18 Si1 2.207974 1_555
Co18 Si7 2.344800 1_556
Co18 Si5 2.347287 1_555
B0 B2 2.097185 1_545
B0 B3 2.097185 1_454
B0 Co8 2.126780 1_455
B0 Co13 2.126780 1_544
B0 Co2 2.146040 1_555
B0 Co5 2.146040 1_554
B0 Co15 2.165732 1_455
B0 Co11 2.165732 1_545
B0 Co1 2.185374 1_445
B0 Co7 2.185374 1_445
B1 B3 2.129345 1_565
B1 B2 2.129345 1_655
B1 Co10 2.134213 1_655
B1 Co14 2.134213 1_565
B1 Co0 2.136024 1_555
B1 Co6 2.136024 1_555
B1 Co3 2.162831 1_665
B1 Co4 2.162831 1_665
B1 Co9 2.165147 1_565
B1 Co12 2.165147 1_655
B2 Co4 2.132559 1_565
B2 Co11 2.139240 1_555
B2 Co6 2.147360 1_455
B2 Co12 2.148688 1_555
B2 Co8 2.153825 1_465
B2 Co1 2.159163 1_455
B2 Co2 2.171118 1_565
B2 Co14 2.173099 1_465
B3 Co3 2.132559 1_655
B3 Co15 2.139240 1_556
B3 Co0 2.147360 1_545
B3 Co9 2.148688 1_555
B3 Co13 2.153825 1_645
B3 Co7 2.159163 1_546
B3 Co5 2.171118 1_655
B3 Co10 2.173099 1_645
