# generated using pymatgen
data_CuAs
_symmetry_space_group_name_H-M   'P 1'
_cell_length_a   3.82970810
_cell_length_b   3.82970731
_cell_length_c   4.96002731
_cell_angle_alpha   90.00000000
_cell_angle_beta   90.00000000
_cell_angle_gamma   120.00000683
_symmetry_Int_Tables_number   1
_chemical_formula_structural   CuAs
_chemical_formula_sum   'Cu2 As2'
_cell_volume   63.00078001
_cell_formula_units_Z   2
loop_
 _symmetry_equiv_pos_site_id
 _symmetry_equiv_pos_as_xyz
  1  'x, y, z'
loop_
 _atom_site_type_symbol
 _atom_site_label
 _atom_site_symmetry_multiplicity
 _atom_site_fract_x
 _atom_site_fract_y
 _atom_site_fract_z
 _atom_site_occupancy
  Cu  Cu0  1  -0.00000000  0.00000000  0.50000000  1
  Cu  Cu1  1  -0.00000000  0.00000000  0.00000000  1
  As  As0  1  0.66666700  0.33333300  0.75000000  1
  As  As1  1  0.33333300  0.66666700  0.25000000  1
loop_
_geom_bond_atom_site_label_1
_geom_bond_atom_site_label_2
_geom_bond_distance
_geom_bond_site_symmetry_2
Cu0 Cu1 2.480014 1_555
Cu0 Cu1 2.480014 1_556
As0 Cu0 2.535053 1_655
As0 Cu1 2.535053 1_656
As0 Cu0 2.535056 1_665
As0 Cu1 2.535056 1_666
As0 Cu0 2.535056 1_555
As0 Cu1 2.535056 1_556
As1 Cu1 2.535053 1_565
As1 Cu0 2.535053 1_565
As1 Cu1 2.535056 1_555
As1 Cu0 2.535056 1_555
As1 Cu0 2.535056 1_665
As1 Cu1 2.535056 1_665
