# generated using pymatgen
data_Cs2HgAuBr6
_symmetry_space_group_name_H-M   'P 1'
_cell_length_a   7.89697702
_cell_length_b   7.89697702
_cell_length_c   7.89697702
_cell_angle_alpha   60.00000000
_cell_angle_beta   60.00000000
_cell_angle_gamma   60.00000000
_symmetry_Int_Tables_number   1
_chemical_formula_structural   Cs2HgAuBr6
_chemical_formula_sum   'Cs2 Hg1 Au1 Br6'
_cell_volume   348.23115593
_cell_formula_units_Z   1
loop_
 _symmetry_equiv_pos_site_id
 _symmetry_equiv_pos_as_xyz
  1  'x, y, z'
loop_
 _atom_site_type_symbol
 _atom_site_label
 _atom_site_symmetry_multiplicity
 _atom_site_fract_x
 _atom_site_fract_y
 _atom_site_fract_z
 _atom_site_occupancy
  Cs  Cs0  1  0.75000000  0.75000000  0.75000000  1
  Cs  Cs1  1  0.25000000  0.25000000  0.25000000  1
  Hg  Hg0  1  0.50000000  0.50000000  0.50000000  1
  Au  Au0  1  0.00000000  0.00000000  0.00000000  1
  Br  Br0  1  0.75626100  0.24373900  0.24373900  1
  Br  Br1  1  0.24373900  0.24373900  0.75626100  1
  Br  Br2  1  0.24373900  0.75626100  0.75626100  1
  Br  Br3  1  0.24373900  0.75626100  0.24373900  1
  Br  Br4  1  0.75626100  0.24373900  0.75626100  1
  Br  Br5  1  0.75626100  0.75626100  0.24373900  1
loop_
_geom_bond_atom_site_label_1
_geom_bond_atom_site_label_2
_geom_bond_distance
_geom_bond_site_symmetry_2
Au0 Br0 2.722080 1_455
Au0 Br3 2.722080 1_545
Au0 Br1 2.722080 1_554
Au0 Br5 2.722080 1_445
Au0 Br4 2.722080 1_454
Au0 Br2 2.722080 1_544
Br0 Hg0 2.861926 1_555
Br0 Cs1 3.949108 1_555
Br0 Cs0 3.949108 1_545
Br0 Cs0 3.949108 1_554
Br0 Cs1 3.949108 1_655
Br1 Hg0 2.861926 1_555
Br1 Cs1 3.949108 1_555
Br1 Cs0 3.949108 1_545
Br1 Cs0 3.949108 1_455
Br1 Cs1 3.949108 1_556
Br2 Hg0 2.861926 1_555
Br2 Cs0 3.949108 1_455
Br2 Cs1 3.949108 1_565
Br2 Cs1 3.949108 1_556
Br2 Cs0 3.949108 1_555
Br3 Hg0 2.861926 1_555
Br3 Cs1 3.949108 1_555
Br3 Cs0 3.949108 1_554
Br3 Cs0 3.949108 1_455
Br3 Cs1 3.949108 1_565
Br4 Hg0 2.861926 1_555
Br4 Cs0 3.949108 1_545
Br4 Cs1 3.949108 1_655
Br4 Cs1 3.949108 1_556
Br4 Cs0 3.949108 1_555
Br5 Hg0 2.861926 1_555
Br5 Cs0 3.949108 1_554
Br5 Cs1 3.949108 1_655
Br5 Cs1 3.949108 1_565
Br5 Cs0 3.949108 1_555
