# generated using pymatgen
data_Pr(NiSb)2
_symmetry_space_group_name_H-M   'P 1'
_cell_length_a   4.47679572
_cell_length_b   4.47679572
_cell_length_c   9.93787450
_cell_angle_alpha   89.99997500
_cell_angle_beta   89.99997500
_cell_angle_gamma   90.00000000
_symmetry_Int_Tables_number   1
_chemical_formula_structural   Pr(NiSb)2
_chemical_formula_sum   'Pr2 Ni4 Sb4'
_cell_volume   199.17189856
_cell_formula_units_Z   2
loop_
 _symmetry_equiv_pos_site_id
 _symmetry_equiv_pos_as_xyz
  1  'x, y, z'
loop_
 _atom_site_type_symbol
 _atom_site_label
 _atom_site_symmetry_multiplicity
 _atom_site_fract_x
 _atom_site_fract_y
 _atom_site_fract_z
 _atom_site_occupancy
  Pr  Pr0  1  0.75000000  0.75000000  0.23872098  1
  Pr  Pr1  1  0.25000000  0.25000000  0.76127902  1
  Ni  Ni0  1  0.75000000  0.24999900  -0.00000000  1
  Ni  Ni1  1  0.25000000  0.75000100  -0.00000000  1
  Ni  Ni2  1  0.75000000  0.75000000  0.62189882  1
  Ni  Ni3  1  0.25000000  0.25000000  0.37810118  1
  Sb  Sb0  1  0.75000000  0.25000000  0.50000000  1
  Sb  Sb1  1  0.25000000  0.75000000  0.50000000  1
  Sb  Sb2  1  0.75000000  0.75000000  0.87497852  1
  Sb  Sb3  1  0.25000000  0.25000000  0.12502148  1
loop_
_geom_bond_atom_site_label_1
_geom_bond_atom_site_label_2
_geom_bond_distance
_geom_bond_site_symmetry_2
Pr0 Sb3 3.361189 1_665
Pr0 Sb3 3.361189 1_565
Pr0 Sb3 3.361189 1_655
Pr0 Sb3 3.361190 1_555
Pr0 Sb1 3.428197 1_555
Pr0 Sb0 3.428197 1_555
Pr0 Sb1 3.428198 1_655
Pr0 Sb0 3.428198 1_565
Pr1 Sb2 3.361189 1_445
Pr1 Sb2 3.361189 1_455
Pr1 Sb2 3.361189 1_545
Pr1 Sb2 3.361190 1_555
Pr1 Sb1 3.428197 1_555
Pr1 Sb0 3.428197 1_555
Pr1 Sb1 3.428198 1_545
Pr1 Sb0 3.428198 1_455
Ni0 Sb2 2.560094 1_544
Ni0 Sb3 2.560097 1_555
Ni0 Sb3 2.560098 1_655
Ni0 Sb2 2.560101 1_554
Ni0 Pr0 3.261684 1_545
Ni0 Pr1 3.261687 1_654
Ni0 Pr1 3.261689 1_554
Ni0 Pr0 3.261692 1_555
Ni1 Sb3 2.560094 1_565
Ni1 Sb2 2.560097 1_554
Ni1 Sb2 2.560098 1_454
Ni1 Sb3 2.560101 1_555
Ni1 Pr1 3.261684 1_564
Ni1 Pr0 3.261687 1_455
Ni1 Pr0 3.261689 1_555
Ni1 Pr1 3.261692 1_554
Ni2 Sb2 2.515074 1_555
Ni2 Sb1 2.545182 1_655
Ni2 Sb0 2.545182 1_565
Ni2 Sb0 2.545183 1_555
Ni2 Sb1 2.545183 1_555
Ni2 Pr1 3.455353 1_555
Ni2 Pr1 3.455354 1_565
Ni2 Pr1 3.455354 1_655
Ni2 Pr1 3.455355 1_665
Ni3 Sb3 2.515074 1_555
Ni3 Sb1 2.545182 1_545
Ni3 Sb0 2.545182 1_455
Ni3 Sb0 2.545183 1_555
Ni3 Sb1 2.545183 1_555
Ni3 Pr0 3.455353 1_555
Ni3 Pr0 3.455354 1_455
Ni3 Pr0 3.455354 1_545
Ni3 Pr0 3.455355 1_445
