# generated using pymatgen
data_UC4S2(NO5)2
_symmetry_space_group_name_H-M   'P 1'
_cell_length_a   6.01671400
_cell_length_b   9.36460472
_cell_length_c   16.28987229
_cell_angle_alpha   84.23101549
_cell_angle_beta   79.35772633
_cell_angle_gamma   71.26160742
_symmetry_Int_Tables_number   1
_chemical_formula_structural   UC4S2(NO5)2
_chemical_formula_sum   'U2 C8 S4 N4 O20'
_cell_volume   853.40150237
_cell_formula_units_Z   2
loop_
 _symmetry_equiv_pos_site_id
 _symmetry_equiv_pos_as_xyz
  1  'x, y, z'
loop_
 _atom_site_type_symbol
 _atom_site_label
 _atom_site_symmetry_multiplicity
 _atom_site_fract_x
 _atom_site_fract_y
 _atom_site_fract_z
 _atom_site_occupancy
  U  U0  1  0.50000000  0.00000000  0.50000000  1
  U  U1  1  0.00000000  0.50000000  0.00000000  1
  C  C0  1  0.91060000  0.98768700  0.16140900  1
  C  C1  1  0.05969700  0.51231300  0.33859100  1
  C  C2  1  0.08940000  0.01231300  0.83859100  1
  C  C3  1  0.94030300  0.48768700  0.66140900  1
  C  C4  1  0.06200300  0.04990600  0.21298600  1
  C  C5  1  0.32489500  0.45009400  0.28701400  1
  C  C6  1  0.93799700  0.95009400  0.78701400  1
  C  C7  1  0.67510500  0.54990600  0.71298600  1
  S  S0  1  0.81015100  0.02752800  0.26216600  1
  S  S1  1  0.09984400  0.47247200  0.23783400  1
  S  S2  1  0.18984900  0.97247200  0.73783400  1
  S  S3  1  0.90015600  0.52752800  0.76216600  1
  N  N0  1  0.63717800  0.25611800  0.53880400  1
  N  N1  1  0.43209900  0.24388200  0.96119600  1
  N  N2  1  0.36282200  0.74388200  0.46119600  1
  N  N3  1  0.56790100  0.75611800  0.03880400  1
  O  O0  1  0.21185100  0.12473000  0.48598000  1
  O  O1  1  0.82256100  0.37527000  0.01402000  1
  O  O2  1  0.78814900  0.87527000  0.51402000  1
  O  O3  1  0.17743900  0.62473000  0.98598000  1
  O  O4  1  0.55528500  0.17038100  0.59597900  1
  O  O5  1  0.32164500  0.32961900  0.90402100  1
  O  O6  1  0.44471500  0.82961900  0.40402100  1
  O  O7  1  0.67835500  0.67038100  0.09597900  1
  O  O8  1  0.65246500  0.21759200  0.46338100  1
  O  O9  1  0.33343800  0.28240800  0.03661900  1
  O  O10  1  0.34753500  0.78240800  0.53661900  1
  O  O11  1  0.66656200  0.71759200  0.96338100  1
  O  O12  1  0.64553400  0.03566300  0.34133600  1
  O  O13  1  0.02253400  0.46433700  0.15866400  1
  O  O14  1  0.35446600  0.96433700  0.65866400  1
  O  O15  1  0.97746600  0.53566300  0.84133600  1
  O  O16  1  0.69470500  0.36226700  0.55481100  1
  O  O17  1  0.61178300  0.13773300  0.94518900  1
  O  O18  1  0.30529500  0.63773300  0.44518900  1
  O  O19  1  0.38821700  0.86226700  0.05481100  1
loop_
_geom_bond_atom_site_label_1
_geom_bond_atom_site_label_2
_geom_bond_distance
_geom_bond_site_symmetry_2
C0 C4 1.611628 1_665
C0 S0 1.676377 1_565
C1 C5 1.611623 1_555
C1 S1 1.676378 1_555
C2 C6 1.611628 1_445
C2 S2 1.676377 1_545
C3 C7 1.611623 1_555
C3 S3 1.676378 1_555
C4 S0 1.644330 1_455
C5 S1 1.644335 1_555
C6 S2 1.644330 1_655
C7 S3 1.644335 1_555
N0 O16 1.217545 1_555
N0 O8 1.293912 1_555
N0 O4 1.299698 1_555
N1 O17 1.217549 1_555
N1 O9 1.293911 1_556
N1 O5 1.299695 1_555
N2 O18 1.217545 1_555
N2 O10 1.293912 1_555
N2 O6 1.299698 1_555
N3 O19 1.217549 1_555
N3 O11 1.293911 1_554
N3 O7 1.299695 1_555
O0 U0 1.792700 1_555
O1 U1 1.792700 1_655
O2 U0 1.792700 1_565
O3 U1 1.792700 1_556
O4 U0 2.476995 1_555
O5 U1 2.476995 1_556
O6 U0 2.476995 1_565
O7 U1 2.476995 1_655
O8 U0 2.470609 1_555
O9 U1 2.470609 1_555
O10 U0 2.470609 1_565
O11 U1 2.470609 1_656
O12 S0 1.466126 1_555
O12 U0 2.595566 1_555
O13 S1 1.466120 1_555
O13 U1 2.595567 1_555
O14 S2 1.466126 1_555
O14 U0 2.595566 1_565
O15 S3 1.466120 1_555
O15 U1 2.595567 1_656
