# generated using pymatgen
data_Er2OsC2
_symmetry_space_group_name_H-M   'P 1'
_cell_length_a   5.04848044
_cell_length_b   6.39521762
_cell_length_c   9.66767932
_cell_angle_alpha   90.00000000
_cell_angle_beta   90.00000000
_cell_angle_gamma   90.00000000
_symmetry_Int_Tables_number   1
_chemical_formula_structural   Er2OsC2
_chemical_formula_sum   'Er8 Os4 C8'
_cell_volume   312.13196161
_cell_formula_units_Z   4
loop_
 _symmetry_equiv_pos_site_id
 _symmetry_equiv_pos_as_xyz
  1  'x, y, z'
loop_
 _atom_site_type_symbol
 _atom_site_label
 _atom_site_symmetry_multiplicity
 _atom_site_fract_x
 _atom_site_fract_y
 _atom_site_fract_z
 _atom_site_occupancy
  Er  Er0  1  0.25000000  0.68045336  0.55326836  1
  Er  Er1  1  0.75000000  0.31954664  0.44673164  1
  Er  Er2  1  0.75000000  0.81954664  0.05326836  1
  Er  Er3  1  0.25000000  0.18045336  0.94673164  1
  Er  Er4  1  0.25000000  0.52847645  0.21834618  1
  Er  Er5  1  0.75000000  0.47152355  0.78165382  1
  Er  Er6  1  0.75000000  0.97152355  0.71834618  1
  Er  Er7  1  0.25000000  0.02847645  0.28165382  1
  Os  Os0  1  0.25000000  0.72206164  0.86624086  1
  Os  Os1  1  0.75000000  0.27793836  0.13375914  1
  Os  Os2  1  0.75000000  0.77793836  0.36624086  1
  Os  Os3  1  0.25000000  0.22206164  0.63375914  1
  C  C0  1  0.25000000  0.45820324  0.75815332  1
  C  C1  1  0.75000000  0.54179676  0.24184668  1
  C  C2  1  0.75000000  0.04179676  0.25815332  1
  C  C3  1  0.25000000  0.95820324  0.74184668  1
  C  C4  1  0.25000000  0.82658206  0.05511301  1
  C  C5  1  0.75000000  0.17341794  0.94488699  1
  C  C6  1  0.75000000  0.67341794  0.55511301  1
  C  C7  1  0.25000000  0.32658206  0.44488699  1
loop_
_geom_bond_atom_site_label_1
_geom_bond_atom_site_label_2
_geom_bond_distance
_geom_bond_site_symmetry_2
C0 Os3 1.930515 1_555
C0 Os0 1.984782 1_555
C0 Er0 2.437954 1_555
C0 Er5 2.535875 1_455
C0 Er5 2.535875 1_555
C0 Er3 2.545366 1_555
C1 Os2 1.930515 1_555
C1 Os1 1.984782 1_555
C1 Er1 2.437954 1_555
C1 Er4 2.535875 1_555
C1 Er4 2.535875 1_655
C1 Er2 2.545366 1_555
C2 Os1 1.930515 1_555
C2 Os2 1.984782 1_545
C2 Er2 2.437954 1_545
C2 Er7 2.535875 1_555
C2 Er7 2.535875 1_655
C2 Er1 2.545366 1_555
C3 Os0 1.930515 1_555
C3 Os3 1.984782 1_565
C3 Er3 2.437954 1_565
C3 Er6 2.535875 1_455
C3 Er6 2.535875 1_555
C3 Er0 2.545366 1_555
C4 Os0 1.944457 1_554
C4 Er4 2.474855 1_555
C4 Er3 2.493878 1_564
C4 Er2 2.524704 1_455
C4 Er2 2.524704 1_555
C4 Er7 2.542387 1_565
C5 Os1 1.944457 1_556
C5 Er5 2.474855 1_555
C5 Er2 2.493878 1_546
C5 Er3 2.524704 1_555
C5 Er3 2.524704 1_655
C5 Er6 2.542387 1_545
C6 Os2 1.944457 1_555
C6 Er6 2.474855 1_555
C6 Er1 2.493878 1_555
C6 Er0 2.524704 1_655
C6 Er0 2.524704 1_555
C6 Er5 2.542387 1_555
C7 Os3 1.944457 1_555
C7 Er7 2.474855 1_555
C7 Er0 2.493878 1_555
C7 Er1 2.524704 1_455
C7 Er1 2.524704 1_555
C7 Er4 2.542387 1_555
