# generated using pymatgen
data_DyS2
_symmetry_space_group_name_H-M   'P 1'
_cell_length_a   5.51580059
_cell_length_b   5.51580059
_cell_length_c   5.51580059
_cell_angle_alpha   60.00000000
_cell_angle_beta   60.00000000
_cell_angle_gamma   60.00000000
_symmetry_Int_Tables_number   1
_chemical_formula_structural   DyS2
_chemical_formula_sum   'Dy2 S4'
_cell_volume   118.66172918
_cell_formula_units_Z   2
loop_
 _symmetry_equiv_pos_site_id
 _symmetry_equiv_pos_as_xyz
  1  'x, y, z'
loop_
 _atom_site_type_symbol
 _atom_site_label
 _atom_site_symmetry_multiplicity
 _atom_site_fract_x
 _atom_site_fract_y
 _atom_site_fract_z
 _atom_site_occupancy
  Dy  Dy0  1  0.25000000  0.25000000  0.25000000  1
  Dy  Dy1  1  0.50000000  0.50000000  0.50000000  1
  S  S0  1  0.37500000  0.87500000  0.87500000  1
  S  S1  1  0.87500000  0.37500000  0.87500000  1
  S  S2  1  0.87500000  0.87500000  0.87500000  1
  S  S3  1  0.87500000  0.87500000  0.37500000  1
loop_
_geom_bond_atom_site_label_1
_geom_bond_atom_site_label_2
_geom_bond_distance
_geom_bond_site_symmetry_2
Dy0 S0 3.233925 1_554
Dy0 S2 3.233925 1_445
Dy0 S2 3.233925 1_454
Dy0 S1 3.233925 1_455
Dy0 S1 3.233925 1_454
Dy0 S2 3.233925 1_544
Dy0 S3 3.233925 1_545
Dy0 S1 3.233925 1_554
Dy0 S0 3.233925 1_544
Dy0 S3 3.233925 1_455
Dy0 S0 3.233925 1_545
Dy0 S3 3.233925 1_445
Dy1 S0 3.233925 1_554
Dy1 S1 3.233925 1_455
Dy1 S2 3.233925 1_545
Dy1 S3 3.233925 1_545
Dy1 S0 3.233925 1_555
Dy1 S1 3.233925 1_555
Dy1 S1 3.233925 1_554
Dy1 S2 3.233925 1_455
Dy1 S2 3.233925 1_554
Dy1 S3 3.233925 1_455
Dy1 S0 3.233925 1_545
Dy1 S3 3.233925 1_555
S0 S1 2.757900 1_555
S0 S2 2.757900 1_455
S0 S3 2.757900 1_456
S0 S3 2.757900 1_555
S0 S2 2.757900 1_555
S0 S1 2.757900 1_465
S1 S3 2.757900 1_546
S1 S3 2.757900 1_555
S1 S2 2.757900 1_555
S1 S2 2.757900 1_545
S2 S3 2.757900 1_555
S2 S3 2.757900 1_556
