# generated using pymatgen
data_Mg6H12C14NO24
_symmetry_space_group_name_H-M   'P 1'
_cell_length_a   10.26255730
_cell_length_b   18.62988796
_cell_length_c   18.96695285
_cell_angle_alpha   90.00000000
_cell_angle_beta   90.00000000
_cell_angle_gamma   90.00000000
_symmetry_Int_Tables_number   1
_chemical_formula_structural   Mg6H12C14NO24
_chemical_formula_sum   'Mg24 H48 C56 N4 O96'
_cell_volume   3626.29726668
_cell_formula_units_Z   4
loop_
 _symmetry_equiv_pos_site_id
 _symmetry_equiv_pos_as_xyz
  1  'x, y, z'
loop_
 _atom_site_type_symbol
 _atom_site_label
 _atom_site_symmetry_multiplicity
 _atom_site_fract_x
 _atom_site_fract_y
 _atom_site_fract_z
 _atom_site_occupancy
  Mg  Mg0  1  0.42482735  0.44103954  0.17830589  1
  Mg  Mg1  1  0.07517265  0.94103954  0.32169411  1
  Mg  Mg2  1  0.92482735  0.55896046  0.32169411  1
  Mg  Mg3  1  0.57517265  0.05896046  0.17830589  1
  Mg  Mg4  1  0.57517265  0.55896046  0.82169411  1
  Mg  Mg5  1  0.92482735  0.05896046  0.67830589  1
  Mg  Mg6  1  0.07517265  0.44103954  0.67830589  1
  Mg  Mg7  1  0.42482735  0.94103954  0.82169411  1
  Mg  Mg8  1  0.11927606  0.46672148  0.21889178  1
  Mg  Mg9  1  0.38072394  0.96672148  0.28110822  1
  Mg  Mg10  1  0.61927606  0.53327852  0.28110822  1
  Mg  Mg11  1  0.88072394  0.03327852  0.21889178  1
  Mg  Mg12  1  0.88072394  0.53327852  0.78110822  1
  Mg  Mg13  1  0.61927606  0.03327852  0.71889178  1
  Mg  Mg14  1  0.38072394  0.46672148  0.71889178  1
  Mg  Mg15  1  0.11927606  0.96672148  0.78110822  1
  Mg  Mg16  1  0.50000000  0.50000000  -0.00000000  1
  Mg  Mg17  1  0.00000000  -0.00000000  0.50000000  1
  Mg  Mg18  1  0.00000000  0.50000000  0.50000000  1
  Mg  Mg19  1  0.50000000  -0.00000000  -0.00000000  1
  Mg  Mg20  1  0.50000000  0.25000000  0.18375898  1
  Mg  Mg21  1  0.00000000  0.75000000  0.31624102  1
  Mg  Mg22  1  0.50000000  0.75000000  0.81624102  1
  Mg  Mg23  1  0.00000000  0.25000000  0.68375898  1
  H  H0  1  0.26258502  0.50509137  0.36440942  1
  H  H1  1  0.23741498  0.00509137  0.13559058  1
  H  H2  1  0.76258502  0.49490863  0.13559058  1
  H  H3  1  0.73741498  0.99490863  0.36440942  1
  H  H4  1  0.73741498  0.49490863  0.63559058  1
  H  H5  1  0.76258502  0.99490863  0.86440942  1
  H  H6  1  0.23741498  0.50509137  0.86440942  1
  H  H7  1  0.26258502  0.00509137  0.63559058  1
  H  H8  1  0.11854628  0.49343692  0.05223654  1
  H  H9  1  0.38145372  0.99343692  0.44776346  1
  H  H10  1  0.61854628  0.50656308  0.44776346  1
  H  H11  1  0.88145372  0.00656308  0.05223654  1
  H  H12  1  0.88145372  0.50656308  0.94776346  1
  H  H13  1  0.61854628  0.00656308  0.55223654  1
  H  H14  1  0.38145372  0.49343692  0.55223654  1
  H  H15  1  0.11854628  0.99343692  0.94776346  1
  H  H16  1  0.20928335  0.25992479  0.18234167  1
  H  H17  1  0.29071665  0.75992479  0.31765833  1
  H  H18  1  0.70928335  0.74007521  0.31765833  1
  H  H19  1  0.79071665  0.24007521  0.18234167  1
  H  H20  1  0.79071665  0.74007521  0.81765833  1
  H  H21  1  0.70928335  0.24007521  0.68234167  1
  H  H22  1  0.29071665  0.25992479  0.68234167  1
  H  H23  1  0.20928335  0.75992479  0.81765833  1
  H  H24  1  0.70268108  0.37562725  0.31842682  1
  H  H25  1  0.79731892  0.87562725  0.18157318  1
  H  H26  1  0.20268108  0.62437275  0.18157318  1
  H  H27  1  0.29731892  0.12437275  0.31842682  1
  H  H28  1  0.29731892  0.62437275  0.68157318  1
  H  H29  1  0.20268108  0.12437275  0.81842682  1
  H  H30  1  0.79731892  0.37562725  0.81842682  1
  H  H31  1  0.70268108  0.87562725  0.68157318  1
  H  H32  1  0.54192517  0.64699445  0.15493206  1
  H  H33  1  0.95807483  0.14699445  0.34506794  1
  H  H34  1  0.04192517  0.35300555  0.34506794  1
  H  H35  1  0.45807483  0.85300555  0.15493206  1
  H  H36  1  0.45807483  0.35300555  0.84506794  1
  H  H37  1  0.04192517  0.85300555  0.65493206  1
  H  H38  1  0.95807483  0.64699445  0.65493206  1
  H  H39  1  0.54192517  0.14699445  0.84506794  1
  H  H40  1  0.65724876  0.36584887  0.02566736  1
  H  H41  1  0.84275124  0.86584887  0.47433264  1
  H  H42  1  0.15724876  0.63415113  0.47433264  1
  H  H43  1  0.34275124  0.13415113  0.02566736  1
  H  H44  1  0.34275124  0.63415113  0.97433264  1
  H  H45  1  0.15724876  0.13415113  0.52566736  1
  H  H46  1  0.84275124  0.36584887  0.52566736  1
  H  H47  1  0.65724876  0.86584887  0.97433264  1
  C  C0  1  0.33931550  0.50122332  0.32360891  1
  C  C1  1  0.16068450  0.00122332  0.17639109  1
  C  C2  1  0.83931550  0.49877668  0.17639109  1
  C  C3  1  0.66068450  0.99877668  0.32360891  1
  C  C4  1  0.66068450  0.49877668  0.67639109  1
  C  C5  1  0.83931550  0.99877668  0.82360891  1
  C  C6  1  0.16068450  0.50122332  0.82360891  1
  C  C7  1  0.33931550  0.00122332  0.67639109  1
  C  C8  1  0.22344100  0.48812166  0.06459324  1
  C  C9  1  0.27655900  0.98812166  0.43540676  1
  C  C10  1  0.72344100  0.51187834  0.43540676  1
  C  C11  1  0.77655900  0.01187834  0.06459324  1
  C  C12  1  0.77655900  0.51187834  0.93540676  1
  C  C13  1  0.72344100  0.01187834  0.56459324  1
  C  C14  1  0.27655900  0.48812166  0.56459324  1
  C  C15  1  0.22344100  0.98812166  0.93540676  1
  C  C16  1  0.23133859  0.31754778  0.18982975  1
  C  C17  1  0.26866141  0.81754778  0.31017025  1
  C  C18  1  0.73133859  0.68245222  0.31017025  1
  C  C19  1  0.76866141  0.18245222  0.18982975  1
  C  C20  1  0.76866141  0.68245222  0.81017025  1
  C  C21  1  0.73133859  0.18245222  0.68982975  1
  C  C22  1  0.26866141  0.31754778  0.68982975  1
  C  C23  1  0.23133859  0.81754778  0.81017025  1
  C  C24  1  0.62808951  0.36711614  0.27698261  1
  C  C25  1  0.87191049  0.86711614  0.22301739  1
  C  C26  1  0.12808951  0.63288386  0.22301739  1
  C  C27  1  0.37191049  0.13288386  0.27698261  1
  C  C28  1  0.37191049  0.63288386  0.72301739  1
  C  C29  1  0.12808951  0.13288386  0.77698261  1
  C  C30  1  0.87191049  0.36711614  0.77698261  1
  C  C31  1  0.62808951  0.86711614  0.72301739  1
  C  C32  1  0.52093673  0.59169258  0.13685574  1
  C  C33  1  0.97906327  0.09169258  0.36314426  1
  C  C34  1  0.02093673  0.40830742  0.36314426  1
  C  C35  1  0.47906327  0.90830742  0.13685574  1
  C  C36  1  0.47906327  0.40830742  0.86314426  1
  C  C37  1  0.02093673  0.90830742  0.63685574  1
  C  C38  1  0.97906327  0.59169258  0.63685574  1
  C  C39  1  0.52093673  0.09169258  0.86314426  1
  C  C40  1  0.59416281  0.36406692  0.07286804  1
  C  C41  1  0.90583719  0.86406692  0.42713196  1
  C  C42  1  0.09416281  0.63593308  0.42713196  1
  C  C43  1  0.40583719  0.13593308  0.07286804  1
  C  C44  1  0.40583719  0.63593308  0.92713196  1
  C  C45  1  0.09416281  0.13593308  0.57286804  1
  C  C46  1  0.90583719  0.36406692  0.57286804  1
  C  C47  1  0.59416281  0.86406692  0.92713196  1
  C  C48  1  0.89485827  0.21608996  0.96775638  1
  C  C49  1  0.60514173  0.71608996  0.53224362  1
  C  C50  1  0.39485827  0.78391004  0.53224362  1
  C  C51  1  0.10514173  0.28391004  0.96775638  1
  C  C52  1  0.10514173  0.78391004  0.03224362  1
  C  C53  1  0.39485827  0.28391004  0.46775638  1
  C  C54  1  0.60514173  0.21608996  0.46775638  1
  C  C55  1  0.89485827  0.71608996  0.03224362  1
  N  N0  1  0.00000000  0.25000000  0.97225942  1
  N  N1  1  0.50000000  0.75000000  0.52774058  1
  N  N2  1  0.00000000  0.75000000  0.02774058  1
  N  N3  1  0.50000000  0.25000000  0.47225942  1
  O  O0  1  0.30564508  0.47248147  0.26477819  1
  O  O1  1  0.19435492  0.97248147  0.23522181  1
  O  O2  1  0.80564508  0.52751853  0.23522181  1
  O  O3  1  0.69435492  0.02751853  0.26477819  1
  O  O4  1  0.69435492  0.52751853  0.73522181  1
  O  O5  1  0.80564508  0.02751853  0.76477819  1
  O  O6  1  0.19435492  0.47248147  0.76477819  1
  O  O7  1  0.30564508  0.97248147  0.73522181  1
  O  O8  1  0.45071158  0.52461328  0.33837728  1
  O  O9  1  0.04928842  0.02461328  0.16162272  1
  O  O10  1  0.95071158  0.47538672  0.16162272  1
  O  O11  1  0.54928842  0.97538672  0.33837728  1
  O  O12  1  0.54928842  0.47538672  0.66162272  1
  O  O13  1  0.95071158  0.97538672  0.83837728  1
  O  O14  1  0.04928842  0.52461328  0.83837728  1
  O  O15  1  0.45071158  0.02461328  0.66162272  1
  O  O16  1  0.35228410  0.33516322  0.18437171  1
  O  O17  1  0.14771590  0.83516322  0.31562829  1
  O  O18  1  0.85228410  0.66483678  0.31562829  1
  O  O19  1  0.64771590  0.16483678  0.18437171  1
  O  O20  1  0.64771590  0.66483678  0.81562829  1
  O  O21  1  0.85228410  0.16483678  0.68437171  1
  O  O22  1  0.14771590  0.33516322  0.68437171  1
  O  O23  1  0.35228410  0.83516322  0.81562829  1
  O  O24  1  0.13809328  0.35903027  0.20238938  1
  O  O25  1  0.36190672  0.85903027  0.29761062  1
  O  O26  1  0.63809328  0.64096973  0.29761062  1
  O  O27  1  0.86190672  0.14096973  0.20238938  1
  O  O28  1  0.86190672  0.64096973  0.79761062  1
  O  O29  1  0.63809328  0.14096973  0.70238938  1
  O  O30  1  0.36190672  0.35903027  0.70238938  1
  O  O31  1  0.13809328  0.85903027  0.79761062  1
  O  O32  1  0.51674697  0.54305167  0.18497751  1
  O  O33  1  0.98325303  0.04305167  0.31502249  1
  O  O34  1  0.01674697  0.45694833  0.31502249  1
  O  O35  1  0.48325303  0.95694833  0.18497751  1
  O  O36  1  0.48325303  0.45694833  0.81502249  1
  O  O37  1  0.01674697  0.95694833  0.68497751  1
  O  O38  1  0.98325303  0.54305167  0.68497751  1
  O  O39  1  0.51674697  0.04305167  0.81502249  1
  O  O40  1  0.57993553  0.42451424  0.24978413  1
  O  O41  1  0.92006447  0.92451424  0.25021587  1
  O  O42  1  0.07993553  0.57548576  0.25021587  1
  O  O43  1  0.42006447  0.07548576  0.24978413  1
  O  O44  1  0.42006447  0.57548576  0.75021587  1
  O  O45  1  0.07993553  0.07548576  0.74978413  1
  O  O46  1  0.92006447  0.42451424  0.74978413  1
  O  O47  1  0.57993553  0.92451424  0.75021587  1
  O  O48  1  0.52548871  0.42072565  0.08462181  1
  O  O49  1  0.97451129  0.92072565  0.41537819  1
  O  O50  1  0.02548871  0.57927435  0.41537819  1
  O  O51  1  0.47451129  0.07927435  0.08462181  1
  O  O52  1  0.47451129  0.57927435  0.91537819  1
  O  O53  1  0.02548871  0.07927435  0.58462181  1
  O  O54  1  0.97451129  0.42072565  0.58462181  1
  O  O55  1  0.52548871  0.92072565  0.91537819  1
  O  O56  1  0.25152116  0.47941656  0.13035278  1
  O  O57  1  0.24847884  0.97941656  0.36964722  1
  O  O58  1  0.75152116  0.52058344  0.36964722  1
  O  O59  1  0.74847884  0.02058344  0.13035278  1
  O  O60  1  0.74847884  0.52058344  0.86964722  1
  O  O61  1  0.75152116  0.02058344  0.63035278  1
  O  O62  1  0.24847884  0.47941656  0.63035278  1
  O  O63  1  0.25152116  0.97941656  0.86964722  1
  O  O64  1  0.59947372  0.30412022  0.26123198  1
  O  O65  1  0.90052628  0.80412022  0.23876802  1
  O  O66  1  0.09947372  0.69587978  0.23876802  1
  O  O67  1  0.40052628  0.19587978  0.26123198  1
  O  O68  1  0.40052628  0.69587978  0.73876802  1
  O  O69  1  0.09947372  0.19587978  0.76123198  1
  O  O70  1  0.90052628  0.30412022  0.76123198  1
  O  O71  1  0.59947372  0.80412022  0.73876802  1
  O  O72  1  0.59688807  0.30850128  0.10973528  1
  O  O73  1  0.90311193  0.80850128  0.39026472  1
  O  O74  1  0.09688807  0.69149872  0.39026472  1
  O  O75  1  0.40311193  0.19149872  0.10973528  1
  O  O76  1  0.40311193  0.69149872  0.89026472  1
  O  O77  1  0.09688807  0.19149872  0.60973528  1
  O  O78  1  0.90311193  0.30850128  0.60973528  1
  O  O79  1  0.59688807  0.80850128  0.89026472  1
  O  O80  1  0.30276193  0.49131453  0.01473682  1
  O  O81  1  0.19723807  0.99131453  0.48526318  1
  O  O82  1  0.80276193  0.50868547  0.48526318  1
  O  O83  1  0.69723807  0.00868547  0.01473682  1
  O  O84  1  0.69723807  0.50868547  0.98526318  1
  O  O85  1  0.80276193  0.00868547  0.51473682  1
  O  O86  1  0.19723807  0.49131453  0.51473682  1
  O  O87  1  0.30276193  0.99131453  0.98526318  1
  O  O88  1  0.50265981  0.58167347  0.07252969  1
  O  O89  1  0.99734019  0.08167347  0.42747031  1
  O  O90  1  0.00265981  0.41832653  0.42747031  1
  O  O91  1  0.49734019  0.91832653  0.07252969  1
  O  O92  1  0.49734019  0.41832653  0.92747031  1
  O  O93  1  0.00265981  0.91832653  0.57252969  1
  O  O94  1  0.99734019  0.58167347  0.57252969  1
  O  O95  1  0.50265981  0.08167347  0.92747031  1
loop_
_geom_bond_atom_site_label_1
_geom_bond_atom_site_label_2
_geom_bond_distance
_geom_bond_site_symmetry_2
Mg0 O48 2.089923 1_555
Mg0 O16 2.111421 1_555
Mg0 O40 2.113437 1_555
Mg0 O56 2.121720 1_555
Mg0 O32 2.125485 1_555
Mg0 O0 2.128169 1_555
Mg1 O49 2.089923 1_455
Mg1 O17 2.111421 1_555
Mg1 O41 2.113437 1_455
Mg1 O57 2.121720 1_555
Mg1 O33 2.125485 1_465
Mg1 O1 2.128169 1_555
Mg2 O50 2.089923 1_655
Mg2 O18 2.111421 1_555
Mg2 O42 2.113437 1_655
Mg2 O58 2.121720 1_555
Mg2 O34 2.125485 1_655
Mg2 O2 2.128169 1_555
Mg3 O51 2.089923 1_555
Mg3 O19 2.111421 1_555
Mg3 O43 2.113437 1_555
Mg3 O59 2.121720 1_555
Mg3 O35 2.125485 1_545
Mg3 O3 2.128169 1_555
Mg4 O52 2.089923 1_555
Mg4 O20 2.111421 1_555
Mg4 O44 2.113437 1_555
Mg4 O60 2.121720 1_555
Mg4 O36 2.125485 1_555
Mg4 O4 2.128169 1_555
Mg5 O53 2.089923 1_655
Mg5 O21 2.111421 1_555
Mg5 O45 2.113437 1_655
Mg5 O61 2.121720 1_555
Mg5 O37 2.125485 1_645
Mg5 O5 2.128169 1_555
Mg6 O54 2.089923 1_455
Mg6 O22 2.111421 1_555
Mg6 O46 2.113437 1_455
Mg6 O62 2.121720 1_555
Mg6 O38 2.125485 1_455
Mg6 O6 2.128169 1_555
Mg7 O55 2.089923 1_555
Mg7 O23 2.111421 1_555
Mg7 O47 2.113437 1_555
Mg7 O63 2.121720 1_555
Mg7 O39 2.125485 1_565
Mg7 O7 2.128169 1_555
Mg8 O24 2.039706 1_555
Mg8 O10 2.049023 1_455
Mg8 O0 2.104069 1_555
Mg8 O34 2.112994 1_555
Mg8 O42 2.149823 1_555
Mg8 O56 2.172085 1_555
Mg9 O25 2.039706 1_555
Mg9 O11 2.049023 1_555
Mg9 O1 2.104069 1_555
Mg9 O35 2.112994 1_555
Mg9 O43 2.149823 1_565
Mg9 O57 2.172085 1_555
Mg10 O26 2.039706 1_555
Mg10 O8 2.049023 1_555
Mg10 O2 2.104069 1_555
Mg10 O32 2.112994 1_555
Mg10 O40 2.149823 1_555
Mg10 O58 2.172085 1_555
Mg11 O27 2.039706 1_555
Mg11 O9 2.049023 1_655
Mg11 O3 2.104069 1_555
Mg11 O33 2.112994 1_555
Mg11 O41 2.149823 1_545
Mg11 O59 2.172085 1_555
Mg12 O28 2.039706 1_555
Mg12 O14 2.049023 1_655
Mg12 O4 2.104069 1_555
Mg12 O38 2.112994 1_555
Mg12 O46 2.149823 1_555
Mg12 O60 2.172085 1_555
Mg13 O29 2.039706 1_555
Mg13 O15 2.049023 1_555
Mg13 O5 2.104069 1_555
Mg13 O39 2.112994 1_555
Mg13 O47 2.149823 1_545
Mg13 O61 2.172085 1_555
Mg14 O30 2.039706 1_555
Mg14 O12 2.049023 1_555
Mg14 O6 2.104069 1_555
Mg14 O36 2.112994 1_555
Mg14 O44 2.149823 1_555
Mg14 O62 2.172085 1_555
Mg15 O31 2.039706 1_555
Mg15 O13 2.049023 1_455
Mg15 O7 2.104069 1_555
Mg15 O37 2.112994 1_555
Mg15 O45 2.149823 1_565
Mg15 O63 2.172085 1_555
Mg16 O80 2.049771 1_555
Mg16 O84 2.049771 1_554
Mg16 O92 2.051432 1_554
Mg16 O88 2.051432 1_555
Mg16 O48 2.196738 1_555
Mg16 O52 2.196738 1_554
Mg17 O85 2.049771 1_455
Mg17 O81 2.049771 1_545
Mg17 O89 2.051432 1_455
Mg17 O93 2.051432 1_545
Mg17 O49 2.196738 1_445
Mg17 O53 2.196738 1_555
Mg18 O82 2.049771 1_455
Mg18 O86 2.049771 1_555
Mg18 O90 2.051432 1_555
Mg18 O94 2.051432 1_455
Mg18 O50 2.196738 1_555
Mg18 O54 2.196738 1_455
Mg19 O87 2.049771 1_544
Mg19 O83 2.049771 1_555
Mg19 O95 2.051432 1_554
Mg19 O91 2.051432 1_545
Mg19 O55 2.196738 1_544
Mg19 O51 2.196738 1_555
Mg20 O72 2.036595 1_555
Mg20 O75 2.036595 1_555
Mg20 O67 2.053761 1_555
Mg20 O64 2.053761 1_555
Mg20 O19 2.194415 1_555
Mg20 O16 2.194415 1_555
Mg21 O74 2.036595 1_555
Mg21 O73 2.036595 1_455
Mg21 O66 2.053761 1_555
Mg21 O65 2.053761 1_455
Mg21 O17 2.194415 1_555
Mg21 O18 2.194415 1_455
Mg22 O79 2.036595 1_555
Mg22 O76 2.036595 1_555
Mg22 O68 2.053761 1_555
Mg22 O71 2.053761 1_555
Mg22 O20 2.194415 1_555
Mg22 O23 2.194415 1_555
Mg23 O77 2.036595 1_555
Mg23 O78 2.036595 1_455
Mg23 O70 2.053761 1_455
Mg23 O69 2.053761 1_555
Mg23 O22 2.194415 1_555
Mg23 O21 2.194415 1_455
C0 H0 1.106406 1_555
C0 O8 1.255097 1_555
C0 O0 1.284996 1_555
C1 H1 1.106406 1_555
C1 O9 1.255097 1_555
C1 O1 1.284996 1_545
C2 H2 1.106406 1_555
C2 O10 1.255097 1_555
C2 O2 1.284996 1_555
C3 H3 1.106406 1_555
C3 O11 1.255097 1_555
C3 O3 1.284996 1_565
C4 H4 1.106406 1_555
C4 O12 1.255097 1_555
C4 O4 1.284996 1_555
C5 H5 1.106406 1_555
C5 O13 1.255097 1_555
C5 O5 1.284996 1_565
C6 H6 1.106406 1_555
C6 O14 1.255097 1_555
C6 O6 1.284996 1_555
C7 H7 1.106406 1_555
C7 O15 1.255097 1_555
C7 O7 1.284996 1_545
C8 H8 1.106147 1_555
C8 O80 1.249159 1_555
C8 O56 1.290348 1_555
C9 H9 1.106147 1_555
C9 O81 1.249159 1_555
C9 O57 1.290348 1_555
C10 H10 1.106147 1_555
C10 O82 1.249159 1_555
C10 O58 1.290348 1_555
C11 H11 1.106147 1_555
C11 O83 1.249159 1_555
C11 O59 1.290348 1_555
C12 H12 1.106147 1_555
C12 O84 1.249159 1_555
C12 O60 1.290348 1_555
C13 H13 1.106147 1_555
C13 O85 1.249159 1_555
C13 O61 1.290348 1_555
C14 H14 1.106147 1_555
C14 O86 1.249159 1_555
C14 O62 1.290348 1_555
C15 H15 1.106147 1_555
C15 O87 1.249159 1_555
C15 O63 1.290348 1_555
C16 H16 1.106267 1_555
C16 O24 1.252883 1_555
C16 O16 1.288029 1_555
C17 H17 1.106267 1_555
C17 O25 1.252883 1_555
C17 O17 1.288029 1_555
C18 H18 1.106267 1_555
C18 O26 1.252883 1_555
C18 O18 1.288029 1_555
C19 H19 1.106267 1_555
C19 O27 1.252883 1_555
C19 O19 1.288029 1_555
C20 H20 1.106267 1_555
C20 O28 1.252883 1_555
C20 O20 1.288029 1_555
C21 H21 1.106267 1_555
C21 O29 1.252883 1_555
C21 O21 1.288029 1_555
C22 H22 1.106267 1_555
C22 O30 1.252883 1_555
C22 O22 1.288029 1_555
C23 H23 1.106267 1_555
C23 O31 1.252883 1_555
C23 O23 1.288029 1_555
C24 H24 1.108620 1_555
C24 O64 1.246131 1_555
C24 O40 1.285996 1_555
C25 H25 1.108620 1_555
C25 O65 1.246131 1_555
C25 O41 1.285996 1_555
C26 H26 1.108620 1_555
C26 O66 1.246131 1_555
C26 O42 1.285996 1_555
C27 H27 1.108620 1_555
C27 O67 1.246131 1_555
C27 O43 1.285996 1_555
C28 H28 1.108620 1_555
C28 O68 1.246131 1_555
C28 O44 1.285996 1_555
C29 H29 1.108620 1_555
C29 O69 1.246131 1_555
C29 O45 1.285996 1_555
C30 H30 1.108620 1_555
C30 O70 1.246131 1_555
C30 O46 1.285996 1_555
C31 H31 1.108620 1_555
C31 O71 1.246131 1_555
C31 O47 1.285996 1_555
C32 H32 1.106975 1_555
C32 O88 1.248435 1_555
C32 O32 1.286882 1_555
C33 H33 1.106975 1_555
C33 O89 1.248435 1_555
C33 O33 1.286882 1_555
C34 H34 1.106975 1_555
C34 O90 1.248435 1_555
C34 O34 1.286882 1_555
C35 H35 1.106975 1_555
C35 O91 1.248435 1_555
C35 O35 1.286882 1_555
C36 H36 1.106975 1_555
C36 O92 1.248435 1_555
C36 O36 1.286882 1_555
C37 H37 1.106975 1_555
C37 O93 1.248435 1_555
C37 O37 1.286882 1_555
C38 H38 1.106975 1_555
C38 O94 1.248435 1_555
C38 O38 1.286882 1_555
C39 H39 1.106975 1_555
C39 O95 1.248435 1_555
C39 O39 1.286882 1_555
C40 H40 1.105322 1_555
C40 O72 1.249539 1_555
C40 O48 1.288635 1_555
C41 H41 1.105322 1_555
C41 O73 1.249539 1_555
C41 O49 1.288635 1_555
C42 H42 1.105322 1_555
C42 O74 1.249539 1_555
C42 O50 1.288635 1_555
C43 H43 1.105322 1_555
C43 O75 1.249539 1_555
C43 O51 1.288635 1_555
C44 H44 1.105322 1_555
C44 O76 1.249539 1_555
C44 O52 1.288635 1_555
C45 H45 1.105322 1_555
C45 O77 1.249539 1_555
C45 O53 1.288635 1_555
C46 H46 1.105322 1_555
C46 O78 1.249539 1_555
C46 O54 1.288635 1_555
C47 H47 1.105322 1_555
C47 O79 1.249539 1_555
C47 O55 1.288635 1_555
C48 N0 1.253268 1_655
C49 N1 1.253268 1_555
C50 N1 1.253268 1_555
C51 N0 1.253268 1_555
C52 N2 1.253268 1_555
C53 N3 1.253268 1_555
C54 N3 1.253268 1_555
C55 N2 1.253268 1_655
