# generated using pymatgen
data_Ba6MgSc2C2(O3F7)2
_symmetry_space_group_name_H-M   'P 1'
_cell_length_a   6.29192039
_cell_length_b   9.10185198
_cell_length_c   9.12454279
_cell_angle_alpha   98.35705635
_cell_angle_beta   90.00000000
_cell_angle_gamma   90.00000000
_symmetry_Int_Tables_number   1
_chemical_formula_structural   Ba6MgSc2C2(O3F7)2
_chemical_formula_sum   'Ba6 Mg1 Sc2 C2 O6 F14'
_cell_volume   516.99685941
_cell_formula_units_Z   1
loop_
 _symmetry_equiv_pos_site_id
 _symmetry_equiv_pos_as_xyz
  1  'x, y, z'
loop_
 _atom_site_type_symbol
 _atom_site_label
 _atom_site_symmetry_multiplicity
 _atom_site_fract_x
 _atom_site_fract_y
 _atom_site_fract_z
 _atom_site_occupancy
  Ba  Ba0  1  0.25000000  0.86366601  0.65186549  1
  Ba  Ba1  1  0.75000000  0.60147489  0.83917390  1
  Ba  Ba2  1  0.25000000  0.39435556  0.16057078  1
  Ba  Ba3  1  0.75000000  0.09696375  0.90654721  1
  Ba  Ba4  1  0.25000000  0.90873441  0.11522271  1
  Ba  Ba5  1  0.75000000  0.16462632  0.39065695  1
  Mg  Mg0  1  0.75000000  0.86236270  0.56247514  1
  Sc  Sc0  1  0.25000000  0.28573433  0.72603406  1
  Sc  Sc1  1  0.75000000  0.72250491  0.24656085  1
  C  C0  1  0.25000000  0.48543147  0.53651587  1
  C  C1  1  0.75000000  0.50943158  0.43967138  1
  O  O0  1  0.25000000  0.58325632  0.44960029  1
  O  O1  1  0.75000000  0.65537788  0.45891806  1
  O  O2  1  0.25000000  0.52194591  0.68241735  1
  O  O3  1  0.25000000  0.34268017  0.48828474  1
  O  O4  1  0.75000000  0.44048942  0.55138001  1
  O  O5  1  0.75000000  0.44628320  0.30280527  1
  F  F0  1  0.49193524  0.15702873  0.15946182  1
  F  F1  1  0.25000000  0.11448362  0.86767388  1
  F  F2  1  0.75000000  0.89147846  0.12915434  1
  F  F3  1  0.48303024  0.83251312  0.88434028  1
  F  F4  1  0.48429452  0.14773116  0.63170697  1
  F  F5  1  0.50640985  0.63607692  0.12047972  1
  F  F6  1  0.01424866  0.36553321  0.88461167  1
  F  F7  1  0.48575134  0.36553321  0.88461167  1
  F  F8  1  0.01570548  0.14773116  0.63170697  1
  F  F9  1  0.96681056  0.87619091  0.37734990  1
  F  F10  1  0.01696976  0.83251312  0.88434028  1
  F  F11  1  0.00806476  0.15702873  0.15946182  1
  F  F12  1  0.99359015  0.63607692  0.12047972  1
  F  F13  1  0.53318944  0.87619091  0.37734990  1
loop_
_geom_bond_atom_site_label_1
_geom_bond_atom_site_label_2
_geom_bond_distance
_geom_bond_site_symmetry_2
Ba0 F10 2.627661 1_555
Ba0 F3 2.627661 1_555
Ba0 F1 2.789710 1_565
Ba0 O0 2.924192 1_555
Ba0 F4 3.005019 1_565
Ba0 F8 3.005019 1_565
Ba0 F13 3.089498 1_555
Ba0 F9 3.089498 1_455
Ba0 O2 3.162852 1_555
Ba0 Mg0 3.249565 1_455
Ba0 Mg0 3.249565 1_555
Ba1 F3 2.676113 1_555
Ba1 F10 2.676113 1_655
Ba1 F6 2.794070 1_655
Ba1 F7 2.794070 1_555
Ba1 O4 2.815019 1_555
Ba1 F12 2.966751 1_556
Ba1 F5 2.966751 1_556
Ba2 F11 2.641410 1_555
Ba2 F0 2.641410 1_555
Ba2 F12 2.794822 1_455
Ba2 F5 2.794822 1_555
Ba2 F7 2.901275 1_554
Ba2 F6 2.901275 1_554
Ba2 O0 2.931423 1_555
Ba2 O3 3.093798 1_555
Ba3 F11 2.809669 1_656
Ba3 F0 2.809669 1_556
Ba3 F3 2.917954 1_545
Ba3 F10 2.917954 1_645
Ba3 F2 2.954322 1_546
Ba3 F6 2.986989 1_655
Ba3 F7 2.986989 1_555
Ba3 F8 3.103914 1_655
Ba3 F4 3.103914 1_555
Ba3 F1 3.172499 1_655
Ba3 F1 3.172499 1_555
Ba4 F10 2.577671 1_554
Ba4 F3 2.577671 1_554
Ba4 F11 2.705974 1_565
Ba4 F0 2.705974 1_565
Ba4 F12 2.966218 1_455
Ba4 F5 2.966218 1_555
Ba4 F9 3.031364 1_455
Ba4 F13 3.031364 1_555
Ba4 F1 3.136659 1_564
Ba4 F2 3.153363 1_555
Ba4 F2 3.153363 1_455
Ba5 F11 2.655005 1_655
Ba5 F0 2.655005 1_555
Ba5 O4 2.717494 1_555
Ba5 F4 2.784699 1_555
Ba5 F8 2.784699 1_655
Ba5 O5 2.794990 1_555
Ba5 F9 2.945366 1_545
Ba5 F13 2.945366 1_545
Mg0 O1 1.981071 1_555
C0 O0 1.275540 1_555
C0 O3 1.309827 1_555
C0 O2 1.324447 1_555
C1 O4 1.272255 1_555
C1 O5 1.296653 1_555
C1 O1 1.314392 1_555
O1 Sc1 2.114702 1_555
O2 Sc0 2.242644 1_555
O3 Sc0 2.302518 1_555
F1 Sc0 2.164580 1_555
F2 Sc1 1.997982 1_555
F4 Sc0 2.043878 1_555
F5 Sc1 2.007055 1_555
F6 Sc0 2.125081 1_555
F7 Sc0 2.125081 1_555
F8 Sc0 2.043878 1_555
F9 Sc1 2.180955 1_555
F9 Mg0 2.189041 1_555
F12 Sc1 2.007055 1_555
F13 Sc1 2.180955 1_555
F13 Mg0 2.189041 1_555
