# generated using pymatgen
data_PrAlGe2O7
_symmetry_space_group_name_H-M   'P 1'
_cell_length_a   6.55364821
_cell_length_b   7.26369594
_cell_length_c   12.79098888
_cell_angle_alpha   62.50825525
_cell_angle_beta   90.00000000
_cell_angle_gamma   90.00000000
_symmetry_Int_Tables_number   1
_chemical_formula_structural   PrAlGe2O7
_chemical_formula_sum   'Pr4 Al4 Ge8 O28'
_cell_volume   540.14006849
_cell_formula_units_Z   4
loop_
 _symmetry_equiv_pos_site_id
 _symmetry_equiv_pos_as_xyz
  1  'x, y, z'
loop_
 _atom_site_type_symbol
 _atom_site_label
 _atom_site_symmetry_multiplicity
 _atom_site_fract_x
 _atom_site_fract_y
 _atom_site_fract_z
 _atom_site_occupancy
  Pr  Pr0  1  0.35257841  0.73603761  0.52539338  1
  Pr  Pr1  1  0.64742159  0.26396239  0.47460662  1
  Pr  Pr2  1  0.85257841  0.26396239  0.97460662  1
  Pr  Pr3  1  0.14742159  0.73603761  0.02539338  1
  Al  Al0  1  0.39649040  0.71385443  0.26964048  1
  Al  Al1  1  0.60350960  0.28614557  0.73035952  1
  Al  Al2  1  0.89649040  0.28614557  0.23035952  1
  Al  Al3  1  0.10350960  0.71385443  0.76964048  1
  Ge  Ge0  1  0.65698312  0.70799389  0.05015375  1
  Ge  Ge1  1  0.34301688  0.29200611  0.94984625  1
  Ge  Ge2  1  0.15698312  0.29200611  0.44984625  1
  Ge  Ge3  1  0.84301688  0.70799389  0.55015375  1
  Ge  Ge4  1  0.90945760  0.80172484  0.28079510  1
  Ge  Ge5  1  0.09054240  0.19827516  0.71920490  1
  Ge  Ge6  1  0.40945760  0.19827516  0.21920490  1
  Ge  Ge7  1  0.59054240  0.80172484  0.78079510  1
  O  O0  1  0.37811168  0.92899828  0.30075813  1
  O  O1  1  0.62188832  0.07100172  0.69924187  1
  O  O2  1  0.87811168  0.07100172  0.19924187  1
  O  O3  1  0.12188832  0.92899828  0.80075813  1
  O  O4  1  0.82289967  0.90617210  0.02445385  1
  O  O5  1  0.17710033  0.09382790  0.97554615  1
  O  O6  1  0.32289967  0.09382790  0.47554615  1
  O  O7  1  0.67710033  0.90617210  0.52445385  1
  O  O8  1  0.61546711  0.27568535  0.27656651  1
  O  O9  1  0.38453289  0.72431465  0.72343349  1
  O  O10  1  0.11546711  0.72431465  0.22343349  1
  O  O11  1  0.88453289  0.27568535  0.77656651  1
  O  O12  1  0.99632036  0.74568046  0.42716676  1
  O  O13  1  0.00367964  0.25431954  0.57283324  1
  O  O14  1  0.49632036  0.25431954  0.07283324  1
  O  O15  1  0.50367964  0.74568046  0.92716676  1
  O  O16  1  0.44926770  0.70150261  0.13643556  1
  O  O17  1  0.55073230  0.29849739  0.86356444  1
  O  O18  1  0.94926770  0.29849739  0.36356444  1
  O  O19  1  0.05073230  0.70150261  0.63643556  1
  O  O20  1  0.83713713  0.50335946  0.08627938  1
  O  O21  1  0.16286287  0.49664054  0.91372062  1
  O  O22  1  0.33713713  0.49664054  0.41372062  1
  O  O23  1  0.66286287  0.50335946  0.58627938  1
  O  O24  1  0.68035461  0.66170416  0.31264801  1
  O  O25  1  0.31964539  0.33829584  0.68735199  1
  O  O26  1  0.18035461  0.33829584  0.18735199  1
  O  O27  1  0.81964539  0.66170416  0.81264801  1
loop_
_geom_bond_atom_site_label_1
_geom_bond_atom_site_label_2
_geom_bond_distance
_geom_bond_site_symmetry_2
Al0 O16 1.780963 1_555
Al0 O0 1.785876 1_555
Al0 O22 1.830991 1_555
Al0 O10 1.924992 1_555
Al0 O24 1.927333 1_555
Al1 O17 1.780963 1_555
Al1 O1 1.785876 1_555
Al1 O23 1.830991 1_555
Al1 O11 1.924992 1_555
Al1 O25 1.927333 1_555
Al2 O18 1.780963 1_555
Al2 O2 1.785876 1_555
Al2 O20 1.830991 1_555
Al2 O8 1.924992 1_555
Al2 O26 1.927333 1_655
Al3 O19 1.780963 1_555
Al3 O3 1.785876 1_555
Al3 O21 1.830991 1_555
Al3 O9 1.924992 1_555
Al3 O27 1.927333 1_455
Ge0 O4 1.710470 1_555
Ge0 O16 1.739339 1_555
Ge0 O15 1.778060 1_554
Ge0 O20 1.784030 1_555
Ge1 O5 1.710470 1_555
Ge1 O17 1.739339 1_555
Ge1 O14 1.778060 1_556
Ge1 O21 1.784030 1_555
Ge2 O6 1.710470 1_555
Ge2 O18 1.739339 1_455
Ge2 O13 1.778060 1_555
Ge2 O22 1.784030 1_555
Ge3 O7 1.710470 1_555
Ge3 O19 1.739339 1_655
Ge3 O12 1.778060 1_555
Ge3 O23 1.784030 1_555
Ge4 O10 1.748768 1_655
Ge4 O24 1.752779 1_555
Ge4 O2 1.752813 1_565
Ge4 O12 1.814221 1_555
Ge5 O11 1.748768 1_455
Ge5 O25 1.752779 1_555
Ge5 O3 1.752813 1_545
Ge5 O13 1.814221 1_555
Ge6 O8 1.748768 1_555
Ge6 O26 1.752779 1_555
Ge6 O0 1.752813 1_545
Ge6 O14 1.814221 1_555
Ge7 O9 1.748768 1_555
Ge7 O27 1.752779 1_555
Ge7 O1 1.752813 1_565
Ge7 O15 1.814221 1_555
O0 Pr0 2.555440 1_555
O1 Pr1 2.555440 1_555
O2 Pr2 2.555440 1_554
O3 Pr3 2.555440 1_556
O4 Pr2 2.380902 1_564
O4 Pr3 2.457018 1_655
O5 Pr3 2.380902 1_546
O5 Pr2 2.457018 1_455
O6 Pr0 2.380902 1_545
O6 Pr1 2.457018 1_555
O7 Pr1 2.380902 1_565
O7 Pr0 2.457018 1_555
O8 Pr1 2.503738 1_555
O9 Pr0 2.503738 1_555
O10 Pr3 2.503738 1_555
O11 Pr2 2.503738 1_555
O12 Pr0 2.636946 1_655
O13 Pr1 2.636946 1_455
O14 Pr2 2.636946 1_554
O15 Pr3 2.636946 1_556
O16 Pr3 2.380040 1_555
O17 Pr2 2.380040 1_555
O18 Pr1 2.380040 1_555
O19 Pr0 2.380040 1_555
O20 Pr3 2.526433 1_655
O20 Pr2 2.714330 1_554
O21 Pr2 2.526433 1_455
O21 Pr3 2.714330 1_556
O22 Pr1 2.526433 1_555
O22 Pr0 2.714330 1_555
O23 Pr0 2.526433 1_555
O23 Pr1 2.714330 1_555
O24 Pr1 2.675682 1_555
O25 Pr0 2.675682 1_555
O26 Pr3 2.675682 1_555
O27 Pr2 2.675682 1_555
