# generated using pymatgen
data_Mg2Pd
_symmetry_space_group_name_H-M   'P 1'
_cell_length_a   11.07279725
_cell_length_b   11.07279725
_cell_length_c   11.07279725
_cell_angle_alpha   145.97100522
_cell_angle_beta   145.97100522
_cell_angle_gamma   48.88983184
_symmetry_Int_Tables_number   1
_chemical_formula_structural   Mg2Pd
_chemical_formula_sum   'Mg16 Pd8'
_cell_volume   423.28627973
_cell_formula_units_Z   8
loop_
 _symmetry_equiv_pos_site_id
 _symmetry_equiv_pos_as_xyz
  1  'x, y, z'
loop_
 _atom_site_type_symbol
 _atom_site_label
 _atom_site_symmetry_multiplicity
 _atom_site_fract_x
 _atom_site_fract_y
 _atom_site_fract_z
 _atom_site_occupancy
  Mg  Mg0_0  1  0.32360830  0.32360830  0.00000000  1
  Mg  Mg0_1  1  0.32360830  0.32360830  0.50000000  1
  Mg  Mg0_2  1  0.32360830  0.82360830  0.00000000  1
  Mg  Mg0_3  1  0.32360830  0.82360830  0.50000000  1
  Mg  Mg0_4  1  0.82360830  0.32360830  0.00000000  1
  Mg  Mg0_5  1  0.82360830  0.32360830  0.50000000  1
  Mg  Mg0_6  1  0.82360830  0.82360830  0.00000000  1
  Mg  Mg0_7  1  0.82360830  0.82360830  0.50000000  1
  Mg  Mg1_0  1  0.17639170  0.17639170  0.00000000  1
  Mg  Mg1_1  1  0.17639169  0.17639170  0.50000000  1
  Mg  Mg1_2  1  0.17639170  0.67639170  0.00000000  1
  Mg  Mg1_3  1  0.17639169  0.67639169  0.50000000  1
  Mg  Mg1_4  1  0.67639170  0.17639170  0.00000000  1
  Mg  Mg1_5  1  0.67639169  0.17639170  0.50000000  1
  Mg  Mg1_6  1  0.67639170  0.67639170  0.00000000  1
  Mg  Mg1_7  1  0.67639170  0.67639170  0.50000000  1
  Pd  Pd0_0  1  0.00000000  0.00000000  0.00000000  1
  Pd  Pd0_1  1  0.00000000  0.00000000  0.50000000  1
  Pd  Pd0_2  1  0.00000000  0.50000000  0.00000000  1
  Pd  Pd0_3  1  0.00000000  0.50000000  0.50000000  1
  Pd  Pd0_4  1  0.50000000  0.00000000  0.00000000  1
  Pd  Pd0_5  1  0.50000000  0.00000000  0.50000000  1
  Pd  Pd0_6  1  0.50000000  0.50000000  0.00000000  1
  Pd  Pd0_7  1  0.50000000  0.50000000  0.50000000  1
loop_
_geom_bond_atom_site_label_1
_geom_bond_atom_site_label_2
_geom_bond_distance
_geom_bond_site_symmetry_2
Mg0_0 Pd0_1 2.729680 1_554
Mg0_0 Pd0_4 2.729680 1_555
Mg0_0 Pd0_7 2.729680 1_555
Mg0_0 Pd0_2 2.729680 1_555
Mg0_0 Mg1_0 2.967954 1_555
Mg0_0 Mg1_1 3.089144 1_554
Mg0_0 Mg1_2 3.089144 1_555
Mg0_0 Mg1_7 3.089144 1_555
Mg0_0 Mg1_4 3.089144 1_555
Mg0_0 Mg0_3 3.240052 1_544
Mg0_0 Mg0_3 3.240052 1_555
Mg0_0 Mg0_5 3.240052 1_454
Mg0_0 Mg0_5 3.240052 1_555
Mg0_1 Pd0_5 2.729680 1_555
Mg0_1 Pd0_3 2.729680 1_555
Mg0_1 Pd0_6 2.729680 1_556
Mg0_1 Pd0_0 2.729680 1_555
Mg0_1 Mg1_1 2.967954 1_555
Mg0_1 Mg1_3 3.089144 1_555
Mg0_1 Mg1_0 3.089144 1_555
Mg0_1 Mg1_5 3.089144 1_555
Mg0_1 Mg1_6 3.089144 1_556
Mg0_1 Mg0_2 3.240052 1_545
Mg0_1 Mg0_4 3.240052 1_455
Mg0_1 Mg0_2 3.240052 1_556
Mg0_1 Mg0_4 3.240052 1_556
Mg0_2 Pd0_3 2.729680 1_554
Mg0_2 Pd0_6 2.729680 1_555
Mg0_2 Pd0_0 2.729680 1_565
Mg0_2 Pd0_5 2.729680 1_565
Mg0_2 Mg1_2 2.967954 1_555
Mg0_2 Mg1_0 3.089144 1_565
Mg0_2 Mg1_5 3.089144 1_565
Mg0_2 Mg1_3 3.089144 1_554
Mg0_2 Mg1_6 3.089144 1_555
Mg0_2 Mg0_7 3.240052 1_454
Mg0_2 Mg0_7 3.240052 1_555
Mg0_3 Pd0_7 2.729680 1_555
Mg0_3 Pd0_1 2.729680 1_565
Mg0_3 Pd0_4 2.729680 1_566
Mg0_3 Pd0_2 2.729680 1_555
Mg0_3 Mg1_3 2.967954 1_555
Mg0_3 Mg1_1 3.089144 1_565
Mg0_3 Mg1_4 3.089144 1_566
Mg0_3 Mg1_2 3.089144 1_555
Mg0_3 Mg1_7 3.089144 1_555
Mg0_3 Mg0_6 3.240052 1_556
Mg0_3 Mg0_6 3.240052 1_455
Mg0_4 Pd0_6 2.729680 1_555
Mg0_4 Pd0_0 2.729680 1_655
Mg0_4 Pd0_3 2.729680 1_655
Mg0_4 Pd0_5 2.729680 1_554
Mg0_4 Mg1_4 2.967954 1_555
Mg0_4 Mg1_5 3.089144 1_554
Mg0_4 Mg1_3 3.089144 1_655
Mg0_4 Mg1_0 3.089144 1_655
Mg0_4 Mg1_6 3.089144 1_555
Mg0_4 Mg0_7 3.240052 1_544
Mg0_4 Mg0_7 3.240052 1_555
Mg0_5 Pd0_4 2.729680 1_555
Mg0_5 Pd0_1 2.729680 1_655
Mg0_5 Pd0_2 2.729680 1_656
Mg0_5 Pd0_7 2.729680 1_555
Mg0_5 Mg1_5 2.967954 1_555
Mg0_5 Mg1_1 3.089144 1_655
Mg0_5 Mg1_2 3.089144 1_656
Mg0_5 Mg1_4 3.089144 1_555
Mg0_5 Mg1_7 3.089144 1_555
Mg0_5 Mg0_6 3.240052 1_545
Mg0_5 Mg0_6 3.240052 1_556
Mg0_6 Pd0_1 2.729680 1_665
Mg0_6 Pd0_2 2.729680 1_655
Mg0_6 Pd0_7 2.729680 1_554
Mg0_6 Pd0_4 2.729680 1_565
Mg0_6 Mg1_6 2.967954 1_555
Mg0_6 Mg1_2 3.089144 1_655
Mg0_6 Mg1_4 3.089144 1_565
Mg0_6 Mg1_1 3.089144 1_665
Mg0_6 Mg1_7 3.089144 1_554
Mg0_7 Pd0_6 2.729680 1_555
Mg0_7 Pd0_3 2.729680 1_655
Mg0_7 Pd0_0 2.729680 1_666
Mg0_7 Pd0_5 2.729680 1_565
Mg0_7 Mg1_7 2.967954 1_555
Mg0_7 Mg1_5 3.089144 1_565
Mg0_7 Mg1_0 3.089144 1_666
Mg0_7 Mg1_3 3.089144 1_655
Mg0_7 Mg1_6 3.089144 1_555
Mg1_0 Pd0_2 2.729680 1_555
Mg1_0 Pd0_7 2.729680 1_555
Mg1_0 Pd0_1 2.729680 1_554
Mg1_0 Pd0_4 2.729680 1_555
Mg1_0 Mg1_5 3.240052 1_454
Mg1_0 Mg1_5 3.240052 1_555
Mg1_0 Mg1_3 3.240052 1_544
Mg1_0 Mg1_3 3.240052 1_555
Mg1_1 Pd0_3 2.729680 1_555
Mg1_1 Pd0_0 2.729680 1_555
Mg1_1 Pd0_6 2.729680 1_556
Mg1_1 Pd0_5 2.729680 1_555
Mg1_1 Mg1_4 3.240052 1_455
Mg1_1 Mg1_2 3.240052 1_545
Mg1_1 Mg1_2 3.240052 1_556
Mg1_1 Mg1_4 3.240052 1_556
Mg1_2 Pd0_3 2.729680 1_554
Mg1_2 Pd0_6 2.729680 1_555
Mg1_2 Pd0_0 2.729680 1_565
Mg1_2 Pd0_5 2.729680 1_565
Mg1_2 Mg1_7 3.240052 1_555
Mg1_2 Mg1_7 3.240052 1_454
Mg1_3 Pd0_7 2.729680 1_555
Mg1_3 Pd0_4 2.729680 1_566
Mg1_3 Pd0_2 2.729680 1_555
Mg1_3 Pd0_1 2.729680 1_565
Mg1_3 Mg1_6 3.240052 1_556
Mg1_3 Mg1_6 3.240052 1_455
Mg1_4 Pd0_5 2.729680 1_554
Mg1_4 Pd0_6 2.729680 1_555
Mg1_4 Pd0_3 2.729680 1_655
Mg1_4 Pd0_0 2.729680 1_655
Mg1_4 Mg1_7 3.240052 1_544
Mg1_4 Mg1_7 3.240052 1_555
Mg1_5 Pd0_7 2.729680 1_555
Mg1_5 Pd0_4 2.729680 1_555
Mg1_5 Pd0_2 2.729680 1_656
Mg1_5 Pd0_1 2.729680 1_655
Mg1_5 Mg1_6 3.240052 1_556
Mg1_5 Mg1_6 3.240052 1_545
Mg1_6 Pd0_7 2.729680 1_554
Mg1_6 Pd0_1 2.729680 1_665
Mg1_6 Pd0_2 2.729680 1_655
Mg1_6 Pd0_4 2.729680 1_565
Mg1_7 Pd0_6 2.729680 1_555
Mg1_7 Pd0_3 2.729680 1_655
Mg1_7 Pd0_0 2.729680 1_666
Mg1_7 Pd0_5 2.729680 1_565
