# generated using pymatgen
data_K3FePCO7
_symmetry_space_group_name_H-M   'P 1'
_cell_length_a   5.67545640
_cell_length_b   9.66300149
_cell_length_c   14.00123958
_cell_angle_alpha   90.03132752
_cell_angle_beta   90.00133200
_cell_angle_gamma   89.83074079
_symmetry_Int_Tables_number   1
_chemical_formula_structural   K3FePCO7
_chemical_formula_sum   'K12 Fe4 P4 C4 O28'
_cell_volume   767.85172657
_cell_formula_units_Z   4
loop_
 _symmetry_equiv_pos_site_id
 _symmetry_equiv_pos_as_xyz
  1  'x, y, z'
loop_
 _atom_site_type_symbol
 _atom_site_label
 _atom_site_symmetry_multiplicity
 _atom_site_fract_x
 _atom_site_fract_y
 _atom_site_fract_z
 _atom_site_occupancy
  K  K0  1  0.75731500  0.07216000  0.12328700  1
  K  K1  1  0.75644300  0.07267600  0.62663800  1
  K  K2  1  0.24249200  0.92780500  0.37632000  1
  K  K3  1  0.24373300  0.92714000  0.87345300  1
  K  K4  1  0.25474200  0.28296100  0.00297000  1
  K  K5  1  0.25496100  0.28452600  0.50667500  1
  K  K6  1  0.25502000  0.28375300  0.24480300  1
  K  K7  1  0.25546000  0.28379600  0.74545800  1
  K  K8  1  0.74411100  0.71653900  0.25524900  1
  K  K9  1  0.74529200  0.71604400  0.75467800  1
  K  K10  1  0.74432600  0.71685600  0.49696700  1
  K  K11  1  0.74555900  0.71585300  0.99343000  1
  Fe  Fe0  1  0.76242900  0.35267300  0.87372100  1
  Fe  Fe1  1  0.23792900  0.64713900  0.62626600  1
  Fe  Fe2  1  0.75919700  0.35500400  0.37631700  1
  Fe  Fe3  1  0.24043800  0.64488500  0.12378100  1
  P  P0  1  0.72973100  0.42106700  0.12294900  1
  P  P1  1  0.72959900  0.41835100  0.62695700  1
  P  P2  1  0.26982800  0.57905400  0.37690700  1
  P  P3  1  0.27100600  0.58165000  0.87325700  1
  C  C0  1  0.74153600  0.08227600  0.37461500  1
  C  C1  1  0.74372700  0.07938100  0.87542300  1
  C  C2  1  0.25852300  0.91780800  0.12540600  1
  C  C3  1  0.25625600  0.92049000  0.62449500  1
  O  O0  1  0.25631700  0.05137100  0.12499400  1
  O  O1  1  0.26004500  0.05408900  0.62509200  1
  O  O2  1  0.74326800  0.94867800  0.37475200  1
  O  O3  1  0.73987500  0.94573000  0.87500100  1
  O  O4  1  0.93830300  0.15347900  0.37425100  1
  O  O5  1  0.94309600  0.14739100  0.87591700  1
  O  O6  1  0.06192800  0.84639500  0.12588800  1
  O  O7  1  0.05691800  0.85237800  0.62390100  1
  O  O8  1  0.54506600  0.15319800  0.37480700  1
  O  O9  1  0.54861300  0.15234500  0.87541000  1
  O  O10  1  0.45523800  0.84711600  0.12542300  1
  O  O11  1  0.45140300  0.84751500  0.62434100  1
  O  O12  1  0.47487700  0.48522900  0.12338900  1
  O  O13  1  0.47358700  0.47783500  0.62641700  1
  O  O14  1  0.52473000  0.51490100  0.37616400  1
  O  O15  1  0.52704500  0.52226900  0.87419800  1
  O  O16  1  0.08641500  0.46078300  0.37552900  1
  O  O17  1  0.08877400  0.46253700  0.87423800  1
  O  O18  1  0.91305900  0.53928900  0.12456500  1
  O  O19  1  0.91167700  0.53748300  0.62573500  1
  O  O20  1  0.75781400  0.33021700  0.03112700  1
  O  O21  1  0.76221300  0.32279600  0.53799300  1
  O  O22  1  0.75711700  0.32556600  0.21175800  1
  O  O23  1  0.76193100  0.32742000  0.71890200  1
  O  O24  1  0.24185200  0.67440200  0.28809000  1
  O  O25  1  0.23941200  0.67253100  0.78123600  1
  O  O26  1  0.24217600  0.66995800  0.46869400  1
  O  O27  1  0.23759900  0.67720900  0.96216800  1
loop_
_geom_bond_atom_site_label_1
_geom_bond_atom_site_label_2
_geom_bond_distance
_geom_bond_site_symmetry_2
K0 O22 2.743538 1_555
K0 O10 2.773290 1_545
K0 O6 2.779780 1_645
K0 O20 2.808318 1_555
K0 O0 2.838689 1_655
K0 O0 2.851173 1_555
K1 O21 2.717849 1_555
K1 O7 2.723899 1_645
K1 O23 2.779596 1_555
K1 O11 2.784639 1_545
K1 O1 2.823616 1_555
K1 O1 2.863361 1_655
K2 O24 2.742007 1_555
K2 O4 2.777510 1_465
K2 O8 2.777606 1_565
K2 O26 2.807892 1_555
K2 O2 2.839985 1_455
K2 O2 2.849960 1_555
K3 O27 2.716704 1_555
K3 O5 2.724069 1_465
K3 O25 2.778051 1_555
K3 O9 2.784356 1_565
K3 O3 2.822168 1_555
K3 O3 2.864813 1_455
K4 O17 2.672206 1_554
K4 O9 2.747683 1_554
K4 O0 2.816214 1_555
K4 O5 2.831966 1_454
K4 O12 2.869568 1_555
K4 O20 2.882748 1_455
K4 O20 2.919477 1_555
K5 O16 2.679776 1_555
K5 O1 2.776986 1_555
K5 O8 2.777665 1_555
K5 O13 2.801742 1_555
K5 O21 2.853699 1_455
K5 O4 2.877811 1_455
K5 O21 2.936507 1_555
K6 O16 2.679375 1_555
K6 O8 2.757643 1_555
K6 O0 2.802153 1_555
K6 O4 2.848974 1_455
K6 O12 2.873176 1_555
K6 O22 2.890676 1_455
K6 O22 2.916294 1_555
K7 O17 2.667621 1_555
K7 O9 2.771648 1_555
K7 O1 2.786266 1_555
K7 O13 2.800604 1_555
K7 O23 2.855644 1_455
K7 O5 2.869355 1_455
K7 O23 2.930155 1_555
K8 O18 2.681020 1_555
K8 O10 2.752134 1_555
K8 O2 2.797711 1_555
K8 O6 2.850362 1_655
K8 O14 2.868931 1_555
K8 O24 2.889752 1_655
K8 O24 2.917185 1_555
K9 O19 2.667438 1_555
K9 O11 2.777779 1_555
K9 O3 2.785778 1_555
K9 O15 2.803196 1_555
K9 O25 2.858782 1_655
K9 O7 2.869287 1_655
K9 O25 2.926709 1_555
K10 O19 2.674037 1_555
K10 O11 2.742924 1_555
K10 O2 2.819619 1_555
K10 O7 2.834070 1_655
K10 O14 2.869333 1_555
K10 O26 2.887552 1_655
K10 O26 2.914027 1_555
K11 O18 2.679454 1_556
K11 O3 2.772777 1_555
K11 O10 2.779268 1_556
K11 O15 2.798972 1_555
K11 O27 2.850103 1_655
K11 O6 2.874940 1_656
K11 O27 2.940798 1_555
Fe0 O15 2.111266 1_555
Fe0 O17 2.137563 1_655
Fe0 O23 2.181220 1_555
Fe0 O20 2.214817 1_556
Fe0 O5 2.230516 1_555
Fe0 O9 2.287856 1_555
Fe1 O13 2.110058 1_555
Fe1 O19 2.136102 1_455
Fe1 O25 2.183487 1_555
Fe1 O26 2.217454 1_555
Fe1 O7 2.231075 1_555
Fe1 O11 2.287254 1_555
Fe2 O14 2.036156 1_555
Fe2 O16 2.122496 1_655
Fe2 O4 2.194194 1_555
Fe2 O21 2.285185 1_555
Fe2 O8 2.300877 1_555
Fe2 O22 2.321403 1_555
Fe3 O12 2.034293 1_555
Fe3 O18 2.122441 1_455
Fe3 O6 2.192517 1_555
Fe3 O27 2.284457 1_554
Fe3 O10 2.306396 1_555
Fe3 O24 2.318005 1_555
C0 O2 1.290969 1_545
C0 O8 1.307098 1_555
C0 O4 1.313421 1_555
C1 O3 1.291730 1_545
C1 O5 1.310205 1_555
C1 O9 1.311005 1_555
C2 O0 1.290659 1_565
C2 O10 1.307123 1_555
C2 O6 1.313668 1_555
C3 O1 1.291232 1_565
C3 O7 1.310558 1_555
C3 O11 1.311220 1_555
O12 P0 1.572019 1_555
O13 P1 1.560987 1_555
O14 P2 1.572256 1_555
O15 P3 1.560804 1_555
O16 P2 1.548248 1_555
O17 P3 1.549738 1_555
O18 P0 1.547616 1_555
O19 P1 1.549325 1_555
O20 P0 1.564243 1_555
O21 P1 1.560805 1_555
O22 P0 1.556373 1_555
O23 P1 1.569476 1_555
O24 P2 1.555919 1_555
O25 P3 1.569602 1_555
O26 P2 1.563889 1_555
O27 P3 1.560768 1_555
