# generated using pymatgen
data_YbGa4Ni
_symmetry_space_group_name_H-M   'P 1'
_cell_length_a   7.93667850
_cell_length_b   7.93667850
_cell_length_c   6.57167400
_cell_angle_alpha   90.00000000
_cell_angle_beta   90.00000000
_cell_angle_gamma   150.00135351
_symmetry_Int_Tables_number   1
_chemical_formula_structural   YbGa4Ni
_chemical_formula_sum   'Yb2 Ga8 Ni2'
_cell_volume   206.96924801
_cell_formula_units_Z   2
loop_
 _symmetry_equiv_pos_site_id
 _symmetry_equiv_pos_as_xyz
  1  'x, y, z'
loop_
 _atom_site_type_symbol
 _atom_site_label
 _atom_site_symmetry_multiplicity
 _atom_site_fract_x
 _atom_site_fract_y
 _atom_site_fract_z
 _atom_site_occupancy
  Yb  Yb0  1  0.62441700  0.37558300  0.75000000  1
  Yb  Yb1  1  0.37558300  0.62441700  0.25000000  1
  Ga  Ga0  1  0.18568400  0.81431600  0.44967500  1
  Ga  Ga1  1  0.81431600  0.18568400  0.55032500  1
  Ga  Ga2  1  0.00000000  0.00000000  0.00000000  1
  Ga  Ga3  1  0.00000000  0.00000000  0.50000000  1
  Ga  Ga4  1  0.56855500  0.43144500  0.25000000  1
  Ga  Ga5  1  0.43144500  0.56855500  0.75000000  1
  Ga  Ga6  1  0.18568400  0.81431600  0.05032500  1
  Ga  Ga7  1  0.81431600  0.18568400  0.94967500  1
  Ni  Ni0  1  0.72309000  0.27691000  0.25000000  1
  Ni  Ni1  1  0.27691000  0.72309000  0.75000000  1
loop_
_geom_bond_atom_site_label_1
_geom_bond_atom_site_label_2
_geom_bond_distance
_geom_bond_site_symmetry_2
Ga0 Ni1 2.419025 1_555
Ga0 Ni0 2.504000 1_455
Ga0 Ni0 2.504000 1_565
Ga0 Ga3 2.866151 1_565
Ga0 Yb0 2.999482 1_565
Ga0 Yb0 2.999482 1_455
Ga0 Yb1 3.193661 1_555
Ga1 Ni0 2.419025 1_555
Ga1 Ni1 2.504000 1_655
Ga1 Ni1 2.504000 1_545
Ga1 Ga3 2.866151 1_655
Ga1 Yb1 2.999482 1_545
Ga1 Yb1 2.999482 1_655
Ga1 Yb0 3.193661 1_555
Ga2 Ga4 2.832535 1_445
Ga2 Ga4 2.832535 1_555
Ga2 Ga5 2.832535 1_444
Ga2 Ga5 2.832535 1_554
Ga2 Ga7 2.866151 1_454
Ga2 Ga6 2.866151 1_545
Ga2 Yb1 3.249222 1_445
Ga2 Yb0 3.249222 1_444
Ga2 Yb0 3.249222 1_554
Ga2 Yb1 3.249222 1_555
Ga3 Ga4 2.832535 1_445
Ga3 Ga4 2.832535 1_555
Ga3 Ga5 2.832535 1_555
Ga3 Ga5 2.832535 1_445
Ga3 Yb0 3.249222 1_555
Ga3 Yb1 3.249222 1_445
Ga3 Yb0 3.249222 1_445
Ga3 Yb1 3.249222 1_555
Ga4 Ni0 2.369413 1_555
Ga4 Yb1 2.958750 1_555
Ga4 Yb0 3.395634 1_555
Ga4 Yb0 3.395634 1_554
Ga5 Ni1 2.369413 1_555
Ga5 Yb0 2.958750 1_555
Ga5 Yb1 3.395634 1_556
Ga5 Yb1 3.395634 1_555
Ga6 Ni1 2.419025 1_554
Ga6 Ni0 2.504000 1_455
Ga6 Ni0 2.504000 1_565
Ga6 Yb0 2.999482 1_564
Ga6 Yb0 2.999482 1_454
Ga6 Yb1 3.193661 1_555
Ga7 Ni0 2.419025 1_556
Ga7 Ni1 2.504000 1_545
Ga7 Ni1 2.504000 1_655
Ga7 Yb1 2.999482 1_546
Ga7 Yb1 2.999482 1_656
Ga7 Yb0 3.193661 1_555
Ni0 Yb1 3.112225 1_545
Ni0 Yb1 3.112225 1_655
Ni1 Yb0 3.112225 1_565
Ni1 Yb0 3.112225 1_455
