# generated using pymatgen
data_Y2US3O2
_symmetry_space_group_name_H-M   'P 1'
_cell_length_a   10.96530495
_cell_length_b   10.96530495
_cell_length_c   10.96530495
_cell_angle_alpha   159.90087192
_cell_angle_beta   159.90087192
_cell_angle_gamma   28.57413717
_symmetry_Int_Tables_number   1
_chemical_formula_structural   Y2US3O2
_chemical_formula_sum   'Y2 U1 S3 O2'
_cell_volume   155.62125968
_cell_formula_units_Z   1
loop_
 _symmetry_equiv_pos_site_id
 _symmetry_equiv_pos_as_xyz
  1  'x, y, z'
loop_
 _atom_site_type_symbol
 _atom_site_label
 _atom_site_symmetry_multiplicity
 _atom_site_fract_x
 _atom_site_fract_y
 _atom_site_fract_z
 _atom_site_occupancy
  Y  Y0  1  0.49893400  0.49893400  0.00000000  1
  Y  Y1  1  0.81312600  0.81312600  0.00000000  1
  U  U0  1  0.19214200  0.19214200  0.00000000  1
  S  S0  1  0.62918300  0.62918300  0.00000000  1
  S  S1  1  0.36992100  0.36992100  0.00000000  1
  S  S2  1  0.00102100  0.00102100  0.00000000  1
  O  O0  1  0.74783700  0.24783700  0.50000000  1
  O  O1  1  0.24783700  0.74783700  0.50000000  1
loop_
_geom_bond_atom_site_label_1
_geom_bond_atom_site_label_2
_geom_bond_distance
_geom_bond_site_symmetry_2
S0 Y0 2.768094 1_555
S0 U0 3.018752 1_554
S0 U0 3.018752 1_565
S0 U0 3.018752 1_655
S0 U0 3.018752 1_666
S1 Y0 2.741827 1_555
S1 Y1 2.963016 1_444
S1 Y1 2.963016 1_545
S1 Y1 2.963016 1_455
S1 Y1 2.963016 1_556
S2 Y0 2.706385 1_545
S2 Y0 2.706385 1_455
S2 Y0 2.706385 1_444
S2 Y0 2.706385 1_556
O0 U0 2.249955 1_656
O0 U0 2.249955 1_555
O0 Y1 2.363589 1_556
O0 Y1 2.363589 1_545
O1 U0 2.249955 1_566
O1 U0 2.249955 1_555
O1 Y1 2.363589 1_556
O1 Y1 2.363589 1_455
