# generated using pymatgen
data_GdB2Ir3
_symmetry_space_group_name_H-M   'P 1'
_cell_length_a   10.91478052
_cell_length_b   10.91479099
_cell_length_c   6.29698584
_cell_angle_alpha   90.00000000
_cell_angle_beta   90.00000000
_cell_angle_gamma   119.99858390
_symmetry_Int_Tables_number   1
_chemical_formula_structural   GdB2Ir3
_chemical_formula_sum   'Gd8 B16 Ir24'
_cell_volume   649.68071643
_cell_formula_units_Z   8
loop_
 _symmetry_equiv_pos_site_id
 _symmetry_equiv_pos_as_xyz
  1  'x, y, z'
loop_
 _atom_site_type_symbol
 _atom_site_label
 _atom_site_symmetry_multiplicity
 _atom_site_fract_x
 _atom_site_fract_y
 _atom_site_fract_z
 _atom_site_occupancy
  Gd  Gd0_0  1  0.00000000  0.00000000  0.25000000  1
  Gd  Gd0_1  1  0.00000000  0.00000000  0.75000000  1
  Gd  Gd0_2  1  0.00000000  0.50000000  0.25000000  1
  Gd  Gd0_3  1  0.00000000  0.50000000  0.75000000  1
  Gd  Gd0_4  1  0.50000000  0.00000000  0.25000000  1
  Gd  Gd0_5  1  0.50000000  0.00000000  0.75000000  1
  Gd  Gd0_6  1  0.50000000  0.50000000  0.25000000  1
  Gd  Gd0_7  1  0.50000000  0.50000000  0.75000000  1
  B  B0_0  1  0.33333276  0.16666624  0.25000000  1
  B  B0_1  1  0.33333276  0.16666624  0.75000000  1
  B  B0_2  1  0.33333276  0.66666624  0.25000000  1
  B  B0_3  1  0.33333276  0.66666624  0.75000000  1
  B  B0_4  1  0.83333276  0.16666624  0.25000000  1
  B  B0_5  1  0.83333276  0.16666624  0.75000000  1
  B  B0_6  1  0.83333276  0.66666624  0.25000000  1
  B  B0_7  1  0.83333276  0.66666624  0.75000000  1
  B  B1_0  1  0.16666724  0.33333376  0.25000000  1
  B  B1_1  1  0.16666724  0.33333376  0.75000000  1
  B  B1_2  1  0.16666724  0.83333376  0.25000000  1
  B  B1_3  1  0.16666724  0.83333376  0.75000000  1
  B  B1_4  1  0.66666724  0.33333376  0.25000000  1
  B  B1_5  1  0.66666724  0.33333376  0.75000000  1
  B  B1_6  1  0.66666724  0.83333376  0.25000000  1
  B  B1_7  1  0.66666724  0.83333376  0.75000000  1
  Ir  Ir0_0  1  0.25000000  0.00000000  0.00000000  1
  Ir  Ir0_1  1  0.25000000  0.00000000  0.50000000  1
  Ir  Ir0_2  1  0.25000000  0.50000000  0.00000000  1
  Ir  Ir0_3  1  0.25000000  0.50000000  0.50000000  1
  Ir  Ir0_4  1  0.75000000  0.00000000  0.00000000  1
  Ir  Ir0_5  1  0.75000000  0.00000000  0.50000000  1
  Ir  Ir0_6  1  0.75000000  0.50000000  0.00000000  1
  Ir  Ir0_7  1  0.75000000  0.50000000  0.50000000  1
  Ir  Ir1_0  1  0.25000000  0.25000000  0.00000000  1
  Ir  Ir1_1  1  0.25000000  0.25000000  0.50000000  1
  Ir  Ir1_2  1  0.25000000  0.75000000  0.00000000  1
  Ir  Ir1_3  1  0.25000000  0.75000000  0.50000000  1
  Ir  Ir1_4  1  0.75000000  0.25000000  0.00000000  1
  Ir  Ir1_5  1  0.75000000  0.25000000  0.50000000  1
  Ir  Ir1_6  1  0.75000000  0.75000000  0.00000000  1
  Ir  Ir1_7  1  0.75000000  0.75000000  0.50000000  1
  Ir  Ir2_0  1  0.00000000  0.25000000  0.00000000  1
  Ir  Ir2_1  1  0.00000000  0.25000000  0.50000000  1
  Ir  Ir2_2  1  0.00000000  0.75000000  0.00000000  1
  Ir  Ir2_3  1  0.00000000  0.75000000  0.50000000  1
  Ir  Ir2_4  1  0.50000000  0.25000000  0.00000000  1
  Ir  Ir2_5  1  0.50000000  0.25000000  0.50000000  1
  Ir  Ir2_6  1  0.50000000  0.75000000  0.00000000  1
  Ir  Ir2_7  1  0.50000000  0.75000000  0.50000000  1
loop_
_geom_bond_atom_site_label_1
_geom_bond_atom_site_label_2
_geom_bond_distance
_geom_bond_site_symmetry_2
Gd0_0 Gd0_1 3.148493 1_555
Gd0_0 Gd0_1 3.148493 1_554
Gd0_0 Ir0_0 3.150243 1_555
Gd0_0 Ir0_1 3.150243 1_555
Gd0_0 Ir0_5 3.150243 1_455
Gd0_0 Ir0_4 3.150243 1_455
Gd0_0 Ir2_1 3.150245 1_555
Gd0_0 Ir2_0 3.150245 1_555
Gd0_0 Ir2_2 3.150245 1_545
Gd0_0 Ir2_3 3.150245 1_545
Gd0_0 Ir1_0 3.150294 1_555
Gd0_0 Ir1_1 3.150294 1_555
Gd0_0 Ir1_6 3.150294 1_445
Gd0_0 Ir1_7 3.150294 1_445
Gd0_1 Ir0_0 3.150243 1_556
Gd0_1 Ir0_1 3.150243 1_555
Gd0_1 Ir0_5 3.150243 1_455
Gd0_1 Ir0_4 3.150243 1_456
Gd0_1 Ir2_1 3.150245 1_555
Gd0_1 Ir2_0 3.150245 1_556
Gd0_1 Ir2_2 3.150245 1_546
Gd0_1 Ir2_3 3.150245 1_545
Gd0_1 Ir1_1 3.150294 1_555
Gd0_1 Ir1_0 3.150294 1_556
Gd0_1 Ir1_7 3.150294 1_445
Gd0_1 Ir1_6 3.150294 1_446
Gd0_2 Gd0_3 3.148493 1_555
Gd0_2 Gd0_3 3.148493 1_554
Gd0_2 Ir0_2 3.150243 1_555
Gd0_2 Ir0_3 3.150243 1_555
Gd0_2 Ir0_6 3.150243 1_455
Gd0_2 Ir0_7 3.150243 1_455
Gd0_2 Ir2_2 3.150245 1_555
Gd0_2 Ir2_1 3.150245 1_555
Gd0_2 Ir2_3 3.150245 1_555
Gd0_2 Ir2_0 3.150245 1_555
Gd0_2 Ir1_3 3.150294 1_555
Gd0_2 Ir1_2 3.150294 1_555
Gd0_2 Ir1_5 3.150294 1_455
Gd0_2 Ir1_4 3.150294 1_455
Gd0_3 Ir0_6 3.150243 1_456
Gd0_3 Ir0_2 3.150243 1_556
Gd0_3 Ir0_3 3.150243 1_555
Gd0_3 Ir0_7 3.150243 1_455
Gd0_3 Ir2_1 3.150245 1_555
Gd0_3 Ir2_0 3.150245 1_556
Gd0_3 Ir2_3 3.150245 1_555
Gd0_3 Ir2_2 3.150245 1_556
Gd0_3 Ir1_3 3.150294 1_555
Gd0_3 Ir1_2 3.150294 1_556
Gd0_3 Ir1_5 3.150294 1_455
Gd0_3 Ir1_4 3.150294 1_456
Gd0_4 Gd0_5 3.148493 1_555
Gd0_4 Gd0_5 3.148493 1_554
Gd0_4 Ir0_0 3.150243 1_555
Gd0_4 Ir0_1 3.150243 1_555
Gd0_4 Ir0_4 3.150243 1_555
Gd0_4 Ir0_5 3.150243 1_555
Gd0_4 Ir2_4 3.150245 1_555
Gd0_4 Ir2_5 3.150245 1_555
Gd0_4 Ir2_6 3.150245 1_545
Gd0_4 Ir2_7 3.150245 1_545
Gd0_4 Ir1_5 3.150294 1_555
Gd0_4 Ir1_4 3.150294 1_555
Gd0_4 Ir1_2 3.150294 1_545
Gd0_4 Ir1_3 3.150294 1_545
Gd0_5 Ir0_0 3.150243 1_556
Gd0_5 Ir0_1 3.150243 1_555
Gd0_5 Ir0_5 3.150243 1_555
Gd0_5 Ir0_4 3.150243 1_556
Gd0_5 Ir2_4 3.150245 1_556
Gd0_5 Ir2_5 3.150245 1_555
Gd0_5 Ir2_6 3.150245 1_546
Gd0_5 Ir2_7 3.150245 1_545
Gd0_5 Ir1_5 3.150294 1_555
Gd0_5 Ir1_4 3.150294 1_556
Gd0_5 Ir1_3 3.150294 1_545
Gd0_5 Ir1_2 3.150294 1_546
Gd0_6 Gd0_7 3.148493 1_554
Gd0_6 Gd0_7 3.148493 1_555
Gd0_6 Ir0_2 3.150243 1_555
Gd0_6 Ir0_7 3.150243 1_555
Gd0_6 Ir0_3 3.150243 1_555
Gd0_6 Ir0_6 3.150243 1_555
Gd0_6 Ir2_7 3.150245 1_555
Gd0_6 Ir2_6 3.150245 1_555
Gd0_6 Ir2_4 3.150245 1_555
Gd0_6 Ir2_5 3.150245 1_555
Gd0_6 Ir1_6 3.150294 1_555
Gd0_6 Ir1_7 3.150294 1_555
Gd0_6 Ir1_0 3.150294 1_555
Gd0_6 Ir1_1 3.150294 1_555
Gd0_7 Ir0_2 3.150243 1_556
Gd0_7 Ir0_7 3.150243 1_555
Gd0_7 Ir0_6 3.150243 1_556
Gd0_7 Ir0_3 3.150243 1_555
Gd0_7 Ir2_7 3.150245 1_555
Gd0_7 Ir2_6 3.150245 1_556
Gd0_7 Ir2_4 3.150245 1_556
Gd0_7 Ir2_5 3.150245 1_555
Gd0_7 Ir1_7 3.150294 1_555
Gd0_7 Ir1_6 3.150294 1_556
Gd0_7 Ir1_1 3.150294 1_555
Gd0_7 Ir1_0 3.150294 1_556
B0_0 Ir1_0 2.227137 1_555
B0_0 Ir1_1 2.227137 1_555
B0_0 Ir0_0 2.227160 1_555
B0_0 Ir0_1 2.227160 1_555
B0_0 Ir2_4 2.227165 1_555
B0_0 Ir2_5 2.227165 1_555
B0_0 Gd0_4 3.150806 1_555
B0_0 Gd0_0 3.150865 1_555
B0_0 Gd0_6 3.150878 1_555
B0_1 Ir1_0 2.227137 1_556
B0_1 Ir1_1 2.227137 1_555
B0_1 Ir0_0 2.227160 1_556
B0_1 Ir0_1 2.227160 1_555
B0_1 Ir2_5 2.227165 1_555
B0_1 Ir2_4 2.227165 1_556
B0_1 Gd0_5 3.150806 1_555
B0_1 Gd0_1 3.150865 1_555
B0_1 Gd0_7 3.150878 1_555
B0_2 Ir1_2 2.227137 1_555
B0_2 Ir1_3 2.227137 1_555
B0_2 Ir0_3 2.227160 1_555
B0_2 Ir0_2 2.227160 1_555
B0_2 Ir2_7 2.227165 1_555
B0_2 Ir2_6 2.227165 1_555
B0_2 Gd0_6 3.150806 1_555
B0_2 Gd0_2 3.150865 1_555
B0_2 Gd0_4 3.150878 1_565
B0_3 Ir1_3 2.227137 1_555
B0_3 Ir1_2 2.227137 1_556
B0_3 Ir0_3 2.227160 1_555
B0_3 Ir0_2 2.227160 1_556
B0_3 Ir2_7 2.227165 1_555
B0_3 Ir2_6 2.227165 1_556
B0_3 Gd0_7 3.150806 1_555
B0_3 Gd0_3 3.150865 1_555
B0_3 Gd0_5 3.150878 1_565
B0_4 Ir1_4 2.227137 1_555
B0_4 Ir1_5 2.227137 1_555
B0_4 Ir0_4 2.227160 1_555
B0_4 Ir0_5 2.227160 1_555
B0_4 Ir2_0 2.227165 1_655
B0_4 Ir2_1 2.227165 1_655
B0_4 Gd0_0 3.150806 1_655
B0_4 Gd0_4 3.150865 1_555
B0_4 Gd0_2 3.150878 1_655
B0_5 Ir1_5 2.227137 1_555
B0_5 Ir1_4 2.227137 1_556
B0_5 Ir0_5 2.227160 1_555
B0_5 Ir0_4 2.227160 1_556
B0_5 Ir2_0 2.227165 1_656
B0_5 Ir2_1 2.227165 1_655
B0_5 Gd0_1 3.150806 1_655
B0_5 Gd0_5 3.150865 1_555
B0_5 Gd0_3 3.150878 1_655
B0_6 Ir1_6 2.227137 1_555
B0_6 Ir1_7 2.227137 1_555
B0_6 Ir0_6 2.227160 1_555
B0_6 Ir0_7 2.227160 1_555
B0_6 Ir2_2 2.227165 1_655
B0_6 Ir2_3 2.227165 1_655
B0_6 Gd0_2 3.150806 1_655
B0_6 Gd0_6 3.150865 1_555
B0_6 Gd0_0 3.150878 1_665
B0_7 Ir1_6 2.227137 1_556
B0_7 Ir1_7 2.227137 1_555
B0_7 Ir0_7 2.227160 1_555
B0_7 Ir0_6 2.227160 1_556
B0_7 Ir2_2 2.227165 1_656
B0_7 Ir2_3 2.227165 1_655
B0_7 Gd0_3 3.150806 1_655
B0_7 Gd0_7 3.150865 1_555
B0_7 Gd0_1 3.150878 1_665
B1_0 Ir1_0 2.227137 1_555
B1_0 Ir1_1 2.227137 1_555
B1_0 Ir0_2 2.227160 1_555
B1_0 Ir0_3 2.227160 1_555
B1_0 Ir2_1 2.227165 1_555
B1_0 Ir2_0 2.227165 1_555
B1_0 Gd0_2 3.150806 1_555
B1_0 Gd0_6 3.150865 1_555
B1_0 Gd0_0 3.150878 1_555
B1_1 Ir1_0 2.227137 1_556
B1_1 Ir1_1 2.227137 1_555
B1_1 Ir0_3 2.227160 1_555
B1_1 Ir0_2 2.227160 1_556
B1_1 Ir2_0 2.227165 1_556
B1_1 Ir2_1 2.227165 1_555
B1_1 Gd0_3 3.150806 1_555
B1_1 Gd0_7 3.150865 1_555
B1_1 Gd0_1 3.150878 1_555
B1_2 Ir1_2 2.227137 1_555
B1_2 Ir1_3 2.227137 1_555
B1_2 Ir0_0 2.227160 1_565
B1_2 Ir0_1 2.227160 1_565
B1_2 Ir2_3 2.227165 1_555
B1_2 Ir2_2 2.227165 1_555
B1_2 Gd0_0 3.150806 1_565
B1_2 Gd0_4 3.150865 1_565
B1_2 Gd0_2 3.150878 1_555
B1_3 Ir1_3 2.227137 1_555
B1_3 Ir1_2 2.227137 1_556
B1_3 Ir0_0 2.227160 1_566
B1_3 Ir0_1 2.227160 1_565
B1_3 Ir2_2 2.227165 1_556
B1_3 Ir2_3 2.227165 1_555
B1_3 Gd0_1 3.150806 1_565
B1_3 Gd0_5 3.150865 1_565
B1_3 Gd0_3 3.150878 1_555
B1_4 Ir1_4 2.227137 1_555
B1_4 Ir1_5 2.227137 1_555
B1_4 Ir0_6 2.227160 1_555
B1_4 Ir0_7 2.227160 1_555
B1_4 Ir2_4 2.227165 1_555
B1_4 Ir2_5 2.227165 1_555
B1_4 Gd0_6 3.150806 1_555
B1_4 Gd0_2 3.150865 1_655
B1_4 Gd0_4 3.150878 1_555
B1_5 Ir1_5 2.227137 1_555
B1_5 Ir1_4 2.227137 1_556
B1_5 Ir0_6 2.227160 1_556
B1_5 Ir0_7 2.227160 1_555
B1_5 Ir2_5 2.227165 1_555
B1_5 Ir2_4 2.227165 1_556
B1_5 Gd0_7 3.150806 1_555
B1_5 Gd0_3 3.150865 1_655
B1_5 Gd0_5 3.150878 1_555
B1_6 Ir1_6 2.227137 1_555
B1_6 Ir1_7 2.227137 1_555
B1_6 Ir0_4 2.227160 1_565
B1_6 Ir0_5 2.227160 1_565
B1_6 Ir2_6 2.227165 1_555
B1_6 Ir2_7 2.227165 1_555
B1_6 Gd0_4 3.150806 1_565
B1_6 Gd0_0 3.150865 1_665
B1_6 Gd0_6 3.150878 1_555
B1_7 Ir1_6 2.227137 1_556
B1_7 Ir1_7 2.227137 1_555
B1_7 Ir0_4 2.227160 1_566
B1_7 Ir0_5 2.227160 1_565
B1_7 Ir2_6 2.227165 1_556
B1_7 Ir2_7 2.227165 1_555
B1_7 Gd0_5 3.150806 1_565
B1_7 Gd0_1 3.150865 1_665
B1_7 Gd0_7 3.150878 1_555
