# generated using pymatgen
data_Ti2Co3Ge
_symmetry_space_group_name_H-M   'P 1'
_cell_length_a   4.93414913
_cell_length_b   4.93182300
_cell_length_c   4.03402138
_cell_angle_alpha   90.00000000
_cell_angle_beta   90.03048720
_cell_angle_gamma   60.01560045
_symmetry_Int_Tables_number   1
_chemical_formula_structural   Ti2Co3Ge
_chemical_formula_sum   'Ti2 Co3 Ge1'
_cell_volume   85.02697888
_cell_formula_units_Z   1
loop_
 _symmetry_equiv_pos_site_id
 _symmetry_equiv_pos_as_xyz
  1  'x, y, z'
loop_
 _atom_site_type_symbol
 _atom_site_label
 _atom_site_symmetry_multiplicity
 _atom_site_fract_x
 _atom_site_fract_y
 _atom_site_fract_z
 _atom_site_occupancy
  Ti  Ti0  1  0.33321500  0.33339200  0.77371500  1
  Ti  Ti1  1  0.66661200  0.66669400  0.19980900  1
  Co  Co0  1  0.83577400  0.32814600  0.69408300  1
  Co  Co1  1  0.32806300  0.83596800  0.69368000  1
  Co  Co2  1  0.83577400  0.83608000  0.69408300  1
  Ge  Ge0  1  0.00056100  0.99971900  0.19462900  1
loop_
_geom_bond_atom_site_label_1
_geom_bond_atom_site_label_2
_geom_bond_distance
_geom_bond_site_symmetry_2
Co0 Co2 2.426782 1_545
Co0 Co1 2.428755 1_645
Co0 Ge0 2.455505 1_645
Co0 Ge0 2.458411 1_646
Co0 Ti1 2.462801 1_555
Co0 Ti0 2.487871 1_555
Co0 Ti0 2.488134 1_655
Co0 Ti1 2.501067 1_556
Co0 Co2 2.505041 1_555
Co0 Co1 2.505395 1_555
Co1 Co2 2.428753 1_455
Co1 Ge0 2.451227 1_555
Co1 Ge0 2.458930 1_556
Co1 Ti1 2.462968 1_555
Co1 Ti0 2.487054 1_565
Co1 Ti0 2.487054 1_555
Co1 Ti1 2.501703 1_556
Co1 Co2 2.505398 1_555
Co2 Ge0 2.455502 1_655
Co2 Ge0 2.458408 1_656
Co2 Ti1 2.462801 1_555
Co2 Ti0 2.487869 1_565
Co2 Ti0 2.488137 1_655
Co2 Ti1 2.501067 1_556
Ge0 Ti1 2.846613 1_555
Ge0 Ti1 2.849235 1_455
Ge0 Ti1 2.849240 1_465
