# generated using pymatgen
data_Mg2V2(SiO4)3
_symmetry_space_group_name_H-M   'P 1'
_cell_length_a   10.20290103
_cell_length_b   10.20290103
_cell_length_c   10.20290103
_cell_angle_alpha   109.89024366
_cell_angle_beta   109.89024366
_cell_angle_gamma   108.63638624
_symmetry_Int_Tables_number   1
_chemical_formula_structural   Mg2V2(SiO4)3
_chemical_formula_sum   'Mg8 V8 Si12 O48'
_cell_volume   817.48557088
_cell_formula_units_Z   4
loop_
 _symmetry_equiv_pos_site_id
 _symmetry_equiv_pos_as_xyz
  1  'x, y, z'
loop_
 _atom_site_type_symbol
 _atom_site_label
 _atom_site_symmetry_multiplicity
 _atom_site_fract_x
 _atom_site_fract_y
 _atom_site_fract_z
 _atom_site_occupancy
  Mg  Mg0  1  0.24557800  0.87500000  0.87057800  1
  Mg  Mg1  1  0.12500000  0.49557800  0.87057800  1
  Mg  Mg2  1  0.62500000  0.25442200  0.12942200  1
  Mg  Mg3  1  0.00442200  0.37500000  0.12942200  1
  Mg  Mg4  1  0.50442200  0.37500000  0.62942200  1
  Mg  Mg5  1  0.62500000  0.75442200  0.62942200  1
  Mg  Mg6  1  0.12500000  0.99557800  0.37057800  1
  Mg  Mg7  1  0.74557800  0.87500000  0.37057800  1
  V  V0  1  0.37500000  0.12500000  0.25000000  1
  V  V1  1  0.87500000  0.62500000  0.75000000  1
  V  V2  1  0.37500000  0.62500000  0.25000000  1
  V  V3  1  0.87500000  0.12500000  0.75000000  1
  V  V4  1  0.87500000  0.62500000  0.25000000  1
  V  V5  1  0.37500000  0.62500000  0.75000000  1
  V  V6  1  0.37500000  0.12500000  0.75000000  1
  V  V7  1  0.87500000  0.12500000  0.25000000  1
  Si  Si0  1  0.74918700  0.37500000  0.87418700  1
  Si  Si1  1  0.62500000  0.49918700  0.37418700  1
  Si  Si2  1  0.00000000  0.00000000  0.00000000  1
  Si  Si3  1  0.12500000  0.25081300  0.62581300  1
  Si  Si4  1  0.50000000  0.50000000  0.00000000  1
  Si  Si5  1  0.25000000  0.75000000  0.50000000  1
  Si  Si6  1  0.24918700  0.37500000  0.37418700  1
  Si  Si7  1  0.75000000  0.25000000  0.50000000  1
  Si  Si8  1  0.50081300  0.87500000  0.12581300  1
  Si  Si9  1  0.12500000  0.75081300  0.12581300  1
  Si  Si10  1  0.62500000  0.99918700  0.87418700  1
  Si  Si11  1  0.00081300  0.87500000  0.62581300  1
  O  O0  1  0.75284700  0.51434000  0.82680000  1
  O  O1  1  0.67604700  0.00284700  0.73850700  1
  O  O2  1  0.26434000  0.93754000  0.26149300  1
  O  O3  1  0.56749200  0.22169900  0.45421900  1
  O  O4  1  0.68250800  0.63672700  0.15420700  1
  O  O5  1  0.85750800  0.91870300  0.62493300  1
  O  O6  1  0.95623000  0.83129700  0.43880500  1
  O  O7  1  0.86327300  0.81749200  0.84579300  1
  O  O8  1  0.66870300  0.54377000  0.56119500  1
  O  O9  1  0.27830100  0.93250800  0.54578100  1
  O  O10  1  0.58129700  0.64249200  0.37506700  1
  O  O11  1  0.97169900  0.01748100  0.15420700  1
  O  O12  1  0.26742500  0.20623000  0.62493300  1
  O  O13  1  0.98257500  0.10750800  0.43880500  1
  O  O14  1  0.38672700  0.73251900  0.45421900  1
  O  O15  1  0.68754000  0.92604700  0.17320000  1
  O  O16  1  0.98566000  0.74715300  0.17320000  1
  O  O17  1  0.49715300  0.82395300  0.26149300  1
  O  O18  1  0.76748100  0.11327300  0.54578100  1
  O  O19  1  0.56246000  0.23566000  0.73850700  1
  O  O20  1  0.39249200  0.51742500  0.56119500  1
  O  O21  1  0.57395300  0.81246000  0.82680000  1
  O  O22  1  0.48251900  0.52830100  0.84579300  1
  O  O23  1  0.29377000  0.23257500  0.37506700  1
  O  O24  1  0.99715300  0.73566000  0.67320000  1
  O  O25  1  0.07395300  0.24715300  0.76149300  1
  O  O26  1  0.48566000  0.31246000  0.23850700  1
  O  O27  1  0.18250800  0.02830100  0.04578100  1
  O  O28  1  0.06749200  0.61327300  0.34579300  1
  O  O29  1  0.89249200  0.33129700  0.87506700  1
  O  O30  1  0.79377000  0.41870300  0.06119500  1
  O  O31  1  0.88672700  0.43250800  0.65420700  1
  O  O32  1  0.08129700  0.70623000  0.93880500  1
  O  O33  1  0.47169900  0.31749200  0.95421900  1
  O  O34  1  0.16870300  0.60750800  0.12493300  1
  O  O35  1  0.77830100  0.23251900  0.34579300  1
  O  O36  1  0.48257500  0.04377000  0.87506700  1
  O  O37  1  0.76742500  0.14249200  0.06119500  1
  O  O38  1  0.36327300  0.51748100  0.04578100  1
  O  O39  1  0.06246000  0.32395300  0.32680000  1
  O  O40  1  0.76434000  0.50284700  0.32680000  1
  O  O41  1  0.25284700  0.42604700  0.23850700  1
  O  O42  1  0.98251900  0.13672700  0.95421900  1
  O  O43  1  0.18754000  0.01434000  0.76149300  1
  O  O44  1  0.35750800  0.73257500  0.93880500  1
  O  O45  1  0.17604700  0.43754000  0.67320000  1
  O  O46  1  0.26748100  0.72169900  0.65420700  1
  O  O47  1  0.45623000  0.01742500  0.12493300  1
loop_
_geom_bond_atom_site_label_1
_geom_bond_atom_site_label_2
_geom_bond_distance
_geom_bond_site_symmetry_2
Mg0 O43 2.185586 1_565
Mg0 O24 2.185586 1_455
Mg0 O47 2.260178 1_566
Mg0 O44 2.260178 1_555
Mg0 O27 2.362092 1_566
Mg0 O46 2.362098 1_555
Mg0 O32 2.454387 1_555
Mg0 O36 2.454387 1_565
Mg1 O45 2.185586 1_555
Mg1 O25 2.185586 1_555
Mg1 O34 2.260178 1_556
Mg1 O32 2.260178 1_555
Mg1 O38 2.362087 1_556
Mg1 O31 2.362092 1_455
Mg1 O44 2.454387 1_555
Mg1 O29 2.454387 1_455
Mg2 O26 2.185586 1_555
Mg2 O40 2.185586 1_555
Mg2 O37 2.260178 1_555
Mg2 O36 2.260178 1_554
Mg2 O33 2.362092 1_554
Mg2 O35 2.362098 1_555
Mg2 O47 2.454387 1_555
Mg2 O30 2.454387 1_555
Mg3 O41 2.185586 1_555
Mg3 O39 2.185586 1_555
Mg3 O29 2.260178 1_454
Mg3 O30 2.260178 1_455
Mg3 O42 2.362087 1_454
Mg3 O28 2.362092 1_555
Mg3 O37 2.454387 1_455
Mg3 O34 2.454387 1_555
Mg4 O19 2.185586 1_555
Mg4 O0 2.185586 1_555
Mg4 O20 2.260178 1_555
Mg4 O23 2.260178 1_555
Mg4 O3 2.362092 1_555
Mg4 O22 2.362098 1_555
Mg4 O12 2.454387 1_555
Mg4 O8 2.454387 1_555
Mg5 O21 2.185586 1_555
Mg5 O1 2.185586 1_565
Mg5 O10 2.260178 1_555
Mg5 O8 2.260178 1_555
Mg5 O14 2.362087 1_555
Mg5 O7 2.362092 1_555
Mg5 O20 2.454387 1_555
Mg5 O5 2.454387 1_555
Mg6 O2 2.185586 1_555
Mg6 O16 2.185586 1_455
Mg6 O12 2.260178 1_565
Mg6 O13 2.260178 1_465
Mg6 O9 2.362092 1_555
Mg6 O11 2.362098 1_465
Mg6 O6 2.454387 1_455
Mg6 O23 2.454387 1_565
Mg7 O17 2.185586 1_555
Mg7 O15 2.185586 1_555
Mg7 O5 2.260178 1_555
Mg7 O6 2.260178 1_555
Mg7 O18 2.362087 1_565
Mg7 O4 2.362092 1_555
Mg7 O10 2.454387 1_555
Mg7 O13 2.454387 1_565
O0 Si0 1.643887 1_555
O0 V1 1.951722 1_555
O1 Si10 1.643887 1_545
O1 V3 1.951722 1_555
O2 Si9 1.643887 1_555
O2 V0 1.951722 1_565
O3 Si7 1.655824 1_555
O3 V0 1.936596 1_555
O4 Si4 1.655824 1_555
O4 V4 1.936596 1_555
O5 Si11 1.657466 1_655
O5 V3 1.966682 1_565
O6 Si11 1.657466 1_655
O6 V4 1.966682 1_555
O7 Si2 1.655824 1_666
O7 V1 1.936596 1_555
O8 Si1 1.657466 1_555
O8 V1 1.966682 1_555
O9 Si5 1.655824 1_555
O9 V6 1.936596 1_565
O10 Si1 1.657466 1_555
O10 V2 1.966682 1_555
O11 Si2 1.655823 1_655
O11 V7 1.936590 1_555
O12 Si3 1.657466 1_555
O12 V6 1.966682 1_555
O13 Si3 1.657466 1_655
O13 V7 1.966682 1_555
O14 Si5 1.655827 1_555
O14 V2 1.936594 1_555
O15 Si8 1.643887 1_555
O15 V7 1.951722 1_565
O16 Si9 1.643887 1_655
O16 V4 1.951722 1_555
O17 Si8 1.643887 1_555
O17 V2 1.951722 1_555
O18 Si7 1.655827 1_555
O18 V3 1.936594 1_555
O19 Si0 1.643887 1_555
O19 V6 1.951722 1_555
O20 Si6 1.657466 1_555
O20 V5 1.966682 1_555
O21 Si10 1.643887 1_555
O21 V5 1.951722 1_555
O22 Si4 1.655823 1_556
O22 V5 1.936590 1_555
O23 Si6 1.657466 1_555
O23 V0 1.966682 1_555
O24 Si11 1.643887 1_655
O24 V1 1.951722 1_555
O25 Si3 1.643887 1_555
O25 V3 1.951722 1_455
O26 Si1 1.643887 1_555
O26 V0 1.951722 1_555
O27 Si2 1.655824 1_555
O27 V0 1.936596 1_555
O28 Si5 1.655824 1_555
O28 V4 1.936596 1_455
O29 Si0 1.657466 1_555
O29 V3 1.966682 1_555
O30 Si0 1.657466 1_554
O30 V4 1.966682 1_555
O31 Si7 1.655824 1_555
O31 V1 1.936596 1_555
O32 Si9 1.657466 1_556
O32 V1 1.966682 1_455
O33 Si4 1.655824 1_556
O33 V6 1.936596 1_555
O34 Si9 1.657466 1_555
O34 V2 1.966682 1_555
O35 Si7 1.655823 1_555
O35 V7 1.936590 1_555
O36 Si10 1.657466 1_545
O36 V6 1.966682 1_555
O37 Si10 1.657466 1_544
O37 V7 1.966682 1_555
O38 Si4 1.655827 1_555
O38 V2 1.936594 1_555
O39 Si6 1.643887 1_555
O39 V7 1.951722 1_455
O40 Si1 1.643887 1_555
O40 V4 1.951722 1_555
O41 Si6 1.643887 1_555
O41 V2 1.951722 1_555
O42 Si2 1.655827 1_656
O42 V3 1.936594 1_555
O43 Si11 1.643887 1_545
O43 V6 1.951722 1_555
O44 Si8 1.657466 1_556
O44 V5 1.966682 1_555
O45 Si3 1.643887 1_555
O45 V5 1.951722 1_555
O46 Si5 1.655823 1_555
O46 V5 1.936590 1_555
O47 Si8 1.657466 1_545
O47 V0 1.966682 1_555
