# generated using pymatgen
data_La2(GaNi)5
_symmetry_space_group_name_H-M   'P 1'
_cell_length_a   6.33212228
_cell_length_b   6.33212228
_cell_length_c   5.18105100
_cell_angle_alpha   90.00000000
_cell_angle_beta   90.00000000
_cell_angle_gamma   101.06699055
_symmetry_Int_Tables_number   1
_chemical_formula_structural   La2(GaNi)5
_chemical_formula_sum   'La2 Ga5 Ni5'
_cell_volume   203.87502116
_cell_formula_units_Z   1
loop_
 _symmetry_equiv_pos_site_id
 _symmetry_equiv_pos_as_xyz
  1  'x, y, z'
loop_
 _atom_site_type_symbol
 _atom_site_label
 _atom_site_symmetry_multiplicity
 _atom_site_fract_x
 _atom_site_fract_y
 _atom_site_fract_z
 _atom_site_occupancy
  La  La0  1  0.68904700  0.68904700  0.00000000  1
  La  La1  1  0.31032900  0.31032900  0.50000000  1
  Ga  Ga0  1  0.21877300  0.77459300  0.25516900  1
  Ga  Ga1  1  0.21877300  0.77459300  0.74483100  1
  Ga  Ga2  1  0.77459300  0.21877300  0.25516900  1
  Ga  Ga3  1  0.77459300  0.21877300  0.74483100  1
  Ga  Ga4  1  0.08845400  0.08845400  0.00000000  1
  Ni  Ni0  1  0.93618400  0.93618400  0.50000000  1
  Ni  Ni1  1  0.07574100  0.46030900  0.00000000  1
  Ni  Ni2  1  0.54268700  0.91051700  0.50000000  1
  Ni  Ni3  1  0.91051700  0.54268700  0.50000000  1
  Ni  Ni4  1  0.46030900  0.07574100  0.00000000  1
loop_
_geom_bond_atom_site_label_1
_geom_bond_atom_site_label_2
_geom_bond_distance
_geom_bond_site_symmetry_2
La0 Ni1 3.074903 1_655
La0 Ni4 3.074903 1_565
La0 Ni3 3.167861 1_554
La0 Ni2 3.167861 1_555
La0 Ni3 3.167861 1_555
La0 Ni2 3.167861 1_554
La0 Ni0 3.266265 1_554
La0 Ni0 3.266265 1_555
La1 Ni0 3.011768 1_445
La1 Ni3 3.162927 1_455
La1 Ni2 3.162927 1_545
La1 Ni4 3.218829 1_555
La1 Ni4 3.218829 1_556
La1 Ni1 3.218829 1_555
La1 Ni1 3.218829 1_556
Ga0 Ni1 2.415896 1_555
Ga0 Ni2 2.424656 1_555
Ga0 Ga1 2.536964 1_555
Ga0 Ni3 2.544597 1_455
Ga0 Ni0 2.561414 1_455
Ga0 Ni4 2.569744 1_565
Ga0 Ga1 2.644087 1_554
Ga0 Ga4 2.647291 1_565
Ga0 La1 3.352871 1_555
Ga0 La0 3.395289 1_555
Ga1 Ni1 2.415896 1_556
Ga1 Ni2 2.424656 1_555
Ga1 Ni3 2.544597 1_455
Ga1 Ni0 2.561414 1_455
Ga1 Ni4 2.569744 1_566
Ga1 Ga4 2.647291 1_566
Ga1 La1 3.352871 1_555
Ga1 La0 3.395289 1_556
Ga2 Ni4 2.415896 1_555
Ga2 Ni3 2.424656 1_555
Ga2 Ga3 2.536964 1_555
Ga2 Ni2 2.544597 1_545
Ga2 Ni0 2.561414 1_545
Ga2 Ni1 2.569744 1_655
Ga2 Ga3 2.644087 1_554
Ga2 Ga4 2.647291 1_655
Ga2 La1 3.352871 1_555
Ga2 La0 3.395289 1_555
Ga3 Ni4 2.415896 1_556
Ga3 Ni3 2.424656 1_555
Ga3 Ni2 2.544597 1_545
Ga3 Ni0 2.561414 1_545
Ga3 Ni1 2.569744 1_656
Ga3 Ga4 2.647291 1_656
Ga3 La1 3.352871 1_555
Ga3 La0 3.395289 1_556
Ga4 Ni4 2.371400 1_555
Ga4 Ni1 2.371400 1_555
Ga4 Ni0 2.865876 1_445
Ga4 Ni0 2.865876 1_444
Ga4 La1 3.146545 1_555
Ga4 La1 3.146545 1_554
Ga4 La0 3.215121 1_445
Ni0 Ni3 2.465638 1_555
Ni0 Ni2 2.465638 1_555
