# generated using pymatgen
data_Er10Ga5Co
_symmetry_space_group_name_H-M   'P 1'
_cell_length_a   8.74884148
_cell_length_b   8.68055031
_cell_length_c   7.51408040
_cell_angle_alpha   64.93240961
_cell_angle_beta   63.99268863
_cell_angle_gamma   51.07490176
_symmetry_Int_Tables_number   1
_chemical_formula_structural   Er10Ga5Co
_chemical_formula_sum   'Er10 Ga5 Co1'
_cell_volume   389.93204922
_cell_formula_units_Z   1
loop_
 _symmetry_equiv_pos_site_id
 _symmetry_equiv_pos_as_xyz
  1  'x, y, z'
loop_
 _atom_site_type_symbol
 _atom_site_label
 _atom_site_symmetry_multiplicity
 _atom_site_fract_x
 _atom_site_fract_y
 _atom_site_fract_z
 _atom_site_occupancy
  Er  Er0  1  0.81550800  0.48012600  0.51987400  1
  Er  Er1  1  0.47010200  0.81869800  0.18130200  1
  Er  Er2  1  0.31045800  0.97927300  0.69613800  1
  Er  Er3  1  0.98586900  0.30386200  0.02072700  1
  Er  Er4  1  0.18130200  0.52989800  0.47010200  1
  Er  Er5  1  0.51987400  0.18449200  0.81550800  1
  Er  Er6  1  0.69613800  0.01413100  0.31045800  1
  Er  Er7  1  0.02072700  0.68954200  0.98586900  1
  Er  Er8  1  0.48788300  0.51211700  0.00518000  1
  Er  Er9  1  0.00518000  0.99482000  0.48788300  1
  Ga  Ga0  1  0.75142800  0.74857200  0.75142800  1
  Ga  Ga1  1  0.25142800  0.24857200  0.25142800  1
  Ga  Ga2  1  0.87781700  0.12218300  0.87781700  1
  Ga  Ga3  1  0.62694000  0.37306000  0.37686800  1
  Ga  Ga4  1  0.37686800  0.62313200  0.62694000  1
  Co  Co0  1  0.12247700  0.87752300  0.12247700  1
loop_
_geom_bond_atom_site_label_1
_geom_bond_atom_site_label_2
_geom_bond_distance
_geom_bond_site_symmetry_2
Er0 Ga3 3.011271 1_555
Er0 Ga4 3.011271 1_555
Er0 Ga2 3.043250 1_555
Er0 Ga1 3.116133 1_655
Er0 Ga0 3.116133 1_555
Er1 Ga3 3.047600 1_555
Er1 Ga4 3.047600 1_555
Er1 Ga0 3.110207 1_554
Er1 Ga1 3.110207 1_565
Er2 Ga2 2.955104 1_465
Er2 Ga4 3.000895 1_555
Er2 Ga0 3.171602 1_555
Er2 Ga1 3.205414 1_565
Er3 Ga2 2.955104 1_554
Er3 Ga3 3.000895 1_555
Er3 Ga1 3.171602 1_655
Er3 Ga0 3.205414 1_554
Er4 Ga3 3.047600 1_555
Er4 Ga4 3.047600 1_555
Er4 Ga1 3.110207 1_555
Er4 Ga0 3.110207 1_455
Er5 Ga4 3.011271 1_555
Er5 Ga3 3.011271 1_555
Er5 Ga2 3.043250 1_555
Er5 Ga1 3.116133 1_556
Er5 Ga0 3.116133 1_545
Er6 Ga2 2.955104 1_554
Er6 Ga3 3.000895 1_555
Er6 Ga0 3.171602 1_545
Er6 Ga1 3.205414 1_555
Er7 Ga2 2.955104 1_465
Er7 Ga4 3.000895 1_555
Er7 Ga1 3.171602 1_556
Er7 Ga0 3.205414 1_455
Er8 Ga4 2.978840 1_554
Er8 Ga3 3.002512 1_555
Er8 Ga2 3.063091 1_554
Er8 Ga1 3.455449 1_555
Er8 Ga0 3.455449 1_554
Er9 Ga3 2.978840 1_465
Er9 Ga4 3.002512 1_555
Er9 Ga2 3.063091 1_465
Er9 Ga1 3.455449 1_565
Er9 Ga0 3.455449 1_455
Ga3 Ga4 2.629234 1_555
Co0 Ga2 2.627144 1_464
Co0 Er8 2.865940 1_555
Co0 Er9 2.865940 1_555
Co0 Er7 2.924870 1_554
Co0 Er6 2.924870 1_465
Co0 Er3 2.924870 1_465
Co0 Er2 2.924870 1_554
Co0 Er4 2.956667 1_555
Co0 Er1 2.956667 1_555
