# generated using pymatgen
data_Sr2ErTaO6
_symmetry_space_group_name_H-M   'P 1'
_cell_length_a   5.82049966
_cell_length_b   5.91891600
_cell_length_c   8.28042972
_cell_angle_alpha   90.00000000
_cell_angle_beta   90.13315667
_cell_angle_gamma   90.00000000
_symmetry_Int_Tables_number   1
_chemical_formula_structural   Sr2ErTaO6
_chemical_formula_sum   'Sr4 Er2 Ta2 O12'
_cell_volume   285.26871597
_cell_formula_units_Z   2
loop_
 _symmetry_equiv_pos_site_id
 _symmetry_equiv_pos_as_xyz
  1  'x, y, z'
loop_
 _atom_site_type_symbol
 _atom_site_label
 _atom_site_symmetry_multiplicity
 _atom_site_fract_x
 _atom_site_fract_y
 _atom_site_fract_z
 _atom_site_occupancy
  Sr  Sr0  1  0.00871500  0.46290300  0.25130000  1
  Sr  Sr1  1  0.99128500  0.53709700  0.74870000  1
  Sr  Sr2  1  0.49128500  0.96290300  0.24870000  1
  Sr  Sr3  1  0.50871500  0.03709700  0.75130000  1
  Er  Er0  1  0.00000000  0.00000000  0.50000000  1
  Er  Er1  1  0.50000000  0.50000000  0.00000000  1
  Ta  Ta0  1  0.00000000  0.00000000  0.00000000  1
  Ta  Ta1  1  0.50000000  0.50000000  0.50000000  1
  O  O0  1  0.92233300  0.02323200  0.23593200  1
  O  O1  1  0.07766700  0.97676800  0.76406800  1
  O  O2  1  0.57766700  0.52323200  0.26406800  1
  O  O3  1  0.42233300  0.47676800  0.73593200  1
  O  O4  1  0.19806300  0.72653200  0.04371700  1
  O  O5  1  0.80193700  0.27346800  0.95628300  1
  O  O6  1  0.30193700  0.22653200  0.45628300  1
  O  O7  1  0.69806300  0.77346800  0.54371700  1
  O  O8  1  0.27419800  0.19904100  0.03881300  1
  O  O9  1  0.72580200  0.80095900  0.96118700  1
  O  O10  1  0.22580200  0.69904100  0.46118700  1
  O  O11  1  0.77419800  0.30095900  0.53881300  1
loop_
_geom_bond_atom_site_label_1
_geom_bond_atom_site_label_2
_geom_bond_distance
_geom_bond_site_symmetry_2
Er0 O0 2.236041 1_455
Er0 O1 2.236041 1_545
Er0 O11 2.237364 1_455
Er0 O10 2.237364 1_545
Er0 O7 2.240613 1_445
Er0 O6 2.240613 1_555
Er1 O3 2.236041 1_554
Er1 O2 2.236041 1_555
Er1 O8 2.237364 1_555
Er1 O9 2.237364 1_554
Er1 O4 2.240613 1_555
Er1 O5 2.240613 1_554
O0 Ta0 2.010969 1_655
O0 Sr2 2.536646 1_545
O0 Sr0 2.653498 1_655
O1 Ta0 2.010969 1_566
O1 Sr3 2.536646 1_565
O1 Sr1 2.653498 1_455
O2 Ta1 2.010969 1_555
O2 Sr0 2.536646 1_655
O2 Sr2 2.653498 1_555
O3 Ta1 2.010969 1_555
O3 Sr1 2.536646 1_455
O3 Sr3 2.653498 1_555
O4 Ta0 2.019427 1_565
O4 Sr0 2.571538 1_555
O4 Sr2 2.781674 1_555
O4 Sr1 2.942732 1_454
O5 Ta0 2.019427 1_656
O5 Sr1 2.571538 1_555
O5 Sr3 2.781674 1_555
O5 Sr0 2.942732 1_656
O6 Ta1 2.019427 1_555
O6 Sr2 2.571538 1_545
O6 Sr0 2.781674 1_555
O6 Sr3 2.942732 1_555
O7 Ta1 2.019427 1_555
O7 Sr3 2.571538 1_565
O7 Sr1 2.781674 1_555
O7 Sr2 2.942732 1_555
O8 Ta0 2.008970 1_555
O8 Sr2 2.561320 1_545
O8 Sr0 2.816975 1_555
O8 Sr3 2.909470 1_554
O9 Ta0 2.008970 1_666
O9 Sr3 2.561320 1_565
O9 Sr1 2.816975 1_555
O9 Sr2 2.909470 1_556
O10 Ta1 2.008970 1_555
O10 Sr0 2.561320 1_555
O10 Sr2 2.816975 1_555
O10 Sr1 2.909470 1_455
O11 Ta1 2.008970 1_555
O11 Sr1 2.561320 1_555
O11 Sr3 2.816975 1_555
O11 Sr0 2.909470 1_655
