# generated using pymatgen
data_K2LaTa5O15
_symmetry_space_group_name_H-M   'P 1'
_cell_length_a   12.71519500
_cell_length_b   12.71519500
_cell_length_c   3.95260500
_cell_angle_alpha   90.00000000
_cell_angle_beta   90.00000000
_cell_angle_gamma   90.00000000
_symmetry_Int_Tables_number   1
_chemical_formula_structural   K2LaTa5O15
_chemical_formula_sum   'K4 La2 Ta10 O30'
_cell_volume   639.04209282
_cell_formula_units_Z   2
loop_
 _symmetry_equiv_pos_site_id
 _symmetry_equiv_pos_as_xyz
  1  'x, y, z'
loop_
 _atom_site_type_symbol
 _atom_site_label
 _atom_site_symmetry_multiplicity
 _atom_site_fract_x
 _atom_site_fract_y
 _atom_site_fract_z
 _atom_site_occupancy
  K  K0  1  0.67096600  0.17096600  0.00000000  1
  K  K1  1  0.32903400  0.82903400  0.00000000  1
  K  K2  1  0.17096600  0.32903400  0.00000000  1
  K  K3  1  0.82903400  0.67096600  0.00000000  1
  La  La0  1  0.50000000  0.50000000  0.00000000  1
  La  La1  1  0.00000000  0.00000000  0.00000000  1
  Ta  Ta0  1  0.50000000  0.00000000  0.50000000  1
  Ta  Ta1  1  0.00000000  0.50000000  0.50000000  1
  Ta  Ta2  1  0.57524800  0.71456300  0.50000000  1
  Ta  Ta3  1  0.42475200  0.28543700  0.50000000  1
  Ta  Ta4  1  0.07524800  0.78543700  0.50000000  1
  Ta  Ta5  1  0.92475200  0.21456300  0.50000000  1
  Ta  Ta6  1  0.28543700  0.57524800  0.50000000  1
  Ta  Ta7  1  0.71456300  0.42475200  0.50000000  1
  Ta  Ta8  1  0.21456300  0.07524800  0.50000000  1
  Ta  Ta9  1  0.78543700  0.92475200  0.50000000  1
  O  O0  1  0.50000000  0.00000000  0.00000000  1
  O  O1  1  0.00000000  0.50000000  0.00000000  1
  O  O2  1  0.78502600  0.28502600  0.50000000  1
  O  O3  1  0.21497400  0.71497400  0.50000000  1
  O  O4  1  0.28502600  0.21497400  0.50000000  1
  O  O5  1  0.71497400  0.78502600  0.50000000  1
  O  O6  1  0.57539500  0.69647300  0.00000000  1
  O  O7  1  0.42460500  0.30352700  0.00000000  1
  O  O8  1  0.07539500  0.80352700  0.00000000  1
  O  O9  1  0.92460500  0.19647300  0.00000000  1
  O  O10  1  0.30352700  0.57539500  0.00000000  1
  O  O11  1  0.69647300  0.42460500  0.00000000  1
  O  O12  1  0.19647300  0.07539500  0.00000000  1
  O  O13  1  0.80352700  0.92460500  0.00000000  1
  O  O14  1  0.84294400  0.50261000  0.50000000  1
  O  O15  1  0.15705600  0.49739000  0.50000000  1
  O  O16  1  0.34294400  0.99739000  0.50000000  1
  O  O17  1  0.65705600  0.00261000  0.50000000  1
  O  O18  1  0.49739000  0.84294400  0.50000000  1
  O  O19  1  0.50261000  0.15705600  0.50000000  1
  O  O20  1  0.00261000  0.34294400  0.50000000  1
  O  O21  1  0.99739000  0.65705600  0.50000000  1
  O  O22  1  0.63279200  0.56256100  0.50000000  1
  O  O23  1  0.36720800  0.43743900  0.50000000  1
  O  O24  1  0.13279200  0.93743900  0.50000000  1
  O  O25  1  0.86720800  0.06256100  0.50000000  1
  O  O26  1  0.43743900  0.63279200  0.50000000  1
  O  O27  1  0.56256100  0.36720800  0.50000000  1
  O  O28  1  0.06256100  0.13279200  0.50000000  1
  O  O29  1  0.93743900  0.86720800  0.50000000  1
loop_
_geom_bond_atom_site_label_1
_geom_bond_atom_site_label_2
_geom_bond_distance
_geom_bond_site_symmetry_2
K0 O2 2.848242 1_554
K0 O2 2.848242 1_555
K0 O19 2.918829 1_555
K0 O19 2.918829 1_554
K0 O17 2.918829 1_555
K0 O17 2.918829 1_554
K0 O0 3.074311 1_555
K0 O11 3.241336 1_555
K0 O9 3.241336 1_555
K1 O3 2.848242 1_554
K1 O3 2.848242 1_555
K1 O16 2.918829 1_555
K1 O16 2.918829 1_554
K1 O18 2.918829 1_554
K1 O18 2.918829 1_555
K1 O0 3.074311 1_565
K1 O10 3.241336 1_555
K1 O8 3.241336 1_555
K2 O4 2.848242 1_554
K2 O4 2.848242 1_555
K2 O20 2.918829 1_555
K2 O20 2.918829 1_554
K2 O15 2.918829 1_555
K2 O15 2.918829 1_554
K2 O1 3.074311 1_555
K2 O12 3.241336 1_555
K2 O7 3.241336 1_555
K3 O5 2.848242 1_554
K3 O5 2.848242 1_555
K3 O21 2.918829 1_554
K3 O21 2.918829 1_555
K3 O14 2.918829 1_555
K3 O14 2.918829 1_554
K3 O1 3.074311 1_655
K3 O6 3.241336 1_555
K3 O13 3.241336 1_555
La0 O10 2.675817 1_555
La0 O11 2.675817 1_555
La0 O6 2.675817 1_555
La0 O7 2.675817 1_555
La0 O27 2.718364 1_555
La0 O22 2.718364 1_555
La0 O22 2.718364 1_554
La0 O26 2.718364 1_555
La0 O26 2.718364 1_554
La0 O23 2.718364 1_554
La0 O27 2.718364 1_554
La0 O23 2.718364 1_555
La1 O13 2.675817 1_445
La1 O8 2.675817 1_545
La1 O9 2.675817 1_455
La1 O12 2.675817 1_555
La1 O24 2.718364 1_544
La1 O28 2.718364 1_554
La1 O28 2.718364 1_555
La1 O24 2.718364 1_545
La1 O29 2.718364 1_445
La1 O29 2.718364 1_444
La1 O25 2.718364 1_455
La1 O25 2.718364 1_454
O0 Ta0 1.976303 1_555
O0 Ta0 1.976303 1_554
O1 Ta1 1.976303 1_554
O1 Ta1 1.976303 1_555
O2 Ta5 1.989771 1_555
O2 Ta7 1.989771 1_555
O3 Ta6 1.989771 1_555
O3 Ta4 1.989771 1_555
O4 Ta3 1.989771 1_555
O4 Ta8 1.989771 1_555
O5 Ta9 1.989771 1_555
O5 Ta2 1.989771 1_555
O6 Ta2 1.989644 1_555
O6 Ta2 1.989644 1_554
O7 Ta3 1.989644 1_555
O7 Ta3 1.989644 1_554
O8 Ta4 1.989644 1_554
O8 Ta4 1.989644 1_555
O9 Ta5 1.989644 1_554
O9 Ta5 1.989644 1_555
O10 Ta6 1.989644 1_555
O10 Ta6 1.989644 1_554
O11 Ta7 1.989644 1_555
O11 Ta7 1.989644 1_554
O12 Ta8 1.989644 1_554
O12 Ta8 1.989644 1_555
O13 Ta9 1.989644 1_555
O13 Ta9 1.989644 1_554
O14 Ta7 1.909124 1_555
O14 Ta1 1.997273 1_655
O15 Ta6 1.909124 1_555
O15 Ta1 1.997273 1_555
O16 Ta8 1.909124 1_565
O16 Ta0 1.997273 1_565
O17 Ta9 1.909124 1_545
O17 Ta0 1.997273 1_555
O18 Ta2 1.909124 1_555
O18 Ta0 1.997273 1_565
O19 Ta3 1.909124 1_555
O19 Ta0 1.997273 1_555
O20 Ta5 1.909124 1_455
O20 Ta1 1.997273 1_555
O21 Ta4 1.909124 1_655
O21 Ta1 1.997273 1_655
O22 Ta7 2.037521 1_555
O22 Ta2 2.066597 1_555
O23 Ta6 2.037521 1_555
O23 Ta3 2.066597 1_555
O24 Ta8 2.037521 1_565
O24 Ta4 2.066597 1_555
O25 Ta9 2.037521 1_545
O25 Ta5 2.066597 1_555
O26 Ta2 2.037521 1_555
O26 Ta6 2.066597 1_555
O27 Ta3 2.037521 1_555
O27 Ta7 2.066597 1_555
O28 Ta5 2.037521 1_455
O28 Ta8 2.066597 1_555
O29 Ta4 2.037521 1_655
O29 Ta9 2.066597 1_555
