# generated using pymatgen
data_CeSe2
_symmetry_space_group_name_H-M   'P 1'
_cell_length_a   14.15955700
_cell_length_b   8.70857100
_cell_length_c   8.71736189
_cell_angle_alpha   60.20360423
_cell_angle_beta   90.00000000
_cell_angle_gamma   90.00000000
_symmetry_Int_Tables_number   1
_chemical_formula_structural   CeSe2
_chemical_formula_sum   'Ce4 Se8'
_cell_volume   932.82384639
_cell_formula_units_Z   4
loop_
 _symmetry_equiv_pos_site_id
 _symmetry_equiv_pos_as_xyz
  1  'x, y, z'
loop_
 _atom_site_type_symbol
 _atom_site_label
 _atom_site_symmetry_multiplicity
 _atom_site_fract_x
 _atom_site_fract_y
 _atom_site_fract_z
 _atom_site_occupancy
  Ce  Ce0  1  0.81306500  0.61793500  0.65418900  1
  Ce  Ce1  1  0.31306500  0.38206500  0.34581100  1
  Ce  Ce2  1  0.19003600  0.71272500  0.67951600  1
  Ce  Ce3  1  0.69003600  0.28727500  0.32048400  1
  Se  Se0  1  0.50181700  0.33331200  0.33351000  1
  Se  Se1  1  0.00181700  0.66668800  0.66649000  1
  Se  Se2  1  0.21899900  0.55604700  0.03301400  1
  Se  Se3  1  0.71899900  0.44395300  0.96698600  1
  Se  Se4  1  0.72795500  0.93730100  0.46590400  1
  Se  Se5  1  0.22795500  0.06269900  0.53409600  1
  Se  Se6  1  0.28942700  0.56723300  0.51713500  1
  Se  Se7  1  0.78942700  0.43276700  0.48286500  1
loop_
_geom_bond_atom_site_label_1
_geom_bond_atom_site_label_2
_geom_bond_distance
_geom_bond_site_symmetry_2
Ce0 Se7 2.708571 1_555
Ce0 Se4 2.710111 1_555
Ce0 Se1 2.716622 1_655
Ce0 Se3 2.720103 1_555
Ce1 Se6 2.708571 1_555
Ce1 Se5 2.710111 1_555
Ce1 Se0 2.716622 1_555
Ce1 Se2 2.720103 1_555
Ce2 Se1 2.705849 1_555
Ce2 Se5 2.710059 1_565
Ce2 Se2 2.710580 1_556
Ce2 Se6 2.715170 1_555
Ce3 Se0 2.705849 1_555
Ce3 Se4 2.710059 1_545
Ce3 Se3 2.710580 1_554
Ce3 Se7 2.715170 1_555
