# generated using pymatgen
data_Ce5Cu19P12
_symmetry_space_group_name_H-M   'P 1'
_cell_length_a   3.88898442
_cell_length_b   12.58705231
_cell_length_c   12.58597344
_cell_angle_alpha   119.99193680
_cell_angle_beta   89.64177262
_cell_angle_gamma   90.18427436
_symmetry_Int_Tables_number   1
_chemical_formula_structural   Ce5Cu19P12
_chemical_formula_sum   'Ce5 Cu19 P12'
_cell_volume   533.58605686
_cell_formula_units_Z   1
loop_
 _symmetry_equiv_pos_site_id
 _symmetry_equiv_pos_as_xyz
  1  'x, y, z'
loop_
 _atom_site_type_symbol
 _atom_site_label
 _atom_site_symmetry_multiplicity
 _atom_site_fract_x
 _atom_site_fract_y
 _atom_site_fract_z
 _atom_site_occupancy
  Ce  Ce0  1  0.99968741  0.33308258  0.66645748  1
  Ce  Ce1  1  0.99972326  0.66677194  0.33333818  1
  Ce  Ce2  1  0.49952249  0.81371606  0.81371064  1
  Ce  Ce3  1  0.49828099  0.00045063  0.18655507  1
  Ce  Ce4  1  0.49966092  0.18670092  0.00010102  1
  Cu  Cu0  1  0.50860551  0.52134673  0.63962779  1
  Cu  Cu1  1  0.48721144  0.11804397  0.47859720  1
  Cu  Cu2  1  0.51197087  0.36023874  0.88196356  1
  Cu  Cu3  1  0.48696878  0.88212069  0.36055367  1
  Cu  Cu4  1  0.51197362  0.63946901  0.52163652  1
  Cu  Cu5  1  0.50883110  0.47824016  0.11790663  1
  Cu  Cu6  1  0.99492188  0.61986356  0.82640984  1
  Cu  Cu7  1  0.99501785  0.20665623  0.37942035  1
  Cu  Cu8  1  0.00483068  0.17349108  0.79355233  1
  Cu  Cu9  1  0.99508944  0.79356872  0.17330268  1
  Cu  Cu10  1  0.00459815  0.82666680  0.62037174  1
  Cu  Cu11  1  0.99490841  0.38012255  0.20617375  1
  Cu  Cu12  1  0.99872596  0.00012885  0.00004131  1
  Cu  Cu13  1  0.50397382  0.71156330  0.00000421  1
  Cu  Cu14  1  0.50400614  0.28837176  0.28819956  1
  Cu  Cu15  1  0.49641351  0.00006724  0.71201630  1
  Cu  Cu16  1  0.07849267  0.54521725  0.00044222  1
  Cu  Cu17  1  0.07888550  0.45427629  0.45463969  1
  Cu  Cu18  1  0.91954717  0.99987999  0.54529565  1
  P  P0  1  0.99775148  0.00039823  0.82468052  1
  P  P1  1  0.00158906  0.82451978  0.00005365  1
  P  P2  1  0.00161070  0.17588385  0.17533335  1
  P  P3  1  0.50373177  0.17325562  0.68837614  1
  P  P4  1  0.49422838  0.51474871  0.82662859  1
  P  P5  1  0.49682382  0.31135794  0.48471765  1
  P  P6  1  0.49428992  0.48482833  0.31161241  1
  P  P7  1  0.49691713  0.68814590  0.17299891  1
  P  P8  1  0.50365055  0.82694273  0.51536691  1
  P  P9  1  0.00235042  0.63831157  0.63850054  1
  P  P10  1  0.99475894  0.99999874  0.36148494  1
  P  P11  1  0.00245026  0.36145356  -0.00007100  1
loop_
_geom_bond_atom_site_label_1
_geom_bond_atom_site_label_2
_geom_bond_distance
_geom_bond_site_symmetry_2
Ce0 P3 2.892508 1_555
Ce0 P5 2.892661 1_655
Ce0 P4 2.898829 1_655
Ce0 P4 2.920189 1_555
Ce0 P3 2.924496 1_655
Ce0 P5 2.925491 1_555
Ce1 P7 2.893819 1_655
Ce1 P8 2.896067 1_555
Ce1 P6 2.900776 1_655
Ce1 P6 2.921448 1_555
Ce1 P7 2.926420 1_555
Ce1 P8 2.926939 1_655
Ce2 P9 2.938388 1_555
Ce2 P9 2.944089 1_655
Ce2 P1 2.982427 1_556
Ce2 P0 2.990743 1_565
Ce2 P0 3.008352 1_465
Ce2 P1 3.011317 1_656
Ce2 Cu12 3.044564 1_466
Ce2 Cu12 3.049692 1_566
Ce2 Cu10 3.179565 1_555
Ce2 Cu6 3.180421 1_555
Ce2 Cu10 3.184455 1_655
Ce2 Cu15 3.184665 1_565
Ce2 Cu13 3.188394 1_556
Ce2 Cu6 3.191462 1_455
Ce2 Cu4 3.203732 1_555
Ce2 Cu0 3.206780 1_555
Ce3 P10 2.939455 1_445
Ce3 P10 2.939569 1_545
Ce3 P2 2.994920 1_555
Ce3 P1 2.996209 1_545
Ce3 P2 3.001359 1_655
Ce3 P1 3.003095 1_645
Ce3 Cu12 3.038383 1_555
Ce3 Cu12 3.054892 1_455
Ce3 Cu7 3.176225 1_555
Ce3 Cu7 3.183393 1_455
Ce3 Cu14 3.183667 1_555
Ce3 Cu9 3.183684 1_545
Ce3 Cu9 3.189883 1_445
Ce3 Cu13 3.193714 1_545
Ce3 Cu1 3.203475 1_555
Ce3 Cu3 3.205542 1_545
Ce4 P11 2.934193 1_555
Ce4 P11 2.939172 1_655
Ce4 P2 2.979824 1_555
Ce4 P0 2.987545 1_554
Ce4 P0 3.005310 1_454
Ce4 P2 3.008153 1_655
Ce4 Cu12 3.046141 1_455
Ce4 Cu12 3.051132 1_555
Ce4 Cu11 3.175390 1_555
Ce4 Cu8 3.180766 1_554
Ce4 Cu14 3.185487 1_555
Ce4 Cu15 3.185930 1_554
Ce4 Cu8 3.186125 1_654
Ce4 Cu11 3.187732 1_455
Ce4 Cu5 3.197809 1_555
Ce4 Cu2 3.198415 1_554
Cu0 P5 2.374421 1_555
Cu0 P4 2.396484 1_555
Cu0 P9 2.420144 1_655
Cu0 P9 2.466540 1_555
Cu1 P3 2.371823 1_555
Cu1 P5 2.395853 1_555
Cu1 P10 2.423947 1_445
Cu1 P10 2.463597 1_545
Cu2 P4 2.372285 1_555
Cu2 P3 2.396711 1_555
Cu2 P11 2.419825 1_656
Cu2 P11 2.464086 1_556
Cu3 P8 2.374436 1_555
Cu3 P7 2.402583 1_555
Cu3 P10 2.422058 1_455
Cu3 P10 2.462815 1_555
Cu4 P6 2.374503 1_555
Cu4 P8 2.400487 1_555
Cu4 P9 2.420163 1_655
Cu4 P9 2.465032 1_555
Cu5 P7 2.373274 1_555
Cu5 P6 2.397913 1_555
Cu5 P11 2.418919 1_655
Cu5 P11 2.465688 1_555
Cu6 P4 2.351407 1_555
Cu6 P4 2.354011 1_655
Cu6 P1 2.405135 1_656
Cu6 P9 2.489221 1_655
Cu7 P5 2.342037 1_555
Cu7 P5 2.360348 1_655
Cu7 P2 2.398568 1_655
Cu7 P10 2.496035 1_545
Cu8 P3 2.341101 1_555
Cu8 P3 2.361841 1_455
Cu8 P0 2.398741 1_455
Cu8 P11 2.490047 1_556
Cu9 P7 2.343669 1_555
Cu9 P7 2.362431 1_655
Cu9 P1 2.399074 1_655
Cu9 P10 2.491667 1_555
Cu10 P8 2.342181 1_555
Cu10 P8 2.361955 1_455
Cu10 P0 2.402637 1_465
Cu10 P9 2.492723 1_555
Cu11 P6 2.350337 1_555
Cu11 P6 2.353070 1_655
Cu11 P2 2.400595 1_655
Cu11 P11 2.486659 1_655
Cu12 P0 2.208810 1_554
Cu12 P2 2.209567 1_655
Cu12 P1 2.210542 1_645
Cu13 P7 2.338614 1_555
Cu13 P4 2.344374 1_554
Cu13 P1 2.397496 1_655
Cu13 P1 2.419846 1_555
Cu14 P6 2.339875 1_555
Cu14 P5 2.342179 1_555
Cu14 P2 2.395827 1_655
Cu14 P2 2.417872 1_555
Cu15 P8 2.341490 1_545
Cu15 P3 2.342942 1_555
Cu15 P0 2.394016 1_455
Cu15 P0 2.416740 1_555
Cu16 P11 2.327735 1_555
Cu16 P4 2.582196 1_554
Cu16 P7 2.592363 1_555
Cu17 P9 2.333704 1_555
Cu17 P6 2.578751 1_555
Cu17 P5 2.593943 1_555
Cu18 P10 2.330781 1_555
Cu18 P8 2.580983 1_555
Cu18 P3 2.584117 1_565
