# generated using pymatgen
data_Mg6NbAl
_symmetry_space_group_name_H-M   'P 1'
_cell_length_a   4.99076300
_cell_length_b   5.97829000
_cell_length_c   10.95921900
_cell_angle_alpha   90.00000000
_cell_angle_beta   90.00000000
_cell_angle_gamma   90.00000000
_symmetry_Int_Tables_number   1
_chemical_formula_structural   Mg6NbAl
_chemical_formula_sum   'Mg12 Nb2 Al2'
_cell_volume   326.98176265
_cell_formula_units_Z   2
loop_
 _symmetry_equiv_pos_site_id
 _symmetry_equiv_pos_as_xyz
  1  'x, y, z'
loop_
 _atom_site_type_symbol
 _atom_site_label
 _atom_site_symmetry_multiplicity
 _atom_site_fract_x
 _atom_site_fract_y
 _atom_site_fract_z
 _atom_site_occupancy
  Mg  Mg0  1  0.50000000  0.25121000  0.41935900  1
  Mg  Mg1  1  0.50000000  0.74879000  0.41935900  1
  Mg  Mg2  1  0.00000000  0.74306800  0.08470400  1
  Mg  Mg3  1  0.00000000  0.25693200  0.08470400  1
  Mg  Mg4  1  0.00000000  0.00000000  0.32886300  1
  Mg  Mg5  1  0.00000000  0.50000000  0.32507100  1
  Mg  Mg6  1  0.50000000  0.75121000  0.91935900  1
  Mg  Mg7  1  0.50000000  0.24879000  0.91935900  1
  Mg  Mg8  1  0.00000000  0.24306800  0.58470400  1
  Mg  Mg9  1  0.00000000  0.75693200  0.58470400  1
  Mg  Mg10  1  0.00000000  0.50000000  0.82886300  1
  Mg  Mg11  1  0.00000000  0.00000000  0.82507100  1
  Nb  Nb0  1  0.50000000  0.50000000  0.17117400  1
  Nb  Nb1  1  0.50000000  0.00000000  0.67117400  1
  Al  Al0  1  0.50000000  0.00000000  0.16676200  1
  Al  Al1  1  0.50000000  0.50000000  0.66676200  1
loop_
_geom_bond_atom_site_label_1
_geom_bond_atom_site_label_2
_geom_bond_distance
_geom_bond_site_symmetry_2
Mg0 Mg1 2.974678 1_555
Mg0 Mg1 3.003612 1_545
Mg0 Mg4 3.076678 1_655
Mg0 Mg4 3.076678 1_555
Mg0 Mg5 3.083320 1_555
Mg0 Mg5 3.083320 1_655
Mg0 Mg8 3.084288 1_655
Mg0 Mg8 3.084288 1_555
Mg0 Nb0 3.100017 1_555
Mg0 Nb1 3.141869 1_555
Mg1 Mg4 3.076678 1_565
Mg1 Mg4 3.076678 1_665
Mg1 Mg5 3.083320 1_655
Mg1 Mg5 3.083320 1_555
Mg1 Mg9 3.084288 1_655
Mg1 Mg9 3.084288 1_555
Mg1 Nb0 3.100017 1_555
Mg1 Nb1 3.141869 1_565
Mg2 Mg3 2.906262 1_555
Mg2 Mg5 3.008452 1_555
Mg2 Nb0 3.039169 1_455
Mg2 Nb0 3.039169 1_555
Mg2 Mg3 3.072028 1_565
Mg2 Mg6 3.084288 1_554
Mg2 Mg6 3.084288 1_454
Mg2 Mg4 3.085320 1_565
Mg3 Mg5 3.008452 1_555
Mg3 Nb0 3.039169 1_455
Mg3 Nb0 3.039169 1_555
Mg3 Mg7 3.084288 1_454
Mg3 Mg7 3.084288 1_554
Mg3 Mg4 3.085320 1_555
Mg4 Mg5 2.989434 1_545
Mg4 Mg5 2.989434 1_555
Mg4 Mg9 3.158003 1_545
Mg4 Mg8 3.158003 1_555
Mg5 Nb0 3.011896 1_455
Mg5 Nb0 3.011896 1_555
Mg5 Mg8 3.233496 1_555
Mg5 Mg9 3.233496 1_555
Mg6 Mg7 2.974678 1_565
Mg6 Mg7 3.003612 1_555
Mg6 Nb1 3.100017 1_565
Mg6 Nb0 3.141869 1_556
Mg7 Nb1 3.100017 1_555
Mg7 Nb0 3.141869 1_556
Mg8 Mg9 2.906262 1_545
Mg8 Nb1 3.039169 1_555
Mg8 Nb1 3.039169 1_455
Mg8 Mg9 3.072028 1_555
Mg9 Nb1 3.039169 1_565
Mg9 Nb1 3.039169 1_465
Mg10 Mg11 2.989434 1_555
Mg10 Mg11 2.989434 1_565
Mg10 Mg7 3.076678 1_555
Mg10 Mg7 3.076678 1_455
Mg10 Mg6 3.076678 1_555
Mg10 Mg6 3.076678 1_455
Mg10 Mg8 3.085320 1_555
Mg10 Mg9 3.085320 1_555
Mg10 Mg3 3.158003 1_556
Mg10 Mg2 3.158003 1_556
Mg11 Mg9 3.008452 1_545
Mg11 Mg8 3.008452 1_555
Mg11 Nb1 3.011896 1_455
Mg11 Nb1 3.011896 1_555
Mg11 Mg7 3.083320 1_455
Mg11 Mg6 3.083320 1_545
Mg11 Mg7 3.083320 1_555
Mg11 Mg6 3.083320 1_445
Mg11 Mg3 3.233496 1_556
Mg11 Mg2 3.233496 1_546
Al0 Nb0 2.989536 1_545
Al0 Nb0 2.989536 1_555
Al0 Mg4 3.063149 1_555
Al0 Mg4 3.063149 1_655
Al0 Mg3 3.065125 1_555
Al0 Mg3 3.065125 1_655
Al0 Mg2 3.065125 1_645
Al0 Mg2 3.065125 1_545
Al0 Mg7 3.092501 1_554
Al0 Mg6 3.092501 1_544
Al0 Mg1 3.149400 1_545
Al0 Mg0 3.149400 1_555
Al1 Nb1 2.989536 1_565
Al1 Nb1 2.989536 1_555
Al1 Mg10 3.063149 1_555
Al1 Mg10 3.063149 1_655
Al1 Mg8 3.065125 1_655
Al1 Mg8 3.065125 1_555
Al1 Mg9 3.065125 1_655
Al1 Mg9 3.065125 1_555
Al1 Mg0 3.092501 1_555
Al1 Mg1 3.092501 1_555
Al1 Mg7 3.149400 1_555
Al1 Mg6 3.149400 1_555
