# generated using pymatgen
data_Zr2AgN3
_symmetry_space_group_name_H-M   'P 1'
_cell_length_a   3.34355300
_cell_length_b   3.34355203
_cell_length_c   26.70921800
_cell_angle_alpha   90.00000000
_cell_angle_beta   90.00000000
_cell_angle_gamma   119.99999975
_symmetry_Int_Tables_number   1
_chemical_formula_structural   Zr2AgN3
_chemical_formula_sum   'Zr6 Ag3 N9'
_cell_volume   258.58784240
_cell_formula_units_Z   3
loop_
 _symmetry_equiv_pos_site_id
 _symmetry_equiv_pos_as_xyz
  1  'x, y, z'
loop_
 _atom_site_type_symbol
 _atom_site_label
 _atom_site_symmetry_multiplicity
 _atom_site_fract_x
 _atom_site_fract_y
 _atom_site_fract_z
 _atom_site_occupancy
  Zr  Zr0  1  0.66605600  0.98968500  0.11256900  1
  Zr  Zr1  1  0.32362900  0.33394400  0.77923500  1
  Zr  Zr2  1  0.01031500  0.67637100  0.44590200  1
  Zr  Zr3  1  0.33394400  0.32362900  0.22076500  1
  Zr  Zr4  1  0.98968500  0.66605600  0.88743100  1
  Zr  Zr5  1  0.67637100  0.01031500  0.55409800  1
  Ag  Ag0  1  0.00000000  0.67257100  0.66666700  1
  Ag  Ag1  1  0.67257100  0.00000000  0.33333300  1
  Ag  Ag2  1  0.32742900  0.32742900  0.00000000  1
  N  N0  1  0.00000000  0.65660900  0.16666700  1
  N  N1  1  0.65660900  0.00000000  0.83333300  1
  N  N2  1  0.34339100  0.34339100  0.50000000  1
  N  N3  1  0.67696500  0.00979600  0.41223200  1
  N  N4  1  0.33283100  0.32303500  0.07889800  1
  N  N5  1  0.99020400  0.66716900  0.74556500  1
  N  N6  1  0.32303500  0.33283100  0.92110200  1
  N  N7  1  0.00979600  0.67696500  0.58776800  1
  N  N8  1  0.66716900  0.99020400  0.25443500  1
loop_
_geom_bond_atom_site_label_1
_geom_bond_atom_site_label_2
_geom_bond_distance
_geom_bond_site_symmetry_2
Ag0 N5 2.107495 1_455
Ag0 N7 2.107522 1_555
Ag1 N8 2.107495 1_545
Ag1 N3 2.107522 1_555
Ag2 N6 2.107495 1_554
Ag2 N4 2.107495 1_555
N0 Zr0 2.409856 1_555
N0 Zr3 2.409856 1_455
N0 Zr0 2.411868 1_445
N0 Zr3 2.411868 1_555
N0 Zr3 2.412090 1_565
N0 Zr0 2.412091 1_455
N1 Zr1 2.409855 1_545
N1 Zr4 2.409855 1_555
N1 Zr1 2.411868 1_555
N1 Zr4 2.411868 1_445
N1 Zr4 2.412091 1_545
N1 Zr1 2.412091 1_655
N2 Zr5 2.409856 1_555
N2 Zr2 2.409856 1_555
N2 Zr5 2.411868 1_565
N2 Zr2 2.411868 1_655
N2 Zr2 2.412090 1_545
N2 Zr5 2.412091 1_455
N3 Zr2 2.129357 1_655
N3 Zr2 2.129554 1_545
N3 Zr2 2.129882 1_645
N4 Zr0 2.129369 1_545
N4 Zr0 2.129565 1_555
N4 Zr0 2.129894 1_445
N5 Zr1 2.129358 1_555
N5 Zr1 2.129554 1_655
N5 Zr1 2.129882 1_665
N6 Zr4 2.129369 1_455
N6 Zr4 2.129566 1_555
N6 Zr4 2.129893 1_445
N7 Zr5 2.129358 1_565
N7 Zr5 2.129554 1_455
N7 Zr5 2.129882 1_465
N8 Zr3 2.129357 1_555
N8 Zr3 2.129554 1_565
N8 Zr3 2.129883 1_665
