# generated using pymatgen
data_Ba3Sr3Np2
_symmetry_space_group_name_H-M   'P 1'
_cell_length_a   6.47371000
_cell_length_b   6.47371000
_cell_length_c   9.16364000
_cell_angle_alpha   90.00000000
_cell_angle_beta   90.00000000
_cell_angle_gamma   90.00000000
_symmetry_Int_Tables_number   1
_chemical_formula_structural   Ba3Sr3Np2
_chemical_formula_sum   'Ba3 Sr3 Np2'
_cell_volume   384.03826634
_cell_formula_units_Z   1
loop_
 _symmetry_equiv_pos_site_id
 _symmetry_equiv_pos_as_xyz
  1  'x, y, z'
loop_
 _atom_site_type_symbol
 _atom_site_label
 _atom_site_symmetry_multiplicity
 _atom_site_fract_x
 _atom_site_fract_y
 _atom_site_fract_z
 _atom_site_occupancy
  Ba  Ba0  1  0.00000000  0.00000000  0.00000000  1
  Ba  Ba1  1  0.50000000  0.50000000  0.00000000  1
  Ba  Ba2  1  0.00000000  0.00000000  0.50000000  1
  Sr  Sr0  1  0.50000000  0.00000000  0.25087300  1
  Sr  Sr1  1  0.00000000  0.50000000  0.74912700  1
  Sr  Sr2  1  0.50000000  0.50000000  0.50000000  1
  Np  Np0  1  0.50000000  0.00000000  0.74938300  1
  Np  Np1  1  0.00000000  0.50000000  0.25061700  1
loop_
_geom_bond_atom_site_label_1
_geom_bond_atom_site_label_2
_geom_bond_distance
_geom_bond_site_symmetry_2
Ba0 Np1 3.968808 1_555
Ba0 Np0 3.968808 1_554
Ba0 Np1 3.968808 1_545
Ba0 Np0 3.968808 1_454
Ba0 Sr1 3.970166 1_544
Ba0 Sr0 3.970166 1_455
Ba0 Sr0 3.970166 1_555
Ba0 Sr1 3.970166 1_554
Ba1 Np1 3.968808 1_655
Ba1 Np1 3.968808 1_555
Ba1 Np0 3.968808 1_554
Ba1 Np0 3.968808 1_564
Ba1 Sr1 3.970166 1_654
Ba1 Sr0 3.970166 1_565
Ba1 Sr0 3.970166 1_555
Ba1 Sr1 3.970166 1_554
Ba2 Sr0 3.960923 1_555
Ba2 Sr1 3.960923 1_555
Ba2 Sr1 3.960923 1_545
Ba2 Sr0 3.960923 1_455
Ba2 Np0 3.962275 1_555
Ba2 Np1 3.962275 1_555
Ba2 Np1 3.962275 1_545
Ba2 Np0 3.962275 1_455
Sr0 Sr2 3.960923 1_545
Sr0 Sr2 3.960923 1_555
Sr1 Sr2 3.960923 1_455
Sr1 Sr2 3.960923 1_555
Np0 Sr2 3.962275 1_555
Np0 Sr2 3.962275 1_545
Np1 Sr2 3.962275 1_555
Np1 Sr2 3.962275 1_455
