# generated using pymatgen
data_Sr3(OsN2)2
_symmetry_space_group_name_H-M   'P 1'
_cell_length_a   6.31188000
_cell_length_b   10.42346100
_cell_length_c   9.17939000
_cell_angle_alpha   90.00000000
_cell_angle_beta   90.00000000
_cell_angle_gamma   90.00000000
_symmetry_Int_Tables_number   1
_chemical_formula_structural   Sr3(OsN2)2
_chemical_formula_sum   'Sr12 Os8 N16'
_cell_volume   603.92707656
_cell_formula_units_Z   4
loop_
 _symmetry_equiv_pos_site_id
 _symmetry_equiv_pos_as_xyz
  1  'x, y, z'
loop_
 _atom_site_type_symbol
 _atom_site_label
 _atom_site_symmetry_multiplicity
 _atom_site_fract_x
 _atom_site_fract_y
 _atom_site_fract_z
 _atom_site_occupancy
  Sr  Sr0  1  0.62976200  0.15506600  0.42296600  1
  Sr  Sr1  1  0.87023800  0.84493400  0.42296600  1
  Sr  Sr2  1  0.62976200  0.34493400  0.07703400  1
  Sr  Sr3  1  0.87023800  0.65506600  0.07703400  1
  Sr  Sr4  1  0.37023800  0.84493400  0.57703400  1
  Sr  Sr5  1  0.12976200  0.15506600  0.57703400  1
  Sr  Sr6  1  0.37023800  0.65506600  0.92296600  1
  Sr  Sr7  1  0.12976200  0.34493400  0.92296600  1
  Sr  Sr8  1  0.75000000  0.50000000  0.40706500  1
  Sr  Sr9  1  0.75000000  0.00000000  0.09293500  1
  Sr  Sr10  1  0.25000000  0.50000000  0.59293500  1
  Sr  Sr11  1  0.25000000  0.00000000  0.90706500  1
  Os  Os0  1  0.75000000  0.50000000  0.74667400  1
  Os  Os1  1  0.75000000  0.00000000  0.75332600  1
  Os  Os2  1  0.25000000  0.50000000  0.25332600  1
  Os  Os3  1  0.25000000  0.00000000  0.24667400  1
  Os  Os4  1  0.69611300  0.25000000  0.75000000  1
  Os  Os5  1  0.80388700  0.75000000  0.75000000  1
  Os  Os6  1  0.30388700  0.75000000  0.25000000  1
  Os  Os7  1  0.19611300  0.25000000  0.25000000  1
  N  N0  1  0.92149100  0.35818600  0.65610400  1
  N  N1  1  0.57850900  0.64181400  0.65610400  1
  N  N2  1  0.92149100  0.14181400  0.84389600  1
  N  N3  1  0.57850900  0.85818600  0.84389600  1
  N  N4  1  0.07850900  0.64181400  0.34389600  1
  N  N5  1  0.42149100  0.35818600  0.34389600  1
  N  N6  1  0.07850900  0.85818600  0.15610400  1
  N  N7  1  0.42149100  0.14181400  0.15610400  1
  N  N8  1  0.48446900  0.39843500  0.80825400  1
  N  N9  1  0.01553100  0.60156500  0.80825400  1
  N  N10  1  0.48446900  0.10156500  0.69174600  1
  N  N11  1  0.01553100  0.89843500  0.69174600  1
  N  N12  1  0.51553100  0.60156500  0.19174600  1
  N  N13  1  0.98446900  0.39843500  0.19174600  1
  N  N14  1  0.51553100  0.89843500  0.30825400  1
  N  N15  1  0.98446900  0.10156500  0.30825400  1
loop_
_geom_bond_atom_site_label_1
_geom_bond_atom_site_label_2
_geom_bond_distance
_geom_bond_site_symmetry_2
N0 Os4 2.009528 1_555
N0 Os0 2.011939 1_555
N0 Sr5 2.595674 1_655
N0 Sr10 2.611652 1_655
N0 Sr7 2.783504 1_655
N0 Sr8 2.929612 1_555
N1 Os5 2.009528 1_555
N1 Os0 2.011939 1_555
N1 Sr4 2.595674 1_555
N1 Sr10 2.611652 1_555
N1 Sr6 2.783504 1_555
N1 Sr8 2.929612 1_555
N2 Os4 2.009528 1_555
N2 Os1 2.011939 1_555
N2 Sr7 2.595674 1_655
N2 Sr11 2.611652 1_655
N2 Sr5 2.783504 1_655
N2 Sr9 2.929612 1_556
N3 Os5 2.009528 1_555
N3 Os1 2.011939 1_565
N3 Sr6 2.595674 1_555
N3 Sr11 2.611652 1_565
N3 Sr4 2.783504 1_555
N3 Sr9 2.929612 1_566
N4 Os6 2.009528 1_555
N4 Os2 2.011939 1_555
N4 Sr1 2.595674 1_455
N4 Sr8 2.611652 1_455
N4 Sr3 2.783504 1_455
N4 Sr10 2.929612 1_555
N5 Os7 2.009528 1_555
N5 Os2 2.011939 1_555
N5 Sr0 2.595674 1_555
N5 Sr8 2.611652 1_555
N5 Sr2 2.783504 1_555
N5 Sr10 2.929612 1_555
N6 Os6 2.009528 1_555
N6 Os3 2.011939 1_565
N6 Sr3 2.595674 1_455
N6 Sr9 2.611652 1_465
N6 Sr1 2.783504 1_455
N6 Sr11 2.929612 1_564
N7 Os7 2.009528 1_555
N7 Os3 2.011939 1_555
N7 Sr2 2.595674 1_555
N7 Sr9 2.611652 1_555
N7 Sr0 2.783504 1_555
N7 Sr11 2.929612 1_554
N8 Os0 2.061373 1_555
N8 Os4 2.112899 1_555
N8 Sr7 2.536198 1_555
N8 Sr10 2.686545 1_555
N8 Sr2 2.690589 1_556
N8 Sr6 2.963811 1_555
N9 Os0 2.061373 1_455
N9 Os5 2.112899 1_455
N9 Sr6 2.536198 1_555
N9 Sr10 2.686545 1_555
N9 Sr3 2.690589 1_456
N9 Sr7 2.963811 1_555
N10 Os1 2.061373 1_555
N10 Os4 2.112899 1_555
N10 Sr5 2.536198 1_555
N10 Sr11 2.686545 1_555
N10 Sr0 2.690589 1_555
N10 Sr4 2.963811 1_545
N11 Os1 2.061373 1_465
N11 Os5 2.112899 1_455
N11 Sr4 2.536198 1_555
N11 Sr11 2.686545 1_565
N11 Sr1 2.690589 1_455
N11 Sr5 2.963811 1_565
N12 Os2 2.061373 1_555
N12 Os6 2.112899 1_555
N12 Sr3 2.536198 1_555
N12 Sr8 2.686545 1_555
N12 Sr6 2.690589 1_554
N12 Sr2 2.963811 1_555
N13 Os2 2.061373 1_655
N13 Os7 2.112899 1_655
N13 Sr2 2.536198 1_555
N13 Sr8 2.686545 1_555
N13 Sr7 2.690589 1_654
N13 Sr3 2.963811 1_555
N14 Os3 2.061373 1_565
N14 Os6 2.112899 1_555
N14 Sr1 2.536198 1_555
N14 Sr9 2.686545 1_565
N14 Sr4 2.690589 1_555
N14 Sr0 2.963811 1_565
N15 Os3 2.061373 1_655
N15 Os7 2.112899 1_655
N15 Sr0 2.536198 1_555
N15 Sr9 2.686545 1_555
N15 Sr5 2.690589 1_655
N15 Sr1 2.963811 1_545
