# generated using pymatgen
data_Mg5Sc
_symmetry_space_group_name_H-M   'P 1'
_cell_length_a   5.57198930
_cell_length_b   5.57198930
_cell_length_c   5.10589888
_cell_angle_alpha   90.00000000
_cell_angle_beta   90.00000000
_cell_angle_gamma   119.99999767
_symmetry_Int_Tables_number   1
_chemical_formula_structural   Mg5Sc
_chemical_formula_sum   'Mg5 Sc1'
_cell_volume   137.28509847
_cell_formula_units_Z   1
loop_
 _symmetry_equiv_pos_site_id
 _symmetry_equiv_pos_as_xyz
  1  'x, y, z'
loop_
 _atom_site_type_symbol
 _atom_site_label
 _atom_site_symmetry_multiplicity
 _atom_site_fract_x
 _atom_site_fract_y
 _atom_site_fract_z
 _atom_site_occupancy
  Mg  Mg0  1  0.00000000  0.65754321  0.00000000  1
  Mg  Mg1  1  0.33333300  0.66666700  0.50000000  1
  Mg  Mg2  1  0.65754321  0.00000000  -0.00000000  1
  Mg  Mg3  1  0.66666700  0.33333300  0.50000000  1
  Mg  Mg4  1  0.34245679  0.34245679  0.00000000  1
  Sc  Sc0  1  0.00000000  -0.00000000  0.50000000  1
loop_
_geom_bond_atom_site_label_1
_geom_bond_atom_site_label_2
_geom_bond_distance
_geom_bond_site_symmetry_2
Mg0 Mg1 3.142512 1_555
Mg0 Mg1 3.142512 1_554
Mg0 Mg3 3.142513 1_455
Mg0 Mg3 3.142513 1_454
Mg0 Mg4 3.173881 1_555
Mg0 Mg4 3.173881 1_455
Mg0 Mg2 3.173881 1_565
Mg0 Mg2 3.173881 1_455
Mg0 Sc0 3.187263 1_565
Mg0 Sc0 3.187263 1_564
Mg0 Mg2 3.305040 1_465
Mg0 Mg4 3.305040 1_565
Mg1 Mg2 3.142513 1_565
Mg1 Mg2 3.142513 1_566
Mg1 Mg4 3.142515 1_556
Mg1 Mg4 3.142515 1_555
Mg1 Sc0 3.216986 1_565
Mg1 Mg3 3.216986 1_455
Mg1 Mg3 3.216986 1_565
Mg1 Sc0 3.216991 1_665
Mg1 Sc0 3.216991 1_555
Mg1 Mg3 3.216996 1_555
Mg2 Mg3 3.142512 1_554
Mg2 Mg3 3.142512 1_555
Mg2 Mg4 3.173881 1_555
Mg2 Mg4 3.173881 1_545
Mg2 Sc0 3.187263 1_655
Mg2 Sc0 3.187263 1_654
Mg2 Mg4 3.305040 1_655
Mg3 Mg4 3.142515 1_556
Mg3 Mg4 3.142515 1_555
Mg3 Sc0 3.216986 1_655
Mg3 Sc0 3.216991 1_665
Mg3 Sc0 3.216991 1_555
Mg4 Sc0 3.187263 1_555
Mg4 Sc0 3.187263 1_554
