# generated using pymatgen
data_Si9C10NO18
_symmetry_space_group_name_H-M   'P 1'
_cell_length_a   10.76799649
_cell_length_b   10.76799649
_cell_length_c   10.72999635
_cell_angle_alpha   76.13933902
_cell_angle_beta   76.13933902
_cell_angle_gamma   76.24047860
_symmetry_Int_Tables_number   1
_chemical_formula_structural   Si9C10NO18
_chemical_formula_sum   'Si18 C20 N2 O36'
_cell_volume   1151.04786552
_cell_formula_units_Z   2
loop_
 _symmetry_equiv_pos_site_id
 _symmetry_equiv_pos_as_xyz
  1  'x, y, z'
loop_
 _atom_site_type_symbol
 _atom_site_label
 _atom_site_symmetry_multiplicity
 _atom_site_fract_x
 _atom_site_fract_y
 _atom_site_fract_z
 _atom_site_occupancy
  Si  Si0  1  0.73941200  0.50036000  0.26030600  1
  Si  Si1  1  0.25952600  0.73997300  0.49999200  1
  Si  Si2  1  0.49966300  0.26006100  0.73986900  1
  Si  Si3  1  0.50036000  0.73941200  0.26030600  1
  Si  Si4  1  0.26006100  0.49966300  0.73986900  1
  Si  Si5  1  0.73997300  0.25952600  0.49999200  1
  Si  Si6  1  0.93016200  0.69803200  0.16451600  1
  Si  Si7  1  0.16361900  0.93101200  0.69814100  1
  Si  Si8  1  0.69796400  0.16459200  0.93085200  1
  Si  Si9  1  0.69803200  0.93016200  0.16451600  1
  Si  Si10  1  0.16459200  0.69796400  0.93085200  1
  Si  Si11  1  0.93101200  0.16361900  0.69814100  1
  Si  Si12  1  0.06978800  0.30129500  0.83651000  1
  Si  Si13  1  0.83564600  0.06881000  0.30217800  1
  Si  Si14  1  0.30225900  0.83502400  0.06955300  1
  Si  Si15  1  0.30129500  0.06978800  0.83651000  1
  Si  Si16  1  0.83502400  0.30225900  0.06955300  1
  Si  Si17  1  0.06881000  0.83564600  0.30217800  1
  C  C0  1  0.76124200  0.76124200  0.79728200  1
  C  C1  1  0.24059400  0.24059400  0.20029800  1
  C  C2  1  0.84759700  0.74306500  0.67188200  1
  C  C3  1  0.74306500  0.84759700  0.67188200  1
  C  C4  1  0.68625900  0.68625900  0.88509700  1
  C  C5  1  0.14917400  0.26188300  0.32581600  1
  C  C6  1  0.26188300  0.14917400  0.32581600  1
  C  C7  1  0.31719700  0.31719700  0.11343400  1
  C  C8  1  0.85352200  0.61446700  0.63089300  1
  C  C9  1  0.61446700  0.85352200  0.63089300  1
  C  C10  1  0.63407400  0.63407400  0.79985000  1
  C  C11  1  0.17818000  0.36689500  0.36596300  1
  C  C12  1  0.36689500  0.17818000  0.36596300  1
  C  C13  1  0.36510800  0.36510800  0.19315100  1
  C  C14  1  0.71265000  0.59114500  0.67971400  1
  C  C15  1  0.62792000  0.62792000  0.58350000  1
  C  C16  1  0.59114500  0.71265000  0.67971400  1
  C  C17  1  0.27540100  0.43439800  0.30170000  1
  C  C18  1  0.32269800  0.32269800  0.41226700  1
  C  C19  1  0.43439800  0.27540100  0.30170000  1
  N  N0  1  0.94348700  0.54391500  0.56852400  1
  N  N1  1  0.54391500  0.94348700  0.56852400  1
  O  O0  1  0.03982300  0.65741900  0.03985000  1
  O  O1  1  0.03842100  0.03842100  0.65708300  1
  O  O2  1  0.65741900  0.03982300  0.03985000  1
  O  O3  1  0.95988300  0.34267100  0.96046900  1
  O  O4  1  0.96038700  0.96038700  0.34243700  1
  O  O5  1  0.34267100  0.95988300  0.96046900  1
  O  O6  1  0.73813500  0.39612000  0.39675400  1
  O  O7  1  0.39612000  0.73813500  0.39675400  1
  O  O8  1  0.39807000  0.39807000  0.73731700  1
  O  O9  1  0.26231100  0.60165100  0.60171900  1
  O  O10  1  0.60165100  0.26231100  0.60171900  1
  O  O11  1  0.60155900  0.60155900  0.26125500  1
  O  O12  1  0.99886900  0.73278700  0.26814800  1
  O  O13  1  0.26512300  0.00160300  0.73340800  1
  O  O14  1  0.73128400  0.26906000  0.99960600  1
  O  O15  1  0.73278700  0.99886900  0.26814800  1
  O  O16  1  0.26906000  0.73128400  0.99960600  1
  O  O17  1  0.00160300  0.26512300  0.73340800  1
  O  O18  1  0.85933200  0.57614700  0.23781600  1
  O  O19  1  0.23848300  0.85828400  0.57771600  1
  O  O20  1  0.57700300  0.23858100  0.85881200  1
  O  O21  1  0.57614700  0.85933200  0.23781600  1
  O  O22  1  0.23858100  0.57700300  0.85881200  1
  O  O23  1  0.85828400  0.23848300  0.57771600  1
  O  O24  1  0.14062600  0.42329800  0.76352600  1
  O  O25  1  0.76273700  0.13882300  0.42503500  1
  O  O26  1  0.42388200  0.76179300  0.14031500  1
  O  O27  1  0.42329800  0.14062600  0.76352600  1
  O  O28  1  0.76179300  0.42388200  0.14031500  1
  O  O29  1  0.13882300  0.76273700  0.42503500  1
  O  O30  1  0.82477600  0.82477600  0.11151500  1
  O  O31  1  0.11166100  0.82522800  0.82582200  1
  O  O32  1  0.82522800  0.11166100  0.82582200  1
  O  O33  1  0.17544700  0.17544700  0.89029600  1
  O  O34  1  0.88705700  0.17466300  0.17463800  1
  O  O35  1  0.17466300  0.88705700  0.17463800  1
loop_
_geom_bond_atom_site_label_1
_geom_bond_atom_site_label_2
_geom_bond_distance
_geom_bond_site_symmetry_2
C0 C4 1.331457 1_555
C0 C3 1.467511 1_555
C0 C2 1.467511 1_555
C1 C7 1.347760 1_555
C1 C6 1.496949 1_555
C1 C5 1.496949 1_555
C2 C3 1.389697 1_555
C2 C8 1.533410 1_555
C3 C9 1.533410 1_555
C5 C6 1.498406 1_555
C8 N0 1.243523 1_555
C9 N1 1.243523 1_555
C10 C4 1.452908 1_555
C10 C16 1.472456 1_555
C10 C14 1.472456 1_555
C11 C17 1.369574 1_555
C11 C5 1.423944 1_555
C11 C18 1.673279 1_555
C12 C19 1.369574 1_555
C12 C6 1.423944 1_555
C12 C18 1.673279 1_555
C13 C7 1.346638 1_555
C13 C19 1.542998 1_555
C13 C17 1.542998 1_555
C14 C15 1.462391 1_555
C14 C8 1.541413 1_555
C14 C16 1.615344 1_555
C15 C16 1.462391 1_555
C16 C9 1.541413 1_555
C17 C18 1.558199 1_555
C18 C19 1.558199 1_555
O0 Si10 1.626348 1_554
O0 Si6 1.628738 1_455
O1 Si7 1.627250 1_545
O1 Si11 1.627250 1_455
O2 Si8 1.626348 1_554
O2 Si9 1.628738 1_545
O3 Si12 1.626993 1_655
O3 Si16 1.627047 1_556
O4 Si17 1.626117 1_655
O4 Si13 1.626117 1_565
O5 Si15 1.626993 1_565
O5 Si14 1.627047 1_556
O6 Si5 1.614584 1_555
O6 Si0 1.616776 1_555
O7 Si1 1.614584 1_555
O7 Si3 1.616776 1_555
O8 Si2 1.620937 1_555
O8 Si4 1.620937 1_555
O9 Si4 1.618480 1_555
O9 Si1 1.620583 1_555
O10 Si2 1.618480 1_555
O10 Si5 1.620583 1_555
O11 Si3 1.618525 1_555
O11 Si0 1.618525 1_555
O12 Si6 1.627622 1_555
O12 Si17 1.627759 1_655
O13 Si15 1.626747 1_555
O13 Si7 1.626905 1_545
O14 Si8 1.629364 1_555
O14 Si16 1.630691 1_556
O15 Si9 1.627622 1_555
O15 Si13 1.627759 1_565
O16 Si10 1.629364 1_555
O16 Si14 1.630691 1_556
O17 Si12 1.626747 1_555
O17 Si11 1.626905 1_455
O18 Si6 1.617724 1_555
O18 Si0 1.627664 1_555
O19 Si7 1.618110 1_555
O19 Si1 1.628208 1_555
O20 Si8 1.619406 1_555
O20 Si2 1.628515 1_555
O21 Si9 1.617724 1_555
O21 Si3 1.627664 1_555
O22 Si10 1.619406 1_555
O22 Si4 1.628515 1_555
O23 Si11 1.618110 1_555
O23 Si5 1.628208 1_555
O24 Si12 1.618195 1_555
O24 Si4 1.625190 1_555
O25 Si13 1.619034 1_555
O25 Si5 1.628221 1_555
O26 Si14 1.616096 1_555
O26 Si3 1.630598 1_555
O27 Si15 1.618195 1_555
O27 Si2 1.625190 1_555
O28 Si16 1.616096 1_555
O28 Si0 1.630598 1_555
O29 Si17 1.619034 1_555
O29 Si1 1.628221 1_555
O30 Si9 1.635362 1_555
O30 Si6 1.635362 1_555
O31 Si10 1.633744 1_555
O31 Si7 1.635752 1_555
O32 Si8 1.633744 1_555
O32 Si11 1.635752 1_555
O33 Si15 1.634125 1_555
O33 Si12 1.634125 1_555
O34 Si16 1.633187 1_555
O34 Si13 1.633490 1_555
O35 Si14 1.633187 1_555
O35 Si17 1.633490 1_555
