# generated using pymatgen
data_La4Mn3Sb8
_symmetry_space_group_name_H-M   'P 1'
_cell_length_a   11.57663064
_cell_length_b   11.57663064
_cell_length_c   11.57663064
_cell_angle_alpha   148.58706913
_cell_angle_beta   148.58706913
_cell_angle_gamma   45.01947589
_symmetry_Int_Tables_number   1
_chemical_formula_structural   La4Mn3Sb8
_chemical_formula_sum   'La4 Mn3 Sb8'
_cell_volume   420.14279918
_cell_formula_units_Z   1
loop_
 _symmetry_equiv_pos_site_id
 _symmetry_equiv_pos_as_xyz
  1  'x, y, z'
loop_
 _atom_site_type_symbol
 _atom_site_label
 _atom_site_symmetry_multiplicity
 _atom_site_fract_x
 _atom_site_fract_y
 _atom_site_fract_z
 _atom_site_occupancy
  La  La0  1  0.62064400  0.11941500  0.00000000  1
  La  La1  1  0.11941500  0.62064400  0.00000000  1
  La  La2  1  0.88058500  0.88058500  0.50122900  1
  La  La3  1  0.37935600  0.37935600  0.49877100  1
  Mn  Mn0  1  0.00000000  0.00000000  0.00000000  1
  Mn  Mn1  1  0.50000000  0.00000000  0.50000000  1
  Mn  Mn2  1  0.00000000  0.50000000  0.50000000  1
  Sb  Sb0  1  0.25006200  0.25006200  0.00000000  1
  Sb  Sb1  1  0.74993800  0.74993800  0.00000000  1
  Sb  Sb2  1  0.25000000  0.75000000  0.50000000  1
  Sb  Sb3  1  0.75000000  0.25000000  0.50000000  1
  Sb  Sb4  1  0.32585600  0.82215000  0.00000000  1
  Sb  Sb5  1  0.82215000  0.32585600  0.00000000  1
  Sb  Sb6  1  0.17785000  0.17785000  0.50370600  1
  Sb  Sb7  1  0.67414400  0.67414400  0.49629400  1
loop_
_geom_bond_atom_site_label_1
_geom_bond_atom_site_label_2
_geom_bond_distance
_geom_bond_site_symmetry_2
La0 Sb6 3.347541 1_554
La0 Sb7 3.347541 1_555
La0 Sb6 3.362044 1_655
La0 Sb7 3.362044 1_544
La0 Sb1 3.388900 1_545
La0 Sb2 3.391456 1_544
La0 Sb3 3.391456 1_555
La0 Sb0 3.394010 1_555
La0 Mn0 3.551738 1_655
La0 Mn1 3.555135 1_554
La0 Mn2 3.555135 1_655
La1 Sb6 3.347541 1_554
La1 Sb7 3.347541 1_555
La1 Sb6 3.362044 1_565
La1 Sb7 3.362044 1_454
La1 Sb1 3.388900 1_455
La1 Sb2 3.391456 1_555
La1 Sb3 3.391456 1_454
La1 Sb0 3.394010 1_555
La1 Mn0 3.551738 1_565
La1 Mn1 3.555135 1_565
La1 Mn2 3.555135 1_554
La2 Sb4 3.347541 1_555
La2 Sb5 3.347541 1_555
La2 Sb4 3.362044 1_656
La2 Sb5 3.362044 1_566
La2 Sb0 3.388900 1_666
La2 Sb2 3.391456 1_655
La2 Sb3 3.391456 1_565
La2 Sb1 3.394010 1_555
La2 Mn0 3.551738 1_666
La2 Mn2 3.555135 1_655
La2 Mn1 3.555135 1_565
La3 Sb5 3.347541 1_556
La3 Sb4 3.347541 1_556
La3 Sb4 3.362044 1_545
La3 Sb5 3.362044 1_455
La3 Sb0 3.388900 1_555
La3 Sb2 3.391456 1_555
La3 Sb3 3.391456 1_555
La3 Sb1 3.394010 1_556
La3 Mn0 3.551738 1_555
La3 Mn1 3.555135 1_555
La3 Mn2 3.555135 1_555
Mn0 Sb7 2.736643 1_444
Mn0 Sb6 2.736643 1_555
Mn0 Sb4 2.736643 1_545
Mn0 Sb5 2.736643 1_455
Mn1 Sb7 2.723311 1_545
Mn1 Sb6 2.723311 1_555
Mn1 Sb5 2.723311 1_556
Mn1 Sb4 2.723311 1_545
Mn2 Sb7 2.723311 1_455
Mn2 Sb4 2.723311 1_556
Mn2 Sb6 2.723311 1_555
Mn2 Sb5 2.723311 1_455
Sb0 Sb3 3.133899 1_555
Sb0 Sb2 3.133899 1_544
Sb0 Sb3 3.133899 1_454
Sb0 Sb2 3.133899 1_555
Sb1 Sb3 3.133899 1_554
Sb1 Sb3 3.133899 1_565
Sb1 Sb2 3.133899 1_554
Sb1 Sb2 3.133899 1_655
