# generated using pymatgen
data_Sm2MgS4
_symmetry_space_group_name_H-M   'P 1'
_cell_length_a   7.53023622
_cell_length_b   8.81291349
_cell_length_c   11.82886089
_cell_angle_alpha   79.92530034
_cell_angle_beta   83.66231054
_cell_angle_gamma   91.34176534
_symmetry_Int_Tables_number   1
_chemical_formula_structural   Sm2MgS4
_chemical_formula_sum   'Sm8 Mg4 S16'
_cell_volume   767.44205441
_cell_formula_units_Z   4
loop_
 _symmetry_equiv_pos_site_id
 _symmetry_equiv_pos_as_xyz
  1  'x, y, z'
loop_
 _atom_site_type_symbol
 _atom_site_label
 _atom_site_symmetry_multiplicity
 _atom_site_fract_x
 _atom_site_fract_y
 _atom_site_fract_z
 _atom_site_occupancy
  Sm  Sm0  1  0.13649900  0.70677900  0.65785700  1
  Sm  Sm1  1  0.86350100  0.29322100  0.34214300  1
  Sm  Sm2  1  0.24849000  0.87083000  0.99729600  1
  Sm  Sm3  1  0.75151000  0.12917000  0.00270400  1
  Sm  Sm4  1  0.36842000  0.55254400  0.33420000  1
  Sm  Sm5  1  0.63158000  0.44745600  0.66580000  1
  Sm  Sm6  1  0.36120000  0.02727500  0.34694600  1
  Sm  Sm7  1  0.63880000  0.97272500  0.65305400  1
  Mg  Mg0  1  0.13923000  0.20705700  0.68737100  1
  Mg  Mg1  1  0.86077000  0.79294300  0.31262900  1
  Mg  Mg2  1  0.24601500  0.39207400  0.99271700  1
  Mg  Mg3  1  0.75398500  0.60792600  0.00728300  1
  S  S0  1  0.10097800  0.64144000  0.88641500  1
  S  S1  1  0.89902200  0.35856000  0.11358500  1
  S  S2  1  0.11388700  0.16432200  0.89482800  1
  S  S3  1  0.88611300  0.83567800  0.10517200  1
  S  S4  1  0.15131400  0.77018800  0.39388100  1
  S  S5  1  0.84868600  0.22981200  0.60611900  1
  S  S6  1  0.20145000  0.28062700  0.37618200  1
  S  S7  1  0.79855000  0.71937300  0.62381800  1
  S  S8  1  0.29676700  0.99368800  0.60800000  1
  S  S9  1  0.70323300  0.00631200  0.39200000  1
  S  S10  1  0.30115900  0.45647600  0.60372800  1
  S  S11  1  0.69884100  0.54352400  0.39627200  1
  S  S12  1  0.39994600  0.08003300  0.11949900  1
  S  S13  1  0.60005400  0.91996700  0.88050100  1
  S  S14  1  0.40301200  0.59071900  0.10532600  1
  S  S15  1  0.59698800  0.40928100  0.89467400  1
loop_
_geom_bond_atom_site_label_1
_geom_bond_atom_site_label_2
_geom_bond_distance
_geom_bond_site_symmetry_2
Mg0 S2 2.402118 1_555
Mg0 S10 2.478846 1_555
Mg0 S5 2.483562 1_455
Mg0 S8 2.510163 1_545
Mg1 S3 2.402118 1_555
Mg1 S11 2.478846 1_555
Mg1 S4 2.483562 1_655
Mg1 S9 2.510163 1_565
Mg2 S0 2.655631 1_555
Mg2 S14 2.702465 1_556
Mg2 S2 2.708014 1_555
Mg2 S15 2.756077 1_555
Mg2 S1 2.819602 1_456
Mg3 S1 2.655631 1_555
Mg3 S15 2.702465 1_554
Mg3 S3 2.708014 1_555
Mg3 S14 2.756077 1_555
Mg3 S0 2.819602 1_654
S0 Sm0 2.645928 1_555
S0 Sm2 2.860972 1_555
S1 Sm1 2.645928 1_555
S1 Sm3 2.860972 1_555
S2 Sm3 2.867732 1_456
S2 Sm2 2.912689 1_545
S3 Sm2 2.867732 1_654
S3 Sm3 2.912689 1_565
S4 Sm6 2.671704 1_565
S4 Sm4 2.686254 1_555
S4 Sm0 3.063435 1_555
S5 Sm7 2.671704 1_545
S5 Sm5 2.686254 1_555
S5 Sm1 3.063435 1_555
S6 Sm6 2.618406 1_555
S6 Sm1 2.621916 1_455
S6 Sm4 2.621985 1_555
S7 Sm7 2.618406 1_555
S7 Sm0 2.621916 1_655
S7 Sm5 2.621985 1_555
S8 Sm7 2.691225 1_555
S8 Sm0 2.715857 1_555
S8 Sm6 3.033365 1_565
S9 Sm6 2.691225 1_555
S9 Sm1 2.715857 1_555
S9 Sm7 3.033365 1_545
S10 Sm5 2.669923 1_555
S10 Sm0 2.694502 1_555
S10 Sm4 3.133216 1_555
S11 Sm4 2.669923 1_555
S11 Sm1 2.694502 1_555
S11 Sm5 3.133216 1_555
S12 Sm6 2.631056 1_555
S12 Sm2 2.826195 1_544
S12 Sm3 2.834474 1_555
S13 Sm7 2.631056 1_555
S13 Sm3 2.826195 1_566
S13 Sm2 2.834474 1_555
S14 Sm4 2.651820 1_555
S14 Sm2 2.905165 1_554
S15 Sm5 2.651820 1_555
S15 Sm3 2.905165 1_556
