# generated using pymatgen
data_SrLiCuN
_symmetry_space_group_name_H-M   'P 1'
_cell_length_a   6.21390100
_cell_length_b   6.21390100
_cell_length_c   13.88711975
_cell_angle_alpha   102.92814406
_cell_angle_beta   102.92814406
_cell_angle_gamma   90.00000000
_symmetry_Int_Tables_number   1
_chemical_formula_structural   SrLiCuN
_chemical_formula_sum   'Sr8 Li8 Cu8 N8'
_cell_volume   508.66954508
_cell_formula_units_Z   8
loop_
 _symmetry_equiv_pos_site_id
 _symmetry_equiv_pos_as_xyz
  1  'x, y, z'
loop_
 _atom_site_type_symbol
 _atom_site_label
 _atom_site_symmetry_multiplicity
 _atom_site_fract_x
 _atom_site_fract_y
 _atom_site_fract_z
 _atom_site_occupancy
  Sr  Sr0  1  0.36158800  0.63869700  0.72317500  1
  Sr  Sr1  1  0.36158800  0.08447900  0.72317500  1
  Sr  Sr2  1  0.33447900  0.11158800  0.22317500  1
  Sr  Sr3  1  0.88841200  0.66552100  0.77682500  1
  Sr  Sr4  1  0.88841200  0.11130300  0.77682500  1
  Sr  Sr5  1  0.88869700  0.11158800  0.22317500  1
  Sr  Sr6  1  0.91552100  0.63841200  0.27682500  1
  Sr  Sr7  1  0.36130300  0.63841200  0.27682500  1
  Li  Li0  1  0.26243700  0.51915600  0.52487400  1
  Li  Li1  1  0.26243700  0.00571800  0.52487400  1
  Li  Li2  1  0.25571800  0.01243700  0.02487400  1
  Li  Li3  1  0.98756300  0.74428200  0.97512600  1
  Li  Li4  1  0.98756300  0.23084400  0.97512600  1
  Li  Li5  1  0.76915600  0.01243700  0.02487400  1
  Li  Li6  1  0.99428200  0.73756300  0.47512600  1
  Li  Li7  1  0.48084400  0.73756300  0.47512600  1
  Cu  Cu0  1  0.77926500  0.02123800  0.55853100  1
  Cu  Cu1  1  0.77926500  0.53729300  0.55853100  1
  Cu  Cu2  1  0.78729300  0.52926500  0.05853100  1
  Cu  Cu3  1  0.47073500  0.21270700  0.94146900  1
  Cu  Cu4  1  0.47073500  0.72876200  0.94146900  1
  Cu  Cu5  1  0.27123800  0.52926500  0.05853100  1
  Cu  Cu6  1  0.46270700  0.22073500  0.44146900  1
  Cu  Cu7  1  0.97876200  0.22073500  0.44146900  1
  N  N0  1  0.18927300  0.42649700  0.37854700  1
  N  N1  1  0.18927300  0.95204900  0.37854700  1
  N  N2  1  0.20204900  0.93927300  0.87854700  1
  N  N3  1  0.06072700  0.79795100  0.12145300  1
  N  N4  1  0.06072700  0.32350300  0.12145300  1
  N  N5  1  0.67649700  0.93927300  0.87854700  1
  N  N6  1  0.04795100  0.81072700  0.62145300  1
  N  N7  1  0.57350300  0.81072700  0.62145300  1
loop_
_geom_bond_atom_site_label_1
_geom_bond_atom_site_label_2
_geom_bond_distance
_geom_bond_site_symmetry_2
Li0 N0 1.931468 1_555
Li0 N6 2.563260 1_555
Li0 N7 2.563264 1_555
Li1 N1 1.931467 1_545
Li1 N6 2.563257 1_545
Li1 N7 2.563261 1_545
Li2 N2 1.931467 1_544
Li2 N3 2.563257 1_545
Li2 N4 2.563261 1_555
Li3 N3 1.931467 1_656
Li3 N2 2.563257 1_655
Li3 N5 2.563261 1_555
Li4 N4 1.931468 1_656
Li4 N2 2.563260 1_645
Li4 N5 2.563264 1_545
Li5 N5 1.931468 1_544
Li5 N3 2.563260 1_645
Li5 N4 2.563264 1_655
Li6 N6 1.931467 1_655
Li6 N1 2.563257 1_655
Li6 N0 2.563261 1_655
Li7 N7 1.931468 1_555
Li7 N1 2.563260 1_555
Li7 N0 2.563264 1_555
Cu0 N7 2.262917 1_545
Cu0 N6 2.262925 1_645
Cu0 Li7 2.452098 1_545
Cu0 Li6 2.452102 1_545
Cu0 Sr4 2.878179 1_555
Cu1 N7 2.262921 1_555
Cu1 N6 2.262929 1_655
Cu1 Li7 2.452098 1_555
Cu1 Li6 2.452102 1_555
Cu1 Sr3 2.878178 1_555
Cu2 N4 2.262921 1_655
Cu2 N3 2.262929 1_655
Cu2 Li4 2.452098 1_554
Cu2 Li3 2.452102 1_554
Cu2 Sr6 2.878178 1_555
Cu3 N5 2.262921 1_545
Cu3 N2 2.262929 1_545
Cu3 Li5 2.452098 1_556
Cu3 Li2 2.452102 1_556
Cu3 Sr1 2.878178 1_555
Cu4 N5 2.262917 1_555
Cu4 N2 2.262925 1_555
Cu4 Li5 2.452098 1_566
Cu4 Li2 2.452102 1_566
Cu4 Sr0 2.878179 1_555
Cu5 N4 2.262917 1_555
Cu5 N3 2.262925 1_555
Cu5 Li4 2.452098 1_454
Cu5 Li3 2.452102 1_454
Cu5 Sr7 2.878179 1_555
Cu6 N0 2.262921 1_555
Cu6 N1 2.262929 1_545
Cu6 Li0 2.452098 1_555
Cu6 Li1 2.452102 1_555
Cu6 Sr2 2.878178 1_555
Cu7 N0 2.262917 1_655
Cu7 N1 2.262925 1_645
Cu7 Li0 2.452098 1_655
Cu7 Li1 2.452102 1_655
Cu7 Sr5 2.878179 1_555
N0 Sr7 2.525920 1_555
N0 Sr6 2.525921 1_455
N0 Sr5 2.877613 1_455
N0 Sr2 2.877619 1_555
N1 Sr7 2.525921 1_555
N1 Sr6 2.525921 1_455
N1 Sr5 2.877620 1_465
N1 Sr2 2.877626 1_565
N2 Sr4 2.525921 1_465
N2 Sr3 2.525921 1_455
N2 Sr0 2.877620 1_555
N2 Sr1 2.877626 1_565
N3 Sr5 2.525921 1_465
N3 Sr2 2.525921 1_565
N3 Sr7 2.877620 1_555
N3 Sr6 2.877626 1_455
N4 Sr5 2.525920 1_455
N4 Sr2 2.525921 1_555
N4 Sr7 2.877613 1_555
N4 Sr6 2.877619 1_455
N5 Sr4 2.525920 1_565
N5 Sr3 2.525921 1_555
N5 Sr0 2.877613 1_555
N5 Sr1 2.877619 1_565
N6 Sr0 2.525921 1_555
N6 Sr1 2.525921 1_565
N6 Sr4 2.877620 1_465
N6 Sr3 2.877626 1_455
N7 Sr0 2.525920 1_555
N7 Sr1 2.525921 1_565
N7 Sr4 2.877613 1_565
N7 Sr3 2.877619 1_555
