# generated using pymatgen
data_ZnCoPO5
_symmetry_space_group_name_H-M   'P 1'
_cell_length_a   5.31671600
_cell_length_b   5.39188191
_cell_length_c   6.97911101
_cell_angle_alpha   105.88943431
_cell_angle_beta   105.47332481
_cell_angle_gamma   98.86786163
_symmetry_Int_Tables_number   1
_chemical_formula_structural   ZnCoPO5
_chemical_formula_sum   'Zn2 Co2 P2 O10'
_cell_volume   179.79494239
_cell_formula_units_Z   2
loop_
 _symmetry_equiv_pos_site_id
 _symmetry_equiv_pos_as_xyz
  1  'x, y, z'
loop_
 _atom_site_type_symbol
 _atom_site_label
 _atom_site_symmetry_multiplicity
 _atom_site_fract_x
 _atom_site_fract_y
 _atom_site_fract_z
 _atom_site_occupancy
  Zn  Zn0  1  0.31938100  0.16360400  0.77232800  1
  Zn  Zn1  1  0.70072400  0.83727900  0.27077900  1
  Co  Co0  1  0.00450400  0.49510100  0.51465800  1
  Co  Co1  1  0.00419100  0.49533000  0.01455300  1
  P  P0  1  0.66489200  0.84174400  0.76613100  1
  P  P1  1  0.34100700  0.14523000  0.26050700  1
  O  O0  1  0.69385100  0.65739500  0.90146500  1
  O  O1  1  0.86171900  0.82010000  0.63684800  1
  O  O2  1  0.31308400  0.32586400  0.12156700  1
  O  O3  1  0.13931900  0.16754900  0.38533500  1
  O  O4  1  0.63786200  0.20773300  0.40929000  1
  O  O5  1  0.30298300  0.84906900  0.12578200  1
  O  O6  1  0.36690300  0.78572700  0.62176800  1
  O  O7  1  0.70929400  0.13795600  0.90469000  1
  O  O8  1  0.91505500  0.58266000  0.26469000  1
  O  O9  1  0.09321500  0.40640300  0.76248100  1
loop_
_geom_bond_atom_site_label_1
_geom_bond_atom_site_label_2
_geom_bond_distance
_geom_bond_site_symmetry_2
Co0 O9 1.878787 1_555
Co0 O8 1.889455 1_455
Co0 O3 2.076106 1_555
Co0 O1 2.076440 1_455
Co0 O6 2.094274 1_555
Co0 O4 2.102727 1_455
Co1 O8 1.885215 1_455
Co1 O9 1.897692 1_554
Co1 O0 2.058225 1_454
Co1 O2 2.066817 1_555
Co1 O5 2.088347 1_555
Co1 O7 2.092188 1_454
O0 P0 1.545147 1_555
O0 Zn1 2.481014 1_556
O1 P0 1.551336 1_555
O1 Zn1 2.501122 1_555
O2 P1 1.547840 1_555
O2 Zn0 2.364802 1_554
O3 P1 1.550536 1_555
O3 Zn1 2.488656 1_445
O4 P1 1.566122 1_555
O4 Zn1 2.087316 1_545
O5 P1 1.565832 1_565
O5 Zn1 2.105891 1_555
O6 P0 1.565415 1_555
O6 Zn0 2.108869 1_565
O7 P0 1.567789 1_545
O7 Zn0 2.075225 1_555
O8 Zn1 1.913470 1_555
O9 Zn0 1.911807 1_555
