# generated using pymatgen
data_YbB2Os
_symmetry_space_group_name_H-M   'P 1'
_cell_length_a   5.24901265
_cell_length_b   5.80426317
_cell_length_c   6.30232792
_cell_angle_alpha   90.00000000
_cell_angle_beta   90.00000000
_cell_angle_gamma   90.00000000
_symmetry_Int_Tables_number   1
_chemical_formula_structural   YbB2Os
_chemical_formula_sum   'Yb4 B8 Os4'
_cell_volume   192.01082401
_cell_formula_units_Z   4
loop_
 _symmetry_equiv_pos_site_id
 _symmetry_equiv_pos_as_xyz
  1  'x, y, z'
loop_
 _atom_site_type_symbol
 _atom_site_label
 _atom_site_symmetry_multiplicity
 _atom_site_fract_x
 _atom_site_fract_y
 _atom_site_fract_z
 _atom_site_occupancy
  Yb  Yb0  1  0.25000000  0.00953419  0.33314448  1
  Yb  Yb1  1  0.25000000  0.50953419  0.16685552  1
  Yb  Yb2  1  0.75000000  0.99046581  0.66685552  1
  Yb  Yb3  1  0.75000000  0.49046581  0.83314448  1
  B  B0  1  0.08183447  0.35966114  0.53742496  1
  B  B1  1  0.41816553  0.85966114  0.96257504  1
  B  B2  1  0.58183447  0.64033886  0.46257504  1
  B  B3  1  0.91816553  0.14033886  0.03742496  1
  B  B4  1  0.91816553  0.64033886  0.46257504  1
  B  B5  1  0.58183447  0.14033886  0.03742496  1
  B  B6  1  0.41816553  0.35966114  0.53742496  1
  B  B7  1  0.08183447  0.85966114  0.96257504  1
  Os  Os0  1  0.25000000  0.17670269  0.81959569  1
  Os  Os1  1  0.25000000  0.67670269  0.68040431  1
  Os  Os2  1  0.75000000  0.82329731  0.18040431  1
  Os  Os3  1  0.75000000  0.32329731  0.31959569  1
loop_
_geom_bond_atom_site_label_1
_geom_bond_atom_site_label_2
_geom_bond_distance
_geom_bond_site_symmetry_2
B0 B6 1.765406 1_555
B0 B4 1.901220 1_455
B0 Os3 2.227800 1_455
B0 Os1 2.231022 1_555
B0 Os0 2.251521 1_555
B0 Yb0 2.562543 1_555
B0 Yb1 2.643903 1_555
B0 Yb3 2.661533 1_455
B0 Yb2 2.879465 1_445
B1 B7 1.765406 1_555
B1 B5 1.901220 1_566
B1 Os2 2.227800 1_556
B1 Os0 2.231022 1_565
B1 Os1 2.251521 1_555
B1 Yb1 2.562543 1_556
B1 Yb0 2.643903 1_566
B1 Yb2 2.661533 1_555
B1 Yb3 2.879465 1_555
B2 B4 1.765406 1_555
B2 B6 1.901220 1_555
B2 Os1 2.227800 1_555
B2 Os3 2.231022 1_555
B2 Os2 2.251521 1_555
B2 Yb2 2.562543 1_555
B2 Yb3 2.643903 1_555
B2 Yb1 2.661533 1_555
B2 Yb0 2.879465 1_565
B3 B5 1.765406 1_555
B3 B7 1.901220 1_644
B3 Os0 2.227800 1_654
B3 Os2 2.231022 1_545
B3 Os3 2.251521 1_555
B3 Yb3 2.562543 1_554
B3 Yb2 2.643903 1_544
B3 Yb0 2.661533 1_655
B3 Yb1 2.879465 1_655
B4 Os1 2.227800 1_655
B4 Os3 2.231022 1_555
B4 Os2 2.251521 1_555
B4 Yb2 2.562543 1_555
B4 Yb3 2.643903 1_555
B4 Yb1 2.661533 1_655
B4 Yb0 2.879465 1_665
B5 Os0 2.227800 1_554
B5 Os2 2.231022 1_545
B5 Os3 2.251521 1_555
B5 Yb3 2.562543 1_554
B5 Yb2 2.643903 1_544
B5 Yb0 2.661533 1_555
B5 Yb1 2.879465 1_555
B6 Os3 2.227800 1_555
B6 Os1 2.231022 1_555
B6 Os0 2.251521 1_555
B6 Yb0 2.562543 1_555
B6 Yb1 2.643903 1_555
B6 Yb3 2.661533 1_555
B6 Yb2 2.879465 1_545
B7 Os2 2.227800 1_456
B7 Os0 2.231022 1_565
B7 Os1 2.251521 1_555
B7 Yb1 2.562543 1_556
B7 Yb0 2.643903 1_566
B7 Yb2 2.661533 1_455
B7 Yb3 2.879465 1_455
Os0 Yb1 2.919202 1_556
Os1 Yb0 2.919202 1_565
Os2 Yb3 2.919202 1_554
Os3 Yb2 2.919202 1_545
