# generated using pymatgen
data_KTm2F7
_symmetry_space_group_name_H-M   'P 1'
_cell_length_a   8.05330876
_cell_length_b   8.05330876
_cell_length_c   11.71695528
_cell_angle_alpha   59.79270374
_cell_angle_beta   59.79270374
_cell_angle_gamma   58.34351361
_symmetry_Int_Tables_number   1
_chemical_formula_structural   KTm2F7
_chemical_formula_sum   'K4 Tm8 F28'
_cell_volume   528.66477727
_cell_formula_units_Z   4
loop_
 _symmetry_equiv_pos_site_id
 _symmetry_equiv_pos_as_xyz
  1  'x, y, z'
loop_
 _atom_site_type_symbol
 _atom_site_label
 _atom_site_symmetry_multiplicity
 _atom_site_fract_x
 _atom_site_fract_y
 _atom_site_fract_z
 _atom_site_occupancy
  K  K0  1  0.76254012  0.76254012  0.47960233  1
  K  K1  1  0.26729872  0.26729872  0.15202051  1
  K  K2  1  0.73270128  0.73270128  0.84797949  1
  K  K3  1  0.23745988  0.23745988  0.52039767  1
  Tm  Tm0  1  0.24056572  0.75943428  0.50000000  1
  Tm  Tm1  1  0.75943428  0.24056572  0.50000000  1
  Tm  Tm2  1  0.74066527  0.74066527  0.17898895  1
  Tm  Tm3  1  0.25933473  0.25933473  0.82101105  1
  Tm  Tm4  1  0.26406780  0.73808611  0.81898079  1
  Tm  Tm5  1  0.73808611  0.26406780  0.81898079  1
  Tm  Tm6  1  0.26191389  0.73593220  0.18101921  1
  Tm  Tm7  1  0.73593220  0.26191389  0.18101921  1
  F  F0  1  0.38075454  0.85532501  0.26289031  1
  F  F1  1  0.85532501  0.38075454  0.26289031  1
  F  F2  1  0.36636843  0.83506609  0.58482690  1
  F  F3  1  0.83506609  0.36636843  0.58482690  1
  F  F4  1  0.99647637  0.99647637  0.23336485  1
  F  F5  1  0.60294602  0.60294602  0.75055930  1
  F  F6  1  0.89521080  0.89521080  0.57364552  1
  F  F7  1  0.00409749  0.66865017  0.00099535  1
  F  F8  1  0.66865017  0.00409749  0.00099535  1
  F  F9  1  0.39705398  0.39705398  0.24944070  1
  F  F10  1  0.99590251  0.33134983  0.99900465  1
  F  F11  1  0.33134983  0.99590251  0.99900465  1
  F  F12  1  0.14467499  0.61924546  0.73710969  1
  F  F13  1  0.61924546  0.14467499  0.73710969  1
  F  F14  1  0.32278776  0.67721224  -0.00000000  1
  F  F15  1  0.67721224  0.32278776  -0.00000000  1
  F  F16  1  0.00352363  0.00352363  0.76663515  1
  F  F17  1  0.60539934  0.60539934  0.41232669  1
  F  F18  1  0.99857014  0.65577008  0.23909123  1
  F  F19  1  0.65577008  0.99857014  0.23909123  1
  F  F20  1  0.00142986  0.34422992  0.76090877  1
  F  F21  1  0.34422992  0.00142986  0.76090877  1
  F  F22  1  0.38657327  0.38657327  0.88074705  1
  F  F23  1  0.10478920  0.10478920  0.42635448  1
  F  F24  1  0.39460066  0.39460066  0.58767331  1
  F  F25  1  0.16493391  0.63363157  0.41517310  1
  F  F26  1  0.63363157  0.16493391  0.41517310  1
  F  F27  1  0.61342673  0.61342673  0.11925295  1
loop_
_geom_bond_atom_site_label_1
_geom_bond_atom_site_label_2
_geom_bond_distance
_geom_bond_site_symmetry_2
F0 Tm0 2.278038 1_555
F0 Tm2 2.336046 1_555
F0 Tm6 2.361896 1_555
F0 K1 2.684284 1_565
F1 Tm1 2.278038 1_555
F1 Tm2 2.336046 1_555
F1 Tm7 2.361896 1_555
F1 K1 2.684284 1_655
F2 Tm0 2.157645 1_555
F2 Tm4 2.249590 1_555
F2 K0 2.617413 1_555
F2 K3 2.635302 1_565
F3 Tm1 2.157645 1_555
F3 Tm5 2.249590 1_555
F3 K0 2.617413 1_555
F3 K3 2.635302 1_655
F4 Tm7 2.148492 1_565
F4 Tm6 2.148492 1_655
F4 K0 2.865166 1_555
F5 Tm5 2.198606 1_555
F5 Tm4 2.198606 1_555
F5 K0 2.627745 1_555
F5 K2 2.652073 1_555
F6 Tm0 2.240069 1_655
F6 Tm1 2.240069 1_565
F6 K0 2.657989 1_555
F6 K2 2.662584 1_555
F7 Tm2 2.158717 1_455
F7 Tm4 2.186338 1_554
F8 Tm2 2.158717 1_545
F8 Tm5 2.186338 1_554
F9 Tm6 2.198606 1_555
F9 Tm7 2.198606 1_555
F9 K3 2.627745 1_555
F9 K1 2.652073 1_555
F10 Tm3 2.158717 1_655
F10 Tm7 2.186338 1_556
F11 Tm3 2.158717 1_565
F11 Tm6 2.186338 1_556
F12 Tm0 2.278038 1_555
F12 Tm3 2.336046 1_555
F12 Tm4 2.361896 1_555
F12 K2 2.684284 1_455
F13 Tm1 2.278038 1_555
F13 Tm3 2.336046 1_555
F13 Tm5 2.361896 1_555
F13 K2 2.684284 1_545
F14 Tm6 2.163842 1_555
F14 Tm4 2.163842 1_554
F15 Tm7 2.163842 1_555
F15 Tm5 2.163842 1_554
F16 Tm4 2.148492 1_545
F16 Tm5 2.148492 1_455
F16 K3 2.865166 1_555
F17 Tm2 2.258292 1_555
F17 Tm1 2.376158 1_555
F17 Tm0 2.376158 1_555
F17 K0 2.740979 1_555
F18 Tm2 2.184957 1_555
F18 Tm6 2.218218 1_655
F18 K0 2.761606 1_555
F18 K1 3.065136 1_655
F19 Tm2 2.184957 1_555
F19 Tm7 2.218218 1_565
F19 K0 2.761606 1_555
F19 K1 3.065136 1_565
F20 Tm3 2.184957 1_555
F20 Tm5 2.218218 1_455
F20 K3 2.761606 1_555
F20 K2 3.065136 1_455
F21 Tm3 2.184957 1_555
F21 Tm4 2.218218 1_545
F21 K3 2.761606 1_555
F21 K2 3.065136 1_545
F22 Tm3 2.266141 1_555
F22 Tm5 2.288269 1_555
F22 Tm4 2.288269 1_555
F22 K1 2.602344 1_556
F23 Tm1 2.240069 1_455
F23 Tm0 2.240069 1_545
F23 K3 2.657989 1_555
F23 K1 2.662584 1_555
F24 Tm3 2.258292 1_555
F24 Tm1 2.376158 1_555
F24 Tm0 2.376158 1_555
F24 K3 2.740979 1_555
F25 Tm0 2.157645 1_555
F25 Tm6 2.249590 1_555
F25 K3 2.617413 1_555
F25 K0 2.635302 1_455
F26 Tm1 2.157645 1_555
F26 Tm7 2.249590 1_555
F26 K3 2.617413 1_555
F26 K0 2.635302 1_545
F27 Tm2 2.266141 1_555
F27 Tm7 2.288269 1_555
F27 Tm6 2.288269 1_555
F27 K2 2.602344 1_554
