# generated using pymatgen
data_Mg3Si4
_symmetry_space_group_name_H-M   'P 1'
_cell_length_a   5.58548400
_cell_length_b   7.28417818
_cell_length_c   7.69977459
_cell_angle_alpha   110.23426329
_cell_angle_beta   103.09223801
_cell_angle_gamma   101.70761676
_symmetry_Int_Tables_number   1
_chemical_formula_structural   Mg3Si4
_chemical_formula_sum   'Mg6 Si8'
_cell_volume   272.40121211
_cell_formula_units_Z   2
loop_
 _symmetry_equiv_pos_site_id
 _symmetry_equiv_pos_as_xyz
  1  'x, y, z'
loop_
 _atom_site_type_symbol
 _atom_site_label
 _atom_site_symmetry_multiplicity
 _atom_site_fract_x
 _atom_site_fract_y
 _atom_site_fract_z
 _atom_site_occupancy
  Mg  Mg0  1  0.75866300  0.43704200  0.78338500  1
  Mg  Mg1  1  0.34263700  0.72828700  0.88289200  1
  Mg  Mg2  1  0.03769400  0.70645900  0.46668200  1
  Mg  Mg3  1  0.95036500  0.89126900  0.14489700  1
  Mg  Mg4  1  0.47277300  0.49696400  0.42770000  1
  Mg  Mg5  1  0.16198300  0.18443600  0.84911800  1
  Si  Si0  1  0.83554300  0.81001000  0.75827400  1
  Si  Si1  1  0.14030300  0.54698700  0.13383700  1
  Si  Si2  1  0.11473000  0.34028800  0.56763500  1
  Si  Si3  1  0.36908000  0.10186700  0.47591400  1
  Si  Si4  1  0.54762100  0.00578300  0.74040800  1
  Si  Si5  1  0.73123300  0.27550700  0.06903300  1
  Si  Si6  1  0.57575500  0.56781300  0.12556500  1
  Si  Si7  1  0.70166900  0.15401700  0.32126900  1
loop_
_geom_bond_atom_site_label_1
_geom_bond_atom_site_label_2
_geom_bond_distance
_geom_bond_site_symmetry_2
Mg0 Si0 2.744103 1_555
Mg0 Si1 2.770038 1_656
Mg0 Si3 2.795090 1_555
Mg0 Si5 2.848699 1_556
Mg0 Si2 2.909895 1_655
Mg0 Si6 2.961614 1_556
Mg0 Si4 2.994768 1_555
Mg1 Si6 2.753083 1_556
Mg1 Si4 2.786406 1_565
Mg1 Si2 2.809799 1_555
Mg1 Si1 2.983854 1_556
Mg1 Si0 3.024150 1_455
Mg1 Si0 3.127540 1_555
Mg2 Si1 2.668759 1_555
Mg2 Si0 2.684663 1_455
Mg2 Si6 2.934833 1_455
Mg2 Si4 2.981552 1_565
Mg2 Si3 3.059732 1_565
Mg2 Si2 3.106765 1_555
Mg3 Si0 2.717685 1_554
Mg3 Si3 2.730938 1_665
Mg3 Si6 2.750828 1_555
Mg3 Si7 2.751821 1_565
Mg3 Si1 2.897380 1_655
Mg4 Si6 2.706552 1_555
Mg4 Si2 2.713540 1_555
Mg4 Si0 2.749121 1_555
Mg4 Si1 2.764468 1_555
Mg4 Si7 2.983505 1_555
Mg4 Si3 2.985947 1_555
Mg5 Si0 2.708656 1_445
Mg5 Si2 2.760491 1_555
Mg5 Si1 2.835545 1_556
Mg5 Si4 2.869609 1_555
Mg5 Si6 2.951436 1_556
Mg5 Si5 3.056903 1_556
Mg5 Si4 3.209728 1_455
Si0 Si4 2.367483 1_565
Si1 Si6 2.422776 1_555
Si1 Si5 2.519393 1_455
Si2 Si7 2.393493 1_455
Si2 Si3 2.478031 1_555
Si3 Si4 2.445602 1_555
Si3 Si7 2.457985 1_555
Si4 Si5 2.425349 1_556
Si5 Si6 2.399526 1_555
Si5 Si7 2.420178 1_555
