# generated using pymatgen
data_HfMg6BO7
_symmetry_space_group_name_H-M   'P 1'
_cell_length_a   4.07505300
_cell_length_b   4.07505300
_cell_length_c   10.52447000
_cell_angle_alpha   90.00000000
_cell_angle_beta   90.00000000
_cell_angle_gamma   90.00000000
_symmetry_Int_Tables_number   1
_chemical_formula_structural   HfMg6BO7
_chemical_formula_sum   'Hf1 Mg6 B1 O7'
_cell_volume   174.76994822
_cell_formula_units_Z   1
loop_
 _symmetry_equiv_pos_site_id
 _symmetry_equiv_pos_as_xyz
  1  'x, y, z'
loop_
 _atom_site_type_symbol
 _atom_site_label
 _atom_site_symmetry_multiplicity
 _atom_site_fract_x
 _atom_site_fract_y
 _atom_site_fract_z
 _atom_site_occupancy
  Hf  Hf0  1  0.50000000  0.50000000  0.99824300  1
  Mg  Mg0  1  0.00000000  0.00000000  0.50749900  1
  Mg  Mg1  1  0.50000000  0.50000000  0.52094300  1
  Mg  Mg2  1  0.00000000  0.50000000  0.27778200  1
  Mg  Mg3  1  0.00000000  0.50000000  0.74912200  1
  Mg  Mg4  1  0.50000000  0.00000000  0.27778200  1
  Mg  Mg5  1  0.50000000  0.00000000  0.74912200  1
  B  B0  1  0.00000000  0.00000000  0.14971100  1
  O  O0  1  0.00000000  0.00000000  0.28848300  1
  O  O1  1  0.00000000  0.00000000  0.69685700  1
  O  O2  1  0.50000000  0.50000000  0.71471300  1
  O  O3  1  0.00000000  0.50000000  0.93876500  1
  O  O4  1  0.00000000  0.50000000  0.47110500  1
  O  O5  1  0.50000000  0.00000000  0.93876500  1
  O  O6  1  0.50000000  0.00000000  0.47110500  1
loop_
_geom_bond_atom_site_label_1
_geom_bond_atom_site_label_2
_geom_bond_distance
_geom_bond_site_symmetry_2
Hf0 O5 2.131515 1_555
Hf0 O3 2.131515 1_655
Hf0 O5 2.131515 1_565
Hf0 O3 2.131515 1_555
Mg0 O1 1.992893 1_555
Mg0 O6 2.073216 1_555
Mg0 O4 2.073216 1_555
Mg0 O6 2.073216 1_455
Mg0 O4 2.073216 1_545
Mg0 O0 2.305027 1_555
Mg1 O2 2.039327 1_555
Mg1 O4 2.103957 1_655
Mg1 O6 2.103957 1_555
Mg1 O6 2.103957 1_565
Mg1 O4 2.103957 1_555
Mg2 O4 2.034622 1_555
Mg2 O0 2.040637 1_555
Mg2 O0 2.040637 1_565
Mg3 O3 1.995892 1_555
Mg3 O2 2.069458 1_455
Mg3 O2 2.069458 1_555
Mg3 O1 2.110470 1_555
Mg3 O1 2.110470 1_565
Mg4 O6 2.034622 1_555
Mg4 O0 2.040637 1_655
Mg4 O0 2.040637 1_555
Mg5 O5 1.995892 1_555
Mg5 O2 2.069458 1_555
Mg5 O2 2.069458 1_545
Mg5 O1 2.110470 1_555
Mg5 O1 2.110470 1_655
B0 O0 1.460502 1_555
