# generated using pymatgen
data_SnTePt
_symmetry_space_group_name_H-M   'P 1'
_cell_length_a   6.54560259
_cell_length_b   6.54560259
_cell_length_c   6.54560259
_cell_angle_alpha   90.00000000
_cell_angle_beta   90.00000000
_cell_angle_gamma   90.00000000
_symmetry_Int_Tables_number   1
_chemical_formula_structural   SnTePt
_chemical_formula_sum   'Sn4 Te4 Pt4'
_cell_volume   280.44577524
_cell_formula_units_Z   4
loop_
 _symmetry_equiv_pos_site_id
 _symmetry_equiv_pos_as_xyz
  1  'x, y, z'
loop_
 _atom_site_type_symbol
 _atom_site_label
 _atom_site_symmetry_multiplicity
 _atom_site_fract_x
 _atom_site_fract_y
 _atom_site_fract_z
 _atom_site_occupancy
  Sn  Sn0  1  0.87334689  0.12665311  0.62665311  1
  Sn  Sn1  1  0.12665311  0.62665311  0.87334689  1
  Sn  Sn2  1  0.62665311  0.87334689  0.12665311  1
  Sn  Sn3  1  0.37334689  0.37334689  0.37334689  1
  Te  Te0  1  0.12621702  0.87378298  0.37378298  1
  Te  Te1  1  0.87378298  0.37378298  0.12621702  1
  Te  Te2  1  0.37378298  0.12621702  0.87378298  1
  Te  Te3  1  0.62621702  0.62621702  0.62621702  1
  Pt  Pt0  1  0.49728772  0.50271228  0.00271228  1
  Pt  Pt1  1  0.50271228  0.00271228  0.49728772  1
  Pt  Pt2  1  0.00271228  0.49728772  0.50271228  1
  Pt  Pt3  1  0.99728772  0.99728772  0.99728772  1
loop_
_geom_bond_atom_site_label_1
_geom_bond_atom_site_label_2
_geom_bond_distance
_geom_bond_site_symmetry_2
Sn0 Te0 2.866869 1_645
Sn1 Te1 2.866869 1_456
Sn2 Te2 2.866869 1_564
Sn3 Te3 2.866869 1_555
Pt0 Sn2 2.694585 1_555
Pt0 Sn1 2.694585 1_554
Pt0 Sn3 2.694585 1_555
Pt0 Te2 2.727442 1_554
Pt0 Te1 2.727442 1_555
Pt0 Te3 2.727442 1_554
Pt1 Sn2 2.694585 1_545
Pt1 Sn3 2.694585 1_555
Pt1 Sn0 2.694585 1_555
Pt1 Te3 2.727442 1_545
Pt1 Te0 2.727442 1_545
Pt1 Te2 2.727442 1_555
Pt2 Sn1 2.694585 1_555
Pt2 Sn3 2.694585 1_555
Pt2 Sn0 2.694585 1_455
Pt2 Te1 2.727442 1_455
Pt2 Te3 2.727442 1_455
Pt2 Te0 2.727442 1_555
Pt3 Sn2 2.694585 1_556
Pt3 Sn1 2.694585 1_655
Pt3 Sn0 2.694585 1_565
Pt3 Te1 2.727442 1_566
Pt3 Te2 2.727442 1_665
Pt3 Te0 2.727442 1_656
