# generated using pymatgen
data_EuTa3O9
_symmetry_space_group_name_H-M   'P 1'
_cell_length_a   8.73609642
_cell_length_b   8.73609642
_cell_length_c   9.66543057
_cell_angle_alpha   57.12522331
_cell_angle_beta   57.12522331
_cell_angle_gamma   36.93667319
_symmetry_Int_Tables_number   1
_chemical_formula_structural   EuTa3O9
_chemical_formula_sum   'Eu2 Ta6 O18'
_cell_volume   363.51882516
_cell_formula_units_Z   2
loop_
 _symmetry_equiv_pos_site_id
 _symmetry_equiv_pos_as_xyz
  1  'x, y, z'
loop_
 _atom_site_type_symbol
 _atom_site_label
 _atom_site_symmetry_multiplicity
 _atom_site_fract_x
 _atom_site_fract_y
 _atom_site_fract_z
 _atom_site_occupancy
  Eu  Eu0  1  0.67037280  0.67037280  0.99917231  1
  Eu  Eu1  1  0.32962720  0.32962720  0.00082769  1
  Ta  Ta0  1  0.07630454  0.07630454  0.25922789  1
  Ta  Ta1  1  0.41601304  0.41601304  0.24986284  1
  Ta  Ta2  1  0.74705820  0.74705820  0.26607392  1
  Ta  Ta3  1  0.92369546  0.92369546  0.74077211  1
  Ta  Ta4  1  0.25294180  0.25294180  0.73392608  1
  Ta  Ta5  1  0.58398696  0.58398696  0.75013716  1
  O  O0  1  0.42427508  0.92389916  0.22760637  1
  O  O1  1  0.75124703  0.27000510  0.22890666  1
  O  O2  1  0.09421857  0.57681749  0.23075382  1
  O  O3  1  0.24875297  0.72999490  0.77109334  1
  O  O4  1  0.57572492  0.07610084  0.77239363  1
  O  O5  1  0.90578143  0.42318251  0.76924618  1
  O  O6  1  0.92389916  0.42427508  0.22760637  1
  O  O7  1  0.27000510  0.75124703  0.22890666  1
  O  O8  1  0.57681749  0.09421857  0.23075382  1
  O  O9  1  0.72999490  0.24875297  0.77109334  1
  O  O10  1  0.07610084  0.57572492  0.77239363  1
  O  O11  1  0.42318251  0.90578143  0.76924618  1
  O  O12  1  0.00000000  -0.00000000  0.50000000  1
  O  O13  1  0.33555956  0.33555956  0.49572236  1
  O  O14  1  0.66444044  0.66444044  0.50427764  1
  O  O15  1  0.17778906  0.17778906  0.99966456  1
  O  O16  1  0.50000000  0.50000000  0.00000000  1
  O  O17  1  0.82221094  0.82221094  0.00033544  1
loop_
_geom_bond_atom_site_label_1
_geom_bond_atom_site_label_2
_geom_bond_distance
_geom_bond_site_symmetry_2
Eu0 O17 2.522766 1_556
Eu0 O10 2.626714 1_655
Eu0 O4 2.626714 1_565
Eu0 O6 2.635528 1_556
Eu0 O0 2.635528 1_556
Eu0 O11 2.642032 1_555
Eu0 O5 2.642032 1_555
Eu0 O1 2.642845 1_556
Eu0 O7 2.642845 1_556
Eu0 O15 2.770278 1_565
Eu0 O15 2.770278 1_655
Eu0 O16 2.818908 1_556
Eu1 O15 2.522766 1_554
Eu1 O6 2.626714 1_455
Eu1 O0 2.626714 1_545
Eu1 O10 2.635528 1_554
Eu1 O4 2.635528 1_554
Eu1 O2 2.642032 1_555
Eu1 O8 2.642032 1_555
Eu1 O9 2.642845 1_554
Eu1 O3 2.642845 1_554
Eu1 O17 2.770278 1_455
Eu1 O17 2.770278 1_545
Eu1 O16 2.818908 1_555
O0 Ta2 2.006753 1_555
O0 Ta0 2.017439 1_565
O1 Ta0 1.922686 1_655
O1 Ta1 1.977301 1_555
O2 Ta2 1.934710 1_455
O2 Ta1 1.969609 1_555
O3 Ta3 1.922686 1_455
O3 Ta5 1.977301 1_555
O4 Ta4 2.006753 1_555
O4 Ta3 2.017439 1_545
O5 Ta4 1.934710 1_655
O5 Ta5 1.969609 1_555
O6 Ta2 2.006753 1_555
O6 Ta0 2.017439 1_655
O7 Ta0 1.922686 1_565
O7 Ta1 1.977301 1_555
O8 Ta2 1.934710 1_545
O8 Ta1 1.969609 1_555
O9 Ta3 1.922686 1_545
O9 Ta5 1.977301 1_555
O10 Ta4 2.006753 1_555
O10 Ta3 2.017439 1_455
O11 Ta4 1.934710 1_565
O11 Ta5 1.969609 1_555
O12 Ta3 1.909600 1_445
O12 Ta0 1.909600 1_555
O13 Ta4 1.888763 1_555
O13 Ta1 1.948921 1_555
O14 Ta2 1.888763 1_555
O14 Ta5 1.948921 1_555
O15 Ta0 2.072027 1_556
O15 Ta4 2.118227 1_555
O16 Ta1 1.980495 1_555
O16 Ta5 1.980495 1_554
O17 Ta3 2.072027 1_554
O17 Ta2 2.118227 1_555
