# generated using pymatgen
data_MgSi2
_symmetry_space_group_name_H-M   'P 1'
_cell_length_a   5.49141000
_cell_length_b   15.51291200
_cell_length_c   18.64992709
_cell_angle_alpha   83.04178506
_cell_angle_beta   90.00000000
_cell_angle_gamma   90.00000000
_symmetry_Int_Tables_number   1
_chemical_formula_structural   MgSi2
_chemical_formula_sum   'Mg32 Si64'
_cell_volume   1577.04403098
_cell_formula_units_Z   32
loop_
 _symmetry_equiv_pos_site_id
 _symmetry_equiv_pos_as_xyz
  1  'x, y, z'
loop_
 _atom_site_type_symbol
 _atom_site_label
 _atom_site_symmetry_multiplicity
 _atom_site_fract_x
 _atom_site_fract_y
 _atom_site_fract_z
 _atom_site_occupancy
  Mg  Mg0_0  1  0.25000000  0.19732050  0.42793200  1
  Mg  Mg0_1  1  0.25000000  0.19732050  0.92793200  1
  Mg  Mg0_2  1  0.25000000  0.69732050  0.42793200  1
  Mg  Mg0_3  1  0.25000000  0.69732050  0.92793200  1
  Mg  Mg0_4  1  0.75000000  0.19732050  0.42793200  1
  Mg  Mg0_5  1  0.75000000  0.19732050  0.92793200  1
  Mg  Mg0_6  1  0.75000000  0.69732050  0.42793200  1
  Mg  Mg0_7  1  0.75000000  0.69732050  0.92793200  1
  Mg  Mg1_0  1  0.25000000  0.05445700  0.17824550  1
  Mg  Mg1_1  1  0.25000000  0.05445700  0.67824550  1
  Mg  Mg1_2  1  0.25000000  0.55445700  0.17824550  1
  Mg  Mg1_3  1  0.25000000  0.55445700  0.67824550  1
  Mg  Mg1_4  1  0.75000000  0.05445700  0.17824550  1
  Mg  Mg1_5  1  0.75000000  0.05445700  0.67824550  1
  Mg  Mg1_6  1  0.75000000  0.55445700  0.17824550  1
  Mg  Mg1_7  1  0.75000000  0.55445700  0.67824550  1
  Mg  Mg2_0  1  0.25000000  0.30267950  0.07206800  1
  Mg  Mg2_1  1  0.25000000  0.30267950  0.57206800  1
  Mg  Mg2_2  1  0.25000000  0.80267950  0.07206800  1
  Mg  Mg2_3  1  0.25000000  0.80267950  0.57206800  1
  Mg  Mg2_4  1  0.75000000  0.30267950  0.07206800  1
  Mg  Mg2_5  1  0.75000000  0.30267950  0.57206800  1
  Mg  Mg2_6  1  0.75000000  0.80267950  0.07206800  1
  Mg  Mg2_7  1  0.75000000  0.80267950  0.57206800  1
  Mg  Mg3_0  1  0.25000000  0.44554300  0.32175450  1
  Mg  Mg3_1  1  0.25000000  0.44554300  0.82175450  1
  Mg  Mg3_2  1  0.25000000  0.94554300  0.32175450  1
  Mg  Mg3_3  1  0.25000000  0.94554300  0.82175450  1
  Mg  Mg3_4  1  0.75000000  0.44554300  0.32175450  1
  Mg  Mg3_5  1  0.75000000  0.44554300  0.82175450  1
  Mg  Mg3_6  1  0.75000000  0.94554300  0.32175450  1
  Mg  Mg3_7  1  0.75000000  0.94554300  0.82175450  1
  Si  Si0_0  1  0.00000000  0.03312550  0.43512900  1
  Si  Si0_1  1  0.00000000  0.03312550  0.93512900  1
  Si  Si0_2  1  0.00000000  0.53312550  0.43512900  1
  Si  Si0_3  1  0.00000000  0.53312550  0.93512900  1
  Si  Si0_4  1  0.50000000  0.03312550  0.43512900  1
  Si  Si0_5  1  0.50000000  0.03312550  0.93512900  1
  Si  Si0_6  1  0.50000000  0.53312550  0.43512900  1
  Si  Si0_7  1  0.50000000  0.53312550  0.93512900  1
  Si  Si1_0  1  0.00000000  0.38790800  0.19479350  1
  Si  Si1_1  1  0.00000000  0.38790800  0.69479350  1
  Si  Si1_2  1  0.00000000  0.88790800  0.19479350  1
  Si  Si1_3  1  0.00000000  0.88790800  0.69479350  1
  Si  Si1_4  1  0.50000000  0.38790800  0.19479350  1
  Si  Si1_5  1  0.50000000  0.38790800  0.69479350  1
  Si  Si1_6  1  0.50000000  0.88790800  0.19479350  1
  Si  Si1_7  1  0.50000000  0.88790800  0.69479350  1
  Si  Si2_0  1  0.00000000  0.13376900  0.05554100  1
  Si  Si2_1  1  0.00000000  0.13376900  0.55554100  1
  Si  Si2_2  1  0.00000000  0.63376900  0.05554100  1
  Si  Si2_3  1  0.00000000  0.63376900  0.55554100  1
  Si  Si2_4  1  0.50000000  0.13376900  0.05554100  1
  Si  Si2_5  1  0.50000000  0.13376900  0.55554100  1
  Si  Si2_6  1  0.50000000  0.63376900  0.05554100  1
  Si  Si2_7  1  0.50000000  0.63376900  0.55554100  1
  Si  Si3_0  1  0.00000000  0.28172900  0.31040950  1
  Si  Si3_1  1  0.00000000  0.28172900  0.81040950  1
  Si  Si3_2  1  0.00000000  0.78172900  0.31040950  1
  Si  Si3_3  1  0.00000000  0.78172900  0.81040950  1
  Si  Si3_4  1  0.50000000  0.28172900  0.31040950  1
  Si  Si3_5  1  0.50000000  0.28172900  0.81040950  1
  Si  Si3_6  1  0.50000000  0.78172900  0.31040950  1
  Si  Si3_7  1  0.50000000  0.78172900  0.81040950  1
  Si  Si4_0  1  0.00000000  0.46687450  0.06487100  1
  Si  Si4_1  1  0.00000000  0.46687450  0.56487100  1
  Si  Si4_2  1  0.00000000  0.96687450  0.06487100  1
  Si  Si4_3  1  0.00000000  0.96687450  0.56487100  1
  Si  Si4_4  1  0.50000000  0.46687450  0.06487100  1
  Si  Si4_5  1  0.50000000  0.46687450  0.56487100  1
  Si  Si4_6  1  0.50000000  0.96687450  0.06487100  1
  Si  Si4_7  1  0.50000000  0.96687450  0.56487100  1
  Si  Si5_0  1  0.00000000  0.11209200  0.30520650  1
  Si  Si5_1  1  0.00000000  0.11209200  0.80520650  1
  Si  Si5_2  1  0.00000000  0.61209200  0.30520650  1
  Si  Si5_3  1  0.00000000  0.61209200  0.80520650  1
  Si  Si5_4  1  0.50000000  0.11209200  0.30520650  1
  Si  Si5_5  1  0.50000000  0.11209200  0.80520650  1
  Si  Si5_6  1  0.50000000  0.61209200  0.30520650  1
  Si  Si5_7  1  0.50000000  0.61209200  0.80520650  1
  Si  Si6_0  1  0.00000000  0.36623100  0.44445900  1
  Si  Si6_1  1  0.00000000  0.36623100  0.94445900  1
  Si  Si6_2  1  0.00000000  0.86623100  0.44445900  1
  Si  Si6_3  1  0.00000000  0.86623100  0.94445900  1
  Si  Si6_4  1  0.50000000  0.36623100  0.44445900  1
  Si  Si6_5  1  0.50000000  0.36623100  0.94445900  1
  Si  Si6_6  1  0.50000000  0.86623100  0.44445900  1
  Si  Si6_7  1  0.50000000  0.86623100  0.94445900  1
  Si  Si7_0  1  0.00000000  0.21827100  0.18959050  1
  Si  Si7_1  1  0.00000000  0.21827100  0.68959050  1
  Si  Si7_2  1  0.00000000  0.71827100  0.18959050  1
  Si  Si7_3  1  0.00000000  0.71827100  0.68959050  1
  Si  Si7_4  1  0.50000000  0.21827100  0.18959050  1
  Si  Si7_5  1  0.50000000  0.21827100  0.68959050  1
  Si  Si7_6  1  0.50000000  0.71827100  0.18959050  1
  Si  Si7_7  1  0.50000000  0.71827100  0.68959050  1
loop_
_geom_bond_atom_site_label_1
_geom_bond_atom_site_label_2
_geom_bond_distance
_geom_bond_site_symmetry_2
Mg0_0 Mg0_4 2.745705 1_555
Mg0_0 Mg0_4 2.745705 1_455
Mg0_0 Si3_4 2.776305 1_555
Mg0_0 Si3_0 2.776305 1_555
Mg0_0 Si2_1 2.819947 1_555
Mg0_0 Si2_5 2.819947 1_555
Mg0_0 Si0_4 2.882332 1_555
Mg0_0 Si0_0 2.882332 1_555
Mg0_0 Si6_0 3.006884 1_555
Mg0_0 Si6_4 3.006884 1_555
Mg0_0 Si5_0 3.099144 1_555
Mg0_0 Si5_4 3.099144 1_555
Mg0_1 Mg0_5 2.745705 1_555
Mg0_1 Mg0_5 2.745705 1_455
Mg0_1 Si3_5 2.776305 1_555
Mg0_1 Si3_1 2.776305 1_555
Mg0_1 Si2_0 2.819947 1_556
Mg0_1 Si2_4 2.819947 1_556
Mg0_1 Si0_1 2.882332 1_555
Mg0_1 Si0_5 2.882332 1_555
Mg0_1 Si6_5 3.006884 1_555
Mg0_1 Si6_1 3.006884 1_555
Mg0_1 Si5_1 3.099144 1_555
Mg0_1 Si5_5 3.099144 1_555
Mg0_2 Mg0_6 2.745705 1_555
Mg0_2 Mg0_6 2.745705 1_455
Mg0_2 Si3_2 2.776305 1_555
Mg0_2 Si3_6 2.776305 1_555
Mg0_2 Si2_3 2.819947 1_555
Mg0_2 Si2_7 2.819947 1_555
Mg0_2 Si0_2 2.882332 1_555
Mg0_2 Si0_6 2.882332 1_555
Mg0_2 Si6_2 3.006884 1_555
Mg0_2 Si6_6 3.006884 1_555
Mg0_2 Si5_6 3.099144 1_555
Mg0_2 Si5_2 3.099144 1_555
Mg0_3 Mg0_7 2.745705 1_555
Mg0_3 Mg0_7 2.745705 1_455
Mg0_3 Si3_3 2.776305 1_555
Mg0_3 Si3_7 2.776305 1_555
Mg0_3 Si2_6 2.819947 1_556
Mg0_3 Si2_2 2.819947 1_556
Mg0_3 Si0_3 2.882332 1_555
Mg0_3 Si0_7 2.882332 1_555
Mg0_3 Si6_3 3.006884 1_555
Mg0_3 Si6_7 3.006884 1_555
Mg0_3 Si5_7 3.099144 1_555
Mg0_3 Si5_3 3.099144 1_555
Mg0_4 Si3_4 2.776305 1_555
Mg0_4 Si3_0 2.776305 1_655
Mg0_4 Si2_5 2.819947 1_555
Mg0_4 Si2_1 2.819947 1_655
Mg0_4 Si0_4 2.882332 1_555
Mg0_4 Si0_0 2.882332 1_655
Mg0_4 Si6_4 3.006884 1_555
Mg0_4 Si6_0 3.006884 1_655
Mg0_4 Si5_4 3.099144 1_555
Mg0_4 Si5_0 3.099144 1_655
Mg0_5 Si3_5 2.776305 1_555
Mg0_5 Si3_1 2.776305 1_655
Mg0_5 Si2_4 2.819947 1_556
Mg0_5 Si2_0 2.819947 1_656
Mg0_5 Si0_5 2.882332 1_555
Mg0_5 Si0_1 2.882332 1_655
Mg0_5 Si6_5 3.006884 1_555
Mg0_5 Si6_1 3.006884 1_655
Mg0_5 Si5_5 3.099144 1_555
Mg0_5 Si5_1 3.099144 1_655
Mg0_6 Si3_6 2.776305 1_555
Mg0_6 Si3_2 2.776305 1_655
Mg0_6 Si2_7 2.819947 1_555
Mg0_6 Si2_3 2.819947 1_655
Mg0_6 Si0_6 2.882332 1_555
Mg0_6 Si0_2 2.882332 1_655
Mg0_6 Si6_6 3.006884 1_555
Mg0_6 Si6_2 3.006884 1_655
Mg0_6 Si5_6 3.099144 1_555
Mg0_6 Si5_2 3.099144 1_655
Mg0_7 Si3_7 2.776305 1_555
Mg0_7 Si3_3 2.776305 1_655
Mg0_7 Si2_6 2.819947 1_556
Mg0_7 Si2_2 2.819947 1_656
Mg0_7 Si0_7 2.882332 1_555
Mg0_7 Si0_3 2.882332 1_655
Mg0_7 Si6_7 3.006884 1_555
Mg0_7 Si6_3 3.006884 1_655
Mg0_7 Si5_7 3.099144 1_555
Mg0_7 Si5_3 3.099144 1_655
Mg1_0 Mg1_4 2.745705 1_555
Mg1_0 Mg1_4 2.745705 1_455
Mg1_0 Si2_4 2.820147 1_555
Mg1_0 Si2_0 2.820147 1_555
Mg1_0 Si1_2 2.908964 1_545
Mg1_0 Si1_6 2.908964 1_545
Mg1_0 Si7_4 2.918498 1_555
Mg1_0 Si7_0 2.918498 1_555
Mg1_0 Si5_4 2.967085 1_555
Mg1_0 Si5_0 2.967085 1_555
Mg1_0 Si4_6 2.982872 1_545
Mg1_0 Si4_2 2.982872 1_545
Mg1_0 Mg3_2 2.987022 1_545
Mg1_1 Mg1_5 2.745705 1_555
Mg1_1 Mg1_5 2.745705 1_455
Mg1_1 Si2_5 2.820147 1_555
Mg1_1 Si2_1 2.820147 1_555
Mg1_1 Si1_3 2.908964 1_545
Mg1_1 Si1_7 2.908964 1_545
Mg1_1 Si7_5 2.918498 1_555
Mg1_1 Si7_1 2.918498 1_555
Mg1_1 Si5_5 2.967085 1_555
Mg1_1 Si5_1 2.967085 1_555
Mg1_1 Si4_7 2.982872 1_545
Mg1_1 Si4_3 2.982872 1_545
Mg1_1 Mg3_3 2.987022 1_545
Mg1_2 Mg1_6 2.745705 1_555
Mg1_2 Mg1_6 2.745705 1_455
Mg1_2 Si2_2 2.820147 1_555
Mg1_2 Si2_6 2.820147 1_555
Mg1_2 Si1_0 2.908964 1_555
Mg1_2 Si1_4 2.908964 1_555
Mg1_2 Si7_2 2.918498 1_555
Mg1_2 Si7_6 2.918498 1_555
Mg1_2 Si5_2 2.967085 1_555
Mg1_2 Si5_6 2.967085 1_555
Mg1_2 Si4_0 2.982872 1_555
Mg1_2 Si4_4 2.982872 1_555
Mg1_2 Mg3_0 2.987022 1_555
Mg1_3 Mg1_7 2.745705 1_555
Mg1_3 Mg1_7 2.745705 1_455
Mg1_3 Si2_3 2.820147 1_555
Mg1_3 Si2_7 2.820147 1_555
Mg1_3 Si1_5 2.908964 1_555
Mg1_3 Si1_1 2.908964 1_555
Mg1_3 Si7_7 2.918498 1_555
Mg1_3 Si7_3 2.918498 1_555
Mg1_3 Si5_7 2.967085 1_555
Mg1_3 Si5_3 2.967085 1_555
Mg1_3 Si4_1 2.982872 1_555
Mg1_3 Si4_5 2.982872 1_555
Mg1_3 Mg3_1 2.987022 1_555
Mg1_4 Si2_4 2.820147 1_555
Mg1_4 Si2_0 2.820147 1_655
Mg1_4 Si1_6 2.908964 1_545
Mg1_4 Si1_2 2.908964 1_645
Mg1_4 Si7_4 2.918498 1_555
Mg1_4 Si7_0 2.918498 1_655
Mg1_4 Si5_4 2.967085 1_555
Mg1_4 Si5_0 2.967085 1_655
Mg1_4 Si4_6 2.982872 1_545
Mg1_4 Si4_2 2.982872 1_645
Mg1_4 Mg3_6 2.987022 1_545
Mg1_5 Si2_5 2.820147 1_555
Mg1_5 Si2_1 2.820147 1_655
Mg1_5 Si1_7 2.908964 1_545
Mg1_5 Si1_3 2.908964 1_645
Mg1_5 Si7_5 2.918498 1_555
Mg1_5 Si7_1 2.918498 1_655
Mg1_5 Si5_5 2.967085 1_555
Mg1_5 Si5_1 2.967085 1_655
Mg1_5 Si4_7 2.982872 1_545
Mg1_5 Si4_3 2.982872 1_645
Mg1_5 Mg3_7 2.987022 1_545
Mg1_6 Si2_6 2.820147 1_555
Mg1_6 Si2_2 2.820147 1_655
Mg1_6 Si1_4 2.908964 1_555
Mg1_6 Si1_0 2.908964 1_655
Mg1_6 Si7_6 2.918498 1_555
Mg1_6 Si7_2 2.918498 1_655
Mg1_6 Si5_6 2.967085 1_555
Mg1_6 Si5_2 2.967085 1_655
Mg1_6 Si4_4 2.982872 1_555
Mg1_6 Si4_0 2.982872 1_655
Mg1_6 Mg3_4 2.987022 1_555
Mg1_7 Si2_7 2.820147 1_555
Mg1_7 Si2_3 2.820147 1_655
Mg1_7 Si1_5 2.908964 1_555
Mg1_7 Si1_1 2.908964 1_655
Mg1_7 Si7_7 2.918498 1_555
Mg1_7 Si7_3 2.918498 1_655
Mg1_7 Si5_7 2.967085 1_555
Mg1_7 Si5_3 2.967085 1_655
Mg1_7 Si4_5 2.982872 1_555
Mg1_7 Si4_1 2.982872 1_655
Mg1_7 Mg3_5 2.987022 1_555
Mg2_0 Mg2_4 2.745705 1_555
Mg2_0 Mg2_4 2.745705 1_455
Mg2_0 Si7_0 2.776305 1_555
Mg2_0 Si7_4 2.776305 1_555
Mg2_0 Si6_5 2.819947 1_554
Mg2_0 Si6_1 2.819947 1_554
Mg2_0 Si4_0 2.882332 1_555
Mg2_0 Si4_4 2.882332 1_555
Mg2_0 Si2_0 3.006884 1_555
Mg2_0 Si2_4 3.006884 1_555
Mg2_0 Si1_0 3.099144 1_555
Mg2_0 Si1_4 3.099144 1_555
Mg2_1 Mg2_5 2.745705 1_555
Mg2_1 Mg2_5 2.745705 1_455
Mg2_1 Si7_1 2.776305 1_555
Mg2_1 Si7_5 2.776305 1_555
Mg2_1 Si6_0 2.819947 1_555
Mg2_1 Si6_4 2.819947 1_555
Mg2_1 Si4_1 2.882332 1_555
Mg2_1 Si4_5 2.882332 1_555
Mg2_1 Si2_1 3.006884 1_555
Mg2_1 Si2_5 3.006884 1_555
Mg2_1 Si1_1 3.099144 1_555
Mg2_1 Si1_5 3.099144 1_555
Mg2_2 Mg2_6 2.745705 1_555
Mg2_2 Mg2_6 2.745705 1_455
Mg2_2 Si7_6 2.776305 1_555
Mg2_2 Si7_2 2.776305 1_555
Mg2_2 Si6_3 2.819947 1_554
Mg2_2 Si6_7 2.819947 1_554
Mg2_2 Si4_2 2.882332 1_555
Mg2_2 Si4_6 2.882332 1_555
Mg2_2 Si2_6 3.006884 1_555
Mg2_2 Si2_2 3.006884 1_555
Mg2_2 Si1_2 3.099144 1_555
Mg2_2 Si1_6 3.099144 1_555
Mg2_3 Mg2_7 2.745705 1_555
Mg2_3 Mg2_7 2.745705 1_455
Mg2_3 Si7_3 2.776305 1_555
Mg2_3 Si7_7 2.776305 1_555
Mg2_3 Si6_6 2.819947 1_555
Mg2_3 Si6_2 2.819947 1_555
Mg2_3 Si4_3 2.882332 1_555
Mg2_3 Si4_7 2.882332 1_555
Mg2_3 Si2_7 3.006884 1_555
Mg2_3 Si2_3 3.006884 1_555
Mg2_3 Si1_7 3.099144 1_555
Mg2_3 Si1_3 3.099144 1_555
Mg2_4 Si7_4 2.776305 1_555
Mg2_4 Si7_0 2.776305 1_655
Mg2_4 Si6_5 2.819947 1_554
Mg2_4 Si6_1 2.819947 1_654
Mg2_4 Si4_4 2.882332 1_555
Mg2_4 Si4_0 2.882332 1_655
Mg2_4 Si2_4 3.006884 1_555
Mg2_4 Si2_0 3.006884 1_655
Mg2_4 Si1_4 3.099144 1_555
Mg2_4 Si1_0 3.099144 1_655
Mg2_5 Si7_5 2.776305 1_555
Mg2_5 Si7_1 2.776305 1_655
Mg2_5 Si6_4 2.819947 1_555
Mg2_5 Si6_0 2.819947 1_655
Mg2_5 Si4_5 2.882332 1_555
Mg2_5 Si4_1 2.882332 1_655
Mg2_5 Si2_5 3.006884 1_555
Mg2_5 Si2_1 3.006884 1_655
Mg2_5 Si1_5 3.099144 1_555
Mg2_5 Si1_1 3.099144 1_655
Mg2_6 Si7_6 2.776305 1_555
Mg2_6 Si7_2 2.776305 1_655
Mg2_6 Si6_7 2.819947 1_554
Mg2_6 Si6_3 2.819947 1_654
Mg2_6 Si4_6 2.882332 1_555
Mg2_6 Si4_2 2.882332 1_655
Mg2_6 Si2_6 3.006884 1_555
Mg2_6 Si2_2 3.006884 1_655
Mg2_6 Si1_6 3.099144 1_555
Mg2_6 Si1_2 3.099144 1_655
Mg2_7 Si7_7 2.776305 1_555
Mg2_7 Si7_3 2.776305 1_655
Mg2_7 Si6_6 2.819947 1_555
Mg2_7 Si6_2 2.819947 1_655
Mg2_7 Si4_7 2.882332 1_555
Mg2_7 Si4_3 2.882332 1_655
Mg2_7 Si2_7 3.006884 1_555
Mg2_7 Si2_3 3.006884 1_655
Mg2_7 Si1_7 3.099144 1_555
Mg2_7 Si1_3 3.099144 1_655
Mg3_0 Mg3_4 2.745705 1_555
Mg3_0 Mg3_4 2.745705 1_455
Mg3_0 Si6_0 2.820147 1_555
Mg3_0 Si6_4 2.820147 1_555
Mg3_0 Si5_6 2.908964 1_555
Mg3_0 Si5_2 2.908964 1_555
Mg3_0 Si3_0 2.918498 1_555
Mg3_0 Si3_4 2.918498 1_555
Mg3_0 Si1_0 2.967085 1_555
Mg3_0 Si1_4 2.967085 1_555
Mg3_0 Si0_2 2.982872 1_555
Mg3_0 Si0_6 2.982872 1_555
Mg3_1 Mg3_5 2.745705 1_555
Mg3_1 Mg3_5 2.745705 1_455
Mg3_1 Si6_1 2.820147 1_555
Mg3_1 Si6_5 2.820147 1_555
Mg3_1 Si5_7 2.908964 1_555
Mg3_1 Si5_3 2.908964 1_555
Mg3_1 Si3_5 2.918498 1_555
Mg3_1 Si3_1 2.918498 1_555
Mg3_1 Si1_5 2.967085 1_555
Mg3_1 Si1_1 2.967085 1_555
Mg3_1 Si0_7 2.982872 1_555
Mg3_1 Si0_3 2.982872 1_555
Mg3_2 Mg3_6 2.745705 1_555
Mg3_2 Mg3_6 2.745705 1_455
Mg3_2 Si6_2 2.820147 1_555
Mg3_2 Si6_6 2.820147 1_555
Mg3_2 Si5_4 2.908964 1_565
Mg3_2 Si5_0 2.908964 1_565
Mg3_2 Si3_2 2.918498 1_555
Mg3_2 Si3_6 2.918498 1_555
Mg3_2 Si1_6 2.967085 1_555
Mg3_2 Si1_2 2.967085 1_555
Mg3_2 Si0_0 2.982872 1_565
Mg3_2 Si0_4 2.982872 1_565
Mg3_3 Mg3_7 2.745705 1_555
Mg3_3 Mg3_7 2.745705 1_455
Mg3_3 Si6_3 2.820147 1_555
Mg3_3 Si6_7 2.820147 1_555
Mg3_3 Si5_5 2.908964 1_565
Mg3_3 Si5_1 2.908964 1_565
Mg3_3 Si3_3 2.918498 1_555
Mg3_3 Si3_7 2.918498 1_555
Mg3_3 Si1_7 2.967085 1_555
Mg3_3 Si1_3 2.967085 1_555
Mg3_3 Si0_1 2.982872 1_565
Mg3_3 Si0_5 2.982872 1_565
Mg3_4 Si6_4 2.820147 1_555
Mg3_4 Si6_0 2.820147 1_655
Mg3_4 Si5_6 2.908964 1_555
Mg3_4 Si5_2 2.908964 1_655
Mg3_4 Si3_4 2.918498 1_555
Mg3_4 Si3_0 2.918498 1_655
Mg3_4 Si1_4 2.967085 1_555
Mg3_4 Si1_0 2.967085 1_655
Mg3_4 Si0_6 2.982872 1_555
Mg3_4 Si0_2 2.982872 1_655
Mg3_5 Si6_5 2.820147 1_555
Mg3_5 Si6_1 2.820147 1_655
Mg3_5 Si5_7 2.908964 1_555
Mg3_5 Si5_3 2.908964 1_655
Mg3_5 Si3_5 2.918498 1_555
Mg3_5 Si3_1 2.918498 1_655
Mg3_5 Si1_5 2.967085 1_555
Mg3_5 Si1_1 2.967085 1_655
Mg3_5 Si0_7 2.982872 1_555
Mg3_5 Si0_3 2.982872 1_655
Mg3_6 Si6_6 2.820147 1_555
Mg3_6 Si6_2 2.820147 1_655
Mg3_6 Si5_4 2.908964 1_565
Mg3_6 Si5_0 2.908964 1_665
Mg3_6 Si3_6 2.918498 1_555
Mg3_6 Si3_2 2.918498 1_655
Mg3_6 Si1_6 2.967085 1_555
Mg3_6 Si1_2 2.967085 1_655
Mg3_6 Si0_4 2.982872 1_565
Mg3_6 Si0_0 2.982872 1_665
Mg3_7 Si6_7 2.820147 1_555
Mg3_7 Si6_3 2.820147 1_655
Mg3_7 Si5_5 2.908964 1_565
Mg3_7 Si5_1 2.908964 1_665
Mg3_7 Si3_7 2.918498 1_555
Mg3_7 Si3_3 2.918498 1_655
Mg3_7 Si1_7 2.967085 1_555
Mg3_7 Si1_3 2.967085 1_655
Mg3_7 Si0_5 2.982872 1_565
Mg3_7 Si0_1 2.982872 1_665
Si0_0 Si4_3 2.511688 1_545
Si0_0 Si6_2 2.573742 1_545
Si0_0 Si5_0 2.579263 1_555
Si0_0 Si0_4 2.745705 1_455
Si0_0 Si0_4 2.745705 1_555
Si0_0 Si2_1 2.886197 1_555
Si0_1 Si4_2 2.511688 1_546
Si0_1 Si6_3 2.573742 1_545
Si0_1 Si5_1 2.579263 1_555
Si0_1 Si0_5 2.745705 1_555
Si0_1 Si0_5 2.745705 1_455
Si0_1 Si2_0 2.886197 1_556
Si0_2 Si4_1 2.511688 1_555
Si0_2 Si6_0 2.573742 1_555
Si0_2 Si5_2 2.579263 1_555
Si0_2 Si0_6 2.745705 1_555
Si0_2 Si0_6 2.745705 1_455
Si0_2 Si2_3 2.886197 1_555
Si0_3 Si4_0 2.511688 1_556
Si0_3 Si6_1 2.573742 1_555
Si0_3 Si5_3 2.579263 1_555
Si0_3 Si0_7 2.745705 1_455
Si0_3 Si0_7 2.745705 1_555
Si0_3 Si2_2 2.886197 1_556
Si0_4 Si4_7 2.511688 1_545
Si0_4 Si6_6 2.573742 1_545
Si0_4 Si5_4 2.579263 1_555
Si0_4 Si2_5 2.886197 1_555
Si0_5 Si4_6 2.511688 1_546
Si0_5 Si6_7 2.573742 1_545
Si0_5 Si5_5 2.579263 1_555
Si0_5 Si2_4 2.886197 1_556
Si0_6 Si4_5 2.511688 1_555
Si0_6 Si6_4 2.573742 1_555
Si0_6 Si5_6 2.579263 1_555
Si0_6 Si2_7 2.886197 1_555
Si0_7 Si4_4 2.511688 1_556
Si0_7 Si6_5 2.573742 1_555
Si0_7 Si5_7 2.579263 1_555
Si0_7 Si2_6 2.886197 1_556
Si1_0 Si3_0 2.549880 1_555
Si1_0 Si4_0 2.579263 1_555
Si1_0 Si7_0 2.645074 1_555
Si1_0 Si1_4 2.745705 1_455
Si1_0 Si1_4 2.745705 1_555
Si1_1 Si3_1 2.549880 1_555
Si1_1 Si4_1 2.579263 1_555
Si1_1 Si7_1 2.645074 1_555
Si1_1 Si1_5 2.745705 1_555
Si1_1 Si1_5 2.745705 1_455
Si1_2 Si3_2 2.549880 1_555
Si1_2 Si4_2 2.579263 1_555
Si1_2 Si7_2 2.645074 1_555
Si1_2 Si1_6 2.745705 1_555
Si1_2 Si1_6 2.745705 1_455
Si1_3 Si3_3 2.549880 1_555
Si1_3 Si4_3 2.579263 1_555
Si1_3 Si7_3 2.645074 1_555
Si1_3 Si1_7 2.745705 1_555
Si1_3 Si1_7 2.745705 1_455
Si1_4 Si3_4 2.549880 1_555
Si1_4 Si4_4 2.579263 1_555
Si1_4 Si7_4 2.645074 1_555
Si1_5 Si3_5 2.549880 1_555
Si1_5 Si4_5 2.579263 1_555
Si1_5 Si7_5 2.645074 1_555
Si1_6 Si3_6 2.549880 1_555
Si1_6 Si4_6 2.579263 1_555
Si1_6 Si7_6 2.645074 1_555
Si1_7 Si3_7 2.549880 1_555
Si1_7 Si4_7 2.579263 1_555
Si1_7 Si7_7 2.645074 1_555
Si2_0 Si4_2 2.573742 1_545
Si2_0 Si2_4 2.745705 1_555
Si2_0 Si2_4 2.745705 1_455
Si2_1 Si4_3 2.573742 1_545
Si2_1 Si2_5 2.745705 1_455
Si2_1 Si2_5 2.745705 1_555
Si2_2 Si4_0 2.573742 1_555
Si2_2 Si2_6 2.745705 1_455
Si2_2 Si2_6 2.745705 1_555
Si2_3 Si4_1 2.573742 1_555
Si2_3 Si2_7 2.745705 1_555
Si2_3 Si2_7 2.745705 1_455
Si2_4 Si4_6 2.573742 1_545
Si2_5 Si4_7 2.573742 1_545
Si2_6 Si4_4 2.573742 1_555
Si2_7 Si4_5 2.573742 1_555
Si3_0 Si7_0 2.565877 1_555
Si3_0 Si5_0 2.645074 1_555
Si3_0 Si3_4 2.745705 1_455
Si3_0 Si3_4 2.745705 1_555
Si3_1 Si7_1 2.565877 1_555
Si3_1 Si5_1 2.645074 1_555
Si3_1 Si3_5 2.745705 1_555
Si3_1 Si3_5 2.745705 1_455
Si3_2 Si7_2 2.565877 1_555
Si3_2 Si5_2 2.645074 1_555
Si3_2 Si3_6 2.745705 1_455
Si3_2 Si3_6 2.745705 1_555
Si3_3 Si7_3 2.565877 1_555
Si3_3 Si5_3 2.645074 1_555
Si3_3 Si3_7 2.745705 1_455
Si3_3 Si3_7 2.745705 1_555
Si3_4 Si7_4 2.565877 1_555
Si3_4 Si5_4 2.645074 1_555
Si3_5 Si7_5 2.565877 1_555
Si3_5 Si5_5 2.645074 1_555
Si3_6 Si7_6 2.565877 1_555
Si3_6 Si5_6 2.645074 1_555
Si3_7 Si7_7 2.565877 1_555
Si3_7 Si5_7 2.645074 1_555
Si4_0 Si4_4 2.745705 1_555
Si4_0 Si4_4 2.745705 1_455
Si4_0 Si6_1 2.886197 1_554
Si4_1 Si4_5 2.745705 1_455
Si4_1 Si4_5 2.745705 1_555
Si4_1 Si6_0 2.886197 1_555
Si4_2 Si4_6 2.745705 1_455
Si4_2 Si4_6 2.745705 1_555
Si4_2 Si6_3 2.886197 1_554
Si4_3 Si4_7 2.745705 1_555
Si4_3 Si4_7 2.745705 1_455
Si4_3 Si6_2 2.886197 1_555
Si4_4 Si6_5 2.886197 1_554
Si4_5 Si6_4 2.886197 1_555
Si4_6 Si6_7 2.886197 1_554
Si4_7 Si6_6 2.886197 1_555
Si5_0 Si7_0 2.549880 1_555
Si5_0 Si5_4 2.745705 1_455
Si5_0 Si5_4 2.745705 1_555
Si5_1 Si7_1 2.549880 1_555
Si5_1 Si5_5 2.745705 1_455
Si5_1 Si5_5 2.745705 1_555
Si5_2 Si7_2 2.549880 1_555
Si5_2 Si5_6 2.745705 1_455
Si5_2 Si5_6 2.745705 1_555
Si5_3 Si7_3 2.549880 1_555
Si5_3 Si5_7 2.745705 1_455
Si5_3 Si5_7 2.745705 1_555
Si5_4 Si7_4 2.549880 1_555
Si5_5 Si7_5 2.549880 1_555
Si5_6 Si7_6 2.549880 1_555
Si5_7 Si7_7 2.549880 1_555
Si6_0 Si6_4 2.745705 1_555
Si6_0 Si6_4 2.745705 1_455
Si6_1 Si6_5 2.745705 1_555
Si6_1 Si6_5 2.745705 1_455
Si6_2 Si6_6 2.745705 1_455
Si6_2 Si6_6 2.745705 1_555
Si6_3 Si6_7 2.745705 1_555
Si6_3 Si6_7 2.745705 1_455
Si7_0 Si7_4 2.745705 1_555
Si7_0 Si7_4 2.745705 1_455
Si7_1 Si7_5 2.745705 1_555
Si7_1 Si7_5 2.745705 1_455
Si7_2 Si7_6 2.745705 1_555
Si7_2 Si7_6 2.745705 1_455
Si7_3 Si7_7 2.745705 1_455
Si7_3 Si7_7 2.745705 1_555
