# generated using pymatgen
data_CsAl
_symmetry_space_group_name_H-M   'P 1'
_cell_length_a   4.74581000
_cell_length_b   8.58403500
_cell_length_c   10.65846300
_cell_angle_alpha   90.00000000
_cell_angle_beta   90.00000000
_cell_angle_gamma   90.00000000
_symmetry_Int_Tables_number   1
_chemical_formula_structural   CsAl
_chemical_formula_sum   'Cs4 Al4'
_cell_volume   434.20658826
_cell_formula_units_Z   4
loop_
 _symmetry_equiv_pos_site_id
 _symmetry_equiv_pos_as_xyz
  1  'x, y, z'
loop_
 _atom_site_type_symbol
 _atom_site_label
 _atom_site_symmetry_multiplicity
 _atom_site_fract_x
 _atom_site_fract_y
 _atom_site_fract_z
 _atom_site_occupancy
  Cs  Cs0  1  0.25000000  0.34809900  0.68420800  1
  Cs  Cs1  1  0.25000000  0.15190100  0.18420800  1
  Cs  Cs2  1  0.75000000  0.65190100  0.31579200  1
  Cs  Cs3  1  0.75000000  0.84809900  0.81579200  1
  Al  Al0  1  0.25000000  0.55562600  0.01323500  1
  Al  Al1  1  0.25000000  0.94437400  0.51323500  1
  Al  Al2  1  0.75000000  0.44437400  0.98676500  1
  Al  Al3  1  0.75000000  0.05562600  0.48676500  1
loop_
_geom_bond_atom_site_label_1
_geom_bond_atom_site_label_2
_geom_bond_distance
_geom_bond_site_symmetry_2
Al0 Al2 2.573380 1_454
Al0 Al2 2.573380 1_554
Al0 Cs1 3.915498 1_555
Al0 Cs0 3.933441 1_554
Al0 Cs3 4.045052 1_454
Al0 Cs3 4.045052 1_554
Al0 Cs2 4.088147 1_555
Al0 Cs2 4.088147 1_455
Al1 Al3 2.573380 1_565
Al1 Al3 2.573380 1_465
Al1 Cs0 3.915498 1_565
Al1 Cs1 3.933441 1_565
Al1 Cs2 4.045052 1_555
Al1 Cs2 4.045052 1_455
Al1 Cs3 4.088147 1_555
Al1 Cs3 4.088147 1_455
Al2 Cs3 3.915498 1_555
Al2 Cs2 3.933441 1_556
Al2 Cs1 4.045052 1_556
Al2 Cs1 4.045052 1_656
Al2 Cs0 4.088147 1_555
Al2 Cs0 4.088147 1_655
Al3 Cs2 3.915498 1_545
Al3 Cs3 3.933441 1_545
Al3 Cs0 4.045052 1_555
Al3 Cs0 4.045052 1_655
Al3 Cs1 4.088147 1_555
Al3 Cs1 4.088147 1_655
