# generated using pymatgen
data_LaCu2SeO2
_symmetry_space_group_name_H-M   'P 1'
_cell_length_a   4.01810000
_cell_length_b   4.01810000
_cell_length_c   12.05834000
_cell_angle_alpha   90.00000000
_cell_angle_beta   90.00000000
_cell_angle_gamma   90.00000000
_symmetry_Int_Tables_number   1
_chemical_formula_structural   LaCu2SeO2
_chemical_formula_sum   'La1 Cu2 Se1 O2'
_cell_volume   194.68343806
_cell_formula_units_Z   1
loop_
 _symmetry_equiv_pos_site_id
 _symmetry_equiv_pos_as_xyz
  1  'x, y, z'
loop_
 _atom_site_type_symbol
 _atom_site_label
 _atom_site_symmetry_multiplicity
 _atom_site_fract_x
 _atom_site_fract_y
 _atom_site_fract_z
 _atom_site_occupancy
  La  La0  1  0.50000000  0.50000000  0.50000000  1
  Cu  Cu0  1  0.50000000  0.50000000  0.18052300  1
  Cu  Cu1  1  0.50000000  0.50000000  0.81947700  1
  Se  Se0  1  0.50000000  0.50000000  0.00000000  1
  O  O0  1  0.50000000  0.50000000  0.67147800  1
  O  O1  1  0.50000000  0.50000000  0.32852200  1
loop_
_geom_bond_atom_site_label_1
_geom_bond_atom_site_label_2
_geom_bond_distance
_geom_bond_site_symmetry_2
La0 O0 2.067740 1_555
La0 O1 2.067740 1_555
Cu0 O1 1.784622 1_555
Cu0 Se0 2.176808 1_555
Cu1 O0 1.784622 1_555
Cu1 Se0 2.176808 1_556
