# generated using pymatgen
data_Co3As2(HO)16
_symmetry_space_group_name_H-M   'P 1'
_cell_length_a   8.48979699
_cell_length_b   8.48979699
_cell_length_c   4.76890575
_cell_angle_alpha   81.22873399
_cell_angle_beta   81.22873399
_cell_angle_gamma   105.23045377
_symmetry_Int_Tables_number   1
_chemical_formula_structural   Co3As2(HO)16
_chemical_formula_sum   'Co3 As2 H16 O16'
_cell_volume   321.02381906
_cell_formula_units_Z   1
loop_
 _symmetry_equiv_pos_site_id
 _symmetry_equiv_pos_as_xyz
  1  'x, y, z'
loop_
 _atom_site_type_symbol
 _atom_site_label
 _atom_site_symmetry_multiplicity
 _atom_site_fract_x
 _atom_site_fract_y
 _atom_site_fract_z
 _atom_site_occupancy
  Co  Co0  1  0.00000000  0.00000000  0.00000000  1
  Co  Co1  1  0.61634600  0.38365400  0.00000000  1
  Co  Co2  1  0.38365400  0.61634600  0.00000000  1
  As  As0  1  0.68415600  0.68415600  0.37783100  1
  As  As1  1  0.31584400  0.31584400  0.62216900  1
  H  H0  1  0.80342300  0.95883600  0.64462800  1
  H  H1  1  0.19657700  0.04116400  0.35537200  1
  H  H2  1  0.04116400  0.19657700  0.35537200  1
  H  H3  1  0.95883600  0.80342300  0.64462800  1
  H  H4  1  0.74458300  0.17398100  0.28277800  1
  H  H5  1  0.25541700  0.82601900  0.71722200  1
  H  H6  1  0.82601900  0.25541700  0.71722200  1
  H  H7  1  0.17398100  0.74458300  0.28277800  1
  H  H8  1  0.30846100  0.05541100  0.04506700  1
  H  H9  1  0.69153900  0.94458900  0.95493300  1
  H  H10  1  0.94458900  0.69153900  0.95493300  1
  H  H11  1  0.05541100  0.30846100  0.04506700  1
  H  H12  1  0.57452600  0.17246300  0.48643900  1
  H  H13  1  0.42547400  0.82753700  0.51356100  1
  H  H14  1  0.82753700  0.42547400  0.51356100  1
  H  H15  1  0.17246300  0.57452600  0.48643900  1
  O  O0  1  0.41214800  0.41214800  0.27163500  1
  O  O1  1  0.58785200  0.58785200  0.72836500  1
  O  O2  1  0.85108800  0.85108800  0.39748400  1
  O  O3  1  0.14891200  0.14891200  0.60251600  1
  O  O4  1  0.62792100  0.17299300  0.28525700  1
  O  O5  1  0.37207900  0.82700700  0.71474300  1
  O  O6  1  0.82700700  0.37207900  0.71474300  1
  O  O7  1  0.17299300  0.62792100  0.28525700  1
  O  O8  1  0.55168100  0.77153000  0.20784900  1
  O  O9  1  0.44831900  0.22847000  0.79215100  1
  O  O10  1  0.22847000  0.44831900  0.79215100  1
  O  O11  1  0.77153000  0.55168100  0.20784900  1
  O  O12  1  0.20511800  0.98331400  0.18558700  1
  O  O13  1  0.79488200  0.01668600  0.81441300  1
  O  O14  1  0.01668600  0.79488200  0.81441300  1
  O  O15  1  0.98331400  0.20511800  0.18558700  1
loop_
_geom_bond_atom_site_label_1
_geom_bond_atom_site_label_2
_geom_bond_distance
_geom_bond_site_symmetry_2
Co0 O12 2.096975 1_545
Co0 O15 2.096975 1_455
Co0 O13 2.096975 1_454
Co0 O14 2.096975 1_544
Co0 O2 2.118550 1_445
Co0 O3 2.118550 1_554
Co1 O1 2.091164 1_554
Co1 O0 2.091164 1_555
Co1 O6 2.109496 1_554
Co1 O4 2.109496 1_555
Co1 O11 2.143657 1_555
Co1 O9 2.143657 1_554
Co2 O1 2.091164 1_554
Co2 O0 2.091164 1_555
Co2 O5 2.109496 1_554
Co2 O7 2.109496 1_555
Co2 O8 2.143657 1_555
Co2 O10 2.143657 1_554
As0 O1 1.716543 1_555
As0 O8 1.733574 1_555
As0 O11 1.733574 1_555
As0 O2 1.746866 1_555
As1 O0 1.716543 1_555
As1 O9 1.733574 1_555
As1 O10 1.733574 1_555
As1 O3 1.746866 1_555
H0 O13 1.012004 1_565
H0 O2 1.663579 1_555
H1 O12 1.012004 1_545
H1 O3 1.663579 1_555
H2 O15 1.012004 1_455
H2 O3 1.663579 1_555
H3 O14 1.012004 1_655
H3 O2 1.663579 1_555
H4 O4 0.986513 1_555
H5 O5 0.986513 1_555
H6 O6 0.986513 1_555
H7 O7 0.986513 1_555
H8 O12 1.003456 1_545
H9 O13 1.003456 1_565
H10 O14 1.003456 1_655
H11 O15 1.003456 1_455
H12 O4 0.995473 1_555
H13 O5 0.995473 1_555
H14 O6 0.995473 1_555
H15 O7 0.995473 1_555
