# generated using pymatgen
data_P3Rh
_symmetry_space_group_name_H-M   'P 1'
_cell_length_a   6.94513276
_cell_length_b   6.94513256
_cell_length_c   6.94513258
_cell_angle_alpha   109.47121474
_cell_angle_beta   109.47121422
_cell_angle_gamma   109.47122764
_symmetry_Int_Tables_number   1
_chemical_formula_structural   P3Rh
_chemical_formula_sum   'P12 Rh4'
_cell_volume   257.88125175
_cell_formula_units_Z   4
loop_
 _symmetry_equiv_pos_site_id
 _symmetry_equiv_pos_as_xyz
  1  'x, y, z'
loop_
 _atom_site_type_symbol
 _atom_site_label
 _atom_site_symmetry_multiplicity
 _atom_site_fract_x
 _atom_site_fract_y
 _atom_site_fract_z
 _atom_site_occupancy
  P  P0  1  0.49449238  0.13924289  0.35524949  1
  P  P1  1  0.13924289  0.64475051  0.78399240  1
  P  P2  1  0.35524949  0.21600760  0.86075711  1
  P  P3  1  0.86075711  0.64475051  0.50550762  1
  P  P4  1  0.64475051  0.78399240  0.13924289  1
  P  P5  1  0.86075711  0.35524949  0.21600760  1
  P  P6  1  0.64475051  0.50550762  0.86075711  1
  P  P7  1  0.35524949  0.49449238  0.13924289  1
  P  P8  1  0.13924289  0.35524949  0.49449238  1
  P  P9  1  0.78399240  0.13924289  0.64475051  1
  P  P10  1  0.21600760  0.86075711  0.35524949  1
  P  P11  1  0.50550762  0.86075711  0.64475051  1
  Rh  Rh0  1  0.50000000  0.50000000  0.50000000  1
  Rh  Rh1  1  -0.00000000  0.50000000  -0.00000000  1
  Rh  Rh2  1  -0.00000000  -0.00000000  0.50000000  1
  Rh  Rh3  1  0.50000000  -0.00000000  -0.00000000  1
loop_
_geom_bond_atom_site_label_1
_geom_bond_atom_site_label_2
_geom_bond_distance
_geom_bond_site_symmetry_2
P0 P10 2.233326 1_545
P0 P9 2.321664 1_555
P0 Rh0 2.349667 1_555
P0 Rh3 2.349667 1_555
P1 P3 2.233326 1_455
P1 P8 2.321664 1_555
P1 Rh3 2.349667 1_566
P1 Rh1 2.349674 1_556
P2 P7 2.233326 1_556
P2 P6 2.321663 1_555
P2 Rh2 2.349667 1_555
P2 Rh3 2.349674 1_556
P3 P5 2.321664 1_555
P3 Rh2 2.349667 1_665
P3 Rh0 2.349667 1_555
P4 P6 2.233326 1_554
P4 P7 2.321663 1_555
P4 Rh2 2.349667 1_665
P4 Rh3 2.349674 1_565
P5 P8 2.233326 1_655
P5 Rh3 2.349667 1_555
P5 Rh1 2.349674 1_655
P6 Rh0 2.349667 1_555
P6 Rh1 2.349668 1_656
P7 Rh0 2.349667 1_555
P7 Rh1 2.349668 1_555
P8 Rh2 2.349667 1_555
P8 Rh0 2.349667 1_555
P9 Rh1 2.349667 1_656
P9 Rh2 2.349674 1_655
P10 P11 2.321664 1_555
P10 Rh1 2.349667 1_555
P10 Rh2 2.349674 1_565
P11 P9 2.233326 1_565
P11 Rh0 2.349667 1_555
P11 Rh3 2.349667 1_566
