# generated using pymatgen
data_Li9Mn7O16
_symmetry_space_group_name_H-M   'P 1'
_cell_length_a   7.82601932
_cell_length_b   7.82601932
_cell_length_c   5.85253144
_cell_angle_alpha   68.42895861
_cell_angle_beta   68.42895861
_cell_angle_gamma   95.33702885
_symmetry_Int_Tables_number   1
_chemical_formula_structural   Li9Mn7O16
_chemical_formula_sum   'Li9 Mn7 O16'
_cell_volume   299.01124540
_cell_formula_units_Z   1
loop_
 _symmetry_equiv_pos_site_id
 _symmetry_equiv_pos_as_xyz
  1  'x, y, z'
loop_
 _atom_site_type_symbol
 _atom_site_label
 _atom_site_symmetry_multiplicity
 _atom_site_fract_x
 _atom_site_fract_y
 _atom_site_fract_z
 _atom_site_occupancy
  Li  Li0  1  0.87972200  0.63411300  0.99642600  1
  Li  Li1  1  0.36588700  0.12027800  0.00357400  1
  Li  Li2  1  0.00000000  0.00000000  0.50000000  1
  Li  Li3  1  0.50000000  0.50000000  0.50000000  1
  Li  Li4  1  0.12027800  0.36588700  0.00357400  1
  Li  Li5  1  0.63411300  0.87972200  0.99642600  1
  Li  Li6  1  0.24893900  0.75106100  0.50000000  1
  Li  Li7  1  0.75106100  0.24893900  0.50000000  1
  Li  Li8  1  0.00000000  0.00000000  0.00000000  1
  Mn  Mn0  1  0.75249000  0.24751000  0.00000000  1
  Mn  Mn1  1  0.24751000  0.75249000  0.00000000  1
  Mn  Mn2  1  0.88191500  0.63332100  0.49155000  1
  Mn  Mn3  1  0.36667900  0.11808500  0.50845000  1
  Mn  Mn4  1  0.50000000  0.50000000  0.00000000  1
  Mn  Mn5  1  0.11808500  0.36667900  0.50845000  1
  Mn  Mn6  1  0.63332100  0.88191500  0.49155000  1
  O  O0  1  0.61502500  0.36740800  0.23649800  1
  O  O1  1  0.12137500  0.85704900  0.24801100  1
  O  O2  1  0.75731900  0.75731900  0.72383100  1
  O  O3  1  0.25487700  0.25487700  0.72039200  1
  O  O4  1  0.85704900  0.12137500  0.24801100  1
  O  O5  1  0.36740800  0.61502500  0.23649800  1
  O  O6  1  0.00346000  0.50399300  0.72529200  1
  O  O7  1  0.50399300  0.00346000  0.72529200  1
  O  O8  1  0.14295100  0.87862500  0.75198900  1
  O  O9  1  0.63259200  0.38497500  0.76350200  1
  O  O10  1  0.24268100  0.24268100  0.27616900  1
  O  O11  1  0.74512300  0.74512300  0.27960800  1
  O  O12  1  0.38497500  0.63259200  0.76350200  1
  O  O13  1  0.87862500  0.14295100  0.75198900  1
  O  O14  1  0.49600700  0.99654000  0.27470800  1
  O  O15  1  0.99654000  0.49600700  0.27470800  1
loop_
_geom_bond_atom_site_label_1
_geom_bond_atom_site_label_2
_geom_bond_distance
_geom_bond_site_symmetry_2
Li0 O11 2.134565 1_556
Li0 O2 2.134711 1_555
Li0 O15 2.154248 1_556
Li0 O6 2.175880 1_655
Li0 O8 2.244724 1_655
Li0 O0 2.349680 1_556
Li1 O3 2.134565 1_554
Li1 O10 2.134711 1_555
Li1 O7 2.154248 1_554
Li1 O14 2.175880 1_545
Li1 O1 2.244724 1_545
Li1 O9 2.349680 1_554
Li2 O10 2.144838 1_555
Li2 O2 2.144838 1_445
Li2 O13 2.170162 1_455
Li2 O8 2.170162 1_545
Li2 O1 2.170162 1_545
Li2 O4 2.170162 1_455
Li3 O5 2.143594 1_555
Li3 O0 2.143594 1_555
Li3 O12 2.143594 1_555
Li3 O9 2.143594 1_555
Li3 O3 2.168020 1_555
Li3 O11 2.168020 1_555
Li4 O3 2.134565 1_554
Li4 O10 2.134711 1_555
Li4 O6 2.154248 1_554
Li4 O15 2.175880 1_455
Li4 O4 2.244724 1_455
Li4 O12 2.349680 1_554
Li5 O11 2.134565 1_556
Li5 O2 2.134711 1_555
Li5 O14 2.154248 1_556
Li5 O7 2.175880 1_565
Li5 O13 2.244724 1_565
Li5 O5 2.349680 1_556
Li6 O8 2.048599 1_555
Li6 O1 2.048599 1_555
Li6 O5 2.170429 1_555
Li6 O12 2.170429 1_555
Li6 O14 2.177073 1_555
Li6 O6 2.177073 1_555
Li7 O13 2.048599 1_555
Li7 O4 2.048599 1_555
Li7 O0 2.170429 1_555
Li7 O9 2.170429 1_555
Li7 O15 2.177073 1_555
Li7 O7 2.177073 1_555
Li8 O8 2.068369 1_544
Li8 O1 2.068369 1_545
Li8 O4 2.068369 1_455
Li8 O13 2.068369 1_454
Li8 O3 2.257183 1_554
Li8 O11 2.257183 1_445
Mn0 O4 1.928962 1_555
Mn0 O13 1.928962 1_554
Mn0 O9 2.000360 1_554
Mn0 O0 2.000360 1_555
Mn0 O14 2.245720 1_545
Mn0 O6 2.245720 1_654
Mn1 O1 1.928962 1_555
Mn1 O8 1.928962 1_554
Mn1 O5 2.000360 1_555
Mn1 O12 2.000360 1_554
Mn1 O7 2.245720 1_564
Mn1 O15 2.245720 1_455
Mn2 O11 1.950083 1_555
Mn2 O2 1.977853 1_555
Mn2 O15 1.978662 1_555
Mn2 O6 1.979496 1_655
Mn2 O1 2.049301 1_655
Mn2 O9 2.203234 1_555
Mn3 O3 1.950083 1_555
Mn3 O10 1.977853 1_555
Mn3 O7 1.978662 1_555
Mn3 O14 1.979496 1_545
Mn3 O8 2.049301 1_545
Mn3 O0 2.203234 1_555
Mn4 O9 1.958751 1_554
Mn4 O12 1.958751 1_554
Mn4 O5 1.958751 1_555
Mn4 O0 1.958751 1_555
Mn4 O2 2.276397 1_554
Mn4 O10 2.276397 1_555
Mn5 O3 1.950083 1_555
Mn5 O10 1.977853 1_555
Mn5 O6 1.978662 1_555
Mn5 O15 1.979496 1_455
Mn5 O13 2.049301 1_455
Mn5 O5 2.203234 1_555
Mn6 O11 1.950083 1_555
Mn6 O2 1.977853 1_555
Mn6 O14 1.978662 1_555
Mn6 O7 1.979496 1_565
Mn6 O4 2.049301 1_565
Mn6 O12 2.203234 1_555
