# generated using pymatgen
data_In6Te10Pb
_symmetry_space_group_name_H-M   'P 1'
_cell_length_a   10.92520828
_cell_length_b   10.92520828
_cell_length_c   10.82129236
_cell_angle_alpha   89.82032890
_cell_angle_beta   89.82032890
_cell_angle_gamma   88.89562885
_symmetry_Int_Tables_number   1
_chemical_formula_structural   In6Te10Pb
_chemical_formula_sum   'In12 Te20 Pb2'
_cell_volume   1291.37897472
_cell_formula_units_Z   2
loop_
 _symmetry_equiv_pos_site_id
 _symmetry_equiv_pos_as_xyz
  1  'x, y, z'
loop_
 _atom_site_type_symbol
 _atom_site_label
 _atom_site_symmetry_multiplicity
 _atom_site_fract_x
 _atom_site_fract_y
 _atom_site_fract_z
 _atom_site_occupancy
  In  In0  1  0.74370781  0.17545484  0.33184814  1
  In  In1  1  0.16972806  0.33858596  0.74520942  1
  In  In2  1  0.34383868  0.74405310  0.17229917  1
  In  In3  1  0.25594690  0.65616132  0.82770083  1
  In  In4  1  0.82454516  0.25629219  0.66815186  1
  In  In5  1  0.66141404  0.83027194  0.25479058  1
  In  In6  1  0.84548324  0.87643708  0.57573860  1
  In  In7  1  0.86980826  0.57031986  0.84069427  1
  In  In8  1  0.57636129  0.84298771  0.87844646  1
  In  In9  1  0.15701229  0.42363871  0.12155354  1
  In  In10  1  0.12356292  0.15451676  0.42426140  1
  In  In11  1  0.42968014  0.13019174  0.15930573  1
  Te  Te0  1  0.17109400  0.82890600  0.00000000  1
  Te  Te1  1  0.82443036  -0.00088681  0.16195168  1
  Te  Te2  1  0.00088681  0.17556964  0.83804832  1
  Te  Te3  1  0.83442411  0.83098228  0.83530302  1
  Te  Te4  1  0.16901772  0.16557589  0.16469698  1
  Te  Te5  1  0.77088735  0.67644391  0.43219288  1
  Te  Te6  1  0.67468398  0.44614044  0.74564996  1
  Te  Te7  1  0.43225218  0.76711943  0.67778572  1
  Te  Te8  1  0.23288057  0.56774782  0.32221428  1
  Te  Te9  1  0.32355609  0.22911265  0.56780712  1
  Te  Te10  1  0.55385956  0.32531602  0.25435004  1
  Te  Te11  1  0.08967150  0.91032850  0.50000000  1
  Te  Te12  1  0.91312884  0.50190065  0.08909458  1
  Te  Te13  1  0.49809935  0.08687116  0.91090542  1
  Te  Te14  1  0.67283907  0.07025285  0.56773495  1
  Te  Te15  1  0.06998359  0.56926836  0.66872123  1
  Te  Te16  1  0.57237329  0.66535391  0.07067359  1
  Te  Te17  1  0.33464609  0.42762671  0.92932641  1
  Te  Te18  1  0.92974715  0.32716093  0.43226505  1
  Te  Te19  1  0.43073164  0.93001641  0.33127877  1
  Pb  Pb0  1  0.26432187  0.00410791  0.75012492  1
  Pb  Pb1  1  0.99589209  0.73567813  0.24987508  1
loop_
_geom_bond_atom_site_label_1
_geom_bond_atom_site_label_2
_geom_bond_distance
_geom_bond_site_symmetry_2
In0 Te10 2.749064 1_555
In0 Te1 2.795723 1_555
In0 Te18 2.866002 1_555
In0 Te14 2.905127 1_555
In1 Te2 2.772661 1_555
In1 Te9 2.803017 1_555
In1 Te15 2.847979 1_555
In1 Te17 2.874804 1_555
In2 Te0 2.800238 1_555
In2 Te8 2.805266 1_555
In2 Te16 2.844039 1_555
In2 Te19 2.845196 1_555
In3 Te0 2.800238 1_556
In3 Te7 2.805266 1_555
In3 Te17 2.844039 1_555
In3 Te15 2.845196 1_555
In4 Te6 2.749064 1_555
In4 Te2 2.795723 1_655
In4 Te14 2.866002 1_555
In4 Te18 2.905127 1_555
In5 Te1 2.772661 1_565
In5 Te5 2.803017 1_555
In5 Te19 2.847979 1_555
In5 Te16 2.874804 1_555
In6 Te14 2.809765 1_565
In6 Te11 2.819306 1_655
In6 Te5 2.819402 1_555
In6 Te3 2.853442 1_555
In7 Te6 2.752609 1_555
In7 Te12 2.826641 1_556
In7 Te3 2.866954 1_555
In7 Te15 2.867013 1_655
In8 Te13 2.805362 1_565
In8 Te7 2.822037 1_555
In8 Te16 2.841222 1_556
In8 Te3 2.856922 1_555
In9 Te12 2.805362 1_455
In9 Te8 2.822037 1_555
In9 Te17 2.841222 1_554
In9 Te4 2.856922 1_555
In10 Te18 2.809765 1_455
In10 Te11 2.819306 1_545
In10 Te9 2.819402 1_555
In10 Te4 2.853442 1_555
In11 Te10 2.752609 1_555
In11 Te13 2.826641 1_554
In11 Te4 2.866954 1_555
In11 Te19 2.867013 1_545
Pb0 Te9 3.221327 1_555
Pb0 Te13 3.239552 1_555
Pb0 Te7 3.240848 1_545
Pb0 Te0 3.469602 1_546
Pb0 Te11 3.484504 1_545
Pb0 Te2 3.533252 1_555
Pb1 Te5 3.221327 1_555
Pb1 Te12 3.239552 1_555
Pb1 Te8 3.240848 1_655
Pb1 Te0 3.469602 1_655
Pb1 Te11 3.484504 1_655
Pb1 Te1 3.533252 1_565
