# generated using pymatgen
data_Cs3H12N4F3
_symmetry_space_group_name_H-M   'P 1'
_cell_length_a   9.08133984
_cell_length_b   9.08133984
_cell_length_c   9.08133984
_cell_angle_alpha   109.47122063
_cell_angle_beta   109.47122063
_cell_angle_gamma   109.47122063
_symmetry_Int_Tables_number   1
_chemical_formula_structural   Cs3H12N4F3
_chemical_formula_sum   'Cs6 H24 N8 F6'
_cell_volume   576.53794146
_cell_formula_units_Z   2
loop_
 _symmetry_equiv_pos_site_id
 _symmetry_equiv_pos_as_xyz
  1  'x, y, z'
loop_
 _atom_site_type_symbol
 _atom_site_label
 _atom_site_symmetry_multiplicity
 _atom_site_fract_x
 _atom_site_fract_y
 _atom_site_fract_z
 _atom_site_occupancy
  Cs  Cs0  1  0.25000000  0.12500000  0.87500000  1
  Cs  Cs1  1  0.75000000  0.37500000  0.62500000  1
  Cs  Cs2  1  0.37500000  0.62500000  0.75000000  1
  Cs  Cs3  1  0.12500000  0.87500000  0.25000000  1
  Cs  Cs4  1  0.62500000  0.75000000  0.37500000  1
  Cs  Cs5  1  0.87500000  0.25000000  0.12500000  1
  H  H0  1  0.71237700  0.62699900  0.04439200  1
  H  H1  1  0.41739200  0.87300100  0.58537800  1
  H  H2  1  0.08260800  0.66798600  0.45560800  1
  H  H3  1  0.78762300  0.83201400  0.91462200  1
  H  H4  1  0.54439200  0.12699900  0.21237700  1
  H  H5  1  0.08537800  0.37300100  0.91739200  1
  H  H6  1  0.95560800  0.16798600  0.58260800  1
  H  H7  1  0.41462200  0.33201400  0.28762300  1
  H  H8  1  0.62699900  0.04439200  0.71237700  1
  H  H9  1  0.87300100  0.58537800  0.41739200  1
  H  H10  1  0.66798600  0.45560800  0.08260800  1
  H  H11  1  0.83201400  0.91462200  0.78762300  1
  H  H12  1  0.12699900  0.21237700  0.54439200  1
  H  H13  1  0.37300100  0.91739200  0.08537800  1
  H  H14  1  0.16798600  0.58260800  0.95560800  1
  H  H15  1  0.33201400  0.28762300  0.41462200  1
  H  H16  1  0.04439200  0.71237700  0.62699900  1
  H  H17  1  0.58537800  0.41739200  0.87300100  1
  H  H18  1  0.45560800  0.08260800  0.66798600  1
  H  H19  1  0.91462200  0.78762300  0.83201400  1
  H  H20  1  0.21237700  0.54439200  0.12699900  1
  H  H21  1  0.91739200  0.08537800  0.37300100  1
  H  H22  1  0.58260800  0.95560800  0.16798600  1
  H  H23  1  0.28762300  0.41462200  0.33201400  1
  N  N0  1  0.69840600  0.50000000  0.00000000  1
  N  N1  1  0.50000000  0.00000000  0.69840600  1
  N  N2  1  0.00000000  0.69840600  0.50000000  1
  N  N3  1  0.80159400  0.80159400  0.80159400  1
  N  N4  1  0.50000000  0.00000000  0.19840600  1
  N  N5  1  0.19840600  0.50000000  0.00000000  1
  N  N6  1  0.00000000  0.19840600  0.50000000  1
  N  N7  1  0.30159400  0.30159400  0.30159400  1
  F  F0  1  0.75000000  0.87500000  0.12500000  1
  F  F1  1  0.25000000  0.62500000  0.37500000  1
  F  F2  1  0.62500000  0.37500000  0.25000000  1
  F  F3  1  0.87500000  0.12500000  0.75000000  1
  F  F4  1  0.37500000  0.25000000  0.62500000  1
  F  F5  1  0.12500000  0.75000000  0.87500000  1
loop_
_geom_bond_atom_site_label_1
_geom_bond_atom_site_label_2
_geom_bond_distance
_geom_bond_site_symmetry_2
Cs0 H18 3.083147 1_555
Cs0 H5 3.083154 1_555
Cs0 H7 3.083154 1_556
Cs0 H16 3.083155 1_545
Cs0 F5 3.210738 1_545
Cs0 F2 3.210738 1_556
Cs0 F4 3.210738 1_555
Cs0 F3 3.210738 1_455
Cs0 H12 3.291643 1_555
Cs0 H10 3.291648 1_556
Cs0 H13 3.291651 1_546
Cs0 H11 3.291651 1_445
Cs0 H19 3.317332 1_445
Cs0 H17 3.317332 1_555
Cs0 H4 3.317336 1_556
Cs0 H6 3.317337 1_455
Cs0 N7 3.456401 1_556
Cs0 N5 3.456401 1_556
Cs0 N2 3.456401 1_545
Cs0 N1 3.456401 1_555
Cs1 H6 3.083147 1_555
Cs1 H17 3.083154 1_555
Cs1 H19 3.083154 1_555
Cs1 H4 3.083155 1_555
Cs1 F3 3.210738 1_555
Cs1 F2 3.210738 1_555
Cs1 F4 3.210738 1_555
Cs1 F5 3.210738 1_655
Cs1 H8 3.291643 1_555
Cs1 H14 3.291648 1_655
Cs1 H15 3.291651 1_555
Cs1 H9 3.291651 1_555
Cs1 H7 3.317332 1_555
Cs1 H5 3.317332 1_655
Cs1 H16 3.317336 1_655
Cs1 H18 3.317337 1_555
Cs1 N3 3.456401 1_555
Cs1 N6 3.456401 1_655
Cs1 N4 3.456401 1_555
Cs1 N0 3.456401 1_556
Cs2 H14 3.083147 1_555
Cs2 H1 3.083154 1_555
Cs2 H3 3.083154 1_555
Cs2 H12 3.083155 1_555
Cs2 F0 3.210738 1_556
Cs2 F5 3.210738 1_555
Cs2 F1 3.210738 1_555
Cs2 F4 3.210738 1_555
Cs2 H16 3.291643 1_555
Cs2 H22 3.291648 1_556
Cs2 H17 3.291651 1_555
Cs2 H23 3.291651 1_555
Cs2 H13 3.317332 1_556
Cs2 H15 3.317332 1_555
Cs2 H0 3.317336 1_556
Cs2 H2 3.317337 1_555
Cs2 N3 3.456401 1_555
Cs2 N5 3.456401 1_556
Cs2 N1 3.456401 1_565
Cs2 N6 3.456401 1_555
Cs3 H2 3.083147 1_555
Cs3 H13 3.083154 1_555
Cs3 H15 3.083154 1_565
Cs3 H0 3.083155 1_455
Cs3 F0 3.210738 1_455
Cs3 F5 3.210738 1_554
Cs3 F1 3.210738 1_555
Cs3 F4 3.210738 1_565
Cs3 H20 3.291643 1_555
Cs3 H18 3.291648 1_565
Cs3 H21 3.291651 1_465
Cs3 H19 3.291651 1_454
Cs3 H3 3.317332 1_454
Cs3 H1 3.317332 1_555
Cs3 H12 3.317336 1_565
Cs3 H14 3.317337 1_554
Cs3 N7 3.456401 1_565
Cs3 N2 3.456401 1_555
Cs3 N4 3.456401 1_565
Cs3 N0 3.456401 1_455
Cs4 H22 3.083147 1_555
Cs4 H9 3.083154 1_555
Cs4 H11 3.083154 1_555
Cs4 H20 3.083155 1_555
Cs4 F3 3.210738 1_565
Cs4 F0 3.210738 1_555
Cs4 F1 3.210738 1_555
Cs4 F2 3.210738 1_555
Cs4 H0 3.291643 1_555
Cs4 H6 3.291648 1_565
Cs4 H1 3.291651 1_555
Cs4 H7 3.291651 1_555
Cs4 H21 3.317332 1_565
Cs4 H23 3.317332 1_555
Cs4 H8 3.317336 1_565
Cs4 H10 3.317337 1_555
Cs4 N3 3.456401 1_555
Cs4 N2 3.456401 1_655
Cs4 N5 3.456401 1_555
Cs4 N4 3.456401 1_565
Cs5 H10 3.083147 1_555
Cs5 H21 3.083154 1_555
Cs5 H23 3.083154 1_655
Cs5 H8 3.083155 1_554
Cs5 F0 3.210738 1_545
Cs5 F3 3.210738 1_554
Cs5 F1 3.210738 1_655
Cs5 F2 3.210738 1_555
Cs5 H4 3.291643 1_555
Cs5 H2 3.291648 1_655
Cs5 H5 3.291651 1_654
Cs5 H3 3.291651 1_544
Cs5 H11 3.317332 1_544
Cs5 H9 3.317332 1_555
Cs5 H20 3.317336 1_655
Cs5 H22 3.317337 1_545
Cs5 N7 3.456401 1_655
Cs5 N0 3.456401 1_555
Cs5 N1 3.456401 1_554
Cs5 N6 3.456401 1_655
H0 N0 1.033030 1_555
H1 N1 1.033030 1_565
H2 N2 1.033035 1_555
H3 N3 1.033030 1_555
H4 N4 1.033030 1_555
H5 N5 1.033030 1_556
H6 N6 1.033035 1_655
H7 N7 1.033030 1_555
H8 N1 1.033030 1_555
H9 N2 1.033030 1_655
H10 N0 1.033035 1_555
H11 N3 1.033030 1_555
H12 N6 1.033030 1_555
H13 N4 1.033030 1_565
H14 N5 1.033035 1_556
H15 N7 1.033030 1_555
H16 N2 1.033030 1_555
H17 N0 1.033030 1_556
H18 N1 1.033035 1_555
H19 N3 1.033030 1_555
H20 N5 1.033030 1_555
H21 N6 1.033030 1_655
H22 N4 1.033035 1_565
H23 N7 1.033030 1_555
