# generated using pymatgen
data_H12OsSN4O7
_symmetry_space_group_name_H-M   'P 1'
_cell_length_a   6.15203200
_cell_length_b   12.00174200
_cell_length_c   13.39757830
_cell_angle_alpha   80.70686359
_cell_angle_beta   90.00000000
_cell_angle_gamma   90.00000000
_symmetry_Int_Tables_number   1
_chemical_formula_structural   H12OsSN4O7
_chemical_formula_sum   'H48 Os4 S4 N16 O28'
_cell_volume   976.22821084
_cell_formula_units_Z   4
loop_
 _symmetry_equiv_pos_site_id
 _symmetry_equiv_pos_as_xyz
  1  'x, y, z'
loop_
 _atom_site_type_symbol
 _atom_site_label
 _atom_site_symmetry_multiplicity
 _atom_site_fract_x
 _atom_site_fract_y
 _atom_site_fract_z
 _atom_site_occupancy
  H  H0  1  0.53206900  0.28099200  0.49699400  1
  H  H1  1  0.03206900  0.21900800  0.50300600  1
  H  H2  1  0.46793100  0.71900800  0.50300600  1
  H  H3  1  0.96793100  0.78099200  0.49699400  1
  H  H4  1  0.37679900  0.33546100  0.39751000  1
  H  H5  1  0.87679900  0.16453900  0.60249000  1
  H  H6  1  0.62320100  0.66453900  0.60249000  1
  H  H7  1  0.12320100  0.83546100  0.39751000  1
  H  H8  1  0.64486800  0.34571200  0.38941400  1
  H  H9  1  0.14486800  0.15428800  0.61058600  1
  H  H10  1  0.35513200  0.65428800  0.61058600  1
  H  H11  1  0.85513200  0.84571200  0.38941400  1
  H  H12  1  0.27544500  0.36368100  0.64275400  1
  H  H13  1  0.77544500  0.13631900  0.35724600  1
  H  H14  1  0.72455500  0.63631900  0.35724600  1
  H  H15  1  0.22455500  0.86368100  0.64275400  1
  H  H16  1  0.14103100  0.48661700  0.62135400  1
  H  H17  1  0.64103100  0.01338300  0.37864600  1
  H  H18  1  0.85896900  0.51338300  0.37864600  1
  H  H19  1  0.35896900  0.98661700  0.62135400  1
  H  H20  1  0.11906500  0.39856500  0.53888900  1
  H  H21  1  0.61906500  0.10143500  0.46111100  1
  H  H22  1  0.88093500  0.60143500  0.46111100  1
  H  H23  1  0.38093500  0.89856500  0.53888900  1
  H  H24  1  0.63453700  0.28557800  0.07393300  1
  H  H25  1  0.13453700  0.21442200  0.92606700  1
  H  H26  1  0.36546300  0.71442200  0.92606700  1
  H  H27  1  0.86546300  0.78557800  0.07393300  1
  H  H28  1  0.80470700  0.34488600  0.98328300  1
  H  H29  1  0.30470700  0.15511400  0.01671700  1
  H  H30  1  0.19529300  0.65511400  0.01671700  1
  H  H31  1  0.69529300  0.84488600  0.98328300  1
  H  H32  1  0.82087700  0.37543200  0.10059700  1
  H  H33  1  0.32087700  0.12456800  0.89940300  1
  H  H34  1  0.17912300  0.62456800  0.89940300  1
  H  H35  1  0.67912300  0.87543200  0.10059700  1
  H  H36  1  0.38690000  0.43229800  0.82686000  1
  H  H37  1  0.88690000  0.06770200  0.17314000  1
  H  H38  1  0.61310000  0.56770200  0.17314000  1
  H  H39  1  0.11310000  0.93229800  0.82686000  1
  H  H40  1  0.54794400  0.54711400  0.80058400  1
  H  H41  1  0.04794400  0.95288600  0.19941600  1
  H  H42  1  0.45205600  0.45288600  0.19941600  1
  H  H43  1  0.95205600  0.04711400  0.80058400  1
  H  H44  1  0.66048800  0.42345600  0.83645000  1
  H  H45  1  0.16048800  0.07654400  0.16355000  1
  H  H46  1  0.33951200  0.57654400  0.16355000  1
  H  H47  1  0.83951200  0.92345600  0.83645000  1
  Os  Os0  1  0.50000000  0.50000000  0.50000000  1
  Os  Os1  1  0.00000000  0.00000000  0.50000000  1
  Os  Os2  1  0.50000000  0.50000000  0.00000000  1
  Os  Os3  1  0.00000000  0.00000000  0.00000000  1
  S  S0  1  0.52958800  0.16219200  0.71394900  1
  S  S1  1  0.02958800  0.33780800  0.28605100  1
  S  S2  1  0.47041200  0.83780800  0.28605100  1
  S  S3  1  0.97041200  0.66219200  0.71394900  1
  N  N0  1  0.51572400  0.34745900  0.43752600  1
  N  N1  1  0.01572400  0.15254100  0.56247400  1
  N  N2  1  0.48427600  0.65254100  0.56247400  1
  N  N3  1  0.98427600  0.84745900  0.43752600  1
  N  N4  1  0.22556700  0.42938800  0.58673600  1
  N  N5  1  0.72556700  0.07061200  0.41326400  1
  N  N6  1  0.77443300  0.57061200  0.41326400  1
  N  N7  1  0.27443300  0.92938800  0.58673600  1
  N  N8  1  0.71470200  0.35910400  0.04499200  1
  N  N9  1  0.21470200  0.14089600  0.95500800  1
  N  N10  1  0.28529800  0.64089600  0.95500800  1
  N  N11  1  0.78529800  0.85910400  0.04499200  1
  N  N12  1  0.52481600  0.47108900  0.84733600  1
  N  N13  1  0.02481600  0.02891100  0.15266400  1
  N  N14  1  0.47518400  0.52891100  0.15266400  1
  N  N15  1  0.97518400  0.97108900  0.84733600  1
  O  O0  1  0.67857500  0.44067800  0.59602200  1
  O  O1  1  0.17857500  0.05932200  0.40397800  1
  O  O2  1  0.32142500  0.55932200  0.40397800  1
  O  O3  1  0.82142500  0.94067800  0.59602200  1
  O  O4  1  0.72658500  0.58960300  0.98169500  1
  O  O5  1  0.22658500  0.91039700  0.01830500  1
  O  O6  1  0.27341500  0.41039700  0.01830500  1
  O  O7  1  0.77341500  0.08960300  0.98169500  1
  O  O8  1  0.75852900  0.16905300  0.74516000  1
  O  O9  1  0.25852900  0.33094700  0.25484000  1
  O  O10  1  0.24147100  0.83094700  0.25484000  1
  O  O11  1  0.74147100  0.66905300  0.74516000  1
  O  O12  1  0.51764600  0.15812900  0.60212100  1
  O  O13  1  0.01764600  0.34187100  0.39787900  1
  O  O14  1  0.48235400  0.84187100  0.39787900  1
  O  O15  1  0.98235400  0.65812900  0.60212100  1
  O  O16  1  0.41831500  0.05675300  0.76954600  1
  O  O17  1  0.91831500  0.44324700  0.23045400  1
  O  O18  1  0.58168500  0.94324700  0.23045400  1
  O  O19  1  0.08168500  0.55675300  0.76954600  1
  O  O20  1  0.39724100  0.25769900  0.73811900  1
  O  O21  1  0.89724100  0.24230100  0.26188100  1
  O  O22  1  0.60275900  0.74230100  0.26188100  1
  O  O23  1  0.10275900  0.75769900  0.73811900  1
  O  O24  1  0.02720200  0.62174500  0.15138500  1
  O  O25  1  0.52720200  0.87825500  0.84861500  1
  O  O26  1  0.97279800  0.37825500  0.84861500  1
  O  O27  1  0.47279800  0.12174500  0.15138500  1
loop_
_geom_bond_atom_site_label_1
_geom_bond_atom_site_label_2
_geom_bond_distance
_geom_bond_site_symmetry_2
H0 N0 1.037291 1_555
H1 N1 1.037291 1_555
H2 N2 1.037291 1_555
H3 N3 1.037291 1_555
H4 N0 1.031287 1_555
H5 N1 1.031287 1_655
H6 N2 1.031287 1_555
H7 N3 1.031287 1_455
H8 N0 1.025437 1_555
H9 N1 1.025437 1_555
H10 N2 1.025437 1_555
H11 N3 1.025437 1_555
H12 N4 1.043146 1_555
H13 N5 1.043146 1_555
H14 N6 1.043146 1_555
H15 N7 1.043146 1_555
H16 N4 1.029672 1_555
H17 N5 1.029672 1_555
H18 N6 1.029672 1_555
H19 N7 1.029672 1_555
H20 N4 1.026476 1_555
H21 N5 1.026476 1_555
H22 N6 1.026476 1_555
H23 N7 1.026476 1_555
H24 N8 1.030417 1_555
H25 N9 1.030417 1_555
H26 N10 1.030417 1_555
H27 N11 1.030417 1_555
H28 N8 1.031891 1_556
H29 N9 1.031891 1_554
H30 N10 1.031891 1_554
H31 N11 1.031891 1_556
H32 N8 1.033052 1_555
H33 N9 1.033052 1_555
H34 N10 1.033052 1_555
H35 N11 1.033052 1_555
H36 N12 1.026227 1_555
H37 N13 1.026227 1_655
H38 N14 1.026227 1_555
H39 N15 1.026227 1_455
H40 N12 1.029819 1_555
H41 N13 1.029819 1_565
H42 N14 1.029819 1_555
H43 N15 1.029819 1_545
H44 N12 1.035215 1_555
H45 N13 1.035215 1_555
H46 N14 1.035215 1_555
H47 N15 1.035215 1_555
N0 Os0 2.134597 1_555
N1 Os1 2.134597 1_555
N2 Os0 2.134597 1_555
N3 Os1 2.134597 1_665
N4 Os0 2.144978 1_555
N5 Os1 2.144978 1_655
N6 Os0 2.144978 1_555
N7 Os1 2.144978 1_565
N8 Os2 2.153664 1_555
N9 Os3 2.153664 1_556
N10 Os2 2.153664 1_556
N11 Os3 2.153664 1_665
N12 Os2 2.134545 1_556
N13 Os3 2.134545 1_555
N14 Os2 2.134545 1_555
N15 Os3 2.134545 1_666
O0 Os0 1.752994 1_555
O1 Os1 1.752994 1_555
O2 Os0 1.752994 1_555
O3 Os1 1.752994 1_665
O4 Os2 1.753441 1_556
O5 Os3 1.753441 1_565
O6 Os2 1.753441 1_555
O7 Os3 1.753441 1_656
O8 S0 1.475293 1_555
O9 S1 1.475293 1_555
O10 S2 1.475293 1_555
O11 S3 1.475293 1_555
O12 S0 1.508657 1_555
O13 S1 1.508657 1_555
O14 S2 1.508657 1_555
O15 S3 1.508657 1_555
O16 S0 1.523279 1_555
O17 S1 1.523279 1_655
O18 S2 1.523279 1_555
O19 S3 1.523279 1_455
O20 S0 1.483764 1_555
O21 S1 1.483764 1_655
O22 S2 1.483764 1_555
O23 S3 1.483764 1_455
