# generated using pymatgen
data_Sr2Fe2O5
_symmetry_space_group_name_H-M   'P 1'
_cell_length_a   5.41092176
_cell_length_b   11.12229713
_cell_length_c   16.03165169
_cell_angle_alpha   90.00000000
_cell_angle_beta   90.00000000
_cell_angle_gamma   90.00000000
_symmetry_Int_Tables_number   1
_chemical_formula_structural   Sr2Fe2O5
_chemical_formula_sum   'Sr16 Fe16 O40'
_cell_volume   964.81493119
_cell_formula_units_Z   8
loop_
 _symmetry_equiv_pos_site_id
 _symmetry_equiv_pos_as_xyz
  1  'x, y, z'
loop_
 _atom_site_type_symbol
 _atom_site_label
 _atom_site_symmetry_multiplicity
 _atom_site_fract_x
 _atom_site_fract_y
 _atom_site_fract_z
 _atom_site_occupancy
  Sr  Sr0  1  0.99551611  0.25693979  0.61007211  1
  Sr  Sr1  1  0.00448389  0.74306021  0.11007211  1
  Sr  Sr2  1  0.99551611  0.24306021  0.38992789  1
  Sr  Sr3  1  0.00448389  0.75693979  0.88992789  1
  Sr  Sr4  1  0.00448389  0.74306021  0.38992789  1
  Sr  Sr5  1  0.99551611  0.25693979  0.88992789  1
  Sr  Sr6  1  0.00448389  0.75693979  0.61007211  1
  Sr  Sr7  1  0.99551611  0.24306021  0.11007211  1
  Sr  Sr8  1  0.50505755  0.00685211  0.11007462  1
  Sr  Sr9  1  0.49494245  0.99314789  0.61007462  1
  Sr  Sr10  1  0.50505755  0.49314789  0.88992538  1
  Sr  Sr11  1  0.49494245  0.50685211  0.38992538  1
  Sr  Sr12  1  0.49494245  0.99314789  0.88992538  1
  Sr  Sr13  1  0.50505755  0.00685211  0.38992538  1
  Sr  Sr14  1  0.49494245  0.50685211  0.11007462  1
  Sr  Sr15  1  0.50505755  0.49314789  0.61007462  1
  Fe  Fe0  1  -0.00000000  0.50000000  0.50000000  1
  Fe  Fe1  1  -0.00000000  0.50000000  0.00000000  1
  Fe  Fe2  1  -0.00000000  -0.00000000  0.50000000  1
  Fe  Fe3  1  -0.00000000  -0.00000000  0.00000000  1
  Fe  Fe4  1  0.49973718  0.25000000  0.00000000  1
  Fe  Fe5  1  0.50026282  0.75000000  0.50000000  1
  Fe  Fe6  1  0.50026282  0.75000000  0.00000000  1
  Fe  Fe7  1  0.49973718  0.25000000  0.50000000  1
  Fe  Fe8  1  0.04356595  0.53349215  0.75000000  1
  Fe  Fe9  1  0.95643405  0.46650785  0.25000000  1
  Fe  Fe10  1  0.04356595  0.96650785  0.25000000  1
  Fe  Fe11  1  0.95643405  0.03349215  0.75000000  1
  Fe  Fe12  1  0.54381860  0.78343967  0.25000000  1
  Fe  Fe13  1  0.45618140  0.21656033  0.75000000  1
  Fe  Fe14  1  0.54381860  0.71656033  0.75000000  1
  Fe  Fe15  1  0.45618140  0.28343967  0.25000000  1
  O  O0  1  0.25030301  0.62439149  0.50667892  1
  O  O1  1  0.74969699  0.37560851  0.00667892  1
  O  O2  1  0.25030301  0.87560851  0.49332108  1
  O  O3  1  0.74969699  0.12439149  0.99332108  1
  O  O4  1  0.74969699  0.37560851  0.49332108  1
  O  O5  1  0.25030301  0.62439149  0.99332108  1
  O  O6  1  0.74969699  0.12439149  0.50667892  1
  O  O7  1  0.25030301  0.87560851  0.00667892  1
  O  O8  1  0.24955849  0.12553254  0.99581867  1
  O  O9  1  0.75044151  0.87446746  0.49581867  1
  O  O10  1  0.24955849  0.37446746  0.00418133  1
  O  O11  1  0.75044151  0.62553254  0.50418133  1
  O  O12  1  0.75044151  0.87446746  0.00418133  1
  O  O13  1  0.24955849  0.12553254  0.50418133  1
  O  O14  1  0.75044151  0.62553254  0.99581867  1
  O  O15  1  0.24955849  0.37446746  0.49581867  1
  O  O16  1  0.98804819  0.48014336  0.64118892  1
  O  O17  1  0.01195181  0.51985664  0.14118892  1
  O  O18  1  0.98804819  0.01985664  0.35881108  1
  O  O19  1  0.01195181  0.98014336  0.85881108  1
  O  O20  1  0.01195181  0.51985664  0.35881108  1
  O  O21  1  0.98804819  0.48014336  0.85881108  1
  O  O22  1  0.01195181  0.98014336  0.64118892  1
  O  O23  1  0.98804819  0.01985664  0.14118892  1
  O  O24  1  0.50994030  0.23016838  0.14108946  1
  O  O25  1  0.49005970  0.76983162  0.64108946  1
  O  O26  1  0.50994030  0.26983162  0.85891054  1
  O  O27  1  0.49005970  0.73016838  0.35891054  1
  O  O28  1  0.49005970  0.76983162  0.85891054  1
  O  O29  1  0.50994030  0.23016838  0.35891054  1
  O  O30  1  0.49005970  0.73016838  0.14108946  1
  O  O31  1  0.50994030  0.26983162  0.64108946  1
  O  O32  1  0.89559806  0.81064362  0.25000000  1
  O  O33  1  0.10440194  0.18935638  0.75000000  1
  O  O34  1  0.89559806  0.68935638  0.75000000  1
  O  O35  1  0.10440194  0.31064362  0.25000000  1
  O  O36  1  0.39511163  0.93925345  0.25000000  1
  O  O37  1  0.60488837  0.06074655  0.75000000  1
  O  O38  1  0.39511163  0.56074655  0.75000000  1
  O  O39  1  0.60488837  0.43925345  0.25000000  1
loop_
_geom_bond_atom_site_label_1
_geom_bond_atom_site_label_2
_geom_bond_distance
_geom_bond_site_symmetry_2
Fe0 O4 1.939048 1_455
Fe0 O0 1.939048 1_555
Fe0 O15 1.943532 1_555
Fe0 O11 1.943532 1_455
Fe0 O20 2.275160 1_555
Fe0 O16 2.275160 1_455
Fe1 O1 1.939048 1_455
Fe1 O5 1.939048 1_554
Fe1 O10 1.943532 1_555
Fe1 O14 1.943532 1_454
Fe1 O21 2.275160 1_454
Fe1 O17 2.275160 1_555
Fe2 O2 1.939048 1_545
Fe2 O6 1.939048 1_455
Fe2 O13 1.943532 1_555
Fe2 O9 1.943532 1_445
Fe2 O18 2.275160 1_455
Fe2 O22 2.275160 1_545
Fe3 O7 1.939048 1_545
Fe3 O3 1.939048 1_454
Fe3 O12 1.943532 1_445
Fe3 O8 1.943532 1_554
Fe3 O19 2.275160 1_544
Fe3 O23 2.275160 1_455
Fe4 O8 1.937383 1_554
Fe4 O10 1.937383 1_555
Fe4 O3 1.947439 1_554
Fe4 O1 1.947439 1_555
Fe4 O24 2.273297 1_555
Fe4 O26 2.273297 1_554
Fe5 O11 1.937383 1_555
Fe5 O9 1.937383 1_555
Fe5 O0 1.947439 1_555
Fe5 O2 1.947439 1_555
Fe5 O25 2.273297 1_555
Fe5 O27 2.273297 1_555
Fe6 O12 1.937383 1_555
Fe6 O14 1.937383 1_554
Fe6 O5 1.947439 1_554
Fe6 O7 1.947439 1_555
Fe6 O28 2.273297 1_554
Fe6 O30 2.273297 1_555
Fe7 O13 1.937383 1_555
Fe7 O15 1.937383 1_555
Fe7 O6 1.947439 1_555
Fe7 O4 1.947439 1_555
Fe7 O31 2.273297 1_555
Fe7 O29 2.273297 1_555
Fe8 O16 1.866902 1_455
Fe8 O21 1.866902 1_455
Fe8 O34 1.909526 1_455
Fe8 O38 1.926188 1_555
Fe9 O17 1.866902 1_655
Fe9 O20 1.866902 1_655
Fe9 O35 1.909526 1_655
Fe9 O39 1.926188 1_555
Fe10 O18 1.866902 1_465
Fe10 O23 1.866902 1_465
Fe10 O32 1.909526 1_455
Fe10 O36 1.926188 1_555
Fe11 O22 1.866902 1_645
Fe11 O19 1.866902 1_645
Fe11 O33 1.909526 1_655
Fe11 O37 1.926188 1_555
Fe12 O30 1.866612 1_555
Fe12 O27 1.866612 1_555
Fe12 O36 1.910697 1_555
Fe12 O32 1.927349 1_555
Fe13 O31 1.866612 1_555
Fe13 O26 1.866612 1_555
Fe13 O37 1.910697 1_555
Fe13 O33 1.927349 1_555
Fe14 O25 1.866612 1_555
Fe14 O28 1.866612 1_555
Fe14 O38 1.910697 1_555
Fe14 O34 1.927349 1_555
Fe15 O29 1.866612 1_555
Fe15 O24 1.866612 1_555
Fe15 O39 1.910697 1_555
Fe15 O35 1.927349 1_555
O0 Sr6 2.586521 1_555
O0 Sr15 2.603576 1_555
O0 Sr11 2.639083 1_555
O0 Sr4 2.648499 1_555
O1 Sr7 2.586521 1_555
O1 Sr14 2.603576 1_555
O1 Sr10 2.639083 1_554
O1 Sr5 2.648499 1_554
O2 Sr4 2.586521 1_555
O2 Sr13 2.603576 1_565
O2 Sr9 2.639083 1_555
O2 Sr6 2.648499 1_555
O3 Sr5 2.586521 1_555
O3 Sr12 2.603576 1_545
O3 Sr8 2.639083 1_556
O3 Sr7 2.648499 1_556
O4 Sr2 2.586521 1_555
O4 Sr11 2.603576 1_555
O4 Sr15 2.639083 1_555
O4 Sr0 2.648499 1_555
O5 Sr3 2.586521 1_555
O5 Sr10 2.603576 1_555
O5 Sr14 2.639083 1_556
O5 Sr1 2.648499 1_556
O6 Sr0 2.586521 1_555
O6 Sr9 2.603576 1_545
O6 Sr13 2.639083 1_555
O6 Sr2 2.648499 1_555
O7 Sr1 2.586521 1_555
O7 Sr8 2.603576 1_565
O7 Sr12 2.639083 1_554
O7 Sr3 2.648499 1_554
O8 Sr12 2.610163 1_545
O8 Sr5 2.628217 1_455
O8 Sr7 2.636905 1_456
O8 Sr8 2.647420 1_556
O9 Sr13 2.610163 1_565
O9 Sr4 2.628217 1_655
O9 Sr6 2.636905 1_655
O9 Sr9 2.647420 1_555
O10 Sr14 2.610163 1_555
O10 Sr7 2.628217 1_455
O10 Sr5 2.636905 1_454
O10 Sr10 2.647420 1_554
O11 Sr15 2.610163 1_555
O11 Sr6 2.628217 1_655
O11 Sr4 2.636905 1_655
O11 Sr11 2.647420 1_555
O12 Sr8 2.610163 1_565
O12 Sr1 2.628217 1_655
O12 Sr3 2.636905 1_654
O12 Sr12 2.647420 1_554
O13 Sr9 2.610163 1_545
O13 Sr0 2.628217 1_455
O13 Sr2 2.636905 1_455
O13 Sr13 2.647420 1_555
O14 Sr10 2.610163 1_555
O14 Sr3 2.628217 1_655
O14 Sr1 2.636905 1_656
O14 Sr14 2.647420 1_556
O15 Sr11 2.610163 1_555
O15 Sr2 2.628217 1_455
O15 Sr0 2.636905 1_455
O15 Sr15 2.647420 1_555
O16 Sr0 2.532484 1_555
O16 Sr15 2.664531 1_555
O16 Sr15 2.845299 1_655
O16 Sr6 3.120035 1_655
O17 Sr1 2.532484 1_555
O17 Sr14 2.664531 1_555
O17 Sr14 2.845299 1_455
O17 Sr7 3.120035 1_455
O18 Sr2 2.532484 1_555
O18 Sr13 2.664531 1_555
O18 Sr13 2.845299 1_655
O18 Sr4 3.120035 1_645
O19 Sr3 2.532484 1_555
O19 Sr12 2.664531 1_555
O19 Sr12 2.845299 1_455
O19 Sr5 3.120035 1_465
O20 Sr4 2.532484 1_555
O20 Sr11 2.664531 1_555
O20 Sr11 2.845299 1_455
O20 Sr2 3.120035 1_455
O21 Sr5 2.532484 1_555
O21 Sr10 2.664531 1_555
O21 Sr10 2.845299 1_655
O21 Sr3 3.120035 1_655
O22 Sr6 2.532484 1_555
O22 Sr9 2.664531 1_555
O22 Sr9 2.845299 1_455
O22 Sr0 3.120035 1_465
O23 Sr7 2.532484 1_555
O23 Sr8 2.664531 1_555
O23 Sr8 2.845299 1_655
O23 Sr1 3.120035 1_645
O24 Sr8 2.533207 1_555
O24 Sr7 2.677895 1_555
O24 Sr7 2.831210 1_455
O24 Sr14 3.118325 1_555
O25 Sr9 2.533207 1_555
O25 Sr6 2.677895 1_555
O25 Sr6 2.831210 1_655
O25 Sr15 3.118325 1_555
O26 Sr10 2.533207 1_555
O26 Sr5 2.677895 1_555
O26 Sr5 2.831210 1_455
O26 Sr12 3.118325 1_545
O27 Sr11 2.533207 1_555
O27 Sr4 2.677895 1_555
O27 Sr4 2.831210 1_655
O27 Sr13 3.118325 1_565
O28 Sr12 2.533207 1_555
O28 Sr3 2.677895 1_555
O28 Sr3 2.831210 1_655
O28 Sr10 3.118325 1_555
O29 Sr13 2.533207 1_555
O29 Sr2 2.677895 1_555
O29 Sr2 2.831210 1_455
O29 Sr11 3.118325 1_555
O30 Sr14 2.533207 1_555
O30 Sr1 2.677895 1_555
O30 Sr1 2.831210 1_655
O30 Sr8 3.118325 1_565
O31 Sr15 2.533207 1_555
O31 Sr0 2.677895 1_555
O31 Sr0 2.831210 1_455
O31 Sr9 3.118325 1_545
O32 Sr1 2.438121 1_655
O32 Sr4 2.438121 1_655
O33 Sr0 2.438121 1_455
O33 Sr5 2.438121 1_455
O34 Sr6 2.438121 1_655
O34 Sr3 2.438121 1_655
O35 Sr7 2.438121 1_455
O35 Sr2 2.438121 1_455
O36 Sr13 2.439529 1_565
O36 Sr8 2.439529 1_565
O37 Sr9 2.439529 1_545
O37 Sr12 2.439529 1_545
O38 Sr15 2.439529 1_555
O38 Sr10 2.439529 1_555
O39 Sr14 2.439529 1_555
O39 Sr11 2.439529 1_555
