# generated using pymatgen
data_Li9Mn2Co5O16
_symmetry_space_group_name_H-M   'P 1'
_cell_length_a   6.43837300
_cell_length_b   6.47963473
_cell_length_c   7.85498350
_cell_angle_alpha   77.36538024
_cell_angle_beta   65.89405500
_cell_angle_gamma   71.63235633
_symmetry_Int_Tables_number   1
_chemical_formula_structural   Li9Mn2Co5O16
_chemical_formula_sum   'Li9 Mn2 Co5 O16'
_cell_volume   282.34260296
_cell_formula_units_Z   1
loop_
 _symmetry_equiv_pos_site_id
 _symmetry_equiv_pos_as_xyz
  1  'x, y, z'
loop_
 _atom_site_type_symbol
 _atom_site_label
 _atom_site_symmetry_multiplicity
 _atom_site_fract_x
 _atom_site_fract_y
 _atom_site_fract_z
 _atom_site_occupancy
  Li  Li0  1  0.31877900  0.69012100  0.55878100  1
  Li  Li1  1  0.80724600  0.17885300  0.06023200  1
  Li  Li2  1  0.43580600  0.56834100  0.18251200  1
  Li  Li3  1  0.93032600  0.06127600  0.69990800  1
  Li  Li4  1  0.56419400  0.43165900  0.81748800  1
  Li  Li5  1  0.06967400  0.93872400  0.30009200  1
  Li  Li6  1  0.68122100  0.30987900  0.44121900  1
  Li  Li7  1  0.19275400  0.82114700  0.93976800  1
  Li  Li8  1  0.50000000  0.00000000  0.00000000  1
  Mn  Mn0  1  0.86811200  0.62965200  0.87810700  1
  Mn  Mn1  1  0.13188800  0.37034800  0.12189300  1
  Co  Co0  1  0.37743700  0.12617400  0.36799400  1
  Co  Co1  1  0.00000000  0.50000000  0.50000000  1
  Co  Co2  1  0.62256300  0.87382600  0.63200600  1
  Co  Co3  1  0.25128100  0.24019700  0.75783700  1
  Co  Co4  1  0.74871900  0.75980300  0.24216300  1
  O  O0  1  0.20429200  0.50920500  0.86005300  1
  O  O1  1  0.70292600  0.02175500  0.34367500  1
  O  O2  1  0.32262200  0.39816600  0.46685100  1
  O  O3  1  0.84838900  0.88832800  0.96259300  1
  O  O4  1  0.44818000  0.28705600  0.09636500  1
  O  O5  1  0.95292400  0.76380600  0.61739100  1
  O  O6  1  0.58024500  0.14884300  0.70584400  1
  O  O7  1  0.07604900  0.64923200  0.21934400  1
  O  O8  1  0.41975500  0.85115700  0.29415600  1
  O  O9  1  0.92395100  0.35076800  0.78065600  1
  O  O10  1  0.55182000  0.71294400  0.90363500  1
  O  O11  1  0.04707600  0.23619400  0.38260900  1
  O  O12  1  0.67737800  0.60183400  0.53314900  1
  O  O13  1  0.15161100  0.11167200  0.03740700  1
  O  O14  1  0.79570800  0.49079500  0.13994700  1
  O  O15  1  0.29707400  0.97824500  0.65632500  1
loop_
_geom_bond_atom_site_label_1
_geom_bond_atom_site_label_2
_geom_bond_distance
_geom_bond_site_symmetry_2
Li0 O8 2.051089 1_555
Li0 O15 2.113280 1_555
Li0 O5 2.118939 1_455
Li0 O12 2.129932 1_555
Li0 O2 2.157389 1_555
Li0 O0 2.328926 1_555
Li1 O13 2.058778 1_655
Li1 O3 2.086519 1_544
Li1 O4 2.108584 1_555
Li1 O1 2.159227 1_555
Li1 O9 2.176606 1_554
Li1 O14 2.214537 1_555
Li2 O4 2.046998 1_555
Li2 O14 2.107241 1_555
Li2 O10 2.107385 1_554
Li2 O7 2.115955 1_555
Li2 O8 2.155834 1_555
Li2 O2 2.198835 1_555
Li3 O3 2.064839 1_545
Li3 O9 2.091249 1_555
Li3 O5 2.109339 1_545
Li3 O6 2.127005 1_555
Li3 O15 2.145190 1_645
Li3 O11 2.415031 1_655
Li4 O10 2.046998 1_555
Li4 O0 2.107241 1_555
Li4 O4 2.107385 1_556
Li4 O9 2.115955 1_555
Li4 O6 2.155834 1_555
Li4 O12 2.198835 1_555
Li5 O13 2.064839 1_565
Li5 O7 2.091249 1_555
Li5 O11 2.109339 1_565
Li5 O8 2.127005 1_555
Li5 O1 2.145190 1_465
Li5 O5 2.415031 1_455
Li6 O6 2.051089 1_555
Li6 O1 2.113280 1_555
Li6 O11 2.118939 1_655
Li6 O2 2.129932 1_555
Li6 O12 2.157389 1_555
Li6 O14 2.328926 1_555
Li7 O3 2.058778 1_455
Li7 O13 2.086519 1_566
Li7 O10 2.108584 1_555
Li7 O15 2.159227 1_555
Li7 O7 2.176606 1_556
Li7 O0 2.214537 1_555
Li8 O4 2.040215 1_555
Li8 O10 2.040215 1_544
Li8 O3 2.042787 1_544
Li8 O13 2.042787 1_555
Li8 O8 2.213583 1_545
Li8 O6 2.213583 1_554
Mn0 O10 1.870714 1_555
Mn0 O3 1.884030 1_555
Mn0 O5 1.963337 1_555
Mn0 O14 1.982086 1_556
Mn0 O9 1.987861 1_555
Mn0 O0 2.011752 1_655
Mn1 O4 1.870714 1_555
Mn1 O13 1.884030 1_555
Mn1 O11 1.963337 1_555
Mn1 O0 1.982086 1_554
Mn1 O7 1.987861 1_555
Mn1 O14 2.011752 1_455
Co0 O8 1.898226 1_545
Co0 O1 1.929209 1_555
Co0 O2 1.953577 1_555
Co0 O11 1.981462 1_555
Co0 O4 2.092602 1_555
Co0 O15 2.172925 1_545
Co1 O2 1.894033 1_555
Co1 O12 1.894033 1_455
Co1 O11 1.999700 1_555
Co1 O5 1.999700 1_455
Co1 O9 2.125772 1_455
Co1 O7 2.125772 1_555
Co2 O6 1.898226 1_565
Co2 O15 1.929209 1_555
Co2 O12 1.953577 1_555
Co2 O5 1.981462 1_555
Co2 O10 2.092602 1_555
Co2 O1 2.172925 1_565
Co3 O6 1.900562 1_555
Co3 O15 1.920520 1_545
Co3 O9 1.944970 1_455
Co3 O0 1.963663 1_555
Co3 O13 2.076890 1_556
Co3 O2 2.213211 1_555
Co4 O8 1.900562 1_555
Co4 O1 1.920520 1_565
Co4 O7 1.944970 1_655
Co4 O14 1.963663 1_555
Co4 O3 2.076890 1_554
Co4 O12 2.213211 1_555
