# generated using pymatgen
data_Mg7Si4
_symmetry_space_group_name_H-M   'P 1'
_cell_length_a   4.28780100
_cell_length_b   6.25405217
_cell_length_c   16.84677798
_cell_angle_alpha   99.01575717
_cell_angle_beta   93.76685417
_cell_angle_gamma   89.79465628
_symmetry_Int_Tables_number   1
_chemical_formula_structural   Mg7Si4
_chemical_formula_sum   'Mg14 Si8'
_cell_volume   445.20973204
_cell_formula_units_Z   2
loop_
 _symmetry_equiv_pos_site_id
 _symmetry_equiv_pos_as_xyz
  1  'x, y, z'
loop_
 _atom_site_type_symbol
 _atom_site_label
 _atom_site_symmetry_multiplicity
 _atom_site_fract_x
 _atom_site_fract_y
 _atom_site_fract_z
 _atom_site_occupancy
  Mg  Mg0  1  0.42551900  0.85989300  0.86181400  1
  Mg  Mg1  1  0.90457900  0.12889500  0.77553100  1
  Mg  Mg2  1  0.34620000  0.10700800  0.53615200  1
  Mg  Mg3  1  0.38693000  0.40248000  0.70336400  1
  Mg  Mg4  1  0.43113700  0.37888800  0.88839800  1
  Mg  Mg5  1  0.28421600  0.54561800  0.33615700  1
  Mg  Mg6  1  0.28913100  0.02854100  0.29749600  1
  Mg  Mg7  1  0.34747400  0.60904400  0.53630700  1
  Mg  Mg8  1  0.96152100  0.65912700  0.97898700  1
  Mg  Mg9  1  0.95532100  0.15771000  0.97286200  1
  Mg  Mg10  1  0.48637700  0.94386900  0.06958300  1
  Mg  Mg11  1  0.47886200  0.46388800  0.10687800  1
  Mg  Mg12  1  0.81579900  0.83053700  0.43329900  1
  Mg  Mg13  1  0.81533900  0.31413200  0.42669000  1
  Si  Si0  1  0.00224500  0.16799500  0.14014200  1
  Si  Si1  1  0.91570600  0.56783700  0.81159800  1
  Si  Si2  1  0.37985600  0.92487100  0.67811200  1
  Si  Si3  1  0.76745200  0.71973100  0.26687100  1
  Si  Si4  1  0.00447900  0.77604900  0.14515500  1
  Si  Si5  1  0.88336400  0.71989100  0.68510800  1
  Si  Si6  1  0.85929200  0.37818000  0.59182700  1
  Si  Si7  1  0.75923700  0.32324800  0.26137100  1
loop_
_geom_bond_atom_site_label_1
_geom_bond_atom_site_label_2
_geom_bond_distance
_geom_bond_site_symmetry_2
Mg0 Si1 2.851622 1_455
Mg0 Si1 2.862061 1_555
Mg0 Si2 3.177288 1_555
Mg1 Si1 2.716941 1_555
Mg1 Si5 2.762982 1_545
Mg1 Si2 2.870391 1_645
Mg1 Si2 2.874509 1_545
Mg2 Si2 2.800936 1_545
Mg2 Si6 2.801435 1_455
Mg2 Si6 2.802344 1_555
Mg3 Si6 2.833154 1_455
Mg3 Si6 2.839799 1_555
Mg3 Si1 2.890472 1_455
Mg3 Si1 2.901282 1_555
Mg3 Si2 2.950375 1_545
Mg3 Si5 2.961538 1_455
Mg3 Si5 2.978904 1_555
Mg4 Si1 2.835410 1_455
Mg4 Si1 2.870086 1_555
Mg5 Si7 2.727215 1_555
Mg5 Si3 2.738450 1_455
Mg5 Si3 2.752048 1_555
Mg5 Si7 2.772926 1_455
Mg6 Si3 2.828584 1_545
Mg6 Si7 2.893086 1_555
Mg6 Si3 2.926896 1_445
Mg6 Si4 2.983624 1_545
Mg6 Si7 3.011585 1_455
Mg6 Si0 3.096706 1_555
Mg7 Si6 2.811850 1_555
Mg7 Si6 2.836067 1_455
Mg7 Si2 2.847332 1_555
Mg8 Si4 2.774329 1_656
Mg8 Si1 2.782118 1_555
Mg9 Si0 2.802722 1_656
Mg10 Si0 2.724878 1_665
Mg10 Si0 2.732783 1_565
Mg10 Si4 2.772736 1_655
Mg10 Si4 2.787827 1_555
Mg11 Si4 2.848492 1_555
Mg11 Si0 2.901303 1_555
Mg11 Si4 2.958473 1_655
Mg11 Si0 2.984086 1_655
Mg11 Si7 3.048243 1_555
Mg11 Si3 3.095266 1_555
Mg12 Si3 2.774900 1_555
Mg13 Si6 2.741903 1_555
Mg13 Si7 2.789174 1_555
Si0 Si7 2.418757 1_455
Si0 Si4 2.465859 1_545
Si1 Si5 2.461671 1_555
Si2 Si5 2.507833 1_455
Si2 Si5 2.512452 1_555
Si3 Si4 2.421644 1_655
Si3 Si7 2.467095 1_555
Si5 Si6 2.444388 1_555
