# generated using pymatgen
data_CaNb2(PO5)2
_symmetry_space_group_name_H-M   'P 1'
_cell_length_a   6.01123800
_cell_length_b   6.52972700
_cell_length_c   6.52972700
_cell_angle_alpha   90.00000000
_cell_angle_beta   90.00000000
_cell_angle_gamma   90.00000000
_symmetry_Int_Tables_number   1
_chemical_formula_structural   CaNb2(PO5)2
_chemical_formula_sum   'Ca1 Nb2 P2 O10'
_cell_volume   256.30316653
_cell_formula_units_Z   1
loop_
 _symmetry_equiv_pos_site_id
 _symmetry_equiv_pos_as_xyz
  1  'x, y, z'
loop_
 _atom_site_type_symbol
 _atom_site_label
 _atom_site_symmetry_multiplicity
 _atom_site_fract_x
 _atom_site_fract_y
 _atom_site_fract_z
 _atom_site_occupancy
  Ca  Ca0  1  0.00000000  0.25000000  0.75000000  1
  Nb  Nb0  1  0.26427100  0.75000000  0.75000000  1
  Nb  Nb1  1  0.73572900  0.25000000  0.25000000  1
  P  P0  1  0.50000000  0.75000000  0.25000000  1
  P  P1  1  0.50000000  0.25000000  0.75000000  1
  O  O0  1  0.64749400  0.55646000  0.25000000  1
  O  O1  1  0.64749400  0.94354000  0.25000000  1
  O  O2  1  0.02991700  0.25000000  0.25000000  1
  O  O3  1  0.97008300  0.75000000  0.75000000  1
  O  O4  1  0.66398100  0.25000000  0.93135700  1
  O  O5  1  0.66398100  0.25000000  0.56864300  1
  O  O6  1  0.35250600  0.75000000  0.44354000  1
  O  O7  1  0.33601900  0.06864300  0.75000000  1
  O  O8  1  0.33601900  0.43135700  0.75000000  1
  O  O9  1  0.35250600  0.75000000  0.05646000  1
loop_
_geom_bond_atom_site_label_1
_geom_bond_atom_site_label_2
_geom_bond_distance
_geom_bond_site_symmetry_2
Ca0 O7 2.341434 1_555
Ca0 O8 2.341434 1_555
Ca0 O4 2.341434 1_455
Ca0 O5 2.341434 1_455
Nb0 O3 1.768434 1_455
Nb0 O6 2.070200 1_555
Nb0 O9 2.070200 1_556
Nb0 O7 2.124883 1_565
Nb0 O8 2.124883 1_555
Nb1 O2 1.768434 1_655
Nb1 O1 2.070200 1_545
Nb1 O0 2.070200 1_555
Nb1 O4 2.124883 1_554
Nb1 O5 2.124883 1_555
O0 P0 1.543760 1_555
O1 P0 1.543760 1_555
O4 P1 1.540785 1_555
O5 P1 1.540785 1_555
O6 P0 1.543760 1_555
O7 P1 1.540785 1_555
O8 P1 1.540785 1_555
O9 P0 1.543760 1_555
