# generated using pymatgen
data_Na3WO4
_symmetry_space_group_name_H-M   'P 1'
_cell_length_a   5.67053000
_cell_length_b   6.22390600
_cell_length_c   7.49801300
_cell_angle_alpha   90.00000000
_cell_angle_beta   90.00000000
_cell_angle_gamma   90.00000000
_symmetry_Int_Tables_number   1
_chemical_formula_structural   Na3WO4
_chemical_formula_sum   'Na6 W2 O8'
_cell_volume   264.62621579
_cell_formula_units_Z   2
loop_
 _symmetry_equiv_pos_site_id
 _symmetry_equiv_pos_as_xyz
  1  'x, y, z'
loop_
 _atom_site_type_symbol
 _atom_site_label
 _atom_site_symmetry_multiplicity
 _atom_site_fract_x
 _atom_site_fract_y
 _atom_site_fract_z
 _atom_site_occupancy
  Na  Na0  1  0.49920000  0.34225100  0.00000000  1
  Na  Na1  1  0.99920000  0.65774900  0.50000000  1
  Na  Na2  1  0.50101900  0.83070900  0.74450900  1
  Na  Na3  1  0.00101900  0.16929100  0.75549100  1
  Na  Na4  1  0.00101900  0.16929100  0.24450900  1
  Na  Na5  1  0.50101900  0.83070900  0.25549100  1
  W  W0  1  0.01269200  0.67446300  0.00000000  1
  W  W1  1  0.51269200  0.32553700  0.50000000  1
  O  O0  1  0.34506300  0.69487300  0.00000000  1
  O  O1  1  0.84506300  0.30512700  0.50000000  1
  O  O2  1  0.90003200  0.38845800  0.00000000  1
  O  O3  1  0.40003200  0.61154200  0.50000000  1
  O  O4  1  0.92003700  0.80176300  0.78157700  1
  O  O5  1  0.42003700  0.19823700  0.71842300  1
  O  O6  1  0.42003700  0.19823700  0.28157700  1
  O  O7  1  0.92003700  0.80176300  0.21842300  1
loop_
_geom_bond_atom_site_label_1
_geom_bond_atom_site_label_2
_geom_bond_distance
_geom_bond_site_symmetry_2
Na0 O2 2.291052 1_555
Na0 O5 2.337171 1_554
Na0 O6 2.337171 1_555
Na0 O0 2.362327 1_555
Na1 O3 2.291052 1_655
Na1 O4 2.337171 1_555
Na1 O7 2.337171 1_555
Na1 O1 2.362327 1_555
Na2 O0 2.273025 1_556
Na2 O5 2.341282 1_565
Na2 O3 2.355787 1_555
Na2 O4 2.399029 1_555
Na3 O1 2.273025 1_455
Na3 O4 2.341282 1_445
Na3 O2 2.355787 1_456
Na3 O5 2.399029 1_555
Na4 O1 2.273025 1_455
Na4 O7 2.341282 1_445
Na4 O2 2.355787 1_455
Na4 O6 2.399029 1_555
Na5 O0 2.273025 1_555
Na5 O6 2.341282 1_565
Na5 O3 2.355787 1_555
Na5 O7 2.399029 1_555
O0 W0 1.888996 1_555
O1 W1 1.888996 1_555
O2 W0 1.891233 1_655
O3 W1 1.891233 1_555
O4 W0 1.893668 1_656
O5 W1 1.893668 1_555
O6 W1 1.893668 1_555
O7 W0 1.893668 1_655
