# generated using pymatgen
data_LaNiSn
_symmetry_space_group_name_H-M   'P 1'
_cell_length_a   4.74172563
_cell_length_b   7.21869104
_cell_length_c   7.85287540
_cell_angle_alpha   90.00000000
_cell_angle_beta   90.00000000
_cell_angle_gamma   90.00000000
_symmetry_Int_Tables_number   1
_chemical_formula_structural   LaNiSn
_chemical_formula_sum   'La4 Ni4 Sn4'
_cell_volume   268.79648292
_cell_formula_units_Z   4
loop_
 _symmetry_equiv_pos_site_id
 _symmetry_equiv_pos_as_xyz
  1  'x, y, z'
loop_
 _atom_site_type_symbol
 _atom_site_label
 _atom_site_symmetry_multiplicity
 _atom_site_fract_x
 _atom_site_fract_y
 _atom_site_fract_z
 _atom_site_occupancy
  La  La0  1  0.25000000  0.81453594  0.46459941  1
  La  La1  1  0.75000000  0.18546406  0.53540059  1
  La  La2  1  0.75000000  0.31453594  0.03540059  1
  La  La3  1  0.25000000  0.68546406  0.96459941  1
  Ni  Ni0  1  0.75000000  0.57403643  0.32825954  1
  Ni  Ni1  1  0.75000000  0.92596357  0.82825954  1
  Ni  Ni2  1  0.25000000  0.07403643  0.17174046  1
  Ni  Ni3  1  0.25000000  0.42596357  0.67174046  1
  Sn  Sn0  1  0.75000000  0.60410924  0.67811003  1
  Sn  Sn1  1  0.75000000  0.89589076  0.17811003  1
  Sn  Sn2  1  0.25000000  0.10410924  0.82188997  1
  Sn  Sn3  1  0.25000000  0.39589076  0.32188997  1
loop_
_geom_bond_atom_site_label_1
_geom_bond_atom_site_label_2
_geom_bond_distance
_geom_bond_site_symmetry_2
La0 Ni2 2.966158 1_565
La0 Ni0 3.127510 1_455
La0 Ni0 3.127510 1_555
La0 Sn3 3.223171 1_555
La0 Ni3 3.242520 1_555
La0 Sn0 3.277133 1_455
La0 Sn0 3.277133 1_555
La0 Sn1 3.320742 1_555
La0 Sn1 3.320742 1_455
La0 Sn2 3.498829 1_565
La1 Ni1 2.966158 1_545
La1 Ni3 3.127510 1_655
La1 Ni3 3.127510 1_555
La1 Sn0 3.223171 1_555
La1 Ni0 3.242520 1_555
La1 Sn3 3.277133 1_555
La1 Sn3 3.277133 1_655
La1 Sn2 3.320742 1_655
La1 Sn2 3.320742 1_555
La1 Sn1 3.498829 1_545
La2 Ni0 2.966158 1_555
La2 Ni2 3.127510 1_655
La2 Ni2 3.127510 1_555
La2 Sn1 3.223171 1_545
La2 Ni1 3.242520 1_544
La2 Sn2 3.277133 1_654
La2 Sn2 3.277133 1_554
La2 Sn3 3.320742 1_555
La2 Sn3 3.320742 1_655
La2 Sn0 3.498829 1_554
La3 Ni3 2.966158 1_555
La3 Ni1 3.127510 1_555
La3 Ni1 3.127510 1_455
La3 Sn2 3.223171 1_565
La3 Ni2 3.242520 1_566
La3 Sn1 3.277133 1_556
La3 Sn1 3.277133 1_456
La3 Sn0 3.320742 1_455
La3 Sn0 3.320742 1_555
La3 Sn3 3.498829 1_556
Ni0 Sn1 2.605441 1_555
Ni0 Sn3 2.697635 1_555
Ni0 Sn3 2.697635 1_655
Ni0 Sn0 2.755896 1_555
Ni1 Sn0 2.605441 1_555
Ni1 Sn2 2.697635 1_565
Ni1 Sn2 2.697635 1_665
Ni1 Sn1 2.755896 1_556
Ni2 Sn3 2.605441 1_555
Ni2 Sn1 2.697635 1_545
Ni2 Sn1 2.697635 1_445
Ni2 Sn2 2.755896 1_554
Ni3 Sn2 2.605441 1_555
Ni3 Sn0 2.697635 1_555
Ni3 Sn0 2.697635 1_455
Ni3 Sn3 2.755896 1_555
