# generated using pymatgen
data_TiFeO4
_symmetry_space_group_name_H-M   'P 1'
_cell_length_a   3.82202966
_cell_length_b   9.65203662
_cell_length_c   7.59234000
_cell_angle_alpha   89.99980788
_cell_angle_beta   90.00034816
_cell_angle_gamma   89.99996542
_symmetry_Int_Tables_number   1
_chemical_formula_structural   TiFeO4
_chemical_formula_sum   'Ti4 Fe4 O16'
_cell_volume   280.08423304
_cell_formula_units_Z   4
loop_
 _symmetry_equiv_pos_site_id
 _symmetry_equiv_pos_as_xyz
  1  'x, y, z'
loop_
 _atom_site_type_symbol
 _atom_site_label
 _atom_site_symmetry_multiplicity
 _atom_site_fract_x
 _atom_site_fract_y
 _atom_site_fract_z
 _atom_site_occupancy
  Ti  Ti0  1  0.99999800  0.24690100  0.75474600  1
  Ti  Ti1  1  0.49999800  0.75495300  0.50366000  1
  Ti  Ti2  1  0.00000000  0.25501700  0.24636400  1
  Ti  Ti3  1  0.50000100  0.74690700  0.99521100  1
  Fe  Fe0  1  0.00000000  0.00785400  0.49861000  1
  Fe  Fe1  1  0.50000100  0.50788200  0.25139500  1
  Fe  Fe2  1  0.50000000  0.49025100  0.74897000  1
  Fe  Fe3  1  0.99999900  0.99026800  0.00105600  1
  O  O0  1  0.00000000  0.45171700  0.74854300  1
  O  O1  1  0.50000000  0.95997600  0.49828500  1
  O  O2  1  0.00000000  0.46004600  0.25170300  1
  O  O3  1  0.50000100  0.95172600  0.00146800  1
  O  O4  1  0.00000000  0.04187100  0.74164100  1
  O  O5  1  0.50000400  0.54598200  0.49182000  1
  O  O6  1  0.99999700  0.04604100  0.25822700  1
  O  O7  1  0.50000100  0.54187100  0.00831300  1
  O  O8  1  0.00000100  0.80402500  0.50080600  1
  O  O9  1  0.50000000  0.30414900  0.24916300  1
  O  O10  1  0.00000200  0.78804300  0.99749600  1
  O  O11  1  0.49999900  0.28801700  0.75252400  1
  O  O12  1  0.50000200  0.70084500  0.74742600  1
  O  O13  1  0.99999600  0.20741700  0.49883900  1
  O  O14  1  0.50000400  0.70735900  0.25114000  1
  O  O15  1  0.99999800  0.20088300  0.00259400  1
loop_
_geom_bond_atom_site_label_1
_geom_bond_atom_site_label_2
_geom_bond_distance
_geom_bond_site_symmetry_2
Fe0 O6 1.861915 1_455
Fe0 O4 1.874160 1_555
Fe0 O13 1.926190 1_455
Fe0 O1 1.966097 1_545
Fe0 O1 1.966098 1_445
Fe0 O8 1.967436 1_545
Fe1 O5 1.862064 1_555
Fe1 O7 1.874491 1_555
Fe1 O14 1.925360 1_555
Fe1 O2 1.965998 1_655
Fe1 O2 1.966006 1_555
Fe1 O9 1.966511 1_555
Fe2 O0 1.946875 1_655
Fe2 O0 1.946875 1_555
Fe2 O11 1.952156 1_555
Fe2 O5 2.025117 1_555
Fe2 O7 2.031081 1_556
Fe2 O12 2.032695 1_555
Fe3 O3 1.946882 1_555
Fe3 O3 1.946897 1_655
Fe3 O10 1.952070 1_654
Fe3 O6 2.025382 1_565
Fe3 O4 2.031567 1_664
Fe3 O15 2.032897 1_565
O0 Ti0 1.977452 1_455
O1 Ti1 1.979310 1_555
O2 Ti2 1.979363 1_555
O3 Ti3 1.977491 1_554
O4 Ti0 1.981457 1_455
O5 Ti1 2.018998 1_555
O6 Ti2 2.019054 1_655
O7 Ti3 1.981513 1_554
O8 Ti1 1.968944 1_555
O8 Ti1 1.968967 1_455
O9 Ti2 1.969090 1_655
O9 Ti2 1.969091 1_555
O10 Ti3 1.951899 1_555
O10 Ti3 1.951907 1_455
O11 Ti0 1.951855 1_555
O11 Ti0 1.951863 1_455
O12 Ti1 1.923027 1_555
O12 Ti3 1.933090 1_555
O13 Ti2 1.971165 1_655
O13 Ti0 1.979957 1_555
O14 Ti1 1.971486 1_555
O14 Ti3 1.980238 1_554
O15 Ti2 1.923128 1_655
O15 Ti0 1.933455 1_554
