# generated using pymatgen
data_MoH8(NO2)2
_symmetry_space_group_name_H-M   'P 1'
_cell_length_a   7.20033397
_cell_length_b   7.20033397
_cell_length_c   7.84760284
_cell_angle_alpha   66.11480528
_cell_angle_beta   66.11480528
_cell_angle_gamma   55.17528744
_symmetry_Int_Tables_number   1
_chemical_formula_structural   MoH8(NO2)2
_chemical_formula_sum   'Mo2 H16 N4 O8'
_cell_volume   297.09963636
_cell_formula_units_Z   2
loop_
 _symmetry_equiv_pos_site_id
 _symmetry_equiv_pos_as_xyz
  1  'x, y, z'
loop_
 _atom_site_type_symbol
 _atom_site_label
 _atom_site_symmetry_multiplicity
 _atom_site_fract_x
 _atom_site_fract_y
 _atom_site_fract_z
 _atom_site_occupancy
  Mo  Mo0  1  0.83041700  0.83041700  0.72150700  1
  Mo  Mo1  1  0.16958300  0.16958300  0.27849300  1
  H  H0  1  0.56723400  0.56723400  0.79776600  1
  H  H1  1  0.43276600  0.43276600  0.20223400  1
  H  H2  1  0.42374800  0.42374800  0.84976300  1
  H  H3  1  0.57625200  0.57625200  0.15023700  1
  H  H4  1  0.59890500  0.34800400  0.34973400  1
  H  H5  1  0.65199600  0.40109500  0.65026600  1
  H  H6  1  0.40109500  0.65199600  0.65026600  1
  H  H7  1  0.34800400  0.59890500  0.34973400  1
  H  H8  1  0.86189400  0.86189400  0.09421700  1
  H  H9  1  0.13810600  0.13810600  0.90578300  1
  H  H10  1  0.33464700  0.08617600  0.69230900  1
  H  H11  1  0.91382400  0.66535300  0.30769100  1
  H  H12  1  0.66535300  0.91382400  0.30769100  1
  H  H13  1  0.08617600  0.33464700  0.69230900  1
  H  H14  1  0.07968800  0.07968800  0.75200300  1
  H  H15  1  0.92031200  0.92031200  0.24799700  1
  N  N0  1  0.50952900  0.50952900  0.73710400  1
  N  N1  1  0.49047100  0.49047100  0.26289600  1
  N  N2  1  0.84094000  0.84094000  0.24002200  1
  N  N3  1  0.15906000  0.15906000  0.75997800  1
  O  O0  1  0.92182300  0.92182300  0.84207800  1
  O  O1  1  0.07817700  0.07817700  0.15792200  1
  O  O2  1  0.36218500  0.92116700  0.42437400  1
  O  O3  1  0.07883300  0.63781500  0.57562600  1
  O  O4  1  0.63781500  0.07883300  0.57562600  1
  O  O5  1  0.92116700  0.36218500  0.42437400  1
  O  O6  1  0.67640000  0.67640000  0.89199800  1
  O  O7  1  0.32360000  0.32360000  0.10800200  1
loop_
_geom_bond_atom_site_label_1
_geom_bond_atom_site_label_2
_geom_bond_distance
_geom_bond_site_symmetry_2
Mo0 O3 1.796524 1_655
Mo0 O4 1.796524 1_565
Mo0 O6 1.803125 1_555
Mo0 O0 1.806918 1_555
Mo1 O5 1.796524 1_455
Mo1 O2 1.796524 1_545
Mo1 O7 1.803125 1_555
Mo1 O1 1.806918 1_555
H0 N0 1.043757 1_555
H1 N1 1.043757 1_555
H2 N0 1.046862 1_555
H3 N1 1.046862 1_555
H4 N1 1.037445 1_555
H5 N0 1.037445 1_555
H6 N0 1.037445 1_555
H7 N1 1.037445 1_555
H8 N2 1.049362 1_555
H9 N3 1.049362 1_555
H10 N3 1.039241 1_555
H11 N2 1.039241 1_555
H12 N2 1.039241 1_555
H13 N3 1.039241 1_555
H14 N3 1.043132 1_555
H15 N2 1.043132 1_555
