# generated using pymatgen
data_CsMg14Al
_symmetry_space_group_name_H-M   'P 1'
_cell_length_a   6.50571334
_cell_length_b   6.50571279
_cell_length_c   10.81436814
_cell_angle_alpha   90.00000000
_cell_angle_beta   90.00000000
_cell_angle_gamma   120.00000278
_symmetry_Int_Tables_number   1
_chemical_formula_structural   CsMg14Al
_chemical_formula_sum   'Cs1 Mg14 Al1'
_cell_volume   396.38898611
_cell_formula_units_Z   1
loop_
 _symmetry_equiv_pos_site_id
 _symmetry_equiv_pos_as_xyz
  1  'x, y, z'
loop_
 _atom_site_type_symbol
 _atom_site_label
 _atom_site_symmetry_multiplicity
 _atom_site_fract_x
 _atom_site_fract_y
 _atom_site_fract_z
 _atom_site_occupancy
  Cs  Cs0  1  0.16666700  0.33333300  0.62500000  1
  Mg  Mg0  1  0.16101149  0.83050524  0.12500000  1
  Mg  Mg1  1  0.17213056  0.83606478  0.62500000  1
  Mg  Mg2  1  0.66949476  0.33898851  0.12500000  1
  Mg  Mg3  1  0.66393522  0.32786944  0.62500000  1
  Mg  Mg4  1  0.66949476  0.83050524  0.12500000  1
  Mg  Mg5  1  0.66393522  0.83606478  0.62500000  1
  Mg  Mg6  1  0.33662019  0.16337981  0.35481335  1
  Mg  Mg7  1  0.33662019  0.16337981  0.89518665  1
  Mg  Mg8  1  0.33662019  0.67324139  0.35481335  1
  Mg  Mg9  1  0.33662019  0.67324139  0.89518665  1
  Mg  Mg10  1  0.82675861  0.16337981  0.35481335  1
  Mg  Mg11  1  0.82675861  0.16337981  0.89518665  1
  Mg  Mg12  1  0.83333300  0.66666700  0.38008448  1
  Mg  Mg13  1  0.83333300  0.66666700  0.86991552  1
  Al  Al0  1  0.16666700  0.33333300  0.12500000  1
loop_
_geom_bond_atom_site_label_1
_geom_bond_atom_site_label_2
_geom_bond_distance
_geom_bond_site_symmetry_2
Cs0 Mg1 3.253002 1_555
Cs0 Mg5 3.253002 1_555
Cs0 Mg5 3.253002 1_445
Cs0 Mg1 3.253002 1_545
Cs0 Mg3 3.253002 1_455
Cs0 Mg3 3.253002 1_555
Cs0 Mg6 3.493563 1_555
Cs0 Mg7 3.493563 1_555
Cs0 Mg8 3.493569 1_555
Cs0 Mg9 3.493569 1_555
Cs0 Mg10 3.493569 1_455
Cs0 Mg11 3.493569 1_455
Mg0 Mg8 3.114079 1_555
Mg0 Mg9 3.114079 1_554
Mg0 Mg7 3.114086 1_564
Mg0 Mg6 3.114086 1_565
Mg0 Mg2 3.197667 1_455
Mg0 Mg4 3.197667 1_455
Mg0 Mg2 3.308046 1_565
Mg0 Mg4 3.308046 1_555
Mg0 Mg13 3.319356 1_454
Mg0 Mg12 3.319356 1_455
Mg1 Mg3 3.199540 1_565
Mg1 Mg5 3.199540 1_555
Mg1 Mg12 3.264770 1_455
Mg1 Mg13 3.264770 1_455
Mg1 Mg3 3.306173 1_455
Mg1 Mg5 3.306173 1_455
Mg1 Mg8 3.455183 1_555
Mg1 Mg9 3.455183 1_555
Mg1 Mg6 3.455189 1_565
Mg1 Mg7 3.455189 1_565
Mg2 Mg7 3.114086 1_554
Mg2 Mg6 3.114086 1_555
Mg2 Mg4 3.197667 1_555
Mg2 Mg4 3.308046 1_545
Mg3 Mg5 3.199540 1_545
Mg3 Mg5 3.306173 1_555
Mg3 Mg6 3.455189 1_555
Mg3 Mg7 3.455189 1_555
Mg4 Mg8 3.114086 1_555
Mg4 Mg9 3.114086 1_554
Mg5 Mg8 3.455189 1_555
Mg5 Mg9 3.455189 1_555
Mg6 Mg8 3.188700 1_545
Mg6 Mg8 3.317013 1_555
Mg7 Mg9 3.188700 1_545
Mg7 Mg9 3.317013 1_555
Mg10 Mg2 3.114079 1_555
Mg10 Mg4 3.114086 1_545
Mg10 Mg8 3.188700 1_545
Mg10 Mg6 3.188700 1_555
Mg10 Mg12 3.264527 1_555
Mg10 Mg12 3.264527 1_545
Mg10 Mg8 3.317013 1_655
Mg10 Mg6 3.317013 1_655
Mg10 Mg3 3.455183 1_555
Mg10 Mg5 3.455189 1_545
Mg11 Mg2 3.114079 1_556
Mg11 Mg4 3.114086 1_546
Mg11 Mg9 3.188700 1_545
Mg11 Mg7 3.188700 1_555
Mg11 Mg13 3.264527 1_555
Mg11 Mg13 3.264527 1_545
Mg11 Mg9 3.317013 1_655
Mg11 Mg7 3.317013 1_655
Mg11 Mg3 3.455183 1_555
Mg11 Mg5 3.455189 1_545
Mg12 Mg6 3.264527 1_555
Mg12 Mg6 3.264527 1_665
Mg12 Mg8 3.264527 1_655
Mg12 Mg8 3.264527 1_555
Mg12 Mg5 3.264764 1_555
Mg12 Mg3 3.264770 1_555
Mg12 Mg4 3.319349 1_555
Mg12 Mg2 3.319355 1_555
Mg13 Mg7 3.264527 1_555
Mg13 Mg7 3.264527 1_665
Mg13 Mg9 3.264527 1_655
Mg13 Mg9 3.264527 1_555
Mg13 Mg5 3.264764 1_555
Mg13 Mg3 3.264770 1_555
Mg13 Mg4 3.319349 1_556
Mg13 Mg2 3.319355 1_556
Al0 Mg7 3.137538 1_554
Al0 Mg6 3.137538 1_555
Al0 Mg8 3.137545 1_555
Al0 Mg9 3.137545 1_554
Al0 Mg10 3.137545 1_455
Al0 Mg11 3.137545 1_454
Al0 Mg0 3.253012 1_555
Al0 Mg4 3.253012 1_445
Al0 Mg4 3.253012 1_555
Al0 Mg0 3.253012 1_545
Al0 Mg2 3.253013 1_455
Al0 Mg2 3.253013 1_555
