# generated using pymatgen
data_CeZr4O10
_symmetry_space_group_name_H-M   'P 1'
_cell_length_a   13.32896707
_cell_length_b   13.32896707
_cell_length_c   13.32896707
_cell_angle_alpha   164.12364960
_cell_angle_beta   164.12364960
_cell_angle_gamma   22.52557604
_symmetry_Int_Tables_number   1
_chemical_formula_structural   CeZr4O10
_chemical_formula_sum   'Ce1 Zr4 O10'
_cell_volume   177.18201091
_cell_formula_units_Z   1
loop_
 _symmetry_equiv_pos_site_id
 _symmetry_equiv_pos_as_xyz
  1  'x, y, z'
loop_
 _atom_site_type_symbol
 _atom_site_label
 _atom_site_symmetry_multiplicity
 _atom_site_fract_x
 _atom_site_fract_y
 _atom_site_fract_z
 _atom_site_occupancy
  Ce  Ce0  1  0.00000000  0.00000000  0.00000000  1
  Zr  Zr0  1  0.39721300  0.39721300  0.00000000  1
  Zr  Zr1  1  0.79902600  0.79902600  0.00000000  1
  Zr  Zr2  1  0.20097400  0.20097400  0.00000000  1
  Zr  Zr3  1  0.60278700  0.60278700  0.00000000  1
  O  O0  1  0.65191500  0.15191500  0.50000000  1
  O  O1  1  0.05400600  0.55400600  0.50000000  1
  O  O2  1  0.44599400  0.94599400  0.50000000  1
  O  O3  1  0.84808500  0.34808500  0.50000000  1
  O  O4  1  0.25000000  0.75000000  0.50000000  1
  O  O5  1  0.55400600  0.05400600  0.50000000  1
  O  O6  1  0.94599400  0.44599400  0.50000000  1
  O  O7  1  0.34808500  0.84808500  0.50000000  1
  O  O8  1  0.75000000  0.25000000  0.50000000  1
  O  O9  1  0.15191500  0.65191500  0.50000000  1
loop_
_geom_bond_atom_site_label_1
_geom_bond_atom_site_label_2
_geom_bond_distance
_geom_bond_site_symmetry_2
Ce0 O6 2.319945 1_444
Ce0 O6 2.319945 1_455
Ce0 O1 2.319945 1_544
Ce0 O1 2.319945 1_555
Ce0 O5 2.319945 1_454
Ce0 O5 2.319945 1_555
Ce0 O2 2.319945 1_444
Ce0 O2 2.319945 1_545
O0 Zr2 2.243577 1_656
O0 Zr2 2.243577 1_555
O0 Zr3 2.244608 1_545
O0 Zr3 2.244608 1_556
O1 Zr3 2.239429 1_556
O1 Zr3 2.239429 1_455
O2 Zr0 2.239429 1_566
O2 Zr0 2.239429 1_555
O3 Zr1 2.243577 1_545
O3 Zr1 2.243577 1_556
O3 Zr0 2.244608 1_555
O3 Zr0 2.244608 1_656
O4 Zr2 2.243083 1_555
O4 Zr1 2.243083 1_556
O4 Zr2 2.243083 1_566
O4 Zr1 2.243083 1_455
O5 Zr3 2.239429 1_556
O5 Zr3 2.239429 1_545
O6 Zr0 2.239429 1_656
O6 Zr0 2.239429 1_555
O7 Zr1 2.243577 1_455
O7 Zr1 2.243577 1_556
O7 Zr0 2.244608 1_555
O7 Zr0 2.244608 1_566
O8 Zr2 2.243083 1_656
O8 Zr1 2.243083 1_545
O8 Zr1 2.243083 1_556
O8 Zr2 2.243083 1_555
O9 Zr2 2.243577 1_566
O9 Zr2 2.243577 1_555
O9 Zr3 2.244608 1_455
O9 Zr3 2.244608 1_556
