# generated using pymatgen
data_Sr2Cu(PO4)2
_symmetry_space_group_name_H-M   'P 1'
_cell_length_a   6.36598803
_cell_length_b   6.36598803
_cell_length_c   6.67946099
_cell_angle_alpha   75.04787291
_cell_angle_beta   75.04787291
_cell_angle_gamma   47.55047584
_symmetry_Int_Tables_number   1
_chemical_formula_structural   Sr2Cu(PO4)2
_chemical_formula_sum   'Sr2 Cu1 P2 O8'
_cell_volume   191.63224013
_cell_formula_units_Z   1
loop_
 _symmetry_equiv_pos_site_id
 _symmetry_equiv_pos_as_xyz
  1  'x, y, z'
loop_
 _atom_site_type_symbol
 _atom_site_label
 _atom_site_symmetry_multiplicity
 _atom_site_fract_x
 _atom_site_fract_y
 _atom_site_fract_z
 _atom_site_occupancy
  Sr  Sr0  1  0.82943200  0.82943200  0.21669900  1
  Sr  Sr1  1  0.17056800  0.17056800  0.78330100  1
  Cu  Cu0  1  0.50000000  0.50000000  0.50000000  1
  P  P0  1  0.14249300  0.14249300  0.28987200  1
  P  P1  1  0.85750700  0.85750700  0.71012800  1
  O  O0  1  0.11440400  0.62414800  0.56350400  1
  O  O1  1  0.37585200  0.88559600  0.43649600  1
  O  O2  1  0.88559600  0.37585200  0.43649600  1
  O  O3  1  0.62414800  0.11440400  0.56350400  1
  O  O4  1  0.27129700  0.27129700  0.14154300  1
  O  O5  1  0.95031800  0.95031800  0.83234900  1
  O  O6  1  0.04968200  0.04968200  0.16765100  1
  O  O7  1  0.72870300  0.72870300  0.85845700  1
loop_
_geom_bond_atom_site_label_1
_geom_bond_atom_site_label_2
_geom_bond_distance
_geom_bond_site_symmetry_2
Cu0 O2 1.961377 1_555
Cu0 O1 1.961377 1_555
Cu0 O3 1.961377 1_555
Cu0 O0 1.961377 1_555
O0 P1 1.576499 1_455
O0 Sr1 2.703801 1_555
O0 Sr0 2.787662 1_455
O1 P0 1.576499 1_565
O1 Sr0 2.703801 1_555
O1 Sr1 2.787662 1_565
O2 P0 1.576499 1_655
O2 Sr0 2.703801 1_555
O2 Sr1 2.787662 1_655
O3 P1 1.576499 1_545
O3 Sr1 2.703801 1_555
O3 Sr0 2.787662 1_545
O4 P0 1.547723 1_555
O4 Sr0 2.736642 1_545
O4 Sr0 2.736642 1_455
O4 Sr1 2.947338 1_554
O5 P1 1.527629 1_555
O5 Sr1 2.493756 1_665
O5 Sr0 2.556498 1_556
O6 P0 1.527629 1_555
O6 Sr0 2.493756 1_445
O6 Sr1 2.556498 1_554
O7 P1 1.547723 1_555
O7 Sr1 2.736642 1_655
O7 Sr1 2.736642 1_565
O7 Sr0 2.947338 1_556
