# generated using pymatgen
data_CdBi8(Cl5O4)2
_symmetry_space_group_name_H-M   'P 1'
_cell_length_a   18.45503175
_cell_length_b   18.45503175
_cell_length_c   5.52078500
_cell_angle_alpha   90.00000000
_cell_angle_beta   90.00000000
_cell_angle_gamma   162.79462764
_symmetry_Int_Tables_number   1
_chemical_formula_structural   CdBi8(Cl5O4)2
_chemical_formula_sum   'Cd1 Bi8 Cl10 O8'
_cell_volume   556.19246884
_cell_formula_units_Z   1
loop_
 _symmetry_equiv_pos_site_id
 _symmetry_equiv_pos_as_xyz
  1  'x, y, z'
loop_
 _atom_site_type_symbol
 _atom_site_label
 _atom_site_symmetry_multiplicity
 _atom_site_fract_x
 _atom_site_fract_y
 _atom_site_fract_z
 _atom_site_occupancy
  Cd  Cd0  1  0.00000000  0.00000000  0.50000000  1
  Bi  Bi0  1  0.88828600  0.11171400  0.00000000  1
  Bi  Bi1  1  0.38828900  0.61171100  0.50000000  1
  Bi  Bi2  1  0.61171100  0.38828900  0.50000000  1
  Bi  Bi3  1  0.11171400  0.88828600  0.00000000  1
  Bi  Bi4  1  0.68157400  0.31842600  0.00000000  1
  Bi  Bi5  1  0.18227700  0.81772300  0.50000000  1
  Bi  Bi6  1  0.81772300  0.18227700  0.50000000  1
  Bi  Bi7  1  0.31842600  0.68157400  0.00000000  1
  Cl  Cl0  1  0.57493500  0.42506500  0.00000000  1
  Cl  Cl1  1  0.07417700  0.92582300  0.50000000  1
  Cl  Cl2  1  0.92582300  0.07417700  0.50000000  1
  Cl  Cl3  1  0.42506500  0.57493500  0.00000000  1
  Cl  Cl4  1  0.50000000  0.50000000  0.50000000  1
  Cl  Cl5  1  0.00000000  0.00000000  0.00000000  1
  Cl  Cl6  1  0.78081400  0.21918600  0.00000000  1
  Cl  Cl7  1  0.28082800  0.71917200  0.50000000  1
  Cl  Cl8  1  0.71917200  0.28082800  0.50000000  1
  Cl  Cl9  1  0.21918600  0.78081400  0.00000000  1
  O  O0  1  0.60449200  0.89803200  0.74872800  1
  O  O1  1  0.10196800  0.39550800  0.25127200  1
  O  O2  1  0.10196800  0.39550800  0.74872800  1
  O  O3  1  0.60449200  0.89803200  0.25127200  1
  O  O4  1  0.89803200  0.60449200  0.74872800  1
  O  O5  1  0.39550800  0.10196800  0.25127200  1
  O  O6  1  0.39550800  0.10196800  0.74872800  1
  O  O7  1  0.89803200  0.60449200  0.25127200  1
loop_
_geom_bond_atom_site_label_1
_geom_bond_atom_site_label_2
_geom_bond_distance
_geom_bond_site_symmetry_2
Cd0 Cl2 2.707075 1_455
Cd0 Cl1 2.707075 1_545
Cd0 Cl5 2.760393 1_556
Cd0 Cl5 2.760393 1_555
Cd0 Cl4 2.760535 1_555
Cd0 Cl4 2.760535 1_445
Bi0 O2 2.333901 1_654
Bi0 O1 2.333901 1_655
Bi0 O3 2.333901 1_545
Bi0 O0 2.333901 1_544
Bi0 Cl3 3.069555 1_545
Bi0 Cl3 3.069555 1_655
Bi0 Cl2 3.081624 1_554
Bi0 Cl2 3.081624 1_555
Bi1 O3 2.333897 1_555
Bi1 O0 2.333897 1_555
Bi1 O1 2.333897 1_555
Bi1 O2 2.333897 1_555
Bi1 Cl3 3.069379 1_555
Bi1 Cl3 3.069379 1_556
Bi1 Cl2 3.081703 1_565
Bi1 Cl2 3.081703 1_455
Bi2 O4 2.333897 1_555
Bi2 O7 2.333897 1_555
Bi2 O5 2.333897 1_555
Bi2 O6 2.333897 1_555
Bi2 Cl0 3.069379 1_555
Bi2 Cl0 3.069379 1_556
Bi2 Cl1 3.081703 1_655
Bi2 Cl1 3.081703 1_545
Bi3 O5 2.333901 1_565
Bi3 O6 2.333901 1_564
Bi3 O7 2.333901 1_455
Bi3 O4 2.333901 1_454
Bi3 Cl0 3.069555 1_455
Bi3 Cl0 3.069555 1_565
Bi3 Cl1 3.081624 1_554
Bi3 Cl1 3.081624 1_555
Bi4 O7 2.337117 1_555
Bi4 O4 2.337117 1_554
Bi4 O5 2.337117 1_555
Bi4 O6 2.337117 1_554
Bi4 Cl8 3.082614 1_554
Bi4 Cl8 3.082614 1_555
Bi4 Cl9 3.082969 1_545
Bi4 Cl9 3.082969 1_655
Bi5 O6 2.334676 1_565
Bi5 O5 2.334676 1_565
Bi5 O7 2.334676 1_455
Bi5 O4 2.334676 1_455
Bi5 Cl8 3.071409 1_565
Bi5 Cl8 3.071409 1_455
Bi5 Cl9 3.071504 1_556
Bi5 Cl9 3.071504 1_555
Bi6 O2 2.334676 1_655
Bi6 O1 2.334676 1_655
Bi6 O3 2.334676 1_545
Bi6 O0 2.334676 1_545
Bi6 Cl7 3.071409 1_655
Bi6 Cl7 3.071409 1_545
Bi6 Cl6 3.071504 1_556
Bi6 Cl6 3.071504 1_555
Bi7 O3 2.337117 1_555
Bi7 O0 2.337117 1_554
Bi7 O1 2.337117 1_555
Bi7 O2 2.337117 1_554
Bi7 Cl7 3.082614 1_555
Bi7 Cl7 3.082614 1_554
Bi7 Cl6 3.082969 1_455
Bi7 Cl6 3.082969 1_565
