# generated using pymatgen
data_Na3Co6Ag(P2O7)4
_symmetry_space_group_name_H-M   'P 1'
_cell_length_a   5.38595348
_cell_length_b   6.44366010
_cell_length_c   16.48516332
_cell_angle_alpha   80.71000981
_cell_angle_beta   81.56717458
_cell_angle_gamma   72.77908439
_symmetry_Int_Tables_number   1
_chemical_formula_structural   Na3Co6Ag(P2O7)4
_chemical_formula_sum   'Na3 Co6 Ag1 P8 O28'
_cell_volume   536.33228035
_cell_formula_units_Z   1
loop_
 _symmetry_equiv_pos_site_id
 _symmetry_equiv_pos_as_xyz
  1  'x, y, z'
loop_
 _atom_site_type_symbol
 _atom_site_label
 _atom_site_symmetry_multiplicity
 _atom_site_fract_x
 _atom_site_fract_y
 _atom_site_fract_z
 _atom_site_occupancy
  Na  Na0  1  0.38621848  0.72563575  0.13865489  1
  Na  Na1  1  0.90737789  0.74677164  0.01910208  1
  Na  Na2  1  0.09433318  0.25332355  0.98000204  1
  Co  Co0  1  0.20448357  0.27922123  0.58928397  1
  Co  Co1  1  0.79580567  0.72062078  0.41066204  1
  Co  Co2  1  0.03680982  0.63552503  0.80416835  1
  Co  Co3  1  0.96147582  0.36460991  0.19593472  1
  Co  Co4  1  0.76937007  0.03833375  0.65877863  1
  Co  Co5  1  0.23056358  0.96071798  0.34153901  1
  Ag  Ag0  1  0.60983649  0.27213614  0.86169791  1
  P  P0  1  0.43378232  0.75009753  0.91824716  1
  P  P1  1  0.56631882  0.25139764  0.08268946  1
  P  P2  1  0.29528740  0.78140781  0.54203279  1
  P  P3  1  0.70492411  0.21869907  0.45784907  1
  P  P4  1  0.64291617  0.57252107  0.67664118  1
  P  P5  1  0.35728981  0.42719111  0.32329844  1
  P  P6  1  0.18962666  0.09805482  0.78226418  1
  P  P7  1  0.81130691  0.90185646  0.21734709  1
  O  O0  1  0.40466561  0.95129869  0.84199655  1
  O  O1  1  0.59465626  0.04708608  0.15776192  1
  O  O2  1  0.11960219  0.98611551  0.58062274  1
  O  O3  1  0.88081315  0.01392621  0.41950188  1
  O  O4  1  0.41116486  0.84171710  0.45301476  1
  O  O5  1  0.58902531  0.15812123  0.54705697  1
  O  O6  1  0.72999824  0.64570649  0.90989180  1
  O  O7  1  0.27086424  0.35629433  0.09040961  1
  O  O8  1  0.82646897  0.34729842  0.65763036  1
  O  O9  1  0.17317907  0.65290021  0.34224805  1
  O  O10  1  0.32307782  0.85321856  0.99748670  1
  O  O11  1  0.68016801  0.14268000  0.00417176  1
  O  O12  1  0.55828947  0.70075043  0.58831726  1
  O  O13  1  0.44189265  0.29923915  0.41177037  1
  O  O14  1  0.35639296  0.13783002  0.70070647  1
  O  O15  1  0.64435165  0.86234223  0.29887073  1
  O  O16  1  0.26836975  0.60380179  0.90242057  1
  O  O17  1  0.72740726  0.39992240  0.09809478  1
  O  O18  1  0.05723353  0.30268837  0.82591686  1
  O  O19  1  0.94450114  0.69794081  0.17363699  1
  O  O20  1  0.40384109  0.55247858  0.73435245  1
  O  O21  1  0.59324068  0.44962369  0.26481534  1
  O  O22  1  0.79687214  0.71235102  0.70453365  1
  O  O23  1  0.20347933  0.28741823  0.29567573  1
  O  O24  1  0.16405460  0.60005768  0.55048782  1
  O  O25  1  0.83575186  0.39992928  0.44953595  1
  O  O26  1  0.99062373  0.97261110  0.77635788  1
  O  O27  1  0.01228768  0.02653112  0.22252105  1
loop_
_geom_bond_atom_site_label_1
_geom_bond_atom_site_label_2
_geom_bond_distance
_geom_bond_site_symmetry_2
Na0 O10 2.378267 1_554
Na0 O19 2.416639 1_455
Na0 O17 2.457215 1_555
Na0 O21 2.653974 1_555
Na0 O1 2.709446 1_565
Na0 O27 2.731927 1_565
Na0 O7 2.883417 1_555
Na1 O6 2.414428 1_554
Na1 O11 2.470493 1_565
Na1 O10 2.491325 1_654
Na1 O19 2.546027 1_555
Na1 O16 2.596825 1_654
Na1 O17 2.757411 1_555
Na1 O7 2.889408 1_655
Na2 O7 2.434740 1_556
Na2 O10 2.496245 1_545
Na2 O11 2.496444 1_456
Na2 O18 2.538440 1_555
Na2 O17 2.635864 1_456
Na2 O16 2.753873 1_555
Na2 O6 2.891905 1_455
Co0 O24 2.019367 1_555
Co0 O5 2.044166 1_555
Co0 O14 2.081461 1_555
Co0 O2 2.100938 1_545
Co0 O8 2.136585 1_455
Co1 O25 2.019091 1_555
Co1 O4 2.045143 1_555
Co1 O15 2.086169 1_555
Co1 O3 2.103251 1_565
Co1 O9 2.134223 1_655
Co2 O18 2.089005 1_555
Co2 O26 2.093313 1_455
Co2 O20 2.103321 1_555
Co2 O16 2.134313 1_555
Co2 O22 2.143387 1_455
Co2 O6 2.213723 1_455
Co3 O27 2.094422 1_655
Co3 O19 2.096545 1_555
Co3 O21 2.102364 1_555
Co3 O17 2.133215 1_555
Co3 O23 2.151862 1_655
Co3 O7 2.220995 1_655
Co4 O22 2.083284 1_545
Co4 O2 2.093514 1_645
Co4 O8 2.099314 1_555
Co4 O5 2.133797 1_555
Co4 O14 2.164246 1_555
Co4 O26 2.338822 1_545
Co5 O23 2.088346 1_565
Co5 O3 2.089882 1_465
Co5 O9 2.093864 1_555
Co5 O4 2.130483 1_555
Co5 O15 2.170512 1_555
Co5 O27 2.350358 1_565
Ag0 O11 2.407703 1_556
Ag0 O18 2.453500 1_655
Ag0 O16 2.484800 1_555
Ag0 O20 2.678300 1_555
Ag0 O0 2.697286 1_545
Ag0 O26 2.756281 1_545
O0 P6 1.609544 1_565
O0 P0 1.642182 1_555
O1 P7 1.610903 1_545
O1 P1 1.642711 1_555
O2 P2 1.547684 1_555
O3 P3 1.546490 1_555
O4 P2 1.544307 1_555
O5 P3 1.547386 1_555
O6 P0 1.531923 1_555
O7 P1 1.528664 1_555
O8 P4 1.545369 1_555
O9 P5 1.548557 1_555
O10 P0 1.523355 1_555
O11 P1 1.532249 1_555
O12 P4 1.610506 1_555
O12 P2 1.616128 1_555
O13 P5 1.612073 1_555
O13 P3 1.614414 1_555
O14 P6 1.533285 1_555
O15 P7 1.533038 1_555
O16 P0 1.547672 1_555
O17 P1 1.538810 1_555
O18 P6 1.537570 1_555
O19 P7 1.535022 1_555
O20 P4 1.509745 1_555
O21 P5 1.506585 1_555
O22 P4 1.548806 1_555
O23 P5 1.545845 1_555
O24 P2 1.513974 1_555
O25 P3 1.512033 1_555
O26 P6 1.542940 1_665
O27 P7 1.545486 1_445
