# generated using pymatgen
data_Al2(Zn13Pd3)3
_symmetry_space_group_name_H-M   'P 1'
_cell_length_a   12.87168485
_cell_length_b   12.87168485
_cell_length_c   12.87168485
_cell_angle_alpha   60.00000000
_cell_angle_beta   60.00000000
_cell_angle_gamma   60.00000000
_symmetry_Int_Tables_number   1
_chemical_formula_structural   Al2(Zn13Pd3)3
_chemical_formula_sum   'Al4 Zn78 Pd18'
_cell_volume   1507.96477097
_cell_formula_units_Z   2
loop_
 _symmetry_equiv_pos_site_id
 _symmetry_equiv_pos_as_xyz
  1  'x, y, z'
loop_
 _atom_site_type_symbol
 _atom_site_label
 _atom_site_symmetry_multiplicity
 _atom_site_fract_x
 _atom_site_fract_y
 _atom_site_fract_z
 _atom_site_occupancy
  Al  Al0  1  0.30517778  0.30517778  0.30517778  1
  Al  Al1  1  0.08446665  0.30517778  0.30517778  1
  Al  Al2  1  0.30517778  0.08446665  0.30517778  1
  Al  Al3  1  0.30517778  0.30517778  0.08446665  1
  Zn  Zn0  1  0.94180139  0.94180139  0.94180139  1
  Zn  Zn1  1  0.17459583  0.94180139  0.94180139  1
  Zn  Zn2  1  0.94180139  0.17459583  0.94180139  1
  Zn  Zn3  1  0.94180139  0.94180139  0.17459583  1
  Zn  Zn4  1  0.21947425  0.47197217  0.47197217  1
  Zn  Zn5  1  0.83658142  0.47197217  0.47197217  1
  Zn  Zn6  1  0.47197217  0.83658142  0.21947425  1
  Zn  Zn7  1  0.47197217  0.47197217  0.21947425  1
  Zn  Zn8  1  0.47197217  0.21947425  0.83658142  1
  Zn  Zn9  1  0.47197217  0.47197217  0.83658142  1
  Zn  Zn10  1  0.83658142  0.21947425  0.47197217  1
  Zn  Zn11  1  0.21947425  0.83658142  0.47197217  1
  Zn  Zn12  1  0.47197217  0.21947425  0.47197217  1
  Zn  Zn13  1  0.21947425  0.47197217  0.83658142  1
  Zn  Zn14  1  0.83658142  0.47197217  0.21947425  1
  Zn  Zn15  1  0.47197217  0.83658142  0.47197217  1
  Zn  Zn16  1  0.81940266  0.81940266  0.18059734  1
  Zn  Zn17  1  0.18059734  0.18059734  0.81940266  1
  Zn  Zn18  1  0.81940266  0.18059734  0.81940266  1
  Zn  Zn19  1  0.18059734  0.81940266  0.18059734  1
  Zn  Zn20  1  0.18059734  0.81940266  0.81940266  1
  Zn  Zn21  1  0.81940266  0.18059734  0.18059734  1
  Zn  Zn22  1  0.08122630  0.73013867  0.73013867  1
  Zn  Zn23  1  0.45849636  0.73013867  0.73013867  1
  Zn  Zn24  1  0.73013867  0.45849636  0.08122630  1
  Zn  Zn25  1  0.73013867  0.73013867  0.08122630  1
  Zn  Zn26  1  0.73013867  0.08122630  0.45849636  1
  Zn  Zn27  1  0.73013867  0.73013867  0.45849636  1
  Zn  Zn28  1  0.45849636  0.08122630  0.73013867  1
  Zn  Zn29  1  0.08122630  0.45849636  0.73013867  1
  Zn  Zn30  1  0.73013867  0.08122630  0.73013867  1
  Zn  Zn31  1  0.08122630  0.73013867  0.45849636  1
  Zn  Zn32  1  0.45849636  0.73013867  0.08122630  1
  Zn  Zn33  1  0.73013867  0.45849636  0.73013867  1
  Zn  Zn34  1  0.69588388  0.69588388  0.69588388  1
  Zn  Zn35  1  0.91234836  0.69588388  0.69588388  1
  Zn  Zn36  1  0.69588388  0.91234836  0.69588388  1
  Zn  Zn37  1  0.69588388  0.69588388  0.91234836  1
  Zn  Zn38  1  0.56208436  0.22573355  0.22573355  1
  Zn  Zn39  1  0.98644854  0.22573355  0.22573355  1
  Zn  Zn40  1  0.22573355  0.98644854  0.56208436  1
  Zn  Zn41  1  0.22573355  0.22573355  0.56208436  1
  Zn  Zn42  1  0.22573355  0.56208436  0.98644854  1
  Zn  Zn43  1  0.22573355  0.22573355  0.98644854  1
  Zn  Zn44  1  0.98644854  0.56208436  0.22573355  1
  Zn  Zn45  1  0.56208436  0.98644854  0.22573355  1
  Zn  Zn46  1  0.22573355  0.56208436  0.22573355  1
  Zn  Zn47  1  0.56208436  0.22573355  0.98644854  1
  Zn  Zn48  1  0.98644854  0.22573355  0.56208436  1
  Zn  Zn49  1  0.22573355  0.98644854  0.22573355  1
  Zn  Zn50  1  0.92822908  0.92822908  0.57177092  1
  Zn  Zn51  1  0.57177092  0.57177092  0.92822908  1
  Zn  Zn52  1  0.92822908  0.57177092  0.92822908  1
  Zn  Zn53  1  0.57177092  0.92822908  0.57177092  1
  Zn  Zn54  1  0.57177092  0.92822908  0.92822908  1
  Zn  Zn55  1  0.92822908  0.57177092  0.57177092  1
  Zn  Zn56  1  0.69694794  0.98560824  0.98560824  1
  Zn  Zn57  1  0.33183559  0.98560824  0.98560824  1
  Zn  Zn58  1  0.98560824  0.33183559  0.69694794  1
  Zn  Zn59  1  0.98560824  0.98560824  0.69694794  1
  Zn  Zn60  1  0.98560824  0.69694794  0.33183559  1
  Zn  Zn61  1  0.98560824  0.98560824  0.33183559  1
  Zn  Zn62  1  0.33183559  0.69694794  0.98560824  1
  Zn  Zn63  1  0.69694794  0.33183559  0.98560824  1
  Zn  Zn64  1  0.98560824  0.69694794  0.98560824  1
  Zn  Zn65  1  0.69694794  0.98560824  0.33183559  1
  Zn  Zn66  1  0.33183559  0.98560824  0.69694794  1
  Zn  Zn67  1  0.98560824  0.33183559  0.98560824  1
  Zn  Zn68  1  0.44669769  0.44669769  0.44669769  1
  Zn  Zn69  1  0.65990693  0.44669769  0.44669769  1
  Zn  Zn70  1  0.44669769  0.65990693  0.44669769  1
  Zn  Zn71  1  0.44669769  0.44669769  0.65990693  1
  Zn  Zn72  1  0.67924531  0.67924531  0.32075469  1
  Zn  Zn73  1  0.32075469  0.32075469  0.67924531  1
  Zn  Zn74  1  0.67924531  0.32075469  0.67924531  1
  Zn  Zn75  1  0.32075469  0.67924531  0.32075469  1
  Zn  Zn76  1  0.32075469  0.67924531  0.67924531  1
  Zn  Zn77  1  0.67924531  0.32075469  0.32075469  1
  Pd  Pd0  1  0.83876144  0.83876144  0.83876144  1
  Pd  Pd1  1  0.48371568  0.83876144  0.83876144  1
  Pd  Pd2  1  0.83876144  0.48371568  0.83876144  1
  Pd  Pd3  1  0.83876144  0.83876144  0.48371568  1
  Pd  Pd4  1  0.08356519  0.08356519  0.08356519  1
  Pd  Pd5  1  0.74930443  0.08356519  0.08356519  1
  Pd  Pd6  1  0.08356519  0.74930443  0.08356519  1
  Pd  Pd7  1  0.08356519  0.08356519  0.74930443  1
  Pd  Pd8  1  0.42627228  0.42627228  0.07372772  1
  Pd  Pd9  1  0.07372772  0.07372772  0.42627228  1
  Pd  Pd10  1  0.42627228  0.07372772  0.42627228  1
  Pd  Pd11  1  0.07372772  0.42627228  0.07372772  1
  Pd  Pd12  1  0.07372772  0.42627228  0.42627228  1
  Pd  Pd13  1  0.42627228  0.07372772  0.07372772  1
  Pd  Pd14  1  0.58749404  0.58749404  0.58749404  1
  Pd  Pd15  1  0.23751788  0.58749404  0.58749404  1
  Pd  Pd16  1  0.58749404  0.23751788  0.58749404  1
  Pd  Pd17  1  0.58749404  0.58749404  0.23751788  1
loop_
_geom_bond_atom_site_label_1
_geom_bond_atom_site_label_2
_geom_bond_distance
_geom_bond_site_symmetry_2
Al0 Pd12 2.622354 1_555
Al0 Pd10 2.622354 1_555
Al0 Pd8 2.622354 1_555
Al1 Pd9 2.622354 1_555
Al1 Pd11 2.622354 1_555
Al1 Pd12 2.622355 1_555
Al2 Pd9 2.622354 1_555
Al2 Pd13 2.622354 1_555
Al2 Pd10 2.622355 1_555
Al3 Pd11 2.622354 1_555
Al3 Pd13 2.622354 1_555
Al3 Pd8 2.622355 1_555
Zn0 Zn20 2.684949 1_655
Zn0 Zn18 2.684949 1_565
Zn0 Zn16 2.684949 1_556
Zn0 Zn56 2.707886 1_555
Zn0 Zn59 2.707886 1_555
Zn0 Zn64 2.707886 1_555
Zn1 Zn17 2.684949 1_565
Zn1 Zn19 2.684949 1_556
Zn1 Zn20 2.684949 1_555
Zn1 Zn62 2.707886 1_555
Zn1 Zn66 2.707886 1_555
Zn1 Zn57 2.707886 1_555
Zn2 Zn21 2.684949 1_556
Zn2 Zn58 2.707886 1_555
Zn2 Zn63 2.707886 1_555
Zn2 Zn67 2.707886 1_555
Zn3 Zn60 2.707886 1_555
Zn3 Zn65 2.707886 1_555
Zn3 Zn61 2.707886 1_555
Zn4 Zn68 2.639825 1_555
Zn4 Zn75 2.890277 1_555
Zn4 Zn73 2.890277 1_555
Zn4 Zn55 3.061495 1_455
Zn5 Zn69 2.639825 1_555
Zn5 Zn72 2.890277 1_555
Zn5 Zn74 2.890277 1_555
Zn5 Zn55 3.061495 1_555
Zn6 Zn70 2.639825 1_555
Zn6 Zn72 2.890277 1_555
Zn6 Zn75 2.890277 1_555
Zn7 Zn77 2.890277 1_555
Zn7 Zn75 2.890277 1_555
Zn10 Zn69 2.639825 1_555
Zn10 Zn74 2.890277 1_555
Zn10 Zn77 2.890277 1_555
Zn10 Zn50 3.061495 1_545
Zn11 Zn70 2.639825 1_555
Zn11 Zn76 2.890277 1_555
Zn11 Zn75 2.890277 1_555
Zn11 Zn50 3.061495 1_455
Zn12 Zn68 2.639825 1_555
Zn12 Zn77 2.890277 1_555
Zn12 Zn73 2.890277 1_555
Zn12 Zn53 3.061495 1_545
Zn13 Zn71 2.639825 1_555
Zn13 Zn76 2.890277 1_555
Zn13 Zn73 2.890277 1_555
Zn13 Zn52 3.061495 1_455
Zn14 Zn69 2.639825 1_555
Zn14 Zn72 2.890277 1_555
Zn14 Zn77 2.890277 1_555
Zn14 Zn52 3.061495 1_554
Zn15 Zn70 2.639825 1_555
Zn15 Zn72 2.890277 1_555
Zn15 Zn76 2.890277 1_555
Zn15 Zn53 3.061495 1_555
Zn16 Zn72 2.551328 1_555
Zn16 Zn3 2.684949 1_555
Zn16 Zn44 2.852053 1_555
Zn16 Zn45 2.852053 1_555
Zn16 Zn27 2.921597 1_555
Zn16 Zn25 2.921597 1_555
Zn16 Zn64 2.928318 1_554
Zn16 Zn56 2.928318 1_554
Zn16 Zn60 2.928318 1_555
Zn16 Zn65 2.928318 1_555
Zn17 Zn73 2.551328 1_555
Zn17 Zn2 2.684949 1_455
Zn17 Zn41 2.852053 1_555
Zn17 Zn43 2.852053 1_555
Zn17 Zn29 2.921597 1_555
Zn17 Zn28 2.921597 1_555
Zn17 Zn58 2.928318 1_455
Zn17 Zn66 2.928318 1_545
Zn17 Zn67 2.928318 1_455
Zn17 Zn57 2.928318 1_545
Zn18 Zn74 2.551328 1_555
Zn18 Zn2 2.684949 1_555
Zn18 Zn47 2.852053 1_555
Zn18 Zn48 2.852053 1_555
Zn18 Zn33 2.921597 1_555
Zn18 Zn30 2.921597 1_555
Zn18 Zn59 2.928318 1_545
Zn18 Zn56 2.928318 1_545
Zn18 Zn63 2.928318 1_555
Zn18 Zn58 2.928318 1_555
Zn19 Zn75 2.551328 1_555
Zn19 Zn3 2.684949 1_455
Zn19 Zn49 2.852053 1_555
Zn19 Zn46 2.852053 1_555
Zn19 Zn31 2.921597 1_555
Zn19 Zn32 2.921597 1_555
Zn19 Zn62 2.928318 1_554
Zn19 Zn60 2.928318 1_455
Zn19 Zn57 2.928318 1_554
Zn19 Zn61 2.928318 1_455
Zn20 Zn76 2.551328 1_555
Zn20 Zn40 2.852053 1_555
Zn20 Zn42 2.852053 1_555
Zn20 Zn23 2.921597 1_555
Zn20 Zn22 2.921597 1_555
Zn20 Zn64 2.928318 1_455
Zn20 Zn59 2.928318 1_455
Zn20 Zn66 2.928318 1_555
Zn20 Zn62 2.928318 1_555
Zn21 Zn77 2.551328 1_555
Zn21 Zn3 2.684949 1_545
Zn21 Zn38 2.852053 1_555
Zn21 Zn39 2.852053 1_555
Zn21 Zn24 2.921597 1_555
Zn21 Zn26 2.921597 1_555
Zn21 Zn65 2.928318 1_545
Zn21 Zn63 2.928318 1_554
Zn21 Zn61 2.928318 1_545
Zn21 Zn67 2.928318 1_554
Zn22 Zn76 2.598788 1_555
Zn22 Zn35 2.687985 1_455
Zn22 Zn59 2.753940 1_455
Zn22 Zn64 2.753940 1_455
Zn22 Zn52 2.886236 1_455
Zn22 Zn50 2.886236 1_455
Zn23 Zn76 2.598788 1_555
Zn23 Zn34 2.687985 1_555
Zn23 Zn66 2.753940 1_555
Zn23 Zn62 2.753940 1_555
Zn23 Zn53 2.886236 1_555
Zn23 Zn51 2.886236 1_555
Zn24 Zn77 2.598788 1_555
Zn24 Zn37 2.687985 1_554
Zn24 Zn63 2.753940 1_554
Zn24 Zn67 2.753940 1_554
Zn24 Zn51 2.886236 1_554
Zn24 Zn52 2.886236 1_554
Zn25 Zn72 2.598788 1_555
Zn25 Zn37 2.687985 1_554
Zn25 Zn64 2.753940 1_554
Zn25 Zn56 2.753940 1_554
Zn25 Zn52 2.886236 1_554
Zn25 Zn54 2.886236 1_554
Zn26 Zn77 2.598788 1_555
Zn26 Zn36 2.687985 1_545
Zn26 Zn65 2.753940 1_545
Zn26 Zn61 2.753940 1_545
Zn26 Zn50 2.886236 1_545
Zn26 Zn53 2.886236 1_545
Zn27 Zn72 2.598788 1_555
Zn27 Zn34 2.687985 1_555
Zn27 Zn65 2.753940 1_555
Zn27 Zn60 2.753940 1_555
Zn27 Zn53 2.886236 1_555
Zn27 Zn55 2.886236 1_555
Zn28 Zn73 2.598788 1_555
Zn28 Zn36 2.687985 1_545
Zn28 Zn66 2.753940 1_545
Zn28 Zn57 2.753940 1_545
Zn28 Zn53 2.886236 1_545
Zn28 Zn54 2.886236 1_545
Zn29 Zn73 2.598788 1_555
Zn29 Zn35 2.687985 1_455
Zn29 Zn58 2.753940 1_455
Zn29 Zn67 2.753940 1_455
Zn29 Zn55 2.886236 1_455
Zn29 Zn52 2.886236 1_455
Zn30 Zn74 2.598788 1_555
Zn30 Zn36 2.687985 1_545
Zn30 Zn59 2.753940 1_545
Zn30 Zn56 2.753940 1_545
Zn30 Zn50 2.886236 1_545
Zn30 Zn54 2.886236 1_545
Zn31 Zn75 2.598788 1_555
Zn31 Zn35 2.687985 1_455
Zn31 Zn60 2.753940 1_455
Zn31 Zn61 2.753940 1_455
Zn31 Zn55 2.886236 1_455
Zn31 Zn50 2.886236 1_455
Zn32 Zn75 2.598788 1_555
Zn32 Zn37 2.687985 1_554
Zn32 Zn62 2.753940 1_554
Zn32 Zn57 2.753940 1_554
Zn32 Zn54 2.886236 1_554
Zn32 Zn51 2.886236 1_554
Zn33 Zn74 2.598788 1_555
Zn33 Zn34 2.687985 1_555
Zn33 Zn58 2.753940 1_555
Zn33 Zn63 2.753940 1_555
Zn33 Zn55 2.886236 1_555
Zn33 Zn51 2.886236 1_555
Zn34 Zn53 2.654261 1_555
Zn34 Zn51 2.654261 1_555
Zn34 Zn55 2.654261 1_555
Zn34 Zn37 2.786263 1_555
Zn34 Zn35 2.786263 1_555
Zn34 Zn36 2.786263 1_555
Zn35 Zn50 2.654261 1_555
Zn35 Zn52 2.654261 1_555
Zn35 Zn55 2.654261 1_555
Zn35 Zn37 2.786263 1_555
Zn35 Zn36 2.786263 1_555
Zn36 Zn53 2.654261 1_555
Zn36 Zn50 2.654261 1_555
Zn36 Zn54 2.654261 1_555
Zn36 Zn37 2.786263 1_555
Zn37 Zn54 2.654261 1_555
Zn37 Zn51 2.654261 1_555
Zn37 Zn52 2.654261 1_555
Zn38 Zn65 2.686248 1_545
Zn38 Zn63 2.686248 1_554
Zn39 Zn61 2.686248 1_545
Zn39 Zn67 2.686248 1_554
Zn40 Zn59 2.686248 1_455
Zn40 Zn66 2.686249 1_555
Zn41 Zn58 2.686248 1_455
Zn41 Zn66 2.686248 1_545
Zn42 Zn64 2.686248 1_455
Zn42 Zn62 2.686249 1_555
Zn43 Zn57 2.686248 1_545
Zn43 Zn67 2.686248 1_455
Zn44 Zn64 2.686248 1_554
Zn44 Zn60 2.686249 1_555
Zn45 Zn56 2.686248 1_554
Zn45 Zn65 2.686249 1_555
Zn46 Zn60 2.686248 1_455
Zn46 Zn62 2.686248 1_554
Zn47 Zn56 2.686248 1_545
Zn47 Zn63 2.686249 1_555
Zn48 Zn59 2.686248 1_545
Zn48 Zn58 2.686249 1_555
Zn49 Zn57 2.686248 1_554
Zn49 Zn61 2.686248 1_455
Zn50 Zn61 2.571487 1_555
Zn50 Zn59 2.571487 1_555
Zn51 Zn63 2.571487 1_555
Zn51 Zn62 2.571487 1_555
Zn51 Zn9 3.061495 1_555
Zn51 Zn7 3.061495 1_556
Zn52 Zn67 2.571487 1_555
Zn52 Zn64 2.571487 1_555
Zn53 Zn66 2.571487 1_555
Zn53 Zn65 2.571487 1_555
Zn54 Zn57 2.571487 1_555
Zn54 Zn56 2.571487 1_555
Zn54 Zn8 3.061495 1_565
Zn54 Zn6 3.061495 1_556
Zn55 Zn58 2.571487 1_555
Zn55 Zn60 2.571487 1_555
Zn68 Zn7 2.639825 1_555
Zn68 Zn77 2.671854 1_555
Zn68 Zn75 2.671854 1_555
Zn68 Zn73 2.671854 1_555
Zn68 Zn69 2.744362 1_555
Zn68 Zn70 2.744362 1_555
Zn68 Zn71 2.744362 1_555
Zn69 Zn72 2.671854 1_555
Zn69 Zn74 2.671854 1_555
Zn69 Zn77 2.671854 1_555
Zn69 Zn70 2.744362 1_555
Zn69 Zn71 2.744362 1_555
Zn70 Zn72 2.671854 1_555
Zn70 Zn76 2.671854 1_555
Zn70 Zn75 2.671854 1_555
Zn70 Zn71 2.744362 1_555
Zn71 Zn8 2.639825 1_555
Zn71 Zn9 2.639825 1_555
Zn71 Zn74 2.671854 1_555
Zn71 Zn76 2.671854 1_555
Zn71 Zn73 2.671854 1_555
Zn73 Zn8 2.890277 1_555
Zn74 Zn8 2.890277 1_555
Zn74 Zn9 2.890277 1_555
Zn76 Zn9 2.890277 1_555
Pd0 Zn30 2.622525 1_565
Pd0 Zn25 2.622525 1_556
Pd0 Zn22 2.622525 1_655
Pd0 Zn56 2.673883 1_555
Pd0 Zn59 2.673883 1_555
Pd0 Zn64 2.673883 1_555
Pd0 Zn37 2.749519 1_555
Pd0 Zn35 2.749519 1_555
Pd0 Zn36 2.749519 1_555
Pd0 Zn50 2.806006 1_555
Pd0 Zn54 2.806006 1_555
Pd0 Zn52 2.806006 1_555
Pd1 Zn32 2.622525 1_556
Pd1 Zn28 2.622525 1_565
Pd1 Zn23 2.622525 1_555
Pd1 Zn66 2.673883 1_555
Pd1 Zn62 2.673883 1_555
Pd1 Zn57 2.673883 1_555
Pd1 Zn34 2.749519 1_555
Pd1 Zn37 2.749519 1_555
Pd1 Zn36 2.749519 1_555
Pd1 Zn51 2.806006 1_555
Pd1 Zn53 2.806006 1_555
Pd1 Zn54 2.806006 1_555
Pd2 Zn24 2.622525 1_556
Pd2 Zn33 2.622525 1_555
Pd2 Zn29 2.622525 1_655
Pd2 Zn63 2.673883 1_555
Pd2 Zn58 2.673883 1_555
Pd2 Zn67 2.673883 1_555
Pd2 Zn34 2.749519 1_555
Pd2 Zn37 2.749519 1_555
Pd2 Zn35 2.749519 1_555
Pd2 Zn51 2.806006 1_555
Pd2 Zn55 2.806006 1_555
Pd2 Zn52 2.806006 1_555
Pd3 Zn26 2.622525 1_565
Pd3 Zn27 2.622525 1_555
Pd3 Zn31 2.622525 1_655
Pd3 Zn60 2.673883 1_555
Pd3 Zn65 2.673883 1_555
Pd3 Zn61 2.673883 1_555
Pd3 Zn34 2.749519 1_555
Pd3 Zn36 2.749519 1_555
Pd3 Zn35 2.749519 1_555
Pd3 Zn55 2.806006 1_555
Pd3 Zn53 2.806006 1_555
Pd3 Zn50 2.806006 1_555
Pd4 Zn61 2.631158 1_445
Pd4 Zn67 2.631158 1_454
Pd4 Zn57 2.631158 1_544
Pd4 Zn39 2.652109 1_455
Pd4 Zn49 2.652109 1_545
Pd4 Zn43 2.652109 1_554
Pd4 Zn2 2.661913 1_454
Pd4 Zn3 2.661913 1_445
Pd4 Zn1 2.661913 1_544
Pd4 Zn17 2.783471 1_554
Pd4 Zn21 2.783471 1_455
Pd4 Zn19 2.783471 1_545
Pd5 Zn56 2.631158 1_544
Pd5 Zn65 2.631158 1_545
Pd5 Zn63 2.631158 1_554
Pd5 Zn47 2.652109 1_554
Pd5 Zn45 2.652109 1_545
Pd5 Zn38 2.652109 1_555
Pd5 Zn0 2.661913 1_544
Pd5 Zn3 2.661913 1_545
Pd5 Zn2 2.661913 1_554
Pd5 Zn16 2.783471 1_545
Pd5 Zn18 2.783471 1_554
Pd5 Zn21 2.783471 1_555
Pd6 Zn64 2.631158 1_454
Pd6 Zn60 2.631158 1_455
Pd6 Zn62 2.631158 1_554
Pd6 Zn44 2.652109 1_455
Pd6 Zn42 2.652109 1_554
Pd6 Zn46 2.652109 1_555
Pd6 Zn0 2.661913 1_454
Pd6 Zn1 2.661913 1_554
Pd6 Zn3 2.661913 1_455
Pd6 Zn20 2.783471 1_554
Pd6 Zn16 2.783471 1_455
Pd6 Zn19 2.783471 1_555
Pd7 Zn59 2.631158 1_445
Pd7 Zn58 2.631158 1_455
Pd7 Zn66 2.631158 1_545
Pd7 Zn48 2.652109 1_455
Pd7 Zn40 2.652109 1_545
Pd7 Zn41 2.652109 1_555
Pd7 Zn0 2.661913 1_445
Pd7 Zn1 2.661913 1_545
Pd7 Zn2 2.661913 1_455
Pd7 Zn18 2.783471 1_455
Pd7 Zn20 2.783471 1_545
Pd7 Zn17 2.783471 1_555
Pd8 Zn9 2.600867 1_554
Pd8 Zn7 2.600867 1_555
Pd8 Zn51 2.648557 1_554
Pd8 Zn47 2.721138 1_554
Pd8 Zn42 2.721138 1_554
Pd8 Zn46 2.721138 1_555
Pd8 Zn38 2.721138 1_555
Pd8 Zn62 2.845104 1_554
Pd8 Zn63 2.845104 1_554
Pd9 Zn10 2.600867 1_455
Pd9 Zn11 2.600867 1_545
Pd9 Zn50 2.648557 1_445
Pd9 Zn39 2.721138 1_455
Pd9 Zn49 2.721138 1_545
Pd9 Zn48 2.721138 1_455
Pd9 Zn40 2.721138 1_545
Pd9 Zn61 2.845104 1_445
Pd9 Zn59 2.845104 1_445
Pd10 Zn15 2.600867 1_545
Pd10 Zn12 2.600867 1_555
Pd10 Zn53 2.648557 1_545
Pd10 Zn45 2.721138 1_545
Pd10 Zn40 2.721138 1_545
Pd10 Zn41 2.721138 1_555
Pd10 Zn38 2.721138 1_555
Pd10 Zn66 2.845104 1_545
Pd10 Zn65 2.845104 1_545
Pd11 Zn14 2.600867 1_455
Pd11 Zn13 2.600867 1_554
Pd11 Zn52 2.648557 1_454
Pd11 Zn39 2.721138 1_455
Pd11 Zn43 2.721138 1_554
Pd11 Zn42 2.721138 1_554
Pd11 Zn44 2.721138 1_455
Pd11 Zn67 2.845104 1_454
Pd11 Zn64 2.845104 1_454
Pd12 Zn5 2.600867 1_455
Pd12 Zn4 2.600867 1_555
Pd12 Zn55 2.648557 1_455
Pd12 Zn48 2.721138 1_455
Pd12 Zn44 2.721138 1_455
Pd12 Zn41 2.721138 1_555
Pd12 Zn46 2.721138 1_555
Pd12 Zn58 2.845104 1_455
Pd12 Zn60 2.845104 1_455
Pd13 Zn8 2.600867 1_554
Pd13 Zn6 2.600867 1_545
Pd13 Zn54 2.648557 1_544
Pd13 Zn49 2.721138 1_545
Pd13 Zn43 2.721138 1_554
Pd13 Zn45 2.721138 1_545
Pd13 Zn47 2.721138 1_554
Pd13 Zn57 2.845104 1_544
Pd13 Zn56 2.845104 1_544
Pd14 Zn23 2.602539 1_555
Pd14 Zn33 2.602539 1_555
Pd14 Zn27 2.602539 1_555
Pd14 Zn69 2.709895 1_555
Pd14 Zn70 2.709895 1_555
Pd14 Zn71 2.709895 1_555
Pd14 Zn5 2.716211 1_555
Pd14 Zn9 2.716211 1_555
Pd14 Zn15 2.716211 1_555
Pd14 Zn74 2.804061 1_555
Pd14 Zn76 2.804061 1_555
Pd14 Zn72 2.804061 1_555
Pd15 Zn22 2.602539 1_555
Pd15 Zn31 2.602539 1_555
Pd15 Zn29 2.602539 1_555
Pd15 Zn71 2.709895 1_555
Pd15 Zn70 2.709895 1_555
Pd15 Zn68 2.709895 1_555
Pd15 Zn4 2.716211 1_555
Pd15 Zn13 2.716211 1_555
Pd15 Zn11 2.716211 1_555
Pd15 Zn76 2.804061 1_555
Pd15 Zn75 2.804061 1_555
Pd15 Zn73 2.804061 1_555
Pd16 Zn30 2.602539 1_555
Pd16 Zn26 2.602539 1_555
Pd16 Zn28 2.602539 1_555
Pd16 Zn69 2.709895 1_555
Pd16 Zn71 2.709895 1_555
Pd16 Zn68 2.709895 1_555
Pd16 Zn12 2.716211 1_555
Pd16 Zn10 2.716211 1_555
Pd16 Zn8 2.716211 1_555
Pd16 Zn74 2.804061 1_555
Pd16 Zn77 2.804061 1_555
Pd16 Zn73 2.804061 1_555
Pd17 Zn25 2.602539 1_555
Pd17 Zn24 2.602539 1_555
Pd17 Zn32 2.602539 1_555
Pd17 Zn69 2.709895 1_555
Pd17 Zn70 2.709895 1_555
Pd17 Zn68 2.709895 1_555
Pd17 Zn7 2.716211 1_555
Pd17 Zn6 2.716211 1_555
Pd17 Zn14 2.716211 1_555
Pd17 Zn72 2.804061 1_555
Pd17 Zn77 2.804061 1_555
Pd17 Zn75 2.804061 1_555
