# generated using pymatgen
data_Fe2OF3
_symmetry_space_group_name_H-M   'P 1'
_cell_length_a   4.75184700
_cell_length_b   5.66294808
_cell_length_c   13.66022048
_cell_angle_alpha   79.67150802
_cell_angle_beta   89.76429770
_cell_angle_gamma   89.88165365
_symmetry_Int_Tables_number   1
_chemical_formula_structural   Fe2OF3
_chemical_formula_sum   'Fe10 O5 F15'
_cell_volume   361.62939131
_cell_formula_units_Z   5
loop_
 _symmetry_equiv_pos_site_id
 _symmetry_equiv_pos_as_xyz
  1  'x, y, z'
loop_
 _atom_site_type_symbol
 _atom_site_label
 _atom_site_symmetry_multiplicity
 _atom_site_fract_x
 _atom_site_fract_y
 _atom_site_fract_z
 _atom_site_occupancy
  Fe  Fe0  1  0.50029900  0.49922000  0.99913500  1
  Fe  Fe1  1  0.49119000  0.69630000  0.40190100  1
  Fe  Fe2  1  0.47187600  0.09436900  0.21222500  1
  Fe  Fe3  1  0.55069300  0.28722000  0.59188400  1
  Fe  Fe4  1  0.51537400  0.90880300  0.78994000  1
  Fe  Fe5  1  0.00547300  0.19749800  0.40007000  1
  Fe  Fe6  1  0.03234100  0.39514300  0.81105800  1
  Fe  Fe7  1  0.96576900  0.59928100  0.18630800  1
  Fe  Fe8  1  0.99391500  0.80663700  0.60400500  1
  Fe  Fe9  1  0.99817900  0.00090700  0.00035200  1
  O  O0  1  0.78609200  0.70147600  0.04866500  1
  O  O1  1  0.70365600  0.39291800  0.45552900  1
  O  O2  1  0.69121000  0.99562000  0.65092500  1
  O  O3  1  0.28952100  0.99636900  0.35231800  1
  O  O4  1  0.21177900  0.29753400  0.95278400  1
  F  F0  1  0.81341100  0.26182600  0.26402200  1
  F  F1  1  0.80247900  0.06965700  0.86781100  1
  F  F2  1  0.79755900  0.47909600  0.66502100  1
  F  F3  1  0.79622100  0.88721200  0.45570900  1
  F  F4  1  0.70673900  0.19084300  0.06749500  1
  F  F5  1  0.68648900  0.56392500  0.86267200  1
  F  F6  1  0.68843600  0.76051100  0.26818500  1
  F  F7  1  0.30311800  0.24143700  0.72500800  1
  F  F8  1  0.31693600  0.43587800  0.14101600  1
  F  F9  1  0.29156400  0.80850500  0.93766700  1
  F  F10  1  0.30743000  0.62274400  0.53819200  1
  F  F11  1  0.19018400  0.92973600  0.13538200  1
  F  F12  1  0.19565500  0.14661600  0.53377400  1
  F  F13  1  0.20100200  0.50789800  0.33773100  1
  F  F14  1  0.19541100  0.72481900  0.74321800  1
loop_
_geom_bond_atom_site_label_1
_geom_bond_atom_site_label_2
_geom_bond_distance
_geom_bond_site_symmetry_2
Fe0 O4 1.964166 1_555
Fe0 O0 1.976307 1_556
Fe1 O3 1.962278 1_555
Fe1 O1 2.013759 1_555
Fe2 O3 2.080533 1_545
Fe3 O2 1.829061 1_545
Fe3 O1 1.986679 1_555
Fe4 O2 2.049346 1_555
Fe5 O3 1.948700 1_545
Fe5 O1 2.034857 1_455
Fe6 O4 2.099667 1_555
Fe7 O0 2.054301 1_555
Fe8 O2 1.963967 1_555
Fe9 O4 1.970871 1_654
Fe9 O0 1.981616 1_545
F0 Fe5 2.046771 1_655
F0 Fe2 2.071279 1_555
F0 Fe7 2.138912 1_555
F1 Fe9 2.013456 1_556
F1 Fe4 2.046233 1_545
F1 Fe6 2.163435 1_655
F2 Fe3 1.989741 1_555
F2 Fe8 2.110009 1_555
F2 Fe6 2.264144 1_655
F3 Fe1 2.027369 1_555
F3 Fe5 2.043525 1_665
F3 Fe8 2.208352 1_555
F4 Fe9 2.062324 1_555
F4 Fe0 2.073562 1_554
F4 Fe2 2.247167 1_555
F5 Fe0 2.033422 1_555
F5 Fe6 2.082589 1_655
F5 Fe4 2.183316 1_555
F6 Fe1 2.023934 1_555
F6 Fe7 2.042151 1_555
F6 Fe2 2.167476 1_565
F7 Fe6 2.035865 1_555
F7 Fe3 2.138405 1_555
F7 Fe4 2.180071 1_545
F8 Fe7 2.052803 1_455
F8 Fe0 2.093392 1_554
F8 Fe2 2.133979 1_555
F9 Fe9 2.045094 1_466
F9 Fe0 2.056408 1_555
F9 Fe4 2.258263 1_555
F10 Fe1 2.027856 1_555
F10 Fe8 2.104855 1_455
F10 Fe3 2.232163 1_555
F11 Fe2 2.032345 1_565
F11 Fe9 2.035424 1_465
F11 Fe7 2.158333 1_455
F12 Fe5 2.014784 1_555
F12 Fe3 2.086520 1_555
F12 Fe8 2.209938 1_445
F13 Fe5 2.035119 1_555
F13 Fe1 2.039488 1_555
F13 Fe7 2.329942 1_455
F14 Fe4 2.014328 1_555
F14 Fe6 2.079513 1_555
F14 Fe8 2.108323 1_455
