# generated using pymatgen
data_Ti5S8
_symmetry_space_group_name_H-M   'P 1'
_cell_length_a   23.75135089
_cell_length_b   23.75135089
_cell_length_c   23.75135081
_cell_angle_alpha   8.28091511
_cell_angle_beta   8.28091511
_cell_angle_gamma   8.28091614
_symmetry_Int_Tables_number   1
_chemical_formula_structural   Ti5S8
_chemical_formula_sum   'Ti5 S8'
_cell_volume   241.12169059
_cell_formula_units_Z   1
loop_
 _symmetry_equiv_pos_site_id
 _symmetry_equiv_pos_as_xyz
  1  'x, y, z'
loop_
 _atom_site_type_symbol
 _atom_site_label
 _atom_site_symmetry_multiplicity
 _atom_site_fract_x
 _atom_site_fract_y
 _atom_site_fract_z
 _atom_site_occupancy
  Ti  Ti0  1  0.00001300  0.00001300  0.00001300  1
  Ti  Ti1  1  0.49833300  0.49833300  0.49833300  1
  Ti  Ti2  1  0.25013600  0.25013600  0.25013600  1
  Ti  Ti3  1  0.74995300  0.74995300  0.74995300  1
  Ti  Ti4  1  0.54418700  0.54418700  0.54418700  1
  S  S0  1  0.18751300  0.18751300  0.18751300  1
  S  S1  1  0.68640800  0.68640800  0.68640800  1
  S  S2  1  0.31352900  0.31352900  0.31352900  1
  S  S3  1  0.81232900  0.81232900  0.81232900  1
  S  S4  1  0.60317900  0.60317900  0.60317900  1
  S  S5  1  0.10310300  0.10310300  0.10310300  1
  S  S6  1  0.89607300  0.89607300  0.89607300  1
  S  S7  1  0.39689500  0.39689500  0.39689500  1
loop_
_geom_bond_atom_site_label_1
_geom_bond_atom_site_label_2
_geom_bond_distance
_geom_bond_site_symmetry_2
S0 Ti1 2.544914 1_554
S0 Ti1 2.544914 1_455
S0 Ti1 2.544914 1_545
S0 Ti4 2.582219 1_554
S0 Ti4 2.582220 1_455
S0 Ti4 2.582220 1_545
S1 Ti0 2.425582 1_665
S1 Ti0 2.425582 1_656
S1 Ti0 2.425582 1_566
S2 Ti0 2.429237 1_556
S2 Ti0 2.429237 1_565
S2 Ti0 2.429237 1_655
S3 Ti1 2.409655 1_556
S3 Ti1 2.409655 1_655
S3 Ti1 2.409655 1_565
S4 Ti2 2.424817 1_556
S4 Ti2 2.424817 1_565
S4 Ti2 2.424817 1_655
S5 Ti3 2.429210 1_445
S5 Ti3 2.429210 1_454
S5 Ti3 2.429210 1_544
S6 Ti4 2.378347 1_556
S6 Ti4 2.378348 1_565
S6 Ti4 2.378348 1_655
S6 Ti2 2.467327 1_665
S6 Ti2 2.467327 1_566
S6 Ti2 2.467327 1_656
S7 Ti3 2.425432 1_554
S7 Ti3 2.425432 1_455
S7 Ti3 2.425432 1_545
