# generated using pymatgen
data_AgSbTe2
_symmetry_space_group_name_H-M   'P 1'
_cell_length_a   4.38866228
_cell_length_b   61.12558549
_cell_length_c   59.00019374
_cell_angle_alpha   3.66408686
_cell_angle_beta   58.08174982
_cell_angle_gamma   59.22984403
_symmetry_Int_Tables_number   1
_chemical_formula_structural   AgSbTe2
_chemical_formula_sum   'Ag7 Sb7 Te14'
_cell_volume   820.18751831
_cell_formula_units_Z   7
loop_
 _symmetry_equiv_pos_site_id
 _symmetry_equiv_pos_as_xyz
  1  'x, y, z'
loop_
 _atom_site_type_symbol
 _atom_site_label
 _atom_site_symmetry_multiplicity
 _atom_site_fract_x
 _atom_site_fract_y
 _atom_site_fract_z
 _atom_site_occupancy
  Ag  Ag0  1  0.92002400  0.43137100  0.08002400  1
  Ag  Ag1  1  0.93371800  0.51518200  0.06557200  1
  Ag  Ag2  1  0.97428200  0.62071100  0.02590700  1
  Ag  Ag3  1  0.00018100  0.71448000  0.99980100  1
  Ag  Ag4  1  0.06570500  0.91316200  0.93462800  1
  Ag  Ag5  1  0.02606400  0.80786700  0.97407700  1
  Ag  Ag6  1  0.08002000  0.99731500  0.91983600  1
  Sb  Sb0  1  0.07071000  0.06053700  0.92937400  1
  Sb  Sb1  1  0.02250000  0.09032300  0.97799400  1
  Sb  Sb2  1  0.02027200  0.15996000  0.98012100  1
  Sb  Sb3  1  0.99992800  0.21435500  0.99995200  1
  Sb  Sb4  1  0.98036700  0.26884700  0.01966700  1
  Sb  Sb5  1  0.97748900  0.33813100  0.02213000  1
  Sb  Sb6  1  0.92875900  0.36779800  0.07086300  1
  Te  Te0  1  0.46916100  0.97333000  0.53117400  1
  Te  Te1  1  0.44721700  0.02621000  0.55278100  1
  Te  Te2  1  0.45865400  0.10748600  0.54130500  1
  Te  Te3  1  0.49999200  0.21436100  0.49993400  1
  Te  Te4  1  0.54153500  0.32115500  0.45860700  1
  Te  Te5  1  0.55258700  0.40225500  0.44729900  1
  Te  Te6  1  0.53082700  0.45527500  0.46879800  1
  Te  Te7  1  0.51616400  0.51371100  0.48397600  1
  Te  Te8  1  0.50920300  0.57894800  0.49126200  1
  Te  Te9  1  0.50750800  0.64896400  0.49295000  1
  Te  Te10  1  0.49983800  0.71434800  0.49995800  1
  Te  Te11  1  0.49343500  0.77990100  0.50676200  1
  Te  Te12  1  0.49057700  0.84940600  0.50897900  1
  Te  Te13  1  0.48328200  0.91461300  0.51627200  1
loop_
_geom_bond_atom_site_label_1
_geom_bond_atom_site_label_2
_geom_bond_distance
_geom_bond_site_symmetry_2
Ag0 Te1 2.878909 1_555
Ag0 Te0 3.088764 1_554
Ag0 Te0 3.090613 1_645
Ag0 Te0 3.139749 1_545
Ag0 Te0 3.148949 1_654
Ag0 Te13 3.428913 1_654
Ag1 Te2 2.897696 1_555
Ag1 Te1 3.074446 1_564
Ag1 Te1 3.078823 1_655
Ag1 Te1 3.126521 1_555
Ag1 Te1 3.136526 1_664
Ag1 Te0 3.247487 1_654
Ag2 Te1 2.880229 1_664
Ag2 Te3 2.882357 1_555
Ag2 Te2 3.076385 1_655
Ag2 Te2 3.077828 1_564
Ag2 Te2 3.130137 1_664
Ag2 Te2 3.133843 1_555
Ag3 Te4 2.788829 1_456
Ag3 Te2 2.789212 1_565
Ag3 Te3 3.075542 1_556
Ag3 Te3 3.075886 1_465
Ag3 Te3 3.130228 1_565
Ag3 Te3 3.131017 1_456
Ag4 Te4 2.897306 1_565
Ag4 Te5 3.075247 1_556
Ag4 Te5 3.078019 1_465
Ag4 Te5 3.128133 1_565
Ag4 Te5 3.134915 1_456
Ag4 Te6 3.248886 1_456
Ag5 Te5 2.879503 1_456
Ag5 Te3 2.881164 1_565
Ag5 Te4 3.077100 1_465
Ag5 Te4 3.077135 1_556
Ag5 Te4 3.130808 1_456
Ag5 Te4 3.133194 1_565
Ag6 Te5 2.878953 1_565
Ag6 Te6 3.089060 1_556
Ag6 Te6 3.090566 1_465
Ag6 Te6 3.140702 1_565
Ag6 Te6 3.148243 1_456
Ag6 Te7 3.430019 1_456
Sb0 Te6 2.804037 1_555
Sb0 Te7 3.093373 1_455
Sb0 Te7 3.093612 1_546
Sb0 Te7 3.147337 1_555
Sb0 Te7 3.148844 1_446
Sb0 Te8 3.419928 1_446
Sb1 Te7 3.008128 1_555
Sb1 Te8 3.076669 1_546
Sb1 Te8 3.076872 1_455
Sb1 Te8 3.131495 1_555
Sb1 Te8 3.131825 1_446
Sb1 Te9 3.134489 1_446
Sb2 Te8 2.975799 1_555
Sb2 Te9 3.076517 1_455
Sb2 Te9 3.076892 1_546
Sb2 Te9 3.131349 1_446
Sb2 Te9 3.131842 1_555
Sb2 Te10 3.161236 1_446
Sb3 Te10 3.075456 1_646
Sb3 Te10 3.075972 1_555
Sb3 Te11 3.081634 1_546
Sb3 Te9 3.083212 1_655
Sb3 Te10 3.130278 1_655
Sb3 Te10 3.130967 1_546
Sb4 Te12 2.975799 1_545
Sb4 Te11 3.076211 1_554
Sb4 Te11 3.077238 1_645
Sb4 Te11 3.131461 1_545
Sb4 Te11 3.131768 1_654
Sb4 Te10 3.160511 1_654
Sb5 Te13 3.007869 1_545
Sb5 Te12 3.076570 1_645
Sb5 Te12 3.076933 1_554
Sb5 Te12 3.131532 1_654
Sb5 Te12 3.131752 1_545
Sb5 Te11 3.134532 1_654
Sb6 Te0 2.804256 1_545
Sb6 Te13 3.093336 1_645
Sb6 Te13 3.093649 1_554
Sb6 Te13 3.147443 1_545
Sb6 Te13 3.148738 1_654
Sb6 Te12 3.418947 1_654
