# generated using pymatgen
data_Na2(BiO2)21
_symmetry_space_group_name_H-M   'P 1'
_cell_length_a   13.64875582
_cell_length_b   13.64875582
_cell_length_c   7.80431076
_cell_angle_alpha   73.87416404
_cell_angle_beta   73.87416404
_cell_angle_gamma   120.91260388
_symmetry_Int_Tables_number   1
_chemical_formula_structural   Na2(BiO2)21
_chemical_formula_sum   'Na2 Bi21 O42'
_cell_volume   1030.62892273
_cell_formula_units_Z   1
loop_
 _symmetry_equiv_pos_site_id
 _symmetry_equiv_pos_as_xyz
  1  'x, y, z'
loop_
 _atom_site_type_symbol
 _atom_site_label
 _atom_site_symmetry_multiplicity
 _atom_site_fract_x
 _atom_site_fract_y
 _atom_site_fract_z
 _atom_site_occupancy
  Na  Na0  1  0.16641000  0.83359000  0.50000000  1
  Na  Na1  1  0.83359000  0.16641000  0.50000000  1
  Bi  Bi0  1  0.00000000  0.00000000  0.50000000  1
  Bi  Bi1  1  0.83312600  0.66731200  0.99777100  1
  Bi  Bi2  1  0.00000000  0.00000000  0.00000000  1
  Bi  Bi3  1  0.66670900  0.33329100  0.50000000  1
  Bi  Bi4  1  0.33268800  0.16687400  0.00222900  1
  Bi  Bi5  1  0.50000000  0.00000000  0.00000000  1
  Bi  Bi6  1  0.66697100  0.33302900  0.00000000  1
  Bi  Bi7  1  0.33329100  0.66670900  0.50000000  1
  Bi  Bi8  1  0.50000000  0.50000000  0.00000000  1
  Bi  Bi9  1  0.33837700  0.17196300  0.50073300  1
  Bi  Bi10  1  0.00000000  0.50000000  0.00000000  1
  Bi  Bi11  1  0.16687400  0.33268800  0.00222900  1
  Bi  Bi12  1  0.33302900  0.66697100  0.00000000  1
  Bi  Bi13  1  0.16689500  0.83310500  0.00000000  1
  Bi  Bi14  1  0.82803700  0.66162300  0.49926700  1
  Bi  Bi15  1  0.66731200  0.83312600  0.99777100  1
  Bi  Bi16  1  0.00000000  0.50000000  0.50000000  1
  Bi  Bi17  1  0.83310500  0.16689500  0.00000000  1
  Bi  Bi18  1  0.50000000  0.00000000  0.50000000  1
  Bi  Bi19  1  0.66162300  0.82803700  0.49926700  1
  Bi  Bi20  1  0.17196300  0.33837700  0.50073300  1
  O  O0  1  0.73534000  0.53099100  0.32415500  1
  O  O1  1  0.64467500  0.64467500  0.64003900  1
  O  O2  1  0.32555100  0.32555100  0.93633000  1
  O  O3  1  0.39018300  0.85979900  0.32858000  1
  O  O4  1  0.19203400  0.05672300  0.32968100  1
  O  O5  1  0.46899400  0.27825400  0.08879700  1
  O  O6  1  0.72174600  0.53100600  0.91120300  1
  O  O7  1  0.57799500  0.24525400  0.34131400  1
  O  O8  1  0.08596900  0.08596900  0.66444700  1
  O  O9  1  0.99525300  0.66225300  0.92153700  1
  O  O10  1  0.35532500  0.35532500  0.35996100  1
  O  O11  1  0.29982100  0.96424900  0.63532400  1
  O  O12  1  0.85979900  0.39018300  0.32858000  1
  O  O13  1  0.05672300  0.19203400  0.32968100  1
  O  O14  1  0.94519500  0.80474500  0.08535400  1
  O  O15  1  0.13478000  0.61215300  0.08842200  1
  O  O16  1  0.19525500  0.05480500  0.91464600  1
  O  O17  1  0.38784700  0.86522000  0.91157800  1
  O  O18  1  0.46900900  0.26466000  0.67584500  1
  O  O19  1  0.24525400  0.57799500  0.34131400  1
  O  O20  1  0.33774700  0.00474700  0.07846300  1
  O  O21  1  0.03575100  0.70017900  0.36467600  1
  O  O22  1  0.75474600  0.42200500  0.65868600  1
  O  O23  1  0.96424900  0.29982100  0.63532400  1
  O  O24  1  0.66225300  0.99525300  0.92153700  1
  O  O25  1  0.61215300  0.13478000  0.08842200  1
  O  O26  1  0.80474500  0.94519500  0.08535400  1
  O  O27  1  0.53099100  0.73534000  0.32415500  1
  O  O28  1  0.86522000  0.38784700  0.91157800  1
  O  O29  1  0.94327700  0.80796600  0.67031900  1
  O  O30  1  0.05480500  0.19525500  0.91464600  1
  O  O31  1  0.14020100  0.60981700  0.67142000  1
  O  O32  1  0.91403100  0.91403100  0.33555300  1
  O  O33  1  0.00474700  0.33774700  0.07846300  1
  O  O34  1  0.70017900  0.03575100  0.36467600  1
  O  O35  1  0.42200500  0.75474600  0.65868600  1
  O  O36  1  0.27825400  0.46899400  0.08879700  1
  O  O37  1  0.53100600  0.72174600  0.91120300  1
  O  O38  1  0.60981700  0.14020100  0.67142000  1
  O  O39  1  0.80796600  0.94327700  0.67031900  1
  O  O40  1  0.67444900  0.67444900  0.06367000  1
  O  O41  1  0.26466000  0.46900900  0.67584500  1
loop_
_geom_bond_atom_site_label_1
_geom_bond_atom_site_label_2
_geom_bond_distance
_geom_bond_site_symmetry_2
Na0 O11 2.527715 1_555
Na0 O21 2.527715 1_555
Na0 O4 2.750059 1_565
Na0 O29 2.750059 1_455
Na0 O3 2.754604 1_555
Na0 O31 2.754604 1_555
Na0 O9 2.755556 1_455
Na0 O20 2.755556 1_565
Na1 O23 2.527715 1_555
Na1 O34 2.527715 1_555
Na1 O13 2.750059 1_655
Na1 O39 2.750059 1_545
Na1 O12 2.754604 1_555
Na1 O38 2.754604 1_555
Na1 O24 2.755556 1_545
Na1 O33 2.755556 1_655
Bi0 O4 2.155021 1_555
Bi0 O13 2.155021 1_555
Bi0 O29 2.155021 1_445
Bi0 O39 2.155021 1_445
Bi0 O8 2.158503 1_555
Bi0 O32 2.158503 1_445
Bi1 O40 2.142497 1_556
Bi1 O6 2.142763 1_555
Bi1 O29 2.156743 1_555
Bi1 O0 2.158420 1_556
Bi1 O14 2.161131 1_556
Bi1 O9 2.168835 1_555
Bi2 O32 2.187023 1_445
Bi2 O8 2.187023 1_554
Bi2 O16 2.189588 1_554
Bi2 O30 2.189588 1_554
Bi2 O26 2.189588 1_445
Bi2 O14 2.189588 1_445
Bi3 O22 2.146721 1_555
Bi3 O7 2.146721 1_555
Bi3 O0 2.161887 1_555
Bi3 O18 2.161887 1_555
Bi3 O38 2.167955 1_555
Bi3 O12 2.167955 1_555
Bi4 O2 2.142497 1_554
Bi4 O5 2.142763 1_555
Bi4 O4 2.156743 1_555
Bi4 O18 2.158420 1_554
Bi4 O16 2.161131 1_554
Bi4 O20 2.168835 1_555
Bi5 O17 2.145260 1_544
Bi5 O25 2.145260 1_555
Bi5 O3 2.162475 1_545
Bi5 O38 2.162475 1_554
Bi5 O20 2.167850 1_555
Bi5 O24 2.167850 1_544
Bi6 O6 2.221958 1_554
Bi6 O5 2.221958 1_555
Bi6 O7 2.222830 1_555
Bi6 O22 2.222830 1_554
Bi6 O25 2.225642 1_555
Bi6 O28 2.225642 1_554
Bi7 O35 2.146721 1_555
Bi7 O19 2.146721 1_555
Bi7 O27 2.161887 1_555
Bi7 O41 2.161887 1_555
Bi7 O31 2.167955 1_555
Bi7 O3 2.167955 1_555
Bi8 O10 2.349691 1_555
Bi8 O1 2.349691 1_554
Bi8 O40 2.659867 1_555
Bi8 O2 2.659867 1_554
Bi8 O36 2.678692 1_555
Bi8 O5 2.678692 1_555
Bi8 O37 2.678692 1_554
Bi8 O6 2.678692 1_554
Bi9 O10 2.293578 1_555
Bi9 O11 2.433833 1_545
Bi9 O18 2.577527 1_555
Bi9 O7 2.632794 1_555
Bi9 O5 2.680750 1_555
Bi9 O16 2.687688 1_555
Bi9 O8 2.728697 1_555
Bi9 O4 2.768620 1_555
Bi10 O28 2.145260 1_454
Bi10 O15 2.145260 1_555
Bi10 O12 2.162475 1_455
Bi10 O31 2.162475 1_554
Bi10 O33 2.167850 1_555
Bi10 O9 2.167850 1_454
Bi11 O2 2.142497 1_554
Bi11 O36 2.142763 1_555
Bi11 O13 2.156743 1_555
Bi11 O41 2.158420 1_554
Bi11 O30 2.161131 1_554
Bi11 O33 2.168835 1_555
Bi12 O37 2.221958 1_554
Bi12 O36 2.221958 1_555
Bi12 O19 2.222830 1_555
Bi12 O35 2.222830 1_554
Bi12 O15 2.225642 1_555
Bi12 O17 2.225642 1_554
Bi13 O11 2.358112 1_554
Bi13 O21 2.358112 1_555
Bi13 O17 2.660953 1_554
Bi13 O15 2.660953 1_555
Bi13 O20 2.697807 1_565
Bi13 O9 2.697807 1_454
Bi13 O14 2.698786 1_455
Bi13 O16 2.698786 1_564
Bi14 O1 2.293578 1_555
Bi14 O21 2.433833 1_655
Bi14 O0 2.577527 1_555
Bi14 O22 2.632794 1_555
Bi14 O6 2.680750 1_555
Bi14 O14 2.687688 1_555
Bi14 O32 2.728697 1_555
Bi14 O29 2.768620 1_555
Bi15 O40 2.142497 1_556
Bi15 O37 2.142763 1_555
Bi15 O39 2.156743 1_555
Bi15 O27 2.158420 1_556
Bi15 O26 2.161131 1_556
Bi15 O24 2.168835 1_555
Bi16 O23 2.357839 1_455
Bi16 O21 2.357839 1_555
Bi16 O28 2.671664 1_455
Bi16 O15 2.671664 1_555
Bi16 O19 2.678741 1_555
Bi16 O22 2.678741 1_455
Bi16 O31 2.699463 1_555
Bi16 O12 2.699463 1_455
Bi17 O23 2.358112 1_554
Bi17 O34 2.358112 1_555
Bi17 O28 2.660953 1_554
Bi17 O25 2.660953 1_555
Bi17 O33 2.697807 1_655
Bi17 O24 2.697807 1_544
Bi17 O26 2.698786 1_545
Bi17 O30 2.698786 1_654
Bi18 O11 2.357839 1_545
Bi18 O34 2.357839 1_555
Bi18 O17 2.671664 1_545
Bi18 O25 2.671664 1_555
Bi18 O7 2.678741 1_555
Bi18 O35 2.678741 1_545
Bi18 O38 2.699463 1_555
Bi18 O3 2.699463 1_545
Bi19 O1 2.293578 1_555
Bi19 O34 2.433833 1_565
Bi19 O27 2.577527 1_555
Bi19 O35 2.632794 1_555
Bi19 O37 2.680750 1_555
Bi19 O26 2.687688 1_555
Bi19 O32 2.728697 1_555
Bi19 O39 2.768620 1_555
Bi20 O10 2.293578 1_555
Bi20 O23 2.433833 1_455
Bi20 O41 2.577527 1_555
Bi20 O19 2.632794 1_555
Bi20 O36 2.680750 1_555
Bi20 O30 2.687688 1_555
Bi20 O8 2.728697 1_555
Bi20 O13 2.768620 1_555
