# generated using pymatgen
data_P4S3
_symmetry_space_group_name_H-M   'P 1'
_cell_length_a   6.82756940
_cell_length_b   9.93302569
_cell_length_c   11.11081821
_cell_angle_alpha   90.00000000
_cell_angle_beta   90.00000000
_cell_angle_gamma   90.00000000
_symmetry_Int_Tables_number   1
_chemical_formula_structural   P4S3
_chemical_formula_sum   'P16 S12'
_cell_volume   753.51816091
_cell_formula_units_Z   4
loop_
 _symmetry_equiv_pos_site_id
 _symmetry_equiv_pos_as_xyz
  1  'x, y, z'
loop_
 _atom_site_type_symbol
 _atom_site_label
 _atom_site_symmetry_multiplicity
 _atom_site_fract_x
 _atom_site_fract_y
 _atom_site_fract_z
 _atom_site_occupancy
  P  P0  1  0.75678157  0.86277997  0.07759175  1
  P  P1  1  0.25678157  0.13722003  0.42240825  1
  P  P2  1  0.24321843  0.36277997  0.92240925  1
  P  P3  1  0.74321843  0.63722003  0.57759075  1
  P  P4  1  0.84508338  0.25000000  0.30869972  1
  P  P5  1  0.34508338  0.75000000  0.19130028  1
  P  P6  1  0.15491662  0.75000000  0.69130028  1
  P  P7  1  0.65491662  0.25000000  0.80869972  1
  P  P8  1  0.08975556  0.25000000  0.56275018  1
  P  P9  1  0.58975556  0.75000000  0.93724982  1
  P  P10  1  0.91024444  0.75000000  0.43724982  1
  P  P11  1  0.41024444  0.25000000  0.06275018  1
  P  P12  1  0.24321843  0.13722003  0.92240925  1
  P  P13  1  0.74321843  0.86277997  0.57759075  1
  P  P14  1  0.25678157  0.36277997  0.42240825  1
  P  P15  1  0.75678157  0.63722003  0.07759175  1
  S  S0  1  0.95640550  0.91165039  0.70588929  1
  S  S1  1  0.45640550  0.41165039  0.79411071  1
  S  S2  1  0.04359450  0.08834961  0.29411071  1
  S  S3  1  0.54359450  0.91165039  0.20588929  1
  S  S4  1  0.45640550  0.08834961  0.79411071  1
  S  S5  1  0.95640550  0.58834961  0.70588929  1
  S  S6  1  0.54359450  0.58834961  0.20588929  1
  S  S7  1  0.04359450  0.41165039  0.29411071  1
  S  S8  1  0.69720065  0.25000000  0.99609584  1
  S  S9  1  0.19720065  0.75000000  0.50390416  1
  S  S10  1  0.30279935  0.75000000  0.00390416  1
  S  S11  1  0.80279935  0.25000000  0.49609584  1
loop_
_geom_bond_atom_site_label_1
_geom_bond_atom_site_label_2
_geom_bond_distance
_geom_bond_site_symmetry_2
P0 S3 2.094347 1_555
P1 S2 2.094347 1_555
P2 S1 2.094355 1_555
P3 S5 2.094355 1_555
P4 S11 2.102044 1_555
P4 S7 2.107474 1_655
P4 S2 2.107474 1_655
P5 S10 2.102044 1_555
P5 S6 2.107474 1_555
P5 S3 2.107474 1_555
P6 S9 2.102044 1_555
P6 S5 2.107474 1_455
P6 S0 2.107474 1_455
P7 S8 2.102044 1_555
P7 S1 2.107474 1_555
P7 S4 2.107474 1_555
P8 S11 2.094512 1_455
P9 S10 2.094512 1_556
P10 S9 2.094512 1_655
P11 S8 2.094512 1_554
P12 S4 2.094355 1_555
P13 S0 2.094355 1_555
P14 S7 2.094347 1_555
P15 S6 2.094347 1_555
