# generated using pymatgen
data_Ca6MnAl11
_symmetry_space_group_name_H-M   'P 1'
_cell_length_a   5.71038124
_cell_length_b   5.71038124
_cell_length_c   54.15496500
_cell_angle_alpha   90.00000000
_cell_angle_beta   90.00000000
_cell_angle_gamma   119.99999120
_symmetry_Int_Tables_number   1
_chemical_formula_structural   Ca6MnAl11
_chemical_formula_sum   'Ca24 Mn4 Al44'
_cell_volume   1529.32277943
_cell_formula_units_Z   4
loop_
 _symmetry_equiv_pos_site_id
 _symmetry_equiv_pos_as_xyz
  1  'x, y, z'
loop_
 _atom_site_type_symbol
 _atom_site_label
 _atom_site_symmetry_multiplicity
 _atom_site_fract_x
 _atom_site_fract_y
 _atom_site_fract_z
 _atom_site_occupancy
  Ca  Ca0  1  0.00000000  0.00000000  0.13535800  1
  Ca  Ca1  1  0.00000000  0.00000000  0.46879700  1
  Ca  Ca2  1  0.00000000  0.00000000  0.80213100  1
  Ca  Ca3  1  0.00000000  0.00000000  0.19800100  1
  Ca  Ca4  1  0.00000000  0.00000000  0.53079600  1
  Ca  Ca5  1  0.00000000  0.00000000  0.86412100  1
  Ca  Ca6  1  0.00000000  0.00000000  0.30212700  1
  Ca  Ca7  1  0.00000000  0.00000000  0.63640200  1
  Ca  Ca8  1  0.00000000  0.00000000  0.96972900  1
  Ca  Ca9  1  0.00000000  0.00000000  0.03128900  1
  Ca  Ca10  1  0.00000000  0.00000000  0.36461900  1
  Ca  Ca11  1  0.00000000  0.00000000  0.69801400  1
  Ca  Ca12  1  0.66666700  0.33333300  0.28128400  1
  Ca  Ca13  1  0.66666700  0.33333300  0.61458900  1
  Ca  Ca14  1  0.66666700  0.33333300  0.94789500  1
  Ca  Ca15  1  0.33333300  0.66666700  0.05188900  1
  Ca  Ca16  1  0.33333300  0.66666700  0.38540600  1
  Ca  Ca17  1  0.33333300  0.66666700  0.71856900  1
  Ca  Ca18  1  0.33333300  0.66666700  0.11480800  1
  Ca  Ca19  1  0.33333300  0.66666700  0.44811200  1
  Ca  Ca20  1  0.33333300  0.66666700  0.78141100  1
  Ca  Ca21  1  0.66666700  0.33333300  0.21849300  1
  Ca  Ca22  1  0.66666700  0.33333300  0.55229900  1
  Ca  Ca23  1  0.66666700  0.33333300  0.88561200  1
  Mn  Mn0  1  0.66666700  0.33333300  0.12528500  1
  Mn  Mn1  1  0.66666700  0.33333300  0.45789100  1
  Mn  Mn2  1  0.66666700  0.33333300  0.79123600  1
  Mn  Mn3  1  0.33333300  0.66666700  0.20801200  1
  Al  Al0  1  0.83280000  0.66559900  0.08450200  1
  Al  Al1  1  0.83277100  0.66554300  0.41785600  1
  Al  Al2  1  0.83274800  0.66549700  0.75117600  1
  Al  Al3  1  0.83280000  0.16720000  0.08450200  1
  Al  Al4  1  0.83277100  0.16722900  0.41785600  1
  Al  Al5  1  0.83274800  0.16725200  0.75117600  1
  Al  Al6  1  0.33440100  0.16720000  0.08450200  1
  Al  Al7  1  0.33445700  0.16722900  0.41785600  1
  Al  Al8  1  0.33450300  0.16725200  0.75117600  1
  Al  Al9  1  0.16738600  0.33477100  0.24876300  1
  Al  Al10  1  0.16246900  0.32493900  0.58333600  1
  Al  Al11  1  0.16243500  0.32487100  0.91667400  1
  Al  Al12  1  0.16738600  0.83261400  0.24876300  1
  Al  Al13  1  0.16246900  0.83753100  0.58333600  1
  Al  Al14  1  0.16243500  0.83756500  0.91667400  1
  Al  Al15  1  0.66522900  0.83261400  0.24876300  1
  Al  Al16  1  0.67506100  0.83753100  0.58333600  1
  Al  Al17  1  0.67512900  0.83756500  0.91667400  1
  Al  Al18  1  0.49990300  0.99980600  0.16672700  1
  Al  Al19  1  0.50289300  0.00578600  0.49883900  1
  Al  Al20  1  0.50305400  0.00610900  0.83219500  1
  Al  Al21  1  0.49990300  0.50009700  0.16672700  1
  Al  Al22  1  0.50289300  0.49710700  0.49883900  1
  Al  Al23  1  0.50305400  0.49694600  0.83219500  1
  Al  Al24  1  0.00019400  0.50009700  0.16672700  1
  Al  Al25  1  0.99421400  0.49710700  0.49883900  1
  Al  Al26  1  0.99389100  0.49694600  0.83219500  1
  Al  Al27  1  0.50059400  0.00118800  0.99989300  1
  Al  Al28  1  0.49993400  0.99986800  0.33334300  1
  Al  Al29  1  0.50056500  0.00112900  0.66656500  1
  Al  Al30  1  0.49993400  0.50006600  0.33334300  1
  Al  Al31  1  0.50056500  0.49943500  0.66656500  1
  Al  Al32  1  0.50059400  0.49940600  0.99989300  1
  Al  Al33  1  0.99881200  0.49940600  0.99989300  1
  Al  Al34  1  0.00013200  0.50006600  0.33334300  1
  Al  Al35  1  0.99887100  0.49943500  0.66656500  1
  Al  Al36  1  0.33333300  0.66666700  0.54144500  1
  Al  Al37  1  0.33333300  0.66666700  0.87475400  1
  Al  Al38  1  0.33333300  0.66666700  0.29033500  1
  Al  Al39  1  0.33333300  0.66666700  0.62377900  1
  Al  Al40  1  0.33333300  0.66666700  0.95710000  1
  Al  Al41  1  0.66666700  0.33333300  0.04293700  1
  Al  Al42  1  0.66666700  0.33333300  0.37629500  1
  Al  Al43  1  0.66666700  0.33333300  0.70956800  1
loop_
_geom_bond_atom_site_label_1
_geom_bond_atom_site_label_2
_geom_bond_distance
_geom_bond_site_symmetry_2
Ca0 Mn0 3.341711 1_455
Ca0 Mn0 3.341717 1_445
Ca0 Mn0 3.341717 1_555
Ca1 Mn1 3.349371 1_455
Ca1 Mn1 3.349376 1_555
Ca1 Mn1 3.349376 1_445
Ca1 Ca4 3.357554 1_555
Ca1 Ca19 3.481997 1_545
Ca1 Ca19 3.482002 1_555
Ca1 Ca19 3.482002 1_445
Ca2 Mn2 3.349266 1_455
Ca2 Mn2 3.349271 1_445
Ca2 Mn2 3.349271 1_555
Ca2 Ca5 3.357066 1_555
Ca2 Ca20 3.482607 1_545
Ca2 Ca20 3.482612 1_555
Ca2 Ca20 3.482612 1_445
Ca3 Mn3 3.341165 1_545
Ca3 Mn3 3.341170 1_445
Ca3 Mn3 3.341170 1_555
Ca8 Ca9 3.333780 1_556
Ca10 Ca6 3.384252 1_555
Ca10 Ca16 3.483778 1_545
Ca10 Ca16 3.483783 1_555
Ca10 Ca16 3.483783 1_445
Ca11 Ca7 3.336596 1_555
Ca11 Ca17 3.479738 1_545
Ca11 Ca17 3.479743 1_555
Ca11 Ca17 3.479743 1_445
Ca12 Ca6 3.484759 1_655
Ca12 Ca6 3.484764 1_665
Ca12 Ca6 3.484764 1_555
Ca13 Ca22 3.373313 1_555
Ca13 Ca7 3.502126 1_655
Ca13 Ca7 3.502132 1_665
Ca13 Ca7 3.502132 1_555
Ca14 Ca23 3.372934 1_555
Ca14 Ca8 3.502510 1_655
Ca14 Ca8 3.502515 1_665
Ca14 Ca8 3.502515 1_555
Ca15 Ca9 3.480518 1_565
Ca15 Ca9 3.480523 1_665
Ca15 Ca9 3.480523 1_555
Ca18 Mn0 3.345353 1_455
Ca18 Mn0 3.345353 1_565
Ca18 Mn0 3.345362 1_555
Ca19 Mn1 3.339150 1_455
Ca19 Mn1 3.339150 1_565
Ca19 Mn1 3.339159 1_555
Ca20 Mn2 3.339546 1_455
Ca20 Mn2 3.339546 1_565
Ca20 Mn2 3.339555 1_555
Ca21 Mn3 3.345390 1_545
Ca21 Mn3 3.345390 1_655
Ca21 Mn3 3.345399 1_555
Ca22 Ca4 3.496499 1_655
Ca22 Ca4 3.496505 1_665
Ca22 Ca4 3.496505 1_555
Ca23 Ca5 3.496283 1_655
Ca23 Ca5 3.496288 1_665
Ca23 Ca5 3.496288 1_555
Al0 Mn0 2.752802 1_555
Al0 Al41 2.786894 1_555
Al0 Al3 2.846048 1_555
Al0 Al6 2.846049 1_555
Al0 Al3 2.864333 1_565
Al0 Al6 2.864333 1_665
Al0 Ca0 3.212460 1_665
Al0 Ca18 3.293283 1_655
Al0 Ca18 3.293293 1_555
Al0 Ca9 3.322541 1_665
Al0 Ca15 3.357293 1_655
Al0 Ca15 3.357303 1_555
Al1 Mn1 2.720242 1_555
Al1 Al42 2.786556 1_555
Al1 Al4 2.845563 1_555
Al1 Al7 2.845563 1_555
Al1 Al4 2.864818 1_565
Al1 Al7 2.864819 1_665
Al1 Ca1 3.216550 1_665
Al1 Ca19 3.291940 1_555
Al1 Ca19 3.291940 1_655
Al1 Ca10 3.323806 1_665
Al1 Ca16 3.352663 1_555
Al1 Ca16 3.352663 1_655
Al2 Mn2 2.721184 1_555
Al2 Al43 2.788478 1_555
Al2 Al5 2.845169 1_555
Al2 Al8 2.845169 1_555
Al2 Al5 2.865212 1_565
Al2 Al8 2.865213 1_665
Al2 Ca2 3.217317 1_665
Al2 Ca20 3.291374 1_555
Al2 Ca20 3.291374 1_655
Al2 Ca11 3.320397 1_665
Al2 Ca17 3.357128 1_555
Al2 Ca17 3.357128 1_655
Al3 Mn0 2.752802 1_555
Al3 Al41 2.786894 1_555
Al3 Al6 2.846048 1_555
Al3 Al6 2.864333 1_655
Al3 Ca0 3.212458 1_655
Al3 Ca18 3.293288 1_545
Al3 Ca18 3.293288 1_655
Al3 Ca9 3.322539 1_655
Al3 Ca15 3.357298 1_545
Al3 Ca15 3.357298 1_655
Al4 Mn1 2.720236 1_555
Al4 Al42 2.786550 1_555
Al4 Al7 2.845563 1_555
Al4 Al7 2.864818 1_655
Al4 Ca1 3.216552 1_655
Al4 Ca19 3.291940 1_545
Al4 Ca19 3.291940 1_655
Al4 Ca10 3.323809 1_655
Al4 Ca16 3.352663 1_545
Al4 Ca16 3.352663 1_655
Al5 Mn2 2.721178 1_555
Al5 Al8 2.845169 1_555
Al5 Al8 2.865212 1_655
Al5 Ca2 3.217320 1_655
Al5 Ca20 3.291375 1_545
Al5 Ca20 3.291375 1_655
Al5 Ca11 3.320400 1_655
Al5 Ca17 3.357128 1_655
Al5 Ca17 3.357128 1_545
Al6 Mn0 2.752802 1_555
Al6 Ca0 3.212460 1_555
Al6 Ca18 3.293283 1_545
Al6 Ca18 3.293293 1_555
Al6 Ca9 3.322541 1_555
Al6 Ca15 3.357293 1_545
Al6 Ca15 3.357303 1_555
Al7 Mn1 2.720242 1_555
Al7 Ca1 3.216550 1_555
Al7 Ca19 3.291940 1_555
Al7 Ca19 3.291940 1_545
Al7 Ca10 3.323806 1_555
Al7 Ca16 3.352663 1_555
Al7 Ca16 3.352663 1_545
Al8 Mn2 2.721184 1_555
Al8 Ca2 3.217317 1_555
Al8 Ca20 3.291374 1_555
Al8 Ca20 3.291374 1_545
Al8 Ca11 3.320397 1_555
Al8 Ca17 3.357128 1_555
Al8 Ca17 3.357128 1_545
Al9 Mn3 2.750320 1_555
Al9 Ca3 3.209041 1_555
Al9 Ca21 3.292320 1_555
Al9 Ca21 3.292320 1_455
Al9 Ca6 3.330545 1_555
Al9 Ca12 3.354683 1_555
Al9 Ca12 3.354683 1_455
Al10 Al39 2.766386 1_555
Al10 Al13 2.783285 1_545
Al10 Al16 2.783286 1_445
Al10 Al36 2.828875 1_555
Al10 Al13 2.927096 1_555
Al10 Al16 2.927096 1_555
Al10 Ca4 3.267717 1_555
Al10 Ca7 3.292550 1_555
Al10 Ca22 3.313445 1_455
Al10 Ca22 3.313455 1_555
Al10 Ca13 3.319394 1_455
Al10 Ca13 3.319404 1_555
Al11 Al40 2.765863 1_555
Al11 Al14 2.782703 1_545
Al11 Al17 2.782703 1_445
Al11 Al37 2.830336 1_555
Al11 Al14 2.927678 1_555
Al11 Al17 2.927679 1_555
Al11 Ca5 3.268165 1_555
Al11 Ca8 3.291866 1_555
Al11 Ca23 3.314136 1_455
Al11 Ca23 3.314146 1_555
Al11 Ca14 3.318515 1_455
Al11 Ca14 3.318525 1_555
Al12 Mn3 2.750314 1_555
Al12 Al38 2.786116 1_555
Al12 Al15 2.842873 1_555
Al12 Al9 2.842873 1_555
Al12 Al9 2.867508 1_565
Al12 Al15 2.867508 1_455
Al12 Ca3 3.209043 1_565
Al12 Ca21 3.292321 1_455
Al12 Ca21 3.292321 1_565
Al12 Ca6 3.330548 1_565
Al12 Ca12 3.354683 1_455
Al12 Ca12 3.354683 1_565
Al13 Al39 2.766386 1_555
Al13 Al16 2.783285 1_455
Al13 Al36 2.828875 1_555
Al13 Al16 2.927096 1_555
Al13 Ca4 3.267714 1_565
Al13 Ca7 3.292548 1_565
Al13 Ca22 3.313450 1_455
Al13 Ca22 3.313450 1_565
Al13 Ca13 3.319400 1_455
Al13 Ca13 3.319400 1_565
Al14 Al40 2.765863 1_555
Al14 Al17 2.782703 1_455
Al14 Al37 2.830336 1_555
Al14 Al17 2.927678 1_555
Al14 Ca5 3.268162 1_565
Al14 Ca8 3.291863 1_565
Al14 Ca23 3.314142 1_455
Al14 Ca23 3.314142 1_565
Al14 Ca14 3.318520 1_455
Al14 Ca14 3.318520 1_565
Al15 Mn3 2.750320 1_555
Al15 Al38 2.786122 1_555
Al15 Al9 2.842874 1_555
Al15 Al9 2.867508 1_665
Al15 Ca3 3.209041 1_665
Al15 Ca21 3.292320 1_555
Al15 Ca21 3.292320 1_565
Al15 Ca6 3.330545 1_665
Al15 Ca12 3.354683 1_555
Al15 Ca12 3.354683 1_565
Al16 Al39 2.766386 1_555
Al16 Al36 2.828875 1_555
Al16 Ca4 3.267717 1_665
Al16 Ca7 3.292550 1_665
Al16 Ca22 3.313445 1_565
Al16 Ca22 3.313455 1_555
Al16 Ca13 3.319394 1_565
Al16 Ca13 3.319404 1_555
Al17 Al40 2.765863 1_555
Al17 Al37 2.830336 1_555
Al17 Ca5 3.268165 1_665
Al17 Ca8 3.291866 1_665
Al17 Ca23 3.314136 1_565
Al17 Ca23 3.314146 1_555
Al17 Ca14 3.318515 1_565
Al17 Ca14 3.318525 1_555
Al18 Mn3 2.777220 1_555
Al18 Mn0 2.785205 1_565
Al18 Al21 2.853529 1_555
Al18 Al24 2.853529 1_555
Al18 Al21 2.856852 1_565
Al18 Al24 2.856853 1_665
Al18 Ca21 3.252615 1_565
Al18 Ca18 3.258788 1_555
Al18 Ca3 3.319720 1_565
Al18 Ca3 3.319720 1_665
Al18 Ca0 3.322347 1_565
Al18 Ca0 3.322347 1_665
Al19 Mn1 2.746147 1_555
Al19 Al22 2.805630 1_555
Al19 Al25 2.805631 1_555
Al19 Al36 2.852416 1_545
Al19 Al22 2.904751 1_545
Al19 Al25 2.904751 1_445
Al19 Ca19 3.218569 1_545
Al19 Ca1 3.286307 1_655
Al19 Ca1 3.286307 1_555
Al19 Ca22 3.317468 1_555
Al19 Ca4 3.338864 1_655
Al19 Ca4 3.338864 1_555
Al20 Mn2 2.745686 1_555
Al20 Al23 2.802866 1_555
Al20 Al26 2.802867 1_555
Al20 Al37 2.851298 1_545
Al20 Al23 2.907515 1_545
Al20 Al26 2.907515 1_445
Al20 Ca20 3.222036 1_545
Al20 Ca2 3.286909 1_555
Al20 Ca2 3.286914 1_655
Al20 Ca23 3.314656 1_555
Al20 Ca5 3.338006 1_555
Al20 Ca5 3.338011 1_655
Al21 Mn3 2.777223 1_555
Al21 Mn0 2.785208 1_555
Al21 Al24 2.853529 1_555
Al21 Al24 2.856852 1_655
Al21 Ca21 3.252617 1_555
Al21 Ca18 3.258791 1_555
Al21 Ca3 3.319720 1_665
Al21 Ca3 3.319720 1_555
Al21 Ca0 3.322348 1_555
Al21 Ca0 3.322348 1_665
Al22 Mn1 2.746149 1_555
Al22 Al25 2.805630 1_555
Al22 Al36 2.852419 1_555
Al22 Al25 2.904751 1_455
Al22 Ca19 3.218571 1_555
Al22 Ca1 3.286307 1_555
Al22 Ca1 3.286307 1_665
Al22 Ca22 3.317470 1_555
Al22 Ca4 3.338864 1_665
Al22 Ca4 3.338864 1_555
Al23 Mn2 2.745692 1_555
Al23 Al26 2.802866 1_555
Al23 Al37 2.851297 1_555
Al23 Al26 2.907515 1_455
Al23 Ca20 3.222035 1_555
Al23 Ca2 3.286911 1_665
Al23 Ca2 3.286911 1_555
Al23 Ca23 3.314661 1_555
Al23 Ca5 3.338009 1_665
Al23 Ca5 3.338009 1_555
Al24 Mn3 2.777220 1_555
Al24 Mn0 2.785205 1_455
Al24 Ca21 3.252615 1_455
Al24 Ca18 3.258788 1_555
Al24 Ca3 3.319720 1_565
Al24 Ca3 3.319720 1_555
Al24 Ca0 3.322347 1_565
Al24 Ca0 3.322347 1_555
Al25 Mn1 2.746147 1_555
Al25 Al36 2.852416 1_655
Al25 Ca19 3.218569 1_655
Al25 Ca1 3.286307 1_655
Al25 Ca1 3.286307 1_665
Al25 Ca22 3.317468 1_555
Al25 Ca4 3.338864 1_655
Al25 Ca4 3.338864 1_665
Al26 Mn2 2.745686 1_555
Al26 Al37 2.851298 1_655
Al26 Ca20 3.222036 1_655
Al26 Ca2 3.286909 1_665
Al26 Ca2 3.286914 1_655
Al26 Ca23 3.314656 1_555
Al26 Ca5 3.338006 1_665
Al26 Ca5 3.338011 1_655
Al27 Al32 2.845015 1_555
Al27 Al33 2.845015 1_555
Al27 Al40 2.847343 1_545
Al27 Al41 2.851633 1_556
Al27 Al32 2.865367 1_545
Al27 Al33 2.865367 1_445
Al27 Ca14 3.260001 1_555
Al27 Ca15 3.265844 1_546
Al27 Ca8 3.289463 1_655
Al27 Ca8 3.289463 1_555
Al27 Ca9 3.323100 1_656
Al27 Ca9 3.323100 1_556
Al28 Al42 2.851332 1_565
Al28 Al38 2.853052 1_555
Al28 Al30 2.854060 1_555
Al28 Al34 2.854060 1_555
Al28 Al30 2.856321 1_565
Al28 Al34 2.856322 1_665
Al28 Ca16 3.265674 1_555
Al28 Ca12 3.266146 1_565
Al28 Ca6 3.318118 1_565
Al28 Ca6 3.318118 1_665
Al28 Ca10 3.319775 1_565
Al28 Ca10 3.319775 1_665
Al29 Al31 2.845517 1_555
Al29 Al35 2.845518 1_555
Al29 Al39 2.846865 1_545
Al29 Al43 2.849986 1_555
Al29 Al31 2.864864 1_545
Al29 Al35 2.864864 1_445
Al29 Ca13 3.259119 1_555
Al29 Ca17 3.266069 1_545
Al29 Ca7 3.289434 1_655
Al29 Ca7 3.289438 1_555
Al29 Ca11 3.324567 1_655
Al29 Ca11 3.324572 1_555
Al30 Al42 2.851334 1_555
Al30 Al38 2.853055 1_555
Al30 Al34 2.854060 1_555
Al30 Al34 2.856321 1_655
Al30 Ca16 3.265676 1_555
Al30 Ca12 3.266148 1_555
Al30 Ca6 3.318119 1_555
Al30 Ca6 3.318119 1_665
Al30 Ca10 3.319775 1_665
Al30 Ca10 3.319775 1_555
Al31 Al35 2.845517 1_555
Al31 Al39 2.846870 1_555
Al31 Al43 2.849986 1_555
Al31 Al35 2.864864 1_455
Al31 Ca13 3.259119 1_555
Al31 Ca17 3.266074 1_555
Al31 Ca7 3.289436 1_665
Al31 Ca7 3.289436 1_555
Al31 Ca11 3.324570 1_665
Al31 Ca11 3.324570 1_555
Al32 Al33 2.845015 1_555
Al32 Al40 2.847345 1_555
Al32 Al41 2.851635 1_556
Al32 Al33 2.865367 1_455
Al32 Ca14 3.260003 1_555
Al32 Ca15 3.265846 1_556
Al32 Ca8 3.289464 1_665
Al32 Ca8 3.289464 1_555
Al32 Ca9 3.323101 1_666
Al32 Ca9 3.323101 1_556
Al33 Al40 2.847343 1_655
Al33 Al41 2.851633 1_556
Al33 Ca14 3.260001 1_555
Al33 Ca15 3.265844 1_656
Al33 Ca8 3.289463 1_655
Al33 Ca8 3.289463 1_665
Al33 Ca9 3.323100 1_656
Al33 Ca9 3.323100 1_666
Al34 Al42 2.851332 1_455
Al34 Al38 2.853052 1_555
Al34 Ca16 3.265674 1_555
Al34 Ca12 3.266146 1_455
Al34 Ca6 3.318118 1_565
Al34 Ca6 3.318118 1_555
Al34 Ca10 3.319775 1_565
Al34 Ca10 3.319775 1_555
Al35 Al39 2.846865 1_655
Al35 Al43 2.849986 1_555
Al35 Ca13 3.259119 1_555
Al35 Ca17 3.266069 1_655
Al35 Ca7 3.289434 1_655
Al35 Ca7 3.289438 1_665
Al35 Ca11 3.324567 1_655
Al35 Ca11 3.324572 1_665
Al36 Ca4 3.346945 1_565
Al36 Ca4 3.346950 1_665
Al36 Ca4 3.346950 1_555
Al36 Ca22 3.348876 1_455
Al36 Ca22 3.348876 1_565
Al36 Ca22 3.348885 1_555
Al37 Ca5 3.346796 1_565
Al37 Ca5 3.346801 1_555
Al37 Ca5 3.346801 1_665
Al37 Ca23 3.348914 1_455
Al37 Ca23 3.348914 1_565
Al37 Ca23 3.348923 1_555
Al38 Al9 2.786122 1_555
Al38 Ca12 3.333124 1_455
Al38 Ca12 3.333124 1_565
Al38 Ca12 3.333134 1_555
Al38 Ca6 3.358164 1_565
Al38 Ca6 3.358169 1_665
Al38 Ca6 3.358169 1_555
Al39 Ca13 3.334240 1_455
Al39 Ca13 3.334240 1_565
Al39 Ca13 3.334249 1_555
Al39 Ca7 3.367012 1_565
Al39 Ca7 3.367017 1_665
Al39 Ca7 3.367017 1_555
Al40 Ca14 3.334361 1_455
Al40 Ca14 3.334361 1_565
Al40 Ca14 3.334370 1_555
Al40 Ca8 3.367078 1_565
Al40 Ca8 3.367083 1_665
Al40 Ca8 3.367083 1_555
Al41 Al6 2.786894 1_555
Al41 Ca15 3.332340 1_545
Al41 Ca15 3.332340 1_655
Al41 Ca15 3.332350 1_555
Al41 Ca9 3.356690 1_655
Al41 Ca9 3.356695 1_665
Al41 Ca9 3.356695 1_555
Al42 Al7 2.786556 1_555
Al42 Ca16 3.333604 1_545
Al42 Ca16 3.333604 1_655
Al42 Ca16 3.333613 1_555
Al42 Ca10 3.356975 1_655
Al42 Ca10 3.356980 1_555
Al42 Ca10 3.356980 1_665
Al43 Al5 2.788472 1_555
Al43 Al8 2.788478 1_555
Al43 Ca17 3.332727 1_545
Al43 Ca17 3.332727 1_655
Al43 Ca17 3.332737 1_555
Al43 Ca11 3.355737 1_655
Al43 Ca11 3.355742 1_665
Al43 Ca11 3.355742 1_555
