# generated using pymatgen
data_MnZn(SiO3)2
_symmetry_space_group_name_H-M   'P 1'
_cell_length_a   5.33966000
_cell_length_b   9.20751200
_cell_length_c   18.77025200
_cell_angle_alpha   90.00000000
_cell_angle_beta   90.00000000
_cell_angle_gamma   90.00000000
_symmetry_Int_Tables_number   1
_chemical_formula_structural   MnZn(SiO3)2
_chemical_formula_sum   'Mn8 Zn8 Si16 O48'
_cell_volume   922.83913036
_cell_formula_units_Z   8
loop_
 _symmetry_equiv_pos_site_id
 _symmetry_equiv_pos_as_xyz
  1  'x, y, z'
loop_
 _atom_site_type_symbol
 _atom_site_label
 _atom_site_symmetry_multiplicity
 _atom_site_fract_x
 _atom_site_fract_y
 _atom_site_fract_z
 _atom_site_occupancy
  Mn  Mn0  1  0.37989700  0.98813800  0.87683200  1
  Mn  Mn1  1  0.62010300  0.01186200  0.12316800  1
  Mn  Mn2  1  0.87989700  0.01186200  0.62316800  1
  Mn  Mn3  1  0.12010300  0.98813800  0.37683200  1
  Mn  Mn4  1  0.37989700  0.48813800  0.62316800  1
  Mn  Mn5  1  0.62010300  0.51186200  0.37683200  1
  Mn  Mn6  1  0.87989700  0.51186200  0.87683200  1
  Mn  Mn7  1  0.12010300  0.48813800  0.12316800  1
  Zn  Zn0  1  0.61615500  0.14807500  0.37512600  1
  Zn  Zn1  1  0.38384500  0.85192500  0.62487400  1
  Zn  Zn2  1  0.61615500  0.64807500  0.12487400  1
  Zn  Zn3  1  0.11615500  0.85192500  0.12487400  1
  Zn  Zn4  1  0.88384500  0.14807500  0.87512600  1
  Zn  Zn5  1  0.38384500  0.35192500  0.87512600  1
  Zn  Zn6  1  0.11615500  0.35192500  0.37512600  1
  Zn  Zn7  1  0.88384500  0.64807500  0.62487400  1
  Si  Si0  1  0.56246100  0.66200100  0.77135900  1
  Si  Si1  1  0.70779200  0.83522400  0.47533700  1
  Si  Si2  1  0.79220800  0.83522400  0.97533700  1
  Si  Si3  1  0.93753900  0.16200100  0.22864100  1
  Si  Si4  1  0.06246100  0.33799900  0.72864100  1
  Si  Si5  1  0.43753900  0.83799900  0.27135900  1
  Si  Si6  1  0.20779200  0.66477600  0.47533700  1
  Si  Si7  1  0.70779200  0.33522400  0.02466300  1
  Si  Si8  1  0.79220800  0.33522400  0.52466300  1
  Si  Si9  1  0.93753900  0.66200100  0.27135900  1
  Si  Si10  1  0.43753900  0.33799900  0.22864100  1
  Si  Si11  1  0.56246100  0.16200100  0.72864100  1
  Si  Si12  1  0.29220800  0.16477600  0.52466300  1
  Si  Si13  1  0.06246100  0.83799900  0.77135900  1
  Si  Si14  1  0.29220800  0.66477600  0.97533700  1
  Si  Si15  1  0.20779200  0.16477600  0.02466300  1
  O  O0  1  0.93631700  0.50471300  0.30985600  1
  O  O1  1  0.29075600  0.01645100  0.06458600  1
  O  O2  1  0.06368300  0.49528700  0.69014400  1
  O  O3  1  0.70728000  0.33809400  0.93712000  1
  O  O4  1  0.20728000  0.16190600  0.93712000  1
  O  O5  1  0.91920900  0.21090900  0.05082800  1
  O  O6  1  0.94256700  0.66292500  0.18399900  1
  O  O7  1  0.05743300  0.83707500  0.68399900  1
  O  O8  1  0.70728000  0.83809400  0.56288000  1
  O  O9  1  0.94256700  0.16292500  0.31600100  1
  O  O10  1  0.43631700  0.49528700  0.19014400  1
  O  O11  1  0.79272000  0.33809400  0.43712000  1
  O  O12  1  0.70924400  0.98354900  0.93541400  1
  O  O13  1  0.44256700  0.83707500  0.18399900  1
  O  O14  1  0.56368300  0.00471300  0.69014400  1
  O  O15  1  0.29075600  0.51645100  0.43541400  1
  O  O16  1  0.43631700  0.99528700  0.30985600  1
  O  O17  1  0.16906600  0.76594000  0.30082900  1
  O  O18  1  0.33093400  0.76594000  0.80082900  1
  O  O19  1  0.58079100  0.71090900  0.94917200  1
  O  O20  1  0.79272000  0.83809400  0.06288000  1
  O  O21  1  0.55743300  0.66292500  0.68399900  1
  O  O22  1  0.79075600  0.48354900  0.06458600  1
  O  O23  1  0.16906600  0.26594000  0.19917100  1
  O  O24  1  0.29272000  0.16190600  0.43712000  1
  O  O25  1  0.55743300  0.16292500  0.81600100  1
  O  O26  1  0.70924400  0.48354900  0.56458600  1
  O  O27  1  0.20728000  0.66190600  0.56288000  1
  O  O28  1  0.20924400  0.51645100  0.93541400  1
  O  O29  1  0.66906600  0.73406000  0.30082900  1
  O  O30  1  0.06368300  0.99528700  0.80985600  1
  O  O31  1  0.83093400  0.73406000  0.80082900  1
  O  O32  1  0.83093400  0.23406000  0.69917100  1
  O  O33  1  0.79075600  0.98354900  0.43541400  1
  O  O34  1  0.29272000  0.66190600  0.06288000  1
  O  O35  1  0.20924400  0.01645100  0.56458600  1
  O  O36  1  0.33093400  0.26594000  0.69917100  1
  O  O37  1  0.08079100  0.78909100  0.94917200  1
  O  O38  1  0.41920900  0.78909100  0.44917200  1
  O  O39  1  0.66906600  0.23406000  0.19917100  1
  O  O40  1  0.41920900  0.28909100  0.05082800  1
  O  O41  1  0.58079100  0.21090900  0.55082800  1
  O  O42  1  0.08079100  0.28909100  0.55082800  1
  O  O43  1  0.44256700  0.33707500  0.31600100  1
  O  O44  1  0.56368300  0.50471300  0.80985600  1
  O  O45  1  0.91920900  0.71090900  0.44917200  1
  O  O46  1  0.05743300  0.33707500  0.81600100  1
  O  O47  1  0.93631700  0.00471300  0.19014400  1
loop_
_geom_bond_atom_site_label_1
_geom_bond_atom_site_label_2
_geom_bond_distance
_geom_bond_site_symmetry_2
Mn0 O12 2.074507 1_555
Mn0 O30 2.106116 1_555
Mn0 O4 2.165649 1_565
Mn0 O25 2.189161 1_565
Mn0 O18 2.507827 1_555
Mn0 O37 2.784497 1_555
Mn1 O1 2.074507 1_555
Mn1 O47 2.106116 1_555
Mn1 O20 2.165649 1_545
Mn1 O13 2.189161 1_545
Mn1 O39 2.507827 1_555
Mn1 O5 2.784497 1_555
Mn2 O35 2.074507 1_655
Mn2 O14 2.106116 1_555
Mn2 O8 2.165649 1_545
Mn2 O7 2.189161 1_645
Mn2 O32 2.507827 1_555
Mn2 O41 2.784497 1_555
Mn3 O33 2.074507 1_455
Mn3 O16 2.106116 1_555
Mn3 O24 2.165649 1_565
Mn3 O9 2.189161 1_465
Mn3 O17 2.507827 1_555
Mn3 O38 2.784497 1_555
Mn4 O26 2.074507 1_555
Mn4 O2 2.106116 1_555
Mn4 O27 2.165649 1_555
Mn4 O21 2.189161 1_555
Mn4 O36 2.507827 1_555
Mn4 O42 2.784497 1_555
Mn5 O15 2.074507 1_555
Mn5 O0 2.106116 1_555
Mn5 O11 2.165649 1_555
Mn5 O43 2.189161 1_555
Mn5 O29 2.507827 1_555
Mn5 O45 2.784497 1_555
Mn6 O28 2.074507 1_655
Mn6 O44 2.106116 1_555
Mn6 O3 2.165649 1_555
Mn6 O46 2.189161 1_655
Mn6 O31 2.507827 1_555
Mn6 O19 2.784497 1_555
Mn7 O22 2.074507 1_455
Mn7 O10 2.106116 1_555
Mn7 O34 2.165649 1_555
Mn7 O6 2.189161 1_455
Mn7 O23 2.507827 1_555
Mn7 O40 2.784497 1_555
O0 Si9 1.618507 1_555
O0 Zn6 2.098132 1_655
O1 Si15 1.619551 1_555
O1 Zn3 2.108225 1_545
O2 Si4 1.618507 1_555
O2 Zn7 2.098132 1_455
O3 Si7 1.643419 1_556
O3 Zn5 2.086367 1_555
O3 Zn4 2.303050 1_555
O4 Si15 1.643419 1_556
O4 Zn4 2.086367 1_455
O4 Zn5 2.303050 1_555
O5 Si15 1.672158 1_655
O5 Si7 1.681008 1_555
O6 Si9 1.640011 1_555
O6 Zn2 2.070781 1_555
O6 Zn3 2.262553 1_655
O7 Si13 1.640011 1_555
O7 Zn1 2.070781 1_555
O7 Zn7 2.262553 1_455
O8 Si1 1.643419 1_555
O8 Zn1 2.086367 1_555
O8 Zn7 2.303050 1_555
O9 Si3 1.640011 1_555
O9 Zn0 2.070781 1_555
O9 Zn6 2.262553 1_655
O10 Si10 1.618507 1_555
O10 Zn2 2.098132 1_555
O11 Si8 1.643419 1_555
O11 Zn6 2.086367 1_655
O11 Zn0 2.303050 1_555
O12 Si2 1.619551 1_555
O12 Zn4 2.108225 1_565
O13 Si5 1.640011 1_555
O13 Zn3 2.070781 1_555
O13 Zn2 2.262553 1_555
O14 Si11 1.618507 1_555
O14 Zn1 2.098132 1_545
O15 Si6 1.619551 1_555
O15 Zn6 2.108225 1_555
O16 Si5 1.618507 1_555
O16 Zn0 2.098132 1_565
O17 Si9 1.658387 1_455
O17 Si5 1.673701 1_555
O18 Si0 1.658387 1_555
O18 Si13 1.673701 1_555
O19 Si14 1.672158 1_555
O19 Si2 1.681008 1_555
O20 Si2 1.643419 1_554
O20 Zn3 2.086367 1_655
O20 Zn2 2.303050 1_555
O21 Si0 1.640011 1_555
O21 Zn7 2.070781 1_555
O21 Zn1 2.262553 1_555
O22 Si7 1.619551 1_555
O22 Zn2 2.108225 1_555
O23 Si3 1.658387 1_455
O23 Si10 1.673701 1_555
O24 Si12 1.643419 1_555
O24 Zn0 2.086367 1_555
O24 Zn6 2.303050 1_555
O25 Si11 1.640011 1_555
O25 Zn4 2.070781 1_555
O25 Zn5 2.262553 1_555
O26 Si8 1.619551 1_555
O26 Zn7 2.108225 1_555
O27 Si6 1.643419 1_555
O27 Zn7 2.086367 1_455
O27 Zn1 2.303050 1_555
O28 Si14 1.619551 1_555
O28 Zn5 2.108225 1_555
O29 Si5 1.658387 1_555
O29 Si9 1.673701 1_555
O30 Si13 1.618507 1_555
O30 Zn4 2.098132 1_465
O31 Si13 1.658387 1_655
O31 Si0 1.673701 1_555
O32 Si4 1.658387 1_655
O32 Si11 1.673701 1_555
O33 Si1 1.619551 1_555
O33 Zn0 2.108225 1_565
O34 Si14 1.643419 1_554
O34 Zn2 2.086367 1_555
O34 Zn3 2.303050 1_555
O35 Si12 1.619551 1_555
O35 Zn1 2.108225 1_545
O36 Si11 1.658387 1_555
O36 Si4 1.673701 1_555
O37 Si2 1.672158 1_455
O37 Si14 1.681008 1_555
O38 Si1 1.672158 1_555
O38 Si6 1.681008 1_555
O39 Si10 1.658387 1_555
O39 Si3 1.673701 1_555
O40 Si7 1.672158 1_555
O40 Si15 1.681008 1_555
O41 Si12 1.672158 1_555
O41 Si8 1.681008 1_555
O42 Si8 1.672158 1_455
O42 Si12 1.681008 1_555
O43 Si10 1.640011 1_555
O43 Zn6 2.070781 1_555
O43 Zn0 2.262553 1_555
O44 Si0 1.618507 1_555
O44 Zn5 2.098132 1_555
O45 Si6 1.672158 1_655
O45 Si1 1.681008 1_555
O46 Si4 1.640011 1_555
O46 Zn5 2.070781 1_555
O46 Zn4 2.262553 1_455
O47 Si3 1.618507 1_555
O47 Zn3 2.098132 1_645
