# generated using pymatgen
data_SrCaCr4O12
_symmetry_space_group_name_H-M   'P 1'
_cell_length_a   5.31854308
_cell_length_b   5.31854308
_cell_length_c   7.51199984
_cell_angle_alpha   90.00000000
_cell_angle_beta   90.00000000
_cell_angle_gamma   90.73426783
_symmetry_Int_Tables_number   1
_chemical_formula_structural   SrCaCr4O12
_chemical_formula_sum   'Sr1 Ca1 Cr4 O12'
_cell_volume   212.47374338
_cell_formula_units_Z   1
loop_
 _symmetry_equiv_pos_site_id
 _symmetry_equiv_pos_as_xyz
  1  'x, y, z'
loop_
 _atom_site_type_symbol
 _atom_site_label
 _atom_site_symmetry_multiplicity
 _atom_site_fract_x
 _atom_site_fract_y
 _atom_site_fract_z
 _atom_site_occupancy
  Sr  Sr0  1  0.98833129  0.98833129  0.50000000  1
  Ca  Ca0  1  0.51368864  0.51368864  0.00000000  1
  Cr  Cr0  1  0.49423111  0.00047590  0.75204049  1
  Cr  Cr1  1  0.49423111  0.00047590  0.24795951  1
  Cr  Cr2  1  0.00047590  0.49423111  0.24795951  1
  Cr  Cr3  1  0.00047590  0.49423111  0.75204049  1
  O  O0  1  0.77281938  0.22930639  0.75525549  1
  O  O1  1  0.22930639  0.77281938  0.75525549  1
  O  O2  1  0.22930639  0.77281938  0.24474451  1
  O  O3  1  0.77281938  0.22930639  0.24474451  1
  O  O4  1  0.72254648  0.72254648  0.72635830  1
  O  O5  1  0.28225185  0.28225185  0.78406428  1
  O  O6  1  0.28225185  0.28225185  0.21593572  1
  O  O7  1  0.72254648  0.72254648  0.27364170  1
  O  O8  1  0.52091483  0.96304874  0.00000000  1
  O  O9  1  0.48119335  0.02786093  0.50000000  1
  O  O10  1  0.96304874  0.52091483  0.00000000  1
  O  O11  1  0.02786093  0.48119335  0.50000000  1
loop_
_geom_bond_atom_site_label_1
_geom_bond_atom_site_label_2
_geom_bond_distance
_geom_bond_site_symmetry_2
Ca0 O6 2.371216 1_555
Ca0 O5 2.371216 1_554
Ca0 O10 2.389758 1_555
Ca0 O8 2.389758 1_555
Ca0 O7 2.581025 1_555
Ca0 O4 2.581025 1_554
Ca0 O1 2.760556 1_554
Ca0 O0 2.760556 1_554
Ca0 O3 2.760556 1_555
Ca0 O2 2.760556 1_555
Ca0 O10 2.929347 1_455
Ca0 O8 2.929347 1_545
Cr0 O1 1.846135 1_545
Cr0 O8 1.878839 1_546
Cr0 O9 1.900256 1_555
Cr0 O5 1.902148 1_555
Cr0 O0 1.905505 1_555
Cr0 O4 1.934626 1_545
Cr1 O2 1.846135 1_545
Cr1 O8 1.878839 1_545
Cr1 O9 1.900256 1_555
Cr1 O6 1.902148 1_555
Cr1 O3 1.905505 1_555
Cr1 O7 1.934626 1_545
Cr2 O3 1.846135 1_455
Cr2 O10 1.878839 1_455
Cr2 O11 1.900256 1_555
Cr2 O6 1.902148 1_555
Cr2 O2 1.905505 1_555
Cr2 O7 1.934626 1_455
Cr3 O0 1.846135 1_455
Cr3 O10 1.878839 1_456
Cr3 O11 1.900256 1_555
Cr3 O5 1.902148 1_555
Cr3 O1 1.905505 1_555
Cr3 O4 1.934626 1_455
O0 Sr0 2.582783 1_545
O1 Sr0 2.582783 1_455
O2 Sr0 2.582783 1_455
O3 Sr0 2.582783 1_545
O4 Sr0 2.614693 1_555
O5 Sr0 3.062389 1_445
O6 Sr0 3.062389 1_445
O7 Sr0 2.614693 1_555
O9 Sr0 2.627039 1_445
O9 Sr0 2.708101 1_545
O11 Sr0 2.627039 1_445
O11 Sr0 2.708101 1_455
