# generated using pymatgen
data_Sr4Mn3O10
_symmetry_space_group_name_H-M   'P 1'
_cell_length_a   5.54223400
_cell_length_b   12.61368600
_cell_length_c   12.82642000
_cell_angle_alpha   90.00000000
_cell_angle_beta   90.00000000
_cell_angle_gamma   90.00000000
_symmetry_Int_Tables_number   1
_chemical_formula_structural   Sr4Mn3O10
_chemical_formula_sum   'Sr16 Mn12 O40'
_cell_volume   896.66936185
_cell_formula_units_Z   4
loop_
 _symmetry_equiv_pos_site_id
 _symmetry_equiv_pos_as_xyz
  1  'x, y, z'
loop_
 _atom_site_type_symbol
 _atom_site_label
 _atom_site_symmetry_multiplicity
 _atom_site_fract_x
 _atom_site_fract_y
 _atom_site_fract_z
 _atom_site_occupancy
  Sr  Sr0  1  0.75350100  0.26236600  0.10376900  1
  Sr  Sr1  1  0.75350100  0.73763400  0.89623100  1
  Sr  Sr2  1  0.24649900  0.73763400  0.60376900  1
  Sr  Sr3  1  0.24649900  0.26236600  0.39623100  1
  Sr  Sr4  1  0.25573900  0.76222200  0.10622900  1
  Sr  Sr5  1  0.25573900  0.23777800  0.89377100  1
  Sr  Sr6  1  0.74426100  0.23777800  0.60622900  1
  Sr  Sr7  1  0.74426100  0.76222200  0.39377100  1
  Sr  Sr8  1  0.74743800  0.47075900  0.35572600  1
  Sr  Sr9  1  0.74743800  0.52924100  0.64427400  1
  Sr  Sr10  1  0.25256200  0.52924100  0.85572600  1
  Sr  Sr11  1  0.25256200  0.47075900  0.14427400  1
  Sr  Sr12  1  0.24857700  0.97138000  0.35384400  1
  Sr  Sr13  1  0.24857700  0.02862000  0.64615600  1
  Sr  Sr14  1  0.75142300  0.02862000  0.85384400  1
  Sr  Sr15  1  0.75142300  0.97138000  0.14615600  1
  Mn  Mn0  1  0.74762100  0.13527000  0.34903600  1
  Mn  Mn1  1  0.74762100  0.86473000  0.65096400  1
  Mn  Mn2  1  0.25237900  0.86473000  0.84903600  1
  Mn  Mn3  1  0.25237900  0.13527000  0.15096400  1
  Mn  Mn4  1  0.24790400  0.63360500  0.34804500  1
  Mn  Mn5  1  0.24790400  0.36639500  0.65195500  1
  Mn  Mn6  1  0.75209600  0.36639500  0.84804500  1
  Mn  Mn7  1  0.75209600  0.63360500  0.15195500  1
  Mn  Mn8  1  0.75121300  0.00000000  0.50000000  1
  Mn  Mn9  1  0.24878700  0.00000000  0.00000000  1
  Mn  Mn10  1  0.24252500  0.50000000  0.50000000  1
  Mn  Mn11  1  0.75747500  0.50000000  0.00000000  1
  O  O0  1  0.51999200  0.10704100  0.46288500  1
  O  O1  1  0.51999200  0.89295900  0.53711500  1
  O  O2  1  0.48000800  0.89295900  0.96288500  1
  O  O3  1  0.48000800  0.10704100  0.03711500  1
  O  O4  1  0.52636200  0.60718700  0.03742500  1
  O  O5  1  0.52636200  0.39281300  0.96257500  1
  O  O6  1  0.47363800  0.39281300  0.53742500  1
  O  O7  1  0.47363800  0.60718700  0.46257500  1
  O  O8  1  0.01580400  0.60943900  0.46263400  1
  O  O9  1  0.01580400  0.39056100  0.53736600  1
  O  O10  1  0.98419600  0.39056100  0.96263400  1
  O  O11  1  0.98419600  0.60943900  0.03736600  1
  O  O12  1  0.02099200  0.10850800  0.03754100  1
  O  O13  1  0.02099200  0.89149200  0.96245900  1
  O  O14  1  0.97900800  0.89149200  0.53754100  1
  O  O15  1  0.97900800  0.10850800  0.46245900  1
  O  O16  1  0.50000000  0.12039600  0.25000000  1
  O  O17  1  0.50000000  0.87960400  0.75000000  1
  O  O18  1  0.00000000  0.62092700  0.25000000  1
  O  O19  1  0.00000000  0.37907200  0.75000000  1
  O  O20  1  0.00000000  0.12985800  0.25000000  1
  O  O21  1  0.00000000  0.87014200  0.75000000  1
  O  O22  1  0.50000000  0.61712800  0.25000000  1
  O  O23  1  0.50000000  0.38287200  0.75000000  1
  O  O24  1  0.75968600  0.46321200  0.14581200  1
  O  O25  1  0.75968600  0.53678800  0.85418800  1
  O  O26  1  0.24031400  0.53678800  0.64581200  1
  O  O27  1  0.24031400  0.46321200  0.35418800  1
  O  O28  1  0.24640900  0.96378300  0.14630300  1
  O  O29  1  0.24640900  0.03621700  0.85369700  1
  O  O30  1  0.75359100  0.03621700  0.64630300  1
  O  O31  1  0.75359100  0.96378300  0.35369700  1
  O  O32  1  0.73704600  0.27796700  0.36153000  1
  O  O33  1  0.73704600  0.72203300  0.63847000  1
  O  O34  1  0.26295400  0.72203300  0.86153000  1
  O  O35  1  0.26295400  0.27796700  0.13847000  1
  O  O36  1  0.25243200  0.77728500  0.35391100  1
  O  O37  1  0.25243200  0.22271500  0.64608900  1
  O  O38  1  0.74756800  0.22271500  0.85391100  1
  O  O39  1  0.74756800  0.77728500  0.14608900  1
loop_
_geom_bond_atom_site_label_1
_geom_bond_atom_site_label_2
_geom_bond_distance
_geom_bond_site_symmetry_2
Mn0 O32 1.808005 1_555
Mn0 O16 1.879418 1_555
Mn0 O20 1.890700 1_655
Mn0 O0 1.962335 1_555
Mn0 O15 1.968497 1_555
Mn0 O31 2.164162 1_545
Mn1 O33 1.808005 1_555
Mn1 O17 1.879418 1_555
Mn1 O21 1.890700 1_655
Mn1 O1 1.962335 1_555
Mn1 O14 1.968497 1_555
Mn1 O30 2.164162 1_565
Mn2 O34 1.808005 1_555
Mn2 O17 1.879418 1_555
Mn2 O21 1.890700 1_555
Mn2 O2 1.962335 1_555
Mn2 O13 1.968497 1_555
Mn2 O29 2.164162 1_565
Mn3 O35 1.808005 1_555
Mn3 O16 1.879418 1_555
Mn3 O20 1.890700 1_555
Mn3 O3 1.962335 1_555
Mn3 O12 1.968497 1_555
Mn3 O28 2.164162 1_545
Mn4 O36 1.814069 1_555
Mn4 O18 1.869428 1_555
Mn4 O22 1.891234 1_555
Mn4 O7 1.958114 1_555
Mn4 O8 1.976824 1_555
Mn4 O27 2.151139 1_555
Mn5 O37 1.814069 1_555
Mn5 O19 1.869427 1_555
Mn5 O23 1.891234 1_555
Mn5 O6 1.958114 1_555
Mn5 O9 1.976824 1_555
Mn5 O26 2.151139 1_555
Mn6 O38 1.814069 1_555
Mn6 O19 1.869427 1_655
Mn6 O23 1.891234 1_555
Mn6 O5 1.958114 1_555
Mn6 O10 1.976824 1_555
Mn6 O25 2.151139 1_555
Mn7 O39 1.814069 1_555
Mn7 O18 1.869428 1_655
Mn7 O22 1.891234 1_555
Mn7 O4 1.958114 1_555
Mn7 O11 1.976824 1_555
Mn7 O24 2.151139 1_555
Mn8 O0 1.921408 1_555
Mn8 O1 1.921408 1_545
Mn8 O14 1.923291 1_545
Mn8 O15 1.923291 1_555
Mn8 O30 1.931394 1_555
Mn8 O31 1.931394 1_545
Mn9 O3 1.921408 1_555
Mn9 O2 1.921408 1_544
Mn9 O12 1.923291 1_555
Mn9 O13 1.923291 1_544
Mn9 O28 1.931394 1_545
Mn9 O29 1.931394 1_554
Mn10 O7 1.923292 1_555
Mn10 O6 1.923292 1_555
Mn10 O26 1.926991 1_555
Mn10 O27 1.926991 1_555
Mn10 O8 1.927221 1_555
Mn10 O9 1.927221 1_555
Mn11 O4 1.923292 1_555
Mn11 O5 1.923292 1_554
Mn11 O25 1.926991 1_554
Mn11 O24 1.926991 1_555
Mn11 O11 1.927221 1_555
Mn11 O10 1.927221 1_554
O0 Sr3 2.620494 1_555
O0 Sr12 2.673389 1_545
O0 Sr6 2.764922 1_555
O0 Sr13 2.960924 1_555
O1 Sr2 2.620494 1_555
O1 Sr13 2.673389 1_565
O1 Sr7 2.764922 1_555
O1 Sr12 2.960924 1_555
O2 Sr1 2.620494 1_555
O2 Sr14 2.673389 1_565
O2 Sr4 2.764922 1_556
O2 Sr15 2.960924 1_556
O3 Sr0 2.620494 1_555
O3 Sr15 2.673389 1_545
O3 Sr5 2.764922 1_554
O3 Sr14 2.960924 1_554
O4 Sr4 2.617750 1_555
O4 Sr11 2.672508 1_555
O4 Sr1 2.751707 1_554
O4 Sr10 2.949713 1_554
O5 Sr5 2.617750 1_555
O5 Sr10 2.672508 1_555
O5 Sr0 2.751707 1_556
O5 Sr11 2.949713 1_556
O6 Sr6 2.617750 1_555
O6 Sr9 2.672508 1_555
O6 Sr3 2.751707 1_555
O6 Sr8 2.949713 1_555
O7 Sr7 2.617750 1_555
O7 Sr8 2.672508 1_555
O7 Sr2 2.751707 1_555
O7 Sr9 2.949713 1_555
O8 Sr7 2.599804 1_455
O8 Sr8 2.674407 1_455
O8 Sr2 2.743444 1_555
O8 Sr9 2.943373 1_455
O9 Sr6 2.599804 1_455
O9 Sr9 2.674407 1_455
O9 Sr3 2.743444 1_555
O9 Sr8 2.943373 1_455
O10 Sr5 2.599804 1_655
O10 Sr10 2.674407 1_655
O10 Sr0 2.743444 1_556
O10 Sr11 2.943373 1_656
O11 Sr4 2.599804 1_655
O11 Sr11 2.674407 1_655
O11 Sr1 2.743444 1_554
O11 Sr10 2.943373 1_654
O12 Sr0 2.585687 1_455
O12 Sr15 2.676705 1_445
O12 Sr5 2.784234 1_554
O12 Sr14 2.966321 1_454
O13 Sr1 2.585687 1_455
O13 Sr14 2.676705 1_465
O13 Sr4 2.784234 1_556
O13 Sr15 2.966321 1_456
O14 Sr2 2.585687 1_655
O14 Sr13 2.676705 1_665
O14 Sr7 2.784234 1_555
O14 Sr12 2.966321 1_655
O15 Sr3 2.585687 1_655
O15 Sr12 2.676705 1_645
O15 Sr6 2.784234 1_555
O15 Sr13 2.966321 1_655
O16 Sr12 2.692364 1_545
O16 Sr15 2.692364 1_545
O16 Sr3 2.949357 1_555
O16 Sr0 2.949357 1_555
O17 Sr14 2.692364 1_565
O17 Sr13 2.692364 1_565
O17 Sr1 2.949357 1_555
O17 Sr2 2.949357 1_555
O18 Sr8 2.717752 1_455
O18 Sr11 2.717752 1_555
O18 Sr7 2.930175 1_455
O18 Sr4 2.930175 1_555
O19 Sr10 2.717761 1_555
O19 Sr9 2.717761 1_455
O19 Sr5 2.930167 1_555
O19 Sr6 2.930167 1_455
O20 Sr12 2.769121 1_545
O20 Sr15 2.769121 1_445
O20 Sr0 2.859713 1_455
O20 Sr3 2.859713 1_555
O21 Sr14 2.769121 1_465
O21 Sr13 2.769121 1_565
O21 Sr1 2.859713 1_455
O21 Sr2 2.859713 1_555
O22 Sr8 2.669877 1_555
O22 Sr11 2.669877 1_555
O22 Sr7 2.929633 1_555
O22 Sr4 2.929633 1_555
O23 Sr9 2.669877 1_555
O23 Sr10 2.669877 1_555
O23 Sr5 2.929633 1_555
O23 Sr6 2.929633 1_555
O24 Sr0 2.590393 1_555
O24 Sr8 2.694983 1_555
O24 Sr11 2.733364 1_655
O24 Sr11 2.812281 1_555
O25 Sr1 2.590393 1_555
O25 Sr9 2.694983 1_555
O25 Sr10 2.733364 1_655
O25 Sr10 2.812281 1_555
O26 Sr2 2.590393 1_555
O26 Sr10 2.694983 1_555
O26 Sr9 2.733364 1_455
O26 Sr9 2.812281 1_555
O27 Sr3 2.590393 1_555
O27 Sr11 2.694983 1_555
O27 Sr8 2.733364 1_455
O27 Sr8 2.812281 1_555
O28 Sr4 2.594381 1_555
O28 Sr12 2.663759 1_555
O28 Sr15 2.745002 1_455
O28 Sr15 2.800546 1_555
O29 Sr5 2.594381 1_555
O29 Sr13 2.663759 1_555
O29 Sr14 2.745002 1_455
O29 Sr14 2.800546 1_555
O30 Sr6 2.594381 1_555
O30 Sr14 2.663759 1_555
O30 Sr13 2.745002 1_655
O30 Sr13 2.800546 1_555
O31 Sr7 2.594381 1_555
O31 Sr15 2.663759 1_555
O31 Sr12 2.745002 1_655
O31 Sr12 2.800546 1_555
O32 Sr8 2.433639 1_555
O32 Sr3 2.761938 1_555
O32 Sr3 2.865140 1_655
O32 Sr6 3.179538 1_555
O33 Sr9 2.433639 1_555
O33 Sr2 2.761938 1_555
O33 Sr2 2.865140 1_655
O33 Sr7 3.179538 1_555
O34 Sr10 2.433639 1_555
O34 Sr1 2.761938 1_555
O34 Sr1 2.865140 1_455
O34 Sr4 3.179538 1_556
O35 Sr11 2.433639 1_555
O35 Sr0 2.761938 1_555
O35 Sr0 2.865140 1_455
O35 Sr5 3.179538 1_554
O36 Sr12 2.448347 1_555
O36 Sr7 2.779864 1_555
O36 Sr7 2.868730 1_455
O36 Sr4 3.182603 1_555
O37 Sr13 2.448347 1_555
O37 Sr6 2.779864 1_555
O37 Sr6 2.868730 1_455
O37 Sr5 3.182603 1_555
O38 Sr14 2.448347 1_555
O38 Sr5 2.779864 1_555
O38 Sr5 2.868730 1_655
O38 Sr6 3.182603 1_555
O39 Sr15 2.448347 1_555
O39 Sr4 2.779864 1_555
O39 Sr4 2.868730 1_655
O39 Sr7 3.182603 1_555
