# generated using pymatgen
data_Li3V4FeO12
_symmetry_space_group_name_H-M   'P 1'
_cell_length_a   5.63730283
_cell_length_b   6.91022073
_cell_length_c   6.90586930
_cell_angle_alpha   103.67580401
_cell_angle_beta   72.63782523
_cell_angle_gamma   107.39681713
_symmetry_Int_Tables_number   1
_chemical_formula_structural   Li3V4FeO12
_chemical_formula_sum   'Li3 V4 Fe1 O12'
_cell_volume   241.79451799
_cell_formula_units_Z   1
loop_
 _symmetry_equiv_pos_site_id
 _symmetry_equiv_pos_as_xyz
  1  'x, y, z'
loop_
 _atom_site_type_symbol
 _atom_site_label
 _atom_site_symmetry_multiplicity
 _atom_site_fract_x
 _atom_site_fract_y
 _atom_site_fract_z
 _atom_site_occupancy
  Li  Li0  1  0.75000400  0.09148300  0.09150800  1
  Li  Li1  1  0.25001600  0.28549400  0.28533000  1
  Li  Li2  1  0.75007000  0.72889700  0.72895800  1
  V  V0  1  0.73256900  0.18039100  0.62357200  1
  V  V1  1  0.76726200  0.62336300  0.18030000  1
  V  V2  1  0.20141600  0.38550300  0.84110400  1
  V  V3  1  0.29853600  0.84121200  0.38547600  1
  Fe  Fe0  1  0.25008700  0.92923000  0.92929900  1
  O  O0  1  0.63452400  0.01526300  0.80423600  1
  O  O1  1  0.86551200  0.80421700  0.01538100  1
  O  O2  1  0.67216800  0.02668500  0.39729100  1
  O  O3  1  0.82775000  0.39714900  0.02664100  1
  O  O4  1  0.16977200  0.20594300  0.00390000  1
  O  O5  1  0.33035600  0.00398400  0.20596200  1
  O  O6  1  0.55950800  0.36622000  0.68688300  1
  O  O7  1  0.94051000  0.68695500  0.36613900  1
  O  O8  1  0.06626200  0.29446800  0.59337200  1
  O  O9  1  0.43366800  0.59345000  0.29453900  1
  O  O10  1  0.31500600  0.65068100  0.88928600  1
  O  O11  1  0.18500400  0.88941200  0.65082300  1
loop_
_geom_bond_atom_site_label_1
_geom_bond_atom_site_label_2
_geom_bond_distance
_geom_bond_site_symmetry_2
Li0 O2 2.151491 1_555
Li0 O3 2.151952 1_555
Li0 O0 2.169928 1_554
Li0 O1 2.171647 1_545
Li0 O5 2.200333 1_555
Li0 O4 2.200887 1_655
Li1 O4 2.038357 1_555
Li1 O5 2.040643 1_555
Li1 O9 2.064540 1_555
Li1 O8 2.064739 1_555
Li2 O1 2.164671 1_556
Li2 O0 2.166246 1_565
Li2 O11 2.323840 1_655
Li2 O10 2.324400 1_555
Li2 O6 2.398212 1_555
Li2 O7 2.398284 1_555
Fe0 O11 2.004802 1_555
Fe0 O10 2.006154 1_555
Fe0 O5 2.007861 1_566
Fe0 O4 2.009822 1_566
Fe0 O0 2.037481 1_565
Fe0 O1 2.038009 1_456
O0 V0 1.746033 1_555
O1 V1 1.745961 1_555
O2 V0 1.732766 1_555
O2 V3 2.127105 1_545
O3 V1 1.733290 1_555
O3 V2 2.127719 1_654
O4 V2 1.800807 1_554
O5 V3 1.800047 1_545
O6 V0 1.738100 1_555
O6 V2 2.009401 1_555
O7 V1 1.737461 1_555
O7 V3 2.008651 1_655
O8 V0 1.777756 1_455
O8 V2 1.971172 1_555
O9 V1 1.777885 1_555
O9 V3 1.972794 1_555
O10 V2 1.736600 1_555
O11 V3 1.737053 1_555
