# generated using pymatgen
data_VIr
_symmetry_space_group_name_H-M   'P 1'
_cell_length_a   8.66676428
_cell_length_b   8.66676428
_cell_length_c   8.66676428
_cell_angle_alpha   131.00358287
_cell_angle_beta   100.12750414
_cell_angle_gamma   99.67472126
_symmetry_Int_Tables_number   1
_chemical_formula_structural   VIr
_chemical_formula_sum   'V16 Ir16'
_cell_volume   447.04527174
_cell_formula_units_Z   16
loop_
 _symmetry_equiv_pos_site_id
 _symmetry_equiv_pos_as_xyz
  1  'x, y, z'
loop_
 _atom_site_type_symbol
 _atom_site_label
 _atom_site_symmetry_multiplicity
 _atom_site_fract_x
 _atom_site_fract_y
 _atom_site_fract_z
 _atom_site_occupancy
  V  V0  1  0.09601800  0.22720100  0.86881700  1
  V  V1  1  0.35838400  0.22720100  0.13118300  1
  V  V2  1  0.84895600  0.23011300  0.61884200  1
  V  V3  1  0.61127100  0.23011300  0.38115800  1
  V  V4  1  0.36797000  0.50000000  0.86797000  1
  V  V5  1  0.63203000  0.50000000  0.13203000  1
  V  V6  1  0.11614400  0.50000000  0.61614400  1
  V  V7  1  0.88385600  0.50000000  0.38385600  1
  V  V8  1  0.86981300  0.00000000  0.86981300  1
  V  V9  1  0.13018700  0.00000000  0.13018700  1
  V  V10  1  0.62025800  0.00000000  0.62025800  1
  V  V11  1  0.37974200  0.00000000  0.37974200  1
  V  V12  1  0.64161600  0.77279900  0.86881700  1
  V  V13  1  0.90398200  0.77279900  0.13118300  1
  V  V14  1  0.38872900  0.76988700  0.61884200  1
  V  V15  1  0.15104400  0.76988700  0.38115800  1
  Ir  Ir0  1  0.12694300  0.38379200  0.25685000  1
  Ir  Ir1  1  0.12694300  0.87009300  0.74315000  1
  Ir  Ir2  1  0.87732900  0.39511500  0.01856700  1
  Ir  Ir3  1  0.37654800  0.85876200  0.98143300  1
  Ir  Ir4  1  0.87732900  0.85876200  0.48221300  1
  Ir  Ir5  1  0.37654800  0.39511500  0.51778700  1
  Ir  Ir6  1  0.62702700  0.84998400  0.22295700  1
  Ir  Ir7  1  0.62702700  0.40407100  0.77704300  1
  Ir  Ir8  1  0.87305700  0.12990700  0.25685000  1
  Ir  Ir9  1  0.87305700  0.61620800  0.74315000  1
  Ir  Ir10  1  0.62345200  0.14123800  0.01856700  1
  Ir  Ir11  1  0.12267100  0.60488500  0.98143300  1
  Ir  Ir12  1  0.62345200  0.60488500  0.48221300  1
  Ir  Ir13  1  0.12267100  0.14123800  0.51778700  1
  Ir  Ir14  1  0.37297300  0.59592900  0.22295700  1
  Ir  Ir15  1  0.37297300  0.15001600  0.77704300  1
loop_
_geom_bond_atom_site_label_1
_geom_bond_atom_site_label_2
_geom_bond_distance
_geom_bond_site_symmetry_2
V0 V8 2.540000 1_455
V1 V9 2.540000 1_555
V8 V9 2.897180 1_656
V10 V14 2.572579 1_545
V10 V2 2.572585 1_555
V10 V11 2.676221 1_555
V10 V8 2.776797 1_555
V11 V3 2.572579 1_555
V11 V15 2.572585 1_545
V11 V9 2.776797 1_555
V12 V8 2.540000 1_565
V13 V9 2.540000 1_665
Ir0 V6 2.595849 1_555
Ir0 V7 2.595854 1_455
Ir0 V1 2.606741 1_555
Ir0 V0 2.606747 1_554
Ir0 V14 2.712320 1_555
Ir0 V15 2.712327 1_555
Ir0 V9 2.742366 1_555
Ir0 V8 2.742372 1_454
Ir1 V6 2.595852 1_555
Ir1 V7 2.595852 1_455
Ir1 V1 2.606744 1_566
Ir1 V0 2.606744 1_565
Ir1 V15 2.712314 1_555
Ir1 V14 2.712317 1_555
Ir1 V9 2.742374 1_566
Ir1 V8 2.742374 1_465
Ir2 V5 2.554355 1_555
Ir2 V0 2.590022 1_654
Ir2 V7 2.644935 1_555
Ir2 V2 2.681116 1_554
Ir2 V13 2.682308 1_555
Ir2 V15 2.728996 1_655
Ir2 V8 2.737704 1_554
Ir2 V10 2.797487 1_554
Ir3 V4 2.554355 1_555
Ir3 V1 2.590022 1_566
Ir3 V6 2.644935 1_555
Ir3 V3 2.681114 1_566
Ir3 V12 2.682308 1_555
Ir3 V14 2.729000 1_555
Ir3 V9 2.737704 1_566
Ir3 V11 2.797487 1_566
Ir4 V5 2.554353 1_555
Ir4 V0 2.590026 1_665
Ir4 V7 2.644939 1_555
Ir4 V2 2.681108 1_565
Ir4 V13 2.682300 1_555
Ir4 V15 2.728989 1_655
Ir4 V8 2.737712 1_565
Ir4 V10 2.797490 1_565
Ir5 V4 2.554347 1_555
Ir5 V1 2.590030 1_555
Ir5 V6 2.644933 1_555
Ir5 V3 2.681116 1_555
Ir5 V12 2.682306 1_555
Ir5 V14 2.729004 1_555
Ir5 V9 2.737707 1_555
Ir5 V11 2.797484 1_555
Ir6 V5 2.596727 1_555
Ir6 V4 2.596727 1_554
Ir6 V3 2.653662 1_565
Ir6 V2 2.653664 1_565
Ir6 V13 2.711915 1_555
Ir6 V12 2.711915 1_554
Ir6 V10 2.787897 1_565
Ir6 V11 2.787897 1_565
Ir7 V4 2.596725 1_555
Ir7 V5 2.596731 1_556
Ir7 V3 2.653659 1_555
Ir7 V2 2.653673 1_555
Ir7 V12 2.711907 1_555
Ir7 V13 2.711913 1_556
Ir7 V11 2.787900 1_555
Ir7 V10 2.787905 1_555
Ir8 V6 2.595852 1_655
Ir8 V7 2.595852 1_555
Ir8 V13 2.606744 1_545
Ir8 V12 2.606744 1_544
Ir8 V2 2.712314 1_555
Ir8 V3 2.712317 1_555
Ir8 V9 2.742374 1_655
Ir8 V8 2.742374 1_554
Ir9 V7 2.595849 1_555
Ir9 V6 2.595854 1_655
Ir9 V12 2.606741 1_555
Ir9 V13 2.606747 1_556
Ir9 V3 2.712320 1_555
Ir9 V2 2.712327 1_555
Ir9 V8 2.742366 1_565
Ir9 V9 2.742372 1_666
Ir10 V5 2.554355 1_555
Ir10 V12 2.590022 1_544
Ir10 V7 2.644935 1_555
Ir10 V14 2.681114 1_544
Ir10 V1 2.682308 1_555
Ir10 V3 2.729000 1_555
Ir10 V8 2.737704 1_554
Ir10 V10 2.797487 1_554
Ir11 V4 2.554355 1_555
Ir11 V13 2.590022 1_456
Ir11 V6 2.644935 1_555
Ir11 V15 2.681116 1_556
Ir11 V0 2.682308 1_555
Ir11 V2 2.728996 1_455
Ir11 V9 2.737704 1_566
Ir11 V11 2.797487 1_566
Ir12 V5 2.554347 1_555
Ir12 V12 2.590030 1_555
Ir12 V7 2.644933 1_555
Ir12 V14 2.681116 1_555
Ir12 V1 2.682306 1_555
Ir12 V3 2.729004 1_555
Ir12 V8 2.737707 1_565
Ir12 V10 2.797484 1_565
Ir13 V4 2.554353 1_555
Ir13 V13 2.590026 1_445
Ir13 V6 2.644939 1_555
Ir13 V15 2.681108 1_545
Ir13 V0 2.682300 1_555
Ir13 V2 2.728989 1_455
Ir13 V9 2.737712 1_555
Ir13 V11 2.797490 1_555
Ir14 V5 2.596725 1_555
Ir14 V4 2.596731 1_554
Ir14 V14 2.653659 1_555
Ir14 V15 2.653673 1_555
Ir14 V1 2.711907 1_555
Ir14 V0 2.711913 1_554
Ir14 V10 2.787900 1_565
Ir14 V11 2.787905 1_565
Ir15 V4 2.596727 1_555
Ir15 V5 2.596727 1_556
Ir15 V14 2.653662 1_545
Ir15 V15 2.653664 1_545
Ir15 V1 2.711915 1_556
Ir15 V0 2.711915 1_555
Ir15 V10 2.787897 1_555
Ir15 V11 2.787897 1_555
