# generated using pymatgen
data_CaV2(CuO4)2
_symmetry_space_group_name_H-M   'P 1'
_cell_length_a   8.78781900
_cell_length_b   6.61291200
_cell_length_c   12.36059078
_cell_angle_alpha   86.80284953
_cell_angle_beta   90.00000000
_cell_angle_gamma   90.00000000
_symmetry_Int_Tables_number   1
_chemical_formula_structural   CaV2(CuO4)2
_chemical_formula_sum   'Ca4 V8 Cu8 O32'
_cell_volume   717.19389857
_cell_formula_units_Z   4
loop_
 _symmetry_equiv_pos_site_id
 _symmetry_equiv_pos_as_xyz
  1  'x, y, z'
loop_
 _atom_site_type_symbol
 _atom_site_label
 _atom_site_symmetry_multiplicity
 _atom_site_fract_x
 _atom_site_fract_y
 _atom_site_fract_z
 _atom_site_occupancy
  Ca  Ca0  1  0.16719300  0.13479100  0.03667100  1
  Ca  Ca1  1  0.83280700  0.86520900  0.96332900  1
  Ca  Ca2  1  0.66719300  0.86520900  0.46332900  1
  Ca  Ca3  1  0.33280700  0.13479100  0.53667100  1
  V  V0  1  0.46290500  0.09251200  0.84104500  1
  V  V1  1  0.03709500  0.09251200  0.34104500  1
  V  V2  1  0.09097200  0.60573700  0.14098300  1
  V  V3  1  0.96290500  0.90748800  0.65895500  1
  V  V4  1  0.90902800  0.39426300  0.85901700  1
  V  V5  1  0.59097200  0.39426300  0.35901700  1
  V  V6  1  0.40902800  0.60573700  0.64098300  1
  V  V7  1  0.53709500  0.90748800  0.15895500  1
  Cu  Cu0  1  0.18324300  0.76199800  0.85204800  1
  Cu  Cu1  1  0.05221000  0.39377000  0.63351800  1
  Cu  Cu2  1  0.94779000  0.60623000  0.36648200  1
  Cu  Cu3  1  0.81675700  0.23800200  0.14795200  1
  Cu  Cu4  1  0.31675700  0.76199800  0.35204800  1
  Cu  Cu5  1  0.44779000  0.39377000  0.13351800  1
  Cu  Cu6  1  0.68324300  0.23800200  0.64795200  1
  Cu  Cu7  1  0.55221000  0.60623000  0.86648200  1
  O  O0  1  0.22509100  0.01924200  0.37726100  1
  O  O1  1  0.00281400  0.67757900  0.60375600  1
  O  O2  1  0.58461800  0.19452500  0.45727100  1
  O  O3  1  0.08461800  0.80547500  0.04272900  1
  O  O4  1  0.27490900  0.01924200  0.87726100  1
  O  O5  1  0.77490900  0.98075800  0.62273900  1
  O  O6  1  0.08920800  0.10307900  0.61298000  1
  O  O7  1  0.91304800  0.49688600  0.13321300  1
  O  O8  1  0.58695200  0.49688600  0.63321300  1
  O  O9  1  0.87327800  0.33021900  0.72106200  1
  O  O10  1  0.37327800  0.66978100  0.77893800  1
  O  O11  1  0.08695200  0.50311400  0.86678700  1
  O  O12  1  0.91079200  0.89692100  0.38702000  1
  O  O13  1  0.51853600  0.87802700  0.29919700  1
  O  O14  1  0.26678000  0.43998400  0.60455500  1
  O  O15  1  0.23322000  0.43998400  0.10455500  1
  O  O16  1  0.01853600  0.12197300  0.20080300  1
  O  O17  1  0.41304800  0.50311400  0.36678700  1
  O  O18  1  0.48146400  0.12197300  0.70080300  1
  O  O19  1  0.41538200  0.80547500  0.54272900  1
  O  O20  1  0.49718600  0.67757900  0.10375600  1
  O  O21  1  0.12672200  0.66978100  0.27893800  1
  O  O22  1  0.72509100  0.98075800  0.12273900  1
  O  O23  1  0.41079200  0.10307900  0.11298000  1
  O  O24  1  0.91538200  0.19452500  0.95727100  1
  O  O25  1  0.76678000  0.56001600  0.89544500  1
  O  O26  1  0.99718600  0.32242100  0.39624400  1
  O  O27  1  0.50281400  0.32242100  0.89624400  1
  O  O28  1  0.58920800  0.89692100  0.88702000  1
  O  O29  1  0.73322000  0.56001600  0.39544500  1
  O  O30  1  0.62672200  0.33021900  0.22106200  1
  O  O31  1  0.98146400  0.87802700  0.79919700  1
loop_
_geom_bond_atom_site_label_1
_geom_bond_atom_site_label_2
_geom_bond_distance
_geom_bond_site_symmetry_2
Ca0 O3 2.292713 1_545
Ca0 O15 2.302785 1_555
Ca0 O23 2.343971 1_555
Ca0 O4 2.351665 1_554
Ca0 O16 2.410500 1_555
Ca0 O24 2.443930 1_454
Ca1 O24 2.292713 1_565
Ca1 O25 2.302785 1_555
Ca1 O28 2.343971 1_555
Ca1 O22 2.351665 1_556
Ca1 O31 2.410500 1_555
Ca1 O3 2.443930 1_656
Ca2 O2 2.292713 1_565
Ca2 O29 2.302785 1_555
Ca2 O12 2.343971 1_555
Ca2 O5 2.351665 1_555
Ca2 O13 2.410500 1_555
Ca2 O19 2.443930 1_555
Ca3 O19 2.292713 1_545
Ca3 O14 2.302785 1_555
Ca3 O6 2.343971 1_555
Ca3 O0 2.351665 1_555
Ca3 O18 2.410500 1_555
Ca3 O2 2.443930 1_555
Cu0 O11 1.909267 1_555
Cu0 O4 1.923281 1_565
Cu0 O10 2.009695 1_555
Cu0 O31 2.025787 1_455
Cu0 O3 2.542545 1_556
Cu1 O14 1.940323 1_555
Cu1 O1 1.941427 1_555
Cu1 O9 1.941477 1_455
Cu1 O6 1.979869 1_555
Cu2 O29 1.940323 1_555
Cu2 O26 1.941427 1_555
Cu2 O21 1.941477 1_655
Cu2 O12 1.979869 1_555
Cu3 O7 1.909267 1_555
Cu3 O22 1.923281 1_545
Cu3 O30 2.009695 1_555
Cu3 O16 2.025787 1_655
Cu3 O24 2.542545 1_554
Cu4 O17 1.909267 1_555
Cu4 O0 1.923281 1_565
Cu4 O21 2.009695 1_555
Cu4 O13 2.025787 1_555
Cu4 O19 2.542545 1_555
Cu5 O15 1.940323 1_555
Cu5 O20 1.941427 1_555
Cu5 O30 1.941477 1_555
Cu5 O23 1.979869 1_555
Cu6 O8 1.909267 1_555
Cu6 O5 1.923281 1_545
Cu6 O9 2.009695 1_555
Cu6 O18 2.025787 1_555
Cu6 O2 2.542545 1_555
Cu7 O25 1.940323 1_555
Cu7 O27 1.941427 1_555
Cu7 O10 1.941477 1_555
Cu7 O28 1.979869 1_555
O0 V1 1.772094 1_555
O1 V3 1.736591 1_455
O2 V5 1.744645 1_555
O3 V2 1.744645 1_555
O4 V0 1.772094 1_555
O5 V3 1.772094 1_555
O6 V3 1.773653 1_445
O7 V2 1.726213 1_655
O8 V6 1.726213 1_555
O9 V4 1.807304 1_555
O10 V6 1.807304 1_555
O11 V4 1.726213 1_455
O12 V1 1.773653 1_665
O13 V7 1.741211 1_555
O14 V6 1.738355 1_555
O15 V2 1.738355 1_555
O16 V1 1.741211 1_555
O17 V5 1.726213 1_555
O18 V0 1.741211 1_555
O19 V6 1.744645 1_555
O20 V7 1.736591 1_555
O21 V2 1.807304 1_555
O22 V7 1.772094 1_555
O23 V7 1.773653 1_545
O24 V4 1.744645 1_555
O25 V4 1.738355 1_555
O26 V1 1.736591 1_655
O27 V0 1.736591 1_555
O28 V0 1.773653 1_565
O29 V5 1.738355 1_555
O30 V5 1.807304 1_555
O31 V3 1.741211 1_555
