# generated using pymatgen
data_Ti(ZnN)4
_symmetry_space_group_name_H-M   'P 1'
_cell_length_a   5.49605348
_cell_length_b   5.58026338
_cell_length_c   8.29874929
_cell_angle_alpha   69.28429815
_cell_angle_beta   85.54386777
_cell_angle_gamma   69.98163143
_symmetry_Int_Tables_number   1
_chemical_formula_structural   Ti(ZnN)4
_chemical_formula_sum   'Ti2 Zn8 N8'
_cell_volume   223.40668337
_cell_formula_units_Z   2
loop_
 _symmetry_equiv_pos_site_id
 _symmetry_equiv_pos_as_xyz
  1  'x, y, z'
loop_
 _atom_site_type_symbol
 _atom_site_label
 _atom_site_symmetry_multiplicity
 _atom_site_fract_x
 _atom_site_fract_y
 _atom_site_fract_z
 _atom_site_occupancy
  Ti  Ti0  1  0.70500400  0.85006700  0.77635000  1
  Ti  Ti1  1  0.29499600  0.14993300  0.22365000  1
  Zn  Zn0  1  0.70432500  0.61026600  0.19451000  1
  Zn  Zn1  1  0.29567500  0.38973400  0.80549000  1
  Zn  Zn2  1  0.78896800  0.17808700  0.03337300  1
  Zn  Zn3  1  0.21103200  0.82191300  0.96662700  1
  Zn  Zn4  1  0.74974600  0.49994500  0.55668500  1
  Zn  Zn5  1  0.25025400  0.50005500  0.44331500  1
  Zn  Zn6  1  0.24603400  0.91077100  0.56907100  1
  Zn  Zn7  1  0.75396600  0.08922900  0.43092900  1
  N  N0  1  0.95079500  0.70755300  0.61261000  1
  N  N1  1  0.04920500  0.29244700  0.38739000  1
  N  N2  1  0.84086000  0.82837600  0.99134000  1
  N  N3  1  0.15914000  0.17162400  0.00866000  1
  N  N4  1  0.43765300  0.69098900  0.79909300  1
  N  N5  1  0.56234700  0.30901100  0.20090700  1
  N  N6  1  0.44656800  0.76974400  0.36287800  1
  N  N7  1  0.55343200  0.23025600  0.63712200  1
loop_
_geom_bond_atom_site_label_1
_geom_bond_atom_site_label_2
_geom_bond_distance
_geom_bond_site_symmetry_2
N0 Ti0 2.011844 1_555
N0 Zn4 2.028548 1_555
N0 Zn7 2.093786 1_565
N0 Zn6 2.219989 1_655
N0 Zn1 2.337070 1_655
N0 Zn5 2.347381 1_655
N1 Ti1 2.011844 1_555
N1 Zn5 2.028548 1_555
N1 Zn6 2.093786 1_545
N1 Zn7 2.219989 1_455
N1 Zn0 2.337070 1_455
N1 Zn4 2.347381 1_455
N2 Ti0 1.935899 1_555
N2 Zn0 1.965745 1_556
N2 Zn3 2.018081 1_655
N2 Zn2 2.023948 1_566
N3 Ti1 1.935899 1_555
N3 Zn1 1.965745 1_554
N3 Zn2 2.018081 1_455
N3 Zn3 2.023948 1_544
N4 Ti0 1.927197 1_555
N4 Zn3 1.960766 1_555
N4 Zn6 2.007231 1_555
N4 Zn1 2.065497 1_555
N5 Ti1 1.927197 1_555
N5 Zn2 1.960766 1_555
N5 Zn7 2.007231 1_555
N5 Zn0 2.065497 1_555
N6 Ti1 1.932698 1_565
N6 Zn5 2.040497 1_555
N6 Zn0 2.111900 1_555
N6 Zn4 2.148440 1_555
N6 Zn6 2.197237 1_555
N7 Ti0 1.932698 1_545
N7 Zn4 2.040497 1_555
N7 Zn1 2.111900 1_555
N7 Zn5 2.148440 1_555
N7 Zn7 2.197237 1_555
