# generated using pymatgen
data_MgGa
_symmetry_space_group_name_H-M   'P 1'
_cell_length_a   15.47009505
_cell_length_b   15.47009505
_cell_length_c   9.42722508
_cell_angle_alpha   90.00000000
_cell_angle_beta   90.00000000
_cell_angle_gamma   156.36700809
_symmetry_Int_Tables_number   1
_chemical_formula_structural   MgGa
_chemical_formula_sum   'Mg24 Ga24'
_cell_volume   904.44168955
_cell_formula_units_Z   24
loop_
 _symmetry_equiv_pos_site_id
 _symmetry_equiv_pos_as_xyz
  1  'x, y, z'
loop_
 _atom_site_type_symbol
 _atom_site_label
 _atom_site_symmetry_multiplicity
 _atom_site_fract_x
 _atom_site_fract_y
 _atom_site_fract_z
 _atom_site_occupancy
  Mg  Mg0_0  1  0.16061105  0.33938895  0.00000000  1
  Mg  Mg0_1  1  0.16061105  0.33938895  0.50000000  1
  Mg  Mg0_2  1  0.16061105  0.83938895  0.00000000  1
  Mg  Mg0_3  1  0.16061105  0.83938895  0.50000000  1
  Mg  Mg0_4  1  0.66061105  0.33938895  0.00000000  1
  Mg  Mg0_5  1  0.66061105  0.33938895  0.50000000  1
  Mg  Mg0_6  1  0.66061105  0.83938895  0.00000000  1
  Mg  Mg0_7  1  0.66061105  0.83938895  0.50000000  1
  Mg  Mg1_0  1  0.06240626  0.43759374  0.25000000  1
  Mg  Mg1_1  1  0.06240626  0.43759374  0.75000000  1
  Mg  Mg1_2  1  0.06240626  0.93759374  0.25000000  1
  Mg  Mg1_3  1  0.06240626  0.93759374  0.75000000  1
  Mg  Mg1_4  1  0.56240625  0.43759374  0.25000000  1
  Mg  Mg1_5  1  0.56240625  0.43759374  0.75000000  1
  Mg  Mg1_6  1  0.56240626  0.93759375  0.25000000  1
  Mg  Mg1_7  1  0.56240626  0.93759375  0.75000000  1
  Mg  Mg2_0  1  0.22374394  0.27625606  0.25000000  1
  Mg  Mg2_1  1  0.22374394  0.27625606  0.75000000  1
  Mg  Mg2_2  1  0.22374394  0.77625606  0.25000000  1
  Mg  Mg2_3  1  0.22374394  0.77625606  0.75000000  1
  Mg  Mg2_4  1  0.72374394  0.27625606  0.25000000  1
  Mg  Mg2_5  1  0.72374394  0.27625606  0.75000000  1
  Mg  Mg2_6  1  0.72374394  0.77625606  0.25000000  1
  Mg  Mg2_7  1  0.72374394  0.77625606  0.75000000  1
  Ga  Ga0_0  1  0.49807680  0.00192320  0.00000000  1
  Ga  Ga0_1  1  0.49807680  0.00192320  0.50000000  1
  Ga  Ga0_2  1  0.49807680  0.50192320  0.00000000  1
  Ga  Ga0_3  1  0.49807680  0.50192320  0.50000000  1
  Ga  Ga0_4  1  0.99807679  0.00192320  0.00000000  1
  Ga  Ga0_5  1  0.99807679  0.00192320  0.50000000  1
  Ga  Ga0_6  1  0.99807680  0.50192320  0.00000000  1
  Ga  Ga0_7  1  0.99807680  0.50192320  0.50000000  1
  Ga  Ga1_0  1  0.32993976  0.17006024  0.00000000  1
  Ga  Ga1_1  1  0.32993976  0.17006024  0.50000000  1
  Ga  Ga1_2  1  0.32993976  0.67006024  0.00000000  1
  Ga  Ga1_3  1  0.32993976  0.67006024  0.50000000  1
  Ga  Ga1_4  1  0.82993976  0.17006024  0.00000000  1
  Ga  Ga1_5  1  0.82993976  0.17006024  0.50000000  1
  Ga  Ga1_6  1  0.82993976  0.67006024  0.00000000  1
  Ga  Ga1_7  1  0.82993976  0.67006024  0.50000000  1
  Ga  Ga2_0  1  0.39188771  0.10811229  0.25000000  1
  Ga  Ga2_1  1  0.39188771  0.10811229  0.75000000  1
  Ga  Ga2_2  1  0.39188771  0.60811229  0.25000000  1
  Ga  Ga2_3  1  0.39188771  0.60811229  0.75000000  1
  Ga  Ga2_4  1  0.89188771  0.10811229  0.25000000  1
  Ga  Ga2_5  1  0.89188771  0.10811229  0.75000000  1
  Ga  Ga2_6  1  0.89188771  0.60811229  0.25000000  1
  Ga  Ga2_7  1  0.89188771  0.60811229  0.75000000  1
loop_
_geom_bond_atom_site_label_1
_geom_bond_atom_site_label_2
_geom_bond_distance
_geom_bond_site_symmetry_2
Mg0_0 Mg2_1 3.034812 1_554
Mg0_0 Mg2_0 3.034812 1_555
Mg0_0 Mg0_6 3.167933 1_555
Mg0_0 Mg0_6 3.167933 1_445
Mg0_1 Mg2_0 3.034812 1_555
Mg0_1 Mg2_1 3.034812 1_555
Mg0_1 Mg0_7 3.167933 1_555
Mg0_1 Mg0_7 3.167933 1_445
Mg0_2 Mg2_3 3.034812 1_554
Mg0_2 Mg2_2 3.034812 1_555
Mg0_2 Mg0_4 3.167933 1_455
Mg0_2 Mg0_4 3.167933 1_565
Mg0_3 Mg2_2 3.034812 1_555
Mg0_3 Mg2_3 3.034812 1_555
Mg0_3 Mg0_5 3.167933 1_455
Mg0_3 Mg0_5 3.167933 1_565
Mg0_4 Mg2_5 3.034812 1_554
Mg0_4 Mg2_4 3.034812 1_555
Mg0_5 Mg2_4 3.034812 1_555
Mg0_5 Mg2_5 3.034812 1_555
Mg0_6 Mg2_6 3.034812 1_555
Mg0_6 Mg2_7 3.034812 1_554
Mg0_7 Mg2_6 3.034812 1_555
Mg0_7 Mg2_7 3.034812 1_555
Mg1_0 Mg2_2 3.117481 1_555
Mg1_0 Mg2_4 3.117481 1_455
Mg1_0 Mg1_6 3.167933 1_445
Mg1_0 Mg1_6 3.167933 1_555
Mg1_1 Mg2_3 3.117481 1_555
Mg1_1 Mg2_5 3.117481 1_455
Mg1_1 Mg1_7 3.167933 1_445
Mg1_1 Mg1_7 3.167933 1_555
Mg1_2 Mg2_0 3.117481 1_565
Mg1_2 Mg2_6 3.117481 1_455
Mg1_2 Mg1_4 3.167933 1_455
Mg1_2 Mg1_4 3.167933 1_565
Mg1_3 Mg2_1 3.117481 1_565
Mg1_3 Mg2_7 3.117481 1_455
Mg1_3 Mg1_5 3.167933 1_565
Mg1_3 Mg1_5 3.167933 1_455
Mg1_4 Mg2_6 3.117481 1_555
Mg1_4 Mg2_0 3.117481 1_555
Mg1_5 Mg2_7 3.117481 1_555
Mg1_5 Mg2_1 3.117481 1_555
Mg1_6 Mg2_4 3.117481 1_565
Mg1_6 Mg2_2 3.117481 1_555
Mg1_7 Mg2_5 3.117481 1_565
Mg1_7 Mg2_3 3.117481 1_555
Mg2_0 Mg2_6 3.167933 1_555
Mg2_0 Mg2_6 3.167933 1_445
Mg2_1 Mg2_7 3.167933 1_555
Mg2_1 Mg2_7 3.167933 1_445
Mg2_2 Mg2_4 3.167933 1_565
Mg2_2 Mg2_4 3.167933 1_455
Mg2_3 Mg2_5 3.167933 1_565
Mg2_3 Mg2_5 3.167933 1_455
Ga0_0 Mg2_4 2.933687 1_555
Ga0_0 Mg2_5 2.933687 1_554
Ga0_0 Mg2_2 2.933687 1_545
Ga0_0 Mg2_3 2.933687 1_544
Ga0_0 Ga1_2 2.941987 1_545
Ga0_0 Ga1_4 2.941987 1_555
Ga0_0 Mg1_6 3.057772 1_545
Ga0_0 Mg1_7 3.057772 1_544
Ga0_0 Mg0_2 3.086325 1_545
Ga0_0 Mg0_4 3.086325 1_555
Ga0_0 Ga0_6 3.167933 1_555
Ga0_0 Ga0_6 3.167933 1_445
Ga0_1 Mg2_4 2.933687 1_555
Ga0_1 Mg2_5 2.933687 1_555
Ga0_1 Mg2_2 2.933687 1_545
Ga0_1 Mg2_3 2.933687 1_545
Ga0_1 Ga1_3 2.941987 1_545
Ga0_1 Ga1_5 2.941987 1_555
Ga0_1 Mg1_6 3.057772 1_545
Ga0_1 Mg1_7 3.057772 1_545
Ga0_1 Mg0_3 3.086325 1_545
Ga0_1 Mg0_5 3.086325 1_555
Ga0_1 Ga0_7 3.167933 1_555
Ga0_1 Ga0_7 3.167933 1_445
Ga0_2 Mg2_6 2.933687 1_555
Ga0_2 Mg2_7 2.933687 1_554
Ga0_2 Mg2_0 2.933687 1_555
Ga0_2 Mg2_1 2.933687 1_554
Ga0_2 Ga1_0 2.941987 1_555
Ga0_2 Ga1_6 2.941987 1_555
Ga0_2 Mg1_4 3.057772 1_555
Ga0_2 Mg1_5 3.057772 1_554
Ga0_2 Mg0_6 3.086325 1_555
Ga0_2 Mg0_0 3.086325 1_555
Ga0_2 Ga0_4 3.167933 1_565
Ga0_2 Ga0_4 3.167933 1_455
Ga0_3 Mg2_7 2.933687 1_555
Ga0_3 Mg2_6 2.933687 1_555
Ga0_3 Mg2_1 2.933687 1_555
Ga0_3 Mg2_0 2.933687 1_555
Ga0_3 Ga1_1 2.941987 1_555
Ga0_3 Ga1_7 2.941987 1_555
Ga0_3 Mg1_5 3.057772 1_555
Ga0_3 Mg1_4 3.057772 1_555
Ga0_3 Mg0_7 3.086325 1_555
Ga0_3 Mg0_1 3.086325 1_555
Ga0_3 Ga0_5 3.167933 1_565
Ga0_3 Ga0_5 3.167933 1_455
Ga0_4 Mg2_0 2.933687 1_655
Ga0_4 Mg2_6 2.933687 1_545
Ga0_4 Mg2_7 2.933687 1_544
Ga0_4 Mg2_1 2.933687 1_654
Ga0_4 Ga1_0 2.941987 1_655
Ga0_4 Ga1_6 2.941987 1_545
Ga0_4 Mg1_3 3.057772 1_644
Ga0_4 Mg1_2 3.057772 1_645
Ga0_4 Mg0_6 3.086325 1_545
Ga0_4 Mg0_0 3.086325 1_655
Ga0_5 Mg2_0 2.933687 1_655
Ga0_5 Mg2_6 2.933687 1_545
Ga0_5 Mg2_7 2.933687 1_545
Ga0_5 Mg2_1 2.933687 1_655
Ga0_5 Ga1_1 2.941987 1_655
Ga0_5 Ga1_7 2.941987 1_545
Ga0_5 Mg1_3 3.057772 1_645
Ga0_5 Mg1_2 3.057772 1_645
Ga0_5 Mg0_7 3.086325 1_545
Ga0_5 Mg0_1 3.086325 1_655
Ga0_6 Mg2_2 2.933687 1_655
Ga0_6 Mg2_3 2.933687 1_654
Ga0_6 Mg2_4 2.933687 1_555
Ga0_6 Mg2_5 2.933687 1_554
Ga0_6 Ga1_4 2.941987 1_555
Ga0_6 Ga1_2 2.941987 1_655
Ga0_6 Mg1_1 3.057772 1_654
Ga0_6 Mg1_0 3.057772 1_655
Ga0_6 Mg0_2 3.086325 1_655
Ga0_6 Mg0_4 3.086325 1_555
Ga0_7 Mg2_2 2.933687 1_655
Ga0_7 Mg2_3 2.933687 1_655
Ga0_7 Mg2_4 2.933687 1_555
Ga0_7 Mg2_5 2.933687 1_555
Ga0_7 Ga1_5 2.941987 1_555
Ga0_7 Ga1_3 2.941987 1_655
Ga0_7 Mg1_0 3.057772 1_655
Ga0_7 Mg1_1 3.057772 1_655
Ga0_7 Mg0_3 3.086325 1_655
Ga0_7 Mg0_5 3.086325 1_555
Ga1_0 Mg1_3 2.888848 1_544
Ga1_0 Mg1_2 2.888848 1_545
Ga1_0 Mg1_4 2.888848 1_555
Ga1_0 Mg1_5 2.888848 1_554
Ga1_0 Mg0_4 2.911639 1_555
Ga1_0 Mg0_2 2.911639 1_545
Ga1_0 Ga2_0 3.012333 1_555
Ga1_0 Ga2_1 3.012333 1_554
Ga1_1 Mg1_3 2.888848 1_545
Ga1_1 Mg1_4 2.888848 1_555
Ga1_1 Mg1_5 2.888848 1_555
Ga1_1 Mg1_2 2.888848 1_545
Ga1_1 Mg0_5 2.911639 1_555
Ga1_1 Mg0_3 2.911639 1_545
Ga1_1 Ga2_0 3.012333 1_555
Ga1_1 Ga2_1 3.012333 1_555
Ga1_2 Mg1_1 2.888848 1_554
Ga1_2 Mg1_0 2.888848 1_555
Ga1_2 Mg1_7 2.888848 1_554
Ga1_2 Mg1_6 2.888848 1_555
Ga1_2 Mg0_0 2.911639 1_555
Ga1_2 Mg0_6 2.911639 1_555
Ga1_2 Ga2_3 3.012333 1_554
Ga1_2 Ga2_2 3.012333 1_555
Ga1_3 Mg1_1 2.888848 1_555
Ga1_3 Mg1_0 2.888848 1_555
Ga1_3 Mg1_6 2.888848 1_555
Ga1_3 Mg1_7 2.888848 1_555
Ga1_3 Mg0_1 2.911639 1_555
Ga1_3 Mg0_7 2.911639 1_555
Ga1_3 Ga2_2 3.012333 1_555
Ga1_3 Ga2_3 3.012333 1_555
Ga1_4 Mg1_7 2.888848 1_544
Ga1_4 Mg1_6 2.888848 1_545
Ga1_4 Mg1_1 2.888848 1_654
Ga1_4 Mg1_0 2.888848 1_655
Ga1_4 Mg0_0 2.911639 1_655
Ga1_4 Mg0_6 2.911639 1_545
Ga1_4 Ga2_5 3.012333 1_554
Ga1_4 Ga2_4 3.012333 1_555
Ga1_5 Mg1_7 2.888848 1_545
Ga1_5 Mg1_6 2.888848 1_545
Ga1_5 Mg1_1 2.888848 1_655
Ga1_5 Mg1_0 2.888848 1_655
Ga1_5 Mg0_1 2.911639 1_655
Ga1_5 Mg0_7 2.911639 1_545
Ga1_5 Ga2_5 3.012333 1_555
Ga1_5 Ga2_4 3.012333 1_555
Ga1_6 Mg1_2 2.888848 1_655
Ga1_6 Mg1_4 2.888848 1_555
Ga1_6 Mg1_3 2.888848 1_654
Ga1_6 Mg1_5 2.888848 1_554
Ga1_6 Mg0_4 2.911639 1_555
Ga1_6 Mg0_2 2.911639 1_655
Ga1_6 Ga2_7 3.012333 1_554
Ga1_6 Ga2_6 3.012333 1_555
Ga1_7 Mg1_2 2.888848 1_655
Ga1_7 Mg1_4 2.888848 1_555
Ga1_7 Mg1_3 2.888848 1_655
Ga1_7 Mg1_5 2.888848 1_555
Ga1_7 Mg0_5 2.911639 1_555
Ga1_7 Mg0_3 2.911639 1_655
Ga1_7 Ga2_7 3.012333 1_555
Ga1_7 Ga2_6 3.012333 1_555
Ga2_0 Mg1_2 2.881471 1_545
Ga2_0 Mg1_4 2.881471 1_555
Ga2_0 Mg0_5 2.895687 1_555
Ga2_0 Mg0_4 2.895687 1_555
Ga2_0 Mg0_3 2.895687 1_545
Ga2_0 Mg0_2 2.895687 1_545
Ga2_0 Mg2_4 2.941815 1_555
Ga2_0 Mg2_2 2.941815 1_545
Ga2_1 Mg1_3 2.881471 1_545
Ga2_1 Mg1_5 2.881471 1_555
Ga2_1 Mg0_5 2.895687 1_555
Ga2_1 Mg0_4 2.895687 1_556
Ga2_1 Mg0_3 2.895687 1_545
Ga2_1 Mg0_2 2.895687 1_546
Ga2_1 Mg2_5 2.941815 1_555
Ga2_1 Mg2_3 2.941815 1_545
Ga2_2 Mg1_0 2.881471 1_555
Ga2_2 Mg1_6 2.881471 1_555
Ga2_2 Mg0_1 2.895687 1_555
Ga2_2 Mg0_0 2.895687 1_555
Ga2_2 Mg0_6 2.895687 1_555
Ga2_2 Mg0_7 2.895687 1_555
Ga2_2 Mg2_0 2.941815 1_555
Ga2_2 Mg2_6 2.941815 1_555
Ga2_3 Mg1_1 2.881471 1_555
Ga2_3 Mg1_7 2.881471 1_555
Ga2_3 Mg0_1 2.895687 1_555
Ga2_3 Mg0_0 2.895687 1_556
Ga2_3 Mg0_7 2.895687 1_555
Ga2_3 Mg0_6 2.895687 1_556
Ga2_3 Mg2_1 2.941815 1_555
Ga2_3 Mg2_7 2.941815 1_555
Ga2_4 Mg1_6 2.881471 1_545
Ga2_4 Mg1_0 2.881471 1_655
Ga2_4 Mg0_1 2.895687 1_655
Ga2_4 Mg0_0 2.895687 1_655
Ga2_4 Mg0_6 2.895687 1_545
Ga2_4 Mg0_7 2.895687 1_545
Ga2_4 Mg2_0 2.941815 1_655
Ga2_4 Mg2_6 2.941815 1_545
Ga2_5 Mg1_7 2.881471 1_545
Ga2_5 Mg1_1 2.881471 1_655
Ga2_5 Mg0_1 2.895687 1_655
Ga2_5 Mg0_0 2.895687 1_656
Ga2_5 Mg0_6 2.895687 1_546
Ga2_5 Mg0_7 2.895687 1_545
Ga2_5 Mg2_1 2.941815 1_655
Ga2_5 Mg2_7 2.941815 1_545
Ga2_6 Mg1_2 2.881471 1_655
Ga2_6 Mg1_4 2.881471 1_555
Ga2_6 Mg0_4 2.895687 1_555
Ga2_6 Mg0_5 2.895687 1_555
Ga2_6 Mg0_2 2.895687 1_655
Ga2_6 Mg0_3 2.895687 1_655
Ga2_6 Mg2_4 2.941815 1_555
Ga2_6 Mg2_2 2.941815 1_655
Ga2_7 Mg1_3 2.881471 1_655
Ga2_7 Mg1_5 2.881471 1_555
Ga2_7 Mg0_4 2.895687 1_556
Ga2_7 Mg0_5 2.895687 1_555
Ga2_7 Mg0_2 2.895687 1_656
Ga2_7 Mg0_3 2.895687 1_655
Ga2_7 Mg2_5 2.941815 1_555
Ga2_7 Mg2_3 2.941815 1_655
