# generated using pymatgen
data_DyP3H5O6
_symmetry_space_group_name_H-M   'P 1'
_cell_length_a   5.78744500
_cell_length_b   8.16268914
_cell_length_c   11.06339308
_cell_angle_alpha   90.94741402
_cell_angle_beta   74.83744991
_cell_angle_gamma   110.76317673
_symmetry_Int_Tables_number   1
_chemical_formula_structural   DyP3H5O6
_chemical_formula_sum   'Dy2 P6 H10 O12'
_cell_volume   470.00632373
_cell_formula_units_Z   2
loop_
 _symmetry_equiv_pos_site_id
 _symmetry_equiv_pos_as_xyz
  1  'x, y, z'
loop_
 _atom_site_type_symbol
 _atom_site_label
 _atom_site_symmetry_multiplicity
 _atom_site_fract_x
 _atom_site_fract_y
 _atom_site_fract_z
 _atom_site_occupancy
  Dy  Dy0  1  0.49995800  0.50000000  0.50000000  1
  Dy  Dy1  1  0.99946400  0.00000000  0.00000000  1
  P  P0  1  0.18607100  0.04048600  0.64746500  1
  P  P1  1  0.79305100  0.95951400  0.35253500  1
  P  P2  1  0.12159900  0.53472100  0.29135600  1
  P  P3  1  0.87823400  0.46527900  0.70864400  1
  P  P4  1  0.41192600  0.74031000  0.91633900  1
  P  P5  1  0.58795500  0.25969000  0.08366100  1
  H  H0  1  0.22392200  0.72114400  0.27400200  1
  H  H1  1  0.77678100  0.27885600  0.72599800  1
  H  H2  1  0.32116900  0.55516600  0.91283900  1
  H  H3  1  0.67884200  0.44483400  0.08716100  1
  H  H4  1  0.15537000  0.47904200  0.16827600  1
  H  H5  1  0.84460400  0.52095800  0.83172400  1
  H  H6  1  0.50866900  0.80436200  0.78765400  1
  H  H7  1  0.49196100  0.19563800  0.21234600  1
  H  H8  1  0.33834800  0.93167000  0.61925000  1
  H  H9  1  0.02592800  0.06833000  0.38075000  1
  O  O0  1  0.63290100  0.79435700  0.97711200  1
  O  O1  1  0.18426600  0.79442800  0.97714600  1
  O  O2  1  0.36698400  0.20557200  0.02285400  1
  O  O3  1  0.81565700  0.20564300  0.02288800  1
  O  O4  1  0.13733400  0.06260600  0.78832900  1
  O  O5  1  0.86305700  0.93739400  0.21167100  1
  O  O6  1  0.32750400  0.20533600  0.55552800  1
  O  O7  1  0.67769600  0.79466400  0.44447200  1
  O  O8  1  0.28269800  0.47269200  0.35503100  1
  O  O9  1  0.83500300  0.47335800  0.35496500  1
  O  O10  1  0.71661000  0.52664200  0.64503500  1
  O  O11  1  0.16503700  0.52730800  0.64496900  1
loop_
_geom_bond_atom_site_label_1
_geom_bond_atom_site_label_2
_geom_bond_distance
_geom_bond_site_symmetry_2
Dy0 O9 2.245381 1_555
Dy0 O10 2.245381 1_555
Dy0 O11 2.246647 1_555
Dy0 O8 2.246647 1_555
Dy0 O7 2.277023 1_555
Dy0 O6 2.277023 1_555
Dy1 O3 2.263738 1_555
Dy1 O0 2.263742 1_544
Dy1 O2 2.267277 1_655
Dy1 O1 2.267277 1_644
Dy1 O4 2.270428 1_654
Dy1 O5 2.270428 1_545
H0 P2 1.419304 1_555
H1 P3 1.419304 1_555
H2 P4 1.416766 1_555
H3 P5 1.416766 1_555
H4 P2 1.415003 1_555
H5 P3 1.415003 1_555
H6 P4 1.419091 1_555
H7 P5 1.419091 1_555
H8 P0 1.437013 1_565
H9 P1 1.437009 1_445
O0 P4 1.523877 1_555
O1 P4 1.524095 1_555
O2 P5 1.524095 1_555
O3 P5 1.523882 1_555
O4 P0 1.528964 1_555
O5 P1 1.528964 1_555
O6 P0 1.531032 1_555
O7 P1 1.531031 1_555
O8 P2 1.520525 1_555
O9 P2 1.519630 1_655
O10 P3 1.519630 1_555
O11 P3 1.520524 1_455
