# generated using pymatgen
data_K(PIr)2
_symmetry_space_group_name_H-M   'P 1'
_cell_length_a   7.11981453
_cell_length_b   7.11981453
_cell_length_c   7.11981453
_cell_angle_alpha   147.89825985
_cell_angle_beta   147.89825985
_cell_angle_gamma   46.03557775
_symmetry_Int_Tables_number   1
_chemical_formula_structural   K(PIr)2
_chemical_formula_sum   'K1 P2 Ir2'
_cell_volume   101.57712671
_cell_formula_units_Z   1
loop_
 _symmetry_equiv_pos_site_id
 _symmetry_equiv_pos_as_xyz
  1  'x, y, z'
loop_
 _atom_site_type_symbol
 _atom_site_label
 _atom_site_symmetry_multiplicity
 _atom_site_fract_x
 _atom_site_fract_y
 _atom_site_fract_z
 _atom_site_occupancy
  K  K0  1  0.00000000  0.00000000  -0.00000000  1
  P  P0  1  0.34730033  0.34730033  -0.00000000  1
  P  P1  1  0.65269967  0.65269967  0.00000000  1
  Ir  Ir0  1  0.75000000  0.25000000  0.50000000  1
  Ir  Ir1  1  0.25000000  0.75000000  0.50000000  1
loop_
_geom_bond_atom_site_label_1
_geom_bond_atom_site_label_2
_geom_bond_distance
_geom_bond_site_symmetry_2
K0 P1 3.428638 1_455
K0 P1 3.428638 1_545
K0 P1 3.428638 1_444
K0 P0 3.428638 1_556
K0 P1 3.428638 1_556
K0 P0 3.428638 1_444
K0 P0 3.428638 1_455
K0 P0 3.428638 1_545
Ir0 P0 2.345506 1_656
Ir0 P0 2.345506 1_555
Ir0 P1 2.345506 1_556
Ir0 P1 2.345506 1_545
Ir1 P0 2.345506 1_566
Ir1 P0 2.345506 1_555
Ir1 P1 2.345506 1_455
Ir1 P1 2.345506 1_556
