# generated using pymatgen
data_RbCaBr3
_symmetry_space_group_name_H-M   'P 1'
_cell_length_a   5.73669000
_cell_length_b   5.73669000
_cell_length_c   5.73669000
_cell_angle_alpha   90.00000000
_cell_angle_beta   90.00000000
_cell_angle_gamma   90.00000000
_symmetry_Int_Tables_number   1
_chemical_formula_structural   RbCaBr3
_chemical_formula_sum   'Rb1 Ca1 Br3'
_cell_volume   188.79224296
_cell_formula_units_Z   1
loop_
 _symmetry_equiv_pos_site_id
 _symmetry_equiv_pos_as_xyz
  1  'x, y, z'
loop_
 _atom_site_type_symbol
 _atom_site_label
 _atom_site_symmetry_multiplicity
 _atom_site_fract_x
 _atom_site_fract_y
 _atom_site_fract_z
 _atom_site_occupancy
  Rb  Rb0  1  0.50000000  0.50000000  0.50000000  1
  Ca  Ca0  1  0.00000000  0.00000000  0.00000000  1
  Br  Br0  1  0.50000000  0.00000000  0.00000000  1
  Br  Br1  1  0.00000000  0.50000000  0.00000000  1
  Br  Br2  1  0.00000000  0.00000000  0.50000000  1
loop_
_geom_bond_atom_site_label_1
_geom_bond_atom_site_label_2
_geom_bond_distance
_geom_bond_site_symmetry_2
Br0 Ca0 2.868345 1_555
Br0 Ca0 2.868345 1_655
Br0 Rb0 4.056452 1_555
Br0 Rb0 4.056452 1_554
Br0 Rb0 4.056452 1_544
Br0 Rb0 4.056452 1_545
Br1 Ca0 2.868345 1_555
Br1 Ca0 2.868345 1_565
Br1 Rb0 4.056452 1_555
Br1 Rb0 4.056452 1_554
Br1 Rb0 4.056452 1_454
Br1 Rb0 4.056452 1_455
Br2 Ca0 2.868345 1_555
Br2 Ca0 2.868345 1_556
Br2 Rb0 4.056452 1_555
Br2 Rb0 4.056452 1_545
Br2 Rb0 4.056452 1_445
Br2 Rb0 4.056452 1_455
