# generated using pymatgen
data_Fe3O4
_symmetry_space_group_name_H-M   'P 1'
_cell_length_a   6.06571000
_cell_length_b   6.06335300
_cell_length_c   8.68538431
_cell_angle_alpha   89.79004304
_cell_angle_beta   90.00000000
_cell_angle_gamma   90.00000000
_symmetry_Int_Tables_number   1
_chemical_formula_structural   Fe3O4
_chemical_formula_sum   'Fe12 O16'
_cell_volume   319.43361774
_cell_formula_units_Z   4
loop_
 _symmetry_equiv_pos_site_id
 _symmetry_equiv_pos_as_xyz
  1  'x, y, z'
loop_
 _atom_site_type_symbol
 _atom_site_label
 _atom_site_symmetry_multiplicity
 _atom_site_fract_x
 _atom_site_fract_y
 _atom_site_fract_z
 _atom_site_occupancy
  Fe  Fe0  1  0.00000000  0.00000000  0.50000000  1
  Fe  Fe1  1  0.00000000  0.50000000  0.50000000  1
  Fe  Fe2  1  0.50000000  0.00000000  0.00000000  1
  Fe  Fe3  1  0.50000000  0.50000000  0.00000000  1
  Fe  Fe4  1  0.50000000  0.75304000  0.62247500  1
  Fe  Fe5  1  0.50000000  0.24696000  0.37752500  1
  Fe  Fe6  1  0.00000000  0.75193100  0.87846800  1
  Fe  Fe7  1  0.00000000  0.24806900  0.12153200  1
  Fe  Fe8  1  0.75204500  0.25262800  0.74940900  1
  Fe  Fe9  1  0.75204500  0.74737200  0.25059100  1
  Fe  Fe10  1  0.24795500  0.25262800  0.74940900  1
  Fe  Fe11  1  0.24795500  0.74737200  0.25059100  1
  O  O0  1  0.00000000  0.97611000  0.26818000  1
  O  O1  1  0.00000000  0.47682600  0.74123100  1
  O  O2  1  0.00000000  0.52317400  0.25876900  1
  O  O3  1  0.00000000  0.02389000  0.73182000  1
  O  O4  1  0.24236900  0.76097500  0.49292600  1
  O  O5  1  0.24236900  0.23902500  0.50707400  1
  O  O6  1  0.75763100  0.23902500  0.50707400  1
  O  O7  1  0.75763100  0.76097500  0.49292600  1
  O  O8  1  0.26785300  0.24072100  0.97887300  1
  O  O9  1  0.26785300  0.75927900  0.02112700  1
  O  O10  1  0.73214700  0.75927900  0.02112700  1
  O  O11  1  0.73214700  0.24072100  0.97887300  1
  O  O12  1  0.50000000  0.51689300  0.25806100  1
  O  O13  1  0.50000000  0.01187000  0.75713600  1
  O  O14  1  0.50000000  0.48310700  0.74193900  1
  O  O15  1  0.50000000  0.98813000  0.24286400  1
loop_
_geom_bond_atom_site_label_1
_geom_bond_atom_site_label_2
_geom_bond_distance
_geom_bond_site_symmetry_2
Fe0 O3 2.019179 1_555
Fe0 O0 2.019179 1_545
Fe0 O6 2.065476 1_455
Fe0 O7 2.065476 1_445
Fe0 O5 2.065476 1_555
Fe0 O4 2.065476 1_545
Fe1 O1 2.099377 1_555
Fe1 O2 2.099377 1_555
Fe1 O7 2.160628 1_455
Fe1 O4 2.160628 1_555
Fe1 O6 2.160628 1_455
Fe1 O5 2.160628 1_555
Fe2 O9 2.035907 1_545
Fe2 O10 2.035907 1_545
Fe2 O11 2.035907 1_554
Fe2 O8 2.035907 1_554
Fe2 O15 2.110331 1_545
Fe2 O13 2.110331 1_554
Fe3 O11 2.118993 1_554
Fe3 O8 2.118993 1_554
Fe3 O10 2.118993 1_555
Fe3 O9 2.118993 1_555
Fe3 O12 2.244073 1_555
Fe3 O14 2.244073 1_554
Fe4 O4 1.926144 1_555
Fe4 O7 1.926144 1_555
Fe4 O14 1.934666 1_555
Fe4 O13 1.960694 1_565
Fe5 O5 1.926144 1_555
Fe5 O6 1.926144 1_555
Fe5 O12 1.934666 1_555
Fe5 O15 1.960694 1_545
Fe6 O10 2.043854 1_456
Fe6 O9 2.043854 1_556
Fe6 O1 2.053716 1_555
Fe6 O3 2.079916 1_565
Fe7 O11 2.043854 1_454
Fe7 O8 2.043854 1_554
Fe7 O2 2.053716 1_555
Fe7 O0 2.079916 1_545
Fe8 O11 1.997675 1_555
Fe8 O1 2.028391 1_655
Fe8 O3 2.051955 1_655
Fe8 O14 2.072151 1_555
Fe8 O6 2.106963 1_555
Fe8 O13 2.114741 1_555
Fe9 O10 1.997675 1_555
Fe9 O2 2.028391 1_655
Fe9 O0 2.051955 1_655
Fe9 O12 2.072151 1_555
Fe9 O7 2.106963 1_555
Fe9 O15 2.114741 1_555
Fe10 O8 1.997675 1_555
Fe10 O1 2.028391 1_555
Fe10 O3 2.051955 1_555
Fe10 O14 2.072151 1_555
Fe10 O5 2.106963 1_555
Fe10 O13 2.114741 1_555
Fe11 O9 1.997675 1_555
Fe11 O2 2.028391 1_555
Fe11 O0 2.051955 1_555
Fe11 O12 2.072151 1_555
Fe11 O4 2.106963 1_555
Fe11 O15 2.114741 1_555
