# generated using pymatgen
data_Na3IrS2N2(Cl2O5)2
_symmetry_space_group_name_H-M   'P 1'
_cell_length_a   9.67699600
_cell_length_b   7.32737100
_cell_length_c   12.98257072
_cell_angle_alpha   72.17395731
_cell_angle_beta   90.00000000
_cell_angle_gamma   90.00000000
_symmetry_Int_Tables_number   1
_chemical_formula_structural   Na3IrS2N2(Cl2O5)2
_chemical_formula_sum   'Na6 Ir2 S4 N4 Cl8 O20'
_cell_volume   876.35886546
_cell_formula_units_Z   2
loop_
 _symmetry_equiv_pos_site_id
 _symmetry_equiv_pos_as_xyz
  1  'x, y, z'
loop_
 _atom_site_type_symbol
 _atom_site_label
 _atom_site_symmetry_multiplicity
 _atom_site_fract_x
 _atom_site_fract_y
 _atom_site_fract_z
 _atom_site_occupancy
  Na  Na0  1  0.20208700  0.04582900  0.23791600  1
  Na  Na1  1  0.70208700  0.95417100  0.26208400  1
  Na  Na2  1  0.79791300  0.95417100  0.76208400  1
  Na  Na3  1  0.29791300  0.04582900  0.73791600  1
  Na  Na4  1  0.00000000  0.50000000  0.50000000  1
  Na  Na5  1  0.50000000  0.50000000  0.00000000  1
  Ir  Ir0  1  0.00000000  0.00000000  0.50000000  1
  Ir  Ir1  1  0.50000000  0.00000000  0.00000000  1
  S  S0  1  0.23426500  0.83176700  0.52097100  1
  S  S1  1  0.73426500  0.16823300  0.97902900  1
  S  S2  1  0.76573500  0.16823300  0.47902900  1
  S  S3  1  0.26573500  0.83176700  0.02097100  1
  N  N0  1  0.04227900  0.51976700  0.87624800  1
  N  N1  1  0.54227900  0.48023300  0.62375200  1
  N  N2  1  0.95772100  0.48023300  0.12375200  1
  N  N3  1  0.45772100  0.51976700  0.37624800  1
  Cl  Cl0  1  0.89732500  0.73232900  0.62030000  1
  Cl  Cl1  1  0.39732500  0.26767100  0.87970000  1
  Cl  Cl2  1  0.10267500  0.26767100  0.37970000  1
  Cl  Cl3  1  0.60267500  0.73232900  0.12030000  1
  Cl  Cl4  1  0.03477000  0.13024900  0.64401700  1
  Cl  Cl5  1  0.53477000  0.86975100  0.85598300  1
  Cl  Cl6  1  0.96523000  0.86975100  0.35598300  1
  Cl  Cl7  1  0.46523000  0.13024900  0.14401700  1
  O  O0  1  0.29891100  0.90876500  0.41419000  1
  O  O1  1  0.79891100  0.09123500  0.08581000  1
  O  O2  1  0.70108900  0.09123500  0.58581000  1
  O  O3  1  0.20108900  0.90876500  0.91419000  1
  O  O4  1  0.30173800  0.88674100  0.60816200  1
  O  O5  1  0.80173800  0.11325900  0.89183800  1
  O  O6  1  0.69826200  0.11325900  0.39183800  1
  O  O7  1  0.19826200  0.88674100  0.10816200  1
  O  O8  1  0.19921100  0.62668100  0.54977200  1
  O  O9  1  0.69921100  0.37331900  0.95022800  1
  O  O10  1  0.80078900  0.37331900  0.45022800  1
  O  O11  1  0.30078900  0.62668100  0.04977200  1
  O  O12  1  0.45036500  0.37043600  0.61797300  1
  O  O13  1  0.95036500  0.62956400  0.88202700  1
  O  O14  1  0.54963500  0.62956400  0.38202700  1
  O  O15  1  0.04963500  0.37043600  0.11797300  1
  O  O16  1  0.55242600  0.65289000  0.59113200  1
  O  O17  1  0.05242600  0.34711000  0.90886800  1
  O  O18  1  0.44757400  0.34711000  0.40886800  1
  O  O19  1  0.94757400  0.65289000  0.09113200  1
loop_
_geom_bond_atom_site_label_1
_geom_bond_atom_site_label_2
_geom_bond_distance
_geom_bond_site_symmetry_2
Na0 O7 2.323825 1_545
Na0 O0 2.390931 1_545
Na0 O15 2.826820 1_555
Na1 O6 2.323825 1_565
Na1 O1 2.390931 1_565
Na1 O14 2.826820 1_555
Na2 O5 2.323825 1_565
Na2 O2 2.390931 1_565
Na2 O13 2.826820 1_555
Na3 O4 2.323825 1_545
Na3 O3 2.390931 1_545
Na3 O12 2.826820 1_555
Na4 O10 2.315743 1_455
Na4 O8 2.315743 1_555
Na5 O9 2.315743 1_554
Na5 O11 2.315743 1_555
Ir0 S0 2.554880 1_545
Ir0 S2 2.554880 1_455
Ir1 S1 2.554880 1_554
Ir1 S3 2.554880 1_545
N0 O17 1.208922 1_555
N0 O13 1.216950 1_455
N1 O16 1.208922 1_555
N1 O12 1.216950 1_555
N2 O19 1.208922 1_555
N2 O15 1.216950 1_655
N3 O18 1.208922 1_555
N3 O14 1.216950 1_555
Cl0 Ir0 2.323310 1_665
Cl0 Na4 2.819984 1_655
Cl0 Na2 2.964452 1_555
Cl1 Ir1 2.323310 1_556
Cl1 Na5 2.819984 1_556
Cl1 Na3 2.964452 1_555
Cl2 Ir0 2.323310 1_555
Cl2 Na4 2.819984 1_555
Cl2 Na0 2.964452 1_555
Cl3 Ir1 2.323310 1_565
Cl3 Na5 2.819984 1_555
Cl3 Na1 2.964452 1_555
Cl4 Ir0 2.369050 1_555
Cl4 Na4 2.801410 1_555
Cl4 Na3 2.809156 1_555
Cl4 Na2 2.838460 1_445
Cl5 Ir1 2.369050 1_566
Cl5 Na5 2.801410 1_556
Cl5 Na2 2.809156 1_555
Cl5 Na3 2.838460 1_565
Cl6 Ir0 2.369050 1_665
Cl6 Na4 2.801410 1_655
Cl6 Na1 2.809156 1_555
Cl6 Na0 2.838460 1_665
Cl7 Ir1 2.369050 1_555
Cl7 Na5 2.801410 1_555
Cl7 Na0 2.809156 1_555
Cl7 Na1 2.838460 1_545
O0 S0 1.467174 1_555
O1 S1 1.467174 1_554
O2 S2 1.467174 1_555
O3 S3 1.467174 1_556
O4 S0 1.465980 1_555
O5 S1 1.465980 1_555
O6 S2 1.465980 1_555
O7 S3 1.465980 1_555
O8 S0 1.472782 1_555
O9 S1 1.472782 1_555
O10 S2 1.472782 1_555
O11 S3 1.472782 1_555
