# generated using pymatgen
data_Sr4LaMn5O15
_symmetry_space_group_name_H-M   'P 1'
_cell_length_a   5.50564740
_cell_length_b   13.45916543
_cell_length_c   8.64250696
_cell_angle_alpha   104.10942037
_cell_angle_beta   108.89009083
_cell_angle_gamma   90.81810750
_symmetry_Int_Tables_number   1
_chemical_formula_structural   Sr4LaMn5O15
_chemical_formula_sum   'Sr8 La2 Mn10 O30'
_cell_volume   584.61091614
_cell_formula_units_Z   2
loop_
 _symmetry_equiv_pos_site_id
 _symmetry_equiv_pos_as_xyz
  1  'x, y, z'
loop_
 _atom_site_type_symbol
 _atom_site_label
 _atom_site_symmetry_multiplicity
 _atom_site_fract_x
 _atom_site_fract_y
 _atom_site_fract_z
 _atom_site_occupancy
  Sr  Sr0  1  0.60099100  0.20026400  0.20116300  1
  Sr  Sr1  1  0.60106400  0.70091400  0.20161800  1
  Sr  Sr2  1  0.40061500  0.30020300  0.79972000  1
  Sr  Sr3  1  0.39853700  0.79844700  0.79735700  1
  Sr  Sr4  1  0.20207900  0.40180100  0.40269600  1
  Sr  Sr5  1  0.20118000  0.89932600  0.39985500  1
  Sr  Sr6  1  0.79695800  0.09908500  0.59783000  1
  Sr  Sr7  1  0.79923900  0.60057200  0.59982700  1
  La  La0  1  0.99755400  0.99703400  0.99726100  1
  La  La1  1  0.00010800  0.50109500  0.00214600  1
  Mn  Mn0  1  0.00164700  0.24917500  0.00034000  1
  Mn  Mn1  1  0.20015800  0.65103600  0.40116000  1
  Mn  Mn2  1  0.60114600  0.94926800  0.19913800  1
  Mn  Mn3  1  0.39783300  0.04975400  0.79691300  1
  Mn  Mn4  1  0.39888700  0.55031100  0.80089000  1
  Mn  Mn5  1  0.00028000  0.74967700  0.99978000  1
  Mn  Mn6  1  0.80073800  0.34897900  0.59991800  1
  Mn  Mn7  1  0.79947900  0.84916100  0.59728000  1
  Mn  Mn8  1  0.19904500  0.15113400  0.40069500  1
  Mn  Mn9  1  0.59987000  0.45064900  0.20271500  1
  O  O0  1  0.50565800  0.99331100  0.99348700  1
  O  O1  1  0.49426200  0.50497600  0.00455900  1
  O  O2  1  0.99527900  0.25276200  0.50271300  1
  O  O3  1  0.00180700  0.74966900  0.49983800  1
  O  O4  1  0.50229300  0.25164900  0.50118600  1
  O  O5  1  0.50161800  0.74914500  0.49962500  1
  O  O6  1  0.89878800  0.30469800  0.80678700  1
  O  O7  1  0.90356500  0.80224200  0.80307200  1
  O  O8  1  0.10015100  0.19682600  0.19664100  1
  O  O9  1  0.09875000  0.69731900  0.19666700  1
  O  O10  1  0.69825000  0.40798100  0.40725800  1
  O  O11  1  0.70429300  0.89964900  0.39956600  1
  O  O12  1  0.30024100  0.09624000  0.59523500  1
  O  O13  1  0.29645900  0.59870900  0.59892100  1
  O  O14  1  0.59962600  0.45482900  0.71490900  1
  O  O15  1  0.61503700  0.94600100  0.70168500  1
  O  O16  1  0.40296900  0.04356400  0.28355800  1
  O  O17  1  0.38805400  0.55202600  0.29481400  1
  O  O18  1  0.89901500  0.04588900  0.28655200  1
  O  O19  1  0.89963600  0.55232100  0.29359200  1
  O  O20  1  0.09903100  0.45344400  0.71238700  1
  O  O21  1  0.09965900  0.94729900  0.70486300  1
  O  O22  1  0.20535200  0.14426200  0.89840000  1
  O  O23  1  0.19331700  0.64824700  0.90203000  1
  O  O24  1  0.79072900  0.35903400  0.10488000  1
  O  O25  1  0.80765700  0.85041600  0.09645600  1
  O  O26  1  0.29706800  0.35676200  0.10302300  1
  O  O27  1  0.29609100  0.85000600  0.09572900  1
  O  O28  1  0.70473800  0.14394900  0.90018100  1
  O  O29  1  0.70320200  0.64888800  0.90308500  1
loop_
_geom_bond_atom_site_label_1
_geom_bond_atom_site_label_2
_geom_bond_distance
_geom_bond_site_symmetry_2
La0 O15 2.655627 1_555
La0 O18 2.657939 1_566
La0 O25 2.658651 1_556
La0 O16 2.669291 1_666
La0 O7 2.685444 1_555
La0 O28 2.690155 1_565
La0 O21 2.693687 1_655
La0 O0 2.697422 1_555
La0 O27 2.711078 1_656
La0 O22 2.712774 1_665
La0 O8 2.754355 1_666
La0 O0 2.809189 1_655
La1 O17 2.654132 1_555
La1 O14 2.659866 1_454
La1 O20 2.662565 1_554
La1 O23 2.678444 1_554
La1 O19 2.681829 1_455
La1 O26 2.683344 1_555
La1 O24 2.683377 1_455
La1 O9 2.701726 1_555
La1 O6 2.705772 1_454
La1 O1 2.713615 1_555
La1 O29 2.716404 1_454
La1 O1 2.792968 1_455
Mn0 O8 1.914864 1_555
Mn0 O6 1.919769 1_454
Mn0 O28 1.961427 1_454
Mn0 O26 1.975196 1_555
Mn0 O22 2.026417 1_554
Mn0 O24 2.104308 1_455
Mn1 O5 1.922896 1_555
Mn1 O19 1.925132 1_455
Mn1 O13 1.925898 1_555
Mn1 O9 1.931578 1_555
Mn1 O17 1.936125 1_555
Mn1 O3 1.942847 1_555
Mn2 O16 1.853935 1_565
Mn2 O18 1.899798 1_565
Mn2 O0 1.924645 1_554
Mn2 O11 1.925330 1_555
Mn2 O27 1.945832 1_555
Mn2 O25 1.992803 1_555
Mn3 O22 1.899138 1_555
Mn3 O12 1.911307 1_555
Mn3 O28 1.915631 1_555
Mn3 O21 1.945318 1_545
Mn3 O0 1.950598 1_545
Mn3 O15 2.045005 1_545
Mn4 O14 1.879334 1_555
Mn4 O20 1.909185 1_555
Mn4 O1 1.918512 1_556
Mn4 O13 1.927859 1_555
Mn4 O29 1.937664 1_555
Mn4 O23 1.975839 1_555
Mn5 O27 1.918409 1_556
Mn5 O9 1.919414 1_556
Mn5 O7 1.919699 1_455
Mn5 O29 1.926826 1_455
Mn5 O25 1.929673 1_456
Mn5 O23 1.940981 1_555
Mn6 O2 1.903105 1_555
Mn6 O4 1.905188 1_555
Mn6 O6 1.935675 1_555
Mn6 O10 1.941794 1_555
Mn6 O20 1.962887 1_655
Mn6 O14 2.076192 1_555
Mn7 O15 1.897863 1_555
Mn7 O11 1.911191 1_555
Mn7 O21 1.919489 1_655
Mn7 O5 1.923686 1_555
Mn7 O7 1.946386 1_555
Mn7 O3 1.960468 1_655
Mn8 O12 1.921962 1_555
Mn8 O8 1.923877 1_555
Mn8 O4 1.948263 1_555
Mn8 O18 1.976121 1_455
Mn8 O2 2.000805 1_455
Mn8 O16 2.109340 1_555
Mn9 O24 1.855681 1_555
Mn9 O26 1.896677 1_555
Mn9 O10 1.905783 1_555
Mn9 O1 1.945122 1_555
Mn9 O19 1.945625 1_555
Mn9 O17 1.993050 1_555
O0 Sr3 2.690853 1_555
O0 Sr0 2.857674 1_566
O1 Sr1 2.705259 1_555
O1 Sr2 2.825845 1_554
O2 Sr0 2.720081 1_555
O2 Sr2 2.725412 1_655
O2 Sr4 2.735824 1_655
O2 Sr6 2.737113 1_555
O3 Sr3 2.704251 1_555
O3 Sr1 2.719078 1_455
O3 Sr5 2.721843 1_555
O3 Sr7 2.724540 1_455
O4 Sr2 2.742423 1_555
O4 Sr0 2.746951 1_555
O4 Sr4 2.750223 1_555
O4 Sr6 2.756786 1_555
O5 Sr7 2.729956 1_555
O5 Sr1 2.731776 1_555
O5 Sr3 2.739959 1_555
O5 Sr5 2.754444 1_555
O6 Sr2 2.723075 1_555
O6 Sr2 2.784447 1_655
O6 Sr6 2.845618 1_555
O7 Sr3 2.742507 1_655
O7 Sr3 2.764426 1_555
O7 Sr7 2.785767 1_555
O8 Sr0 2.744610 1_555
O8 Sr0 2.761985 1_455
O8 Sr4 2.830302 1_555
O9 Sr1 2.751556 1_555
O9 Sr1 2.755163 1_455
O9 Sr5 2.789460 1_555
O10 Sr7 2.656014 1_555
O10 Sr4 2.719019 1_555
O10 Sr4 2.789055 1_655
O10 Sr0 2.861313 1_555
O11 Sr5 2.734944 1_655
O11 Sr1 2.738674 1_555
O11 Sr6 2.748437 1_565
O11 Sr5 2.770715 1_555
O12 Sr5 2.711703 1_545
O12 Sr6 2.727214 1_555
O12 Sr6 2.778974 1_455
O12 Sr2 2.814883 1_555
O13 Sr4 2.714494 1_555
O13 Sr7 2.740518 1_455
O13 Sr3 2.751179 1_555
O13 Sr7 2.765342 1_555
O14 Sr2 2.695838 1_555
O14 Sr7 2.764456 1_555
O14 Sr4 2.788046 1_555
O15 Sr3 2.723903 1_555
O15 Sr6 2.734741 1_565
O15 Sr5 2.775357 1_555
O16 Sr0 2.704269 1_555
O16 Sr5 2.761520 1_545
O16 Sr6 2.791081 1_555
O17 Sr1 2.714996 1_555
O17 Sr4 2.735681 1_555
O17 Sr7 2.784726 1_555
O18 Sr5 2.756511 1_645
O18 Sr0 2.759500 1_555
O18 Sr6 2.849003 1_555
O19 Sr1 2.712316 1_555
O19 Sr4 2.788728 1_655
O19 Sr7 2.802052 1_555
O20 Sr7 2.754048 1_455
O20 Sr2 2.761493 1_555
O20 Sr4 2.838341 1_555
O21 Sr3 2.717290 1_555
O21 Sr5 2.795084 1_555
O21 Sr6 2.797674 1_465
O22 Sr0 2.731412 1_556
O22 Sr6 2.753577 1_455
O22 Sr2 2.773106 1_555
O23 Sr7 2.722964 1_455
O23 Sr1 2.746289 1_556
O23 Sr3 2.769464 1_555
O24 Sr2 2.731517 1_554
O24 Sr4 2.747955 1_655
O24 Sr0 2.777794 1_555
O25 Sr5 2.728040 1_655
O25 Sr3 2.747407 1_554
O25 Sr1 2.768438 1_555
O26 Sr4 2.733006 1_555
O26 Sr2 2.789774 1_554
O26 Sr0 2.829955 1_555
O27 Sr3 2.744046 1_554
O27 Sr5 2.769625 1_555
O27 Sr1 2.771286 1_555
O28 Sr6 2.747560 1_555
O28 Sr0 2.771350 1_556
O28 Sr2 2.833674 1_555
O29 Sr1 2.744665 1_556
O29 Sr7 2.765464 1_555
O29 Sr3 2.775106 1_555
