# generated using pymatgen
data_LiInO2
_symmetry_space_group_name_H-M   'P 1'
_cell_length_a   5.56265820
_cell_length_b   5.56265820
_cell_length_c   5.56265820
_cell_angle_alpha   134.17029989
_cell_angle_beta   134.17029989
_cell_angle_gamma   66.82213599
_symmetry_Int_Tables_number   1
_chemical_formula_structural   LiInO2
_chemical_formula_sum   'Li2 In2 O4'
_cell_volume   87.13001698
_cell_formula_units_Z   2
loop_
 _symmetry_equiv_pos_site_id
 _symmetry_equiv_pos_as_xyz
  1  'x, y, z'
loop_
 _atom_site_type_symbol
 _atom_site_label
 _atom_site_symmetry_multiplicity
 _atom_site_fract_x
 _atom_site_fract_y
 _atom_site_fract_z
 _atom_site_occupancy
  Li  Li0  1  0.26206703  0.76206703  0.50000000  1
  Li  Li1  1  0.51206703  0.51206703  0.00000000  1
  In  In0  1  0.75653467  0.25653467  0.50000000  1
  In  In1  1  0.00653467  0.00653467  0.00000000  1
  O  O0  1  0.99084084  0.49084084  0.50000000  1
  O  O1  1  0.77045645  0.77045645  -0.00000000  1
  O  O2  1  0.52045645  0.02045645  0.50000000  1
  O  O3  1  0.24084084  0.24084084  -0.00000000  1
loop_
_geom_bond_atom_site_label_1
_geom_bond_atom_site_label_2
_geom_bond_distance
_geom_bond_site_symmetry_2
Li0 O1 2.167292 1_556
Li0 O1 2.167292 1_455
Li0 O3 2.174843 1_566
Li0 O3 2.174843 1_555
Li0 O2 2.399601 1_565
Li0 O0 2.518813 1_455
Li1 O2 2.167292 1_554
Li1 O2 2.167292 1_565
Li1 O0 2.174843 1_454
Li1 O0 2.174843 1_555
Li1 O1 2.399601 1_555
Li1 O3 2.518813 1_555
In0 O1 2.169747 1_556
In0 O1 2.169747 1_545
In0 O3 2.170790 1_555
In0 O3 2.170790 1_656
In0 O0 2.175946 1_555
In0 O2 2.192403 1_555
In1 O2 2.169747 1_555
In1 O2 2.169747 1_454
In1 O0 2.170790 1_455
In1 O0 2.170790 1_444
In1 O3 2.175946 1_555
In1 O1 2.192403 1_445
