# generated using pymatgen
data_ErMnSn2
_symmetry_space_group_name_H-M   'P 1'
_cell_length_a   8.97927900
_cell_length_b   10.36400300
_cell_length_c   11.36705200
_cell_angle_alpha   90.00000000
_cell_angle_beta   90.00000000
_cell_angle_gamma   90.00000000
_symmetry_Int_Tables_number   1
_chemical_formula_structural   ErMnSn2
_chemical_formula_sum   'Er12 Mn12 Sn24'
_cell_volume   1057.83234636
_cell_formula_units_Z   12
loop_
 _symmetry_equiv_pos_site_id
 _symmetry_equiv_pos_as_xyz
  1  'x, y, z'
loop_
 _atom_site_type_symbol
 _atom_site_label
 _atom_site_symmetry_multiplicity
 _atom_site_fract_x
 _atom_site_fract_y
 _atom_site_fract_z
 _atom_site_occupancy
  Er  Er0  1  0.24120700  0.82820800  0.45207600  1
  Er  Er1  1  0.24120700  0.17179200  0.54792400  1
  Er  Er2  1  0.75879300  0.32820800  0.04792400  1
  Er  Er3  1  0.75879300  0.67179200  0.95207600  1
  Er  Er4  1  0.75879300  0.17179200  0.54792400  1
  Er  Er5  1  0.75879300  0.82820800  0.45207600  1
  Er  Er6  1  0.24120700  0.67179200  0.95207600  1
  Er  Er7  1  0.24120700  0.32820800  0.04792400  1
  Er  Er8  1  0.00000000  0.83481600  0.17894200  1
  Er  Er9  1  0.00000000  0.16518400  0.82105800  1
  Er  Er10  1  0.00000000  0.33481600  0.32105800  1
  Er  Er11  1  0.00000000  0.66518400  0.67894200  1
  Mn  Mn0  1  0.24904700  0.58879700  0.25087100  1
  Mn  Mn1  1  0.24904700  0.41120300  0.74912900  1
  Mn  Mn2  1  0.75095300  0.08879700  0.24912900  1
  Mn  Mn3  1  0.75095300  0.91120300  0.75087100  1
  Mn  Mn4  1  0.75095300  0.41120300  0.74912900  1
  Mn  Mn5  1  0.75095300  0.58879700  0.25087100  1
  Mn  Mn6  1  0.24904700  0.91120300  0.75087100  1
  Mn  Mn7  1  0.24904700  0.08879700  0.24912900  1
  Mn  Mn8  1  0.24384200  0.50000000  0.50000000  1
  Mn  Mn9  1  0.75615800  0.00000000  0.00000000  1
  Mn  Mn10  1  0.75615800  0.50000000  0.50000000  1
  Mn  Mn11  1  0.24384200  0.00000000  0.00000000  1
  Sn  Sn0  1  0.33766000  0.83834400  0.18084900  1
  Sn  Sn1  1  0.33766000  0.16165600  0.81915100  1
  Sn  Sn2  1  0.66234000  0.33834400  0.31915100  1
  Sn  Sn3  1  0.66234000  0.66165600  0.68084900  1
  Sn  Sn4  1  0.66234000  0.16165600  0.81915100  1
  Sn  Sn5  1  0.66234000  0.83834400  0.18084900  1
  Sn  Sn6  1  0.33766000  0.66165600  0.68084900  1
  Sn  Sn7  1  0.33766000  0.33834400  0.31915100  1
  Sn  Sn8  1  0.50000000  0.54248900  0.12347000  1
  Sn  Sn9  1  0.50000000  0.45751100  0.87653000  1
  Sn  Sn10  1  0.50000000  0.04248900  0.37653000  1
  Sn  Sn11  1  0.50000000  0.95751100  0.62347000  1
  Sn  Sn12  1  0.00000000  0.54055200  0.12253700  1
  Sn  Sn13  1  0.00000000  0.45944800  0.87746300  1
  Sn  Sn14  1  0.00000000  0.04055200  0.37746300  1
  Sn  Sn15  1  0.00000000  0.95944800  0.62253700  1
  Sn  Sn16  1  0.50000000  0.62682200  0.40531200  1
  Sn  Sn17  1  0.50000000  0.37317800  0.59468800  1
  Sn  Sn18  1  0.50000000  0.12682200  0.09468800  1
  Sn  Sn19  1  0.50000000  0.87317800  0.90531200  1
  Sn  Sn20  1  0.00000000  0.62828800  0.39740400  1
  Sn  Sn21  1  0.00000000  0.37171200  0.60259600  1
  Sn  Sn22  1  0.00000000  0.12828800  0.10259600  1
  Sn  Sn23  1  0.00000000  0.87171200  0.89740400  1
loop_
_geom_bond_atom_site_label_1
_geom_bond_atom_site_label_2
_geom_bond_distance
_geom_bond_site_symmetry_2
Er0 Sn20 3.061086 1_555
Er0 Sn16 3.168399 1_555
Er0 Sn14 3.202113 1_565
Er0 Sn0 3.204112 1_555
Er0 Sn15 3.208658 1_555
Er0 Sn6 3.239157 1_555
Er0 Sn11 3.315335 1_555
Er0 Sn10 3.327063 1_565
Er0 Mn0 3.375270 1_555
Er0 Mn8 3.444975 1_555
Er0 Mn6 3.504353 1_555
Er0 Mn7 3.552578 1_565
Er0 Er1 3.723853 1_565
Er0 Er11 3.767738 1_555
Er0 Er8 3.786159 1_555
Er1 Sn21 3.061086 1_555
Er1 Sn17 3.168399 1_555
Er1 Sn15 3.202113 1_545
Er1 Sn1 3.204112 1_555
Er1 Sn14 3.208658 1_555
Er1 Sn7 3.239157 1_555
Er1 Sn10 3.315335 1_555
Er1 Sn11 3.327063 1_545
Er1 Mn1 3.375270 1_555
Er1 Mn8 3.444975 1_555
Er1 Mn7 3.504353 1_555
Er1 Mn6 3.552578 1_545
Er1 Er10 3.767738 1_555
Er1 Er9 3.786159 1_555
Er2 Sn22 3.061086 1_655
Er2 Sn18 3.168399 1_555
Er2 Sn12 3.202113 1_655
Er2 Sn2 3.204112 1_555
Er2 Sn13 3.208658 1_654
Er2 Sn4 3.239157 1_554
Er2 Sn9 3.315335 1_554
Er2 Sn8 3.327063 1_555
Er2 Mn2 3.375270 1_555
Er2 Mn9 3.444975 1_555
Er2 Mn4 3.504353 1_554
Er2 Mn5 3.552578 1_555
Er2 Er3 3.723853 1_554
Er2 Er9 3.767738 1_654
Er3 Sn23 3.061086 1_655
Er3 Sn19 3.168399 1_555
Er3 Sn13 3.202113 1_655
Er3 Sn3 3.204112 1_555
Er3 Sn12 3.208658 1_656
Er3 Sn5 3.239157 1_556
Er3 Sn8 3.315335 1_556
Er3 Sn9 3.327063 1_555
Er3 Mn3 3.375270 1_555
Er3 Mn9 3.444975 1_566
Er3 Mn5 3.504353 1_556
Er3 Mn4 3.552578 1_555
Er3 Er8 3.767738 1_656
Er4 Sn21 3.061086 1_655
Er4 Sn17 3.168399 1_555
Er4 Sn15 3.202113 1_645
Er4 Sn4 3.204112 1_555
Er4 Sn14 3.208658 1_655
Er4 Sn2 3.239157 1_555
Er4 Sn10 3.315335 1_555
Er4 Sn11 3.327063 1_545
Er4 Mn4 3.375270 1_555
Er4 Mn10 3.444975 1_555
Er4 Mn2 3.504353 1_555
Er4 Mn3 3.552578 1_545
Er4 Er5 3.723853 1_545
Er4 Er9 3.786159 1_655
Er5 Sn20 3.061086 1_655
Er5 Sn16 3.168399 1_555
Er5 Sn14 3.202113 1_665
Er5 Sn5 3.204112 1_555
Er5 Sn15 3.208658 1_655
Er5 Sn3 3.239157 1_555
Er5 Sn11 3.315335 1_555
Er5 Sn10 3.327063 1_565
Er5 Mn5 3.375270 1_555
Er5 Mn10 3.444975 1_555
Er5 Mn3 3.504353 1_555
Er5 Mn2 3.552578 1_565
Er5 Er8 3.786159 1_655
Er6 Sn23 3.061086 1_555
Er6 Sn19 3.168399 1_555
Er6 Sn13 3.202113 1_555
Er6 Sn6 3.204112 1_555
Er6 Sn12 3.208658 1_556
Er6 Sn0 3.239157 1_556
Er6 Sn8 3.315335 1_556
Er6 Sn9 3.327063 1_555
Er6 Mn6 3.375270 1_555
Er6 Mn11 3.444975 1_566
Er6 Mn0 3.504353 1_556
Er6 Mn1 3.552578 1_555
Er6 Er7 3.723853 1_556
Er6 Er8 3.767738 1_556
Er7 Sn22 3.061086 1_555
Er7 Sn18 3.168399 1_555
Er7 Sn12 3.202113 1_555
Er7 Sn7 3.204112 1_555
Er7 Sn13 3.208658 1_554
Er7 Sn1 3.239157 1_554
Er7 Sn9 3.315335 1_554
Er7 Sn8 3.327063 1_555
Er7 Mn7 3.375270 1_555
Er7 Mn11 3.444975 1_555
Er7 Mn1 3.504353 1_554
Er7 Mn0 3.552578 1_555
Er7 Er9 3.767738 1_554
Er8 Sn5 3.032241 1_455
Er8 Sn0 3.032241 1_555
Er8 Sn14 3.104629 1_565
Er8 Sn12 3.116421 1_555
Er8 Sn22 3.162929 1_565
Er8 Sn23 3.223022 1_554
Er8 Sn20 3.278442 1_555
Er8 Mn11 3.444152 1_565
Er8 Mn9 3.444152 1_465
Er9 Sn4 3.032241 1_455
Er9 Sn1 3.032241 1_555
Er9 Sn15 3.104629 1_545
Er9 Sn13 3.116421 1_555
Er9 Sn23 3.162929 1_545
Er9 Sn22 3.223022 1_556
Er9 Sn21 3.278442 1_555
Er9 Mn11 3.444152 1_556
Er9 Mn9 3.444152 1_456
Er10 Sn2 3.032241 1_455
Er10 Sn7 3.032241 1_555
Er10 Sn12 3.104629 1_555
Er10 Sn14 3.116421 1_555
Er10 Sn20 3.162929 1_555
Er10 Sn21 3.223022 1_555
Er10 Sn22 3.278442 1_555
Er10 Mn8 3.444152 1_555
Er10 Mn10 3.444152 1_455
Er10 Er4 3.767738 1_455
Er10 Er7 3.786159 1_555
Er10 Er2 3.786159 1_455
Er11 Sn3 3.032241 1_455
Er11 Sn6 3.032241 1_555
Er11 Sn13 3.104629 1_555
Er11 Sn15 3.116421 1_555
Er11 Sn21 3.162929 1_555
Er11 Sn20 3.223022 1_555
Er11 Sn23 3.278442 1_555
Er11 Mn8 3.444152 1_555
Er11 Mn10 3.444152 1_455
Er11 Er5 3.767738 1_455
Er11 Er6 3.786159 1_555
Er11 Er3 3.786159 1_455
Mn0 Sn12 2.716416 1_555
Mn0 Sn8 2.721260 1_555
Mn0 Sn20 2.818292 1_555
Mn0 Sn0 2.820570 1_555
Mn0 Sn7 2.823675 1_555
Mn0 Sn16 2.883562 1_555
Mn0 Mn8 2.978014 1_555
Mn1 Sn13 2.716416 1_555
Mn1 Sn9 2.721260 1_555
Mn1 Sn21 2.818292 1_555
Mn1 Sn1 2.820570 1_555
Mn1 Sn6 2.823675 1_555
Mn1 Sn17 2.883562 1_555
Mn1 Mn8 2.978014 1_555
Mn2 Sn14 2.716416 1_655
Mn2 Sn10 2.721260 1_555
Mn2 Sn22 2.818292 1_655
Mn2 Sn2 2.820570 1_555
Mn2 Sn5 2.823675 1_545
Mn2 Sn18 2.883562 1_555
Mn2 Mn9 2.978014 1_555
Mn3 Sn15 2.716416 1_655
Mn3 Sn11 2.721260 1_555
Mn3 Sn23 2.818292 1_655
Mn3 Sn3 2.820570 1_555
Mn3 Sn4 2.823675 1_565
Mn3 Sn19 2.883562 1_555
Mn3 Mn9 2.978014 1_566
Mn4 Sn13 2.716416 1_655
Mn4 Sn9 2.721260 1_555
Mn4 Sn21 2.818292 1_655
Mn4 Sn4 2.820570 1_555
Mn4 Sn3 2.823675 1_555
Mn4 Sn17 2.883562 1_555
Mn5 Sn12 2.716416 1_655
Mn5 Sn8 2.721260 1_555
Mn5 Sn20 2.818292 1_655
Mn5 Sn5 2.820570 1_555
Mn5 Sn2 2.823675 1_555
Mn5 Sn16 2.883562 1_555
Mn6 Sn15 2.716416 1_555
Mn6 Sn11 2.721260 1_555
Mn6 Sn23 2.818292 1_555
Mn6 Sn6 2.820570 1_555
Mn6 Sn1 2.823675 1_565
Mn6 Sn19 2.883562 1_555
Mn7 Sn14 2.716416 1_555
Mn7 Sn10 2.721260 1_555
Mn7 Sn22 2.818292 1_555
Mn7 Sn7 2.820570 1_555
Mn7 Sn0 2.823675 1_545
Mn7 Sn18 2.883562 1_555
Mn8 Sn6 2.782558 1_555
Mn8 Sn7 2.782558 1_555
Mn8 Sn20 2.814578 1_555
Mn8 Sn21 2.814578 1_555
Mn8 Sn16 2.859476 1_555
Mn8 Sn17 2.859476 1_555
Mn9 Sn5 2.782558 1_545
Mn9 Sn4 2.782558 1_554
Mn9 Sn22 2.814578 1_655
Mn9 Sn23 2.814578 1_644
Mn9 Sn19 2.859476 1_544
Mn9 Sn18 2.859476 1_555
Mn10 Sn3 2.782558 1_555
Mn10 Sn2 2.782558 1_555
Mn10 Sn21 2.814578 1_655
Mn10 Sn20 2.814578 1_655
Mn10 Sn16 2.859476 1_555
Mn10 Sn17 2.859476 1_555
Mn10 Mn4 2.978014 1_555
Mn10 Mn5 2.978014 1_555
Mn11 Sn0 2.782558 1_545
Mn11 Sn1 2.782558 1_554
Mn11 Sn22 2.814578 1_555
Mn11 Sn23 2.814578 1_544
Mn11 Sn18 2.859476 1_555
Mn11 Sn19 2.859476 1_544
Mn11 Mn7 2.978014 1_555
Mn11 Mn6 2.978014 1_544
Sn0 Sn5 2.915392 1_555
Sn1 Sn4 2.915392 1_555
Sn2 Sn7 2.915392 1_555
Sn3 Sn6 2.915392 1_555
Sn8 Sn9 2.941902 1_554
Sn10 Sn11 2.941902 1_545
Sn12 Sn13 2.909820 1_554
Sn12 Sn20 3.254054 1_555
Sn13 Sn21 3.254054 1_555
Sn14 Sn15 2.909820 1_545
Sn14 Sn22 3.254054 1_555
Sn15 Sn23 3.254054 1_555
