# generated using pymatgen
data_Rb2Si2Se5
_symmetry_space_group_name_H-M   'P 1'
_cell_length_a   11.36337386
_cell_length_b   11.36337386
_cell_length_c   9.43158437
_cell_angle_alpha   79.35271038
_cell_angle_beta   79.35271038
_cell_angle_gamma   90.10388925
_symmetry_Int_Tables_number   1
_chemical_formula_structural   Rb2Si2Se5
_chemical_formula_sum   'Rb8 Si8 Se20'
_cell_volume   1175.47564983
_cell_formula_units_Z   4
loop_
 _symmetry_equiv_pos_site_id
 _symmetry_equiv_pos_as_xyz
  1  'x, y, z'
loop_
 _atom_site_type_symbol
 _atom_site_label
 _atom_site_symmetry_multiplicity
 _atom_site_fract_x
 _atom_site_fract_y
 _atom_site_fract_z
 _atom_site_occupancy
  Rb  Rb0  1  0.28988076  0.02148421  0.62166603  1
  Rb  Rb1  1  0.71011924  0.97851579  0.37833397  1
  Rb  Rb2  1  0.97851579  0.71011924  0.87833397  1
  Rb  Rb3  1  0.02148421  0.28988076  0.12166603  1
  Rb  Rb4  1  0.55669829  0.70905731  0.87534584  1
  Rb  Rb5  1  0.44330171  0.29094269  0.12465416  1
  Rb  Rb6  1  0.29094269  0.44330171  0.62465416  1
  Rb  Rb7  1  0.70905731  0.55669829  0.37534584  1
  Si  Si0  1  0.63880096  0.23080955  0.61514940  1
  Si  Si1  1  0.36119904  0.76919045  0.38485060  1
  Si  Si2  1  0.76919045  0.36119904  0.88485060  1
  Si  Si3  1  0.23080955  0.63880096  0.11514940  1
  Si  Si4  1  0.76639764  0.02792271  0.89899427  1
  Si  Si5  1  0.23360236  0.97207729  0.10100573  1
  Si  Si6  1  0.97207729  0.23360236  0.60100573  1
  Si  Si7  1  0.02792271  0.76639764  0.39899427  1
  Se  Se0  1  0.74421650  0.17680130  0.03887029  1
  Se  Se1  1  0.25578350  0.82319870  0.96112971  1
  Se  Se2  1  0.82319870  0.25578350  0.46112971  1
  Se  Se3  1  0.17680130  0.74421650  0.53887029  1
  Se  Se4  1  0.61458950  0.04507892  0.76321150  1
  Se  Se5  1  0.38541050  0.95492108  0.23678850  1
  Se  Se6  1  0.95492108  0.38541050  0.73678850  1
  Se  Se7  1  0.04507892  0.61458950  0.26321150  1
  Se  Se8  1  0.61774144  0.38225856  0.75000000  1
  Se  Se9  1  0.38225856  0.61774144  0.25000000  1
  Se  Se10  1  0.49470314  0.74609178  0.52607854  1
  Se  Se11  1  0.50529686  0.25390822  0.47392146  1
  Se  Se12  1  0.25390822  0.50529686  0.97392146  1
  Se  Se13  1  0.74609178  0.49470314  0.02607854  1
  Se  Se14  1  0.74245487  0.85568979  0.04931785  1
  Se  Se15  1  0.25754513  0.14431021  0.95068215  1
  Se  Se16  1  0.14431021  0.25754513  0.45068215  1
  Se  Se17  1  0.85568979  0.74245487  0.54931785  1
  Se  Se18  1  0.95270865  0.04729135  0.75000000  1
  Se  Se19  1  0.04729135  0.95270865  0.25000000  1
loop_
_geom_bond_atom_site_label_1
_geom_bond_atom_site_label_2
_geom_bond_distance
_geom_bond_site_symmetry_2
Rb0 Se16 3.454820 1_555
Rb0 Se11 3.502198 1_555
Rb0 Se1 3.514318 1_545
Rb0 Se15 3.590754 1_555
Rb0 Se3 3.667846 1_545
Rb0 Se5 3.806429 1_545
Rb0 Se18 3.827837 1_455
Rb1 Se17 3.454820 1_555
Rb1 Se10 3.502198 1_555
Rb1 Se0 3.514318 1_565
Rb1 Se14 3.590754 1_555
Rb1 Se2 3.667846 1_565
Rb1 Se4 3.806429 1_565
Rb1 Se19 3.827837 1_655
Rb2 Se14 3.454820 1_556
Rb2 Se13 3.502198 1_556
Rb2 Se3 3.514318 1_655
Rb2 Se17 3.590754 1_555
Rb2 Se1 3.667846 1_655
Rb2 Se7 3.806429 1_656
Rb2 Se18 3.827837 1_565
Rb3 Se15 3.454820 1_554
Rb3 Se12 3.502198 1_554
Rb3 Se2 3.514318 1_455
Rb3 Se16 3.590754 1_555
Rb3 Se0 3.667846 1_455
Rb3 Se6 3.806429 1_454
Rb3 Se19 3.827837 1_545
Rb4 Se10 3.445448 1_555
Rb4 Se14 3.493084 1_556
Rb4 Se13 3.529290 1_556
Rb4 Se1 3.662075 1_555
Rb4 Se9 3.679876 1_556
Rb4 Se4 3.791114 1_565
Rb5 Se11 3.445448 1_555
Rb5 Se15 3.493084 1_554
Rb5 Se12 3.529290 1_554
Rb5 Se0 3.662075 1_555
Rb5 Se8 3.679876 1_554
Rb5 Se5 3.791114 1_545
Rb6 Se12 3.445448 1_555
Rb6 Se16 3.493084 1_555
Rb6 Se11 3.529290 1_555
Rb6 Se3 3.662075 1_555
Rb6 Se9 3.679876 1_555
Rb6 Se6 3.791114 1_455
Rb7 Se13 3.445448 1_555
Rb7 Se17 3.493084 1_555
Rb7 Se10 3.529290 1_555
Rb7 Se2 3.662075 1_555
Rb7 Se8 3.679876 1_555
Rb7 Se7 3.791114 1_655
Se0 Si2 2.302623 1_554
Se0 Si4 2.317201 1_554
Se1 Si3 2.302623 1_556
Se1 Si5 2.317201 1_556
Se2 Si0 2.302623 1_555
Se2 Si6 2.317201 1_555
Se3 Si1 2.302623 1_555
Se3 Si7 2.317201 1_555
Se4 Si0 2.290622 1_555
Se4 Si4 2.319306 1_555
Se5 Si1 2.290622 1_555
Se5 Si5 2.319306 1_555
Se6 Si2 2.290622 1_555
Se6 Si6 2.319306 1_555
Se7 Si3 2.290622 1_555
Se7 Si7 2.319306 1_555
Se8 Si2 2.309648 1_555
Se8 Si0 2.309648 1_555
Se9 Si1 2.309648 1_555
Se9 Si3 2.309648 1_555
Se10 Si1 2.182555 1_555
Se11 Si0 2.182555 1_555
Se12 Si3 2.182555 1_556
Se13 Si2 2.182555 1_554
Se14 Si4 2.178242 1_564
Se15 Si5 2.178242 1_546
Se16 Si6 2.178242 1_455
Se17 Si7 2.178242 1_655
Se18 Si6 2.300006 1_555
Se18 Si4 2.300006 1_555
Se19 Si5 2.300006 1_555
Se19 Si7 2.300006 1_555
