# generated using pymatgen
data_Tb3Mn3Ga2Ge
_symmetry_space_group_name_H-M   'P 1'
_cell_length_a   7.04321825
_cell_length_b   7.04321825
_cell_length_c   4.17051400
_cell_angle_alpha   90.00000000
_cell_angle_beta   90.00000000
_cell_angle_gamma   120.00000234
_symmetry_Int_Tables_number   1
_chemical_formula_structural   Tb3Mn3Ga2Ge
_chemical_formula_sum   'Tb3 Mn3 Ga2 Ge1'
_cell_volume   179.16884628
_cell_formula_units_Z   1
loop_
 _symmetry_equiv_pos_site_id
 _symmetry_equiv_pos_as_xyz
  1  'x, y, z'
loop_
 _atom_site_type_symbol
 _atom_site_label
 _atom_site_symmetry_multiplicity
 _atom_site_fract_x
 _atom_site_fract_y
 _atom_site_fract_z
 _atom_site_occupancy
  Tb  Tb0  1  0.24790200  0.33179100  0.50000000  1
  Tb  Tb1  1  0.08388900  0.75209800  0.50000000  1
  Tb  Tb2  1  0.66820900  0.91611100  0.50000000  1
  Mn  Mn0  1  0.89883400  0.32926700  0.00000000  1
  Mn  Mn1  1  0.43043300  0.10116600  0.00000000  1
  Mn  Mn2  1  0.67073300  0.56956700  0.00000000  1
  Ga  Ga0  1  0.33333300  0.66666700  0.00000000  1
  Ga  Ga1  1  0.66666700  0.33333300  0.50000000  1
  Ge  Ge0  1  0.00000000  0.00000000  0.00000000  1
loop_
_geom_bond_atom_site_label_1
_geom_bond_atom_site_label_2
_geom_bond_distance
_geom_bond_site_symmetry_2
Mn0 Mn1 2.857384 1_555
Mn0 Mn2 2.857385 1_555
Mn0 Tb0 3.217054 1_654
Mn0 Tb0 3.217054 1_655
Mn0 Tb2 3.275337 1_544
Mn0 Tb2 3.275337 1_545
Mn0 Tb1 3.321827 1_654
Mn0 Tb1 3.321827 1_655
Mn1 Mn2 2.857384 1_555
Mn1 Tb1 3.217054 1_544
Mn1 Tb1 3.217054 1_545
Mn1 Tb0 3.275337 1_555
Mn1 Tb0 3.275337 1_554
Mn1 Tb2 3.321827 1_544
Mn1 Tb2 3.321827 1_545
Mn2 Tb2 3.217054 1_555
Mn2 Tb2 3.217054 1_554
Mn2 Tb1 3.275337 1_655
Mn2 Tb1 3.275337 1_654
Mn2 Tb0 3.321827 1_555
Mn2 Tb0 3.321827 1_554
Ga0 Mn1 2.782097 1_565
Ga0 Mn0 2.782099 1_455
Ga0 Mn2 2.782104 1_555
Ga0 Tb1 2.975591 1_554
Ga0 Tb1 2.975591 1_555
Ga0 Tb2 2.975595 1_555
Ga0 Tb2 2.975595 1_554
Ga0 Tb0 2.975596 1_555
Ga0 Tb0 2.975596 1_554
Ga1 Mn0 2.658916 1_556
Ga1 Mn0 2.658916 1_555
Ga1 Mn1 2.658918 1_556
Ga1 Mn1 2.658918 1_555
Ga1 Mn2 2.658920 1_555
Ga1 Mn2 2.658920 1_556
Ga1 Tb2 2.944031 1_545
Ga1 Tb1 2.944034 1_655
Ga1 Tb0 2.944038 1_555
Ge0 Mn2 2.745608 1_445
Ge0 Mn1 2.745608 1_555
Ge0 Mn0 2.745608 1_455
Ge0 Tb0 2.962710 1_555
Ge0 Tb0 2.962710 1_554
Ge0 Tb2 2.962710 1_444
Ge0 Tb2 2.962710 1_445
Ge0 Tb1 2.962710 1_544
Ge0 Tb1 2.962710 1_545
