# generated using pymatgen
data_UB6H36(C2N)3
_symmetry_space_group_name_H-M   'P 1'
_cell_length_a   12.49021500
_cell_length_b   11.02759300
_cell_length_c   14.93827208
_cell_angle_alpha   90.00000000
_cell_angle_beta   95.75613887
_cell_angle_gamma   90.00000000
_symmetry_Int_Tables_number   1
_chemical_formula_structural   UB6H36(C2N)3
_chemical_formula_sum   'U4 B24 H144 C24 N12'
_cell_volume   2047.17825566
_cell_formula_units_Z   4
loop_
 _symmetry_equiv_pos_site_id
 _symmetry_equiv_pos_as_xyz
  1  'x, y, z'
loop_
 _atom_site_type_symbol
 _atom_site_label
 _atom_site_symmetry_multiplicity
 _atom_site_fract_x
 _atom_site_fract_y
 _atom_site_fract_z
 _atom_site_occupancy
  U  U0  1  0.80566800  0.05249700  0.20656400  1
  U  U1  1  0.19433200  0.55249700  0.29343600  1
  U  U2  1  0.19433200  0.94750300  0.79343600  1
  U  U3  1  0.80566800  0.44750300  0.70656400  1
  B  B0  1  0.73902900  0.84108700  0.10368500  1
  B  B1  1  0.26097100  0.34108700  0.39631500  1
  B  B2  1  0.26097100  0.15891300  0.89631500  1
  B  B3  1  0.73902900  0.65891300  0.60368500  1
  B  B4  1  0.78628800  0.02676100  0.01722900  1
  B  B5  1  0.21371200  0.52676100  0.48277100  1
  B  B6  1  0.21371200  0.97323900  0.98277100  1
  B  B7  1  0.78628800  0.47323900  0.51722900  1
  B  B8  1  0.69075800  0.01102500  0.35643200  1
  B  B9  1  0.30924200  0.51102500  0.14356800  1
  B  B10  1  0.30924200  0.98897500  0.64356800  1
  B  B11  1  0.69075800  0.48897500  0.85643200  1
  B  B12  1  0.60462800  0.15585700  0.23985700  1
  B  B13  1  0.39537200  0.65585700  0.26014300  1
  B  B14  1  0.39537200  0.84414300  0.76014300  1
  B  B15  1  0.60462800  0.34414300  0.73985700  1
  B  B16  1  0.88166400  0.26899600  0.18298900  1
  B  B17  1  0.11833600  0.76899600  0.31701100  1
  B  B18  1  0.11833600  0.73100400  0.81701100  1
  B  B19  1  0.88166400  0.23100400  0.68298900  1
  B  B20  1  0.02010500  0.45146500  0.21008400  1
  B  B21  1  0.97989500  0.95146500  0.28991600  1
  B  B22  1  0.97989500  0.54853500  0.78991600  1
  B  B23  1  0.02010500  0.04853500  0.71008400  1
  H  H0  1  0.84173000  0.85373000  0.89481200  1
  H  H1  1  0.15827000  0.35373000  0.60518800  1
  H  H2  1  0.15827000  0.14627000  0.10518800  1
  H  H3  1  0.84173000  0.64627000  0.39481200  1
  H  H4  1  0.91123400  0.82509000  0.00316200  1
  H  H5  1  0.08876600  0.32509000  0.49683800  1
  H  H6  1  0.08876600  0.17491000  0.99683800  1
  H  H7  1  0.91123400  0.67491000  0.50316200  1
  H  H8  1  0.80787900  0.72289500  0.95721400  1
  H  H9  1  0.19212100  0.22289500  0.54278600  1
  H  H10  1  0.19212100  0.27710500  0.04278600  1
  H  H11  1  0.80787900  0.77710500  0.45721400  1
  H  H12  1  0.62458800  0.78418700  0.93908500  1
  H  H13  1  0.37541200  0.28418700  0.56091500  1
  H  H14  1  0.37541200  0.21581300  0.06091500  1
  H  H15  1  0.62458800  0.71581300  0.43908500  1
  H  H16  1  0.58527500  0.93104900  0.97563300  1
  H  H17  1  0.41472500  0.43104900  0.52436700  1
  H  H18  1  0.41472500  0.06895100  0.02436700  1
  H  H19  1  0.58527500  0.56895100  0.47563300  1
  H  H20  1  0.65907000  0.91747000  0.87970300  1
  H  H21  1  0.34093000  0.41747000  0.62029700  1
  H  H22  1  0.34093000  0.08253000  0.12029700  1
  H  H23  1  0.65907000  0.58253000  0.37970300  1
  H  H24  1  0.67295900  0.90623600  0.13779000  1
  H  H25  1  0.32704100  0.40623600  0.36221000  1
  H  H26  1  0.32704100  0.09376400  0.86221000  1
  H  H27  1  0.67295900  0.59376400  0.63779000  1
  H  H28  1  0.82771100  0.85026300  0.14814300  1
  H  H29  1  0.17228900  0.35026400  0.35185700  1
  H  H30  1  0.17228900  0.14973700  0.85185700  1
  H  H31  1  0.82771100  0.64973700  0.64814300  1
  H  H32  1  0.71005200  0.73608100  0.10391700  1
  H  H33  1  0.28994800  0.23608100  0.39608300  1
  H  H34  1  0.28994800  0.26391900  0.89608300  1
  H  H35  1  0.71005200  0.76391900  0.60391700  1
  H  H36  1  0.87345300  0.02921000  0.06563400  1
  H  H37  1  0.12654700  0.52921000  0.43436600  1
  H  H38  1  0.12654700  0.97079000  0.93436600  1
  H  H39  1  0.87345300  0.47079000  0.56563400  1
  H  H40  1  0.71691800  0.08055800  0.05662100  1
  H  H41  1  0.28308200  0.58055800  0.44337900  1
  H  H42  1  0.28308200  0.91944200  0.94337900  1
  H  H43  1  0.71691800  0.41944200  0.55662100  1
  H  H44  1  0.79775300  0.07621400  0.94624400  1
  H  H45  1  0.20224700  0.57621400  0.55375600  1
  H  H46  1  0.20224700  0.92378600  0.05375600  1
  H  H47  1  0.79775300  0.42378600  0.44624400  1
  H  H48  1  0.58019100  0.14643500  0.47059100  1
  H  H49  1  0.41980900  0.64643500  0.02940900  1
  H  H50  1  0.41980900  0.85356500  0.52940900  1
  H  H51  1  0.58019100  0.35356500  0.97059100  1
  H  H52  1  0.65693400  0.24683100  0.40796700  1
  H  H53  1  0.34306600  0.74683100  0.09203300  1
  H  H54  1  0.34306600  0.75316900  0.59203300  1
  H  H55  1  0.65693400  0.25316900  0.90796700  1
  H  H56  1  0.51309700  0.24685900  0.38882300  1
  H  H57  1  0.48690300  0.74685900  0.11117700  1
  H  H58  1  0.48690300  0.75314100  0.61117700  1
  H  H59  1  0.51309700  0.25314100  0.88882300  1
  H  H60  1  0.41919300  0.08592300  0.31714700  1
  H  H61  1  0.58080700  0.58592400  0.18285300  1
  H  H62  1  0.58080700  0.91407600  0.68285300  1
  H  H63  1  0.41919300  0.41407700  0.81714700  1
  H  H64  1  0.48662500  0.95608700  0.27661300  1
  H  H65  1  0.51337500  0.45608700  0.22338700  1
  H  H66  1  0.51337500  0.04391300  0.72338700  1
  H  H67  1  0.48662500  0.54391300  0.77661300  1
  H  H68  1  0.48306600  0.97737500  0.39464500  1
  H  H69  1  0.51693400  0.47737500  0.10535500  1
  H  H70  1  0.51693400  0.02262500  0.60535500  1
  H  H71  1  0.48306600  0.52262500  0.89464500  1
  H  H72  1  0.77245100  0.07639400  0.35801700  1
  H  H73  1  0.22754900  0.57639400  0.14198300  1
  H  H74  1  0.22754900  0.92360600  0.64198300  1
  H  H75  1  0.77245100  0.42360600  0.85801700  1
  H  H76  1  0.69349600  0.93471700  0.29524900  1
  H  H77  1  0.30650400  0.43471700  0.20475100  1
  H  H78  1  0.30650400  0.06528300  0.70475100  1
  H  H79  1  0.69349600  0.56528300  0.79524900  1
  H  H80  1  0.69026100  0.96026100  0.42842600  1
  H  H81  1  0.30973900  0.46026100  0.07157400  1
  H  H82  1  0.30973900  0.03973900  0.57157400  1
  H  H83  1  0.69026100  0.53973900  0.92842600  1
  H  H84  1  0.61371300  0.07368200  0.18400400  1
  H  H85  1  0.38628700  0.57368200  0.31599600  1
  H  H86  1  0.38628700  0.92631800  0.81599600  1
  H  H87  1  0.61371300  0.42631800  0.68400400  1
  H  H88  1  0.68880000  0.21502300  0.24954700  1
  H  H89  1  0.31120000  0.71502300  0.25045300  1
  H  H90  1  0.31120000  0.78497700  0.75045300  1
  H  H91  1  0.68880000  0.28497700  0.74954700  1
  H  H92  1  0.53032700  0.22121100  0.21276500  1
  H  H93  1  0.46967300  0.72121100  0.28723500  1
  H  H94  1  0.46967300  0.77878900  0.78723500  1
  H  H95  1  0.53032700  0.27878900  0.71276500  1
  H  H96  1  0.74248200  0.45208100  0.16582200  1
  H  H97  1  0.25751800  0.95208100  0.33417800  1
  H  H98  1  0.25751800  0.54791900  0.83417800  1
  H  H99  1  0.74248200  0.04791900  0.66582200  1
  H  H100  1  0.82228200  0.47542000  0.27070700  1
  H  H101  1  0.17771800  0.97542000  0.22929300  1
  H  H102  1  0.17771800  0.52458000  0.72929300  1
  H  H103  1  0.82228200  0.02458000  0.77070700  1
  H  H104  1  0.83332400  0.57810700  0.17896000  1
  H  H105  1  0.16667600  0.07810700  0.32104000  1
  H  H106  1  0.16667600  0.42189300  0.82104000  1
  H  H107  1  0.83332400  0.92189300  0.67896000  1
  H  H108  1  0.91281700  0.51964700  0.05071700  1
  H  H109  1  0.08718300  0.01964700  0.44928300  1
  H  H110  1  0.08718300  0.48035300  0.94928300  1
  H  H111  1  0.91281700  0.98035300  0.55071700  1
  H  H112  1  0.96941000  0.37182000  0.03957300  1
  H  H113  1  0.03059000  0.87182000  0.46042700  1
  H  H114  1  0.03059000  0.62818000  0.96042700  1
  H  H115  1  0.96941000  0.12818000  0.53957300  1
  H  H116  1  0.82660400  0.39045000  0.03281600  1
  H  H117  1  0.17339600  0.89045000  0.46718400  1
  H  H118  1  0.17339600  0.60955000  0.96718400  1
  H  H119  1  0.82660400  0.10955000  0.53281600  1
  H  H120  1  0.79211900  0.24643700  0.14177500  1
  H  H121  1  0.20788100  0.74643700  0.35822500  1
  H  H122  1  0.20788100  0.75356300  0.85822500  1
  H  H123  1  0.79211900  0.25356300  0.64177500  1
  H  H124  1  0.94622800  0.19634500  0.15583100  1
  H  H125  1  0.05377200  0.69634500  0.34416900  1
  H  H126  1  0.05377200  0.80365500  0.84416900  1
  H  H127  1  0.94622800  0.30365500  0.65583100  1
  H  H128  1  0.87411100  0.24656700  0.26367900  1
  H  H129  1  0.12588900  0.74656700  0.23632100  1
  H  H130  1  0.12588900  0.75343300  0.73632100  1
  H  H131  1  0.87411100  0.25343300  0.76367900  1
  H  H132  1  0.09673300  0.38885900  0.19157100  1
  H  H133  1  0.90326700  0.88885900  0.30842900  1
  H  H134  1  0.90326700  0.61114100  0.80842900  1
  H  H135  1  0.09673300  0.11114100  0.69157100  1
  H  H136  1  0.03596300  0.55663500  0.18436200  1
  H  H137  1  0.96403700  0.05663500  0.31563800  1
  H  H138  1  0.96403700  0.44336500  0.81563800  1
  H  H139  1  0.03596300  0.94336500  0.68436200  1
  H  H140  1  0.02131200  0.45575400  0.29326900  1
  H  H141  1  0.97868800  0.95575400  0.20673100  1
  H  H142  1  0.97868800  0.54424600  0.70673100  1
  H  H143  1  0.02131200  0.04424600  0.79326900  1
  C  C0  1  0.83322300  0.81808800  0.96245600  1
  C  C1  1  0.16677700  0.31808800  0.53754400  1
  C  C2  1  0.16677700  0.18191200  0.03754400  1
  C  C3  1  0.83322300  0.68191200  0.46245600  1
  C  C4  1  0.64847700  0.87975700  0.94618900  1
  C  C5  1  0.35152300  0.37975700  0.55381100  1
  C  C6  1  0.35152300  0.12024300  0.05381100  1
  C  C7  1  0.64847700  0.62024300  0.44618900  1
  C  C8  1  0.58462200  0.18996800  0.40482400  1
  C  C9  1  0.41537800  0.68996800  0.09517600  1
  C  C10  1  0.41537800  0.81003200  0.59517600  1
  C  C11  1  0.58462200  0.31003200  0.90482400  1
  C  C12  1  0.48802000  0.02410600  0.33023800  1
  C  C13  1  0.51198000  0.52410600  0.16976200  1
  C  C14  1  0.51198000  0.97589400  0.66976200  1
  C  C15  1  0.48802000  0.47589400  0.83023800  1
  C  C16  1  0.82084600  0.48330200  0.19751100  1
  C  C17  1  0.17915400  0.98330200  0.30248900  1
  C  C18  1  0.17915400  0.51669800  0.80248900  1
  C  C19  1  0.82084600  0.01669800  0.69751100  1
  C  C20  1  0.90402900  0.42298200  0.06535800  1
  C  C21  1  0.09597100  0.92298200  0.43464200  1
  C  C22  1  0.09597100  0.57701800  0.93464200  1
  C  C23  1  0.90402900  0.07701800  0.56535800  1
  N  N0  1  0.75120900  0.88966400  0.00523300  1
  N  N1  1  0.24879100  0.38966400  0.49476700  1
  N  N2  1  0.24879100  0.11033600  0.99476700  1
  N  N3  1  0.75120900  0.61033600  0.50523300  1
  N  N4  1  0.58934900  0.09539700  0.33418100  1
  N  N5  1  0.41065100  0.59539700  0.16581900  1
  N  N6  1  0.41065100  0.90460300  0.66581900  1
  N  N7  1  0.58934900  0.40460300  0.83418100  1
  N  N8  1  0.90783300  0.40586200  0.16500400  1
  N  N9  1  0.09216700  0.90586200  0.33499600  1
  N  N10  1  0.09216700  0.59413800  0.83499600  1
  N  N11  1  0.90783300  0.09413800  0.66500400  1
loop_
_geom_bond_atom_site_label_1
_geom_bond_atom_site_label_2
_geom_bond_distance
_geom_bond_site_symmetry_2
B0 H32 1.213316 1_555
B0 H28 1.237194 1_555
B0 H24 1.241389 1_555
B0 N0 1.586805 1_555
B1 H33 1.213316 1_555
B1 H29 1.237195 1_555
B1 H25 1.241389 1_555
B1 N1 1.586805 1_555
B2 H34 1.213316 1_555
B2 H30 1.237194 1_555
B2 H26 1.241389 1_555
B2 N2 1.586805 1_555
B3 H35 1.213316 1_555
B3 H31 1.237194 1_555
B3 H27 1.241389 1_555
B3 N3 1.586805 1_555
B4 H44 1.213591 1_554
B4 H36 1.245376 1_555
B4 H40 1.245480 1_555
B4 N0 1.579248 1_545
B5 H45 1.213591 1_555
B5 H37 1.245376 1_555
B5 H41 1.245480 1_555
B5 N1 1.579248 1_555
B6 H46 1.213591 1_556
B6 H38 1.245376 1_555
B6 H42 1.245480 1_555
B6 N2 1.579248 1_565
B7 H47 1.213591 1_555
B7 H39 1.245376 1_555
B7 H43 1.245480 1_555
B7 N3 1.579248 1_555
B8 H80 1.213007 1_545
B8 H76 1.245347 1_545
B8 H72 1.247597 1_555
B8 N4 1.579887 1_555
B9 H81 1.213007 1_555
B9 H77 1.245347 1_555
B9 H73 1.247597 1_555
B9 N5 1.579887 1_555
B10 H82 1.213007 1_565
B10 H78 1.245347 1_565
B10 H74 1.247597 1_555
B10 N6 1.579887 1_555
B11 H83 1.213007 1_555
B11 H79 1.245347 1_555
B11 H75 1.247597 1_555
B11 N7 1.579887 1_555
B12 H92 1.212066 1_555
B12 H88 1.233457 1_555
B12 H84 1.244664 1_555
B12 N4 1.587536 1_555
B13 H93 1.212066 1_555
B13 H89 1.233457 1_555
B13 H85 1.244664 1_555
B13 N5 1.587536 1_555
B14 H94 1.212066 1_555
B14 H90 1.233457 1_555
B14 H86 1.244664 1_555
B14 N6 1.587536 1_555
B15 H95 1.212066 1_555
B15 H91 1.233457 1_555
B15 H87 1.244664 1_555
B15 N7 1.587536 1_555
B16 H124 1.233851 1_555
B16 H128 1.243302 1_555
B16 H120 1.246479 1_555
B16 N8 1.573094 1_555
B17 H125 1.233851 1_555
B17 H129 1.243302 1_555
B17 H121 1.246479 1_555
B17 N9 1.573094 1_555
B18 H126 1.233851 1_555
B18 H130 1.243302 1_555
B18 H122 1.246479 1_555
B18 N10 1.573094 1_555
B19 H127 1.233851 1_555
B19 H131 1.243302 1_555
B19 H123 1.246479 1_555
B19 N11 1.573094 1_555
B20 H132 1.233798 1_555
B20 H140 1.242120 1_555
B20 H136 1.243869 1_555
B20 N8 1.575886 1_455
B21 H133 1.233798 1_555
B21 H141 1.242120 1_555
B21 H137 1.243869 1_565
B21 N9 1.575886 1_655
B22 H134 1.233798 1_555
B22 H142 1.242120 1_555
B22 H138 1.243869 1_555
B22 N10 1.575886 1_655
B23 H135 1.233798 1_555
B23 H143 1.242120 1_555
B23 H139 1.243869 1_545
B23 N11 1.575886 1_455
H24 U0 2.462291 1_565
H25 U1 2.462291 1_555
H26 U2 2.462291 1_545
H27 U3 2.462291 1_555
H28 U0 2.420580 1_565
H29 U1 2.420570 1_555
H30 U2 2.420580 1_545
H31 U3 2.420580 1_555
H36 U0 2.360588 1_555
H37 U1 2.360588 1_555
H38 U2 2.360588 1_555
H39 U3 2.360588 1_555
H40 U0 2.417353 1_555
H41 U1 2.417353 1_555
H42 U2 2.417353 1_555
H43 U3 2.417353 1_555
H72 U0 2.355531 1_555
H73 U1 2.355531 1_555
H74 U2 2.355531 1_555
H75 U3 2.355531 1_555
H76 U0 2.403606 1_565
H77 U1 2.403606 1_555
H78 U2 2.403606 1_545
H79 U3 2.403606 1_555
H84 U0 2.398826 1_555
H85 U1 2.398826 1_555
H86 U2 2.398826 1_555
H87 U3 2.398826 1_555
H88 U0 2.437881 1_555
H89 U1 2.437881 1_555
H90 U2 2.437881 1_555
H91 U3 2.437881 1_555
H120 U0 2.346592 1_555
H121 U1 2.346592 1_555
H122 U2 2.346592 1_555
H123 U3 2.346592 1_555
H124 U0 2.537677 1_555
H125 U1 2.537677 1_555
H126 U2 2.537677 1_555
H127 U3 2.537677 1_555
H128 U0 2.427463 1_555
H129 U1 2.427463 1_555
H130 U2 2.427463 1_555
H131 U3 2.427463 1_555
H132 U1 2.585696 1_555
H133 U0 2.585696 1_565
H134 U3 2.585696 1_555
H135 U2 2.585696 1_545
H136 U1 2.433759 1_555
H137 U0 2.433759 1_555
H138 U3 2.433759 1_555
H139 U2 2.433759 1_555
H140 U1 2.409823 1_555
H141 U0 2.409823 1_565
H142 U3 2.409823 1_555
H143 U2 2.409823 1_545
C0 H8 1.096968 1_555
C0 H4 1.098306 1_556
C0 H0 1.099268 1_555
C0 N0 1.487277 1_556
C1 H9 1.096968 1_555
C1 H5 1.098306 1_555
C1 H1 1.099268 1_555
C1 N1 1.487277 1_555
C2 H10 1.096968 1_555
C2 H6 1.098306 1_554
C2 H2 1.099268 1_555
C2 N2 1.487277 1_554
C3 H11 1.096968 1_555
C3 H7 1.098306 1_555
C3 H3 1.099268 1_555
C3 N3 1.487277 1_555
C4 H20 1.096924 1_555
C4 H12 1.097570 1_555
C4 H16 1.098274 1_555
C4 N0 1.486381 1_556
C5 H21 1.096924 1_555
C5 H13 1.097570 1_555
C5 H17 1.098274 1_555
C5 N1 1.486381 1_555
C6 H22 1.096924 1_555
C6 H14 1.097570 1_555
C6 H18 1.098274 1_555
C6 N2 1.486381 1_554
C7 H23 1.096924 1_555
C7 H15 1.097570 1_555
C7 H19 1.098274 1_555
C7 N3 1.486381 1_555
C8 H52 1.096659 1_555
C8 H56 1.098176 1_555
C8 H48 1.099832 1_555
C8 N4 1.489036 1_555
C9 H53 1.096659 1_555
C9 H57 1.098176 1_555
C9 H49 1.099832 1_555
C9 N5 1.489036 1_555
C10 H54 1.096659 1_555
C10 H58 1.098176 1_555
C10 H50 1.099832 1_555
C10 N6 1.489036 1_555
C11 H55 1.096659 1_555
C11 H59 1.098176 1_555
C11 H51 1.099832 1_555
C11 N7 1.489036 1_555
C12 H64 1.096283 1_545
C12 H68 1.098649 1_545
C12 H60 1.099203 1_555
C12 N4 1.486060 1_555
C13 H65 1.096283 1_555
C13 H69 1.098649 1_555
C13 H61 1.099210 1_555
C13 N5 1.486060 1_555
C14 H66 1.096283 1_565
C14 H70 1.098649 1_565
C14 H62 1.099210 1_555
C14 N6 1.486060 1_555
C15 H67 1.096283 1_555
C15 H71 1.098649 1_555
C15 H63 1.099203 1_555
C15 N7 1.486060 1_555
C16 H100 1.095223 1_555
C16 H104 1.096703 1_555
C16 H96 1.098955 1_555
C16 N8 1.500455 1_555
C17 H101 1.095223 1_555
C17 H105 1.096703 1_565
C17 H97 1.098955 1_555
C17 N9 1.500455 1_555
C18 H102 1.095223 1_555
C18 H106 1.096703 1_555
C18 H98 1.098955 1_555
C18 N10 1.500455 1_555
C19 H103 1.095223 1_555
C19 H107 1.096703 1_545
C19 H99 1.098955 1_555
C19 N11 1.500455 1_555
C20 H112 1.093914 1_555
C20 H108 1.095909 1_555
C20 H116 1.098140 1_555
C20 N8 1.496483 1_555
C21 H113 1.093914 1_555
C21 H109 1.095909 1_565
C21 H117 1.098140 1_555
C21 N9 1.496483 1_555
C22 H114 1.093914 1_555
C22 H110 1.095909 1_555
C22 H118 1.098140 1_555
C22 N10 1.496483 1_555
C23 H115 1.093914 1_555
C23 H111 1.095909 1_545
C23 H119 1.098140 1_555
C23 N11 1.496483 1_555
