# generated using pymatgen
data_Li4MgNi3O8
_symmetry_space_group_name_H-M   'P 1'
_cell_length_a   5.78520780
_cell_length_b   10.06277880
_cell_length_c   5.85474120
_cell_angle_alpha   107.18646872
_cell_angle_beta   119.65201731
_cell_angle_gamma   90.01707059
_symmetry_Int_Tables_number   1
_chemical_formula_structural   Li4MgNi3O8
_chemical_formula_sum   'Li8 Mg2 Ni6 O16'
_cell_volume   278.53651893
_cell_formula_units_Z   2
loop_
 _symmetry_equiv_pos_site_id
 _symmetry_equiv_pos_as_xyz
  1  'x, y, z'
loop_
 _atom_site_type_symbol
 _atom_site_label
 _atom_site_symmetry_multiplicity
 _atom_site_fract_x
 _atom_site_fract_y
 _atom_site_fract_z
 _atom_site_occupancy
  Li  Li0  1  0.50001800  0.99999300  0.50001400  1
  Li  Li1  1  0.99998500  0.50000300  0.49999700  1
  Li  Li2  1  0.00000200  0.99999500  0.50001000  1
  Li  Li3  1  0.49997900  0.50000700  0.49999100  1
  Li  Li4  1  0.24367400  0.74585400  0.50096700  1
  Li  Li5  1  0.75632800  0.25414500  0.49906000  1
  Li  Li6  1  0.74188900  0.75480100  0.49835600  1
  Li  Li7  1  0.25811300  0.24517100  0.50165200  1
  Mg  Mg0  1  0.74790300  0.74995000  0.99960200  1
  Mg  Mg1  1  0.25210700  0.25004800  0.00041300  1
  Ni  Ni0  1  0.24571200  0.74997600  0.99971700  1
  Ni  Ni1  1  0.75422200  0.24998700  0.00025100  1
  Ni  Ni2  1  0.99995600  0.50003000  0.99995800  1
  Ni  Ni3  1  0.50001700  0.50003900  0.00001700  1
  Ni  Ni4  1  0.00007100  0.00006100  0.00005300  1
  Ni  Ni5  1  0.50001700  0.99998800  0.00001400  1
  O  O0  1  0.10453000  0.88282500  0.75639000  1
  O  O1  1  0.65179000  0.38270900  0.75658200  1
  O  O2  1  0.89551200  0.11714200  0.24359300  1
  O  O3  1  0.34818000  0.61730700  0.24341000  1
  O  O4  1  0.35514700  0.11154600  0.21852500  1
  O  O5  1  0.86322100  0.61164600  0.21815400  1
  O  O6  1  0.64487300  0.88843300  0.78146200  1
  O  O7  1  0.13673600  0.38835900  0.78183600  1
  O  O8  1  0.90189200  0.62210700  0.78421800  1
  O  O9  1  0.40820400  0.12611300  0.78434600  1
  O  O10  1  0.09809900  0.37790800  0.21577400  1
  O  O11  1  0.59182200  0.87388600  0.21567100  1
  O  O12  1  0.11760500  0.87769700  0.21538400  1
  O  O13  1  0.62434300  0.37387800  0.21606200  1
  O  O14  1  0.88242300  0.12227800  0.78460100  1
  O  O15  1  0.37563300  0.62611800  0.78391700  1
loop_
_geom_bond_atom_site_label_1
_geom_bond_atom_site_label_2
_geom_bond_distance
_geom_bond_site_symmetry_2
Li0 O11 2.071379 1_555
Li0 O9 2.071417 1_565
Li0 O14 2.079445 1_565
Li0 O12 2.079541 1_555
Li0 O6 2.098853 1_555
Li0 O4 2.098979 1_565
Li1 O15 2.067317 1_655
Li1 O13 2.067341 1_555
Li1 O8 2.080212 1_555
Li1 O10 2.080270 1_655
Li1 O7 2.101240 1_655
Li1 O5 2.101250 1_555
Li2 O2 2.038905 1_465
Li2 O0 2.038910 1_555
Li2 O14 2.159488 1_465
Li2 O12 2.159792 1_555
Li2 O11 2.195002 1_455
Li2 O9 2.195122 1_565
Li3 O3 2.040660 1_555
Li3 O1 2.040689 1_555
Li3 O10 2.155469 1_555
Li3 O8 2.155610 1_555
Li3 O15 2.197341 1_555
Li3 O13 2.197492 1_555
Li4 O3 2.015551 1_555
Li4 O5 2.116757 1_455
Li4 O15 2.169705 1_555
Li4 O0 2.181224 1_555
Li4 O6 2.230841 1_555
Li4 O12 2.278728 1_555
Li5 O1 2.015602 1_555
Li5 O7 2.116594 1_655
Li5 O13 2.169889 1_555
Li5 O2 2.181702 1_555
Li5 O4 2.230863 1_555
Li5 O14 2.278731 1_555
Li6 O0 2.013842 1_655
Li6 O6 2.115267 1_555
Li6 O11 2.163293 1_555
Li6 O3 2.178037 1_555
Li6 O5 2.236636 1_555
Li6 O8 2.286787 1_555
Li7 O2 2.013715 1_455
Li7 O4 2.115396 1_555
Li7 O9 2.163123 1_555
Li7 O1 2.178099 1_555
Li7 O7 2.236881 1_555
Li7 O10 2.287202 1_555
Mg0 O15 2.040384 1_555
Mg0 O11 2.041948 1_556
Mg0 O12 2.046474 1_656
Mg0 O8 2.047512 1_555
Mg0 O6 2.056050 1_555
Mg0 O5 2.056099 1_556
Mg1 O13 2.040245 1_555
Mg1 O9 2.042006 1_554
Mg1 O14 2.046485 1_454
Mg1 O10 2.047583 1_555
Mg1 O4 2.056102 1_555
Mg1 O7 2.056262 1_554
Ni0 O15 1.929828 1_555
Ni0 O11 1.929890 1_556
Ni0 O8 1.939030 1_455
Ni0 O12 1.939819 1_556
Ni0 O0 2.111531 1_555
Ni0 O3 2.111533 1_556
Ni1 O9 1.929360 1_554
Ni1 O13 1.929847 1_555
Ni1 O10 1.939502 1_655
Ni1 O14 1.940082 1_554
Ni1 O2 2.111590 1_555
Ni1 O1 2.111886 1_554
Ni2 O8 1.906482 1_555
Ni2 O10 1.907163 1_656
Ni2 O1 1.909399 1_555
Ni2 O3 1.909472 1_656
Ni2 O5 1.916167 1_556
Ni2 O7 1.916274 1_655
Ni3 O15 1.943318 1_554
Ni3 O13 1.943787 1_555
Ni3 O5 1.950172 1_555
Ni3 O7 1.950776 1_554
Ni3 O3 2.107167 1_555
Ni3 O1 2.107290 1_554
Ni4 O14 1.906493 1_454
Ni4 O12 1.907239 1_545
Ni4 O2 1.910006 1_455
Ni4 O0 1.910747 1_544
Ni4 O4 1.914452 1_555
Ni4 O6 1.915510 1_444
Ni5 O11 1.941697 1_555
Ni5 O9 1.941936 1_564
Ni5 O4 1.952444 1_565
Ni5 O6 1.952539 1_554
Ni5 O0 2.105907 1_554
Ni5 O2 2.105916 1_565
