# generated using pymatgen
data_TiIr
_symmetry_space_group_name_H-M   'P 1'
_cell_length_a   3.48078158
_cell_length_b   4.14040059
_cell_length_c   4.14040059
_cell_angle_alpha   90.00000000
_cell_angle_beta   90.00000000
_cell_angle_gamma   90.00000000
_symmetry_Int_Tables_number   1
_chemical_formula_structural   TiIr
_chemical_formula_sum   'Ti2 Ir2'
_cell_volume   59.67074988
_cell_formula_units_Z   2
loop_
 _symmetry_equiv_pos_site_id
 _symmetry_equiv_pos_as_xyz
  1  'x, y, z'
loop_
 _atom_site_type_symbol
 _atom_site_label
 _atom_site_symmetry_multiplicity
 _atom_site_fract_x
 _atom_site_fract_y
 _atom_site_fract_z
 _atom_site_occupancy
  Ti  Ti0  1  0.50000000  0.50000000  0.00000000  1
  Ti  Ti1  1  0.50000000  0.00000000  0.50000000  1
  Ir  Ir0  1  0.00000000  0.50000000  0.50000000  1
  Ir  Ir1  1  0.00000000  0.00000000  -0.00000000  1
loop_
_geom_bond_atom_site_label_1
_geom_bond_atom_site_label_2
_geom_bond_distance
_geom_bond_site_symmetry_2
Ti0 Ti1 2.927705 1_565
Ti0 Ti1 2.927705 1_554
Ti0 Ti1 2.927705 1_564
Ti0 Ti1 2.927705 1_555
Ir0 Ti0 2.704568 1_455
Ir0 Ti0 2.704568 1_456
Ir0 Ti1 2.704568 1_565
Ir0 Ti1 2.704568 1_465
Ir0 Ti0 2.704568 1_556
Ir0 Ti0 2.704568 1_555
Ir0 Ti1 2.704568 1_455
Ir0 Ti1 2.704568 1_555
Ir0 Ir1 2.927705 1_556
Ir0 Ir1 2.927705 1_565
Ir0 Ir1 2.927705 1_566
Ir0 Ir1 2.927705 1_555
Ir1 Ti0 2.704568 1_455
Ir1 Ti1 2.704568 1_554
Ir1 Ti0 2.704568 1_555
Ir1 Ti0 2.704568 1_545
Ir1 Ti1 2.704568 1_455
Ir1 Ti0 2.704568 1_445
Ir1 Ti1 2.704568 1_555
Ir1 Ti1 2.704568 1_454
