# generated using pymatgen
data_H12OsC4NO4F
_symmetry_space_group_name_H-M   'P 1'
_cell_length_a   8.45215346
_cell_length_b   8.45215346
_cell_length_c   7.57164500
_cell_angle_alpha   90.00000000
_cell_angle_beta   90.00000000
_cell_angle_gamma   93.06055184
_symmetry_Int_Tables_number   1
_chemical_formula_structural   H12OsC4NO4F
_chemical_formula_sum   'H24 Os2 C8 N2 O8 F2'
_cell_volume   540.13845783
_cell_formula_units_Z   2
loop_
 _symmetry_equiv_pos_site_id
 _symmetry_equiv_pos_as_xyz
  1  'x, y, z'
loop_
 _atom_site_type_symbol
 _atom_site_label
 _atom_site_symmetry_multiplicity
 _atom_site_fract_x
 _atom_site_fract_y
 _atom_site_fract_z
 _atom_site_occupancy
  H  H0  1  0.00903100  0.09325800  0.31187200  1
  H  H1  1  0.09325800  0.00903100  0.68812800  1
  H  H2  1  0.50903100  0.59325800  0.68812800  1
  H  H3  1  0.59325800  0.50903100  0.31187200  1
  H  H4  1  0.92674400  0.17509100  0.50941000  1
  H  H5  1  0.17509100  0.92674400  0.49059000  1
  H  H6  1  0.42674400  0.67509100  0.49059000  1
  H  H7  1  0.67509100  0.42674400  0.50941000  1
  H  H8  1  0.79862200  0.08222400  0.34458100  1
  H  H9  1  0.08222400  0.79862200  0.65541900  1
  H  H10  1  0.29862200  0.58222400  0.65541900  1
  H  H11  1  0.58222400  0.29862200  0.34458100  1
  H  H12  1  0.00239100  0.80575300  0.27084400  1
  H  H13  1  0.80575300  0.00239100  0.72915600  1
  H  H14  1  0.50239100  0.30575300  0.72915600  1
  H  H15  1  0.30575300  0.50239100  0.27084400  1
  H  H16  1  0.79206300  0.79983100  0.30022500  1
  H  H17  1  0.79983100  0.79206300  0.69977500  1
  H  H18  1  0.29206300  0.29983100  0.69977500  1
  H  H19  1  0.29983100  0.29206300  0.30022500  1
  H  H20  1  0.91299800  0.67864100  0.43771700  1
  H  H21  1  0.67864100  0.91299800  0.56228300  1
  H  H22  1  0.41299800  0.17864100  0.56228300  1
  H  H23  1  0.17864100  0.41299800  0.43771700  1
  Os  Os0  1  0.94802900  0.44802900  0.94219200  1
  Os  Os1  1  0.44802900  0.94802900  0.05780800  1
  C  C0  1  0.91408100  0.08067700  0.41000100  1
  C  C1  1  0.08067700  0.91408100  0.58999900  1
  C  C2  1  0.41408100  0.58067700  0.58999900  1
  C  C3  1  0.58067700  0.41408100  0.41000100  1
  C  C4  1  0.90601400  0.79139400  0.36732100  1
  C  C5  1  0.79139400  0.90601400  0.63267900  1
  C  C6  1  0.40601400  0.29139400  0.63267900  1
  C  C7  1  0.29139400  0.40601400  0.36732100  1
  N  N0  1  0.92344700  0.92344700  0.50000000  1
  N  N1  1  0.42344700  0.42344700  0.50000000  1
  O  O0  1  0.96019600  0.46019600  0.17232100  1
  O  O1  1  0.46019600  0.96019600  0.82767900  1
  O  O2  1  0.79945900  0.29945900  0.91721100  1
  O  O3  1  0.29945900  0.79945900  0.08278900  1
  O  O4  1  0.89413600  0.64050700  0.89916300  1
  O  O5  1  0.64050700  0.89413600  0.10083700  1
  O  O6  1  0.39413600  0.14050700  0.10083700  1
  O  O7  1  0.14050700  0.39413600  0.89916300  1
  F  F0  1  0.94374400  0.44374400  0.65915400  1
  F  F1  1  0.44374400  0.94374400  0.34084600  1
loop_
_geom_bond_atom_site_label_1
_geom_bond_atom_site_label_2
_geom_bond_distance
_geom_bond_site_symmetry_2
C0 H0 1.094668 1_655
C0 H8 1.095093 1_555
C0 H4 1.098036 1_555
C0 N0 1.499307 1_545
C1 H1 1.094668 1_565
C1 H9 1.095093 1_555
C1 H5 1.098036 1_555
C1 N0 1.499307 1_455
C2 H2 1.094668 1_555
C2 H10 1.095093 1_555
C2 H6 1.098036 1_555
C2 N1 1.499307 1_555
C3 H3 1.094668 1_555
C3 H11 1.095093 1_555
C3 H7 1.098036 1_555
C3 N1 1.499307 1_555
C4 H16 1.094593 1_555
C4 H12 1.096061 1_655
C4 H20 1.096273 1_555
C4 N0 1.503036 1_555
C5 H17 1.094593 1_555
C5 H13 1.096061 1_565
C5 H21 1.096273 1_555
C5 N0 1.503036 1_555
C6 H18 1.094593 1_555
C6 H14 1.096061 1_555
C6 H22 1.096273 1_555
C6 N1 1.503036 1_555
C7 H19 1.094593 1_555
C7 H15 1.096061 1_555
C7 H23 1.096273 1_555
C7 N1 1.503036 1_555
O0 Os0 1.748191 1_554
O1 Os1 1.748191 1_556
O2 Os0 1.738143 1_555
O3 Os1 1.738143 1_555
O4 Os0 1.743394 1_555
O5 Os1 1.743394 1_555
O6 Os1 1.743394 1_545
O7 Os0 1.743394 1_455
F0 Os0 2.143643 1_555
F1 Os1 2.143643 1_555
