# generated using pymatgen
data_Ba14U2V4S25O
_symmetry_space_group_name_H-M   'P 1'
_cell_length_a   12.51800117
_cell_length_b   12.51800117
_cell_length_c   12.51800117
_cell_angle_alpha   98.54249553
_cell_angle_beta   98.54249553
_cell_angle_gamma   134.66127910
_symmetry_Int_Tables_number   1
_chemical_formula_structural   Ba14U2V4S25O
_chemical_formula_sum   'Ba14 U2 V4 S25 O1'
_cell_volume   1287.43019142
_cell_formula_units_Z   1
loop_
 _symmetry_equiv_pos_site_id
 _symmetry_equiv_pos_as_xyz
  1  'x, y, z'
loop_
 _atom_site_type_symbol
 _atom_site_label
 _atom_site_symmetry_multiplicity
 _atom_site_fract_x
 _atom_site_fract_y
 _atom_site_fract_z
 _atom_site_occupancy
  Ba  Ba0  1  0.00000000  0.21478200  0.21478200  1
  Ba  Ba1  1  0.00000000  0.78521700  0.78521800  1
  Ba  Ba2  1  0.50000000  0.71052700  0.21052700  1
  Ba  Ba3  1  0.50000000  0.28947300  0.78947300  1
  Ba  Ba4  1  0.21478200  0.00000000  0.21478200  1
  Ba  Ba5  1  0.78521800  0.00000000  0.78521800  1
  Ba  Ba6  1  0.71052700  0.50000000  0.21052700  1
  Ba  Ba7  1  0.28947300  0.50000000  0.78947300  1
  Ba  Ba8  1  0.50000000  0.00000000  0.50000000  1
  Ba  Ba9  1  0.00000000  0.50000000  0.50000000  1
  Ba  Ba10  1  0.46306800  0.96306800  0.92613600  1
  Ba  Ba11  1  0.03693200  0.53693200  0.07386400  1
  Ba  Ba12  1  0.53693200  0.46306800  0.50000000  1
  Ba  Ba13  1  0.96306800  0.03693200  0.50000000  1
  U  U0  1  0.22496700  0.22496700  0.00000000  1
  U  U1  1  0.77503300  0.77503300  0.00000000  1
  V  V0  1  0.87492600  0.37492600  0.74985200  1
  V  V1  1  0.62507400  0.12507400  0.25014800  1
  V  V2  1  0.12507400  0.87492600  0.50000000  1
  V  V3  1  0.37492600  0.62507400  0.50000000  1
  S  S0  1  0.72693600  0.22749100  0.84885800  1
  S  S1  1  0.37863300  0.87807800  0.15114200  1
  S  S2  1  0.87807800  0.72693600  0.49944500  1
  S  S3  1  0.22749100  0.37863300  0.50055500  1
  S  S4  1  0.77250900  0.27306400  0.15114200  1
  S  S5  1  0.12192200  0.62136700  0.84885800  1
  S  S6  1  0.62136700  0.77250900  0.49944500  1
  S  S7  1  0.27306400  0.12192200  0.50055500  1
  S  S8  1  0.59967600  0.26475400  0.35694700  1
  S  S9  1  0.90780800  0.24272900  0.64305300  1
  S  S10  1  0.40032400  0.75727100  0.66507900  1
  S  S11  1  0.09219200  0.73524600  0.33492100  1
  S  S12  1  0.26475400  0.90780800  0.66507900  1
  S  S13  1  0.24272900  0.59967600  0.33492100  1
  S  S14  1  0.75727100  0.09219200  0.35694700  1
  S  S15  1  0.73524600  0.40032400  0.64305300  1
  S  S16  1  0.36092800  0.35263400  0.22601100  1
  S  S17  1  0.12662300  0.13491700  0.77398900  1
  S  S18  1  0.63907200  0.86508300  0.99170600  1
  S  S19  1  0.87337700  0.64736600  0.00829400  1
  S  S20  1  0.35263400  0.12662300  0.99170600  1
  S  S21  1  0.13491700  0.36092800  0.00829400  1
  S  S22  1  0.86508300  0.87337700  0.22601100  1
  S  S23  1  0.64736600  0.63907200  0.77398900  1
  S  S24  1  0.50000000  0.50000000  0.00000000  1
  O  O0  1  0.00000000  0.00000000  0.00000000  1
loop_
_geom_bond_atom_site_label_1
_geom_bond_atom_site_label_2
_geom_bond_distance
_geom_bond_site_symmetry_2
Ba0 S13 3.258382 1_555
Ba0 S14 3.258382 1_455
Ba0 S21 3.352412 1_555
Ba0 S22 3.352412 1_445
Ba0 S3 3.419940 1_555
Ba0 S4 3.419940 1_455
Ba0 S18 3.491330 1_444
Ba0 S16 3.491330 1_555
Ba0 O0 3.508563 1_555
Ba1 S12 3.258370 1_555
Ba1 S15 3.258375 1_455
Ba1 S20 3.352414 1_565
Ba1 S23 3.352416 1_455
Ba1 S5 3.419928 1_555
Ba1 S2 3.419943 1_455
Ba1 S19 3.491327 1_456
Ba1 S17 3.491342 1_565
Ba1 O0 3.508571 1_566
Ba2 S13 3.251355 1_555
Ba2 S14 3.251355 1_565
Ba2 S21 3.406073 1_555
Ba2 S22 3.406073 1_555
Ba2 S24 3.439055 1_555
Ba2 S6 3.444894 1_555
Ba2 S1 3.444894 1_555
Ba2 S18 3.540229 1_554
Ba2 S16 3.540229 1_555
Ba3 S12 3.251352 1_545
Ba3 S15 3.251363 1_555
Ba3 S23 3.406073 1_555
Ba3 S20 3.406073 1_555
Ba3 S24 3.439055 1_556
Ba3 S7 3.444894 1_555
Ba3 S0 3.444894 1_555
Ba3 S17 3.540229 1_555
Ba3 S19 3.540229 1_556
Ba4 S11 3.258372 1_545
Ba4 S8 3.258383 1_555
Ba4 S16 3.352412 1_555
Ba4 S19 3.352412 1_445
Ba4 S7 3.419940 1_555
Ba4 S1 3.419940 1_545
Ba4 S22 3.491330 1_445
Ba4 S20 3.491330 1_554
Ba4 O0 3.508563 1_555
Ba5 S9 3.258382 1_555
Ba5 S10 3.258382 1_545
Ba5 S17 3.352412 1_655
Ba5 S18 3.352412 1_545
Ba5 S0 3.419940 1_555
Ba5 S6 3.419940 1_545
Ba5 S21 3.491330 1_656
Ba5 S23 3.491330 1_545
Ba5 O0 3.508563 1_656
Ba6 S11 3.251352 1_655
Ba6 S8 3.251363 1_555
Ba6 S19 3.406073 1_555
Ba6 S16 3.406073 1_555
Ba6 S24 3.439055 1_555
Ba6 S4 3.444894 1_555
Ba6 S2 3.444894 1_555
Ba6 S22 3.540229 1_555
Ba6 S20 3.540229 1_554
Ba7 S9 3.251355 1_455
Ba7 S10 3.251355 1_555
Ba7 S18 3.406073 1_555
Ba7 S17 3.406073 1_555
Ba7 S24 3.439055 1_556
Ba7 S3 3.444894 1_555
Ba7 S5 3.444894 1_555
Ba7 S23 3.540229 1_555
Ba7 S21 3.540229 1_556
Ba8 S15 3.465920 1_555
Ba8 S14 3.465923 1_555
Ba8 S13 3.465923 1_545
Ba8 S12 3.465932 1_545
Ba8 S8 3.515816 1_555
Ba8 S9 3.515825 1_555
Ba8 S10 3.515825 1_545
Ba8 S11 3.515827 1_545
Ba9 S8 3.465920 1_455
Ba9 S10 3.465923 1_555
Ba9 S9 3.465923 1_455
Ba9 S11 3.465932 1_555
Ba9 S15 3.515816 1_455
Ba9 S14 3.515825 1_455
Ba9 S13 3.515825 1_555
Ba9 S12 3.515827 1_555
Ba10 S5 3.054952 1_555
Ba10 S0 3.054952 1_565
Ba10 S4 3.221222 1_566
Ba10 S1 3.221222 1_556
Ba10 S20 3.254744 1_565
Ba10 S18 3.254744 1_555
Ba10 S10 3.438696 1_555
Ba10 S12 3.438701 1_555
Ba11 S1 3.054952 1_555
Ba11 S4 3.054952 1_455
Ba11 S0 3.221222 1_454
Ba11 S5 3.221222 1_554
Ba11 S21 3.254744 1_555
Ba11 S19 3.254744 1_455
Ba11 S13 3.438696 1_555
Ba11 S11 3.438701 1_555
Ba12 S7 3.054952 1_555
Ba12 S2 3.054952 1_555
Ba12 S3 3.221222 1_555
Ba12 S6 3.221222 1_555
Ba12 S23 3.254744 1_555
Ba12 S16 3.254744 1_555
Ba12 S8 3.438706 1_555
Ba12 S15 3.438706 1_555
Ba13 S3 3.054952 1_655
Ba13 S6 3.054952 1_545
Ba13 S2 3.221222 1_545
Ba13 S7 3.221222 1_655
Ba13 S17 3.254744 1_655
Ba13 S22 3.254744 1_545
Ba13 S14 3.438696 1_555
Ba13 S9 3.438696 1_555
S0 V0 2.220176 1_555
S1 V1 2.220176 1_565
S2 V2 2.220176 1_655
S3 V3 2.220176 1_555
S4 V1 2.220176 1_555
S5 V0 2.220176 1_455
S6 V3 2.220176 1_555
S7 V2 2.220176 1_545
S8 V1 2.271350 1_555
S9 V0 2.271360 1_555
S10 V3 2.271360 1_555
S11 V2 2.271353 1_555
S12 V2 2.271353 1_555
S13 V3 2.271360 1_555
S14 V1 2.271360 1_555
S15 V0 2.271350 1_555
S16 U0 2.618688 1_555
S17 U0 2.618688 1_556
S18 U1 2.618688 1_556
S19 U1 2.618688 1_555
S20 U0 2.618688 1_556
S21 U0 2.618688 1_555
S22 U1 2.618688 1_555
S23 U1 2.618688 1_556
S24 U0 2.653846 1_555
S24 U1 2.653846 1_555
O0 U0 2.170750 1_555
O0 U1 2.170750 1_445
