# generated using pymatgen
data_CsSm(PO3)4
_symmetry_space_group_name_H-M   'P 1'
_cell_length_a   13.25412485
_cell_length_b   13.25148118
_cell_length_c   13.25412485
_cell_angle_alpha   70.53220955
_cell_angle_beta   70.51585612
_cell_angle_gamma   109.46779045
_symmetry_Int_Tables_number   1
_chemical_formula_structural   CsSm(PO3)4
_chemical_formula_sum   'Cs6 Sm6 P24 O72'
_cell_volume   1791.89327307
_cell_formula_units_Z   6
loop_
 _symmetry_equiv_pos_site_id
 _symmetry_equiv_pos_as_xyz
  1  'x, y, z'
loop_
 _atom_site_type_symbol
 _atom_site_label
 _atom_site_symmetry_multiplicity
 _atom_site_fract_x
 _atom_site_fract_y
 _atom_site_fract_z
 _atom_site_occupancy
  Cs  Cs0  1  0.00061954  0.00142822  0.76190933  1
  Cs  Cs1  1  0.26264784  0.76185864  0.73657037  1
  Cs  Cs2  1  0.49902069  0.73653983  0.00146973  1
  Cs  Cs3  1  0.73809067  0.50142822  0.49938046  1
  Cs  Cs4  1  0.49853027  0.23653983  0.00097931  1
  Cs  Cs5  1  0.76342963  0.26185864  0.23735216  1
  Sm  Sm0  1  0.87910517  0.25199274  0.87224345  1
  Sm  Sm1  1  0.62775655  0.75199274  0.62089483  1
  Sm  Sm2  1  0.37381948  0.12525176  0.75093675  1
  Sm  Sm3  1  0.12519855  0.37283772  0.25197319  1
  Sm  Sm4  1  0.74906325  0.62525176  0.12618052  1
  Sm  Sm5  1  0.24802681  0.87283772  0.37480145  1
  P  P0  1  0.74132493  0.91446609  0.08006277  1
  P  P1  1  0.00673546  0.58507165  0.67217213  1
  P  P2  1  0.75911632  0.67962953  0.82607874  1
  P  P3  1  0.49259115  0.81889180  0.42103074  1
  P  P4  1  0.82782787  0.08507165  0.49326454  1
  P  P5  1  0.41993723  0.41446609  0.75867507  1
  P  P6  1  0.07896926  0.31889180  0.00740885  1
  P  P7  1  0.67392126  0.17962953  0.74088368  1
  P  P8  1  0.17295866  0.25939537  0.82005422  1
  P  P9  1  0.57996093  0.99434055  0.67863608  1
  P  P10  1  0.92210572  0.24213639  0.58473213  1
  P  P11  1  0.32612332  0.50587022  0.91447704  1
  P  P12  1  0.25802250  0.17299975  0.31998586  1
  P  P13  1  0.99432536  0.57955608  0.17968767  1
  P  P14  1  0.24061618  0.92063552  0.08649882  1
  P  P15  1  0.50550328  0.32695003  0.41447004  1
  P  P16  1  0.08552996  0.82695003  0.99449672  1
  P  P17  1  0.41350118  0.42063552  0.25938382  1
  P  P18  1  0.32031233  0.07955608  0.50567464  1
  P  P19  1  0.18001414  0.67299975  0.24197750  1
  P  P20  1  0.91526787  0.74213639  0.57789428  1
  P  P21  1  0.58552296  0.00587022  0.17387668  1
  P  P22  1  0.67994578  0.75939537  0.32704134  1
  P  P23  1  0.82136392  0.49434055  0.92003907  1
  O  O0  1  0.71810720  0.80506039  0.06174913  1
  O  O1  1  0.13266907  0.69642837  0.58763090  1
  O  O2  1  0.78211222  0.71977189  0.91300708  1
  O  O3  1  0.36683171  0.78217439  0.43758799  1
  O  O4  1  0.91236910  0.19642837  0.36733093  1
  O  O5  1  0.43825087  0.30506039  0.78189280  1
  O  O6  1  0.06241201  0.28217439  0.13316829  1
  O  O7  1  0.58699292  0.21977189  0.71788778  1
  O  O8  1  0.08492285  0.28017547  0.78174419  1
  O  O9  1  0.56174561  0.86692328  0.72039697  1
  O  O10  1  0.93564211  0.21596856  0.69660418  1
  O  O11  1  0.41321844  0.63299513  0.80483606  1
  O  O12  1  0.28404626  0.08727725  0.28022826  1
  O  O13  1  0.86720065  0.56230162  0.21965639  1
  O  O14  1  0.21972791  0.93810775  0.19522133  1
  O  O15  1  0.63315925  0.41289295  0.30505295  1
  O  O16  1  0.19494705  0.91289295  0.86684075  1
  O  O17  1  0.30477867  0.43810775  0.28027209  1
  O  O18  1  0.28034361  0.06230162  0.63279935  1
  O  O19  1  0.21977174  0.58727725  0.21595374  1
  O  O20  1  0.80339582  0.71596856  0.56435789  1
  O  O21  1  0.69516394  0.13299513  0.08678156  1
  O  O22  1  0.71825581  0.78017547  0.41507715  1
  O  O23  1  0.77960303  0.36692328  0.93825439  1
  O  O24  1  0.60922221  0.91216629  0.12762744  1
  O  O25  1  0.96011023  0.58820768  0.80281285  1
  O  O26  1  0.89094512  0.76307490  0.69688656  1
  O  O27  1  0.54080078  0.73780191  0.37111967  1
  O  O28  1  0.69718715  0.08820768  0.53988977  1
  O  O29  1  0.37237256  0.41216629  0.89077779  1
  O  O30  1  0.12888033  0.23780191  0.95919922  1
  O  O31  1  0.80311344  0.26307490  0.60905488  1
  O  O32  1  0.30295772  0.39074795  0.73729098  1
  O  O33  1  0.62777900  0.03995924  0.76308361  1
  O  O34  1  0.87183849  0.10893139  0.58817463  1
  O  O35  1  0.19704605  0.45972529  0.91185252  1
  O  O36  1  0.39124884  0.30277544  0.23748706  1
  O  O37  1  0.03999356  0.62787301  0.26305958  1
  O  O38  1  0.10917026  0.87179824  0.08783785  1
  O  O39  1  0.46017482  0.19700435  0.41220466  1
  O  O40  1  0.08779534  0.69700435  0.03982518  1
  O  O41  1  0.41216215  0.37179824  0.39082974  1
  O  O42  1  0.23694042  0.12787301  0.46000644  1
  O  O43  1  0.26251294  0.80277544  0.10875116  1
  O  O44  1  0.91182537  0.60893139  0.62816151  1
  O  O45  1  0.58814748  0.95972529  0.30295395  1
  O  O46  1  0.76270902  0.89074795  0.19704228  1
  O  O47  1  0.73691639  0.53995924  0.87222100  1
  O  O48  1  0.84180914  0.04129824  0.97420788  1
  O  O49  1  0.98158600  0.45711857  0.70130817  1
  O  O50  1  0.65752988  0.68321211  0.80094774  1
  O  O51  1  0.51621604  0.81666780  0.52524064  1
  O  O52  1  0.79869183  0.95711857  0.51841400  1
  O  O53  1  0.52579212  0.54129824  0.65819086  1
  O  O54  1  0.97475936  0.31666780  0.98378396  1
  O  O55  1  0.69905226  0.18321211  0.84247012  1
  O  O56  1  0.20018438  0.15856801  0.81595175  1
  O  O57  1  0.47447062  0.01617661  0.68348602  1
  O  O58  1  0.02473246  0.34206561  0.45715723  1
  O  O59  1  0.30113505  0.48438323  0.04119412  1
  O  O60  1  0.15815507  0.20076556  0.31723897  1
  O  O61  1  0.01570219  0.47435363  0.18313281  1
  O  O62  1  0.34167300  0.02512210  0.95821333  1
  O  O63  1  0.48433197  0.30027387  0.54151071  1
  O  O64  1  0.95848929  0.80027387  0.01566803  1
  O  O65  1  0.54178667  0.52512210  0.15832700  1
  O  O66  1  0.31686719  0.97435363  0.48429781  1
  O  O67  1  0.18276103  0.70076556  0.34184493  1
  O  O68  1  0.04284277  0.84206561  0.47526754  1
  O  O69  1  0.45880588  0.98438323  0.19886495  1
  O  O70  1  0.68404825  0.65856801  0.29981562  1
  O  O71  1  0.81651398  0.51617661  0.02552938  1
loop_
_geom_bond_atom_site_label_1
_geom_bond_atom_site_label_2
_geom_bond_distance
_geom_bond_site_symmetry_2
Cs0 O10 3.172138 1_455
Cs0 O18 3.190409 1_555
Cs0 O2 3.205045 1_445
Cs0 O48 3.226221 1_455
Cs0 O56 3.229904 1_555
Cs0 O64 3.241673 1_446
Cs0 O34 3.507348 1_455
Cs0 O42 3.507384 1_555
Cs0 O26 3.524469 1_445
Cs1 O1 3.167093 1_555
Cs1 O11 3.188049 1_555
Cs1 O16 3.202975 1_555
Cs1 O66 3.224599 1_555
Cs1 O51 3.225738 1_555
Cs1 O57 3.244971 1_565
Cs1 O25 3.507054 1_455
Cs1 O35 3.509299 1_555
Cs1 O40 3.524324 1_556
Cs2 O19 3.169545 1_555
Cs2 O0 3.188819 1_555
Cs2 O9 3.200143 1_554
Cs2 O59 3.222738 1_555
Cs2 O65 3.233383 1_555
Cs2 O50 3.239358 1_554
Cs2 O24 3.507575 1_555
Cs2 O43 3.508708 1_555
Cs2 O33 3.524674 1_564
Cs3 O20 3.172138 1_555
Cs3 O13 3.190409 1_555
Cs3 O7 3.205045 1_555
Cs3 O53 3.226221 1_555
Cs3 O70 3.229904 1_555
Cs3 O63 3.241673 1_555
Cs3 O44 3.507348 1_555
Cs3 O37 3.507384 1_655
Cs3 O31 3.524469 1_555
Cs4 O12 3.169545 1_555
Cs4 O5 3.188819 1_554
Cs4 O23 3.200143 1_554
Cs4 O69 3.222738 1_545
Cs4 O62 3.233383 1_554
Cs4 O55 3.239358 1_554
Cs4 O29 3.507575 1_554
Cs4 O36 3.508708 1_555
Cs4 O47 3.524674 1_554
Cs5 O4 3.167093 1_555
Cs5 O21 3.188049 1_555
Cs5 O15 3.202975 1_555
Cs5 O61 3.224599 1_655
Cs5 O54 3.225738 1_554
Cs5 O71 3.244971 1_555
Cs5 O28 3.507054 1_555
Cs5 O45 3.509299 1_545
Cs5 O39 3.524324 1_555
O0 P0 1.497504 1_555
O0 Sm4 2.470648 1_555
O1 P1 1.492498 1_555
O1 Sm5 2.470779 1_555
O2 P2 1.496010 1_555
O2 Sm4 2.488681 1_556
O3 P3 1.485751 1_555
O3 Sm5 2.466621 1_555
O4 P4 1.492498 1_555
O4 Sm3 2.470779 1_655
O5 P5 1.497504 1_555
O5 Sm2 2.470648 1_555
O6 P6 1.485751 1_555
O6 Sm3 2.466621 1_555
O7 P7 1.496010 1_555
O7 Sm2 2.488681 1_555
O8 P8 1.487069 1_555
O8 Sm0 2.420618 1_455
O9 P9 1.493912 1_555
O9 Sm1 2.506301 1_555
O10 P10 1.492395 1_555
O10 Sm0 2.454427 1_555
O11 P11 1.495050 1_555
O11 Sm1 2.517946 1_555
O12 P12 1.491959 1_555
O12 Sm5 2.489251 1_545
O13 P13 1.496303 1_555
O13 Sm4 2.481624 1_555
O14 P14 1.485187 1_555
O14 Sm5 2.448181 1_555
O15 P15 1.496922 1_555
O15 Sm4 2.478214 1_555
O16 P16 1.496922 1_555
O16 Sm2 2.478214 1_565
O17 P17 1.485187 1_555
O17 Sm3 2.448181 1_555
O18 P18 1.496303 1_555
O18 Sm2 2.481624 1_555
O19 P19 1.491959 1_555
O19 Sm3 2.489251 1_555
O20 P20 1.492395 1_555
O20 Sm1 2.454427 1_555
O21 P21 1.495050 1_555
O21 Sm0 2.517946 1_554
O22 P22 1.487069 1_555
O22 Sm1 2.420618 1_555
O23 P23 1.493912 1_555
O23 Sm0 2.506301 1_555
O24 P21 1.629471 1_565
O24 P0 1.636862 1_555
O25 P23 1.619914 1_555
O25 P1 1.653202 1_655
O26 P2 1.631555 1_555
O26 P20 1.637198 1_555
O27 P22 1.625575 1_555
O27 P3 1.627913 1_555
O28 P9 1.619914 1_545
O28 P4 1.653202 1_555
O29 P11 1.629471 1_555
O29 P5 1.636862 1_555
O30 P8 1.625575 1_555
O30 P6 1.627913 1_556
O31 P7 1.631555 1_555
O31 P10 1.637198 1_555
O32 P5 1.615782 1_555
O32 P8 1.633778 1_555
O33 P7 1.627474 1_555
O33 P9 1.639743 1_545
O34 P4 1.629219 1_555
O34 P10 1.644359 1_555
O35 P11 1.630508 1_555
O35 P6 1.640629 1_556
O36 P17 1.631776 1_555
O36 P12 1.644861 1_555
O37 P13 1.629988 1_455
O37 P19 1.637929 1_555
O38 P16 1.614459 1_554
O38 P14 1.635416 1_555
O39 P18 1.628854 1_555
O39 P15 1.638279 1_555
O40 P13 1.628854 1_455
O40 P16 1.638279 1_554
O41 P15 1.614459 1_555
O41 P17 1.635416 1_555
O42 P18 1.629988 1_555
O42 P12 1.637929 1_555
O43 P14 1.631776 1_555
O43 P19 1.644861 1_555
O44 P1 1.629219 1_655
O44 P20 1.644359 1_555
O45 P21 1.630508 1_565
O45 P3 1.640629 1_555
O46 P0 1.615782 1_555
O46 P22 1.633778 1_555
O47 P2 1.627474 1_555
O47 P23 1.639743 1_555
O48 P0 1.502231 1_546
O48 Sm0 2.446512 1_555
O49 P1 1.495374 1_655
O49 Sm0 2.397464 1_555
O50 P2 1.502448 1_555
O50 Sm1 2.469759 1_555
O51 P3 1.508043 1_555
O51 Sm1 2.428593 1_555
O52 P4 1.495374 1_565
O52 Sm1 2.397464 1_555
O53 P5 1.502231 1_555
O53 Sm1 2.446512 1_555
O54 P6 1.508043 1_656
O54 Sm0 2.428593 1_555
O55 P7 1.502448 1_555
O55 Sm0 2.469759 1_555
O56 P8 1.508335 1_555
O56 Sm2 2.416964 1_555
O57 P9 1.504955 1_545
O57 Sm2 2.453386 1_555
O58 P10 1.495148 1_455
O58 Sm3 2.412141 1_555
O59 P11 1.502956 1_554
O59 Sm3 2.455902 1_555
O60 P12 1.495531 1_555
O60 Sm3 2.395760 1_555
O61 P13 1.501774 1_455
O61 Sm3 2.472833 1_555
O62 P14 1.509162 1_546
O62 Sm2 2.429435 1_555
O63 P15 1.503617 1_555
O63 Sm2 2.441652 1_555
O64 P16 1.503617 1_654
O64 Sm4 2.441652 1_555
O65 P17 1.509162 1_555
O65 Sm4 2.429435 1_555
O66 P18 1.501774 1_565
O66 Sm5 2.472833 1_555
O67 P19 1.495531 1_555
O67 Sm5 2.395760 1_555
O68 P20 1.495148 1_455
O68 Sm5 2.412141 1_555
O69 P21 1.502956 1_565
O69 Sm5 2.455902 1_555
O70 P22 1.508335 1_555
O70 Sm4 2.416964 1_555
O71 P23 1.504955 1_554
O71 Sm4 2.453386 1_555
