# generated using pymatgen
data_MgAl3
_symmetry_space_group_name_H-M   'P 1'
_cell_length_a   5.84872623
_cell_length_b   5.84872623
_cell_length_c   4.66628945
_cell_angle_alpha   90.00000000
_cell_angle_beta   90.00000000
_cell_angle_gamma   120.00000286
_symmetry_Int_Tables_number   1
_chemical_formula_structural   MgAl3
_chemical_formula_sum   'Mg2 Al6'
_cell_volume   138.23718470
_cell_formula_units_Z   2
loop_
 _symmetry_equiv_pos_site_id
 _symmetry_equiv_pos_as_xyz
  1  'x, y, z'
loop_
 _atom_site_type_symbol
 _atom_site_label
 _atom_site_symmetry_multiplicity
 _atom_site_fract_x
 _atom_site_fract_y
 _atom_site_fract_z
 _atom_site_occupancy
  Mg  Mg0  1  0.66666700  0.33333300  0.25000000  1
  Mg  Mg1  1  0.33333300  0.66666700  0.75000000  1
  Al  Al0  1  0.16118991  0.32237883  0.25000000  1
  Al  Al1  1  0.67762117  0.83881009  0.25000000  1
  Al  Al2  1  0.16118991  0.83881009  0.25000000  1
  Al  Al3  1  0.32237883  0.16118991  0.75000000  1
  Al  Al4  1  0.83881009  0.16118991  0.75000000  1
  Al  Al5  1  0.83881009  0.67762117  0.75000000  1
loop_
_geom_bond_atom_site_label_1
_geom_bond_atom_site_label_2
_geom_bond_distance
_geom_bond_site_symmetry_2
Al0 Al1 2.828261 1_445
Al0 Al2 2.828261 1_545
Al0 Al3 2.847788 1_554
Al0 Al3 2.847788 1_555
Al0 Al4 2.847794 1_455
Al0 Al4 2.847794 1_454
Al0 Mg1 2.912841 1_554
Al0 Mg1 2.912841 1_555
Al0 Mg0 2.924889 1_455
Al0 Mg0 2.924889 1_555
Al0 Al1 3.020465 1_555
Al0 Al2 3.020465 1_555
Al1 Al2 2.828261 1_655
Al1 Al5 2.847788 1_554
Al1 Al5 2.847788 1_555
Al1 Al4 2.847794 1_565
Al1 Al4 2.847794 1_564
Al1 Mg1 2.912841 1_554
Al1 Mg1 2.912841 1_555
Al1 Mg0 2.924889 1_565
Al1 Mg0 2.924889 1_555
Al1 Al2 3.020465 1_555
Al2 Al5 2.847794 1_454
Al2 Al5 2.847794 1_455
Al2 Al3 2.847794 1_564
Al2 Al3 2.847794 1_565
Al2 Mg1 2.912836 1_554
Al2 Mg1 2.912836 1_555
Al2 Mg0 2.924889 1_455
Al2 Mg0 2.924889 1_565
Al3 Al5 2.828261 1_445
Al3 Al4 2.828261 1_455
Al3 Mg0 2.912841 1_555
Al3 Mg0 2.912841 1_556
Al3 Mg1 2.924889 1_545
Al3 Mg1 2.924889 1_555
Al3 Al5 3.020465 1_555
Al3 Al4 3.020465 1_555
Al4 Al5 2.828261 1_545
Al4 Mg0 2.912836 1_555
Al4 Mg0 2.912836 1_556
Al4 Mg1 2.924889 1_545
Al4 Mg1 2.924889 1_655
Al4 Al5 3.020465 1_555
Al5 Mg0 2.912841 1_555
Al5 Mg0 2.912841 1_556
Al5 Mg1 2.924889 1_655
Al5 Mg1 2.924889 1_555
