# generated using pymatgen
data_La3NiW(SO2)3
_symmetry_space_group_name_H-M   'P 1'
_cell_length_a   9.47067599
_cell_length_b   9.47067599
_cell_length_c   5.55317900
_cell_angle_alpha   90.00000000
_cell_angle_beta   90.00000000
_cell_angle_gamma   119.99999996
_symmetry_Int_Tables_number   1
_chemical_formula_structural   La3NiW(SO2)3
_chemical_formula_sum   'La6 Ni2 W2 S6 O12'
_cell_volume   431.35442994
_cell_formula_units_Z   2
loop_
 _symmetry_equiv_pos_site_id
 _symmetry_equiv_pos_as_xyz
  1  'x, y, z'
loop_
 _atom_site_type_symbol
 _atom_site_label
 _atom_site_symmetry_multiplicity
 _atom_site_fract_x
 _atom_site_fract_y
 _atom_site_fract_z
 _atom_site_occupancy
  La  La0  1  0.40534100  0.31511900  0.25000000  1
  La  La1  1  0.68488100  0.09022200  0.25000000  1
  La  La2  1  0.90977800  0.59465900  0.25000000  1
  La  La3  1  0.59465900  0.68488100  0.75000000  1
  La  La4  1  0.31511900  0.90977800  0.75000000  1
  La  La5  1  0.09022200  0.40534100  0.75000000  1
  Ni  Ni0  1  0.00000000  0.00000000  0.50000000  1
  Ni  Ni1  1  0.00000000  0.00000000  0.00000000  1
  W  W0  1  0.66666700  0.33333300  0.75000000  1
  W  W1  1  0.33333300  0.66666700  0.25000000  1
  S  S0  1  0.95272000  0.77498800  0.75000000  1
  S  S1  1  0.22501200  0.17773200  0.75000000  1
  S  S2  1  0.82226800  0.04728000  0.75000000  1
  S  S3  1  0.04728000  0.22501200  0.25000000  1
  S  S4  1  0.77498800  0.82226800  0.25000000  1
  S  S5  1  0.17773200  0.95272000  0.25000000  1
  O  O0  1  0.63542300  0.47472000  0.52209800  1
  O  O1  1  0.52528000  0.16070300  0.52209800  1
  O  O2  1  0.83929700  0.36457700  0.52209800  1
  O  O3  1  0.36457700  0.52528000  0.02209800  1
  O  O4  1  0.47472000  0.83929700  0.02209800  1
  O  O5  1  0.16070300  0.63542300  0.02209800  1
  O  O6  1  0.36457700  0.52528000  0.47790200  1
  O  O7  1  0.47472000  0.83929700  0.47790200  1
  O  O8  1  0.16070300  0.63542300  0.47790200  1
  O  O9  1  0.63542300  0.47472000  0.97790200  1
  O  O10  1  0.52528000  0.16070300  0.97790200  1
  O  O11  1  0.83929700  0.36457700  0.97790200  1
loop_
_geom_bond_atom_site_label_1
_geom_bond_atom_site_label_2
_geom_bond_distance
_geom_bond_site_symmetry_2
La0 O0 2.454054 1_555
La0 O9 2.454054 1_554
La0 O3 2.545723 1_555
La0 O6 2.545723 1_555
La0 O1 2.715379 1_555
La0 O10 2.715379 1_554
La0 S5 3.004662 1_545
La0 S3 3.055128 1_555
La0 S1 3.177577 1_555
La0 S1 3.177577 1_554
La1 O1 2.454054 1_555
La1 O10 2.454054 1_554
La1 O7 2.545723 1_545
La1 O4 2.545723 1_545
La1 O2 2.715379 1_555
La1 O11 2.715379 1_554
La1 S3 3.004662 1_655
La1 S4 3.055128 1_545
La1 S2 3.177577 1_555
La1 S2 3.177577 1_554
La2 O2 2.454054 1_555
La2 O11 2.454054 1_554
La2 O8 2.545723 1_655
La2 O5 2.545723 1_655
La2 O0 2.715379 1_555
La2 O9 2.715379 1_554
La2 S4 3.004662 1_555
La2 S5 3.055128 1_655
La2 S0 3.177577 1_555
La2 S0 3.177577 1_554
La3 O3 2.454054 1_556
La3 O6 2.454054 1_555
La3 O9 2.545723 1_555
La3 O0 2.545723 1_555
La3 O4 2.715379 1_556
La3 O7 2.715379 1_555
La3 S2 3.004662 1_565
La3 S0 3.055128 1_555
La3 S4 3.177577 1_555
La3 S4 3.177577 1_556
La4 O7 2.454054 1_555
La4 O4 2.454054 1_556
La4 O10 2.545723 1_565
La4 O1 2.545723 1_565
La4 O5 2.715379 1_556
La4 O8 2.715379 1_555
La4 S0 3.004662 1_455
La4 S1 3.055128 1_565
La4 S5 3.177577 1_556
La4 S5 3.177577 1_555
La5 O5 2.454054 1_556
La5 O8 2.454054 1_555
La5 O11 2.545723 1_455
La5 O2 2.545723 1_455
La5 O3 2.715379 1_556
La5 O6 2.715379 1_555
La5 S1 3.004662 1_555
La5 S2 3.055128 1_455
La5 S3 3.177577 1_555
La5 S3 3.177577 1_556
Ni0 S5 2.390581 1_545
Ni0 S2 2.390581 1_455
Ni0 S3 2.390581 1_555
Ni0 S0 2.390581 1_445
Ni0 S4 2.390581 1_445
Ni0 S1 2.390581 1_555
Ni1 S5 2.390581 1_545
Ni1 S2 2.390581 1_454
Ni1 S3 2.390581 1_555
Ni1 S0 2.390581 1_444
Ni1 S4 2.390581 1_445
Ni1 S1 2.390581 1_554
O0 W0 1.969385 1_555
O1 W0 1.969380 1_555
O2 W0 1.969378 1_555
O3 W1 1.969385 1_555
O4 W1 1.969380 1_555
O5 W1 1.969378 1_555
O6 W1 1.969385 1_555
O7 W1 1.969380 1_555
O8 W1 1.969378 1_555
O9 W0 1.969385 1_555
O10 W0 1.969380 1_555
O11 W0 1.969378 1_555
