# generated using pymatgen
data_Sr4CeY3Cu4(RuO10)2
_symmetry_space_group_name_H-M   'P 1'
_cell_length_a   3.86309400
_cell_length_b   3.86309400
_cell_length_c   28.80337000
_cell_angle_alpha   90.00000000
_cell_angle_beta   90.00000000
_cell_angle_gamma   90.00000000
_symmetry_Int_Tables_number   1
_chemical_formula_structural   Sr4CeY3Cu4(RuO10)2
_chemical_formula_sum   'Sr4 Ce1 Y3 Cu4 Ru2 O20'
_cell_volume   429.84695546
_cell_formula_units_Z   1
loop_
 _symmetry_equiv_pos_site_id
 _symmetry_equiv_pos_as_xyz
  1  'x, y, z'
loop_
 _atom_site_type_symbol
 _atom_site_label
 _atom_site_symmetry_multiplicity
 _atom_site_fract_x
 _atom_site_fract_y
 _atom_site_fract_z
 _atom_site_occupancy
  Sr  Sr0  1  0.00000000  0.00000000  0.42565200  1
  Sr  Sr1  1  0.50000000  0.50000000  0.91590700  1
  Sr  Sr2  1  0.50000000  0.50000000  0.07786600  1
  Sr  Sr3  1  0.00000000  0.00000000  0.58452100  1
  Ce  Ce0  1  0.00000000  0.00000000  0.29315200  1
  Y  Y0  1  0.50000000  0.50000000  0.79016300  1
  Y  Y1  1  0.50000000  0.50000000  0.20493500  1
  Y  Y2  1  0.00000000  0.00000000  0.71008100  1
  Cu  Cu0  1  0.50000000  0.50000000  0.35641700  1
  Cu  Cu1  1  0.00000000  0.00000000  0.85386700  1
  Cu  Cu2  1  0.00000000  0.00000000  0.14403100  1
  Cu  Cu3  1  0.50000000  0.50000000  0.64645500  1
  Ru  Ru0  1  0.00000000  0.00000000  0.99985500  1
  Ru  Ru1  1  0.50000000  0.50000000  0.50027800  1
  O  O0  1  0.00000000  0.50000000  0.34750500  1
  O  O1  1  0.50000000  0.00000000  0.85140800  1
  O  O2  1  0.50000000  0.00000000  0.34750500  1
  O  O3  1  0.00000000  0.50000000  0.85140800  1
  O  O4  1  0.50000000  0.00000000  0.15169200  1
  O  O5  1  0.00000000  0.50000000  0.64863500  1
  O  O6  1  0.00000000  0.50000000  0.15169200  1
  O  O7  1  0.50000000  0.00000000  0.64863500  1
  O  O8  1  0.50000000  0.50000000  0.43087600  1
  O  O9  1  0.00000000  0.00000000  0.93275700  1
  O  O10  1  0.00000000  0.00000000  0.06857200  1
  O  O11  1  0.50000000  0.50000000  0.56702900  1
  O  O12  1  0.00000000  0.50000000  0.25041800  1
  O  O13  1  0.50000000  0.00000000  0.75007500  1
  O  O14  1  0.50000000  0.00000000  0.25041800  1
  O  O15  1  0.00000000  0.50000000  0.75007500  1
  O  O16  1  0.50000000  0.00000000  0.00155500  1
  O  O17  1  0.00000000  0.50000000  0.49750500  1
  O  O18  1  0.50000000  0.00000000  0.49750500  1
  O  O19  1  0.00000000  0.50000000  0.00155500  1
loop_
_geom_bond_atom_site_label_1
_geom_bond_atom_site_label_2
_geom_bond_distance
_geom_bond_site_symmetry_2
Ce0 O12 2.290403 1_545
Ce0 O12 2.290403 1_555
Ce0 O14 2.290403 1_555
Ce0 O14 2.290403 1_455
Ce0 O0 2.486326 1_555
Ce0 O0 2.486326 1_545
Ce0 O2 2.486326 1_555
Ce0 O2 2.486326 1_455
Cu0 O0 1.948529 1_655
Cu0 O2 1.948529 1_555
Cu0 O2 1.948529 1_565
Cu0 O0 1.948529 1_555
Cu0 O8 2.144670 1_555
Cu1 O3 1.932845 1_545
Cu1 O3 1.932845 1_555
Cu1 O1 1.932845 1_455
Cu1 O1 1.932845 1_555
Cu1 O9 2.272298 1_555
Cu2 O6 1.944111 1_545
Cu2 O4 1.944111 1_555
Cu2 O4 1.944111 1_455
Cu2 O6 1.944111 1_555
Cu2 O10 2.173473 1_555
Cu3 O7 1.932567 1_555
Cu3 O7 1.932567 1_565
Cu3 O5 1.932567 1_555
Cu3 O5 1.932567 1_655
Cu3 O11 2.287736 1_555
O0 Sr0 2.966043 1_555
O0 Sr0 2.966043 1_565
O1 Y0 2.615873 1_555
O1 Y0 2.615873 1_545
O1 Sr1 2.679972 1_545
O1 Sr1 2.679972 1_555
O2 Sr0 2.966043 1_555
O2 Sr0 2.966043 1_655
O3 Y0 2.615873 1_555
O3 Y0 2.615873 1_455
O3 Sr1 2.679972 1_555
O3 Sr1 2.679972 1_455
O4 Y1 2.466320 1_545
O4 Y1 2.466320 1_555
O4 Sr2 2.872736 1_545
O4 Sr2 2.872736 1_555
O5 Y2 2.619780 1_555
O5 Y2 2.619780 1_565
O5 Sr3 2.672297 1_555
O5 Sr3 2.672297 1_565
O6 Y1 2.466320 1_455
O6 Y1 2.466320 1_555
O6 Sr2 2.872736 1_455
O6 Sr2 2.872736 1_555
O7 Y2 2.619780 1_655
O7 Y2 2.619780 1_555
O7 Sr3 2.672297 1_555
O7 Sr3 2.672297 1_655
O8 Ru1 1.999011 1_555
O8 Sr0 2.735761 1_555
O8 Sr0 2.735761 1_565
O8 Sr0 2.735761 1_665
O8 Sr0 2.735761 1_655
O9 Ru0 1.932649 1_555
O9 Sr1 2.774401 1_555
O9 Sr1 2.774401 1_445
O9 Sr1 2.774401 1_545
O9 Sr1 2.774401 1_455
O10 Ru0 1.979281 1_554
O10 Sr2 2.744706 1_545
O10 Sr2 2.744706 1_555
O10 Sr2 2.744706 1_445
O10 Sr2 2.744706 1_455
O11 Ru1 1.922654 1_555
O11 Sr3 2.777695 1_555
O11 Sr3 2.777695 1_565
O11 Sr3 2.777695 1_655
O11 Sr3 2.777695 1_665
O12 Y1 2.333911 1_555
O12 Y1 2.333911 1_455
O13 Y2 2.248975 1_555
O13 Y2 2.248975 1_655
O13 Y0 2.250363 1_555
O13 Y0 2.250363 1_545
O14 Y1 2.333911 1_545
O14 Y1 2.333911 1_555
O15 Y2 2.248975 1_555
O15 Y2 2.248975 1_565
O15 Y0 2.250363 1_455
O15 Y0 2.250363 1_555
O16 Ru0 1.932168 1_654
O16 Ru0 1.932168 1_554
O16 Sr2 2.926113 1_555
O16 Sr2 2.926113 1_545
O16 Sr1 3.133165 1_544
O16 Sr1 3.133165 1_554
O17 Ru1 1.933198 1_555
O17 Ru1 1.933198 1_455
O17 Sr0 2.830928 1_555
O17 Sr0 2.830928 1_565
O17 Sr3 3.164283 1_565
O17 Sr3 3.164283 1_555
O18 Ru1 1.933198 1_545
O18 Ru1 1.933198 1_555
O18 Sr0 2.830928 1_655
O18 Sr0 2.830928 1_555
O18 Sr3 3.164283 1_555
O18 Sr3 3.164283 1_655
O19 Ru0 1.932168 1_564
O19 Ru0 1.932168 1_554
O19 Sr2 2.926113 1_555
O19 Sr2 2.926113 1_455
O19 Sr1 3.133165 1_454
O19 Sr1 3.133165 1_554
