# generated using pymatgen
data_Mg(CoO2)2
_symmetry_space_group_name_H-M   'P 1'
_cell_length_a   5.80419260
_cell_length_b   5.98063148
_cell_length_c   5.80432493
_cell_angle_alpha   117.38697694
_cell_angle_beta   92.14806998
_cell_angle_gamma   118.30193133
_symmetry_Int_Tables_number   1
_chemical_formula_structural   Mg(CoO2)2
_chemical_formula_sum   'Mg2 Co4 O8'
_cell_volume   148.86109369
_cell_formula_units_Z   2
loop_
 _symmetry_equiv_pos_site_id
 _symmetry_equiv_pos_as_xyz
  1  'x, y, z'
loop_
 _atom_site_type_symbol
 _atom_site_label
 _atom_site_symmetry_multiplicity
 _atom_site_fract_x
 _atom_site_fract_y
 _atom_site_fract_z
 _atom_site_occupancy
  Mg  Mg0  1  0.63116700  0.74999700  0.38116400  1
  Mg  Mg1  1  0.36884100  0.25001400  0.61884400  1
  Co  Co0  1  0.00000400  0.50000300  0.50000100  1
  Co  Co1  1  0.00000000  0.00000200  0.00000000  1
  Co  Co2  1  0.99999700  0.49999900  0.99999800  1
  Co  Co3  1  0.49999600  0.99999800  0.99999700  1
  O  O0  1  0.78212900  0.50801800  0.74757300  1
  O  O1  1  0.23956100  0.99201400  0.77414300  1
  O  O2  1  0.22586200  0.97048800  0.21497900  1
  O  O3  1  0.21787200  0.49198000  0.25243300  1
  O  O4  1  0.75549700  0.47051300  0.24464000  1
  O  O5  1  0.76044300  0.00798600  0.22585300  1
  O  O6  1  0.24450500  0.52948300  0.75536200  1
  O  O7  1  0.77412700  0.02950500  0.78501300  1
loop_
_geom_bond_atom_site_label_1
_geom_bond_atom_site_label_2
_geom_bond_distance
_geom_bond_site_symmetry_2
Mg0 O4 1.977536 1_555
Mg0 O7 1.977759 1_565
Mg0 O3 1.997185 1_555
Mg0 O5 1.997216 1_565
Mg1 O6 1.977488 1_555
Mg1 O2 1.977839 1_545
Mg1 O0 1.997150 1_555
Mg1 O1 1.997212 1_545
Co0 O4 1.899085 1_455
Co0 O6 1.899098 1_555
Co0 O3 1.948480 1_555
Co0 O0 1.948525 1_455
Co0 O1 2.184195 1_555
Co0 O5 2.184223 1_455
Co1 O2 1.898996 1_545
Co1 O7 1.899026 1_454
Co1 O5 1.948364 1_455
Co1 O1 1.948398 1_544
Co1 O3 2.184036 1_555
Co1 O0 2.184063 1_444
Co2 O0 1.931664 1_555
Co2 O3 1.931733 1_656
Co2 O4 2.050731 1_556
Co2 O6 2.050735 1_655
Co2 O2 2.083875 1_656
Co2 O7 2.083896 1_555
Co3 O1 1.931636 1_555
Co3 O5 1.931679 1_566
Co3 O7 2.050620 1_565
Co3 O2 2.050626 1_556
Co3 O6 2.083985 1_555
Co3 O4 2.083989 1_566
