# generated using pymatgen
data_Mg6SiSn
_symmetry_space_group_name_H-M   'P 1'
_cell_length_a   5.09788300
_cell_length_b   6.46375200
_cell_length_c   10.54392700
_cell_angle_alpha   90.00000000
_cell_angle_beta   90.00000000
_cell_angle_gamma   90.00000000
_symmetry_Int_Tables_number   1
_chemical_formula_structural   Mg6SiSn
_chemical_formula_sum   'Mg12 Si2 Sn2'
_cell_volume   347.43769850
_cell_formula_units_Z   2
loop_
 _symmetry_equiv_pos_site_id
 _symmetry_equiv_pos_as_xyz
  1  'x, y, z'
loop_
 _atom_site_type_symbol
 _atom_site_label
 _atom_site_symmetry_multiplicity
 _atom_site_fract_x
 _atom_site_fract_y
 _atom_site_fract_z
 _atom_site_occupancy
  Mg  Mg0  1  0.50000000  0.24973400  0.08432500  1
  Mg  Mg1  1  0.50000000  0.75026600  0.08432500  1
  Mg  Mg2  1  0.00000000  0.25873800  0.91447100  1
  Mg  Mg3  1  0.00000000  0.74126200  0.91447100  1
  Mg  Mg4  1  0.00000000  0.50000000  0.16594400  1
  Mg  Mg5  1  0.00000000  0.50000000  0.67069300  1
  Mg  Mg6  1  0.50000000  0.74973400  0.58432500  1
  Mg  Mg7  1  0.50000000  0.25026600  0.58432500  1
  Mg  Mg8  1  0.00000000  0.75873800  0.41447100  1
  Mg  Mg9  1  0.00000000  0.24126200  0.41447100  1
  Mg  Mg10  1  0.00000000  0.00000000  0.66594400  1
  Mg  Mg11  1  0.00000000  0.00000000  0.17069300  1
  Si  Si0  1  0.50000000  0.50000000  0.83203100  1
  Si  Si1  1  0.50000000  0.00000000  0.33203100  1
  Sn  Sn0  1  0.50000000  0.50000000  0.33374500  1
  Sn  Sn1  1  0.50000000  0.00000000  0.83374500  1
loop_
_geom_bond_atom_site_label_1
_geom_bond_atom_site_label_2
_geom_bond_distance
_geom_bond_site_symmetry_2
Mg0 Si1 3.070370 1_555
Mg0 Sn0 3.087558 1_555
Mg0 Sn1 3.096188 1_554
Mg0 Si0 3.113409 1_554
Mg0 Mg2 3.115753 1_654
Mg0 Mg2 3.115753 1_554
Mg0 Mg11 3.151524 1_655
Mg0 Mg11 3.151524 1_555
Mg1 Si1 3.070370 1_565
Mg1 Sn0 3.087558 1_555
Mg1 Sn1 3.096188 1_564
Mg1 Si0 3.113409 1_554
Mg1 Mg3 3.115753 1_654
Mg1 Mg3 3.115753 1_554
Mg1 Mg11 3.151524 1_665
Mg1 Mg11 3.151524 1_565
Mg2 Mg5 3.006451 1_555
Mg2 Mg4 3.076106 1_556
Mg2 Si0 3.112008 1_455
Mg2 Si0 3.112008 1_555
Mg2 Mg3 3.118915 1_555
Mg2 Sn1 3.165213 1_455
Mg2 Sn1 3.165213 1_555
Mg2 Mg3 3.344837 1_545
Mg3 Mg5 3.006451 1_555
Mg3 Mg4 3.076106 1_556
Mg3 Si0 3.112008 1_455
Mg3 Si0 3.112008 1_555
Mg3 Sn1 3.165213 1_565
Mg3 Sn1 3.165213 1_465
Mg4 Sn0 3.102815 1_555
Mg4 Sn0 3.102815 1_455
Mg4 Mg8 3.108656 1_555
Mg4 Mg9 3.108656 1_555
Mg5 Si0 3.064468 1_555
Mg5 Si0 3.064468 1_455
Mg5 Mg6 3.151524 1_555
Mg5 Mg7 3.151524 1_455
Mg5 Mg7 3.151524 1_555
Mg5 Mg6 3.151524 1_455
Mg5 Mg8 3.177350 1_555
Mg5 Mg9 3.177350 1_555
Mg6 Si0 3.070370 1_555
Mg6 Sn1 3.087558 1_565
Mg6 Sn0 3.096188 1_555
Mg6 Si1 3.113409 1_565
Mg6 Mg8 3.115753 1_655
Mg6 Mg8 3.115753 1_555
Mg7 Si0 3.070370 1_555
Mg7 Sn1 3.087558 1_555
Mg7 Sn0 3.096188 1_555
Mg7 Si1 3.113409 1_555
Mg7 Mg9 3.115753 1_555
Mg7 Mg9 3.115753 1_655
Mg8 Si1 3.112008 1_565
Mg8 Si1 3.112008 1_465
Mg8 Mg9 3.118915 1_565
Mg8 Sn0 3.165213 1_555
Mg8 Sn0 3.165213 1_455
Mg8 Mg9 3.344837 1_555
Mg9 Si1 3.112008 1_455
Mg9 Si1 3.112008 1_555
Mg9 Sn0 3.165213 1_455
Mg9 Sn0 3.165213 1_555
Mg10 Mg9 3.076106 1_555
Mg10 Mg8 3.076106 1_545
Mg10 Sn1 3.102815 1_555
Mg10 Sn1 3.102815 1_455
Mg10 Mg2 3.108656 1_555
Mg10 Mg3 3.108656 1_545
Mg10 Mg5 3.232264 1_545
Mg10 Mg5 3.232264 1_555
Mg11 Mg9 3.006451 1_555
Mg11 Mg8 3.006451 1_545
Mg11 Si1 3.064468 1_455
Mg11 Si1 3.064468 1_555
Mg11 Mg2 3.177350 1_554
Mg11 Mg3 3.177350 1_544
Mg11 Mg4 3.232264 1_555
Mg11 Mg4 3.232264 1_545
