# generated using pymatgen
data_K2MnBi2
_symmetry_space_group_name_H-M   'P 1'
_cell_length_a   7.12837175
_cell_length_b   7.12940628
_cell_length_c   39.57541863
_cell_angle_alpha   90.06333419
_cell_angle_beta   89.28593309
_cell_angle_gamma   89.26622148
_symmetry_Int_Tables_number   1
_chemical_formula_structural   K2MnBi2
_chemical_formula_sum   'K16 Mn8 Bi16'
_cell_volume   2010.94192920
_cell_formula_units_Z   8
loop_
 _symmetry_equiv_pos_site_id
 _symmetry_equiv_pos_as_xyz
  1  'x, y, z'
loop_
 _atom_site_type_symbol
 _atom_site_label
 _atom_site_symmetry_multiplicity
 _atom_site_fract_x
 _atom_site_fract_y
 _atom_site_fract_z
 _atom_site_occupancy
  K  K0_0  1  0.24989700  0.24981100  0.34985950  1
  K  K0_1  1  0.24989700  0.24981100  0.84985950  1
  K  K0_2  1  0.24989700  0.74981100  0.34985950  1
  K  K0_3  1  0.24989700  0.74981100  0.84985950  1
  K  K0_4  1  0.74989700  0.24981100  0.34985950  1
  K  K0_5  1  0.74989700  0.24981100  0.84985950  1
  K  K0_6  1  0.74989700  0.74981100  0.34985950  1
  K  K0_7  1  0.74989700  0.74981100  0.84985950  1
  K  K1_0  1  0.25061550  0.24979450  0.15020050  1
  K  K1_1  1  0.25061550  0.24979450  0.65020050  1
  K  K1_2  1  0.25061550  0.74979450  0.15020050  1
  K  K1_3  1  0.25061550  0.74979450  0.65020050  1
  K  K1_4  1  0.75061550  0.24979450  0.15020050  1
  K  K1_5  1  0.75061550  0.24979450  0.65020050  1
  K  K1_6  1  0.75061550  0.74979450  0.15020050  1
  K  K1_7  1  0.75061550  0.74979450  0.65020050  1
  Mn  Mn0_0  1  0.24912000  0.25060200  0.49997150  1
  Mn  Mn0_1  1  0.24912000  0.25060200  0.99997150  1
  Mn  Mn0_2  1  0.24912000  0.75060200  0.49997150  1
  Mn  Mn0_3  1  0.24912000  0.75060200  0.99997150  1
  Mn  Mn0_4  1  0.74912000  0.25060200  0.49997150  1
  Mn  Mn0_5  1  0.74912000  0.25060200  0.99997150  1
  Mn  Mn0_6  1  0.74912000  0.75060200  0.49997150  1
  Mn  Mn0_7  1  0.74912000  0.75060200  0.99997150  1
  Bi  Bi0_0  1  0.25040450  0.24981950  0.06749700  1
  Bi  Bi0_1  1  0.25040450  0.24981950  0.56749700  1
  Bi  Bi0_2  1  0.25040450  0.74981950  0.06749700  1
  Bi  Bi0_3  1  0.25040450  0.74981950  0.56749700  1
  Bi  Bi0_4  1  0.75040450  0.24981950  0.06749700  1
  Bi  Bi0_5  1  0.75040450  0.24981950  0.56749700  1
  Bi  Bi0_6  1  0.75040450  0.74981950  0.06749700  1
  Bi  Bi0_7  1  0.75040450  0.74981950  0.56749700  1
  Bi  Bi1_0  1  0.24996300  0.24997300  0.43247150  1
  Bi  Bi1_1  1  0.24996300  0.24997300  0.93247150  1
  Bi  Bi1_2  1  0.24996300  0.74997300  0.43247150  1
  Bi  Bi1_3  1  0.24996300  0.74997300  0.93247150  1
  Bi  Bi1_4  1  0.74996300  0.24997300  0.43247150  1
  Bi  Bi1_5  1  0.74996300  0.24997300  0.93247150  1
  Bi  Bi1_6  1  0.74996300  0.74997300  0.43247150  1
  Bi  Bi1_7  1  0.74996300  0.74997300  0.93247150  1
loop_
_geom_bond_atom_site_label_1
_geom_bond_atom_site_label_2
_geom_bond_distance
_geom_bond_site_symmetry_2
K0_0 K0_4 3.564186 1_455
K0_0 K0_4 3.564186 1_555
K0_0 K0_2 3.564703 1_555
K0_0 K0_2 3.564703 1_545
K0_1 K0_5 3.564186 1_555
K0_1 K0_5 3.564186 1_455
K0_1 K0_3 3.564703 1_555
K0_1 K0_3 3.564703 1_545
K0_2 K0_6 3.564186 1_455
K0_2 K0_6 3.564186 1_555
K0_3 K0_7 3.564186 1_455
K0_3 K0_7 3.564186 1_555
K0_4 K0_6 3.564703 1_545
K0_4 K0_6 3.564703 1_555
K0_5 K0_7 3.564703 1_555
K0_5 K0_7 3.564703 1_545
K1_0 K1_4 3.564186 1_555
K1_0 K1_4 3.564186 1_455
K1_0 K1_2 3.564703 1_555
K1_0 K1_2 3.564703 1_545
K1_1 K1_5 3.564186 1_555
K1_1 K1_5 3.564186 1_455
K1_1 K1_3 3.564703 1_555
K1_1 K1_3 3.564703 1_545
K1_2 K1_6 3.564186 1_555
K1_2 K1_6 3.564186 1_455
K1_3 K1_7 3.564186 1_455
K1_3 K1_7 3.564186 1_555
K1_4 K1_6 3.564703 1_555
K1_4 K1_6 3.564703 1_545
K1_5 K1_7 3.564703 1_545
K1_5 K1_7 3.564703 1_555
Mn0_0 Mn0_4 3.564186 1_455
Mn0_0 Mn0_4 3.564186 1_555
Mn0_0 Mn0_2 3.564703 1_545
Mn0_0 Mn0_2 3.564703 1_555
Mn0_1 Mn0_5 3.564186 1_455
Mn0_1 Mn0_5 3.564186 1_555
Mn0_1 Mn0_3 3.564703 1_555
Mn0_1 Mn0_3 3.564703 1_545
Mn0_2 Mn0_6 3.564186 1_555
Mn0_2 Mn0_6 3.564186 1_455
Mn0_3 Mn0_7 3.564186 1_455
Mn0_3 Mn0_7 3.564186 1_555
Mn0_4 Mn0_6 3.564703 1_555
Mn0_4 Mn0_6 3.564703 1_545
Mn0_5 Mn0_7 3.564703 1_545
Mn0_5 Mn0_7 3.564703 1_555
Bi0_0 Mn0_1 2.672491 1_554
Bi0_0 K1_0 3.273045 1_555
Bi0_0 Bi0_4 3.564186 1_555
Bi0_0 Bi0_4 3.564186 1_455
Bi0_0 Bi0_2 3.564703 1_555
Bi0_0 Bi0_2 3.564703 1_545
Bi0_1 Mn0_0 2.672491 1_555
Bi0_1 K1_1 3.273045 1_555
Bi0_1 Bi0_5 3.564186 1_555
Bi0_1 Bi0_5 3.564186 1_455
Bi0_1 Bi0_3 3.564703 1_545
Bi0_1 Bi0_3 3.564703 1_555
Bi0_2 Mn0_3 2.672491 1_554
Bi0_2 K1_2 3.273045 1_555
Bi0_2 Bi0_6 3.564186 1_455
Bi0_2 Bi0_6 3.564186 1_555
Bi0_3 Mn0_2 2.672491 1_555
Bi0_3 K1_3 3.273045 1_555
Bi0_3 Bi0_7 3.564186 1_455
Bi0_3 Bi0_7 3.564186 1_555
Bi0_4 Mn0_5 2.672491 1_554
Bi0_4 K1_4 3.273045 1_555
Bi0_4 Bi0_6 3.564703 1_545
Bi0_4 Bi0_6 3.564703 1_555
Bi0_5 Mn0_4 2.672491 1_555
Bi0_5 K1_5 3.273045 1_555
Bi0_5 Bi0_7 3.564703 1_555
Bi0_5 Bi0_7 3.564703 1_545
Bi0_6 Mn0_7 2.672491 1_554
Bi0_6 K1_6 3.273045 1_555
Bi0_7 Mn0_6 2.672491 1_555
Bi0_7 K1_7 3.273045 1_555
Bi1_0 Mn0_0 2.671271 1_555
Bi1_0 K0_0 3.269409 1_555
Bi1_0 Bi1_4 3.564186 1_555
Bi1_0 Bi1_4 3.564186 1_455
Bi1_0 Bi1_2 3.564703 1_545
Bi1_0 Bi1_2 3.564703 1_555
Bi1_1 Mn0_1 2.671271 1_555
Bi1_1 K0_1 3.269409 1_555
Bi1_1 Bi1_5 3.564186 1_555
Bi1_1 Bi1_5 3.564186 1_455
Bi1_1 Bi1_3 3.564703 1_555
Bi1_1 Bi1_3 3.564703 1_545
Bi1_2 Mn0_2 2.671271 1_555
Bi1_2 K0_2 3.269409 1_555
Bi1_2 Bi1_6 3.564186 1_455
Bi1_2 Bi1_6 3.564186 1_555
Bi1_3 Mn0_3 2.671271 1_555
Bi1_3 K0_3 3.269409 1_555
Bi1_3 Bi1_7 3.564186 1_555
Bi1_3 Bi1_7 3.564186 1_455
Bi1_4 Mn0_4 2.671271 1_555
Bi1_4 K0_4 3.269409 1_555
Bi1_4 Bi1_6 3.564703 1_545
Bi1_4 Bi1_6 3.564703 1_555
Bi1_5 Mn0_5 2.671271 1_555
Bi1_5 K0_5 3.269409 1_555
Bi1_5 Bi1_7 3.564703 1_545
Bi1_5 Bi1_7 3.564703 1_555
Bi1_6 Mn0_6 2.671271 1_555
Bi1_6 K0_6 3.269409 1_555
Bi1_7 Mn0_7 2.671271 1_555
Bi1_7 K0_7 3.269409 1_555
