# generated using pymatgen
data_CsInHgS3
_symmetry_space_group_name_H-M   'P 1'
_cell_length_a   8.24053410
_cell_length_b   8.24053410
_cell_length_c   22.43219546
_cell_angle_alpha   84.73495290
_cell_angle_beta   84.73495290
_cell_angle_gamma   89.98638141
_symmetry_Int_Tables_number   1
_chemical_formula_structural   CsInHgS3
_chemical_formula_sum   'Cs8 In8 Hg8 S24'
_cell_volume   1510.41143606
_cell_formula_units_Z   8
loop_
 _symmetry_equiv_pos_site_id
 _symmetry_equiv_pos_as_xyz
  1  'x, y, z'
loop_
 _atom_site_type_symbol
 _atom_site_label
 _atom_site_symmetry_multiplicity
 _atom_site_fract_x
 _atom_site_fract_y
 _atom_site_fract_z
 _atom_site_occupancy
  Cs  Cs0  1  0.10512300  0.23111300  0.07712700  1
  Cs  Cs1  1  0.76888700  0.89487700  0.42287300  1
  Cs  Cs2  1  0.89487700  0.76888700  0.92287300  1
  Cs  Cs3  1  0.23111300  0.10512300  0.57712700  1
  Cs  Cs4  1  0.60604500  0.23056400  0.07723700  1
  Cs  Cs5  1  0.76943600  0.39395500  0.42276300  1
  Cs  Cs6  1  0.39395500  0.76943600  0.92276300  1
  Cs  Cs7  1  0.23056400  0.60604500  0.57723700  1
  In  In0  1  0.28005700  0.65542200  0.37798000  1
  In  In1  1  0.34457800  0.71994300  0.12202000  1
  In  In2  1  0.71994300  0.34457800  0.62202000  1
  In  In3  1  0.65542200  0.28005700  0.87798000  1
  In  In4  1  0.84435800  0.71894700  0.12280100  1
  In  In5  1  0.28105300  0.15564200  0.37719900  1
  In  In6  1  0.15564200  0.28105300  0.87719900  1
  In  In7  1  0.71894600  0.84435800  0.62280100  1
  Hg  Hg0  1  0.06561100  0.43974400  0.25000200  1
  Hg  Hg1  1  0.56025600  0.93438900  0.24999800  1
  Hg  Hg2  1  0.93438900  0.56025600  0.74999800  1
  Hg  Hg3  1  0.43974400  0.06561100  0.75000200  1
  Hg  Hg4  1  0.06447300  0.93552700  0.25000000  1
  Hg  Hg5  1  0.93552700  0.06447300  0.75000000  1
  Hg  Hg6  1  0.55960800  0.44039200  0.25000000  1
  Hg  Hg7  1  0.44039200  0.55960800  0.75000000  1
  S  S0  1  0.11052400  0.73557500  0.05650800  1
  S  S1  1  0.26442500  0.88947600  0.44349200  1
  S  S2  1  0.88947600  0.26442500  0.94349200  1
  S  S3  1  0.73557500  0.11052400  0.55650800  1
  S  S4  1  0.33047900  0.44462600  0.17849800  1
  S  S5  1  0.55537400  0.66952100  0.32150200  1
  S  S6  1  0.66952100  0.55537400  0.82150200  1
  S  S7  1  0.44462600  0.33047900  0.67849800  1
  S  S8  1  0.03349700  0.66981200  0.32120600  1
  S  S9  1  0.33018800  0.96650300  0.17879400  1
  S  S10  1  0.96650300  0.33018800  0.67879400  1
  S  S11  1  0.66981200  0.03349700  0.82120600  1
  S  S12  1  0.26365000  0.38878500  0.44351400  1
  S  S13  1  0.61121500  0.73635000  0.05648600  1
  S  S14  1  0.73635000  0.61121500  0.55648600  1
  S  S15  1  0.38878500  0.26365000  0.94351400  1
  S  S16  1  0.83002900  0.44477300  0.18001800  1
  S  S17  1  0.55522700  0.16997100  0.31998200  1
  S  S18  1  0.16997100  0.55522700  0.81998200  1
  S  S19  1  0.44477300  0.83002900  0.68001800  1
  S  S20  1  0.03472400  0.17005100  0.32027300  1
  S  S21  1  0.82994900  0.96527600  0.17972700  1
  S  S22  1  0.96527600  0.82994900  0.67972700  1
  S  S23  1  0.17005100  0.03472400  0.82027300  1
loop_
_geom_bond_atom_site_label_1
_geom_bond_atom_site_label_2
_geom_bond_distance
_geom_bond_site_symmetry_2
Cs0 S2 3.611927 1_454
Cs0 S15 3.617503 1_554
Cs0 S4 3.636779 1_555
Cs0 S9 3.641062 1_545
Cs0 S16 3.653731 1_455
Cs0 S21 3.654745 1_445
Cs0 S0 4.140085 1_555
Cs0 S0 4.151342 1_545
Cs1 S3 3.611927 1_565
Cs1 S14 3.617503 1_555
Cs1 S5 3.636779 1_555
Cs1 S8 3.641062 1_655
Cs1 S17 3.653731 1_565
Cs1 S20 3.654745 1_665
Cs1 S1 4.140085 1_555
Cs1 S1 4.151342 1_655
Cs2 S0 3.611927 1_656
Cs2 S13 3.617503 1_556
Cs2 S6 3.636779 1_555
Cs2 S11 3.641062 1_565
Cs2 S18 3.653731 1_655
Cs2 S23 3.654745 1_665
Cs2 S2 4.140085 1_555
Cs2 S2 4.151342 1_565
Cs3 S1 3.611927 1_545
Cs3 S12 3.617503 1_555
Cs3 S7 3.636779 1_555
Cs3 S10 3.641062 1_455
Cs3 S19 3.653731 1_545
Cs3 S22 3.654745 1_445
Cs3 S3 4.140085 1_555
Cs3 S3 4.151342 1_455
Cs4 S2 3.618674 1_554
Cs4 S15 3.621208 1_554
Cs4 S4 3.635214 1_555
Cs4 S9 3.637933 1_545
Cs4 S21 3.650122 1_545
Cs4 S16 3.656226 1_555
Cs4 S13 4.141094 1_545
Cs4 S13 4.150982 1_555
Cs5 S3 3.618674 1_555
Cs5 S14 3.621208 1_555
Cs5 S5 3.635214 1_555
Cs5 S8 3.637933 1_655
Cs5 S20 3.650122 1_655
Cs5 S17 3.656226 1_555
Cs5 S12 4.141094 1_655
Cs5 S12 4.150982 1_555
Cs6 S0 3.618674 1_556
Cs6 S13 3.621208 1_556
Cs6 S6 3.635214 1_555
Cs6 S11 3.637933 1_565
Cs6 S23 3.650122 1_565
Cs6 S18 3.656226 1_555
Cs6 S15 4.141094 1_565
Cs6 S15 4.150982 1_555
Cs7 S1 3.618674 1_555
Cs7 S12 3.621208 1_555
Cs7 S7 3.635214 1_555
Cs7 S10 3.637933 1_455
Cs7 S22 3.650122 1_455
Cs7 S19 3.656226 1_555
Cs7 S14 4.141094 1_455
Cs7 S14 4.150982 1_555
In0 S8 2.492238 1_555
In0 S5 2.492280 1_555
In0 S12 2.525485 1_555
In0 S1 2.526179 1_555
In1 S9 2.492238 1_555
In1 S4 2.492280 1_555
In1 S13 2.525485 1_555
In1 S0 2.526179 1_555
In2 S10 2.492238 1_555
In2 S7 2.492280 1_555
In2 S14 2.525485 1_555
In2 S3 2.526179 1_555
In3 S11 2.492238 1_555
In3 S6 2.492280 1_555
In3 S15 2.525485 1_555
In3 S2 2.526179 1_555
In4 S16 2.491195 1_555
In4 S21 2.492582 1_555
In4 S0 2.530840 1_655
In4 S13 2.531763 1_555
In5 S17 2.491195 1_555
In5 S20 2.492582 1_555
In5 S1 2.530840 1_545
In5 S12 2.531763 1_555
In6 S18 2.491195 1_555
In6 S23 2.492582 1_555
In6 S2 2.530840 1_455
In6 S15 2.531763 1_555
In7 S19 2.491188 1_555
In7 S22 2.492589 1_555
In7 S3 2.530840 1_565
In7 S14 2.531763 1_555
Hg0 S4 2.585356 1_555
Hg0 S8 2.587198 1_555
Hg0 S20 2.602389 1_555
Hg0 S16 2.604298 1_455
Hg1 S5 2.585356 1_555
Hg1 S9 2.587198 1_555
Hg1 S21 2.602389 1_555
Hg1 S17 2.604298 1_565
Hg2 S6 2.585356 1_555
Hg2 S10 2.587198 1_555
Hg2 S22 2.602389 1_555
Hg2 S18 2.604298 1_655
Hg3 S7 2.585356 1_555
Hg3 S11 2.587198 1_555
Hg3 S23 2.602389 1_555
Hg3 S19 2.604298 1_545
Hg4 S8 2.587391 1_555
Hg4 S9 2.587391 1_555
Hg4 S20 2.601535 1_565
Hg4 S21 2.601535 1_455
Hg5 S10 2.587391 1_555
Hg5 S11 2.587391 1_555
Hg5 S23 2.601535 1_655
Hg5 S22 2.601535 1_545
Hg6 S5 2.585432 1_555
Hg6 S4 2.585432 1_555
Hg6 S17 2.603684 1_555
Hg6 S16 2.603684 1_555
Hg7 S6 2.585432 1_555
Hg7 S7 2.585432 1_555
Hg7 S19 2.603684 1_555
Hg7 S18 2.603684 1_555
