# generated using pymatgen
data_N2
_symmetry_space_group_name_H-M   'P 1'
_cell_length_a   3.44975238
_cell_length_b   8.30405354
_cell_length_c   8.23767480
_cell_angle_alpha   90.00000000
_cell_angle_beta   90.00000000
_cell_angle_gamma   90.00000000
_symmetry_Int_Tables_number   1
_chemical_formula_structural   N2
_chemical_formula_sum   N16
_cell_volume   235.98408070
_cell_formula_units_Z   8
loop_
 _symmetry_equiv_pos_site_id
 _symmetry_equiv_pos_as_xyz
  1  'x, y, z'
loop_
 _atom_site_type_symbol
 _atom_site_label
 _atom_site_symmetry_multiplicity
 _atom_site_fract_x
 _atom_site_fract_y
 _atom_site_fract_z
 _atom_site_occupancy
  N  N0  1  0.00000000  0.50000000  0.50000000  1
  N  N1  1  0.00000000  0.00000000  -0.00000000  1
  N  N2  1  0.00000000  0.50000000  -0.00000000  1
  N  N3  1  0.00000000  0.00000000  0.50000000  1
  N  N4  1  0.00000000  0.50000000  0.35606509  1
  N  N5  1  0.00000000  0.00000000  0.14393491  1
  N  N6  1  0.00000000  0.50000000  0.64393491  1
  N  N7  1  0.00000000  0.00000000  0.85606509  1
  N  N8  1  0.91513526  0.63820837  -0.00000000  1
  N  N9  1  0.08486474  0.36179163  -0.00000000  1
  N  N10  1  0.91513526  0.86179163  0.50000000  1
  N  N11  1  0.08486474  0.13820837  0.50000000  1
  N  N12  1  0.08434911  0.75000000  0.25000000  1
  N  N13  1  0.91565089  0.25000000  0.25000000  1
  N  N14  1  0.91565089  0.25000000  0.75000000  1
  N  N15  1  0.08434911  0.75000000  0.75000000  1
loop_
_geom_bond_atom_site_label_1
_geom_bond_atom_site_label_2
_geom_bond_distance
_geom_bond_site_symmetry_2
N0 N4 1.185689 1_555
N0 N6 1.185689 1_555
N1 N5 1.185689 1_555
N1 N7 1.185689 1_554
N2 N9 1.184441 1_555
N2 N8 1.184441 1_455
N10 N3 1.184441 1_665
N11 N3 1.184441 1_555
