# generated using pymatgen
data_CaNb(O6F)2
_symmetry_space_group_name_H-M   'P 1'
_cell_length_a   7.59644815
_cell_length_b   7.59644815
_cell_length_c   7.59644815
_cell_angle_alpha   60.00000000
_cell_angle_beta   60.00000000
_cell_angle_gamma   60.00000000
_symmetry_Int_Tables_number   1
_chemical_formula_structural   CaNb(O6F)2
_chemical_formula_sum   'Ca2 Nb2 O24 F4'
_cell_volume   309.96791060
_cell_formula_units_Z   2
loop_
 _symmetry_equiv_pos_site_id
 _symmetry_equiv_pos_as_xyz
  1  'x, y, z'
loop_
 _atom_site_type_symbol
 _atom_site_label
 _atom_site_symmetry_multiplicity
 _atom_site_fract_x
 _atom_site_fract_y
 _atom_site_fract_z
 _atom_site_occupancy
  Ca  Ca0  1  0.00000000  0.00000000  0.00000000  1
  Ca  Ca1  1  0.75000000  0.75000000  0.75000000  1
  Nb  Nb0  1  0.50000000  0.50000000  0.50000000  1
  Nb  Nb1  1  0.25000000  0.25000000  0.25000000  1
  O  O0  1  0.52208400  0.52208400  0.18815400  1
  O  O1  1  0.76767800  0.18815400  0.52208400  1
  O  O2  1  0.18815400  0.76767800  0.52208400  1
  O  O3  1  0.52208400  0.18815400  0.52208400  1
  O  O4  1  0.98232200  0.22791600  0.56184600  1
  O  O5  1  0.22791600  0.22791600  0.56184600  1
  O  O6  1  0.52208400  0.52208400  0.76767800  1
  O  O7  1  0.18815400  0.52208400  0.76767800  1
  O  O8  1  0.22791600  0.56184600  0.22791600  1
  O  O9  1  0.98232200  0.56184600  0.22791600  1
  O  O10  1  0.76767800  0.52208400  0.18815400  1
  O  O11  1  0.22791600  0.98232200  0.22791600  1
  O  O12  1  0.56184600  0.98232200  0.22791600  1
  O  O13  1  0.52208400  0.76767800  0.52208400  1
  O  O14  1  0.56184600  0.22791600  0.98232200  1
  O  O15  1  0.22791600  0.22791600  0.98232200  1
  O  O16  1  0.18815400  0.52208400  0.52208400  1
  O  O17  1  0.52208400  0.18815400  0.76767800  1
  O  O18  1  0.76767800  0.52208400  0.52208400  1
  O  O19  1  0.52208400  0.76767800  0.18815400  1
  O  O20  1  0.22791600  0.56184600  0.98232200  1
  O  O21  1  0.56184600  0.22791600  0.22791600  1
  O  O22  1  0.22791600  0.98232200  0.56184600  1
  O  O23  1  0.98232200  0.22791600  0.22791600  1
  F  F0  1  0.87500000  0.87500000  0.87500000  1
  F  F1  1  0.37500000  0.87500000  0.87500000  1
  F  F2  1  0.87500000  0.37500000  0.87500000  1
  F  F3  1  0.87500000  0.87500000  0.37500000  1
loop_
_geom_bond_atom_site_label_1
_geom_bond_atom_site_label_2
_geom_bond_distance
_geom_bond_site_symmetry_2
Ca0 F1 2.325928 1_544
Ca0 F2 2.325928 1_454
Ca0 F0 2.325928 1_444
Ca0 F3 2.325928 1_445
Ca0 O15 2.923314 1_554
Ca0 O22 2.923314 1_544
Ca0 O5 2.923314 1_554
Ca0 O23 2.923314 1_455
Ca0 O11 2.923314 1_545
Ca0 O4 2.923314 1_454
Ca0 O8 2.923314 1_545
Ca0 O9 2.923314 1_445
Ca0 O21 2.923314 1_455
Ca0 O12 2.923314 1_445
Ca0 O20 2.923314 1_544
Ca0 O14 2.923314 1_454
Ca1 F1 2.325928 1_555
Ca1 F2 2.325928 1_555
Ca1 F0 2.325928 1_555
Ca1 F3 2.325928 1_555
Ca1 O7 2.923314 1_655
Ca1 O2 2.923314 1_655
Ca1 O0 2.923314 1_556
Ca1 O3 2.923314 1_565
Ca1 O19 2.923314 1_556
Ca1 O10 2.923314 1_556
Ca1 O16 2.923314 1_655
Ca1 O17 2.923314 1_565
Ca1 O1 2.923314 1_565
Ca1 O18 2.923314 1_555
Ca1 O6 2.923314 1_555
Ca1 O13 2.923314 1_555
Nb0 O13 2.213911 1_555
Nb0 O1 2.213911 1_555
Nb0 O10 2.213911 1_555
Nb0 O2 2.213911 1_555
Nb0 O18 2.213911 1_555
Nb0 O6 2.213911 1_555
Nb0 O7 2.213911 1_555
Nb0 O19 2.213911 1_555
Nb0 O3 2.213911 1_555
Nb0 O0 2.213911 1_555
Nb0 O16 2.213911 1_555
Nb0 O17 2.213911 1_555
Nb1 O20 2.213911 1_554
Nb1 O4 2.213911 1_455
Nb1 O9 2.213911 1_455
Nb1 O12 2.213911 1_545
Nb1 O14 2.213911 1_554
Nb1 O8 2.213911 1_555
Nb1 O15 2.213911 1_554
Nb1 O5 2.213911 1_555
Nb1 O22 2.213911 1_545
Nb1 O21 2.213911 1_555
Nb1 O23 2.213911 1_455
Nb1 O11 2.213911 1_545
O0 O10 1.865642 1_555
O0 O19 1.865642 1_555
O0 O21 1.979228 1_555
O0 O8 1.979228 1_555
O1 O17 1.865642 1_555
O1 O3 1.865642 1_555
O1 O23 1.979228 1_555
O1 O4 1.979228 1_555
O2 O7 1.865642 1_555
O2 O22 1.979228 1_555
O3 O5 1.979228 1_555
O4 O5 1.865642 1_655
O8 O9 1.865642 1_455
O10 O19 1.865642 1_555
O10 O23 1.979228 1_555
O10 O9 1.979228 1_555
O11 O15 1.865642 1_564
O11 O23 1.865642 1_465
O11 O2 1.979228 1_555
O11 O19 1.979228 1_555
O12 O14 1.865642 1_564
O12 O21 1.865642 1_565
O12 O13 1.979228 1_555
O12 O19 1.979228 1_555
O13 O18 1.865642 1_555
O13 O6 1.865642 1_555
O13 O22 1.979228 1_555
O14 O21 1.865642 1_556
O14 O6 1.979228 1_555
O14 O17 1.979228 1_555
O15 O23 1.865642 1_456
O15 O7 1.979228 1_555
O15 O17 1.979228 1_555
O16 O2 1.865642 1_555
O16 O7 1.865642 1_555
O16 O8 1.979228 1_555
O16 O5 1.979228 1_555
O17 O3 1.865642 1_555
O18 O6 1.865642 1_555
O18 O9 1.979228 1_555
O18 O4 1.979228 1_555
O20 O9 1.865642 1_456
O20 O8 1.865642 1_556
O20 O6 1.979228 1_555
O20 O7 1.979228 1_555
O21 O3 1.979228 1_555
O22 O4 1.865642 1_465
O22 O5 1.865642 1_565
