# generated using pymatgen
data_Mg6Si5
_symmetry_space_group_name_H-M   'P 1'
_cell_length_a   4.22805900
_cell_length_b   6.86064627
_cell_length_c   14.33442902
_cell_angle_alpha   87.98484593
_cell_angle_beta   88.31063555
_cell_angle_gamma   89.59161466
_symmetry_Int_Tables_number   1
_chemical_formula_structural   Mg6Si5
_chemical_formula_sum   'Mg12 Si10'
_cell_volume   415.35641044
_cell_formula_units_Z   2
loop_
 _symmetry_equiv_pos_site_id
 _symmetry_equiv_pos_as_xyz
  1  'x, y, z'
loop_
 _atom_site_type_symbol
 _atom_site_label
 _atom_site_symmetry_multiplicity
 _atom_site_fract_x
 _atom_site_fract_y
 _atom_site_fract_z
 _atom_site_occupancy
  Mg  Mg0  1  0.57731200  0.37710300  0.04766800  1
  Mg  Mg1  1  0.54759800  0.82267900  0.43126600  1
  Mg  Mg2  1  0.08982100  0.23161200  0.72745500  1
  Mg  Mg3  1  0.56358800  0.98757400  0.21759100  1
  Mg  Mg4  1  0.55652000  0.47458400  0.28894800  1
  Mg  Mg5  1  0.59561800  0.50556100  0.80626300  1
  Mg  Mg6  1  0.06326400  0.99905000  0.55622300  1
  Mg  Mg7  1  0.03824000  0.50524700  0.48784900  1
  Mg  Mg8  1  0.06898600  0.64890300  0.14761500  1
  Mg  Mg9  1  0.58780500  0.04397700  0.88167900  1
  Mg  Mg10  1  0.09011600  0.68991100  0.92912000  1
  Mg  Mg11  1  0.07713900  0.04577800  0.05072700  1
  Si  Si0  1  0.54369100  0.22269500  0.44315600  1
  Si  Si1  1  0.59351600  0.29765300  0.60993300  1
  Si  Si2  1  0.08642900  0.30625800  0.90909900  1
  Si  Si3  1  0.06133400  0.27330000  0.19607100  1
  Si  Si4  1  0.05832300  0.76823000  0.32244700  1
  Si  Si5  1  0.46058100  0.66609200  0.61090100  1
  Si  Si6  1  0.10226100  0.76235000  0.74047500  1
  Si  Si7  1  0.05402400  0.12200600  0.35298800  1
  Si  Si8  1  0.57863200  0.79021100  0.04266500  1
  Si  Si9  1  0.60165000  0.96288500  0.69633300  1
loop_
_geom_bond_atom_site_label_1
_geom_bond_atom_site_label_2
_geom_bond_distance
_geom_bond_site_symmetry_2
Mg0 Si8 2.832614 1_555
Mg0 Si2 2.935323 1_654
Mg0 Si2 2.968944 1_554
Mg0 Si3 3.057756 1_655
Mg0 Si3 3.071440 1_555
Mg1 Si4 2.658286 1_655
Mg1 Si4 2.663533 1_555
Mg1 Si0 2.755533 1_565
Mg1 Si5 2.770403 1_555
Mg1 Mg6 2.960876 1_555
Mg1 Si7 3.121878 1_565
Mg1 Si7 3.133675 1_665
Mg1 Mg6 3.137890 1_655
Mg2 Si2 2.670866 1_555
Mg2 Si1 2.706873 1_555
Mg2 Si1 2.754579 1_455
Mg2 Si9 2.832768 1_445
Mg2 Si9 2.867954 1_545
Mg2 Mg6 2.979458 1_545
Mg2 Si6 3.218432 1_545
Mg3 Si3 2.888723 1_665
Mg3 Si8 2.890153 1_555
Mg3 Si3 2.895524 1_565
Mg3 Si4 2.963930 1_555
Mg3 Si4 2.980040 1_655
Mg3 Si7 3.018314 1_565
Mg3 Si7 3.050852 1_665
Mg4 Si0 2.757027 1_555
Mg4 Si3 2.855658 1_655
Mg4 Si3 2.897894 1_555
Mg4 Si4 2.945174 1_555
Mg4 Si4 2.996606 1_655
Mg5 Si6 2.879401 1_555
Mg5 Si2 2.889138 1_655
Mg5 Si2 2.896651 1_555
Mg5 Si6 2.898197 1_655
Mg5 Si5 3.041315 1_555
Mg5 Si1 3.199809 1_555
Mg6 Si9 2.764998 1_455
Mg6 Si5 2.924274 1_555
Mg6 Si1 2.949067 1_465
Mg6 Si0 2.963538 1_565
Mg6 Si7 3.005594 1_565
Mg6 Si6 3.059439 1_555
Mg6 Si9 3.082750 1_555
Mg6 Si0 3.129523 1_465
Mg6 Si1 3.177105 1_565
Mg7 Si5 2.805056 1_555
Mg7 Si1 2.880177 1_455
Mg7 Si4 2.928022 1_555
Mg7 Si0 2.946664 1_555
Mg7 Si0 2.960487 1_455
Mg7 Si5 3.184124 1_455
Mg7 Si1 3.259160 1_555
Mg8 Si3 2.645334 1_555
Mg8 Si4 2.662698 1_555
Mg8 Si8 2.748472 1_455
Mg8 Si8 2.753610 1_555
Mg9 Si9 2.732399 1_545
Mg9 Si2 2.798639 1_555
Mg9 Si2 2.826592 1_655
Mg9 Si8 2.840938 1_546
Mg10 Si2 2.657926 1_555
Mg10 Si6 2.731217 1_555
Mg10 Si8 2.765754 1_456
Mg10 Si8 2.772369 1_556
Mg11 Si3 2.645883 1_555
Mg11 Si2 2.656655 1_554
Mg11 Si8 2.744133 1_545
Mg11 Si8 2.758872 1_445
Si0 Si1 2.478259 1_555
Si0 Si7 2.583609 1_555
Si0 Si7 2.584690 1_655
Si1 Si9 2.571252 1_545
Si1 Si5 2.585976 1_555
Si3 Si7 2.443344 1_555
Si4 Si7 2.481247 1_565
Si5 Si6 2.467235 1_555
Si5 Si9 2.497452 1_555
Si6 Si9 2.579305 1_555
Si6 Si9 2.597976 1_455
