# generated using pymatgen
data_Ba(TaN2)2
_symmetry_space_group_name_H-M   'P 1'
_cell_length_a   11.31410500
_cell_length_b   11.31410500
_cell_length_c   11.31410500
_cell_angle_alpha   90.00000000
_cell_angle_beta   90.00000000
_cell_angle_gamma   90.00000000
_symmetry_Int_Tables_number   1
_chemical_formula_structural   Ba(TaN2)2
_chemical_formula_sum   'Ba12 Ta24 N48'
_cell_volume   1448.30694960
_cell_formula_units_Z   12
loop_
 _symmetry_equiv_pos_site_id
 _symmetry_equiv_pos_as_xyz
  1  'x, y, z'
loop_
 _atom_site_type_symbol
 _atom_site_label
 _atom_site_symmetry_multiplicity
 _atom_site_fract_x
 _atom_site_fract_y
 _atom_site_fract_z
 _atom_site_occupancy
  Ba  Ba0  1  0.50000000  0.50000000  0.00000000  1
  Ba  Ba1  1  0.50000000  0.00000000  0.50000000  1
  Ba  Ba2  1  0.00000000  0.50000000  0.50000000  1
  Ba  Ba3  1  0.00000000  0.00000000  0.00000000  1
  Ba  Ba4  1  0.12072600  0.87927400  0.37927400  1
  Ba  Ba5  1  0.87927400  0.37927400  0.12072600  1
  Ba  Ba6  1  0.37927400  0.12072600  0.87927400  1
  Ba  Ba7  1  0.62072600  0.62072600  0.62072600  1
  Ba  Ba8  1  0.87927400  0.12072600  0.62072600  1
  Ba  Ba9  1  0.12072600  0.62072600  0.87927400  1
  Ba  Ba10  1  0.62072600  0.87927400  0.12072600  1
  Ba  Ba11  1  0.37927400  0.37927400  0.37927400  1
  Ta  Ta0  1  0.39156500  0.70649200  0.34881600  1
  Ta  Ta1  1  0.60843500  0.20649200  0.15118400  1
  Ta  Ta2  1  0.10843500  0.29350800  0.84881600  1
  Ta  Ta3  1  0.89156500  0.79350800  0.65118400  1
  Ta  Ta4  1  0.34881600  0.39156500  0.70649200  1
  Ta  Ta5  1  0.15118400  0.60843500  0.20649200  1
  Ta  Ta6  1  0.84881600  0.10843500  0.29350800  1
  Ta  Ta7  1  0.65118400  0.89156500  0.79350800  1
  Ta  Ta8  1  0.70649200  0.34881600  0.39156500  1
  Ta  Ta9  1  0.20649200  0.15118400  0.60843500  1
  Ta  Ta10  1  0.29350800  0.84881600  0.10843500  1
  Ta  Ta11  1  0.79350800  0.65118400  0.89156500  1
  Ta  Ta12  1  0.60843500  0.29350800  0.65118400  1
  Ta  Ta13  1  0.39156500  0.79350800  0.84881600  1
  Ta  Ta14  1  0.89156500  0.70649200  0.15118400  1
  Ta  Ta15  1  0.10843500  0.20649200  0.34881600  1
  Ta  Ta16  1  0.65118400  0.60843500  0.29350800  1
  Ta  Ta17  1  0.84881600  0.39156500  0.79350800  1
  Ta  Ta18  1  0.15118400  0.89156500  0.70649200  1
  Ta  Ta19  1  0.34881600  0.10843500  0.20649200  1
  Ta  Ta20  1  0.29350800  0.65118400  0.60843500  1
  Ta  Ta21  1  0.79350800  0.84881600  0.39156500  1
  Ta  Ta22  1  0.70649200  0.15118400  0.89156500  1
  Ta  Ta23  1  0.20649200  0.34881600  0.10843500  1
  N  N0  1  0.36262400  0.85832000  0.26593400  1
  N  N1  1  0.63737600  0.35832000  0.23406600  1
  N  N2  1  0.13737600  0.14168000  0.76593400  1
  N  N3  1  0.86262400  0.64168000  0.73406600  1
  N  N4  1  0.26593400  0.36262400  0.85832000  1
  N  N5  1  0.23406600  0.63737600  0.35832000  1
  N  N6  1  0.76593400  0.13737600  0.14168000  1
  N  N7  1  0.73406600  0.86262400  0.64168000  1
  N  N8  1  0.85832000  0.26593400  0.36262400  1
  N  N9  1  0.35832000  0.23406600  0.63737600  1
  N  N10  1  0.14168000  0.76593400  0.13737600  1
  N  N11  1  0.64168000  0.73406600  0.86262400  1
  N  N12  1  0.63737600  0.14168000  0.73406600  1
  N  N13  1  0.36262400  0.64168000  0.76593400  1
  N  N14  1  0.86262400  0.85832000  0.23406600  1
  N  N15  1  0.13737600  0.35832000  0.26593400  1
  N  N16  1  0.73406600  0.63737600  0.14168000  1
  N  N17  1  0.76593400  0.36262400  0.64168000  1
  N  N18  1  0.23406600  0.86262400  0.85832000  1
  N  N19  1  0.26593400  0.13737600  0.35832000  1
  N  N20  1  0.14168000  0.73406600  0.63737600  1
  N  N21  1  0.64168000  0.76593400  0.36262400  1
  N  N22  1  0.85832000  0.23406600  0.86262400  1
  N  N23  1  0.35832000  0.26593400  0.13737600  1
  N  N24  1  0.41909400  0.72925100  0.51654800  1
  N  N25  1  0.58090600  0.22925100  0.98345200  1
  N  N26  1  0.08090600  0.27074900  0.01654800  1
  N  N27  1  0.91909400  0.77074900  0.48345200  1
  N  N28  1  0.51654800  0.41909400  0.72925100  1
  N  N29  1  0.98345200  0.58090600  0.22925100  1
  N  N30  1  0.01654800  0.08090600  0.27074900  1
  N  N31  1  0.48345200  0.91909400  0.77074900  1
  N  N32  1  0.72925100  0.51654800  0.41909400  1
  N  N33  1  0.22925100  0.98345200  0.58090600  1
  N  N34  1  0.27074900  0.01654800  0.08090600  1
  N  N35  1  0.77074900  0.48345200  0.91909400  1
  N  N36  1  0.58090600  0.27074900  0.48345200  1
  N  N37  1  0.41909400  0.77074900  0.01654800  1
  N  N38  1  0.91909400  0.72925100  0.98345200  1
  N  N39  1  0.08090600  0.22925100  0.51654800  1
  N  N40  1  0.48345200  0.58090600  0.27074900  1
  N  N41  1  0.01654800  0.41909400  0.77074900  1
  N  N42  1  0.98345200  0.91909400  0.72925100  1
  N  N43  1  0.51654800  0.08090600  0.22925100  1
  N  N44  1  0.27074900  0.48345200  0.58090600  1
  N  N45  1  0.77074900  0.01654800  0.41909400  1
  N  N46  1  0.72925100  0.98345200  0.91909400  1
  N  N47  1  0.22925100  0.51654800  0.08090600  1
loop_
_geom_bond_atom_site_label_1
_geom_bond_atom_site_label_2
_geom_bond_distance
_geom_bond_site_symmetry_2
Ba0 N47 3.202604 1_555
Ba0 N28 3.202604 1_554
Ba0 N37 3.202604 1_555
Ba0 N25 3.202604 1_554
Ba0 N35 3.202604 1_554
Ba0 N40 3.202604 1_555
Ba0 N23 3.463896 1_555
Ba0 N13 3.463896 1_554
Ba0 N16 3.463896 1_555
Ba0 N4 3.463896 1_554
Ba0 N11 3.463896 1_554
Ba0 N1 3.463896 1_555
Ba1 N24 3.202604 1_545
Ba1 N36 3.202604 1_555
Ba1 N43 3.202604 1_555
Ba1 N45 3.202604 1_555
Ba1 N31 3.202604 1_545
Ba1 N33 3.202604 1_545
Ba1 N19 3.463896 1_555
Ba1 N9 3.463896 1_555
Ba1 N12 3.463896 1_555
Ba1 N0 3.463896 1_545
Ba1 N21 3.463896 1_545
Ba1 N7 3.463896 1_545
Ba2 N41 3.202604 1_555
Ba2 N27 3.202604 1_455
Ba2 N39 3.202604 1_555
Ba2 N32 3.202604 1_455
Ba2 N44 3.202604 1_555
Ba2 N29 3.202604 1_455
Ba2 N15 3.463896 1_555
Ba2 N5 3.463896 1_555
Ba2 N20 3.463896 1_555
Ba2 N8 3.463896 1_455
Ba2 N17 3.463896 1_455
Ba2 N3 3.463896 1_455
Ba3 N38 3.202604 1_444
Ba3 N26 3.202604 1_555
Ba3 N30 3.202604 1_555
Ba3 N34 3.202604 1_555
Ba3 N42 3.202604 1_444
Ba3 N46 3.202604 1_444
Ba3 N2 3.463896 1_554
Ba3 N10 3.463896 1_545
Ba3 N14 3.463896 1_445
Ba3 N22 3.463896 1_454
Ba3 N18 3.463896 1_544
Ba3 N6 3.463896 1_455
Ba4 N30 2.846261 1_565
Ba4 N27 2.846261 1_455
Ba4 N33 2.846261 1_555
Ba4 N5 3.031666 1_555
Ba4 N0 3.031666 1_555
Ba4 N10 3.031666 1_555
Ba4 N19 3.358995 1_565
Ba4 N20 3.358995 1_555
Ba4 N14 3.358995 1_455
Ba5 N26 2.846261 1_655
Ba5 N29 2.846261 1_555
Ba5 N35 2.846261 1_554
Ba5 N1 3.031666 1_555
Ba5 N6 3.031666 1_555
Ba5 N8 3.031666 1_555
Ba5 N15 3.358995 1_655
Ba5 N22 3.358995 1_554
Ba5 N16 3.358995 1_555
Ba6 N34 2.846261 1_556
Ba6 N25 2.846261 1_555
Ba6 N31 2.846261 1_545
Ba6 N9 3.031666 1_555
Ba6 N4 3.031666 1_555
Ba6 N2 3.031666 1_555
Ba6 N23 3.358995 1_556
Ba6 N18 3.358995 1_545
Ba6 N12 3.358995 1_555
Ba7 N28 2.846261 1_555
Ba7 N32 2.846261 1_555
Ba7 N24 2.846261 1_555
Ba7 N11 3.031666 1_555
Ba7 N7 3.031666 1_555
Ba7 N3 3.031666 1_555
Ba7 N17 3.358995 1_555
Ba7 N13 3.358995 1_555
Ba7 N21 3.358995 1_555
Ba8 N39 2.846261 1_655
Ba8 N45 2.846261 1_555
Ba8 N42 2.846261 1_545
Ba8 N22 3.031666 1_555
Ba8 N12 3.031666 1_555
Ba8 N17 3.031666 1_555
Ba8 N2 3.358995 1_655
Ba8 N8 3.358995 1_555
Ba8 N7 3.358995 1_545
Ba9 N47 2.846261 1_556
Ba9 N41 2.846261 1_555
Ba9 N38 2.846261 1_455
Ba9 N18 3.031666 1_555
Ba9 N20 3.031666 1_555
Ba9 N13 3.031666 1_555
Ba9 N10 3.358995 1_556
Ba9 N4 3.358995 1_555
Ba9 N3 3.358995 1_455
Ba10 N43 2.846261 1_565
Ba10 N37 2.846261 1_555
Ba10 N46 2.846261 1_554
Ba10 N14 3.031666 1_555
Ba10 N16 3.031666 1_555
Ba10 N21 3.031666 1_555
Ba10 N6 3.358995 1_565
Ba10 N0 3.358995 1_555
Ba10 N11 3.358995 1_554
Ba11 N36 2.846261 1_555
Ba11 N40 2.846261 1_555
Ba11 N44 2.846261 1_555
Ba11 N19 3.031666 1_555
Ba11 N15 3.031666 1_555
Ba11 N23 3.031666 1_555
Ba11 N9 3.358995 1_555
Ba11 N5 3.358995 1_555
Ba11 N1 3.358995 1_555
N0 Ta10 1.948960 1_555
N0 Ta0 1.984287 1_555
N1 Ta8 1.948960 1_555
N1 Ta1 1.984287 1_555
N2 Ta9 1.948960 1_555
N2 Ta2 1.984287 1_555
N3 Ta11 1.948960 1_555
N3 Ta3 1.984287 1_555
N4 Ta2 1.948960 1_555
N4 Ta4 1.984287 1_555
N5 Ta0 1.948960 1_555
N5 Ta5 1.984287 1_555
N6 Ta1 1.948960 1_555
N6 Ta6 1.984287 1_555
N7 Ta3 1.948960 1_555
N7 Ta7 1.984287 1_555
N8 Ta6 1.948960 1_555
N8 Ta8 1.984287 1_555
N9 Ta4 1.948960 1_555
N9 Ta9 1.984287 1_555
N10 Ta5 1.948960 1_555
N10 Ta10 1.984287 1_555
N11 Ta7 1.948960 1_555
N11 Ta11 1.984287 1_555
N12 Ta22 1.948960 1_555
N12 Ta12 1.984287 1_555
N13 Ta20 1.948960 1_555
N13 Ta13 1.984287 1_555
N14 Ta21 1.948960 1_555
N14 Ta14 1.984287 1_555
N15 Ta23 1.948960 1_555
N15 Ta15 1.984287 1_555
N16 Ta14 1.948960 1_555
N16 Ta16 1.984287 1_555
N17 Ta12 1.948960 1_555
N17 Ta17 1.984287 1_555
N18 Ta13 1.948960 1_555
N18 Ta18 1.984287 1_555
N19 Ta15 1.948960 1_555
N19 Ta19 1.984287 1_555
N20 Ta18 1.948960 1_555
N20 Ta20 1.984287 1_555
N21 Ta16 1.948960 1_555
N21 Ta21 1.984287 1_555
N22 Ta17 1.948960 1_555
N22 Ta22 1.984287 1_555
N23 Ta19 1.948960 1_555
N23 Ta23 1.984287 1_555
N24 Ta0 1.940290 1_555
N24 Ta20 1.969744 1_555
N25 Ta1 1.940290 1_556
N25 Ta22 1.969744 1_555
N26 Ta2 1.940290 1_554
N26 Ta23 1.969744 1_555
N27 Ta3 1.940290 1_555
N27 Ta21 1.969744 1_555
N28 Ta4 1.940290 1_555
N28 Ta12 1.969744 1_555
N29 Ta5 1.940290 1_655
N29 Ta14 1.969744 1_555
N30 Ta6 1.940290 1_455
N30 Ta15 1.969744 1_555
N31 Ta7 1.940290 1_555
N31 Ta13 1.969744 1_555
N32 Ta8 1.940290 1_555
N32 Ta16 1.969744 1_555
N33 Ta9 1.940290 1_565
N33 Ta18 1.969744 1_555
N34 Ta10 1.940290 1_545
N34 Ta19 1.969744 1_555
N35 Ta11 1.940290 1_555
N35 Ta17 1.969744 1_555
N36 Ta12 1.940290 1_555
N36 Ta8 1.969744 1_555
N37 Ta13 1.940290 1_554
N37 Ta10 1.969744 1_555
N38 Ta14 1.940290 1_556
N38 Ta11 1.969744 1_555
N39 Ta15 1.940290 1_555
N39 Ta9 1.969744 1_555
N40 Ta16 1.940290 1_555
N40 Ta0 1.969744 1_555
N41 Ta17 1.940290 1_455
N41 Ta2 1.969744 1_555
N42 Ta18 1.940290 1_655
N42 Ta3 1.969744 1_555
N43 Ta19 1.940290 1_555
N43 Ta1 1.969744 1_555
N44 Ta20 1.940290 1_555
N44 Ta4 1.969744 1_555
N45 Ta21 1.940290 1_545
N45 Ta6 1.969744 1_555
N46 Ta22 1.940290 1_565
N46 Ta7 1.969744 1_555
N47 Ta23 1.940290 1_555
N47 Ta5 1.969744 1_555
