# generated using pymatgen
data_Zn(Fe2O3)2
_symmetry_space_group_name_H-M   'P 1'
_cell_length_a   5.27670960
_cell_length_b   5.27670960
_cell_length_c   15.39688400
_cell_angle_alpha   90.00000000
_cell_angle_beta   90.00000000
_cell_angle_gamma   147.27998997
_symmetry_Int_Tables_number   1
_chemical_formula_structural   Zn(Fe2O3)2
_chemical_formula_sum   'Zn2 Fe8 O12'
_cell_volume   231.73006599
_cell_formula_units_Z   2
loop_
 _symmetry_equiv_pos_site_id
 _symmetry_equiv_pos_as_xyz
  1  'x, y, z'
loop_
 _atom_site_type_symbol
 _atom_site_label
 _atom_site_symmetry_multiplicity
 _atom_site_fract_x
 _atom_site_fract_y
 _atom_site_fract_z
 _atom_site_occupancy
  Zn  Zn0  1  0.34739200  0.65260800  0.75000000  1
  Zn  Zn1  1  0.65260800  0.34739200  0.25000000  1
  Fe  Fe0  1  0.13495500  0.86504500  0.04692800  1
  Fe  Fe1  1  0.60010700  0.39989300  0.63654300  1
  Fe  Fe2  1  0.86504500  0.13495500  0.95307200  1
  Fe  Fe3  1  0.39989300  0.60010700  0.36345700  1
  Fe  Fe4  1  0.13495500  0.86504500  0.45307200  1
  Fe  Fe5  1  0.86504500  0.13495500  0.54692800  1
  Fe  Fe6  1  0.39989300  0.60010700  0.13654300  1
  Fe  Fe7  1  0.60010700  0.39989300  0.86345700  1
  O  O0  1  0.50000000  0.50000000  0.50000000  1
  O  O1  1  0.50000000  0.50000000  0.00000000  1
  O  O2  1  0.96510000  0.03490000  0.83679100  1
  O  O3  1  0.03490000  0.96510000  0.16320900  1
  O  O4  1  0.03490000  0.96510000  0.33679100  1
  O  O5  1  0.96510000  0.03490000  0.66320900  1
  O  O6  1  0.21194200  0.78805800  0.91721300  1
  O  O7  1  0.78805800  0.21194200  0.08278700  1
  O  O8  1  0.78805800  0.21194200  0.41721300  1
  O  O9  1  0.21194200  0.78805800  0.58278700  1
  O  O10  1  0.70189400  0.29810600  0.75000000  1
  O  O11  1  0.29810600  0.70189400  0.25000000  1
loop_
_geom_bond_atom_site_label_1
_geom_bond_atom_site_label_2
_geom_bond_distance
_geom_bond_site_symmetry_2
Fe0 O3 2.057163 1_555
Fe0 O6 2.143963 1_554
Fe0 O1 2.144452 1_455
Fe0 O1 2.144452 1_565
Fe0 O7 2.217538 1_565
Fe0 O7 2.217538 1_455
Fe1 O10 2.028290 1_555
Fe1 O9 2.043670 1_545
Fe1 O9 2.043670 1_655
Fe1 O5 2.060731 1_565
Fe1 O5 2.060731 1_455
Fe1 O0 2.333966 1_555
Fe2 O2 2.057163 1_555
Fe2 O7 2.143963 1_556
Fe2 O1 2.144452 1_546
Fe2 O1 2.144452 1_656
Fe2 O6 2.217538 1_655
Fe2 O6 2.217538 1_545
Fe3 O11 2.028290 1_555
Fe3 O8 2.043670 1_455
Fe3 O8 2.043670 1_565
Fe3 O4 2.060731 1_655
Fe3 O4 2.060731 1_545
Fe3 O0 2.333966 1_555
Fe4 O4 2.057163 1_555
Fe4 O9 2.143963 1_555
Fe4 O0 2.144452 1_455
Fe4 O0 2.144452 1_565
Fe4 O8 2.217538 1_565
Fe4 O8 2.217538 1_455
Fe5 O5 2.057163 1_555
Fe5 O8 2.143963 1_555
Fe5 O0 2.144452 1_545
Fe5 O0 2.144452 1_655
Fe5 O9 2.217538 1_655
Fe5 O9 2.217538 1_545
Fe6 O11 2.028290 1_555
Fe6 O7 2.043670 1_455
Fe6 O7 2.043670 1_565
Fe6 O3 2.060731 1_655
Fe6 O3 2.060731 1_545
Fe6 O1 2.333966 1_555
Fe7 O10 2.028290 1_555
Fe7 O6 2.043670 1_545
Fe7 O6 2.043670 1_655
Fe7 O2 2.060731 1_565
Fe7 O2 2.060731 1_455
Fe7 O1 2.333966 1_556
O2 Zn0 2.327123 1_545
O2 Zn0 2.327123 1_655
O3 Zn1 2.327123 1_565
O3 Zn1 2.327123 1_455
O4 Zn1 2.327123 1_565
O4 Zn1 2.327123 1_455
O5 Zn0 2.327123 1_545
O5 Zn0 2.327123 1_655
O10 Zn0 2.092795 1_655
O10 Zn0 2.092795 1_545
O11 Zn1 2.092795 1_565
O11 Zn1 2.092795 1_455
