# generated using pymatgen
data_Pr2Al3Ge
_symmetry_space_group_name_H-M   'P 1'
_cell_length_a   4.34431381
_cell_length_b   4.33389733
_cell_length_c   7.51568718
_cell_angle_alpha   90.00000000
_cell_angle_beta   90.00000000
_cell_angle_gamma   90.00000000
_symmetry_Int_Tables_number   1
_chemical_formula_structural   Pr2Al3Ge
_chemical_formula_sum   'Pr2 Al3 Ge1'
_cell_volume   141.50393041
_cell_formula_units_Z   1
loop_
 _symmetry_equiv_pos_site_id
 _symmetry_equiv_pos_as_xyz
  1  'x, y, z'
loop_
 _atom_site_type_symbol
 _atom_site_label
 _atom_site_symmetry_multiplicity
 _atom_site_fract_x
 _atom_site_fract_y
 _atom_site_fract_z
 _atom_site_occupancy
  Pr  Pr0  1  -0.00000000  0.50000000  0.00520558  1
  Pr  Pr1  1  -0.00000000  0.00000000  0.49549213  1
  Al  Al0  1  0.50000000  0.00000000  0.83135668  1
  Al  Al1  1  0.50000000  0.00000000  0.16667747  1
  Al  Al2  1  0.50000000  0.50000000  0.66560779  1
  Ge  Ge0  1  0.50000000  0.50000000  0.33565935  1
loop_
_geom_bond_atom_site_label_1
_geom_bond_atom_site_label_2
_geom_bond_distance
_geom_bond_site_symmetry_2
Al0 Al2 2.499495 1_555
Al0 Al2 2.499495 1_545
Al0 Al1 2.520166 1_556
Al0 Pr1 3.330183 1_655
Al0 Pr1 3.330183 1_555
Al0 Pr0 3.334834 1_656
Al0 Pr0 3.334834 1_556
Al0 Pr0 3.334834 1_546
Al0 Pr0 3.334834 1_646
Al1 Ge0 2.511694 1_555
Al1 Ge0 2.511694 1_545
Al1 Pr1 3.290202 1_655
Al1 Pr1 3.290202 1_555
Al1 Pr0 3.299498 1_545
Al1 Pr0 3.299498 1_645
Al1 Pr0 3.299498 1_555
Al1 Pr0 3.299498 1_655
Al2 Ge0 2.479789 1_555
Al2 Pr1 3.323941 1_655
Al2 Pr1 3.323941 1_565
Al2 Pr1 3.323941 1_555
Al2 Pr1 3.323941 1_665
Al2 Pr0 3.351501 1_656
Al2 Pr0 3.351501 1_556
Ge0 Pr1 3.294987 1_655
Ge0 Pr1 3.294987 1_565
Ge0 Pr1 3.294987 1_555
Ge0 Pr1 3.294987 1_665
Ge0 Pr0 3.299465 1_555
Ge0 Pr0 3.299465 1_655
