# generated using pymatgen
data_BaEuYSbO6
_symmetry_space_group_name_H-M   'P 1'
_cell_length_a   5.95908133
_cell_length_b   5.97402481
_cell_length_c   8.43512849
_cell_angle_alpha   90.20971882
_cell_angle_beta   89.81545872
_cell_angle_gamma   89.70517807
_symmetry_Int_Tables_number   1
_chemical_formula_structural   BaEuYSbO6
_chemical_formula_sum   'Ba2 Eu2 Y2 Sb2 O12'
_cell_volume   300.28047810
_cell_formula_units_Z   2
loop_
 _symmetry_equiv_pos_site_id
 _symmetry_equiv_pos_as_xyz
  1  'x, y, z'
loop_
 _atom_site_type_symbol
 _atom_site_label
 _atom_site_symmetry_multiplicity
 _atom_site_fract_x
 _atom_site_fract_y
 _atom_site_fract_z
 _atom_site_occupancy
  Ba  Ba0  1  0.99578355  0.01772495  0.24982809  1
  Ba  Ba1  1  0.00421645  0.98227505  0.75017191  1
  Eu  Eu0  1  0.50382335  0.52738788  0.25109829  1
  Eu  Eu1  1  0.49617665  0.47261212  0.74890171  1
  Y  Y0  1  0.50000000  0.00000000  0.00000000  1
  Y  Y1  1  0.00000000  0.50000000  0.50000000  1
  Sb  Sb0  1  0.00000000  0.50000000  0.00000000  1
  Sb  Sb1  1  0.50000000  0.00000000  0.50000000  1
  O  O0  1  0.21143719  0.23952626  0.96837421  1
  O  O1  1  0.29782988  0.73098925  0.53394742  1
  O  O2  1  0.78856281  0.76047374  0.03162579  1
  O  O3  1  0.70217012  0.26901075  0.46605258  1
  O  O4  1  0.26600786  0.70500798  0.96326061  1
  O  O5  1  0.24028127  0.21342601  0.52785170  1
  O  O6  1  0.73399214  0.29499202  0.03673939  1
  O  O7  1  0.75971873  0.78657399  0.47214830  1
  O  O8  1  0.44916422  0.97728016  0.26402818  1
  O  O9  1  0.07338569  0.49783217  0.23528286  1
  O  O10  1  0.55083578  0.02271984  0.73597182  1
  O  O11  1  0.92661431  0.50216783  0.76471714  1
loop_
_geom_bond_atom_site_label_1
_geom_bond_atom_site_label_2
_geom_bond_distance
_geom_bond_site_symmetry_2
Ba0 O2 2.699595 1_545
Ba0 O8 2.714344 1_645
Ba0 O7 2.724790 1_545
Ba0 O6 2.901964 1_555
Ba0 O9 2.910528 1_655
Ba0 O3 2.928107 1_555
Ba0 O5 3.001485 1_655
Ba0 O0 3.010726 1_654
Ba0 O9 3.139631 1_645
Ba0 O8 3.269380 1_545
Ba0 O4 3.440501 1_644
Ba0 O1 3.455963 1_645
Ba1 O0 2.699595 1_565
Ba1 O10 2.714344 1_465
Ba1 O5 2.724790 1_565
Ba1 O4 2.901964 1_555
Ba1 O11 2.910528 1_455
Ba1 O1 2.928107 1_555
Ba1 O7 3.001485 1_455
Ba1 O2 3.010726 1_456
Ba1 O11 3.139631 1_465
Ba1 O10 3.269380 1_565
Ba1 O6 3.440501 1_466
Ba1 O3 3.455963 1_465
Eu0 O9 2.575841 1_555
Eu0 O6 2.650320 1_555
Eu0 O3 2.661331 1_555
Eu0 O8 2.707427 1_555
Eu0 O7 2.867224 1_555
Eu0 O2 2.875450 1_555
Eu0 O1 2.936522 1_555
Eu0 O4 3.009115 1_554
Eu1 O11 2.575841 1_555
Eu1 O4 2.650320 1_555
Eu1 O1 2.661331 1_555
Eu1 O10 2.707427 1_555
Eu1 O5 2.867224 1_555
Eu1 O0 2.875450 1_555
Eu1 O3 2.936522 1_555
Eu1 O6 3.009115 1_556
O0 Sb0 2.013625 1_556
O0 Y0 2.248575 1_556
O1 Sb1 2.034007 1_565
O1 Y1 2.271936 1_555
O2 Sb0 2.013625 1_655
O2 Y0 2.248575 1_565
O3 Sb1 2.034007 1_555
O3 Y1 2.271936 1_655
O4 Sb0 2.031826 1_556
O4 Y0 2.273778 1_566
O5 Sb1 2.012793 1_555
O5 Y1 2.239695 1_555
O6 Sb0 2.031826 1_655
O6 Y0 2.273778 1_555
O7 Sb1 2.012793 1_565
O7 Y1 2.239695 1_655
O8 Sb1 2.018520 1_565
O8 Y0 2.251335 1_565
O9 Sb0 2.033699 1_555
O9 Y1 2.273938 1_555
O10 Sb1 2.018520 1_555
O10 Y0 2.251335 1_556
O11 Sb0 2.033699 1_656
O11 Y1 2.273938 1_655
