# generated using pymatgen
data_EuTm2O4
_symmetry_space_group_name_H-M   'P 1'
_cell_length_a   3.36124500
_cell_length_b   9.96898400
_cell_length_c   11.83355400
_cell_angle_alpha   90.00000000
_cell_angle_beta   90.00000000
_cell_angle_gamma   90.00000000
_symmetry_Int_Tables_number   1
_chemical_formula_structural   EuTm2O4
_chemical_formula_sum   'Eu4 Tm8 O16'
_cell_volume   396.52106604
_cell_formula_units_Z   4
loop_
 _symmetry_equiv_pos_site_id
 _symmetry_equiv_pos_as_xyz
  1  'x, y, z'
loop_
 _atom_site_type_symbol
 _atom_site_label
 _atom_site_symmetry_multiplicity
 _atom_site_fract_x
 _atom_site_fract_y
 _atom_site_fract_z
 _atom_site_occupancy
  Eu  Eu0  1  0.25000000  0.74838900  0.14903200  1
  Eu  Eu1  1  0.75000000  0.25161100  0.85096800  1
  Eu  Eu2  1  0.75000000  0.75161100  0.64903200  1
  Eu  Eu3  1  0.25000000  0.24838900  0.35096800  1
  Tm  Tm0  1  0.25000000  0.57672900  0.88991400  1
  Tm  Tm1  1  0.75000000  0.42327100  0.11008600  1
  Tm  Tm2  1  0.75000000  0.92327100  0.38991400  1
  Tm  Tm3  1  0.25000000  0.07672900  0.61008600  1
  Tm  Tm4  1  0.25000000  0.07665800  0.11254100  1
  Tm  Tm5  1  0.75000000  0.92334200  0.88745900  1
  Tm  Tm6  1  0.75000000  0.42334200  0.61254100  1
  Tm  Tm7  1  0.25000000  0.57665800  0.38745900  1
  O  O0  1  0.25000000  0.98477300  0.28337500  1
  O  O1  1  0.75000000  0.01522700  0.71662500  1
  O  O2  1  0.75000000  0.51522700  0.78337500  1
  O  O3  1  0.25000000  0.48477300  0.21662500  1
  O  O4  1  0.25000000  0.57615800  0.57716200  1
  O  O5  1  0.75000000  0.42384200  0.42283800  1
  O  O6  1  0.75000000  0.92384200  0.07716200  1
  O  O7  1  0.25000000  0.07615800  0.92283800  1
  O  O8  1  0.25000000  0.78848200  0.82703700  1
  O  O9  1  0.75000000  0.21151800  0.17296300  1
  O  O10  1  0.75000000  0.71151800  0.32703700  1
  O  O11  1  0.25000000  0.28848200  0.67296300  1
  O  O12  1  0.25000000  0.87523600  0.51958200  1
  O  O13  1  0.75000000  0.12476400  0.48041800  1
  O  O14  1  0.75000000  0.62476400  0.01958200  1
  O  O15  1  0.25000000  0.37523600  0.98041800  1
loop_
_geom_bond_atom_site_label_1
_geom_bond_atom_site_label_2
_geom_bond_distance
_geom_bond_site_symmetry_2
Eu0 O6 2.570431 1_555
Eu0 O6 2.570431 1_455
Eu0 O14 2.586487 1_555
Eu0 O14 2.586487 1_455
Eu0 O10 2.719679 1_455
Eu0 O10 2.719679 1_555
Eu0 O3 2.747013 1_555
Eu0 O0 2.842614 1_555
Eu1 O7 2.570431 1_655
Eu1 O7 2.570431 1_555
Eu1 O15 2.586487 1_655
Eu1 O15 2.586487 1_555
Eu1 O11 2.719679 1_555
Eu1 O11 2.719679 1_655
Eu1 O2 2.747013 1_555
Eu1 O1 2.842614 1_555
Eu2 O4 2.570431 1_655
Eu2 O4 2.570431 1_555
Eu2 O12 2.586487 1_555
Eu2 O12 2.586487 1_655
Eu2 O8 2.719679 1_555
Eu2 O8 2.719679 1_655
Eu2 O1 2.747013 1_565
Eu2 O2 2.842614 1_555
Eu3 O5 2.570431 1_555
Eu3 O5 2.570431 1_455
Eu3 O13 2.586487 1_555
Eu3 O13 2.586487 1_455
Eu3 O9 2.719679 1_555
Eu3 O9 2.719679 1_455
Eu3 O0 2.747013 1_545
Eu3 O3 2.842614 1_555
O0 Tm2 2.188573 1_455
O0 Tm2 2.188573 1_555
O0 Tm4 2.219418 1_565
O1 Tm3 2.188573 1_655
O1 Tm3 2.188573 1_555
O1 Tm5 2.219418 1_545
O2 Tm0 2.188573 1_655
O2 Tm0 2.188573 1_555
O2 Tm6 2.219418 1_555
O3 Tm1 2.188573 1_555
O3 Tm1 2.188573 1_455
O3 Tm7 2.219418 1_555
O4 Tm7 2.244866 1_555
O4 Tm6 2.306638 1_455
O4 Tm6 2.306638 1_555
O5 Tm6 2.244866 1_555
O5 Tm7 2.306638 1_655
O5 Tm7 2.306638 1_555
O6 Tm5 2.244866 1_554
O6 Tm4 2.306638 1_565
O6 Tm4 2.306638 1_665
O7 Tm4 2.244866 1_556
O7 Tm5 2.306638 1_445
O7 Tm5 2.306638 1_545
O8 Tm0 2.238255 1_555
O8 Tm5 2.267859 1_555
O8 Tm5 2.267859 1_455
O9 Tm1 2.238255 1_555
O9 Tm4 2.267859 1_655
O9 Tm4 2.267859 1_555
O10 Tm2 2.238255 1_555
O10 Tm7 2.267859 1_655
O10 Tm7 2.267859 1_555
O11 Tm3 2.238255 1_555
O11 Tm6 2.267859 1_455
O11 Tm6 2.267859 1_555
O12 Tm3 2.276358 1_565
O12 Tm2 2.325572 1_555
O12 Tm2 2.325572 1_455
O13 Tm2 2.276358 1_545
O13 Tm3 2.325572 1_555
O13 Tm3 2.325572 1_655
O14 Tm1 2.276358 1_555
O14 Tm0 2.325572 1_554
O14 Tm0 2.325572 1_654
O15 Tm0 2.276358 1_555
O15 Tm1 2.325572 1_456
O15 Tm1 2.325572 1_556
