# generated using pymatgen
data_Ho2Sb5
_symmetry_space_group_name_H-M   'P 1'
_cell_length_a   4.20481881
_cell_length_b   13.13573444
_cell_length_c   14.71287081
_cell_angle_alpha   102.34936042
_cell_angle_beta   90.00000000
_cell_angle_gamma   90.00000000
_symmetry_Int_Tables_number   1
_chemical_formula_structural   Ho2Sb5
_chemical_formula_sum   'Ho8 Sb20'
_cell_volume   793.83847455
_cell_formula_units_Z   4
loop_
 _symmetry_equiv_pos_site_id
 _symmetry_equiv_pos_as_xyz
  1  'x, y, z'
loop_
 _atom_site_type_symbol
 _atom_site_label
 _atom_site_symmetry_multiplicity
 _atom_site_fract_x
 _atom_site_fract_y
 _atom_site_fract_z
 _atom_site_occupancy
  Ho  Ho0  1  0.25000000  0.60597851  0.77082891  1
  Ho  Ho1  1  0.75000000  0.39402149  0.22917109  1
  Ho  Ho2  1  0.25000000  0.33777353  0.85523818  1
  Ho  Ho3  1  0.75000000  0.66222647  0.14476182  1
  Ho  Ho4  1  0.25000000  0.32985573  0.57775847  1
  Ho  Ho5  1  0.75000000  0.67014427  0.42224153  1
  Ho  Ho6  1  0.25000000  0.04780178  0.36379051  1
  Ho  Ho7  1  0.75000000  0.95219822  0.63620849  1
  Sb  Sb0  1  0.25000000  0.85929219  0.77771170  1
  Sb  Sb1  1  0.75000000  0.14070781  0.22228830  1
  Sb  Sb2  1  0.25000000  0.85756422  0.48133773  1
  Sb  Sb3  1  0.75000000  0.14243578  0.51866227  1
  Sb  Sb4  1  0.25000000  0.84713622  0.17531013  1
  Sb  Sb5  1  0.75000000  0.15286378  0.82468987  1
  Sb  Sb6  1  0.25000000  0.57995529  0.97489820  1
  Sb  Sb7  1  0.75000000  0.42004471  0.02510180  1
  Sb  Sb8  1  0.75000000  0.96984324  0.89872293  1
  Sb  Sb9  1  0.25000000  0.03015676  0.10127707  1
  Sb  Sb10  1  0.75000000  0.86173610  0.32309414  1
  Sb  Sb11  1  0.25000000  0.13826390  0.67690586  1
  Sb  Sb12  1  0.75000000  0.71905441  0.93964650  1
  Sb  Sb13  1  0.25000000  0.28094559  0.06035350  1
  Sb  Sb14  1  0.75000000  0.71226808  0.65014933  1
  Sb  Sb15  1  0.25000000  0.28773192  0.34985067  1
  Sb  Sb16  1  0.75000000  0.42381262  0.73455999  1
  Sb  Sb17  1  0.25000000  0.57618738  0.26544001  1
  Sb  Sb18  1  0.75000000  0.42402252  0.44743811  1
  Sb  Sb19  1  0.25000000  0.57597748  0.55256189  1
loop_
_geom_bond_atom_site_label_1
_geom_bond_atom_site_label_2
_geom_bond_distance
_geom_bond_site_symmetry_2
Ho0 Sb6 3.093628 1_555
Ho0 Sb16 3.143975 1_555
Ho0 Sb16 3.143975 1_455
Ho0 Sb19 3.150658 1_555
Ho0 Sb14 3.253061 1_455
Ho0 Sb14 3.253061 1_555
Ho0 Sb0 3.307283 1_555
Ho0 Sb12 3.349254 1_455
Ho0 Sb12 3.349254 1_555
Ho1 Sb7 3.093628 1_555
Ho1 Sb17 3.143975 1_555
Ho1 Sb17 3.143975 1_655
Ho1 Sb18 3.150658 1_555
Ho1 Sb15 3.253061 1_655
Ho1 Sb15 3.253061 1_555
Ho1 Sb1 3.307283 1_555
Ho1 Sb13 3.349254 1_555
Ho1 Sb13 3.349254 1_655
Ho2 Sb16 3.115810 1_555
Ho2 Sb16 3.115810 1_455
Ho2 Sb5 3.170938 1_455
Ho2 Sb5 3.170938 1_555
Ho2 Sb13 3.260085 1_556
Ho2 Sb7 3.267822 1_456
Ho2 Sb7 3.267822 1_556
Ho2 Sb11 3.288022 1_555
Ho2 Sb6 3.290000 1_555
Ho3 Sb17 3.115810 1_555
Ho3 Sb17 3.115810 1_655
Ho3 Sb4 3.170938 1_555
Ho3 Sb4 3.170938 1_655
Ho3 Sb12 3.260085 1_554
Ho3 Sb6 3.267822 1_554
Ho3 Sb6 3.267822 1_654
Ho3 Sb10 3.288022 1_555
Ho3 Sb7 3.290000 1_555
Ho4 Sb11 3.167341 1_555
Ho4 Sb16 3.169811 1_455
Ho4 Sb16 3.169811 1_555
Ho4 Sb3 3.212701 1_455
Ho4 Sb3 3.212701 1_555
Ho4 Sb18 3.262059 1_455
Ho4 Sb18 3.262059 1_555
Ho4 Sb15 3.279685 1_555
Ho4 Sb19 3.332013 1_555
Ho5 Sb10 3.167341 1_555
Ho5 Sb17 3.169811 1_555
Ho5 Sb17 3.169811 1_655
Ho5 Sb2 3.212701 1_555
Ho5 Sb2 3.212701 1_655
Ho5 Sb19 3.262059 1_555
Ho5 Sb19 3.262059 1_655
Ho5 Sb14 3.279685 1_555
Ho5 Sb18 3.332013 1_555
Ho6 Sb3 3.153705 1_555
Ho6 Sb3 3.153705 1_455
Ho6 Sb10 3.182190 1_445
Ho6 Sb10 3.182190 1_545
Ho6 Sb15 3.201797 1_555
Ho6 Sb2 3.329291 1_545
Ho6 Sb1 3.366093 1_455
Ho6 Sb1 3.366093 1_555
Ho6 Sb4 3.392832 1_545
Ho7 Sb2 3.153696 1_655
Ho7 Sb2 3.153696 1_555
Ho7 Sb11 3.182190 1_565
Ho7 Sb11 3.182190 1_665
Ho7 Sb14 3.201801 1_555
Ho7 Sb3 3.329281 1_565
Ho7 Sb0 3.366103 1_655
Ho7 Sb0 3.366103 1_555
Ho7 Sb5 3.392842 1_565
Sb0 Sb8 2.931366 1_455
Sb0 Sb8 2.931366 1_555
Sb0 Sb14 3.181498 1_455
Sb0 Sb14 3.181498 1_555
Sb1 Sb9 2.931366 1_655
Sb1 Sb9 2.931366 1_555
Sb1 Sb15 3.181498 1_655
Sb1 Sb15 3.181498 1_555
Sb4 Sb9 2.843641 1_565
Sb5 Sb8 2.843641 1_545
Sb6 Sb7 3.168857 1_556
Sb6 Sb7 3.168857 1_456
Sb10 Sb4 3.001039 1_555
Sb10 Sb4 3.001039 1_655
Sb10 Sb2 3.146156 1_555
Sb10 Sb2 3.146156 1_655
Sb11 Sb5 3.001039 1_455
Sb11 Sb5 3.001039 1_555
Sb11 Sb3 3.146156 1_455
Sb11 Sb3 3.146156 1_555
Sb12 Sb6 2.903969 1_655
Sb12 Sb6 2.903969 1_555
Sb13 Sb7 2.903969 1_455
Sb13 Sb7 2.903969 1_555
Sb14 Sb19 2.930395 1_655
Sb14 Sb19 2.930395 1_555
Sb15 Sb18 2.930395 1_455
Sb15 Sb18 2.930395 1_555
Sb18 Sb19 3.078304 1_555
Sb18 Sb19 3.078304 1_655
