# generated using pymatgen
data_LiTl
_symmetry_space_group_name_H-M   'P 1'
_cell_length_a   5.18326238
_cell_length_b   5.18326238
_cell_length_c   8.67259200
_cell_angle_alpha   90.00000000
_cell_angle_beta   90.00000000
_cell_angle_gamma   120.00000479
_symmetry_Int_Tables_number   1
_chemical_formula_structural   LiTl
_chemical_formula_sum   'Li4 Tl4'
_cell_volume   201.78362179
_cell_formula_units_Z   4
loop_
 _symmetry_equiv_pos_site_id
 _symmetry_equiv_pos_as_xyz
  1  'x, y, z'
loop_
 _atom_site_type_symbol
 _atom_site_label
 _atom_site_symmetry_multiplicity
 _atom_site_fract_x
 _atom_site_fract_y
 _atom_site_fract_z
 _atom_site_occupancy
  Li  Li0  1  0.33333300  0.66666700  0.41749900  1
  Li  Li1  1  0.66666700  0.33333300  0.58250100  1
  Li  Li2  1  0.66666700  0.33333300  0.91749900  1
  Li  Li3  1  0.33333300  0.66666700  0.08250100  1
  Tl  Tl0  1  0.00000000  0.00000000  0.25000000  1
  Tl  Tl1  1  0.00000000  0.00000000  0.75000000  1
  Tl  Tl2  1  0.33333300  0.66666700  0.75000000  1
  Tl  Tl3  1  0.66666700  0.33333300  0.25000000  1
loop_
_geom_bond_atom_site_label_1
_geom_bond_atom_site_label_2
_geom_bond_distance
_geom_bond_site_symmetry_2
Li0 Tl2 2.883646 1_555
Li0 Tl0 3.326496 1_565
Li0 Tl0 3.326500 1_555
Li0 Tl0 3.326500 1_665
Li1 Tl3 2.883646 1_555
Li1 Tl1 3.326496 1_655
Li1 Tl1 3.326500 1_665
Li1 Tl1 3.326500 1_555
Li2 Tl3 2.883646 1_556
Li2 Tl1 3.326496 1_655
Li2 Tl1 3.326500 1_665
Li2 Tl1 3.326500 1_555
Li3 Tl2 2.883646 1_554
Li3 Tl0 3.326496 1_565
Li3 Tl0 3.326500 1_555
Li3 Tl0 3.326500 1_665
Tl0 Tl3 2.992555 1_455
Tl0 Tl3 2.992559 1_555
Tl0 Tl3 2.992559 1_445
Tl1 Tl2 2.992555 1_545
Tl1 Tl2 2.992559 1_555
Tl1 Tl2 2.992559 1_445
