# generated using pymatgen
data_Fe2S2O17
_symmetry_space_group_name_H-M   'P 1'
_cell_length_a   7.27328500
_cell_length_b   8.94364702
_cell_length_c   10.82796562
_cell_angle_alpha   67.17050769
_cell_angle_beta   85.92649224
_cell_angle_gamma   83.68233940
_symmetry_Int_Tables_number   1
_chemical_formula_structural   Fe2S2O17
_chemical_formula_sum   'Fe4 S4 O34'
_cell_volume   644.92782981
_cell_formula_units_Z   2
loop_
 _symmetry_equiv_pos_site_id
 _symmetry_equiv_pos_as_xyz
  1  'x, y, z'
loop_
 _atom_site_type_symbol
 _atom_site_label
 _atom_site_symmetry_multiplicity
 _atom_site_fract_x
 _atom_site_fract_y
 _atom_site_fract_z
 _atom_site_occupancy
  Fe  Fe0  1  0.31482300  0.56919200  0.44208800  1
  Fe  Fe1  1  0.68517700  0.43080800  0.55791200  1
  Fe  Fe2  1  0.29164000  0.30505200  0.78858700  1
  Fe  Fe3  1  0.70836000  0.69494800  0.21141300  1
  S  S0  1  0.29894800  0.87228600  0.15299000  1
  S  S1  1  0.70105200  0.12771400  0.84701000  1
  S  S2  1  0.01874700  0.39557700  0.34862300  1
  S  S3  1  0.98125300  0.60442300  0.65137700  1
  O  O0  1  0.51141600  0.85417500  0.13707500  1
  O  O1  1  0.48858400  0.14582500  0.86292500  1
  O  O2  1  0.25190300  0.04779000  0.12815400  1
  O  O3  1  0.74809700  0.95221000  0.87184600  1
  O  O4  1  0.25340400  0.78301100  0.29937900  1
  O  O5  1  0.74659600  0.21698900  0.70062100  1
  O  O6  1  0.21671300  0.81002400  0.06780900  1
  O  O7  1  0.78328700  0.18997600  0.93219100  1
  O  O8  1  0.09677300  0.65956300  0.52407700  1
  O  O9  1  0.90322700  0.34043700  0.47592300  1
  O  O10  1  0.05666500  0.43208600  0.73566600  1
  O  O11  1  0.94333500  0.56791400  0.26433400  1
  O  O12  1  0.02735500  0.28680600  0.27974100  1
  O  O13  1  0.97264500  0.71319400  0.72025900  1
  O  O14  1  0.21028100  0.41504700  0.38451800  1
  O  O15  1  0.78971900  0.58495300  0.61548200  1
  O  O16  1  0.41880800  0.42958100  0.61984600  1
  O  O17  1  0.58119200  0.57041900  0.38015400  1
  O  O18  1  0.54038100  0.22064700  0.31411300  1
  O  O19  1  0.45961900  0.77935300  0.68588700  1
  O  O20  1  0.16220300  0.20431800  0.93460900  1
  O  O21  1  0.83779700  0.79568200  0.06539100  1
  O  O22  1  0.33957500  0.49019200  0.90497000  1
  O  O23  1  0.66042500  0.50980800  0.09503000  1
  O  O24  1  0.22948600  0.49714900  0.99441300  1
  O  O25  1  0.77051400  0.50285100  0.00558700  1
  O  O26  1  0.42435800  0.82472600  0.56136000  1
  O  O27  1  0.57564200  0.17527400  0.43864000  1
  O  O28  1  0.19515000  0.96940700  0.78087800  1
  O  O29  1  0.80485000  0.03059300  0.21912200  1
  O  O30  1  0.20015700  0.11275700  0.70494400  1
  O  O31  1  0.79984300  0.88724300  0.29505600  1
  O  O32  1  0.30460800  0.94698700  0.50932000  1
  O  O33  1  0.69539200  0.05301300  0.49068000  1
loop_
_geom_bond_atom_site_label_1
_geom_bond_atom_site_label_2
_geom_bond_distance
_geom_bond_site_symmetry_2
Fe0 O14 1.957609 1_555
Fe0 O4 1.965033 1_555
Fe0 O16 1.992446 1_555
Fe0 O17 2.004411 1_555
Fe0 O8 2.007802 1_555
Fe1 O15 1.957609 1_555
Fe1 O5 1.965033 1_555
Fe1 O17 1.992446 1_555
Fe1 O16 2.004411 1_555
Fe1 O9 2.007802 1_555
Fe2 O20 1.751495 1_555
Fe2 O1 1.884974 1_555
Fe2 O10 1.935616 1_555
Fe2 O16 1.960059 1_555
Fe2 O30 2.401439 1_555
Fe2 O22 2.502014 1_555
Fe3 O21 1.751495 1_555
Fe3 O0 1.884974 1_555
Fe3 O11 1.935616 1_555
Fe3 O17 1.960059 1_555
Fe3 O31 2.401439 1_555
Fe3 O23 2.502014 1_555
O0 S0 1.540372 1_555
O1 S1 1.540372 1_555
O2 S0 1.490137 1_545
O3 S1 1.490137 1_565
O4 S0 1.503759 1_555
O5 S1 1.503759 1_555
O6 S0 1.438317 1_555
O7 S1 1.438317 1_555
O8 S3 1.499436 1_455
O9 S2 1.499436 1_655
O10 S3 1.517553 1_455
O11 S2 1.517553 1_655
O12 S2 1.431630 1_555
O13 S3 1.431630 1_555
O14 S2 1.518187 1_555
O15 S3 1.518187 1_555
O18 O27 1.284598 1_555
O19 O26 1.284598 1_555
O22 O24 1.228248 1_555
O23 O25 1.228248 1_555
O26 O32 1.285992 1_555
O27 O33 1.285992 1_555
O28 O30 1.228454 1_565
O29 O31 1.228454 1_545
