# generated using pymatgen
data_Li5V3P8O29
_symmetry_space_group_name_H-M   'P 1'
_cell_length_a   9.83839900
_cell_length_b   9.83900949
_cell_length_c   14.12351600
_cell_angle_alpha   89.57079527
_cell_angle_beta   89.59355340
_cell_angle_gamma   60.03292794
_symmetry_Int_Tables_number   1
_chemical_formula_structural   Li5V3P8O29
_chemical_formula_sum   'Li10 V6 P16 O58'
_cell_volume   1184.34392608
_cell_formula_units_Z   2
loop_
 _symmetry_equiv_pos_site_id
 _symmetry_equiv_pos_as_xyz
  1  'x, y, z'
loop_
 _atom_site_type_symbol
 _atom_site_label
 _atom_site_symmetry_multiplicity
 _atom_site_fract_x
 _atom_site_fract_y
 _atom_site_fract_z
 _atom_site_occupancy
  Li  Li0  1  0.32048200  0.90895200  0.43757000  1
  Li  Li1  1  0.67356200  0.67676300  0.11077300  1
  Li  Li2  1  0.31229600  0.77387100  0.94049100  1
  Li  Li3  1  0.91886600  0.30152200  0.93904400  1
  Li  Li4  1  0.22105200  0.68396500  0.55800500  1
  Li  Li5  1  0.77508400  0.31456800  0.44203300  1
  Li  Li6  1  0.08775700  0.68788300  0.06135000  1
  Li  Li7  1  0.68564200  0.22368300  0.05403000  1
  Li  Li8  1  0.68629600  0.08726200  0.56193300  1
  Li  Li9  1  0.09458600  0.22863700  0.55911900  1
  V  V0  1  0.42890500  0.56848200  0.74727700  1
  V  V1  1  0.56500400  0.43034400  0.25146400  1
  V  V2  1  0.99526400  0.56955100  0.25386500  1
  V  V3  1  0.00108700  0.43403200  0.75108000  1
  V  V4  1  0.57002800  0.99748300  0.75490600  1
  V  V5  1  0.43252500  0.00386600  0.24513300  1
  P  P0  1  0.77242500  0.91431000  0.16102100  1
  P  P1  1  0.91301900  0.77041500  0.66194700  1
  P  P2  1  0.32164600  0.91460000  0.65660300  1
  P  P3  1  0.66294600  0.66590300  0.87207300  1
  P  P4  1  0.66269000  0.66443900  0.37057100  1
  P  P5  1  0.32291600  0.76948200  0.15898700  1
  P  P6  1  0.22829100  0.68356500  0.34071500  1
  P  P7  1  0.90656300  0.32329000  0.15775400  1
  P  P8  1  0.08704900  0.67903500  0.84368000  1
  P  P9  1  0.76765400  0.32310000  0.66006900  1
  P  P10  1  0.67670000  0.23292400  0.83959800  1
  P  P11  1  0.33688800  0.32907100  0.62935800  1
  P  P12  1  0.33038500  0.33812100  0.12943500  1
  P  P13  1  0.67973900  0.08492000  0.34424900  1
  P  P14  1  0.08733700  0.23182400  0.33960000  1
  P  P15  1  0.23103400  0.08430900  0.83989300  1
  O  O0  1  0.75348300  0.01628600  0.43655000  1
  O  O1  1  0.74421200  0.91767000  0.66415900  1
  O  O2  1  0.01368000  0.74728100  0.93633400  1
  O  O3  1  0.91979100  0.74940600  0.15897800  1
  O  O4  1  0.62871500  0.88799700  0.17570000  1
  O  O5  1  0.66342200  0.81557000  0.82695500  1
  O  O6  1  0.48025900  0.90480900  0.67743500  1
  O  O7  1  0.24121300  0.98887600  0.92409700  1
  O  O8  1  0.34635100  0.91113400  0.15826800  1
  O  O9  1  0.81217400  0.66196200  0.32590300  1
  O  O10  1  0.90172400  0.62108400  0.67688100  1
  O  O11  1  0.51430800  0.81359100  0.33105100  1
  O  O12  1  0.66157200  0.67301500  0.97837600  1
  O  O13  1  0.66558000  0.65081600  0.47543700  1
  O  O14  1  0.51151100  0.67191200  0.83486500  1
  O  O15  1  0.88458400  0.48938200  0.17257900  1
  O  O16  1  0.81264500  0.51551400  0.83498200  1
  O  O17  1  0.33656900  0.75049100  0.65733500  1
  O  O18  1  0.21414300  0.79051800  0.25000700  1
  O  O19  1  0.24858100  0.75444600  0.42938100  1
  O  O20  1  0.24938000  0.74887200  0.07165500  1
  O  O21  1  0.48772900  0.62016200  0.17703600  1
  O  O22  1  0.66674200  0.51128900  0.32753100  1
  O  O23  1  0.25350400  0.66224700  0.83408900  1
  O  O24  1  0.61844800  0.48282200  0.67841300  1
  O  O25  1  0.91610400  0.33921000  0.66104000  1
  O  O26  1  0.99034700  0.79294600  0.75767700  1
  O  O27  1  0.00382800  0.77137400  0.57781100  1
  O  O28  1  0.99803300  0.24263300  0.42919500  1
  O  O29  1  0.08793800  0.65976400  0.33857500  1
  O  O30  1  0.38227100  0.52418100  0.31994900  1
  O  O31  1  0.73909500  0.33886000  0.16281600  1
  O  O32  1  0.32861700  0.48494500  0.66629400  1
  O  O33  1  0.51797600  0.37914400  0.82262100  1
  O  O34  1  0.75780500  0.23810500  0.92791200  1
  O  O35  1  0.75636600  0.24624000  0.57112700  1
  O  O36  1  0.78911800  0.21251500  0.74993000  1
  O  O37  1  0.66049200  0.25457700  0.33463500  1
  O  O38  1  0.17864300  0.48504000  0.16851200  1
  O  O39  1  0.10018600  0.51830900  0.82270200  1
  O  O40  1  0.48006000  0.33878200  0.17466200  1
  O  O41  1  0.34500400  0.34037400  0.02488900  1
  O  O42  1  0.34872200  0.32111300  0.52378700  1
  O  O43  1  0.48799800  0.18168100  0.67385800  1
  O  O44  1  0.10214100  0.37865200  0.32379800  1
  O  O45  1  0.18861700  0.32429900  0.66745100  1
  O  O46  1  0.65935700  0.08448100  0.83415800  1
  O  O47  1  0.79340100  0.99054300  0.25749700  1
  O  O48  1  0.75603300  0.01440900  0.07843400  1
  O  O49  1  0.52169200  0.09413000  0.32599600  1
  O  O50  1  0.33638700  0.18693000  0.17198300  1
  O  O51  1  0.38289400  0.09429800  0.82268300  1
  O  O52  1  0.08584800  0.25121600  0.84015000  1
  O  O53  1  0.98527600  0.24744600  0.06767400  1
  O  O54  1  0.99439200  0.21719500  0.24907700  1
  O  O55  1  0.24891800  0.08125500  0.33727500  1
  O  O56  1  0.24785500  0.00176700  0.56610400  1
  O  O57  1  0.20838900  0.00733000  0.74416100  1
loop_
_geom_bond_atom_site_label_1
_geom_bond_atom_site_label_2
_geom_bond_distance
_geom_bond_site_symmetry_2
Li0 O19 1.975559 1_555
Li0 O56 1.998643 1_565
Li0 O55 2.040099 1_565
Li0 O11 2.230035 1_555
Li1 O12 1.876260 1_554
Li1 O4 2.112285 1_555
Li1 O15 2.156169 1_555
Li1 O21 2.348135 1_555
Li2 O7 1.880101 1_555
Li2 O20 2.001100 1_556
Li2 O23 2.114420 1_555
Li2 O14 2.256104 1_555
Li3 O53 1.914544 1_556
Li3 O34 1.979314 1_555
Li3 O52 2.015000 1_655
Li3 O16 2.337202 1_555
Li4 O27 1.882607 1_555
Li4 O19 2.004032 1_555
Li4 O17 2.113695 1_555
Li4 O32 2.280647 1_555
Li5 O28 1.946907 1_555
Li5 O35 1.977551 1_555
Li5 O37 2.150045 1_555
Li5 O22 2.326849 1_555
Li6 O2 1.888800 1_554
Li6 O20 1.966608 1_555
Li6 O3 1.994824 1_455
Li6 O38 2.294452 1_555
Li7 O48 1.845615 1_555
Li7 O34 1.943163 1_554
Li7 O31 2.134087 1_555
Li7 O40 2.442931 1_555
Li8 O0 1.897705 1_555
Li8 O35 2.005077 1_555
Li8 O1 2.054077 1_545
Li8 O43 2.309907 1_555
Li9 O56 1.975446 1_555
Li9 O28 2.044200 1_455
Li9 O25 2.101971 1_455
Li9 O45 2.234781 1_555
O0 P13 1.480740 1_555
O1 P1 1.566672 1_555
O1 V4 1.958470 1_555
O2 P8 1.483209 1_555
O3 P0 1.544491 1_555
O3 V2 2.035855 1_555
O4 P0 1.571550 1_555
O4 V5 1.943857 1_565
O5 P3 1.602293 1_555
O5 V4 1.851033 1_555
O6 P2 1.544963 1_555
O6 V4 1.908345 1_555
O7 P15 1.482241 1_565
O8 P5 1.521998 1_555
O8 V5 1.964860 1_565
O9 P4 1.585169 1_555
O9 V2 1.859643 1_555
O10 P1 1.540689 1_555
O10 V3 1.905058 1_655
O11 P4 1.566957 1_555
O11 V5 2.024774 1_565
O12 P3 1.503176 1_555
O13 P4 1.485321 1_555
O14 P3 1.556289 1_555
O14 V0 2.021325 1_555
O15 P7 1.553258 1_555
O15 V2 2.003817 1_555
O16 P3 1.567347 1_555
O16 V3 1.995580 1_655
O17 P2 1.546534 1_555
O17 V0 2.000732 1_555
O18 P5 1.613638 1_555
O18 P6 1.613690 1_555
O19 P6 1.500039 1_555
O20 P5 1.499623 1_555
O21 P5 1.572594 1_555
O21 V1 1.932474 1_555
O22 P4 1.610916 1_555
O22 V1 1.901263 1_555
O23 P8 1.566680 1_555
O23 V0 1.931015 1_555
O24 P9 1.545231 1_555
O24 V0 1.884198 1_555
O25 P9 1.545959 1_555
O25 V3 1.999690 1_655
O26 P8 1.602328 1_655
O26 P1 1.625893 1_555
O27 P1 1.484425 1_455
O28 P14 1.509101 1_655
O29 P6 1.512031 1_555
O29 V2 1.972411 1_455
O30 P6 1.570818 1_555
O30 V1 1.830461 1_555
O31 P7 1.577834 1_555
O31 V1 1.938470 1_555
O32 P11 1.586675 1_555
O32 V0 1.948726 1_555
O33 P10 1.523674 1_555
O33 V0 1.929597 1_555
O34 P10 1.500263 1_555
O35 P9 1.504093 1_555
O36 P9 1.610207 1_555
O36 P10 1.621571 1_555
O37 P13 1.588051 1_555
O37 V1 1.901399 1_555
O38 P12 1.570762 1_555
O38 V2 1.971056 1_455
O39 P8 1.551630 1_555
O39 V3 1.869653 1_555
O40 P12 1.612289 1_555
O40 V1 1.861782 1_555
O41 P12 1.483604 1_555
O42 P11 1.494338 1_555
O43 P11 1.598133 1_555
O43 V4 1.940876 1_545
O44 P14 1.537180 1_555
O44 V2 1.903411 1_455
O45 P11 1.573695 1_555
O45 V3 1.990718 1_555
O46 P10 1.555312 1_555
O46 V4 1.880900 1_545
O47 P13 1.604438 1_565
O47 P0 1.623495 1_555
O48 P0 1.477601 1_545
O49 P13 1.535269 1_555
O49 V5 1.915824 1_555
O50 P12 1.573792 1_555
O50 V5 1.868222 1_555
O51 P15 1.562733 1_555
O51 V4 1.857415 1_545
O52 P15 1.547188 1_555
O52 V3 1.998961 1_555
O53 P7 1.482604 1_555
O54 P7 1.610730 1_555
O54 P14 1.625515 1_655
O55 P14 1.539541 1_555
O55 V5 2.035640 1_555
O56 P2 1.506993 1_545
O57 P2 1.607794 1_545
O57 P15 1.624677 1_555
