# generated using pymatgen
data_LuNiO3
_symmetry_space_group_name_H-M   'P 1'
_cell_length_a   5.05126451
_cell_length_b   5.46733495
_cell_length_c   7.27169880
_cell_angle_alpha   90.00129829
_cell_angle_beta   90.00047976
_cell_angle_gamma   90.00007984
_symmetry_Int_Tables_number   1
_chemical_formula_structural   LuNiO3
_chemical_formula_sum   'Lu4 Ni4 O12'
_cell_volume   200.82217848
_cell_formula_units_Z   4
loop_
 _symmetry_equiv_pos_site_id
 _symmetry_equiv_pos_as_xyz
  1  'x, y, z'
loop_
 _atom_site_type_symbol
 _atom_site_label
 _atom_site_symmetry_multiplicity
 _atom_site_fract_x
 _atom_site_fract_y
 _atom_site_fract_z
 _atom_site_occupancy
  Lu  Lu0  1  0.52346934  0.58154204  0.25009194  1
  Lu  Lu1  1  0.97653502  0.08154698  0.25008646  1
  Lu  Lu2  1  0.47653433  0.41845509  0.74990877  1
  Lu  Lu3  1  0.02347295  0.91845663  0.74991300  1
  Ni  Ni0  1  0.00000793  0.50000588  -0.00000440  1
  Ni  Ni1  1  0.49999949  -0.00000556  0.49999955  1
  Ni  Ni2  1  0.00000735  0.50000554  0.50000531  1
  Ni  Ni3  1  0.49999853  -0.00000693  0.00000081  1
  O  O0  1  0.38527089  0.96294503  0.24995617  1
  O  O1  1  0.11472638  0.46295177  0.25002153  1
  O  O2  1  0.61472572  0.03705115  0.75004360  1
  O  O3  1  0.88527012  0.53705091  0.74997775  1
  O  O4  1  0.81023395  0.80867288  0.05616371  1
  O  O5  1  0.68973826  0.30866770  0.44385473  1
  O  O6  1  0.18969394  0.19137545  0.55614600  1
  O  O7  1  0.31030248  0.69139109  0.94383572  1
  O  O8  1  0.18976181  0.19133046  0.94383679  1
  O  O9  1  0.31025663  0.69132856  0.55614807  1
  O  O10  1  0.81030480  0.80862784  0.44385331  1
  O  O11  1  0.68969007  0.30860751  0.05616117  1
loop_
_geom_bond_atom_site_label_1
_geom_bond_atom_site_label_2
_geom_bond_distance
_geom_bond_site_symmetry_2
Lu0 O1 2.164080 1_555
Lu0 O0 2.199004 1_555
Lu0 O5 2.217306 1_555
Lu0 O11 2.218178 1_555
Lu0 O10 2.371878 1_555
Lu0 O4 2.372557 1_555
Lu0 O9 2.544258 1_555
Lu0 O7 2.545521 1_554
Lu1 O0 2.164067 1_645
Lu1 O1 2.199000 1_655
Lu1 O10 2.217423 1_545
Lu1 O4 2.218062 1_545
Lu1 O5 2.371905 1_555
Lu1 O11 2.372579 1_555
Lu1 O6 2.544202 1_655
Lu1 O8 2.545538 1_654
Lu2 O3 2.164054 1_555
Lu2 O2 2.198997 1_555
Lu2 O9 2.217310 1_555
Lu2 O7 2.218187 1_555
Lu2 O6 2.371882 1_555
Lu2 O8 2.372563 1_555
Lu2 O5 2.544227 1_555
Lu2 O11 2.545472 1_556
Lu3 O2 2.164109 1_465
Lu3 O3 2.199023 1_455
Lu3 O6 2.217405 1_565
Lu3 O8 2.218042 1_565
Lu3 O9 2.371871 1_555
Lu3 O7 2.372534 1_555
Lu3 O10 2.544223 1_455
Lu3 O4 2.545571 1_456
Ni0 O3 1.918918 1_454
Ni0 O1 1.918949 1_555
Ni0 O7 1.928305 1_554
Ni0 O11 1.928449 1_455
Ni0 O8 1.983321 1_554
Ni0 O4 1.983345 1_455
Ni1 O0 1.919073 1_545
Ni1 O2 1.919079 1_555
Ni1 O10 1.928266 1_545
Ni1 O6 1.928310 1_555
Ni1 O9 1.983248 1_545
Ni1 O5 1.983267 1_555
Ni2 O3 1.918605 1_455
Ni2 O1 1.918660 1_555
Ni2 O9 1.927893 1_555
Ni2 O5 1.928030 1_455
Ni2 O6 1.982932 1_555
Ni2 O10 1.982951 1_455
Ni3 O0 1.918483 1_545
Ni3 O2 1.918500 1_554
Ni3 O4 1.927871 1_545
Ni3 O8 1.927929 1_554
Ni3 O7 1.982842 1_544
Ni3 O11 1.982882 1_555
