# generated using pymatgen
data_Th2FeSe5
_symmetry_space_group_name_H-M   'P 1'
_cell_length_a   8.52325786
_cell_length_b   8.52325786
_cell_length_c   7.57634252
_cell_angle_alpha   83.35569763
_cell_angle_beta   83.35569763
_cell_angle_gamma   46.39923237
_symmetry_Int_Tables_number   1
_chemical_formula_structural   Th2FeSe5
_chemical_formula_sum   'Th4 Fe2 Se10'
_cell_volume   395.40148152
_cell_formula_units_Z   2
loop_
 _symmetry_equiv_pos_site_id
 _symmetry_equiv_pos_as_xyz
  1  'x, y, z'
loop_
 _atom_site_type_symbol
 _atom_site_label
 _atom_site_symmetry_multiplicity
 _atom_site_fract_x
 _atom_site_fract_y
 _atom_site_fract_z
 _atom_site_occupancy
  Th  Th0  1  0.11042800  0.67561900  0.08136300  1
  Th  Th1  1  0.32438100  0.88957200  0.41863700  1
  Th  Th2  1  0.88957200  0.32438100  0.91863700  1
  Th  Th3  1  0.67561900  0.11042800  0.58136300  1
  Fe  Fe0  1  0.00000000  0.50000000  0.50000000  1
  Fe  Fe1  1  0.50000000  0.00000000  0.00000000  1
  Se  Se0  1  0.91938000  0.08062000  0.25000000  1
  Se  Se1  1  0.08062000  0.91938000  0.75000000  1
  Se  Se2  1  0.28892900  0.53178700  0.42990300  1
  Se  Se3  1  0.46821300  0.71107100  0.07009700  1
  Se  Se4  1  0.71107100  0.46821300  0.57009700  1
  Se  Se5  1  0.53178700  0.28892900  0.92990300  1
  Se  Se6  1  0.14116100  0.30018100  0.18849200  1
  Se  Se7  1  0.69981900  0.85883900  0.31150800  1
  Se  Se8  1  0.85883900  0.69981900  0.81150800  1
  Se  Se9  1  0.30018100  0.14116100  0.68849200  1
loop_
_geom_bond_atom_site_label_1
_geom_bond_atom_site_label_2
_geom_bond_distance
_geom_bond_site_symmetry_2
Fe0 Se7 2.642264 1_455
Fe0 Se9 2.642264 1_555
Fe0 Se2 2.646548 1_555
Fe0 Se4 2.646548 1_455
Fe0 Se6 2.713853 1_555
Fe0 Se8 2.713853 1_455
Fe1 Se6 2.642264 1_555
Fe1 Se8 2.642264 1_544
Fe1 Se5 2.646548 1_554
Fe1 Se3 2.646548 1_545
Fe1 Se7 2.713853 1_545
Fe1 Se9 2.713853 1_554
Se0 Th2 2.982679 1_554
Se0 Th3 2.982679 1_555
Se0 Th0 2.997690 1_645
Se0 Th1 2.997690 1_645
Se1 Th1 2.982679 1_555
Se1 Th0 2.982679 1_556
Se1 Th2 2.997690 1_465
Se1 Th3 2.997690 1_465
Se2 Th0 2.898055 1_555
Se2 Th3 2.945012 1_555
Se2 Th1 3.256183 1_555
Se3 Th1 2.898055 1_555
Se3 Th2 2.945012 1_554
Se3 Th0 3.256183 1_555
Se4 Th2 2.898055 1_555
Se4 Th1 2.945012 1_555
Se4 Th3 3.256183 1_555
Se5 Th3 2.898055 1_555
Se5 Th0 2.945012 1_556
Se5 Th2 3.256183 1_555
Se6 Th2 3.021218 1_454
Se6 Th0 3.042886 1_555
Se6 Th1 3.067093 1_545
Se7 Th3 3.021218 1_565
Se7 Th1 3.042886 1_555
Se7 Th0 3.067093 1_655
Se8 Th0 3.021218 1_656
Se8 Th2 3.042886 1_555
Se8 Th3 3.067093 1_565
Se9 Th1 3.021218 1_545
Se9 Th3 3.042886 1_555
Se9 Th2 3.067093 1_455
