# generated using pymatgen
data_Ba3Eu(BO2)9
_symmetry_space_group_name_H-M   'P 1'
_cell_length_a   7.30470906
_cell_length_b   7.30470906
_cell_length_c   17.80214539
_cell_angle_alpha   90.00000000
_cell_angle_beta   90.00000000
_cell_angle_gamma   120.00000359
_symmetry_Int_Tables_number   1
_chemical_formula_structural   Ba3Eu(BO2)9
_chemical_formula_sum   'Ba6 Eu2 B18 O36'
_cell_volume   822.63807265
_cell_formula_units_Z   2
loop_
 _symmetry_equiv_pos_site_id
 _symmetry_equiv_pos_as_xyz
  1  'x, y, z'
loop_
 _atom_site_type_symbol
 _atom_site_label
 _atom_site_symmetry_multiplicity
 _atom_site_fract_x
 _atom_site_fract_y
 _atom_site_fract_z
 _atom_site_occupancy
  Ba  Ba0  1  0.66666700  0.33333300  0.86744517  1
  Ba  Ba1  1  0.33333300  0.66666700  0.13255483  1
  Ba  Ba2  1  0.33333300  0.66666700  0.36744517  1
  Ba  Ba3  1  0.66666700  0.33333300  0.63255483  1
  Ba  Ba4  1  0.00000000  -0.00000000  0.75000000  1
  Ba  Ba5  1  0.00000000  -0.00000000  0.25000000  1
  Eu  Eu0  1  0.00000000  -0.00000000  0.00000000  1
  Eu  Eu1  1  0.00000000  -0.00000000  0.50000000  1
  B  B0  1  0.54910028  0.83477733  0.91776492  1
  B  B1  1  0.45089972  0.16522267  0.08223508  1
  B  B2  1  0.28567705  0.45089972  0.91776492  1
  B  B3  1  0.45089972  0.16522267  0.41776492  1
  B  B4  1  0.71432295  0.54910028  0.08223508  1
  B  B5  1  0.54910028  0.83477733  0.58223508  1
  B  B6  1  0.16522267  0.71432295  0.91776492  1
  B  B7  1  0.71432295  0.54910028  0.41776492  1
  B  B8  1  0.83477733  0.28567705  0.08223508  1
  B  B9  1  0.28567705  0.45089972  0.58223508  1
  B  B10  1  0.83477733  0.28567705  0.41776492  1
  B  B11  1  0.16522267  0.71432295  0.58223508  1
  B  B12  1  0.50459732  0.62211319  0.75000000  1
  B  B13  1  0.49540268  0.37788681  0.25000000  1
  B  B14  1  0.11751587  0.49540268  0.75000000  1
  B  B15  1  0.88248413  0.50459732  0.25000000  1
  B  B16  1  0.37788681  0.88248413  0.75000000  1
  B  B17  1  0.62211319  0.11751587  0.25000000  1
  O  O0  1  0.54109574  0.83230557  0.75000000  1
  O  O1  1  0.45890426  0.16769443  0.25000000  1
  O  O2  1  0.29120983  0.45890426  0.75000000  1
  O  O3  1  0.70879017  0.54109574  0.25000000  1
  O  O4  1  0.16769443  0.70879017  0.75000000  1
  O  O5  1  0.83230557  0.29120983  0.25000000  1
  O  O6  1  0.92093327  0.33342608  0.75000000  1
  O  O7  1  0.07906673  0.66657392  0.25000000  1
  O  O8  1  0.41249281  0.07906673  0.75000000  1
  O  O9  1  0.58750719  0.92093327  0.25000000  1
  O  O10  1  0.66657392  0.58750719  0.75000000  1
  O  O11  1  0.33342608  0.41249281  0.25000000  1
  O  O12  1  0.74635349  0.99564267  0.91725114  1
  O  O13  1  0.25364651  0.00435733  0.08274886  1
  O  O14  1  0.24928918  0.25364651  0.91725114  1
  O  O15  1  0.25364651  0.00435733  0.41725114  1
  O  O16  1  0.75071082  0.74635349  0.08274886  1
  O  O17  1  0.74635349  0.99564267  0.58274886  1
  O  O18  1  0.00435733  0.75071082  0.91725114  1
  O  O19  1  0.75071082  0.74635349  0.41725114  1
  O  O20  1  0.99564267  0.24928918  0.08274886  1
  O  O21  1  0.24928918  0.25364651  0.58274886  1
  O  O22  1  0.99564267  0.24928918  0.41725114  1
  O  O23  1  0.00435733  0.75071082  0.58274886  1
  O  O24  1  0.49671617  0.62092779  0.91832129  1
  O  O25  1  0.50328383  0.37907221  0.08167871  1
  O  O26  1  0.12421161  0.50328383  0.91832129  1
  O  O27  1  0.50328383  0.37907221  0.41832129  1
  O  O28  1  0.87578839  0.49671617  0.08167871  1
  O  O29  1  0.49671617  0.62092779  0.58167871  1
  O  O30  1  0.37907221  0.87578839  0.91832129  1
  O  O31  1  0.87578839  0.49671617  0.41832129  1
  O  O32  1  0.62092779  0.12421161  0.08167871  1
  O  O33  1  0.12421161  0.50328383  0.58167871  1
  O  O34  1  0.62092779  0.12421161  0.41832129  1
  O  O35  1  0.37907221  0.87578839  0.58167871  1
loop_
_geom_bond_atom_site_label_1
_geom_bond_atom_site_label_2
_geom_bond_distance
_geom_bond_site_symmetry_2
Ba0 O6 2.796390 1_555
Ba0 O8 2.796393 1_555
Ba0 O10 2.796395 1_555
Ba0 O12 2.940337 1_545
Ba0 O18 2.940342 1_655
Ba0 O14 2.940344 1_555
Ba0 O26 3.063135 1_655
Ba0 O30 3.063136 1_545
Ba0 O24 3.063142 1_555
Ba1 O7 2.796390 1_555
Ba1 O9 2.796393 1_555
Ba1 O11 2.796395 1_555
Ba1 O13 2.940337 1_565
Ba1 O20 2.940342 1_455
Ba1 O16 2.940344 1_555
Ba1 O28 3.063135 1_455
Ba1 O32 3.063136 1_565
Ba1 O25 3.063142 1_555
Ba2 O7 2.796390 1_555
Ba2 O9 2.796393 1_555
Ba2 O11 2.796395 1_555
Ba2 O15 2.940337 1_565
Ba2 O22 2.940342 1_455
Ba2 O19 2.940344 1_555
Ba2 O31 3.063135 1_455
Ba2 O34 3.063136 1_565
Ba2 O27 3.063142 1_555
Ba3 O6 2.796390 1_555
Ba3 O8 2.796393 1_555
Ba3 O10 2.796395 1_555
Ba3 O17 2.940337 1_545
Ba3 O23 2.940342 1_655
Ba3 O21 2.940344 1_555
Ba3 O33 3.063135 1_655
Ba3 O35 3.063136 1_545
Ba3 O29 3.063142 1_555
Ba4 O10 2.769895 1_445
Ba4 O8 2.769895 1_555
Ba4 O6 2.769895 1_455
Ba4 O2 2.937899 1_555
Ba4 O0 2.937900 1_445
Ba4 O4 2.937900 1_545
Ba5 O11 2.769895 1_555
Ba5 O9 2.769895 1_445
Ba5 O7 2.769895 1_545
Ba5 O3 2.937899 1_445
Ba5 O1 2.937900 1_555
Ba5 O5 2.937900 1_455
Eu0 O16 2.354783 1_445
Eu0 O14 2.354783 1_554
Eu0 O12 2.354783 1_444
Eu0 O13 2.354783 1_555
Eu0 O20 2.354783 1_455
Eu0 O18 2.354783 1_544
Eu1 O19 2.354783 1_445
Eu1 O21 2.354783 1_555
Eu1 O15 2.354783 1_555
Eu1 O17 2.354783 1_445
Eu1 O22 2.354783 1_455
Eu1 O23 2.354783 1_545
B0 O12 1.328109 1_555
B0 O24 1.410305 1_555
B0 O30 1.415801 1_555
B1 O13 1.328109 1_555
B1 O25 1.410305 1_555
B1 O32 1.415801 1_555
B2 O14 1.328109 1_555
B2 O26 1.410305 1_555
B2 O24 1.415801 1_555
B3 O15 1.328109 1_555
B3 O27 1.410305 1_555
B3 O34 1.415801 1_555
B4 O16 1.328109 1_555
B4 O28 1.410305 1_555
B4 O25 1.415801 1_555
B5 O17 1.328109 1_555
B5 O29 1.410305 1_555
B5 O35 1.415801 1_555
B6 O18 1.328109 1_555
B6 O30 1.410305 1_555
B6 O26 1.415801 1_555
B7 O19 1.328109 1_555
B7 O31 1.410305 1_555
B7 O27 1.415801 1_555
B8 O20 1.328109 1_555
B8 O32 1.410305 1_555
B8 O28 1.415801 1_555
B9 O21 1.328109 1_555
B9 O33 1.410305 1_555
B9 O29 1.415801 1_555
B10 O22 1.328109 1_555
B10 O34 1.410305 1_555
B10 O31 1.415801 1_555
B11 O23 1.328109 1_555
B11 O35 1.410305 1_555
B11 O33 1.415801 1_555
B12 O10 1.327757 1_555
B12 O2 1.411617 1_555
B12 O0 1.420973 1_555
B13 O11 1.327757 1_555
B13 O3 1.411617 1_555
B13 O1 1.420973 1_555
B14 O6 1.327757 1_455
B14 O4 1.411617 1_555
B14 O2 1.420973 1_555
B15 O7 1.327757 1_655
B15 O5 1.411617 1_555
B15 O3 1.420973 1_555
B16 O8 1.327757 1_565
B16 O0 1.411617 1_555
B16 O4 1.420973 1_555
B17 O9 1.327757 1_545
B17 O1 1.411617 1_555
B17 O5 1.420973 1_555
