# generated using pymatgen
data_CaH2CO4
_symmetry_space_group_name_H-M   'P 1'
_cell_length_a   6.14759300
_cell_length_b   6.14759300
_cell_length_c   7.57789600
_cell_angle_alpha   90.00000000
_cell_angle_beta   90.00000000
_cell_angle_gamma   120.00001077
_symmetry_Int_Tables_number   1
_chemical_formula_structural   CaH2CO4
_chemical_formula_sum   'Ca3 H6 C3 O12'
_cell_volume   248.02156309
_cell_formula_units_Z   3
loop_
 _symmetry_equiv_pos_site_id
 _symmetry_equiv_pos_as_xyz
  1  'x, y, z'
loop_
 _atom_site_type_symbol
 _atom_site_label
 _atom_site_symmetry_multiplicity
 _atom_site_fract_x
 _atom_site_fract_y
 _atom_site_fract_z
 _atom_site_occupancy
  Ca  Ca0  1  0.72350800  0.72466500  0.66429700  1
  Ca  Ca1  1  0.27533500  0.99884300  0.99763000  1
  Ca  Ca2  1  0.00115700  0.27649200  0.33096400  1
  H  H0  1  0.54552200  0.44859100  0.24573100  1
  H  H1  1  0.55140900  0.09693000  0.57906400  1
  H  H2  1  0.90307000  0.45447800  0.91239800  1
  H  H3  1  0.45854300  0.90804900  0.41772000  1
  H  H4  1  0.09195100  0.55049400  0.75105300  1
  H  H5  1  0.44950600  0.54145700  0.08438700  1
  C  C0  1  0.25543800  0.27882800  0.70306500  1
  C  C1  1  0.72117200  0.97661000  0.03639900  1
  C  C2  1  0.02339000  0.74456200  0.36973200  1
  O  O0  1  0.81242500  0.53823700  0.40216700  1
  O  O1  1  0.46176300  0.27418800  0.73550000  1
  O  O2  1  0.72581200  0.18757500  0.06883400  1
  O  O3  1  0.18952500  0.73430300  0.26683200  1
  O  O4  1  0.26569700  0.45522100  0.60016600  1
  O  O5  1  0.54477900  0.81047500  0.93349900  1
  O  O6  1  0.39742000  0.39813400  0.16759700  1
  O  O7  1  0.60186600  0.99928700  0.50093100  1
  O  O8  1  0.00071300  0.60258000  0.83426400  1
  O  O9  1  0.87781700  0.92908400  0.11505400  1
  O  O10  1  0.07091600  0.94873400  0.44838800  1
  O  O11  1  0.05126600  0.12218300  0.78172100  1
loop_
_geom_bond_atom_site_label_1
_geom_bond_atom_site_label_2
_geom_bond_distance
_geom_bond_site_symmetry_2
Ca0 O11 2.428937 1_665
Ca0 O1 2.468496 1_555
Ca0 O0 2.486875 1_555
Ca0 O10 2.488733 1_655
Ca0 O7 2.490886 1_555
Ca0 O5 2.495335 1_555
Ca0 O4 2.497812 1_555
Ca0 O8 2.530876 1_655
Ca1 O9 2.428939 1_456
Ca1 O2 2.468498 1_566
Ca1 O1 2.486875 1_565
Ca1 O11 2.488737 1_565
Ca1 O8 2.490882 1_555
Ca1 O3 2.495339 1_556
Ca1 O5 2.497818 1_555
Ca1 O6 2.530881 1_566
Ca2 O10 2.428933 1_545
Ca2 O0 2.468496 1_455
Ca2 O2 2.486875 1_455
Ca2 O9 2.488737 1_445
Ca2 O6 2.490885 1_555
Ca2 O4 2.495338 1_555
Ca2 O3 2.497813 1_555
Ca2 O7 2.530879 1_445
H0 O6 0.996659 1_555
H1 O7 0.996645 1_545
H2 O8 0.996657 1_655
H3 O7 0.997164 1_555
H4 O8 0.997168 1_555
H5 O6 0.997159 1_555
C0 O11 1.284271 1_555
C0 O1 1.306235 1_555
C0 O4 1.311303 1_555
C1 O9 1.284264 1_555
C1 O2 1.306235 1_565
C1 O5 1.311310 1_554
C2 O10 1.284272 1_555
C2 O0 1.306235 1_455
C2 O3 1.311313 1_555
