# generated using pymatgen
data_Ti2Cr4(CuSe4)3
_symmetry_space_group_name_H-M   'P 1'
_cell_length_a   7.39670109
_cell_length_b   7.39670109
_cell_length_c   16.43166246
_cell_angle_alpha   77.81114947
_cell_angle_beta   77.81114947
_cell_angle_gamma   89.99674646
_symmetry_Int_Tables_number   1
_chemical_formula_structural   Ti2Cr4(CuSe4)3
_chemical_formula_sum   'Ti4 Cr8 Cu6 Se24'
_cell_volume   857.98745441
_cell_formula_units_Z   2
loop_
 _symmetry_equiv_pos_site_id
 _symmetry_equiv_pos_as_xyz
  1  'x, y, z'
loop_
 _atom_site_type_symbol
 _atom_site_label
 _atom_site_symmetry_multiplicity
 _atom_site_fract_x
 _atom_site_fract_y
 _atom_site_fract_z
 _atom_site_occupancy
  Ti  Ti0  1  0.16555100  0.66602900  0.66645700  1
  Ti  Ti1  1  0.83444900  0.33397100  0.33354300  1
  Ti  Ti2  1  0.33397100  0.83444900  0.83354300  1
  Ti  Ti3  1  0.66602900  0.16555100  0.16645700  1
  Cr  Cr0  1  0.50000000  0.00000000  0.00000000  1
  Cr  Cr1  1  0.66616600  0.66737200  0.66657600  1
  Cr  Cr2  1  0.33383400  0.33262800  0.33342400  1
  Cr  Cr3  1  0.00000000  0.00000000  0.00000000  1
  Cr  Cr4  1  0.00000000  0.50000000  0.50000000  1
  Cr  Cr5  1  0.33262800  0.33383400  0.83342400  1
  Cr  Cr6  1  0.00000000  0.00000000  0.50000000  1
  Cr  Cr7  1  0.66737200  0.66616600  0.16657600  1
  Cu  Cu0  1  0.79069200  0.54141800  0.91761300  1
  Cu  Cu1  1  0.45858200  0.20930800  0.58238700  1
  Cu  Cu2  1  0.12620400  0.87379600  0.25000000  1
  Cu  Cu3  1  0.54141800  0.79069200  0.41761300  1
  Cu  Cu4  1  0.20930800  0.45858200  0.08238700  1
  Cu  Cu5  1  0.87379600  0.12620400  0.75000000  1
  Se  Se0  1  0.41689500  0.90450300  0.66963000  1
  Se  Se1  1  0.08349600  0.56832400  0.33845800  1
  Se  Se2  1  0.74849700  0.23382200  0.00330800  1
  Se  Se3  1  0.41644900  0.42757100  0.67150500  1
  Se  Se4  1  0.08302800  0.09311500  0.33830000  1
  Se  Se5  1  0.74684000  0.76412100  0.00581600  1
  Se  Se6  1  0.09549700  0.58310500  0.83037000  1
  Se  Se7  1  0.76617800  0.25150300  0.49669200  1
  Se  Se8  1  0.43167600  0.91650400  0.16154200  1
  Se  Se9  1  0.57242900  0.58355100  0.82849500  1
  Se  Se10  1  0.23587900  0.25316000  0.49418400  1
  Se  Se11  1  0.90688500  0.91697200  0.16170000  1
  Se  Se12  1  0.91650400  0.43167600  0.66154200  1
  Se  Se13  1  0.58310500  0.09549700  0.33037000  1
  Se  Se14  1  0.25150300  0.76617800  0.99669200  1
  Se  Se15  1  0.91697200  0.90688500  0.66170000  1
  Se  Se16  1  0.58355100  0.57242900  0.32849500  1
  Se  Se17  1  0.25316000  0.23587900  0.99418400  1
  Se  Se18  1  0.23382200  0.74849700  0.50330800  1
  Se  Se19  1  0.90450300  0.41689500  0.16963000  1
  Se  Se20  1  0.56832400  0.08349600  0.83845800  1
  Se  Se21  1  0.76412100  0.74684000  0.50581600  1
  Se  Se22  1  0.42757100  0.41644900  0.17150500  1
  Se  Se23  1  0.09311500  0.08302800  0.83830000  1
loop_
_geom_bond_atom_site_label_1
_geom_bond_atom_site_label_2
_geom_bond_distance
_geom_bond_site_symmetry_2
Cr0 Se5 2.527779 1_545
Cr0 Se17 2.527779 1_554
Cr0 Se20 2.534564 1_554
Cr0 Se8 2.534564 1_545
Cr0 Se2 2.540643 1_555
Cr0 Se14 2.540643 1_544
Cr1 Se21 2.526753 1_555
Cr1 Se3 2.537903 1_555
Cr1 Se15 2.542481 1_555
Cr1 Se9 2.543311 1_555
Cr1 Se12 2.543766 1_555
Cr1 Se0 2.544849 1_555
Cr2 Se10 2.526753 1_555
Cr2 Se16 2.537903 1_555
Cr2 Se4 2.542481 1_555
Cr2 Se22 2.543311 1_555
Cr2 Se1 2.543766 1_555
Cr2 Se13 2.544849 1_555
Cr3 Se5 2.532595 1_445
Cr3 Se17 2.532595 1_554
Cr3 Se23 2.539574 1_554
Cr3 Se11 2.539574 1_445
Cr3 Se14 2.539977 1_544
Cr3 Se2 2.539977 1_455
Cr4 Se21 2.527779 1_455
Cr4 Se10 2.527779 1_555
Cr4 Se12 2.534564 1_455
Cr4 Se1 2.534564 1_555
Cr4 Se18 2.540643 1_555
Cr4 Se7 2.540643 1_455
Cr5 Se17 2.526753 1_555
Cr5 Se9 2.537903 1_555
Cr5 Se23 2.542481 1_555
Cr5 Se3 2.543311 1_555
Cr5 Se20 2.543766 1_555
Cr5 Se6 2.544849 1_555
Cr6 Se21 2.532595 1_445
Cr6 Se10 2.532595 1_555
Cr6 Se15 2.539574 1_445
Cr6 Se4 2.539574 1_555
Cr6 Se7 2.539977 1_455
Cr6 Se18 2.539977 1_545
Cr7 Se5 2.526753 1_555
Cr7 Se22 2.537903 1_555
Cr7 Se11 2.542481 1_555
Cr7 Se16 2.543311 1_555
Cr7 Se8 2.543766 1_555
Cr7 Se19 2.544849 1_555
Cu0 Se9 2.377679 1_555
Cu0 Se6 2.383650 1_655
Cu0 Se2 2.391311 1_556
Cu0 Se5 2.393491 1_556
Cu1 Se3 2.377679 1_555
Cu1 Se0 2.383650 1_545
Cu1 Se7 2.391311 1_555
Cu1 Se10 2.393491 1_555
Cu2 Se11 2.374233 1_455
Cu2 Se4 2.374233 1_565
Cu2 Se1 2.395233 1_555
Cu2 Se8 2.395233 1_555
Cu3 Se16 2.377679 1_555
Cu3 Se13 2.383650 1_565
Cu3 Se18 2.391311 1_555
Cu3 Se21 2.393491 1_555
Cu4 Se22 2.377679 1_555
Cu4 Se19 2.383650 1_455
Cu4 Se14 2.391311 1_554
Cu4 Se17 2.393491 1_554
Cu5 Se15 2.374233 1_545
Cu5 Se23 2.374233 1_655
Cu5 Se12 2.395233 1_555
Cu5 Se20 2.395233 1_555
Se0 Ti2 2.571388 1_555
Se0 Ti0 2.578873 1_555
Se1 Ti1 2.554812 1_455
Se2 Ti3 2.559628 1_555
Se3 Ti0 2.562185 1_555
Se4 Ti1 2.561678 1_455
Se6 Ti0 2.571388 1_555
Se6 Ti2 2.578873 1_555
Se7 Ti1 2.559628 1_555
Se8 Ti3 2.554812 1_565
Se9 Ti2 2.562185 1_555
Se11 Ti3 2.561678 1_565
Se12 Ti0 2.554812 1_655
Se13 Ti3 2.571388 1_555
Se13 Ti1 2.578873 1_555
Se14 Ti2 2.559628 1_555
Se15 Ti0 2.561678 1_655
Se16 Ti1 2.562185 1_555
Se18 Ti0 2.559628 1_555
Se19 Ti1 2.571388 1_555
Se19 Ti3 2.578873 1_555
Se20 Ti2 2.554812 1_545
Se22 Ti3 2.562185 1_555
Se23 Ti2 2.561678 1_545
