# generated using pymatgen
data_CaV2O6
_symmetry_space_group_name_H-M   'P 1'
_cell_length_a   5.44607300
_cell_length_b   5.48765700
_cell_length_c   7.31160600
_cell_angle_alpha   90.00000000
_cell_angle_beta   90.00000000
_cell_angle_gamma   90.00000000
_symmetry_Int_Tables_number   1
_chemical_formula_structural   CaV2O6
_chemical_formula_sum   'Ca2 V4 O12'
_cell_volume   218.51597755
_cell_formula_units_Z   2
loop_
 _symmetry_equiv_pos_site_id
 _symmetry_equiv_pos_as_xyz
  1  'x, y, z'
loop_
 _atom_site_type_symbol
 _atom_site_label
 _atom_site_symmetry_multiplicity
 _atom_site_fract_x
 _atom_site_fract_y
 _atom_site_fract_z
 _atom_site_occupancy
  Ca  Ca0  1  0.51958600  0.30167300  0.50000000  1
  Ca  Ca1  1  0.01958600  0.69832700  0.00000000  1
  V  V0  1  0.04028900  0.23232700  0.75650600  1
  V  V1  1  0.54028900  0.76767300  0.25650600  1
  V  V2  1  0.54028900  0.76767300  0.74349400  1
  V  V3  1  0.04028900  0.23232700  0.24349400  1
  O  O0  1  0.20661100  0.96564400  0.21676900  1
  O  O1  1  0.26262000  0.45636500  0.77775700  1
  O  O2  1  0.70661100  0.03435600  0.28323100  1
  O  O3  1  0.76262000  0.54363500  0.72224300  1
  O  O4  1  0.76262000  0.54363500  0.27775700  1
  O  O5  1  0.70661100  0.03435600  0.71676900  1
  O  O6  1  0.26262000  0.45636500  0.22224300  1
  O  O7  1  0.20661100  0.96564400  0.78323100  1
  O  O8  1  0.03934500  0.24004500  0.50000000  1
  O  O9  1  0.42870700  0.73883300  0.50000000  1
  O  O10  1  0.92870700  0.26116700  0.00000000  1
  O  O11  1  0.53934500  0.75995500  0.00000000  1
loop_
_geom_bond_atom_site_label_1
_geom_bond_atom_site_label_2
_geom_bond_distance
_geom_bond_site_symmetry_2
Ca0 O5 2.387755 1_555
Ca0 O2 2.387755 1_555
Ca0 O9 2.449507 1_555
Ca0 O3 2.481009 1_555
Ca0 O4 2.481009 1_555
Ca0 O1 2.608343 1_555
Ca0 O6 2.608343 1_555
Ca0 O8 2.637202 1_555
Ca1 O7 2.387755 1_554
Ca1 O0 2.387755 1_555
Ca1 O10 2.449507 1_455
Ca1 O6 2.481009 1_555
Ca1 O1 2.481009 1_554
Ca1 O4 2.608343 1_455
Ca1 O3 2.608343 1_454
Ca1 O11 2.637202 1_455
O0 V3 1.732163 1_565
O0 V1 2.137057 1_555
O1 V0 1.732566 1_555
O1 V2 2.295210 1_555
O2 V1 1.732163 1_545
O2 V3 2.137057 1_655
O3 V2 1.732566 1_555
O3 V0 2.295210 1_655
O4 V1 1.732566 1_555
O4 V3 2.295210 1_655
O5 V2 1.732163 1_545
O5 V0 2.137057 1_655
O6 V3 1.732566 1_555
O6 V1 2.295210 1_555
O7 V0 1.732163 1_565
O7 V2 2.137057 1_555
O8 V0 1.875956 1_555
O8 V3 1.875956 1_555
O9 V1 1.887832 1_555
O9 V2 1.887832 1_555
O10 V0 1.887832 1_654
O10 V3 1.887832 1_655
O11 V2 1.875956 1_554
O11 V1 1.875956 1_555
