# generated using pymatgen
data_Te4Mo3W(SeS)2
_symmetry_space_group_name_H-M   'P 1'
_cell_length_a   3.39812562
_cell_length_b   3.39812562
_cell_length_c   39.29139100
_cell_angle_alpha   90.00000000
_cell_angle_beta   90.00000000
_cell_angle_gamma   119.99999256
_symmetry_Int_Tables_number   1
_chemical_formula_structural   Te4Mo3W(SeS)2
_chemical_formula_sum   'Te4 Mo3 W1 Se2 S2'
_cell_volume   392.92252561
_cell_formula_units_Z   1
loop_
 _symmetry_equiv_pos_site_id
 _symmetry_equiv_pos_as_xyz
  1  'x, y, z'
loop_
 _atom_site_type_symbol
 _atom_site_label
 _atom_site_symmetry_multiplicity
 _atom_site_fract_x
 _atom_site_fract_y
 _atom_site_fract_z
 _atom_site_occupancy
  Te  Te0  1  0.33333300  0.66666700  0.33015800  1
  Te  Te1  1  0.66666700  0.33333300  0.04552000  1
  Te  Te2  1  0.66666700  0.33333300  0.14092500  1
  Te  Te3  1  0.33333300  0.66666700  0.23474400  1
  Mo  Mo0  1  0.33333300  0.66666700  0.09322600  1
  Mo  Mo1  1  0.33333300  0.66666700  0.46969200  1
  Mo  Mo2  1  0.66666700  0.33333300  0.28245700  1
  W  W0  1  0.66666700  0.33333300  0.65755000  1
  Se  Se0  1  0.33333300  0.66666700  0.69959600  1
  Se  Se1  1  0.33333300  0.66666700  0.61546400  1
  S  S0  1  0.66666700  0.33333300  0.43146200  1
  S  S1  1  0.66666700  0.33333300  0.50795400  1
loop_
_geom_bond_atom_site_label_1
_geom_bond_atom_site_label_2
_geom_bond_distance
_geom_bond_site_symmetry_2
Mo0 Te2 2.713219 1_455
Mo0 Te2 2.713219 1_565
Mo0 Te2 2.713223 1_555
Mo0 Te1 2.713409 1_455
Mo0 Te1 2.713409 1_565
Mo0 Te1 2.713413 1_555
Mo1 S0 2.470913 1_455
Mo1 S0 2.470913 1_565
Mo1 S0 2.470918 1_555
Mo1 S1 2.471678 1_455
Mo1 S1 2.471678 1_565
Mo1 S1 2.471682 1_555
Mo2 Te0 2.713273 1_545
Mo2 Te0 2.713273 1_655
Mo2 Te0 2.713277 1_555
Mo2 Te3 2.713599 1_545
Mo2 Te3 2.713599 1_655
Mo2 Te3 2.713603 1_555
Se0 W0 2.564826 1_455
Se0 W0 2.564826 1_565
Se0 W0 2.564831 1_555
Se1 W0 2.565839 1_455
Se1 W0 2.565839 1_565
Se1 W0 2.565843 1_555
