# generated using pymatgen
data_Mg3B2H9SO13F
_symmetry_space_group_name_H-M   'P 1'
_cell_length_a   9.01009100
_cell_length_b   10.19139000
_cell_length_c   13.24163500
_cell_angle_alpha   90.00000000
_cell_angle_beta   90.00000000
_cell_angle_gamma   90.00000000
_symmetry_Int_Tables_number   1
_chemical_formula_structural   Mg3B2H9SO13F
_chemical_formula_sum   'Mg12 B8 H36 S4 O52 F4'
_cell_volume   1215.91778588
_cell_formula_units_Z   4
loop_
 _symmetry_equiv_pos_site_id
 _symmetry_equiv_pos_as_xyz
  1  'x, y, z'
loop_
 _atom_site_type_symbol
 _atom_site_label
 _atom_site_symmetry_multiplicity
 _atom_site_fract_x
 _atom_site_fract_y
 _atom_site_fract_z
 _atom_site_occupancy
  Mg  Mg0  1  0.65826400  0.94086600  0.25000000  1
  Mg  Mg1  1  0.15826400  0.55913400  0.25000000  1
  Mg  Mg2  1  0.34173600  0.05913400  0.75000000  1
  Mg  Mg3  1  0.84173600  0.44086600  0.75000000  1
  Mg  Mg4  1  0.61505700  0.12235700  0.60639300  1
  Mg  Mg5  1  0.11505700  0.37764300  0.89360700  1
  Mg  Mg6  1  0.38494300  0.87764300  0.10639300  1
  Mg  Mg7  1  0.88494300  0.62235700  0.39360700  1
  Mg  Mg8  1  0.38494300  0.87764300  0.39360700  1
  Mg  Mg9  1  0.88494300  0.62235700  0.10639300  1
  Mg  Mg10  1  0.61505700  0.12235700  0.89360700  1
  Mg  Mg11  1  0.11505700  0.37764300  0.60639300  1
  B  B0  1  0.80261000  0.36210700  0.51479700  1
  B  B1  1  0.30261000  0.13789300  0.98520300  1
  B  B2  1  0.19739000  0.63789300  0.01479700  1
  B  B3  1  0.69739000  0.86210700  0.48520300  1
  B  B4  1  0.19739000  0.63789300  0.48520300  1
  B  B5  1  0.69739000  0.86210700  0.01479700  1
  B  B6  1  0.80261000  0.36210700  0.98520300  1
  B  B7  1  0.30261000  0.13789300  0.51479700  1
  H  H0  1  0.63040500  0.70359000  0.35963700  1
  H  H1  1  0.13040500  0.79641000  0.14036300  1
  H  H2  1  0.36959500  0.29641000  0.85963700  1
  H  H3  1  0.86959500  0.20359000  0.64036300  1
  H  H4  1  0.36959500  0.29641000  0.64036300  1
  H  H5  1  0.86959500  0.20359000  0.85963700  1
  H  H6  1  0.63040500  0.70359000  0.14036300  1
  H  H7  1  0.13040500  0.79641000  0.35963700  1
  H  H8  1  0.62007200  0.29322600  0.44190100  1
  H  H9  1  0.12007200  0.20677400  0.05809900  1
  H  H10  1  0.37992800  0.70677400  0.94190100  1
  H  H11  1  0.87992800  0.79322600  0.55809900  1
  H  H12  1  0.37992800  0.70677400  0.55809900  1
  H  H13  1  0.87992800  0.79322600  0.94190100  1
  H  H14  1  0.62007200  0.29322600  0.05809900  1
  H  H15  1  0.12007200  0.20677400  0.44190100  1
  H  H16  1  0.83465500  0.38224500  0.13994300  1
  H  H17  1  0.33465500  0.11775500  0.36005700  1
  H  H18  1  0.16534500  0.61775500  0.63994300  1
  H  H19  1  0.66534500  0.88224500  0.86005700  1
  H  H20  1  0.16534500  0.61775500  0.86005700  1
  H  H21  1  0.66534500  0.88224500  0.63994300  1
  H  H22  1  0.83465500  0.38224500  0.36005700  1
  H  H23  1  0.33465500  0.11775500  0.13994300  1
  H  H24  1  0.93729300  0.98975600  0.30720800  1
  H  H25  1  0.43729300  0.51024400  0.19279200  1
  H  H26  1  0.06270700  0.01024400  0.80720800  1
  H  H27  1  0.56270700  0.48975600  0.69279200  1
  H  H28  1  0.06270700  0.01024400  0.69279200  1
  H  H29  1  0.56270700  0.48975600  0.80720800  1
  H  H30  1  0.93729300  0.98975600  0.19279200  1
  H  H31  1  0.43729300  0.51024400  0.30720800  1
  H  H32  1  0.32525700  0.38222000  0.75000000  1
  H  H33  1  0.82525700  0.11778000  0.75000000  1
  H  H34  1  0.67474300  0.61778000  0.25000000  1
  H  H35  1  0.17474300  0.88222000  0.25000000  1
  S  S0  1  0.01474600  0.26154200  0.25000000  1
  S  S1  1  0.51474600  0.23845800  0.25000000  1
  S  S2  1  0.98525400  0.73845800  0.75000000  1
  S  S3  1  0.48525400  0.76154200  0.75000000  1
  O  O0  1  0.97096900  0.82123500  0.65801900  1
  O  O1  1  0.47096900  0.67876500  0.84198100  1
  O  O2  1  0.02903100  0.17876500  0.15801900  1
  O  O3  1  0.52903100  0.32123500  0.34198100  1
  O  O4  1  0.02903100  0.17876500  0.34198100  1
  O  O5  1  0.52903100  0.32123500  0.15801900  1
  O  O6  1  0.97096900  0.82123500  0.84198100  1
  O  O7  1  0.47096900  0.67876500  0.65801900  1
  O  O8  1  0.86337300  0.32526900  0.25000000  1
  O  O9  1  0.36337300  0.17473100  0.25000000  1
  O  O10  1  0.13662700  0.67473100  0.75000000  1
  O  O11  1  0.63662700  0.82526900  0.75000000  1
  O  O12  1  0.62831100  0.13258900  0.25000000  1
  O  O13  1  0.12831100  0.36741100  0.25000000  1
  O  O14  1  0.37168900  0.86741100  0.75000000  1
  O  O15  1  0.87168900  0.63258900  0.75000000  1
  O  O16  1  0.62098900  0.87878800  0.39826200  1
  O  O17  1  0.12098900  0.62121200  0.10173800  1
  O  O18  1  0.37901100  0.12121200  0.89826200  1
  O  O19  1  0.87901100  0.37878800  0.60173800  1
  O  O20  1  0.37901100  0.12121200  0.60173800  1
  O  O21  1  0.87901100  0.37878800  0.89826200  1
  O  O22  1  0.62098900  0.87878800  0.10173800  1
  O  O23  1  0.12098900  0.62121200  0.39826200  1
  O  O24  1  0.82190000  0.12072700  0.65819500  1
  O  O25  1  0.32190000  0.37927300  0.84180500  1
  O  O26  1  0.17810000  0.87927300  0.15819500  1
  O  O27  1  0.67810000  0.62072700  0.34180500  1
  O  O28  1  0.17810000  0.87927300  0.34180500  1
  O  O29  1  0.67810000  0.62072700  0.15819500  1
  O  O30  1  0.82190000  0.12072700  0.84180500  1
  O  O31  1  0.32190000  0.37927300  0.65819500  1
  O  O32  1  0.67525200  0.28172400  0.50877800  1
  O  O33  1  0.17525200  0.21827600  0.99122200  1
  O  O34  1  0.32474800  0.71827600  0.00877800  1
  O  O35  1  0.82474800  0.78172400  0.49122200  1
  O  O36  1  0.32474800  0.71827600  0.49122200  1
  O  O37  1  0.82474800  0.78172400  0.00877800  1
  O  O38  1  0.67525200  0.28172400  0.99122200  1
  O  O39  1  0.17525200  0.21827600  0.50877800  1
  O  O40  1  0.11706300  0.04925000  0.75000000  1
  O  O41  1  0.61706300  0.45075000  0.75000000  1
  O  O42  1  0.88293700  0.95075000  0.25000000  1
  O  O43  1  0.38293700  0.54925000  0.25000000  1
  O  O44  1  0.14514400  0.57458700  0.57161300  1
  O  O45  1  0.64514400  0.92541300  0.92838700  1
  O  O46  1  0.85485600  0.42541300  0.07161300  1
  O  O47  1  0.35485600  0.07458700  0.42838700  1
  O  O48  1  0.85485600  0.42541300  0.42838700  1
  O  O49  1  0.35485600  0.07458700  0.07161300  1
  O  O50  1  0.14514400  0.57458700  0.92838700  1
  O  O51  1  0.64514400  0.92541300  0.57161300  1
  F  F0  1  0.04942200  0.37251400  0.75000000  1
  F  F1  1  0.54942200  0.12748600  0.75000000  1
  F  F2  1  0.95057800  0.62748600  0.25000000  1
  F  F3  1  0.45057800  0.87251400  0.25000000  1
loop_
_geom_bond_atom_site_label_1
_geom_bond_atom_site_label_2
_geom_bond_distance
_geom_bond_site_symmetry_2
Mg0 O12 1.972474 1_565
Mg0 O42 2.026829 1_555
Mg0 O22 2.089817 1_555
Mg0 O16 2.089817 1_555
Mg1 O13 1.972474 1_555
Mg1 O43 2.026829 1_555
Mg1 O17 2.089817 1_555
Mg1 O23 2.089817 1_555
Mg2 O14 1.972474 1_545
Mg2 O40 2.026829 1_555
Mg2 O20 2.089817 1_555
Mg2 O18 2.089817 1_555
Mg3 O15 1.972474 1_555
Mg3 O41 2.026829 1_555
Mg3 O19 2.089817 1_555
Mg3 O21 2.089817 1_555
Mg4 O24 1.985970 1_555
Mg4 O51 2.077059 1_545
Mg4 O20 2.127721 1_555
Mg4 O32 2.145427 1_555
Mg5 O25 1.985970 1_555
Mg5 O50 2.077059 1_555
Mg5 O21 2.127721 1_455
Mg5 O33 2.145427 1_555
Mg6 O26 1.985970 1_555
Mg6 O49 2.077059 1_565
Mg6 O22 2.127721 1_555
Mg6 O34 2.145427 1_555
Mg7 O27 1.985970 1_555
Mg7 O48 2.077059 1_555
Mg7 O23 2.127721 1_655
Mg7 O35 2.145427 1_555
Mg8 O28 1.985970 1_555
Mg8 O47 2.077059 1_565
Mg8 O16 2.127721 1_555
Mg8 O36 2.145427 1_555
Mg9 O29 1.985970 1_555
Mg9 O46 2.077059 1_555
Mg9 O17 2.127721 1_655
Mg9 O37 2.145427 1_555
Mg10 O30 1.985970 1_555
Mg10 O45 2.077059 1_545
Mg10 O18 2.127721 1_555
Mg10 O38 2.145427 1_555
Mg11 O31 1.985970 1_555
Mg11 O44 2.077059 1_555
Mg11 O19 2.127721 1_455
Mg11 O39 2.145427 1_555
B0 O19 1.352081 1_555
B0 O48 1.395373 1_555
B0 O32 1.412175 1_555
B1 O18 1.352081 1_555
B1 O49 1.395373 1_556
B1 O33 1.412175 1_555
B2 O17 1.352081 1_555
B2 O50 1.395373 1_554
B2 O34 1.412175 1_555
B3 O16 1.352081 1_555
B3 O51 1.395373 1_555
B3 O35 1.412175 1_555
B4 O23 1.352081 1_555
B4 O44 1.395373 1_555
B4 O36 1.412175 1_555
B5 O22 1.352081 1_555
B5 O45 1.395373 1_554
B5 O37 1.412175 1_555
B6 O21 1.352081 1_555
B6 O46 1.395373 1_556
B6 O38 1.412175 1_555
B7 O20 1.352081 1_555
B7 O47 1.395373 1_555
B7 O39 1.412175 1_555
H0 O27 0.976519 1_555
H1 O26 0.976519 1_555
H2 O25 0.976519 1_555
H3 O24 0.976519 1_555
H4 O31 0.976519 1_555
H5 O30 0.976519 1_555
H6 O29 0.976519 1_555
H7 O28 0.976519 1_555
H8 O32 1.022323 1_555
H8 O3 1.582706 1_555
H9 O33 1.022323 1_554
H9 O2 1.582706 1_555
H10 O34 1.022323 1_556
H10 O1 1.582706 1_555
H11 O35 1.022323 1_555
H11 O0 1.582706 1_555
H12 O36 1.022323 1_555
H12 O7 1.582706 1_555
H13 O37 1.022323 1_556
H13 O6 1.582706 1_555
H14 O38 1.022323 1_554
H14 O5 1.582706 1_555
H15 O39 1.022323 1_555
H15 O4 1.582706 1_555
H16 O46 1.022420 1_555
H16 O8 1.589952 1_555
H17 O47 1.022420 1_555
H17 O9 1.589952 1_555
H18 O44 1.022420 1_555
H18 O10 1.589952 1_555
H19 O45 1.022420 1_555
H19 O11 1.589952 1_555
H20 O50 1.022420 1_555
H20 O10 1.589952 1_555
H21 O51 1.022420 1_555
H21 O11 1.589952 1_555
H22 O48 1.022420 1_555
H22 O8 1.589952 1_555
H23 O49 1.022420 1_555
H23 O9 1.589952 1_555
H24 O42 0.985765 1_555
H25 O43 0.985765 1_555
H26 O40 0.985765 1_555
H27 O41 0.985765 1_555
H28 O40 0.985765 1_555
H29 O41 0.985765 1_555
H30 O42 0.985765 1_555
H31 O43 0.985765 1_555
H32 O31 1.216395 1_555
H32 O25 1.216395 1_555
H33 O30 1.216395 1_555
H33 O24 1.216395 1_555
H34 O29 1.216395 1_555
H34 O27 1.216395 1_555
H35 O26 1.216395 1_555
H35 O28 1.216395 1_555
O0 S2 1.487186 1_555
O1 S3 1.487186 1_555
O2 S0 1.487186 1_555
O3 S1 1.487186 1_555
O4 S0 1.487186 1_555
O5 S1 1.487186 1_555
O6 S2 1.487186 1_555
O7 S3 1.487186 1_555
O8 S0 1.510625 1_655
O9 S1 1.510625 1_555
O10 S2 1.510625 1_455
O11 S3 1.510625 1_555
O12 S1 1.486990 1_555
O13 S0 1.486990 1_555
O14 S3 1.486990 1_555
O15 S2 1.486990 1_555
F0 Mg5 1.992112 1_555
F0 Mg11 1.992112 1_555
F0 Mg3 1.996723 1_455
F1 Mg10 1.992112 1_555
F1 Mg4 1.992112 1_555
F1 Mg2 1.996723 1_555
F2 Mg7 1.992112 1_555
F2 Mg9 1.992112 1_555
F2 Mg1 1.996723 1_655
F3 Mg8 1.992112 1_555
F3 Mg6 1.992112 1_555
F3 Mg0 1.996723 1_555
