# generated using pymatgen
data_Na2TlAs
_symmetry_space_group_name_H-M   'P 1'
_cell_length_a   12.28050606
_cell_length_b   13.06135294
_cell_length_c   13.06135314
_cell_angle_alpha   60.82016979
_cell_angle_beta   61.95866140
_cell_angle_gamma   61.95865806
_symmetry_Int_Tables_number   1
_chemical_formula_structural   Na2TlAs
_chemical_formula_sum   'Na2 Tl1 As1'
_cell_volume   1533.51989006
_cell_formula_units_Z   1
loop_
 _symmetry_equiv_pos_site_id
 _symmetry_equiv_pos_as_xyz
  1  'x, y, z'
loop_
 _atom_site_type_symbol
 _atom_site_label
 _atom_site_symmetry_multiplicity
 _atom_site_fract_x
 _atom_site_fract_y
 _atom_site_fract_z
 _atom_site_occupancy
  Na  Na0  1  0.76573141  0.00000000  1.00000000  1
  Na  Na1  1  0.23426859  1.00000000  0.00000000  1
  Tl  Tl0  1  0.50000000  0.00000000  -0.00000000  1
  As  As0  1  -0.00000000  0.00000000  -0.00000000  1
loop_
_geom_bond_atom_site_label_1
_geom_bond_atom_site_label_2
_geom_bond_distance
_geom_bond_site_symmetry_2
Na0 Tl0 3.263316 1_556
Na1 Tl0 3.263316 1_565
As0 Na0 2.876937 1_454
As0 Na1 2.876937 1_545
