# generated using pymatgen
data_Ca(CoS2)2
_symmetry_space_group_name_H-M   'P 1'
_cell_length_a   7.21110109
_cell_length_b   7.21110109
_cell_length_c   7.21110109
_cell_angle_alpha   121.33455975
_cell_angle_beta   121.33455975
_cell_angle_gamma   87.70361084
_symmetry_Int_Tables_number   1
_chemical_formula_structural   Ca(CoS2)2
_chemical_formula_sum   'Ca2 Co4 S8'
_cell_volume   259.57382113
_cell_formula_units_Z   2
loop_
 _symmetry_equiv_pos_site_id
 _symmetry_equiv_pos_as_xyz
  1  'x, y, z'
loop_
 _atom_site_type_symbol
 _atom_site_label
 _atom_site_symmetry_multiplicity
 _atom_site_fract_x
 _atom_site_fract_y
 _atom_site_fract_z
 _atom_site_occupancy
  Ca  Ca0  1  0.50000000  0.50000000  0.00000000  1
  Ca  Ca1  1  0.25000000  0.75000000  0.50000000  1
  Co  Co0  1  0.87500000  0.12500000  0.25000000  1
  Co  Co1  1  0.37500000  0.12500000  0.25000000  1
  Co  Co2  1  0.87500000  0.62500000  0.75000000  1
  Co  Co3  1  0.87500000  0.12500000  0.75000000  1
  S  S0  1  0.69648400  0.90352700  0.79295700  1
  S  S1  1  0.09647300  0.88943000  0.79295700  1
  S  S2  1  0.09647300  0.30351600  0.20704300  1
  S  S3  1  0.05351600  0.34647300  0.70704300  1
  S  S4  1  0.63943000  0.34647300  0.29295700  1
  S  S5  1  0.65352700  0.36057000  0.70704300  1
  S  S6  1  0.11057000  0.90352700  0.20704300  1
  S  S7  1  0.65352700  0.94648400  0.29295700  1
loop_
_geom_bond_atom_site_label_1
_geom_bond_atom_site_label_2
_geom_bond_distance
_geom_bond_site_symmetry_2
Ca0 S7 2.614110 1_555
Ca0 S3 2.614110 1_554
Ca0 S5 2.614110 1_554
Ca0 S4 2.614110 1_555
Ca1 S2 2.614110 1_555
Ca1 S0 2.614110 1_555
Ca1 S6 2.614110 1_555
Ca1 S1 2.614110 1_555
Co0 S4 2.312479 1_555
Co0 S3 2.312479 1_655
Co0 S0 2.312479 1_544
Co0 S6 2.312479 1_645
Co0 S2 2.323304 1_655
Co0 S7 2.323304 1_545
Co1 S2 2.312479 1_555
Co1 S1 2.312479 1_544
Co1 S5 2.312479 1_555
Co1 S7 2.312479 1_545
Co1 S4 2.323304 1_555
Co1 S6 2.323304 1_545
Co2 S0 2.312479 1_555
Co2 S3 2.312479 1_655
Co2 S4 2.312479 1_555
Co2 S6 2.312479 1_656
Co2 S5 2.323304 1_555
Co2 S1 2.323304 1_655
Co3 S1 2.312479 1_645
Co3 S5 2.312479 1_555
Co3 S7 2.312479 1_545
Co3 S2 2.312479 1_656
Co3 S3 2.323304 1_655
Co3 S0 2.323304 1_545
