# generated using pymatgen
data_KTaV2O8
_symmetry_space_group_name_H-M   'P 1'
_cell_length_a   5.66864300
_cell_length_b   8.72038300
_cell_length_c   15.19028700
_cell_angle_alpha   90.00000000
_cell_angle_beta   90.00000000
_cell_angle_gamma   90.00000000
_symmetry_Int_Tables_number   1
_chemical_formula_structural   KTaV2O8
_chemical_formula_sum   'K4 Ta4 V8 O32'
_cell_volume   750.89747818
_cell_formula_units_Z   4
loop_
 _symmetry_equiv_pos_site_id
 _symmetry_equiv_pos_as_xyz
  1  'x, y, z'
loop_
 _atom_site_type_symbol
 _atom_site_label
 _atom_site_symmetry_multiplicity
 _atom_site_fract_x
 _atom_site_fract_y
 _atom_site_fract_z
 _atom_site_occupancy
  K  K0  1  0.25000000  0.94842200  0.87662800  1
  K  K1  1  0.25000000  0.55157800  0.37662800  1
  K  K2  1  0.75000000  0.05157800  0.12337200  1
  K  K3  1  0.75000000  0.44842200  0.62337200  1
  Ta  Ta0  1  0.25000000  0.81255800  0.61777700  1
  Ta  Ta1  1  0.25000000  0.68744200  0.11777700  1
  Ta  Ta2  1  0.75000000  0.18744200  0.38222300  1
  Ta  Ta3  1  0.75000000  0.31255800  0.88222300  1
  V  V0  1  0.25000000  0.51234800  0.78623300  1
  V  V1  1  0.25000000  0.98765200  0.28623300  1
  V  V2  1  0.75000000  0.48765200  0.21376700  1
  V  V3  1  0.75000000  0.01234800  0.71376700  1
  V  V4  1  0.25000000  0.20801600  0.52773200  1
  V  V5  1  0.25000000  0.29198400  0.02773200  1
  V  V6  1  0.75000000  0.79198400  0.47226800  1
  V  V7  1  0.75000000  0.70801600  0.97226800  1
  O  O0  1  0.00862900  0.89845800  0.70063600  1
  O  O1  1  0.49137100  0.60154200  0.20063600  1
  O  O2  1  0.50862900  0.10154200  0.29936400  1
  O  O3  1  0.99137100  0.39845800  0.79936400  1
  O  O4  1  0.99137100  0.10154200  0.29936400  1
  O  O5  1  0.50862900  0.39845800  0.79936400  1
  O  O6  1  0.49137100  0.89845800  0.70063600  1
  O  O7  1  0.00862900  0.60154200  0.20063600  1
  O  O8  1  0.99966900  0.73372800  0.53764300  1
  O  O9  1  0.50033100  0.76627200  0.03764300  1
  O  O10  1  0.49966900  0.26627200  0.46235700  1
  O  O11  1  0.00033100  0.23372800  0.96235700  1
  O  O12  1  0.00033100  0.26627200  0.46235700  1
  O  O13  1  0.49966900  0.23372800  0.96235700  1
  O  O14  1  0.50033100  0.73372800  0.53764300  1
  O  O15  1  0.99966900  0.76627200  0.03764300  1
  O  O16  1  0.25000000  0.61740900  0.68417500  1
  O  O17  1  0.25000000  0.88259100  0.18417500  1
  O  O18  1  0.75000000  0.38259100  0.31582500  1
  O  O19  1  0.75000000  0.11740900  0.81582500  1
  O  O20  1  0.25000000  0.01079600  0.55259200  1
  O  O21  1  0.25000000  0.48920400  0.05259200  1
  O  O22  1  0.75000000  0.98920400  0.44740800  1
  O  O23  1  0.75000000  0.51079600  0.94740800  1
  O  O24  1  0.25000000  0.63865800  0.86580700  1
  O  O25  1  0.25000000  0.86134200  0.36580700  1
  O  O26  1  0.75000000  0.36134200  0.13419300  1
  O  O27  1  0.75000000  0.13865800  0.63419300  1
  O  O28  1  0.75000000  0.81088000  0.88182900  1
  O  O29  1  0.75000000  0.68912000  0.38182900  1
  O  O30  1  0.25000000  0.18912000  0.11817100  1
  O  O31  1  0.25000000  0.31088000  0.61817100  1
loop_
_geom_bond_atom_site_label_1
_geom_bond_atom_site_label_2
_geom_bond_distance
_geom_bond_site_symmetry_2
K0 O24 2.706257 1_555
K0 O6 3.034607 1_555
K0 O0 3.034607 1_555
K0 O28 3.078673 1_555
K0 O28 3.078673 1_455
K0 O11 3.144664 1_565
K0 O13 3.144664 1_565
K0 O15 3.243299 1_456
K0 O9 3.243299 1_556
K0 O19 3.325362 1_465
K0 O19 3.325362 1_565
K1 O25 2.706257 1_555
K1 O1 3.034607 1_555
K1 O7 3.034607 1_555
K1 O29 3.078673 1_555
K1 O29 3.078673 1_455
K1 O12 3.144664 1_555
K1 O10 3.144664 1_555
K1 O8 3.243299 1_455
K1 O14 3.243299 1_555
K1 O18 3.325362 1_455
K1 O18 3.325362 1_555
K2 O26 2.706257 1_555
K2 O2 3.034607 1_555
K2 O4 3.034607 1_555
K2 O30 3.078673 1_555
K2 O30 3.078673 1_655
K2 O9 3.144664 1_545
K2 O15 3.144664 1_545
K2 O13 3.243299 1_554
K2 O11 3.243299 1_654
K2 O17 3.325362 1_645
K2 O17 3.325362 1_545
K3 O27 2.706257 1_555
K3 O5 3.034607 1_555
K3 O3 3.034607 1_555
K3 O31 3.078673 1_555
K3 O31 3.078673 1_655
K3 O8 3.144664 1_555
K3 O14 3.144664 1_555
K3 O12 3.243299 1_655
K3 O10 3.243299 1_555
K3 O16 3.325362 1_555
K3 O16 3.325362 1_655
O0 V3 1.782004 1_465
O0 Ta0 2.004351 1_555
O1 V2 1.782004 1_555
O1 Ta1 2.004351 1_555
O2 V1 1.782004 1_545
O2 Ta2 2.004351 1_555
O3 V0 1.782004 1_655
O3 Ta3 2.004351 1_555
O4 V1 1.782004 1_645
O4 Ta2 2.004351 1_555
O5 V0 1.782004 1_555
O5 Ta3 2.004351 1_555
O6 V3 1.782004 1_565
O6 Ta0 2.004351 1_555
O7 V2 1.782004 1_455
O7 Ta1 2.004351 1_555
O8 V6 1.802023 1_555
O8 Ta0 1.991969 1_655
O9 V7 1.802023 1_554
O9 Ta1 1.991969 1_555
O10 V4 1.802023 1_555
O10 Ta2 1.991969 1_555
O11 V5 1.802023 1_556
O11 Ta3 1.991969 1_455
O12 V4 1.802023 1_555
O12 Ta2 1.991969 1_455
O13 V5 1.802023 1_556
O13 Ta3 1.991969 1_555
O14 V6 1.802023 1_555
O14 Ta0 1.991969 1_555
O15 V7 1.802023 1_554
O15 Ta1 1.991969 1_655
O16 V0 1.800770 1_555
O16 Ta0 1.978211 1_555
O17 V1 1.800770 1_555
O17 Ta1 1.978211 1_555
O18 V2 1.800770 1_555
O18 Ta2 1.978211 1_555
O19 V3 1.800770 1_555
O19 Ta3 1.978211 1_555
O20 V4 1.760805 1_555
O20 Ta0 1.992209 1_545
O21 V5 1.760805 1_555
O21 Ta1 1.992209 1_555
O22 V6 1.760805 1_555
O22 Ta2 1.992209 1_565
O23 V7 1.760805 1_555
O23 Ta3 1.992209 1_555
O24 V0 1.635335 1_555
O25 V1 1.635335 1_555
O26 V2 1.635335 1_555
O27 V3 1.635335 1_555
O28 V7 1.640715 1_555
O29 V6 1.640715 1_555
O30 V5 1.640715 1_555
O31 V4 1.640715 1_555
