# generated using pymatgen
data_Li5Mn2CoO8
_symmetry_space_group_name_H-M   'P 1'
_cell_length_a   2.87928887
_cell_length_b   19.15102678
_cell_length_c   5.08316895
_cell_angle_alpha   94.46173043
_cell_angle_beta   90.00806187
_cell_angle_gamma   89.98118599
_symmetry_Int_Tables_number   1
_chemical_formula_structural   Li5Mn2CoO8
_chemical_formula_sum   'Li10 Mn4 Co2 O16'
_cell_volume   279.44329910
_cell_formula_units_Z   2
loop_
 _symmetry_equiv_pos_site_id
 _symmetry_equiv_pos_as_xyz
  1  'x, y, z'
loop_
 _atom_site_type_symbol
 _atom_site_label
 _atom_site_symmetry_multiplicity
 _atom_site_fract_x
 _atom_site_fract_y
 _atom_site_fract_z
 _atom_site_occupancy
  Li  Li0  1  0.00010100  0.12422600  0.37611900  1
  Li  Li1  1  0.99989500  0.62577400  0.87387200  1
  Li  Li2  1  0.99999700  0.37500100  0.12500100  1
  Li  Li3  1  0.00000000  0.87500000  0.62499300  1
  Li  Li4  1  0.50057100  0.12256300  0.87586300  1
  Li  Li5  1  0.49943200  0.62743400  0.37412500  1
  Li  Li6  1  0.50234800  0.24331300  0.24589700  1
  Li  Li7  1  0.50187100  0.74729500  0.74175500  1
  Li  Li8  1  0.49813300  0.00270500  0.50823800  1
  Li  Li9  1  0.49764800  0.50668800  0.00411300  1
  Mn  Mn0  1  0.99731500  0.50441700  0.47751800  1
  Mn  Mn1  1  0.00268500  0.24557700  0.77249400  1
  Mn  Mn2  1  0.99894200  0.00132100  0.99551500  1
  Mn  Mn3  1  0.00112700  0.74869400  0.25446100  1
  Co  Co0  1  0.50000400  0.87499800  0.12498900  1
  Co  Co1  1  0.50000100  0.37500000  0.62499700  1
  O  O0  1  0.49897000  0.05315600  0.17204400  1
  O  O1  1  0.49693600  0.55489000  0.66190400  1
  O  O2  1  0.50303600  0.19511100  0.58811400  1
  O  O3  1  0.50104600  0.69684700  0.07795100  1
  O  O4  1  0.00245600  0.19071100  0.04847100  1
  O  O5  1  0.00127000  0.69628700  0.53895100  1
  O  O6  1  0.99869800  0.05371300  0.71105700  1
  O  O7  1  0.99754000  0.55928600  0.20154000  1
  O  O8  1  0.50232200  0.30561300  0.93083000  1
  O  O9  1  0.50059300  0.81128000  0.40437800  1
  O  O10  1  0.49764000  0.44438700  0.31918800  1
  O  O11  1  0.49941600  0.93872000  0.84562400  1
  O  O12  1  0.99772800  0.43337900  0.77003200  1
  O  O13  1  0.99966200  0.93209400  0.28166400  1
  O  O14  1  0.00227700  0.31662000  0.47997500  1
  O  O15  1  0.00034100  0.81790100  0.96833100  1
loop_
_geom_bond_atom_site_label_1
_geom_bond_atom_site_label_2
_geom_bond_distance
_geom_bond_site_symmetry_2
Li0 O4 2.173713 1_555
Li0 O0 2.184321 1_555
Li0 O0 2.189005 1_455
Li0 O2 2.196353 1_455
Li0 O2 2.207788 1_555
Li0 O6 2.253878 1_455
Li1 O7 2.173833 1_556
Li1 O3 2.184325 1_556
Li1 O3 2.189085 1_656
Li1 O1 2.196236 1_655
Li1 O1 2.207761 1_555
Li1 O5 2.253809 1_655
Li2 O10 2.142415 1_655
Li2 O8 2.142465 1_554
Li2 O8 2.151045 1_654
Li2 O10 2.151118 1_555
Li2 O12 2.195349 1_554
Li2 O14 2.195404 1_655
Li3 O13 2.130295 1_455
Li3 O15 2.130389 1_555
Li3 O9 2.145268 1_455
Li3 O11 2.145325 1_555
Li3 O9 2.147233 1_555
Li3 O11 2.147254 1_455
Li4 O6 2.079588 1_555
Li4 O0 2.084429 1_556
Li4 O4 2.085920 1_556
Li4 O6 2.087476 1_455
Li4 O4 2.093818 1_656
Li4 O2 2.094280 1_555
Li5 O5 2.079728 1_555
Li5 O3 2.084481 1_555
Li5 O7 2.085863 1_555
Li5 O5 2.087476 1_655
Li5 O7 2.093789 1_455
Li5 O1 2.094340 1_555
Li6 O4 1.984154 1_555
Li6 O4 1.984330 1_655
Li6 O2 2.031751 1_555
Li6 O8 2.070201 1_554
Li6 O14 2.280160 1_555
Li6 O14 2.280273 1_655
Li7 O5 1.981763 1_655
Li7 O5 1.984531 1_555
Li7 O3 2.027506 1_556
Li7 O9 2.183931 1_555
Li7 O15 2.230084 1_655
Li7 O15 2.235401 1_555
Li8 O6 1.981875 1_455
Li8 O6 1.984492 1_555
Li8 O0 2.027528 1_555
Li8 O11 2.183969 1_545
Li8 O13 2.230135 1_445
Li8 O13 2.235448 1_545
Li9 O7 1.984120 1_555
Li9 O7 1.984296 1_455
Li9 O1 2.031715 1_554
Li9 O10 2.070246 1_555
Li9 O12 2.280206 1_554
Li9 O12 2.280286 1_454
Mn0 O7 1.817002 1_555
Mn0 O1 1.934377 1_655
Mn0 O1 1.935724 1_555
Mn0 O10 1.973850 1_555
Mn0 O10 1.974829 1_655
Mn0 O12 2.091989 1_555
Mn1 O4 1.816961 1_556
Mn1 O2 1.934361 1_455
Mn1 O2 1.935589 1_555
Mn1 O8 1.973844 1_555
Mn1 O8 1.974983 1_455
Mn1 O14 2.092076 1_555
Mn2 O6 1.822971 1_555
Mn2 O0 1.929718 1_556
Mn2 O0 1.930137 1_656
Mn2 O11 1.986246 1_545
Mn2 O11 1.987809 1_645
Mn2 O13 2.042888 1_546
Mn3 O5 1.823283 1_555
Mn3 O3 1.929673 1_555
Mn3 O3 1.930319 1_455
Mn3 O9 1.986001 1_555
Mn3 O9 1.987814 1_455
Mn3 O15 2.042545 1_554
Co0 O15 1.940312 1_554
Co0 O13 1.940323 1_555
Co0 O15 1.941385 1_654
Co0 O13 1.941417 1_455
Co0 O11 1.943046 1_554
Co0 O9 1.943089 1_555
Co1 O14 1.928653 1_555
Co1 O12 1.928671 1_555
Co1 O14 1.938020 1_655
Co1 O12 1.938025 1_455
Co1 O10 2.122174 1_555
Co1 O8 2.122269 1_555
