# generated using pymatgen
data_ZrTiRh
_symmetry_space_group_name_H-M   'P 1'
_cell_length_a   5.29459198
_cell_length_b   5.54055111
_cell_length_c   8.55593500
_cell_angle_alpha   90.00000000
_cell_angle_beta   90.00000000
_cell_angle_gamma   121.55408647
_symmetry_Int_Tables_number   1
_chemical_formula_structural   ZrTiRh
_chemical_formula_sum   'Zr4 Ti4 Rh4'
_cell_volume   213.87854964
_cell_formula_units_Z   4
loop_
 _symmetry_equiv_pos_site_id
 _symmetry_equiv_pos_as_xyz
  1  'x, y, z'
loop_
 _atom_site_type_symbol
 _atom_site_label
 _atom_site_symmetry_multiplicity
 _atom_site_fract_x
 _atom_site_fract_y
 _atom_site_fract_z
 _atom_site_occupancy
  Zr  Zr0  1  0.65693600  0.32847800  0.56617300  1
  Zr  Zr1  1  0.32904300  0.66451200  0.45144800  1
  Zr  Zr2  1  0.32904300  0.66451200  0.04855200  1
  Zr  Zr3  1  0.65693600  0.32847800  0.93382700  1
  Ti  Ti0  1  0.68882600  0.84438700  0.75000000  1
  Ti  Ti1  1  0.82623000  0.65213500  0.25000000  1
  Ti  Ti2  1  0.82614100  0.17405200  0.25000000  1
  Ti  Ti3  1  0.33114900  0.16554300  0.25000000  1
  Rh  Rh0  1  0.98841000  0.99423300  0.49172600  1
  Rh  Rh1  1  0.98841000  0.99423300  0.00827400  1
  Rh  Rh2  1  0.18944000  0.35008000  0.75000000  1
  Rh  Rh3  1  0.18943600  0.83935500  0.75000000  1
loop_
_geom_bond_atom_site_label_1
_geom_bond_atom_site_label_2
_geom_bond_distance
_geom_bond_site_symmetry_2
Zr0 Zr3 3.145624 1_555
Zr0 Zr1 3.187302 1_655
Zr0 Zr1 3.290342 1_545
Zr0 Zr1 3.290382 1_555
Zr1 Zr2 3.447152 1_555
Zr2 Zr3 3.187302 1_454
Zr2 Zr3 3.290342 1_564
Zr2 Zr3 3.290382 1_554
Ti0 Zr2 3.026530 1_556
Ti0 Zr1 3.026530 1_555
Ti0 Zr3 3.188681 1_555
Ti0 Zr0 3.188681 1_555
Ti0 Zr0 3.189050 1_565
Ti0 Zr3 3.189050 1_565
Ti1 Zr0 3.107206 1_555
Ti1 Zr3 3.107206 1_554
Ti1 Zr1 3.141910 1_655
Ti1 Zr2 3.141910 1_655
Ti1 Zr2 3.177088 1_555
Ti1 Zr1 3.177088 1_555
Ti2 Zr3 3.107209 1_554
Ti2 Zr0 3.107209 1_555
Ti2 Zr1 3.141982 1_655
Ti2 Zr2 3.141982 1_655
Ti2 Zr2 3.176675 1_545
Ti2 Zr1 3.176675 1_545
Ti3 Zr3 3.078701 1_554
Ti3 Zr0 3.078701 1_555
Ti3 Zr1 3.262599 1_545
Ti3 Zr2 3.262599 1_545
Ti3 Zr2 3.262807 1_555
Ti3 Zr1 3.262807 1_555
Rh0 Ti3 2.582372 1_665
Rh0 Ti0 2.590381 1_555
Rh0 Ti1 2.627533 1_555
Rh0 Ti2 2.627550 1_565
Rh0 Rh2 2.776121 1_665
Rh0 Rh3 2.776364 1_655
Rh0 Zr1 2.994805 1_555
Rh0 Zr0 3.082757 1_665
Rh0 Zr1 3.186410 1_665
Rh0 Zr1 3.187009 1_655
Rh0 Zr0 3.211944 1_555
Rh0 Zr0 3.212002 1_565
Rh1 Ti3 2.582372 1_665
Rh1 Ti0 2.590381 1_554
Rh1 Ti1 2.627533 1_555
Rh1 Ti2 2.627550 1_565
Rh1 Rh2 2.776121 1_664
Rh1 Rh3 2.776364 1_654
Rh1 Zr2 2.994805 1_555
Rh1 Zr3 3.082757 1_664
Rh1 Zr2 3.186410 1_665
Rh1 Zr2 3.187009 1_655
Rh1 Zr3 3.211944 1_554
Rh1 Zr3 3.212002 1_564
Rh2 Ti0 2.629222 1_555
Rh2 Ti0 2.665167 1_445
Rh2 Rh3 2.710864 1_555
Rh2 Rh3 2.829687 1_545
Rh2 Zr1 2.959486 1_555
Rh2 Zr2 2.959486 1_556
Rh2 Zr3 2.987430 1_555
Rh2 Zr0 2.987430 1_555
Rh2 Zr3 3.175509 1_455
Rh2 Zr0 3.175509 1_455
Rh3 Ti0 2.629584 1_555
Rh3 Ti0 2.665221 1_455
Rh3 Zr2 2.959582 1_556
Rh3 Zr1 2.959582 1_555
Rh3 Zr3 2.987325 1_565
Rh3 Zr0 2.987325 1_565
Rh3 Zr0 3.175259 1_455
Rh3 Zr3 3.175259 1_455
