# generated using pymatgen
data_La2Ni2I
_symmetry_space_group_name_H-M   'P 1'
_cell_length_a   4.12222436
_cell_length_b   4.12222436
_cell_length_c   8.85892001
_cell_angle_alpha   90.00000000
_cell_angle_beta   90.00000000
_cell_angle_gamma   120.00001250
_symmetry_Int_Tables_number   1
_chemical_formula_structural   La2Ni2I
_chemical_formula_sum   'La2 Ni2 I1'
_cell_volume   130.36908214
_cell_formula_units_Z   1
loop_
 _symmetry_equiv_pos_site_id
 _symmetry_equiv_pos_as_xyz
  1  'x, y, z'
loop_
 _atom_site_type_symbol
 _atom_site_label
 _atom_site_symmetry_multiplicity
 _atom_site_fract_x
 _atom_site_fract_y
 _atom_site_fract_z
 _atom_site_occupancy
  La  La0  1  0.00000000  -0.00000000  0.20769344  1
  La  La1  1  -0.00000000  -0.00000000  0.79230656  1
  Ni  Ni0  1  0.33333300  0.66666700  0.00000000  1
  Ni  Ni1  1  0.66666700  0.33333300  0.00000000  1
  I  I0  1  0.66666700  0.33333300  0.50000000  1
loop_
_geom_bond_atom_site_label_1
_geom_bond_atom_site_label_2
_geom_bond_distance
_geom_bond_site_symmetry_2
La0 Ni1 3.008257 1_455
La0 Ni0 3.008257 1_545
La0 Ni1 3.008260 1_445
La0 Ni0 3.008260 1_555
La0 Ni1 3.008260 1_555
La0 Ni0 3.008260 1_445
La1 Ni1 3.008257 1_456
La1 Ni0 3.008257 1_546
La1 Ni0 3.008260 1_556
La1 Ni1 3.008260 1_446
La1 Ni0 3.008260 1_446
La1 Ni1 3.008260 1_556
Ni0 Ni1 2.379965 1_455
Ni0 Ni1 2.379965 1_565
Ni0 Ni1 2.379972 1_555
I0 La0 3.517080 1_655
I0 La1 3.517080 1_655
I0 La0 3.517082 1_555
I0 La1 3.517082 1_555
I0 La0 3.517082 1_665
I0 La1 3.517082 1_665
