# generated using pymatgen
data_Tm5(In2Pd)2
_symmetry_space_group_name_H-M   'P 1'
_cell_length_a   7.17200800
_cell_length_b   16.12732800
_cell_length_c   36.16888200
_cell_angle_alpha   90.00000000
_cell_angle_beta   90.00000000
_cell_angle_gamma   90.00000000
_symmetry_Int_Tables_number   1
_chemical_formula_structural   Tm5(In2Pd)2
_chemical_formula_sum   'Tm80 In64 Pd32'
_cell_volume   4183.48550714
_cell_formula_units_Z   16
loop_
 _symmetry_equiv_pos_site_id
 _symmetry_equiv_pos_as_xyz
  1  'x, y, z'
loop_
 _atom_site_type_symbol
 _atom_site_label
 _atom_site_symmetry_multiplicity
 _atom_site_fract_x
 _atom_site_fract_y
 _atom_site_fract_z
 _atom_site_occupancy
  Tm  Tm0_0  1  0.00000000  0.25000000  0.25000000  1
  Tm  Tm0_1  1  0.00000000  0.25000000  0.75000000  1
  Tm  Tm0_2  1  0.00000000  0.75000000  0.25000000  1
  Tm  Tm0_3  1  0.00000000  0.75000000  0.75000000  1
  Tm  Tm0_4  1  0.50000000  0.25000000  0.25000000  1
  Tm  Tm0_5  1  0.50000000  0.25000000  0.75000000  1
  Tm  Tm0_6  1  0.50000000  0.75000000  0.25000000  1
  Tm  Tm0_7  1  0.50000000  0.75000000  0.75000000  1
  Tm  Tm1_0  1  0.00000000  0.00000000  0.00000000  1
  Tm  Tm1_1  1  0.00000000  0.00000000  0.50000000  1
  Tm  Tm1_2  1  0.00000000  0.50000000  0.00000000  1
  Tm  Tm1_3  1  0.00000000  0.50000000  0.50000000  1
  Tm  Tm1_4  1  0.50000000  0.00000000  0.00000000  1
  Tm  Tm1_5  1  0.50000000  0.00000000  0.50000000  1
  Tm  Tm1_6  1  0.50000000  0.50000000  0.00000000  1
  Tm  Tm1_7  1  0.50000000  0.50000000  0.50000000  1
  Tm  Tm2_0  1  0.00000000  0.36934700  0.14022200  1
  Tm  Tm2_1  1  0.00000000  0.36934700  0.64022200  1
  Tm  Tm2_2  1  0.00000000  0.86934700  0.14022200  1
  Tm  Tm2_3  1  0.00000000  0.86934700  0.64022200  1
  Tm  Tm2_4  1  0.50000000  0.36934700  0.14022200  1
  Tm  Tm2_5  1  0.50000000  0.36934700  0.64022200  1
  Tm  Tm2_6  1  0.50000000  0.86934700  0.14022200  1
  Tm  Tm2_7  1  0.50000000  0.86934700  0.64022200  1
  Tm  Tm3_0  1  0.00000000  0.13065300  0.35977850  1
  Tm  Tm3_1  1  0.00000000  0.13065300  0.85977850  1
  Tm  Tm3_2  1  0.00000000  0.63065300  0.35977850  1
  Tm  Tm3_3  1  0.00000000  0.63065300  0.85977850  1
  Tm  Tm3_4  1  0.50000000  0.13065300  0.35977850  1
  Tm  Tm3_5  1  0.50000000  0.13065300  0.85977850  1
  Tm  Tm3_6  1  0.50000000  0.63065300  0.35977850  1
  Tm  Tm3_7  1  0.50000000  0.63065300  0.85977850  1
  Tm  Tm4_0  1  0.00000000  0.38065300  0.39022150  1
  Tm  Tm4_1  1  0.00000000  0.38065300  0.89022150  1
  Tm  Tm4_2  1  0.00000000  0.88065300  0.39022150  1
  Tm  Tm4_3  1  0.00000000  0.88065300  0.89022150  1
  Tm  Tm4_4  1  0.50000000  0.38065300  0.39022150  1
  Tm  Tm4_5  1  0.50000000  0.38065300  0.89022150  1
  Tm  Tm4_6  1  0.50000000  0.88065300  0.39022150  1
  Tm  Tm4_7  1  0.50000000  0.88065300  0.89022150  1
  Tm  Tm5_0  1  0.00000000  0.11934700  0.10977800  1
  Tm  Tm5_1  1  0.00000000  0.11934700  0.60977800  1
  Tm  Tm5_2  1  0.00000000  0.61934700  0.10977800  1
  Tm  Tm5_3  1  0.00000000  0.61934700  0.60977800  1
  Tm  Tm5_4  1  0.50000000  0.11934700  0.10977800  1
  Tm  Tm5_5  1  0.50000000  0.11934700  0.60977800  1
  Tm  Tm5_6  1  0.50000000  0.61934700  0.10977800  1
  Tm  Tm5_7  1  0.50000000  0.61934700  0.60977800  1
  Tm  Tm6_0  1  0.00000000  0.30593550  0.04138200  1
  Tm  Tm6_1  1  0.00000000  0.30593550  0.54138200  1
  Tm  Tm6_2  1  0.00000000  0.80593550  0.04138200  1
  Tm  Tm6_3  1  0.00000000  0.80593550  0.54138200  1
  Tm  Tm6_4  1  0.50000000  0.30593550  0.04138200  1
  Tm  Tm6_5  1  0.50000000  0.30593550  0.54138200  1
  Tm  Tm6_6  1  0.50000000  0.80593550  0.04138200  1
  Tm  Tm6_7  1  0.50000000  0.80593550  0.54138200  1
  Tm  Tm7_0  1  0.00000000  0.19406450  0.45861800  1
  Tm  Tm7_1  1  0.00000000  0.19406450  0.95861800  1
  Tm  Tm7_2  1  0.00000000  0.69406450  0.45861800  1
  Tm  Tm7_3  1  0.00000000  0.69406450  0.95861800  1
  Tm  Tm7_4  1  0.50000000  0.19406450  0.45861800  1
  Tm  Tm7_5  1  0.50000000  0.19406450  0.95861800  1
  Tm  Tm7_6  1  0.50000000  0.69406450  0.45861800  1
  Tm  Tm7_7  1  0.50000000  0.69406450  0.95861800  1
  Tm  Tm8_0  1  0.00000000  0.44406450  0.29138200  1
  Tm  Tm8_1  1  0.00000000  0.44406450  0.79138200  1
  Tm  Tm8_2  1  0.00000000  0.94406450  0.29138200  1
  Tm  Tm8_3  1  0.00000000  0.94406450  0.79138200  1
  Tm  Tm8_4  1  0.50000000  0.44406450  0.29138200  1
  Tm  Tm8_5  1  0.50000000  0.44406450  0.79138200  1
  Tm  Tm8_6  1  0.50000000  0.94406450  0.29138200  1
  Tm  Tm8_7  1  0.50000000  0.94406450  0.79138200  1
  Tm  Tm9_0  1  0.00000000  0.05593550  0.20861800  1
  Tm  Tm9_1  1  0.00000000  0.05593550  0.70861800  1
  Tm  Tm9_2  1  0.00000000  0.55593550  0.20861800  1
  Tm  Tm9_3  1  0.00000000  0.55593550  0.70861800  1
  Tm  Tm9_4  1  0.50000000  0.05593550  0.20861800  1
  Tm  Tm9_5  1  0.50000000  0.05593550  0.70861800  1
  Tm  Tm9_6  1  0.50000000  0.55593550  0.20861800  1
  Tm  Tm9_7  1  0.50000000  0.55593550  0.70861800  1
  In  In0_0  1  0.25000000  0.35656250  0.46569100  1
  In  In0_1  1  0.25000000  0.35656250  0.96569100  1
  In  In0_2  1  0.25000000  0.85656250  0.46569100  1
  In  In0_3  1  0.25000000  0.85656250  0.96569100  1
  In  In0_4  1  0.75000000  0.35656250  0.46569100  1
  In  In0_5  1  0.75000000  0.35656250  0.96569100  1
  In  In0_6  1  0.75000000  0.85656250  0.46569100  1
  In  In0_7  1  0.75000000  0.85656250  0.96569100  1
  In  In1_0  1  0.25000000  0.14343750  0.03430900  1
  In  In1_1  1  0.25000000  0.14343750  0.53430900  1
  In  In1_2  1  0.25000000  0.64343750  0.03430900  1
  In  In1_3  1  0.25000000  0.64343750  0.53430900  1
  In  In1_4  1  0.75000000  0.14343750  0.03430900  1
  In  In1_5  1  0.75000000  0.14343750  0.53430900  1
  In  In1_6  1  0.75000000  0.64343750  0.03430900  1
  In  In1_7  1  0.75000000  0.64343750  0.53430900  1
  In  In2_0  1  0.25000000  0.39343750  0.21569100  1
  In  In2_1  1  0.25000000  0.39343750  0.71569100  1
  In  In2_2  1  0.25000000  0.89343750  0.21569100  1
  In  In2_3  1  0.25000000  0.89343750  0.71569100  1
  In  In2_4  1  0.75000000  0.39343750  0.21569100  1
  In  In2_5  1  0.75000000  0.39343750  0.71569100  1
  In  In2_6  1  0.75000000  0.89343750  0.21569100  1
  In  In2_7  1  0.75000000  0.89343750  0.71569100  1
  In  In3_0  1  0.25000000  0.10656250  0.28430900  1
  In  In3_1  1  0.25000000  0.10656250  0.78430900  1
  In  In3_2  1  0.25000000  0.60656250  0.28430900  1
  In  In3_3  1  0.25000000  0.60656250  0.78430900  1
  In  In3_4  1  0.75000000  0.10656250  0.28430900  1
  In  In3_5  1  0.75000000  0.10656250  0.78430900  1
  In  In3_6  1  0.75000000  0.60656250  0.28430900  1
  In  In3_7  1  0.75000000  0.60656250  0.78430900  1
  In  In4_0  1  0.25000000  0.29150450  0.32420100  1
  In  In4_1  1  0.25000000  0.29150450  0.82420100  1
  In  In4_2  1  0.25000000  0.79150450  0.32420100  1
  In  In4_3  1  0.25000000  0.79150450  0.82420100  1
  In  In4_4  1  0.75000000  0.29150450  0.32420100  1
  In  In4_5  1  0.75000000  0.29150450  0.82420100  1
  In  In4_6  1  0.75000000  0.79150450  0.32420100  1
  In  In4_7  1  0.75000000  0.79150450  0.82420100  1
  In  In5_0  1  0.25000000  0.20849550  0.17579900  1
  In  In5_1  1  0.25000000  0.20849550  0.67579900  1
  In  In5_2  1  0.25000000  0.70849550  0.17579900  1
  In  In5_3  1  0.25000000  0.70849550  0.67579900  1
  In  In5_4  1  0.75000000  0.20849550  0.17579900  1
  In  In5_5  1  0.75000000  0.20849550  0.67579900  1
  In  In5_6  1  0.75000000  0.70849550  0.17579900  1
  In  In5_7  1  0.75000000  0.70849550  0.67579900  1
  In  In6_0  1  0.25000000  0.45849550  0.07420100  1
  In  In6_1  1  0.25000000  0.45849550  0.57420100  1
  In  In6_2  1  0.25000000  0.95849550  0.07420100  1
  In  In6_3  1  0.25000000  0.95849550  0.57420100  1
  In  In6_4  1  0.75000000  0.45849550  0.07420100  1
  In  In6_5  1  0.75000000  0.45849550  0.57420100  1
  In  In6_6  1  0.75000000  0.95849550  0.07420100  1
  In  In6_7  1  0.75000000  0.95849550  0.57420100  1
  In  In7_0  1  0.25000000  0.04150450  0.42579900  1
  In  In7_1  1  0.25000000  0.04150450  0.92579900  1
  In  In7_2  1  0.25000000  0.54150450  0.42579900  1
  In  In7_3  1  0.25000000  0.54150450  0.92579900  1
  In  In7_4  1  0.75000000  0.04150450  0.42579900  1
  In  In7_5  1  0.75000000  0.04150450  0.92579900  1
  In  In7_6  1  0.75000000  0.54150450  0.42579900  1
  In  In7_7  1  0.75000000  0.54150450  0.92579900  1
  Pd  Pd0_0  1  0.25000000  0.26183100  0.09838600  1
  Pd  Pd0_1  1  0.25000000  0.26183100  0.59838600  1
  Pd  Pd0_2  1  0.25000000  0.76183100  0.09838600  1
  Pd  Pd0_3  1  0.25000000  0.76183100  0.59838600  1
  Pd  Pd0_4  1  0.75000000  0.26183100  0.09838600  1
  Pd  Pd0_5  1  0.75000000  0.26183100  0.59838600  1
  Pd  Pd0_6  1  0.75000000  0.76183100  0.09838600  1
  Pd  Pd0_7  1  0.75000000  0.76183100  0.59838600  1
  Pd  Pd1_0  1  0.25000000  0.23816900  0.40161400  1
  Pd  Pd1_1  1  0.25000000  0.23816900  0.90161400  1
  Pd  Pd1_2  1  0.25000000  0.73816900  0.40161400  1
  Pd  Pd1_3  1  0.25000000  0.73816900  0.90161400  1
  Pd  Pd1_4  1  0.75000000  0.23816900  0.40161400  1
  Pd  Pd1_5  1  0.75000000  0.23816900  0.90161400  1
  Pd  Pd1_6  1  0.75000000  0.73816900  0.40161400  1
  Pd  Pd1_7  1  0.75000000  0.73816900  0.90161400  1
  Pd  Pd2_0  1  0.25000000  0.48816900  0.34838600  1
  Pd  Pd2_1  1  0.25000000  0.48816900  0.84838600  1
  Pd  Pd2_2  1  0.25000000  0.98816900  0.34838600  1
  Pd  Pd2_3  1  0.25000000  0.98816900  0.84838600  1
  Pd  Pd2_4  1  0.75000000  0.48816900  0.34838600  1
  Pd  Pd2_5  1  0.75000000  0.48816900  0.84838600  1
  Pd  Pd2_6  1  0.75000000  0.98816900  0.34838600  1
  Pd  Pd2_7  1  0.75000000  0.98816900  0.84838600  1
  Pd  Pd3_0  1  0.25000000  0.01183100  0.15161400  1
  Pd  Pd3_1  1  0.25000000  0.01183100  0.65161400  1
  Pd  Pd3_2  1  0.25000000  0.51183100  0.15161400  1
  Pd  Pd3_3  1  0.25000000  0.51183100  0.65161400  1
  Pd  Pd3_4  1  0.75000000  0.01183100  0.15161400  1
  Pd  Pd3_5  1  0.75000000  0.01183100  0.65161400  1
  Pd  Pd3_6  1  0.75000000  0.51183100  0.15161400  1
  Pd  Pd3_7  1  0.75000000  0.51183100  0.65161400  1
loop_
_geom_bond_atom_site_label_1
_geom_bond_atom_site_label_2
_geom_bond_distance
_geom_bond_site_symmetry_2
Tm0_0 Tm8_0 3.469224 1_555
Tm0_0 Tm9_0 3.469224 1_555
Tm0_0 Tm0_4 3.586004 1_555
Tm0_0 Tm0_4 3.586004 1_455
Tm0_1 Tm9_1 3.469224 1_555
Tm0_1 Tm8_1 3.469224 1_555
Tm0_1 Tm0_5 3.586004 1_455
Tm0_1 Tm0_5 3.586004 1_555
Tm0_2 Tm8_2 3.469224 1_555
Tm0_2 Tm9_2 3.469224 1_555
Tm0_2 Tm0_6 3.586004 1_555
Tm0_2 Tm0_6 3.586004 1_455
Tm0_3 Tm9_3 3.469224 1_555
Tm0_3 Tm8_3 3.469224 1_555
Tm0_3 Tm0_7 3.586004 1_555
Tm0_3 Tm0_7 3.586004 1_455
Tm0_4 Tm8_4 3.469224 1_555
Tm0_4 Tm9_4 3.469224 1_555
Tm0_5 Tm9_5 3.469224 1_555
Tm0_5 Tm8_5 3.469224 1_555
Tm0_6 Tm8_6 3.469224 1_555
Tm0_6 Tm9_6 3.469224 1_555
Tm0_7 Tm8_7 3.469224 1_555
Tm0_7 Tm9_7 3.469224 1_555
Tm1_0 Tm6_2 3.469224 1_545
Tm1_0 Tm7_1 3.469224 1_554
Tm1_0 Tm1_4 3.586004 1_455
Tm1_0 Tm1_4 3.586004 1_555
Tm1_1 Tm6_3 3.469224 1_545
Tm1_1 Tm7_0 3.469224 1_555
Tm1_1 Tm1_5 3.586004 1_455
Tm1_1 Tm1_5 3.586004 1_555
Tm1_2 Tm6_0 3.469224 1_555
Tm1_2 Tm7_3 3.469224 1_554
Tm1_2 Tm1_6 3.586004 1_555
Tm1_2 Tm1_6 3.586004 1_455
Tm1_3 Tm6_1 3.469224 1_555
Tm1_3 Tm7_2 3.469224 1_555
Tm1_3 Tm1_7 3.586004 1_555
Tm1_3 Tm1_7 3.586004 1_455
Tm1_4 Tm6_6 3.469224 1_545
Tm1_4 Tm7_5 3.469224 1_554
Tm1_5 Tm6_7 3.469224 1_545
Tm1_5 Tm7_4 3.469224 1_555
Tm1_6 Tm6_4 3.469224 1_555
Tm1_6 Tm7_7 3.469224 1_554
Tm1_7 Tm6_5 3.469224 1_555
Tm1_7 Tm7_6 3.469224 1_555
In0_0 Pd1_0 3.002821 1_555
In0_0 Tm1_7 3.178981 1_555
In0_0 Tm1_3 3.178981 1_555
In0_0 Tm7_0 3.185617 1_555
In0_0 Tm7_4 3.185617 1_555
In0_0 Tm4_0 3.288887 1_555
In0_0 Tm4_4 3.288887 1_555
In0_0 In7_2 3.313282 1_555
In0_0 Tm6_5 3.372872 1_555
In0_0 Tm6_1 3.372872 1_555
In0_1 Pd1_1 3.002821 1_555
In0_1 Tm1_2 3.178981 1_556
In0_1 Tm1_6 3.178981 1_556
In0_1 Tm7_1 3.185617 1_555
In0_1 Tm7_5 3.185617 1_555
In0_1 Tm4_1 3.288887 1_555
In0_1 Tm4_5 3.288887 1_555
In0_1 In7_3 3.313282 1_555
In0_1 Tm6_0 3.372872 1_556
In0_1 Tm6_4 3.372872 1_556
In0_2 Pd1_2 3.002821 1_555
In0_2 Tm1_5 3.178981 1_565
In0_2 Tm1_1 3.178981 1_565
In0_2 Tm7_6 3.185617 1_555
In0_2 Tm7_2 3.185617 1_555
In0_2 Tm4_2 3.288887 1_555
In0_2 Tm4_6 3.288887 1_555
In0_2 In7_0 3.313282 1_565
In0_2 Tm6_3 3.372872 1_555
In0_2 Tm6_7 3.372872 1_555
In0_3 Pd1_3 3.002821 1_555
In0_3 Tm1_0 3.178981 1_566
In0_3 Tm1_4 3.178981 1_566
In0_3 Tm7_3 3.185617 1_555
In0_3 Tm7_7 3.185617 1_555
In0_3 Tm4_7 3.288887 1_555
In0_3 Tm4_3 3.288887 1_555
In0_3 In7_1 3.313282 1_565
In0_3 Tm6_2 3.372872 1_556
In0_3 Tm6_6 3.372872 1_556
In0_4 Pd1_4 3.002821 1_555
In0_4 Tm1_3 3.178981 1_655
In0_4 Tm1_7 3.178981 1_555
In0_4 Tm7_0 3.185617 1_655
In0_4 Tm7_4 3.185617 1_555
In0_4 Tm4_0 3.288887 1_655
In0_4 Tm4_4 3.288887 1_555
In0_4 In7_6 3.313282 1_555
In0_4 Tm6_1 3.372872 1_655
In0_4 Tm6_5 3.372872 1_555
In0_5 Pd1_5 3.002821 1_555
In0_5 Tm1_2 3.178981 1_656
In0_5 Tm1_6 3.178981 1_556
In0_5 Tm7_1 3.185617 1_655
In0_5 Tm7_5 3.185617 1_555
In0_5 Tm4_1 3.288887 1_655
In0_5 Tm4_5 3.288887 1_555
In0_5 In7_7 3.313282 1_555
In0_5 Tm6_0 3.372872 1_656
In0_5 Tm6_4 3.372872 1_556
In0_6 Pd1_6 3.002821 1_555
In0_6 Tm1_1 3.178981 1_665
In0_6 Tm1_5 3.178981 1_565
In0_6 Tm7_2 3.185617 1_655
In0_6 Tm7_6 3.185617 1_555
In0_6 Tm4_2 3.288887 1_655
In0_6 Tm4_6 3.288887 1_555
In0_6 In7_4 3.313282 1_565
In0_6 Tm6_3 3.372872 1_655
In0_6 Tm6_7 3.372872 1_555
In0_7 Pd1_7 3.002821 1_555
In0_7 Tm1_0 3.178981 1_666
In0_7 Tm1_4 3.178981 1_566
In0_7 Tm7_3 3.185617 1_655
In0_7 Tm7_7 3.185617 1_555
In0_7 Tm4_3 3.288887 1_655
In0_7 Tm4_7 3.288887 1_555
In0_7 In7_5 3.313282 1_565
In0_7 Tm6_2 3.372872 1_656
In0_7 Tm6_6 3.372872 1_556
In1_0 Pd0_0 3.002821 1_555
In1_0 Tm1_0 3.178981 1_555
In1_0 Tm1_4 3.178981 1_555
In1_0 Tm6_0 3.185617 1_555
In1_0 Tm6_4 3.185617 1_555
In1_0 Tm5_4 3.288872 1_555
In1_0 Tm5_0 3.288872 1_555
In1_0 In6_2 3.313282 1_545
In1_0 Tm7_1 3.372872 1_554
In1_0 Tm7_5 3.372872 1_554
In1_1 Pd0_1 3.002821 1_555
In1_1 Tm1_1 3.178981 1_555
In1_1 Tm1_5 3.178981 1_555
In1_1 Tm6_5 3.185617 1_555
In1_1 Tm6_1 3.185617 1_555
In1_1 Tm5_1 3.288872 1_555
In1_1 Tm5_5 3.288872 1_555
In1_1 In6_3 3.313282 1_545
In1_1 Tm7_4 3.372872 1_555
In1_1 Tm7_0 3.372872 1_555
In1_2 Pd0_2 3.002821 1_555
In1_2 Tm1_6 3.178981 1_555
In1_2 Tm1_2 3.178981 1_555
In1_2 Tm6_2 3.185617 1_555
In1_2 Tm6_6 3.185617 1_555
In1_2 Tm5_2 3.288872 1_555
In1_2 Tm5_6 3.288872 1_555
In1_2 In6_0 3.313282 1_555
In1_2 Tm7_7 3.372872 1_554
In1_2 Tm7_3 3.372872 1_554
In1_3 Pd0_3 3.002821 1_555
In1_3 Tm1_3 3.178981 1_555
In1_3 Tm1_7 3.178981 1_555
In1_3 Tm6_3 3.185617 1_555
In1_3 Tm6_7 3.185617 1_555
In1_3 Tm5_7 3.288872 1_555
In1_3 Tm5_3 3.288872 1_555
In1_3 In6_1 3.313282 1_555
In1_3 Tm7_2 3.372872 1_555
In1_3 Tm7_6 3.372872 1_555
In1_4 Pd0_4 3.002821 1_555
In1_4 Tm1_0 3.178981 1_655
In1_4 Tm1_4 3.178981 1_555
In1_4 Tm6_0 3.185617 1_655
In1_4 Tm6_4 3.185617 1_555
In1_4 Tm5_0 3.288872 1_655
In1_4 Tm5_4 3.288872 1_555
In1_4 In6_6 3.313282 1_545
In1_4 Tm7_1 3.372872 1_654
In1_4 Tm7_5 3.372872 1_554
In1_5 Pd0_5 3.002821 1_555
In1_5 Tm1_1 3.178981 1_655
In1_5 Tm1_5 3.178981 1_555
In1_5 Tm6_1 3.185617 1_655
In1_5 Tm6_5 3.185617 1_555
In1_5 Tm5_1 3.288872 1_655
In1_5 Tm5_5 3.288872 1_555
In1_5 In6_7 3.313282 1_545
In1_5 Tm7_0 3.372872 1_655
In1_5 Tm7_4 3.372872 1_555
In1_6 Pd0_6 3.002821 1_555
In1_6 Tm1_2 3.178981 1_655
In1_6 Tm1_6 3.178981 1_555
In1_6 Tm6_2 3.185617 1_655
In1_6 Tm6_6 3.185617 1_555
In1_6 Tm5_2 3.288872 1_655
In1_6 Tm5_6 3.288872 1_555
In1_6 In6_4 3.313282 1_555
In1_6 Tm7_3 3.372872 1_654
In1_6 Tm7_7 3.372872 1_554
In1_7 Pd0_7 3.002821 1_555
In1_7 Tm1_3 3.178981 1_655
In1_7 Tm1_7 3.178981 1_555
In1_7 Tm6_3 3.185617 1_655
In1_7 Tm6_7 3.185617 1_555
In1_7 Tm5_3 3.288872 1_655
In1_7 Tm5_7 3.288872 1_555
In1_7 In6_5 3.313282 1_555
In1_7 Tm7_2 3.372872 1_655
In1_7 Tm7_6 3.372872 1_555
In2_0 Pd3_2 3.002821 1_555
In2_0 Tm0_4 3.178981 1_555
In2_0 Tm0_0 3.178981 1_555
In2_0 Tm9_2 3.185617 1_555
In2_0 Tm9_6 3.185617 1_555
In2_0 Tm2_4 3.288872 1_555
In2_0 Tm2_0 3.288872 1_555
In2_0 In5_0 3.313282 1_555
In2_0 Tm8_0 3.372872 1_555
In2_0 Tm8_4 3.372872 1_555
In2_1 Pd3_3 3.002821 1_555
In2_1 Tm0_5 3.178981 1_555
In2_1 Tm0_1 3.178981 1_555
In2_1 Tm9_7 3.185617 1_555
In2_1 Tm9_3 3.185617 1_555
In2_1 Tm2_1 3.288872 1_555
In2_1 Tm2_5 3.288872 1_555
In2_1 In5_1 3.313282 1_555
In2_1 Tm8_1 3.372872 1_555
In2_1 Tm8_5 3.372872 1_555
In2_2 Pd3_0 3.002821 1_565
In2_2 Tm0_6 3.178981 1_555
In2_2 Tm0_2 3.178981 1_555
In2_2 Tm9_0 3.185617 1_565
In2_2 Tm9_4 3.185617 1_565
In2_2 Tm2_6 3.288872 1_555
In2_2 Tm2_2 3.288872 1_555
In2_2 In5_2 3.313282 1_555
In2_2 Tm8_2 3.372872 1_555
In2_2 Tm8_6 3.372872 1_555
In2_3 Pd3_1 3.002821 1_565
In2_3 Tm0_3 3.178981 1_555
In2_3 Tm0_7 3.178981 1_555
In2_3 Tm9_5 3.185617 1_565
In2_3 Tm9_1 3.185617 1_565
In2_3 Tm2_7 3.288872 1_555
In2_3 Tm2_3 3.288872 1_555
In2_3 In5_3 3.313282 1_555
In2_3 Tm8_7 3.372872 1_555
In2_3 Tm8_3 3.372872 1_555
In2_4 Pd3_6 3.002821 1_555
In2_4 Tm0_0 3.178981 1_655
In2_4 Tm0_4 3.178981 1_555
In2_4 Tm9_2 3.185617 1_655
In2_4 Tm9_6 3.185617 1_555
In2_4 Tm2_0 3.288872 1_655
In2_4 Tm2_4 3.288872 1_555
In2_4 In5_4 3.313282 1_555
In2_4 Tm8_0 3.372872 1_655
In2_4 Tm8_4 3.372872 1_555
In2_5 Pd3_7 3.002821 1_555
In2_5 Tm0_1 3.178981 1_655
In2_5 Tm0_5 3.178981 1_555
In2_5 Tm9_3 3.185617 1_655
In2_5 Tm9_7 3.185617 1_555
In2_5 Tm2_1 3.288872 1_655
In2_5 Tm2_5 3.288872 1_555
In2_5 In5_5 3.313282 1_555
In2_5 Tm8_1 3.372872 1_655
In2_5 Tm8_5 3.372872 1_555
In2_6 Pd3_4 3.002821 1_565
In2_6 Tm0_2 3.178981 1_655
In2_6 Tm0_6 3.178981 1_555
In2_6 Tm9_0 3.185617 1_665
In2_6 Tm9_4 3.185617 1_565
In2_6 Tm2_2 3.288872 1_655
In2_6 Tm2_6 3.288872 1_555
In2_6 In5_6 3.313282 1_555
In2_6 Tm8_2 3.372872 1_655
In2_6 Tm8_6 3.372872 1_555
In2_7 Pd3_5 3.002821 1_565
In2_7 Tm0_3 3.178981 1_655
In2_7 Tm0_7 3.178981 1_555
In2_7 Tm9_1 3.185617 1_665
In2_7 Tm9_5 3.185617 1_565
In2_7 Tm2_3 3.288872 1_655
In2_7 Tm2_7 3.288872 1_555
In2_7 In5_7 3.313282 1_555
In2_7 Tm8_3 3.372872 1_655
In2_7 Tm8_7 3.372872 1_555
In3_0 Pd2_2 3.002821 1_545
In3_0 Tm0_4 3.178981 1_555
In3_0 Tm0_0 3.178981 1_555
In3_0 Tm8_2 3.185617 1_545
In3_0 Tm8_6 3.185617 1_545
In3_0 Tm3_4 3.288887 1_555
In3_0 Tm3_0 3.288887 1_555
In3_0 In4_0 3.313282 1_555
In3_0 Tm9_0 3.372872 1_555
In3_0 Tm9_4 3.372872 1_555
In3_1 Pd2_3 3.002821 1_545
In3_1 Tm0_1 3.178981 1_555
In3_1 Tm0_5 3.178981 1_555
In3_1 Tm8_7 3.185617 1_545
In3_1 Tm8_3 3.185617 1_545
In3_1 Tm3_5 3.288887 1_555
In3_1 Tm3_1 3.288887 1_555
In3_1 In4_1 3.313282 1_555
In3_1 Tm9_5 3.372872 1_555
In3_1 Tm9_1 3.372872 1_555
In3_2 Pd2_0 3.002821 1_555
In3_2 Tm0_2 3.178981 1_555
In3_2 Tm0_6 3.178981 1_555
In3_2 Tm8_4 3.185617 1_555
In3_2 Tm8_0 3.185617 1_555
In3_2 Tm3_2 3.288887 1_555
In3_2 Tm3_6 3.288887 1_555
In3_2 In4_2 3.313282 1_555
In3_2 Tm9_6 3.372872 1_555
In3_2 Tm9_2 3.372872 1_555
In3_3 Pd2_1 3.002821 1_555
In3_3 Tm0_3 3.178981 1_555
In3_3 Tm0_7 3.178981 1_555
In3_3 Tm8_1 3.185617 1_555
In3_3 Tm8_5 3.185617 1_555
In3_3 Tm3_3 3.288887 1_555
In3_3 Tm3_7 3.288887 1_555
In3_3 In4_3 3.313282 1_555
In3_3 Tm9_7 3.372872 1_555
In3_3 Tm9_3 3.372872 1_555
In3_4 Pd2_6 3.002821 1_545
In3_4 Tm0_0 3.178981 1_655
In3_4 Tm0_4 3.178981 1_555
In3_4 Tm8_2 3.185617 1_645
In3_4 Tm8_6 3.185617 1_545
In3_4 Tm3_0 3.288887 1_655
In3_4 Tm3_4 3.288887 1_555
In3_4 In4_4 3.313282 1_555
In3_4 Tm9_0 3.372872 1_655
In3_4 Tm9_4 3.372872 1_555
In3_5 Pd2_7 3.002821 1_545
In3_5 Tm0_1 3.178981 1_655
In3_5 Tm0_5 3.178981 1_555
In3_5 Tm8_3 3.185617 1_645
In3_5 Tm8_7 3.185617 1_545
In3_5 Tm3_1 3.288887 1_655
In3_5 Tm3_5 3.288887 1_555
In3_5 In4_5 3.313282 1_555
In3_5 Tm9_1 3.372872 1_655
In3_5 Tm9_5 3.372872 1_555
In3_6 Pd2_4 3.002821 1_555
In3_6 Tm0_2 3.178981 1_655
In3_6 Tm0_6 3.178981 1_555
In3_6 Tm8_0 3.185617 1_655
In3_6 Tm8_4 3.185617 1_555
In3_6 Tm3_2 3.288887 1_655
In3_6 Tm3_6 3.288887 1_555
In3_6 In4_6 3.313282 1_555
In3_6 Tm9_2 3.372872 1_655
In3_6 Tm9_6 3.372872 1_555
In3_7 Pd2_5 3.002821 1_555
In3_7 Tm0_3 3.178981 1_655
In3_7 Tm0_7 3.178981 1_555
In3_7 Tm8_1 3.185617 1_655
In3_7 Tm8_5 3.185617 1_555
In3_7 Tm3_3 3.288887 1_655
In3_7 Tm3_7 3.288887 1_555
In3_7 In4_7 3.313282 1_555
In3_7 Tm9_3 3.372872 1_655
In3_7 Tm9_7 3.372872 1_555
In4_0 Pd1_0 2.929086 1_555
In4_0 Tm8_4 3.267627 1_555
In4_0 Tm8_0 3.267627 1_555
In4_0 Pd2_0 3.290089 1_555
In4_0 Tm0_4 3.296286 1_555
In4_0 Tm0_0 3.296286 1_555
In4_0 Tm4_0 3.314200 1_555
In4_0 Tm4_4 3.314200 1_555
In4_0 Tm3_0 3.405890 1_555
In4_0 Tm3_4 3.405890 1_555
In4_1 Pd1_1 2.929086 1_555
In4_1 Tm8_5 3.267627 1_555
In4_1 Tm8_1 3.267627 1_555
In4_1 Pd2_1 3.290089 1_555
In4_1 Tm0_5 3.296286 1_555
In4_1 Tm0_1 3.296286 1_555
In4_1 Tm4_1 3.314200 1_555
In4_1 Tm4_5 3.314200 1_555
In4_1 Tm3_5 3.405890 1_555
In4_1 Tm3_1 3.405890 1_555
In4_2 Pd1_2 2.929086 1_555
In4_2 Tm8_6 3.267627 1_555
In4_2 Tm8_2 3.267627 1_555
In4_2 Pd2_2 3.290089 1_555
In4_2 Tm0_2 3.296286 1_555
In4_2 Tm0_6 3.296286 1_555
In4_2 Tm4_6 3.314200 1_555
In4_2 Tm4_2 3.314200 1_555
In4_2 Tm3_2 3.405890 1_555
In4_2 Tm3_6 3.405890 1_555
In4_3 Pd1_3 2.929086 1_555
In4_3 Tm8_3 3.267627 1_555
In4_3 Tm8_7 3.267627 1_555
In4_3 Pd2_3 3.290089 1_555
In4_3 Tm0_3 3.296286 1_555
In4_3 Tm0_7 3.296286 1_555
In4_3 Tm4_7 3.314200 1_555
In4_3 Tm4_3 3.314200 1_555
In4_3 Tm3_7 3.405890 1_555
In4_3 Tm3_3 3.405890 1_555
In4_4 Pd1_4 2.929086 1_555
In4_4 Tm8_0 3.267627 1_655
In4_4 Tm8_4 3.267627 1_555
In4_4 Pd2_4 3.290089 1_555
In4_4 Tm0_0 3.296286 1_655
In4_4 Tm0_4 3.296286 1_555
In4_4 Tm4_0 3.314200 1_655
In4_4 Tm4_4 3.314200 1_555
In4_4 Tm3_0 3.405890 1_655
In4_4 Tm3_4 3.405890 1_555
In4_5 Pd1_5 2.929086 1_555
In4_5 Tm8_1 3.267627 1_655
In4_5 Tm8_5 3.267627 1_555
In4_5 Pd2_5 3.290089 1_555
In4_5 Tm0_1 3.296286 1_655
In4_5 Tm0_5 3.296286 1_555
In4_5 Tm4_1 3.314200 1_655
In4_5 Tm4_5 3.314200 1_555
In4_5 Tm3_1 3.405890 1_655
In4_5 Tm3_5 3.405890 1_555
In4_6 Pd1_6 2.929086 1_555
In4_6 Tm8_2 3.267627 1_655
In4_6 Tm8_6 3.267627 1_555
In4_6 Pd2_6 3.290089 1_555
In4_6 Tm0_2 3.296286 1_655
In4_6 Tm0_6 3.296286 1_555
In4_6 Tm4_2 3.314200 1_655
In4_6 Tm4_6 3.314200 1_555
In4_6 Tm3_2 3.405890 1_655
In4_6 Tm3_6 3.405890 1_555
In4_7 Pd1_7 2.929086 1_555
In4_7 Tm8_3 3.267627 1_655
In4_7 Tm8_7 3.267627 1_555
In4_7 Pd2_7 3.290089 1_555
In4_7 Tm0_3 3.296286 1_655
In4_7 Tm0_7 3.296286 1_555
In4_7 Tm4_3 3.314200 1_655
In4_7 Tm4_7 3.314200 1_555
In4_7 Tm3_3 3.405890 1_655
In4_7 Tm3_7 3.405890 1_555
In5_0 Pd0_0 2.929086 1_555
In5_0 Tm9_0 3.267627 1_555
In5_0 Tm9_4 3.267627 1_555
In5_0 Pd3_0 3.290089 1_555
In5_0 Tm0_4 3.296286 1_555
In5_0 Tm0_0 3.296286 1_555
In5_0 Tm5_4 3.314213 1_555
In5_0 Tm5_0 3.314213 1_555
In5_0 Tm2_4 3.405883 1_555
In5_0 Tm2_0 3.405883 1_555
In5_1 Pd0_1 2.929086 1_555
In5_1 Tm9_5 3.267627 1_555
In5_1 Tm9_1 3.267627 1_555
In5_1 Pd3_1 3.290089 1_555
In5_1 Tm0_5 3.296286 1_555
In5_1 Tm0_1 3.296286 1_555
In5_1 Tm5_5 3.314213 1_555
In5_1 Tm5_1 3.314213 1_555
In5_1 Tm2_5 3.405883 1_555
In5_1 Tm2_1 3.405883 1_555
In5_2 Pd0_2 2.929086 1_555
In5_2 Tm9_2 3.267627 1_555
In5_2 Tm9_6 3.267627 1_555
In5_2 Pd3_2 3.290089 1_555
In5_2 Tm0_2 3.296286 1_555
In5_2 Tm0_6 3.296286 1_555
In5_2 Tm5_2 3.314213 1_555
In5_2 Tm5_6 3.314213 1_555
In5_2 Tm2_2 3.405883 1_555
In5_2 Tm2_6 3.405883 1_555
In5_3 Pd0_3 2.929086 1_555
In5_3 Tm9_7 3.267627 1_555
In5_3 Tm9_3 3.267627 1_555
In5_3 Pd3_3 3.290089 1_555
In5_3 Tm0_7 3.296286 1_555
In5_3 Tm0_3 3.296286 1_555
In5_3 Tm5_7 3.314213 1_555
In5_3 Tm5_3 3.314213 1_555
In5_3 Tm2_7 3.405883 1_555
In5_3 Tm2_3 3.405883 1_555
In5_4 Pd0_4 2.929086 1_555
In5_4 Tm9_0 3.267627 1_655
In5_4 Tm9_4 3.267627 1_555
In5_4 Pd3_4 3.290089 1_555
In5_4 Tm0_0 3.296286 1_655
In5_4 Tm0_4 3.296286 1_555
In5_4 Tm5_0 3.314213 1_655
In5_4 Tm5_4 3.314213 1_555
In5_4 Tm2_0 3.405883 1_655
In5_4 Tm2_4 3.405883 1_555
In5_5 Pd0_5 2.929086 1_555
In5_5 Tm9_1 3.267627 1_655
In5_5 Tm9_5 3.267627 1_555
In5_5 Pd3_5 3.290089 1_555
In5_5 Tm0_1 3.296286 1_655
In5_5 Tm0_5 3.296286 1_555
In5_5 Tm5_1 3.314213 1_655
In5_5 Tm5_5 3.314213 1_555
In5_5 Tm2_1 3.405883 1_655
In5_5 Tm2_5 3.405883 1_555
In5_6 Pd0_6 2.929086 1_555
In5_6 Tm9_2 3.267627 1_655
In5_6 Tm9_6 3.267627 1_555
In5_6 Pd3_6 3.290089 1_555
In5_6 Tm0_2 3.296286 1_655
In5_6 Tm0_6 3.296286 1_555
In5_6 Tm5_2 3.314213 1_655
In5_6 Tm5_6 3.314213 1_555
In5_6 Tm2_2 3.405883 1_655
In5_6 Tm2_6 3.405883 1_555
In5_7 Pd0_7 2.929086 1_555
In5_7 Tm9_3 3.267627 1_655
In5_7 Tm9_7 3.267627 1_555
In5_7 Pd3_7 3.290089 1_555
In5_7 Tm0_3 3.296286 1_655
In5_7 Tm0_7 3.296286 1_555
In5_7 Tm5_3 3.314213 1_655
In5_7 Tm5_7 3.314213 1_555
In5_7 Tm2_3 3.405883 1_655
In5_7 Tm2_7 3.405883 1_555
In6_0 Pd3_2 2.929086 1_555
In6_0 Tm6_4 3.267627 1_555
In6_0 Tm6_0 3.267627 1_555
In6_0 Pd0_0 3.290089 1_555
In6_0 Tm1_6 3.296286 1_555
In6_0 Tm1_2 3.296286 1_555
In6_0 Tm2_4 3.314213 1_555
In6_0 Tm2_0 3.314213 1_555
In6_0 Tm5_6 3.405883 1_555
In6_0 Tm5_2 3.405883 1_555
In6_1 Pd3_3 2.929086 1_555
In6_1 Tm6_5 3.267627 1_555
In6_1 Tm6_1 3.267627 1_555
In6_1 Pd0_1 3.290089 1_555
In6_1 Tm1_7 3.296286 1_555
In6_1 Tm1_3 3.296286 1_555
In6_1 Tm2_5 3.314213 1_555
In6_1 Tm2_1 3.314213 1_555
In6_1 Tm5_7 3.405883 1_555
In6_1 Tm5_3 3.405883 1_555
In6_2 Pd3_0 2.929086 1_565
In6_2 Tm6_2 3.267627 1_555
In6_2 Tm6_6 3.267627 1_555
In6_2 Pd0_2 3.290089 1_555
In6_2 Tm1_4 3.296286 1_565
In6_2 Tm1_0 3.296286 1_565
In6_2 Tm2_2 3.314213 1_555
In6_2 Tm2_6 3.314213 1_555
In6_2 Tm5_0 3.405883 1_565
In6_2 Tm5_4 3.405883 1_565
In6_3 Pd3_1 2.929086 1_565
In6_3 Tm6_3 3.267627 1_555
In6_3 Tm6_7 3.267627 1_555
In6_3 Pd0_3 3.290089 1_555
In6_3 Tm1_5 3.296286 1_565
In6_3 Tm1_1 3.296286 1_565
In6_3 Tm2_7 3.314213 1_555
In6_3 Tm2_3 3.314213 1_555
In6_3 Tm5_5 3.405883 1_565
In6_3 Tm5_1 3.405883 1_565
In6_4 Pd3_6 2.929086 1_555
In6_4 Tm6_0 3.267627 1_655
In6_4 Tm6_4 3.267627 1_555
In6_4 Pd0_4 3.290089 1_555
In6_4 Tm1_2 3.296286 1_655
In6_4 Tm1_6 3.296286 1_555
In6_4 Tm2_0 3.314213 1_655
In6_4 Tm2_4 3.314213 1_555
In6_4 Tm5_2 3.405883 1_655
In6_4 Tm5_6 3.405883 1_555
In6_5 Pd3_7 2.929086 1_555
In6_5 Tm6_1 3.267627 1_655
In6_5 Tm6_5 3.267627 1_555
In6_5 Pd0_5 3.290089 1_555
In6_5 Tm1_3 3.296286 1_655
In6_5 Tm1_7 3.296286 1_555
In6_5 Tm2_1 3.314213 1_655
In6_5 Tm2_5 3.314213 1_555
In6_5 Tm5_3 3.405883 1_655
In6_5 Tm5_7 3.405883 1_555
In6_6 Pd3_4 2.929086 1_565
In6_6 Tm6_2 3.267627 1_655
In6_6 Tm6_6 3.267627 1_555
In6_6 Pd0_6 3.290089 1_555
In6_6 Tm1_0 3.296286 1_665
In6_6 Tm1_4 3.296286 1_565
In6_6 Tm2_2 3.314213 1_655
In6_6 Tm2_6 3.314213 1_555
In6_6 Tm5_0 3.405883 1_665
In6_6 Tm5_4 3.405883 1_565
In6_7 Pd3_5 2.929086 1_565
In6_7 Tm6_3 3.267627 1_655
In6_7 Tm6_7 3.267627 1_555
In6_7 Pd0_7 3.290089 1_555
In6_7 Tm1_1 3.296286 1_665
In6_7 Tm1_5 3.296286 1_565
In6_7 Tm2_3 3.314213 1_655
In6_7 Tm2_7 3.314213 1_555
In6_7 Tm5_1 3.405883 1_665
In6_7 Tm5_5 3.405883 1_565
In7_0 Pd2_2 2.929086 1_545
In7_0 Tm7_0 3.267627 1_555
In7_0 Tm7_4 3.267627 1_555
In7_0 Pd1_0 3.290089 1_555
In7_0 Tm1_5 3.296286 1_555
In7_0 Tm1_1 3.296286 1_555
In7_0 Tm3_4 3.314200 1_555
In7_0 Tm3_0 3.314200 1_555
In7_0 Tm4_2 3.405890 1_545
In7_0 Tm4_6 3.405890 1_545
In7_1 Pd2_3 2.929086 1_545
In7_1 Tm7_1 3.267627 1_555
In7_1 Tm7_5 3.267627 1_555
In7_1 Pd1_1 3.290089 1_555
In7_1 Tm1_0 3.296286 1_556
In7_1 Tm1_4 3.296286 1_556
In7_1 Tm3_5 3.314200 1_555
In7_1 Tm3_1 3.314200 1_555
In7_1 Tm4_7 3.405890 1_545
In7_1 Tm4_3 3.405890 1_545
In7_2 Pd2_0 2.929086 1_555
In7_2 Tm7_2 3.267627 1_555
In7_2 Tm7_6 3.267627 1_555
In7_2 Pd1_2 3.290089 1_555
In7_2 Tm1_3 3.296286 1_555
In7_2 Tm1_7 3.296286 1_555
In7_2 Tm3_6 3.314200 1_555
In7_2 Tm3_2 3.314200 1_555
In7_2 Tm4_4 3.405890 1_555
In7_2 Tm4_0 3.405890 1_555
In7_3 Pd2_1 2.929086 1_555
In7_3 Tm7_7 3.267627 1_555
In7_3 Tm7_3 3.267627 1_555
In7_3 Pd1_3 3.290089 1_555
In7_3 Tm1_2 3.296286 1_556
In7_3 Tm1_6 3.296286 1_556
In7_3 Tm3_3 3.314200 1_555
In7_3 Tm3_7 3.314200 1_555
In7_3 Tm4_1 3.405890 1_555
In7_3 Tm4_5 3.405890 1_555
In7_4 Pd2_6 2.929086 1_545
In7_4 Tm7_0 3.267627 1_655
In7_4 Tm7_4 3.267627 1_555
In7_4 Pd1_4 3.290089 1_555
In7_4 Tm1_1 3.296286 1_655
In7_4 Tm1_5 3.296286 1_555
In7_4 Tm3_0 3.314200 1_655
In7_4 Tm3_4 3.314200 1_555
In7_4 Tm4_2 3.405890 1_645
In7_4 Tm4_6 3.405890 1_545
In7_5 Pd2_7 2.929086 1_545
In7_5 Tm7_1 3.267627 1_655
In7_5 Tm7_5 3.267627 1_555
In7_5 Pd1_5 3.290089 1_555
In7_5 Tm1_0 3.296286 1_656
In7_5 Tm1_4 3.296286 1_556
In7_5 Tm3_1 3.314200 1_655
In7_5 Tm3_5 3.314200 1_555
In7_5 Tm4_3 3.405890 1_645
In7_5 Tm4_7 3.405890 1_545
In7_6 Pd2_4 2.929086 1_555
In7_6 Tm7_2 3.267627 1_655
In7_6 Tm7_6 3.267627 1_555
In7_6 Pd1_6 3.290089 1_555
In7_6 Tm1_3 3.296286 1_655
In7_6 Tm1_7 3.296286 1_555
In7_6 Tm3_2 3.314200 1_655
In7_6 Tm3_6 3.314200 1_555
In7_6 Tm4_0 3.405890 1_655
In7_6 Tm4_4 3.405890 1_555
In7_7 Pd2_5 2.929086 1_555
In7_7 Tm7_3 3.267627 1_655
In7_7 Tm7_7 3.267627 1_555
In7_7 Pd1_7 3.290089 1_555
In7_7 Tm1_2 3.296286 1_656
In7_7 Tm1_6 3.296286 1_556
In7_7 Tm3_3 3.314200 1_655
In7_7 Tm3_7 3.314200 1_555
In7_7 Tm4_1 3.405890 1_655
In7_7 Tm4_5 3.405890 1_555
Pd0_0 Tm6_4 2.823417 1_555
Pd0_0 Tm6_0 2.823417 1_555
Pd0_0 Tm2_0 2.917376 1_555
Pd0_0 Tm2_4 2.917376 1_555
Pd0_0 Tm5_4 2.943622 1_555
Pd0_0 Tm5_0 2.943622 1_555
Pd0_1 Tm6_1 2.823417 1_555
Pd0_1 Tm6_5 2.823417 1_555
Pd0_1 Tm2_5 2.917376 1_555
Pd0_1 Tm2_1 2.917376 1_555
Pd0_1 Tm5_5 2.943622 1_555
Pd0_1 Tm5_1 2.943622 1_555
Pd0_2 Tm6_6 2.823417 1_555
Pd0_2 Tm6_2 2.823417 1_555
Pd0_2 Tm2_6 2.917376 1_555
Pd0_2 Tm2_2 2.917376 1_555
Pd0_2 Tm5_6 2.943622 1_555
Pd0_2 Tm5_2 2.943622 1_555
Pd0_3 Tm6_3 2.823417 1_555
Pd0_3 Tm6_7 2.823417 1_555
Pd0_3 Tm2_3 2.917376 1_555
Pd0_3 Tm2_7 2.917376 1_555
Pd0_3 Tm5_3 2.943622 1_555
Pd0_3 Tm5_7 2.943622 1_555
Pd0_4 Tm6_0 2.823417 1_655
Pd0_4 Tm6_4 2.823417 1_555
Pd0_4 Tm2_0 2.917376 1_655
Pd0_4 Tm2_4 2.917376 1_555
Pd0_4 Tm5_0 2.943622 1_655
Pd0_4 Tm5_4 2.943622 1_555
Pd0_5 Tm6_1 2.823417 1_655
Pd0_5 Tm6_5 2.823417 1_555
Pd0_5 Tm2_1 2.917376 1_655
Pd0_5 Tm2_5 2.917376 1_555
Pd0_5 Tm5_1 2.943622 1_655
Pd0_5 Tm5_5 2.943622 1_555
Pd0_6 Tm6_2 2.823417 1_655
Pd0_6 Tm6_6 2.823417 1_555
Pd0_6 Tm2_2 2.917376 1_655
Pd0_6 Tm2_6 2.917376 1_555
Pd0_6 Tm5_2 2.943622 1_655
Pd0_6 Tm5_6 2.943622 1_555
Pd0_7 Tm6_3 2.823417 1_655
Pd0_7 Tm6_7 2.823417 1_555
Pd0_7 Tm2_3 2.917376 1_655
Pd0_7 Tm2_7 2.917376 1_555
Pd0_7 Tm5_3 2.943622 1_655
Pd0_7 Tm5_7 2.943622 1_555
Pd1_0 Tm7_0 2.823417 1_555
Pd1_0 Tm7_4 2.823417 1_555
Pd1_0 Tm3_4 2.917366 1_555
Pd1_0 Tm3_0 2.917366 1_555
Pd1_0 Tm4_4 2.943625 1_555
Pd1_0 Tm4_0 2.943625 1_555
Pd1_1 Tm7_1 2.823417 1_555
Pd1_1 Tm7_5 2.823417 1_555
Pd1_1 Tm3_5 2.917366 1_555
Pd1_1 Tm3_1 2.917366 1_555
Pd1_1 Tm4_1 2.943625 1_555
Pd1_1 Tm4_5 2.943625 1_555
Pd1_2 Tm7_2 2.823417 1_555
Pd1_2 Tm7_6 2.823417 1_555
Pd1_2 Tm3_2 2.917366 1_555
Pd1_2 Tm3_6 2.917366 1_555
Pd1_2 Tm4_6 2.943625 1_555
Pd1_2 Tm4_2 2.943625 1_555
Pd1_3 Tm7_3 2.823417 1_555
Pd1_3 Tm7_7 2.823417 1_555
Pd1_3 Tm3_7 2.917366 1_555
Pd1_3 Tm3_3 2.917366 1_555
Pd1_3 Tm4_7 2.943625 1_555
Pd1_3 Tm4_3 2.943625 1_555
Pd1_4 Tm7_0 2.823417 1_655
Pd1_4 Tm7_4 2.823417 1_555
Pd1_4 Tm3_0 2.917366 1_655
Pd1_4 Tm3_4 2.917366 1_555
Pd1_4 Tm4_0 2.943625 1_655
Pd1_4 Tm4_4 2.943625 1_555
Pd1_5 Tm7_1 2.823417 1_655
Pd1_5 Tm7_5 2.823417 1_555
Pd1_5 Tm3_1 2.917366 1_655
Pd1_5 Tm3_5 2.917366 1_555
Pd1_5 Tm4_1 2.943625 1_655
Pd1_5 Tm4_5 2.943625 1_555
Pd1_6 Tm7_2 2.823417 1_655
Pd1_6 Tm7_6 2.823417 1_555
Pd1_6 Tm3_2 2.917366 1_655
Pd1_6 Tm3_6 2.917366 1_555
Pd1_6 Tm4_2 2.943625 1_655
Pd1_6 Tm4_6 2.943625 1_555
Pd1_7 Tm7_3 2.823417 1_655
Pd1_7 Tm7_7 2.823417 1_555
Pd1_7 Tm3_3 2.917366 1_655
Pd1_7 Tm3_7 2.917366 1_555
Pd1_7 Tm4_3 2.943625 1_655
Pd1_7 Tm4_7 2.943625 1_555
Pd2_0 Tm8_4 2.823417 1_555
Pd2_0 Tm8_0 2.823417 1_555
Pd2_0 Tm4_0 2.917366 1_555
Pd2_0 Tm4_4 2.917366 1_555
Pd2_0 Tm3_2 2.943625 1_555
Pd2_0 Tm3_6 2.943625 1_555
Pd2_1 Tm8_1 2.823417 1_555
Pd2_1 Tm8_5 2.823417 1_555
Pd2_1 Tm4_1 2.917366 1_555
Pd2_1 Tm4_5 2.917366 1_555
Pd2_1 Tm3_7 2.943625 1_555
Pd2_1 Tm3_3 2.943625 1_555
Pd2_2 Tm8_2 2.823417 1_555
Pd2_2 Tm8_6 2.823417 1_555
Pd2_2 Tm4_2 2.917366 1_555
Pd2_2 Tm4_6 2.917366 1_555
Pd2_2 Tm3_4 2.943625 1_565
Pd2_2 Tm3_0 2.943625 1_565
Pd2_3 Tm8_7 2.823417 1_555
Pd2_3 Tm8_3 2.823417 1_555
Pd2_3 Tm4_3 2.917366 1_555
Pd2_3 Tm4_7 2.917366 1_555
Pd2_3 Tm3_1 2.943625 1_565
Pd2_3 Tm3_5 2.943625 1_565
Pd2_4 Tm8_0 2.823417 1_655
Pd2_4 Tm8_4 2.823417 1_555
Pd2_4 Tm4_0 2.917366 1_655
Pd2_4 Tm4_4 2.917366 1_555
Pd2_4 Tm3_2 2.943625 1_655
Pd2_4 Tm3_6 2.943625 1_555
Pd2_5 Tm8_1 2.823417 1_655
Pd2_5 Tm8_5 2.823417 1_555
Pd2_5 Tm4_1 2.917366 1_655
Pd2_5 Tm4_5 2.917366 1_555
Pd2_5 Tm3_3 2.943625 1_655
Pd2_5 Tm3_7 2.943625 1_555
Pd2_6 Tm8_2 2.823417 1_655
Pd2_6 Tm8_6 2.823417 1_555
Pd2_6 Tm4_2 2.917366 1_655
Pd2_6 Tm4_6 2.917366 1_555
Pd2_6 Tm3_0 2.943625 1_665
Pd2_6 Tm3_4 2.943625 1_565
Pd2_7 Tm8_3 2.823417 1_655
Pd2_7 Tm8_7 2.823417 1_555
Pd2_7 Tm4_3 2.917366 1_655
Pd2_7 Tm4_7 2.917366 1_555
Pd2_7 Tm3_1 2.943625 1_665
Pd2_7 Tm3_5 2.943625 1_565
Pd3_0 Tm9_0 2.823417 1_555
Pd3_0 Tm9_4 2.823417 1_555
Pd3_0 Tm5_4 2.917376 1_555
Pd3_0 Tm5_0 2.917376 1_555
Pd3_0 Tm2_2 2.943622 1_545
Pd3_0 Tm2_6 2.943622 1_545
Pd3_1 Tm9_1 2.823417 1_555
Pd3_1 Tm9_5 2.823417 1_555
Pd3_1 Tm5_1 2.917376 1_555
Pd3_1 Tm5_5 2.917376 1_555
Pd3_1 Tm2_7 2.943622 1_545
Pd3_1 Tm2_3 2.943622 1_545
Pd3_2 Tm9_6 2.823417 1_555
Pd3_2 Tm9_2 2.823417 1_555
Pd3_2 Tm5_6 2.917376 1_555
Pd3_2 Tm5_2 2.917376 1_555
Pd3_2 Tm2_0 2.943622 1_555
Pd3_2 Tm2_4 2.943622 1_555
Pd3_3 Tm9_7 2.823417 1_555
Pd3_3 Tm9_3 2.823417 1_555
Pd3_3 Tm5_7 2.917376 1_555
Pd3_3 Tm5_3 2.917376 1_555
Pd3_3 Tm2_5 2.943622 1_555
Pd3_3 Tm2_1 2.943622 1_555
Pd3_4 Tm9_0 2.823417 1_655
Pd3_4 Tm9_4 2.823417 1_555
Pd3_4 Tm5_0 2.917376 1_655
Pd3_4 Tm5_4 2.917376 1_555
Pd3_4 Tm2_2 2.943622 1_645
Pd3_4 Tm2_6 2.943622 1_545
Pd3_5 Tm9_1 2.823417 1_655
Pd3_5 Tm9_5 2.823417 1_555
Pd3_5 Tm5_1 2.917376 1_655
Pd3_5 Tm5_5 2.917376 1_555
Pd3_5 Tm2_3 2.943622 1_645
Pd3_5 Tm2_7 2.943622 1_545
Pd3_6 Tm9_2 2.823417 1_655
Pd3_6 Tm9_6 2.823417 1_555
Pd3_6 Tm5_2 2.917376 1_655
Pd3_6 Tm5_6 2.917376 1_555
Pd3_6 Tm2_0 2.943622 1_655
Pd3_6 Tm2_4 2.943622 1_555
Pd3_7 Tm9_3 2.823417 1_655
Pd3_7 Tm9_7 2.823417 1_555
Pd3_7 Tm5_3 2.917376 1_655
Pd3_7 Tm5_7 2.917376 1_555
Pd3_7 Tm2_1 2.943622 1_655
Pd3_7 Tm2_5 2.943622 1_555
