# generated using pymatgen
data_SbO2
_symmetry_space_group_name_H-M   'P 1'
_cell_length_a   6.59735821
_cell_length_b   6.59735821
_cell_length_c   20.92862374
_cell_angle_alpha   86.42251104
_cell_angle_beta   86.42251104
_cell_angle_gamma   58.20954758
_symmetry_Int_Tables_number   1
_chemical_formula_structural   SbO2
_chemical_formula_sum   'Sb16 O32'
_cell_volume   772.28823933
_cell_formula_units_Z   16
loop_
 _symmetry_equiv_pos_site_id
 _symmetry_equiv_pos_as_xyz
  1  'x, y, z'
loop_
 _atom_site_type_symbol
 _atom_site_label
 _atom_site_symmetry_multiplicity
 _atom_site_fract_x
 _atom_site_fract_y
 _atom_site_fract_z
 _atom_site_occupancy
  Sb  Sb0  1  0.83063100  0.32658600  0.87829800  1
  Sb  Sb1  1  0.03034100  0.03034100  0.72853300  1
  Sb  Sb2  1  0.32658600  0.83063100  0.87829800  1
  Sb  Sb3  1  0.15352100  0.15352100  0.49076900  1
  Sb  Sb4  1  0.19650500  0.68634600  0.61326600  1
  Sb  Sb5  1  0.35913600  0.35913600  0.77507100  1
  Sb  Sb6  1  0.69595900  0.69595900  0.25399300  1
  Sb  Sb7  1  0.68634600  0.19650500  0.61326600  1
  Sb  Sb8  1  0.72577900  0.22711500  0.37890900  1
  Sb  Sb9  1  0.75439600  0.75439600  0.50842600  1
  Sb  Sb10  1  0.22711500  0.72577900  0.37890900  1
  Sb  Sb11  1  0.78375700  0.25747600  0.13950100  1
  Sb  Sb12  1  0.25747600  0.78375700  0.13950100  1
  Sb  Sb13  1  0.30017800  0.30017800  0.26337300  1
  Sb  Sb14  1  0.53703700  0.53703700  0.01094000  1
  Sb  Sb15  1  0.81068000  0.81068000  0.99807900  1
  O  O0  1  0.45492300  0.86151900  0.97245100  1
  O  O1  1  0.65432900  0.65432900  0.83735100  1
  O  O2  1  0.86151900  0.45492300  0.97245100  1
  O  O3  1  0.46713300  0.46713300  0.92431700  1
  O  O4  1  0.17535900  0.17535900  0.77234000  1
  O  O5  1  0.84617400  0.30259800  0.66532200  1
  O  O6  1  0.73161500  0.18243300  0.78609200  1
  O  O7  1  0.00435400  0.00435400  0.55548000  1
  O  O8  1  0.30259800  0.84617400  0.66532200  1
  O  O9  1  0.91704900  0.91704900  0.92392200  1
  O  O10  1  0.87983600  0.87983600  0.66995800  1
  O  O11  1  0.18243300  0.73161500  0.78609200  1
  O  O12  1  0.33868500  0.85767900  0.44144100  1
  O  O13  1  0.50899300  0.50899300  0.56494000  1
  O  O14  1  0.04108700  0.56793700  0.56256400  1
  O  O15  1  0.56488300  0.56488300  0.33061200  1
  O  O16  1  0.85767900  0.33868500  0.44144100  1
  O  O17  1  0.36987900  0.36987900  0.67228800  1
  O  O18  1  0.40047600  0.40047600  0.42303600  1
  O  O19  1  0.56793700  0.04108700  0.56256400  1
  O  O20  1  0.05160500  0.05160500  0.33478800  1
  O  O21  1  0.86451500  0.38785400  0.20977700  1
  O  O22  1  0.59539300  0.12220200  0.31345300  1
  O  O23  1  0.11579600  0.11579600  0.10341300  1
  O  O24  1  0.38785400  0.86451500  0.20977700  1
  O  O25  1  0.88664600  0.88664600  0.42957000  1
  O  O26  1  0.91546000  0.91546000  0.17334600  1
  O  O27  1  0.12220200  0.59539300  0.31345300  1
  O  O28  1  0.61225200  0.61225200  0.09821400  1
  O  O29  1  0.21504800  0.66810600  0.05667200  1
  O  O30  1  0.42897700  0.42897700  0.18331900  1
  O  O31  1  0.66810600  0.21504800  0.05667200  1
loop_
_geom_bond_atom_site_label_1
_geom_bond_atom_site_label_2
_geom_bond_distance
_geom_bond_site_symmetry_2
O0 Sb14 2.035289 1_556
O0 Sb2 2.254186 1_555
O0 Sb15 2.283435 1_555
O1 Sb2 2.001460 1_555
O1 Sb0 2.001460 1_555
O2 Sb14 2.035289 1_556
O2 Sb0 2.254186 1_555
O2 Sb15 2.283435 1_555
O3 Sb14 2.035868 1_556
O3 Sb2 2.240244 1_555
O3 Sb0 2.240244 1_555
O4 Sb1 1.963316 1_555
O4 Sb5 2.123547 1_555
O5 Sb7 1.950596 1_555
O5 Sb1 2.014265 1_655
O6 Sb1 2.028059 1_655
O6 Sb5 2.114175 1_555
O6 Sb0 2.469012 1_555
O7 Sb3 2.111599 1_555
O7 Sb4 2.131600 1_545
O7 Sb7 2.131600 1_455
O8 Sb4 1.950596 1_555
O8 Sb1 2.014265 1_565
O9 Sb15 1.908053 1_555
O9 Sb0 2.580658 1_565
O9 Sb2 2.580658 1_655
O10 Sb4 2.114638 1_655
O10 Sb7 2.114638 1_565
O10 Sb1 2.194827 1_665
O11 Sb1 2.028059 1_565
O11 Sb5 2.114175 1_555
O11 Sb2 2.469012 1_555
O12 Sb10 1.987198 1_555
O12 Sb3 1.987318 1_565
O13 Sb4 1.997012 1_555
O13 Sb7 1.997012 1_555
O14 Sb4 1.967422 1_555
O14 Sb9 2.004108 1_455
O15 Sb10 2.115342 1_555
O15 Sb8 2.115342 1_555
O15 Sb6 2.123374 1_555
O16 Sb8 1.987198 1_555
O16 Sb3 1.987318 1_655
O17 Sb7 2.128743 1_555
O17 Sb4 2.128743 1_555
O17 Sb5 2.145821 1_555
O18 Sb8 2.016222 1_555
O18 Sb10 2.016222 1_555
O19 Sb7 1.967422 1_555
O19 Sb9 2.004108 1_545
O20 Sb8 2.019246 1_455
O20 Sb10 2.019246 1_545
O21 Sb11 1.981274 1_555
O21 Sb6 1.987315 1_555
O22 Sb13 1.990520 1_555
O22 Sb8 1.997089 1_555
O23 Sb12 1.991738 1_545
O23 Sb11 1.991738 1_455
O24 Sb12 1.981274 1_555
O24 Sb6 1.987315 1_555
O25 Sb10 2.151140 1_655
O25 Sb8 2.151140 1_565
O25 Sb9 2.165375 1_555
O26 Sb11 2.039532 1_565
O26 Sb12 2.039532 1_655
O27 Sb13 1.990520 1_555
O27 Sb10 1.997089 1_555
O28 Sb14 2.077095 1_555
O28 Sb11 2.141141 1_555
O28 Sb12 2.141141 1_555
O29 Sb14 2.022496 1_555
O29 Sb12 2.028832 1_555
O29 Sb15 2.669429 1_454
O30 Sb13 2.157906 1_555
O30 Sb11 2.161233 1_555
O30 Sb12 2.161233 1_555
O31 Sb14 2.022496 1_555
O31 Sb11 2.028832 1_555
O31 Sb15 2.669429 1_544
