# generated using pymatgen
data_YTh(BRh)8
_symmetry_space_group_name_H-M   'P 1'
_cell_length_a   5.36300800
_cell_length_b   5.36300800
_cell_length_c   7.55828000
_cell_angle_alpha   90.00000000
_cell_angle_beta   90.00000000
_cell_angle_gamma   90.00000000
_symmetry_Int_Tables_number   1
_chemical_formula_structural   YTh(BRh)8
_chemical_formula_sum   'Y1 Th1 B8 Rh8'
_cell_volume   217.39015196
_cell_formula_units_Z   1
loop_
 _symmetry_equiv_pos_site_id
 _symmetry_equiv_pos_as_xyz
  1  'x, y, z'
loop_
 _atom_site_type_symbol
 _atom_site_label
 _atom_site_symmetry_multiplicity
 _atom_site_fract_x
 _atom_site_fract_y
 _atom_site_fract_z
 _atom_site_occupancy
  Y  Y0  1  0.00000000  0.00000000  0.50000000  1
  Th  Th0  1  0.50000000  0.50000000  0.00000000  1
  B  B0  1  0.33362200  0.00000000  0.15138700  1
  B  B1  1  0.66637800  0.00000000  0.15138700  1
  B  B2  1  0.50000000  0.83192600  0.65019300  1
  B  B3  1  0.50000000  0.16807400  0.65019300  1
  B  B4  1  0.16807400  0.50000000  0.34980700  1
  B  B5  1  0.83192600  0.50000000  0.34980700  1
  B  B6  1  0.00000000  0.66637800  0.84861300  1
  B  B7  1  0.00000000  0.33362200  0.84861300  1
  Rh  Rh0  1  0.75059800  0.00000000  0.85326500  1
  Rh  Rh1  1  0.24940200  0.00000000  0.85326500  1
  Rh  Rh2  1  0.50000000  0.25010700  0.35753500  1
  Rh  Rh3  1  0.50000000  0.74989300  0.35753500  1
  Rh  Rh4  1  0.74989300  0.50000000  0.64246500  1
  Rh  Rh5  1  0.25010700  0.50000000  0.64246500  1
  Rh  Rh6  1  0.00000000  0.24940200  0.14673500  1
  Rh  Rh7  1  0.00000000  0.75059800  0.14673500  1
loop_
_geom_bond_atom_site_label_1
_geom_bond_atom_site_label_2
_geom_bond_distance
_geom_bond_site_symmetry_2
B0 B1 1.784573 1_555
B0 Rh6 2.234180 1_555
B0 Rh7 2.234180 1_545
B0 Rh2 2.241223 1_555
B0 Rh3 2.241223 1_545
B0 Rh1 2.298113 1_554
B0 Th0 3.048916 1_545
B0 Th0 3.048916 1_555
B0 Y0 3.184976 1_555
B1 Rh6 2.234180 1_655
B1 Rh7 2.234180 1_645
B1 Rh2 2.241223 1_555
B1 Rh3 2.241223 1_545
B1 Rh0 2.298113 1_554
B1 Th0 3.048916 1_555
B1 Th0 3.048916 1_545
B1 Y0 3.184976 1_655
B2 B3 1.802764 1_565
B2 Rh4 2.228974 1_555
B2 Rh5 2.228974 1_555
B2 Rh0 2.230372 1_565
B2 Rh1 2.230372 1_565
B2 Rh3 2.255317 1_555
B2 Y0 3.048218 1_565
B2 Y0 3.048218 1_665
B2 Th0 3.187358 1_556
B3 Rh4 2.228974 1_555
B3 Rh5 2.228974 1_555
B3 Rh0 2.230372 1_555
B3 Rh1 2.230372 1_555
B3 Rh2 2.255317 1_555
B3 Y0 3.048218 1_555
B3 Y0 3.048218 1_655
B3 Th0 3.187358 1_556
B4 B5 1.802764 1_455
B4 Rh3 2.228974 1_555
B4 Rh2 2.228974 1_555
B4 Rh7 2.230372 1_555
B4 Rh6 2.230372 1_555
B4 Rh5 2.255317 1_555
B4 Y0 3.048218 1_555
B4 Y0 3.048218 1_565
B4 Th0 3.187358 1_555
B5 Rh3 2.228974 1_555
B5 Rh2 2.228974 1_555
B5 Rh7 2.230372 1_655
B5 Rh6 2.230372 1_655
B5 Rh4 2.255317 1_555
B5 Y0 3.048218 1_665
B5 Y0 3.048218 1_655
B5 Th0 3.187358 1_555
B6 B7 1.784573 1_555
B6 Rh1 2.234180 1_565
B6 Rh0 2.234180 1_465
B6 Rh5 2.241223 1_555
B6 Rh4 2.241223 1_455
B6 Rh7 2.298113 1_556
B6 Th0 3.048916 1_456
B6 Th0 3.048916 1_556
B6 Y0 3.184976 1_565
B7 Rh1 2.234180 1_555
B7 Rh0 2.234180 1_455
B7 Rh5 2.241223 1_555
B7 Rh4 2.241223 1_455
B7 Rh6 2.298113 1_556
B7 Th0 3.048916 1_456
B7 Th0 3.048916 1_556
B7 Y0 3.184976 1_555
Rh0 Y0 2.986357 1_655
Rh0 Th0 3.197923 1_546
Rh0 Th0 3.197923 1_556
Rh1 Y0 2.986357 1_555
Rh1 Th0 3.197923 1_546
Rh1 Th0 3.197923 1_556
Rh2 Th0 3.016417 1_555
Rh2 Y0 3.185765 1_655
Rh2 Y0 3.185765 1_555
Rh3 Th0 3.016417 1_555
Rh3 Y0 3.185765 1_665
Rh3 Y0 3.185765 1_565
Rh4 Th0 3.016417 1_556
Rh4 Y0 3.185765 1_665
Rh4 Y0 3.185765 1_655
Rh5 Th0 3.016417 1_556
Rh5 Y0 3.185765 1_555
Rh5 Y0 3.185765 1_565
Rh6 Y0 2.986357 1_555
Rh6 Th0 3.197923 1_555
Rh6 Th0 3.197923 1_455
Rh7 Y0 2.986357 1_565
Rh7 Th0 3.197923 1_555
Rh7 Th0 3.197923 1_455
