# generated using pymatgen
data_Hf2Ga3
_symmetry_space_group_name_H-M   'P 1'
_cell_length_a   5.40940491
_cell_length_b   5.40940611
_cell_length_c   7.32490111
_cell_angle_alpha   100.77266512
_cell_angle_beta   100.77265234
_cell_angle_gamma   119.59076140
_symmetry_Int_Tables_number   1
_chemical_formula_structural   Hf2Ga3
_chemical_formula_sum   'Hf4 Ga6'
_cell_volume   173.04247930
_cell_formula_units_Z   2
loop_
 _symmetry_equiv_pos_site_id
 _symmetry_equiv_pos_as_xyz
  1  'x, y, z'
loop_
 _atom_site_type_symbol
 _atom_site_label
 _atom_site_symmetry_multiplicity
 _atom_site_fract_x
 _atom_site_fract_y
 _atom_site_fract_z
 _atom_site_occupancy
  Hf  Hf0  1  0.13323719  0.77070326  0.89525786  1
  Hf  Hf1  1  0.87544440  0.23798032  0.10474214  1
  Hf  Hf2  1  0.02070326  0.88323719  0.39525786  1
  Hf  Hf3  1  0.48797932  0.62544440  0.60474214  1
  Ga  Ga0  1  0.62264366  0.62264366  -0.00000000  1
  Ga  Ga1  1  0.87264366  0.37264366  0.50000000  1
  Ga  Ga2  1  0.54003605  0.17917338  0.73053468  1
  Ga  Ga3  1  0.44864070  0.80950238  0.26946532  1
  Ga  Ga4  1  0.42917338  0.29003605  0.23053468  1
  Ga  Ga5  1  0.05950238  0.19864070  0.76946532  1
loop_
_geom_bond_atom_site_label_1
_geom_bond_atom_site_label_2
_geom_bond_distance
_geom_bond_site_symmetry_2
Hf0 Hf1 3.329809 1_566
Hf0 Hf1 3.329809 1_456
Hf0 Hf3 3.349434 1_455
Hf0 Hf3 3.349438 1_555
Hf1 Hf2 3.349430 1_655
Hf1 Hf2 3.349443 1_645
Hf2 Hf3 3.329809 1_565
Hf2 Hf3 3.329812 1_455
Ga0 Ga3 2.586867 1_555
Ga0 Ga2 2.586873 1_554
Ga0 Ga5 2.668465 1_554
Ga0 Ga4 2.668471 1_555
Ga0 Hf0 2.774157 1_654
Ga0 Hf1 2.774164 1_565
Ga0 Hf3 2.855186 1_554
Ga0 Hf2 2.855188 1_655
Ga0 Hf1 3.131011 1_555
Ga0 Hf0 3.131019 1_554
Ga1 Ga5 2.586867 1_655
Ga1 Ga4 2.586872 1_555
Ga1 Ga3 2.668465 1_545
Ga1 Ga2 2.668470 1_555
Ga1 Hf2 2.774158 1_655
Ga1 Hf3 2.774158 1_655
Ga1 Hf1 2.855185 1_555
Ga1 Hf0 2.855188 1_655
Ga1 Hf3 3.131015 1_555
Ga1 Hf2 3.131020 1_645
Ga2 Ga5 2.717629 1_555
Ga2 Ga5 2.717629 1_655
Ga2 Hf3 2.817559 1_545
Ga2 Hf2 2.827686 1_545
Ga2 Hf1 2.855043 1_556
Ga2 Hf3 2.856902 1_555
Ga2 Hf0 2.892689 1_545
Ga2 Hf0 2.993388 1_655
Ga3 Ga4 2.717630 1_565
Ga3 Ga4 2.717630 1_555
Ga3 Hf2 2.817561 1_555
Ga3 Hf3 2.827691 1_555
Ga3 Hf0 2.855049 1_554
Ga3 Hf2 2.856899 1_655
Ga3 Hf1 2.892697 1_455
Ga3 Hf1 2.993381 1_565
Ga4 Hf1 2.817561 1_455
Ga4 Hf0 2.827686 1_544
Ga4 Hf3 2.855045 1_555
Ga4 Hf1 2.856899 1_555
Ga4 Hf2 2.892689 1_545
Ga4 Hf2 2.993388 1_655
Ga5 Hf0 2.817561 1_545
Ga5 Hf1 2.827691 1_456
Ga5 Hf2 2.855049 1_545
Ga5 Hf0 2.856899 1_555
Ga5 Hf3 2.892700 1_445
Ga5 Hf3 2.993378 1_555
