# generated using pymatgen
data_MgSn8(P2O9)2
_symmetry_space_group_name_H-M   'P 1'
_cell_length_a   11.20762462
_cell_length_b   8.36694002
_cell_length_c   7.09339483
_cell_angle_alpha   63.46527960
_cell_angle_beta   77.78666304
_cell_angle_gamma   94.51584954
_symmetry_Int_Tables_number   1
_chemical_formula_structural   MgSn8(P2O9)2
_chemical_formula_sum   'Mg1 Sn8 P4 O18'
_cell_volume   570.10667811
_cell_formula_units_Z   1
loop_
 _symmetry_equiv_pos_site_id
 _symmetry_equiv_pos_as_xyz
  1  'x, y, z'
loop_
 _atom_site_type_symbol
 _atom_site_label
 _atom_site_symmetry_multiplicity
 _atom_site_fract_x
 _atom_site_fract_y
 _atom_site_fract_z
 _atom_site_occupancy
  Mg  Mg0  1  0.15375871  0.86799725  0.84680920  1
  Sn  Sn0  1  0.09897024  0.23969246  0.19904541  1
  Sn  Sn1  1  0.03402082  0.22073777  0.72864698  1
  Sn  Sn2  1  0.31633786  0.54620977  0.67297596  1
  Sn  Sn3  1  0.42461261  0.09617097  0.78630186  1
  Sn  Sn4  1  0.60973717  0.92812783  0.18354364  1
  Sn  Sn5  1  0.68203704  0.45697103  0.37585967  1
  Sn  Sn6  1  0.94768127  0.81036332  0.27251002  1
  Sn  Sn7  1  0.89312435  0.74404845  0.82294800  1
  P  P0  1  0.30372898  0.98252331  0.43611606  1
  P  P1  1  0.23251100  0.62448060  0.16734638  1
  P  P2  1  0.76236463  0.36597790  0.85705311  1
  P  P3  1  0.70957804  0.02694856  0.54704947  1
  O  O0  1  0.09499616  0.65513933  0.16725359  1
  O  O1  1  0.22086271  0.78806852  0.61486237  1
  O  O2  1  0.24476132  0.07416381  0.24708855  1
  O  O3  1  0.26172201  0.57288039  0.38330354  1
  O  O4  1  0.31094473  0.81330242  0.97513397  1
  O  O5  1  0.29569478  0.08662091  0.57757591  1
  O  O6  1  0.43603541  0.96272322  0.35581069  1
  O  O7  1  0.25219230  0.47727620  0.09246851  1
  O  O8  1  0.15352069  0.34072789  0.85275018  1
  O  O9  1  0.82727510  0.68594308  0.15923910  1
  O  O10  1  0.75033374  0.50390426  0.95047102  1
  O  O11  1  0.56903817  0.99482891  0.66351344  1
  O  O12  1  0.72141615  0.93502362  0.39606546  1
  O  O13  1  0.64189677  0.21581236  0.97566035  1
  O  O14  1  0.77611513  0.47153857  0.60788135  1
  O  O15  1  0.77681412  0.93570114  0.72733226  1
  O  O16  1  0.76989255  0.23143356  0.40888921  1
  O  O17  1  0.87802543  0.28037660  0.90219876  1
loop_
_geom_bond_atom_site_label_1
_geom_bond_atom_site_label_2
_geom_bond_distance
_geom_bond_site_symmetry_2
Mg0 O1 2.063636 1_555
Mg0 O0 2.082597 1_556
Mg0 O4 2.138870 1_555
Mg0 O5 2.158453 1_565
O0 P1 1.582302 1_555
O0 Sn6 2.377530 1_455
O1 P0 1.593091 1_555
O1 Sn2 2.278651 1_555
O2 P0 1.535804 1_545
O2 Sn0 2.207801 1_555
O3 P1 1.511204 1_555
O3 Sn2 2.188723 1_555
O4 P1 1.573935 1_556
O4 Sn3 2.233679 1_565
O5 P0 1.590150 1_545
O5 Sn3 2.297555 1_555
O6 P0 1.521960 1_555
O6 Sn4 2.182930 1_555
O7 P1 1.557379 1_555
O7 Sn0 2.245547 1_555
O7 Sn2 2.683285 1_554
O8 Sn2 2.115279 1_555
O8 Sn0 2.133121 1_556
O8 Sn1 2.157169 1_555
O9 Sn5 2.121663 1_555
O9 Sn6 2.129607 1_555
O9 Sn7 2.152629 1_554
O10 P2 1.568122 1_555
O10 Sn7 2.161886 1_555
O11 P3 1.555672 1_565
O11 Sn3 2.092165 1_565
O12 P3 1.564646 1_565
O12 Sn4 2.169612 1_555
O13 P2 1.554721 1_555
O13 Sn4 2.136671 1_546
O14 P2 1.548007 1_555
O14 Sn5 2.174524 1_555
O15 P3 1.553090 1_565
O15 Sn7 2.112379 1_555
O16 P3 1.544045 1_555
O16 Sn5 2.140233 1_555
O17 P2 1.553313 1_555
O17 Sn1 2.144014 1_655
