# generated using pymatgen
data_TbSi3Rh
_symmetry_space_group_name_H-M   'P 1'
_cell_length_a   5.69566467
_cell_length_b   5.69566467
_cell_length_c   5.69566467
_cell_angle_alpha   137.17688728
_cell_angle_beta   137.17688728
_cell_angle_gamma   62.16600216
_symmetry_Int_Tables_number   1
_chemical_formula_structural   TbSi3Rh
_chemical_formula_sum   'Tb1 Si3 Rh1'
_cell_volume   84.35669302
_cell_formula_units_Z   1
loop_
 _symmetry_equiv_pos_site_id
 _symmetry_equiv_pos_as_xyz
  1  'x, y, z'
loop_
 _atom_site_type_symbol
 _atom_site_label
 _atom_site_symmetry_multiplicity
 _atom_site_fract_x
 _atom_site_fract_y
 _atom_site_fract_z
 _atom_site_occupancy
  Tb  Tb0  1  0.99841083  0.99841083  -0.00000000  1
  Si  Si0  1  0.41462992  0.41462992  0.00000000  1
  Si  Si1  1  0.26419725  0.76419725  0.50000000  1
  Si  Si2  1  0.76419725  0.26419725  0.50000000  1
  Rh  Rh0  1  0.65256374  0.65256374  0.00000000  1
loop_
_geom_bond_atom_site_label_1
_geom_bond_atom_site_label_2
_geom_bond_distance
_geom_bond_site_symmetry_2
Si0 Si1 2.545041 1_555
Si0 Si1 2.545041 1_544
Si0 Si2 2.545041 1_555
Si0 Si2 2.545041 1_454
Si0 Tb0 3.052034 1_545
Si0 Tb0 3.052034 1_556
Si0 Tb0 3.052034 1_455
Si0 Tb0 3.052034 1_444
Si1 Tb0 3.089392 1_455
Si1 Tb0 3.089392 1_556
Si1 Tb0 3.323675 1_445
Si1 Tb0 3.323675 1_456
Si2 Tb0 3.089392 1_545
Si2 Tb0 3.089392 1_556
Si2 Tb0 3.323675 1_546
Si2 Tb0 3.323675 1_445
Rh0 Si0 2.321227 1_555
Rh0 Si2 2.347233 1_554
Rh0 Si1 2.347233 1_655
Rh0 Si1 2.347233 1_554
Rh0 Si2 2.347233 1_565
Rh0 Tb0 3.302803 1_455
Rh0 Tb0 3.302803 1_444
Rh0 Tb0 3.302803 1_545
Rh0 Tb0 3.302803 1_556
Rh0 Tb0 3.374003 1_555
