# generated using pymatgen
data_Cs2PH4Se3O2
_symmetry_space_group_name_H-M   'P 1'
_cell_length_a   8.03372800
_cell_length_b   10.21256500
_cell_length_c   13.01651300
_cell_angle_alpha   90.00000000
_cell_angle_beta   90.00000000
_cell_angle_gamma   90.00000000
_symmetry_Int_Tables_number   1
_chemical_formula_structural   Cs2PH4Se3O2
_chemical_formula_sum   'Cs8 P4 H16 Se12 O8'
_cell_volume   1067.93941068
_cell_formula_units_Z   4
loop_
 _symmetry_equiv_pos_site_id
 _symmetry_equiv_pos_as_xyz
  1  'x, y, z'
loop_
 _atom_site_type_symbol
 _atom_site_label
 _atom_site_symmetry_multiplicity
 _atom_site_fract_x
 _atom_site_fract_y
 _atom_site_fract_z
 _atom_site_occupancy
  Cs  Cs0  1  0.00000000  0.89475500  0.34010600  1
  Cs  Cs1  1  0.00000000  0.10524500  0.65989400  1
  Cs  Cs2  1  0.50000000  0.39475500  0.15989400  1
  Cs  Cs3  1  0.50000000  0.60524500  0.84010600  1
  Cs  Cs4  1  0.00000000  0.50000000  0.50000000  1
  Cs  Cs5  1  0.50000000  0.00000000  0.00000000  1
  Cs  Cs6  1  0.50000000  0.50000000  0.50000000  1
  Cs  Cs7  1  0.00000000  0.00000000  0.00000000  1
  P  P0  1  0.50000000  0.88648000  0.49110500  1
  P  P1  1  0.50000000  0.11352000  0.50889500  1
  P  P2  1  0.00000000  0.38648000  0.00889500  1
  P  P3  1  0.00000000  0.61352000  0.99110500  1
  H  H0  1  0.70029400  0.65836000  0.30724000  1
  H  H1  1  0.70029400  0.34164000  0.69276000  1
  H  H2  1  0.79970600  0.15836000  0.19276000  1
  H  H3  1  0.79970600  0.84164000  0.80724000  1
  H  H4  1  0.29970600  0.34164000  0.69276000  1
  H  H5  1  0.29970600  0.65836000  0.30724000  1
  H  H6  1  0.20029400  0.84164000  0.80724000  1
  H  H7  1  0.20029400  0.15836000  0.19276000  1
  H  H8  1  0.81895500  0.55139300  0.26109600  1
  H  H9  1  0.81895500  0.44860700  0.73890400  1
  H  H10  1  0.68104500  0.05139300  0.23890400  1
  H  H11  1  0.68104500  0.94860700  0.76109600  1
  H  H12  1  0.18104500  0.44860700  0.73890400  1
  H  H13  1  0.18104500  0.55139300  0.26109600  1
  H  H14  1  0.31895500  0.94860700  0.76109600  1
  H  H15  1  0.31895500  0.05139300  0.23890400  1
  Se  Se0  1  0.72624100  0.81282400  0.56659600  1
  Se  Se1  1  0.72624100  0.18717600  0.43340400  1
  Se  Se2  1  0.77375900  0.31282400  0.93340400  1
  Se  Se3  1  0.77375900  0.68717600  0.06659600  1
  Se  Se4  1  0.27375900  0.18717600  0.43340400  1
  Se  Se5  1  0.27375900  0.81282400  0.56659600  1
  Se  Se6  1  0.22624100  0.68717600  0.06659600  1
  Se  Se7  1  0.22624100  0.31282400  0.93340400  1
  Se  Se8  1  0.50000000  0.85097300  0.32134200  1
  Se  Se9  1  0.50000000  0.14902700  0.67865800  1
  Se  Se10  1  0.00000000  0.35097300  0.17865800  1
  Se  Se11  1  0.00000000  0.64902700  0.82134200  1
  O  O0  1  0.75812300  0.57593300  0.32432200  1
  O  O1  1  0.75812300  0.42406700  0.67567800  1
  O  O2  1  0.74187700  0.07593300  0.17567800  1
  O  O3  1  0.74187700  0.92406700  0.82432200  1
  O  O4  1  0.24187700  0.42406700  0.67567800  1
  O  O5  1  0.24187700  0.57593300  0.32432200  1
  O  O6  1  0.25812300  0.92406700  0.82432200  1
  O  O7  1  0.25812300  0.07593300  0.17567800  1
loop_
_geom_bond_atom_site_label_1
_geom_bond_atom_site_label_2
_geom_bond_distance
_geom_bond_site_symmetry_2
Cs0 H15 3.295469 1_565
Cs0 H10 3.295469 1_465
Cs0 H5 3.436374 1_555
Cs0 H0 3.436374 1_455
Cs0 O7 3.507786 1_565
Cs0 O2 3.507786 1_465
Cs0 Se0 3.772056 1_455
Cs0 Se5 3.772056 1_555
Cs0 Se1 3.902582 1_465
Cs0 Se4 3.902582 1_565
Cs1 H14 3.295469 1_545
Cs1 H11 3.295469 1_445
Cs1 H4 3.436374 1_555
Cs1 H1 3.436374 1_455
Cs1 O6 3.507786 1_545
Cs1 O3 3.507786 1_445
Cs1 Se1 3.772056 1_455
Cs1 Se4 3.772056 1_555
Cs1 Se5 3.902582 1_545
Cs1 Se0 3.902582 1_445
Cs2 H13 3.295469 1_555
Cs2 H8 3.295469 1_555
Cs2 H7 3.436374 1_555
Cs2 H2 3.436374 1_555
Cs2 O5 3.507786 1_555
Cs2 O0 3.507786 1_555
Cs2 Se7 3.772056 1_554
Cs2 Se2 3.772056 1_554
Cs2 Se6 3.902582 1_555
Cs2 Se3 3.902582 1_555
Cs3 H12 3.295469 1_555
Cs3 H9 3.295469 1_555
Cs3 H6 3.436374 1_555
Cs3 H3 3.436374 1_555
Cs3 O4 3.507786 1_555
Cs3 O1 3.507786 1_555
Cs3 Se6 3.772056 1_556
Cs3 Se3 3.772056 1_556
Cs3 Se2 3.902582 1_555
Cs3 Se7 3.902582 1_555
Cs4 O1 3.099411 1_455
Cs4 O4 3.099411 1_555
Cs4 O5 3.099411 1_555
Cs4 O0 3.099411 1_455
Cs5 O7 3.099411 1_555
Cs5 O2 3.099411 1_555
Cs5 O6 3.099411 1_544
Cs5 O3 3.099411 1_544
Cs6 O1 3.182862 1_555
Cs6 O4 3.182862 1_555
Cs6 O0 3.182862 1_555
Cs6 O5 3.182862 1_555
Cs7 O7 3.182862 1_555
Cs7 O2 3.182862 1_455
Cs7 O6 3.182862 1_544
Cs7 O3 3.182862 1_444
P0 Se5 2.198843 1_555
P0 Se0 2.198843 1_555
P0 Se8 2.239278 1_555
P1 Se4 2.198843 1_555
P1 Se1 2.198843 1_555
P1 Se9 2.239278 1_555
P2 Se7 2.198843 1_554
P2 Se2 2.198843 1_454
P2 Se10 2.239278 1_555
P3 Se3 2.198843 1_456
P3 Se6 2.198843 1_556
P3 Se11 2.239278 1_555
H0 O0 0.986858 1_555
H1 O1 0.986858 1_555
H2 O2 0.986858 1_555
H3 O3 0.986858 1_555
H4 O4 0.986858 1_555
H5 O5 0.986858 1_555
H6 O6 0.986858 1_555
H7 O7 0.986858 1_555
H8 O0 0.989416 1_555
H9 O1 0.989416 1_555
H10 O2 0.989416 1_555
H11 O3 0.989416 1_555
H12 O4 0.989416 1_555
H13 O5 0.989416 1_555
H14 O6 0.989416 1_555
H15 O7 0.989416 1_555
