# generated using pymatgen
data_BaWO4
_symmetry_space_group_name_H-M   'P 1'
_cell_length_a   6.82721845
_cell_length_b   6.82721845
_cell_length_c   6.82721845
_cell_angle_alpha   106.83650903
_cell_angle_beta   106.83650903
_cell_angle_gamma   114.87983205
_symmetry_Int_Tables_number   1
_chemical_formula_structural   BaWO4
_chemical_formula_sum   'Ba2 W2 O8'
_cell_volume   243.31529035
_cell_formula_units_Z   2
loop_
 _symmetry_equiv_pos_site_id
 _symmetry_equiv_pos_as_xyz
  1  'x, y, z'
loop_
 _atom_site_type_symbol
 _atom_site_label
 _atom_site_symmetry_multiplicity
 _atom_site_fract_x
 _atom_site_fract_y
 _atom_site_fract_z
 _atom_site_occupancy
  Ba  Ba0  1  0.75000000  0.25000000  0.50000000  1
  Ba  Ba1  1  0.50000000  0.50000000  0.00000000  1
  W  W0  1  0.25000000  0.75000000  0.50000000  1
  W  W1  1  0.00000000  0.00000000  0.00000000  1
  O  O0  1  0.97454200  0.15150300  0.82303900  1
  O  O1  1  0.32846400  0.15150300  0.17696100  1
  O  O2  1  0.40150300  0.07846400  0.67696100  1
  O  O3  1  0.40150300  0.72454200  0.32303900  1
  O  O4  1  0.27545800  0.59849700  0.67696100  1
  O  O5  1  0.92153600  0.59849700  0.32303900  1
  O  O6  1  0.84849700  0.67153600  0.82303900  1
  O  O7  1  0.84849700  0.02545800  0.17696100  1
loop_
_geom_bond_atom_site_label_1
_geom_bond_atom_site_label_2
_geom_bond_distance
_geom_bond_site_symmetry_2
Ba0 O0 2.726598 1_555
Ba0 O6 2.726598 1_555
Ba0 O1 2.726598 1_555
Ba0 O7 2.726598 1_555
Ba0 O2 2.938070 1_555
Ba0 O3 2.938070 1_545
Ba0 O4 2.938070 1_655
Ba0 O5 2.938070 1_555
Ba1 O5 2.726598 1_555
Ba1 O3 2.726598 1_555
Ba1 O4 2.726598 1_554
Ba1 O2 2.726598 1_554
Ba1 O1 2.938070 1_555
Ba1 O7 2.938070 1_565
Ba1 O6 2.938070 1_554
Ba1 O0 2.938070 1_454
O0 W1 1.820229 1_656
O1 W1 1.820229 1_555
O2 W0 1.820229 1_545
O3 W0 1.820229 1_555
O4 W0 1.820229 1_555
O5 W0 1.820229 1_655
O6 W1 1.820229 1_666
O7 W1 1.820229 1_655
