# generated using pymatgen
data_TiCrCuS4
_symmetry_space_group_name_H-M   'P 1'
_cell_length_a   5.73075100
_cell_length_b   7.03621800
_cell_length_c   11.88069400
_cell_angle_alpha   90.00000000
_cell_angle_beta   90.00000000
_cell_angle_gamma   90.00000000
_symmetry_Int_Tables_number   1
_chemical_formula_structural   TiCrCuS4
_chemical_formula_sum   'Ti4 Cr4 Cu4 S16'
_cell_volume   479.06300651
_cell_formula_units_Z   4
loop_
 _symmetry_equiv_pos_site_id
 _symmetry_equiv_pos_as_xyz
  1  'x, y, z'
loop_
 _atom_site_type_symbol
 _atom_site_label
 _atom_site_symmetry_multiplicity
 _atom_site_fract_x
 _atom_site_fract_y
 _atom_site_fract_z
 _atom_site_occupancy
  Ti  Ti0  1  0.02637800  0.75000000  0.24951600  1
  Ti  Ti1  1  0.97362200  0.25000000  0.75048400  1
  Ti  Ti2  1  0.52637800  0.25000000  0.25048400  1
  Ti  Ti3  1  0.47362200  0.75000000  0.74951600  1
  Cr  Cr0  1  0.50000000  0.00000000  0.00000000  1
  Cr  Cr1  1  0.00000000  0.00000000  0.50000000  1
  Cr  Cr2  1  0.00000000  0.50000000  0.50000000  1
  Cr  Cr3  1  0.50000000  0.50000000  0.00000000  1
  Cu  Cu0  1  0.89584000  0.25000000  0.09577900  1
  Cu  Cu1  1  0.10416000  0.75000000  0.90422100  1
  Cu  Cu2  1  0.39584000  0.75000000  0.40422100  1
  Cu  Cu3  1  0.60416000  0.25000000  0.59577900  1
  S  S0  1  0.73468400  0.98692900  0.16956300  1
  S  S1  1  0.26531600  0.01307100  0.83043700  1
  S  S2  1  0.23468400  0.01307100  0.33043700  1
  S  S3  1  0.76531600  0.98692900  0.66956300  1
  S  S4  1  0.76531600  0.51307100  0.66956300  1
  S  S5  1  0.23468400  0.48692900  0.33043700  1
  S  S6  1  0.26531600  0.48692900  0.83043700  1
  S  S7  1  0.73468400  0.51307100  0.16956300  1
  S  S8  1  0.26492900  0.75000000  0.08328900  1
  S  S9  1  0.73507100  0.25000000  0.91671100  1
  S  S10  1  0.76492900  0.25000000  0.41671100  1
  S  S11  1  0.23507100  0.75000000  0.58328900  1
  S  S12  1  0.28352500  0.25000000  0.08375900  1
  S  S13  1  0.71647500  0.75000000  0.91624100  1
  S  S14  1  0.78352500  0.75000000  0.41624100  1
  S  S15  1  0.21647500  0.25000000  0.58375900  1
loop_
_geom_bond_atom_site_label_1
_geom_bond_atom_site_label_2
_geom_bond_distance
_geom_bond_site_symmetry_2
Cr0 S13 2.371398 1_544
Cr0 S12 2.371398 1_555
Cr0 S1 2.423958 1_554
Cr0 S0 2.423958 1_545
Cr0 S9 2.426564 1_554
Cr0 S8 2.426564 1_545
Cr1 S15 2.371398 1_555
Cr1 S14 2.371398 1_445
Cr1 S2 2.423958 1_555
Cr1 S3 2.423958 1_445
Cr1 S11 2.426564 1_545
Cr1 S10 2.426564 1_455
Cr2 S15 2.371398 1_555
Cr2 S14 2.371398 1_455
Cr2 S5 2.423958 1_555
Cr2 S4 2.423958 1_455
Cr2 S11 2.426564 1_555
Cr2 S10 2.426564 1_455
Cr3 S13 2.371398 1_554
Cr3 S12 2.371398 1_555
Cr3 S6 2.423958 1_554
Cr3 S7 2.423958 1_555
Cr3 S9 2.426564 1_554
Cr3 S8 2.426564 1_555
Cu0 S12 2.226311 1_655
Cu0 S7 2.246701 1_555
Cu0 S0 2.246701 1_545
Cu0 S9 2.318382 1_554
Cu1 S13 2.226311 1_455
Cu1 S6 2.246701 1_555
Cu1 S1 2.246701 1_565
Cu1 S8 2.318382 1_556
Cu2 S14 2.226311 1_555
Cu2 S5 2.246701 1_555
Cu2 S2 2.246701 1_565
Cu2 S11 2.318382 1_555
Cu3 S15 2.226311 1_555
Cu3 S4 2.246701 1_555
Cu3 S3 2.246701 1_545
Cu3 S10 2.318382 1_555
S0 Ti2 2.403251 1_565
S0 Ti0 2.544761 1_655
S1 Ti3 2.403251 1_545
S1 Ti1 2.544761 1_455
S2 Ti0 2.403251 1_545
S2 Ti2 2.544761 1_555
S3 Ti1 2.403251 1_565
S3 Ti3 2.544761 1_555
S4 Ti1 2.403251 1_555
S4 Ti3 2.544761 1_555
S5 Ti0 2.403251 1_555
S5 Ti2 2.544761 1_555
S6 Ti3 2.403251 1_555
S6 Ti1 2.544761 1_455
S7 Ti2 2.403251 1_555
S7 Ti0 2.544761 1_655
S8 Ti0 2.401894 1_555
S9 Ti1 2.401894 1_555
S10 Ti2 2.401894 1_555
S11 Ti3 2.401894 1_555
S12 Ti2 2.420850 1_555
S13 Ti3 2.420850 1_555
S14 Ti0 2.420850 1_655
S15 Ti1 2.420850 1_455
