# generated using pymatgen
data_Sr2CaTi3O9
_symmetry_space_group_name_H-M   'P 1'
_cell_length_a   12.39689951
_cell_length_b   12.38982443
_cell_length_c   5.55699853
_cell_angle_alpha   77.11570031
_cell_angle_beta   76.97351799
_cell_angle_gamma   25.91078170
_symmetry_Int_Tables_number   1
_chemical_formula_structural   Sr2CaTi3O9
_chemical_formula_sum   'Sr4 Ca2 Ti6 O18'
_cell_volume   362.95882633
_cell_formula_units_Z   2
loop_
 _symmetry_equiv_pos_site_id
 _symmetry_equiv_pos_as_xyz
  1  'x, y, z'
loop_
 _atom_site_type_symbol
 _atom_site_label
 _atom_site_symmetry_multiplicity
 _atom_site_fract_x
 _atom_site_fract_y
 _atom_site_fract_z
 _atom_site_occupancy
  Sr  Sr0  1  0.74993100  0.25006900  0.74993100  1
  Sr  Sr1  1  0.58326600  0.08325900  0.91674100  1
  Sr  Sr2  1  0.91674100  0.41673400  0.58326600  1
  Sr  Sr3  1  0.24999800  0.75000200  0.24999800  1
  Ca  Ca0  1  0.08340000  0.58332800  0.41667200  1
  Ca  Ca1  1  0.41667200  0.91660000  0.08340000  1
  Ti  Ti0  1  0.33373800  0.83339800  0.66626400  1
  Ti  Ti1  1  0.66626400  0.16660000  0.33373800  1
  Ti  Ti2  1  0.99999900  0.50000100  0.99999900  1
  Ti  Ti3  1  0.16660200  0.66626200  0.83340000  1
  Ti  Ti4  1  0.49999900  0.00000100  0.49999900  1
  Ti  Ti5  1  0.83340000  0.33373600  0.16660200  1
  O  O0  1  0.22341700  0.77658300  0.77642800  1
  O  O1  1  0.55426200  0.11233500  0.44307300  1
  O  O2  1  0.88766500  0.44573800  0.10967000  1
  O  O3  1  0.44307300  0.89033000  0.55426200  1
  O  O4  1  0.77642800  0.22357200  0.22341700  1
  O  O5  1  0.10967000  0.55692700  0.88766500  1
  O  O6  1  0.09424100  0.09108500  0.90891500  1
  O  O7  1  0.42522000  0.42560200  0.57439800  1
  O  O8  1  0.76061300  0.75787500  0.24212500  1
  O  O9  1  0.57439800  0.57478000  0.42522000  1
  O  O10  1  0.90891500  0.90575900  0.09424100  1
  O  O11  1  0.24212500  0.23938700  0.76061300  1
  O  O12  1  0.41568100  0.41711700  0.08431000  1
  O  O13  1  0.75000600  0.74999400  0.75000600  1
  O  O14  1  0.08431000  0.08289200  0.41568100  1
  O  O15  1  0.25000600  0.24999400  0.25000600  1
  O  O16  1  0.58288300  0.58431900  0.91710800  1
  O  O17  1  0.91710800  0.91569000  0.58288300  1
loop_
_geom_bond_atom_site_label_1
_geom_bond_atom_site_label_2
_geom_bond_distance
_geom_bond_site_symmetry_2
Ca0 O10 2.618808 1_455
Ca0 O1 2.621862 1_555
Ca0 O5 2.621862 1_555
Ca0 O8 2.622335 1_455
Ca0 O12 2.761603 1_555
Ca0 O17 2.761603 1_455
Ca0 O15 2.771025 1_555
Ca0 O13 2.771025 1_455
Ca0 O7 2.925247 1_555
Ca0 O5 2.942865 1_554
Ca0 O1 2.942865 1_465
Ca0 O11 2.943276 1_555
Ca1 O6 2.618808 1_564
Ca1 O2 2.621862 1_555
Ca1 O3 2.621862 1_555
Ca1 O11 2.622335 1_564
Ca1 O16 2.761603 1_554
Ca1 O14 2.761603 1_565
Ca1 O13 2.771025 1_554
Ca1 O15 2.771025 1_565
Ca1 O9 2.925247 1_555
Ca1 O2 2.942865 1_465
Ca1 O3 2.942865 1_554
Ca1 O8 2.943276 1_555
O0 Ti0 1.975598 1_555
O0 Ti3 1.975598 1_555
O0 Sr0 2.636113 1_465
O0 Sr3 2.636607 1_556
O0 Sr3 2.928260 1_555
O0 Sr0 2.928705 1_555
O1 Ti1 1.966198 1_555
O1 Ti4 1.970199 1_555
O1 Sr1 2.637830 1_555
O1 Sr1 2.928559 1_554
O2 Ti5 1.966198 1_555
O2 Ti2 1.970199 1_554
O2 Sr2 2.637830 1_555
O2 Sr2 2.928559 1_554
O3 Ti0 1.966198 1_555
O3 Ti4 1.970199 1_565
O3 Sr2 2.637830 1_555
O3 Sr2 2.928559 1_465
O4 Ti5 1.975598 1_555
O4 Ti1 1.975598 1_555
O4 Sr0 2.636113 1_554
O4 Sr3 2.636607 1_645
O4 Sr3 2.928260 1_555
O4 Sr0 2.928705 1_555
O5 Ti3 1.966198 1_555
O5 Ti2 1.970199 1_455
O5 Sr1 2.637830 1_555
O5 Sr1 2.928559 1_465
O6 Ti5 1.972097 1_456
O6 Ti0 1.972097 1_545
O6 Sr2 2.638797 1_455
O6 Sr3 2.928836 1_546
O6 Sr0 2.945897 1_455
O7 Ti1 1.969131 1_555
O7 Ti3 1.969131 1_555
O7 Sr3 2.636399 1_555
O7 Sr0 2.638230 1_555
O7 Sr1 2.929248 1_555
O8 Ti2 1.971154 1_554
O8 Ti4 1.971154 1_565
O8 Sr1 2.636691 1_564
O8 Sr2 2.927232 1_555
O9 Ti0 1.969131 1_555
O9 Ti5 1.969131 1_555
O9 Sr3 2.636399 1_555
O9 Sr0 2.638230 1_555
O9 Sr2 2.929248 1_555
O10 Ti3 1.972097 1_654
O10 Ti1 1.972097 1_565
O10 Sr1 2.638797 1_564
O10 Sr3 2.928836 1_655
O10 Sr0 2.945897 1_564
O11 Ti4 1.971154 1_555
O11 Ti2 1.971154 1_455
O11 Sr2 2.636691 1_455
O11 Sr1 2.927232 1_555
O12 Ti3 1.970235 1_554
O12 Ti1 1.970315 1_555
O12 Sr3 2.771024 1_555
O12 Sr1 2.771207 1_554
O12 Sr0 2.778918 1_554
O13 Ti2 1.970211 1_555
O13 Ti4 1.970322 1_565
O13 Sr1 2.769338 1_565
O13 Sr2 2.769338 1_555
O14 Ti5 1.970235 1_455
O14 Ti0 1.970315 1_545
O14 Sr3 2.771024 1_545
O14 Sr2 2.771207 1_455
O14 Sr0 2.778918 1_455
O15 Ti4 1.970211 1_555
O15 Ti2 1.970322 1_454
O15 Sr1 2.769338 1_554
O15 Sr2 2.769338 1_455
O16 Ti0 1.970235 1_555
O16 Ti5 1.970315 1_556
O16 Sr3 2.771024 1_556
O16 Sr2 2.771207 1_555
O16 Sr0 2.778918 1_555
O17 Ti1 1.970235 1_565
O17 Ti3 1.970315 1_655
O17 Sr3 2.771024 1_655
O17 Sr1 2.771207 1_565
O17 Sr0 2.778918 1_565
