# generated using pymatgen
data_Ba2TlPd
_symmetry_space_group_name_H-M   'P 1'
_cell_length_a   12.94481371
_cell_length_b   13.96624999
_cell_length_c   13.96625044
_cell_angle_alpha   61.31741533
_cell_angle_beta   62.39121141
_cell_angle_gamma   62.39121020
_symmetry_Int_Tables_number   1
_chemical_formula_structural   Ba2TlPd
_chemical_formula_sum   'Ba2 Tl1 Pd1'
_cell_volume   1866.19190976
_cell_formula_units_Z   1
loop_
 _symmetry_equiv_pos_site_id
 _symmetry_equiv_pos_as_xyz
  1  'x, y, z'
loop_
 _atom_site_type_symbol
 _atom_site_label
 _atom_site_symmetry_multiplicity
 _atom_site_fract_x
 _atom_site_fract_y
 _atom_site_fract_z
 _atom_site_occupancy
  Ba  Ba0  1  0.78163201  0.00000000  1.00000000  1
  Ba  Ba1  1  0.21836799  1.00000000  0.00000000  1
  Tl  Tl0  1  0.50000000  -0.00000000  0.00000000  1
  Pd  Pd0  1  0.00000000  -0.00000000  0.00000000  1
loop_
_geom_bond_atom_site_label_1
_geom_bond_atom_site_label_2
_geom_bond_distance
_geom_bond_site_symmetry_2
Ba0 Pd0 2.826733 1_656
Ba0 Tl0 3.645674 1_556
Ba1 Pd0 2.826733 1_565
Ba1 Tl0 3.645674 1_565
