# generated using pymatgen
data_NaLiMg14
_symmetry_space_group_name_H-M   'P 1'
_cell_length_a   6.45257589
_cell_length_b   6.41029241
_cell_length_c   10.34809964
_cell_angle_alpha   90.00000000
_cell_angle_beta   90.00000000
_cell_angle_gamma   119.78347094
_symmetry_Int_Tables_number   1
_chemical_formula_structural   NaLiMg14
_chemical_formula_sum   'Na1 Li1 Mg14'
_cell_volume   371.48873522
_cell_formula_units_Z   1
loop_
 _symmetry_equiv_pos_site_id
 _symmetry_equiv_pos_as_xyz
  1  'x, y, z'
loop_
 _atom_site_type_symbol
 _atom_site_label
 _atom_site_symmetry_multiplicity
 _atom_site_fract_x
 _atom_site_fract_y
 _atom_site_fract_z
 _atom_site_occupancy
  Na  Na0  1  0.16614781  0.83307340  0.12500000  1
  Li  Li0  1  0.16602408  0.33301154  0.12500000  1
  Mg  Mg0  1  0.16731729  0.33365815  0.62500000  1
  Mg  Mg1  1  0.16705553  0.83352726  0.62500000  1
  Mg  Mg2  1  0.66756726  0.33392517  0.12500000  1
  Mg  Mg3  1  0.66596092  0.33313216  0.62500000  1
  Mg  Mg4  1  0.66756726  0.83364109  0.12500000  1
  Mg  Mg5  1  0.66596092  0.83282776  0.62500000  1
  Mg  Mg6  1  0.33427492  0.16996549  0.37884983  1
  Mg  Mg7  1  0.33427492  0.16996549  0.87115017  1
  Mg  Mg8  1  0.33427492  0.66431043  0.37884983  1
  Mg  Mg9  1  0.33427492  0.66431043  0.87115017  1
  Mg  Mg10  1  0.83421720  0.16710910  0.37340252  1
  Mg  Mg11  1  0.83421720  0.16710910  0.87659748  1
  Mg  Mg12  1  0.83043243  0.66521672  0.37888553  1
  Mg  Mg13  1  0.83043243  0.66521672  0.87111447  1
loop_
_geom_bond_atom_site_label_1
_geom_bond_atom_site_label_2
_geom_bond_distance
_geom_bond_site_symmetry_2
Li0 Mg11 3.171805 1_454
Li0 Mg10 3.171805 1_455
Li0 Na0 3.205146 1_555
Li0 Na0 3.205146 1_545
Li0 Mg6 3.209158 1_555
Li0 Mg7 3.209158 1_554
Li0 Mg8 3.209164 1_555
Li0 Mg9 3.209164 1_554
Li0 Mg4 3.219243 1_445
Li0 Mg2 3.219244 1_455
Li0 Mg4 3.233340 1_555
Li0 Mg2 3.233340 1_555
Mg0 Mg7 3.142109 1_555
Mg0 Mg6 3.142109 1_555
Mg0 Mg9 3.142115 1_555
Mg0 Mg8 3.142115 1_555
Mg0 Mg10 3.202871 1_455
Mg0 Mg11 3.202871 1_455
Mg0 Mg1 3.205146 1_555
Mg0 Mg1 3.205147 1_545
Mg0 Mg5 3.219212 1_555
Mg0 Mg3 3.219212 1_555
Mg0 Mg5 3.233366 1_445
Mg0 Mg3 3.233367 1_455
Mg1 Mg8 3.160977 1_555
Mg1 Mg9 3.160977 1_555
Mg1 Mg7 3.160984 1_565
Mg1 Mg6 3.160984 1_565
Mg1 Mg13 3.168620 1_455
Mg1 Mg12 3.168620 1_455
Mg1 Mg3 3.221454 1_565
Mg1 Mg5 3.221455 1_555
Mg1 Mg3 3.231126 1_455
Mg1 Mg5 3.231126 1_455
Mg2 Mg4 3.203325 1_555
Mg2 Mg4 3.206967 1_545
Mg2 Na0 3.218938 1_655
Mg2 Mg6 3.222515 1_555
Mg2 Mg7 3.222515 1_554
Mg2 Na0 3.233641 1_545
Mg3 Mg7 3.152594 1_555
Mg3 Mg6 3.152594 1_555
Mg3 Mg5 3.203195 1_555
Mg3 Mg5 3.207097 1_545
Mg4 Na0 3.218938 1_655
Mg4 Mg8 3.222515 1_555
Mg4 Mg9 3.222515 1_554
Mg4 Na0 3.233641 1_555
Mg5 Mg9 3.152594 1_555
Mg5 Mg8 3.152594 1_555
Mg6 Mg8 3.168896 1_555
Mg6 Na0 3.227014 1_545
Mg6 Mg8 3.241397 1_545
Mg7 Mg9 3.168896 1_555
Mg7 Na0 3.227014 1_546
Mg7 Mg9 3.241397 1_545
Mg8 Na0 3.227007 1_555
Mg9 Na0 3.227007 1_556
Mg10 Mg2 3.170109 1_555
Mg10 Mg4 3.170116 1_545
Mg10 Mg3 3.199646 1_555
Mg10 Mg5 3.199653 1_545
Mg10 Mg12 3.205718 1_545
Mg10 Mg12 3.205718 1_555
Mg10 Mg8 3.218098 1_655
Mg10 Mg6 3.218098 1_655
Mg10 Mg8 3.235540 1_545
Mg10 Mg6 3.235541 1_555
Mg11 Mg2 3.170109 1_556
Mg11 Mg4 3.170116 1_546
Mg11 Mg3 3.199646 1_555
Mg11 Mg5 3.199653 1_545
Mg11 Mg13 3.205718 1_545
Mg11 Mg13 3.205718 1_555
Mg11 Mg9 3.218098 1_655
Mg11 Mg7 3.218098 1_655
Mg11 Mg9 3.235540 1_545
Mg11 Mg7 3.235541 1_555
Mg12 Mg5 3.146389 1_555
Mg12 Mg3 3.146395 1_555
Mg12 Mg6 3.198612 1_555
Mg12 Mg8 3.198612 1_555
Mg12 Mg4 3.209292 1_555
Mg12 Mg2 3.209298 1_555
Mg12 Na0 3.230648 1_655
Mg12 Mg6 3.253971 1_665
Mg12 Mg8 3.253972 1_655
Mg13 Mg5 3.146389 1_555
Mg13 Mg3 3.146395 1_555
Mg13 Mg7 3.198612 1_555
Mg13 Mg9 3.198612 1_555
Mg13 Mg4 3.209292 1_556
Mg13 Mg2 3.209298 1_556
Mg13 Na0 3.230648 1_656
Mg13 Mg7 3.253971 1_665
Mg13 Mg9 3.253972 1_655
