# generated using pymatgen
data_MnGa2P3H4NO14
_symmetry_space_group_name_H-M   'P 1'
_cell_length_a   8.37774177
_cell_length_b   8.37774177
_cell_length_c   9.14422902
_cell_angle_alpha   75.71328158
_cell_angle_beta   75.71328158
_cell_angle_gamma   74.81906229
_symmetry_Int_Tables_number   1
_chemical_formula_structural   MnGa2P3H4NO14
_chemical_formula_sum   'Mn2 Ga4 P6 H8 N2 O28'
_cell_volume   588.75462890
_cell_formula_units_Z   2
loop_
 _symmetry_equiv_pos_site_id
 _symmetry_equiv_pos_as_xyz
  1  'x, y, z'
loop_
 _atom_site_type_symbol
 _atom_site_label
 _atom_site_symmetry_multiplicity
 _atom_site_fract_x
 _atom_site_fract_y
 _atom_site_fract_z
 _atom_site_occupancy
  Mn  Mn0  1  0.22794000  0.77206000  0.75000000  1
  Mn  Mn1  1  0.77206000  0.22794000  0.25000000  1
  Ga  Ga0  1  0.60187000  0.75412100  0.93675300  1
  Ga  Ga1  1  0.24587900  0.39813000  0.56324700  1
  Ga  Ga2  1  0.39813000  0.24587900  0.06324700  1
  Ga  Ga3  1  0.75412100  0.60187000  0.43675300  1
  P  P0  1  0.50518600  0.49481400  0.25000000  1
  P  P1  1  0.49481400  0.50518600  0.75000000  1
  P  P2  1  0.66491200  0.91947400  0.17977700  1
  P  P3  1  0.08052600  0.33508800  0.32022300  1
  P  P4  1  0.33508800  0.08052600  0.82022300  1
  P  P5  1  0.91947400  0.66491200  0.67977700  1
  H  H0  1  0.27105500  0.03283400  0.49598700  1
  H  H1  1  0.96716600  0.72894500  0.00401300  1
  H  H2  1  0.72894500  0.96716600  0.50401300  1
  H  H3  1  0.03283400  0.27105500  0.99598700  1
  H  H4  1  0.41798300  0.87943800  0.44465500  1
  H  H5  1  0.12056200  0.58201700  0.05534500  1
  H  H6  1  0.58201800  0.12056200  0.55534500  1
  H  H7  1  0.87943800  0.41798300  0.94465500  1
  N  N0  1  0.86341200  0.13658800  0.75000000  1
  N  N1  1  0.13658800  0.86341200  0.25000000  1
  O  O0  1  0.47652300  0.64002700  0.11372900  1
  O  O1  1  0.35997300  0.52347700  0.38627100  1
  O  O2  1  0.52347700  0.35997300  0.88627100  1
  O  O3  1  0.64002700  0.47652300  0.61372900  1
  O  O4  1  0.20314200  0.98508600  0.81585200  1
  O  O5  1  0.01491400  0.79685800  0.68414800  1
  O  O6  1  0.79685800  0.01491400  0.18414800  1
  O  O7  1  0.98508600  0.20314200  0.31585200  1
  O  O8  1  0.46298500  0.67995400  0.80036000  1
  O  O9  1  0.32004600  0.53701500  0.69964000  1
  O  O10  1  0.53701500  0.32004600  0.19964000  1
  O  O11  1  0.67995400  0.46298500  0.30036000  1
  O  O12  1  0.31693100  0.91047700  0.52187600  1
  O  O13  1  0.08952300  0.68306900  0.97812400  1
  O  O14  1  0.68306900  0.08952300  0.47812400  1
  O  O15  1  0.91047700  0.31693100  0.02187600  1
  O  O16  1  0.73723800  0.81846900  0.04816700  1
  O  O17  1  0.18153100  0.26276200  0.45183300  1
  O  O18  1  0.26276200  0.18153100  0.95183300  1
  O  O19  1  0.81846900  0.73723800  0.54816700  1
  O  O20  1  0.51028900  0.96766800  0.84034500  1
  O  O21  1  0.03233200  0.48971100  0.65965500  1
  O  O22  1  0.48971100  0.03233200  0.15965500  1
  O  O23  1  0.96766800  0.51028900  0.34034500  1
  O  O24  1  0.79411200  0.62240700  0.83554800  1
  O  O25  1  0.37759300  0.20588800  0.66445200  1
  O  O26  1  0.20588800  0.37759300  0.16445200  1
  O  O27  1  0.62240700  0.79411200  0.33554800  1
loop_
_geom_bond_atom_site_label_1
_geom_bond_atom_site_label_2
_geom_bond_distance
_geom_bond_site_symmetry_2
Mn0 O5 1.966039 1_555
Mn0 O4 1.966039 1_555
Mn0 O8 2.039950 1_555
Mn0 O9 2.039950 1_555
Mn0 O12 2.177925 1_555
Mn0 O13 2.177925 1_555
Mn1 O6 1.966039 1_555
Mn1 O7 1.966039 1_555
Mn1 O10 2.039950 1_555
Mn1 O11 2.039950 1_555
Mn1 O14 2.177925 1_555
Mn1 O15 2.177925 1_555
Ga0 O20 1.844729 1_555
Ga0 O24 1.872317 1_555
Ga0 O0 1.886489 1_556
Ga0 O16 1.943246 1_556
Ga0 O8 2.184672 1_555
Ga1 O21 1.844729 1_555
Ga1 O25 1.872317 1_555
Ga1 O1 1.886489 1_555
Ga1 O17 1.943246 1_555
Ga1 O9 2.184672 1_555
Ga2 O22 1.844729 1_555
Ga2 O26 1.872317 1_555
Ga2 O2 1.886489 1_554
Ga2 O18 1.943246 1_554
Ga2 O10 2.184672 1_555
Ga3 O23 1.844729 1_555
Ga3 O27 1.872317 1_555
Ga3 O3 1.886489 1_555
Ga3 O19 1.943246 1_555
Ga3 O11 2.184672 1_555
H0 O12 0.986578 1_545
H1 O13 0.986578 1_654
H2 O14 0.986578 1_565
H3 O15 0.986578 1_456
H4 O12 0.981442 1_555
H5 O13 0.981442 1_554
H6 O14 0.981437 1_555
H7 O15 0.981442 1_556
O0 P0 1.528696 1_555
O1 P0 1.528696 1_555
O2 P1 1.528696 1_555
O3 P1 1.528696 1_555
O4 P4 1.537312 1_565
O5 P5 1.537312 1_455
O6 P2 1.537312 1_545
O7 P3 1.537312 1_655
O8 P1 1.579439 1_555
O9 P1 1.579439 1_555
O10 P0 1.579439 1_555
O11 P0 1.579439 1_555
O16 P2 1.551036 1_555
O17 P3 1.551036 1_555
O18 P4 1.551036 1_555
O19 P5 1.551036 1_555
O20 P4 1.550102 1_565
O21 P5 1.550102 1_455
O22 P2 1.550102 1_545
O23 P3 1.550102 1_655
O24 P5 1.570335 1_555
O25 P4 1.570335 1_555
O26 P3 1.570335 1_555
O27 P2 1.570335 1_555
