# generated using pymatgen
data_MnVGa5
_symmetry_space_group_name_H-M   'P 1'
_cell_length_a   17.79056428
_cell_length_b   17.79056428
_cell_length_c   5.37933800
_cell_angle_alpha   90.00000000
_cell_angle_beta   90.00000000
_cell_angle_gamma   90.38130066
_symmetry_Int_Tables_number   1
_chemical_formula_structural   MnVGa5
_chemical_formula_sum   'Mn16 V16 Ga80'
_cell_volume   1702.54524618
_cell_formula_units_Z   16
loop_
 _symmetry_equiv_pos_site_id
 _symmetry_equiv_pos_as_xyz
  1  'x, y, z'
loop_
 _atom_site_type_symbol
 _atom_site_label
 _atom_site_symmetry_multiplicity
 _atom_site_fract_x
 _atom_site_fract_y
 _atom_site_fract_z
 _atom_site_occupancy
  Mn  Mn0_0  1  0.41085550  0.08914450  0.25000000  1
  Mn  Mn0_1  1  0.41085550  0.08914450  0.75000000  1
  Mn  Mn0_2  1  0.41085550  0.58914450  0.25000000  1
  Mn  Mn0_3  1  0.41085550  0.58914450  0.75000000  1
  Mn  Mn0_4  1  0.91085550  0.08914450  0.25000000  1
  Mn  Mn0_5  1  0.91085550  0.08914450  0.75000000  1
  Mn  Mn0_6  1  0.91085550  0.58914450  0.25000000  1
  Mn  Mn0_7  1  0.91085550  0.58914450  0.75000000  1
  Mn  Mn1_0  1  0.08914450  0.41085550  0.25000000  1
  Mn  Mn1_1  1  0.08914450  0.41085550  0.75000000  1
  Mn  Mn1_2  1  0.08914450  0.91085550  0.25000000  1
  Mn  Mn1_3  1  0.08914450  0.91085550  0.75000000  1
  Mn  Mn1_4  1  0.58914450  0.41085550  0.25000000  1
  Mn  Mn1_5  1  0.58914450  0.41085550  0.75000000  1
  Mn  Mn1_6  1  0.58914450  0.91085550  0.25000000  1
  Mn  Mn1_7  1  0.58914450  0.91085550  0.75000000  1
  V  V0_0  1  0.15967600  0.15967600  0.25000000  1
  V  V0_1  1  0.15967600  0.15967600  0.75000000  1
  V  V0_2  1  0.15967600  0.65967600  0.25000000  1
  V  V0_3  1  0.15967600  0.65967600  0.75000000  1
  V  V0_4  1  0.65967600  0.15967600  0.25000000  1
  V  V0_5  1  0.65967600  0.15967600  0.75000000  1
  V  V0_6  1  0.65967600  0.65967600  0.25000000  1
  V  V0_7  1  0.65967600  0.65967600  0.75000000  1
  V  V1_0  1  0.34032400  0.34032400  0.25000000  1
  V  V1_1  1  0.34032400  0.34032400  0.75000000  1
  V  V1_2  1  0.34032400  0.84032400  0.25000000  1
  V  V1_3  1  0.34032400  0.84032400  0.75000000  1
  V  V1_4  1  0.84032400  0.34032400  0.25000000  1
  V  V1_5  1  0.84032400  0.34032400  0.75000000  1
  V  V1_6  1  0.84032400  0.84032400  0.25000000  1
  V  V1_7  1  0.84032400  0.84032400  0.75000000  1
  Ga  Ga0_0  1  0.46954050  0.35221750  0.00000000  1
  Ga  Ga0_1  1  0.46954050  0.35221750  0.50000000  1
  Ga  Ga0_2  1  0.46954050  0.85221750  0.00000000  1
  Ga  Ga0_3  1  0.46954050  0.85221750  0.50000000  1
  Ga  Ga0_4  1  0.96954050  0.35221750  0.00000000  1
  Ga  Ga0_5  1  0.96954050  0.35221750  0.50000000  1
  Ga  Ga0_6  1  0.96954050  0.85221750  0.00000000  1
  Ga  Ga0_7  1  0.96954050  0.85221750  0.50000000  1
  Ga  Ga1_0  1  0.03045950  0.14778250  0.00000000  1
  Ga  Ga1_1  1  0.03045950  0.14778250  0.50000000  1
  Ga  Ga1_2  1  0.03045950  0.64778250  0.00000000  1
  Ga  Ga1_3  1  0.03045950  0.64778250  0.50000000  1
  Ga  Ga1_4  1  0.53045950  0.14778250  0.00000000  1
  Ga  Ga1_5  1  0.53045950  0.14778250  0.50000000  1
  Ga  Ga1_6  1  0.53045950  0.64778250  0.00000000  1
  Ga  Ga1_7  1  0.53045950  0.64778250  0.50000000  1
  Ga  Ga2_0  1  0.21798900  0.39758000  0.00000000  1
  Ga  Ga2_1  1  0.21798900  0.39758000  0.50000000  1
  Ga  Ga2_2  1  0.21798900  0.89758000  0.00000000  1
  Ga  Ga2_3  1  0.21798900  0.89758000  0.50000000  1
  Ga  Ga2_4  1  0.71798900  0.39758000  0.00000000  1
  Ga  Ga2_5  1  0.71798900  0.39758000  0.50000000  1
  Ga  Ga2_6  1  0.71798900  0.89758000  0.00000000  1
  Ga  Ga2_7  1  0.71798900  0.89758000  0.50000000  1
  Ga  Ga3_0  1  0.28201100  0.10242000  0.00000000  1
  Ga  Ga3_1  1  0.28201100  0.10242000  0.50000000  1
  Ga  Ga3_2  1  0.28201100  0.60242000  0.00000000  1
  Ga  Ga3_3  1  0.28201100  0.60242000  0.50000000  1
  Ga  Ga3_4  1  0.78201100  0.10242000  0.00000000  1
  Ga  Ga3_5  1  0.78201100  0.10242000  0.50000000  1
  Ga  Ga3_6  1  0.78201100  0.60242000  0.00000000  1
  Ga  Ga3_7  1  0.78201100  0.60242000  0.50000000  1
  Ga  Ga4_0  1  0.10242000  0.28201100  0.00000000  1
  Ga  Ga4_1  1  0.10242000  0.28201100  0.50000000  1
  Ga  Ga4_2  1  0.10242000  0.78201100  0.00000000  1
  Ga  Ga4_3  1  0.10242000  0.78201100  0.50000000  1
  Ga  Ga4_4  1  0.60242000  0.28201100  0.00000000  1
  Ga  Ga4_5  1  0.60242000  0.28201100  0.50000000  1
  Ga  Ga4_6  1  0.60242000  0.78201100  0.00000000  1
  Ga  Ga4_7  1  0.60242000  0.78201100  0.50000000  1
  Ga  Ga5_0  1  0.39758000  0.21798900  0.00000000  1
  Ga  Ga5_1  1  0.39758000  0.21798900  0.50000000  1
  Ga  Ga5_2  1  0.39758000  0.71798900  0.00000000  1
  Ga  Ga5_3  1  0.39758000  0.71798900  0.50000000  1
  Ga  Ga5_4  1  0.89758000  0.21798900  0.00000000  1
  Ga  Ga5_5  1  0.89758000  0.21798900  0.50000000  1
  Ga  Ga5_6  1  0.89758000  0.71798900  0.00000000  1
  Ga  Ga5_7  1  0.89758000  0.71798900  0.50000000  1
  Ga  Ga6_0  1  0.14778250  0.03045950  0.00000000  1
  Ga  Ga6_1  1  0.14778250  0.03045950  0.50000000  1
  Ga  Ga6_2  1  0.14778250  0.53045950  0.00000000  1
  Ga  Ga6_3  1  0.14778250  0.53045950  0.50000000  1
  Ga  Ga6_4  1  0.64778250  0.03045950  0.00000000  1
  Ga  Ga6_5  1  0.64778250  0.03045950  0.50000000  1
  Ga  Ga6_6  1  0.64778250  0.53045950  0.00000000  1
  Ga  Ga6_7  1  0.64778250  0.53045950  0.50000000  1
  Ga  Ga7_0  1  0.35221750  0.46954050  0.00000000  1
  Ga  Ga7_1  1  0.35221750  0.46954050  0.50000000  1
  Ga  Ga7_2  1  0.35221750  0.96954050  0.00000000  1
  Ga  Ga7_3  1  0.35221750  0.96954050  0.50000000  1
  Ga  Ga7_4  1  0.85221750  0.46954050  0.00000000  1
  Ga  Ga7_5  1  0.85221750  0.46954050  0.50000000  1
  Ga  Ga7_6  1  0.85221750  0.96954050  0.00000000  1
  Ga  Ga7_7  1  0.85221750  0.96954050  0.50000000  1
  Ga  Ga8_0  1  0.00000000  0.00000000  0.00000000  1
  Ga  Ga8_1  1  0.00000000  0.00000000  0.50000000  1
  Ga  Ga8_2  1  0.00000000  0.50000000  0.00000000  1
  Ga  Ga8_3  1  0.00000000  0.50000000  0.50000000  1
  Ga  Ga8_4  1  0.50000000  0.00000000  0.00000000  1
  Ga  Ga8_5  1  0.50000000  0.00000000  0.50000000  1
  Ga  Ga8_6  1  0.50000000  0.50000000  0.00000000  1
  Ga  Ga8_7  1  0.50000000  0.50000000  0.50000000  1
  Ga  Ga9_0  1  0.25000000  0.25000000  0.00000000  1
  Ga  Ga9_1  1  0.25000000  0.25000000  0.50000000  1
  Ga  Ga9_2  1  0.25000000  0.75000000  0.00000000  1
  Ga  Ga9_3  1  0.25000000  0.75000000  0.50000000  1
  Ga  Ga9_4  1  0.75000000  0.25000000  0.00000000  1
  Ga  Ga9_5  1  0.75000000  0.25000000  0.50000000  1
  Ga  Ga9_6  1  0.75000000  0.75000000  0.00000000  1
  Ga  Ga9_7  1  0.75000000  0.75000000  0.50000000  1
loop_
_geom_bond_atom_site_label_1
_geom_bond_atom_site_label_2
_geom_bond_distance
_geom_bond_site_symmetry_2
Mn0_0 Mn0_1 2.689669 1_555
Mn0_0 Mn0_1 2.689669 1_554
Mn0_2 Mn0_3 2.689669 1_555
Mn0_2 Mn0_3 2.689669 1_554
Mn0_4 Mn0_5 2.689669 1_555
Mn0_4 Mn0_5 2.689669 1_554
Mn0_6 Mn0_7 2.689669 1_555
Mn0_6 Mn0_7 2.689669 1_554
Mn1_0 Mn1_1 2.689669 1_555
Mn1_0 Mn1_1 2.689669 1_554
Mn1_2 Mn1_3 2.689669 1_555
Mn1_2 Mn1_3 2.689669 1_554
Mn1_4 Mn1_5 2.689669 1_555
Mn1_4 Mn1_5 2.689669 1_554
Mn1_6 Mn1_7 2.689669 1_555
Mn1_6 Mn1_7 2.689669 1_554
V0_0 V0_1 2.689669 1_555
V0_0 V0_1 2.689669 1_554
V0_2 V0_3 2.689669 1_555
V0_2 V0_3 2.689669 1_554
V0_4 V0_5 2.689669 1_555
V0_4 V0_5 2.689669 1_554
V0_6 V0_7 2.689669 1_555
V0_6 V0_7 2.689669 1_554
V1_0 V1_1 2.689669 1_555
V1_0 V1_1 2.689669 1_554
V1_2 V1_3 2.689669 1_555
V1_2 V1_3 2.689669 1_554
V1_4 V1_5 2.689669 1_555
V1_4 V1_5 2.689669 1_554
V1_6 V1_7 2.689669 1_555
V1_6 V1_7 2.689669 1_554
Ga0_0 V1_0 2.670490 1_555
Ga0_0 V1_1 2.670490 1_554
Ga0_0 Ga8_6 2.680864 1_555
Ga0_0 Ga4_4 2.681014 1_555
Ga0_0 Ga0_1 2.689669 1_555
Ga0_0 Ga0_1 2.689669 1_554
Ga0_0 Ga5_0 2.702002 1_555
Ga0_0 Mn1_4 2.719363 1_555
Ga0_0 Mn1_5 2.719363 1_554
Ga0_0 Ga7_0 2.961612 1_555
Ga0_1 V1_1 2.670490 1_555
Ga0_1 V1_0 2.670490 1_555
Ga0_1 Ga8_7 2.680864 1_555
Ga0_1 Ga4_5 2.681014 1_555
Ga0_1 Ga5_1 2.702002 1_555
Ga0_1 Mn1_5 2.719363 1_555
Ga0_1 Mn1_4 2.719363 1_555
Ga0_1 Ga7_1 2.961612 1_555
Ga0_2 V1_2 2.670490 1_555
Ga0_2 V1_3 2.670490 1_554
Ga0_2 Ga8_4 2.680864 1_565
Ga0_2 Ga4_6 2.681014 1_555
Ga0_2 Ga0_3 2.689669 1_555
Ga0_2 Ga0_3 2.689669 1_554
Ga0_2 Ga5_2 2.702002 1_555
Ga0_2 Mn1_7 2.719363 1_554
Ga0_2 Mn1_6 2.719363 1_555
Ga0_2 Ga7_2 2.961612 1_555
Ga0_3 V1_3 2.670490 1_555
Ga0_3 V1_2 2.670490 1_555
Ga0_3 Ga8_5 2.680864 1_565
Ga0_3 Ga4_7 2.681014 1_555
Ga0_3 Ga5_3 2.702002 1_555
Ga0_3 Mn1_7 2.719363 1_555
Ga0_3 Mn1_6 2.719363 1_555
Ga0_3 Ga7_3 2.961612 1_555
Ga0_4 V1_4 2.670490 1_555
Ga0_4 V1_5 2.670490 1_554
Ga0_4 Ga8_2 2.680864 1_655
Ga0_4 Ga4_0 2.681014 1_655
Ga0_4 Ga0_5 2.689669 1_555
Ga0_4 Ga0_5 2.689669 1_554
Ga0_4 Ga5_4 2.702002 1_555
Ga0_4 Mn1_0 2.719363 1_655
Ga0_4 Mn1_1 2.719363 1_654
Ga0_4 Ga7_4 2.961612 1_555
Ga0_5 V1_5 2.670490 1_555
Ga0_5 V1_4 2.670490 1_555
Ga0_5 Ga8_3 2.680864 1_655
Ga0_5 Ga4_1 2.681014 1_655
Ga0_5 Ga5_5 2.702002 1_555
Ga0_5 Mn1_1 2.719363 1_655
Ga0_5 Mn1_0 2.719363 1_655
Ga0_5 Ga7_5 2.961612 1_555
Ga0_6 V1_6 2.670490 1_555
Ga0_6 V1_7 2.670490 1_554
Ga0_6 Ga8_0 2.680864 1_665
Ga0_6 Ga4_2 2.681014 1_655
Ga0_6 Ga0_7 2.689669 1_555
Ga0_6 Ga0_7 2.689669 1_554
Ga0_6 Ga5_6 2.702002 1_555
Ga0_6 Mn1_3 2.719363 1_654
Ga0_6 Mn1_2 2.719363 1_655
Ga0_6 Ga7_6 2.961612 1_555
Ga0_7 V1_7 2.670490 1_555
Ga0_7 V1_6 2.670490 1_555
Ga0_7 Ga8_1 2.680864 1_665
Ga0_7 Ga4_3 2.681014 1_655
Ga0_7 Ga5_7 2.702002 1_555
Ga0_7 Mn1_3 2.719363 1_655
Ga0_7 Mn1_2 2.719363 1_655
Ga0_7 Ga7_7 2.961612 1_555
Ga1_0 V0_0 2.670490 1_555
Ga1_0 V0_1 2.670490 1_554
Ga1_0 Ga8_0 2.680864 1_555
Ga1_0 Ga5_4 2.681014 1_455
Ga1_0 Ga1_1 2.689669 1_554
Ga1_0 Ga1_1 2.689669 1_555
Ga1_0 Ga4_0 2.702002 1_555
Ga1_0 Mn0_4 2.719363 1_455
Ga1_0 Mn0_5 2.719363 1_454
Ga1_0 Ga6_0 2.961612 1_555
Ga1_1 V0_1 2.670490 1_555
Ga1_1 V0_0 2.670490 1_555
Ga1_1 Ga8_1 2.680864 1_555
Ga1_1 Ga5_5 2.681014 1_455
Ga1_1 Ga4_1 2.702002 1_555
Ga1_1 Mn0_4 2.719363 1_455
Ga1_1 Mn0_5 2.719363 1_455
Ga1_1 Ga6_1 2.961612 1_555
Ga1_2 V0_2 2.670490 1_555
Ga1_2 V0_3 2.670490 1_554
Ga1_2 Ga8_2 2.680864 1_555
Ga1_2 Ga5_6 2.681014 1_455
Ga1_2 Ga1_3 2.689669 1_555
Ga1_2 Ga1_3 2.689669 1_554
Ga1_2 Ga4_2 2.702002 1_555
Ga1_2 Mn0_7 2.719363 1_454
Ga1_2 Mn0_6 2.719363 1_455
Ga1_2 Ga6_2 2.961612 1_555
Ga1_3 V0_3 2.670490 1_555
Ga1_3 V0_2 2.670490 1_555
Ga1_3 Ga8_3 2.680864 1_555
Ga1_3 Ga5_7 2.681014 1_455
Ga1_3 Ga4_3 2.702002 1_555
Ga1_3 Mn0_7 2.719363 1_455
Ga1_3 Mn0_6 2.719363 1_455
Ga1_3 Ga6_3 2.961612 1_555
Ga1_4 V0_4 2.670490 1_555
Ga1_4 V0_5 2.670490 1_554
Ga1_4 Ga8_4 2.680864 1_555
Ga1_4 Ga5_0 2.681014 1_555
Ga1_4 Ga1_5 2.689669 1_554
Ga1_4 Ga1_5 2.689669 1_555
Ga1_4 Ga4_4 2.702002 1_555
Ga1_4 Mn0_0 2.719363 1_555
Ga1_4 Mn0_1 2.719363 1_554
Ga1_4 Ga6_4 2.961612 1_555
Ga1_5 V0_5 2.670490 1_555
Ga1_5 V0_4 2.670490 1_555
Ga1_5 Ga8_5 2.680864 1_555
Ga1_5 Ga5_1 2.681014 1_555
Ga1_5 Ga4_5 2.702002 1_555
Ga1_5 Mn0_1 2.719363 1_555
Ga1_5 Mn0_0 2.719363 1_555
Ga1_5 Ga6_5 2.961612 1_555
Ga1_6 V0_6 2.670490 1_555
Ga1_6 V0_7 2.670490 1_554
Ga1_6 Ga8_6 2.680864 1_555
Ga1_6 Ga5_2 2.681014 1_555
Ga1_6 Ga1_7 2.689669 1_555
Ga1_6 Ga1_7 2.689669 1_554
Ga1_6 Ga4_6 2.702002 1_555
Ga1_6 Mn0_2 2.719363 1_555
Ga1_6 Mn0_3 2.719363 1_554
Ga1_6 Ga6_6 2.961612 1_555
Ga1_7 V0_7 2.670490 1_555
Ga1_7 V0_6 2.670490 1_555
Ga1_7 Ga8_7 2.680864 1_555
Ga1_7 Ga5_3 2.681014 1_555
Ga1_7 Ga4_7 2.702002 1_555
Ga1_7 Mn0_3 2.719363 1_555
Ga1_7 Mn0_2 2.719363 1_555
Ga1_7 Ga6_7 2.961612 1_555
Ga2_0 Mn1_0 2.669423 1_555
Ga2_0 Mn1_1 2.669423 1_554
Ga2_0 Ga6_2 2.681014 1_555
Ga2_0 Ga2_1 2.689669 1_555
Ga2_0 Ga2_1 2.689669 1_554
Ga2_0 Ga9_0 2.690286 1_555
Ga2_0 Ga7_0 2.702002 1_555
Ga2_0 V1_0 2.759062 1_555
Ga2_0 V1_1 2.759062 1_554
Ga2_0 Ga4_0 2.897985 1_555
Ga2_1 Mn1_1 2.669423 1_555
Ga2_1 Mn1_0 2.669423 1_555
Ga2_1 Ga6_3 2.681014 1_555
Ga2_1 Ga9_1 2.690286 1_555
Ga2_1 Ga7_1 2.702002 1_555
Ga2_1 V1_1 2.759062 1_555
Ga2_1 V1_0 2.759062 1_555
Ga2_1 Ga4_1 2.897985 1_555
Ga2_2 Mn1_2 2.669423 1_555
Ga2_2 Mn1_3 2.669423 1_554
Ga2_2 Ga6_0 2.681014 1_565
Ga2_2 Ga2_3 2.689669 1_554
Ga2_2 Ga2_3 2.689669 1_555
Ga2_2 Ga9_2 2.690286 1_555
Ga2_2 Ga7_2 2.702002 1_555
Ga2_2 V1_2 2.759062 1_555
Ga2_2 V1_3 2.759062 1_554
Ga2_2 Ga4_2 2.897985 1_555
Ga2_3 Mn1_3 2.669423 1_555
Ga2_3 Mn1_2 2.669423 1_555
Ga2_3 Ga6_1 2.681014 1_565
Ga2_3 Ga9_3 2.690286 1_555
Ga2_3 Ga7_3 2.702002 1_555
Ga2_3 V1_3 2.759062 1_555
Ga2_3 V1_2 2.759062 1_555
Ga2_3 Ga4_3 2.897985 1_555
Ga2_4 Mn1_4 2.669423 1_555
Ga2_4 Mn1_5 2.669423 1_554
Ga2_4 Ga6_6 2.681014 1_555
Ga2_4 Ga2_5 2.689669 1_555
Ga2_4 Ga2_5 2.689669 1_554
Ga2_4 Ga9_4 2.690286 1_555
Ga2_4 Ga7_4 2.702002 1_555
Ga2_4 V1_4 2.759062 1_555
Ga2_4 V1_5 2.759062 1_554
Ga2_4 Ga4_4 2.897985 1_555
Ga2_5 Mn1_4 2.669423 1_555
Ga2_5 Mn1_5 2.669423 1_555
Ga2_5 Ga6_7 2.681014 1_555
Ga2_5 Ga9_5 2.690286 1_555
Ga2_5 Ga7_5 2.702002 1_555
Ga2_5 V1_5 2.759062 1_555
Ga2_5 V1_4 2.759062 1_555
Ga2_5 Ga4_5 2.897985 1_555
Ga2_6 Mn1_6 2.669423 1_555
Ga2_6 Mn1_7 2.669423 1_554
Ga2_6 Ga6_4 2.681014 1_565
Ga2_6 Ga2_7 2.689669 1_555
Ga2_6 Ga2_7 2.689669 1_554
Ga2_6 Ga9_6 2.690286 1_555
Ga2_6 Ga7_6 2.702002 1_555
Ga2_6 V1_6 2.759062 1_555
Ga2_6 V1_7 2.759062 1_554
Ga2_6 Ga4_6 2.897985 1_555
Ga2_7 Mn1_6 2.669423 1_555
Ga2_7 Mn1_7 2.669423 1_555
Ga2_7 Ga6_5 2.681014 1_565
Ga2_7 Ga9_7 2.690286 1_555
Ga2_7 Ga7_7 2.702002 1_555
Ga2_7 V1_7 2.759062 1_555
Ga2_7 V1_6 2.759062 1_555
Ga2_7 Ga4_7 2.897985 1_555
Ga3_0 Mn0_0 2.669423 1_555
Ga3_0 Mn0_1 2.669423 1_554
Ga3_0 Ga7_2 2.681014 1_545
Ga3_0 Ga3_1 2.689669 1_555
Ga3_0 Ga3_1 2.689669 1_554
Ga3_0 Ga9_0 2.690286 1_555
Ga3_0 Ga6_0 2.702002 1_555
Ga3_0 V0_1 2.759062 1_554
Ga3_0 V0_0 2.759062 1_555
Ga3_0 Ga5_0 2.897985 1_555
Ga3_1 Mn0_1 2.669423 1_555
Ga3_1 Mn0_0 2.669423 1_555
Ga3_1 Ga7_3 2.681014 1_545
Ga3_1 Ga9_1 2.690286 1_555
Ga3_1 Ga6_1 2.702002 1_555
Ga3_1 V0_1 2.759062 1_555
Ga3_1 V0_0 2.759062 1_555
Ga3_1 Ga5_1 2.897985 1_555
Ga3_2 Mn0_2 2.669423 1_555
Ga3_2 Mn0_3 2.669423 1_554
Ga3_2 Ga7_0 2.681014 1_555
Ga3_2 Ga3_3 2.689669 1_555
Ga3_2 Ga3_3 2.689669 1_554
Ga3_2 Ga9_2 2.690286 1_555
Ga3_2 Ga6_2 2.702002 1_555
Ga3_2 V0_2 2.759062 1_555
Ga3_2 V0_3 2.759062 1_554
Ga3_2 Ga5_2 2.897985 1_555
Ga3_3 Mn0_2 2.669423 1_555
Ga3_3 Mn0_3 2.669423 1_555
Ga3_3 Ga7_1 2.681014 1_555
Ga3_3 Ga9_3 2.690286 1_555
Ga3_3 Ga6_3 2.702002 1_555
Ga3_3 V0_3 2.759062 1_555
Ga3_3 V0_2 2.759062 1_555
Ga3_3 Ga5_3 2.897985 1_555
Ga3_4 Mn0_4 2.669423 1_555
Ga3_4 Mn0_5 2.669423 1_554
Ga3_4 Ga7_6 2.681014 1_545
Ga3_4 Ga3_5 2.689669 1_555
Ga3_4 Ga3_5 2.689669 1_554
Ga3_4 Ga9_4 2.690286 1_555
Ga3_4 Ga6_4 2.702002 1_555
Ga3_4 V0_4 2.759062 1_555
Ga3_4 V0_5 2.759062 1_554
Ga3_4 Ga5_4 2.897985 1_555
Ga3_5 Mn0_5 2.669423 1_555
Ga3_5 Mn0_4 2.669423 1_555
Ga3_5 Ga7_7 2.681014 1_545
Ga3_5 Ga9_5 2.690286 1_555
Ga3_5 Ga6_5 2.702002 1_555
Ga3_5 V0_5 2.759062 1_555
Ga3_5 V0_4 2.759062 1_555
Ga3_5 Ga5_5 2.897985 1_555
Ga3_6 Mn0_6 2.669423 1_555
Ga3_6 Mn0_7 2.669423 1_554
Ga3_6 Ga7_4 2.681014 1_555
Ga3_6 Ga3_7 2.689669 1_555
Ga3_6 Ga3_7 2.689669 1_554
Ga3_6 Ga9_6 2.690286 1_555
Ga3_6 Ga6_6 2.702002 1_555
Ga3_6 V0_6 2.759062 1_555
Ga3_6 V0_7 2.759062 1_554
Ga3_6 Ga5_6 2.897985 1_555
Ga3_7 Mn0_7 2.669423 1_555
Ga3_7 Mn0_6 2.669423 1_555
Ga3_7 Ga7_5 2.681014 1_555
Ga3_7 Ga9_7 2.690286 1_555
Ga3_7 Ga6_7 2.702002 1_555
Ga3_7 V0_6 2.759062 1_555
Ga3_7 V0_7 2.759062 1_555
Ga3_7 Ga5_7 2.897985 1_555
Ga4_0 Mn1_1 2.669423 1_554
Ga4_0 Mn1_0 2.669423 1_555
Ga4_0 Ga4_1 2.689669 1_554
Ga4_0 Ga4_1 2.689669 1_555
Ga4_0 Ga9_0 2.690286 1_555
Ga4_0 V0_0 2.759062 1_555
Ga4_0 V0_1 2.759062 1_554
Ga4_1 Mn1_1 2.669423 1_555
Ga4_1 Mn1_0 2.669423 1_555
Ga4_1 Ga9_1 2.690286 1_555
Ga4_1 V0_1 2.759062 1_555
Ga4_1 V0_0 2.759062 1_555
Ga4_2 Mn1_2 2.669423 1_555
Ga4_2 Mn1_3 2.669423 1_554
Ga4_2 Ga4_3 2.689669 1_554
Ga4_2 Ga4_3 2.689669 1_555
Ga4_2 Ga9_2 2.690286 1_555
Ga4_2 V0_2 2.759062 1_555
Ga4_2 V0_3 2.759062 1_554
Ga4_3 Mn1_2 2.669423 1_555
Ga4_3 Mn1_3 2.669423 1_555
Ga4_3 Ga9_3 2.690286 1_555
Ga4_3 V0_3 2.759062 1_555
Ga4_3 V0_2 2.759062 1_555
Ga4_4 Mn1_4 2.669423 1_555
Ga4_4 Mn1_5 2.669423 1_554
Ga4_4 Ga4_5 2.689669 1_554
Ga4_4 Ga4_5 2.689669 1_555
Ga4_4 Ga9_4 2.690286 1_555
Ga4_4 V0_4 2.759062 1_555
Ga4_4 V0_5 2.759062 1_554
Ga4_5 Mn1_4 2.669423 1_555
Ga4_5 Mn1_5 2.669423 1_555
Ga4_5 Ga9_5 2.690286 1_555
Ga4_5 V0_5 2.759062 1_555
Ga4_5 V0_4 2.759062 1_555
Ga4_6 Mn1_6 2.669423 1_555
Ga4_6 Mn1_7 2.669423 1_554
Ga4_6 Ga4_7 2.689669 1_554
Ga4_6 Ga4_7 2.689669 1_555
Ga4_6 Ga9_6 2.690286 1_555
Ga4_6 V0_6 2.759062 1_555
Ga4_6 V0_7 2.759062 1_554
Ga4_7 Mn1_7 2.669423 1_555
Ga4_7 Mn1_6 2.669423 1_555
Ga4_7 Ga9_7 2.690286 1_555
Ga4_7 V0_6 2.759062 1_555
Ga4_7 V0_7 2.759062 1_555
Ga5_0 Mn0_1 2.669423 1_554
Ga5_0 Mn0_0 2.669423 1_555
Ga5_0 Ga5_1 2.689669 1_554
Ga5_0 Ga5_1 2.689669 1_555
Ga5_0 Ga9_0 2.690286 1_555
Ga5_0 V1_0 2.759062 1_555
Ga5_0 V1_1 2.759062 1_554
Ga5_1 Mn0_1 2.669423 1_555
Ga5_1 Mn0_0 2.669423 1_555
Ga5_1 Ga9_1 2.690286 1_555
Ga5_1 V1_1 2.759062 1_555
Ga5_1 V1_0 2.759062 1_555
Ga5_2 Mn0_2 2.669423 1_555
Ga5_2 Mn0_3 2.669423 1_554
Ga5_2 Ga5_3 2.689669 1_554
Ga5_2 Ga5_3 2.689669 1_555
Ga5_2 Ga9_2 2.690286 1_555
Ga5_2 V1_2 2.759062 1_555
Ga5_2 V1_3 2.759062 1_554
Ga5_3 Mn0_3 2.669423 1_555
Ga5_3 Mn0_2 2.669423 1_555
Ga5_3 Ga9_3 2.690286 1_555
Ga5_3 V1_3 2.759062 1_555
Ga5_3 V1_2 2.759062 1_555
Ga5_4 Mn0_4 2.669423 1_555
Ga5_4 Mn0_5 2.669423 1_554
Ga5_4 Ga5_5 2.689669 1_554
Ga5_4 Ga5_5 2.689669 1_555
Ga5_4 Ga9_4 2.690286 1_555
Ga5_4 V1_5 2.759062 1_554
Ga5_4 V1_4 2.759062 1_555
Ga5_5 Mn0_4 2.669423 1_555
Ga5_5 Mn0_5 2.669423 1_555
Ga5_5 Ga9_5 2.690286 1_555
Ga5_5 V1_5 2.759062 1_555
Ga5_5 V1_4 2.759062 1_555
Ga5_6 Mn0_6 2.669423 1_555
Ga5_6 Mn0_7 2.669423 1_554
Ga5_6 Ga5_7 2.689669 1_554
Ga5_6 Ga5_7 2.689669 1_555
Ga5_6 Ga9_6 2.690286 1_555
Ga5_6 V1_6 2.759062 1_555
Ga5_6 V1_7 2.759062 1_554
Ga5_7 Mn0_6 2.669423 1_555
Ga5_7 Mn0_7 2.669423 1_555
Ga5_7 Ga9_7 2.690286 1_555
Ga5_7 V1_7 2.759062 1_555
Ga5_7 V1_6 2.759062 1_555
Ga6_0 V0_0 2.670490 1_555
Ga6_0 V0_1 2.670490 1_554
Ga6_0 Ga8_0 2.680864 1_555
Ga6_0 Ga6_1 2.689669 1_555
Ga6_0 Ga6_1 2.689669 1_554
Ga6_0 Mn1_2 2.719363 1_545
Ga6_0 Mn1_3 2.719363 1_544
Ga6_1 V0_1 2.670490 1_555
Ga6_1 V0_0 2.670490 1_555
Ga6_1 Ga8_1 2.680864 1_555
Ga6_1 Mn1_3 2.719363 1_545
Ga6_1 Mn1_2 2.719363 1_545
Ga6_2 V0_2 2.670490 1_555
Ga6_2 V0_3 2.670490 1_554
Ga6_2 Ga8_2 2.680864 1_555
Ga6_2 Ga6_3 2.689669 1_554
Ga6_2 Ga6_3 2.689669 1_555
Ga6_2 Mn1_0 2.719363 1_555
Ga6_2 Mn1_1 2.719363 1_554
Ga6_3 V0_3 2.670490 1_555
Ga6_3 V0_2 2.670490 1_555
Ga6_3 Ga8_3 2.680864 1_555
Ga6_3 Mn1_1 2.719363 1_555
Ga6_3 Mn1_0 2.719363 1_555
Ga6_4 V0_4 2.670490 1_555
Ga6_4 V0_5 2.670490 1_554
Ga6_4 Ga8_4 2.680864 1_555
Ga6_4 Ga6_5 2.689669 1_555
Ga6_4 Ga6_5 2.689669 1_554
Ga6_4 Mn1_7 2.719363 1_544
Ga6_4 Mn1_6 2.719363 1_545
Ga6_5 V0_5 2.670490 1_555
Ga6_5 V0_4 2.670490 1_555
Ga6_5 Ga8_5 2.680864 1_555
Ga6_5 Mn1_7 2.719363 1_545
Ga6_5 Mn1_6 2.719363 1_545
Ga6_6 V0_6 2.670490 1_555
Ga6_6 V0_7 2.670490 1_554
Ga6_6 Ga8_6 2.680864 1_555
Ga6_6 Ga6_7 2.689669 1_554
Ga6_6 Ga6_7 2.689669 1_555
Ga6_6 Mn1_5 2.719363 1_554
Ga6_6 Mn1_4 2.719363 1_555
Ga6_7 V0_7 2.670490 1_555
Ga6_7 V0_6 2.670490 1_555
Ga6_7 Ga8_7 2.680864 1_555
Ga6_7 Mn1_5 2.719363 1_555
Ga6_7 Mn1_4 2.719363 1_555
Ga7_0 V1_1 2.670490 1_554
Ga7_0 V1_0 2.670490 1_555
Ga7_0 Ga8_6 2.680864 1_555
Ga7_0 Ga7_1 2.689669 1_555
Ga7_0 Ga7_1 2.689669 1_554
Ga7_0 Mn0_2 2.719363 1_555
Ga7_0 Mn0_3 2.719363 1_554
Ga7_1 V1_1 2.670490 1_555
Ga7_1 V1_0 2.670490 1_555
Ga7_1 Ga8_7 2.680864 1_555
Ga7_1 Mn0_3 2.719363 1_555
Ga7_1 Mn0_2 2.719363 1_555
Ga7_2 V1_2 2.670490 1_555
Ga7_2 V1_3 2.670490 1_554
Ga7_2 Ga8_4 2.680864 1_565
Ga7_2 Ga7_3 2.689669 1_554
Ga7_2 Ga7_3 2.689669 1_555
Ga7_2 Mn0_0 2.719363 1_565
Ga7_2 Mn0_1 2.719363 1_564
Ga7_3 V1_3 2.670490 1_555
Ga7_3 V1_2 2.670490 1_555
Ga7_3 Ga8_5 2.680864 1_565
Ga7_3 Mn0_1 2.719363 1_565
Ga7_3 Mn0_0 2.719363 1_565
Ga7_4 V1_4 2.670490 1_555
Ga7_4 V1_5 2.670490 1_554
Ga7_4 Ga8_2 2.680864 1_655
Ga7_4 Ga7_5 2.689669 1_555
Ga7_4 Ga7_5 2.689669 1_554
Ga7_4 Mn0_6 2.719363 1_555
Ga7_4 Mn0_7 2.719363 1_554
Ga7_5 V1_5 2.670490 1_555
Ga7_5 V1_4 2.670490 1_555
Ga7_5 Ga8_3 2.680864 1_655
Ga7_5 Mn0_7 2.719363 1_555
Ga7_5 Mn0_6 2.719363 1_555
Ga7_6 V1_6 2.670490 1_555
Ga7_6 V1_7 2.670490 1_554
Ga7_6 Ga8_0 2.680864 1_665
Ga7_6 Ga7_7 2.689669 1_554
Ga7_6 Ga7_7 2.689669 1_555
Ga7_6 Mn0_5 2.719363 1_564
Ga7_6 Mn0_4 2.719363 1_565
Ga7_7 V1_7 2.670490 1_555
Ga7_7 V1_6 2.670490 1_555
Ga7_7 Ga8_1 2.680864 1_665
Ga7_7 Mn0_5 2.719363 1_565
Ga7_7 Mn0_4 2.719363 1_565
Ga8_0 Mn1_2 2.621528 1_545
Ga8_0 Mn0_4 2.621528 1_455
Ga8_0 Mn1_3 2.621528 1_544
Ga8_0 Mn0_5 2.621528 1_454
Ga8_0 Ga8_1 2.689669 1_555
Ga8_0 Ga8_1 2.689669 1_554
Ga8_1 Mn0_5 2.621528 1_455
Ga8_1 Mn1_3 2.621528 1_545
Ga8_1 Mn1_2 2.621528 1_545
Ga8_1 Mn0_4 2.621528 1_455
Ga8_2 Mn0_6 2.621528 1_455
Ga8_2 Mn0_7 2.621528 1_454
Ga8_2 Mn1_0 2.621528 1_555
Ga8_2 Mn1_1 2.621528 1_554
Ga8_2 Ga8_3 2.689669 1_554
Ga8_2 Ga8_3 2.689669 1_555
Ga8_3 Mn0_7 2.621528 1_455
Ga8_3 Mn0_6 2.621528 1_455
Ga8_3 Mn1_1 2.621528 1_555
Ga8_3 Mn1_0 2.621528 1_555
Ga8_4 Mn1_6 2.621528 1_545
Ga8_4 Mn1_7 2.621528 1_544
Ga8_4 Mn0_0 2.621528 1_555
Ga8_4 Mn0_1 2.621528 1_554
Ga8_4 Ga8_5 2.689669 1_554
Ga8_4 Ga8_5 2.689669 1_555
Ga8_5 Mn1_7 2.621528 1_545
Ga8_5 Mn1_6 2.621528 1_545
Ga8_5 Mn0_1 2.621528 1_555
Ga8_5 Mn0_0 2.621528 1_555
Ga8_6 Mn0_2 2.621528 1_555
Ga8_6 Mn1_4 2.621528 1_555
Ga8_6 Mn0_3 2.621528 1_554
Ga8_6 Mn1_5 2.621528 1_554
Ga8_6 Ga8_7 2.689669 1_555
Ga8_6 Ga8_7 2.689669 1_554
Ga8_7 Mn0_2 2.621528 1_555
Ga8_7 Mn0_3 2.621528 1_555
Ga8_7 Mn1_5 2.621528 1_555
Ga8_7 Mn1_4 2.621528 1_555
Ga9_0 V1_1 2.634115 1_554
Ga9_0 V0_1 2.634115 1_554
Ga9_0 V0_0 2.634115 1_555
Ga9_0 V1_0 2.634115 1_555
Ga9_0 Ga9_1 2.689669 1_554
Ga9_0 Ga9_1 2.689669 1_555
Ga9_1 V0_1 2.634115 1_555
Ga9_1 V1_1 2.634115 1_555
Ga9_1 V0_0 2.634115 1_555
Ga9_1 V1_0 2.634115 1_555
Ga9_2 V1_2 2.634115 1_555
Ga9_2 V1_3 2.634115 1_554
Ga9_2 V0_2 2.634115 1_555
Ga9_2 V0_3 2.634115 1_554
Ga9_2 Ga9_3 2.689669 1_555
Ga9_2 Ga9_3 2.689669 1_554
Ga9_3 V1_3 2.634115 1_555
Ga9_3 V1_2 2.634115 1_555
Ga9_3 V0_3 2.634115 1_555
Ga9_3 V0_2 2.634115 1_555
Ga9_4 V1_4 2.634115 1_555
Ga9_4 V1_5 2.634115 1_554
Ga9_4 V0_4 2.634115 1_555
Ga9_4 V0_5 2.634115 1_554
Ga9_4 Ga9_5 2.689669 1_554
Ga9_4 Ga9_5 2.689669 1_555
Ga9_5 V1_5 2.634115 1_555
Ga9_5 V1_4 2.634115 1_555
Ga9_5 V0_5 2.634115 1_555
Ga9_5 V0_4 2.634115 1_555
Ga9_6 V1_6 2.634115 1_555
Ga9_6 V0_6 2.634115 1_555
Ga9_6 V1_7 2.634115 1_554
Ga9_6 V0_7 2.634115 1_554
Ga9_6 Ga9_7 2.689669 1_555
Ga9_6 Ga9_7 2.689669 1_554
Ga9_7 V1_7 2.634115 1_555
Ga9_7 V0_7 2.634115 1_555
Ga9_7 V1_6 2.634115 1_555
Ga9_7 V0_6 2.634115 1_555
