# generated using pymatgen
data_Nb4VS8
_symmetry_space_group_name_H-M   'P 1'
_cell_length_a   6.70720902
_cell_length_b   6.70720832
_cell_length_c   12.24634522
_cell_angle_alpha   89.99998912
_cell_angle_beta   90.00001160
_cell_angle_gamma   119.99992061
_symmetry_Int_Tables_number   1
_chemical_formula_structural   Nb4VS8
_chemical_formula_sum   'Nb8 V2 S16'
_cell_volume   477.11284974
_cell_formula_units_Z   2
loop_
 _symmetry_equiv_pos_site_id
 _symmetry_equiv_pos_as_xyz
  1  'x, y, z'
loop_
 _atom_site_type_symbol
 _atom_site_label
 _atom_site_symmetry_multiplicity
 _atom_site_fract_x
 _atom_site_fract_y
 _atom_site_fract_z
 _atom_site_occupancy
  Nb  Nb0  1  -0.00000010  0.00000002  0.25004126  1
  Nb  Nb1  1  -0.00000003  -0.00000007  0.74995720  1
  Nb  Nb2  1  0.50553584  0.49446417  0.25003427  1
  Nb  Nb3  1  0.50553571  0.01107179  0.25003427  1
  Nb  Nb4  1  0.98892819  0.49446426  0.25003424  1
  Nb  Nb5  1  0.49447313  0.50552687  0.74996523  1
  Nb  Nb6  1  0.49447335  0.98894627  0.74996521  1
  Nb  Nb7  1  0.01105370  0.50552659  0.74996521  1
  V  V0  1  0.00000008  0.00000011  0.50000218  1
  V  V1  1  -0.00000001  -0.00000011  0.00000071  1
  S  S0  1  0.33333330  0.66666677  0.87983042  1
  S  S1  1  0.66666672  0.33333335  0.12020297  1
  S  S2  1  0.66666667  0.33333329  0.37989666  1
  S  S3  1  0.33333319  0.66666684  0.62006892  1
  S  S4  1  0.16618785  0.83381206  0.37807070  1
  S  S5  1  0.16618790  0.33237600  0.37807059  1
  S  S6  1  0.66762408  0.83381224  0.37807062  1
  S  S7  1  0.83381240  0.16618749  0.62191432  1
  S  S8  1  0.83381250  0.66762452  0.62191445  1
  S  S9  1  0.33237553  0.16618764  0.62191446  1
  S  S10  1  0.83381700  0.16618275  0.87800395  1
  S  S11  1  0.83381703  0.66763386  0.87800379  1
  S  S12  1  0.33236614  0.16618300  0.87800373  1
  S  S13  1  0.16617987  0.83382002  0.12201079  1
  S  S14  1  0.16617997  0.33236008  0.12201093  1
  S  S15  1  0.66763999  0.83382017  0.12201092  1
loop_
_geom_bond_atom_site_label_1
_geom_bond_atom_site_label_2
_geom_bond_distance
_geom_bond_site_symmetry_2
Nb0 S13 2.487037 1_545
Nb0 S15 2.487037 1_445
Nb0 S14 2.487037 1_555
Nb0 S4 2.487100 1_545
Nb0 S6 2.487101 1_445
Nb0 S5 2.487101 1_555
Nb1 S10 2.487188 1_455
Nb1 S11 2.487190 1_445
Nb1 S12 2.487190 1_555
Nb1 S7 2.487200 1_455
Nb1 S8 2.487203 1_445
Nb1 S9 2.487203 1_555
Nb2 S1 2.456004 1_555
Nb2 S2 2.456250 1_555
Nb2 S14 2.519170 1_555
Nb2 S15 2.519171 1_555
Nb2 S5 2.519235 1_555
Nb2 S6 2.519235 1_555
Nb3 S1 2.456004 1_555
Nb3 S2 2.456251 1_555
Nb3 S15 2.519169 1_545
Nb3 S13 2.519171 1_545
Nb3 S6 2.519233 1_545
Nb3 S4 2.519235 1_545
Nb4 S1 2.456004 1_555
Nb4 S2 2.456251 1_555
Nb4 S14 2.519169 1_655
Nb4 S13 2.519170 1_655
Nb4 S5 2.519233 1_655
Nb4 S4 2.519235 1_655
Nb5 S0 2.456352 1_555
Nb5 S3 2.456599 1_555
Nb5 S12 2.519230 1_555
Nb5 S11 2.519230 1_555
Nb5 S9 2.519303 1_555
Nb5 S8 2.519304 1_555
Nb6 S0 2.456352 1_555
Nb6 S3 2.456599 1_555
Nb6 S12 2.519229 1_565
Nb6 S10 2.519231 1_565
Nb6 S9 2.519301 1_565
Nb6 S7 2.519304 1_565
Nb7 S0 2.456353 1_555
Nb7 S3 2.456599 1_555
Nb7 S11 2.519229 1_455
Nb7 S10 2.519231 1_455
Nb7 S8 2.519301 1_455
Nb7 S7 2.519304 1_455
S4 V0 2.440711 1_565
S5 V0 2.440713 1_555
S6 V0 2.440714 1_665
S7 V0 2.440563 1_655
S8 V0 2.440567 1_665
S9 V0 2.440567 1_555
S10 V1 2.441154 1_656
S11 V1 2.441158 1_666
S12 V1 2.441159 1_556
S13 V1 2.441226 1_565
S14 V1 2.441231 1_555
S15 V1 2.441230 1_665
