# generated using pymatgen
data_Sb2TeRu
_symmetry_space_group_name_H-M   'P 1'
_cell_length_a   8.13934038
_cell_length_b   8.13934038
_cell_length_c   8.13934038
_cell_angle_alpha   110.17527928
_cell_angle_beta   109.20419073
_cell_angle_gamma   109.03653682
_symmetry_Int_Tables_number   1
_chemical_formula_structural   Sb2TeRu
_chemical_formula_sum   'Sb8 Te4 Ru4'
_cell_volume   415.04536429
_cell_formula_units_Z   4
loop_
 _symmetry_equiv_pos_site_id
 _symmetry_equiv_pos_as_xyz
  1  'x, y, z'
loop_
 _atom_site_type_symbol
 _atom_site_label
 _atom_site_symmetry_multiplicity
 _atom_site_fract_x
 _atom_site_fract_y
 _atom_site_fract_z
 _atom_site_occupancy
  Sb  Sb0  1  0.84585500  0.33962000  0.18547500  1
  Sb  Sb1  1  0.15414500  0.66038000  0.81452500  1
  Sb  Sb2  1  0.84585500  0.66038000  0.50623500  1
  Sb  Sb3  1  0.15414500  0.33962000  0.49376500  1
  Sb  Sb4  1  0.34204100  0.18742100  0.84538000  1
  Sb  Sb5  1  0.65795900  0.81257900  0.15462000  1
  Sb  Sb6  1  0.65795900  0.50334000  0.84538000  1
  Sb  Sb7  1  0.34204100  0.49666000  0.15462000  1
  Te  Te0  1  0.16672400  0.84044500  0.32627900  1
  Te  Te1  1  0.83327600  0.15955500  0.67372100  1
  Te  Te2  1  0.51416500  0.84044500  0.67372100  1
  Te  Te3  1  0.48583500  0.15955500  0.32627900  1
  Ru  Ru0  1  0.00000000  0.50000000  0.00000000  1
  Ru  Ru1  1  0.00000000  0.00000000  0.50000000  1
  Ru  Ru2  1  0.50000000  0.00000000  0.00000000  1
  Ru  Ru3  1  0.50000000  0.50000000  0.50000000  1
loop_
_geom_bond_atom_site_label_1
_geom_bond_atom_site_label_2
_geom_bond_distance
_geom_bond_site_symmetry_2
Sb0 Sb3 2.907005 1_655
Sb0 Sb2 2.988412 1_555
Sb1 Sb2 2.907005 1_455
Sb1 Sb3 2.988412 1_555
Sb4 Sb7 2.881079 1_556
Sb4 Sb6 2.985067 1_555
Sb5 Sb6 2.881079 1_554
Sb5 Sb7 2.985067 1_555
Ru0 Te1 2.583157 1_454
Ru0 Te0 2.583157 1_555
Ru0 Sb0 2.663488 1_455
Ru0 Sb1 2.663488 1_554
Ru0 Sb7 2.665178 1_555
Ru0 Sb6 2.665178 1_454
Ru1 Te0 2.583157 1_545
Ru1 Te1 2.583157 1_455
Ru1 Sb2 2.663488 1_445
Ru1 Sb3 2.663488 1_555
Ru1 Sb5 2.665174 1_445
Ru1 Sb4 2.665174 1_555
Ru2 Te2 2.583153 1_544
Ru2 Te3 2.583153 1_555
Ru2 Sb0 2.663488 1_555
Ru2 Sb1 2.663488 1_544
Ru2 Sb4 2.665174 1_554
Ru2 Sb5 2.665174 1_545
Ru3 Te3 2.583161 1_555
Ru3 Te2 2.583161 1_555
Ru3 Sb2 2.663488 1_555
Ru3 Sb3 2.663488 1_555
Ru3 Sb6 2.665170 1_555
Ru3 Sb7 2.665170 1_555
