# generated using pymatgen
data_H11C2N11O3
_symmetry_space_group_name_H-M   'P 1'
_cell_length_a   7.73155114
_cell_length_b   8.48329569
_cell_length_c   9.31500789
_cell_angle_alpha   89.70081102
_cell_angle_beta   73.66626857
_cell_angle_gamma   86.02425436
_symmetry_Int_Tables_number   1
_chemical_formula_structural   H11C2N11O3
_chemical_formula_sum   'H22 C4 N22 O6'
_cell_volume   584.82787213
_cell_formula_units_Z   2
loop_
 _symmetry_equiv_pos_site_id
 _symmetry_equiv_pos_as_xyz
  1  'x, y, z'
loop_
 _atom_site_type_symbol
 _atom_site_label
 _atom_site_symmetry_multiplicity
 _atom_site_fract_x
 _atom_site_fract_y
 _atom_site_fract_z
 _atom_site_occupancy
  H  H0  1  0.50767300  0.77183000  0.00216600  1
  H  H1  1  0.49232700  0.22817000  0.99783400  1
  H  H2  1  0.99807100  0.37111300  0.14101100  1
  H  H3  1  0.00192900  0.62888700  0.85898900  1
  H  H4  1  0.65804100  0.56857100  0.26363000  1
  H  H5  1  0.34195900  0.43142900  0.73637000  1
  H  H6  1  0.27727800  0.82434600  0.30021700  1
  H  H7  1  0.72272200  0.17565400  0.69978300  1
  H  H8  1  0.05567900  0.47139600  0.37024700  1
  H  H9  1  0.94432100  0.52860400  0.62975300  1
  H  H10  1  0.24884400  0.65619800  0.52063000  1
  H  H11  1  0.75115600  0.34380200  0.47937000  1
  H  H12  1  0.28734400  0.58117600  0.99494500  1
  H  H13  1  0.71265600  0.41882400  0.00505500  1
  H  H14  1  0.57541100  0.40372500  0.28808500  1
  H  H15  1  0.42458900  0.59627500  0.71191500  1
  H  H16  1  0.67873000  0.13170400  0.01651800  1
  H  H17  1  0.32127000  0.86829600  0.98348200  1
  H  H18  1  0.17608400  0.27525200  0.17580400  1
  H  H19  1  0.82391600  0.72474800  0.82419600  1
  H  H20  1  0.08099700  0.78972500  0.53999300  1
  H  H21  1  0.91900300  0.21027500  0.46000700  1
  C  C0  1  0.20304100  0.62520200  0.22392000  1
  C  C1  1  0.79695900  0.37479800  0.77608000  1
  C  C2  1  0.27335100  0.12438600  0.59617000  1
  C  C3  1  0.72664900  0.87561400  0.40383000  1
  N  N0  1  0.41049900  0.27406700  0.42886800  1
  N  N1  1  0.58950100  0.72593300  0.57113200  1
  N  N2  1  0.12722800  0.38198600  0.14647400  1
  N  N3  1  0.87277200  0.61801400  0.85352600  1
  N  N4  1  0.36019100  0.25782700  0.57694500  1
  N  N5  1  0.63980900  0.74217300  0.42305500  1
  N  N6  1  0.35432800  0.15420400  0.36303300  1
  N  N7  1  0.64567200  0.84579600  0.63696700  1
  N  N8  1  0.37367800  0.79905400  0.05348200  1
  N  N9  1  0.62632200  0.20094600  0.94651800  1
  N  N10  1  0.12193900  0.49074600  0.26035700  1
  N  N11  1  0.87806100  0.50925400  0.73964300  1
  N  N12  1  0.13870700  0.68770200  0.48295800  1
  N  N13  1  0.86129300  0.31229800  0.51704200  1
  N  N14  1  0.20039200  0.73008000  0.33190400  1
  N  N15  1  0.79960800  0.26992000  0.66809600  1
  N  N16  1  0.19691200  0.05900900  0.74112100  1
  N  N17  1  0.80308800  0.94099100  0.25887900  1
  N  N18  1  0.28422600  0.65860400  0.08121200  1
  N  N19  1  0.71577400  0.34139600  0.91878800  1
  N  N20  1  0.26700900  0.05743500  0.46772400  1
  N  N21  1  0.73299100  0.94256500  0.53227600  1
  O  O0  1  0.20903000  0.13373600  0.85188000  1
  O  O1  1  0.79097000  0.86626400  0.14812000  1
  O  O2  1  0.66531800  0.46403400  0.21582700  1
  O  O3  1  0.33468200  0.53596600  0.78417300  1
  O  O4  1  0.87491500  0.06856000  0.25340400  1
  O  O5  1  0.12508500  0.93144000  0.74659600  1
loop_
_geom_bond_atom_site_label_1
_geom_bond_atom_site_label_2
_geom_bond_distance
_geom_bond_site_symmetry_2
H0 N8 1.022027 1_555
H1 N9 1.022027 1_555
H2 N2 1.024535 1_655
H3 N3 1.024535 1_455
H4 O2 0.985396 1_555
H5 O3 0.985396 1_555
H6 N14 1.022132 1_555
H7 N15 1.022132 1_555
H8 N10 1.025745 1_555
H9 N11 1.025745 1_555
H10 N12 1.027232 1_555
H11 N13 1.027232 1_555
H12 N18 1.034497 1_556
H13 N19 1.034497 1_554
H14 O2 0.990225 1_555
H15 O3 0.990225 1_555
H16 N9 1.022739 1_554
H17 N8 1.022739 1_556
H18 N2 1.022356 1_555
H19 N3 1.022356 1_555
H20 N12 1.023884 1_555
H21 N13 1.023884 1_555
C0 N10 1.335983 1_555
C0 N18 1.338955 1_555
C0 N14 1.341274 1_555
C1 N11 1.335983 1_555
C1 N19 1.338955 1_555
C1 N15 1.341274 1_555
C2 N4 1.341632 1_555
C2 N20 1.341827 1_555
C2 N16 1.438319 1_555
C3 N5 1.341632 1_555
C3 N21 1.341827 1_555
C3 N17 1.438319 1_555
N0 N4 1.332863 1_555
N0 N6 1.347659 1_555
N1 N5 1.332863 1_555
N1 N7 1.347659 1_555
N10 N2 1.399598 1_555
N11 N3 1.399598 1_555
N12 N14 1.406267 1_555
N13 N15 1.406267 1_555
N16 O0 1.242792 1_555
N16 O5 1.244587 1_545
N17 O1 1.242792 1_555
N17 O4 1.244587 1_565
N18 N8 1.405429 1_555
N19 N9 1.405429 1_555
N20 N6 1.333746 1_555
N21 N7 1.333746 1_555
