# generated using pymatgen
data_MgGa
_symmetry_space_group_name_H-M   'P 1'
_cell_length_a   5.39181534
_cell_length_b   5.39181534
_cell_length_c   4.78820700
_cell_angle_alpha   90.00000000
_cell_angle_beta   90.00000000
_cell_angle_gamma   121.36311932
_symmetry_Int_Tables_number   1
_chemical_formula_structural   MgGa
_chemical_formula_sum   'Mg3 Ga3'
_cell_volume   118.86194288
_cell_formula_units_Z   3
loop_
 _symmetry_equiv_pos_site_id
 _symmetry_equiv_pos_as_xyz
  1  'x, y, z'
loop_
 _atom_site_type_symbol
 _atom_site_label
 _atom_site_symmetry_multiplicity
 _atom_site_fract_x
 _atom_site_fract_y
 _atom_site_fract_z
 _atom_site_occupancy
  Mg  Mg0  1  0.65675100  0.65675100  0.00000000  1
  Mg  Mg1  1  0.01176200  0.67231800  0.50000000  1
  Mg  Mg2  1  0.67231800  0.01176200  0.50000000  1
  Ga  Ga0  1  0.99465800  0.32769800  0.00000000  1
  Ga  Ga1  1  0.32769800  0.99465800  0.00000000  1
  Ga  Ga2  1  0.33681400  0.33681400  0.50000000  1
loop_
_geom_bond_atom_site_label_1
_geom_bond_atom_site_label_2
_geom_bond_distance
_geom_bond_site_symmetry_2
Mg0 Mg2 3.039000 1_565
Mg0 Mg1 3.039000 1_655
Mg0 Mg1 3.039000 1_654
Mg0 Mg2 3.039000 1_564
Mg1 Mg2 3.041287 1_565
Mg1 Mg2 3.041287 1_455
Mg1 Mg2 3.191579 1_465
Ga0 Mg2 2.927866 1_555
Ga0 Mg2 2.927866 1_554
Ga0 Mg1 3.002416 1_654
Ga0 Mg1 3.002416 1_655
Ga0 Ga2 3.007192 1_654
Ga0 Ga2 3.007192 1_655
Ga0 Mg0 3.049425 1_655
Ga0 Ga1 3.071620 1_545
Ga0 Ga1 3.071620 1_655
Ga0 Mg0 3.089637 1_545
Ga0 Ga1 3.131367 1_645
Ga0 Mg0 3.135591 1_555
Ga1 Mg1 2.927866 1_555
Ga1 Mg1 2.927866 1_554
Ga1 Mg2 3.002416 1_564
Ga1 Mg2 3.002416 1_565
Ga1 Ga2 3.007192 1_564
Ga1 Ga2 3.007192 1_565
Ga1 Mg0 3.049425 1_565
Ga1 Mg0 3.089637 1_455
Ga1 Mg0 3.135591 1_555
Ga2 Mg0 2.930142 1_555
Ga2 Mg0 2.930142 1_556
Ga2 Mg2 3.061390 1_455
Ga2 Mg1 3.061390 1_545
Ga2 Mg2 3.105520 1_555
Ga2 Mg1 3.105520 1_555
Ga2 Mg2 3.108622 1_565
Ga2 Mg1 3.108622 1_655
