# generated using pymatgen
data_CaLa4Si3O13
_symmetry_space_group_name_H-M   'P 1'
_cell_length_a   9.73568342
_cell_length_b   9.73568342
_cell_length_c   7.18651900
_cell_angle_alpha   90.00000000
_cell_angle_beta   90.00000000
_cell_angle_gamma   119.99999607
_symmetry_Int_Tables_number   1
_chemical_formula_structural   CaLa4Si3O13
_chemical_formula_sum   'Ca2 La8 Si6 O26'
_cell_volume   589.90504961
_cell_formula_units_Z   2
loop_
 _symmetry_equiv_pos_site_id
 _symmetry_equiv_pos_as_xyz
  1  'x, y, z'
loop_
 _atom_site_type_symbol
 _atom_site_label
 _atom_site_symmetry_multiplicity
 _atom_site_fract_x
 _atom_site_fract_y
 _atom_site_fract_z
 _atom_site_occupancy
  Ca  Ca0  1  0.66666700  0.33333300  0.49922800  1
  Ca  Ca1  1  0.33333300  0.66666700  0.99922800  1
  La  La0  1  0.33333300  0.66666700  0.50030000  1
  La  La1  1  0.66666700  0.33333300  0.00030000  1
  La  La2  1  0.01065400  0.24370900  0.75047800  1
  La  La3  1  0.75629100  0.76694500  0.75047800  1
  La  La4  1  0.23305500  0.98934600  0.75047800  1
  La  La5  1  0.98934600  0.75629100  0.25047800  1
  La  La6  1  0.24370900  0.23305500  0.25047800  1
  La  La7  1  0.76694500  0.01065400  0.25047800  1
  Si  Si0  1  0.40289500  0.37290300  0.74867800  1
  Si  Si1  1  0.62709700  0.02999200  0.74867800  1
  Si  Si2  1  0.97000800  0.59710500  0.74867800  1
  Si  Si3  1  0.59710500  0.62709700  0.24867800  1
  Si  Si4  1  0.37290300  0.97000800  0.24867800  1
  Si  Si5  1  0.02999200  0.40289500  0.24867800  1
  O  O0  1  0.33864800  0.25279100  0.56820200  1
  O  O1  1  0.74720900  0.08585700  0.56820200  1
  O  O2  1  0.91414300  0.66135200  0.56820200  1
  O  O3  1  0.66135200  0.74720900  0.06820200  1
  O  O4  1  0.25279100  0.91414300  0.06820200  1
  O  O5  1  0.08585700  0.33864800  0.06820200  1
  O  O6  1  0.65647600  0.74550100  0.43246200  1
  O  O7  1  0.25449900  0.91097500  0.43246200  1
  O  O8  1  0.08902500  0.34352400  0.43246200  1
  O  O9  1  0.34352400  0.25449900  0.93246200  1
  O  O10  1  0.74550100  0.08902500  0.93246200  1
  O  O11  1  0.91097500  0.65647600  0.93246200  1
  O  O12  1  0.59758900  0.46938100  0.74953000  1
  O  O13  1  0.53061900  0.12820800  0.74953000  1
  O  O14  1  0.87179200  0.40241100  0.74953000  1
  O  O15  1  0.40241100  0.53061900  0.24953000  1
  O  O16  1  0.46938100  0.87179200  0.24953000  1
  O  O17  1  0.12820800  0.59758900  0.24953000  1
  O  O18  1  0.00000000  0.00000000  0.75073600  1
  O  O19  1  0.00000000  0.00000000  0.25073600  1
  O  O20  1  0.32773900  0.49081100  0.75057000  1
  O  O21  1  0.50918900  0.83692800  0.75057000  1
  O  O22  1  0.16307200  0.67226100  0.75057000  1
  O  O23  1  0.67226100  0.50918900  0.25057000  1
  O  O24  1  0.49081100  0.16307200  0.25057000  1
  O  O25  1  0.83692800  0.32773900  0.25057000  1
loop_
_geom_bond_atom_site_label_1
_geom_bond_atom_site_label_2
_geom_bond_distance
_geom_bond_site_symmetry_2
Ca0 O25 2.456465 1_555
Ca0 O24 2.456469 1_555
Ca0 O23 2.456472 1_555
Ca0 O14 2.516557 1_555
Ca0 O13 2.516558 1_555
Ca0 O12 2.516563 1_555
Ca0 O1 2.924853 1_555
Ca0 O2 2.924860 1_555
Ca0 O0 2.924863 1_555
Ca1 O22 2.456465 1_555
Ca1 O21 2.456469 1_555
Ca1 O20 2.456472 1_555
Ca1 O17 2.516557 1_556
Ca1 O16 2.516558 1_556
Ca1 O15 2.516563 1_556
Ca1 O4 2.924853 1_556
Ca1 O5 2.924860 1_556
Ca1 O3 2.924863 1_556
La0 O22 2.464905 1_555
La0 O21 2.464909 1_555
La0 O20 2.464912 1_555
La0 O17 2.518962 1_555
La0 O16 2.518963 1_555
La0 O15 2.518968 1_555
La0 O7 2.882626 1_555
La0 O8 2.882633 1_555
La0 O6 2.882635 1_555
La1 O25 2.464905 1_555
La1 O24 2.464909 1_555
La1 O23 2.464912 1_555
La1 O14 2.518962 1_554
La1 O13 2.518963 1_554
La1 O12 2.518968 1_554
La1 O10 2.882626 1_554
La1 O11 2.882633 1_554
La1 O9 2.882635 1_554
La2 O18 2.322550 1_555
La2 O5 2.434592 1_556
La2 O8 2.451167 1_555
La2 O14 2.510733 1_455
La2 O1 2.591205 1_455
La2 O10 2.598970 1_455
La2 O20 2.809044 1_555
La3 O18 2.322550 1_665
La3 O3 2.434592 1_556
La3 O6 2.451167 1_555
La3 O12 2.510734 1_555
La3 O2 2.591205 1_555
La3 O11 2.598970 1_555
La3 O21 2.809043 1_555
La4 O18 2.322550 1_565
La4 O4 2.434592 1_556
La4 O7 2.451167 1_555
La4 O13 2.510734 1_565
La4 O0 2.591205 1_565
La4 O9 2.598970 1_565
La4 O22 2.809044 1_555
La5 O19 2.322550 1_665
La5 O2 2.434592 1_555
La5 O11 2.451167 1_554
La5 O17 2.510733 1_655
La5 O4 2.591205 1_655
La5 O7 2.598970 1_655
La5 O23 2.809044 1_555
La6 O19 2.322550 1_555
La6 O0 2.434592 1_555
La6 O9 2.451167 1_554
La6 O15 2.510734 1_555
La6 O5 2.591205 1_555
La6 O8 2.598970 1_555
La6 O24 2.809043 1_555
La7 O19 2.322550 1_655
La7 O1 2.434592 1_555
La7 O10 2.451167 1_554
La7 O16 2.510734 1_545
La7 O3 2.591205 1_545
La7 O6 2.598970 1_545
La7 O25 2.809044 1_555
O0 Si0 1.646035 1_555
O1 Si1 1.646035 1_555
O2 Si2 1.646035 1_555
O3 Si3 1.646035 1_555
O4 Si4 1.646035 1_555
O5 Si5 1.646035 1_555
O6 Si3 1.655609 1_555
O7 Si4 1.655609 1_555
O8 Si5 1.655609 1_555
O9 Si0 1.655609 1_555
O10 Si1 1.655609 1_555
O11 Si2 1.655609 1_555
O12 Si0 1.641566 1_555
O13 Si1 1.641566 1_555
O14 Si2 1.641566 1_555
O15 Si3 1.641566 1_555
O16 Si4 1.641566 1_555
O17 Si5 1.641566 1_555
O20 Si0 1.641096 1_555
O21 Si1 1.641096 1_565
O22 Si2 1.641096 1_455
O23 Si3 1.641096 1_555
O24 Si4 1.641096 1_545
O25 Si5 1.641096 1_655
