# generated using pymatgen
data_Li2Mn(SeO3)2
_symmetry_space_group_name_H-M   'P 1'
_cell_length_a   8.73438287
_cell_length_b   9.61294080
_cell_length_c   8.73422183
_cell_angle_alpha   111.53973836
_cell_angle_beta   101.08227630
_cell_angle_gamma   68.46130061
_symmetry_Int_Tables_number   1
_chemical_formula_structural   Li2Mn(SeO3)2
_chemical_formula_sum   'Li8 Mn4 Se8 O24'
_cell_volume   633.10435608
_cell_formula_units_Z   4
loop_
 _symmetry_equiv_pos_site_id
 _symmetry_equiv_pos_as_xyz
  1  'x, y, z'
loop_
 _atom_site_type_symbol
 _atom_site_label
 _atom_site_symmetry_multiplicity
 _atom_site_fract_x
 _atom_site_fract_y
 _atom_site_fract_z
 _atom_site_occupancy
  Li  Li0  1  0.26936400  0.15386800  0.73076100  1
  Li  Li1  1  0.51947600  0.65371300  0.98055800  1
  Li  Li2  1  0.76925600  0.15383000  0.23067200  1
  Li  Li3  1  0.01933500  0.65379600  0.48072900  1
  Li  Li4  1  0.23052500  0.84621100  0.76941100  1
  Li  Li5  1  0.48064000  0.34617200  0.01936900  1
  Li  Li6  1  0.73073700  0.84613800  0.26936100  1
  Li  Li7  1  0.98086500  0.34596500  0.51919100  1
  Mn  Mn0  1  0.49975200  0.99973400  0.49968100  1
  Mn  Mn1  1  0.75012900  0.50013000  0.74989700  1
  Mn  Mn2  1  0.99950300  0.00003500  0.99956500  1
  Mn  Mn3  1  0.25054000  0.49998200  0.25064600  1
  Se  Se0  1  0.43124000  0.37919300  0.56884700  1
  Se  Se1  1  0.68116300  0.87936400  0.81880700  1
  Se  Se2  1  0.93114300  0.37932000  0.06893200  1
  Se  Se3  1  0.18099200  0.87931700  0.31886200  1
  Se  Se4  1  0.06892100  0.62070300  0.93122200  1
  Se  Se5  1  0.31884900  0.12071900  0.18109500  1
  Se  Se6  1  0.56885400  0.62069800  0.43116900  1
  Se  Se7  1  0.81871800  0.12075000  0.68115900  1
  O  O0  1  0.25087000  0.49915300  0.99548600  1
  O  O1  1  0.50095200  0.99927600  0.24557300  1
  O  O2  1  0.75095300  0.49907300  0.49517000  1
  O  O3  1  0.00081400  0.99936700  0.74572700  1
  O  O4  1  0.37226200  0.25407800  0.62738900  1
  O  O5  1  0.62258500  0.75414900  0.87765800  1
  O  O6  1  0.87234400  0.25415600  0.12772200  1
  O  O7  1  0.12235100  0.75410000  0.37770900  1
  O  O8  1  0.49554900  0.50085900  0.75080900  1
  O  O9  1  0.74563000  0.00071700  0.00095400  1
  O  O10  1  0.99541400  0.50091500  0.25094300  1
  O  O11  1  0.24559400  0.00068000  0.50101600  1
  O  O12  1  0.00452400  0.49932500  0.74898100  1
  O  O13  1  0.25458900  0.99915300  0.99913700  1
  O  O14  1  0.50434500  0.49931400  0.24916500  1
  O  O15  1  0.75449700  0.99912700  0.49919300  1
  O  O16  1  0.24911900  0.50070700  0.50445300  1
  O  O17  1  0.49912500  0.00084400  0.75451200  1
  O  O18  1  0.74911400  0.50066500  0.00412400  1
  O  O19  1  0.99902300  0.00092900  0.25467800  1
  O  O20  1  0.12755300  0.74606000  0.87251200  1
  O  O21  1  0.37762200  0.24599100  0.12246500  1
  O  O22  1  0.62743000  0.74588700  0.37221000  1
  O  O23  1  0.87773300  0.24583600  0.62247200  1
loop_
_geom_bond_atom_site_label_1
_geom_bond_atom_site_label_2
_geom_bond_distance
_geom_bond_site_symmetry_2
Li0 O17 2.032410 1_555
Li0 O11 2.032919 1_555
Li0 O4 2.034015 1_555
Li1 O18 2.031461 1_556
Li1 O8 2.031907 1_555
Li1 O5 2.034150 1_555
Li2 O9 2.032242 1_555
Li2 O19 2.032373 1_555
Li2 O6 2.033482 1_555
Li3 O10 2.032228 1_455
Li3 O16 2.032759 1_555
Li3 O7 2.033301 1_555
Li4 O13 2.032317 1_555
Li4 O20 2.032353 1_555
Li4 O3 2.032506 1_555
Li5 O0 2.032506 1_554
Li5 O21 2.032834 1_555
Li5 O14 2.032954 1_555
Li6 O15 2.032673 1_555
Li6 O1 2.033052 1_555
Li6 O22 2.033631 1_555
Li7 O12 2.033682 1_655
Li7 O2 2.034079 1_555
Li7 O23 2.034268 1_555
Mn0 O22 2.218579 1_555
Mn0 O11 2.218847 1_565
Mn0 O1 2.219855 1_555
Mn0 O4 2.222158 1_565
Mn0 O17 2.222906 1_565
Mn0 O15 2.223725 1_555
Mn1 O5 2.220054 1_555
Mn1 O18 2.220307 1_556
Mn1 O12 2.220697 1_655
Mn1 O23 2.221520 1_555
Mn1 O2 2.222517 1_555
Mn1 O8 2.222573 1_555
Mn2 O3 2.216948 1_645
Mn2 O9 2.217379 1_556
Mn2 O20 2.219408 1_645
Mn2 O6 2.220796 1_556
Mn2 O13 2.225637 1_645
Mn2 O19 2.225878 1_556
Mn3 O16 2.216665 1_555
Mn3 O14 2.216992 1_555
Mn3 O21 2.219793 1_555
Mn3 O7 2.220668 1_555
Mn3 O10 2.225588 1_455
Mn3 O0 2.226263 1_554
O0 Se4 1.726595 1_555
O1 Se5 1.727686 1_565
O2 Se6 1.726815 1_555
O3 Se7 1.727697 1_465
O4 Se0 1.726589 1_555
O5 Se1 1.726983 1_555
O6 Se2 1.727386 1_555
O7 Se3 1.727314 1_555
O8 Se0 1.727293 1_555
O9 Se1 1.727449 1_544
O10 Se2 1.727109 1_555
O11 Se3 1.727998 1_545
O12 Se4 1.727817 1_555
O13 Se5 1.726661 1_566
O14 Se6 1.726969 1_555
O15 Se7 1.726820 1_565
O16 Se0 1.727803 1_555
O17 Se1 1.726868 1_545
O18 Se2 1.728008 1_555
O19 Se3 1.726698 1_645
O20 Se4 1.727768 1_555
O21 Se5 1.727345 1_555
O22 Se6 1.727319 1_555
O23 Se7 1.727303 1_555
