# generated using pymatgen
data_Cs3Te13Mo12
_symmetry_space_group_name_H-M   'P 1'
_cell_length_a   18.92047617
_cell_length_b   18.92047617
_cell_length_c   18.92047572
_cell_angle_alpha   32.24138468
_cell_angle_beta   32.24138468
_cell_angle_gamma   32.24138426
_symmetry_Int_Tables_number   1
_chemical_formula_structural   Cs3Te13Mo12
_chemical_formula_sum   'Cs6 Te26 Mo24'
_cell_volume   1713.42237248
_cell_formula_units_Z   2
loop_
 _symmetry_equiv_pos_site_id
 _symmetry_equiv_pos_as_xyz
  1  'x, y, z'
loop_
 _atom_site_type_symbol
 _atom_site_label
 _atom_site_symmetry_multiplicity
 _atom_site_fract_x
 _atom_site_fract_y
 _atom_site_fract_z
 _atom_site_occupancy
  Cs  Cs0  1  0.26601600  0.26601600  0.26601600  1
  Cs  Cs1  1  0.73398400  0.73398400  0.73398400  1
  Cs  Cs2  1  0.35498700  0.35498700  0.35498700  1
  Cs  Cs3  1  0.64501300  0.64501300  0.64501300  1
  Cs  Cs4  1  0.44344900  0.44344900  0.44344900  1
  Cs  Cs5  1  0.55655100  0.55655100  0.55655100  1
  Te  Te0  1  0.44206600  0.18348600  0.82228200  1
  Te  Te1  1  0.18348600  0.82228200  0.44206600  1
  Te  Te2  1  0.82228200  0.44206600  0.18348600  1
  Te  Te3  1  0.55793400  0.81651400  0.17771800  1
  Te  Te4  1  0.81651400  0.17771800  0.55793400  1
  Te  Te5  1  0.17771800  0.55793400  0.81651400  1
  Te  Te6  1  0.43176500  0.81921300  0.07405000  1
  Te  Te7  1  0.81921300  0.07405000  0.43176500  1
  Te  Te8  1  0.07405000  0.43176500  0.81921300  1
  Te  Te9  1  0.56823500  0.18078700  0.92595000  1
  Te  Te10  1  0.18078700  0.92595000  0.56823500  1
  Te  Te11  1  0.92595000  0.56823500  0.18078700  1
  Te  Te12  1  0.35286900  0.10510200  0.73520100  1
  Te  Te13  1  0.10510200  0.73520100  0.35286900  1
  Te  Te14  1  0.73520100  0.35286900  0.10510200  1
  Te  Te15  1  0.64713100  0.89489800  0.26479900  1
  Te  Te16  1  0.89489800  0.26479900  0.64713100  1
  Te  Te17  1  0.26479900  0.64713100  0.89489800  1
  Te  Te18  1  0.35123000  0.73484100  0.97935200  1
  Te  Te19  1  0.73484100  0.97935200  0.35123000  1
  Te  Te20  1  0.97935200  0.35123000  0.73484100  1
  Te  Te21  1  0.64877000  0.26515900  0.02064800  1
  Te  Te22  1  0.26515900  0.02064800  0.64877000  1
  Te  Te23  1  0.02064800  0.64877000  0.26515900  1
  Te  Te24  1  0.19317000  0.19317000  0.19317000  1
  Te  Te25  1  0.80683000  0.80683000  0.80683000  1
  Mo  Mo0  1  0.30537800  0.01442200  0.13326100  1
  Mo  Mo1  1  0.01442200  0.13326100  0.30537800  1
  Mo  Mo2  1  0.13326100  0.30537800  0.01442200  1
  Mo  Mo3  1  0.69462200  0.98557800  0.86673900  1
  Mo  Mo4  1  0.98557800  0.86673900  0.69462200  1
  Mo  Mo5  1  0.86673900  0.69462200  0.98557800  1
  Mo  Mo6  1  0.24843900  0.12325300  0.95236000  1
  Mo  Mo7  1  0.12325300  0.95236000  0.24843900  1
  Mo  Mo8  1  0.95236000  0.24843900  0.12325300  1
  Mo  Mo9  1  0.75156100  0.87674700  0.04764000  1
  Mo  Mo10  1  0.87674700  0.04764000  0.75156100  1
  Mo  Mo11  1  0.04764000  0.75156100  0.87674700  1
  Mo  Mo12  1  0.21968400  0.92890800  0.04662900  1
  Mo  Mo13  1  0.92890800  0.04662900  0.21968400  1
  Mo  Mo14  1  0.04662900  0.21968400  0.92890800  1
  Mo  Mo15  1  0.78031600  0.07109200  0.95337100  1
  Mo  Mo16  1  0.07109200  0.95337100  0.78031600  1
  Mo  Mo17  1  0.95337100  0.78031600  0.07109200  1
  Mo  Mo18  1  0.15715800  0.04090300  0.86578300  1
  Mo  Mo19  1  0.04090300  0.86578300  0.15715800  1
  Mo  Mo20  1  0.86578300  0.15715800  0.04090300  1
  Mo  Mo21  1  0.84284200  0.95909700  0.13421700  1
  Mo  Mo22  1  0.95909700  0.13421700  0.84284200  1
  Mo  Mo23  1  0.13421700  0.84284200  0.95909700  1
loop_
_geom_bond_atom_site_label_1
_geom_bond_atom_site_label_2
_geom_bond_distance
_geom_bond_site_symmetry_2
Cs0 Te24 3.916562 1_555
Cs0 Te16 3.955160 1_455
Cs0 Te15 3.955160 1_545
Cs0 Te17 3.955160 1_554
Cs0 Te9 4.051233 1_554
Cs0 Te11 4.051233 1_455
Cs0 Te10 4.051233 1_545
Cs0 Te22 4.129631 1_555
Cs0 Te23 4.129631 1_555
Cs0 Te21 4.129631 1_555
Cs1 Te25 3.916562 1_555
Cs1 Te13 3.955160 1_655
Cs1 Te12 3.955160 1_565
Cs1 Te14 3.955160 1_556
Cs1 Te6 4.051233 1_556
Cs1 Te8 4.051233 1_655
Cs1 Te7 4.051233 1_565
Cs1 Te19 4.129631 1_555
Cs1 Te20 4.129631 1_555
Cs1 Te18 4.129631 1_555
Cs2 Te19 3.969122 1_545
Cs2 Te20 3.969122 1_455
Cs2 Te18 3.969122 1_554
Cs2 Te12 4.050161 1_555
Cs2 Te13 4.050161 1_555
Cs2 Te14 4.050161 1_555
Cs2 Te21 4.065347 1_555
Cs2 Te23 4.065347 1_555
Cs2 Te22 4.065347 1_555
Cs3 Te22 3.969122 1_565
Cs3 Te23 3.969122 1_655
Cs3 Te21 3.969122 1_556
Cs3 Te15 4.050161 1_555
Cs3 Te16 4.050161 1_555
Cs3 Te17 4.050161 1_555
Cs3 Te18 4.065347 1_555
Cs3 Te20 4.065347 1_555
Cs3 Te19 4.065347 1_555
Cs4 Te6 3.916905 1_555
Cs4 Te7 3.916905 1_555
Cs4 Te8 3.916905 1_555
Cs4 Te0 3.978897 1_555
Cs4 Te1 3.978897 1_555
Cs4 Te2 3.978897 1_555
Cs4 Te14 4.143414 1_555
Cs4 Te13 4.143414 1_555
Cs4 Te12 4.143414 1_555
Cs5 Te9 3.916905 1_555
Cs5 Te10 3.916905 1_555
Cs5 Te11 3.916905 1_555
Cs5 Te3 3.978897 1_555
Cs5 Te4 3.978897 1_555
Cs5 Te5 3.978897 1_555
Cs5 Te17 4.143414 1_555
Cs5 Te16 4.143414 1_555
Cs5 Te15 4.143414 1_555
Mo0 Mo2 2.662254 1_555
Mo0 Mo1 2.662254 1_555
Mo0 Te24 2.738262 1_555
Mo0 Mo6 2.771006 1_554
Mo0 Mo7 2.795556 1_545
Mo0 Te0 2.820533 1_554
Mo0 Te1 2.851303 1_545
Mo0 Te6 2.853430 1_545
Mo0 Te3 2.960707 1_545
Mo1 Mo2 2.662254 1_555
Mo1 Te24 2.738262 1_555
Mo1 Mo7 2.771006 1_545
Mo1 Mo8 2.795556 1_455
Mo1 Te1 2.820533 1_545
Mo1 Te2 2.851303 1_455
Mo1 Te7 2.853430 1_455
Mo1 Te4 2.960706 1_455
Mo2 Te24 2.738262 1_555
Mo2 Mo8 2.771006 1_455
Mo2 Mo6 2.795556 1_554
Mo2 Te2 2.820533 1_455
Mo2 Te0 2.851303 1_554
Mo2 Te8 2.853430 1_554
Mo2 Te5 2.960707 1_554
Mo3 Mo5 2.662254 1_555
Mo3 Mo4 2.662254 1_555
Mo3 Te25 2.738262 1_555
Mo3 Mo9 2.771006 1_556
Mo3 Te3 2.820533 1_556
Mo3 Te4 2.851303 1_565
Mo3 Te9 2.853430 1_565
Mo3 Te0 2.960707 1_565
Mo4 Mo5 2.662254 1_555
Mo4 Te25 2.738262 1_555
Mo4 Te4 2.820533 1_565
Mo4 Te5 2.851303 1_655
Mo4 Te10 2.853430 1_655
Mo4 Te1 2.960706 1_655
Mo5 Te25 2.738262 1_555
Mo5 Mo9 2.795556 1_556
Mo5 Te5 2.820533 1_655
Mo5 Te3 2.851303 1_556
Mo5 Te11 2.853430 1_556
Mo5 Te2 2.960707 1_556
Mo6 Mo8 2.704795 1_456
Mo6 Mo7 2.704795 1_546
Mo6 Te6 2.788435 1_546
Mo6 Te0 2.800532 1_555
Mo6 Te8 2.812698 1_555
Mo6 Te12 2.899965 1_555
Mo7 Mo8 2.704795 1_465
Mo7 Te7 2.788435 1_465
Mo7 Te1 2.800532 1_555
Mo7 Te6 2.812698 1_555
Mo7 Te13 2.899965 1_555
Mo8 Te8 2.788435 1_654
Mo8 Te2 2.800532 1_555
Mo8 Te7 2.812698 1_555
Mo8 Te14 2.899965 1_555
Mo9 Te9 2.788435 1_564
Mo9 Te3 2.800532 1_555
Mo9 Te11 2.812698 1_555
Mo9 Te15 2.899965 1_555
Mo10 Mo11 2.704795 1_645
Mo10 Mo9 2.704795 1_546
Mo10 Mo16 2.765227 1_645
Mo10 Mo4 2.771006 1_545
Mo10 Te10 2.788435 1_645
Mo10 Mo3 2.795556 1_545
Mo10 Mo15 2.795924 1_555
Mo10 Te4 2.800532 1_555
Mo10 Te9 2.812698 1_555
Mo10 Te16 2.899965 1_555
Mo11 Mo9 2.704795 1_456
Mo11 Mo17 2.765226 1_456
Mo11 Mo5 2.771006 1_455
Mo11 Te11 2.788435 1_456
Mo11 Mo4 2.795556 1_455
Mo11 Mo16 2.795924 1_555
Mo11 Te5 2.800532 1_555
Mo11 Te10 2.812698 1_555
Mo11 Te17 2.899965 1_555
Mo12 Mo14 2.661783 1_564
Mo12 Mo13 2.661783 1_465
Mo12 Mo6 2.765227 1_564
Mo12 Mo7 2.795924 1_555
Mo12 Mo19 2.807960 1_555
Mo12 Mo18 2.817709 1_564
Mo12 Te13 2.823793 1_555
Mo12 Te12 2.836816 1_564
Mo12 Te6 2.879295 1_555
Mo12 Te18 2.895701 1_554
Mo13 Mo14 2.661783 1_654
Mo13 Mo7 2.765227 1_645
Mo13 Mo8 2.795924 1_555
Mo13 Mo20 2.807960 1_555
Mo13 Mo19 2.817709 1_645
Mo13 Te14 2.823793 1_555
Mo13 Te13 2.836816 1_645
Mo13 Te7 2.879294 1_555
Mo13 Te19 2.895701 1_545
Mo14 Mo8 2.765226 1_456
Mo14 Mo6 2.795924 1_555
Mo14 Mo18 2.807960 1_555
Mo14 Mo20 2.817709 1_456
Mo14 Te12 2.823793 1_555
Mo14 Te14 2.836816 1_456
Mo14 Te8 2.879295 1_555
Mo14 Te20 2.895701 1_455
Mo15 Mo17 2.661783 1_546
Mo15 Mo16 2.661783 1_645
Mo15 Mo9 2.765227 1_546
Mo15 Mo22 2.807960 1_555
Mo15 Mo21 2.817709 1_546
Mo15 Te16 2.823793 1_555
Mo15 Te15 2.836816 1_546
Mo15 Te9 2.879295 1_555
Mo15 Te21 2.895701 1_556
Mo16 Mo17 2.661783 1_456
Mo16 Mo23 2.807960 1_555
Mo16 Mo22 2.817709 1_465
Mo16 Te17 2.823793 1_555
Mo16 Te16 2.836816 1_465
Mo16 Te10 2.879294 1_555
Mo16 Te22 2.895701 1_565
Mo17 Mo9 2.795924 1_555
Mo17 Mo21 2.807960 1_555
Mo17 Mo23 2.817709 1_654
Mo17 Te15 2.823793 1_555
Mo17 Te17 2.836816 1_654
Mo17 Te11 2.879295 1_555
Mo17 Te23 2.895701 1_655
Mo18 Mo20 2.669286 1_456
Mo18 Mo19 2.669286 1_546
Mo18 Mo22 2.758933 1_455
Mo18 Mo23 2.758933 1_545
Mo18 Te18 2.821760 1_545
Mo18 Te20 2.829845 1_455
Mo18 Te22 2.885408 1_555
Mo18 Te12 2.889168 1_555
Mo19 Mo20 2.669286 1_465
Mo19 Mo23 2.758933 1_554
Mo19 Mo21 2.758933 1_455
Mo19 Te19 2.821760 1_455
Mo19 Te18 2.829845 1_554
Mo19 Te23 2.885408 1_555
Mo19 Te13 2.889168 1_555
Mo20 Mo22 2.758933 1_554
Mo20 Mo21 2.758933 1_545
Mo20 Te20 2.821760 1_554
Mo20 Te19 2.829845 1_545
Mo20 Te21 2.885408 1_555
Mo20 Te14 2.889168 1_555
Mo21 Mo23 2.669286 1_654
Mo21 Mo22 2.669286 1_564
Mo21 Te21 2.821760 1_565
Mo21 Te23 2.829845 1_655
Mo21 Te19 2.885408 1_555
Mo21 Te15 2.889168 1_555
Mo22 Mo23 2.669286 1_645
Mo22 Te22 2.821760 1_655
Mo22 Te21 2.829845 1_556
Mo22 Te20 2.885408 1_555
Mo22 Te16 2.889168 1_555
Mo23 Te23 2.821760 1_556
Mo23 Te22 2.829845 1_565
Mo23 Te18 2.885408 1_555
Mo23 Te17 2.889168 1_555
