# generated using pymatgen
data_NpPt3
_symmetry_space_group_name_H-M   'P 1'
_cell_length_a   5.77240337
_cell_length_b   5.77023424
_cell_length_c   4.79882917
_cell_angle_alpha   90.11902237
_cell_angle_beta   89.97419015
_cell_angle_gamma   120.04732558
_symmetry_Int_Tables_number   1
_chemical_formula_structural   NpPt3
_chemical_formula_sum   'Np2 Pt6'
_cell_volume   138.35908878
_cell_formula_units_Z   2
loop_
 _symmetry_equiv_pos_site_id
 _symmetry_equiv_pos_as_xyz
  1  'x, y, z'
loop_
 _atom_site_type_symbol
 _atom_site_label
 _atom_site_symmetry_multiplicity
 _atom_site_fract_x
 _atom_site_fract_y
 _atom_site_fract_z
 _atom_site_occupancy
  Np  Np0  1  0.66657499  0.33318402  0.24984450  1
  Np  Np1  1  0.33346192  0.66661679  0.74924769  1
  Pt  Pt0  1  0.83933868  0.16119659  0.74997382  1
  Pt  Pt1  1  0.32104681  0.16068525  0.75015390  1
  Pt  Pt2  1  0.83891703  0.67793666  0.75076494  1
  Pt  Pt3  1  0.16099871  0.83895695  0.25006904  1
  Pt  Pt4  1  0.67858303  0.83917222  0.25003791  1
  Pt  Pt5  1  0.16108584  0.32225752  0.24989620  1
loop_
_geom_bond_atom_site_label_1
_geom_bond_atom_site_label_2
_geom_bond_distance
_geom_bond_site_symmetry_2
Np0 Pt3 2.883613 1_545
Np0 Pt3 2.884694 1_655
Np0 Pt4 2.885585 1_555
Np0 Pt4 2.885897 1_545
Np0 Pt5 2.886602 1_655
Np0 Pt5 2.886834 1_555
Np0 Pt0 2.951724 1_554
Np0 Pt2 2.952766 1_554
Np0 Pt1 2.953850 1_554
Np0 Pt2 2.953957 1_555
Np0 Pt0 2.956811 1_555
Np0 Pt1 2.958159 1_555
Np1 Pt0 2.882815 1_455
Np1 Pt1 2.884139 1_555
Np1 Pt0 2.885485 1_565
Np1 Pt2 2.885551 1_555
Np1 Pt1 2.887435 1_565
Np1 Pt2 2.887978 1_455
Np1 Pt5 2.946699 1_555
Np1 Pt4 2.952687 1_555
Np1 Pt3 2.953259 1_555
Np1 Pt3 2.955577 1_556
Np1 Pt4 2.956944 1_556
Np1 Pt5 2.957738 1_556
Pt0 Pt1 2.782093 1_655
Pt0 Pt2 2.787316 1_545
Pt0 Pt4 2.885532 1_545
Pt0 Pt5 2.886993 1_656
Pt0 Pt5 2.889430 1_655
Pt0 Pt4 2.891761 1_546
Pt0 Pt2 2.982925 1_555
Pt0 Pt1 2.990313 1_555
Pt1 Pt2 2.782325 1_445
Pt1 Pt5 2.885109 1_556
Pt1 Pt3 2.885307 1_545
Pt1 Pt3 2.890347 1_546
Pt1 Pt5 2.891073 1_555
Pt1 Pt2 2.984871 1_555
Pt2 Pt4 2.883341 1_556
Pt2 Pt3 2.885463 1_656
Pt2 Pt3 2.892825 1_655
Pt2 Pt4 2.893042 1_555
Pt3 Pt4 2.785320 1_455
Pt3 Pt5 2.788508 1_565
Pt3 Pt5 2.981727 1_555
Pt3 Pt4 2.987084 1_555
Pt4 Pt5 2.784367 1_665
Pt4 Pt5 2.982827 1_555
