# generated using pymatgen
data_Cd2SO6
_symmetry_space_group_name_H-M   'P 1'
_cell_length_a   4.79698700
_cell_length_b   10.38546760
_cell_length_c   10.12816145
_cell_angle_alpha   89.51363217
_cell_angle_beta   90.00000000
_cell_angle_gamma   90.00000000
_symmetry_Int_Tables_number   1
_chemical_formula_structural   Cd2SO6
_chemical_formula_sum   'Cd8 S4 O24'
_cell_volume   504.55622066
_cell_formula_units_Z   4
loop_
 _symmetry_equiv_pos_site_id
 _symmetry_equiv_pos_as_xyz
  1  'x, y, z'
loop_
 _atom_site_type_symbol
 _atom_site_label
 _atom_site_symmetry_multiplicity
 _atom_site_fract_x
 _atom_site_fract_y
 _atom_site_fract_z
 _atom_site_occupancy
  Cd  Cd0  1  0.51863500  0.50188100  0.81063900  1
  Cd  Cd1  1  0.47439900  0.49618200  0.18455200  1
  Cd  Cd2  1  0.52560100  0.99618200  0.68455200  1
  Cd  Cd3  1  0.48136500  0.00188100  0.31063900  1
  Cd  Cd4  1  0.44414900  0.68448900  0.49652300  1
  Cd  Cd5  1  0.52186300  0.31204000  0.51095300  1
  Cd  Cd6  1  0.47813700  0.81204000  0.01095300  1
  Cd  Cd7  1  0.55585100  0.18448900  0.99652300  1
  S  S0  1  0.99561700  0.75451400  0.75575800  1
  S  S1  1  0.00438300  0.25451400  0.25575800  1
  S  S2  1  0.05332700  0.23730500  0.75010200  1
  S  S3  1  0.94667300  0.73730500  0.25010200  1
  O  O0  1  0.17444900  0.65430600  0.69175000  1
  O  O1  1  0.82458000  0.35406700  0.31845300  1
  O  O2  1  0.17542000  0.85406700  0.81845300  1
  O  O3  1  0.82555100  0.15430600  0.19175000  1
  O  O4  1  0.81494700  0.81557700  0.65376800  1
  O  O5  1  0.17967400  0.19027700  0.35900900  1
  O  O6  1  0.82032600  0.69027700  0.85900900  1
  O  O7  1  0.18505300  0.31557700  0.15376800  1
  O  O8  1  0.64379400  0.10434800  0.49561500  1
  O  O9  1  0.36510900  0.89311900  0.49413700  1
  O  O10  1  0.63489100  0.39311900  0.99413700  1
  O  O11  1  0.35620600  0.60434800  0.99561500  1
  O  O12  1  0.74329700  0.25148200  0.73802600  1
  O  O13  1  0.25670300  0.75148200  0.23802600  1
  O  O14  1  0.63926200  0.99355900  0.90030200  1
  O  O15  1  0.36054000  0.00648600  0.09753100  1
  O  O16  1  0.63946000  0.50648600  0.59753100  1
  O  O17  1  0.36073800  0.49355900  0.40030200  1
  O  O18  1  0.18925700  0.36017200  0.70629200  1
  O  O19  1  0.81074300  0.86017200  0.20629200  1
  O  O20  1  0.14538000  0.13214900  0.66035700  1
  O  O21  1  0.85462000  0.63214900  0.16035700  1
  O  O22  1  0.11951900  0.20704600  0.89023300  1
  O  O23  1  0.88048100  0.70704600  0.39023300  1
loop_
_geom_bond_atom_site_label_1
_geom_bond_atom_site_label_2
_geom_bond_distance
_geom_bond_site_symmetry_2
Cd0 O16 2.234977 1_555
Cd0 O10 2.237241 1_555
Cd0 O11 2.298539 1_555
Cd0 O18 2.409509 1_555
Cd0 O6 2.485738 1_555
Cd0 O0 2.578653 1_555
Cd1 O17 2.252086 1_555
Cd1 O11 2.282256 1_554
Cd1 O21 2.318365 1_555
Cd1 O10 2.343660 1_554
Cd1 O7 2.356222 1_555
Cd1 O1 2.608709 1_555
Cd2 O14 2.252086 1_555
Cd2 O8 2.282256 1_565
Cd2 O20 2.318365 1_565
Cd2 O9 2.343660 1_555
Cd2 O4 2.356222 1_555
Cd2 O2 2.608709 1_555
Cd3 O15 2.234977 1_555
Cd3 O9 2.237241 1_545
Cd3 O8 2.298539 1_555
Cd3 O19 2.409509 1_545
Cd3 O5 2.485738 1_555
Cd3 O3 2.578653 1_555
Cd4 O9 2.199575 1_555
Cd4 O17 2.252669 1_555
Cd4 O16 2.304289 1_555
Cd4 O23 2.364419 1_555
Cd4 O0 2.381428 1_555
Cd5 O8 2.241537 1_555
Cd5 O16 2.279303 1_555
Cd5 O17 2.317608 1_555
Cd5 O1 2.466973 1_555
Cd5 O5 2.587443 1_555
Cd5 O18 2.593544 1_555
Cd5 O12 2.605479 1_555
Cd6 O11 2.241537 1_554
Cd6 O15 2.279303 1_565
Cd6 O14 2.317608 1_554
Cd6 O2 2.466973 1_554
Cd6 O6 2.587443 1_554
Cd6 O19 2.593544 1_555
Cd6 O13 2.605479 1_555
Cd7 O10 2.199575 1_555
Cd7 O14 2.252669 1_545
Cd7 O15 2.304289 1_556
Cd7 O22 2.364419 1_555
Cd7 O3 2.381428 1_556
O0 S0 1.500237 1_455
O1 S1 1.492393 1_655
O2 S0 1.492393 1_455
O3 S1 1.500237 1_655
O4 S0 1.486337 1_555
O5 S1 1.494610 1_555
O6 S0 1.494610 1_555
O7 S1 1.486337 1_555
O12 S2 1.499375 1_655
O13 S3 1.499375 1_455
O18 S2 1.496897 1_555
O19 S3 1.496897 1_555
O20 S2 1.493555 1_555
O21 S3 1.493555 1_555
O22 S2 1.485372 1_555
O23 S3 1.485372 1_555
