# generated using pymatgen
data_Ti3O5
_symmetry_space_group_name_H-M   'P 1'
_cell_length_a   10.85180192
_cell_length_b   10.95892816
_cell_length_c   10.80531815
_cell_angle_alpha   89.58517954
_cell_angle_beta   91.31814453
_cell_angle_gamma   88.47202571
_symmetry_Int_Tables_number   1
_chemical_formula_structural   Ti3O5
_chemical_formula_sum   'Ti39 O65'
_cell_volume   1284.17643167
_cell_formula_units_Z   13
loop_
 _symmetry_equiv_pos_site_id
 _symmetry_equiv_pos_as_xyz
  1  'x, y, z'
loop_
 _atom_site_type_symbol
 _atom_site_label
 _atom_site_symmetry_multiplicity
 _atom_site_fract_x
 _atom_site_fract_y
 _atom_site_fract_z
 _atom_site_occupancy
  Ti  Ti0  1  0.41860700  0.69416200  0.90196400  1
  Ti  Ti1  1  0.69475700  0.66981200  0.55209500  1
  Ti  Ti2  1  0.61583500  0.29418100  0.37937300  1
  Ti  Ti3  1  0.60017700  0.37278600  0.64172700  1
  Ti  Ti4  1  0.22048100  0.59488000  0.07304800  1
  Ti  Ti5  1  0.29414200  0.01851400  0.91733800  1
  Ti  Ti6  1  0.76260400  0.16868500  0.07891200  1
  Ti  Ti7  1  0.82135800  0.14766600  0.55798300  1
  Ti  Ti8  1  0.57855300  0.03908200  0.70112600  1
  Ti  Ti9  1  0.17252500  0.40252300  0.54695000  1
  Ti  Ti10  1  0.92176300  0.69266200  0.08605000  1
  Ti  Ti11  1  0.35096400  0.46181400  0.36466500  1
  Ti  Ti12  1  0.59949000  0.40237700  0.90424800  1
  Ti  Ti13  1  0.06875300  0.90150600  0.18258200  1
  Ti  Ti14  1  0.81437400  0.77569800  0.31927900  1
  Ti  Ti15  1  0.90775200  0.48930100  0.48681400  1
  Ti  Ti16  1  0.56732600  0.92667300  0.46912800  1
  Ti  Ti17  1  0.20874900  0.76161500  0.75490800  1
  Ti  Ti18  1  0.37286400  0.20582100  0.50394300  1
  Ti  Ti19  1  0.91332200  0.79628300  0.67938800  1
  Ti  Ti20  1  0.80860000  0.89527600  0.93050300  1
  Ti  Ti21  1  0.76276000  0.53751300  0.22604700  1
  Ti  Ti22  1  0.08757900  0.94522700  0.44329900  1
  Ti  Ti23  1  0.02951000  0.00002200  0.92750200  1
  Ti  Ti24  1  0.61050300  0.03955200  0.25857700  1
  Ti  Ti25  1  0.67760900  0.66033900  0.99404700  1
  Ti  Ti26  1  0.95784600  0.53330400  0.76276100  1
  Ti  Ti27  1  0.06059200  0.30548100  0.01744800  1
  Ti  Ti28  1  0.53270800  0.95588500  0.95855700  1
  Ti  Ti29  1  0.43134500  0.63398700  0.55433200  1
  Ti  Ti30  1  0.04484500  0.44913000  0.27117000  1
  Ti  Ti31  1  0.39121200  0.22769500  0.75418700  1
  Ti  Ti32  1  0.31681600  0.98044100  0.21608600  1
  Ti  Ti33  1  0.13370100  0.69676500  0.33354100  1
  Ti  Ti34  1  0.26622300  0.99901100  0.63661800  1
  Ti  Ti35  1  0.36128600  0.22758200  0.11079700  1
  Ti  Ti36  1  0.10084600  0.18906600  0.36258800  1
  Ti  Ti37  1  0.85214500  0.26986900  0.86275900  1
  Ti  Ti38  1  0.50152100  0.45593500  0.13367600  1
  O  O0  1  0.85295900  0.05508800  0.99057900  1
  O  O1  1  0.18202400  0.97064700  0.05694300  1
  O  O2  1  0.82841900  0.69196000  0.91489100  1
  O  O3  1  0.84674900  0.17177700  0.71954700  1
  O  O4  1  0.71133500  0.91901100  0.33189500  1
  O  O5  1  0.96470900  0.12633200  0.47473200  1
  O  O6  1  0.66508500  0.95281400  0.83542600  1
  O  O7  1  0.53639400  0.76726900  0.52662300  1
  O  O8  1  0.53481700  0.20316300  0.64340200  1
  O  O9  1  0.56370100  0.58926400  0.87429400  1
  O  O10  1  0.46573300  0.93988800  0.30783700  1
  O  O11  1  0.04775100  0.04382000  0.27367500  1
  O  O12  1  0.07802400  0.29177000  0.20345600  1
  O  O13  1  0.43819300  0.98812500  0.59134300  1
  O  O14  1  0.01852600  0.35293600  0.42611500  1
  O  O15  1  0.40904900  0.04783700  0.07347500  1
  O  O16  1  0.27814100  0.13356800  0.25581600  1
  O  O17  1  0.24186000  0.31113100  0.40942900  1
  O  O18  1  0.23438200  0.23380800  0.00532500  1
  O  O19  1  0.38734200  0.35758400  0.22765100  1
  O  O20  1  0.84609100  0.58993300  0.63399100  1
  O  O21  1  0.48954100  0.31910100  0.02346600  1
  O  O22  1  0.74696900  0.71494500  0.16272400  1
  O  O23  1  0.27098200  0.53666500  0.52207300  1
  O  O24  1  0.27528600  0.30997100  0.64414000  1
  O  O25  1  0.02664900  0.58611600  0.41261800  1
  O  O26  1  0.21111400  0.84306900  0.58061500  1
  O  O27  1  0.70644100  0.18760900  0.25176100  1
  O  O28  1  0.64607600  0.01553200  0.09000100  1
  O  O29  1  0.10133100  0.71084300  0.14748900  1
  O  O30  1  0.20817700  0.53588600  0.26475600  1
  O  O31  1  0.89010500  0.27326300  0.06287700  1
  O  O32  1  0.25415500  0.11336100  0.76972100  1
  O  O33  1  0.21574600  0.86432000  0.30652900  1
  O  O34  1  0.54635700  0.78268400  0.00527100  1
  O  O35  1  0.38680000  0.87283300  0.86871700  1
  O  O36  1  0.73719700  0.30478100  0.51538000  1
  O  O37  1  0.74522700  0.79676900  0.65086900  1
  O  O38  1  0.47240000  0.36141700  0.47718900  1
  O  O39  1  0.43241500  0.60665200  0.37951900  1
  O  O40  1  0.23721200  0.68657800  0.92404800  1
  O  O41  1  0.92731000  0.52385300  0.15846700  1
  O  O42  1  0.04944400  0.68174900  0.74669500  1
  O  O43  1  0.02923900  0.44027600  0.64224700  1
  O  O44  1  0.95361300  0.86386800  0.04317100  1
  O  O45  1  0.72828500  0.38814000  0.76950200  1
  O  O46  1  0.02803900  0.17026200  0.90193700  1
  O  O47  1  0.77662400  0.61327300  0.39941200  1
  O  O48  1  0.69018700  0.24335700  0.93822100  1
  O  O49  1  0.95797700  0.41066100  0.88550700  1
  O  O50  1  0.36445900  0.67656400  0.72079200  1
  O  O51  1  0.39950800  0.58367800  0.06768800  1
  O  O52  1  0.67365700  0.49289800  0.06181000  1
  O  O53  1  0.47016100  0.09044600  0.84970100  1
  O  O54  1  0.21172000  0.08830000  0.49266800  1
  O  O55  1  0.62286400  0.43514800  0.27914000  1
  O  O56  1  0.47733400  0.37999800  0.78031700  1
  O  O57  1  0.16271000  0.91954800  0.81650700  1
  O  O58  1  0.92303300  0.91531200  0.80128800  1
  O  O59  1  0.14468300  0.46301700  0.02745800  1
  O  O60  1  0.69151300  0.02946400  0.55620400  1
  O  O61  1  0.51861600  0.15058700  0.38321100  1
  O  O62  1  0.98651300  0.82008500  0.33157300  1
  O  O63  1  0.57835300  0.54379200  0.59898100  1
  O  O64  1  0.96954300  0.88216900  0.55650500  1
loop_
_geom_bond_atom_site_label_1
_geom_bond_atom_site_label_2
_geom_bond_distance
_geom_bond_site_symmetry_2
O0 Ti6 1.848610 1_556
O0 Ti20 1.940990 1_545
O0 Ti23 2.122201 1_655
O1 Ti13 2.009873 1_555
O1 Ti5 2.034210 1_564
O1 Ti23 2.158152 1_564
O1 Ti32 2.236835 1_555
O2 Ti25 1.902712 1_555
O2 Ti10 2.088287 1_556
O2 Ti20 2.240717 1_555
O3 Ti7 1.783764 1_555
O3 Ti37 1.891269 1_555
O4 Ti24 1.854139 1_565
O4 Ti14 1.911013 1_555
O4 Ti16 2.179338 1_555
O5 Ti7 1.825331 1_555
O5 Ti36 2.061060 1_655
O5 Ti22 2.392023 1_645
O6 Ti20 1.934720 1_555
O6 Ti8 1.936881 1_565
O6 Ti28 1.980126 1_555
O7 Ti16 1.890880 1_555
O7 Ti29 1.902835 1_555
O7 Ti1 2.011430 1_555
O8 Ti8 1.942233 1_555
O8 Ti31 2.000479 1_555
O8 Ti3 2.007305 1_555
O8 Ti18 2.288039 1_555
O9 Ti25 1.949708 1_555
O9 Ti0 1.954522 1_555
O9 Ti12 2.095812 1_555
O10 Ti32 1.916638 1_555
O10 Ti24 2.016404 1_565
O10 Ti16 2.042839 1_555
O11 Ti13 1.861918 1_545
O11 Ti36 1.958114 1_555
O11 Ti22 2.150234 1_545
O12 Ti30 1.906868 1_555
O12 Ti27 2.018559 1_555
O12 Ti36 2.054811 1_555
O13 Ti34 1.940922 1_555
O13 Ti8 2.002711 1_565
O13 Ti16 2.051547 1_555
O13 Ti18 2.632958 1_565
O14 Ti30 2.002104 1_555
O14 Ti15 2.015724 1_455
O14 Ti36 2.110629 1_555
O14 Ti9 2.179718 1_555
O15 Ti32 2.003935 1_545
O15 Ti35 2.068360 1_555
O15 Ti28 2.093025 1_544
O15 Ti5 2.106399 1_554
O16 Ti32 1.776976 1_545
O16 Ti35 2.102917 1_555
O16 Ti36 2.335055 1_555
O17 Ti9 1.951951 1_555
O17 Ti18 2.055369 1_555
O17 Ti36 2.114388 1_555
O17 Ti11 2.116996 1_555
O18 Ti35 1.766816 1_555
O18 Ti27 2.030939 1_555
O18 Ti5 2.621148 1_554
O19 Ti11 1.918260 1_555
O19 Ti35 1.932627 1_555
O19 Ti38 1.959922 1_555
O20 Ti26 1.913532 1_555
O20 Ti1 2.022771 1_555
O20 Ti15 2.056206 1_555
O20 Ti19 2.444238 1_555
O21 Ti38 1.926870 1_555
O21 Ti35 1.988625 1_555
O21 Ti12 2.006901 1_554
O22 Ti14 1.955829 1_555
O22 Ti25 2.055052 1_554
O22 Ti21 2.058165 1_555
O22 Ti10 2.096310 1_555
O23 Ti9 1.861752 1_555
O23 Ti29 2.088987 1_555
O23 Ti11 2.090269 1_555
O24 Ti9 1.801533 1_555
O24 Ti31 1.914332 1_555
O24 Ti18 2.180187 1_555
O25 Ti15 1.881875 1_455
O25 Ti33 1.912022 1_555
O25 Ti30 2.158687 1_555
O26 Ti34 1.922807 1_555
O26 Ti17 2.079271 1_555
O26 Ti22 2.248646 1_555
O27 Ti24 1.952909 1_555
O27 Ti6 1.988457 1_555
O27 Ti2 2.063146 1_555
O28 Ti24 1.889474 1_555
O28 Ti28 1.983422 1_544
O28 Ti6 2.132525 1_555
O29 Ti4 1.977082 1_555
O29 Ti33 2.036869 1_555
O29 Ti10 2.059297 1_455
O29 Ti13 2.147759 1_555
O30 Ti11 2.017071 1_555
O30 Ti30 2.035895 1_555
O30 Ti33 2.069928 1_555
O30 Ti4 2.173640 1_555
O31 Ti6 1.830462 1_555
O31 Ti27 1.965341 1_655
O31 Ti37 2.192666 1_554
O32 Ti34 1.918862 1_545
O32 Ti5 1.932089 1_555
O32 Ti31 1.979409 1_555
O33 Ti32 1.970572 1_555
O33 Ti33 2.083503 1_555
O33 Ti13 2.088868 1_555
O33 Ti22 2.225398 1_555
O34 Ti25 1.936368 1_554
O34 Ti28 1.961425 1_554
O34 Ti0 2.031068 1_554
O35 Ti5 1.945951 1_565
O35 Ti0 2.007534 1_555
O35 Ti28 2.072854 1_555
O36 Ti2 1.956854 1_555
O36 Ti7 1.973824 1_555
O36 Ti3 2.163142 1_555
O36 Ti15 2.797631 1_555
O37 Ti19 1.842837 1_555
O37 Ti1 1.846634 1_555
O38 Ti2 2.026972 1_555
O38 Ti11 2.062773 1_555
O38 Ti18 2.064782 1_555
O38 Ti3 2.235641 1_555
O39 Ti11 1.843483 1_555
O39 Ti29 1.914907 1_555
O40 Ti4 1.906473 1_556
O40 Ti0 1.992170 1_555
O40 Ti17 2.012587 1_555
O41 Ti30 1.907564 1_655
O41 Ti21 1.947190 1_555
O41 Ti10 2.002303 1_555
O42 Ti26 1.937715 1_455
O42 Ti17 1.958891 1_555
O42 Ti19 2.030981 1_455
O43 Ti26 1.832703 1_455
O43 Ti9 1.922176 1_555
O43 Ti15 2.166732 1_455
O44 Ti10 1.970722 1_555
O44 Ti13 1.987559 1_655
O44 Ti20 1.988430 1_554
O44 Ti23 2.133709 1_664
O45 Ti3 1.947999 1_555
O45 Ti12 2.045222 1_555
O45 Ti37 2.080342 1_555
O46 Ti23 1.883601 1_555
O46 Ti27 1.978114 1_556
O46 Ti37 2.204354 1_455
O47 Ti1 1.986921 1_555
O47 Ti14 2.029492 1_555
O47 Ti21 2.058466 1_555
O47 Ti15 2.139871 1_555
O48 Ti6 1.868420 1_556
O48 Ti37 1.981905 1_555
O48 Ti12 2.005757 1_555
O49 Ti26 1.881364 1_555
O49 Ti37 1.961385 1_555
O49 Ti27 2.106150 1_656
O50 Ti17 1.951790 1_555
O50 Ti29 2.008446 1_555
O50 Ti0 2.042875 1_555
O51 Ti38 1.886870 1_555
O51 Ti4 1.945591 1_555
O51 Ti0 2.171320 1_554
O52 Ti25 1.972631 1_554
O52 Ti21 2.069337 1_555
O52 Ti38 2.087822 1_555
O52 Ti12 2.129411 1_554
O53 Ti28 1.975741 1_545
O53 Ti31 1.982319 1_555
O53 Ti8 2.083836 1_555
O53 Ti5 2.222678 1_555
O54 Ti34 1.905630 1_545
O54 Ti36 2.114604 1_555
O54 Ti22 2.156265 1_545
O54 Ti18 2.200927 1_555
O55 Ti2 1.884470 1_555
O55 Ti21 2.003459 1_555
O55 Ti38 2.034683 1_555
O56 Ti12 1.884422 1_555
O56 Ti31 1.953675 1_555
O56 Ti3 2.028248 1_555
O57 Ti17 1.916788 1_555
O57 Ti23 2.081494 1_565
O57 Ti5 2.103729 1_565
O57 Ti34 2.434432 1_555
O58 Ti19 1.863706 1_555
O58 Ti20 1.905141 1_555
O58 Ti23 2.014905 1_665
O59 Ti4 1.750015 1_555
O59 Ti27 1.976652 1_555
O60 Ti7 1.939131 1_555
O60 Ti16 2.002088 1_545
O60 Ti8 2.012384 1_555
O61 Ti2 1.918511 1_555
O61 Ti24 2.075905 1_555
O61 Ti18 2.150635 1_555
O62 Ti14 1.944668 1_555
O62 Ti33 2.064221 1_655
O62 Ti13 2.066925 1_655
O62 Ti22 2.141108 1_655
O63 Ti29 1.904822 1_555
O63 Ti3 1.933966 1_555
O63 Ti1 1.967727 1_555
O64 Ti19 1.752409 1_555
O64 Ti22 1.929144 1_655
