# generated using pymatgen
data_InPd3
_symmetry_space_group_name_H-M   'P 1'
_cell_length_a   6.04223183
_cell_length_b   6.04223183
_cell_length_c   17.69155698
_cell_angle_alpha   80.09777050
_cell_angle_beta   90.13880885
_cell_angle_gamma   120.23684816
_symmetry_Int_Tables_number   1
_chemical_formula_structural   InPd3
_chemical_formula_sum   'In8 Pd24'
_cell_volume   547.01199642
_cell_formula_units_Z   8
loop_
 _symmetry_equiv_pos_site_id
 _symmetry_equiv_pos_as_xyz
  1  'x, y, z'
loop_
 _atom_site_type_symbol
 _atom_site_label
 _atom_site_symmetry_multiplicity
 _atom_site_fract_x
 _atom_site_fract_y
 _atom_site_fract_z
 _atom_site_occupancy
  In  In0_0  1  0.00000000  0.00000000  0.00000000  1
  In  In0_1  1  1.00000000  0.00000000  0.50000000  1
  In  In0_2  1  1.00000000  0.50000000  0.00000000  1
  In  In0_3  1  1.00000000  0.50000000  0.50000000  1
  In  In0_4  1  0.50000000  0.00000000  0.00000000  1
  In  In0_5  1  0.50000000  0.00000000  0.50000000  1
  In  In0_6  1  0.50000000  0.50000000  0.00000000  1
  In  In0_7  1  0.50000000  0.50000000  0.50000000  1
  Pd  Pd0_0  1  0.12545100  0.25185250  0.12269600  1
  Pd  Pd0_1  1  0.12545100  0.25185250  0.62269600  1
  Pd  Pd0_2  1  0.12545100  0.75185250  0.12269600  1
  Pd  Pd0_3  1  0.12545100  0.75185250  0.62269600  1
  Pd  Pd0_4  1  0.62545100  0.25185250  0.12269600  1
  Pd  Pd0_5  1  0.62545100  0.25185250  0.62269600  1
  Pd  Pd0_6  1  0.62545100  0.75185250  0.12269600  1
  Pd  Pd0_7  1  0.62545100  0.75185250  0.62269600  1
  Pd  Pd1_0  1  0.25000000  0.00000000  0.25000000  1
  Pd  Pd1_1  1  0.25000000  0.00000000  0.75000000  1
  Pd  Pd1_2  1  0.25000000  0.50000000  0.25000000  1
  Pd  Pd1_3  1  0.25000000  0.50000000  0.75000000  1
  Pd  Pd1_4  1  0.75000000  0.00000000  0.25000000  1
  Pd  Pd1_5  1  0.75000000  0.00000000  0.75000000  1
  Pd  Pd1_6  1  0.75000000  0.50000000  0.25000000  1
  Pd  Pd1_7  1  0.75000000  0.50000000  0.75000000  1
  Pd  Pd2_0  1  0.37454900  0.24814750  0.37730400  1
  Pd  Pd2_1  1  0.37454900  0.24814750  0.87730400  1
  Pd  Pd2_2  1  0.37454900  0.74814750  0.37730400  1
  Pd  Pd2_3  1  0.37454900  0.74814750  0.87730400  1
  Pd  Pd2_4  1  0.87454900  0.24814750  0.37730400  1
  Pd  Pd2_5  1  0.87454900  0.24814750  0.87730400  1
  Pd  Pd2_6  1  0.87454900  0.74814750  0.37730400  1
  Pd  Pd2_7  1  0.87454900  0.74814750  0.87730400  1
loop_
_geom_bond_atom_site_label_1
_geom_bond_atom_site_label_2
_geom_bond_distance
_geom_bond_site_symmetry_2
In0_0 Pd0_2 2.748058 1_545
In0_0 Pd2_5 2.748058 1_454
In0_0 Pd2_7 2.751099 1_444
In0_0 Pd0_0 2.751099 1_555
In0_0 Pd2_1 2.751101 1_554
In0_0 Pd0_6 2.751101 1_445
In0_0 In0_6 3.010294 1_555
In0_0 In0_6 3.010294 1_445
In0_0 In0_2 3.021116 1_445
In0_0 In0_2 3.021116 1_455
In0_0 In0_4 3.021116 1_455
In0_0 In0_4 3.021116 1_555
In0_1 Pd0_3 2.748058 1_645
In0_1 Pd2_4 2.748058 1_555
In0_1 Pd2_6 2.751099 1_545
In0_1 Pd0_1 2.751099 1_655
In0_1 Pd2_0 2.751101 1_655
In0_1 Pd0_7 2.751101 1_545
In0_1 In0_7 3.010294 1_545
In0_1 In0_7 3.010294 1_655
In0_1 In0_5 3.021116 1_655
In0_1 In0_3 3.021116 1_545
In0_1 In0_5 3.021116 1_555
In0_1 In0_3 3.021116 1_555
In0_2 Pd0_0 2.748058 1_655
In0_2 Pd2_7 2.748058 1_554
In0_2 Pd2_5 2.751099 1_554
In0_2 Pd0_2 2.751099 1_655
In0_2 Pd2_3 2.751101 1_654
In0_2 Pd0_4 2.751101 1_555
In0_2 In0_4 3.010294 1_555
In0_2 In0_4 3.010294 1_665
In0_2 In0_6 3.021116 1_555
In0_2 In0_6 3.021116 1_655
In0_3 Pd2_6 2.748058 1_555
In0_3 Pd0_1 2.748058 1_655
In0_3 Pd0_3 2.751099 1_655
In0_3 Pd2_4 2.751099 1_555
In0_3 Pd2_2 2.751101 1_655
In0_3 Pd0_5 2.751101 1_555
In0_3 In0_5 3.010294 1_665
In0_3 In0_5 3.010294 1_555
In0_3 In0_7 3.021116 1_555
In0_3 In0_7 3.021116 1_655
In0_4 Pd0_6 2.748058 1_545
In0_4 Pd2_1 2.748058 1_554
In0_4 Pd2_3 2.751099 1_544
In0_4 Pd0_4 2.751099 1_555
In0_4 Pd2_5 2.751101 1_554
In0_4 Pd0_2 2.751101 1_545
In0_4 In0_6 3.021116 1_545
In0_4 In0_6 3.021116 1_555
In0_5 Pd0_7 2.748058 1_545
In0_5 Pd2_0 2.748058 1_555
In0_5 Pd0_5 2.751099 1_555
In0_5 Pd2_2 2.751099 1_545
In0_5 Pd2_4 2.751101 1_555
In0_5 Pd0_3 2.751101 1_545
In0_5 In0_7 3.021116 1_545
In0_5 In0_7 3.021116 1_555
In0_6 Pd0_4 2.748058 1_555
In0_6 Pd2_3 2.748058 1_554
In0_6 Pd0_6 2.751099 1_555
In0_6 Pd2_1 2.751099 1_554
In0_6 Pd2_7 2.751101 1_554
In0_6 Pd0_0 2.751101 1_555
In0_7 Pd0_5 2.748058 1_555
In0_7 Pd2_2 2.748058 1_555
In0_7 Pd0_7 2.751099 1_555
In0_7 Pd2_0 2.751099 1_555
In0_7 Pd2_6 2.751101 1_555
In0_7 Pd0_1 2.751101 1_555
Pd0_0 Pd1_4 2.811342 1_455
Pd0_0 Pd1_2 2.811344 1_555
Pd0_0 Pd1_0 2.814410 1_555
Pd0_0 Pd0_6 3.010294 1_445
Pd0_0 Pd0_6 3.010294 1_555
Pd0_0 Pd0_2 3.021116 1_545
Pd0_0 Pd0_4 3.021116 1_555
Pd0_0 Pd0_4 3.021116 1_455
Pd0_0 Pd0_2 3.021116 1_555
Pd0_1 Pd1_5 2.811342 1_455
Pd0_1 Pd1_3 2.811344 1_555
Pd0_1 Pd1_1 2.814410 1_555
Pd0_1 Pd0_7 3.010294 1_555
Pd0_1 Pd0_7 3.010294 1_445
Pd0_1 Pd0_3 3.021116 1_545
Pd0_1 Pd0_5 3.021116 1_555
Pd0_1 Pd0_3 3.021116 1_555
Pd0_1 Pd0_5 3.021116 1_455
Pd0_2 Pd1_6 2.811342 1_455
Pd0_2 Pd1_0 2.811344 1_565
Pd0_2 Pd1_2 2.814410 1_555
Pd0_2 Pd0_4 3.010294 1_565
Pd0_2 Pd0_4 3.010294 1_455
Pd0_2 Pd0_6 3.021116 1_455
Pd0_2 Pd0_6 3.021116 1_555
Pd0_3 Pd1_7 2.811342 1_455
Pd0_3 Pd1_1 2.811344 1_565
Pd0_3 Pd1_3 2.814410 1_555
Pd0_3 Pd0_5 3.010294 1_455
Pd0_3 Pd0_5 3.010294 1_565
Pd0_3 Pd0_7 3.021116 1_455
Pd0_3 Pd0_7 3.021116 1_555
Pd0_4 Pd1_0 2.811342 1_555
Pd0_4 Pd1_6 2.811344 1_555
Pd0_4 Pd1_4 2.814410 1_555
Pd0_4 Pd0_6 3.021116 1_555
Pd0_4 Pd0_6 3.021116 1_545
Pd0_5 Pd1_1 2.811342 1_555
Pd0_5 Pd1_7 2.811344 1_555
Pd0_5 Pd1_5 2.814410 1_555
Pd0_5 Pd0_7 3.021116 1_545
Pd0_5 Pd0_7 3.021116 1_555
Pd0_6 Pd1_2 2.811342 1_555
Pd0_6 Pd1_4 2.811344 1_565
Pd0_6 Pd1_6 2.814410 1_555
Pd0_7 Pd1_3 2.811342 1_555
Pd0_7 Pd1_5 2.811344 1_565
Pd0_7 Pd1_7 2.814410 1_555
Pd1_0 Pd2_6 2.811342 1_445
Pd1_0 Pd2_0 2.811344 1_555
Pd1_0 Pd2_2 2.814410 1_545
Pd1_0 Pd1_6 3.010294 1_555
Pd1_0 Pd1_6 3.010294 1_445
Pd1_0 Pd1_4 3.021116 1_455
Pd1_0 Pd1_2 3.021116 1_545
Pd1_0 Pd1_2 3.021116 1_555
Pd1_0 Pd1_4 3.021116 1_555
Pd1_1 Pd2_7 2.811342 1_445
Pd1_1 Pd2_1 2.811344 1_555
Pd1_1 Pd2_3 2.814410 1_545
Pd1_1 Pd1_7 3.010294 1_555
Pd1_1 Pd1_7 3.010294 1_445
Pd1_1 Pd1_5 3.021116 1_555
Pd1_1 Pd1_3 3.021116 1_545
Pd1_1 Pd1_3 3.021116 1_555
Pd1_1 Pd1_5 3.021116 1_455
Pd1_2 Pd2_4 2.811342 1_455
Pd1_2 Pd2_2 2.811344 1_555
Pd1_2 Pd2_0 2.814410 1_555
Pd1_2 Pd1_4 3.010294 1_455
Pd1_2 Pd1_4 3.010294 1_565
Pd1_2 Pd1_6 3.021116 1_555
Pd1_2 Pd1_6 3.021116 1_455
Pd1_3 Pd2_5 2.811342 1_455
Pd1_3 Pd2_3 2.811344 1_555
Pd1_3 Pd2_1 2.814410 1_555
Pd1_3 Pd1_5 3.010294 1_565
Pd1_3 Pd1_5 3.010294 1_455
Pd1_3 Pd1_7 3.021116 1_555
Pd1_3 Pd1_7 3.021116 1_455
Pd1_4 Pd2_2 2.811342 1_545
Pd1_4 Pd2_4 2.811344 1_555
Pd1_4 Pd2_6 2.814410 1_545
Pd1_4 Pd1_6 3.021116 1_545
Pd1_4 Pd1_6 3.021116 1_555
Pd1_5 Pd2_3 2.811342 1_545
Pd1_5 Pd2_5 2.811344 1_555
Pd1_5 Pd2_7 2.814410 1_545
Pd1_5 Pd1_7 3.021116 1_555
Pd1_5 Pd1_7 3.021116 1_545
Pd1_6 Pd2_0 2.811342 1_555
Pd1_6 Pd2_6 2.811344 1_555
Pd1_6 Pd2_4 2.814410 1_555
Pd1_7 Pd2_1 2.811342 1_555
Pd1_7 Pd2_7 2.811344 1_555
Pd1_7 Pd2_5 2.814410 1_555
Pd2_0 Pd2_6 3.010294 1_445
Pd2_0 Pd2_6 3.010294 1_555
Pd2_0 Pd2_4 3.021116 1_555
Pd2_0 Pd2_2 3.021116 1_555
Pd2_0 Pd2_2 3.021116 1_545
Pd2_0 Pd2_4 3.021116 1_455
Pd2_1 Pd2_7 3.010294 1_445
Pd2_1 Pd2_7 3.010294 1_555
Pd2_1 Pd2_5 3.021116 1_455
Pd2_1 Pd2_3 3.021116 1_545
Pd2_1 Pd2_3 3.021116 1_555
Pd2_1 Pd2_5 3.021116 1_555
Pd2_2 Pd2_4 3.010294 1_565
Pd2_2 Pd2_4 3.010294 1_455
Pd2_2 Pd2_6 3.021116 1_455
Pd2_2 Pd2_6 3.021116 1_555
Pd2_3 Pd2_5 3.010294 1_565
Pd2_3 Pd2_5 3.010294 1_455
Pd2_3 Pd2_7 3.021116 1_555
Pd2_3 Pd2_7 3.021116 1_455
Pd2_4 Pd2_6 3.021116 1_545
Pd2_4 Pd2_6 3.021116 1_555
Pd2_5 Pd2_7 3.021116 1_545
Pd2_5 Pd2_7 3.021116 1_555
