# generated using pymatgen
data_NaTb3
_symmetry_space_group_name_H-M   'P 1'
_cell_length_a   5.64425926
_cell_length_b   5.64425926
_cell_length_c   5.64425926
_cell_angle_alpha   60.00000000
_cell_angle_beta   60.00000000
_cell_angle_gamma   60.00000000
_symmetry_Int_Tables_number   1
_chemical_formula_structural   NaTb3
_chemical_formula_sum   'Na1 Tb3'
_cell_volume   127.14692619
_cell_formula_units_Z   1
loop_
 _symmetry_equiv_pos_site_id
 _symmetry_equiv_pos_as_xyz
  1  'x, y, z'
loop_
 _atom_site_type_symbol
 _atom_site_label
 _atom_site_symmetry_multiplicity
 _atom_site_fract_x
 _atom_site_fract_y
 _atom_site_fract_z
 _atom_site_occupancy
  Na  Na0  1  0.00000000  0.00000000  0.00000000  1
  Tb  Tb0  1  0.25000000  0.25000000  0.25000000  1
  Tb  Tb1  1  0.75000000  0.75000000  0.75000000  1
  Tb  Tb2  1  0.50000000  0.50000000  0.50000000  1
loop_
_geom_bond_atom_site_label_1
_geom_bond_atom_site_label_2
_geom_bond_distance
_geom_bond_site_symmetry_2
Na0 Tb1 3.456389 1_544
Na0 Tb0 3.456389 1_455
Na0 Tb1 3.456389 1_444
Na0 Tb0 3.456389 1_554
Na0 Tb0 3.456389 1_555
Na0 Tb1 3.456389 1_454
Na0 Tb0 3.456389 1_545
Na0 Tb1 3.456389 1_445
Tb0 Tb2 3.456389 1_555
Tb0 Tb2 3.456389 1_554
Tb0 Tb2 3.456389 1_455
Tb0 Tb2 3.456389 1_545
Tb1 Tb2 3.456389 1_655
Tb1 Tb2 3.456389 1_556
Tb1 Tb2 3.456389 1_555
Tb1 Tb2 3.456389 1_565
