# generated using pymatgen
data_KRuO4
_symmetry_space_group_name_H-M   'P 1'
_cell_length_a   5.62872765
_cell_length_b   5.62841382
_cell_length_c   7.46443349
_cell_angle_alpha   112.14019232
_cell_angle_beta   112.14043477
_cell_angle_gamma   90.01067177
_symmetry_Int_Tables_number   1
_chemical_formula_structural   KRuO4
_chemical_formula_sum   'K2 Ru2 O8'
_cell_volume   200.08382398
_cell_formula_units_Z   2
loop_
 _symmetry_equiv_pos_site_id
 _symmetry_equiv_pos_as_xyz
  1  'x, y, z'
loop_
 _atom_site_type_symbol
 _atom_site_label
 _atom_site_symmetry_multiplicity
 _atom_site_fract_x
 _atom_site_fract_y
 _atom_site_fract_z
 _atom_site_occupancy
  K  K0  1  0.62497029  0.87518983  0.25030659  1
  K  K1  1  0.37515048  0.12506674  0.75036642  1
  Ru  Ru0  1  0.12512658  0.37532149  0.25032922  1
  Ru  Ru1  1  0.87528966  0.62503732  0.75042312  1
  O  O0  1  0.27423024  0.42292655  0.09912536  1
  O  O1  1  0.67649835  0.77418165  0.59931005  1
  O  O2  1  0.92291353  0.32477601  0.59927396  1
  O  O3  1  0.82482636  0.17654662  0.09927791  1
  O  O4  1  0.17688093  0.82131883  0.90032577  1
  O  O5  1  0.07894948  0.67694259  0.40029080  1
  O  O6  1  0.32134378  0.22380734  0.40040214  1
  O  O7  1  0.72382032  0.57888702  0.90056865  1
loop_
_geom_bond_atom_site_label_1
_geom_bond_atom_site_label_2
_geom_bond_distance
_geom_bond_site_symmetry_2
K0 O4 2.777441 1_554
K0 O7 2.778426 1_554
K0 O2 2.781778 1_565
K0 O1 2.782233 1_555
K0 O0 2.793630 1_555
K0 O3 2.794606 1_565
K0 O6 2.795285 1_565
K0 O5 2.795429 1_655
K1 O5 2.777838 1_545
K1 O6 2.778960 1_555
K1 O3 2.781292 1_556
K1 O0 2.781323 1_556
K1 O4 2.793664 1_545
K1 O2 2.794241 1_455
K1 O1 2.795210 1_545
K1 O7 2.795369 1_555
O0 Ru0 1.729697 1_555
O1 Ru1 1.729663 1_555
O2 Ru1 1.729686 1_555
O3 Ru0 1.729755 1_655
O4 Ru1 1.729183 1_455
O5 Ru0 1.729071 1_555
O6 Ru0 1.729095 1_555
O7 Ru1 1.729171 1_555
