# generated using pymatgen
data_CaCu2F8
_symmetry_space_group_name_H-M   'P 1'
_cell_length_a   6.33907159
_cell_length_b   6.33907159
_cell_length_c   6.33907159
_cell_angle_alpha   130.48881524
_cell_angle_beta   130.48881524
_cell_angle_gamma   72.62651318
_symmetry_Int_Tables_number   1
_chemical_formula_structural   CaCu2F8
_chemical_formula_sum   'Ca1 Cu2 F8'
_cell_volume   143.96794240
_cell_formula_units_Z   1
loop_
 _symmetry_equiv_pos_site_id
 _symmetry_equiv_pos_as_xyz
  1  'x, y, z'
loop_
 _atom_site_type_symbol
 _atom_site_label
 _atom_site_symmetry_multiplicity
 _atom_site_fract_x
 _atom_site_fract_y
 _atom_site_fract_z
 _atom_site_occupancy
  Ca  Ca0  1  -0.00000000  -0.00000000  -0.00000000  1
  Cu  Cu0  1  0.75000000  0.25000000  0.50000000  1
  Cu  Cu1  1  0.25000000  0.75000000  0.50000000  1
  F  F0  1  0.70719297  0.19648750  0.16361604  1
  F  F1  1  0.45642308  0.96712954  0.16361604  1
  F  F2  1  0.80351350  0.29280703  0.83638396  1
  F  F3  1  0.29280703  0.45642308  0.48929353  1
  F  F4  1  0.03287046  0.54357692  0.83638396  1
  F  F5  1  0.54357692  0.70719297  0.51070647  1
  F  F6  1  0.19648750  0.03287046  0.48929353  1
  F  F7  1  0.96712954  0.80351350  0.51070647  1
loop_
_geom_bond_atom_site_label_1
_geom_bond_atom_site_label_2
_geom_bond_distance
_geom_bond_site_symmetry_2
Ca0 F6 2.348195 1_555
Ca0 F7 2.348197 1_444
Ca0 F2 2.348197 1_454
Ca0 F5 2.348197 1_444
Ca0 F3 2.348197 1_555
Ca0 F0 2.348197 1_455
Ca0 F4 2.348197 1_544
Ca0 F1 2.348197 1_545
Cu0 F1 1.760652 1_545
Cu0 F4 1.760652 1_655
Cu0 F2 1.760652 1_555
Cu0 F0 1.760655 1_555
Cu1 F3 1.760652 1_555
Cu1 F5 1.760652 1_555
Cu1 F7 1.760652 1_455
Cu1 F6 1.760653 1_565
