# generated using pymatgen
data_Ba6Sn6Se13
_symmetry_space_group_name_H-M   'P 1'
_cell_length_a   9.39368400
_cell_length_b   12.67784700
_cell_length_c   27.45461100
_cell_angle_alpha   90.00000000
_cell_angle_beta   90.00000000
_cell_angle_gamma   90.00000000
_symmetry_Int_Tables_number   1
_chemical_formula_structural   Ba6Sn6Se13
_chemical_formula_sum   'Ba24 Sn24 Se52'
_cell_volume   3269.61598160
_cell_formula_units_Z   4
loop_
 _symmetry_equiv_pos_site_id
 _symmetry_equiv_pos_as_xyz
  1  'x, y, z'
loop_
 _atom_site_type_symbol
 _atom_site_label
 _atom_site_symmetry_multiplicity
 _atom_site_fract_x
 _atom_site_fract_y
 _atom_site_fract_z
 _atom_site_occupancy
  Ba  Ba0  1  0.50758400  0.40354800  0.29370800  1
  Ba  Ba1  1  0.99241600  0.59645200  0.79370800  1
  Ba  Ba2  1  0.00758400  0.09645200  0.70629200  1
  Ba  Ba3  1  0.49241600  0.90354800  0.20629200  1
  Ba  Ba4  1  0.00161900  0.41581300  0.29391400  1
  Ba  Ba5  1  0.49838100  0.58418700  0.79391400  1
  Ba  Ba6  1  0.50161900  0.08418700  0.70608600  1
  Ba  Ba7  1  0.99838100  0.91581300  0.20608600  1
  Ba  Ba8  1  0.49054600  0.92104900  0.37285400  1
  Ba  Ba9  1  0.00945400  0.07895100  0.87285400  1
  Ba  Ba10  1  0.99054600  0.57895100  0.62714600  1
  Ba  Ba11  1  0.50945400  0.42104900  0.12714600  1
  Ba  Ba12  1  0.99933700  0.90645800  0.37210100  1
  Ba  Ba13  1  0.50066300  0.09354200  0.87210100  1
  Ba  Ba14  1  0.49933700  0.59354200  0.62789900  1
  Ba  Ba15  1  0.00066300  0.40645800  0.12789900  1
  Ba  Ba16  1  0.00216900  0.43325100  0.46426500  1
  Ba  Ba17  1  0.49783100  0.56674900  0.96426500  1
  Ba  Ba18  1  0.50216900  0.06674900  0.53573500  1
  Ba  Ba19  1  0.99783100  0.93325100  0.03573500  1
  Ba  Ba20  1  0.50145500  0.42962600  0.46303300  1
  Ba  Ba21  1  0.99854500  0.57037400  0.96303300  1
  Ba  Ba22  1  0.00145500  0.07037400  0.53696700  1
  Ba  Ba23  1  0.49854500  0.92962600  0.03696700  1
  Sn  Sn0  1  0.24554200  0.16674100  0.27992100  1
  Sn  Sn1  1  0.25445800  0.83325900  0.77992100  1
  Sn  Sn2  1  0.74554200  0.33325900  0.72007900  1
  Sn  Sn3  1  0.75445800  0.66674100  0.22007900  1
  Sn  Sn4  1  0.25423100  0.65723300  0.36722300  1
  Sn  Sn5  1  0.24576900  0.34276700  0.86722300  1
  Sn  Sn6  1  0.75423100  0.84276700  0.63277700  1
  Sn  Sn7  1  0.74576900  0.15723300  0.13277700  1
  Sn  Sn8  1  0.77404500  0.16858800  0.28417700  1
  Sn  Sn9  1  0.72595500  0.83141200  0.78417700  1
  Sn  Sn10  1  0.27404500  0.33141200  0.71582300  1
  Sn  Sn11  1  0.22595500  0.66858800  0.21582300  1
  Sn  Sn12  1  0.72453300  0.67437900  0.36624800  1
  Sn  Sn13  1  0.77546700  0.32562100  0.86624800  1
  Sn  Sn14  1  0.22453300  0.82562100  0.63375200  1
  Sn  Sn15  1  0.27546700  0.17437900  0.13375200  1
  Sn  Sn16  1  0.24121700  0.77136900  0.49731700  1
  Sn  Sn17  1  0.25878300  0.22863100  0.99731700  1
  Sn  Sn18  1  0.74121700  0.72863100  0.50268300  1
  Sn  Sn19  1  0.75878300  0.27136900  0.00268300  1
  Sn  Sn20  1  0.74325900  0.16083500  0.41990900  1
  Sn  Sn21  1  0.75674100  0.83916500  0.91990900  1
  Sn  Sn22  1  0.24325900  0.33916500  0.58009100  1
  Sn  Sn23  1  0.25674100  0.66083500  0.08009100  1
  Se  Se0  1  0.01173800  0.18423800  0.21698100  1
  Se  Se1  1  0.48826200  0.81576200  0.71698100  1
  Se  Se2  1  0.51173800  0.31576200  0.78301900  1
  Se  Se3  1  0.98826200  0.68423800  0.28301900  1
  Se  Se4  1  0.25198800  0.46117900  0.21094600  1
  Se  Se5  1  0.24801200  0.53882100  0.71094600  1
  Se  Se6  1  0.75198800  0.03882100  0.78905400  1
  Se  Se7  1  0.74801200  0.96117900  0.28905400  1
  Se  Se8  1  0.75403200  0.45801200  0.21111700  1
  Se  Se9  1  0.74596800  0.54198800  0.71111700  1
  Se  Se10  1  0.25403200  0.04198800  0.78888300  1
  Se  Se11  1  0.24596800  0.95801200  0.28888300  1
  Se  Se12  1  0.48494800  0.68858000  0.43379000  1
  Se  Se13  1  0.01505200  0.31142000  0.93379000  1
  Se  Se14  1  0.98494800  0.81142000  0.56621000  1
  Se  Se15  1  0.51505200  0.18858000  0.06621000  1
  Se  Se16  1  0.25336500  0.44897800  0.37529900  1
  Se  Se17  1  0.24663500  0.55102200  0.87529900  1
  Se  Se18  1  0.75336500  0.05102200  0.62470100  1
  Se  Se19  1  0.74663500  0.94897800  0.12470100  1
  Se  Se20  1  0.75147500  0.46767500  0.37682700  1
  Se  Se21  1  0.74852500  0.53232500  0.87682700  1
  Se  Se22  1  0.25147500  0.03232500  0.62317300  1
  Se  Se23  1  0.24852500  0.96767500  0.12317300  1
  Se  Se24  1  0.51085400  0.19291600  0.37408200  1
  Se  Se25  1  0.98914600  0.80708400  0.87408200  1
  Se  Se26  1  0.01085400  0.30708400  0.62591800  1
  Se  Se27  1  0.48914600  0.69291600  0.12591800  1
  Se  Se28  1  0.53531300  0.68009800  0.28761800  1
  Se  Se29  1  0.96468700  0.31990200  0.78761800  1
  Se  Se30  1  0.03531300  0.81990200  0.71238200  1
  Se  Se31  1  0.46468700  0.18009800  0.21238200  1
  Se  Se32  1  0.75008400  0.96784100  0.45308900  1
  Se  Se33  1  0.74991600  0.03215900  0.95308900  1
  Se  Se34  1  0.25008400  0.53215900  0.54691100  1
  Se  Se35  1  0.24991600  0.46784100  0.04691100  1
  Se  Se36  1  0.04073700  0.68622900  0.43497100  1
  Se  Se37  1  0.45926300  0.31377100  0.93497100  1
  Se  Se38  1  0.54073700  0.81377100  0.56502900  1
  Se  Se39  1  0.95926300  0.18622900  0.06502900  1
  Se  Se40  1  0.96804800  0.18685400  0.36589600  1
  Se  Se41  1  0.53195200  0.81314600  0.86589600  1
  Se  Se42  1  0.46804800  0.31314600  0.63410400  1
  Se  Se43  1  0.03195200  0.68685400  0.13410400  1
  Se  Se44  1  0.24555400  0.96621100  0.45750100  1
  Se  Se45  1  0.25444600  0.03378900  0.95750100  1
  Se  Se46  1  0.74555400  0.53378900  0.54249900  1
  Se  Se47  1  0.75444600  0.46621100  0.04249900  1
  Se  Se48  1  0.75422600  0.25913200  0.50121700  1
  Se  Se49  1  0.74577400  0.74086800  0.00121700  1
  Se  Se50  1  0.25422600  0.24086800  0.49878300  1
  Se  Se51  1  0.24577400  0.75913200  0.99878300  1
loop_
_geom_bond_atom_site_label_1
_geom_bond_atom_site_label_2
_geom_bond_distance
_geom_bond_site_symmetry_2
Ba0 Se8 3.313280 1_555
Ba0 Se16 3.324506 1_555
Ba0 Se20 3.334265 1_555
Ba0 Se4 3.385478 1_555
Ba0 Se24 3.464248 1_555
Ba0 Se28 3.519695 1_555
Ba0 Se31 3.629432 1_555
Ba0 Sn8 3.899603 1_555
Ba0 Sn0 3.900728 1_555
Ba1 Se9 3.313280 1_555
Ba1 Se17 3.324506 1_655
Ba1 Se21 3.334265 1_555
Ba1 Se5 3.385478 1_655
Ba1 Se25 3.464248 1_555
Ba1 Se29 3.519695 1_555
Ba1 Se30 3.629432 1_655
Ba1 Sn9 3.899603 1_555
Ba1 Sn1 3.900728 1_655
Ba2 Se10 3.313280 1_555
Ba2 Se18 3.324506 1_455
Ba2 Se22 3.334265 1_555
Ba2 Se6 3.385478 1_455
Ba2 Se26 3.464248 1_555
Ba2 Se30 3.519695 1_545
Ba2 Se29 3.629432 1_455
Ba2 Sn10 3.899603 1_555
Ba2 Sn2 3.900728 1_455
Ba3 Se11 3.313280 1_555
Ba3 Se19 3.324506 1_555
Ba3 Se23 3.334265 1_555
Ba3 Se7 3.385478 1_555
Ba3 Se27 3.464248 1_555
Ba3 Se31 3.519695 1_565
Ba3 Se28 3.629432 1_555
Ba3 Sn11 3.899603 1_555
Ba3 Sn3 3.900728 1_555
Ba4 Se16 3.280501 1_555
Ba4 Se8 3.295846 1_455
Ba4 Se4 3.324272 1_555
Ba4 Se20 3.336987 1_455
Ba4 Se3 3.418475 1_455
Ba4 Se40 3.525716 1_455
Ba4 Se0 3.617959 1_555
Ba4 Sn8 3.803313 1_455
Ba4 Sn0 3.920313 1_555
Ba5 Se17 3.280501 1_555
Ba5 Se9 3.295846 1_555
Ba5 Se5 3.324272 1_555
Ba5 Se21 3.336987 1_555
Ba5 Se2 3.418475 1_555
Ba5 Se41 3.525716 1_555
Ba5 Se1 3.617959 1_555
Ba5 Sn9 3.803313 1_555
Ba5 Sn1 3.920313 1_555
Ba6 Se18 3.280501 1_555
Ba6 Se10 3.295846 1_555
Ba6 Se6 3.324272 1_555
Ba6 Se22 3.336987 1_555
Ba6 Se1 3.418475 1_545
Ba6 Se42 3.525716 1_555
Ba6 Se2 3.617959 1_555
Ba6 Sn10 3.803313 1_555
Ba6 Sn2 3.920313 1_555
Ba7 Se19 3.280501 1_555
Ba7 Se11 3.295846 1_655
Ba7 Se7 3.324272 1_555
Ba7 Se23 3.336987 1_655
Ba7 Se0 3.418475 1_665
Ba7 Se43 3.525716 1_655
Ba7 Se3 3.617959 1_555
Ba7 Sn11 3.803313 1_655
Ba7 Sn3 3.920313 1_555
Ba8 Se11 3.288294 1_555
Ba8 Se44 3.320377 1_555
Ba8 Se32 3.338901 1_555
Ba8 Se7 3.376603 1_555
Ba8 Se12 3.389341 1_555
Ba8 Se24 3.452128 1_565
Ba8 Se28 3.870975 1_555
Ba9 Se10 3.288294 1_555
Ba9 Se45 3.320377 1_555
Ba9 Se33 3.338901 1_455
Ba9 Se6 3.376603 1_455
Ba9 Se13 3.389341 1_555
Ba9 Se25 3.452128 1_445
Ba9 Se29 3.870975 1_455
Ba10 Se9 3.288294 1_555
Ba10 Se46 3.320377 1_555
Ba10 Se34 3.338901 1_655
Ba10 Se5 3.376603 1_655
Ba10 Se14 3.389341 1_555
Ba10 Se26 3.452128 1_655
Ba10 Se30 3.870975 1_655
Ba11 Se8 3.288294 1_555
Ba11 Se47 3.320377 1_555
Ba11 Se35 3.338901 1_555
Ba11 Se4 3.376603 1_555
Ba11 Se15 3.389341 1_555
Ba11 Se27 3.452128 1_555
Ba11 Se31 3.870975 1_555
Ba12 Se36 3.305449 1_655
Ba12 Se11 3.318819 1_655
Ba12 Se32 3.321400 1_555
Ba12 Se7 3.354621 1_555
Ba12 Se44 3.379432 1_655
Ba12 Se40 3.571014 1_565
Ba12 Se3 3.732204 1_555
Ba12 Sn12 3.917457 1_555
Ba12 Sn4 3.966656 1_655
Ba13 Se37 3.305449 1_555
Ba13 Se10 3.318819 1_555
Ba13 Se33 3.321400 1_555
Ba13 Se6 3.354621 1_555
Ba13 Se45 3.379432 1_555
Ba13 Se41 3.571014 1_545
Ba13 Se2 3.732204 1_555
Ba13 Sn13 3.917457 1_555
Ba13 Sn5 3.966656 1_555
Ba14 Se38 3.305449 1_555
Ba14 Se9 3.318819 1_555
Ba14 Se34 3.321400 1_555
Ba14 Se5 3.354621 1_555
Ba14 Se46 3.379432 1_555
Ba14 Se42 3.571014 1_555
Ba14 Se1 3.732204 1_555
Ba14 Sn14 3.917457 1_555
Ba14 Sn6 3.966656 1_555
Ba15 Se39 3.305449 1_455
Ba15 Se8 3.318819 1_455
Ba15 Se35 3.321400 1_555
Ba15 Se4 3.354621 1_555
Ba15 Se47 3.379432 1_455
Ba15 Se43 3.571014 1_555
Ba15 Se0 3.732204 1_555
Ba15 Sn15 3.917457 1_555
Ba15 Sn7 3.966656 1_455
Ba16 Se36 3.326308 1_555
Ba16 Se48 3.365526 1_455
Ba16 Se20 3.391014 1_455
Ba16 Se16 3.402009 1_555
Ba16 Se46 3.471142 1_455
Ba16 Se34 3.484862 1_555
Ba16 Se50 3.528886 1_555
Ba17 Se37 3.326308 1_555
Ba17 Se49 3.365526 1_556
Ba17 Se21 3.391014 1_555
Ba17 Se17 3.402009 1_555
Ba17 Se47 3.471142 1_556
Ba17 Se35 3.484862 1_556
Ba17 Se51 3.528886 1_555
Ba18 Se38 3.326308 1_545
Ba18 Se50 3.365526 1_555
Ba18 Se22 3.391014 1_555
Ba18 Se18 3.402009 1_555
Ba18 Se44 3.471142 1_545
Ba18 Se32 3.484862 1_545
Ba18 Se48 3.528886 1_555
Ba19 Se39 3.326308 1_565
Ba19 Se51 3.365526 1_654
Ba19 Se23 3.391014 1_655
Ba19 Se19 3.402009 1_555
Ba19 Se45 3.471142 1_664
Ba19 Se33 3.484862 1_564
Ba19 Se49 3.528886 1_555
Ba20 Se16 3.360532 1_555
Ba20 Se20 3.369001 1_555
Ba20 Se48 3.377732 1_555
Ba20 Se12 3.383278 1_555
Ba20 Se46 3.429509 1_555
Ba20 Se50 3.476135 1_555
Ba20 Se34 3.545213 1_555
Ba20 Se24 3.870085 1_555
Ba21 Se17 3.360532 1_655
Ba21 Se21 3.369001 1_555
Ba21 Se49 3.377732 1_556
Ba21 Se13 3.383278 1_655
Ba21 Se47 3.429509 1_556
Ba21 Se51 3.476135 1_655
Ba21 Se35 3.545213 1_656
Ba21 Se25 3.870085 1_555
Ba22 Se18 3.360532 1_455
Ba22 Se22 3.369001 1_555
Ba22 Se50 3.377732 1_555
Ba22 Se14 3.383278 1_445
Ba22 Se44 3.429509 1_545
Ba22 Se48 3.476135 1_455
Ba22 Se32 3.545213 1_445
Ba22 Se26 3.870085 1_555
Ba23 Se19 3.360532 1_555
Ba23 Se23 3.369001 1_555
Ba23 Se51 3.377732 1_554
Ba23 Se15 3.383278 1_565
Ba23 Se45 3.429509 1_564
Ba23 Se49 3.476135 1_555
Ba23 Se33 3.545213 1_564
Ba23 Se27 3.870085 1_555
Se0 Sn0 2.803358 1_555
Se0 Sn8 2.903146 1_455
Se1 Sn1 2.803358 1_555
Se1 Sn9 2.903146 1_555
Se2 Sn2 2.803358 1_555
Se2 Sn10 2.903146 1_555
Se3 Sn3 2.803358 1_555
Se3 Sn11 2.903146 1_655
Se4 Sn11 2.644239 1_555
Se5 Sn10 2.644239 1_555
Se6 Sn9 2.644239 1_545
Se7 Sn8 2.644239 1_565
Se8 Sn3 2.657652 1_555
Se9 Sn2 2.657652 1_555
Se10 Sn1 2.657652 1_545
Se11 Sn0 2.657652 1_565
Se12 Sn4 2.862703 1_555
Se12 Sn12 2.921665 1_555
Se12 Sn16 3.063577 1_555
Se12 Sn18 3.103300 1_555
Se13 Sn5 2.862703 1_555
Se13 Sn13 2.921665 1_455
Se13 Sn17 3.063577 1_555
Se13 Sn19 3.103300 1_456
Se14 Sn6 2.862703 1_555
Se14 Sn14 2.921665 1_655
Se14 Sn18 3.063577 1_555
Se14 Sn16 3.103300 1_655
Se15 Sn7 2.862703 1_555
Se15 Sn15 2.921665 1_555
Se15 Sn19 3.063577 1_555
Se15 Sn17 3.103300 1_554
Se16 Sn4 2.649531 1_555
Se17 Sn5 2.649531 1_555
Se18 Sn6 2.649531 1_545
Se19 Sn7 2.649531 1_565
Se20 Sn12 2.648727 1_555
Se21 Sn13 2.648727 1_555
Se22 Sn14 2.648727 1_545
Se23 Sn15 2.648727 1_565
Se24 Sn20 2.552350 1_555
Se25 Sn21 2.552350 1_555
Se26 Sn22 2.552350 1_555
Se27 Sn23 2.552350 1_555
Se28 Sn3 2.775733 1_555
Se28 Sn12 2.797301 1_555
Se29 Sn2 2.775733 1_555
Se29 Sn13 2.797301 1_555
Se30 Sn1 2.775733 1_555
Se30 Sn14 2.797301 1_555
Se31 Sn0 2.775733 1_555
Se31 Sn15 2.797301 1_555
Se32 Sn20 2.611610 1_565
Se32 Sn18 3.325345 1_555
Se33 Sn21 2.611610 1_545
Se33 Sn19 3.325345 1_556
Se34 Sn22 2.611610 1_555
Se34 Sn16 3.325345 1_555
Se35 Sn23 2.611610 1_555
Se35 Sn17 3.325345 1_554
Se36 Sn4 2.759842 1_555
Se36 Sn16 2.764339 1_555
Se37 Sn5 2.759842 1_555
Se37 Sn17 2.764339 1_555
Se38 Sn6 2.759842 1_555
Se38 Sn18 2.764339 1_555
Se39 Sn7 2.759842 1_555
Se39 Sn19 2.764339 1_555
Se40 Sn20 2.601281 1_555
Se40 Sn8 2.899716 1_555
Se41 Sn21 2.601281 1_555
Se41 Sn9 2.899716 1_555
Se42 Sn22 2.601281 1_555
Se42 Sn10 2.899716 1_555
Se43 Sn23 2.601281 1_555
Se43 Sn11 2.899716 1_555
Se44 Sn16 2.701550 1_555
Se45 Sn17 2.701550 1_555
Se46 Sn18 2.701550 1_555
Se47 Sn19 2.701550 1_555
Se48 Sn20 2.558649 1_555
Se49 Sn21 2.558649 1_554
Se50 Sn22 2.558649 1_555
Se51 Sn23 2.558649 1_556
