# generated using pymatgen
data_Dy4Al2O9
_symmetry_space_group_name_H-M   'P 1'
_cell_length_a   10.59166300
_cell_length_b   7.44961400
_cell_length_c   11.19275803
_cell_angle_alpha   71.34431820
_cell_angle_beta   90.00000000
_cell_angle_gamma   90.00000000
_symmetry_Int_Tables_number   1
_chemical_formula_structural   Dy4Al2O9
_chemical_formula_sum   'Dy16 Al8 O36'
_cell_volume   836.74861320
_cell_formula_units_Z   4
loop_
 _symmetry_equiv_pos_site_id
 _symmetry_equiv_pos_as_xyz
  1  'x, y, z'
loop_
 _atom_site_type_symbol
 _atom_site_label
 _atom_site_symmetry_multiplicity
 _atom_site_fract_x
 _atom_site_fract_y
 _atom_site_fract_z
 _atom_site_occupancy
  Dy  Dy0  1  0.59217600  0.47739500  0.30659000  1
  Dy  Dy1  1  0.40782400  0.52260500  0.69341000  1
  Dy  Dy2  1  0.09217600  0.52260500  0.19341000  1
  Dy  Dy3  1  0.90782400  0.47739500  0.80659000  1
  Dy  Dy4  1  0.60618200  0.97684200  0.28460500  1
  Dy  Dy5  1  0.39381800  0.02315800  0.71539500  1
  Dy  Dy6  1  0.10618200  0.02315800  0.21539500  1
  Dy  Dy7  1  0.89381800  0.97684200  0.78460500  1
  Dy  Dy8  1  0.37596500  0.83673400  0.06584700  1
  Dy  Dy9  1  0.62403500  0.16326600  0.93415300  1
  Dy  Dy10  1  0.87596500  0.16326600  0.43415300  1
  Dy  Dy11  1  0.12403500  0.83673400  0.56584700  1
  Dy  Dy12  1  0.87832800  0.66347000  0.41259000  1
  Dy  Dy13  1  0.12167200  0.33653000  0.58741000  1
  Dy  Dy14  1  0.37832800  0.33653000  0.08741000  1
  Dy  Dy15  1  0.62167200  0.66347000  0.91259000  1
  Al  Al0  1  0.81689100  0.84623300  0.11444900  1
  Al  Al1  1  0.18310900  0.15376700  0.88555100  1
  Al  Al2  1  0.31689100  0.15376700  0.38555100  1
  Al  Al3  1  0.68310900  0.84623300  0.61444900  1
  Al  Al4  1  0.81431600  0.28245800  0.12833200  1
  Al  Al5  1  0.18568400  0.71754200  0.87166800  1
  Al  Al6  1  0.31431600  0.71754200  0.37166800  1
  Al  Al7  1  0.68568400  0.28245800  0.62833200  1
  O  O0  1  0.73361400  0.42894800  0.47954500  1
  O  O1  1  0.26638600  0.57105200  0.52045500  1
  O  O2  1  0.23361400  0.57105200  0.02045500  1
  O  O3  1  0.76638600  0.42894800  0.97954500  1
  O  O4  1  0.72904800  0.86052400  0.46089600  1
  O  O5  1  0.27095200  0.13947600  0.53910400  1
  O  O6  1  0.22904800  0.13947600  0.03910400  1
  O  O7  1  0.77095200  0.86052400  0.96089600  1
  O  O8  1  0.97428500  0.80117400  0.16764900  1
  O  O9  1  0.02571500  0.19882600  0.83235100  1
  O  O10  1  0.47428500  0.19882600  0.33235100  1
  O  O11  1  0.52571500  0.80117400  0.66764900  1
  O  O12  1  0.50565600  0.57694500  0.10619600  1
  O  O13  1  0.49434400  0.42305500  0.89380400  1
  O  O14  1  0.00565600  0.42305500  0.39380400  1
  O  O15  1  0.99434400  0.57694500  0.60619600  1
  O  O16  1  0.72983000  0.71226100  0.24732500  1
  O  O17  1  0.27017000  0.28773900  0.75267500  1
  O  O18  1  0.22983000  0.28773900  0.25267500  1
  O  O19  1  0.77017000  0.71226100  0.74732500  1
  O  O20  1  0.73187800  0.26729300  0.26954100  1
  O  O21  1  0.26812200  0.73270700  0.73045900  1
  O  O22  1  0.23187800  0.73270700  0.23045900  1
  O  O23  1  0.76812200  0.26729300  0.76954100  1
  O  O24  1  0.25460900  0.93262300  0.38537800  1
  O  O25  1  0.74539100  0.06737700  0.61462200  1
  O  O26  1  0.75460900  0.06737700  0.11462200  1
  O  O27  1  0.24539100  0.93262300  0.88537800  1
  O  O28  1  0.47577400  0.71591600  0.33886200  1
  O  O29  1  0.52422600  0.28408400  0.66113800  1
  O  O30  1  0.97577400  0.28408400  0.16113800  1
  O  O31  1  0.02422600  0.71591600  0.83886200  1
  O  O32  1  0.99085400  0.93406800  0.39454500  1
  O  O33  1  0.00914600  0.06593200  0.60545500  1
  O  O34  1  0.49085400  0.06593200  0.10545500  1
  O  O35  1  0.50914600  0.93406800  0.89454500  1
loop_
_geom_bond_atom_site_label_1
_geom_bond_atom_site_label_2
_geom_bond_distance
_geom_bond_site_symmetry_2
Dy0 O16 2.210098 1_555
Dy0 O28 2.284393 1_555
Dy0 O20 2.286137 1_555
Dy0 O12 2.314402 1_555
Dy0 O10 2.359252 1_555
Dy0 O0 2.382218 1_555
Dy1 O17 2.210098 1_555
Dy1 O29 2.284393 1_555
Dy1 O21 2.286137 1_555
Dy1 O13 2.314402 1_555
Dy1 O11 2.359252 1_555
Dy1 O1 2.382218 1_555
Dy2 O18 2.210098 1_555
Dy2 O30 2.284393 1_455
Dy2 O22 2.286137 1_555
Dy2 O14 2.314402 1_555
Dy2 O8 2.359252 1_455
Dy2 O2 2.382218 1_555
Dy3 O19 2.210098 1_555
Dy3 O31 2.284393 1_655
Dy3 O23 2.286137 1_555
Dy3 O15 2.314402 1_555
Dy3 O9 2.359252 1_655
Dy3 O3 2.382218 1_555
Dy4 O34 2.258746 1_565
Dy4 O4 2.289972 1_555
Dy4 O28 2.302122 1_555
Dy4 O10 2.353152 1_565
Dy4 O26 2.392742 1_565
Dy4 O20 2.499854 1_565
Dy4 O16 2.510054 1_555
Dy5 O35 2.258746 1_545
Dy5 O5 2.289972 1_555
Dy5 O29 2.302122 1_555
Dy5 O11 2.353152 1_545
Dy5 O27 2.392742 1_545
Dy5 O21 2.499854 1_545
Dy5 O17 2.510054 1_555
Dy6 O32 2.258746 1_445
Dy6 O6 2.289972 1_555
Dy6 O30 2.302122 1_455
Dy6 O8 2.353152 1_445
Dy6 O24 2.392742 1_545
Dy6 O22 2.499854 1_545
Dy6 O18 2.510054 1_555
Dy7 O33 2.258746 1_665
Dy7 O7 2.289972 1_555
Dy7 O31 2.302122 1_655
Dy7 O9 2.353152 1_665
Dy7 O25 2.392742 1_565
Dy7 O23 2.499854 1_565
Dy7 O19 2.510054 1_555
Dy8 O34 2.253198 1_565
Dy8 O12 2.297211 1_555
Dy8 O35 2.302683 1_554
Dy8 O22 2.326113 1_555
Dy8 O27 2.362205 1_554
Dy8 O2 2.663092 1_555
Dy8 O6 2.676858 1_565
Dy9 O35 2.253198 1_545
Dy9 O13 2.297211 1_555
Dy9 O34 2.302683 1_556
Dy9 O23 2.326113 1_555
Dy9 O26 2.362205 1_556
Dy9 O3 2.663092 1_555
Dy9 O7 2.676858 1_545
Dy10 O32 2.253198 1_545
Dy10 O14 2.297211 1_655
Dy10 O33 2.302683 1_655
Dy10 O20 2.326113 1_555
Dy10 O25 2.362205 1_555
Dy10 O0 2.663092 1_555
Dy10 O4 2.676858 1_545
Dy11 O33 2.253198 1_565
Dy11 O15 2.297211 1_455
Dy11 O32 2.302683 1_455
Dy11 O21 2.326113 1_555
Dy11 O24 2.362205 1_555
Dy11 O1 2.663092 1_555
Dy11 O5 2.676858 1_565
Dy12 O0 2.263999 1_555
Dy12 O32 2.294438 1_555
Dy12 O14 2.304686 1_655
Dy12 O4 2.335598 1_555
Dy12 O16 2.365894 1_555
Dy12 O15 2.393251 1_555
Dy12 O8 2.793245 1_555
Dy13 O1 2.263999 1_555
Dy13 O33 2.294438 1_555
Dy13 O15 2.304686 1_455
Dy13 O5 2.335598 1_555
Dy13 O17 2.365894 1_555
Dy13 O14 2.393251 1_555
Dy13 O9 2.793245 1_555
Dy14 O2 2.263999 1_555
Dy14 O34 2.294438 1_555
Dy14 O12 2.304686 1_555
Dy14 O6 2.335598 1_555
Dy14 O18 2.365894 1_555
Dy14 O13 2.393251 1_554
Dy14 O10 2.793245 1_555
Dy15 O3 2.263999 1_555
Dy15 O35 2.294438 1_555
Dy15 O13 2.304686 1_555
Dy15 O7 2.335598 1_555
Dy15 O19 2.365894 1_555
Dy15 O12 2.393251 1_556
Dy15 O11 2.793245 1_555
Al0 O7 1.756386 1_554
Al0 O16 1.763145 1_555
Al0 O8 1.765919 1_555
Al0 O26 1.775179 1_565
Al1 O6 1.756386 1_556
Al1 O17 1.763145 1_555
Al1 O9 1.765919 1_555
Al1 O27 1.775179 1_545
Al2 O5 1.756386 1_555
Al2 O18 1.763145 1_555
Al2 O10 1.765919 1_555
Al2 O24 1.775179 1_545
Al3 O4 1.756386 1_555
Al3 O19 1.763145 1_555
Al3 O11 1.765919 1_555
Al3 O25 1.775179 1_565
Al4 O3 1.749087 1_554
Al4 O30 1.749941 1_555
Al4 O26 1.774273 1_555
Al4 O20 1.777349 1_555
Al5 O2 1.749087 1_556
Al5 O31 1.749941 1_555
Al5 O27 1.774273 1_555
Al5 O21 1.777349 1_555
Al6 O1 1.749087 1_555
Al6 O28 1.749941 1_555
Al6 O24 1.774273 1_555
Al6 O22 1.777349 1_555
Al7 O0 1.749087 1_555
Al7 O29 1.749941 1_555
Al7 O25 1.774273 1_555
Al7 O23 1.777349 1_555
