# generated using pymatgen
data_LiCrPO4
_symmetry_space_group_name_H-M   'P 1'
_cell_length_a   5.10107827
_cell_length_b   5.19450762
_cell_length_c   6.49664257
_cell_angle_alpha   90.48520741
_cell_angle_beta   91.45853685
_cell_angle_gamma   64.82137139
_symmetry_Int_Tables_number   1
_chemical_formula_structural   LiCrPO4
_chemical_formula_sum   'Li2 Cr2 P2 O8'
_cell_volume   155.73811227
_cell_formula_units_Z   2
loop_
 _symmetry_equiv_pos_site_id
 _symmetry_equiv_pos_as_xyz
  1  'x, y, z'
loop_
 _atom_site_type_symbol
 _atom_site_label
 _atom_site_symmetry_multiplicity
 _atom_site_fract_x
 _atom_site_fract_y
 _atom_site_fract_z
 _atom_site_occupancy
  Li  Li0  1  0.69844900  0.65389400  0.74991900  1
  Li  Li1  1  0.36599600  0.34506600  0.24567000  1
  Cr  Cr0  1  0.97561000  0.00797600  0.51995300  1
  Cr  Cr1  1  0.01158000  0.99561900  0.00373800  1
  P  P0  1  0.70344700  0.61844700  0.24522200  1
  P  P1  1  0.30050500  0.37303000  0.74813000  1
  O  O0  1  0.17677100  0.71423800  0.75752500  1
  O  O1  1  0.80027900  0.72409200  0.44247400  1
  O  O2  1  0.81161400  0.70390100  0.05099600  1
  O  O3  1  0.36948800  0.72456000  0.23790900  1
  O  O4  1  0.04209400  0.27900900  0.74392800  1
  O  O5  1  0.48388600  0.25366000  0.94305500  1
  O  O6  1  0.46597800  0.28003400  0.54888600  1
  O  O7  1  0.86287300  0.27682200  0.25509800  1
loop_
_geom_bond_atom_site_label_1
_geom_bond_atom_site_label_2
_geom_bond_distance
_geom_bond_site_symmetry_2
Li0 O4 1.991012 1_655
Li0 O2 2.070775 1_556
Li0 O1 2.149082 1_555
Li0 O0 2.545374 1_555
Li0 O0 2.588140 1_655
Li1 O3 1.980007 1_555
Li1 O6 2.016981 1_555
Li1 O5 2.062423 1_554
Li1 O7 2.404496 1_555
Cr0 O1 2.077151 1_545
Cr0 O0 2.095298 1_645
Cr0 O7 2.132759 1_555
Cr0 O4 2.135621 1_655
Cr0 O6 2.384349 1_555
Cr0 O3 2.680784 1_645
Cr1 O0 2.094291 1_554
Cr1 O7 2.110834 1_465
Cr1 O2 2.184035 1_455
Cr1 O4 2.300137 1_564
Cr1 O3 2.310358 1_555
Cr1 O5 2.466329 1_464
O0 P1 1.609901 1_555
O1 P0 1.540723 1_555
O2 P0 1.531993 1_555
O3 P0 1.550970 1_555
O4 P1 1.588266 1_555
O5 P1 1.524023 1_555
O6 P1 1.522971 1_555
O7 P0 1.608075 1_555
