# generated using pymatgen
data_GaN
_symmetry_space_group_name_H-M   'P 1'
_cell_length_a   11.82561816
_cell_length_b   11.45205295
_cell_length_c   11.13947311
_cell_angle_alpha   93.25321043
_cell_angle_beta   94.05141030
_cell_angle_gamma   86.68306275
_symmetry_Int_Tables_number   1
_chemical_formula_structural   GaN
_chemical_formula_sum   'Ga50 N50'
_cell_volume   1500.19931849
_cell_formula_units_Z   50
loop_
 _symmetry_equiv_pos_site_id
 _symmetry_equiv_pos_as_xyz
  1  'x, y, z'
loop_
 _atom_site_type_symbol
 _atom_site_label
 _atom_site_symmetry_multiplicity
 _atom_site_fract_x
 _atom_site_fract_y
 _atom_site_fract_z
 _atom_site_occupancy
  Ga  Ga0  1  0.05244904  0.70177871  0.65111541  1
  Ga  Ga1  1  0.20190624  0.60298642  0.49034399  1
  Ga  Ga2  1  0.18240694  0.55639077  0.00957943  1
  Ga  Ga3  1  0.83095073  0.82433833  0.57902683  1
  Ga  Ga4  1  0.16569186  0.27235471  0.11455496  1
  Ga  Ga5  1  0.51471836  0.53200806  0.74748202  1
  Ga  Ga6  1  0.49399379  0.82511904  0.79556169  1
  Ga  Ga7  1  0.09009598  0.00829848  0.09528347  1
  Ga  Ga8  1  0.50356472  0.41473922  0.46059209  1
  Ga  Ga9  1  0.85515622  0.07869783  0.19892191  1
  Ga  Ga10  1  0.30186106  0.86880999  0.91601882  1
  Ga  Ga11  1  0.19385560  0.07906886  0.81511946  1
  Ga  Ga12  1  0.70845999  0.38197367  0.91681407  1
  Ga  Ga13  1  0.86832978  0.29441393  0.07264558  1
  Ga  Ga14  1  0.97478487  0.23867840  0.35440476  1
  Ga  Ga15  1  0.41450108  0.06471371  0.79312450  1
  Ga  Ga16  1  0.90411399  0.03636971  0.53268266  1
  Ga  Ga17  1  0.58616928  0.64839871  0.00700728  1
  Ga  Ga18  1  0.63574387  0.57773712  0.39878043  1
  Ga  Ga19  1  0.65513883  0.01070574  0.64610198  1
  Ga  Ga20  1  0.03603380  0.73187664  0.37500946  1
  Ga  Ga21  1  0.60741553  0.73093386  0.23586058  1
  Ga  Ga22  1  0.88845351  0.34471779  0.62314186  1
  Ga  Ga23  1  0.59091270  0.19247786  0.90911794  1
  Ga  Ga24  1  0.36258469  0.26888203  0.32057718  1
  Ga  Ga25  1  0.60665094  0.92882454  0.04243038  1
  Ga  Ga26  1  0.05404243  0.49838605  0.15285800  1
  Ga  Ga27  1  0.92552511  0.53164392  0.42518067  1
  Ga  Ga28  1  0.43277919  0.92266962  0.52523507  1
  Ga  Ga29  1  0.86309664  0.01120577  0.95178056  1
  Ga  Ga30  1  0.94055958  0.54782923  0.85869883  1
  Ga  Ga31  1  0.64679738  0.27061553  0.62450738  1
  Ga  Ga32  1  0.98086369  0.15507311  0.73551417  1
  Ga  Ga33  1  0.14738333  0.39693331  0.50574043  1
  Ga  Ga34  1  0.36635967  0.09611565  0.05900807  1
  Ga  Ga35  1  0.08208943  0.31641347  0.88392608  1
  Ga  Ga36  1  0.60403801  0.75477635  0.55346089  1
  Ga  Ga37  1  0.71878690  0.68739659  0.82904575  1
  Ga  Ga38  1  0.20260649  0.50409307  0.73361331  1
  Ga  Ga39  1  0.82842230  0.55766350  0.18440992  1
  Ga  Ga40  1  0.75986101  0.34311512  0.35923207  1
  Ga  Ga41  1  0.84468076  0.79359104  0.06167777  1
  Ga  Ga42  1  0.92899819  0.83754343  0.81221043  1
  Ga  Ga43  1  0.41702925  0.26987768  0.68477548  1
  Ga  Ga44  1  0.43103753  0.95191554  0.27850102  1
  Ga  Ga45  1  0.36216218  0.64009855  0.95274242  1
  Ga  Ga46  1  0.06492393  0.94681988  0.31133616  1
  Ga  Ga47  1  0.35052746  0.67108967  0.63515375  1
  Ga  Ga48  1  0.76394893  0.59419593  0.62734779  1
  Ga  Ga49  1  0.11214342  0.76602057  0.96505697  1
  N  N0  1  0.26880760  0.09619751  0.52136102  1
  N  N1  1  0.50299091  0.06283014  0.97009283  1
  N  N2  1  0.58442430  0.12054762  0.26799289  1
  N  N3  1  0.94757051  0.06836968  0.36770447  1
  N  N4  1  0.93427188  0.69098434  0.51202166  1
  N  N5  1  0.09878770  0.48596379  0.86456669  1
  N  N6  1  0.77662680  0.50431390  0.33752362  1
  N  N7  1  0.34793542  0.57787827  0.77965413  1
  N  N8  1  0.75309308  0.86405072  0.36433526  1
  N  N9  1  0.25861516  0.75652878  0.16939724  1
  N  N10  1  0.50958475  0.69210254  0.67509435  1
  N  N11  1  0.61116142  0.79473085  0.91766491  1
  N  N12  1  0.12035521  0.26208224  0.28785686  1
  N  N13  1  0.88135253  0.49941678  0.70091721  1
  N  N14  1  0.19781451  0.25841205  0.77114089  1
  N  N15  1  0.19995322  0.29899277  0.36645960  1
  N  N16  1  0.75128499  0.11750077  0.86233731  1
  N  N17  1  0.51984522  0.07314276  0.50657305  1
  N  N18  1  0.98454881  0.37142885  0.48029184  1
  N  N19  1  0.73185949  0.68427167  0.12536226  1
  N  N20  1  0.36108161  0.54224034  0.28815437  1
  N  N21  1  0.34941060  0.49710046  0.19613064  1
  N  N22  1  0.41000934  0.37626247  0.91390742  1
  N  N23  1  0.00561514  0.86224742  0.04840145  1
  N  N24  1  0.16888970  0.86504947  0.58557509  1
  N  N25  1  0.22853167  0.01545387  0.99430620  1
  N  N26  1  0.63981083  0.53627449  0.87362227  1
  N  N27  1  0.53506809  0.86992504  0.17799153  1
  N  N28  1  0.26580927  0.85459206  0.60552292  1
  N  N29  1  0.54126769  0.31967609  0.13153695  1
  N  N30  1  0.50644009  0.17254231  0.54520950  1
  N  N31  1  0.95037472  0.12096151  0.06459063  1
  N  N32  1  0.82487061  0.85132300  0.30169701  1
  N  N33  1  0.83484634  0.25132693  0.23802702  1
  N  N34  1  0.32036025  0.22094229  0.15892826  1
  N  N35  1  0.98253839  0.59308140  0.27744976  1
  N  N36  1  0.29016181  0.77181629  0.26640091  1
  N  N37  1  0.59510653  0.38858807  0.17837433  1
  N  N38  1  0.76682495  0.28317364  0.76274752  1
  N  N39  1  0.91205011  0.45656389  0.06435847  1
  N  N40  1  0.77076429  0.95835766  0.08117027  1
  N  N41  1  0.17413000  0.09202907  0.52513489  1
  N  N42  1  0.66765839  0.10146704  0.32025572  1
  N  N43  1  0.25188157  0.32309354  0.70630341  1
  N  N44  1  0.75511117  0.29657232  0.51464948  1
  N  N45  1  0.51365652  0.39474570  0.63721298  1
  N  N46  1  0.50361736  0.95531782  0.69601773  1
  N  N47  1  0.81118890  0.18515588  0.80702472  1
  N  N48  1  0.33227730  0.36463764  0.96408217  1
  N  N49  1  0.87137702  0.70291850  0.90488556  1
loop_
_geom_bond_atom_site_label_1
_geom_bond_atom_site_label_2
_geom_bond_distance
_geom_bond_site_symmetry_2
Ga0 N4 2.015280 1_455
Ga0 N24 2.553454 1_555
Ga2 N5 1.989079 1_554
Ga3 N4 2.041038 1_555
Ga3 N8 2.556935 1_555
Ga4 N34 1.927971 1_555
Ga4 N12 2.051195 1_555
Ga5 N45 1.939307 1_555
Ga5 N26 1.967732 1_555
Ga5 N10 2.040415 1_555
Ga5 N7 2.062284 1_555
Ga6 N11 1.903316 1_555
Ga6 N46 1.921163 1_555
Ga6 N10 1.981346 1_555
Ga7 N23 2.022091 1_545
Ga7 N31 2.057957 1_455
Ga7 N25 2.058691 1_554
Ga8 N45 1.988057 1_555
Ga9 N33 2.004470 1_555
Ga9 N31 2.030932 1_555
Ga9 N40 2.093991 1_545
Ga9 N3 2.112635 1_555
Ga10 N25 2.026058 1_565
Ga11 N14 2.142206 1_555
Ga11 N25 2.167467 1_555
Ga12 N26 1.971889 1_555
Ga12 N38 2.135091 1_555
Ga13 N39 1.965043 1_555
Ga13 N33 2.005755 1_555
Ga13 N31 2.159673 1_555
Ga14 N12 1.959862 1_655
Ga14 N3 2.010395 1_555
Ga14 N18 2.011591 1_555
Ga14 N33 2.032386 1_555
Ga15 N46 1.924771 1_545
Ga15 N1 2.166194 1_555
Ga16 N3 2.001867 1_555
Ga17 N26 2.020219 1_554
Ga17 N11 2.043113 1_554
Ga17 N19 2.138867 1_555
Ga18 N6 1.970206 1_555
Ga19 N46 2.057797 1_545
Ga19 N17 2.264774 1_555
Ga20 N35 1.982649 1_455
Ga20 N4 2.098274 1_455
Ga21 N27 1.887347 1_555
Ga21 N19 2.014112 1_555
Ga21 N8 2.654777 1_555
Ga22 N13 1.927475 1_555
Ga22 N44 2.001690 1_555
Ga22 N18 2.065936 1_555
Ga22 N38 2.354097 1_555
Ga23 N1 2.034626 1_555
Ga23 N16 2.122726 1_555
Ga24 N34 1.893587 1_555
Ga24 N15 2.030038 1_555
Ga25 N27 1.953000 1_555
Ga25 N40 2.002035 1_555
Ga25 N11 2.012815 1_554
Ga25 N1 2.071282 1_564
Ga26 N35 1.925141 1_455
Ga26 N39 1.956111 1_455
Ga27 N6 1.984446 1_555
Ga27 N35 2.000208 1_555
Ga27 N4 2.020804 1_555
Ga27 N18 2.037065 1_555
Ga28 N46 2.047218 1_555
Ga28 N17 2.085435 1_565
Ga28 N28 2.411069 1_555
Ga29 N16 1.997021 1_555
Ga29 N31 2.002966 1_556
Ga29 N40 2.008433 1_546
Ga30 N13 1.909768 1_555
Ga30 N5 1.960097 1_655
Ga30 N49 1.968795 1_555
Ga31 N44 1.879743 1_555
Ga31 N38 2.023949 1_555
Ga31 N45 2.066263 1_555
Ga31 N30 2.166252 1_555
Ga32 N47 2.212247 1_555
Ga33 N18 1.962710 1_455
Ga33 N15 1.977322 1_555
Ga33 N43 2.633826 1_555
Ga34 N34 1.842095 1_555
Ga34 N1 1.961884 1_554
Ga34 N25 1.990482 1_554
Ga35 N14 1.983825 1_555
Ga35 N5 1.988368 1_555
Ga36 N10 2.003900 1_555
Ga37 N49 1.950922 1_555
Ga37 N11 1.990998 1_555
Ga37 N26 2.112842 1_555
Ga38 N7 1.981152 1_555
Ga38 N5 1.998824 1_555
Ga38 N43 2.131284 1_555
Ga39 N19 1.910343 1_555
Ga39 N6 1.991667 1_555
Ga39 N39 1.996388 1_555
Ga39 N35 2.081146 1_555
Ga40 N44 1.845666 1_555
Ga40 N6 1.898818 1_555
Ga40 N33 1.901166 1_555
Ga41 N49 2.015590 1_554
Ga41 N40 2.039882 1_555
Ga41 N19 2.068445 1_555
Ga41 N23 2.118530 1_655
Ga42 N49 2.075720 1_555
Ga43 N45 1.997982 1_555
Ga43 N43 2.038353 1_555
Ga43 N30 2.162583 1_555
Ga44 N27 1.894808 1_555
Ga45 N7 2.016371 1_555
Ga46 N3 2.014506 1_465
Ga47 N10 1.927643 1_555
Ga47 N7 1.984235 1_555
Ga47 N28 2.305911 1_555
Ga48 N13 1.882318 1_555
Ga49 N23 1.884634 1_556
N0 N41 1.127236 1_555
N2 N42 1.124320 1_555
N12 N15 1.311088 1_555
N14 N43 1.288380 1_555
N16 N47 1.288855 1_555
N17 N30 1.199713 1_555
N20 N21 1.124821 1_555
N22 N48 1.127077 1_555
N24 N28 1.152602 1_555
N29 N37 1.124659 1_555
N32 N8 1.134206 1_555
N36 N9 1.125424 1_555
N38 N47 1.317821 1_555
