# generated using pymatgen
data_CsMg7
_symmetry_space_group_name_H-M   'P 1'
_cell_length_a   7.01543978
_cell_length_b   7.01543978
_cell_length_c   5.44585300
_cell_angle_alpha   90.00000000
_cell_angle_beta   90.00000000
_cell_angle_gamma   119.99999789
_symmetry_Int_Tables_number   1
_chemical_formula_structural   CsMg7
_chemical_formula_sum   'Cs1 Mg7'
_cell_volume   232.11668352
_cell_formula_units_Z   1
loop_
 _symmetry_equiv_pos_site_id
 _symmetry_equiv_pos_as_xyz
  1  'x, y, z'
loop_
 _atom_site_type_symbol
 _atom_site_label
 _atom_site_symmetry_multiplicity
 _atom_site_fract_x
 _atom_site_fract_y
 _atom_site_fract_z
 _atom_site_occupancy
  Cs  Cs0  1  0.00000000  0.00000000  0.00000000  1
  Mg  Mg0  1  0.00730700  0.50365300  0.00000000  1
  Mg  Mg1  1  0.49634700  0.50365300  0.00000000  1
  Mg  Mg2  1  0.49634700  0.99269300  0.00000000  1
  Mg  Mg3  1  0.18395700  0.36791400  0.50000000  1
  Mg  Mg4  1  0.18395700  0.81604300  0.50000000  1
  Mg  Mg5  1  0.63208600  0.81604300  0.50000000  1
  Mg  Mg6  1  0.66666700  0.33333300  0.50000000  1
loop_
_geom_bond_atom_site_label_1
_geom_bond_atom_site_label_2
_geom_bond_distance
_geom_bond_site_symmetry_2
Cs0 Mg2 3.507997 1_445
Cs0 Mg0 3.507997 1_555
Cs0 Mg1 3.508001 1_445
Cs0 Mg1 3.508001 1_555
Cs0 Mg0 3.508004 1_545
Cs0 Mg2 3.508004 1_545
Cs0 Mg4 3.522897 1_545
Cs0 Mg4 3.522897 1_544
Cs0 Mg3 3.522897 1_554
Cs0 Mg3 3.522897 1_555
Cs0 Mg5 3.522897 1_445
Cs0 Mg5 3.522897 1_444
Mg0 Mg3 3.322210 1_555
Mg0 Mg3 3.322210 1_554
Mg0 Mg4 3.322213 1_555
Mg0 Mg4 3.322213 1_554
Mg0 Mg6 3.420156 1_455
Mg0 Mg6 3.420156 1_454
Mg1 Mg5 3.322213 1_555
Mg1 Mg5 3.322213 1_554
Mg1 Mg3 3.322213 1_555
Mg1 Mg3 3.322213 1_554
Mg1 Mg6 3.420156 1_554
Mg1 Mg6 3.420156 1_555
Mg2 Mg5 3.322210 1_554
Mg2 Mg5 3.322210 1_555
Mg2 Mg4 3.322213 1_555
Mg2 Mg4 3.322213 1_554
Mg2 Mg6 3.420156 1_564
Mg2 Mg6 3.420156 1_565
Mg3 Mg4 3.143822 1_555
Mg3 Mg5 3.143822 1_555
Mg3 Mg6 3.514003 1_455
Mg3 Mg6 3.514010 1_555
Mg4 Mg5 3.143822 1_555
Mg4 Mg6 3.514006 1_455
Mg4 Mg6 3.514006 1_565
Mg5 Mg6 3.514003 1_565
Mg5 Mg6 3.514010 1_555
