# generated using pymatgen
data_LaCo5H4
_symmetry_space_group_name_H-M   'P 1'
_cell_length_a   5.19163145
_cell_length_b   5.19163145
_cell_length_c   4.11251700
_cell_angle_alpha   90.00000000
_cell_angle_beta   90.00000000
_cell_angle_gamma   117.18580238
_symmetry_Int_Tables_number   1
_chemical_formula_structural   LaCo5H4
_chemical_formula_sum   'La1 Co5 H4'
_cell_volume   98.59975277
_cell_formula_units_Z   1
loop_
 _symmetry_equiv_pos_site_id
 _symmetry_equiv_pos_as_xyz
  1  'x, y, z'
loop_
 _atom_site_type_symbol
 _atom_site_label
 _atom_site_symmetry_multiplicity
 _atom_site_fract_x
 _atom_site_fract_y
 _atom_site_fract_z
 _atom_site_occupancy
  La  La0  1  0.00000000  0.00000000  0.99147900  1
  Co  Co0  1  0.50000000  0.50000000  0.50829900  1
  Co  Co1  1  0.50000000  0.00000000  0.50525600  1
  Co  Co2  1  0.00000000  0.50000000  0.50525600  1
  Co  Co3  1  0.63551600  0.36448400  0.01235800  1
  Co  Co4  1  0.36448400  0.63551600  0.01235800  1
  H  H0  1  0.50000000  0.00000000  0.92970900  1
  H  H1  1  0.00000000  0.50000000  0.92970900  1
  H  H2  1  0.85340500  0.14659500  0.48723800  1
  H  H3  1  0.14659500  0.85340500  0.48723800  1
loop_
_geom_bond_atom_site_label_1
_geom_bond_atom_site_label_2
_geom_bond_distance
_geom_bond_site_symmetry_2
Co0 Co4 2.366872 1_555
Co0 Co3 2.366872 1_555
Co0 Co3 2.395701 1_556
Co0 Co4 2.395701 1_556
Co0 Co1 2.595846 1_555
Co0 Co1 2.595846 1_565
Co0 Co2 2.595846 1_555
Co0 Co2 2.595846 1_655
Co1 H3 1.635567 1_545
Co1 H2 1.635567 1_555
Co1 H0 1.745570 1_555
Co2 H3 1.635567 1_555
Co2 H2 1.635567 1_455
Co2 H1 1.745570 1_555
Co3 H0 1.724732 1_554
Co3 H1 1.724732 1_654
Co4 H1 1.724732 1_554
Co4 H0 1.724732 1_564
H0 La0 2.608216 1_555
H0 La0 2.608216 1_655
H1 La0 2.608216 1_555
H1 La0 2.608216 1_565
H2 La0 2.417538 1_654
H2 La0 2.447028 1_655
H3 La0 2.417538 1_564
H3 La0 2.447028 1_565
