# generated using pymatgen
data_GeCN2
_symmetry_space_group_name_H-M   'P 1'
_cell_length_a   3.58760502
_cell_length_b   5.34001933
_cell_length_c   14.76587164
_cell_angle_alpha   22.82289898
_cell_angle_beta   90.00066419
_cell_angle_gamma   70.37222423
_symmetry_Int_Tables_number   1
_chemical_formula_structural   GeCN2
_chemical_formula_sum   'Ge1 C1 N2'
_cell_volume   54.86211177
_cell_formula_units_Z   1
loop_
 _symmetry_equiv_pos_site_id
 _symmetry_equiv_pos_as_xyz
  1  'x, y, z'
loop_
 _atom_site_type_symbol
 _atom_site_label
 _atom_site_symmetry_multiplicity
 _atom_site_fract_x
 _atom_site_fract_y
 _atom_site_fract_z
 _atom_site_occupancy
  Ge  Ge0  1  0.00000042  0.99985473  0.00003875  1
  C  C0  1  -0.00000051  0.00001996  0.49998576  1
  N  N0  1  -0.00000021  0.00001897  0.41604085  1
  N  N1  1  0.00000031  0.00000734  0.58393364  1
loop_
_geom_bond_atom_site_label_1
_geom_bond_atom_site_label_2
_geom_bond_distance
_geom_bond_site_symmetry_2
Ge0 N0 2.404368 1_555
Ge0 N1 2.404466 1_474
Ge0 N1 2.404473 1_645
Ge0 N0 2.404766 1_655
Ge0 N0 2.404776 1_484
Ge0 N1 2.404911 1_574
C0 N1 1.239502 1_555
C0 N0 1.239525 1_555
