# generated using pymatgen
data_Na3Mg2(MoO4)3
_symmetry_space_group_name_H-M   'P 1'
_cell_length_a   9.20309665
_cell_length_b   9.20309665
_cell_length_c   7.19172178
_cell_angle_alpha   74.79048500
_cell_angle_beta   74.79048500
_cell_angle_gamma   95.41729150
_symmetry_Int_Tables_number   1
_chemical_formula_structural   Na3Mg2(MoO4)3
_chemical_formula_sum   'Na6 Mg4 Mo6 O24'
_cell_volume   558.41022379
_cell_formula_units_Z   2
loop_
 _symmetry_equiv_pos_site_id
 _symmetry_equiv_pos_as_xyz
  1  'x, y, z'
loop_
 _atom_site_type_symbol
 _atom_site_label
 _atom_site_symmetry_multiplicity
 _atom_site_fract_x
 _atom_site_fract_y
 _atom_site_fract_z
 _atom_site_occupancy
  Na  Na0  1  0.23568900  0.76431100  0.25000000  1
  Na  Na1  1  0.76431100  0.23568900  0.75000000  1
  Na  Na2  1  0.00000000  0.00000000  0.00000000  1
  Na  Na3  1  0.00000000  0.00000000  0.50000000  1
  Na  Na4  1  0.52887800  0.47112200  0.25000000  1
  Na  Na5  1  0.47112200  0.52887800  0.75000000  1
  Mg  Mg0  1  0.55517300  0.87028200  0.37410700  1
  Mg  Mg1  1  0.44482700  0.12971800  0.62589300  1
  Mg  Mg2  1  0.12971800  0.44482700  0.12589300  1
  Mg  Mg3  1  0.87028200  0.55517300  0.87410700  1
  Mo  Mo0  1  0.78159000  0.21841000  0.25000000  1
  Mo  Mo1  1  0.21841000  0.78159000  0.75000000  1
  Mo  Mo2  1  0.37873300  0.15973100  0.12611600  1
  Mo  Mo3  1  0.62126700  0.84026900  0.87388400  1
  Mo  Mo4  1  0.84026900  0.62126700  0.37388400  1
  Mo  Mo5  1  0.15973100  0.37873300  0.62611600  1
  O  O0  1  0.45630100  0.09760900  0.33773900  1
  O  O1  1  0.54369900  0.90239100  0.66226100  1
  O  O2  1  0.90239100  0.54369900  0.16226100  1
  O  O3  1  0.09760900  0.45630100  0.83773900  1
  O  O4  1  0.50626300  0.84989400  0.11238200  1
  O  O5  1  0.49373700  0.15010600  0.88761800  1
  O  O6  1  0.15010600  0.49373700  0.38761800  1
  O  O7  1  0.84989400  0.50626300  0.61238200  1
  O  O8  1  0.20411400  0.03650000  0.18967200  1
  O  O9  1  0.79588600  0.96350000  0.81032800  1
  O  O10  1  0.96350000  0.79588600  0.31032800  1
  O  O11  1  0.03650000  0.20411400  0.68967200  1
  O  O12  1  0.75749600  0.02093200  0.22655200  1
  O  O13  1  0.24250400  0.97906800  0.77344800  1
  O  O14  1  0.97906800  0.24250400  0.27344800  1
  O  O15  1  0.02093200  0.75749600  0.72655200  1
  O  O16  1  0.65807800  0.26291400  0.47484300  1
  O  O17  1  0.34192200  0.73708600  0.52515700  1
  O  O18  1  0.73708600  0.34192200  0.02515700  1
  O  O19  1  0.26291400  0.65807800  0.97484300  1
  O  O20  1  0.64683100  0.66105900  0.40485700  1
  O  O21  1  0.35316900  0.33894100  0.59514300  1
  O  O22  1  0.33894100  0.35316900  0.09514300  1
  O  O23  1  0.66105900  0.64683100  0.90485700  1
loop_
_geom_bond_atom_site_label_1
_geom_bond_atom_site_label_2
_geom_bond_distance
_geom_bond_site_symmetry_2
Na0 O6 2.393348 1_555
Na0 O4 2.393348 1_555
Na0 O19 2.394932 1_554
Na0 O17 2.394932 1_555
Na0 O10 2.486152 1_455
Na0 O8 2.486152 1_565
Na1 O5 2.393348 1_555
Na1 O7 2.393348 1_555
Na1 O16 2.394932 1_555
Na1 O18 2.394932 1_556
Na1 O9 2.486152 1_545
Na1 O11 2.486152 1_655
Na2 O10 2.431087 1_445
Na2 O11 2.431087 1_554
Na2 O13 2.451638 1_544
Na2 O12 2.451638 1_455
Na2 O8 2.639690 1_555
Na2 O9 2.639690 1_444
Na3 O8 2.431087 1_555
Na3 O9 2.431087 1_445
Na3 O14 2.451638 1_455
Na3 O15 2.451638 1_545
Na3 O10 2.639690 1_445
Na3 O11 2.639690 1_555
Na4 O21 2.488792 1_555
Na4 O23 2.488792 1_554
Na4 O22 2.602252 1_555
Na4 O20 2.602252 1_555
Na4 O18 2.741072 1_555
Na4 O16 2.741072 1_555
Na5 O22 2.488792 1_556
Na5 O20 2.488792 1_555
Na5 O21 2.602252 1_555
Na5 O23 2.602252 1_555
Na5 O17 2.741072 1_555
Na5 O19 2.741072 1_555
Mg0 O12 2.054068 1_565
Mg0 O17 2.064653 1_555
Mg0 O4 2.096332 1_555
Mg0 O1 2.146015 1_555
Mg0 O20 2.156188 1_555
Mg0 O0 2.338915 1_565
Mg1 O13 2.054068 1_545
Mg1 O16 2.064653 1_555
Mg1 O5 2.096332 1_555
Mg1 O0 2.146015 1_555
Mg1 O21 2.156188 1_555
Mg1 O1 2.338915 1_545
Mg2 O14 2.054068 1_455
Mg2 O19 2.064653 1_554
Mg2 O6 2.096332 1_555
Mg2 O3 2.146015 1_554
Mg2 O22 2.156188 1_555
Mg2 O2 2.338915 1_455
Mg3 O15 2.054068 1_655
Mg3 O18 2.064653 1_556
Mg3 O7 2.096332 1_555
Mg3 O2 2.146015 1_556
Mg3 O23 2.156188 1_555
Mg3 O3 2.338915 1_655
Mo0 O12 1.866793 1_555
Mo0 O14 1.866793 1_555
Mo0 O18 1.882957 1_555
Mo0 O16 1.882957 1_555
Mo1 O15 1.866793 1_555
Mo1 O13 1.866793 1_555
Mo1 O17 1.882957 1_555
Mo1 O19 1.882957 1_555
Mo2 O8 1.753895 1_555
Mo2 O5 1.793012 1_554
Mo2 O22 1.819553 1_555
Mo2 O0 1.828475 1_555
Mo3 O9 1.753895 1_555
Mo3 O4 1.793012 1_556
Mo3 O23 1.819553 1_555
Mo3 O1 1.828475 1_555
Mo4 O10 1.753895 1_555
Mo4 O7 1.793012 1_555
Mo4 O20 1.819553 1_555
Mo4 O2 1.828475 1_555
Mo5 O11 1.753895 1_555
Mo5 O6 1.793012 1_555
Mo5 O21 1.819553 1_555
Mo5 O3 1.828475 1_555
