# generated using pymatgen
data_K3GeSe3
_symmetry_space_group_name_H-M   'P 1'
_cell_length_a   7.88971447
_cell_length_b   7.88971349
_cell_length_c   8.46743683
_cell_angle_alpha   104.92228939
_cell_angle_beta   104.92229912
_cell_angle_gamma   109.76356286
_symmetry_Int_Tables_number   1
_chemical_formula_structural   K3GeSe3
_chemical_formula_sum   'K6 Ge2 Se6'
_cell_volume   443.55867066
_cell_formula_units_Z   2
loop_
 _symmetry_equiv_pos_site_id
 _symmetry_equiv_pos_as_xyz
  1  'x, y, z'
loop_
 _atom_site_type_symbol
 _atom_site_label
 _atom_site_symmetry_multiplicity
 _atom_site_fract_x
 _atom_site_fract_y
 _atom_site_fract_z
 _atom_site_occupancy
  K  K0  1  0.50000000  0.00000000  0.00000000  1
  K  K1  1  -0.00000000  0.50000000  0.00000000  1
  K  K2  1  0.21104386  0.21104386  0.68173418  1
  K  K3  1  0.78895614  0.78895614  0.31826582  1
  K  K4  1  0.66288424  0.33711576  0.50000000  1
  K  K5  1  0.33711576  0.66288424  0.50000000  1
  Ge  Ge0  1  0.11595925  0.11595925  0.15130736  1
  Ge  Ge1  1  0.88404075  0.88404075  0.84869264  1
  Se  Se0  1  0.36951326  0.36951326  0.13273371  1
  Se  Se1  1  0.63048674  0.63048674  0.86726629  1
  Se  Se2  1  0.94870506  0.24840891  0.30270481  1
  Se  Se3  1  0.75159109  0.05129494  0.69729519  1
  Se  Se4  1  0.05129494  0.75159109  0.69729519  1
  Se  Se5  1  0.24840891  0.94870506  0.30270481  1
loop_
_geom_bond_atom_site_label_1
_geom_bond_atom_site_label_2
_geom_bond_distance
_geom_bond_site_symmetry_2
K0 Se4 3.315252 1_544
K0 Se2 3.315252 1_555
K0 Se1 3.429360 1_544
K0 Se0 3.429360 1_555
K0 Se3 3.644838 1_554
K0 Se5 3.644838 1_545
K1 Se3 3.315252 1_454
K1 Se5 3.315252 1_555
K1 Se1 3.429360 1_454
K1 Se0 3.429360 1_555
K1 Se4 3.644838 1_554
K1 Se2 3.644838 1_455
K2 Se1 3.407280 1_555
K2 Se0 3.425575 1_556
K2 Se4 3.462356 1_545
K2 Se3 3.462356 1_455
K2 Se2 3.485680 1_455
K2 Se5 3.485680 1_545
K3 Se0 3.407280 1_555
K3 Se1 3.425575 1_554
K3 Se2 3.462356 1_565
K3 Se5 3.462356 1_655
K3 Se4 3.485680 1_655
K3 Se3 3.485680 1_565
K4 Se4 3.263139 1_655
K4 Se5 3.263139 1_545
K4 Se3 3.281961 1_555
K4 Se2 3.281962 1_555
K4 Se0 3.492284 1_555
K4 Se1 3.492284 1_555
K5 Se2 3.263139 1_455
K5 Se3 3.263139 1_565
K5 Se5 3.281961 1_555
K5 Se4 3.281962 1_555
K5 Se1 3.492284 1_555
K5 Se0 3.492284 1_555
Ge0 Se5 2.364437 1_545
Ge0 Se2 2.364437 1_455
Ge0 Se0 2.376166 1_555
Ge1 Se3 2.364437 1_565
Ge1 Se4 2.364437 1_655
Ge1 Se1 2.376166 1_555
