# generated using pymatgen
data_CsMg14B
_symmetry_space_group_name_H-M   'P 1'
_cell_length_a   6.72575763
_cell_length_b   6.36461275
_cell_length_c   10.36932562
_cell_angle_alpha   90.00000000
_cell_angle_beta   90.00000000
_cell_angle_gamma   118.23910750
_symmetry_Int_Tables_number   1
_chemical_formula_structural   CsMg14B
_chemical_formula_sum   'Cs1 Mg14 B1'
_cell_volume   391.04803385
_cell_formula_units_Z   1
loop_
 _symmetry_equiv_pos_site_id
 _symmetry_equiv_pos_as_xyz
  1  'x, y, z'
loop_
 _atom_site_type_symbol
 _atom_site_label
 _atom_site_symmetry_multiplicity
 _atom_site_fract_x
 _atom_site_fract_y
 _atom_site_fract_z
 _atom_site_occupancy
  Cs  Cs0  1  0.10142524  0.30071212  0.12500000  1
  Mg  Mg0  1  0.17313413  0.33656656  0.62500000  1
  Mg  Mg1  1  0.16112161  0.83056031  0.62500000  1
  Mg  Mg2  1  0.61150850  0.30705642  0.12500000  1
  Mg  Mg3  1  0.65982062  0.33694360  0.62500000  1
  Mg  Mg4  1  0.61150850  0.80445108  0.12500000  1
  Mg  Mg5  1  0.65982062  0.82287602  0.62500000  1
  Mg  Mg6  1  0.34191130  0.15638948  0.37939022  1
  Mg  Mg7  1  0.34191130  0.15638948  0.87060978  1
  Mg  Mg8  1  0.34191130  0.68552282  0.37939022  1
  Mg  Mg9  1  0.34191130  0.68552282  0.87060978  1
  Mg  Mg10  1  0.81753480  0.15876790  0.40097260  1
  Mg  Mg11  1  0.81753480  0.15876790  0.84902740  1
  Mg  Mg12  1  0.84748056  0.67374078  0.35531143  1
  Mg  Mg13  1  0.84748056  0.67374078  0.89468857  1
  B  B0  1  0.32398489  0.91199194  0.12500000  1
loop_
_geom_bond_atom_site_label_1
_geom_bond_atom_site_label_2
_geom_bond_distance
_geom_bond_site_symmetry_2
Cs0 Mg4 3.314357 1_445
Cs0 Mg2 3.314358 1_455
Cs0 Mg10 3.319425 1_455
Cs0 Mg11 3.319425 1_454
Cs0 Mg4 3.411776 1_555
Cs0 Mg2 3.411776 1_555
Cs0 Mg7 3.438622 1_554
Cs0 Mg6 3.438622 1_555
Cs0 Mg9 3.438628 1_554
Cs0 Mg8 3.438628 1_555
Mg0 Mg11 3.136227 1_455
Mg0 Mg10 3.136227 1_455
Mg0 Mg1 3.183102 1_545
Mg0 Mg1 3.183102 1_555
Mg0 Mg6 3.212741 1_555
Mg0 Mg7 3.212741 1_555
Mg0 Mg8 3.212748 1_555
Mg0 Mg9 3.212748 1_555
Mg0 Mg5 3.272200 1_555
Mg0 Mg3 3.272201 1_555
Mg0 Mg5 3.453558 1_445
Mg0 Mg3 3.453558 1_455
Mg1 Mg8 3.143098 1_555
Mg1 Mg9 3.143098 1_555
Mg1 Mg6 3.143104 1_565
Mg1 Mg7 3.143104 1_565
Mg1 Mg3 3.348765 1_455
Mg1 Mg5 3.348765 1_455
Mg1 Mg12 3.357681 1_455
Mg1 Mg13 3.357681 1_455
Mg1 Mg3 3.377544 1_565
Mg1 Mg5 3.377544 1_555
Mg3 Mg5 3.092772 1_555
Mg3 Mg6 3.170716 1_555
Mg3 Mg7 3.170716 1_555
Mg3 Mg5 3.271841 1_545
Mg5 Mg8 3.170717 1_555
Mg5 Mg9 3.170717 1_555
Mg10 Mg3 2.990968 1_555
Mg10 Mg5 2.990975 1_545
Mg10 Mg8 3.199630 1_545
Mg10 Mg6 3.199630 1_555
Mg10 Mg12 3.222225 1_555
Mg10 Mg12 3.222225 1_545
Mg11 Mg3 2.990968 1_555
Mg11 Mg5 2.990975 1_545
Mg11 Mg9 3.199630 1_545
Mg11 Mg7 3.199630 1_555
Mg11 Mg13 3.222225 1_555
Mg11 Mg13 3.222225 1_545
Mg12 Mg4 3.188066 1_555
Mg12 Mg2 3.188072 1_555
Mg12 Mg6 3.300062 1_665
Mg12 Mg8 3.300063 1_655
Mg12 Mg5 3.383495 1_555
Mg12 Mg3 3.383500 1_555
Mg12 Mg6 3.445510 1_555
Mg12 Mg8 3.445511 1_555
Mg13 Mg4 3.188066 1_556
Mg13 Mg2 3.188072 1_556
Mg13 Mg7 3.300062 1_665
Mg13 Mg9 3.300063 1_655
Mg13 Mg5 3.383495 1_555
Mg13 Mg3 3.383500 1_555
Mg13 Mg7 3.445510 1_555
Mg13 Mg9 3.445511 1_555
B0 Mg2 2.336804 1_565
B0 Mg4 2.336805 1_555
B0 Cs0 3.444722 1_555
B0 Cs0 3.444722 1_565
