# generated using pymatgen
data_FeCoPt2
_symmetry_space_group_name_H-M   'P 1'
_cell_length_a   5.34103800
_cell_length_b   5.34103800
_cell_length_c   14.64079000
_cell_angle_alpha   90.00000000
_cell_angle_beta   90.00000000
_cell_angle_gamma   90.00000000
_symmetry_Int_Tables_number   1
_chemical_formula_structural   FeCoPt2
_chemical_formula_sum   'Fe8 Co8 Pt16'
_cell_volume   417.65323255
_cell_formula_units_Z   8
loop_
 _symmetry_equiv_pos_site_id
 _symmetry_equiv_pos_as_xyz
  1  'x, y, z'
loop_
 _atom_site_type_symbol
 _atom_site_label
 _atom_site_symmetry_multiplicity
 _atom_site_fract_x
 _atom_site_fract_y
 _atom_site_fract_z
 _atom_site_occupancy
  Fe  Fe0_0  1  0.00000000  0.00000000  0.25000000  1
  Fe  Fe0_1  1  0.00000000  0.00000000  0.75000000  1
  Fe  Fe0_2  1  0.00000000  0.50000000  0.25000000  1
  Fe  Fe0_3  1  0.00000000  0.50000000  0.75000000  1
  Fe  Fe0_4  1  0.50000000  0.00000000  0.25000000  1
  Fe  Fe0_5  1  0.50000000  0.00000000  0.75000000  1
  Fe  Fe0_6  1  0.50000000  0.50000000  0.25000000  1
  Fe  Fe0_7  1  0.50000000  0.50000000  0.75000000  1
  Co  Co0_0  1  0.00000000  0.00000000  0.00000000  1
  Co  Co0_1  1  0.00000000  0.00000000  0.50000000  1
  Co  Co0_2  1  0.00000000  0.50000000  0.00000000  1
  Co  Co0_3  1  0.00000000  0.50000000  0.50000000  1
  Co  Co0_4  1  0.50000000  0.00000000  0.00000000  1
  Co  Co0_5  1  0.50000000  0.00000000  0.50000000  1
  Co  Co0_6  1  0.50000000  0.50000000  0.00000000  1
  Co  Co0_7  1  0.50000000  0.50000000  0.50000000  1
  Pt  Pt0_0  1  0.25000000  0.25000000  0.37464450  1
  Pt  Pt0_1  1  0.25000000  0.25000000  0.87464450  1
  Pt  Pt0_2  1  0.25000000  0.75000000  0.37464450  1
  Pt  Pt0_3  1  0.25000000  0.75000000  0.87464450  1
  Pt  Pt0_4  1  0.75000000  0.25000000  0.37464450  1
  Pt  Pt0_5  1  0.75000000  0.25000000  0.87464450  1
  Pt  Pt0_6  1  0.75000000  0.75000000  0.37464450  1
  Pt  Pt0_7  1  0.75000000  0.75000000  0.87464450  1
  Pt  Pt1_0  1  0.25000000  0.25000000  0.12535550  1
  Pt  Pt1_1  1  0.25000000  0.25000000  0.62535550  1
  Pt  Pt1_2  1  0.25000000  0.75000000  0.12535550  1
  Pt  Pt1_3  1  0.25000000  0.75000000  0.62535550  1
  Pt  Pt1_4  1  0.75000000  0.25000000  0.12535550  1
  Pt  Pt1_5  1  0.75000000  0.25000000  0.62535550  1
  Pt  Pt1_6  1  0.75000000  0.75000000  0.12535550  1
  Pt  Pt1_7  1  0.75000000  0.75000000  0.62535550  1
loop_
_geom_bond_atom_site_label_1
_geom_bond_atom_site_label_2
_geom_bond_distance
_geom_bond_site_symmetry_2
Fe0_0 Pt1_0 2.626038 1_555
Fe0_0 Pt0_4 2.626038 1_455
Fe0_0 Pt0_2 2.626038 1_545
Fe0_0 Pt0_0 2.626038 1_555
Fe0_0 Pt1_2 2.626038 1_545
Fe0_0 Pt1_4 2.626038 1_455
Fe0_0 Pt1_6 2.626038 1_445
Fe0_0 Pt0_6 2.626038 1_445
Fe0_0 Fe0_2 2.670519 1_555
Fe0_0 Fe0_2 2.670519 1_545
Fe0_0 Fe0_4 2.670519 1_555
Fe0_0 Fe0_4 2.670519 1_455
Fe0_1 Pt1_1 2.626038 1_555
Fe0_1 Pt1_5 2.626038 1_455
Fe0_1 Pt1_3 2.626038 1_545
Fe0_1 Pt1_7 2.626038 1_445
Fe0_1 Pt0_1 2.626038 1_555
Fe0_1 Pt0_5 2.626038 1_455
Fe0_1 Pt0_3 2.626038 1_545
Fe0_1 Pt0_7 2.626038 1_445
Fe0_1 Fe0_5 2.670519 1_455
Fe0_1 Fe0_5 2.670519 1_555
Fe0_1 Fe0_3 2.670519 1_545
Fe0_1 Fe0_3 2.670519 1_555
Fe0_2 Pt1_2 2.626038 1_555
Fe0_2 Pt0_2 2.626038 1_555
Fe0_2 Pt0_6 2.626038 1_455
Fe0_2 Pt1_6 2.626038 1_455
Fe0_2 Pt0_4 2.626038 1_455
Fe0_2 Pt0_0 2.626038 1_555
Fe0_2 Pt1_4 2.626038 1_455
Fe0_2 Pt1_0 2.626038 1_555
Fe0_2 Fe0_6 2.670519 1_455
Fe0_2 Fe0_6 2.670519 1_555
Fe0_3 Pt1_3 2.626038 1_555
Fe0_3 Pt1_1 2.626038 1_555
Fe0_3 Pt1_7 2.626038 1_455
Fe0_3 Pt1_5 2.626038 1_455
Fe0_3 Pt0_7 2.626038 1_455
Fe0_3 Pt0_1 2.626038 1_555
Fe0_3 Pt0_3 2.626038 1_555
Fe0_3 Pt0_5 2.626038 1_455
Fe0_3 Fe0_7 2.670519 1_555
Fe0_3 Fe0_7 2.670519 1_455
Fe0_4 Pt0_4 2.626038 1_555
Fe0_4 Pt1_4 2.626038 1_555
Fe0_4 Pt1_6 2.626038 1_545
Fe0_4 Pt0_2 2.626038 1_545
Fe0_4 Pt0_0 2.626038 1_555
Fe0_4 Pt0_6 2.626038 1_545
Fe0_4 Pt1_2 2.626038 1_545
Fe0_4 Pt1_0 2.626038 1_555
Fe0_4 Fe0_6 2.670519 1_545
Fe0_4 Fe0_6 2.670519 1_555
Fe0_5 Pt1_5 2.626038 1_555
Fe0_5 Pt1_1 2.626038 1_555
Fe0_5 Pt1_7 2.626038 1_545
Fe0_5 Pt1_3 2.626038 1_545
Fe0_5 Pt0_1 2.626038 1_555
Fe0_5 Pt0_5 2.626038 1_555
Fe0_5 Pt0_7 2.626038 1_545
Fe0_5 Pt0_3 2.626038 1_545
Fe0_5 Fe0_7 2.670519 1_555
Fe0_5 Fe0_7 2.670519 1_545
Fe0_6 Pt1_6 2.626038 1_555
Fe0_6 Pt0_6 2.626038 1_555
Fe0_6 Pt1_2 2.626038 1_555
Fe0_6 Pt0_4 2.626038 1_555
Fe0_6 Pt0_2 2.626038 1_555
Fe0_6 Pt1_4 2.626038 1_555
Fe0_6 Pt0_0 2.626038 1_555
Fe0_6 Pt1_0 2.626038 1_555
Fe0_7 Pt1_7 2.626038 1_555
Fe0_7 Pt1_3 2.626038 1_555
Fe0_7 Pt1_5 2.626038 1_555
Fe0_7 Pt1_1 2.626038 1_555
Fe0_7 Pt0_7 2.626038 1_555
Fe0_7 Pt0_1 2.626038 1_555
Fe0_7 Pt0_5 2.626038 1_555
Fe0_7 Pt0_3 2.626038 1_555
Co0_0 Pt1_2 2.633282 1_545
Co0_0 Pt1_0 2.633282 1_555
Co0_0 Pt1_4 2.633282 1_455
Co0_0 Pt1_6 2.633282 1_445
Co0_0 Pt0_1 2.633282 1_554
Co0_0 Pt0_3 2.633282 1_544
Co0_0 Pt0_5 2.633282 1_454
Co0_0 Pt0_7 2.633282 1_444
Co0_0 Co0_4 2.670519 1_455
Co0_0 Co0_4 2.670519 1_555
Co0_0 Co0_2 2.670519 1_555
Co0_0 Co0_2 2.670519 1_545
Co0_1 Pt0_4 2.633282 1_455
Co0_1 Pt0_2 2.633282 1_545
Co0_1 Pt1_1 2.633282 1_555
Co0_1 Pt1_3 2.633282 1_545
Co0_1 Pt1_5 2.633282 1_455
Co0_1 Pt0_0 2.633282 1_555
Co0_1 Pt0_6 2.633282 1_445
Co0_1 Pt1_7 2.633282 1_445
Co0_1 Co0_3 2.670519 1_545
Co0_1 Co0_3 2.670519 1_555
Co0_1 Co0_5 2.670519 1_455
Co0_1 Co0_5 2.670519 1_555
Co0_2 Pt1_2 2.633282 1_555
Co0_2 Pt1_0 2.633282 1_555
Co0_2 Pt1_4 2.633282 1_455
Co0_2 Pt0_3 2.633282 1_554
Co0_2 Pt1_6 2.633282 1_455
Co0_2 Pt0_7 2.633282 1_454
Co0_2 Pt0_1 2.633282 1_554
Co0_2 Pt0_5 2.633282 1_454
Co0_2 Co0_6 2.670519 1_555
Co0_2 Co0_6 2.670519 1_455
Co0_3 Pt0_2 2.633282 1_555
Co0_3 Pt1_3 2.633282 1_555
Co0_3 Pt0_4 2.633282 1_455
Co0_3 Pt1_1 2.633282 1_555
Co0_3 Pt1_5 2.633282 1_455
Co0_3 Pt0_0 2.633282 1_555
Co0_3 Pt1_7 2.633282 1_455
Co0_3 Pt0_6 2.633282 1_455
Co0_3 Co0_7 2.670519 1_455
Co0_3 Co0_7 2.670519 1_555
Co0_4 Pt1_4 2.633282 1_555
Co0_4 Pt1_2 2.633282 1_545
Co0_4 Pt1_0 2.633282 1_555
Co0_4 Pt1_6 2.633282 1_545
Co0_4 Pt0_5 2.633282 1_554
Co0_4 Pt0_7 2.633282 1_544
Co0_4 Pt0_1 2.633282 1_554
Co0_4 Pt0_3 2.633282 1_544
Co0_4 Co0_6 2.670519 1_555
Co0_4 Co0_6 2.670519 1_545
Co0_5 Pt0_4 2.633282 1_555
Co0_5 Pt1_5 2.633282 1_555
Co0_5 Pt1_1 2.633282 1_555
Co0_5 Pt0_2 2.633282 1_545
Co0_5 Pt1_3 2.633282 1_545
Co0_5 Pt1_7 2.633282 1_545
Co0_5 Pt0_0 2.633282 1_555
Co0_5 Pt0_6 2.633282 1_545
Co0_5 Co0_7 2.670519 1_555
Co0_5 Co0_7 2.670519 1_545
Co0_6 Pt1_6 2.633282 1_555
Co0_6 Pt1_4 2.633282 1_555
Co0_6 Pt1_2 2.633282 1_555
Co0_6 Pt0_7 2.633282 1_554
Co0_6 Pt1_0 2.633282 1_555
Co0_6 Pt0_5 2.633282 1_554
Co0_6 Pt0_3 2.633282 1_554
Co0_6 Pt0_1 2.633282 1_554
Co0_7 Pt0_6 2.633282 1_555
Co0_7 Pt1_7 2.633282 1_555
Co0_7 Pt0_2 2.633282 1_555
Co0_7 Pt1_3 2.633282 1_555
Co0_7 Pt0_4 2.633282 1_555
Co0_7 Pt1_5 2.633282 1_555
Co0_7 Pt1_1 2.633282 1_555
Co0_7 Pt0_0 2.633282 1_555
Pt0_0 Pt0_4 2.670519 1_555
Pt0_0 Pt0_2 2.670519 1_555
Pt0_0 Pt0_4 2.670519 1_455
Pt0_0 Pt0_2 2.670519 1_545
Pt0_1 Pt0_5 2.670519 1_555
Pt0_1 Pt0_3 2.670519 1_555
Pt0_1 Pt0_3 2.670519 1_545
Pt0_1 Pt0_5 2.670519 1_455
Pt0_2 Pt0_6 2.670519 1_555
Pt0_2 Pt0_6 2.670519 1_455
Pt0_3 Pt0_7 2.670519 1_555
Pt0_3 Pt0_7 2.670519 1_455
Pt0_4 Pt0_6 2.670519 1_555
Pt0_4 Pt0_6 2.670519 1_545
Pt0_5 Pt0_7 2.670519 1_555
Pt0_5 Pt0_7 2.670519 1_545
Pt1_0 Pt1_4 2.670519 1_555
Pt1_0 Pt1_2 2.670519 1_555
Pt1_0 Pt1_2 2.670519 1_545
Pt1_0 Pt1_4 2.670519 1_455
Pt1_1 Pt1_3 2.670519 1_555
Pt1_1 Pt1_5 2.670519 1_555
Pt1_1 Pt1_5 2.670519 1_455
Pt1_1 Pt1_3 2.670519 1_545
Pt1_2 Pt1_6 2.670519 1_555
Pt1_2 Pt1_6 2.670519 1_455
Pt1_3 Pt1_7 2.670519 1_555
Pt1_3 Pt1_7 2.670519 1_455
Pt1_4 Pt1_6 2.670519 1_555
Pt1_4 Pt1_6 2.670519 1_545
Pt1_5 Pt1_7 2.670519 1_555
Pt1_5 Pt1_7 2.670519 1_545
