# generated using pymatgen
data_Bi4Ir
_symmetry_space_group_name_H-M   'P 1'
_cell_length_a   7.55545284
_cell_length_b   15.35256535
_cell_length_c   15.35256458
_cell_angle_alpha   117.36354362
_cell_angle_beta   99.44165419
_cell_angle_gamma   99.44165378
_symmetry_Int_Tables_number   1
_chemical_formula_structural   Bi4Ir
_chemical_formula_sum   'Bi36 Ir9'
_cell_volume   1500.74170164
_cell_formula_units_Z   9
loop_
 _symmetry_equiv_pos_site_id
 _symmetry_equiv_pos_as_xyz
  1  'x, y, z'
loop_
 _atom_site_type_symbol
 _atom_site_label
 _atom_site_symmetry_multiplicity
 _atom_site_fract_x
 _atom_site_fract_y
 _atom_site_fract_z
 _atom_site_occupancy
  Bi  Bi0  1  0.37162881  0.41064680  0.11671038  1
  Bi  Bi1  1  0.25491943  0.88328962  0.29393542  1
  Bi  Bi2  1  0.96098401  0.70606458  0.58935320  1
  Bi  Bi3  1  0.37162881  0.11671038  0.41064680  1
  Bi  Bi4  1  0.96098401  0.58935320  0.70606458  1
  Bi  Bi5  1  0.25491943  0.29393542  0.88328962  1
  Bi  Bi6  1  0.62837119  0.58935320  0.88328962  1
  Bi  Bi7  1  0.74508057  0.11671038  0.70606458  1
  Bi  Bi8  1  0.03901699  0.29393542  0.41064680  1
  Bi  Bi9  1  0.62837119  0.88328962  0.58935320  1
  Bi  Bi10  1  0.03901699  0.41064680  0.29393542  1
  Bi  Bi11  1  0.74508057  0.70606458  0.11671038  1
  Bi  Bi12  1  0.31682427  0.63348683  0.12729685  1
  Bi  Bi13  1  0.18952742  0.87270315  0.50618898  1
  Bi  Bi14  1  0.68333744  0.49381102  0.36651317  1
  Bi  Bi15  1  0.31682427  0.12729685  0.63348683  1
  Bi  Bi16  1  0.68333744  0.36651317  0.49381102  1
  Bi  Bi17  1  0.18952742  0.50618898  0.87270315  1
  Bi  Bi18  1  0.68317573  0.36651317  0.87270315  1
  Bi  Bi19  1  0.81047258  0.12729685  0.49381102  1
  Bi  Bi20  1  0.31666256  0.50618898  0.63348683  1
  Bi  Bi21  1  0.68317573  0.87270315  0.36651317  1
  Bi  Bi22  1  0.31666256  0.63348683  0.50618898  1
  Bi  Bi23  1  0.81047258  0.49381102  0.12729685  1
  Bi  Bi24  1  0.77640849  0.16970745  0.16970745  1
  Bi  Bi25  1  0.60670003  0.83029255  0.00000000  1
  Bi  Bi26  1  0.60670003  -0.00000000  0.83029255  1
  Bi  Bi27  1  0.22359151  0.83029255  0.83029255  1
  Bi  Bi28  1  0.39329997  0.16970745  -0.00000000  1
  Bi  Bi29  1  0.39329997  0.00000000  0.16970745  1
  Bi  Bi30  1  0.56045371  0.73211448  0.73211448  1
  Bi  Bi31  1  0.82833923  0.26788552  0.00000000  1
  Bi  Bi32  1  0.82833923  0.00000000  0.26788552  1
  Bi  Bi33  1  0.43954629  0.26788552  0.26788552  1
  Bi  Bi34  1  0.17166077  0.73211448  -0.00000000  1
  Bi  Bi35  1  0.17166077  -0.00000000  0.73211448  1
  Ir  Ir0  1  0.33091689  0.83091689  0.66183177  1
  Ir  Ir1  1  0.66908311  0.33816823  0.16908311  1
  Ir  Ir2  1  0.50000000  0.83091689  0.16908311  1
  Ir  Ir3  1  0.33091689  0.66183177  0.83091689  1
  Ir  Ir4  1  0.50000000  0.16908311  0.83091689  1
  Ir  Ir5  1  0.66908311  0.16908311  0.33816823  1
  Ir  Ir6  1  0.50000000  0.50000000  0.00000000  1
  Ir  Ir7  1  0.50000000  0.00000000  0.50000000  1
  Ir  Ir8  1  0.00000000  0.50000000  0.50000000  1
loop_
_geom_bond_atom_site_label_1
_geom_bond_atom_site_label_2
_geom_bond_distance
_geom_bond_site_symmetry_2
Bi0 Ir1 2.825874 1_555
Bi0 Ir6 2.902813 1_555
Bi1 Ir2 2.825878 1_555
Bi1 Ir7 2.902821 1_565
Bi2 Ir0 2.825879 1_655
Bi2 Ir8 2.902821 1_655
Bi3 Ir5 2.825874 1_555
Bi3 Ir7 2.902813 1_555
Bi4 Ir3 2.825879 1_655
Bi4 Ir8 2.902821 1_655
Bi5 Ir4 2.825878 1_555
Bi5 Ir6 2.902821 1_556
Bi6 Ir3 2.825874 1_555
Bi6 Ir6 2.902813 1_556
Bi7 Ir4 2.825878 1_555
Bi7 Ir7 2.902821 1_555
Bi8 Ir5 2.825885 1_455
Bi8 Ir8 2.902823 1_555
Bi9 Ir0 2.825874 1_555
Bi9 Ir7 2.902813 1_565
Bi10 Ir1 2.825885 1_455
Bi10 Ir8 2.902823 1_555
Bi11 Ir2 2.825878 1_555
Bi11 Ir6 2.902821 1_555
Bi12 Ir2 2.838864 1_555
Bi12 Ir6 2.840921 1_555
Bi13 Ir0 2.838850 1_555
Bi13 Ir7 2.840914 1_565
Bi14 Ir1 2.838858 1_555
Bi14 Ir8 2.840928 1_655
Bi15 Ir4 2.838864 1_555
Bi15 Ir7 2.840921 1_555
Bi16 Ir5 2.838858 1_555
Bi16 Ir8 2.840928 1_655
Bi17 Ir3 2.838850 1_555
Bi17 Ir6 2.840914 1_556
Bi18 Ir4 2.838864 1_555
Bi18 Ir6 2.840921 1_556
Bi19 Ir5 2.838850 1_555
Bi19 Ir7 2.840914 1_555
Bi20 Ir3 2.838858 1_555
Bi20 Ir8 2.840928 1_555
Bi21 Ir2 2.838864 1_555
Bi21 Ir7 2.840921 1_565
Bi22 Ir0 2.838858 1_555
Bi22 Ir8 2.840928 1_555
Bi23 Ir1 2.838850 1_555
Bi23 Ir6 2.840914 1_555
Bi24 Ir5 2.838119 1_555
Bi24 Ir1 2.838119 1_555
Bi25 Ir2 2.838086 1_555
Bi25 Ir3 2.838097 1_554
Bi26 Ir4 2.838086 1_555
Bi26 Ir0 2.838097 1_545
Bi27 Ir0 2.838119 1_555
Bi27 Ir3 2.838119 1_555
Bi28 Ir4 2.838086 1_554
Bi28 Ir1 2.838097 1_555
Bi29 Ir2 2.838086 1_545
Bi29 Ir5 2.838097 1_555
Bi30 Ir3 2.868196 1_555
Bi30 Ir0 2.868196 1_555
Bi31 Ir4 2.868180 1_554
Bi31 Ir1 2.868181 1_555
Bi32 Ir2 2.868180 1_545
Bi32 Ir5 2.868181 1_555
Bi33 Ir1 2.868196 1_555
Bi33 Ir5 2.868196 1_555
Bi34 Ir2 2.868180 1_555
Bi34 Ir3 2.868181 1_554
Bi35 Ir4 2.868180 1_555
Bi35 Ir0 2.868181 1_545
