# generated using pymatgen
data_K(SnAs)3
_symmetry_space_group_name_H-M   'P 1'
_cell_length_a   4.17402100
_cell_length_b   10.40672600
_cell_length_c   19.62097800
_cell_angle_alpha   90.00000000
_cell_angle_beta   90.00000000
_cell_angle_gamma   90.00000000
_symmetry_Int_Tables_number   1
_chemical_formula_structural   K(SnAs)3
_chemical_formula_sum   'K4 Sn12 As12'
_cell_volume   852.29394028
_cell_formula_units_Z   4
loop_
 _symmetry_equiv_pos_site_id
 _symmetry_equiv_pos_as_xyz
  1  'x, y, z'
loop_
 _atom_site_type_symbol
 _atom_site_label
 _atom_site_symmetry_multiplicity
 _atom_site_fract_x
 _atom_site_fract_y
 _atom_site_fract_z
 _atom_site_occupancy
  K  K0  1  0.75000000  0.28500900  0.95863400  1
  K  K1  1  0.75000000  0.78500900  0.54136600  1
  K  K2  1  0.25000000  0.71499100  0.04136600  1
  K  K3  1  0.25000000  0.21499100  0.45863400  1
  Sn  Sn0  1  0.75000000  0.17131100  0.64883400  1
  Sn  Sn1  1  0.75000000  0.67131100  0.85116600  1
  Sn  Sn2  1  0.25000000  0.82868900  0.35116600  1
  Sn  Sn3  1  0.25000000  0.32868900  0.14883400  1
  Sn  Sn4  1  0.75000000  0.11018200  0.25828500  1
  Sn  Sn5  1  0.75000000  0.61018200  0.24171500  1
  Sn  Sn6  1  0.25000000  0.88981800  0.74171500  1
  Sn  Sn7  1  0.25000000  0.38981800  0.75828500  1
  Sn  Sn8  1  0.75000000  0.98235200  0.12168700  1
  Sn  Sn9  1  0.75000000  0.48235200  0.37831300  1
  Sn  Sn10  1  0.25000000  0.01764800  0.87831300  1
  Sn  Sn11  1  0.25000000  0.51764800  0.62168700  1
  As  As0  1  0.75000000  0.48437700  0.12069800  1
  As  As1  1  0.75000000  0.98437700  0.37930200  1
  As  As2  1  0.25000000  0.51562300  0.87930200  1
  As  As3  1  0.25000000  0.01562300  0.62069800  1
  As  As4  1  0.75000000  0.37376500  0.56817300  1
  As  As5  1  0.75000000  0.87376500  0.93182700  1
  As  As6  1  0.25000000  0.62623500  0.43182700  1
  As  As7  1  0.25000000  0.12623500  0.06817300  1
  As  As8  1  0.75000000  0.22642400  0.78115600  1
  As  As9  1  0.75000000  0.72642400  0.71884400  1
  As  As10  1  0.25000000  0.77357600  0.21884400  1
  As  As11  1  0.25000000  0.27357600  0.28115600  1
loop_
_geom_bond_atom_site_label_1
_geom_bond_atom_site_label_2
_geom_bond_distance
_geom_bond_site_symmetry_2
K0 Sn10 3.818482 1_655
K0 Sn10 3.818482 1_555
K1 Sn11 3.818482 1_655
K1 Sn11 3.818482 1_555
K2 Sn8 3.818482 1_455
K2 Sn8 3.818482 1_555
K3 Sn9 3.818482 1_555
K3 Sn9 3.818482 1_455
Sn4 Sn8 2.992169 1_545
Sn5 Sn9 2.992169 1_555
Sn10 Sn6 2.992169 1_545
Sn11 Sn7 2.992169 1_555
As0 Sn3 2.699154 1_555
As0 Sn3 2.699154 1_655
As0 Sn5 2.711488 1_555
As0 K2 3.540935 1_655
As0 K2 3.540935 1_555
As0 K0 3.796859 1_554
As1 Sn2 2.699154 1_555
As1 Sn2 2.699154 1_655
As1 Sn4 2.711488 1_565
As1 K3 3.540935 1_565
As1 K3 3.540935 1_665
As1 K1 3.796859 1_555
As2 Sn1 2.699154 1_555
As2 Sn1 2.699154 1_455
As2 Sn7 2.711488 1_555
As2 K0 3.540935 1_455
As2 K0 3.540935 1_555
As2 K2 3.796859 1_556
As3 Sn0 2.699154 1_555
As3 Sn0 2.699154 1_455
As3 Sn6 2.711488 1_545
As3 K1 3.540935 1_445
As3 K1 3.540935 1_545
As3 K3 3.796859 1_555
As4 Sn0 2.635096 1_555
As4 Sn11 2.774917 1_555
As4 Sn11 2.774917 1_655
As4 K3 3.421271 1_655
As4 K3 3.421271 1_555
As5 Sn1 2.635096 1_555
As5 Sn10 2.774917 1_565
As5 Sn10 2.774917 1_665
As5 K2 3.421271 1_556
As5 K2 3.421271 1_656
As6 Sn2 2.635096 1_555
As6 Sn9 2.774917 1_555
As6 Sn9 2.774917 1_455
As6 K1 3.421271 1_455
As6 K1 3.421271 1_555
As7 Sn3 2.635096 1_555
As7 Sn8 2.774917 1_445
As7 Sn8 2.774917 1_545
As7 K0 3.421271 1_554
As7 K0 3.421271 1_454
As8 Sn0 2.658883 1_555
As8 Sn7 2.729165 1_555
As8 Sn7 2.729165 1_655
As8 K0 3.535260 1_555
As9 Sn1 2.658883 1_555
As9 Sn6 2.729165 1_655
As9 Sn6 2.729165 1_555
As9 K1 3.535260 1_555
As10 Sn2 2.658883 1_555
As10 Sn5 2.729165 1_555
As10 Sn5 2.729165 1_455
As10 K2 3.535260 1_555
As11 Sn3 2.658883 1_555
As11 Sn4 2.729165 1_455
As11 Sn4 2.729165 1_555
As11 K3 3.535260 1_555
