# generated using pymatgen
data_Ce2SbAu3
_symmetry_space_group_name_H-M   'P 1'
_cell_length_a   3.59702600
_cell_length_b   4.79773400
_cell_length_c   8.43998300
_cell_angle_alpha   90.00000000
_cell_angle_beta   90.00000000
_cell_angle_gamma   90.00000000
_symmetry_Int_Tables_number   1
_chemical_formula_structural   Ce2SbAu3
_chemical_formula_sum   'Ce2 Sb1 Au3'
_cell_volume   145.65363067
_cell_formula_units_Z   1
loop_
 _symmetry_equiv_pos_site_id
 _symmetry_equiv_pos_as_xyz
  1  'x, y, z'
loop_
 _atom_site_type_symbol
 _atom_site_label
 _atom_site_symmetry_multiplicity
 _atom_site_fract_x
 _atom_site_fract_y
 _atom_site_fract_z
 _atom_site_occupancy
  Ce  Ce0  1  0.00000000  0.00000000  0.98344200  1
  Ce  Ce1  1  0.00000000  0.50000000  0.51839700  1
  Sb  Sb0  1  0.50000000  0.00000000  0.33342400  1
  Au  Au0  1  0.50000000  0.50000000  0.83410300  1
  Au  Au1  1  0.50000000  0.50000000  0.16227200  1
  Au  Au2  1  0.50000000  0.00000000  0.66836200  1
loop_
_geom_bond_atom_site_label_1
_geom_bond_atom_site_label_2
_geom_bond_distance
_geom_bond_site_symmetry_2
Ce0 Sb0 3.458299 1_456
Ce0 Sb0 3.458299 1_556
Ce1 Sb0 3.380305 1_465
Ce1 Sb0 3.380305 1_455
Ce1 Sb0 3.380305 1_555
Ce1 Sb0 3.380305 1_565
Au0 Au1 2.769741 1_556
Au0 Au2 2.776931 1_555
Au0 Au2 2.776931 1_565
Au0 Ce1 3.214731 1_555
Au0 Ce1 3.214731 1_655
Au0 Ce0 3.252363 1_655
Au0 Ce0 3.252363 1_665
Au0 Ce0 3.252363 1_565
Au0 Ce0 3.252363 1_555
Au1 Sb0 2.800214 1_555
Au1 Sb0 2.800214 1_565
Au1 Ce0 3.356675 1_554
Au1 Ce0 3.356675 1_664
Au1 Ce0 3.356675 1_564
Au1 Ce0 3.356675 1_654
Au1 Ce1 3.502687 1_555
Au1 Ce1 3.502687 1_655
Au2 Sb0 2.826871 1_555
Au2 Ce0 3.210353 1_555
Au2 Ce0 3.210353 1_655
Au2 Ce1 3.254414 1_555
Au2 Ce1 3.254414 1_655
Au2 Ce1 3.254414 1_545
Au2 Ce1 3.254414 1_645
