# generated using pymatgen
data_NaCeCuTe4
_symmetry_space_group_name_H-M   'P 1'
_cell_length_a   4.47292300
_cell_length_b   4.47292300
_cell_length_c   19.85411000
_cell_angle_alpha   90.00000000
_cell_angle_beta   90.00000000
_cell_angle_gamma   90.00000000
_symmetry_Int_Tables_number   1
_chemical_formula_structural   NaCeCuTe4
_chemical_formula_sum   'Na2 Ce2 Cu2 Te8'
_cell_volume   397.22197619
_cell_formula_units_Z   2
loop_
 _symmetry_equiv_pos_site_id
 _symmetry_equiv_pos_as_xyz
  1  'x, y, z'
loop_
 _atom_site_type_symbol
 _atom_site_label
 _atom_site_symmetry_multiplicity
 _atom_site_fract_x
 _atom_site_fract_y
 _atom_site_fract_z
 _atom_site_occupancy
  Na  Na0  1  0.00000000  0.50000000  0.12617800  1
  Na  Na1  1  0.50000000  0.00000000  0.87382200  1
  Ce  Ce0  1  0.00000000  0.50000000  0.60814300  1
  Ce  Ce1  1  0.50000000  0.00000000  0.39185700  1
  Cu  Cu0  1  0.00000000  0.00000000  0.00000000  1
  Cu  Cu1  1  0.50000000  0.50000000  0.00000000  1
  Te  Te0  1  0.00000000  0.00000000  0.26847200  1
  Te  Te1  1  0.50000000  0.50000000  0.73152800  1
  Te  Te2  1  0.00000000  0.50000000  0.92238900  1
  Te  Te3  1  0.50000000  0.00000000  0.07761100  1
  Te  Te4  1  0.00000000  0.00000000  0.73152800  1
  Te  Te5  1  0.50000000  0.50000000  0.26847200  1
  Te  Te6  1  0.00000000  0.50000000  0.43939800  1
  Te  Te7  1  0.50000000  0.00000000  0.56060200  1
loop_
_geom_bond_atom_site_label_1
_geom_bond_atom_site_label_2
_geom_bond_distance
_geom_bond_site_symmetry_2
Na0 Te3 3.306555 1_465
Na0 Te3 3.306555 1_455
Na0 Te3 3.306555 1_555
Na0 Te3 3.306555 1_565
Na0 Te0 3.603202 1_555
Na0 Te5 3.603202 1_555
Na0 Te5 3.603202 1_455
Na0 Te0 3.603202 1_565
Na1 Te2 3.306555 1_655
Na1 Te2 3.306555 1_545
Na1 Te2 3.306555 1_645
Na1 Te2 3.306555 1_555
Na1 Te4 3.603202 1_555
Na1 Te1 3.603202 1_555
Na1 Te1 3.603202 1_545
Na1 Te4 3.603202 1_655
Ce0 Te7 3.300672 1_455
Ce0 Te7 3.300672 1_555
Ce0 Te7 3.300672 1_465
Ce0 Te7 3.300672 1_565
Ce0 Te4 3.317045 1_565
Ce0 Te4 3.317045 1_555
Ce0 Te1 3.317045 1_555
Ce0 Te1 3.317045 1_455
Ce0 Te6 3.350282 1_555
Ce1 Te6 3.300672 1_555
Ce1 Te6 3.300672 1_655
Ce1 Te6 3.300672 1_645
Ce1 Te6 3.300672 1_545
Ce1 Te5 3.317045 1_555
Ce1 Te5 3.317045 1_545
Ce1 Te0 3.317045 1_555
Ce1 Te0 3.317045 1_655
Ce1 Te7 3.350282 1_555
Cu0 Te2 2.715902 1_544
Cu0 Te3 2.715902 1_455
Cu0 Te3 2.715902 1_555
Cu0 Te2 2.715902 1_554
Cu0 Na1 3.358206 1_554
Cu0 Na1 3.358206 1_454
Cu0 Na0 3.358206 1_545
Cu0 Na0 3.358206 1_555
Cu1 Te3 2.715902 1_555
Cu1 Te3 2.715902 1_565
Cu1 Te2 2.715902 1_554
Cu1 Te2 2.715902 1_654
Cu1 Na0 3.358206 1_655
Cu1 Na1 3.358206 1_554
Cu1 Na1 3.358206 1_564
Cu1 Na0 3.358206 1_555
Te0 Te5 3.162834 1_445
Te0 Te5 3.162834 1_455
Te0 Te5 3.162834 1_555
Te0 Te5 3.162834 1_545
Te1 Te4 3.162834 1_565
Te1 Te4 3.162834 1_555
Te1 Te4 3.162834 1_655
Te1 Te4 3.162834 1_665
