# generated using pymatgen
data_Pr3Sc2(FeO4)3
_symmetry_space_group_name_H-M   'P 1'
_cell_length_a   11.21885508
_cell_length_b   11.21885508
_cell_length_c   11.21885508
_cell_angle_alpha   109.47122063
_cell_angle_beta   109.47122063
_cell_angle_gamma   109.47122063
_symmetry_Int_Tables_number   1
_chemical_formula_structural   Pr3Sc2(FeO4)3
_chemical_formula_sum   'Pr12 Sc8 Fe12 O48'
_cell_volume   1086.98543116
_cell_formula_units_Z   4
loop_
 _symmetry_equiv_pos_site_id
 _symmetry_equiv_pos_as_xyz
  1  'x, y, z'
loop_
 _atom_site_type_symbol
 _atom_site_label
 _atom_site_symmetry_multiplicity
 _atom_site_fract_x
 _atom_site_fract_y
 _atom_site_fract_z
 _atom_site_occupancy
  Pr  Pr0  1  0.25000000  0.37500000  0.12500000  1
  Pr  Pr1  1  0.75000000  0.62500000  0.87500000  1
  Pr  Pr2  1  0.75000000  0.12500000  0.37500000  1
  Pr  Pr3  1  0.12500000  0.25000000  0.37500000  1
  Pr  Pr4  1  0.37500000  0.75000000  0.12500000  1
  Pr  Pr5  1  0.25000000  0.87500000  0.62500000  1
  Pr  Pr6  1  0.87500000  0.75000000  0.62500000  1
  Pr  Pr7  1  0.62500000  0.25000000  0.87500000  1
  Pr  Pr8  1  0.37500000  0.12500000  0.25000000  1
  Pr  Pr9  1  0.62500000  0.87500000  0.75000000  1
  Pr  Pr10  1  0.12500000  0.37500000  0.75000000  1
  Pr  Pr11  1  0.87500000  0.62500000  0.25000000  1
  Sc  Sc0  1  0.00000000  0.00000000  0.00000000  1
  Sc  Sc1  1  0.50000000  0.00000000  0.50000000  1
  Sc  Sc2  1  0.00000000  0.50000000  0.50000000  1
  Sc  Sc3  1  0.50000000  0.00000000  0.00000000  1
  Sc  Sc4  1  0.50000000  0.50000000  0.00000000  1
  Sc  Sc5  1  0.50000000  0.50000000  0.50000000  1
  Sc  Sc6  1  0.00000000  0.00000000  0.50000000  1
  Sc  Sc7  1  0.00000000  0.50000000  0.00000000  1
  Fe  Fe0  1  0.25000000  0.62500000  0.37500000  1
  Fe  Fe1  1  0.75000000  0.37500000  0.62500000  1
  Fe  Fe2  1  0.75000000  0.87500000  0.12500000  1
  Fe  Fe3  1  0.37500000  0.25000000  0.62500000  1
  Fe  Fe4  1  0.62500000  0.75000000  0.37500000  1
  Fe  Fe5  1  0.25000000  0.12500000  0.87500000  1
  Fe  Fe6  1  0.12500000  0.75000000  0.87500000  1
  Fe  Fe7  1  0.87500000  0.25000000  0.12500000  1
  Fe  Fe8  1  0.62500000  0.37500000  0.25000000  1
  Fe  Fe9  1  0.37500000  0.62500000  0.75000000  1
  Fe  Fe10  1  0.87500000  0.12500000  0.75000000  1
  Fe  Fe11  1  0.12500000  0.87500000  0.25000000  1
  O  O0  1  0.47414000  0.37730200  0.29237800  1
  O  O1  1  0.52586000  0.62269800  0.70762200  1
  O  O2  1  0.58492400  0.18176300  0.20762200  1
  O  O3  1  0.91507600  0.12269800  0.59683900  1
  O  O4  1  0.29237800  0.47414000  0.37730200  1
  O  O5  1  0.31823700  0.91507600  0.29237800  1
  O  O6  1  0.41507600  0.81823700  0.79237800  1
  O  O7  1  0.08492400  0.87730200  0.40316100  1
  O  O8  1  0.70762200  0.52586000  0.62269800  1
  O  O9  1  0.68176300  0.08492400  0.70762200  1
  O  O10  1  0.02586000  0.31823700  0.90316100  1
  O  O11  1  0.20762200  0.58492400  0.18176300  1
  O  O12  1  0.12269800  0.02586000  0.20762200  1
  O  O13  1  0.97414000  0.68176300  0.09683900  1
  O  O14  1  0.79237800  0.41507600  0.81823700  1
  O  O15  1  0.87730200  0.97414000  0.79237800  1
  O  O16  1  0.59683900  0.91507600  0.12269800  1
  O  O17  1  0.18176300  0.47414000  0.59683900  1
  O  O18  1  0.40316100  0.08492400  0.87730200  1
  O  O19  1  0.81823700  0.52586000  0.40316100  1
  O  O20  1  0.90316100  0.02586000  0.31823700  1
  O  O21  1  0.37730200  0.58492400  0.90316100  1
  O  O22  1  0.09683900  0.97414000  0.68176300  1
  O  O23  1  0.62269800  0.41507600  0.09683900  1
  O  O24  1  0.37730200  0.29237800  0.47414000  1
  O  O25  1  0.58492400  0.90316100  0.37730200  1
  O  O26  1  0.62269800  0.70762200  0.52586000  1
  O  O27  1  0.41507600  0.09683900  0.62269800  1
  O  O28  1  0.12269800  0.59683900  0.91507600  1
  O  O29  1  0.02586000  0.20762200  0.12269800  1
  O  O30  1  0.87730200  0.40316100  0.08492400  1
  O  O31  1  0.97414000  0.79237800  0.87730200  1
  O  O32  1  0.31823700  0.90316100  0.02586000  1
  O  O33  1  0.91507600  0.29237800  0.31823700  1
  O  O34  1  0.68176300  0.09683900  0.97414000  1
  O  O35  1  0.08492400  0.70762200  0.68176300  1
  O  O36  1  0.18176300  0.20762200  0.58492400  1
  O  O37  1  0.47414000  0.59683900  0.18176300  1
  O  O38  1  0.81823700  0.79237800  0.41507600  1
  O  O39  1  0.52586000  0.40316100  0.81823700  1
  O  O40  1  0.29237800  0.31823700  0.91507600  1
  O  O41  1  0.70762200  0.68176300  0.08492400  1
  O  O42  1  0.20762200  0.12269800  0.02586000  1
  O  O43  1  0.79237800  0.87730200  0.97414000  1
  O  O44  1  0.90316100  0.37730200  0.58492400  1
  O  O45  1  0.09683900  0.62269800  0.41507600  1
  O  O46  1  0.59683900  0.18176300  0.47414000  1
  O  O47  1  0.40316100  0.81823700  0.52586000  1
loop_
_geom_bond_atom_site_label_1
_geom_bond_atom_site_label_2
_geom_bond_distance
_geom_bond_site_symmetry_2
Fe0 O45 1.910113 1_555
Fe0 O11 1.910113 1_555
Fe0 O47 1.910115 1_555
Fe0 O4 1.910124 1_555
Fe1 O14 1.910113 1_555
Fe1 O44 1.910113 1_555
Fe1 O46 1.910115 1_555
Fe1 O8 1.910124 1_555
Fe2 O41 1.910113 1_555
Fe2 O16 1.910113 1_555
Fe2 O20 1.910115 1_565
Fe2 O43 1.910124 1_554
Fe3 O36 1.910113 1_555
Fe3 O27 1.910113 1_555
Fe3 O39 1.910115 1_555
Fe3 O24 1.910124 1_555
Fe4 O38 1.910113 1_555
Fe4 O25 1.910113 1_555
Fe4 O37 1.910115 1_555
Fe4 O26 1.910124 1_555
Fe5 O18 1.910113 1_555
Fe5 O40 1.910113 1_555
Fe5 O22 1.910115 1_545
Fe5 O42 1.910124 1_556
Fe6 O35 1.910113 1_555
Fe6 O28 1.910113 1_555
Fe6 O32 1.910115 1_556
Fe6 O31 1.910124 1_455
Fe7 O30 1.910113 1_555
Fe7 O33 1.910113 1_555
Fe7 O34 1.910115 1_554
Fe7 O29 1.910124 1_655
Fe8 O23 1.910113 1_555
Fe8 O2 1.910113 1_555
Fe8 O19 1.910115 1_555
Fe8 O0 1.910124 1_555
Fe9 O6 1.910113 1_555
Fe9 O21 1.910113 1_555
Fe9 O17 1.910115 1_555
Fe9 O1 1.910124 1_555
Fe10 O3 1.910113 1_555
Fe10 O9 1.910113 1_555
Fe10 O10 1.910115 1_655
Fe10 O15 1.910124 1_545
Fe11 O7 1.910113 1_555
Fe11 O5 1.910113 1_555
Fe11 O13 1.910115 1_455
Fe11 O12 1.910124 1_565
O0 Sc5 2.133132 1_555
O0 Pr8 2.475188 1_555
O0 Pr0 2.574180 1_555
O1 Sc5 2.133132 1_555
O1 Pr9 2.475188 1_555
O1 Pr1 2.574180 1_555
O2 Sc3 2.133137 1_555
O2 Pr8 2.475189 1_555
O2 Pr2 2.574188 1_555
O3 Sc6 2.133137 1_655
O3 Pr10 2.475189 1_655
O3 Pr2 2.574188 1_555
O4 Sc5 2.133132 1_555
O4 Pr0 2.475188 1_555
O4 Pr3 2.574180 1_555
O5 Sc1 2.133137 1_565
O5 Pr8 2.475189 1_565
O5 Pr4 2.574188 1_555
O6 Sc3 2.133137 1_566
O6 Pr9 2.475189 1_555
O6 Pr5 2.574188 1_555
O7 Sc6 2.133137 1_565
O7 Pr11 2.475189 1_455
O7 Pr5 2.574188 1_555
O8 Sc5 2.133132 1_555
O8 Pr1 2.475188 1_555
O8 Pr6 2.574180 1_555
O9 Sc1 2.133137 1_555
O9 Pr9 2.475189 1_545
O9 Pr7 2.574188 1_555
O10 Sc7 2.133144 1_556
O10 Pr10 2.475182 1_555
O10 Pr0 2.574181 1_556
O11 Sc7 2.133137 1_555
O11 Pr0 2.475189 1_555
O11 Pr4 2.574188 1_555
O12 Sc0 2.133132 1_555
O12 Pr8 2.475188 1_555
O12 Pr3 2.574180 1_555
O13 Sc7 2.133144 1_655
O13 Pr11 2.475182 1_555
O13 Pr1 2.574181 1_554
O14 Sc7 2.133137 1_656
O14 Pr1 2.475189 1_555
O14 Pr7 2.574188 1_555
O15 Sc0 2.133132 1_666
O15 Pr9 2.475188 1_555
O15 Pr6 2.574180 1_555
O16 Sc3 2.133137 1_565
O16 Pr2 2.475189 1_565
O16 Pr4 2.574188 1_555
O17 Sc2 2.133144 1_555
O17 Pr10 2.475182 1_555
O17 Pr3 2.574181 1_555
O18 Sc3 2.133137 1_556
O18 Pr5 2.475189 1_545
O18 Pr7 2.574188 1_555
O19 Sc2 2.133144 1_655
O19 Pr11 2.475182 1_555
O19 Pr6 2.574181 1_555
O20 Sc6 2.133144 1_655
O20 Pr2 2.475182 1_555
O20 Pr3 2.574181 1_655
O21 Sc4 2.133137 1_556
O21 Pr10 2.475189 1_555
O21 Pr4 2.574188 1_556
O22 Sc6 2.133144 1_565
O22 Pr5 2.475182 1_555
O22 Pr6 2.574181 1_455
O23 Sc4 2.133137 1_555
O23 Pr11 2.475189 1_555
O23 Pr7 2.574188 1_554
O24 Sc5 2.133132 1_555
O24 Pr3 2.475188 1_555
O24 Pr8 2.574180 1_555
O25 Sc1 2.133137 1_565
O25 Pr4 2.475189 1_555
O25 Pr2 2.574188 1_565
O26 Sc5 2.133132 1_555
O26 Pr6 2.475188 1_555
O26 Pr9 2.574180 1_555
O27 Sc1 2.133137 1_555
O27 Pr7 2.475189 1_555
O27 Pr5 2.574188 1_545
O28 Sc7 2.133137 1_556
O28 Pr4 2.475189 1_556
O28 Pr10 2.574188 1_555
O29 Sc0 2.133132 1_555
O29 Pr3 2.475188 1_555
O29 Pr0 2.574180 1_555
O30 Sc7 2.133137 1_655
O30 Pr7 2.475189 1_554
O30 Pr11 2.574188 1_555
O31 Sc0 2.133132 1_666
O31 Pr6 2.475188 1_555
O31 Pr1 2.574180 1_555
O32 Sc3 2.133144 1_565
O32 Pr4 2.475182 1_555
O32 Pr8 2.574181 1_565
O33 Sc2 2.133137 1_655
O33 Pr3 2.475189 1_655
O33 Pr2 2.574188 1_555
O34 Sc3 2.133144 1_556
O34 Pr7 2.475182 1_555
O34 Pr9 2.574181 1_545
O35 Sc2 2.133137 1_555
O35 Pr6 2.475189 1_455
O35 Pr5 2.574188 1_555
O36 Sc6 2.133137 1_555
O36 Pr3 2.475189 1_555
O36 Pr10 2.574188 1_555
O37 Sc4 2.133144 1_555
O37 Pr4 2.475182 1_555
O37 Pr0 2.574181 1_555
O38 Sc6 2.133137 1_665
O38 Pr6 2.475189 1_555
O38 Pr11 2.574188 1_555
O39 Sc4 2.133144 1_556
O39 Pr7 2.475182 1_555
O39 Pr1 2.574181 1_555
O40 Sc4 2.133137 1_556
O40 Pr0 2.475189 1_556
O40 Pr10 2.574188 1_555
O41 Sc4 2.133137 1_555
O41 Pr1 2.475189 1_554
O41 Pr11 2.574188 1_555
O42 Sc0 2.133132 1_555
O42 Pr0 2.475188 1_555
O42 Pr8 2.574180 1_555
O43 Sc0 2.133132 1_666
O43 Pr1 2.475188 1_555
O43 Pr9 2.574180 1_555
O44 Sc2 2.133137 1_655
O44 Pr2 2.475189 1_555
O44 Pr10 2.574188 1_655
O45 Sc2 2.133137 1_555
O45 Pr5 2.475189 1_555
O45 Pr11 2.574188 1_455
O46 Sc1 2.133144 1_555
O46 Pr2 2.475182 1_555
O46 Pr8 2.574181 1_555
O47 Sc1 2.133144 1_565
O47 Pr5 2.475182 1_555
O47 Pr9 2.574181 1_555
