# generated using pymatgen
data_Yb5ErCl13
_symmetry_space_group_name_H-M   'P 1'
_cell_length_a   6.47934400
_cell_length_b   6.92239026
_cell_length_c   20.78905448
_cell_angle_alpha   98.29167366
_cell_angle_beta   98.89595602
_cell_angle_gamma   89.94437937
_symmetry_Int_Tables_number   1
_chemical_formula_structural   Yb5ErCl13
_chemical_formula_sum   'Yb10 Er2 Cl26'
_cell_volume   911.37871798
_cell_formula_units_Z   2
loop_
 _symmetry_equiv_pos_site_id
 _symmetry_equiv_pos_as_xyz
  1  'x, y, z'
loop_
 _atom_site_type_symbol
 _atom_site_label
 _atom_site_symmetry_multiplicity
 _atom_site_fract_x
 _atom_site_fract_y
 _atom_site_fract_z
 _atom_site_occupancy
  Yb  Yb0  1  0.34584100  0.65205000  0.24005000  1
  Yb  Yb1  1  0.10717600  0.84716000  0.75533500  1
  Yb  Yb2  1  0.64978900  0.34307000  0.75522300  1
  Yb  Yb3  1  0.89281400  0.15226600  0.23940200  1
  Yb  Yb4  1  0.01991300  0.37865100  0.59316400  1
  Yb  Yb5  1  0.57342100  0.87457100  0.59364900  1
  Yb  Yb6  1  0.97779700  0.62310100  0.40967500  1
  Yb  Yb7  1  0.27409700  0.99055600  0.08197200  1
  Yb  Yb8  1  0.72894100  0.01204100  0.92047400  1
  Yb  Yb9  1  0.80938400  0.48905600  0.08225600  1
  Er  Er0  1  0.42960900  0.12125700  0.40947000  1
  Er  Er1  1  0.19096000  0.51593300  0.92090800  1
  Cl  Cl0  1  0.21817700  0.39387800  0.32518500  1
  Cl  Cl1  1  0.89304800  0.10101500  0.67569200  1
  Cl  Cl2  1  0.78420300  0.60140800  0.67726200  1
  Cl  Cl3  1  0.11317700  0.90847500  0.32576000  1
  Cl  Cl4  1  0.26487400  0.88966100  0.48394700  1
  Cl  Cl5  1  0.77941300  0.61364100  0.51442900  1
  Cl  Cl6  1  0.73077300  0.11409700  0.51120900  1
  Cl  Cl7  1  0.23223700  0.38009600  0.48364500  1
  Cl  Cl8  1  0.14096300  0.32050800  0.16032500  1
  Cl  Cl9  1  0.98515500  0.18912600  0.84131600  1
  Cl  Cl10  1  0.86519400  0.67684300  0.84137500  1
  Cl  Cl11  1  0.01922000  0.82028200  0.16076800  1
  Cl  Cl12  1  0.06340700  0.25774300  0.99800800  1
  Cl  Cl13  1  0.94210600  0.74424300  0.99878700  1
  Cl  Cl14  1  0.50664600  0.98399900  0.20978200  1
  Cl  Cl15  1  0.29559300  0.51500000  0.79406400  1
  Cl  Cl16  1  0.49783300  0.01339100  0.79156600  1
  Cl  Cl17  1  0.70384900  0.48651900  0.21115300  1
  Cl  Cl18  1  0.60694400  0.79096200  0.36043600  1
  Cl  Cl19  1  0.25214200  0.71400900  0.64016700  1
  Cl  Cl20  1  0.38787400  0.21559800  0.64017700  1
  Cl  Cl21  1  0.73794400  0.28021300  0.36094200  1
  Cl  Cl22  1  0.41291200  0.62112800  0.06447500  1
  Cl  Cl23  1  0.34570800  0.86936600  0.93135200  1
  Cl  Cl24  1  0.56802300  0.37764400  0.93112900  1
  Cl  Cl25  1  0.65284600  0.12144200  0.06546700  1
loop_
_geom_bond_atom_site_label_1
_geom_bond_atom_site_label_2
_geom_bond_distance
_geom_bond_site_symmetry_2
Cl0 Yb6 2.840118 1_455
Cl0 Yb0 2.894585 1_555
Cl0 Yb3 2.899266 1_455
Cl0 Er0 2.952078 1_555
Cl1 Yb5 2.792467 1_545
Cl1 Yb1 2.806829 1_645
Cl1 Yb2 2.833259 1_555
Cl1 Yb4 2.950127 1_655
Cl2 Yb4 2.794739 1_655
Cl2 Yb2 2.803373 1_555
Cl2 Yb1 2.840359 1_655
Cl2 Yb5 2.944677 1_555
Cl3 Er0 2.750405 1_565
Cl3 Yb3 2.861150 1_465
Cl3 Yb0 2.917484 1_555
Cl3 Yb6 3.030819 1_455
Cl4 Er0 2.708722 1_565
Cl4 Yb6 2.746900 1_455
Cl4 Yb5 2.804812 1_555
Cl5 Yb6 2.702985 1_555
Cl5 Yb5 2.751991 1_555
Cl5 Yb4 2.779883 1_655
Cl6 Er0 2.652782 1_555
Cl6 Yb4 2.808192 1_655
Cl6 Yb5 2.844175 1_545
Cl7 Er0 2.651852 1_555
Cl7 Yb6 2.805168 1_455
Cl7 Yb4 2.837577 1_555
Cl8 Yb7 2.823468 1_545
Cl8 Yb0 2.829280 1_555
Cl8 Yb3 2.831502 1_455
Cl8 Yb9 2.841471 1_455
Cl9 Er1 2.806732 1_655
Cl9 Yb8 2.897829 1_555
Cl9 Yb2 2.898878 1_555
Cl9 Yb1 2.938854 1_645
Cl10 Er1 2.806606 1_655
Cl10 Yb8 2.865666 1_565
Cl10 Yb1 2.920090 1_655
Cl10 Yb2 2.921254 1_555
Cl11 Yb3 2.819821 1_465
Cl11 Yb9 2.830221 1_455
Cl11 Yb0 2.832224 1_555
Cl11 Yb7 2.863090 1_555
Cl12 Er1 2.772248 1_555
Cl12 Yb8 2.885040 1_455
Cl12 Yb9 2.901389 1_456
Cl12 Yb7 2.919021 1_546
Cl13 Er1 2.789870 1_655
Cl13 Yb8 2.857417 1_565
Cl13 Yb9 2.867001 1_556
Cl13 Yb7 2.920821 1_656
Cl14 Yb3 2.705328 1_565
Cl14 Yb0 2.717764 1_555
Cl14 Yb7 2.851095 1_555
Cl15 Yb2 2.761517 1_555
Cl15 Yb1 2.765886 1_555
Cl15 Er1 2.821569 1_555
Cl16 Yb1 2.732118 1_545
Cl16 Yb2 2.735006 1_555
Cl16 Yb8 2.861850 1_555
Cl17 Yb0 2.698518 1_555
Cl17 Yb3 2.713266 1_555
Cl17 Yb9 2.868571 1_555
Cl18 Er0 2.696670 1_565
Cl18 Yb6 2.783673 1_555
Cl18 Yb0 2.837230 1_555
Cl19 Yb5 2.727837 1_555
Cl19 Yb4 2.739699 1_555
Cl19 Yb1 2.742542 1_555
Cl20 Yb4 2.739645 1_555
Cl20 Yb2 2.741841 1_555
Cl20 Yb5 2.765774 1_545
Cl21 Er0 2.677238 1_555
Cl21 Yb6 2.811088 1_555
Cl21 Yb3 2.883155 1_555
Cl22 Yb7 2.703631 1_555
Cl22 Yb9 2.714933 1_555
Cl22 Er1 3.090964 1_554
Cl23 Er1 2.612002 1_555
Cl23 Yb8 2.726762 1_565
Cl23 Yb7 3.227186 1_556
Cl24 Er1 2.612272 1_555
Cl24 Yb8 2.728730 1_555
Cl24 Yb9 3.270347 1_556
Cl25 Yb9 2.695504 1_555
Cl25 Yb7 2.704699 1_545
Cl25 Yb8 3.114955 1_554
