# generated using pymatgen
data_ZnNiP2WO9
_symmetry_space_group_name_H-M   'P 1'
_cell_length_a   6.46817199
_cell_length_b   7.68592334
_cell_length_c   14.51003736
_cell_angle_alpha   90.01590374
_cell_angle_beta   90.01928591
_cell_angle_gamma   90.24447176
_symmetry_Int_Tables_number   1
_chemical_formula_structural   ZnNiP2WO9
_chemical_formula_sum   'Zn4 Ni4 P8 W4 O36'
_cell_volume   721.34353546
_cell_formula_units_Z   4
loop_
 _symmetry_equiv_pos_site_id
 _symmetry_equiv_pos_as_xyz
  1  'x, y, z'
loop_
 _atom_site_type_symbol
 _atom_site_label
 _atom_site_symmetry_multiplicity
 _atom_site_fract_x
 _atom_site_fract_y
 _atom_site_fract_z
 _atom_site_occupancy
  Zn  Zn0  1  0.74697100  0.97002600  0.81612100  1
  Zn  Zn1  1  0.75122200  0.52974800  0.31676700  1
  Zn  Zn2  1  0.24574500  0.03007300  0.18353000  1
  Zn  Zn3  1  0.25203200  0.47003200  0.68381500  1
  Ni  Ni0  1  0.49762300  0.00036200  0.00010600  1
  Ni  Ni1  1  0.50012700  0.50028000  0.50045300  1
  Ni  Ni2  1  0.00026200  0.49956700  0.49973300  1
  Ni  Ni3  1  0.99764200  0.99977600  0.99970900  1
  P  P0  1  0.25206300  0.34782600  0.92853500  1
  P  P1  1  0.75128000  0.65236000  0.07138200  1
  P  P2  1  0.74966800  0.84755800  0.57140700  1
  P  P3  1  0.24918600  0.15240300  0.42864500  1
  P  P4  1  0.75086400  0.37686800  0.69022900  1
  P  P5  1  0.25037000  0.62302600  0.30969700  1
  P  P6  1  0.24835600  0.87619900  0.81004900  1
  P  P7  1  0.74839100  0.12393700  0.18995900  1
  W  W0  1  0.75109200  0.36371800  0.88245300  1
  W  W1  1  0.25316200  0.63660000  0.11761900  1
  W  W2  1  0.24949000  0.86368800  0.61770500  1
  W  W3  1  0.74926000  0.13608000  0.38235700  1
  O  O0  1  0.04763300  0.61773400  0.36779800  1
  O  O1  1  0.54734900  0.38390800  0.63271400  1
  O  O2  1  0.95140700  0.11758000  0.13217800  1
  O  O3  1  0.45107600  0.88281300  0.86808200  1
  O  O4  1  0.95406300  0.38414400  0.63258900  1
  O  O5  1  0.45415900  0.61390600  0.36694000  1
  O  O6  1  0.04427000  0.88349300  0.86696800  1
  O  O7  1  0.54477600  0.11635600  0.13263900  1
  O  O8  1  0.24966000  0.33572100  0.47293600  1
  O  O9  1  0.75062700  0.66430100  0.52713900  1
  O  O10  1  0.74597600  0.83546800  0.02711300  1
  O  O11  1  0.24947600  0.16467500  0.97299100  1
  O  O12  1  0.74760500  0.12199200  0.93488100  1
  O  O13  1  0.24380800  0.87797400  0.06499700  1
  O  O14  1  0.25424400  0.62214400  0.56506000  1
  O  O15  1  0.75330400  0.37756200  0.43520900  1
  O  O16  1  0.75059600  0.20914200  0.75371500  1
  O  O17  1  0.25414300  0.79085300  0.24625000  1
  O  O18  1  0.24811200  0.70876600  0.74626700  1
  O  O19  1  0.74885500  0.29129100  0.25379900  1
  O  O20  1  0.43388000  0.12316600  0.36503600  1
  O  O21  1  0.93452100  0.87821500  0.63504800  1
  O  O22  1  0.56764100  0.61864500  0.13561100  1
  O  O23  1  0.06646000  0.37864000  0.86552200  1
  O  O24  1  0.56655300  0.87531400  0.63610400  1
  O  O25  1  0.06599200  0.12326000  0.36402900  1
  O  O26  1  0.43441300  0.37430400  0.86296100  1
  O  O27  1  0.93599000  0.62813500  0.13548900  1
  O  O28  1  0.75032100  0.97788500  0.26470400  1
  O  O29  1  0.25236200  0.02217800  0.73526100  1
  O  O30  1  0.24455200  0.47734100  0.23482100  1
  O  O31  1  0.75099800  0.52251000  0.76511700  1
  O  O32  1  0.74767100  0.98248900  0.49222700  1
  O  O33  1  0.24779100  0.01745000  0.50788200  1
  O  O34  1  0.25968400  0.48336700  0.00726200  1
  O  O35  1  0.75522800  0.51715500  0.99239000  1
loop_
_geom_bond_atom_site_label_1
_geom_bond_atom_site_label_2
_geom_bond_distance
_geom_bond_site_symmetry_2
Ni0 O11 2.084001 1_554
Ni0 O10 2.087459 1_545
Ni0 O12 2.091101 1_554
Ni0 O13 2.110687 1_545
Ni0 O3 2.138467 1_544
Ni0 O7 2.140635 1_555
Ni1 O14 2.073342 1_555
Ni1 O9 2.084791 1_555
Ni1 O8 2.089381 1_555
Ni1 O15 2.116907 1_555
Ni1 O1 2.139900 1_555
Ni1 O5 2.146371 1_555
Ni2 O15 2.071999 1_455
Ni2 O8 2.087290 1_555
Ni2 O9 2.094284 1_455
Ni2 O14 2.114269 1_555
Ni2 O0 2.140699 1_555
Ni2 O4 2.142796 1_455
Ni3 O13 2.078767 1_656
Ni3 O10 2.094252 1_556
Ni3 O11 2.095952 1_665
Ni3 O12 2.096481 1_565
Ni3 O6 2.145051 1_655
Ni3 O2 2.146056 1_566
O0 P5 1.559583 1_555
O0 Zn1 2.160811 1_455
O1 P4 1.559524 1_555
O1 Zn3 2.155955 1_555
O2 P7 1.559140 1_555
O2 Zn2 2.154616 1_655
O3 P6 1.558728 1_555
O3 Zn0 2.161269 1_555
O4 P4 1.558915 1_555
O4 Zn3 2.165802 1_655
O5 P5 1.559612 1_555
O5 Zn1 2.156772 1_555
O6 P6 1.558575 1_555
O6 Zn0 2.166740 1_455
O7 P7 1.558287 1_555
O7 Zn2 2.171732 1_555
O8 P3 1.548443 1_555
O9 P2 1.547925 1_555
O10 P1 1.547685 1_555
O11 P0 1.548634 1_555
O12 W0 2.007836 1_555
O12 Zn0 2.081474 1_545
O13 W1 2.007506 1_555
O13 Zn2 2.079334 1_565
O14 W2 2.007667 1_555
O14 Zn3 2.082607 1_555
O15 W3 2.008073 1_555
O15 Zn1 2.079223 1_555
O16 P4 1.584638 1_555
O16 Zn0 2.049069 1_545
O16 W0 2.213510 1_555
O17 P5 1.585054 1_555
O17 Zn2 2.052675 1_565
O17 W1 2.210867 1_555
O18 P6 1.584894 1_555
O18 Zn3 2.046490 1_555
O18 W2 2.213348 1_555
O19 P7 1.584889 1_555
O19 Zn1 2.047648 1_555
O19 W3 2.214502 1_555
O20 P3 1.527230 1_555
O20 W3 2.057244 1_555
O21 P2 1.527935 1_555
O21 W2 2.056343 1_655
O22 P1 1.531290 1_555
O22 W1 2.055927 1_555
O23 P0 1.528107 1_555
O23 W0 2.057394 1_455
O24 P2 1.527225 1_555
O24 W2 2.069581 1_555
O25 P3 1.526486 1_555
O25 W3 2.068716 1_455
O26 P0 1.528626 1_555
O26 W0 2.069621 1_555
O27 P1 1.525965 1_555
O27 W1 2.068681 1_655
O28 P7 1.561186 1_565
O28 W3 2.095635 1_565
O29 P6 1.561273 1_545
O29 W2 2.095806 1_545
O30 P5 1.560294 1_555
O30 W1 2.096211 1_555
O31 P4 1.559845 1_555
O31 W0 2.095081 1_555
O32 P2 1.548040 1_555
O32 W3 1.983971 1_565
O33 P3 1.548682 1_555
O33 W2 1.984258 1_545
O34 P0 1.546439 1_554
O34 W1 1.988059 1_555
O35 P1 1.547205 1_556
O35 W0 1.983624 1_555
