# generated using pymatgen
data_TeMoWSeS2
_symmetry_space_group_name_H-M   'P 1'
_cell_length_a   3.31116028
_cell_length_b   3.31116028
_cell_length_c   37.64059800
_cell_angle_alpha   90.00000000
_cell_angle_beta   90.00000000
_cell_angle_gamma   120.00000561
_symmetry_Int_Tables_number   1
_chemical_formula_structural   TeMoWSeS2
_chemical_formula_sum   'Te2 Mo2 W2 Se2 S4'
_cell_volume   357.39422386
_cell_formula_units_Z   2
loop_
 _symmetry_equiv_pos_site_id
 _symmetry_equiv_pos_as_xyz
  1  'x, y, z'
loop_
 _atom_site_type_symbol
 _atom_site_label
 _atom_site_symmetry_multiplicity
 _atom_site_fract_x
 _atom_site_fract_y
 _atom_site_fract_z
 _atom_site_occupancy
  Te  Te0  1  0.33333300  0.66666700  0.70862500  1
  Te  Te1  1  0.33333300  0.66666700  0.60646100  1
  Mo  Mo0  1  0.33333300  0.66666700  0.09391800  1
  Mo  Mo1  1  0.33333300  0.66666700  0.46965200  1
  W  W0  1  0.66666700  0.33333300  0.28179800  1
  W  W1  1  0.66666700  0.33333300  0.65756500  1
  Se  Se0  1  0.33333300  0.66666700  0.32664500  1
  Se  Se1  1  0.33333300  0.66666700  0.23693600  1
  S  S0  1  0.66666700  0.33333300  0.05333700  1
  S  S1  1  0.66666700  0.33333300  0.42907300  1
  S  S2  1  0.66666700  0.33333300  0.13450700  1
  S  S3  1  0.66666700  0.33333300  0.51023000  1
loop_
_geom_bond_atom_site_label_1
_geom_bond_atom_site_label_2
_geom_bond_distance
_geom_bond_site_symmetry_2
Te0 W1 2.710793 1_455
Te0 W1 2.710793 1_565
Te0 W1 2.710797 1_555
Te1 W1 2.711967 1_455
Te1 W1 2.711967 1_565
Te1 W1 2.711971 1_555
Mo0 S0 2.447003 1_455
Mo0 S0 2.447003 1_565
Mo0 S0 2.447007 1_555
Mo0 S2 2.447191 1_455
Mo0 S2 2.447191 1_565
Mo0 S2 2.447195 1_555
Mo1 S3 2.446932 1_455
Mo1 S3 2.446932 1_565
Mo1 S3 2.446937 1_555
Mo1 S1 2.446956 1_455
Mo1 S1 2.446956 1_565
Mo1 S1 2.446960 1_555
Se0 W0 2.550325 1_455
Se0 W0 2.550325 1_565
Se0 W0 2.550330 1_555
Se1 W0 2.550699 1_455
Se1 W0 2.550699 1_565
Se1 W0 2.550704 1_555
