# generated using pymatgen
data_Ba8U3(HgS6)3
_symmetry_space_group_name_H-M   'P 1'
_cell_length_a   27.26753251
_cell_length_b   27.26753251
_cell_length_c   4.22733600
_cell_angle_alpha   90.00000000
_cell_angle_beta   90.00000000
_cell_angle_gamma   120.00000124
_symmetry_Int_Tables_number   1
_chemical_formula_structural   Ba8U3(HgS6)3
_chemical_formula_sum   'Ba24 U9 Hg9 S54'
_cell_volume   2722.00597128
_cell_formula_units_Z   3
loop_
 _symmetry_equiv_pos_site_id
 _symmetry_equiv_pos_as_xyz
  1  'x, y, z'
loop_
 _atom_site_type_symbol
 _atom_site_label
 _atom_site_symmetry_multiplicity
 _atom_site_fract_x
 _atom_site_fract_y
 _atom_site_fract_z
 _atom_site_occupancy
  Ba  Ba0  1  0.70311600  0.03627200  0.50000000  1
  Ba  Ba1  1  0.96372800  0.66684400  0.50000000  1
  Ba  Ba2  1  0.33315600  0.29688400  0.50000000  1
  Ba  Ba3  1  0.87555700  0.18307400  0.50000000  1
  Ba  Ba4  1  0.81692600  0.69248300  0.50000000  1
  Ba  Ba5  1  0.30751700  0.12444300  0.50000000  1
  Ba  Ba6  1  0.59278300  0.22162400  0.50000000  1
  Ba  Ba7  1  0.77837600  0.37115900  0.50000000  1
  Ba  Ba8  1  0.62884100  0.40721700  0.50000000  1
  Ba  Ba9  1  0.64680400  0.84173300  0.50000000  1
  Ba  Ba10  1  0.15826700  0.80507100  0.50000000  1
  Ba  Ba11  1  0.19492900  0.35319600  0.50000000  1
  Ba  Ba12  1  0.44598200  0.74653100  0.50000000  1
  Ba  Ba13  1  0.25346900  0.69945100  0.50000000  1
  Ba  Ba14  1  0.30054900  0.55401800  0.50000000  1
  Ba  Ba15  1  0.33340700  0.96488800  0.50000000  1
  Ba  Ba16  1  0.03511200  0.36852000  0.50000000  1
  Ba  Ba17  1  0.63148000  0.66659300  0.50000000  1
  Ba  Ba18  1  0.98188000  0.08823400  0.50000000  1
  Ba  Ba19  1  0.91176600  0.89364500  0.50000000  1
  Ba  Ba20  1  0.10635500  0.01812000  0.50000000  1
  Ba  Ba21  1  0.52691700  0.02534500  0.50000000  1
  Ba  Ba22  1  0.97465500  0.50157200  0.50000000  1
  Ba  Ba23  1  0.49842800  0.47308300  0.50000000  1
  U  U0  1  0.73236000  0.20012500  0.00000000  1
  U  U1  1  0.79987500  0.53223500  0.00000000  1
  U  U2  1  0.46776500  0.26764000  0.00000000  1
  U  U3  1  0.81104400  0.96976500  0.00000000  1
  U  U4  1  0.03023500  0.84128000  0.00000000  1
  U  U5  1  0.15872000  0.18895600  0.00000000  1
  U  U6  1  0.38961700  0.85899900  0.00000000  1
  U  U7  1  0.14100100  0.53061900  0.00000000  1
  U  U8  1  0.46938100  0.61038300  0.00000000  1
  Hg  Hg0  1  0.44423300  0.10322100  0.00000000  1
  Hg  Hg1  1  0.89677900  0.34101200  0.00000000  1
  Hg  Hg2  1  0.65898800  0.55576700  0.00000000  1
  Hg  Hg3  1  0.56221100  0.90605500  0.00000000  1
  Hg  Hg4  1  0.09394500  0.65615600  0.00000000  1
  Hg  Hg5  1  0.34384400  0.43778900  0.00000000  1
  Hg  Hg6  1  0.03560400  0.24194200  0.00000000  1
  Hg  Hg7  1  0.75805800  0.79366200  0.00000000  1
  Hg  Hg8  1  0.20633800  0.96439600  0.00000000  1
  S  S0  1  0.69674400  0.27211600  0.00000000  1
  S  S1  1  0.72788400  0.42462800  0.00000000  1
  S  S2  1  0.57537200  0.30325600  0.00000000  1
  S  S3  1  0.77486300  0.13238900  0.00000000  1
  S  S4  1  0.86761100  0.64247400  0.00000000  1
  S  S5  1  0.35752600  0.22513700  0.00000000  1
  S  S6  1  0.80028200  0.25647400  0.50000000  1
  S  S7  1  0.74352600  0.54380800  0.50000000  1
  S  S8  1  0.45619200  0.19971800  0.50000000  1
  S  S9  1  0.66615300  0.14399600  0.50000000  1
  S  S10  1  0.85600400  0.52215700  0.50000000  1
  S  S11  1  0.47784300  0.33384700  0.50000000  1
  S  S12  1  0.70564400  0.94589700  0.00000000  1
  S  S13  1  0.05410300  0.75974800  0.00000000  1
  S  S14  1  0.24025200  0.29435600  0.00000000  1
  S  S15  1  0.91329300  0.98657600  0.00000000  1
  S  S16  1  0.01342400  0.92671700  0.00000000  1
  S  S17  1  0.07328300  0.08670700  0.00000000  1
  S  S18  1  0.78812400  0.89799200  0.50000000  1
  S  S19  1  0.10200800  0.89013200  0.50000000  1
  S  S20  1  0.10986800  0.21187600  0.50000000  1
  S  S21  1  0.83291800  0.03987600  0.50000000  1
  S  S22  1  0.96012400  0.79304300  0.50000000  1
  S  S23  1  0.20695700  0.16708200  0.50000000  1
  S  S24  1  0.42171600  0.96647000  0.00000000  1
  S  S25  1  0.03353000  0.45524600  0.00000000  1
  S  S26  1  0.54475400  0.57828400  0.00000000  1
  S  S27  1  0.35919300  0.75369200  0.00000000  1
  S  S28  1  0.24630800  0.60550100  0.00000000  1
  S  S29  1  0.39449900  0.64080700  0.00000000  1
  S  S30  1  0.32044400  0.84103600  0.50000000  1
  S  S31  1  0.15896400  0.47940700  0.50000000  1
  S  S32  1  0.52059300  0.67955600  0.50000000  1
  S  S33  1  0.45966400  0.87785300  0.50000000  1
  S  S34  1  0.12214700  0.58181100  0.50000000  1
  S  S35  1  0.41818900  0.54033600  0.50000000  1
  S  S36  1  0.53868200  0.12200100  0.00000000  1
  S  S37  1  0.87799900  0.41668200  0.00000000  1
  S  S38  1  0.58331800  0.46131800  0.00000000  1
  S  S39  1  0.34417000  0.05977300  0.00000000  1
  S  S40  1  0.94022700  0.28439600  0.00000000  1
  S  S41  1  0.71560400  0.65583000  0.00000000  1
  S  S42  1  0.60167500  0.00546300  0.00000000  1
  S  S43  1  0.99453700  0.59621200  0.00000000  1
  S  S44  1  0.40378800  0.39832500  0.00000000  1
  S  S45  1  0.54613600  0.81254700  0.00000000  1
  S  S46  1  0.18745300  0.73358900  0.00000000  1
  S  S47  1  0.26641100  0.45386400  0.00000000  1
  S  S48  1  0.10372100  0.33958300  0.00000000  1
  S  S49  1  0.66041700  0.76413800  0.00000000  1
  S  S50  1  0.23586200  0.89627900  0.00000000  1
  S  S51  1  0.95048800  0.15441300  0.00000000  1
  S  S52  1  0.84558700  0.79607600  0.00000000  1
  S  S53  1  0.20392400  0.04951200  0.00000000  1
loop_
_geom_bond_atom_site_label_1
_geom_bond_atom_site_label_2
_geom_bond_distance
_geom_bond_site_symmetry_2
Ba0 S3 3.168051 1_556
Ba0 S3 3.168051 1_555
Ba0 S42 3.240468 1_556
Ba0 S42 3.240468 1_555
Ba0 S12 3.273378 1_545
Ba0 S12 3.273378 1_546
Ba0 S21 3.491282 1_555
Ba0 S9 3.550284 1_555
Ba1 S4 3.168051 1_555
Ba1 S4 3.168051 1_556
Ba1 S43 3.240468 1_555
Ba1 S43 3.240468 1_556
Ba1 S13 3.273389 1_656
Ba1 S13 3.273389 1_655
Ba1 S22 3.491309 1_555
Ba1 S10 3.550284 1_555
Ba2 S5 3.168051 1_555
Ba2 S5 3.168051 1_556
Ba2 S44 3.240468 1_556
Ba2 S44 3.240468 1_555
Ba2 S14 3.273399 1_556
Ba2 S14 3.273399 1_555
Ba2 S23 3.491295 1_555
Ba2 S11 3.550284 1_555
Ba3 S3 3.181467 1_556
Ba3 S3 3.181467 1_555
Ba3 S40 3.215324 1_555
Ba3 S40 3.215324 1_556
Ba3 S51 3.293894 1_555
Ba3 S51 3.293894 1_556
Ba3 S21 3.472511 1_555
Ba3 S6 3.510960 1_555
Ba4 S4 3.181467 1_555
Ba4 S4 3.181467 1_556
Ba4 S41 3.215321 1_555
Ba4 S41 3.215321 1_556
Ba4 S52 3.293914 1_555
Ba4 S52 3.293914 1_556
Ba4 S22 3.472517 1_555
Ba4 S7 3.510960 1_555
Ba5 S5 3.181467 1_555
Ba5 S5 3.181467 1_556
Ba5 S39 3.215340 1_556
Ba5 S39 3.215340 1_555
Ba5 S53 3.293908 1_556
Ba5 S53 3.293908 1_555
Ba5 S23 3.472537 1_555
Ba5 S8 3.510960 1_555
Ba6 S36 3.164758 1_556
Ba6 S36 3.164758 1_555
Ba6 S0 3.239774 1_555
Ba6 S0 3.239774 1_556
Ba6 S2 3.271756 1_556
Ba6 S2 3.271756 1_555
Ba6 S8 3.464674 1_555
Ba6 S9 3.566196 1_555
Ba7 S37 3.164757 1_555
Ba7 S37 3.164757 1_556
Ba7 S1 3.239774 1_555
Ba7 S1 3.239774 1_556
Ba7 S0 3.271756 1_555
Ba7 S0 3.271756 1_556
Ba7 S6 3.464674 1_555
Ba7 S10 3.566196 1_555
Ba8 S38 3.164775 1_555
Ba8 S38 3.164775 1_556
Ba8 S2 3.239774 1_556
Ba8 S2 3.239774 1_555
Ba8 S1 3.271756 1_555
Ba8 S1 3.271756 1_556
Ba8 S7 3.464674 1_555
Ba8 S11 3.566196 1_555
Ba9 S49 3.141253 1_556
Ba9 S49 3.141253 1_555
Ba9 S45 3.232841 1_555
Ba9 S45 3.232841 1_556
Ba9 S12 3.248385 1_555
Ba9 S12 3.248385 1_556
Ba9 S18 3.360207 1_555
Ba10 S50 3.141253 1_556
Ba10 S50 3.141253 1_555
Ba10 S46 3.232841 1_556
Ba10 S46 3.232841 1_555
Ba10 S13 3.248387 1_556
Ba10 S13 3.248387 1_555
Ba10 S19 3.360207 1_555
Ba11 S48 3.141253 1_556
Ba11 S48 3.141253 1_555
Ba11 S47 3.232841 1_555
Ba11 S47 3.232841 1_556
Ba11 S14 3.248368 1_556
Ba11 S14 3.248368 1_555
Ba11 S20 3.360207 1_555
Ba12 S45 3.201572 1_555
Ba12 S45 3.201572 1_556
Ba12 S27 3.250883 1_556
Ba12 S27 3.250883 1_555
Ba12 S29 3.271399 1_555
Ba12 S29 3.271399 1_556
Ba12 S32 3.345085 1_555
Ba12 S33 3.409632 1_555
Ba13 S46 3.201572 1_555
Ba13 S46 3.201572 1_556
Ba13 S28 3.250883 1_555
Ba13 S28 3.250883 1_556
Ba13 S27 3.271399 1_556
Ba13 S27 3.271399 1_555
Ba13 S30 3.345061 1_555
Ba13 S34 3.409632 1_555
Ba14 S47 3.201572 1_555
Ba14 S47 3.201572 1_556
Ba14 S29 3.250883 1_555
Ba14 S29 3.250883 1_556
Ba14 S28 3.271399 1_556
Ba14 S28 3.271399 1_555
Ba14 S31 3.345062 1_555
Ba14 S35 3.409632 1_555
Ba15 S50 3.172712 1_555
Ba15 S50 3.172712 1_556
Ba15 S24 3.188086 1_556
Ba15 S24 3.188086 1_555
Ba15 S30 3.215010 1_555
Ba15 S39 3.238584 1_566
Ba15 S39 3.238584 1_565
Ba16 S48 3.172727 1_556
Ba16 S48 3.172727 1_555
Ba16 S25 3.188066 1_555
Ba16 S25 3.188066 1_556
Ba16 S31 3.214987 1_555
Ba16 S40 3.238600 1_455
Ba16 S40 3.238600 1_456
Ba17 S49 3.172708 1_556
Ba17 S49 3.172708 1_555
Ba17 S26 3.188076 1_555
Ba17 S26 3.188076 1_556
Ba17 S32 3.214956 1_555
Ba17 S41 3.238625 1_555
Ba17 S41 3.238625 1_556
Ba18 S51 3.162485 1_555
Ba18 S51 3.162485 1_556
Ba18 S15 3.234948 1_545
Ba18 S15 3.234948 1_546
Ba18 S17 3.284027 1_656
Ba18 S17 3.284027 1_655
Ba18 S20 3.432199 1_655
Ba18 S21 3.589040 1_555
Ba19 S52 3.162454 1_556
Ba19 S52 3.162454 1_555
Ba19 S16 3.234944 1_655
Ba19 S16 3.234944 1_656
Ba19 S15 3.284047 1_556
Ba19 S15 3.284047 1_555
Ba19 S18 3.432214 1_555
Ba19 S22 3.588988 1_555
Ba20 S53 3.162446 1_555
Ba20 S53 3.162446 1_556
Ba20 S17 3.234964 1_556
Ba20 S17 3.234964 1_555
Ba20 S16 3.284037 1_545
Ba20 S16 3.284037 1_546
Ba20 S19 3.432186 1_545
Ba20 S23 3.589029 1_555
Ba21 S42 3.165749 1_556
Ba21 S42 3.165749 1_555
Ba21 S24 3.266250 1_545
Ba21 S24 3.266250 1_546
Ba21 S36 3.266687 1_556
Ba21 S36 3.266687 1_555
Ba21 S33 3.487429 1_545
Ba21 S9 3.549415 1_555
Ba22 S43 3.165749 1_555
Ba22 S43 3.165749 1_556
Ba22 S25 3.266250 1_656
Ba22 S25 3.266250 1_655
Ba22 S37 3.266678 1_555
Ba22 S37 3.266678 1_556
Ba22 S34 3.487429 1_655
Ba22 S10 3.549415 1_555
Ba23 S44 3.165749 1_556
Ba23 S44 3.165749 1_555
Ba23 S26 3.266250 1_555
Ba23 S26 3.266250 1_556
Ba23 S38 3.266666 1_555
Ba23 S38 3.266666 1_556
Ba23 S35 3.487429 1_555
Ba23 S11 3.549415 1_555
Hg0 S36 2.361367 1_555
Hg0 S39 2.369735 1_555
Hg1 S37 2.361393 1_555
Hg1 S40 2.369759 1_555
Hg2 S38 2.361376 1_555
Hg2 S41 2.369737 1_555
Hg3 S45 2.361282 1_555
Hg3 S42 2.364005 1_565
Hg4 S46 2.361282 1_555
Hg4 S43 2.364005 1_455
Hg5 S47 2.361282 1_555
Hg5 S44 2.364006 1_555
Hg6 S51 2.354491 1_455
Hg6 S48 2.365005 1_555
Hg7 S52 2.354478 1_555
Hg7 S49 2.365005 1_555
Hg8 S53 2.354505 1_565
Hg8 S50 2.365005 1_555
S0 U0 2.589014 1_555
S1 U1 2.589014 1_555
S2 U2 2.589014 1_555
S3 U0 2.625858 1_555
S4 U1 2.625858 1_555
S5 U2 2.625858 1_555
S6 U0 2.722659 1_555
S6 U0 2.722659 1_556
S7 U1 2.722659 1_555
S7 U1 2.722659 1_556
S8 U2 2.722659 1_556
S8 U2 2.722659 1_555
S9 U0 2.702984 1_555
S9 U0 2.702984 1_556
S10 U1 2.702984 1_556
S10 U1 2.702984 1_555
S11 U2 2.702984 1_556
S11 U2 2.702984 1_555
S12 U3 2.610167 1_555
S13 U4 2.610167 1_555
S14 U5 2.610167 1_555
S15 U3 2.589491 1_555
S16 U4 2.589464 1_555
S17 U5 2.589481 1_555
S18 U3 2.732252 1_556
S18 U3 2.732252 1_555
S19 U4 2.732248 1_555
S19 U4 2.732248 1_556
S20 U5 2.732235 1_555
S20 U5 2.732235 1_556
S21 U3 2.708853 1_545
S21 U3 2.708853 1_546
S22 U4 2.708853 1_656
S22 U4 2.708853 1_655
S23 U5 2.708853 1_556
S23 U5 2.708853 1_555
S24 U6 2.605534 1_555
S25 U7 2.605540 1_555
S26 U8 2.605560 1_555
S27 U6 2.559567 1_555
S28 U7 2.559560 1_555
S29 U8 2.559540 1_555
S30 U6 2.709484 1_556
S30 U6 2.709484 1_555
S31 U7 2.709517 1_555
S31 U7 2.709517 1_556
S32 U8 2.709493 1_556
S32 U8 2.709493 1_555
S33 U6 2.719943 1_555
S33 U6 2.719943 1_556
S34 U7 2.719926 1_555
S34 U7 2.719926 1_556
S35 U8 2.719938 1_556
S35 U8 2.719938 1_555
