# generated using pymatgen
data_ZrCrCuS4
_symmetry_space_group_name_H-M   'P 1'
_cell_length_a   3.56785900
_cell_length_b   11.24614100
_cell_length_c   12.84609700
_cell_angle_alpha   90.00000000
_cell_angle_beta   90.00000000
_cell_angle_gamma   90.00000000
_symmetry_Int_Tables_number   1
_chemical_formula_structural   ZrCrCuS4
_chemical_formula_sum   'Zr4 Cr4 Cu4 S16'
_cell_volume   515.44508667
_cell_formula_units_Z   4
loop_
 _symmetry_equiv_pos_site_id
 _symmetry_equiv_pos_as_xyz
  1  'x, y, z'
loop_
 _atom_site_type_symbol
 _atom_site_label
 _atom_site_symmetry_multiplicity
 _atom_site_fract_x
 _atom_site_fract_y
 _atom_site_fract_z
 _atom_site_occupancy
  Zr  Zr0  1  0.00000000  0.80038900  0.11598600  1
  Zr  Zr1  1  0.50000000  0.19961100  0.61598600  1
  Zr  Zr2  1  0.00000000  0.83271800  0.58352400  1
  Zr  Zr3  1  0.50000000  0.16728200  0.08352400  1
  Cr  Cr0  1  0.50000000  0.68859900  0.88465100  1
  Cr  Cr1  1  0.00000000  0.31140100  0.38465100  1
  Cr  Cr2  1  0.50000000  0.65203800  0.40872300  1
  Cr  Cr3  1  0.00000000  0.34796200  0.90872300  1
  Cu  Cu0  1  0.50000000  0.46972100  0.67389500  1
  Cu  Cu1  1  0.00000000  0.98575300  0.35924800  1
  Cu  Cu2  1  0.00000000  0.53027900  0.17389500  1
  Cu  Cu3  1  0.50000000  0.01424700  0.85924800  1
  S  S0  1  0.00000000  0.68462000  0.28971700  1
  S  S1  1  0.50000000  0.77503800  0.71045800  1
  S  S2  1  0.50000000  0.31538000  0.78971700  1
  S  S3  1  0.00000000  0.22496200  0.21045800  1
  S  S4  1  0.50000000  0.64550500  0.06668800  1
  S  S5  1  0.00000000  0.83887100  0.92053700  1
  S  S6  1  0.00000000  0.35449500  0.56668800  1
  S  S7  1  0.50000000  0.16112900  0.42053700  1
  S  S8  1  0.00000000  0.61864800  0.52948300  1
  S  S9  1  0.50000000  0.87217300  0.43853800  1
  S  S10  1  0.50000000  0.38135200  0.02948300  1
  S  S11  1  0.00000000  0.12782700  0.93853800  1
  S  S12  1  0.00000000  0.55322200  0.84110900  1
  S  S13  1  0.50000000  0.95198300  0.17744300  1
  S  S14  1  0.50000000  0.44677800  0.34110900  1
  S  S15  1  0.00000000  0.04801700  0.67744300  1
loop_
_geom_bond_atom_site_label_1
_geom_bond_atom_site_label_2
_geom_bond_distance
_geom_bond_site_symmetry_2
Cr0 S4 2.388157 1_556
Cr0 S12 2.411054 1_655
Cr0 S12 2.411054 1_555
Cr0 S1 2.439732 1_555
Cr0 S5 2.500191 1_555
Cr0 S5 2.500191 1_655
Cr1 S6 2.388157 1_555
Cr1 S14 2.411054 1_555
Cr1 S14 2.411054 1_455
Cr1 S3 2.439732 1_555
Cr1 S7 2.500191 1_455
Cr1 S7 2.500191 1_555
Cr2 S0 2.377769 1_555
Cr2 S0 2.377769 1_655
Cr2 S8 2.393726 1_655
Cr2 S8 2.393726 1_555
Cr2 S14 2.466385 1_555
Cr2 S9 2.505121 1_555
Cr3 S2 2.377769 1_455
Cr3 S2 2.377769 1_555
Cr3 S10 2.393726 1_456
Cr3 S10 2.393726 1_556
Cr3 S12 2.466385 1_555
Cr3 S11 2.505121 1_555
Cu0 S2 2.286159 1_555
Cu0 S6 2.599670 1_555
Cu0 S6 2.599670 1_655
Cu0 S12 2.945904 1_655
Cu0 S12 2.945904 1_555
Cu1 S9 2.418982 1_455
Cu1 S9 2.418982 1_555
Cu1 S7 2.773493 1_565
Cu1 S7 2.773493 1_465
Cu1 S13 2.963297 1_555
Cu1 S13 2.963297 1_455
Cu2 S0 2.286159 1_555
Cu2 S4 2.599670 1_455
Cu2 S4 2.599670 1_555
Cu2 S14 2.945904 1_455
Cu2 S14 2.945904 1_555
Cu3 S11 2.418982 1_655
Cu3 S11 2.418982 1_555
Cu3 S5 2.773493 1_545
Cu3 S5 2.773493 1_645
Cu3 S15 2.963297 1_555
Cu3 S15 2.963297 1_655
S0 Zr0 2.583769 1_555
S1 Zr2 2.502412 1_555
S1 Zr2 2.502412 1_655
S2 Zr1 2.583769 1_555
S3 Zr3 2.502412 1_455
S3 Zr3 2.502412 1_555
S4 Zr0 2.572448 1_655
S4 Zr0 2.572448 1_555
S5 Zr0 2.547782 1_556
S6 Zr1 2.572448 1_555
S6 Zr1 2.572448 1_455
S7 Zr1 2.547782 1_555
S8 Zr2 2.505555 1_555
S9 Zr2 2.616909 1_555
S9 Zr2 2.616909 1_655
S10 Zr3 2.505555 1_555
S11 Zr3 2.616909 1_456
S11 Zr3 2.616909 1_556
S13 Zr0 2.590790 1_555
S13 Zr0 2.590790 1_655
S13 Zr3 2.705224 1_565
S15 Zr1 2.590790 1_555
S15 Zr1 2.590790 1_455
S15 Zr2 2.705224 1_545
