# generated using pymatgen
data_NdH10S3N3O11
_symmetry_space_group_name_H-M   'P 1'
_cell_length_a   8.02899400
_cell_length_b   9.26392724
_cell_length_c   9.35791757
_cell_angle_alpha   117.45928751
_cell_angle_beta   95.29185053
_cell_angle_gamma   92.38996557
_symmetry_Int_Tables_number   1
_chemical_formula_structural   NdH10S3N3O11
_chemical_formula_sum   'Nd2 H20 S6 N6 O22'
_cell_volume   612.19181733
_cell_formula_units_Z   2
loop_
 _symmetry_equiv_pos_site_id
 _symmetry_equiv_pos_as_xyz
  1  'x, y, z'
loop_
 _atom_site_type_symbol
 _atom_site_label
 _atom_site_symmetry_multiplicity
 _atom_site_fract_x
 _atom_site_fract_y
 _atom_site_fract_z
 _atom_site_occupancy
  Nd  Nd0  1  0.78134800  0.61624100  0.77892900  1
  Nd  Nd1  1  0.21865200  0.38375900  0.22107100  1
  H  H0  1  0.80713200  0.56367500  0.26956200  1
  H  H1  1  0.19286800  0.43632500  0.73043800  1
  H  H2  1  0.84677000  0.76730800  0.37451800  1
  H  H3  1  0.15323000  0.23269200  0.62548200  1
  H  H4  1  0.30894400  0.89590200  0.32706400  1
  H  H5  1  0.69105600  0.10409800  0.67293600  1
  H  H6  1  0.12008200  0.96474100  0.30949800  1
  H  H7  1  0.87991800  0.03525900  0.69050200  1
  H  H8  1  0.62488900  0.20801300  0.22742200  1
  H  H9  1  0.37511100  0.79198700  0.77257800  1
  H  H10  1  0.61996300  0.09010000  0.31788600  1
  H  H11  1  0.38003700  0.90990000  0.68211400  1
  H  H12  1  0.72685800  0.97086800  0.85508800  1
  H  H13  1  0.27314200  0.02913200  0.14491200  1
  H  H14  1  0.70529700  0.96421900  0.02237600  1
  H  H15  1  0.29470300  0.03578100  0.97762400  1
  H  H16  1  0.50502900  0.66088600  0.00463800  1
  H  H17  1  0.49497100  0.33911400  0.99536200  1
  H  H18  1  0.67661000  0.67034200  0.11305000  1
  H  H19  1  0.32339000  0.32965800  0.88695000  1
  S  S0  1  0.59946200  0.67973000  0.41572700  1
  S  S1  1  0.40053800  0.32027000  0.58427300  1
  S  S2  1  0.14523200  0.71872200  0.10113600  1
  S  S3  1  0.85476800  0.28127800  0.89886400  1
  S  S4  1  0.86731500  0.23575900  0.38004400  1
  S  S5  1  0.13268500  0.76424100  0.61995600  1
  N  N0  1  0.75533300  0.67257700  0.30618200  1
  N  N1  1  0.24466700  0.32742300  0.69381800  1
  N  N2  1  0.21664200  0.90504300  0.24820800  1
  N  N3  1  0.78335800  0.09495700  0.75179200  1
  N  N4  1  0.69202700  0.13129200  0.25633500  1
  N  N5  1  0.30797300  0.86870800  0.74366500  1
  O  O0  1  0.51144000  0.81860300  0.43042400  1
  O  O1  1  0.48856000  0.18139700  0.56957600  1
  O  O2  1  0.49714000  0.48114800  0.68366300  1
  O  O3  1  0.50286000  0.51885200  0.31633700  1
  O  O4  1  0.67110000  0.69898400  0.57486500  1
  O  O5  1  0.32890000  0.30101600  0.42513500  1
  O  O6  1  0.98164400  0.74422900  0.03652100  1
  O  O7  1  0.01835600  0.25577100  0.96347900  1
  O  O8  1  0.27010300  0.67074800  0.98775500  1
  O  O9  1  0.72989700  0.32925200  0.01224500  1
  O  O10  1  0.87419000  0.39251400  0.82645600  1
  O  O11  1  0.12581000  0.60748600  0.17354400  1
  O  O12  1  0.93926100  0.12461100  0.43355200  1
  O  O13  1  0.06073900  0.87538900  0.56644800  1
  O  O14  1  0.82308300  0.38831500  0.51308400  1
  O  O15  1  0.17691700  0.61168500  0.48691600  1
  O  O16  1  0.03259300  0.72688200  0.72519600  1
  O  O17  1  0.96740700  0.27311800  0.27480400  1
  O  O18  1  0.70291100  0.89747000  0.90367800  1
  O  O19  1  0.29708900  0.10253000  0.09632200  1
  O  O20  1  0.62834200  0.66994300  0.01082700  1
  O  O21  1  0.37165800  0.33005700  0.98917300  1
loop_
_geom_bond_atom_site_label_1
_geom_bond_atom_site_label_2
_geom_bond_distance
_geom_bond_site_symmetry_2
Nd0 O16 2.421289 1_655
Nd0 O2 2.434281 1_555
Nd0 O10 2.442726 1_555
Nd0 O20 2.452143 1_556
Nd0 O18 2.452447 1_555
Nd0 O4 2.472339 1_555
Nd0 O14 2.475478 1_555
Nd0 O6 2.508536 1_556
Nd1 O17 2.421289 1_455
Nd1 O3 2.434281 1_555
Nd1 O11 2.442726 1_555
Nd1 O21 2.452143 1_554
Nd1 O19 2.452447 1_555
Nd1 O5 2.472339 1_555
Nd1 O15 2.475478 1_555
Nd1 O7 2.508536 1_554
H0 N0 1.025010 1_555
H1 N1 1.025010 1_555
H2 N0 1.029646 1_555
H3 N1 1.029646 1_555
H4 N2 1.030978 1_555
H5 N3 1.030978 1_555
H6 N2 1.030106 1_555
H7 N3 1.030106 1_555
H8 N4 1.025342 1_555
H9 N5 1.025342 1_555
H10 N4 1.028555 1_555
H11 N5 1.028555 1_555
H12 O18 0.998205 1_555
H13 O19 0.998205 1_555
H14 O18 0.989031 1_554
H15 O19 0.989031 1_556
H16 O20 0.984207 1_555
H17 O21 0.984207 1_555
H18 O20 0.996751 1_555
H19 O21 0.996751 1_555
N0 S0 1.674032 1_555
N1 S1 1.674032 1_555
N2 S2 1.668315 1_555
N3 S3 1.668315 1_555
N4 S4 1.676347 1_555
N5 S5 1.676347 1_555
O0 S0 1.450540 1_555
O1 S1 1.450540 1_555
O2 S1 1.476474 1_555
O3 S0 1.476474 1_555
O4 S0 1.472699 1_555
O5 S1 1.472699 1_555
O6 S2 1.468929 1_655
O7 S3 1.468929 1_455
O8 S2 1.458406 1_556
O9 S3 1.458406 1_554
O10 S3 1.481678 1_555
O11 S2 1.481678 1_555
O12 S4 1.454772 1_555
O13 S5 1.454772 1_555
O14 S4 1.474507 1_555
O15 S5 1.474507 1_555
O16 S5 1.473983 1_555
O17 S4 1.473983 1_555
