# generated using pymatgen
data_MnBi2(IO)8
_symmetry_space_group_name_H-M   'P 1'
_cell_length_a   12.85151200
_cell_length_b   7.55112100
_cell_length_c   14.96676038
_cell_angle_alpha   76.48533753
_cell_angle_beta   90.00000000
_cell_angle_gamma   90.00000000
_symmetry_Int_Tables_number   1
_chemical_formula_structural   MnBi2(IO)8
_chemical_formula_sum   'Mn2 Bi4 I16 O16'
_cell_volume   1412.20673928
_cell_formula_units_Z   2
loop_
 _symmetry_equiv_pos_site_id
 _symmetry_equiv_pos_as_xyz
  1  'x, y, z'
loop_
 _atom_site_type_symbol
 _atom_site_label
 _atom_site_symmetry_multiplicity
 _atom_site_fract_x
 _atom_site_fract_y
 _atom_site_fract_z
 _atom_site_occupancy
  Mn  Mn0  1  0.50000000  0.50000000  0.50000000  1
  Mn  Mn1  1  0.00000000  0.50000000  0.00000000  1
  Bi  Bi0  1  0.54833800  0.77583300  0.93562300  1
  Bi  Bi1  1  0.04833800  0.22416700  0.56437700  1
  Bi  Bi2  1  0.45166200  0.22416700  0.06437700  1
  Bi  Bi3  1  0.95166200  0.77583300  0.43562300  1
  I  I0  1  0.34319400  0.89129700  0.04448500  1
  I  I1  1  0.84319400  0.10870300  0.45551500  1
  I  I2  1  0.65680600  0.10870300  0.95551500  1
  I  I3  1  0.15680600  0.89129700  0.54448500  1
  I  I4  1  0.63386100  0.52593400  0.09825000  1
  I  I5  1  0.13386100  0.47406600  0.40175000  1
  I  I6  1  0.36613900  0.47406600  0.90175000  1
  I  I7  1  0.86613900  0.52593400  0.59825000  1
  I  I8  1  0.67080800  0.73008700  0.77848700  1
  I  I9  1  0.17080800  0.26991300  0.72151300  1
  I  I10  1  0.32919200  0.26991300  0.22151300  1
  I  I11  1  0.82919200  0.73008700  0.27848700  1
  I  I12  1  0.43176300  0.14954600  0.62710200  1
  I  I13  1  0.93176300  0.85045400  0.87289800  1
  I  I14  1  0.56823700  0.85045400  0.37289800  1
  I  I15  1  0.06823700  0.14954600  0.12710200  1
  O  O0  1  0.47853400  0.34935200  0.66364100  1
  O  O1  1  0.97853400  0.65064800  0.83635900  1
  O  O2  1  0.52146600  0.65064800  0.33635900  1
  O  O3  1  0.02146600  0.34935200  0.16364100  1
  O  O4  1  0.62623600  0.72007700  0.47928000  1
  O  O5  1  0.12623600  0.27992300  0.02072000  1
  O  O6  1  0.37376400  0.27992300  0.52072000  1
  O  O7  1  0.87376400  0.72007700  0.97928000  1
  O  O8  1  0.40903600  0.73087700  0.50260500  1
  O  O9  1  0.90903600  0.26912300  0.99739500  1
  O  O10  1  0.59096400  0.26912300  0.49739500  1
  O  O11  1  0.09096400  0.73087700  0.00260500  1
  O  O12  1  0.57211400  0.11051300  0.56552000  1
  O  O13  1  0.07211400  0.88948700  0.93448000  1
  O  O14  1  0.42788600  0.88948700  0.43448000  1
  O  O15  1  0.92788600  0.11051300  0.06552000  1
loop_
_geom_bond_atom_site_label_1
_geom_bond_atom_site_label_2
_geom_bond_distance
_geom_bond_site_symmetry_2
Mn0 O8 2.106961 1_555
Mn0 O10 2.106961 1_555
Mn0 O4 2.291049 1_555
Mn0 O6 2.291049 1_555
Mn0 O2 2.463012 1_555
Mn0 O0 2.463012 1_555
Mn1 O11 2.106961 1_555
Mn1 O9 2.106961 1_454
Mn1 O5 2.291049 1_555
Mn1 O7 2.291049 1_454
Mn1 O3 2.463012 1_555
Mn1 O1 2.463012 1_454
Bi0 I8 2.916729 1_555
Bi0 I4 2.923439 1_556
Bi0 I2 2.949485 1_565
Bi0 I0 3.321062 1_556
Bi0 I6 3.387050 1_555
Bi1 I9 2.916729 1_555
Bi1 I5 2.923439 1_555
Bi1 I3 2.949485 1_545
Bi1 I1 3.321062 1_455
Bi1 I7 3.387050 1_455
Bi2 I10 2.916729 1_555
Bi2 I6 2.923439 1_554
Bi2 I0 2.949485 1_545
Bi2 I2 3.321062 1_554
Bi2 I4 3.387050 1_555
Bi3 I11 2.916729 1_555
Bi3 I7 2.923439 1_555
Bi3 I1 2.949485 1_565
Bi3 I3 3.321062 1_655
Bi3 I5 3.387050 1_655
I12 O0 1.822733 1_555
I12 O6 1.824077 1_555
I12 O12 2.077681 1_555
I13 O1 1.822733 1_555
I13 O7 1.824077 1_555
I13 O13 2.077681 1_655
I14 O2 1.822733 1_555
I14 O4 1.824077 1_555
I14 O14 2.077681 1_555
I15 O3 1.822733 1_555
I15 O5 1.824077 1_555
I15 O15 2.077681 1_455
O10 O12 1.400705 1_555
O11 O13 1.400705 1_554
O14 O8 1.400705 1_555
O15 O9 1.400705 1_554
