# generated using pymatgen
data_Sr3(RuN2)2
_symmetry_space_group_name_H-M   'P 1'
_cell_length_a   6.25809800
_cell_length_b   10.44205200
_cell_length_c   9.16388800
_cell_angle_alpha   90.00000000
_cell_angle_beta   90.00000000
_cell_angle_gamma   90.00000000
_symmetry_Int_Tables_number   1
_chemical_formula_structural   Sr3(RuN2)2
_chemical_formula_sum   'Sr12 Ru8 N16'
_cell_volume   598.83611482
_cell_formula_units_Z   4
loop_
 _symmetry_equiv_pos_site_id
 _symmetry_equiv_pos_as_xyz
  1  'x, y, z'
loop_
 _atom_site_type_symbol
 _atom_site_label
 _atom_site_symmetry_multiplicity
 _atom_site_fract_x
 _atom_site_fract_y
 _atom_site_fract_z
 _atom_site_occupancy
  Sr  Sr0  1  0.62556300  0.15459100  0.42277200  1
  Sr  Sr1  1  0.87443700  0.84540900  0.42277200  1
  Sr  Sr2  1  0.62556300  0.34540900  0.07722800  1
  Sr  Sr3  1  0.87443700  0.65459100  0.07722800  1
  Sr  Sr4  1  0.37443700  0.84540900  0.57722800  1
  Sr  Sr5  1  0.12556300  0.15459100  0.57722800  1
  Sr  Sr6  1  0.37443700  0.65459100  0.92277200  1
  Sr  Sr7  1  0.12556300  0.34540900  0.92277200  1
  Sr  Sr8  1  0.75000000  0.50000000  0.40543200  1
  Sr  Sr9  1  0.75000000  0.00000000  0.09456800  1
  Sr  Sr10  1  0.25000000  0.50000000  0.59456800  1
  Sr  Sr11  1  0.25000000  0.00000000  0.90543200  1
  Ru  Ru0  1  0.75000000  0.50000000  0.74401500  1
  Ru  Ru1  1  0.75000000  0.00000000  0.75598500  1
  Ru  Ru2  1  0.25000000  0.50000000  0.25598500  1
  Ru  Ru3  1  0.25000000  0.00000000  0.24401500  1
  Ru  Ru4  1  0.69392600  0.25000000  0.75000000  1
  Ru  Ru5  1  0.80607400  0.75000000  0.75000000  1
  Ru  Ru6  1  0.30607400  0.75000000  0.25000000  1
  Ru  Ru7  1  0.19392600  0.25000000  0.25000000  1
  N  N0  1  0.90601400  0.35661800  0.64747400  1
  N  N1  1  0.59398600  0.64338200  0.64747400  1
  N  N2  1  0.90601400  0.14338200  0.85252600  1
  N  N3  1  0.59398600  0.85661800  0.85252600  1
  N  N4  1  0.09398600  0.64338200  0.35252600  1
  N  N5  1  0.40601400  0.35661800  0.35252600  1
  N  N6  1  0.09398600  0.85661800  0.14747400  1
  N  N7  1  0.40601400  0.14338200  0.14747400  1
  N  N8  1  0.48146600  0.40131700  0.81062800  1
  N  N9  1  0.01853400  0.59868300  0.81062800  1
  N  N10  1  0.48146600  0.09868300  0.68937200  1
  N  N11  1  0.01853400  0.90131700  0.68937200  1
  N  N12  1  0.51853400  0.59868300  0.18937200  1
  N  N13  1  0.98146600  0.40131700  0.18937200  1
  N  N14  1  0.51853400  0.90131700  0.31062800  1
  N  N15  1  0.98146600  0.09868300  0.31062800  1
loop_
_geom_bond_atom_site_label_1
_geom_bond_atom_site_label_2
_geom_bond_distance
_geom_bond_site_symmetry_2
N0 Ru4 1.970743 1_555
N0 Ru0 1.994381 1_555
N0 Sr5 2.598550 1_655
N0 Sr10 2.666604 1_655
N0 Sr8 2.848614 1_555
N0 Sr7 2.875062 1_655
N1 Ru5 1.970743 1_555
N1 Ru0 1.994381 1_555
N1 Sr4 2.598550 1_555
N1 Sr10 2.666604 1_555
N1 Sr8 2.848614 1_555
N1 Sr6 2.875062 1_555
N2 Ru4 1.970743 1_555
N2 Ru1 1.994381 1_555
N2 Sr7 2.598550 1_655
N2 Sr11 2.666604 1_655
N2 Sr9 2.848614 1_556
N2 Sr5 2.875062 1_655
N3 Ru5 1.970743 1_555
N3 Ru1 1.994381 1_565
N3 Sr6 2.598550 1_555
N3 Sr11 2.666604 1_565
N3 Sr9 2.848614 1_566
N3 Sr4 2.875062 1_555
N4 Ru6 1.970743 1_555
N4 Ru2 1.994381 1_555
N4 Sr1 2.598550 1_455
N4 Sr8 2.666604 1_455
N4 Sr10 2.848614 1_555
N4 Sr3 2.875062 1_455
N5 Ru7 1.970743 1_555
N5 Ru2 1.994381 1_555
N5 Sr0 2.598550 1_555
N5 Sr8 2.666604 1_555
N5 Sr10 2.848614 1_555
N5 Sr2 2.875062 1_555
N6 Ru6 1.970743 1_555
N6 Ru3 1.994381 1_565
N6 Sr3 2.598550 1_455
N6 Sr9 2.666604 1_465
N6 Sr11 2.848614 1_564
N6 Sr1 2.875062 1_455
N7 Ru7 1.970743 1_555
N7 Ru3 1.994381 1_555
N7 Sr2 2.598550 1_555
N7 Sr9 2.666604 1_555
N7 Sr11 2.848614 1_554
N7 Sr0 2.875062 1_555
N8 Ru0 2.063634 1_555
N8 Ru4 2.138479 1_555
N8 Sr7 2.521446 1_555
N8 Sr10 2.660882 1_555
N8 Sr2 2.668841 1_556
N8 Sr6 2.915336 1_555
N9 Ru0 2.063634 1_455
N9 Ru5 2.138479 1_455
N9 Sr6 2.521446 1_555
N9 Sr10 2.660882 1_555
N9 Sr3 2.668841 1_456
N9 Sr7 2.915336 1_555
N10 Ru1 2.063634 1_555
N10 Ru4 2.138479 1_555
N10 Sr5 2.521446 1_555
N10 Sr11 2.660882 1_555
N10 Sr0 2.668841 1_555
N10 Sr4 2.915336 1_545
N11 Ru1 2.063634 1_465
N11 Ru5 2.138479 1_455
N11 Sr4 2.521446 1_555
N11 Sr11 2.660882 1_565
N11 Sr1 2.668841 1_455
N11 Sr5 2.915336 1_565
N12 Ru2 2.063634 1_555
N12 Ru6 2.138479 1_555
N12 Sr3 2.521446 1_555
N12 Sr8 2.660882 1_555
N12 Sr6 2.668841 1_554
N12 Sr2 2.915336 1_555
N13 Ru2 2.063634 1_655
N13 Ru7 2.138479 1_655
N13 Sr2 2.521446 1_555
N13 Sr8 2.660882 1_555
N13 Sr7 2.668841 1_654
N13 Sr3 2.915336 1_555
N14 Ru3 2.063634 1_565
N14 Ru6 2.138479 1_555
N14 Sr1 2.521446 1_555
N14 Sr9 2.660882 1_565
N14 Sr4 2.668841 1_555
N14 Sr0 2.915336 1_565
N15 Ru3 2.063634 1_655
N15 Ru7 2.138479 1_655
N15 Sr0 2.521446 1_555
N15 Sr9 2.660882 1_555
N15 Sr5 2.668841 1_655
N15 Sr1 2.915336 1_545
