# generated using pymatgen
data_LaNi2Rh3
_symmetry_space_group_name_H-M   'P 1'
_cell_length_a   5.26654393
_cell_length_b   5.26654437
_cell_length_c   4.00053426
_cell_angle_alpha   90.00000000
_cell_angle_beta   90.00000000
_cell_angle_gamma   119.99634453
_symmetry_Int_Tables_number   1
_chemical_formula_structural   LaNi2Rh3
_chemical_formula_sum   'La1 Ni2 Rh3'
_cell_volume   96.09838309
_cell_formula_units_Z   1
loop_
 _symmetry_equiv_pos_site_id
 _symmetry_equiv_pos_as_xyz
  1  'x, y, z'
loop_
 _atom_site_type_symbol
 _atom_site_label
 _atom_site_symmetry_multiplicity
 _atom_site_fract_x
 _atom_site_fract_y
 _atom_site_fract_z
 _atom_site_occupancy
  La  La0  1  0.00005786  0.00005786  0.00000000  1
  Ni  Ni0  1  0.66643378  0.33315839  0.00000000  1
  Ni  Ni1  1  0.33315839  0.66643378  0.00000000  1
  Rh  Rh0  1  0.50028759  0.50028759  0.50000000  1
  Rh  Rh1  1  0.50012192  0.00004046  0.50000000  1
  Rh  Rh2  1  0.00004046  0.50012192  0.50000000  1
loop_
_geom_bond_atom_site_label_1
_geom_bond_atom_site_label_2
_geom_bond_distance
_geom_bond_site_symmetry_2
La0 Ni0 3.039426 1_555
La0 Ni1 3.039427 1_555
La0 Ni0 3.040849 1_455
La0 Ni1 3.040849 1_545
La0 Ni1 3.041815 1_445
La0 Ni0 3.041815 1_445
La0 Rh0 3.305992 1_445
La0 Rh0 3.305992 1_444
La0 Rh1 3.306535 1_455
La0 Rh1 3.306535 1_454
La0 Rh2 3.306535 1_544
La0 Rh2 3.306535 1_545
La0 Rh1 3.307145 1_554
La0 Rh1 3.307145 1_555
La0 Rh2 3.307145 1_555
La0 Rh2 3.307145 1_554
La0 Rh0 3.307919 1_554
La0 Rh0 3.307919 1_555
Ni0 Rh1 2.511897 1_555
Ni0 Rh1 2.511897 1_554
Ni0 Rh0 2.512282 1_554
Ni0 Rh0 2.512282 1_555
Ni0 Rh2 2.513246 1_655
Ni0 Rh2 2.513246 1_654
Ni0 Ni1 3.040056 1_555
Ni0 Ni1 3.041017 1_655
Ni0 Ni1 3.041017 1_545
Ni1 Rh2 2.511897 1_555
Ni1 Rh2 2.511897 1_554
Ni1 Rh0 2.512282 1_554
Ni1 Rh0 2.512282 1_555
Ni1 Rh1 2.513246 1_565
Ni1 Rh1 2.513246 1_564
Rh0 Rh2 2.632407 1_655
Rh0 Rh1 2.632407 1_565
Rh0 Rh2 2.634137 1_555
Rh0 Rh1 2.634138 1_555
Rh1 Rh2 2.633418 1_545
Rh1 Rh2 2.633418 1_655
