# generated using pymatgen
data_AlCoNF6
_symmetry_space_group_name_H-M   'P 1'
_cell_length_a   6.95148900
_cell_length_b   7.25083700
_cell_length_c   10.00154400
_cell_angle_alpha   90.00000000
_cell_angle_beta   90.00000000
_cell_angle_gamma   90.00000000
_symmetry_Int_Tables_number   1
_chemical_formula_structural   AlCoNF6
_chemical_formula_sum   'Al4 Co4 N4 F24'
_cell_volume   504.11896041
_cell_formula_units_Z   4
loop_
 _symmetry_equiv_pos_site_id
 _symmetry_equiv_pos_as_xyz
  1  'x, y, z'
loop_
 _atom_site_type_symbol
 _atom_site_label
 _atom_site_symmetry_multiplicity
 _atom_site_fract_x
 _atom_site_fract_y
 _atom_site_fract_z
 _atom_site_occupancy
  Al  Al0  1  0.50000000  0.00000000  0.00000000  1
  Al  Al1  1  0.00000000  0.50000000  0.50000000  1
  Al  Al2  1  0.00000000  0.00000000  0.00000000  1
  Al  Al3  1  0.50000000  0.50000000  0.50000000  1
  Co  Co0  1  0.25000000  0.22494600  0.73531400  1
  Co  Co1  1  0.25000000  0.72494600  0.76468600  1
  Co  Co2  1  0.75000000  0.77505400  0.26468600  1
  Co  Co3  1  0.75000000  0.27505400  0.23531400  1
  N  N0  1  0.25000000  0.01236600  0.37353000  1
  N  N1  1  0.25000000  0.51236600  0.12647000  1
  N  N2  1  0.75000000  0.98763400  0.62647000  1
  N  N3  1  0.75000000  0.48763400  0.87353000  1
  F  F0  1  0.25000000  0.46765300  0.82059500  1
  F  F1  1  0.25000000  0.96765300  0.67940500  1
  F  F2  1  0.75000000  0.53234700  0.17940500  1
  F  F3  1  0.75000000  0.03234700  0.32059500  1
  F  F4  1  0.25000000  0.01665800  0.05494900  1
  F  F5  1  0.25000000  0.51665800  0.44505100  1
  F  F6  1  0.75000000  0.98334200  0.94505100  1
  F  F7  1  0.75000000  0.48334200  0.55494900  1
  F  F8  1  0.44726000  0.15516800  0.86102900  1
  F  F9  1  0.05274000  0.65516800  0.63897100  1
  F  F10  1  0.94726000  0.84483200  0.13897100  1
  F  F11  1  0.55274000  0.34483200  0.36102900  1
  F  F12  1  0.55274000  0.84483200  0.13897100  1
  F  F13  1  0.94726000  0.34483200  0.36102900  1
  F  F14  1  0.05274000  0.15516800  0.86102900  1
  F  F15  1  0.44726000  0.65516800  0.63897100  1
  F  F16  1  0.43751200  0.79972100  0.89459700  1
  F  F17  1  0.06248800  0.29972100  0.60540300  1
  F  F18  1  0.93751200  0.20027900  0.10540300  1
  F  F19  1  0.56248800  0.70027900  0.39459700  1
  F  F20  1  0.56248800  0.20027900  0.10540300  1
  F  F21  1  0.93751200  0.70027900  0.39459700  1
  F  F22  1  0.06248800  0.79972100  0.89459700  1
  F  F23  1  0.43751200  0.29972100  0.60540300  1
loop_
_geom_bond_atom_site_label_1
_geom_bond_atom_site_label_2
_geom_bond_distance
_geom_bond_site_symmetry_2
Al0 F8 1.825417 1_554
Al0 F12 1.825417 1_545
Al0 F4 1.826697 1_555
Al0 F6 1.826697 1_544
Al0 F16 1.846312 1_544
Al0 F20 1.846312 1_555
Al1 F9 1.825417 1_555
Al1 F13 1.825417 1_455
Al1 F5 1.826697 1_555
Al1 F7 1.826697 1_455
Al1 F17 1.846312 1_555
Al1 F21 1.846312 1_455
Al2 F14 1.825417 1_554
Al2 F10 1.825417 1_445
Al2 F4 1.826697 1_555
Al2 F6 1.826697 1_444
Al2 F22 1.846312 1_544
Al2 F18 1.846312 1_455
Al3 F15 1.825417 1_555
Al3 F11 1.825417 1_555
Al3 F5 1.826697 1_555
Al3 F7 1.826697 1_555
Al3 F23 1.846312 1_555
Al3 F19 1.846312 1_555
Co0 F23 1.918658 1_555
Co0 F17 1.918658 1_555
Co0 F14 1.928011 1_555
Co0 F8 1.928011 1_555
Co0 F1 1.947589 1_545
Co0 F0 1.955635 1_555
Co1 F22 1.918658 1_555
Co1 F16 1.918658 1_555
Co1 F15 1.928011 1_555
Co1 F9 1.928011 1_555
Co1 F0 1.947589 1_555
Co1 F1 1.955635 1_555
Co2 F19 1.918658 1_555
Co2 F21 1.918658 1_555
Co2 F12 1.928011 1_555
Co2 F10 1.928011 1_555
Co2 F3 1.947589 1_565
Co2 F2 1.955635 1_555
Co3 F20 1.918658 1_555
Co3 F18 1.918658 1_555
Co3 F13 1.928011 1_555
Co3 F11 1.928011 1_555
Co3 F2 1.947589 1_555
Co3 F3 1.955635 1_555
