# generated using pymatgen
data_Fe7(OF3)3
_symmetry_space_group_name_H-M   'P 1'
_cell_length_a   5.49466800
_cell_length_b   5.70534910
_cell_length_c   9.13027394
_cell_angle_alpha   104.57634488
_cell_angle_beta   89.50847620
_cell_angle_gamma   117.85924825
_symmetry_Int_Tables_number   1
_chemical_formula_structural   Fe7(OF3)3
_chemical_formula_sum   'Fe7 O3 F9'
_cell_volume   242.90975196
_cell_formula_units_Z   1
loop_
 _symmetry_equiv_pos_site_id
 _symmetry_equiv_pos_as_xyz
  1  'x, y, z'
loop_
 _atom_site_type_symbol
 _atom_site_label
 _atom_site_symmetry_multiplicity
 _atom_site_fract_x
 _atom_site_fract_y
 _atom_site_fract_z
 _atom_site_occupancy
  Fe  Fe0  1  0.21181700  0.36263100  0.07104500  1
  Fe  Fe1  1  0.03593600  0.37740600  0.66504700  1
  Fe  Fe2  1  0.47790200  0.13578400  0.81458900  1
  Fe  Fe3  1  0.32050900  0.14041300  0.43153500  1
  Fe  Fe4  1  0.49020400  0.89716900  0.17424400  1
  Fe  Fe5  1  0.94951600  0.62684700  0.31594600  1
  Fe  Fe6  1  0.78004600  0.91109900  0.58512700  1
  O  O0  1  0.18167600  0.10343000  0.62149600  1
  O  O1  1  0.24991400  0.01672600  0.23505300  1
  O  O2  1  0.75459500  0.27571400  0.47567500  1
  F  F0  1  0.19775300  0.46619900  0.27693600  1
  F  F1  1  0.24824100  0.77638800  0.96934500  1
  F  F2  1  0.35148200  0.72636200  0.54830500  1
  F  F3  1  0.28009400  0.34590200  0.86791700  1
  F  F4  1  0.63242600  0.62911400  0.14324700  1
  F  F5  1  0.72029200  0.97183000  0.77051100  1
  F  F6  1  0.76819400  0.20215800  0.01973800  1
  F  F7  1  0.77862500  0.53356000  0.69971100  1
  F  F8  1  0.78718700  0.86452200  0.38448400  1
loop_
_geom_bond_atom_site_label_1
_geom_bond_atom_site_label_2
_geom_bond_distance
_geom_bond_site_symmetry_2
Fe1 O0 2.023442 1_555
Fe1 O2 2.102032 1_455
Fe2 O0 2.322957 1_555
Fe3 O1 1.727877 1_555
Fe3 O0 1.909357 1_555
Fe3 O2 2.141589 1_555
Fe4 O1 1.776308 1_565
Fe5 O1 2.364833 1_665
Fe5 O2 2.593405 1_555
Fe6 O0 1.936592 1_665
Fe6 O2 2.581924 1_565
F0 Fe0 1.835759 1_555
F0 Fe5 1.955280 1_455
F1 Fe4 2.068773 1_556
F1 Fe2 2.608211 1_565
F2 Fe6 2.069945 1_555
F2 Fe1 2.432339 1_555
F3 Fe0 1.876667 1_556
F3 Fe2 1.941748 1_555
F3 Fe1 2.387163 1_555
F4 Fe4 1.981161 1_555
F4 Fe0 2.079672 1_555
F4 Fe5 2.366541 1_555
F5 Fe6 1.701284 1_555
F5 Fe2 1.943315 1_565
F6 Fe0 2.171942 1_655
F6 Fe2 2.307749 1_554
F6 Fe4 2.462825 1_545
F7 Fe1 1.980016 1_655
F7 Fe2 2.577696 1_555
F7 Fe6 2.617755 1_555
F8 Fe6 1.786501 1_555
F8 Fe5 1.928638 1_555
