# generated using pymatgen
data_BaMg30AlO32
_symmetry_space_group_name_H-M   'P 1'
_cell_length_a   8.70360000
_cell_length_b   8.70360000
_cell_length_c   8.62707400
_cell_angle_alpha   90.00000000
_cell_angle_beta   90.00000000
_cell_angle_gamma   90.00000000
_symmetry_Int_Tables_number   1
_chemical_formula_structural   BaMg30AlO32
_chemical_formula_sum   'Ba1 Mg30 Al1 O32'
_cell_volume   653.52374278
_cell_formula_units_Z   1
loop_
 _symmetry_equiv_pos_site_id
 _symmetry_equiv_pos_as_xyz
  1  'x, y, z'
loop_
 _atom_site_type_symbol
 _atom_site_label
 _atom_site_symmetry_multiplicity
 _atom_site_fract_x
 _atom_site_fract_y
 _atom_site_fract_z
 _atom_site_occupancy
  Ba  Ba0  1  0.00000000  0.00000000  0.50000000  1
  Mg  Mg0  1  0.50000000  0.00000000  0.00000000  1
  Mg  Mg1  1  0.50000000  0.00000000  0.50000000  1
  Mg  Mg2  1  0.00000000  0.50000000  0.00000000  1
  Mg  Mg3  1  0.00000000  0.50000000  0.50000000  1
  Mg  Mg4  1  0.50000000  0.50000000  0.00000000  1
  Mg  Mg5  1  0.50000000  0.50000000  0.50000000  1
  Mg  Mg6  1  0.25968000  0.00000000  0.24393100  1
  Mg  Mg7  1  0.25968000  0.00000000  0.75606900  1
  Mg  Mg8  1  0.74032000  0.00000000  0.24393100  1
  Mg  Mg9  1  0.74032000  0.00000000  0.75606900  1
  Mg  Mg10  1  0.25150400  0.50000000  0.24969500  1
  Mg  Mg11  1  0.25150400  0.50000000  0.75030500  1
  Mg  Mg12  1  0.74849600  0.50000000  0.24969500  1
  Mg  Mg13  1  0.74849600  0.50000000  0.75030500  1
  Mg  Mg14  1  0.00000000  0.25968000  0.24393100  1
  Mg  Mg15  1  0.00000000  0.25968000  0.75606900  1
  Mg  Mg16  1  0.50000000  0.25150400  0.24969500  1
  Mg  Mg17  1  0.50000000  0.25150400  0.75030500  1
  Mg  Mg18  1  0.00000000  0.74032000  0.24393100  1
  Mg  Mg19  1  0.00000000  0.74032000  0.75606900  1
  Mg  Mg20  1  0.50000000  0.74849600  0.24969500  1
  Mg  Mg21  1  0.50000000  0.74849600  0.75030500  1
  Mg  Mg22  1  0.25118700  0.25118700  0.00000000  1
  Mg  Mg23  1  0.25818500  0.25818500  0.50000000  1
  Mg  Mg24  1  0.74881300  0.25118700  0.00000000  1
  Mg  Mg25  1  0.74181500  0.25818500  0.50000000  1
  Mg  Mg26  1  0.25118700  0.74881300  0.00000000  1
  Mg  Mg27  1  0.25818500  0.74181500  0.50000000  1
  Mg  Mg28  1  0.74881300  0.74881300  0.00000000  1
  Mg  Mg29  1  0.74181500  0.74181500  0.50000000  1
  Al  Al0  1  0.00000000  0.00000000  0.00000000  1
  O  O0  1  0.00000000  0.24057100  0.00000000  1
  O  O1  1  0.00000000  0.27858800  0.50000000  1
  O  O2  1  0.50000000  0.24876900  0.00000000  1
  O  O3  1  0.50000000  0.25567000  0.50000000  1
  O  O4  1  0.00000000  0.75942900  0.00000000  1
  O  O5  1  0.00000000  0.72141200  0.50000000  1
  O  O6  1  0.50000000  0.75123100  0.00000000  1
  O  O7  1  0.50000000  0.74433000  0.50000000  1
  O  O8  1  0.24881700  0.24881700  0.25028700  1
  O  O9  1  0.24881700  0.24881700  0.74971300  1
  O  O10  1  0.75118300  0.24881700  0.25028700  1
  O  O11  1  0.75118300  0.24881700  0.74971300  1
  O  O12  1  0.24881700  0.75118300  0.25028700  1
  O  O13  1  0.24881700  0.75118300  0.74971300  1
  O  O14  1  0.75118300  0.75118300  0.25028700  1
  O  O15  1  0.75118300  0.75118300  0.74971300  1
  O  O16  1  0.00000000  0.00000000  0.21121700  1
  O  O17  1  0.00000000  0.00000000  0.78878300  1
  O  O18  1  0.50000000  0.00000000  0.24126000  1
  O  O19  1  0.50000000  0.00000000  0.75874000  1
  O  O20  1  0.00000000  0.50000000  0.24126000  1
  O  O21  1  0.00000000  0.50000000  0.75874000  1
  O  O22  1  0.50000000  0.50000000  0.24780700  1
  O  O23  1  0.50000000  0.50000000  0.75219300  1
  O  O24  1  0.24057100  0.00000000  0.00000000  1
  O  O25  1  0.27858800  0.00000000  0.50000000  1
  O  O26  1  0.75942900  0.00000000  0.00000000  1
  O  O27  1  0.72141200  0.00000000  0.50000000  1
  O  O28  1  0.24876900  0.50000000  0.00000000  1
  O  O29  1  0.25567000  0.50000000  0.50000000  1
  O  O30  1  0.75123100  0.50000000  0.00000000  1
  O  O31  1  0.74433000  0.50000000  0.50000000  1
loop_
_geom_bond_atom_site_label_1
_geom_bond_atom_site_label_2
_geom_bond_distance
_geom_bond_site_symmetry_2
Ba0 O5 2.424719 1_545
Ba0 O27 2.424719 1_455
Ba0 O25 2.424719 1_555
Ba0 O1 2.424719 1_555
Ba0 O17 2.491352 1_555
Ba0 O16 2.491352 1_555
Mg0 O18 2.081368 1_555
Mg0 O19 2.081368 1_554
Mg0 O6 2.165186 1_545
Mg0 O2 2.165186 1_555
Mg0 O24 2.257966 1_555
Mg0 O26 2.257966 1_555
Mg1 O25 1.927081 1_555
Mg1 O27 1.927081 1_555
Mg1 O7 2.225249 1_545
Mg1 O3 2.225249 1_555
Mg1 O18 2.232169 1_555
Mg1 O19 2.232169 1_555
Mg2 O20 2.081368 1_555
Mg2 O21 2.081368 1_554
Mg2 O28 2.165186 1_555
Mg2 O30 2.165186 1_455
Mg2 O0 2.257966 1_555
Mg2 O4 2.257966 1_555
Mg3 O1 1.927081 1_555
Mg3 O5 1.927081 1_555
Mg3 O31 2.225249 1_455
Mg3 O29 2.225249 1_555
Mg3 O21 2.232169 1_555
Mg3 O20 2.232169 1_555
Mg4 O22 2.137849 1_555
Mg4 O23 2.137849 1_554
Mg4 O30 2.186614 1_555
Mg4 O2 2.186614 1_555
Mg4 O28 2.186614 1_555
Mg4 O6 2.186614 1_555
Mg5 O3 2.126551 1_555
Mg5 O29 2.126551 1_555
Mg5 O7 2.126551 1_555
Mg5 O31 2.126551 1_555
Mg5 O23 2.175688 1_555
Mg5 O22 2.175688 1_555
Mg6 O18 2.091776 1_555
Mg6 O24 2.110973 1_555
Mg6 O12 2.168360 1_545
Mg6 O8 2.168360 1_555
Mg6 O25 2.215247 1_555
Mg6 O16 2.277704 1_555
Mg7 O19 2.091776 1_555
Mg7 O24 2.110973 1_556
Mg7 O13 2.168360 1_545
Mg7 O9 2.168360 1_555
Mg7 O25 2.215247 1_555
Mg7 O17 2.277704 1_555
Mg8 O18 2.091776 1_555
Mg8 O26 2.110973 1_555
Mg8 O14 2.168360 1_545
Mg8 O10 2.168360 1_555
Mg8 O27 2.215247 1_555
Mg8 O16 2.277704 1_655
Mg9 O19 2.091776 1_555
Mg9 O26 2.110973 1_556
Mg9 O15 2.168360 1_545
Mg9 O11 2.168360 1_555
Mg9 O27 2.215247 1_555
Mg9 O17 2.277704 1_655
Mg10 O28 2.154269 1_555
Mg10 O29 2.159704 1_555
Mg10 O22 2.162871 1_555
Mg10 O8 2.186327 1_555
Mg10 O12 2.186327 1_555
Mg10 O20 2.190199 1_555
Mg11 O28 2.154269 1_556
Mg11 O29 2.159704 1_555
Mg11 O23 2.162871 1_555
Mg11 O9 2.186327 1_555
Mg11 O13 2.186327 1_555
Mg11 O21 2.190199 1_555
Mg12 O30 2.154269 1_555
Mg12 O31 2.159704 1_555
Mg12 O22 2.162871 1_555
Mg12 O10 2.186327 1_555
Mg12 O14 2.186327 1_555
Mg12 O20 2.190199 1_655
Mg13 O30 2.154269 1_556
Mg13 O31 2.159704 1_555
Mg13 O23 2.162871 1_555
Mg13 O11 2.186327 1_555
Mg13 O15 2.186327 1_555
Mg13 O21 2.190199 1_655
Mg14 O20 2.091776 1_555
Mg14 O0 2.110973 1_555
Mg14 O10 2.168360 1_455
Mg14 O8 2.168360 1_555
Mg14 O1 2.215247 1_555
Mg14 O16 2.277704 1_555
Mg15 O21 2.091776 1_555
Mg15 O0 2.110973 1_556
Mg15 O11 2.168360 1_455
Mg15 O9 2.168360 1_555
Mg15 O1 2.215247 1_555
Mg15 O17 2.277704 1_555
Mg16 O2 2.154269 1_555
Mg16 O3 2.159704 1_555
Mg16 O22 2.162871 1_555
Mg16 O8 2.186327 1_555
Mg16 O10 2.186327 1_555
Mg16 O18 2.190199 1_555
Mg17 O2 2.154269 1_556
Mg17 O3 2.159704 1_555
Mg17 O23 2.162871 1_555
Mg17 O9 2.186327 1_555
Mg17 O11 2.186327 1_555
Mg17 O19 2.190199 1_555
Mg18 O20 2.091776 1_555
Mg18 O4 2.110973 1_555
Mg18 O14 2.168360 1_455
Mg18 O12 2.168360 1_555
Mg18 O5 2.215247 1_555
Mg18 O16 2.277704 1_565
Mg19 O21 2.091776 1_555
Mg19 O4 2.110973 1_556
Mg19 O15 2.168360 1_455
Mg19 O13 2.168360 1_555
Mg19 O5 2.215247 1_555
Mg19 O17 2.277704 1_565
Mg20 O6 2.154269 1_555
Mg20 O7 2.159704 1_555
Mg20 O22 2.162871 1_555
Mg20 O12 2.186327 1_555
Mg20 O14 2.186327 1_555
Mg20 O18 2.190199 1_565
Mg21 O6 2.154269 1_556
Mg21 O7 2.159704 1_555
Mg21 O23 2.162871 1_555
Mg21 O13 2.186327 1_555
Mg21 O15 2.186327 1_555
Mg21 O19 2.190199 1_565
Mg22 O8 2.159442 1_555
Mg22 O9 2.159442 1_554
Mg22 O2 2.165671 1_555
Mg22 O28 2.165671 1_555
Mg22 O0 2.188183 1_555
Mg22 O24 2.188183 1_555
Mg23 O29 2.104775 1_555
Mg23 O3 2.104775 1_555
Mg23 O9 2.157376 1_555
Mg23 O8 2.157376 1_555
Mg23 O1 2.254145 1_555
Mg23 O25 2.254145 1_555
Mg24 O10 2.159442 1_555
Mg24 O11 2.159442 1_554
Mg24 O2 2.165671 1_555
Mg24 O30 2.165671 1_555
Mg24 O26 2.188183 1_555
Mg24 O0 2.188183 1_655
Mg25 O31 2.104775 1_555
Mg25 O3 2.104775 1_555
Mg25 O11 2.157376 1_555
Mg25 O10 2.157376 1_555
Mg25 O27 2.254145 1_555
Mg25 O1 2.254145 1_655
Mg26 O12 2.159442 1_555
Mg26 O13 2.159442 1_554
Mg26 O28 2.165671 1_555
Mg26 O6 2.165671 1_555
Mg26 O4 2.188183 1_555
Mg26 O24 2.188183 1_565
Mg27 O7 2.104775 1_555
Mg27 O29 2.104775 1_555
Mg27 O13 2.157376 1_555
Mg27 O12 2.157376 1_555
Mg27 O5 2.254145 1_555
Mg27 O25 2.254145 1_565
Mg28 O14 2.159442 1_555
Mg28 O15 2.159442 1_554
Mg28 O6 2.165671 1_555
Mg28 O30 2.165671 1_555
Mg28 O26 2.188183 1_565
Mg28 O4 2.188183 1_655
Mg29 O7 2.104775 1_555
Mg29 O31 2.104775 1_555
Mg29 O15 2.157376 1_555
Mg29 O14 2.157376 1_555
Mg29 O27 2.254145 1_565
Mg29 O5 2.254145 1_655
Al0 O17 1.822185 1_554
Al0 O16 1.822185 1_555
Al0 O24 2.093834 1_555
Al0 O4 2.093834 1_545
Al0 O0 2.093834 1_555
Al0 O26 2.093834 1_455
