# generated using pymatgen
data_Ca8TiMn7O23
_symmetry_space_group_name_H-M   'P 1'
_cell_length_a   7.65215300
_cell_length_b   7.65215300
_cell_length_c   7.65005300
_cell_angle_alpha   90.00000000
_cell_angle_beta   90.00000000
_cell_angle_gamma   90.00000000
_symmetry_Int_Tables_number   1
_chemical_formula_structural   Ca8TiMn7O23
_chemical_formula_sum   'Ca8 Ti1 Mn7 O23'
_cell_volume   447.95226178
_cell_formula_units_Z   1
loop_
 _symmetry_equiv_pos_site_id
 _symmetry_equiv_pos_as_xyz
  1  'x, y, z'
loop_
 _atom_site_type_symbol
 _atom_site_label
 _atom_site_symmetry_multiplicity
 _atom_site_fract_x
 _atom_site_fract_y
 _atom_site_fract_z
 _atom_site_occupancy
  Ca  Ca0  1  0.26272600  0.26272600  0.25101700  1
  Ca  Ca1  1  0.26192500  0.26192500  0.74422000  1
  Ca  Ca2  1  0.26272600  0.73727400  0.25101700  1
  Ca  Ca3  1  0.26192500  0.73807500  0.74422000  1
  Ca  Ca4  1  0.73727400  0.26272600  0.25101700  1
  Ca  Ca5  1  0.73807500  0.26192500  0.74422000  1
  Ca  Ca6  1  0.73727400  0.73727400  0.25101700  1
  Ca  Ca7  1  0.73807500  0.73807500  0.74422000  1
  Ti  Ti0  1  0.00000000  0.00000000  0.98576200  1
  Mn  Mn0  1  0.00000000  0.00000000  0.49850400  1
  Mn  Mn1  1  0.00000000  0.50000000  0.00617700  1
  Mn  Mn2  1  0.00000000  0.50000000  0.49753400  1
  Mn  Mn3  1  0.50000000  0.00000000  0.00617700  1
  Mn  Mn4  1  0.50000000  0.00000000  0.49753400  1
  Mn  Mn5  1  0.50000000  0.50000000  0.99983200  1
  Mn  Mn6  1  0.50000000  0.50000000  0.49987400  1
  O  O0  1  0.00000000  0.00000000  0.75462600  1
  O  O1  1  0.00000000  0.50000000  0.25123400  1
  O  O2  1  0.00000000  0.50000000  0.75120800  1
  O  O3  1  0.50000000  0.00000000  0.25123400  1
  O  O4  1  0.50000000  0.00000000  0.75120800  1
  O  O5  1  0.50000000  0.50000000  0.25047400  1
  O  O6  1  0.50000000  0.50000000  0.74983200  1
  O  O7  1  0.24793900  0.00000000  0.02559700  1
  O  O8  1  0.24815000  0.00000000  0.47743400  1
  O  O9  1  0.25007000  0.50000000  0.99815200  1
  O  O10  1  0.25075700  0.50000000  0.50327800  1
  O  O11  1  0.75206100  0.00000000  0.02559700  1
  O  O12  1  0.75185000  0.00000000  0.47743400  1
  O  O13  1  0.74993000  0.50000000  0.99815200  1
  O  O14  1  0.74924300  0.50000000  0.50327800  1
  O  O15  1  0.00000000  0.24793900  0.02559700  1
  O  O16  1  0.00000000  0.24815000  0.47743400  1
  O  O17  1  0.00000000  0.75206100  0.02559700  1
  O  O18  1  0.00000000  0.75185000  0.47743400  1
  O  O19  1  0.50000000  0.25007000  0.99815200  1
  O  O20  1  0.50000000  0.25075700  0.50327800  1
  O  O21  1  0.50000000  0.74993000  0.99815200  1
  O  O22  1  0.50000000  0.74924300  0.50327800  1
loop_
_geom_bond_atom_site_label_1
_geom_bond_atom_site_label_2
_geom_bond_distance
_geom_bond_site_symmetry_2
Ca0 O5 2.567730 1_555
Ca0 O15 2.651114 1_555
Ca0 O7 2.651114 1_555
Ca0 O20 2.651257 1_555
Ca0 O10 2.651257 1_555
Ca0 O19 2.654809 1_554
Ca0 O9 2.654809 1_554
Ca0 O16 2.656013 1_555
Ca0 O8 2.656013 1_555
Ca0 O3 2.708948 1_555
Ca0 O1 2.708948 1_555
Ca1 O6 2.576753 1_555
Ca1 O10 2.593003 1_555
Ca1 O20 2.593003 1_555
Ca1 O9 2.664733 1_555
Ca1 O19 2.664733 1_555
Ca1 O2 2.709048 1_555
Ca1 O4 2.709048 1_555
Ca1 O0 2.835612 1_555
Ca1 O16 2.862459 1_555
Ca1 O8 2.862459 1_555
Ca1 O7 2.943145 1_556
Ca1 O15 2.943145 1_556
Ca2 O5 2.567730 1_555
Ca2 O17 2.651114 1_555
Ca2 O7 2.651114 1_565
Ca2 O22 2.651257 1_555
Ca2 O10 2.651257 1_555
Ca2 O21 2.654809 1_554
Ca2 O9 2.654809 1_554
Ca2 O18 2.656013 1_555
Ca2 O8 2.656013 1_565
Ca2 O3 2.708948 1_565
Ca2 O1 2.708948 1_555
Ca3 O6 2.576753 1_555
Ca3 O22 2.593003 1_555
Ca3 O10 2.593003 1_555
Ca3 O21 2.664733 1_555
Ca3 O9 2.664733 1_555
Ca3 O4 2.709048 1_565
Ca3 O2 2.709048 1_555
Ca3 O0 2.835612 1_565
Ca3 O8 2.862459 1_565
Ca3 O18 2.862459 1_555
Ca3 O7 2.943145 1_566
Ca3 O17 2.943145 1_556
Ca4 O5 2.567730 1_555
Ca4 O15 2.651114 1_655
Ca4 O11 2.651114 1_555
Ca4 O20 2.651257 1_555
Ca4 O14 2.651257 1_555
Ca4 O19 2.654809 1_554
Ca4 O13 2.654809 1_554
Ca4 O16 2.656013 1_655
Ca4 O12 2.656013 1_555
Ca4 O3 2.708948 1_555
Ca4 O1 2.708948 1_655
Ca5 O6 2.576753 1_555
Ca5 O14 2.593003 1_555
Ca5 O20 2.593003 1_555
Ca5 O13 2.664733 1_555
Ca5 O19 2.664733 1_555
Ca5 O2 2.709048 1_655
Ca5 O4 2.709048 1_555
Ca5 O0 2.835612 1_655
Ca5 O16 2.862459 1_655
Ca5 O12 2.862459 1_555
Ca5 O15 2.943145 1_656
Ca5 O11 2.943145 1_556
Ca6 O5 2.567730 1_555
Ca6 O11 2.651114 1_565
Ca6 O17 2.651114 1_655
Ca6 O22 2.651257 1_555
Ca6 O14 2.651257 1_555
Ca6 O21 2.654809 1_554
Ca6 O13 2.654809 1_554
Ca6 O18 2.656013 1_655
Ca6 O12 2.656013 1_565
Ca6 O3 2.708948 1_565
Ca6 O1 2.708948 1_655
Ca7 O6 2.576753 1_555
Ca7 O14 2.593003 1_555
Ca7 O22 2.593003 1_555
Ca7 O13 2.664733 1_555
Ca7 O21 2.664733 1_555
Ca7 O4 2.709048 1_565
Ca7 O2 2.709048 1_655
Ca7 O0 2.835612 1_665
Ca7 O18 2.862459 1_655
Ca7 O12 2.862459 1_565
Ca7 O17 2.943145 1_656
Ca7 O11 2.943145 1_566
Mn0 O18 1.905711 1_545
Mn0 O12 1.905711 1_455
Mn0 O8 1.905711 1_555
Mn0 O16 1.905711 1_555
Mn0 O0 1.959347 1_555
Mn1 O1 1.874699 1_555
Mn1 O9 1.914558 1_554
Mn1 O13 1.914558 1_454
Mn1 O17 1.934522 1_555
Mn1 O15 1.934522 1_555
Mn1 O2 1.950526 1_554
Mn2 O1 1.884208 1_555
Mn2 O10 1.919334 1_555
Mn2 O14 1.919334 1_455
Mn2 O18 1.933319 1_555
Mn2 O16 1.933319 1_555
Mn2 O2 1.940620 1_555
Mn3 O3 1.874699 1_555
Mn3 O19 1.914558 1_554
Mn3 O21 1.914558 1_544
Mn3 O7 1.934522 1_555
Mn3 O11 1.934522 1_555
Mn3 O4 1.950526 1_554
Mn4 O3 1.884208 1_555
Mn4 O22 1.919334 1_545
Mn4 O20 1.919334 1_555
Mn4 O8 1.933319 1_555
Mn4 O12 1.933319 1_555
Mn4 O4 1.940620 1_555
Mn5 O6 1.912513 1_555
Mn5 O21 1.912546 1_555
Mn5 O19 1.912546 1_555
Mn5 O9 1.912546 1_555
Mn5 O13 1.912546 1_555
Mn5 O5 1.917425 1_556
Mn6 O14 1.907423 1_555
Mn6 O22 1.907423 1_555
Mn6 O10 1.907423 1_555
Mn6 O20 1.907423 1_555
Mn6 O5 1.907923 1_555
Mn6 O6 1.912192 1_555
O0 Ti0 1.768203 1_555
O7 Ti0 1.921585 1_554
O11 Ti0 1.921585 1_654
O15 Ti0 1.921585 1_554
O17 Ti0 1.921585 1_564
