# generated using pymatgen
data_Ca3Mo3N5
_symmetry_space_group_name_H-M   'P 1'
_cell_length_a   5.83522645
_cell_length_b   7.27789185
_cell_length_c   8.34281681
_cell_angle_alpha   106.69585272
_cell_angle_beta   101.71635185
_cell_angle_gamma   101.45169823
_symmetry_Int_Tables_number   1
_chemical_formula_structural   Ca3Mo3N5
_chemical_formula_sum   'Ca6 Mo6 N10'
_cell_volume   319.58989387
_cell_formula_units_Z   2
loop_
 _symmetry_equiv_pos_site_id
 _symmetry_equiv_pos_as_xyz
  1  'x, y, z'
loop_
 _atom_site_type_symbol
 _atom_site_label
 _atom_site_symmetry_multiplicity
 _atom_site_fract_x
 _atom_site_fract_y
 _atom_site_fract_z
 _atom_site_occupancy
  Ca  Ca0  1  0.82143800  0.45339500  0.61674100  1
  Ca  Ca1  1  0.17856200  0.54660500  0.38325900  1
  Ca  Ca2  1  0.66789200  0.83788800  0.87875800  1
  Ca  Ca3  1  0.33210800  0.16211200  0.12124200  1
  Ca  Ca4  1  0.67674700  0.64523400  0.19846900  1
  Ca  Ca5  1  0.32325300  0.35476600  0.80153100  1
  Mo  Mo0  1  0.88510300  0.31835900  0.97178200  1
  Mo  Mo1  1  0.11489700  0.68164100  0.02821800  1
  Mo  Mo2  1  0.75679700  0.99178300  0.57175200  1
  Mo  Mo3  1  0.24320300  0.00821700  0.42824800  1
  Mo  Mo4  1  0.15728200  0.88690200  0.72147600  1
  Mo  Mo5  1  0.84271800  0.11309800  0.27852400  1
  N  N0  1  0.98992200  0.08619500  0.83144700  1
  N  N1  1  0.01007800  0.91380500  0.16855300  1
  N  N2  1  0.94566300  0.78016200  0.47801200  1
  N  N3  1  0.05433700  0.21983800  0.52198800  1
  N  N4  1  0.74657400  0.52674400  0.89532400  1
  N  N5  1  0.25342600  0.47325600  0.10467600  1
  N  N6  1  0.44655700  0.87115400  0.59671500  1
  N  N7  1  0.55344300  0.12884600  0.40328500  1
  N  N8  1  0.22968400  0.68431600  0.82386400  1
  N  N9  1  0.77031600  0.31568400  0.17613600  1
loop_
_geom_bond_atom_site_label_1
_geom_bond_atom_site_label_2
_geom_bond_distance
_geom_bond_site_symmetry_2
Ca0 N4 2.381097 1_555
Ca0 N3 2.437764 1_655
Ca0 N7 2.486236 1_555
Ca0 N8 2.560297 1_655
Ca0 N2 2.959468 1_555
Ca1 N5 2.381097 1_555
Ca1 N2 2.437764 1_455
Ca1 N6 2.486236 1_555
Ca1 N9 2.560297 1_455
Ca1 N3 2.959468 1_555
Ca2 N4 2.434056 1_555
Ca2 N8 2.468371 1_555
Ca2 N0 2.513029 1_565
Ca2 N6 2.545721 1_555
Ca2 N1 2.640321 1_656
Ca3 N5 2.434056 1_555
Ca3 N9 2.468371 1_555
Ca3 N1 2.513029 1_545
Ca3 N7 2.545721 1_555
Ca3 N0 2.640321 1_454
Ca4 N2 2.334873 1_555
Ca4 N5 2.388557 1_555
Ca4 N9 2.527812 1_555
Ca4 N4 2.571154 1_554
Ca4 N1 2.575644 1_655
Ca5 N3 2.334873 1_555
Ca5 N4 2.388557 1_555
Ca5 N8 2.527812 1_555
Ca5 N5 2.571154 1_556
Ca5 N0 2.575644 1_455
Mo0 N9 1.957892 1_556
Mo0 N0 2.040678 1_555
Mo0 N4 2.047838 1_555
Mo0 N5 2.114555 1_656
Mo1 N8 1.957892 1_554
Mo1 N1 2.040678 1_555
Mo1 N5 2.047838 1_555
Mo1 N4 2.114555 1_454
Mo2 N6 1.928333 1_555
Mo2 N2 2.128431 1_555
Mo2 N0 2.143179 1_565
Mo2 N7 2.230870 1_565
Mo2 N3 2.342226 1_665
Mo3 N7 1.928333 1_555
Mo3 N3 2.128431 1_555
Mo3 N1 2.143179 1_545
Mo3 N6 2.230870 1_545
Mo3 N2 2.342226 1_445
Mo4 N8 1.976471 1_555
Mo4 N2 1.986905 1_455
Mo4 N0 2.015180 1_465
Mo4 N6 2.160474 1_555
Mo5 N9 1.976471 1_555
Mo5 N3 1.986905 1_655
Mo5 N1 2.015180 1_645
Mo5 N7 2.160474 1_555
