# generated using pymatgen
data_Mn3B8Mo3
_symmetry_space_group_name_H-M   'P 1'
_cell_length_a   3.04571700
_cell_length_b   3.12546000
_cell_length_c   13.18819200
_cell_angle_alpha   90.00000000
_cell_angle_beta   90.00000000
_cell_angle_gamma   90.00000000
_symmetry_Int_Tables_number   1
_chemical_formula_structural   Mn3B8Mo3
_chemical_formula_sum   'Mn3 B8 Mo3'
_cell_volume   125.54191634
_cell_formula_units_Z   1
loop_
 _symmetry_equiv_pos_site_id
 _symmetry_equiv_pos_as_xyz
  1  'x, y, z'
loop_
 _atom_site_type_symbol
 _atom_site_label
 _atom_site_symmetry_multiplicity
 _atom_site_fract_x
 _atom_site_fract_y
 _atom_site_fract_z
 _atom_site_occupancy
  Mn  Mn0  1  0.00000000  0.00000000  0.18976200  1
  Mn  Mn1  1  0.50000000  0.50000000  0.67649100  1
  Mn  Mn2  1  0.50000000  0.50000000  0.31325300  1
  B  B0  1  0.50000000  0.00000000  0.42480400  1
  B  B1  1  0.00000000  0.50000000  0.93887600  1
  B  B2  1  0.00000000  0.50000000  0.07799300  1
  B  B3  1  0.50000000  0.00000000  0.56393100  1
  B  B4  1  0.00000000  0.00000000  0.35068200  1
  B  B5  1  0.50000000  0.50000000  0.86256600  1
  B  B6  1  0.50000000  0.50000000  0.15111400  1
  B  B7  1  0.00000000  0.00000000  0.63694600  1
  Mo  Mo0  1  0.00000000  0.00000000  0.81195900  1
  Mo  Mo1  1  0.50000000  0.00000000  0.00752000  1
  Mo  Mo2  1  0.00000000  0.50000000  0.49410500  1
loop_
_geom_bond_atom_site_label_1
_geom_bond_atom_site_label_2
_geom_bond_distance
_geom_bond_site_symmetry_2
Mn1 Mo0 2.820121 1_565
Mn1 Mo0 2.820121 1_665
Mn1 Mo0 2.820121 1_655
Mn1 Mo0 2.820121 1_555
B0 B4 1.809606 1_555
B0 B4 1.809606 1_655
B0 B3 1.834834 1_555
B0 Mn2 2.146258 1_555
B0 Mn2 2.146258 1_545
B0 Mo2 2.365700 1_545
B0 Mo2 2.365700 1_645
B0 Mo2 2.365700 1_655
B0 Mo2 2.365700 1_555
B1 B5 1.825355 1_455
B1 B5 1.825355 1_555
B1 B2 1.834702 1_556
B1 Mo0 2.289924 1_565
B1 Mo0 2.289924 1_555
B1 Mo1 2.362366 1_466
B1 Mo1 2.362366 1_566
B1 Mo1 2.362366 1_556
B1 Mo1 2.362366 1_456
B2 B6 1.802509 1_555
B2 B6 1.802509 1_455
B2 Mn0 2.148230 1_555
B2 Mn0 2.148230 1_565
B2 Mo1 2.371714 1_455
B2 Mo1 2.371714 1_465
B2 Mo1 2.371714 1_565
B2 Mo1 2.371714 1_555
B3 B7 1.801761 1_655
B3 B7 1.801761 1_555
B3 Mn1 2.155401 1_545
B3 Mn1 2.155401 1_555
B3 Mo2 2.368384 1_555
B3 Mo2 2.368384 1_545
B3 Mo2 2.368384 1_645
B3 Mo2 2.368384 1_655
B4 Mn0 2.122244 1_555
B4 Mn2 2.237160 1_455
B4 Mn2 2.237160 1_555
B4 Mn2 2.237160 1_445
B4 Mn2 2.237160 1_545
B4 Mo2 2.453540 1_555
B4 Mo2 2.453540 1_545
B5 Mo0 2.281812 1_655
B5 Mo0 2.281812 1_555
B5 Mo0 2.281812 1_565
B5 Mo0 2.281812 1_665
B5 Mn1 2.453993 1_555
B5 Mo1 2.469140 1_566
B5 Mo1 2.469140 1_556
B6 Mn2 2.138320 1_555
B6 Mn0 2.240762 1_665
B6 Mn0 2.240762 1_555
B6 Mn0 2.240762 1_655
B6 Mn0 2.240762 1_565
B6 Mo1 2.455279 1_565
B6 Mo1 2.455279 1_555
B7 Mn1 2.243482 1_455
B7 Mn1 2.243482 1_545
B7 Mn1 2.243482 1_555
B7 Mn1 2.243482 1_445
B7 Mo0 2.308105 1_555
B7 Mo2 2.447628 1_545
B7 Mo2 2.447628 1_555
