# generated using pymatgen
data_KMo4(P2O7)4
_symmetry_space_group_name_H-M   'P 1'
_cell_length_a   5.03849500
_cell_length_b   15.53798334
_cell_length_c   15.53798334
_cell_angle_alpha   91.50634762
_cell_angle_beta   99.33083009
_cell_angle_gamma   80.66916991
_symmetry_Int_Tables_number   1
_chemical_formula_structural   KMo4(P2O7)4
_chemical_formula_sum   'K2 Mo8 P16 O56'
_cell_volume   1184.46107264
_cell_formula_units_Z   2
loop_
 _symmetry_equiv_pos_site_id
 _symmetry_equiv_pos_as_xyz
  1  'x, y, z'
loop_
 _atom_site_type_symbol
 _atom_site_label
 _atom_site_symmetry_multiplicity
 _atom_site_fract_x
 _atom_site_fract_y
 _atom_site_fract_z
 _atom_site_occupancy
  K  K0  1  0.29549100  0.25000000  0.75000000  1
  K  K1  1  0.54549100  0.75000000  0.25000000  1
  Mo  Mo0  1  0.41002200  0.27909300  0.49024700  1
  Mo  Mo1  1  0.69886700  0.22090700  0.00975300  1
  Mo  Mo2  1  0.91977500  0.49024700  0.22090700  1
  Mo  Mo3  1  0.68911500  0.00975300  0.27909300  1
  Mo  Mo4  1  0.58934100  0.71999400  0.50860600  1
  Mo  Mo5  1  0.30073000  0.78000600  0.99139400  1
  Mo  Mo6  1  0.08073500  0.50860600  0.78000600  1
  Mo  Mo7  1  0.30933600  0.99139400  0.71999400  1
  P  P0  1  0.81235800  0.39016500  0.39376700  1
  P  P1  1  0.30875600  0.10983500  0.10623300  1
  P  P2  1  0.41859100  0.39376700  0.10983500  1
  P  P3  1  0.20252300  0.10623300  0.39016500  1
  P  P4  1  0.18865800  0.60972400  0.60628000  1
  P  P5  1  0.69210200  0.89027600  0.89372000  1
  P  P6  1  0.58237900  0.60628000  0.89027600  1
  P  P7  1  0.79838200  0.89372000  0.60972400  1
  P  P8  1  0.52353400  0.44012100  0.64747900  1
  P  P9  1  0.81617600  0.05987900  0.85252100  1
  P  P10  1  0.87605500  0.64747900  0.05987900  1
  P  P11  1  0.96365500  0.85252100  0.44012100  1
  P  P12  1  0.47815100  0.55954300  0.35341200  1
  P  P13  1  0.18428200  0.94045700  0.14658800  1
  P  P14  1  0.12473900  0.35341200  0.94045700  1
  P  P15  1  0.03769400  0.14658800  0.55954300  1
  O  O0  1  0.67034500  0.48841900  0.41870600  1
  O  O1  1  0.24005900  0.01158100  0.08129400  1
  O  O2  1  0.25164000  0.41870600  0.01158100  1
  O  O3  1  0.15876400  0.08129400  0.48841900  1
  O  O4  1  0.33255600  0.51305200  0.58264400  1
  O  O5  1  0.76296400  0.98694800  0.91735600  1
  O  O6  1  0.74991200  0.58264400  0.98694800  1
  O  O7  1  0.84560800  0.91735600  0.51305200  1
  O  O8  1  0.57731600  0.35742700  0.59632100  1
  O  O9  1  0.83842300  0.14257300  0.90367900  1
  O  O10  1  0.98099500  0.59632100  0.14257300  1
  O  O11  1  0.93474400  0.90367900  0.35742700  1
  O  O12  1  0.42799900  0.64379800  0.40627600  1
  O  O13  1  0.16552200  0.85620200  0.09372400  1
  O  O14  1  0.02172400  0.40627600  0.85620200  1
  O  O15  1  0.07179700  0.09372400  0.64379800  1
  O  O16  1  0.24542000  0.20079600  0.39132200  1
  O  O17  1  0.55489300  0.29920400  0.10867800  1
  O  O18  1  0.85409700  0.39132200  0.29920400  1
  O  O19  1  0.44621500  0.10867800  0.20079600  1
  O  O20  1  0.75201900  0.79949800  0.60882000  1
  O  O21  1  0.44269700  0.70050200  0.89118000  1
  O  O22  1  0.14319900  0.60882000  0.70050200  1
  O  O23  1  0.55151700  0.89118000  0.79949800  1
  O  O24  1  0.07196900  0.37509800  0.46126000  1
  O  O25  1  0.48580700  0.12490200  0.03874000  1
  O  O26  1  0.61070800  0.46126000  0.12490200  1
  O  O27  1  0.44706700  0.03874000  0.37509800  1
  O  O28  1  0.92333200  0.62712300  0.53998200  1
  O  O29  1  0.51047300  0.87287700  0.96001800  1
  O  O30  1  0.38335000  0.53998200  0.87287700  1
  O  O31  1  0.55045600  0.96001800  0.62712300  1
  O  O32  1  0.73982300  0.17947700  0.52666300  1
  O  O33  1  0.89263800  0.32052300  0.97333700  1
  O  O34  1  0.21316000  0.52666300  0.32052300  1
  O  O35  1  0.91930100  0.97333700  0.17947700  1
  O  O36  1  0.26191000  0.81700400  0.47591700  1
  O  O37  1  0.10299600  0.68299600  0.02408300  1
  O  O38  1  0.78599300  0.47591700  0.68299600  1
  O  O39  1  0.07891300  0.02408300  0.81700400  1
  O  O40  1  0.20751500  0.22127400  0.57673500  1
  O  O41  1  0.35205400  0.27872600  0.92326500  1
  O  O42  1  0.63078000  0.57673500  0.27872600  1
  O  O43  1  0.42879000  0.92326500  0.22127400  1
  O  O44  1  0.78872300  0.77751500  0.42619400  1
  O  O45  1  0.64004400  0.72248500  0.07380600  1
  O  O46  1  0.36253000  0.42619400  0.72248500  1
  O  O47  1  0.56623800  0.07380600  0.77751500  1
  O  O48  1  0.61671200  0.32793300  0.40472800  1
  O  O49  1  0.03991600  0.17206700  0.09527200  1
  O  O50  1  0.21198400  0.40472800  0.17206700  1
  O  O51  1  0.94464500  0.09527200  0.32793300  1
  O  O52  1  0.38597500  0.67233900  0.59418600  1
  O  O53  1  0.96412800  0.82766100  0.90581400  1
  O  O54  1  0.79178900  0.59418600  0.82766100  1
  O  O55  1  0.05831400  0.90581400  0.67233900  1
loop_
_geom_bond_atom_site_label_1
_geom_bond_atom_site_label_2
_geom_bond_distance
_geom_bond_site_symmetry_2
K0 O40 2.693993 1_555
K0 O41 2.693993 1_555
K0 O47 2.863579 1_555
K0 O46 2.863581 1_555
K0 O14 3.156463 1_555
K0 O15 3.156465 1_555
K1 O43 2.693993 1_555
K1 O42 2.693993 1_555
K1 O44 2.863579 1_555
K1 O45 2.863579 1_555
K1 O13 3.156463 1_555
K1 O12 3.156465 1_555
Mo0 O48 2.045513 1_555
Mo0 O24 2.071691 1_555
Mo0 O16 2.084712 1_555
Mo0 O32 2.093877 1_555
Mo0 O40 2.111743 1_555
Mo0 O8 2.164523 1_555
Mo1 O49 2.045513 1_655
Mo1 O25 2.071688 1_555
Mo1 O17 2.084712 1_555
Mo1 O33 2.093883 1_554
Mo1 O41 2.111739 1_554
Mo1 O9 2.164526 1_554
Mo2 O50 2.045513 1_655
Mo2 O26 2.071695 1_555
Mo2 O18 2.084714 1_555
Mo2 O34 2.093877 1_655
Mo2 O42 2.111743 1_555
Mo2 O10 2.164523 1_555
Mo3 O51 2.045513 1_555
Mo3 O27 2.071691 1_555
Mo3 O19 2.084714 1_555
Mo3 O35 2.093880 1_545
Mo3 O43 2.111739 1_545
Mo3 O11 2.164525 1_545
Mo4 O52 2.026338 1_555
Mo4 O28 2.033563 1_555
Mo4 O36 2.052783 1_555
Mo4 O44 2.053333 1_555
Mo4 O12 2.093950 1_555
Mo4 O20 2.106145 1_555
Mo5 O53 2.026341 1_455
Mo5 O29 2.033560 1_555
Mo5 O37 2.052789 1_556
Mo5 O45 2.053330 1_556
Mo5 O13 2.093950 1_556
Mo5 O21 2.106143 1_555
Mo6 O54 2.026338 1_455
Mo6 O30 2.033563 1_555
Mo6 O38 2.052783 1_455
Mo6 O46 2.053336 1_555
Mo6 O14 2.093949 1_555
Mo6 O22 2.106145 1_555
Mo7 O55 2.026341 1_555
Mo7 O31 2.033563 1_555
Mo7 O39 2.052789 1_565
Mo7 O47 2.053330 1_565
Mo7 O15 2.093952 1_565
Mo7 O23 2.106143 1_555
O0 P12 1.606757 1_555
O0 P0 1.642389 1_555
O1 P13 1.606759 1_545
O1 P1 1.642388 1_555
O2 P14 1.606759 1_554
O2 P2 1.642388 1_555
O3 P15 1.606757 1_555
O3 P3 1.642390 1_555
O4 P8 1.617719 1_555
O4 P4 1.618952 1_555
O5 P9 1.617719 1_565
O5 P5 1.618952 1_555
O6 P10 1.617719 1_556
O6 P6 1.618950 1_555
O7 P11 1.617719 1_555
O7 P7 1.618952 1_555
O8 P8 1.503160 1_555
O9 P9 1.503161 1_555
O10 P10 1.503160 1_555
O11 P11 1.503161 1_555
O12 P12 1.534903 1_555
O13 P13 1.534903 1_555
O14 P14 1.534903 1_555
O15 P15 1.534903 1_555
O16 P3 1.518639 1_555
O17 P2 1.518638 1_555
O18 P0 1.518638 1_555
O19 P1 1.518638 1_555
O20 P7 1.518840 1_555
O21 P6 1.518841 1_555
O22 P4 1.518840 1_555
O23 P5 1.518840 1_555
O24 P0 1.527864 1_455
O25 P1 1.527865 1_555
O26 P2 1.527861 1_555
O27 P3 1.527865 1_555
O28 P4 1.540229 1_655
O29 P5 1.540229 1_555
O30 P6 1.540233 1_555
O31 P7 1.540226 1_555
O32 P15 1.513609 1_655
O33 P14 1.513605 1_655
O34 P12 1.513609 1_555
O35 P13 1.513605 1_655
O36 P11 1.532438 1_455
O37 P10 1.532434 1_455
O38 P8 1.532438 1_555
O39 P9 1.532434 1_455
O40 P15 1.543288 1_555
O41 P14 1.543288 1_555
O42 P12 1.543288 1_555
O43 P13 1.543292 1_555
O44 P11 1.562026 1_555
O45 P10 1.562026 1_555
O46 P8 1.562022 1_555
O47 P9 1.562026 1_555
O48 P0 1.519188 1_555
O49 P1 1.519192 1_555
O50 P2 1.519188 1_555
O51 P3 1.519188 1_655
O52 P4 1.534310 1_555
O53 P5 1.534310 1_555
O54 P6 1.534306 1_555
O55 P7 1.534310 1_455
