# generated using pymatgen
data_ErB2Os
_symmetry_space_group_name_H-M   'P 1'
_cell_length_a   5.27279436
_cell_length_b   5.84113296
_cell_length_c   6.32953003
_cell_angle_alpha   90.00000000
_cell_angle_beta   90.00000000
_cell_angle_gamma   90.00000000
_symmetry_Int_Tables_number   1
_chemical_formula_structural   ErB2Os
_chemical_formula_sum   'Er4 B8 Os4'
_cell_volume   194.94378358
_cell_formula_units_Z   4
loop_
 _symmetry_equiv_pos_site_id
 _symmetry_equiv_pos_as_xyz
  1  'x, y, z'
loop_
 _atom_site_type_symbol
 _atom_site_label
 _atom_site_symmetry_multiplicity
 _atom_site_fract_x
 _atom_site_fract_y
 _atom_site_fract_z
 _atom_site_occupancy
  Er  Er0  1  0.25000000  0.00998592  0.33421881  1
  Er  Er1  1  0.25000000  0.50998592  0.16578119  1
  Er  Er2  1  0.75000000  0.99001408  0.66578119  1
  Er  Er3  1  0.75000000  0.49001408  0.83421881  1
  B  B0  1  0.08216422  0.36126610  0.53809976  1
  B  B1  1  0.41783578  0.86126610  0.96190024  1
  B  B2  1  0.58216422  0.63873390  0.46190024  1
  B  B3  1  0.91783578  0.13873390  0.03809976  1
  B  B4  1  0.91783578  0.63873390  0.46190024  1
  B  B5  1  0.58216422  0.13873390  0.03809976  1
  B  B6  1  0.41783578  0.36126610  0.53809976  1
  B  B7  1  0.08216422  0.86126610  0.96190024  1
  Os  Os0  1  0.25000000  0.17662809  0.81929210  1
  Os  Os1  1  0.25000000  0.67662809  0.68070790  1
  Os  Os2  1  0.75000000  0.82337191  0.18070790  1
  Os  Os3  1  0.75000000  0.32337191  0.31929210  1
loop_
_geom_bond_atom_site_label_1
_geom_bond_atom_site_label_2
_geom_bond_distance
_geom_bond_site_symmetry_2
Er0 Os1 2.932795 1_545
Er1 Os0 2.932795 1_554
Er2 Os3 2.932795 1_565
Er3 Os2 2.932795 1_556
B0 B6 1.769927 1_555
B0 B4 1.900038 1_455
B0 Os1 2.234088 1_555
B0 Os3 2.243791 1_455
B0 Os0 2.261428 1_555
B0 Er0 2.580438 1_555
B0 Er1 2.662960 1_555
B0 Er3 2.673211 1_455
B0 Er2 2.902272 1_445
B1 B7 1.769927 1_555
B1 B5 1.900038 1_566
B1 Os0 2.234088 1_565
B1 Os2 2.243791 1_556
B1 Os1 2.261428 1_555
B1 Er1 2.580438 1_556
B1 Er0 2.662960 1_566
B1 Er2 2.673211 1_555
B1 Er3 2.902272 1_555
B2 B4 1.769927 1_555
B2 B6 1.900038 1_555
B2 Os3 2.234088 1_555
B2 Os1 2.243791 1_555
B2 Os2 2.261428 1_555
B2 Er2 2.580438 1_555
B2 Er3 2.662960 1_555
B2 Er1 2.673211 1_555
B2 Er0 2.902272 1_565
B3 B5 1.769927 1_555
B3 B7 1.900038 1_644
B3 Os2 2.234088 1_545
B3 Os0 2.243791 1_654
B3 Os3 2.261428 1_555
B3 Er3 2.580438 1_554
B3 Er2 2.662960 1_544
B3 Er0 2.673211 1_655
B3 Er1 2.902272 1_655
B4 Os3 2.234088 1_555
B4 Os1 2.243791 1_655
B4 Os2 2.261428 1_555
B4 Er2 2.580438 1_555
B4 Er3 2.662960 1_555
B4 Er1 2.673211 1_655
B4 Er0 2.902272 1_665
B5 Os2 2.234088 1_545
B5 Os0 2.243791 1_554
B5 Os3 2.261428 1_555
B5 Er3 2.580438 1_554
B5 Er2 2.662960 1_544
B5 Er0 2.673211 1_555
B5 Er1 2.902272 1_555
B6 Os1 2.234088 1_555
B6 Os3 2.243791 1_555
B6 Os0 2.261428 1_555
B6 Er0 2.580438 1_555
B6 Er1 2.662960 1_555
B6 Er3 2.673211 1_555
B6 Er2 2.902272 1_545
B7 Os0 2.234088 1_565
B7 Os2 2.243791 1_456
B7 Os1 2.261428 1_555
B7 Er1 2.580438 1_556
B7 Er0 2.662960 1_566
B7 Er2 2.673211 1_455
B7 Er3 2.902272 1_455
