# generated using pymatgen
data_Sm4MgIr
_symmetry_space_group_name_H-M   'P 1'
_cell_length_a   9.88155909
_cell_length_b   9.88173136
_cell_length_c   9.88171680
_cell_angle_alpha   59.99872385
_cell_angle_beta   59.99824589
_cell_angle_gamma   59.99851343
_symmetry_Int_Tables_number   1
_chemical_formula_structural   Sm4MgIr
_chemical_formula_sum   'Sm16 Mg4 Ir4'
_cell_volume   682.27757171
_cell_formula_units_Z   4
loop_
 _symmetry_equiv_pos_site_id
 _symmetry_equiv_pos_as_xyz
  1  'x, y, z'
loop_
 _atom_site_type_symbol
 _atom_site_label
 _atom_site_symmetry_multiplicity
 _atom_site_fract_x
 _atom_site_fract_y
 _atom_site_fract_z
 _atom_site_occupancy
  Sm  Sm0  1  0.59594836  0.59596951  0.59596610  1
  Sm  Sm1  1  0.59594939  0.59597081  0.21211455  1
  Sm  Sm2  1  0.59595092  0.21211516  0.59596828  1
  Sm  Sm3  1  0.21211644  0.59596489  0.59596108  1
  Sm  Sm4  1  0.06199707  0.43801989  0.43802296  1
  Sm  Sm5  1  0.43801677  0.06197968  0.06199290  1
  Sm  Sm6  1  0.43801743  0.06197568  0.43801155  1
  Sm  Sm7  1  0.06200137  0.43801914  0.06195771  1
  Sm  Sm8  1  0.43802069  0.43801200  0.06198040  1
  Sm  Sm9  1  0.06200962  0.06195254  0.43801897  1
  Sm  Sm10  1  0.18835914  0.81163888  0.81162936  1
  Sm  Sm11  1  0.81163297  0.18835696  0.18835058  1
  Sm  Sm12  1  0.81163009  0.18835882  0.81165947  1
  Sm  Sm13  1  0.18835672  0.81164222  0.18837156  1
  Sm  Sm14  1  0.81162271  0.81166194  0.18835805  1
  Sm  Sm15  1  0.18835119  0.18837197  0.81164007  1
  Mg  Mg0  1  0.82883922  0.82885123  0.82884886  1
  Mg  Mg1  1  0.82881350  0.82882591  0.51350970  1
  Mg  Mg2  1  0.82881727  0.51350042  0.82882702  1
  Mg  Mg3  1  0.51352849  0.82881606  0.82881345  1
  Ir  Ir0  1  0.39127821  0.39126929  0.39127303  1
  Ir  Ir1  1  0.39127841  0.39126889  0.82617962  1
  Ir  Ir2  1  0.39127911  0.82618596  0.39126683  1
  Ir  Ir3  1  0.82618291  0.39127014  0.39127391  1
loop_
_geom_bond_atom_site_label_1
_geom_bond_atom_site_label_2
_geom_bond_distance
_geom_bond_site_symmetry_2
Sm0 Sm10 3.560835 1_555
Sm0 Sm14 3.561081 1_555
Sm0 Sm12 3.561139 1_555
Sm1 Sm13 3.560884 1_555
Sm1 Sm14 3.561160 1_555
Sm1 Sm11 3.561192 1_555
Sm10 Sm3 3.560993 1_555
Sm10 Sm9 3.700848 1_565
Sm10 Sm7 3.700962 1_556
Sm10 Sm6 3.700997 1_565
Sm10 Sm8 3.701130 1_556
Sm10 Sm12 3.722574 1_465
Sm10 Sm14 3.722636 1_456
Sm10 Sm15 3.722789 1_565
Sm10 Sm13 3.722864 1_556
Sm11 Sm2 3.561192 1_555
Sm11 Sm8 3.700922 1_555
Sm11 Sm6 3.700990 1_555
Sm11 Sm7 3.701301 1_655
Sm11 Sm9 3.701388 1_655
Sm11 Sm12 3.722360 1_554
Sm11 Sm14 3.722413 1_545
Sm11 Sm15 3.722456 1_654
Sm11 Sm13 3.722522 1_645
Sm12 Sm2 3.561214 1_555
Sm12 Sm8 3.700852 1_556
Sm12 Sm5 3.700961 1_556
Sm12 Sm4 3.701221 1_655
Sm12 Sm9 3.701362 1_655
Sm12 Sm14 3.722351 1_546
Sm12 Sm15 3.722561 1_655
Sm13 Sm3 3.560974 1_555
Sm13 Sm9 3.700882 1_565
Sm13 Sm4 3.700993 1_555
Sm13 Sm5 3.701075 1_565
Sm13 Sm8 3.701213 1_555
Sm13 Sm15 3.722676 1_564
Sm13 Sm14 3.722689 1_455
Sm14 Sm6 3.700805 1_565
Sm14 Sm5 3.700845 1_565
Sm14 Sm4 3.701312 1_655
Sm14 Sm7 3.701362 1_655
Sm15 Sm2 3.560935 1_555
Sm15 Sm3 3.561025 1_555
Sm15 Sm4 3.700927 1_555
Sm15 Sm7 3.700932 1_556
Sm15 Sm5 3.701209 1_556
Sm15 Sm6 3.701214 1_555
Mg0 Mg3 3.116110 1_555
Mg0 Mg1 3.116344 1_555
Mg0 Mg2 3.116428 1_555
Mg0 Sm10 3.391031 1_655
Mg0 Sm14 3.391099 1_556
Mg0 Sm12 3.391122 1_565
Mg0 Sm1 3.577652 1_556
Mg0 Sm2 3.577656 1_565
Mg0 Sm3 3.577694 1_655
Mg0 Sm5 3.611376 1_566
Mg0 Sm9 3.611428 1_665
Mg0 Sm7 3.611451 1_656
Mg1 Mg3 3.115542 1_555
Mg1 Mg2 3.115859 1_555
Mg1 Sm14 3.391311 1_555
Mg1 Sm13 3.391324 1_655
Mg1 Sm11 3.391410 1_565
Mg1 Sm0 3.577514 1_555
Mg1 Sm2 3.577698 1_565
Mg1 Sm3 3.577736 1_655
Mg1 Sm6 3.611375 1_565
Mg1 Sm4 3.611460 1_655
Mg1 Sm9 3.611726 1_665
Mg2 Mg3 3.115635 1_555
Mg2 Sm12 3.391216 1_555
Mg2 Sm15 3.391245 1_655
Mg2 Sm11 3.391298 1_556
Mg2 Sm0 3.577536 1_555
Mg2 Sm1 3.577722 1_556
Mg2 Sm3 3.577748 1_655
Mg2 Sm8 3.611326 1_556
Mg2 Sm4 3.611405 1_655
Mg2 Sm7 3.611704 1_656
Mg3 Sm10 3.391472 1_555
Mg3 Sm13 3.391563 1_556
Mg3 Sm15 3.391592 1_565
Mg3 Sm0 3.577462 1_555
Mg3 Sm2 3.577630 1_565
Mg3 Sm1 3.577641 1_556
Mg3 Sm6 3.611532 1_565
Mg3 Sm8 3.611537 1_556
Mg3 Sm5 3.611839 1_566
Ir0 Sm4 2.867239 1_555
Ir0 Sm8 2.867454 1_555
Ir0 Sm6 2.867494 1_555
Ir0 Sm2 2.871494 1_555
Ir0 Sm1 2.871517 1_555
Ir0 Sm3 2.871613 1_555
Ir0 Sm11 3.557697 1_555
Ir0 Sm15 3.557786 1_555
Ir0 Sm13 3.557834 1_555
Ir1 Sm7 2.867171 1_556
Ir1 Sm5 2.867421 1_556
Ir1 Sm8 2.867425 1_556
Ir1 Sm2 2.871470 1_555
Ir1 Sm0 2.871489 1_555
Ir1 Sm3 2.871579 1_555
Ir1 Sm12 3.557689 1_555
Ir1 Sm10 3.557833 1_555
Ir1 Sm15 3.557859 1_555
Ir2 Sm9 2.867095 1_565
Ir2 Sm5 2.867254 1_565
Ir2 Sm6 2.867306 1_565
Ir2 Sm0 2.871489 1_555
Ir2 Sm1 2.871491 1_555
Ir2 Sm3 2.871594 1_555
Ir2 Sm14 3.557601 1_555
Ir2 Sm10 3.557762 1_555
Ir2 Sm13 3.557830 1_555
Ir3 Sm7 2.867576 1_655
Ir3 Sm4 2.867610 1_655
Ir3 Sm9 2.867627 1_655
Ir3 Sm2 2.871612 1_555
Ir3 Sm0 2.871653 1_555
Ir3 Sm1 2.871663 1_555
Ir3 Sm12 3.557960 1_555
Ir3 Sm14 3.558001 1_555
Ir3 Sm11 3.558050 1_555
