# generated using pymatgen
data_NbNi3
_symmetry_space_group_name_H-M   'P 1'
_cell_length_a   5.38860614
_cell_length_b   5.38318800
_cell_length_c   16.61150600
_cell_angle_alpha   90.00000000
_cell_angle_beta   90.00000000
_cell_angle_gamma   60.03328004
_symmetry_Int_Tables_number   1
_chemical_formula_structural   NbNi3
_chemical_formula_sum   'Nb8 Ni24'
_cell_volume   417.44683431
_cell_formula_units_Z   8
loop_
 _symmetry_equiv_pos_site_id
 _symmetry_equiv_pos_as_xyz
  1  'x, y, z'
loop_
 _atom_site_type_symbol
 _atom_site_label
 _atom_site_symmetry_multiplicity
 _atom_site_fract_x
 _atom_site_fract_y
 _atom_site_fract_z
 _atom_site_occupancy
  Nb  Nb0_0  1  0.16666550  0.16666700  0.18750000  1
  Nb  Nb0_1  1  0.16666550  0.16666700  0.68750000  1
  Nb  Nb0_2  1  0.16666550  0.66666700  0.18750000  1
  Nb  Nb0_3  1  0.16666550  0.66666700  0.68750000  1
  Nb  Nb0_4  1  0.66666550  0.16666700  0.18750000  1
  Nb  Nb0_5  1  0.66666550  0.16666700  0.68750000  1
  Nb  Nb0_6  1  0.66666550  0.66666700  0.18750000  1
  Nb  Nb0_7  1  0.66666550  0.66666700  0.68750000  1
  Ni  Ni0_0  1  0.16666900  0.16666550  0.43750000  1
  Ni  Ni0_1  1  0.16666900  0.16666550  0.93750000  1
  Ni  Ni0_2  1  0.16666900  0.66666550  0.43750000  1
  Ni  Ni0_3  1  0.16666900  0.66666550  0.93750000  1
  Ni  Ni0_4  1  0.66666900  0.16666550  0.43750000  1
  Ni  Ni0_5  1  0.66666900  0.16666550  0.93750000  1
  Ni  Ni0_6  1  0.66666900  0.66666550  0.43750000  1
  Ni  Ni0_7  1  0.66666900  0.66666550  0.93750000  1
  Ni  Ni1_0  1  0.33333250  0.33333350  0.05545500  1
  Ni  Ni1_1  1  0.33333250  0.33333350  0.55545500  1
  Ni  Ni1_2  1  0.33333250  0.83333350  0.05545500  1
  Ni  Ni1_3  1  0.33333250  0.83333350  0.55545500  1
  Ni  Ni1_4  1  0.83333250  0.33333350  0.05545500  1
  Ni  Ni1_5  1  0.83333250  0.33333350  0.55545500  1
  Ni  Ni1_6  1  0.83333250  0.83333350  0.05545500  1
  Ni  Ni1_7  1  0.83333250  0.83333350  0.55545500  1
  Ni  Ni2_0  1  0.33333250  0.33333350  0.31954500  1
  Ni  Ni2_1  1  0.33333250  0.33333350  0.81954500  1
  Ni  Ni2_2  1  0.33333250  0.83333350  0.31954500  1
  Ni  Ni2_3  1  0.33333250  0.83333350  0.81954500  1
  Ni  Ni2_4  1  0.83333250  0.33333350  0.31954500  1
  Ni  Ni2_5  1  0.83333250  0.33333350  0.81954500  1
  Ni  Ni2_6  1  0.83333250  0.83333350  0.31954500  1
  Ni  Ni2_7  1  0.83333250  0.83333350  0.81954500  1
loop_
_geom_bond_atom_site_label_1
_geom_bond_atom_site_label_2
_geom_bond_distance
_geom_bond_site_symmetry_2
Nb0_0 Ni1_0 2.688459 1_555
Nb0_0 Ni2_0 2.688459 1_555
Nb0_0 Ni1_2 2.688459 1_545
Nb0_0 Ni2_2 2.688459 1_545
Nb0_0 Ni1_4 2.689362 1_455
Nb0_0 Ni2_4 2.689362 1_455
Nb0_0 Nb0_2 2.691594 1_545
Nb0_0 Nb0_2 2.691594 1_555
Nb0_0 Nb0_4 2.694303 1_455
Nb0_0 Nb0_4 2.694303 1_555
Nb0_0 Nb0_6 2.694304 1_545
Nb0_0 Nb0_6 2.694304 1_455
Nb0_1 Ni2_1 2.688459 1_555
Nb0_1 Ni1_1 2.688459 1_555
Nb0_1 Ni2_3 2.688459 1_545
Nb0_1 Ni1_3 2.688459 1_545
Nb0_1 Ni2_5 2.689362 1_455
Nb0_1 Ni1_5 2.689362 1_455
Nb0_1 Nb0_3 2.691594 1_545
Nb0_1 Nb0_3 2.691594 1_555
Nb0_1 Nb0_5 2.694303 1_455
Nb0_1 Nb0_5 2.694303 1_555
Nb0_1 Nb0_7 2.694304 1_545
Nb0_1 Nb0_7 2.694304 1_455
Nb0_2 Ni1_2 2.688459 1_555
Nb0_2 Ni2_2 2.688459 1_555
Nb0_2 Ni1_0 2.688459 1_555
Nb0_2 Ni2_0 2.688459 1_555
Nb0_2 Ni1_6 2.689362 1_455
Nb0_2 Ni2_6 2.689362 1_455
Nb0_2 Nb0_6 2.694303 1_455
Nb0_2 Nb0_6 2.694303 1_555
Nb0_2 Nb0_4 2.694304 1_555
Nb0_2 Nb0_4 2.694304 1_465
Nb0_3 Ni2_3 2.688459 1_555
Nb0_3 Ni1_3 2.688459 1_555
Nb0_3 Ni2_1 2.688459 1_555
Nb0_3 Ni1_1 2.688459 1_555
Nb0_3 Ni2_7 2.689362 1_455
Nb0_3 Ni1_7 2.689362 1_455
Nb0_3 Nb0_7 2.694303 1_455
Nb0_3 Nb0_7 2.694303 1_555
Nb0_3 Nb0_5 2.694304 1_555
Nb0_3 Nb0_5 2.694304 1_465
Nb0_4 Ni1_4 2.688459 1_555
Nb0_4 Ni2_4 2.688459 1_555
Nb0_4 Ni1_6 2.688459 1_545
Nb0_4 Ni2_6 2.688459 1_545
Nb0_4 Ni1_0 2.689362 1_555
Nb0_4 Ni2_0 2.689362 1_555
Nb0_4 Nb0_6 2.691594 1_545
Nb0_4 Nb0_6 2.691594 1_555
Nb0_5 Ni2_5 2.688459 1_555
Nb0_5 Ni1_5 2.688459 1_555
Nb0_5 Ni2_7 2.688459 1_545
Nb0_5 Ni1_7 2.688459 1_545
Nb0_5 Ni2_1 2.689362 1_555
Nb0_5 Ni1_1 2.689362 1_555
Nb0_5 Nb0_7 2.691594 1_545
Nb0_5 Nb0_7 2.691594 1_555
Nb0_6 Ni1_6 2.688459 1_555
Nb0_6 Ni2_6 2.688459 1_555
Nb0_6 Ni1_4 2.688459 1_555
Nb0_6 Ni2_4 2.688459 1_555
Nb0_6 Ni1_2 2.689362 1_555
Nb0_6 Ni2_2 2.689362 1_555
Nb0_7 Ni2_7 2.688459 1_555
Nb0_7 Ni1_7 2.688459 1_555
Nb0_7 Ni2_5 2.688459 1_555
Nb0_7 Ni1_5 2.688459 1_555
Nb0_7 Ni2_3 2.689362 1_555
Nb0_7 Ni1_3 2.689362 1_555
Ni0_0 Ni1_1 2.501155 1_555
Ni0_0 Ni2_0 2.501155 1_555
Ni0_0 Ni1_3 2.501157 1_545
Ni0_0 Ni2_2 2.501157 1_545
Ni0_0 Ni1_5 2.502142 1_455
Ni0_0 Ni2_4 2.502142 1_455
Ni0_0 Ni0_2 2.691594 1_555
Ni0_0 Ni0_2 2.691594 1_545
Ni0_0 Ni0_4 2.694303 1_555
Ni0_0 Ni0_4 2.694303 1_455
Ni0_0 Ni0_6 2.694304 1_545
Ni0_0 Ni0_6 2.694304 1_455
Ni0_1 Ni2_1 2.501155 1_555
Ni0_1 Ni1_0 2.501155 1_556
Ni0_1 Ni2_3 2.501157 1_545
Ni0_1 Ni1_2 2.501157 1_546
Ni0_1 Ni2_5 2.502142 1_455
Ni0_1 Ni1_4 2.502142 1_456
Ni0_1 Ni0_3 2.691594 1_555
Ni0_1 Ni0_3 2.691594 1_545
Ni0_1 Ni0_5 2.694303 1_555
Ni0_1 Ni0_5 2.694303 1_455
Ni0_1 Ni0_7 2.694304 1_545
Ni0_1 Ni0_7 2.694304 1_455
Ni0_2 Ni1_3 2.501155 1_555
Ni0_2 Ni2_2 2.501155 1_555
Ni0_2 Ni1_1 2.501157 1_555
Ni0_2 Ni2_0 2.501157 1_555
Ni0_2 Ni1_7 2.502142 1_455
Ni0_2 Ni2_6 2.502142 1_455
Ni0_2 Ni0_6 2.694303 1_455
Ni0_2 Ni0_6 2.694303 1_555
Ni0_2 Ni0_4 2.694304 1_555
Ni0_2 Ni0_4 2.694304 1_465
Ni0_3 Ni1_2 2.501155 1_556
Ni0_3 Ni2_3 2.501155 1_555
Ni0_3 Ni1_0 2.501157 1_556
Ni0_3 Ni2_1 2.501157 1_555
Ni0_3 Ni2_7 2.502142 1_455
Ni0_3 Ni1_6 2.502142 1_456
Ni0_3 Ni0_7 2.694303 1_455
Ni0_3 Ni0_7 2.694303 1_555
Ni0_3 Ni0_5 2.694304 1_555
Ni0_3 Ni0_5 2.694304 1_465
Ni0_4 Ni1_5 2.501155 1_555
Ni0_4 Ni2_4 2.501155 1_555
Ni0_4 Ni1_7 2.501157 1_545
Ni0_4 Ni2_6 2.501157 1_545
Ni0_4 Ni1_1 2.502142 1_555
Ni0_4 Ni2_0 2.502142 1_555
Ni0_4 Ni0_6 2.691594 1_545
Ni0_4 Ni0_6 2.691594 1_555
Ni0_5 Ni2_5 2.501155 1_555
Ni0_5 Ni1_4 2.501155 1_556
Ni0_5 Ni1_6 2.501157 1_546
Ni0_5 Ni2_7 2.501157 1_545
Ni0_5 Ni2_1 2.502142 1_555
Ni0_5 Ni1_0 2.502142 1_556
Ni0_5 Ni0_7 2.691594 1_545
Ni0_5 Ni0_7 2.691594 1_555
Ni0_6 Ni1_7 2.501155 1_555
Ni0_6 Ni2_6 2.501155 1_555
Ni0_6 Ni1_5 2.501157 1_555
Ni0_6 Ni2_4 2.501157 1_555
Ni0_6 Ni1_3 2.502142 1_555
Ni0_6 Ni2_2 2.502142 1_555
Ni0_7 Ni1_6 2.501155 1_556
Ni0_7 Ni2_7 2.501155 1_555
Ni0_7 Ni2_5 2.501157 1_555
Ni0_7 Ni1_4 2.501157 1_556
Ni0_7 Ni1_2 2.502142 1_556
Ni0_7 Ni2_3 2.502142 1_555
Ni1_0 Ni1_2 2.691594 1_555
Ni1_0 Ni1_2 2.691594 1_545
Ni1_0 Ni1_4 2.694303 1_455
Ni1_0 Ni1_4 2.694303 1_555
Ni1_0 Ni1_6 2.694304 1_455
Ni1_0 Ni1_6 2.694304 1_545
Ni1_1 Ni1_3 2.691594 1_555
Ni1_1 Ni1_3 2.691594 1_545
Ni1_1 Ni1_5 2.694303 1_455
Ni1_1 Ni1_5 2.694303 1_555
Ni1_1 Ni1_7 2.694304 1_455
Ni1_1 Ni1_7 2.694304 1_545
Ni1_2 Ni1_6 2.694303 1_455
Ni1_2 Ni1_6 2.694303 1_555
Ni1_2 Ni1_4 2.694304 1_555
Ni1_2 Ni1_4 2.694304 1_465
Ni1_3 Ni1_7 2.694303 1_455
Ni1_3 Ni1_7 2.694303 1_555
Ni1_3 Ni1_5 2.694304 1_555
Ni1_3 Ni1_5 2.694304 1_465
Ni1_4 Ni1_6 2.691594 1_545
Ni1_4 Ni1_6 2.691594 1_555
Ni1_5 Ni1_7 2.691594 1_555
Ni1_5 Ni1_7 2.691594 1_545
Ni2_0 Ni2_2 2.691594 1_555
Ni2_0 Ni2_2 2.691594 1_545
Ni2_0 Ni2_4 2.694303 1_455
Ni2_0 Ni2_4 2.694303 1_555
Ni2_0 Ni2_6 2.694304 1_455
Ni2_0 Ni2_6 2.694304 1_545
Ni2_1 Ni2_3 2.691594 1_555
Ni2_1 Ni2_3 2.691594 1_545
Ni2_1 Ni2_5 2.694303 1_455
Ni2_1 Ni2_5 2.694303 1_555
Ni2_1 Ni2_7 2.694304 1_455
Ni2_1 Ni2_7 2.694304 1_545
Ni2_2 Ni2_6 2.694303 1_455
Ni2_2 Ni2_6 2.694303 1_555
Ni2_2 Ni2_4 2.694304 1_555
Ni2_2 Ni2_4 2.694304 1_465
Ni2_3 Ni2_7 2.694303 1_455
Ni2_3 Ni2_7 2.694303 1_555
Ni2_3 Ni2_5 2.694304 1_555
Ni2_3 Ni2_5 2.694304 1_465
Ni2_4 Ni2_6 2.691594 1_545
Ni2_4 Ni2_6 2.691594 1_555
Ni2_5 Ni2_7 2.691594 1_545
Ni2_5 Ni2_7 2.691594 1_555
