# generated using pymatgen
data_Ca2CrFeO5
_symmetry_space_group_name_H-M   'P 1'
_cell_length_a   5.49698900
_cell_length_b   5.68900100
_cell_length_c   14.68715600
_cell_angle_alpha   90.00000000
_cell_angle_beta   90.00000000
_cell_angle_gamma   90.00000000
_symmetry_Int_Tables_number   1
_chemical_formula_structural   Ca2CrFeO5
_chemical_formula_sum   'Ca8 Cr4 Fe4 O20'
_cell_volume   459.30226360
_cell_formula_units_Z   4
loop_
 _symmetry_equiv_pos_site_id
 _symmetry_equiv_pos_as_xyz
  1  'x, y, z'
loop_
 _atom_site_type_symbol
 _atom_site_label
 _atom_site_symmetry_multiplicity
 _atom_site_fract_x
 _atom_site_fract_y
 _atom_site_fract_z
 _atom_site_occupancy
  Ca  Ca0  1  0.02173400  0.52500800  0.60671000  1
  Ca  Ca1  1  0.97826600  0.47499200  0.39329000  1
  Ca  Ca2  1  0.47826600  0.02500800  0.39329000  1
  Ca  Ca3  1  0.97826600  0.47499200  0.10671000  1
  Ca  Ca4  1  0.52173400  0.97499200  0.60671000  1
  Ca  Ca5  1  0.02173400  0.52500800  0.89329000  1
  Ca  Ca6  1  0.52173400  0.97499200  0.89329000  1
  Ca  Ca7  1  0.47826600  0.02500800  0.10671000  1
  Cr  Cr0  1  0.00000000  0.00000000  0.50000000  1
  Cr  Cr1  1  0.50000000  0.50000000  0.50000000  1
  Cr  Cr2  1  0.00000000  0.00000000  0.00000000  1
  Cr  Cr3  1  0.50000000  0.50000000  0.00000000  1
  Fe  Fe0  1  0.05421700  0.06906100  0.75000000  1
  Fe  Fe1  1  0.94578300  0.93093900  0.25000000  1
  Fe  Fe2  1  0.44578300  0.56906100  0.25000000  1
  Fe  Fe3  1  0.55421700  0.43093900  0.75000000  1
  O  O0  1  0.02786000  0.07526600  0.13953500  1
  O  O1  1  0.97214000  0.92473400  0.86046500  1
  O  O2  1  0.47214000  0.57526600  0.86046500  1
  O  O3  1  0.97214000  0.92473400  0.63953500  1
  O  O4  1  0.52786000  0.42473400  0.13953500  1
  O  O5  1  0.02786000  0.07526600  0.36046500  1
  O  O6  1  0.52786000  0.42473400  0.36046500  1
  O  O7  1  0.47214000  0.57526600  0.63953500  1
  O  O8  1  0.26517700  0.23496000  0.51898200  1
  O  O9  1  0.73482300  0.76504000  0.48101800  1
  O  O10  1  0.23482300  0.73496000  0.48101800  1
  O  O11  1  0.73482300  0.76504000  0.01898200  1
  O  O12  1  0.76517700  0.26504000  0.51898200  1
  O  O13  1  0.26517700  0.23496000  0.98101800  1
  O  O14  1  0.76517700  0.26504000  0.98101800  1
  O  O15  1  0.23482300  0.73496000  0.01898200  1
  O  O16  1  0.40783500  0.11986300  0.75000000  1
  O  O17  1  0.59216500  0.88013700  0.25000000  1
  O  O18  1  0.09216500  0.61986300  0.25000000  1
  O  O19  1  0.90783500  0.38013700  0.75000000  1
loop_
_geom_bond_atom_site_label_1
_geom_bond_atom_site_label_2
_geom_bond_distance
_geom_bond_site_symmetry_2
Ca0 O3 2.340515 1_455
Ca0 O19 2.345267 1_455
Ca0 O12 2.415865 1_455
Ca0 O8 2.484699 1_555
Ca0 O10 2.491309 1_555
Ca0 O7 2.538531 1_555
Ca0 O9 2.785683 1_455
Ca1 O5 2.340515 1_655
Ca1 O18 2.345267 1_655
Ca1 O10 2.415865 1_655
Ca1 O9 2.484699 1_555
Ca1 O12 2.491309 1_555
Ca1 O6 2.538531 1_555
Ca1 O8 2.785683 1_655
Ca2 O6 2.340515 1_555
Ca2 O17 2.345267 1_545
Ca2 O9 2.415865 1_545
Ca2 O10 2.484699 1_545
Ca2 O8 2.491309 1_555
Ca2 O5 2.538531 1_555
Ca2 O12 2.785683 1_555
Ca3 O0 2.340515 1_655
Ca3 O18 2.345267 1_655
Ca3 O15 2.415865 1_655
Ca3 O11 2.484699 1_555
Ca3 O14 2.491309 1_554
Ca3 O4 2.538531 1_555
Ca3 O13 2.785683 1_654
Ca4 O7 2.340515 1_555
Ca4 O16 2.345267 1_565
Ca4 O8 2.415865 1_565
Ca4 O12 2.484699 1_565
Ca4 O9 2.491309 1_555
Ca4 O3 2.538531 1_555
Ca4 O10 2.785683 1_555
Ca5 O1 2.340515 1_455
Ca5 O19 2.345267 1_455
Ca5 O14 2.415865 1_455
Ca5 O13 2.484699 1_555
Ca5 O15 2.491309 1_556
Ca5 O2 2.538531 1_555
Ca5 O11 2.785683 1_456
Ca6 O2 2.340515 1_555
Ca6 O16 2.345267 1_565
Ca6 O13 2.415865 1_565
Ca6 O14 2.484699 1_565
Ca6 O11 2.491309 1_556
Ca6 O1 2.538531 1_555
Ca6 O15 2.785683 1_556
Ca7 O4 2.340515 1_555
Ca7 O17 2.345267 1_545
Ca7 O11 2.415865 1_545
Ca7 O15 2.484699 1_545
Ca7 O13 2.491309 1_554
Ca7 O0 2.538531 1_555
Ca7 O14 2.785683 1_554
Cr0 O8 1.997317 1_555
Cr0 O9 1.997317 1_445
Cr0 O10 2.004355 1_545
Cr0 O12 2.004355 1_455
Cr0 O3 2.099220 1_445
Cr0 O5 2.099220 1_555
Cr1 O12 1.997317 1_555
Cr1 O10 1.997317 1_555
Cr1 O8 2.004355 1_555
Cr1 O9 2.004355 1_555
Cr1 O7 2.099220 1_555
Cr1 O6 2.099220 1_555
Cr2 O11 1.997317 1_445
Cr2 O13 1.997317 1_554
Cr2 O15 2.004355 1_545
Cr2 O14 2.004355 1_454
Cr2 O0 2.099220 1_555
Cr2 O1 2.099220 1_444
Cr3 O14 1.997317 1_554
Cr3 O15 1.997317 1_555
Cr3 O13 2.004355 1_554
Cr3 O11 2.004355 1_555
Cr3 O4 2.099220 1_555
Cr3 O2 2.099220 1_554
Fe0 O1 1.873489 1_445
Fe0 O3 1.873489 1_445
Fe0 O19 1.944057 1_455
Fe0 O16 1.965202 1_555
Fe1 O5 1.873489 1_665
Fe1 O0 1.873489 1_665
Fe1 O18 1.944057 1_655
Fe1 O17 1.965202 1_555
Fe2 O6 1.873489 1_555
Fe2 O4 1.873489 1_555
Fe2 O17 1.944057 1_555
Fe2 O18 1.965202 1_555
Fe3 O2 1.873489 1_555
Fe3 O7 1.873489 1_555
Fe3 O16 1.944057 1_555
Fe3 O19 1.965202 1_555
