# generated using pymatgen
data_CaPrMgBiO6
_symmetry_space_group_name_H-M   'P 1'
_cell_length_a   5.75374158
_cell_length_b   5.75374158
_cell_length_c   5.75374158
_cell_angle_alpha   60.00000000
_cell_angle_beta   60.00000000
_cell_angle_gamma   60.00000000
_symmetry_Int_Tables_number   1
_chemical_formula_structural   CaPrMgBiO6
_chemical_formula_sum   'Ca1 Pr1 Mg1 Bi1 O6'
_cell_volume   134.69021921
_cell_formula_units_Z   1
loop_
 _symmetry_equiv_pos_site_id
 _symmetry_equiv_pos_as_xyz
  1  'x, y, z'
loop_
 _atom_site_type_symbol
 _atom_site_label
 _atom_site_symmetry_multiplicity
 _atom_site_fract_x
 _atom_site_fract_y
 _atom_site_fract_z
 _atom_site_occupancy
  Ca  Ca0  1  0.25000000  0.25000000  0.25000000  1
  Pr  Pr0  1  0.75000000  0.75000000  0.75000000  1
  Mg  Mg0  1  0.50000000  0.50000000  0.50000000  1
  Bi  Bi0  1  0.00000000  0.00000000  0.00000000  1
  O  O0  1  0.74570360  0.25429640  0.25429640  1
  O  O1  1  0.25429640  0.74570360  0.74570360  1
  O  O2  1  0.74570360  0.25429640  0.74570360  1
  O  O3  1  0.25429640  0.74570360  0.25429640  1
  O  O4  1  0.74570360  0.74570360  0.25429640  1
  O  O5  1  0.25429640  0.25429640  0.74570360  1
loop_
_geom_bond_atom_site_label_1
_geom_bond_atom_site_label_2
_geom_bond_distance
_geom_bond_site_symmetry_2
Ca0 O0 2.877083 1_555
Ca0 O5 2.877083 1_555
Ca0 O3 2.877083 1_555
Ca0 O1 2.877083 1_554
Ca0 O2 2.877083 1_455
Ca0 O2 2.877083 1_554
Ca0 O4 2.877083 1_545
Ca0 O1 2.877083 1_545
Ca0 O4 2.877083 1_455
Ca0 O5 2.877083 1_554
Ca0 O0 2.877083 1_455
Ca0 O3 2.877083 1_545
Mg0 O4 1.999295 1_555
Mg0 O1 1.999295 1_555
Mg0 O2 1.999295 1_555
Mg0 O3 1.999295 1_555
Mg0 O0 1.999295 1_555
Mg0 O5 1.999295 1_555
Bi0 O3 2.069215 1_545
Bi0 O5 2.069215 1_554
Bi0 O0 2.069215 1_455
Bi0 O4 2.069215 1_445
Bi0 O2 2.069215 1_454
Bi0 O1 2.069215 1_544
O0 Pr0 2.877083 1_554
O0 Pr0 2.877083 1_545
O1 Pr0 2.877083 1_455
O1 Pr0 2.877083 1_555
O2 Pr0 2.877083 1_545
O2 Pr0 2.877083 1_555
O3 Pr0 2.877083 1_554
O3 Pr0 2.877083 1_455
O4 Pr0 2.877083 1_554
O4 Pr0 2.877083 1_555
O5 Pr0 2.877083 1_455
O5 Pr0 2.877083 1_545
