# generated using pymatgen
data_Ta2GaCo3
_symmetry_space_group_name_H-M   'P 1'
_cell_length_a   4.90099014
_cell_length_b   4.90099014
_cell_length_c   7.63006400
_cell_angle_alpha   90.00000000
_cell_angle_beta   90.00000000
_cell_angle_gamma   120.00000183
_symmetry_Int_Tables_number   1
_chemical_formula_structural   Ta2GaCo3
_chemical_formula_sum   'Ta4 Ga2 Co6'
_cell_volume   158.71810193
_cell_formula_units_Z   2
loop_
 _symmetry_equiv_pos_site_id
 _symmetry_equiv_pos_as_xyz
  1  'x, y, z'
loop_
 _atom_site_type_symbol
 _atom_site_label
 _atom_site_symmetry_multiplicity
 _atom_site_fract_x
 _atom_site_fract_y
 _atom_site_fract_z
 _atom_site_occupancy
  Ta  Ta0  1  0.33333300  0.66666700  0.43936200  1
  Ta  Ta1  1  0.66666700  0.33333300  0.56063800  1
  Ta  Ta2  1  0.66666700  0.33333300  0.93936200  1
  Ta  Ta3  1  0.33333300  0.66666700  0.06063800  1
  Ga  Ga0  1  0.00000000  0.00000000  0.50000000  1
  Ga  Ga1  1  0.00000000  0.00000000  0.00000000  1
  Co  Co0  1  0.82740400  0.17259600  0.25000000  1
  Co  Co1  1  0.82740400  0.65480800  0.25000000  1
  Co  Co2  1  0.34519200  0.17259600  0.25000000  1
  Co  Co3  1  0.17259600  0.82740400  0.75000000  1
  Co  Co4  1  0.17259600  0.34519200  0.75000000  1
  Co  Co5  1  0.65480800  0.82740400  0.75000000  1
loop_
_geom_bond_atom_site_label_1
_geom_bond_atom_site_label_2
_geom_bond_distance
_geom_bond_site_symmetry_2
Ta0 Ta3 2.889688 1_555
Ta0 Ta1 2.977048 1_455
Ta0 Ta1 2.977048 1_565
Ta0 Ta1 2.977056 1_555
Ta1 Ta2 2.889688 1_555
Ta2 Ta3 2.977048 1_546
Ta2 Ta3 2.977048 1_656
Ta2 Ta3 2.977056 1_556
Ga0 Ta0 2.867162 1_545
Ga0 Ta1 2.867162 1_455
Ga0 Ta0 2.867166 1_445
Ga0 Ta1 2.867166 1_555
Ga0 Ta1 2.867166 1_445
Ga0 Ta0 2.867166 1_555
Ga1 Ta3 2.867162 1_545
Ga1 Ta2 2.867162 1_454
Ga1 Ta3 2.867166 1_555
Ga1 Ta3 2.867166 1_445
Ga1 Ta2 2.867166 1_554
Ga1 Ta2 2.867166 1_444
Co0 Co2 2.363316 1_555
Co0 Co1 2.363316 1_555
Co0 Ga0 2.405247 1_655
Co0 Ga1 2.405247 1_655
Co0 Co1 2.537674 1_545
Co0 Co2 2.537674 1_655
Co0 Ta1 2.734874 1_555
Co0 Ta2 2.734874 1_554
Co0 Ta3 2.845177 1_545
Co0 Ta0 2.845177 1_545
Co0 Ta3 2.845177 1_655
Co0 Ta0 2.845177 1_655
Co1 Co2 2.363316 1_555
Co1 Ga0 2.405247 1_665
Co1 Ga1 2.405247 1_665
Co1 Co2 2.537674 1_665
Co1 Ta1 2.734876 1_555
Co1 Ta2 2.734876 1_554
Co1 Ta3 2.845175 1_655
Co1 Ta0 2.845175 1_655
Co1 Ta3 2.845179 1_555
Co1 Ta0 2.845179 1_555
Co2 Ga1 2.405247 1_555
Co2 Ga0 2.405247 1_555
Co2 Ta1 2.734876 1_555
Co2 Ta2 2.734876 1_554
Co2 Ta0 2.845175 1_545
Co2 Ta3 2.845175 1_545
Co2 Ta3 2.845179 1_555
Co2 Ta0 2.845179 1_555
Co3 Co4 2.363316 1_555
Co3 Co5 2.363316 1_555
Co3 Ga0 2.405247 1_565
Co3 Ga1 2.405247 1_566
Co3 Co5 2.537674 1_455
Co3 Co4 2.537674 1_565
Co3 Ta3 2.734874 1_556
Co3 Ta0 2.734874 1_555
Co3 Ta2 2.845177 1_455
Co3 Ta1 2.845177 1_455
Co3 Ta2 2.845177 1_565
Co3 Ta1 2.845177 1_565
Co4 Co5 2.363316 1_555
Co4 Ga1 2.405247 1_556
Co4 Ga0 2.405247 1_555
Co4 Co5 2.537674 1_445
Co4 Ta0 2.734876 1_555
Co4 Ta3 2.734876 1_556
Co4 Ta2 2.845175 1_455
Co4 Ta1 2.845175 1_455
Co4 Ta2 2.845179 1_555
Co4 Ta1 2.845179 1_555
Co5 Ga0 2.405247 1_665
Co5 Ga1 2.405247 1_666
Co5 Ta3 2.734876 1_556
Co5 Ta0 2.734876 1_555
Co5 Ta2 2.845175 1_565
Co5 Ta1 2.845175 1_565
Co5 Ta2 2.845179 1_555
Co5 Ta1 2.845179 1_555
