# generated using pymatgen
data_Li5Mn2CoO8
_symmetry_space_group_name_H-M   'P 1'
_cell_length_a   2.87633900
_cell_length_b   5.14565900
_cell_length_c   9.86638586
_cell_angle_alpha   80.18760406
_cell_angle_beta   90.00000000
_cell_angle_gamma   90.00000000
_symmetry_Int_Tables_number   1
_chemical_formula_structural   Li5Mn2CoO8
_chemical_formula_sum   'Li5 Mn2 Co1 O8'
_cell_volume   143.89276807
_cell_formula_units_Z   1
loop_
 _symmetry_equiv_pos_site_id
 _symmetry_equiv_pos_as_xyz
  1  'x, y, z'
loop_
 _atom_site_type_symbol
 _atom_site_label
 _atom_site_symmetry_multiplicity
 _atom_site_fract_x
 _atom_site_fract_y
 _atom_site_fract_z
 _atom_site_occupancy
  Li  Li0  1  0.50000000  0.75646500  0.23455800  1
  Li  Li1  1  0.50000000  0.24353500  0.76544200  1
  Li  Li2  1  0.00000000  0.29175400  0.21763100  1
  Li  Li3  1  0.00000000  0.70824600  0.78236900  1
  Li  Li4  1  0.50000000  0.50000000  0.00000000  1
  Mn  Mn0  1  0.00000000  0.00000000  0.00000000  1
  Mn  Mn1  1  0.00000000  0.50000000  0.50000000  1
  Co  Co0  1  0.50000000  0.00000000  0.50000000  1
  O  O0  1  0.50000000  0.11503100  0.11207000  1
  O  O1  1  0.50000000  0.59858600  0.61389100  1
  O  O2  1  0.00000000  0.65999500  0.11505100  1
  O  O3  1  0.00000000  0.14217700  0.60227300  1
  O  O4  1  0.50000000  0.40141400  0.38610900  1
  O  O5  1  0.50000000  0.88496900  0.88793000  1
  O  O6  1  0.00000000  0.85782300  0.39772700  1
  O  O7  1  0.00000000  0.34000500  0.88494900  1
loop_
_geom_bond_atom_site_label_1
_geom_bond_atom_site_label_2
_geom_bond_distance
_geom_bond_site_symmetry_2
Li0 O2 1.975988 1_655
Li0 O2 1.975988 1_555
Li0 O0 2.026015 1_565
Li0 O4 2.154648 1_555
Li0 O6 2.284355 1_555
Li0 O6 2.284355 1_655
Li1 O7 1.975988 1_555
Li1 O7 1.975988 1_655
Li1 O5 2.026015 1_545
Li1 O1 2.154648 1_555
Li1 O3 2.284355 1_655
Li1 O3 2.284355 1_555
Li2 O2 1.990252 1_555
Li2 O0 2.074321 1_555
Li2 O0 2.074321 1_455
Li2 O4 2.338713 1_455
Li2 O4 2.338713 1_555
Li2 O6 2.605898 1_545
Li3 O7 1.990252 1_555
Li3 O5 2.074321 1_455
Li3 O5 2.074321 1_555
Li3 O1 2.338713 1_455
Li3 O1 2.338713 1_555
Li3 O3 2.605898 1_565
Li4 O7 2.086430 1_554
Li4 O2 2.086430 1_555
Li4 O7 2.086430 1_654
Li4 O2 2.086430 1_655
Li4 O5 2.097641 1_554
Li4 O0 2.097641 1_555
Mn0 O2 1.916390 1_545
Mn0 O7 1.916390 1_554
Mn0 O5 1.965807 1_444
Mn0 O0 1.965807 1_555
Mn0 O0 1.965807 1_455
Mn0 O5 1.965807 1_544
Mn1 O3 1.942960 1_555
Mn1 O6 1.942960 1_555
Mn1 O1 1.944905 1_555
Mn1 O1 1.944905 1_455
Mn1 O4 1.944905 1_555
Mn1 O4 1.944905 1_455
Co0 O3 1.968094 1_655
Co0 O3 1.968094 1_555
Co0 O6 1.968094 1_545
Co0 O6 1.968094 1_645
Co0 O4 2.176701 1_555
Co0 O1 2.176701 1_545
