# generated using pymatgen
data_BaP2(HO)2
_symmetry_space_group_name_H-M   'P 1'
_cell_length_a   10.31231563
_cell_length_b   10.31231563
_cell_length_c   7.51445800
_cell_angle_alpha   90.00000000
_cell_angle_beta   90.00000000
_cell_angle_gamma   139.83706096
_symmetry_Int_Tables_number   1
_chemical_formula_structural   BaP2(HO)2
_chemical_formula_sum   'Ba4 P8 H8 O8'
_cell_volume   515.40092630
_cell_formula_units_Z   4
loop_
 _symmetry_equiv_pos_site_id
 _symmetry_equiv_pos_as_xyz
  1  'x, y, z'
loop_
 _atom_site_type_symbol
 _atom_site_label
 _atom_site_symmetry_multiplicity
 _atom_site_fract_x
 _atom_site_fract_y
 _atom_site_fract_z
 _atom_site_occupancy
  Ba  Ba0  1  0.75000000  0.25000000  0.75000000  1
  Ba  Ba1  1  0.25000000  0.75000000  0.75000000  1
  Ba  Ba2  1  0.75000000  0.25000000  0.25000000  1
  Ba  Ba3  1  0.25000000  0.75000000  0.25000000  1
  P  P0  1  0.06126900  0.26222400  0.50277000  1
  P  P1  1  0.93873100  0.73777600  0.50277000  1
  P  P2  1  0.73777600  0.93873100  0.49723000  1
  P  P3  1  0.43873100  0.23777600  0.99723000  1
  P  P4  1  0.26222400  0.06126900  0.49723000  1
  P  P5  1  0.56126900  0.76222400  0.99723000  1
  P  P6  1  0.76222400  0.56126900  0.00277000  1
  P  P7  1  0.23777600  0.43873100  0.00277000  1
  H  H0  1  0.07526100  0.26276300  0.69409800  1
  H  H1  1  0.92473900  0.73723700  0.69409800  1
  H  H2  1  0.73723700  0.92473900  0.30590200  1
  H  H3  1  0.42473900  0.23723700  0.80590200  1
  H  H4  1  0.26276300  0.07526100  0.30590200  1
  H  H5  1  0.57526100  0.76276300  0.80590200  1
  H  H6  1  0.76276300  0.57526100  0.19409800  1
  H  H7  1  0.23723700  0.42473900  0.19409800  1
  O  O0  1  0.04731100  0.41122900  0.48282900  1
  O  O1  1  0.95268900  0.58877100  0.48282900  1
  O  O2  1  0.58877100  0.95268900  0.51717100  1
  O  O3  1  0.45268900  0.08877100  0.01717100  1
  O  O4  1  0.41122900  0.04731100  0.51717100  1
  O  O5  1  0.54731100  0.91122900  0.01717100  1
  O  O6  1  0.91122900  0.54731100  0.98282900  1
  O  O7  1  0.08877100  0.45268900  0.98282900  1
loop_
_geom_bond_atom_site_label_1
_geom_bond_atom_site_label_2
_geom_bond_distance
_geom_bond_site_symmetry_2
Ba0 O6 2.726582 1_555
Ba0 O2 2.726582 1_545
Ba0 O3 2.898938 1_556
Ba0 O0 2.898938 1_655
Ba0 O7 2.910985 1_655
Ba0 O4 2.910985 1_555
Ba0 O1 3.073017 1_555
Ba0 O5 3.073017 1_546
Ba1 O7 2.726582 1_555
Ba1 O4 2.726582 1_565
Ba1 O5 2.898938 1_556
Ba1 O1 2.898938 1_455
Ba1 O2 2.910985 1_555
Ba1 O6 2.910985 1_455
Ba1 O3 3.073017 1_566
Ba1 O0 3.073017 1_555
Ba2 O0 2.726582 1_655
Ba2 O3 2.726582 1_555
Ba2 O2 2.898938 1_545
Ba2 O6 2.898938 1_554
Ba2 O1 2.910985 1_555
Ba2 O5 2.910985 1_545
Ba2 O4 3.073017 1_555
Ba2 O7 3.073017 1_654
Ba3 O1 2.726582 1_455
Ba3 O5 2.726582 1_555
Ba3 O4 2.898938 1_565
Ba3 O7 2.898938 1_554
Ba3 O3 2.910985 1_565
Ba3 O0 2.910985 1_555
Ba3 O2 3.073017 1_555
Ba3 O6 3.073017 1_454
H0 P0 1.444535 1_555
H1 P1 1.444535 1_555
H2 P2 1.444535 1_555
H3 P3 1.444535 1_555
H4 P4 1.444535 1_555
H5 P5 1.444535 1_555
H6 P6 1.444535 1_555
H7 P7 1.444535 1_555
O0 P0 1.655995 1_555
O1 P1 1.655995 1_555
O2 P2 1.655995 1_555
O3 P3 1.655995 1_554
O4 P4 1.655995 1_555
O5 P5 1.655995 1_554
O6 P6 1.655995 1_556
O7 P7 1.655995 1_556
