# generated using pymatgen
data_CdH10(C2O3)4
_symmetry_space_group_name_H-M   'P 1'
_cell_length_a   5.37506132
_cell_length_b   8.01525684
_cell_length_c   9.17010900
_cell_angle_alpha   69.83428431
_cell_angle_beta   79.48371405
_cell_angle_gamma   70.12078943
_symmetry_Int_Tables_number   1
_chemical_formula_structural   CdH10(C2O3)4
_chemical_formula_sum   'Cd1 H10 C8 O12'
_cell_volume   347.79933719
_cell_formula_units_Z   1
loop_
 _symmetry_equiv_pos_site_id
 _symmetry_equiv_pos_as_xyz
  1  'x, y, z'
loop_
 _atom_site_type_symbol
 _atom_site_label
 _atom_site_symmetry_multiplicity
 _atom_site_fract_x
 _atom_site_fract_y
 _atom_site_fract_z
 _atom_site_occupancy
  Cd  Cd0  1  0.50000000  0.50000000  0.00000000  1
  H  H0  1  0.50000000  0.50000000  0.50000000  1
  H  H1  1  0.50000000  0.00000000  0.50000000  1
  H  H2  1  0.58347600  0.86880100  0.86954600  1
  H  H3  1  0.41652400  0.13119900  0.13045400  1
  H  H4  1  0.68459100  0.79360000  0.03671000  1
  H  H5  1  0.31540900  0.20640000  0.96329000  1
  H  H6  1  0.97444000  0.28518700  0.14724900  1
  H  H7  1  0.02556000  0.71481300  0.85275100  1
  H  H8  1  0.74810900  0.33675400  0.28010800  1
  H  H9  1  0.25189100  0.66324600  0.71989200  1
  C  C0  1  0.90358400  0.32374000  0.71244400  1
  C  C1  1  0.09641600  0.67626000  0.28755600  1
  C  C2  1  0.87515000  0.30613400  0.56343800  1
  C  C3  1  0.12485000  0.69386600  0.43656200  1
  C  C4  1  0.13689800  0.17390900  0.56463700  1
  C  C5  1  0.86310200  0.82609100  0.43536300  1
  C  C6  1  0.17325800  0.18586100  0.71675200  1
  C  C7  1  0.82674200  0.81413900  0.28324800  1
  O  O0  1  0.76446400  0.42139000  0.79529000  1
  O  O1  1  0.23553600  0.57861000  0.20471000  1
  O  O2  1  0.69378100  0.38305600  0.46548100  1
  O  O3  1  0.30621900  0.61694400  0.53451900  1
  O  O4  1  0.27480300  0.09047400  0.46736300  1
  O  O5  1  0.72519700  0.90952600  0.53263700  1
  O  O6  1  0.35308900  0.11641000  0.80899900  1
  O  O7  1  0.64691100  0.88359000  0.19100100  1
  O  O8  1  0.69193900  0.75469100  0.94260900  1
  O  O9  1  0.30806100  0.24530900  0.05739100  1
  O  O10  1  0.78320000  0.30423400  0.18188200  1
  O  O11  1  0.21680000  0.69576600  0.81811800  1
loop_
_geom_bond_atom_site_label_1
_geom_bond_atom_site_label_2
_geom_bond_distance
_geom_bond_site_symmetry_2
Cd0 O10 2.249233 1_555
Cd0 O11 2.249233 1_554
Cd0 O0 2.274627 1_554
Cd0 O1 2.274627 1_555
Cd0 O8 2.449915 1_554
Cd0 O9 2.449915 1_555
H0 O3 1.218174 1_555
H0 O2 1.218174 1_555
H1 O5 1.210897 1_545
H1 O4 1.210897 1_555
H2 O8 0.991341 1_555
H3 O9 0.991341 1_555
H4 O8 1.004079 1_554
H5 O9 1.004079 1_556
H6 O10 0.994153 1_555
H7 O11 0.994153 1_555
H8 O10 0.990596 1_555
H9 O11 0.990596 1_555
C0 O0 1.246393 1_555
C1 O1 1.246393 1_555
C2 O2 1.290909 1_555
C3 O3 1.290909 1_555
C4 O4 1.274826 1_555
C5 O5 1.274826 1_555
C6 O6 1.252055 1_555
C7 O7 1.252055 1_555
