# generated using pymatgen
data_Cs2Sn(HO2)6
_symmetry_space_group_name_H-M   'P 1'
_cell_length_a   7.86258668
_cell_length_b   7.86258668
_cell_length_c   5.09961600
_cell_angle_alpha   90.00000000
_cell_angle_beta   90.00000000
_cell_angle_gamma   120.00000572
_symmetry_Int_Tables_number   1
_chemical_formula_structural   Cs2Sn(HO2)6
_chemical_formula_sum   'Cs2 Sn1 H6 O12'
_cell_volume   273.02283645
_cell_formula_units_Z   1
loop_
 _symmetry_equiv_pos_site_id
 _symmetry_equiv_pos_as_xyz
  1  'x, y, z'
loop_
 _atom_site_type_symbol
 _atom_site_label
 _atom_site_symmetry_multiplicity
 _atom_site_fract_x
 _atom_site_fract_y
 _atom_site_fract_z
 _atom_site_occupancy
  Cs  Cs0  1  0.33333300  0.66666700  0.37886300  1
  Cs  Cs1  1  0.66666700  0.33333300  0.62113700  1
  Sn  Sn0  1  0.00000000  0.00000000  0.50000000  1
  H  H0  1  0.27182000  0.28416300  0.99993900  1
  H  H1  1  0.01234300  0.72818000  0.99993900  1
  H  H2  1  0.71583700  0.98765700  0.99993900  1
  H  H3  1  0.72818000  0.71583700  0.00006100  1
  H  H4  1  0.98765700  0.27182000  0.00006100  1
  H  H5  1  0.28416300  0.01234300  0.00006100  1
  O  O0  1  0.08416200  0.25831200  0.72915400  1
  O  O1  1  0.17415000  0.91583800  0.72915400  1
  O  O2  1  0.74168800  0.82585000  0.72915400  1
  O  O3  1  0.91583800  0.74168800  0.27084600  1
  O  O4  1  0.82585000  0.08416200  0.27084600  1
  O  O5  1  0.25831200  0.17415000  0.27084600  1
  O  O6  1  0.28856300  0.34950400  0.82152700  1
  O  O7  1  0.06094100  0.71143700  0.82152700  1
  O  O8  1  0.65049600  0.93905900  0.82152700  1
  O  O9  1  0.71143700  0.65049600  0.17847300  1
  O  O10  1  0.93905900  0.28856300  0.17847300  1
  O  O11  1  0.34950400  0.06094100  0.17847300  1
loop_
_geom_bond_atom_site_label_1
_geom_bond_atom_site_label_2
_geom_bond_distance
_geom_bond_site_symmetry_2
Cs0 O11 3.205682 1_565
Cs0 O10 3.205686 1_455
Cs0 O9 3.205690 1_555
Cs0 O7 3.249714 1_555
Cs0 O8 3.249717 1_555
Cs0 O6 3.249719 1_555
Cs0 O1 3.323813 1_555
Cs0 O0 3.323818 1_555
Cs0 O2 3.323819 1_555
Cs1 O8 3.205682 1_545
Cs1 O7 3.205686 1_655
Cs1 O6 3.205690 1_555
Cs1 O10 3.249714 1_555
Cs1 O11 3.249717 1_555
Cs1 O9 3.249719 1_555
Cs1 O4 3.323813 1_555
Cs1 O3 3.323818 1_555
Cs1 O5 3.323819 1_555
H0 O6 1.020506 1_555
H0 O5 1.605059 1_556
H1 O7 1.020506 1_555
H1 O3 1.605059 1_456
H2 O8 1.020506 1_555
H2 O4 1.605059 1_566
H3 O9 1.020506 1_555
H3 O2 1.605059 1_554
H4 O10 1.020506 1_555
H4 O0 1.605059 1_654
H5 O11 1.020506 1_555
H5 O1 1.605059 1_544
O0 Sn0 2.141143 1_555
O1 Sn0 2.141143 1_565
O2 Sn0 2.141143 1_665
O3 Sn0 2.141143 1_665
O4 Sn0 2.141143 1_655
O5 Sn0 2.141143 1_555
