# generated using pymatgen
data_NiAg4(PO4)6
_symmetry_space_group_name_H-M   'P 1'
_cell_length_a   6.61724600
_cell_length_b   8.14442962
_cell_length_c   9.44430318
_cell_angle_alpha   95.93508005
_cell_angle_beta   102.32247494
_cell_angle_gamma   91.98609405
_symmetry_Int_Tables_number   1
_chemical_formula_structural   NiAg4(PO4)6
_chemical_formula_sum   'Ni1 Ag4 P6 O24'
_cell_volume   493.75338691
_cell_formula_units_Z   1
loop_
 _symmetry_equiv_pos_site_id
 _symmetry_equiv_pos_as_xyz
  1  'x, y, z'
loop_
 _atom_site_type_symbol
 _atom_site_label
 _atom_site_symmetry_multiplicity
 _atom_site_fract_x
 _atom_site_fract_y
 _atom_site_fract_z
 _atom_site_occupancy
  Ni  Ni0  1  0.00000000  0.00000000  0.00000000  1
  Ag  Ag0  1  0.61591300  0.28254500  0.42455500  1
  Ag  Ag1  1  0.38408700  0.71745500  0.57544600  1
  Ag  Ag2  1  0.19261500  0.43413300  0.16221900  1
  Ag  Ag3  1  0.80738500  0.56586700  0.83778100  1
  P  P0  1  0.85610400  0.72138700  0.50647300  1
  P  P1  1  0.14389600  0.27861300  0.49352700  1
  P  P2  1  0.46007900  0.14344700  0.70178000  1
  P  P3  1  0.53992100  0.85655300  0.29822000  1
  P  P4  1  0.72639100  0.55886000  0.20760900  1
  P  P5  1  0.27360900  0.44114000  0.79239100  1
  O  O0  1  0.29402400  0.36453900  0.41730300  1
  O  O1  1  0.70597600  0.63546100  0.58269700  1
  O  O2  1  0.93142400  0.23133800  0.40415700  1
  O  O3  1  0.06857600  0.76866200  0.59584300  1
  O  O4  1  0.74411300  0.87356300  0.43566500  1
  O  O5  1  0.25588700  0.12643700  0.56433500  1
  O  O6  1  0.88531100  0.60179100  0.36457700  1
  O  O7  1  0.11468900  0.39820900  0.63542300  1
  O  O8  1  0.51289500  0.02181200  0.24815500  1
  O  O9  1  0.48710500  0.97818800  0.75184500  1
  O  O10  1  0.36594400  0.76025700  0.34280500  1
  O  O11  1  0.63405600  0.23974300  0.65719500  1
  O  O12  1  0.62374500  0.73178500  0.17757800  1
  O  O13  1  0.37625500  0.26821500  0.82242200  1
  O  O14  1  0.85670800  0.51800000  0.09757700  1
  O  O15  1  0.14329200  0.48200000  0.90242300  1
  O  O16  1  0.56248800  0.43153500  0.22461800  1
  O  O17  1  0.43751200  0.56846500  0.77538200  1
  O  O18  1  0.17916400  0.16753300  0.10976800  1
  O  O19  1  0.82083600  0.83246700  0.89023200  1
  O  O20  1  0.19492800  0.86905500  0.95358900  1
  O  O21  1  0.80507200  0.13094500  0.04641100  1
  O  O22  1  0.01048700  0.99152400  0.19370300  1
  O  O23  1  0.98951300  0.00847600  0.80629700  1
loop_
_geom_bond_atom_site_label_1
_geom_bond_atom_site_label_2
_geom_bond_distance
_geom_bond_site_symmetry_2
Ni0 O21 1.798136 1_455
Ni0 O20 1.798136 1_544
Ni0 O22 1.824421 1_545
Ni0 O23 1.824421 1_454
Ni0 O18 1.847375 1_555
Ni0 O19 1.847375 1_444
Ag0 O2 2.187561 1_555
Ag0 O11 2.238747 1_555
Ag0 O0 2.243525 1_555
Ag0 O16 2.319830 1_555
Ag0 O8 2.536303 1_555
Ag1 O3 2.187558 1_555
Ag1 O10 2.238756 1_555
Ag1 O1 2.243526 1_555
Ag1 O17 2.319823 1_555
Ag1 O9 2.536298 1_555
Ag2 O18 2.170996 1_555
Ag2 O14 2.322128 1_455
Ag2 O16 2.393474 1_555
Ag2 O15 2.478598 1_554
Ag2 O0 2.488779 1_555
Ag3 O19 2.170996 1_555
Ag3 O15 2.322128 1_655
Ag3 O17 2.393474 1_555
Ag3 O14 2.478598 1_556
Ag3 O1 2.488779 1_555
O0 P1 1.534970 1_555
O1 P0 1.534970 1_555
O2 P1 1.492039 1_655
O3 P0 1.492039 1_455
O4 P0 1.598752 1_555
O4 P3 1.652604 1_555
O5 P1 1.598752 1_555
O5 P2 1.652604 1_555
O6 P4 1.621025 1_555
O6 P0 1.623470 1_555
O7 P5 1.621025 1_555
O7 P1 1.623470 1_555
O8 P3 1.476248 1_545
O9 P2 1.476248 1_565
O10 P3 1.526560 1_555
O11 P2 1.526560 1_555
O12 P4 1.609972 1_555
O12 P3 1.645550 1_555
O13 P5 1.609972 1_555
O13 P2 1.645550 1_555
O14 P4 1.505033 1_555
O15 P5 1.505033 1_555
O16 P4 1.519321 1_555
O17 P5 1.519321 1_555
