# generated using pymatgen
data_Rb3CrF6
_symmetry_space_group_name_H-M   'P 1'
_cell_length_a   7.02998800
_cell_length_b   7.04755697
_cell_length_c   7.10043387
_cell_angle_alpha   101.32445164
_cell_angle_beta   101.40386174
_cell_angle_gamma   105.06279787
_symmetry_Int_Tables_number   1
_chemical_formula_structural   Rb3CrF6
_chemical_formula_sum   'Rb3 Cr1 F6'
_cell_volume   321.38461606
_cell_formula_units_Z   1
loop_
 _symmetry_equiv_pos_site_id
 _symmetry_equiv_pos_as_xyz
  1  'x, y, z'
loop_
 _atom_site_type_symbol
 _atom_site_label
 _atom_site_symmetry_multiplicity
 _atom_site_fract_x
 _atom_site_fract_y
 _atom_site_fract_z
 _atom_site_occupancy
  Rb  Rb0  1  0.00000000  0.00000000  0.50000000  1
  Rb  Rb1  1  0.50000000  0.00000000  0.00000000  1
  Rb  Rb2  1  0.00000000  0.50000000  0.00000000  1
  Cr  Cr0  1  0.00000000  0.00000000  0.00000000  1
  F  F0  1  0.96150600  0.20601500  0.20642500  1
  F  F1  1  0.03849400  0.79398500  0.79357500  1
  F  F2  1  0.19678500  0.93577000  0.19531800  1
  F  F3  1  0.80321500  0.06423000  0.80468200  1
  F  F4  1  0.21372700  0.20228500  0.94225000  1
  F  F5  1  0.78627300  0.79771500  0.05775000  1
loop_
_geom_bond_atom_site_label_1
_geom_bond_atom_site_label_2
_geom_bond_distance
_geom_bond_site_symmetry_2
Cr0 F4 1.953952 1_554
Cr0 F5 1.953952 1_445
Cr0 F0 1.963379 1_455
Cr0 F1 1.963379 1_544
Cr0 F2 1.963507 1_545
Cr0 F3 1.963507 1_454
F0 Rb2 2.751774 1_655
F0 Rb0 2.774198 1_655
F0 Rb1 3.101255 1_555
F1 Rb2 2.751774 1_556
F1 Rb0 2.774198 1_565
F1 Rb1 3.101255 1_566
F2 Rb1 2.754269 1_565
F2 Rb0 2.814828 1_565
F2 Rb2 2.937561 1_555
F3 Rb1 2.754269 1_556
F3 Rb0 2.814828 1_655
F3 Rb2 2.937561 1_656
F4 Rb1 2.764978 1_556
F4 Rb2 2.893476 1_556
F4 Rb0 3.068118 1_555
F5 Rb1 2.764978 1_565
F5 Rb2 2.893476 1_655
F5 Rb0 3.068118 1_665
