# generated using pymatgen
data_Ba2(AlAg)5
_symmetry_space_group_name_H-M   'P 1'
_cell_length_a   7.05123530
_cell_length_b   7.05123530
_cell_length_c   5.51038955
_cell_angle_alpha   90.00000000
_cell_angle_beta   90.00000000
_cell_angle_gamma   103.88327210
_symmetry_Int_Tables_number   1
_chemical_formula_structural   Ba2(AlAg)5
_chemical_formula_sum   'Ba2 Al5 Ag5'
_cell_volume   265.97234259
_cell_formula_units_Z   1
loop_
 _symmetry_equiv_pos_site_id
 _symmetry_equiv_pos_as_xyz
  1  'x, y, z'
loop_
 _atom_site_type_symbol
 _atom_site_label
 _atom_site_symmetry_multiplicity
 _atom_site_fract_x
 _atom_site_fract_y
 _atom_site_fract_z
 _atom_site_occupancy
  Ba  Ba0  1  0.83746018  0.83746018  -0.00000000  1
  Ba  Ba1  1  0.17805006  0.17805006  0.50000000  1
  Al  Al0  1  0.29057959  0.69737341  0.24984377  1
  Al  Al1  1  0.29057959  0.69737341  0.75015623  1
  Al  Al2  1  0.69737341  0.29057959  0.24984377  1
  Al  Al3  1  0.69737341  0.29057959  0.75015623  1
  Al  Al4  1  0.58391912  0.58391912  0.50000000  1
  Ag  Ag0  1  0.42175112  0.02081427  -0.00000000  1
  Ag  Ag1  1  0.96284933  0.57898628  0.50000000  1
  Ag  Ag2  1  0.57898628  0.96284933  0.50000000  1
  Ag  Ag3  1  0.02081427  0.42175112  -0.00000000  1
  Ag  Ag4  1  0.44026266  0.44026266  -0.00000000  1
loop_
_geom_bond_atom_site_label_1
_geom_bond_atom_site_label_2
_geom_bond_distance
_geom_bond_site_symmetry_2
Ba0 Ba1 4.044560 1_664
Ba0 Ba1 4.044560 1_665
Al0 Al1 2.753473 1_554
Al0 Al1 2.756917 1_555
Al0 Al4 2.759079 1_555
Al0 Ba1 3.813749 1_555
Al0 Ba0 3.820212 1_455
Al0 Ba1 3.912561 1_565
Al1 Al4 2.759079 1_555
Al1 Ba1 3.813749 1_555
Al1 Ba0 3.820212 1_456
Al1 Ba1 3.912561 1_565
Al2 Al3 2.753473 1_554
Al2 Al3 2.756917 1_555
Al2 Al4 2.759079 1_555
Al2 Ba1 3.813749 1_555
Al2 Ba0 3.820212 1_545
Al2 Ba1 3.912561 1_655
Al3 Al4 2.759079 1_555
Al3 Ba1 3.813749 1_555
Al3 Ba0 3.820212 1_546
Al3 Ba1 3.912561 1_655
Al4 Ba0 3.528399 1_556
Al4 Ba0 3.528399 1_555
Al4 Ba1 3.528489 1_555
Ag0 Al0 2.634386 1_545
Ag0 Al1 2.634386 1_544
Ag0 Al3 2.741663 1_554
Ag0 Al2 2.741663 1_555
Ag0 Ag4 2.929052 1_555
Ag0 Ag2 3.033948 1_545
Ag0 Ag2 3.033948 1_544
Ag0 Ba0 3.475986 1_545
Ag0 Ba1 3.561950 1_554
Ag0 Ba1 3.561950 1_555
Ag0 Ba0 4.011174 1_445
Ag1 Al0 2.647928 1_655
Ag1 Al1 2.647928 1_655
Ag1 Al4 2.680485 1_555
Ag1 Al2 2.777240 1_555
Ag1 Al3 2.777240 1_555
Ag1 Ag3 3.033948 1_655
Ag1 Ag3 3.033948 1_656
Ag1 Ba1 3.514791 1_655
Ag1 Ba0 3.530983 1_556
Ag1 Ba0 3.530983 1_555
Ag1 Ba1 4.131578 1_665
Ag2 Al2 2.647928 1_565
Ag2 Al3 2.647928 1_565
Ag2 Al4 2.680485 1_555
Ag2 Al1 2.777240 1_555
Ag2 Al0 2.777240 1_555
Ag2 Ba1 3.514791 1_565
Ag2 Ba0 3.530983 1_556
Ag2 Ba0 3.530983 1_555
Ag2 Ba1 4.131578 1_665
Ag3 Al3 2.634386 1_454
Ag3 Al2 2.634386 1_455
Ag3 Al1 2.741663 1_554
Ag3 Al0 2.741663 1_555
Ag3 Ag4 2.929052 1_555
Ag3 Ba0 3.475986 1_455
Ag3 Ba1 3.561950 1_554
Ag3 Ba1 3.561950 1_555
Ag3 Ba0 4.011174 1_445
Ag4 Al2 2.685967 1_555
Ag4 Al1 2.685967 1_554
Ag4 Al0 2.685967 1_555
Ag4 Al3 2.685967 1_554
Ag4 Al4 3.025037 1_554
Ag4 Al4 3.025037 1_555
Ag4 Ba0 3.453102 1_555
Ag4 Ba1 3.575978 1_554
Ag4 Ba1 3.575978 1_555
