# generated using pymatgen
data_Fe8H10O17
_symmetry_space_group_name_H-M   'P 1'
_cell_length_a   6.15535000
_cell_length_b   10.35028867
_cell_length_c   10.74646567
_cell_angle_alpha   94.03329928
_cell_angle_beta   90.51014421
_cell_angle_gamma   90.60534782
_symmetry_Int_Tables_number   1
_chemical_formula_structural   Fe8H10O17
_chemical_formula_sum   'Fe16 H20 O34'
_cell_volume   682.88785077
_cell_formula_units_Z   2
loop_
 _symmetry_equiv_pos_site_id
 _symmetry_equiv_pos_as_xyz
  1  'x, y, z'
loop_
 _atom_site_type_symbol
 _atom_site_label
 _atom_site_symmetry_multiplicity
 _atom_site_fract_x
 _atom_site_fract_y
 _atom_site_fract_z
 _atom_site_occupancy
  Fe  Fe0  1  0.01081100  0.32399900  0.90995500  1
  Fe  Fe1  1  0.99187200  0.16925400  0.39012100  1
  Fe  Fe2  1  0.25102100  0.83766500  0.42041500  1
  Fe  Fe3  1  0.22877500  0.70127600  0.91378500  1
  Fe  Fe4  1  0.00070000  0.67092000  0.20067200  1
  Fe  Fe5  1  0.00806200  0.85652200  0.71472000  1
  Fe  Fe6  1  0.24468500  0.17541800  0.68215200  1
  Fe  Fe7  1  0.24465000  0.35231000  0.19646800  1
  Fe  Fe8  1  0.49635200  0.32923000  0.90621300  1
  Fe  Fe9  1  0.49013600  0.15424000  0.38686700  1
  Fe  Fe10  1  0.73962000  0.84103800  0.41385700  1
  Fe  Fe11  1  0.75045600  0.84193700  0.02298800  1
  Fe  Fe12  1  0.48257600  0.67840900  0.19386600  1
  Fe  Fe13  1  0.51003100  0.85429300  0.71972900  1
  Fe  Fe14  1  0.75744500  0.16910500  0.67808300  1
  Fe  Fe15  1  0.74251400  0.33835700  0.19563000  1
  H  H0  1  0.98425700  0.39107800  0.66291700  1
  H  H1  1  0.98972500  0.43808600  0.39153100  1
  H  H2  1  0.16105000  0.89944400  0.14025800  1
  H  H3  1  0.97932900  0.66181800  0.48505500  1
  H  H4  1  0.99715900  0.99784400  0.52558700  1
  H  H5  1  0.87789500  0.68024200  0.80147600  1
  H  H6  1  0.25968400  0.49796800  0.01792700  1
  H  H7  1  0.18981300  0.09074700  0.18456300  1
  H  H8  1  0.52575800  0.37099200  0.64033700  1
  H  H9  1  0.49538800  0.01385400  0.57009000  1
  H  H10  1  0.49249300  0.42193600  0.39839500  1
  H  H11  1  0.74564400  0.52626700  0.07579300  1
  H  H12  1  0.50639800  0.64904700  0.47223000  1
  H  H13  1  0.73133100  0.12238400  0.93110400  1
  H  H14  1  0.82081900  0.52500700  0.86466800  1
  H  H15  1  0.71124400  0.09042000  0.17370000  1
  H  H16  1  0.49511500  0.03093500  0.04027400  1
  H  H17  1  0.16471200  0.95218000  0.00181400  1
  H  H18  1  0.51446900  0.56024500  0.79080300  1
  H  H19  1  0.31631600  0.60007700  0.70511600  1
  O  O0  1  0.99454600  0.31516300  0.71073000  1
  O  O1  1  0.00079000  0.04865100  0.67135400  1
  O  O2  1  0.99129400  0.36264800  0.33248900  1
  O  O3  1  0.99344500  0.31156500  0.08721600  1
  O  O4  1  0.23871700  0.80201900  0.23665000  1
  O  O5  1  0.24497000  0.54184800  0.18118400  1
  O  O6  1  0.25938600  0.86874600  0.84357000  1
  O  O7  1  0.25699300  0.81478100  0.59884400  1
  O  O8  1  0.98881700  0.69701900  0.40331600  1
  O  O9  1  0.99656300  0.97293800  0.43116900  1
  O  O10  1  0.01671600  0.65106400  0.76453600  1
  O  O11  1  0.98472100  0.70925600  0.02359400  1
  O  O12  1  0.25478500  0.20895700  0.86679800  1
  O  O13  1  0.25643700  0.47467400  0.92531100  1
  O  O14  1  0.23042500  0.15564800  0.25554300  1
  O  O15  1  0.24651600  0.20242600  0.50118600  1
  O  O16  1  0.50890600  0.31269200  0.70655500  1
  O  O17  1  0.49865900  0.04439200  0.66357100  1
  O  O18  1  0.49404000  0.35461100  0.33105600  1
  O  O19  1  0.49269200  0.31434400  0.08482300  1
  O  O20  1  0.74686100  0.79889500  0.22300200  1
  O  O21  1  0.74065300  0.53671600  0.16922600  1
  O  O22  1  0.75726000  0.85613000  0.83950300  1
  O  O23  1  0.74926000  0.81920400  0.59528600  1
  O  O24  1  0.49811700  0.69563400  0.39692300  1
  O  O25  1  0.49537300  0.96845000  0.42299800  1
  O  O26  1  0.49272400  0.72096400  0.01888500  1
  O  O27  1  0.74628000  0.19482800  0.87373400  1
  O  O28  1  0.75990200  0.45575800  0.91173600  1
  O  O29  1  0.73783200  0.15179900  0.25582800  1
  O  O30  1  0.74329700  0.20185000  0.50119800  1
  O  O31  1  0.65141100  0.02250600  0.05298300  1
  O  O32  1  0.09713100  0.96714400  0.08493700  1
  O  O33  1  0.46042200  0.62712700  0.73827400  1
loop_
_geom_bond_atom_site_label_1
_geom_bond_atom_site_label_2
_geom_bond_distance
_geom_bond_site_symmetry_2
Fe0 O3 1.922125 1_456
Fe0 O12 1.964853 1_555
Fe0 O28 2.070458 1_455
Fe0 O27 2.111818 1_455
Fe0 O0 2.137887 1_455
Fe0 O13 2.157494 1_555
Fe1 O30 1.966365 1_555
Fe1 O15 1.974067 1_655
Fe1 O14 2.069082 1_655
Fe1 O9 2.109799 1_545
Fe1 O29 2.116066 1_555
Fe1 O2 2.136548 1_555
Fe2 O7 1.948590 1_555
Fe2 O4 1.983946 1_555
Fe2 O25 2.011555 1_555
Fe2 O9 2.110380 1_455
Fe2 O24 2.130732 1_555
Fe2 O8 2.159909 1_455
Fe3 O11 1.917435 1_456
Fe3 O6 1.946544 1_555
Fe3 O26 1.970986 1_556
Fe3 O10 2.092252 1_555
Fe4 O11 1.972839 1_455
Fe4 O4 2.002812 1_555
Fe4 O5 2.024348 1_555
Fe4 O20 2.063757 1_455
Fe4 O21 2.117355 1_455
Fe4 O8 2.177436 1_455
Fe5 O7 2.014303 1_555
Fe5 O23 2.053071 1_455
Fe5 O22 2.054013 1_455
Fe5 O6 2.063879 1_555
Fe5 O1 2.074984 1_565
Fe5 O10 2.230175 1_555
Fe6 O1 1.980566 1_555
Fe6 O15 1.984213 1_555
Fe6 O12 1.990536 1_555
Fe6 O17 2.082114 1_555
Fe6 O0 2.133082 1_455
Fe6 O16 2.150295 1_555
Fe7 O3 1.957407 1_455
Fe7 O19 1.975844 1_555
Fe7 O5 1.980098 1_555
Fe7 O18 2.098525 1_555
Fe7 O2 2.145294 1_455
Fe7 O14 2.175546 1_555
Fe8 O19 1.936683 1_556
Fe8 O12 1.953342 1_555
Fe8 O28 2.071885 1_555
Fe8 O27 2.100028 1_555
Fe8 O13 2.120859 1_555
Fe8 O16 2.142549 1_555
Fe9 O25 1.988913 1_545
Fe9 O15 1.992268 1_555
Fe9 O30 2.011271 1_555
Fe9 O29 2.083818 1_555
Fe9 O14 2.123832 1_555
Fe9 O18 2.198985 1_555
Fe10 O23 1.978941 1_555
Fe10 O25 2.008816 1_555
Fe10 O20 2.067633 1_555
Fe10 O9 2.076819 1_555
Fe10 O24 2.101721 1_555
Fe10 O8 2.148330 1_555
Fe11 O31 1.977715 1_565
Fe11 O22 1.988335 1_554
Fe11 O11 2.002051 1_555
Fe11 O26 2.008853 1_555
Fe11 O20 2.225850 1_555
Fe11 O32 2.543834 1_655
Fe12 O26 1.962634 1_555
Fe12 O4 2.017793 1_555
Fe12 O5 2.020178 1_555
Fe12 O20 2.047612 1_555
Fe12 O24 2.178047 1_555
Fe12 O21 2.178650 1_555
Fe13 O22 1.983430 1_555
Fe13 O23 2.016617 1_555
Fe13 O7 2.038767 1_555
Fe13 O6 2.046274 1_555
Fe13 O17 2.099923 1_565
Fe13 O33 2.390208 1_555
Fe14 O30 1.955539 1_555
Fe14 O1 1.957525 1_655
Fe14 O17 2.037578 1_555
Fe14 O0 2.099541 1_555
Fe14 O27 2.102514 1_555
Fe14 O16 2.152939 1_555
Fe15 O19 1.939606 1_555
Fe15 O3 1.953360 1_555
Fe15 O29 2.079109 1_555
Fe15 O21 2.092401 1_555
Fe15 O2 2.114480 1_555
Fe15 O18 2.120420 1_555
H0 O0 0.970917 1_555
H1 O2 0.971035 1_555
H2 O32 1.029319 1_555
H2 O4 1.570577 1_555
H3 O8 0.976338 1_555
H4 O9 1.029135 1_555
H4 O1 1.616831 1_665
H5 O10 0.986701 1_655
H6 O13 1.007436 1_554
H7 O14 1.008239 1_555
H8 O16 0.970393 1_555
H9 O17 1.031673 1_555
H9 O25 1.617102 1_545
H10 O18 0.968851 1_555
H11 O21 1.003070 1_555
H12 O24 0.971969 1_555
H13 O27 1.007659 1_555
H14 O28 0.979220 1_555
H15 O29 1.060986 1_555
H15 O31 1.473238 1_555
H16 O31 0.976180 1_555
H17 O32 0.991713 1_555
H18 O33 0.982363 1_555
H19 O33 0.983493 1_555
