# generated using pymatgen
data_Li4V(TeO4)3
_symmetry_space_group_name_H-M   'P 1'
_cell_length_a   5.05227705
_cell_length_b   10.43527170
_cell_length_c   18.29333382
_cell_angle_alpha   74.06689871
_cell_angle_beta   88.99986678
_cell_angle_gamma   86.37759388
_symmetry_Int_Tables_number   1
_chemical_formula_structural   Li4V(TeO4)3
_chemical_formula_sum   'Li16 V4 Te12 O48'
_cell_volume   925.55440009
_cell_formula_units_Z   4
loop_
 _symmetry_equiv_pos_site_id
 _symmetry_equiv_pos_as_xyz
  1  'x, y, z'
loop_
 _atom_site_type_symbol
 _atom_site_label
 _atom_site_symmetry_multiplicity
 _atom_site_fract_x
 _atom_site_fract_y
 _atom_site_fract_z
 _atom_site_occupancy
  Li  Li0  1  0.99609900  0.57654900  0.84805500  1
  Li  Li1  1  0.99595600  0.32691700  0.34797400  1
  Li  Li2  1  0.99608300  0.07658700  0.84802400  1
  Li  Li3  1  0.99603200  0.82692900  0.34795200  1
  Li  Li4  1  0.49638500  0.53307100  0.93462500  1
  Li  Li5  1  0.49740200  0.28311100  0.43464100  1
  Li  Li6  1  0.49641000  0.03316300  0.93459300  1
  Li  Li7  1  0.49751800  0.78318900  0.43463600  1
  Li  Li8  1  0.01262200  0.43882500  0.64953400  1
  Li  Li9  1  0.01087400  0.18772400  0.14937400  1
  Li  Li10  1  0.01263700  0.93883800  0.64951700  1
  Li  Li11  1  0.01111700  0.68788300  0.14938000  1
  Li  Li12  1  0.49971600  0.46002200  0.58642200  1
  Li  Li13  1  0.49870100  0.20977200  0.08667800  1
  Li  Li14  1  0.49969900  0.96008500  0.58642500  1
  Li  Li15  1  0.49885100  0.70972600  0.08662700  1
  V  V0  1  0.99800400  0.47998500  0.05198700  1
  V  V1  1  0.99926900  0.23043500  0.55207200  1
  V  V2  1  0.99912400  0.73034400  0.55214200  1
  V  V3  1  0.99824800  0.97995400  0.05196200  1
  Te  Te0  1  0.49646600  0.64704000  0.69976800  1
  Te  Te1  1  0.49576100  0.39701800  0.19969700  1
  Te  Te2  1  0.49646900  0.14706300  0.69971100  1
  Te  Te3  1  0.49593200  0.89698600  0.19972400  1
  Te  Te4  1  0.99514400  0.27031800  0.96197800  1
  Te  Te5  1  0.99540000  0.02085800  0.46189500  1
  Te  Te6  1  0.99523800  0.77036900  0.96197200  1
  Te  Te7  1  0.99545100  0.52092200  0.46190800  1
  Te  Te8  1  0.50149200  0.34869400  0.80073600  1
  Te  Te9  1  0.50105300  0.09876600  0.30073600  1
  Te  Te10  1  0.50145400  0.84870800  0.80077000  1
  Te  Te11  1  0.50115500  0.59874700  0.30073000  1
  O  O0  1  0.26416000  0.61035600  0.62586700  1
  O  O1  1  0.26310700  0.36029300  0.12588200  1
  O  O2  1  0.26407900  0.11038000  0.62583600  1
  O  O3  1  0.26331300  0.86026800  0.12589400  1
  O  O4  1  0.73883400  0.25148500  0.62351400  1
  O  O5  1  0.73847200  0.00147900  0.12351300  1
  O  O6  1  0.73883200  0.75148100  0.62361200  1
  O  O7  1  0.73822800  0.50150200  0.12347100  1
  O  O8  1  0.28543100  0.53466600  0.78146500  1
  O  O9  1  0.28487900  0.28456600  0.28149800  1
  O  O10  1  0.28537300  0.03466800  0.78146400  1
  O  O11  1  0.28499400  0.78452000  0.28149700  1
  O  O12  1  0.71839000  0.18372700  0.77788600  1
  O  O13  1  0.71791700  0.93365800  0.27787900  1
  O  O14  1  0.71841000  0.68369500  0.77792800  1
  O  O15  1  0.71783100  0.43360300  0.27785800  1
  O  O16  1  0.20432700  0.41671500  0.97336300  1
  O  O17  1  0.20470800  0.16720600  0.47327100  1
  O  O18  1  0.20452200  0.91669600  0.97338200  1
  O  O19  1  0.20476700  0.66715900  0.47335900  1
  O  O20  1  0.79219200  0.11217400  0.96985200  1
  O  O21  1  0.79271600  0.86260300  0.46997100  1
  O  O22  1  0.79211400  0.61226700  0.96981900  1
  O  O23  1  0.79276300  0.36273300  0.46987300  1
  O  O24  1  0.70281000  0.47683000  0.71022700  1
  O  O25  1  0.70206200  0.22685300  0.21006400  1
  O  O26  1  0.70264800  0.97681400  0.71021700  1
  O  O27  1  0.70224300  0.72685600  0.21007900  1
  O  O28  1  0.29846300  0.30982200  0.70876800  1
  O  O29  1  0.29797600  0.05970700  0.20889300  1
  O  O30  1  0.29852000  0.80977200  0.70879400  1
  O  O31  1  0.29795000  0.55974100  0.20891400  1
  O  O32  1  0.80728800  0.56409900  0.54742800  1
  O  O33  1  0.80615900  0.31369000  0.04731600  1
  O  O34  1  0.80719800  0.06418800  0.54736200  1
  O  O35  1  0.80635500  0.81369500  0.04734700  1
  O  O36  1  0.20162900  0.38346100  0.54414900  1
  O  O37  1  0.20051200  0.13295400  0.04436900  1
  O  O38  1  0.20156600  0.88339700  0.54421000  1
  O  O39  1  0.20048600  0.63293400  0.04434500  1
  O  O40  1  0.77801700  0.39999700  0.88787300  1
  O  O41  1  0.77785000  0.15058800  0.38794600  1
  O  O42  1  0.77804700  0.90005400  0.88787900  1
  O  O43  1  0.77781900  0.65071100  0.38797000  1
  O  O44  1  0.21564100  0.21620800  0.88709500  1
  O  O45  1  0.21548100  0.96683800  0.38684100  1
  O  O46  1  0.21563300  0.71624700  0.88708300  1
  O  O47  1  0.21552300  0.46696400  0.38678400  1
loop_
_geom_bond_atom_site_label_1
_geom_bond_atom_site_label_2
_geom_bond_distance
_geom_bond_site_symmetry_2
Li0 O14 1.985264 1_555
Li0 O8 1.990264 1_655
Li0 O40 2.151878 1_555
Li0 O46 2.160662 1_655
Li0 O22 2.547510 1_555
Li1 O15 1.985035 1_555
Li1 O9 1.989094 1_655
Li1 O41 2.150364 1_555
Li1 O47 2.161573 1_655
Li1 O23 2.548604 1_555
Li2 O12 1.985358 1_555
Li2 O10 1.989879 1_655
Li2 O42 2.151654 1_545
Li2 O44 2.160501 1_655
Li2 O20 2.547899 1_555
Li3 O13 1.984756 1_555
Li3 O11 1.989189 1_655
Li3 O43 2.149828 1_555
Li3 O45 2.160845 1_655
Li3 O21 2.550298 1_555
Li4 O22 1.952324 1_555
Li4 O16 1.967544 1_555
Li4 O40 2.245959 1_555
Li4 O46 2.282516 1_555
Li5 O23 1.953665 1_555
Li5 O17 1.967054 1_555
Li5 O41 2.237955 1_555
Li5 O47 2.291626 1_555
Li6 O20 1.951999 1_555
Li6 O18 1.967694 1_545
Li6 O42 2.245848 1_545
Li6 O44 2.281487 1_555
Li7 O21 1.952653 1_555
Li7 O19 1.968317 1_555
Li7 O43 2.236912 1_555
Li7 O45 2.290425 1_555
Li8 O24 1.985616 1_455
Li8 O28 2.019908 1_555
Li8 O32 2.197662 1_455
Li8 O0 2.202098 1_555
Li8 O36 2.332327 1_555
Li8 O4 2.614832 1_455
Li9 O25 1.985315 1_455
Li9 O29 2.021337 1_555
Li9 O33 2.198057 1_455
Li9 O1 2.213035 1_555
Li9 O37 2.324600 1_555
Li9 O5 2.600125 1_455
Li10 O26 1.986286 1_455
Li10 O30 2.020652 1_555
Li10 O34 2.198786 1_465
Li10 O2 2.201877 1_565
Li10 O38 2.331272 1_555
Li10 O6 2.614196 1_455
Li11 O27 1.985150 1_455
Li11 O31 2.021118 1_555
Li11 O35 2.197308 1_455
Li11 O3 2.211393 1_555
Li11 O39 2.325402 1_555
Li11 O7 2.603079 1_455
Li12 O32 1.962736 1_555
Li12 O36 2.009055 1_555
Li12 O0 2.180291 1_555
Li12 O4 2.353976 1_555
Li12 O24 2.556351 1_555
Li12 O28 2.587595 1_555
Li13 O33 1.962773 1_555
Li13 O37 2.011270 1_555
Li13 O1 2.179616 1_555
Li13 O5 2.353226 1_555
Li13 O25 2.550896 1_555
Li13 O29 2.584274 1_555
Li14 O34 1.962820 1_565
Li14 O38 2.009429 1_555
Li14 O2 2.179812 1_565
Li14 O6 2.354655 1_555
Li14 O26 2.555547 1_555
Li14 O30 2.588194 1_555
Li15 O35 1.962929 1_555
Li15 O39 2.011565 1_555
Li15 O3 2.180243 1_555
Li15 O7 2.351730 1_555
Li15 O27 2.552235 1_555
Li15 O31 2.585227 1_555
O0 Te0 1.935967 1_555
O0 V2 2.025774 1_455
O1 Te1 1.936060 1_555
O1 V0 2.026357 1_455
O2 Te2 1.935868 1_555
O2 V1 2.025688 1_455
O3 Te3 1.936127 1_555
O3 V3 2.026556 1_455
O4 V1 1.883782 1_555
O4 Te2 1.976063 1_555
O5 V3 1.884260 1_545
O5 Te3 1.977064 1_545
O6 V2 1.883897 1_555
O6 Te0 1.975738 1_555
O7 V0 1.883362 1_555
O7 Te1 1.976939 1_555
O8 Te0 1.971203 1_555
O8 Te8 2.110022 1_555
O9 Te1 1.972223 1_555
O9 Te9 2.108822 1_555
O10 Te2 1.972069 1_555
O10 Te10 2.109914 1_545
O11 Te3 1.972144 1_555
O11 Te11 2.108562 1_555
O12 Te2 1.964484 1_555
O12 Te8 2.116542 1_555
O13 Te3 1.964423 1_555
O13 Te9 2.117744 1_565
O14 Te0 1.964296 1_555
O14 Te10 2.117019 1_555
O15 Te1 1.964375 1_555
O15 Te11 2.117732 1_555
O16 Te4 1.969908 1_455
O16 V0 1.993307 1_456
O17 Te5 1.969797 1_455
O17 V1 1.993517 1_455
O18 Te6 1.969746 1_455
O18 V3 1.992477 1_456
O19 Te7 1.969300 1_455
O19 V2 1.993527 1_455
O20 Te4 1.968171 1_555
O20 V3 1.994727 1_546
O21 Te5 1.967772 1_565
O21 V2 1.996424 1_555
O22 Te6 1.968378 1_555
O22 V0 1.995215 1_556
O23 Te7 1.967532 1_555
O23 V1 1.997145 1_555
O24 Te0 1.965876 1_555
O24 Te8 2.112201 1_555
O25 Te1 1.965616 1_555
O25 Te9 2.112976 1_555
O26 Te2 1.965703 1_565
O26 Te10 2.112227 1_555
O27 Te3 1.965363 1_555
O27 Te11 2.113049 1_555
O28 Te2 1.961353 1_555
O28 Te8 2.129485 1_555
O29 Te3 1.961541 1_545
O29 Te9 2.128518 1_555
O30 Te0 1.960796 1_555
O30 Te10 2.129658 1_555
O31 Te1 1.961503 1_555
O31 Te11 2.128184 1_555
O32 Te7 1.958365 1_555
O32 V2 2.062496 1_555
O33 Te4 1.958281 1_554
O33 V0 2.062760 1_555
O34 Te5 1.958297 1_555
O34 V1 2.063116 1_555
O35 Te6 1.958420 1_554
O35 V3 2.062268 1_555
O36 V1 1.921017 1_455
O36 Te7 2.021673 1_455
O37 V3 1.921493 1_445
O37 Te4 2.020755 1_454
O38 V2 1.921470 1_455
O38 Te5 2.022400 1_465
O39 V0 1.921538 1_455
O39 Te6 2.020628 1_454
O40 Te4 1.931191 1_555
O40 Te8 2.328122 1_555
O41 Te5 1.931108 1_555
O41 Te9 2.332468 1_555
O42 Te6 1.931280 1_555
O42 Te10 2.328153 1_555
O43 Te7 1.931518 1_555
O43 Te11 2.333142 1_555
O44 Te4 1.930876 1_455
O44 Te8 2.338023 1_555
O45 Te5 1.931748 1_465
O45 Te9 2.332193 1_565
O46 Te6 1.930737 1_455
O46 Te10 2.337387 1_555
O47 Te7 1.932431 1_455
O47 Te11 2.331248 1_555
