# generated using pymatgen
data_Tb2B6Ru
_symmetry_space_group_name_H-M   'P 1'
_cell_length_a   3.67866198
_cell_length_b   9.16862799
_cell_length_c   11.52884366
_cell_angle_alpha   90.00000000
_cell_angle_beta   90.00000000
_cell_angle_gamma   90.00000000
_symmetry_Int_Tables_number   1
_chemical_formula_structural   Tb2B6Ru
_chemical_formula_sum   'Tb8 B24 Ru4'
_cell_volume   388.84810388
_cell_formula_units_Z   4
loop_
 _symmetry_equiv_pos_site_id
 _symmetry_equiv_pos_as_xyz
  1  'x, y, z'
loop_
 _atom_site_type_symbol
 _atom_site_label
 _atom_site_symmetry_multiplicity
 _atom_site_fract_x
 _atom_site_fract_y
 _atom_site_fract_z
 _atom_site_occupancy
  Tb  Tb0  1  -0.00000000  0.32321632  0.41401365  1
  Tb  Tb1  1  0.00000000  0.67678368  0.58598635  1
  Tb  Tb2  1  -0.00000000  0.82321632  0.08598635  1
  Tb  Tb3  1  -0.00000000  0.17678368  0.91401365  1
  Tb  Tb4  1  0.00000000  0.94390351  0.37262554  1
  Tb  Tb5  1  -0.00000000  0.05609649  0.62737446  1
  Tb  Tb6  1  -0.00000000  0.44390351  0.12737446  1
  Tb  Tb7  1  -0.00000000  0.55609649  0.87262554  1
  B  B0  1  0.50000000  0.55412909  0.43241865  1
  B  B1  1  0.50000000  0.44587091  0.56758135  1
  B  B2  1  0.50000000  0.05412909  0.06758135  1
  B  B3  1  0.50000000  0.94587091  0.93241865  1
  B  B4  1  0.50000000  0.74701087  0.41974512  1
  B  B5  1  0.50000000  0.25298913  0.58025488  1
  B  B6  1  0.50000000  0.24701087  0.08025488  1
  B  B7  1  0.50000000  0.75298913  0.91974512  1
  B  B8  1  0.50000000  0.79008488  0.26696211  1
  B  B9  1  0.50000000  0.20991512  0.73303789  1
  B  B10  1  0.50000000  0.29008488  0.23303789  1
  B  B11  1  0.50000000  0.70991512  0.76696211  1
  B  B12  1  0.50000000  0.63245988  0.18588125  1
  B  B13  1  0.50000000  0.36754012  0.81411875  1
  B  B14  1  0.50000000  0.13245988  0.31411875  1
  B  B15  1  0.50000000  0.86754012  0.68588125  1
  B  B16  1  0.50000000  0.98475055  0.21279353  1
  B  B17  1  0.50000000  0.01524945  0.78720647  1
  B  B18  1  0.50000000  0.48475055  0.28720647  1
  B  B19  1  0.50000000  0.51524945  0.71279353  1
  B  B20  1  0.50000000  0.61202853  0.03099446  1
  B  B21  1  0.50000000  0.38797147  0.96900554  1
  B  B22  1  0.50000000  0.11202853  0.46900554  1
  B  B23  1  0.50000000  0.88797147  0.53099446  1
  Ru  Ru0  1  -0.00000000  0.63783604  0.32139782  1
  Ru  Ru1  1  0.00000000  0.36216396  0.67860218  1
  Ru  Ru2  1  0.00000000  0.13783604  0.17860218  1
  Ru  Ru3  1  0.00000000  0.86216396  0.82139782  1
loop_
_geom_bond_atom_site_label_1
_geom_bond_atom_site_label_2
_geom_bond_distance
_geom_bond_site_symmetry_2
B0 B4 1.774487 1_555
B0 B18 1.790904 1_555
B0 B1 1.847544 1_555
B0 Ru0 2.368631 1_555
B0 Ru0 2.368631 1_655
B0 Tb1 2.789682 1_555
B0 Tb1 2.789682 1_655
B0 Tb0 2.812561 1_655
B0 Tb0 2.812561 1_555
B1 B5 1.774487 1_555
B1 B19 1.790904 1_555
B1 Ru1 2.368631 1_555
B1 Ru1 2.368631 1_655
B1 Tb0 2.789682 1_555
B1 Tb0 2.789682 1_655
B1 Tb1 2.812561 1_555
B1 Tb1 2.812561 1_655
B2 B6 1.774487 1_555
B2 B3 1.847544 1_544
B2 Ru2 2.368631 1_555
B2 Ru2 2.368631 1_655
B2 Tb3 2.789682 1_654
B2 Tb3 2.789682 1_554
B2 Tb2 2.812561 1_545
B2 Tb2 2.812561 1_645
B3 B7 1.774487 1_555
B3 Ru3 2.368631 1_555
B3 Ru3 2.368631 1_655
B3 Tb2 2.789682 1_656
B3 Tb2 2.789682 1_556
B3 Tb3 2.812561 1_665
B3 Tb3 2.812561 1_565
B4 B8 1.805143 1_555
B4 Ru0 2.381319 1_555
B4 Ru0 2.381319 1_655
B4 Tb4 2.633841 1_655
B4 Tb4 2.633841 1_555
B4 Tb1 2.733307 1_555
B4 Tb1 2.733307 1_655
B5 B9 1.805143 1_555
B5 Ru1 2.381319 1_555
B5 Ru1 2.381319 1_655
B5 Tb5 2.633841 1_555
B5 Tb5 2.633841 1_655
B5 Tb0 2.733307 1_555
B5 Tb0 2.733307 1_655
B6 Ru2 2.381319 1_655
B6 Ru2 2.381319 1_555
B6 Tb6 2.633841 1_555
B6 Tb6 2.633841 1_655
B6 Tb3 2.733307 1_654
B6 Tb3 2.733307 1_554
B7 Ru3 2.381319 1_555
B7 Ru3 2.381319 1_655
B7 Tb7 2.633841 1_655
B7 Tb7 2.633841 1_555
B7 Tb2 2.733307 1_656
B7 Tb2 2.733307 1_556
B8 Ru0 2.392816 1_555
B8 Ru0 2.392816 1_655
B8 Tb4 2.618407 1_555
B8 Tb4 2.618407 1_655
B8 Tb2 2.797973 1_555
B8 Tb2 2.797973 1_655
B9 Ru1 2.392816 1_555
B9 Ru1 2.392816 1_655
B9 Tb5 2.618407 1_555
B9 Tb5 2.618407 1_655
B9 Tb3 2.797973 1_555
B9 Tb3 2.797973 1_655
B10 B14 1.721165 1_555
B10 B6 1.805143 1_555
B10 B18 1.890919 1_555
B10 Ru2 2.392816 1_655
B10 Ru2 2.392816 1_555
B10 Tb6 2.618407 1_555
B10 Tb6 2.618407 1_655
B10 Tb0 2.797973 1_555
B10 Tb0 2.797973 1_655
B11 B15 1.721165 1_555
B11 B7 1.805143 1_555
B11 B19 1.890919 1_555
B11 Ru3 2.392816 1_655
B11 Ru3 2.392816 1_555
B11 Tb7 2.618407 1_655
B11 Tb7 2.618407 1_555
B11 Tb1 2.797973 1_655
B11 Tb1 2.797973 1_555
B12 B8 1.721165 1_555
B12 B18 1.788494 1_555
B12 B20 1.795465 1_555
B12 Ru0 2.413815 1_655
B12 Ru0 2.413815 1_555
B12 Tb6 2.612828 1_555
B12 Tb6 2.612828 1_655
B12 Tb2 2.787185 1_555
B12 Tb2 2.787185 1_655
B13 B9 1.721165 1_555
B13 B19 1.788494 1_555
B13 B21 1.795465 1_555
B13 Ru1 2.413815 1_555
B13 Ru1 2.413815 1_655
B13 Tb7 2.612828 1_555
B13 Tb7 2.612828 1_655
B13 Tb3 2.787185 1_655
B13 Tb3 2.787185 1_555
B14 B16 1.788494 1_545
B14 B22 1.795465 1_555
B14 Ru2 2.413815 1_555
B14 Ru2 2.413815 1_655
B14 Tb4 2.612828 1_645
B14 Tb4 2.612828 1_545
B14 Tb0 2.787185 1_555
B14 Tb0 2.787185 1_655
B15 B17 1.788494 1_565
B15 B23 1.795465 1_555
B15 Ru3 2.413815 1_555
B15 Ru3 2.413815 1_655
B15 Tb5 2.612828 1_665
B15 Tb5 2.612828 1_565
B15 Tb1 2.787185 1_555
B15 Tb1 2.787185 1_655
B16 B2 1.790904 1_565
B16 B8 1.890919 1_555
B16 Ru2 2.347034 1_565
B16 Ru2 2.347034 1_665
B16 Tb4 2.630373 1_555
B16 Tb4 2.630373 1_655
B16 Tb2 2.777392 1_655
B16 Tb2 2.777392 1_555
B17 B3 1.790904 1_545
B17 B9 1.890919 1_555
B17 Ru3 2.347034 1_545
B17 Ru3 2.347034 1_645
B17 Tb5 2.630373 1_655
B17 Tb5 2.630373 1_555
B17 Tb3 2.777392 1_555
B17 Tb3 2.777392 1_655
B18 Ru0 2.347034 1_655
B18 Ru0 2.347034 1_555
B18 Tb6 2.630373 1_655
B18 Tb6 2.630373 1_555
B18 Tb0 2.777392 1_555
B18 Tb0 2.777392 1_655
B19 Ru1 2.347034 1_555
B19 Ru1 2.347034 1_655
B19 Tb7 2.630373 1_655
B19 Tb7 2.630373 1_555
B19 Tb1 2.777392 1_555
B19 Tb1 2.777392 1_655
B20 B7 1.820807 1_554
B20 B21 2.175057 1_554
B20 Tb7 2.641914 1_654
B20 Tb7 2.641914 1_554
B20 Tb6 2.644606 1_655
B20 Tb6 2.644606 1_555
B20 Tb2 2.744877 1_555
B20 Tb2 2.744877 1_655
B21 B6 1.820807 1_556
B21 Tb6 2.641914 1_556
B21 Tb6 2.641914 1_656
B21 Tb7 2.644606 1_655
B21 Tb7 2.644606 1_555
B21 Tb3 2.744877 1_655
B21 Tb3 2.744877 1_555
B22 B5 1.820807 1_555
B22 B23 2.175057 1_545
B22 Tb5 2.641914 1_555
B22 Tb5 2.641914 1_655
B22 Tb4 2.644606 1_645
B22 Tb4 2.644606 1_545
B22 Tb0 2.744877 1_655
B22 Tb0 2.744877 1_555
B23 B4 1.820807 1_555
B23 Tb4 2.641914 1_655
B23 Tb4 2.641914 1_555
B23 Tb5 2.644606 1_565
B23 Tb5 2.644606 1_665
B23 Tb1 2.744877 1_555
B23 Tb1 2.744877 1_655
Ru0 Tb6 2.857479 1_555
Ru0 Tb4 2.867694 1_555
Ru0 Tb1 3.071230 1_555
Ru0 Tb0 3.075905 1_555
Ru0 Tb2 3.202317 1_555
Ru1 Tb7 2.857479 1_555
Ru1 Tb5 2.867694 1_555
Ru1 Tb0 3.071230 1_555
Ru1 Tb1 3.075905 1_555
Ru1 Tb3 3.202317 1_555
Ru2 Tb4 2.857479 1_545
Ru2 Tb6 2.867694 1_555
Ru2 Tb3 3.071230 1_554
Ru2 Tb2 3.075905 1_545
Ru2 Tb0 3.202317 1_555
Ru3 Tb5 2.857479 1_565
Ru3 Tb7 2.867694 1_555
Ru3 Tb2 3.071230 1_556
Ru3 Tb3 3.075905 1_565
Ru3 Tb1 3.202317 1_555
