# generated using pymatgen
data_Tl2PO3
_symmetry_space_group_name_H-M   'P 1'
_cell_length_a   5.51055800
_cell_length_b   12.70165400
_cell_length_c   13.32945400
_cell_angle_alpha   90.00000000
_cell_angle_beta   90.00000000
_cell_angle_gamma   90.00000000
_symmetry_Int_Tables_number   1
_chemical_formula_structural   Tl2PO3
_chemical_formula_sum   'Tl16 P8 O24'
_cell_volume   932.97115388
_cell_formula_units_Z   8
loop_
 _symmetry_equiv_pos_site_id
 _symmetry_equiv_pos_as_xyz
  1  'x, y, z'
loop_
 _atom_site_type_symbol
 _atom_site_label
 _atom_site_symmetry_multiplicity
 _atom_site_fract_x
 _atom_site_fract_y
 _atom_site_fract_z
 _atom_site_occupancy
  Tl  Tl0  1  0.06134600  0.35559800  0.28483800  1
  Tl  Tl1  1  0.43865400  0.85559800  0.71516200  1
  Tl  Tl2  1  0.56134600  0.64440200  0.21516200  1
  Tl  Tl3  1  0.93865400  0.14440200  0.78483800  1
  Tl  Tl4  1  0.93865400  0.64440200  0.71516200  1
  Tl  Tl5  1  0.56134600  0.14440200  0.28483800  1
  Tl  Tl6  1  0.43865400  0.35559800  0.78483800  1
  Tl  Tl7  1  0.06134600  0.85559800  0.21516200  1
  Tl  Tl8  1  0.49726500  0.64846700  0.92029200  1
  Tl  Tl9  1  0.00273500  0.14846700  0.07970800  1
  Tl  Tl10  1  0.99726500  0.35153300  0.57970800  1
  Tl  Tl11  1  0.50273500  0.85153300  0.42029200  1
  Tl  Tl12  1  0.50273500  0.35153300  0.07970800  1
  Tl  Tl13  1  0.99726500  0.85153300  0.92029200  1
  Tl  Tl14  1  0.00273500  0.64846700  0.42029200  1
  Tl  Tl15  1  0.49726500  0.14846700  0.57970800  1
  P  P0  1  0.02351500  0.55533700  0.06404000  1
  P  P1  1  0.47648500  0.05533700  0.93596000  1
  P  P2  1  0.52351500  0.44466300  0.43596000  1
  P  P3  1  0.97648500  0.94466300  0.56404000  1
  P  P4  1  0.97648500  0.44466300  0.93596000  1
  P  P5  1  0.52351500  0.94466300  0.06404000  1
  P  P6  1  0.47648500  0.55533700  0.56404000  1
  P  P7  1  0.02351500  0.05533700  0.43596000  1
  O  O0  1  0.89565200  0.50780500  0.15729600  1
  O  O1  1  0.60434800  0.00780500  0.84270400  1
  O  O2  1  0.39565200  0.49219500  0.34270400  1
  O  O3  1  0.10434800  0.99219500  0.65729600  1
  O  O4  1  0.10434800  0.49219500  0.84270400  1
  O  O5  1  0.39565200  0.99219500  0.15729600  1
  O  O6  1  0.60434800  0.50780500  0.65729600  1
  O  O7  1  0.89565200  0.00780500  0.34270400  1
  O  O8  1  0.91090700  0.66149200  0.03317300  1
  O  O9  1  0.58909300  0.16149200  0.96682700  1
  O  O10  1  0.41090700  0.33850800  0.46682700  1
  O  O11  1  0.08909300  0.83850800  0.53317300  1
  O  O12  1  0.08909300  0.33850800  0.96682700  1
  O  O13  1  0.41090700  0.83850800  0.03317300  1
  O  O14  1  0.58909300  0.66149200  0.53317300  1
  O  O15  1  0.91090700  0.16149200  0.46682700  1
  O  O16  1  0.30501700  0.56040500  0.07821600  1
  O  O17  1  0.19498300  0.06040500  0.92178400  1
  O  O18  1  0.80501700  0.43959500  0.42178400  1
  O  O19  1  0.69498300  0.93959500  0.57821600  1
  O  O20  1  0.69498300  0.43959500  0.92178400  1
  O  O21  1  0.80501700  0.93959500  0.07821600  1
  O  O22  1  0.19498300  0.56040500  0.57821600  1
  O  O23  1  0.30501700  0.06040500  0.42178400  1
loop_
_geom_bond_atom_site_label_1
_geom_bond_atom_site_label_2
_geom_bond_distance
_geom_bond_site_symmetry_2
O0 P0 1.551170 1_655
O0 Tl2 2.645550 1_555
O0 Tl0 2.731572 1_655
O1 P1 1.551170 1_555
O1 Tl3 2.645550 1_555
O1 Tl1 2.731572 1_545
O2 P2 1.551170 1_555
O2 Tl0 2.645550 1_555
O2 Tl2 2.731572 1_555
O3 P3 1.551170 1_455
O3 Tl1 2.645550 1_555
O3 Tl3 2.731572 1_465
O4 P4 1.551170 1_455
O4 Tl6 2.645550 1_555
O4 Tl4 2.731572 1_455
O5 P5 1.551170 1_555
O5 Tl7 2.645550 1_555
O5 Tl5 2.731572 1_565
O6 P6 1.551170 1_555
O6 Tl4 2.645550 1_555
O6 Tl6 2.731572 1_555
O7 P7 1.551170 1_655
O7 Tl5 2.645550 1_555
O7 Tl7 2.731572 1_645
O8 P0 1.540252 1_655
O8 Tl8 2.736234 1_554
O9 P1 1.540252 1_555
O9 Tl9 2.736234 1_656
O10 P2 1.540252 1_555
O10 Tl10 2.736234 1_455
O11 P3 1.540252 1_455
O11 Tl11 2.736234 1_555
O12 P4 1.540252 1_455
O12 Tl12 2.736234 1_556
O13 P5 1.540252 1_555
O13 Tl13 2.736234 1_454
O14 P6 1.540252 1_555
O14 Tl14 2.736234 1_655
O15 P7 1.540252 1_655
O15 Tl15 2.736234 1_555
O16 P0 1.564025 1_555
O16 Tl2 2.542758 1_555
O16 Tl8 2.608568 1_554
O17 P1 1.564025 1_555
O17 Tl3 2.542758 1_455
O17 Tl9 2.608568 1_556
O18 P2 1.564025 1_555
O18 Tl0 2.542758 1_655
O18 Tl10 2.608568 1_555
O19 P3 1.564025 1_555
O19 Tl1 2.542758 1_555
O19 Tl11 2.608568 1_555
O20 P4 1.564025 1_555
O20 Tl6 2.542758 1_555
O20 Tl12 2.608568 1_556
O21 P5 1.564025 1_555
O21 Tl7 2.542758 1_655
O21 Tl13 2.608568 1_554
O22 P6 1.564025 1_555
O22 Tl4 2.542758 1_455
O22 Tl14 2.608568 1_555
O23 P7 1.564025 1_555
O23 Tl5 2.542758 1_555
O23 Tl15 2.608568 1_555
