# generated using pymatgen
data_Na2Zr(SiO3)6
_symmetry_space_group_name_H-M   'P 1'
_cell_length_a   14.59493400
_cell_length_b   7.44053900
_cell_length_c   7.29098900
_cell_angle_alpha   90.00000000
_cell_angle_beta   90.00000000
_cell_angle_gamma   90.00000000
_symmetry_Int_Tables_number   1
_chemical_formula_structural   Na2Zr(SiO3)6
_chemical_formula_sum   'Na4 Zr2 Si12 O36'
_cell_volume   791.75893998
_cell_formula_units_Z   2
loop_
 _symmetry_equiv_pos_site_id
 _symmetry_equiv_pos_as_xyz
  1  'x, y, z'
loop_
 _atom_site_type_symbol
 _atom_site_label
 _atom_site_symmetry_multiplicity
 _atom_site_fract_x
 _atom_site_fract_y
 _atom_site_fract_z
 _atom_site_occupancy
  Na  Na0  1  0.25000000  0.03433400  0.98109300  1
  Na  Na1  1  0.75000000  0.96566600  0.98109300  1
  Na  Na2  1  0.50000000  0.00000000  0.50120900  1
  Na  Na3  1  0.00000000  0.00000000  0.50120900  1
  Zr  Zr0  1  0.50000000  0.00000000  0.00521000  1
  Zr  Zr1  1  0.00000000  0.00000000  0.00521000  1
  Si  Si0  1  0.35839000  0.71559000  0.28539000  1
  Si  Si1  1  0.64161000  0.28441000  0.28539000  1
  Si  Si2  1  0.14161000  0.71559000  0.28539000  1
  Si  Si3  1  0.85839000  0.28441000  0.28539000  1
  Si  Si4  1  0.35784400  0.72001200  0.72420900  1
  Si  Si5  1  0.64215600  0.27998800  0.72420900  1
  Si  Si6  1  0.14215600  0.72001200  0.72420900  1
  Si  Si7  1  0.85784400  0.27998800  0.72420900  1
  Si  Si8  1  0.36018200  0.40809400  0.00608900  1
  Si  Si9  1  0.63981800  0.59190600  0.00608900  1
  Si  Si10  1  0.13981800  0.40809400  0.00608900  1
  Si  Si11  1  0.86018200  0.59190600  0.00608900  1
  O  O0  1  0.25000000  0.76329200  0.23856800  1
  O  O1  1  0.75000000  0.23670800  0.23856800  1
  O  O2  1  0.42001100  0.88199400  0.21577900  1
  O  O3  1  0.57998900  0.11800600  0.21577900  1
  O  O4  1  0.07998900  0.88199400  0.21577900  1
  O  O5  1  0.92001100  0.11800600  0.21577900  1
  O  O6  1  0.38621800  0.52455900  0.18950700  1
  O  O7  1  0.61378200  0.47544100  0.18950700  1
  O  O8  1  0.11378200  0.52455900  0.18950700  1
  O  O9  1  0.88621800  0.47544100  0.18950700  1
  O  O10  1  0.25000000  0.36105900  0.01315000  1
  O  O11  1  0.75000000  0.63894100  0.01315000  1
  O  O12  1  0.40967000  0.21636400  0.99953800  1
  O  O13  1  0.59033000  0.78363600  0.99953800  1
  O  O14  1  0.09033000  0.21636400  0.99953800  1
  O  O15  1  0.90967000  0.78363600  0.99953800  1
  O  O16  1  0.37190400  0.68910100  0.50541900  1
  O  O17  1  0.62809600  0.31089900  0.50541900  1
  O  O18  1  0.12809600  0.68910100  0.50541900  1
  O  O19  1  0.87190400  0.31089900  0.50541900  1
  O  O20  1  0.25000000  0.77776000  0.76757300  1
  O  O21  1  0.75000000  0.22224000  0.76757300  1
  O  O22  1  0.42048800  0.88518000  0.79193900  1
  O  O23  1  0.57951200  0.11482000  0.79193900  1
  O  O24  1  0.07951200  0.88518000  0.79193900  1
  O  O25  1  0.92048800  0.11482000  0.79193900  1
  O  O26  1  0.38141800  0.53032100  0.82469200  1
  O  O27  1  0.61858200  0.46967900  0.82469200  1
  O  O28  1  0.11858200  0.53032100  0.82469200  1
  O  O29  1  0.88141800  0.46967900  0.82469200  1
  O  O30  1  0.25000000  0.17586100  0.43442400  1
  O  O31  1  0.75000000  0.82413900  0.43442400  1
  O  O32  1  0.32556300  0.25459700  0.47882600  1
  O  O33  1  0.67443700  0.74540300  0.47882600  1
  O  O34  1  0.17443700  0.25459700  0.47882600  1
  O  O35  1  0.82556300  0.74540300  0.47882600  1
loop_
_geom_bond_atom_site_label_1
_geom_bond_atom_site_label_2
_geom_bond_distance
_geom_bond_site_symmetry_2
Na0 O10 2.442220 1_556
Na0 O20 2.463332 1_545
Na0 O14 2.698727 1_555
Na0 O12 2.698727 1_555
Na0 O0 2.755201 1_546
Na1 O11 2.442220 1_556
Na1 O21 2.463332 1_565
Na1 O13 2.698727 1_555
Na1 O15 2.698727 1_555
Na1 O1 2.755201 1_566
Na2 O3 2.542573 1_555
Na2 O2 2.542573 1_545
Na2 O23 2.563149 1_555
Na2 O22 2.563149 1_545
Na3 O4 2.542573 1_545
Na3 O5 2.542573 1_455
Na3 O24 2.563149 1_545
Na3 O25 2.563149 1_455
O0 Si2 1.656823 1_555
O0 Si0 1.656823 1_555
O1 Si1 1.656823 1_555
O1 Si3 1.656823 1_555
O2 Si0 1.612268 1_555
O2 Zr0 2.119162 1_565
O3 Si1 1.612268 1_555
O3 Zr0 2.119162 1_555
O4 Si2 1.612268 1_555
O4 Zr1 2.119162 1_565
O5 Si3 1.612268 1_555
O5 Zr1 2.119162 1_655
O6 Si0 1.635229 1_555
O6 Si8 1.638198 1_555
O7 Si1 1.635229 1_555
O7 Si9 1.638198 1_555
O8 Si2 1.635229 1_555
O8 Si10 1.638198 1_555
O9 Si3 1.635229 1_555
O9 Si11 1.638198 1_555
O10 Si10 1.646545 1_555
O10 Si8 1.646545 1_555
O11 Si9 1.646545 1_555
O11 Si11 1.646545 1_555
O12 Si8 1.599711 1_556
O12 Zr0 2.081213 1_556
O13 Si9 1.599711 1_556
O13 Zr0 2.081213 1_566
O14 Si10 1.599711 1_556
O14 Zr1 2.081213 1_556
O15 Si11 1.599711 1_556
O15 Zr1 2.081213 1_666
O16 Si4 1.624702 1_555
O16 Si0 1.628281 1_555
O17 Si5 1.624702 1_555
O17 Si1 1.628281 1_555
O18 Si6 1.624702 1_555
O18 Si2 1.628281 1_555
O19 Si7 1.624702 1_555
O19 Si3 1.628281 1_555
O20 Si4 1.661922 1_555
O20 Si6 1.661922 1_555
O21 Si7 1.661922 1_555
O21 Si5 1.661922 1_555
O22 Si4 1.609368 1_555
O22 Zr0 2.120013 1_566
O23 Si5 1.609368 1_555
O23 Zr0 2.120013 1_556
O24 Si6 1.609368 1_555
O24 Zr1 2.120013 1_566
O25 Si7 1.609368 1_555
O25 Zr1 2.120013 1_656
O26 Si4 1.627013 1_555
O26 Si8 1.634719 1_556
O27 Si5 1.627013 1_555
O27 Si9 1.634719 1_556
O28 Si6 1.627013 1_555
O28 Si10 1.634719 1_556
O29 Si7 1.627013 1_555
O29 Si11 1.634719 1_556
O30 O32 1.290062 1_555
O30 O34 1.290062 1_555
O31 O35 1.290062 1_555
O31 O33 1.290062 1_555
