# generated using pymatgen
data_RbFeCuF6
_symmetry_space_group_name_H-M   'P 1'
_cell_length_a   7.42160309
_cell_length_b   7.42160309
_cell_length_c   7.42160309
_cell_angle_alpha   122.80731521
_cell_angle_beta   118.44401544
_cell_angle_gamma   88.96201000
_symmetry_Int_Tables_number   1
_chemical_formula_structural   RbFeCuF6
_chemical_formula_sum   'Rb2 Fe2 Cu2 F12'
_cell_volume   285.73813652
_cell_formula_units_Z   2
loop_
 _symmetry_equiv_pos_site_id
 _symmetry_equiv_pos_as_xyz
  1  'x, y, z'
loop_
 _atom_site_type_symbol
 _atom_site_label
 _atom_site_symmetry_multiplicity
 _atom_site_fract_x
 _atom_site_fract_y
 _atom_site_fract_z
 _atom_site_occupancy
  Rb  Rb0  1  0.36818600  0.61818600  0.75000000  1
  Rb  Rb1  1  0.63181400  0.38181400  0.25000000  1
  Fe  Fe0  1  0.00000000  0.00000000  0.00000000  1
  Fe  Fe1  1  0.50000000  0.00000000  0.50000000  1
  Cu  Cu0  1  0.00000000  0.00000000  0.50000000  1
  Cu  Cu1  1  0.00000000  0.50000000  0.00000000  1
  F  F0  1  0.31282300  0.06282300  0.25000000  1
  F  F1  1  0.93112200  0.68112200  0.25000000  1
  F  F2  1  0.33156000  0.68057200  0.25538600  1
  F  F3  1  0.92518600  0.07617400  0.24461400  1
  F  F4  1  0.33156000  0.07617400  0.65098700  1
  F  F5  1  0.92518600  0.68057200  0.84901300  1
  F  F6  1  0.68717700  0.93717700  0.75000000  1
  F  F7  1  0.06887800  0.31887800  0.75000000  1
  F  F8  1  0.66844000  0.31942800  0.74461400  1
  F  F9  1  0.07481400  0.92382600  0.75538600  1
  F  F10  1  0.66844000  0.92382600  0.34901300  1
  F  F11  1  0.07481400  0.31942800  0.15098700  1
loop_
_geom_bond_atom_site_label_1
_geom_bond_atom_site_label_2
_geom_bond_distance
_geom_bond_site_symmetry_2
Cu0 F7 1.920078 1_555
Cu0 F1 1.920078 1_445
Cu0 F9 2.089877 1_545
Cu0 F3 2.089877 1_455
Cu0 F10 2.089879 1_445
Cu0 F4 2.089879 1_555
Cu1 F7 1.920078 1_554
Cu1 F1 1.920078 1_455
Cu1 F5 2.089872 1_454
Cu1 F11 2.089872 1_555
Cu1 F8 2.089877 1_454
Cu1 F2 2.089877 1_555
F0 Fe1 2.012048 1_555
F0 Fe0 2.012048 1_555
F0 Rb1 3.378233 1_555
F1 Rb1 3.169783 1_555
F2 Fe1 1.939166 1_565
F2 Rb1 3.113401 1_555
F3 Fe0 1.939166 1_655
F3 Rb1 3.113401 1_555
F4 Fe1 1.939160 1_555
F4 Rb1 3.113406 1_556
F5 Fe0 1.939167 1_666
F5 Rb1 3.113407 1_555
F6 Fe0 2.012048 1_666
F6 Fe1 2.012048 1_565
F6 Rb0 3.378233 1_555
F7 Rb0 3.169783 1_555
F8 Fe1 1.939166 1_555
F8 Rb0 3.113401 1_555
F9 Fe0 1.939166 1_566
F9 Rb0 3.113401 1_555
F10 Fe1 1.939160 1_565
F10 Rb0 3.113406 1_554
F11 Fe0 1.939167 1_555
F11 Rb0 3.113407 1_555
