# generated using pymatgen
data_Y10B7C10
_symmetry_space_group_name_H-M   'P 1'
_cell_length_a   8.00184447
_cell_length_b   8.00184447
_cell_length_c   23.73265225
_cell_angle_alpha   84.11627296
_cell_angle_beta   84.11627296
_cell_angle_gamma   88.70378532
_symmetry_Int_Tables_number   1
_chemical_formula_structural   Y10B7C10
_chemical_formula_sum   'Y40 B28 C40'
_cell_volume   1503.50922508
_cell_formula_units_Z   4
loop_
 _symmetry_equiv_pos_site_id
 _symmetry_equiv_pos_as_xyz
  1  'x, y, z'
loop_
 _atom_site_type_symbol
 _atom_site_label
 _atom_site_symmetry_multiplicity
 _atom_site_fract_x
 _atom_site_fract_y
 _atom_site_fract_z
 _atom_site_occupancy
  Y  Y0  1  0.77627300  0.82662500  0.07555700  1
  Y  Y1  1  0.22372700  0.17337500  0.92444300  1
  Y  Y2  1  0.17337500  0.22372700  0.42444300  1
  Y  Y3  1  0.82662500  0.77627300  0.57555700  1
  Y  Y4  1  0.64635400  0.08620900  0.18198200  1
  Y  Y5  1  0.35364600  0.91379100  0.81801800  1
  Y  Y6  1  0.91379100  0.35364600  0.31801800  1
  Y  Y7  1  0.08620900  0.64635400  0.68198200  1
  Y  Y8  1  0.37483100  0.82236400  0.42263700  1
  Y  Y9  1  0.62516900  0.17763600  0.57736300  1
  Y  Y10  1  0.17763600  0.62516900  0.07736300  1
  Y  Y11  1  0.82236400  0.37483100  0.92263700  1
  Y  Y12  1  0.37489000  0.02779000  0.07752300  1
  Y  Y13  1  0.62511000  0.97221000  0.92247700  1
  Y  Y14  1  0.97221000  0.62511000  0.42247700  1
  Y  Y15  1  0.02779000  0.37489000  0.57752300  1
  Y  Y16  1  0.45490900  0.69651200  0.18127400  1
  Y  Y17  1  0.54509100  0.30348800  0.81872600  1
  Y  Y18  1  0.30348800  0.54509100  0.31872600  1
  Y  Y19  1  0.69651200  0.45490900  0.68127400  1
  Y  Y20  1  0.70855000  0.75816400  0.30455300  1
  Y  Y21  1  0.29145000  0.24183600  0.69544700  1
  Y  Y22  1  0.24183600  0.29145000  0.19544700  1
  Y  Y23  1  0.75816400  0.70855000  0.80455300  1
  Y  Y24  1  0.57359100  0.42417800  0.42298500  1
  Y  Y25  1  0.42640900  0.57582200  0.57701500  1
  Y  Y26  1  0.57582200  0.42640900  0.07701500  1
  Y  Y27  1  0.42417800  0.57359100  0.92298500  1
  Y  Y28  1  0.89368300  0.03638000  0.68175600  1
  Y  Y29  1  0.10631700  0.96362000  0.31824400  1
  Y  Y30  1  0.96362000  0.10631700  0.81824400  1
  Y  Y31  1  0.03638000  0.89368300  0.18175600  1
  Y  Y32  1  0.77267000  0.02200900  0.42252000  1
  Y  Y33  1  0.22733000  0.97799100  0.57748000  1
  Y  Y34  1  0.97799100  0.22733000  0.07748000  1
  Y  Y35  1  0.02200900  0.77267000  0.92252000  1
  Y  Y36  1  0.49555600  0.15535500  0.31838100  1
  Y  Y37  1  0.50444400  0.84464500  0.68161900  1
  Y  Y38  1  0.84464500  0.50444400  0.18161900  1
  Y  Y39  1  0.15535500  0.49555600  0.81838100  1
  B  B0  1  0.37918500  0.92935900  0.24975000  1
  B  B1  1  0.62081500  0.07064100  0.75025000  1
  B  B2  1  0.07064100  0.62081500  0.25025000  1
  B  B3  1  0.92935900  0.37918500  0.74975000  1
  B  B4  1  0.45856300  0.10198600  0.48026400  1
  B  B5  1  0.54143700  0.89801400  0.51973600  1
  B  B6  1  0.89801400  0.54143700  0.01973600  1
  B  B7  1  0.10198600  0.45856300  0.98026400  1
  B  B8  1  0.09079200  0.94529800  0.02043200  1
  B  B9  1  0.90920800  0.05470200  0.97956800  1
  B  B10  1  0.05470200  0.90920800  0.47956800  1
  B  B11  1  0.94529800  0.09079200  0.52043200  1
  B  B12  1  0.68946800  0.14686200  0.02070600  1
  B  B13  1  0.31053200  0.85313800  0.97929400  1
  B  B14  1  0.85313800  0.31053200  0.47929400  1
  B  B15  1  0.14686200  0.68946800  0.52070600  1
  B  B16  1  0.48942900  0.74442900  0.01931200  1
  B  B17  1  0.51057100  0.25557100  0.98068800  1
  B  B18  1  0.25557100  0.51057100  0.48068800  1
  B  B19  1  0.74442900  0.48942900  0.51931200  1
  B  B20  1  0.57180400  0.42819600  0.25000000  1
  B  B21  1  0.42819600  0.57180400  0.75000000  1
  B  B22  1  0.87832000  0.12168000  0.25000000  1
  B  B23  1  0.12168000  0.87832000  0.75000000  1
  B  B24  1  0.29344400  0.34233400  0.02420500  1
  B  B25  1  0.70655600  0.65766600  0.97579500  1
  B  B26  1  0.65766600  0.70655600  0.47579500  1
  B  B27  1  0.34233400  0.29344400  0.52420500  1
  C  C0  1  0.54470700  0.39151600  0.19226300  1
  C  C1  1  0.45529300  0.60848400  0.80773700  1
  C  C2  1  0.60848400  0.45529300  0.30773700  1
  C  C3  1  0.39151600  0.54470700  0.69226300  1
  C  C4  1  0.67358600  0.12674900  0.08360000  1
  C  C5  1  0.32641400  0.87325100  0.91640000  1
  C  C6  1  0.87325100  0.32641400  0.41640000  1
  C  C7  1  0.12674900  0.67358600  0.58360000  1
  C  C8  1  0.40582100  0.85712300  0.30740200  1
  C  C9  1  0.59417900  0.14287700  0.69259800  1
  C  C10  1  0.14287700  0.59417900  0.19259800  1
  C  C11  1  0.85712300  0.40582100  0.80740200  1
  C  C12  1  0.80682400  0.05936900  0.30757600  1
  C  C13  1  0.19317600  0.94063100  0.69242400  1
  C  C14  1  0.94063100  0.19317600  0.19242400  1
  C  C15  1  0.05936900  0.80682400  0.80757600  1
  C  C16  1  0.34248100  0.99028800  0.19162800  1
  C  C17  1  0.65751900  0.00971200  0.80837200  1
  C  C18  1  0.00971200  0.65751900  0.30837200  1
  C  C19  1  0.99028800  0.34248100  0.69162800  1
  C  C20  1  0.47363400  0.72294000  0.08250200  1
  C  C21  1  0.52636600  0.27706000  0.91749800  1
  C  C22  1  0.27706000  0.52636600  0.41749800  1
  C  C23  1  0.72294000  0.47363400  0.58250200  1
  C  C24  1  0.92576700  0.07615500  0.58340300  1
  C  C25  1  0.07423300  0.92384500  0.41659700  1
  C  C26  1  0.92384500  0.07423300  0.91659700  1
  C  C27  1  0.07615500  0.92576700  0.08340300  1
  C  C28  1  0.74549400  0.79508000  0.18196300  1
  C  C29  1  0.25450600  0.20492000  0.81803700  1
  C  C30  1  0.20492000  0.25450600  0.31803700  1
  C  C31  1  0.79508000  0.74549400  0.68196300  1
  C  C32  1  0.67610600  0.72643500  0.41235800  1
  C  C33  1  0.32389400  0.27356500  0.58764200  1
  C  C34  1  0.27356500  0.32389400  0.08764200  1
  C  C35  1  0.72643500  0.67610600  0.91235800  1
  C  C36  1  0.47681100  0.12460000  0.41718700  1
  C  C37  1  0.52318900  0.87540000  0.58281300  1
  C  C38  1  0.87540000  0.52318900  0.08281300  1
  C  C39  1  0.12460000  0.47681100  0.91718700  1
loop_
_geom_bond_atom_site_label_1
_geom_bond_atom_site_label_2
_geom_bond_distance
_geom_bond_site_symmetry_2
B0 C8 1.464129 1_555
B0 C16 1.471522 1_555
B0 Y29 2.611820 1_555
B0 Y16 2.616776 1_555
B0 Y4 2.781173 1_565
B0 Y36 2.789508 1_565
B1 C9 1.464129 1_555
B1 C17 1.471522 1_555
B1 Y28 2.611820 1_555
B1 Y17 2.616776 1_555
B1 Y5 2.781173 1_545
B1 Y37 2.789508 1_545
B2 C10 1.464129 1_555
B2 C18 1.471522 1_555
B2 Y31 2.611820 1_555
B2 Y18 2.616776 1_555
B2 Y6 2.781173 1_455
B2 Y38 2.789508 1_455
B3 C11 1.464129 1_555
B3 C19 1.471522 1_555
B3 Y30 2.611820 1_555
B3 Y19 2.616776 1_555
B3 Y7 2.781173 1_655
B3 Y39 2.789508 1_655
B4 C36 1.481848 1_555
B5 C37 1.481848 1_555
B6 C38 1.481848 1_555
B7 C39 1.481848 1_555
B8 C27 1.479404 1_555
B9 C26 1.479404 1_555
B10 C25 1.479404 1_555
B11 C24 1.479404 1_555
B12 C4 1.477435 1_555
B13 C5 1.477435 1_555
B14 C6 1.477435 1_555
B15 C7 1.477435 1_555
B16 C20 1.484519 1_555
B17 C21 1.484519 1_555
B18 C22 1.484519 1_555
B19 C23 1.484519 1_555
B20 C2 1.468672 1_555
B20 C0 1.468672 1_555
B20 Y38 2.627412 1_555
B20 Y36 2.627412 1_555
B20 Y16 2.765670 1_555
B20 Y18 2.765670 1_555
B21 C3 1.468672 1_555
B21 C1 1.468672 1_555
B21 Y37 2.627412 1_555
B21 Y39 2.627412 1_555
B21 Y19 2.765670 1_555
B21 Y17 2.765670 1_555
B22 C14 1.468329 1_555
B22 C12 1.468329 1_555
B22 Y4 2.619875 1_555
B22 Y6 2.619875 1_555
B22 Y29 2.762723 1_645
B22 Y31 2.762723 1_645
B23 C13 1.468329 1_555
B23 C15 1.468329 1_555
B23 Y5 2.619875 1_555
B23 Y7 2.619875 1_555
B23 Y30 2.762723 1_465
B23 Y28 2.762723 1_465
B24 C34 1.490003 1_555
B25 C35 1.490003 1_555
B26 C32 1.490003 1_555
B27 C33 1.490003 1_555
C0 Y16 2.523709 1_555
C0 Y22 2.560894 1_555
C0 Y38 2.562745 1_555
C0 Y4 2.584774 1_555
C0 Y26 2.707010 1_555
C1 Y17 2.523709 1_555
C1 Y23 2.560894 1_555
C1 Y39 2.562745 1_555
C1 Y5 2.584774 1_555
C1 Y27 2.707010 1_555
C2 Y18 2.523709 1_555
C2 Y20 2.560894 1_555
C2 Y36 2.562745 1_555
C2 Y6 2.584774 1_555
C2 Y24 2.707010 1_555
C3 Y19 2.523709 1_555
C3 Y21 2.560894 1_555
C3 Y37 2.562745 1_555
C3 Y7 2.584774 1_555
C3 Y25 2.707010 1_555
C4 Y4 2.312556 1_555
C4 Y26 2.499875 1_555
C4 Y0 2.539995 1_545
C4 Y12 2.557385 1_555
C4 Y34 2.567913 1_555
C5 Y5 2.312556 1_555
C5 Y27 2.499875 1_555
C5 Y1 2.539995 1_565
C5 Y13 2.557385 1_555
C5 Y35 2.567913 1_555
C6 Y6 2.312556 1_555
C6 Y24 2.499875 1_555
C6 Y2 2.539995 1_655
C6 Y14 2.557385 1_555
C6 Y32 2.567913 1_555
C7 Y7 2.312556 1_555
C7 Y25 2.499875 1_555
C7 Y3 2.539995 1_455
C7 Y15 2.557385 1_555
C7 Y33 2.567913 1_555
C8 Y29 2.522330 1_555
C8 Y20 2.527883 1_555
C8 Y36 2.553778 1_565
C8 Y18 2.624257 1_555
C8 Y8 2.706712 1_555
C9 Y28 2.522330 1_555
C9 Y21 2.527883 1_555
C9 Y37 2.553778 1_545
C9 Y19 2.624257 1_555
C9 Y9 2.706712 1_555
C10 Y31 2.522330 1_555
C10 Y22 2.527883 1_555
C10 Y38 2.553778 1_455
C10 Y16 2.624257 1_555
C10 Y10 2.706712 1_555
C11 Y30 2.522330 1_555
C11 Y23 2.527883 1_555
C11 Y39 2.553778 1_655
C11 Y17 2.624257 1_555
C11 Y11 2.706712 1_555
C12 Y29 2.529005 1_645
C12 Y20 2.562292 1_545
C12 Y6 2.567730 1_555
C12 Y36 2.585003 1_555
C12 Y32 2.699869 1_555
C13 Y28 2.529005 1_465
C13 Y21 2.562292 1_565
C13 Y7 2.567730 1_555
C13 Y37 2.585003 1_555
C13 Y33 2.699869 1_555
C14 Y31 2.529005 1_645
C14 Y22 2.562292 1_655
C14 Y4 2.567730 1_555
C14 Y38 2.585003 1_555
C14 Y34 2.699869 1_555
C15 Y30 2.529005 1_465
C15 Y23 2.562292 1_455
C15 Y5 2.567730 1_555
C15 Y39 2.585003 1_555
C15 Y35 2.699869 1_555
C16 Y16 2.524514 1_555
C16 Y22 2.531045 1_565
C16 Y4 2.547201 1_565
C16 Y31 2.625323 1_555
C16 Y12 2.680220 1_565
C17 Y17 2.524514 1_555
C17 Y23 2.531045 1_545
C17 Y5 2.547201 1_545
C17 Y30 2.625323 1_555
C17 Y13 2.680220 1_545
C18 Y18 2.524514 1_555
C18 Y20 2.531045 1_455
C18 Y6 2.547201 1_455
C18 Y29 2.625323 1_555
C18 Y14 2.680220 1_455
C19 Y19 2.524514 1_555
C19 Y21 2.531045 1_655
C19 Y7 2.547201 1_655
C19 Y28 2.625323 1_555
C19 Y15 2.680220 1_655
C20 Y16 2.321609 1_555
C20 Y26 2.503891 1_555
C20 Y10 2.529723 1_555
C20 Y12 2.541969 1_565
C20 Y0 2.561453 1_555
C21 Y17 2.321609 1_555
C21 Y27 2.503891 1_555
C21 Y11 2.529723 1_555
C21 Y13 2.541969 1_545
C21 Y1 2.561453 1_555
C22 Y18 2.321609 1_555
C22 Y24 2.503891 1_555
C22 Y8 2.529723 1_555
C22 Y14 2.541969 1_455
C22 Y2 2.561453 1_555
C23 Y19 2.321609 1_555
C23 Y25 2.503891 1_555
C23 Y9 2.529723 1_555
C23 Y15 2.541969 1_655
C23 Y3 2.561453 1_555
C24 Y28 2.311735 1_555
C24 Y33 2.515345 1_645
C24 Y15 2.529158 1_655
C24 Y9 2.534573 1_555
C24 Y3 2.574912 1_545
C25 Y29 2.311735 1_555
C25 Y32 2.515345 1_465
C25 Y14 2.529158 1_455
C25 Y8 2.534573 1_555
C25 Y2 2.574912 1_565
C26 Y30 2.311735 1_555
C26 Y35 2.515345 1_645
C26 Y13 2.529158 1_545
C26 Y11 2.534573 1_555
C26 Y1 2.574912 1_655
C27 Y31 2.311735 1_555
C27 Y34 2.515345 1_465
C27 Y12 2.529158 1_565
C27 Y10 2.534573 1_555
C27 Y0 2.574912 1_455
C28 Y38 2.440727 1_555
C28 Y4 2.443922 1_565
C28 Y31 2.473932 1_655
C28 Y16 2.474348 1_555
C28 Y0 2.499222 1_555
C28 Y20 2.879340 1_555
C29 Y39 2.440727 1_555
C29 Y5 2.443922 1_545
C29 Y30 2.473932 1_455
C29 Y17 2.474348 1_555
C29 Y1 2.499222 1_555
C29 Y21 2.879340 1_555
C30 Y36 2.440727 1_555
C30 Y6 2.443922 1_455
C30 Y29 2.473932 1_545
C30 Y18 2.474348 1_555
C30 Y2 2.499222 1_555
C30 Y22 2.879340 1_555
C31 Y37 2.440727 1_555
C31 Y7 2.443922 1_655
C31 Y28 2.473932 1_565
C31 Y19 2.474348 1_555
C31 Y3 2.499222 1_555
C31 Y23 2.879340 1_555
C32 Y8 2.508899 1_555
C32 Y14 2.513727 1_555
C32 Y20 2.532075 1_555
C32 Y32 2.546943 1_565
C32 Y24 2.551175 1_555
C33 Y9 2.508899 1_555
C33 Y15 2.513727 1_555
C33 Y21 2.532075 1_555
C33 Y33 2.546943 1_545
C33 Y25 2.551175 1_555
C34 Y10 2.508899 1_555
C34 Y12 2.513727 1_555
C34 Y22 2.532075 1_555
C34 Y34 2.546943 1_455
C34 Y26 2.551175 1_555
C35 Y11 2.508899 1_555
C35 Y13 2.513727 1_555
C35 Y23 2.532075 1_555
C35 Y35 2.546943 1_655
C35 Y27 2.551175 1_555
C36 Y36 2.322283 1_555
C36 Y32 2.499359 1_555
C36 Y2 2.531676 1_555
C36 Y8 2.556370 1_545
C36 Y24 2.557064 1_555
C37 Y37 2.322283 1_555
C37 Y33 2.499359 1_555
C37 Y3 2.531676 1_555
C37 Y9 2.556370 1_565
C37 Y25 2.557064 1_555
C38 Y38 2.322283 1_555
C38 Y34 2.499359 1_555
C38 Y0 2.531676 1_555
C38 Y10 2.556370 1_655
C38 Y26 2.557064 1_555
C39 Y39 2.322283 1_555
C39 Y35 2.499359 1_555
C39 Y1 2.531676 1_555
C39 Y11 2.556370 1_455
C39 Y27 2.557064 1_555
