# generated using pymatgen
data_CaMg6Zr
_symmetry_space_group_name_H-M   'P 1'
_cell_length_a   5.21724300
_cell_length_b   6.68366400
_cell_length_c   11.24372700
_cell_angle_alpha   90.00000000
_cell_angle_beta   90.00000000
_cell_angle_gamma   90.00000000
_symmetry_Int_Tables_number   1
_chemical_formula_structural   CaMg6Zr
_chemical_formula_sum   'Ca2 Mg12 Zr2'
_cell_volume   392.07212482
_cell_formula_units_Z   2
loop_
 _symmetry_equiv_pos_site_id
 _symmetry_equiv_pos_as_xyz
  1  'x, y, z'
loop_
 _atom_site_type_symbol
 _atom_site_label
 _atom_site_symmetry_multiplicity
 _atom_site_fract_x
 _atom_site_fract_y
 _atom_site_fract_z
 _atom_site_occupancy
  Ca  Ca0  1  0.00000000  0.50000000  0.34097400  1
  Ca  Ca1  1  0.00000000  0.00000000  0.84097400  1
  Mg  Mg0  1  0.00000000  0.26249600  0.08957700  1
  Mg  Mg1  1  0.00000000  0.73750400  0.08957700  1
  Mg  Mg2  1  0.00000000  0.50000000  0.83748300  1
  Mg  Mg3  1  0.50000000  0.25595300  0.91424000  1
  Mg  Mg4  1  0.50000000  0.74404700  0.91424000  1
  Mg  Mg5  1  0.50000000  0.50000000  0.65945700  1
  Mg  Mg6  1  0.00000000  0.76249600  0.58957700  1
  Mg  Mg7  1  0.00000000  0.23750400  0.58957700  1
  Mg  Mg8  1  0.00000000  0.00000000  0.33748300  1
  Mg  Mg9  1  0.50000000  0.75595300  0.41424000  1
  Mg  Mg10  1  0.50000000  0.24404700  0.41424000  1
  Mg  Mg11  1  0.50000000  0.00000000  0.15945700  1
  Zr  Zr0  1  0.50000000  0.50000000  0.15445200  1
  Zr  Zr1  1  0.50000000  0.00000000  0.65445200  1
loop_
_geom_bond_atom_site_label_1
_geom_bond_atom_site_label_2
_geom_bond_distance
_geom_bond_site_symmetry_2
Ca0 Mg10 3.226458 1_455
Ca0 Mg10 3.226458 1_555
Ca0 Mg9 3.226458 1_455
Ca0 Mg9 3.226458 1_555
Ca0 Mg0 3.241870 1_555
Ca0 Mg1 3.241870 1_555
Ca0 Mg6 3.300200 1_555
Ca0 Mg7 3.300200 1_555
Ca0 Mg8 3.342063 1_565
Ca0 Mg8 3.342063 1_555
Ca0 Zr0 3.347113 1_455
Ca0 Zr0 3.347113 1_555
Ca1 Mg4 3.226458 1_445
Ca1 Mg3 3.226458 1_555
Ca1 Mg4 3.226458 1_545
Ca1 Mg3 3.226458 1_455
Ca1 Mg7 3.241870 1_555
Ca1 Mg6 3.241870 1_545
Ca1 Mg1 3.300200 1_546
Ca1 Mg0 3.300200 1_556
Ca1 Mg2 3.342063 1_555
Ca1 Mg2 3.342063 1_545
Ca1 Zr1 3.347113 1_555
Ca1 Zr1 3.347113 1_455
Mg0 Zr0 3.139556 1_455
Mg0 Zr0 3.139556 1_555
Mg0 Mg1 3.174794 1_555
Mg0 Mg11 3.240415 1_455
Mg0 Mg11 3.240415 1_555
Mg0 Mg2 3.248705 1_554
Mg0 Mg3 3.270076 1_554
Mg0 Mg3 3.270076 1_454
Mg0 Mg8 3.293565 1_555
Mg0 Mg1 3.508870 1_545
Mg1 Zr0 3.139556 1_455
Mg1 Zr0 3.139556 1_555
Mg1 Mg11 3.240415 1_565
Mg1 Mg11 3.240415 1_465
Mg1 Mg2 3.248705 1_554
Mg1 Mg4 3.270076 1_454
Mg1 Mg4 3.270076 1_554
Mg1 Mg8 3.293565 1_565
Mg2 Mg3 3.195358 1_455
Mg2 Mg4 3.195358 1_455
Mg2 Mg4 3.195358 1_555
Mg2 Mg3 3.195358 1_555
Mg2 Mg5 3.288102 1_455
Mg2 Mg5 3.288102 1_555
Mg2 Mg6 3.293565 1_555
Mg2 Mg7 3.293565 1_555
Mg3 Zr0 3.155206 1_556
Mg3 Mg4 3.262256 1_555
Mg3 Mg5 3.296535 1_555
Mg3 Zr1 3.385065 1_555
Mg3 Mg4 3.421408 1_545
Mg4 Zr0 3.155206 1_556
Mg4 Mg5 3.296535 1_555
Mg4 Zr1 3.385065 1_565
Mg5 Mg6 3.240415 1_555
Mg5 Mg6 3.240415 1_655
Mg5 Mg7 3.240415 1_655
Mg5 Mg7 3.240415 1_555
Mg5 Mg9 3.244750 1_555
Mg5 Zr1 3.342306 1_565
Mg5 Zr1 3.342306 1_555
Mg6 Zr1 3.139556 1_465
Mg6 Zr1 3.139556 1_565
Mg6 Mg7 3.174794 1_565
Mg6 Mg8 3.248705 1_565
Mg6 Mg9 3.270076 1_455
Mg6 Mg9 3.270076 1_555
Mg6 Mg7 3.508870 1_555
Mg7 Zr1 3.139556 1_555
Mg7 Zr1 3.139556 1_455
Mg7 Mg8 3.248705 1_555
Mg8 Mg9 3.195358 1_445
Mg8 Mg9 3.195358 1_545
Mg9 Zr1 3.155206 1_565
Mg9 Zr0 3.385065 1_555
Mg10 Zr1 3.155206 1_555
Mg10 Mg8 3.195358 1_555
Mg10 Mg8 3.195358 1_655
Mg10 Mg5 3.244750 1_555
Mg10 Mg9 3.262256 1_545
Mg10 Mg7 3.270076 1_655
Mg10 Mg7 3.270076 1_555
Mg10 Mg11 3.296535 1_555
Mg10 Zr0 3.385065 1_555
Mg10 Mg9 3.421408 1_555
Mg11 Mg3 3.244750 1_554
Mg11 Mg4 3.244750 1_544
Mg11 Mg8 3.288102 1_655
Mg11 Mg8 3.288102 1_555
Mg11 Mg9 3.296535 1_545
Mg11 Zr0 3.342306 1_545
Mg11 Zr0 3.342306 1_555
