# generated using pymatgen
data_Ce3TiSb5
_symmetry_space_group_name_H-M   'P 1'
_cell_length_a   9.46137901
_cell_length_b   9.46125324
_cell_length_c   6.27879206
_cell_angle_alpha   90.00000000
_cell_angle_beta   90.00000000
_cell_angle_gamma   119.99961983
_symmetry_Int_Tables_number   1
_chemical_formula_structural   Ce3TiSb5
_chemical_formula_sum   'Ce6 Ti2 Sb10'
_cell_volume   486.75621186
_cell_formula_units_Z   2
loop_
 _symmetry_equiv_pos_site_id
 _symmetry_equiv_pos_as_xyz
  1  'x, y, z'
loop_
 _atom_site_type_symbol
 _atom_site_label
 _atom_site_symmetry_multiplicity
 _atom_site_fract_x
 _atom_site_fract_y
 _atom_site_fract_z
 _atom_site_occupancy
  Ce  Ce0  1  0.61679408  0.99998653  0.25000000  1
  Ce  Ce1  1  0.38313972  -0.00000507  0.75000000  1
  Ce  Ce2  1  0.00001028  0.61681498  0.25000000  1
  Ce  Ce3  1  0.00005021  0.38324529  0.75000000  1
  Ce  Ce4  1  0.38318171  0.38318449  0.25000000  1
  Ce  Ce5  1  0.61678277  0.61676440  0.75000000  1
  Ti  Ti0  1  0.00004619  0.00003118  -0.00000055  1
  Ti  Ti1  1  0.00004619  0.00003118  0.50000055  1
  Sb  Sb0  1  0.25097455  0.00000712  0.25000000  1
  Sb  Sb1  1  0.74899622  0.00001773  0.75000000  1
  Sb  Sb2  1  0.00002674  0.25110188  0.25000000  1
  Sb  Sb3  1  0.99997715  0.74895972  0.75000000  1
  Sb  Sb4  1  0.74900732  0.74893278  0.25000000  1
  Sb  Sb5  1  0.25102689  0.25103944  0.75000000  1
  Sb  Sb6  1  0.33327220  0.66658125  0.00003533  1
  Sb  Sb7  1  0.66669829  0.33336343  0.00003599  1
  Sb  Sb8  1  0.66669829  0.33336343  0.49996401  1
  Sb  Sb9  1  0.33327220  0.66658125  0.49996467  1
loop_
_geom_bond_atom_site_label_1
_geom_bond_atom_site_label_2
_geom_bond_distance
_geom_bond_site_symmetry_2
Ce0 Sb2 3.190201 1_665
Ce0 Sb4 3.190301 1_555
Ce0 Sb8 3.338512 1_565
Ce0 Sb7 3.338512 1_565
Ce0 Sb9 3.338840 1_555
Ce0 Sb6 3.338840 1_555
Ce0 Sb1 3.379345 1_564
Ce0 Sb1 3.379345 1_565
Ce0 Sb0 3.461255 1_565
Ce1 Sb5 3.189493 1_555
Ce1 Sb3 3.189560 1_445
Ce1 Sb7 3.338977 1_556
Ce1 Sb8 3.338977 1_555
Ce1 Sb9 3.339142 1_545
Ce1 Sb6 3.339142 1_546
Ce1 Sb0 3.379292 1_555
Ce1 Sb0 3.379292 1_556
Ce1 Sb1 3.461399 1_555
Ce2 Sb4 3.189176 1_455
Ce2 Sb0 3.189625 1_565
Ce2 Sb9 3.338034 1_555
Ce2 Sb6 3.338034 1_555
Ce2 Sb7 3.338150 1_455
Ce2 Sb8 3.338150 1_455
Ce2 Sb3 3.379251 1_454
Ce2 Sb3 3.379251 1_455
Ce2 Sb2 3.460182 1_555
Ce3 Sb5 3.189579 1_555
Ce3 Sb1 3.190030 1_455
Ce3 Sb9 3.337536 1_555
Ce3 Sb6 3.337536 1_556
Ce3 Sb8 3.338627 1_455
Ce3 Sb7 3.338627 1_456
Ce3 Sb2 3.379147 1_556
Ce3 Sb2 3.379147 1_555
Ce3 Sb3 3.460463 1_455
Ce4 Sb0 3.189512 1_555
Ce4 Sb2 3.189569 1_555
Ce4 Sb9 3.337914 1_555
Ce4 Sb6 3.337914 1_555
Ce4 Sb7 3.338477 1_555
Ce4 Sb8 3.338477 1_555
Ce4 Sb5 3.379217 1_555
Ce4 Sb5 3.379217 1_554
Ce4 Sb4 3.460846 1_555
Ce5 Sb3 3.189731 1_555
Ce5 Sb1 3.190177 1_565
Ce5 Sb7 3.338191 1_556
Ce5 Sb8 3.338191 1_555
Ce5 Sb6 3.338616 1_556
Ce5 Sb9 3.338616 1_555
Ce5 Sb4 3.379380 1_555
Ce5 Sb4 3.379380 1_556
Ce5 Sb5 3.460406 1_555
Sb0 Ti0 2.846224 1_555
Sb0 Ti1 2.846224 1_555
Sb1 Ti0 2.847032 1_656
Sb1 Ti1 2.847032 1_655
Sb2 Ti0 2.847303 1_555
Sb2 Ti1 2.847303 1_555
Sb3 Ti0 2.846956 1_666
Sb3 Ti1 2.846956 1_665
Sb4 Ti0 2.847234 1_665
Sb4 Ti1 2.847234 1_665
Sb5 Ti1 2.846645 1_555
Sb5 Ti0 2.846645 1_556
Sb6 Sb9 3.138952 1_555
Sb6 Sb9 3.139840 1_554
Sb7 Sb8 3.138944 1_555
Sb7 Sb8 3.139848 1_554
