# generated using pymatgen
data_Li4V2Si(PO6)2
_symmetry_space_group_name_H-M   'P 1'
_cell_length_a   8.99680502
_cell_length_b   9.01533953
_cell_length_c   14.41116407
_cell_angle_alpha   71.74019511
_cell_angle_beta   89.92046253
_cell_angle_gamma   119.99533431
_symmetry_Int_Tables_number   1
_chemical_formula_structural   Li4V2Si(PO6)2
_chemical_formula_sum   'Li16 V8 Si4 P8 O48'
_cell_volume   943.43816385
_cell_formula_units_Z   4
loop_
 _symmetry_equiv_pos_site_id
 _symmetry_equiv_pos_as_xyz
  1  'x, y, z'
loop_
 _atom_site_type_symbol
 _atom_site_label
 _atom_site_symmetry_multiplicity
 _atom_site_fract_x
 _atom_site_fract_y
 _atom_site_fract_z
 _atom_site_occupancy
  Li  Li0  1  0.37826000  0.83068900  0.88620300  1
  Li  Li1  1  0.96930500  0.25756000  0.87416400  1
  Li  Li2  1  0.01794600  0.51160800  0.99940800  1
  Li  Li3  1  0.29743300  0.66940200  0.36387000  1
  Li  Li4  1  0.54185500  0.74975600  0.62508800  1
  Li  Li5  1  0.11525300  0.15397000  0.62299900  1
  Li  Li6  1  0.21772500  0.34915300  0.11102300  1
  Li  Li7  1  0.50665900  0.52004900  0.50108300  1
  Li  Li8  1  0.78719400  0.67029300  0.86213000  1
  Li  Li9  1  0.86668800  0.82920300  0.38842600  1
  Li  Li10  1  0.46254100  0.24352000  0.37493300  1
  Li  Li11  1  0.25562200  0.98807300  0.25042600  1
  Li  Li12  1  0.71283100  0.34625100  0.62720400  1
  Li  Li13  1  0.03945900  0.74966600  0.12611000  1
  Li  Li14  1  0.61925400  0.15090100  0.13816100  1
  Li  Li15  1  0.73758800  0.98049900  0.74897900  1
  V  V0  1  0.17605700  0.85356200  0.46232500  1
  V  V1  1  0.07227300  0.64605200  0.78763800  1
  V  V2  1  0.67577200  0.85676100  0.96296600  1
  V  V3  1  0.56861000  0.64321100  0.28707200  1
  V  V4  1  0.43022900  0.36364800  0.71297600  1
  V  V5  1  0.31999900  0.14367200  0.03769700  1
  V  V6  1  0.92581200  0.35593900  0.21220800  1
  V  V7  1  0.81898200  0.13840500  0.53662100  1
  Si  Si0  1  0.57806600  0.95082600  0.37724700  1
  Si  Si1  1  0.32819100  0.74979700  0.12502400  1
  Si  Si2  1  0.37761500  0.54915200  0.87326900  1
  Si  Si3  1  0.82936700  0.74995400  0.62530800  1
  P  P0  1  0.07863800  0.95404100  0.87730900  1
  P  P1  1  0.12172300  0.45109700  0.62563700  1
  P  P2  1  0.17137400  0.24681700  0.37443400  1
  P  P3  1  0.62487300  0.45343400  0.12374200  1
  P  P4  1  0.67535900  0.25336900  0.87527400  1
  P  P5  1  0.42127600  0.04961900  0.62423400  1
  P  P6  1  0.87434300  0.54635100  0.37241700  1
  P  P7  1  0.92124000  0.04594800  0.12619100  1
  O  O0  1  0.14078000  0.98379700  0.97265500  1
  O  O1  1  0.04816900  0.76315700  0.88691900  1
  O  O2  1  0.03462500  0.73783000  0.36280000  1
  O  O3  1  0.29512500  0.88839700  0.71846000  1
  O  O4  1  0.38405300  0.92624800  0.36549600  1
  O  O5  1  0.09008500  0.47996900  0.72136600  1
  O  O6  1  0.29742600  0.91123600  0.13475900  1
  O  O7  1  0.20835600  0.57389600  0.88421600  1
  O  O8  1  0.15645100  0.61239000  0.53144100  1
  O  O9  1  0.13589300  0.58826100  0.11523100  1
  O  O10  1  0.55186200  0.75059200  0.86162900  1
  O  O11  1  0.64513800  0.97940700  0.47847700  1
  O  O12  1  0.39768900  0.68951700  0.22612900  1
  O  O13  1  0.33357300  0.37622000  0.97400900  1
  O  O14  1  0.27890000  0.42406700  0.61444800  1
  O  O15  1  0.45813900  0.81000000  0.02391300  1
  O  O16  1  0.41355600  0.51928900  0.77184000  1
  O  O17  1  0.55034800  0.74928600  0.38822600  1
  O  O18  1  0.89753300  0.93690400  0.86779200  1
  O  O19  1  0.04544300  0.18463700  0.47085000  1
  O  O20  1  0.79874800  0.90936500  0.63814800  1
  O  O21  1  0.10598900  0.30933100  0.28099400  1
  O  O22  1  0.20518600  0.11450500  0.78262600  1
  O  O23  1  0.35461400  0.39575000  0.38433200  1
  O  O24  1  0.63847100  0.58874800  0.61256300  1
  O  O25  1  0.79451200  0.88993900  0.22166400  1
  O  O26  1  0.89977500  0.69026400  0.72599200  1
  O  O27  1  0.19921000  0.09323700  0.36483400  1
  O  O28  1  0.95927000  0.80969300  0.52421200  1
  O  O29  1  0.10284500  0.06603300  0.13634700  1
  O  O30  1  0.44357900  0.23671400  0.61771900  1
  O  O31  1  0.59223700  0.48641100  0.21831500  1
  O  O32  1  0.54711600  0.19059700  0.96918100  1
  O  O33  1  0.70963100  0.56260200  0.38208600  1
  O  O34  1  0.65442900  0.60932800  0.02859600  1
  O  O35  1  0.61321900  0.31609100  0.77919200  1
  O  O36  1  0.36020800  0.02037000  0.52857100  1
  O  O37  1  0.46191300  0.26011200  0.13575600  1
  O  O38  1  0.85710900  0.40646900  0.88555000  1
  O  O39  1  0.84244300  0.38795500  0.46676900  1
  O  O40  1  0.78618400  0.43297200  0.11389200  1
  O  O41  1  0.70934700  0.10380900  0.86594700  1
  O  O42  1  0.90771000  0.51727400  0.27689700  1
  O  O43  1  0.60645200  0.07716700  0.63434400  1
  O  O44  1  0.70738600  0.12306100  0.27618000  1
  O  O45  1  0.95650000  0.26340200  0.63259500  1
  O  O46  1  0.95163000  0.23906600  0.11421700  1
  O  O47  1  0.85573200  0.01238500  0.03203100  1
loop_
_geom_bond_atom_site_label_1
_geom_bond_atom_site_label_2
_geom_bond_distance
_geom_bond_site_symmetry_2
Li0 O7 2.049475 1_555
Li0 O10 2.091087 1_555
Li0 O15 2.096607 1_556
Li0 O3 2.505945 1_555
Li1 O41 2.065801 1_555
Li1 O38 2.083390 1_555
Li1 O5 2.257880 1_655
Li1 O47 2.385298 1_556
Li2 O9 2.093839 1_556
Li2 O7 2.109941 1_555
Li2 O1 2.218841 1_555
Li2 O46 2.261541 1_456
Li2 O38 2.300967 1_455
Li2 O40 2.313396 1_456
Li3 O4 2.049254 1_555
Li3 O17 2.083642 1_555
Li3 O12 2.095859 1_555
Li3 O8 2.503307 1_555
Li4 O20 2.072045 1_555
Li4 O24 2.078564 1_555
Li4 O11 2.223459 1_555
Li4 O16 2.227934 1_555
Li5 O14 2.083038 1_555
Li5 O45 2.127492 1_455
Li5 O19 2.253032 1_555
Li5 O22 2.419348 1_555
Li5 O20 2.537145 1_445
Li5 O30 2.654866 1_555
Li6 O46 2.076968 1_455
Li6 O13 2.117235 1_554
Li6 O29 2.119862 1_555
Li6 O21 2.494122 1_555
Li7 O17 2.037261 1_555
Li7 O24 2.065281 1_555
Li7 O14 2.224544 1_555
Li7 O33 2.302442 1_555
Li7 O30 2.351487 1_555
Li7 O23 2.369184 1_555
Li8 O26 2.120894 1_555
Li8 O18 2.122916 1_555
Li8 O1 2.136745 1_655
Li8 O34 2.448112 1_556
Li8 O10 2.556574 1_555
Li9 O28 2.118786 1_555
Li9 O33 2.126978 1_555
Li9 O2 2.128684 1_655
Li9 O25 2.456061 1_555
Li9 O17 2.563238 1_555
Li9 O27 2.664854 1_665
Li10 O23 2.072009 1_555
Li10 O27 2.093983 1_555
Li10 O36 2.268977 1_555
Li10 O31 2.364654 1_555
Li11 O6 2.093366 1_555
Li11 O4 2.113234 1_555
Li11 O2 2.209543 1_555
Li11 O37 2.256305 1_565
Li11 O27 2.309371 1_565
Li11 O29 2.309573 1_565
Li12 O43 2.081676 1_555
Li12 O30 2.134388 1_555
Li12 O35 2.247734 1_555
Li12 O39 2.419948 1_555
Li12 O24 2.538743 1_555
Li12 O45 2.640290 1_555
Li13 O6 2.063532 1_555
Li13 O9 2.073535 1_555
Li13 O42 2.274488 1_455
Li13 O0 2.307011 1_554
Li14 O37 2.084874 1_555
Li14 O40 2.113559 1_555
Li14 O44 2.130352 1_555
Li14 O32 2.483944 1_554
Li15 O10 2.035829 1_555
Li15 O20 2.063332 1_555
Li15 O43 2.238722 1_565
Li15 O18 2.303808 1_555
Li15 O45 2.341937 1_565
Li15 O41 2.365862 1_565
O0 P0 1.534829 1_555
O0 V5 2.020639 1_566
O1 P0 1.560334 1_555
O1 V1 2.093632 1_555
O2 P6 1.561780 1_455
O2 V0 2.092902 1_555
O3 P5 1.534318 1_565
O3 V1 2.009190 1_555
O4 Si0 1.661975 1_555
O4 V0 2.017926 1_555
O5 P1 1.532967 1_555
O5 V1 2.077331 1_555
O6 Si1 1.656863 1_555
O6 V5 2.031209 1_565
O7 Si2 1.659692 1_555
O7 V1 2.023092 1_555
O8 P1 1.537009 1_555
O8 V0 2.002376 1_555
O9 Si1 1.656560 1_555
O9 V6 2.027936 1_455
O10 Si2 1.656975 1_555
O10 V2 2.026131 1_555
O11 Si0 1.625202 1_555
O11 V7 1.928141 1_565
O12 Si1 1.629518 1_555
O12 V3 1.930317 1_555
O13 Si2 1.630234 1_555
O13 V5 1.946921 1_556
O14 P1 1.566387 1_555
O14 V4 2.104432 1_555
O15 Si1 1.627839 1_555
O15 V2 1.928941 1_554
O16 Si2 1.626645 1_555
O16 V4 1.914930 1_555
O17 Si0 1.659891 1_555
O17 V3 2.023994 1_555
O18 P0 1.568349 1_655
O18 V2 2.076993 1_555
O19 P2 1.549516 1_555
O19 V7 2.030079 1_455
O20 Si3 1.654645 1_555
O20 V7 2.041512 1_565
O21 P2 1.528090 1_555
O21 V6 2.052165 1_455
O22 P0 1.537128 1_545
O22 V4 2.046059 1_555
O23 P2 1.564740 1_555
O23 V3 2.094466 1_555
O24 Si3 1.663737 1_555
O24 V4 2.018188 1_555
O25 P7 1.533222 1_565
O25 V3 2.031628 1_555
O26 Si3 1.627957 1_555
O26 V1 1.938303 1_655
O27 P2 1.570206 1_555
O27 V0 2.081570 1_545
O28 Si3 1.628731 1_555
O28 V0 1.938745 1_655
O29 P7 1.563709 1_455
O29 V5 2.080719 1_555
O30 P5 1.567298 1_555
O30 V4 2.080828 1_555
O31 P3 1.540194 1_555
O31 V3 2.050096 1_555
O32 P4 1.531601 1_555
O32 V5 2.048766 1_556
O33 P6 1.570398 1_555
O33 V3 2.077460 1_555
O34 P3 1.530935 1_555
O34 V2 2.038754 1_554
O35 P4 1.541799 1_555
O35 V4 2.063621 1_555
O36 P5 1.535260 1_555
O36 V0 2.081040 1_545
O37 P3 1.572378 1_555
O37 V5 2.079328 1_555
O38 P4 1.572556 1_555
O38 V1 2.074978 1_655
O39 P6 1.530610 1_555
O39 V7 2.055432 1_555
O40 P3 1.563306 1_555
O40 V6 2.080488 1_555
O41 P4 1.566931 1_555
O41 V2 2.093169 1_545
O42 P6 1.535382 1_555
O42 V6 2.024171 1_555
O43 P5 1.571015 1_555
O43 V7 2.096192 1_555
O44 Si0 1.630284 1_545
O44 V6 1.943288 1_555
O45 P1 1.568848 1_655
O45 V7 2.073883 1_555
O46 P7 1.572053 1_555
O46 V6 2.081958 1_555
O47 P7 1.536699 1_555
O47 V2 2.046640 1_544
