# generated using pymatgen
data_FeAgO2
_symmetry_space_group_name_H-M   'P 1'
_cell_length_a   3.02697145
_cell_length_b   3.02696995
_cell_length_c   12.48307974
_cell_angle_alpha   90.00000000
_cell_angle_beta   90.00000000
_cell_angle_gamma   119.99997619
_symmetry_Int_Tables_number   1
_chemical_formula_structural   FeAgO2
_chemical_formula_sum   'Fe2 Ag2 O4'
_cell_volume   99.05329238
_cell_formula_units_Z   2
loop_
 _symmetry_equiv_pos_site_id
 _symmetry_equiv_pos_as_xyz
  1  'x, y, z'
loop_
 _atom_site_type_symbol
 _atom_site_label
 _atom_site_symmetry_multiplicity
 _atom_site_fract_x
 _atom_site_fract_y
 _atom_site_fract_z
 _atom_site_occupancy
  Fe  Fe0  1  -0.00000000  0.00000000  0.50000000  1
  Fe  Fe1  1  0.00000000  0.00000000  0.00000000  1
  Ag  Ag0  1  0.66666600  0.33333300  0.75000000  1
  Ag  Ag1  1  0.33333300  0.66666700  0.25000000  1
  O  O0  1  0.33333300  0.66666700  0.41682684  1
  O  O1  1  0.66666600  0.33333300  0.91682684  1
  O  O2  1  0.66666600  0.33333300  0.58317216  1
  O  O3  1  0.33333300  0.66666700  0.08317316  1
loop_
_geom_bond_atom_site_label_1
_geom_bond_atom_site_label_2
_geom_bond_distance
_geom_bond_site_symmetry_2
Fe0 O2 2.032765 1_555
Fe0 O2 2.032766 1_455
Fe0 O2 2.032766 1_445
Fe0 O0 2.032770 1_545
Fe0 O0 2.032773 1_555
Fe0 O0 2.032773 1_445
Fe1 O3 2.032770 1_545
Fe1 O1 2.032771 1_554
Fe1 O1 2.032773 1_454
Fe1 O3 2.032773 1_555
Fe1 O1 2.032773 1_444
Fe1 O3 2.032773 1_445
Ag0 O1 2.082513 1_555
Ag0 O2 2.082525 1_555
Ag1 O3 2.082513 1_555
Ag1 O0 2.082513 1_555
