# generated using pymatgen
data_Tm5Ir3
_symmetry_space_group_name_H-M   'P 1'
_cell_length_a   6.08776328
_cell_length_b   8.18279572
_cell_length_c   8.18279572
_cell_angle_alpha   119.99998885
_cell_angle_beta   90.00000000
_cell_angle_gamma   90.00000000
_symmetry_Int_Tables_number   1
_chemical_formula_structural   Tm5Ir3
_chemical_formula_sum   'Tm10 Ir6'
_cell_volume   353.01394050
_cell_formula_units_Z   2
loop_
 _symmetry_equiv_pos_site_id
 _symmetry_equiv_pos_as_xyz
  1  'x, y, z'
loop_
 _atom_site_type_symbol
 _atom_site_label
 _atom_site_symmetry_multiplicity
 _atom_site_fract_x
 _atom_site_fract_y
 _atom_site_fract_z
 _atom_site_occupancy
  Tm  Tm0  1  0.00000000  0.66666700  0.33333300  1
  Tm  Tm1  1  -0.00000000  0.33333300  0.66666700  1
  Tm  Tm2  1  0.50000000  0.33333300  0.66666700  1
  Tm  Tm3  1  0.50000000  0.66666700  0.33333300  1
  Tm  Tm4  1  0.75000000  0.73666674  0.73666674  1
  Tm  Tm5  1  0.25000000  0.26333326  0.26333326  1
  Tm  Tm6  1  0.75000000  -0.00000000  0.26333326  1
  Tm  Tm7  1  0.25000000  0.00000000  0.73666674  1
  Tm  Tm8  1  0.75000000  0.26333326  -0.00000000  1
  Tm  Tm9  1  0.25000000  0.73666674  0.00000000  1
  Ir  Ir0  1  0.75000000  0.38799887  0.38799887  1
  Ir  Ir1  1  0.25000000  0.61200113  0.61200113  1
  Ir  Ir2  1  0.75000000  0.00000000  0.61200113  1
  Ir  Ir3  1  0.25000000  -0.00000000  0.38799887  1
  Ir  Ir4  1  0.75000000  0.61200113  0.00000000  1
  Ir  Ir5  1  0.25000000  0.38799887  -0.00000000  1
loop_
_geom_bond_atom_site_label_1
_geom_bond_atom_site_label_2
_geom_bond_distance
_geom_bond_site_symmetry_2
Ir0 Tm6 2.807481 1_555
Ir0 Tm8 2.807481 1_555
Ir0 Tm4 2.853078 1_555
Ir0 Tm2 2.955691 1_555
Ir0 Tm0 2.955691 1_655
Ir0 Tm3 2.955691 1_555
Ir0 Tm1 2.955691 1_655
Ir0 Tm5 3.210272 1_555
Ir0 Tm5 3.210272 1_655
Ir1 Tm7 2.807481 1_565
Ir1 Tm9 2.807481 1_556
Ir1 Tm5 2.853078 1_555
Ir1 Tm2 2.955691 1_555
Ir1 Tm3 2.955691 1_555
Ir1 Tm1 2.955691 1_555
Ir1 Tm0 2.955691 1_555
Ir1 Tm4 3.210272 1_555
Ir1 Tm4 3.210272 1_455
Ir2 Tm4 2.807480 1_545
Ir2 Tm8 2.807481 1_556
Ir2 Tm6 2.853078 1_555
Ir2 Tm1 2.955685 1_655
Ir2 Tm2 2.955685 1_555
Ir2 Tm3 2.955687 1_545
Ir2 Tm0 2.955687 1_645
Ir2 Tm7 3.210272 1_655
Ir2 Tm7 3.210272 1_555
Ir3 Tm5 2.807480 1_555
Ir3 Tm9 2.807481 1_545
Ir3 Tm7 2.853078 1_555
Ir3 Tm3 2.955685 1_545
Ir3 Tm0 2.955685 1_545
Ir3 Tm1 2.955687 1_555
Ir3 Tm2 2.955687 1_555
Ir3 Tm6 3.210272 1_455
Ir3 Tm6 3.210272 1_555
Ir4 Tm4 2.807480 1_554
Ir4 Tm6 2.807481 1_565
Ir4 Tm8 2.853078 1_555
Ir4 Tm0 2.955685 1_655
Ir4 Tm3 2.955685 1_555
Ir4 Tm1 2.955687 1_654
Ir4 Tm2 2.955687 1_554
Ir4 Tm9 3.210272 1_555
Ir4 Tm9 3.210272 1_655
Ir5 Tm5 2.807480 1_555
Ir5 Tm7 2.807481 1_554
Ir5 Tm9 2.853078 1_555
Ir5 Tm2 2.955685 1_554
Ir5 Tm1 2.955685 1_554
Ir5 Tm3 2.955687 1_555
Ir5 Tm0 2.955687 1_555
Ir5 Tm8 3.210272 1_455
Ir5 Tm8 3.210272 1_555
