# generated using pymatgen
data_Pr(NiAs)2
_symmetry_space_group_name_H-M   'P 1'
_cell_length_a   4.21541539
_cell_length_b   4.21541539
_cell_length_c   9.41179119
_cell_angle_alpha   90.00000000
_cell_angle_beta   90.00000000
_cell_angle_gamma   90.00000000
_symmetry_Int_Tables_number   1
_chemical_formula_structural   Pr(NiAs)2
_chemical_formula_sum   'Pr2 Ni4 As4'
_cell_volume   167.24495918
_cell_formula_units_Z   2
loop_
 _symmetry_equiv_pos_site_id
 _symmetry_equiv_pos_as_xyz
  1  'x, y, z'
loop_
 _atom_site_type_symbol
 _atom_site_label
 _atom_site_symmetry_multiplicity
 _atom_site_fract_x
 _atom_site_fract_y
 _atom_site_fract_z
 _atom_site_occupancy
  Pr  Pr0  1  0.75000000  0.75000000  0.24800130  1
  Pr  Pr1  1  0.25000000  0.25000000  0.75199870  1
  Ni  Ni0  1  0.75000000  0.25000000  -0.00000000  1
  Ni  Ni1  1  0.25000000  0.75000000  -0.00000000  1
  Ni  Ni2  1  0.75000000  0.75000000  0.61626548  1
  Ni  Ni3  1  0.25000000  0.25000000  0.38373452  1
  As  As0  1  0.75000000  0.25000000  0.50000000  1
  As  As1  1  0.25000000  0.75000000  0.50000000  1
  As  As2  1  0.75000000  0.75000000  0.87170413  1
  As  As3  1  0.25000000  0.25000000  0.12829587  1
loop_
_geom_bond_atom_site_label_1
_geom_bond_atom_site_label_2
_geom_bond_distance
_geom_bond_site_symmetry_2
Ni0 Pr1 3.144936 1_654
Ni0 Pr1 3.144936 1_554
Ni0 Pr0 3.144936 1_555
Ni0 Pr0 3.144936 1_545
Ni1 Pr1 3.144936 1_564
Ni1 Pr1 3.144936 1_554
Ni1 Pr0 3.144936 1_555
Ni1 Pr0 3.144936 1_455
Ni2 Pr1 3.242969 1_555
Ni2 Pr1 3.242969 1_665
Ni2 Pr1 3.242969 1_655
Ni2 Pr1 3.242969 1_565
Ni3 Pr0 3.242969 1_555
Ni3 Pr0 3.242969 1_445
Ni3 Pr0 3.242969 1_545
Ni3 Pr0 3.242969 1_455
As0 Ni3 2.374837 1_555
As0 Ni3 2.374837 1_655
As0 Ni2 2.374837 1_555
As0 Ni2 2.374837 1_545
As0 Pr0 3.172960 1_555
As0 Pr1 3.172960 1_655
As0 Pr0 3.172960 1_545
As0 Pr1 3.172960 1_555
As1 Ni3 2.374837 1_565
As1 Ni3 2.374837 1_555
As1 Ni2 2.374837 1_555
As1 Ni2 2.374837 1_455
As1 Pr0 3.172960 1_555
As1 Pr0 3.172960 1_455
As1 Pr1 3.172960 1_565
As1 Pr1 3.172960 1_555
As2 Ni2 2.404135 1_555
As2 Ni1 2.429089 1_656
As2 Ni0 2.429089 1_566
As2 Ni0 2.429089 1_556
As2 Ni1 2.429089 1_556
As2 Pr1 3.186563 1_655
As2 Pr1 3.186563 1_565
As2 Pr1 3.186563 1_555
As2 Pr1 3.186563 1_665
As3 Ni3 2.404135 1_555
As3 Ni1 2.429089 1_545
As3 Ni1 2.429089 1_555
As3 Ni0 2.429089 1_455
As3 Ni0 2.429089 1_555
As3 Pr0 3.186563 1_445
As3 Pr0 3.186563 1_545
As3 Pr0 3.186563 1_455
As3 Pr0 3.186563 1_555
