# generated using pymatgen
data_RbLiMg14O15
_symmetry_space_group_name_H-M   'P 1'
_cell_length_a   10.12123814
_cell_length_b   8.28953404
_cell_length_c   4.13633323
_cell_angle_alpha   90.00000000
_cell_angle_beta   90.00000000
_cell_angle_gamma   90.00000000
_symmetry_Int_Tables_number   1
_chemical_formula_structural   RbLiMg14O15
_chemical_formula_sum   'Rb1 Li1 Mg14 O15'
_cell_volume   347.03979781
_cell_formula_units_Z   1
loop_
 _symmetry_equiv_pos_site_id
 _symmetry_equiv_pos_as_xyz
  1  'x, y, z'
loop_
 _atom_site_type_symbol
 _atom_site_label
 _atom_site_symmetry_multiplicity
 _atom_site_fract_x
 _atom_site_fract_y
 _atom_site_fract_z
 _atom_site_occupancy
  Rb  Rb0  1  0.94412789  0.50000000  0.00000000  1
  Li  Li0  1  0.97144877  0.00000000  0.00000000  1
  Mg  Mg0  1  0.54140613  0.00000000  0.00000000  1
  Mg  Mg1  1  0.48902225  0.50000000  0.00000000  1
  Mg  Mg2  1  0.00342033  0.25129997  0.50000000  1
  Mg  Mg3  1  0.00342033  0.74870003  0.50000000  1
  Mg  Mg4  1  0.47248667  0.22955412  0.50000000  1
  Mg  Mg5  1  0.47248667  0.77044588  0.50000000  1
  Mg  Mg6  1  0.17311503  0.00000000  0.50000000  1
  Mg  Mg7  1  0.26367170  0.50000000  0.50000000  1
  Mg  Mg8  1  0.77353016  0.00000000  0.50000000  1
  Mg  Mg9  1  0.69530388  0.50000000  0.50000000  1
  Mg  Mg10  1  0.24328778  0.26900270  0.00000000  1
  Mg  Mg11  1  0.24328778  0.73099730  0.00000000  1
  Mg  Mg12  1  0.71768243  0.25211668  0.00000000  1
  Mg  Mg13  1  0.71768243  0.74788332  0.00000000  1
  O  O0  1  0.29051351  0.50000000  0.00000000  1
  O  O1  1  0.74407440  0.00000000  0.00000000  1
  O  O2  1  0.68767918  0.50000000  0.00000000  1
  O  O3  1  0.27246261  0.21234372  0.50000000  1
  O  O4  1  0.27246261  0.78765628  0.50000000  1
  O  O5  1  0.77725135  0.26989814  0.50000000  1
  O  O6  1  0.77725135  0.73010186  0.50000000  1
  O  O7  1  0.97757355  0.00000000  0.50000000  1
  O  O8  1  0.07210132  0.50000000  0.50000000  1
  O  O9  1  0.54253663  0.00000000  0.50000000  1
  O  O10  1  0.48676019  0.50000000  0.50000000  1
  O  O11  1  0.05999134  0.20649437  0.00000000  1
  O  O12  1  0.05999134  0.79350563  0.00000000  1
  O  O13  1  0.50198520  0.23840724  0.00000000  1
  O  O14  1  0.50198520  0.76159276  0.00000000  1
loop_
_geom_bond_atom_site_label_1
_geom_bond_atom_site_label_2
_geom_bond_distance
_geom_bond_site_symmetry_2
Li0 O11 1.932140 1_655
Li0 O12 1.932140 1_645
Li0 O7 2.069095 1_554
Li0 O7 2.069095 1_555
Li0 O1 2.301310 1_555
Mg0 O13 2.016158 1_555
Mg0 O14 2.016158 1_545
Mg0 O1 2.051254 1_555
Mg0 O9 2.068198 1_554
Mg0 O9 2.068198 1_555
Mg1 O0 2.009154 1_555
Mg1 O2 2.010654 1_555
Mg1 O10 2.068293 1_555
Mg1 O10 2.068293 1_554
Mg1 O14 2.172448 1_555
Mg1 O13 2.172448 1_555
Mg2 O7 2.099521 1_455
Mg2 O8 2.175647 1_555
Mg2 O11 2.177866 1_556
Mg2 O11 2.177866 1_555
Mg2 O5 2.294296 1_455
Mg3 O7 2.099521 1_465
Mg3 O8 2.175647 1_555
Mg3 O12 2.177866 1_556
Mg3 O12 2.177866 1_555
Mg3 O6 2.294296 1_455
Mg4 O3 2.029512 1_555
Mg4 O9 2.030686 1_555
Mg4 O13 2.090894 1_555
Mg4 O13 2.090894 1_556
Mg4 O10 2.246520 1_555
Mg5 O4 2.029512 1_555
Mg5 O9 2.030686 1_565
Mg5 O14 2.090894 1_556
Mg5 O14 2.090894 1_555
Mg5 O10 2.246520 1_555
Mg6 O7 1.979122 1_455
Mg6 O4 2.027186 1_545
Mg6 O3 2.027186 1_555
Mg7 O8 1.938929 1_555
Mg7 O0 2.085934 1_555
Mg7 O0 2.085934 1_556
Mg7 O10 2.257932 1_555
Mg7 O3 2.386196 1_555
Mg7 O4 2.386196 1_555
Mg8 O7 2.065172 1_555
Mg8 O1 2.089544 1_556
Mg8 O1 2.089544 1_555
Mg8 O5 2.237647 1_555
Mg8 O6 2.237647 1_545
Mg8 O9 2.337941 1_555
Mg9 O2 2.069606 1_556
Mg9 O2 2.069606 1_555
Mg9 O5 2.079961 1_555
Mg9 O6 2.079961 1_555
Mg9 O10 2.110720 1_555
Mg10 O11 1.926191 1_555
Mg10 O0 1.973615 1_555
Mg10 O3 2.141285 1_554
Mg10 O3 2.141285 1_555
Mg10 O13 2.630593 1_555
Mg11 O12 1.926191 1_555
Mg11 O0 1.973615 1_555
Mg11 O4 2.141285 1_554
Mg11 O4 2.141285 1_555
Mg11 O14 2.630593 1_555
Mg12 O2 2.077155 1_555
Mg12 O1 2.106931 1_555
Mg12 O5 2.159292 1_554
Mg12 O5 2.159292 1_555
Mg12 O13 2.186079 1_555
Mg13 O2 2.077155 1_555
Mg13 O1 2.106931 1_565
Mg13 O6 2.159292 1_554
Mg13 O6 2.159292 1_555
Mg13 O14 2.186079 1_555
O2 Rb0 2.595578 1_555
O8 Rb0 2.440284 1_456
O8 Rb0 2.440284 1_455
O11 Rb0 2.700887 1_455
O12 Rb0 2.700887 1_455
