# generated using pymatgen
data_Cs2NaTaF6
_symmetry_space_group_name_H-M   'P 1'
_cell_length_a   6.39424320
_cell_length_b   6.39424320
_cell_length_c   6.39424320
_cell_angle_alpha   121.96349609
_cell_angle_beta   117.21300224
_cell_angle_gamma   90.76328222
_symmetry_Int_Tables_number   1
_chemical_formula_structural   Cs2NaTaF6
_chemical_formula_sum   'Cs2 Na1 Ta1 F6'
_cell_volume   185.60344532
_cell_formula_units_Z   1
loop_
 _symmetry_equiv_pos_site_id
 _symmetry_equiv_pos_as_xyz
  1  'x, y, z'
loop_
 _atom_site_type_symbol
 _atom_site_label
 _atom_site_symmetry_multiplicity
 _atom_site_fract_x
 _atom_site_fract_y
 _atom_site_fract_z
 _atom_site_occupancy
  Cs  Cs0  1  0.74347400  0.74347400  0.00000000  1
  Cs  Cs1  1  0.25652600  0.25652600  0.00000000  1
  Na  Na0  1  0.00000000  0.50000000  0.50000000  1
  Ta  Ta0  1  0.50000000  0.00000000  0.50000000  1
  F  F0  1  0.74825800  0.78655600  0.53481500  1
  F  F1  1  0.25174200  0.78655600  0.03829800  1
  F  F2  1  0.25174200  0.21344400  0.46518500  1
  F  F3  1  0.26802700  0.76802700  0.50000000  1
  F  F4  1  0.73197300  0.23197300  0.50000000  1
  F  F5  1  0.74825800  0.21344400  0.96170200  1
loop_
_geom_bond_atom_site_label_1
_geom_bond_atom_site_label_2
_geom_bond_distance
_geom_bond_site_symmetry_2
Cs0 F4 3.103492 1_565
Cs0 F4 3.103492 1_554
Cs0 F0 3.142461 1_554
Cs0 F1 3.142467 1_655
Cs0 F5 3.142467 1_564
Cs0 F2 3.142467 1_665
Cs0 F5 3.267732 1_554
Cs0 F1 3.267732 1_555
Cs0 F2 3.267732 1_554
Cs0 F0 3.267738 1_555
Cs0 F3 3.338136 1_655
Cs0 F3 3.338136 1_554
Cs1 F3 3.103492 1_555
Cs1 F3 3.103492 1_544
Cs1 F2 3.142461 1_555
Cs1 F5 3.142467 1_454
Cs1 F1 3.142467 1_545
Cs1 F0 3.142467 1_444
Cs1 F1 3.267732 1_555
Cs1 F5 3.267732 1_554
Cs1 F0 3.267732 1_555
Cs1 F2 3.267738 1_554
Cs1 F4 3.338136 1_454
Cs1 F4 3.338136 1_555
F0 Ta0 2.118579 1_565
F0 Na0 2.443870 1_655
F1 Ta0 2.118579 1_565
F1 Na0 2.443870 1_554
F2 Ta0 2.118579 1_555
F2 Na0 2.443870 1_555
F3 Ta0 2.083672 1_565
F3 Na0 2.407524 1_555
F4 Ta0 2.083672 1_555
F4 Na0 2.407524 1_655
F5 Ta0 2.118579 1_555
F5 Na0 2.443870 1_656
