# generated using pymatgen
data_K2HfF6
_symmetry_space_group_name_H-M   'P 1'
_cell_length_a   6.52320472
_cell_length_b   6.53918496
_cell_length_c   6.83100606
_cell_angle_alpha   89.54126378
_cell_angle_beta   89.08025903
_cell_angle_gamma   60.08080108
_symmetry_Int_Tables_number   1
_chemical_formula_structural   K2HfF6
_chemical_formula_sum   'K4 Hf2 F12'
_cell_volume   252.52071158
_cell_formula_units_Z   2
loop_
 _symmetry_equiv_pos_site_id
 _symmetry_equiv_pos_as_xyz
  1  'x, y, z'
loop_
 _atom_site_type_symbol
 _atom_site_label
 _atom_site_symmetry_multiplicity
 _atom_site_fract_x
 _atom_site_fract_y
 _atom_site_fract_z
 _atom_site_occupancy
  K  K0  1  0.32442634  0.31160754  0.00187178  1
  K  K1  1  0.36396612  0.31160754  0.49812822  1
  K  K2  1  0.63603388  0.68839246  0.50187178  1
  K  K3  1  0.67557366  0.68839246  0.99812822  1
  Hf  Hf0  1  0.04887565  0.90224869  0.25000000  1
  Hf  Hf1  1  0.95112435  0.09775131  0.75000000  1
  F  F0  1  0.93166191  0.19804423  0.04613750  1
  F  F1  1  0.87029386  0.19804423  0.45386250  1
  F  F2  1  0.06833809  0.80195577  0.95386250  1
  F  F3  1  0.12970614  0.80195577  0.54613750  1
  F  F4  1  0.61539425  0.38903469  0.77432192  1
  F  F5  1  0.99557006  0.38903469  0.72567808  1
  F  F6  1  0.69678379  0.02540681  0.22269295  1
  F  F7  1  0.27780639  0.02540681  0.27730705  1
  F  F8  1  0.30321621  0.97459319  0.77730705  1
  F  F9  1  0.72219361  0.97459319  0.72269295  1
  F  F10  1  0.00442994  0.61096531  0.27432192  1
  F  F11  1  0.38460575  0.61096531  0.22567808  1
loop_
_geom_bond_atom_site_label_1
_geom_bond_atom_site_label_2
_geom_bond_distance
_geom_bond_site_symmetry_2
F0 Hf1 2.113852 1_554
F0 Hf0 2.186550 1_645
F0 K3 2.799472 1_554
F0 K0 3.012754 1_655
F1 Hf1 2.113852 1_555
F1 Hf0 2.186550 1_645
F1 K2 2.799472 1_555
F1 K1 3.012754 1_555
F2 Hf0 2.113852 1_556
F2 Hf1 2.186550 1_465
F2 K0 2.799472 1_556
F2 K3 3.012754 1_455
F3 Hf0 2.113852 1_555
F3 Hf1 2.186550 1_465
F3 K1 2.799472 1_555
F3 K2 3.012754 1_555
F4 Hf1 2.069795 1_555
F4 K0 2.669531 1_556
F4 K3 2.675295 1_555
F4 K1 2.729270 1_555
F4 K2 2.740513 1_555
F5 Hf1 2.069791 1_555
F5 K1 2.669536 1_655
F5 K2 2.675291 1_555
F5 K0 2.729275 1_656
F5 K3 2.740510 1_555
F6 Hf0 2.030933 1_645
F6 K0 2.686166 1_555
F6 K3 2.755749 1_544
F6 K1 2.761896 1_555
F6 K2 3.070885 1_545
F7 Hf0 2.030915 1_545
F7 K1 2.686178 1_555
F7 K2 2.755758 1_545
F7 K0 2.761905 1_555
F7 K3 3.070894 1_544
F8 Hf1 2.030933 1_465
F8 K3 2.686166 1_555
F8 K0 2.755749 1_566
F8 K2 2.761896 1_555
F8 K1 3.070885 1_565
F9 Hf1 2.030915 1_565
F9 K2 2.686178 1_555
F9 K1 2.755758 1_565
F9 K3 2.761905 1_555
F9 K0 3.070894 1_566
F10 Hf0 2.069791 1_555
F10 K2 2.669536 1_455
F10 K1 2.675291 1_555
F10 K3 2.729275 1_454
F10 K0 2.740510 1_555
F11 Hf0 2.069795 1_555
F11 K3 2.669531 1_554
F11 K0 2.675295 1_555
F11 K2 2.729270 1_555
F11 K1 2.740513 1_555
