# generated using pymatgen
data_CaHfMg30O32
_symmetry_space_group_name_H-M   'P 1'
_cell_length_a   8.65620900
_cell_length_b   8.65620900
_cell_length_c   8.61486100
_cell_angle_alpha   90.00000000
_cell_angle_beta   90.00000000
_cell_angle_gamma   90.00000000
_symmetry_Int_Tables_number   1
_chemical_formula_structural   CaHfMg30O32
_chemical_formula_sum   'Ca1 Hf1 Mg30 O32'
_cell_volume   645.51114061
_cell_formula_units_Z   1
loop_
 _symmetry_equiv_pos_site_id
 _symmetry_equiv_pos_as_xyz
  1  'x, y, z'
loop_
 _atom_site_type_symbol
 _atom_site_label
 _atom_site_symmetry_multiplicity
 _atom_site_fract_x
 _atom_site_fract_y
 _atom_site_fract_z
 _atom_site_occupancy
  Ca  Ca0  1  0.00000000  0.00000000  0.00000000  1
  Hf  Hf0  1  0.50000000  0.50000000  0.00000000  1
  Mg  Mg0  1  0.50000000  0.00000000  0.00000000  1
  Mg  Mg1  1  0.00000000  0.50000000  0.00000000  1
  Mg  Mg2  1  0.00000000  0.00000000  0.50000000  1
  Mg  Mg3  1  0.50000000  0.00000000  0.50000000  1
  Mg  Mg4  1  0.00000000  0.50000000  0.50000000  1
  Mg  Mg5  1  0.50000000  0.50000000  0.50000000  1
  Mg  Mg6  1  0.24987400  0.24987400  0.00000000  1
  Mg  Mg7  1  0.75012600  0.24987400  0.00000000  1
  Mg  Mg8  1  0.24987400  0.75012600  0.00000000  1
  Mg  Mg9  1  0.75012600  0.75012600  0.00000000  1
  Mg  Mg10  1  0.24933700  0.24933700  0.50000000  1
  Mg  Mg11  1  0.75066300  0.24933700  0.50000000  1
  Mg  Mg12  1  0.24933700  0.75066300  0.50000000  1
  Mg  Mg13  1  0.75066300  0.75066300  0.50000000  1
  Mg  Mg14  1  0.25174000  0.00000000  0.25317600  1
  Mg  Mg15  1  0.74826000  0.00000000  0.25317600  1
  Mg  Mg16  1  0.24342600  0.50000000  0.25425700  1
  Mg  Mg17  1  0.75657400  0.50000000  0.25425700  1
  Mg  Mg18  1  0.25174000  0.00000000  0.74682400  1
  Mg  Mg19  1  0.74826000  0.00000000  0.74682400  1
  Mg  Mg20  1  0.24342600  0.50000000  0.74574300  1
  Mg  Mg21  1  0.75657400  0.50000000  0.74574300  1
  Mg  Mg22  1  0.00000000  0.25174000  0.25317600  1
  Mg  Mg23  1  0.50000000  0.24342600  0.25425700  1
  Mg  Mg24  1  0.00000000  0.74826000  0.25317600  1
  Mg  Mg25  1  0.50000000  0.75657400  0.25425700  1
  Mg  Mg26  1  0.00000000  0.25174000  0.74682400  1
  Mg  Mg27  1  0.50000000  0.24342600  0.74574300  1
  Mg  Mg28  1  0.00000000  0.74826000  0.74682400  1
  Mg  Mg29  1  0.50000000  0.75657400  0.74574300  1
  O  O0  1  0.00000000  0.00000000  0.26253500  1
  O  O1  1  0.50000000  0.00000000  0.25306900  1
  O  O2  1  0.00000000  0.50000000  0.25306900  1
  O  O3  1  0.50000000  0.50000000  0.24589100  1
  O  O4  1  0.00000000  0.00000000  0.73746500  1
  O  O5  1  0.50000000  0.00000000  0.74693100  1
  O  O6  1  0.00000000  0.50000000  0.74693100  1
  O  O7  1  0.50000000  0.50000000  0.75410900  1
  O  O8  1  0.25053400  0.25053400  0.24996500  1
  O  O9  1  0.74946600  0.25053400  0.24996500  1
  O  O10  1  0.25053400  0.74946600  0.24996500  1
  O  O11  1  0.74946600  0.74946600  0.24996500  1
  O  O12  1  0.25053400  0.25053400  0.75003500  1
  O  O13  1  0.74946600  0.25053400  0.75003500  1
  O  O14  1  0.25053400  0.74946600  0.75003500  1
  O  O15  1  0.74946600  0.74946600  0.75003500  1
  O  O16  1  0.26162900  0.00000000  0.00000000  1
  O  O17  1  0.73837100  0.00000000  0.00000000  1
  O  O18  1  0.24429100  0.50000000  0.00000000  1
  O  O19  1  0.75570900  0.50000000  0.00000000  1
  O  O20  1  0.25269600  0.00000000  0.50000000  1
  O  O21  1  0.74730400  0.00000000  0.50000000  1
  O  O22  1  0.25197700  0.50000000  0.50000000  1
  O  O23  1  0.74802300  0.50000000  0.50000000  1
  O  O24  1  0.00000000  0.26162900  0.00000000  1
  O  O25  1  0.50000000  0.24429100  0.00000000  1
  O  O26  1  0.00000000  0.73837100  0.00000000  1
  O  O27  1  0.50000000  0.75570900  0.00000000  1
  O  O28  1  0.00000000  0.25269600  0.50000000  1
  O  O29  1  0.50000000  0.25197700  0.50000000  1
  O  O30  1  0.00000000  0.74730400  0.50000000  1
  O  O31  1  0.50000000  0.74802300  0.50000000  1
loop_
_geom_bond_atom_site_label_1
_geom_bond_atom_site_label_2
_geom_bond_distance
_geom_bond_site_symmetry_2
Ca0 O0 2.261703 1_555
Ca0 O4 2.261703 1_554
Ca0 O26 2.264715 1_545
Ca0 O24 2.264715 1_555
Ca0 O16 2.264715 1_555
Ca0 O17 2.264715 1_455
Hf0 O3 2.118317 1_555
Hf0 O7 2.118317 1_554
Hf0 O27 2.213471 1_555
Hf0 O19 2.213471 1_555
Hf0 O18 2.213471 1_555
Hf0 O25 2.213471 1_555
Mg0 O17 2.063389 1_555
Mg0 O16 2.063389 1_555
Mg0 O25 2.114634 1_555
Mg0 O27 2.114634 1_545
Mg0 O1 2.180154 1_555
Mg0 O5 2.180154 1_554
Mg1 O26 2.063389 1_555
Mg1 O24 2.063389 1_555
Mg1 O18 2.114634 1_555
Mg1 O19 2.114634 1_455
Mg1 O6 2.180154 1_554
Mg1 O2 2.180154 1_555
Mg2 O4 2.045728 1_555
Mg2 O0 2.045728 1_555
Mg2 O20 2.187389 1_555
Mg2 O28 2.187389 1_555
Mg2 O30 2.187389 1_545
Mg2 O21 2.187389 1_455
Mg3 O5 2.127276 1_555
Mg3 O1 2.127276 1_555
Mg3 O21 2.140715 1_555
Mg3 O20 2.140715 1_555
Mg3 O31 2.181166 1_545
Mg3 O29 2.181166 1_555
Mg4 O2 2.127276 1_555
Mg4 O6 2.127276 1_555
Mg4 O30 2.140715 1_555
Mg4 O28 2.140715 1_555
Mg4 O23 2.181166 1_455
Mg4 O22 2.181166 1_555
Mg5 O31 2.146939 1_555
Mg5 O22 2.146939 1_555
Mg5 O23 2.146939 1_555
Mg5 O29 2.146939 1_555
Mg5 O7 2.189114 1_555
Mg5 O3 2.189114 1_555
Mg6 O8 2.153429 1_555
Mg6 O12 2.153429 1_554
Mg6 O24 2.165354 1_555
Mg6 O16 2.165354 1_555
Mg6 O25 2.165682 1_555
Mg6 O18 2.165682 1_555
Mg7 O13 2.153429 1_554
Mg7 O9 2.153429 1_555
Mg7 O17 2.165354 1_555
Mg7 O24 2.165354 1_655
Mg7 O25 2.165682 1_555
Mg7 O19 2.165682 1_555
Mg8 O10 2.153429 1_555
Mg8 O14 2.153429 1_554
Mg8 O26 2.165354 1_555
Mg8 O16 2.165354 1_565
Mg8 O18 2.165682 1_555
Mg8 O27 2.165682 1_555
Mg9 O15 2.153429 1_554
Mg9 O11 2.153429 1_555
Mg9 O17 2.165354 1_565
Mg9 O26 2.165354 1_655
Mg9 O27 2.165682 1_555
Mg9 O19 2.165682 1_555
Mg10 O8 2.154067 1_555
Mg10 O12 2.154067 1_555
Mg10 O20 2.158509 1_555
Mg10 O28 2.158509 1_555
Mg10 O29 2.169912 1_555
Mg10 O22 2.169912 1_555
Mg11 O9 2.154067 1_555
Mg11 O13 2.154067 1_555
Mg11 O21 2.158509 1_555
Mg11 O28 2.158509 1_655
Mg11 O29 2.169912 1_555
Mg11 O23 2.169912 1_555
Mg12 O10 2.154067 1_555
Mg12 O14 2.154067 1_555
Mg12 O30 2.158509 1_555
Mg12 O20 2.158509 1_565
Mg12 O22 2.169912 1_555
Mg12 O31 2.169912 1_555
Mg13 O11 2.154067 1_555
Mg13 O15 2.154067 1_555
Mg13 O21 2.158509 1_565
Mg13 O30 2.158509 1_655
Mg13 O31 2.169912 1_555
Mg13 O23 2.169912 1_555
Mg14 O20 2.126371 1_555
Mg14 O1 2.148991 1_555
Mg14 O8 2.168876 1_555
Mg14 O10 2.168876 1_545
Mg14 O0 2.180605 1_555
Mg14 O16 2.182755 1_555
Mg15 O21 2.126371 1_555
Mg15 O1 2.148991 1_555
Mg15 O9 2.168876 1_555
Mg15 O11 2.168876 1_545
Mg15 O0 2.180605 1_655
Mg15 O17 2.182755 1_555
Mg16 O2 2.107171 1_555
Mg16 O22 2.118335 1_555
Mg16 O10 2.160623 1_555
Mg16 O8 2.160623 1_555
Mg16 O18 2.190402 1_555
Mg16 O3 2.222127 1_555
Mg17 O2 2.107171 1_655
Mg17 O23 2.118335 1_555
Mg17 O11 2.160623 1_555
Mg17 O9 2.160623 1_555
Mg17 O19 2.190402 1_555
Mg17 O3 2.222127 1_555
Mg18 O20 2.126371 1_555
Mg18 O5 2.148991 1_555
Mg18 O12 2.168876 1_555
Mg18 O14 2.168876 1_545
Mg18 O4 2.180605 1_555
Mg18 O16 2.182755 1_556
Mg19 O21 2.126371 1_555
Mg19 O5 2.148991 1_555
Mg19 O13 2.168876 1_555
Mg19 O15 2.168876 1_545
Mg19 O4 2.180605 1_655
Mg19 O17 2.182755 1_556
Mg20 O6 2.107171 1_555
Mg20 O22 2.118335 1_555
Mg20 O14 2.160623 1_555
Mg20 O12 2.160623 1_555
Mg20 O18 2.190402 1_556
Mg20 O7 2.222127 1_555
Mg21 O6 2.107171 1_655
Mg21 O23 2.118335 1_555
Mg21 O15 2.160623 1_555
Mg21 O13 2.160623 1_555
Mg21 O19 2.190402 1_556
Mg21 O7 2.222127 1_555
Mg22 O28 2.126371 1_555
Mg22 O2 2.148991 1_555
Mg22 O8 2.168876 1_555
Mg22 O9 2.168876 1_455
Mg22 O0 2.180605 1_555
Mg22 O24 2.182755 1_555
Mg23 O1 2.107171 1_555
Mg23 O29 2.118335 1_555
Mg23 O9 2.160623 1_555
Mg23 O8 2.160623 1_555
Mg23 O25 2.190402 1_555
Mg23 O3 2.222127 1_555
Mg24 O30 2.126371 1_555
Mg24 O2 2.148991 1_555
Mg24 O10 2.168876 1_555
Mg24 O11 2.168876 1_455
Mg24 O0 2.180605 1_565
Mg24 O26 2.182755 1_555
Mg25 O1 2.107171 1_565
Mg25 O31 2.118335 1_555
Mg25 O11 2.160623 1_555
Mg25 O10 2.160623 1_555
Mg25 O27 2.190402 1_555
Mg25 O3 2.222127 1_555
Mg26 O28 2.126371 1_555
Mg26 O6 2.148991 1_555
Mg26 O12 2.168876 1_555
Mg26 O13 2.168876 1_455
Mg26 O4 2.180605 1_555
Mg26 O24 2.182755 1_556
Mg27 O5 2.107171 1_555
Mg27 O29 2.118335 1_555
Mg27 O13 2.160623 1_555
Mg27 O12 2.160623 1_555
Mg27 O25 2.190402 1_556
Mg27 O7 2.222127 1_555
Mg28 O30 2.126371 1_555
Mg28 O6 2.148991 1_555
Mg28 O14 2.168876 1_555
Mg28 O15 2.168876 1_455
Mg28 O4 2.180605 1_565
Mg28 O26 2.182755 1_556
Mg29 O5 2.107171 1_565
Mg29 O31 2.118335 1_555
Mg29 O15 2.160623 1_555
Mg29 O14 2.160623 1_555
Mg29 O27 2.190402 1_556
Mg29 O7 2.222127 1_555
