# generated using pymatgen
data_YMg14Cd
_symmetry_space_group_name_H-M   'P 1'
_cell_length_a   6.47005444
_cell_length_b   6.44021036
_cell_length_c   10.39566108
_cell_angle_alpha   90.00000000
_cell_angle_beta   90.00000000
_cell_angle_gamma   119.84753733
_symmetry_Int_Tables_number   1
_chemical_formula_structural   YMg14Cd
_chemical_formula_sum   'Y1 Mg14 Cd1'
_cell_volume   375.71271838
_cell_formula_units_Z   1
loop_
 _symmetry_equiv_pos_site_id
 _symmetry_equiv_pos_as_xyz
  1  'x, y, z'
loop_
 _atom_site_type_symbol
 _atom_site_label
 _atom_site_symmetry_multiplicity
 _atom_site_fract_x
 _atom_site_fract_y
 _atom_site_fract_z
 _atom_site_occupancy
  Y  Y0  1  0.16378440  0.33189170  0.12500000  1
  Mg  Mg0  1  0.16705821  0.33352861  0.62500000  1
  Mg  Mg1  1  0.16609544  0.83304722  0.62500000  1
  Mg  Mg2  1  0.66166073  0.32305150  0.12500000  1
  Mg  Mg3  1  0.66665875  0.33422258  0.62500000  1
  Mg  Mg4  1  0.66166073  0.83860823  0.12500000  1
  Mg  Mg5  1  0.66665875  0.83243517  0.62500000  1
  Mg  Mg6  1  0.33418218  0.16613297  0.37843644  1
  Mg  Mg7  1  0.33418218  0.16613297  0.87156356  1
  Mg  Mg8  1  0.33418218  0.66805021  0.37843644  1
  Mg  Mg9  1  0.33418218  0.66805021  0.87156356  1
  Mg  Mg10  1  0.83202745  0.16601422  0.37984015  1
  Mg  Mg11  1  0.83202745  0.16601422  0.87015985  1
  Mg  Mg12  1  0.83378253  0.66689177  0.37092974  1
  Mg  Mg13  1  0.83378253  0.66689177  0.87907026  1
  Cd  Cd0  1  0.17807431  0.83903666  0.12500000  1
loop_
_geom_bond_atom_site_label_1
_geom_bond_atom_site_label_2
_geom_bond_distance
_geom_bond_site_symmetry_2
Mg0 Mg11 3.167057 1_455
Mg0 Mg10 3.167057 1_455
Mg0 Mg6 3.172021 1_555
Mg0 Mg7 3.172021 1_555
Mg0 Mg8 3.172027 1_555
Mg0 Mg9 3.172027 1_555
Mg0 Mg1 3.220110 1_555
Mg0 Mg1 3.220110 1_545
Mg0 Mg5 3.230220 1_555
Mg0 Mg3 3.230221 1_555
Mg0 Mg5 3.239838 1_445
Mg0 Mg3 3.239838 1_455
Mg1 Mg9 3.167352 1_555
Mg1 Mg8 3.167352 1_555
Mg1 Mg7 3.167359 1_565
Mg1 Mg6 3.167359 1_565
Mg1 Mg3 3.229422 1_455
Mg1 Mg5 3.229423 1_455
Mg1 Mg13 3.233244 1_455
Mg1 Mg12 3.233244 1_455
Mg1 Mg3 3.240635 1_565
Mg1 Mg5 3.240635 1_555
Mg2 Mg4 3.119917 1_545
Mg2 Mg7 3.212566 1_554
Mg2 Mg6 3.212566 1_555
Mg2 Y0 3.220811 1_655
Mg2 Y0 3.249997 1_555
Mg2 Mg4 3.320294 1_555
Mg3 Mg6 3.170378 1_555
Mg3 Mg7 3.170378 1_555
Mg3 Mg5 3.208594 1_555
Mg3 Mg5 3.231616 1_545
Mg4 Mg8 3.212566 1_555
Mg4 Mg9 3.212566 1_554
Mg4 Y0 3.220811 1_665
Mg4 Y0 3.249997 1_555
Mg5 Mg9 3.170378 1_555
Mg5 Mg8 3.170378 1_555
Mg6 Mg8 3.207758 1_545
Mg6 Mg8 3.232453 1_555
Mg6 Y0 3.235412 1_555
Mg7 Mg9 3.207758 1_545
Mg7 Mg9 3.232453 1_555
Mg7 Y0 3.235412 1_556
Mg8 Y0 3.235418 1_555
Mg9 Y0 3.235418 1_556
Mg10 Mg3 3.157118 1_555
Mg10 Mg5 3.157124 1_545
Mg10 Mg2 3.219619 1_555
Mg10 Mg4 3.219625 1_545
Mg10 Mg12 3.221452 1_545
Mg10 Mg12 3.221452 1_555
Mg10 Mg8 3.221499 1_545
Mg10 Mg6 3.221500 1_555
Mg10 Y0 3.237990 1_655
Mg10 Mg8 3.248620 1_655
Mg10 Mg6 3.248621 1_655
Mg11 Mg3 3.157118 1_555
Mg11 Mg5 3.157124 1_545
Mg11 Mg2 3.219619 1_556
Mg11 Mg4 3.219625 1_546
Mg11 Mg13 3.221452 1_545
Mg11 Mg13 3.221452 1_555
Mg11 Mg9 3.221499 1_545
Mg11 Mg7 3.221500 1_555
Mg11 Y0 3.237990 1_656
Mg11 Mg9 3.248620 1_655
Mg11 Mg7 3.248621 1_655
Mg12 Mg4 3.197699 1_555
Mg12 Mg2 3.197705 1_555
Mg12 Mg5 3.229463 1_555
Mg12 Mg3 3.229470 1_555
Mg12 Mg6 3.234847 1_665
Mg12 Mg8 3.234848 1_655
Mg12 Mg6 3.237102 1_555
Mg12 Mg8 3.237102 1_555
Mg13 Mg4 3.197699 1_556
Mg13 Mg2 3.197705 1_556
Mg13 Mg5 3.229463 1_555
Mg13 Mg3 3.229470 1_555
Mg13 Mg7 3.234847 1_665
Mg13 Mg9 3.234848 1_655
Mg13 Mg7 3.237102 1_555
Mg13 Mg9 3.237102 1_555
Cd0 Mg2 3.130204 1_565
Cd0 Mg4 3.130205 1_555
Cd0 Mg12 3.204565 1_455
Cd0 Mg13 3.204565 1_454
Cd0 Mg8 3.206430 1_555
Cd0 Mg9 3.206430 1_554
Cd0 Mg7 3.206436 1_564
Cd0 Mg6 3.206436 1_565
Cd0 Y0 3.221104 1_565
Cd0 Y0 3.221104 1_555
Cd0 Mg2 3.339851 1_455
Cd0 Mg4 3.339852 1_455
