# generated using pymatgen
data_CoSnN2
_symmetry_space_group_name_H-M   'P 1'
_cell_length_a   5.67431900
_cell_length_b   6.76316400
_cell_length_c   5.51892500
_cell_angle_alpha   90.00000000
_cell_angle_beta   90.00000000
_cell_angle_gamma   90.00000000
_symmetry_Int_Tables_number   1
_chemical_formula_structural   CoSnN2
_chemical_formula_sum   'Co4 Sn4 N8'
_cell_volume   211.79619734
_cell_formula_units_Z   4
loop_
 _symmetry_equiv_pos_site_id
 _symmetry_equiv_pos_as_xyz
  1  'x, y, z'
loop_
 _atom_site_type_symbol
 _atom_site_label
 _atom_site_symmetry_multiplicity
 _atom_site_fract_x
 _atom_site_fract_y
 _atom_site_fract_z
 _atom_site_occupancy
  Co  Co0  1  0.57059700  0.87255400  0.99759300  1
  Co  Co1  1  0.42940300  0.12744600  0.49759300  1
  Co  Co2  1  0.92940300  0.37255400  0.49759300  1
  Co  Co3  1  0.07059700  0.62744600  0.99759300  1
  Sn  Sn0  1  0.58731500  0.37213500  0.00379300  1
  Sn  Sn1  1  0.41268500  0.62786500  0.50379300  1
  Sn  Sn2  1  0.91268500  0.87213500  0.50379300  1
  Sn  Sn3  1  0.08731500  0.12786500  0.00379300  1
  N  N0  1  0.60816100  0.35238200  0.41007900  1
  N  N1  1  0.39183900  0.64761800  0.91007900  1
  N  N2  1  0.89183900  0.85238200  0.91007900  1
  N  N3  1  0.10816100  0.14761800  0.41007900  1
  N  N4  1  0.56230700  0.90553900  0.33853600  1
  N  N5  1  0.43769300  0.09446100  0.83853600  1
  N  N6  1  0.93769300  0.40553900  0.83853600  1
  N  N7  1  0.06230700  0.59446100  0.33853600  1
loop_
_geom_bond_atom_site_label_1
_geom_bond_atom_site_label_2
_geom_bond_distance
_geom_bond_site_symmetry_2
Co0 N2 1.890659 1_555
Co0 N1 1.891145 1_555
Co0 N5 1.895173 1_565
Co0 N4 1.895401 1_556
Co1 N3 1.890659 1_555
Co1 N0 1.891145 1_555
Co1 N4 1.895173 1_545
Co1 N5 1.895401 1_555
Co2 N0 1.890659 1_555
Co2 N3 1.891145 1_655
Co2 N7 1.895173 1_655
Co2 N6 1.895401 1_555
Co3 N1 1.890659 1_555
Co3 N2 1.891145 1_455
Co3 N6 1.895173 1_455
Co3 N7 1.895401 1_556
N0 Sn1 2.229144 1_555
N0 Sn0 2.249350 1_555
N1 Sn0 2.229144 1_556
N1 Sn1 2.249350 1_555
N2 Sn3 2.229144 1_666
N2 Sn2 2.249350 1_555
N3 Sn2 2.229144 1_445
N3 Sn3 2.249350 1_555
N4 Sn2 2.199005 1_555
N4 Sn1 2.253739 1_555
N5 Sn3 2.199005 1_556
N5 Sn0 2.253739 1_556
N6 Sn0 2.199005 1_556
N6 Sn3 2.253739 1_656
N7 Sn1 2.199005 1_555
N7 Sn2 2.253739 1_455
