# generated using pymatgen
data_La2MgMnO6
_symmetry_space_group_name_H-M   'P 1'
_cell_length_a   7.84088888
_cell_length_b   7.84088980
_cell_length_c   9.48833973
_cell_angle_alpha   113.29825935
_cell_angle_beta   66.70173657
_cell_angle_gamma   89.18330791
_symmetry_Int_Tables_number   1
_chemical_formula_structural   La2MgMnO6
_chemical_formula_sum   'La8 Mg4 Mn4 O24'
_cell_volume   481.90599960
_cell_formula_units_Z   4
loop_
 _symmetry_equiv_pos_site_id
 _symmetry_equiv_pos_as_xyz
  1  'x, y, z'
loop_
 _atom_site_type_symbol
 _atom_site_label
 _atom_site_symmetry_multiplicity
 _atom_site_fract_x
 _atom_site_fract_y
 _atom_site_fract_z
 _atom_site_occupancy
  La  La0  1  0.87545300  0.12454700  0.75090500  1
  La  La1  1  0.12545300  0.37454700  0.25090500  1
  La  La2  1  0.37545300  0.62454700  0.75090500  1
  La  La3  1  0.62545300  0.87454700  0.25090500  1
  La  La4  1  0.62454700  0.37545300  0.24909500  1
  La  La5  1  0.87454700  0.62545300  0.74909500  1
  La  La6  1  0.12454700  0.87545300  0.24909500  1
  La  La7  1  0.37454700  0.12545300  0.74909500  1
  Mg  Mg0  1  0.75000000  0.25000000  0.50000000  1
  Mg  Mg1  1  0.00000000  0.50000000  0.00000000  1
  Mg  Mg2  1  0.25000000  0.75000000  0.50000000  1
  Mg  Mg3  1  0.50000000  0.00000000  0.00000000  1
  Mn  Mn0  1  0.50000000  0.50000000  0.00000000  1
  Mn  Mn1  1  0.75000000  0.75000000  0.50000000  1
  Mn  Mn2  1  0.00000000  0.00000000  0.00000000  1
  Mn  Mn3  1  0.25000000  0.25000000  0.50000000  1
  O  O0  1  0.84748600  0.08530700  0.24146900  1
  O  O1  1  0.09748600  0.33530700  0.74146900  1
  O  O2  1  0.34748600  0.58530700  0.24146900  1
  O  O3  1  0.59748600  0.83530700  0.74146900  1
  O  O4  1  0.47375500  0.29949300  0.53542700  1
  O  O5  1  0.72375500  0.54949300  0.03542700  1
  O  O6  1  0.97375500  0.79949300  0.53542700  1
  O  O7  1  0.22375500  0.04949300  0.03542700  1
  O  O8  1  0.80131700  0.49264200  0.46822000  1
  O  O9  1  0.05131700  0.74264200  0.96822000  1
  O  O10  1  0.30131700  0.99264200  0.46822000  1
  O  O11  1  0.55131700  0.24264200  0.96822000  1
  O  O12  1  0.65251400  0.41469300  0.75853100  1
  O  O13  1  0.90251400  0.66469300  0.25853100  1
  O  O14  1  0.15251400  0.91469300  0.75853100  1
  O  O15  1  0.40251400  0.16469300  0.25853100  1
  O  O16  1  0.69868300  0.00735800  0.53178000  1
  O  O17  1  0.94868300  0.25735800  0.03178000  1
  O  O18  1  0.19868300  0.50735800  0.53178000  1
  O  O19  1  0.44868300  0.75735800  0.03178000  1
  O  O20  1  0.02624500  0.20050700  0.46457300  1
  O  O21  1  0.27624500  0.45050700  0.96457300  1
  O  O22  1  0.52624500  0.70050700  0.46457300  1
  O  O23  1  0.77624500  0.95050700  0.96457300  1
loop_
_geom_bond_atom_site_label_1
_geom_bond_atom_site_label_2
_geom_bond_distance
_geom_bond_site_symmetry_2
La0 O1 2.417754 1_655
La0 O6 2.417755 1_545
La0 O11 2.417757 1_555
La0 O14 2.747486 1_645
La0 O23 2.747491 1_545
La0 O17 2.747495 1_556
La0 O16 2.809420 1_555
La0 O20 2.809421 1_655
La0 O12 2.809427 1_555
La1 O2 2.417754 1_555
La1 O7 2.417755 1_555
La1 O8 2.417757 1_455
La1 O15 2.747486 1_555
La1 O20 2.747491 1_555
La1 O18 2.747495 1_555
La1 O17 2.809420 1_455
La1 O21 2.809421 1_554
La1 O13 2.809427 1_455
La2 O3 2.417754 1_555
La2 O4 2.417755 1_555
La2 O9 2.417757 1_555
La2 O12 2.747486 1_555
La2 O21 2.747491 1_555
La2 O19 2.747495 1_556
La2 O18 2.809420 1_555
La2 O22 2.809421 1_555
La2 O14 2.809427 1_555
La3 O0 2.417754 1_565
La3 O5 2.417755 1_555
La3 O10 2.417757 1_555
La3 O13 2.747486 1_555
La3 O22 2.747491 1_555
La3 O16 2.747495 1_565
La3 O19 2.809420 1_555
La3 O23 2.809421 1_554
La3 O15 2.809427 1_565
La4 O15 2.417754 1_555
La4 O22 2.417755 1_555
La4 O17 2.417757 1_555
La4 O2 2.747486 1_555
La4 O5 2.747491 1_555
La4 O11 2.747495 1_554
La4 O8 2.809420 1_555
La4 O4 2.809421 1_555
La4 O0 2.809427 1_555
La5 O12 2.417754 1_555
La5 O23 2.417755 1_555
La5 O18 2.417757 1_655
La5 O3 2.747486 1_555
La5 O6 2.747491 1_555
La5 O8 2.747495 1_555
La5 O9 2.809420 1_655
La5 O5 2.809421 1_556
La5 O1 2.809427 1_655
La6 O13 2.417754 1_455
La6 O20 2.417755 1_565
La6 O19 2.417757 1_555
La6 O0 2.747486 1_465
La6 O7 2.747491 1_565
La6 O9 2.747495 1_554
La6 O10 2.809420 1_555
La6 O6 2.809421 1_455
La6 O2 2.809427 1_555
La7 O14 2.417754 1_545
La7 O21 2.417755 1_555
La7 O16 2.417757 1_555
La7 O1 2.747486 1_555
La7 O4 2.747491 1_555
La7 O10 2.747495 1_545
La7 O11 2.809420 1_555
La7 O7 2.809421 1_556
La7 O3 2.809427 1_545
Mg0 O12 2.062054 1_555
Mg0 O0 2.062054 1_555
Mg0 O20 2.062057 1_655
Mg0 O4 2.062057 1_555
Mg0 O8 2.062062 1_555
Mg0 O16 2.062062 1_555
Mg1 O13 2.062054 1_455
Mg1 O1 2.062054 1_554
Mg1 O21 2.062057 1_554
Mg1 O5 2.062057 1_455
Mg1 O9 2.062062 1_554
Mg1 O17 2.062062 1_455
Mg2 O14 2.062054 1_555
Mg2 O2 2.062054 1_555
Mg2 O22 2.062057 1_555
Mg2 O6 2.062057 1_455
Mg2 O10 2.062062 1_555
Mg2 O18 2.062062 1_555
Mg3 O15 2.062054 1_555
Mg3 O3 2.062054 1_544
Mg3 O23 2.062057 1_544
Mg3 O7 2.062057 1_555
Mg3 O11 2.062062 1_554
Mg3 O19 2.062062 1_545
Mn0 O19 1.929860 1_555
Mn0 O11 1.929860 1_554
Mn0 O5 1.929863 1_555
Mn0 O21 1.929863 1_554
Mn0 O12 1.929867 1_554
Mn0 O2 1.929867 1_555
Mn1 O16 1.929860 1_565
Mn1 O8 1.929860 1_555
Mn1 O6 1.929863 1_555
Mn1 O22 1.929863 1_555
Mn1 O3 1.929867 1_555
Mn1 O13 1.929867 1_555
Mn2 O17 1.929860 1_455
Mn2 O9 1.929860 1_544
Mn2 O7 1.929863 1_555
Mn2 O23 1.929863 1_444
Mn2 O14 1.929867 1_544
Mn2 O0 1.929867 1_455
Mn3 O18 1.929860 1_555
Mn3 O10 1.929860 1_545
Mn3 O4 1.929863 1_555
Mn3 O20 1.929863 1_555
Mn3 O1 1.929867 1_555
Mn3 O15 1.929867 1_555
