# generated using pymatgen
data_NaMn3V4O12
_symmetry_space_group_name_H-M   'P 1'
_cell_length_a   6.49743689
_cell_length_b   6.49852399
_cell_length_c   6.43700534
_cell_angle_alpha   70.70962511
_cell_angle_beta   70.74388619
_cell_angle_gamma   109.67586646
_symmetry_Int_Tables_number   1
_chemical_formula_structural   NaMn3V4O12
_chemical_formula_sum   'Na1 Mn3 V4 O12'
_cell_volume   209.71742434
_cell_formula_units_Z   1
loop_
 _symmetry_equiv_pos_site_id
 _symmetry_equiv_pos_as_xyz
  1  'x, y, z'
loop_
 _atom_site_type_symbol
 _atom_site_label
 _atom_site_symmetry_multiplicity
 _atom_site_fract_x
 _atom_site_fract_y
 _atom_site_fract_z
 _atom_site_occupancy
  Na  Na0  1  0.00000300  0.00000100  0.99999900  1
  Mn  Mn0  1  0.50001000  0.00002400  0.49997400  1
  Mn  Mn1  1  0.49994600  0.49999800  0.00004300  1
  Mn  Mn2  1  0.99997500  0.49995700  0.50000100  1
  V  V0  1  0.99999600  0.99998600  0.50000500  1
  V  V1  1  0.00000300  0.50000600  0.99998800  1
  V  V2  1  0.50001700  0.50001000  0.50000600  1
  V  V3  1  0.50000600  0.00001100  0.99999600  1
  O  O0  1  0.11882600  0.80687100  0.70003800  1
  O  O1  1  0.49247300  0.18625400  0.69028900  1
  O  O2  1  0.50753400  0.81374900  0.30970800  1
  O  O3  1  0.88118400  0.19313400  0.29996100  1
  O  O4  1  0.68793900  0.88095000  0.81899300  1
  O  O5  1  0.69370400  0.50750600  0.18255800  1
  O  O6  1  0.30629800  0.49249500  0.81744600  1
  O  O7  1  0.31206400  0.11905500  0.18100900  1
  O  O8  1  0.19329900  0.31197100  0.50696400  1
  O  O9  1  0.81372600  0.30614800  0.87660700  1
  O  O10  1  0.18628300  0.69385000  0.12338900  1
  O  O11  1  0.80671400  0.68802400  0.49302600  1
loop_
_geom_bond_atom_site_label_1
_geom_bond_atom_site_label_2
_geom_bond_distance
_geom_bond_site_symmetry_2
Na0 O4 2.676710 1_445
Na0 O11 2.676715 1_446
Na0 O7 2.676718 1_556
Na0 O8 2.676737 1_555
Na0 O0 2.677647 1_545
Na0 O3 2.677662 1_456
Na0 O9 2.695439 1_455
Na0 O10 2.695473 1_546
Na0 O6 2.695941 1_555
Na0 O5 2.695943 1_446
Na0 O2 2.695964 1_446
Na0 O1 2.695969 1_555
Mn0 O2 1.986866 1_545
Mn0 O1 1.986883 1_555
Mn0 O3 2.025500 1_555
Mn0 O0 2.025560 1_545
Mn1 O6 1.984690 1_554
Mn1 O5 1.984850 1_555
Mn1 O7 2.024180 1_555
Mn1 O4 2.024215 1_554
Mn2 O9 1.987182 1_555
Mn2 O10 1.987225 1_655
Mn2 O8 2.026449 1_655
Mn2 O11 2.026534 1_555
O0 V1 1.933074 1_555
O0 V0 2.017317 1_455
O1 V2 1.975605 1_555
O1 V3 1.987881 1_555
O2 V2 1.975633 1_555
O2 V3 1.987924 1_564
O3 V1 1.933185 1_654
O3 V0 2.017378 1_545
O4 V3 1.934068 1_565
O4 V0 2.018398 1_555
O5 V1 1.976035 1_654
O5 V2 1.989584 1_555
O6 V1 1.976005 1_555
O6 V2 1.989537 1_555
O7 V3 1.934046 1_554
O7 V0 2.018403 1_445
O8 V2 1.931807 1_555
O8 V0 2.018010 1_445
O9 V3 1.975106 1_555
O9 V1 1.987720 1_655
O10 V3 1.975192 1_564
O10 V1 1.987784 1_554
O11 V2 1.931577 1_555
O11 V0 2.017922 1_555
