# generated using pymatgen
data_Li4V3Cu3(WO8)2
_symmetry_space_group_name_H-M   'P 1'
_cell_length_a   5.91583000
_cell_length_b   5.96266777
_cell_length_c   9.94760092
_cell_angle_alpha   92.26314928
_cell_angle_beta   89.94513253
_cell_angle_gamma   119.60786610
_symmetry_Int_Tables_number   1
_chemical_formula_structural   Li4V3Cu3(WO8)2
_chemical_formula_sum   'Li4 V3 Cu3 W2 O16'
_cell_volume   304.76837120
_cell_formula_units_Z   1
loop_
 _symmetry_equiv_pos_site_id
 _symmetry_equiv_pos_as_xyz
  1  'x, y, z'
loop_
 _atom_site_type_symbol
 _atom_site_label
 _atom_site_symmetry_multiplicity
 _atom_site_fract_x
 _atom_site_fract_y
 _atom_site_fract_z
 _atom_site_occupancy
  Li  Li0  1  0.66629700  0.33350800  0.08905900  1
  Li  Li1  1  0.99588100  0.98957200  0.01082000  1
  Li  Li2  1  0.99723600  0.99472500  0.52121500  1
  Li  Li3  1  0.34211600  0.68743400  0.59013000  1
  V  V0  1  0.82598400  0.65108300  0.77250500  1
  V  V1  1  0.65808300  0.82126000  0.28403600  1
  V  V2  1  0.16345400  0.81568000  0.28012800  1
  Cu  Cu0  1  0.81995500  0.16320100  0.79265500  1
  Cu  Cu1  1  0.34239000  0.16237200  0.79299900  1
  Cu  Cu2  1  0.16942700  0.33846600  0.29197600  1
  W  W0  1  0.66485300  0.33042400  0.51112600  1
  W  W1  1  0.33001400  0.65610700  0.01031100  1
  O  O0  1  0.81941200  0.15540100  0.41514600  1
  O  O1  1  0.53117600  0.06151300  0.64163300  1
  O  O2  1  0.68065900  0.36295300  0.88097400  1
  O  O3  1  0.99515300  0.99000500  0.71393500  1
  O  O4  1  0.01034600  0.99406100  0.20174100  1
  O  O5  1  0.33833600  0.15841300  0.41579000  1
  O  O6  1  0.97476100  0.52229700  0.63658200  1
  O  O7  1  0.54825400  0.52415100  0.63540000  1
  O  O8  1  0.16195100  0.32654100  0.92871500  1
  O  O9  1  0.83092500  0.64879300  0.39772400  1
  O  O10  1  0.49830700  0.53640500  0.14902900  1
  O  O11  1  0.03488700  0.53324300  0.15102400  1
  O  O12  1  0.33037500  0.68557800  0.38844700  1
  O  O13  1  0.64350500  0.80034800  0.91521600  1
  O  O14  1  0.47128100  0.95912100  0.15748700  1
  O  O15  1  0.15528100  0.79734400  0.91635900  1
loop_
_geom_bond_atom_site_label_1
_geom_bond_atom_site_label_2
_geom_bond_distance
_geom_bond_site_symmetry_2
Li0 O11 1.982806 1_655
Li0 O10 1.984199 1_555
Li0 O2 2.082390 1_554
Li0 O14 2.085994 1_545
Li1 O4 1.899751 1_655
Li1 O8 1.961339 1_664
Li1 O15 2.016724 1_654
Li1 O13 2.029285 1_554
Li2 O3 1.918358 1_555
Li2 O0 2.053212 1_565
Li2 O5 2.062765 1_665
Li2 O9 2.128049 1_555
Li3 O6 1.955882 1_455
Li3 O7 1.961297 1_555
Li3 O1 1.983519 1_565
Li3 O12 2.006935 1_555
Cu0 O3 1.935488 1_545
Cu0 O2 1.937871 1_555
Cu0 O1 2.110100 1_555
Cu0 O8 2.197229 1_655
Cu0 O13 2.287216 1_545
Cu0 O6 2.481118 1_555
Cu1 O3 1.935897 1_445
Cu1 O2 1.938197 1_555
Cu1 O1 2.113083 1_555
Cu1 O8 2.201284 1_555
Cu1 O15 2.301340 1_545
Cu1 O7 2.502369 1_555
Cu2 O4 1.963397 1_545
Cu2 O12 2.002212 1_555
Cu2 O5 2.198835 1_555
Cu2 O0 2.201734 1_455
Cu2 O11 2.234374 1_555
Cu2 O10 2.249133 1_555
O0 W0 1.923340 1_555
O0 V1 2.121241 1_545
O1 W0 1.947114 1_555
O2 V0 1.881524 1_555
O3 V0 1.875743 1_555
O4 V2 1.891702 1_555
O4 V1 2.004052 1_455
O5 W0 1.910905 1_555
O5 V2 2.182557 1_545
O6 V0 1.943214 1_555
O6 W0 2.011622 1_555
O7 V0 1.956129 1_555
O7 W0 2.002820 1_555
O8 W1 1.858477 1_556
O9 W0 2.040971 1_555
O9 V2 2.093251 1_655
O9 V1 2.124880 1_555
O10 V1 1.953934 1_555
O10 W1 2.046305 1_555
O11 V2 1.905087 1_555
O11 W1 2.087271 1_555
O12 V2 1.887575 1_555
O12 V1 2.001105 1_555
O13 W1 1.886467 1_556
O13 V0 2.195334 1_555
O14 V2 2.018722 1_555
O14 W1 2.099452 1_555
O14 V1 2.112740 1_555
O15 W1 1.890872 1_556
O15 V0 2.198028 1_455
