# generated using pymatgen
data_Ba4VN4
_symmetry_space_group_name_H-M   'P 1'
_cell_length_a   7.28834410
_cell_length_b   6.77985781
_cell_length_c   9.96647201
_cell_angle_alpha   75.35387066
_cell_angle_beta   69.07744594
_cell_angle_gamma   69.31150332
_symmetry_Int_Tables_number   1
_chemical_formula_structural   Ba4VN4
_chemical_formula_sum   'Ba8 V2 N8'
_cell_volume   425.79973986
_cell_formula_units_Z   2
loop_
 _symmetry_equiv_pos_site_id
 _symmetry_equiv_pos_as_xyz
  1  'x, y, z'
loop_
 _atom_site_type_symbol
 _atom_site_label
 _atom_site_symmetry_multiplicity
 _atom_site_fract_x
 _atom_site_fract_y
 _atom_site_fract_z
 _atom_site_occupancy
  Ba  Ba0  1  0.80256600  0.61057100  0.14507200  1
  Ba  Ba1  1  0.19743400  0.38942900  0.85492800  1
  Ba  Ba2  1  0.67978900  0.17319500  0.02720000  1
  Ba  Ba3  1  0.32021100  0.82680500  0.97280000  1
  Ba  Ba4  1  0.79563400  0.41052300  0.65621000  1
  Ba  Ba5  1  0.20436600  0.58947700  0.34379000  1
  Ba  Ba6  1  0.25499400  0.91264900  0.55523700  1
  Ba  Ba7  1  0.74500600  0.08735100  0.44476300  1
  V  V0  1  0.81576600  0.82245300  0.78164700  1
  V  V1  1  0.18423400  0.17754700  0.21835300  1
  N  N0  1  0.94703900  0.75468600  0.59429400  1
  N  N1  1  0.05296100  0.24531400  0.40570600  1
  N  N2  1  0.00643400  0.85757500  0.84782400  1
  N  N3  1  0.99356600  0.14242500  0.15217600  1
  N  N4  1  0.73842800  0.58668800  0.89566600  1
  N  N5  1  0.26157200  0.41331200  0.10433400  1
  N  N6  1  0.40307000  0.93813700  0.21478000  1
  N  N7  1  0.59693000  0.06186300  0.78522000  1
loop_
_geom_bond_atom_site_label_1
_geom_bond_atom_site_label_2
_geom_bond_distance
_geom_bond_site_symmetry_2
Ba0 N4 2.740500 1_554
Ba0 N6 2.942646 1_555
Ba0 N3 2.975190 1_555
Ba0 N5 3.047677 1_655
Ba0 N2 3.145500 1_654
Ba1 N5 2.740500 1_556
Ba1 N7 2.942646 1_555
Ba1 N2 2.975190 1_555
Ba1 N4 3.047677 1_455
Ba1 N3 3.145500 1_456
Ba2 N5 2.825836 1_555
Ba2 N6 2.858995 1_545
Ba2 N4 2.889345 1_554
Ba2 N3 2.896702 1_555
Ba2 N2 2.956016 1_644
Ba2 N7 3.005582 1_554
Ba3 N4 2.825836 1_555
Ba3 N7 2.858995 1_565
Ba3 N5 2.889345 1_556
Ba3 N2 2.896702 1_555
Ba3 N3 2.956016 1_466
Ba3 N6 3.005582 1_556
Ba4 N1 2.755158 1_655
Ba4 N0 2.765497 1_555
Ba4 N4 2.770346 1_555
Ba4 N7 2.981673 1_555
Ba5 N0 2.755158 1_455
Ba5 N1 2.765497 1_555
Ba5 N5 2.770346 1_555
Ba5 N6 2.981673 1_555
Ba6 N1 2.645196 1_565
Ba6 N0 2.683247 1_455
Ba6 N2 2.842367 1_555
Ba6 N6 3.150860 1_555
Ba7 N0 2.645196 1_545
Ba7 N1 2.683247 1_655
Ba7 N3 2.842367 1_555
Ba7 N7 3.150860 1_555
N0 V0 1.860215 1_555
N1 V1 1.860215 1_555
N2 V0 1.841382 1_455
N3 V1 1.841382 1_655
N4 V0 1.850590 1_555
N5 V1 1.850590 1_555
N6 V1 1.827360 1_565
N7 V0 1.827360 1_545
