# generated using pymatgen
data_TlCuAs2PbS5
_symmetry_space_group_name_H-M   'P 1'
_cell_length_a   8.02616000
_cell_length_b   8.18110175
_cell_length_c   9.12350819
_cell_angle_alpha   65.64074032
_cell_angle_beta   73.65406278
_cell_angle_gamma   64.13632796
_symmetry_Int_Tables_number   1
_chemical_formula_structural   TlCuAs2PbS5
_chemical_formula_sum   'Tl2 Cu2 As4 Pb2 S10'
_cell_volume   487.29949245
_cell_formula_units_Z   2
loop_
 _symmetry_equiv_pos_site_id
 _symmetry_equiv_pos_as_xyz
  1  'x, y, z'
loop_
 _atom_site_type_symbol
 _atom_site_label
 _atom_site_symmetry_multiplicity
 _atom_site_fract_x
 _atom_site_fract_y
 _atom_site_fract_z
 _atom_site_occupancy
  Tl  Tl0  1  0.80535600  0.15321400  0.62564900  1
  Tl  Tl1  1  0.19464400  0.84678600  0.37435100  1
  Cu  Cu0  1  0.38150400  0.25001200  0.40623600  1
  Cu  Cu1  1  0.61849600  0.74998800  0.59376400  1
  As  As0  1  0.59541000  0.04027600  0.14143800  1
  As  As1  1  0.40459000  0.95972400  0.85856200  1
  As  As2  1  0.95307900  0.62280800  0.31308500  1
  As  As3  1  0.04692100  0.37719200  0.68691500  1
  Pb  Pb0  1  0.74515300  0.45882200  0.09408600  1
  Pb  Pb1  1  0.25484700  0.54117800  0.90591400  1
  S  S0  1  0.86693600  0.81039100  0.05512500  1
  S  S1  1  0.13306400  0.18960900  0.94487500  1
  S  S2  1  0.68246600  0.08626900  0.33222700  1
  S  S3  1  0.31753400  0.91373100  0.66777300  1
  S  S4  1  0.37003400  0.70504100  0.08033500  1
  S  S5  1  0.62996600  0.29495900  0.91966500  1
  S  S6  1  0.67817000  0.58079100  0.42665100  1
  S  S7  1  0.32183000  0.41920900  0.57334900  1
  S  S8  1  0.85450300  0.65479900  0.74063500  1
  S  S9  1  0.14549700  0.34520100  0.25936500  1
loop_
_geom_bond_atom_site_label_1
_geom_bond_atom_site_label_2
_geom_bond_distance
_geom_bond_site_symmetry_2
Cu0 S2 2.256172 1_555
Cu0 S7 2.285066 1_555
Cu0 S9 2.295865 1_555
Cu0 S3 2.941706 1_545
Cu1 S3 2.256172 1_555
Cu1 S6 2.285066 1_555
Cu1 S8 2.295865 1_555
Cu1 S2 2.941706 1_565
As0 S2 2.261410 1_555
As0 S5 2.285349 1_554
As0 S0 2.363558 1_545
As1 S3 2.261410 1_555
As1 S4 2.285349 1_556
As1 S1 2.363558 1_565
As2 S6 2.267443 1_555
As2 S9 2.283720 1_655
As2 S0 2.320106 1_555
As3 S7 2.267443 1_555
As3 S8 2.283720 1_455
As3 S1 2.320106 1_555
Pb0 S4 2.801951 1_555
Pb0 S5 2.975468 1_554
Pb0 S8 3.018168 1_554
Pb0 S2 3.085985 1_555
Pb1 S5 2.801951 1_555
Pb1 S4 2.975468 1_556
Pb1 S9 3.018168 1_556
Pb1 S3 3.085985 1_555
S4 Tl1 3.088412 1_555
S5 Tl0 3.088412 1_555
S6 Tl0 3.043596 1_555
S7 Tl1 3.043596 1_555
