# generated using pymatgen
data_BaAlBO3F2
_symmetry_space_group_name_H-M   'P 1'
_cell_length_a   4.88380025
_cell_length_b   4.88380064
_cell_length_c   9.35873904
_cell_angle_alpha   90.00000000
_cell_angle_beta   90.00000000
_cell_angle_gamma   120.00000187
_symmetry_Int_Tables_number   1
_chemical_formula_structural   BaAlBO3F2
_chemical_formula_sum   'Ba2 Al2 B2 O6 F4'
_cell_volume   193.31421099
_cell_formula_units_Z   2
loop_
 _symmetry_equiv_pos_site_id
 _symmetry_equiv_pos_as_xyz
  1  'x, y, z'
loop_
 _atom_site_type_symbol
 _atom_site_label
 _atom_site_symmetry_multiplicity
 _atom_site_fract_x
 _atom_site_fract_y
 _atom_site_fract_z
 _atom_site_occupancy
  Ba  Ba0  1  -0.00000000  -0.00000000  0.50000000  1
  Ba  Ba1  1  -0.00000000  -0.00000000  0.00000000  1
  Al  Al0  1  0.66666700  0.33333300  0.75000000  1
  Al  Al1  1  0.33333300  0.66666700  0.25000000  1
  B  B0  1  0.33333300  0.66666700  0.75000000  1
  B  B1  1  0.66666700  0.33333300  0.25000000  1
  O  O0  1  0.32895010  0.94509053  0.75000000  1
  O  O1  1  0.61614043  0.67104990  0.75000000  1
  O  O2  1  0.94509053  0.61614043  0.25000000  1
  O  O3  1  0.38385957  0.32895010  0.25000000  1
  O  O4  1  0.05490947  0.38385957  0.75000000  1
  O  O5  1  0.67104990  0.05490947  0.25000000  1
  F  F0  1  0.66666700  0.33333300  0.94640398  1
  F  F1  1  0.33333300  0.66666700  0.44640398  1
  F  F2  1  0.66666700  0.33333300  0.55359602  1
  F  F3  1  0.33333300  0.66666700  0.05359602  1
loop_
_geom_bond_atom_site_label_1
_geom_bond_atom_site_label_2
_geom_bond_distance
_geom_bond_site_symmetry_2
Ba0 F2 2.863927 1_455
Ba0 F1 2.863927 1_545
Ba0 F1 2.863931 1_445
Ba0 F2 2.863931 1_555
Ba0 F2 2.863932 1_445
Ba0 F1 2.863932 1_555
Ba0 O1 2.925369 1_445
Ba0 O3 2.925369 1_555
Ba0 O0 2.925369 1_545
Ba0 O5 2.925369 1_455
Ba0 O4 2.925369 1_555
Ba0 O2 2.925369 1_445
Ba1 F0 2.863927 1_454
Ba1 F3 2.863927 1_545
Ba1 F0 2.863931 1_554
Ba1 F3 2.863931 1_445
Ba1 F0 2.863932 1_444
Ba1 F3 2.863932 1_555
Ba1 O1 2.925369 1_444
Ba1 O3 2.925369 1_555
Ba1 O0 2.925369 1_544
Ba1 O5 2.925369 1_455
Ba1 O4 2.925369 1_554
Ba1 O2 2.925369 1_445
Al0 O4 1.785552 1_655
Al0 O0 1.785554 1_545
Al0 O1 1.785557 1_555
Al0 F2 1.838094 1_555
Al0 F0 1.838094 1_555
Al1 O2 1.785552 1_455
Al1 O5 1.785554 1_565
Al1 O3 1.785557 1_555
Al1 F1 1.838094 1_555
Al1 F3 1.838094 1_555
B0 O0 1.370593 1_555
B0 O4 1.370595 1_555
B0 O1 1.370598 1_555
B1 O5 1.370593 1_555
B1 O2 1.370595 1_555
B1 O3 1.370598 1_555
