# generated using pymatgen
data_Sm11(Fe2C3)6
_symmetry_space_group_name_H-M   'P 1'
_cell_length_a   8.91285224
_cell_length_b   8.91265915
_cell_length_c   8.91259569
_cell_angle_alpha   109.46872272
_cell_angle_beta   109.47112987
_cell_angle_gamma   109.47310818
_symmetry_Int_Tables_number   1
_chemical_formula_structural   Sm11(Fe2C3)6
_chemical_formula_sum   'Sm11 Fe12 C18'
_cell_volume   545.01703559
_cell_formula_units_Z   1
loop_
 _symmetry_equiv_pos_site_id
 _symmetry_equiv_pos_as_xyz
  1  'x, y, z'
loop_
 _atom_site_type_symbol
 _atom_site_label
 _atom_site_symmetry_multiplicity
 _atom_site_fract_x
 _atom_site_fract_y
 _atom_site_fract_z
 _atom_site_occupancy
  Sm  Sm0  1  0.25000495  0.75000188  0.50000647  1
  Sm  Sm1  1  0.74999086  0.24999762  0.49999568  1
  Sm  Sm2  1  0.74999057  0.49999537  0.24999554  1
  Sm  Sm3  1  0.25000827  0.50000736  0.75000672  1
  Sm  Sm4  1  0.50000102  0.25000872  0.75001002  1
  Sm  Sm5  1  0.49999885  0.75000431  0.25000279  1
  Sm  Sm6  1  0.40801157  0.40801594  0.40801570  1
  Sm  Sm7  1  0.59198615  0.00000064  0.00000314  1
  Sm  Sm8  1  -0.00000319  0.59199061  0.00000543  1
  Sm  Sm9  1  -0.00000187  0.00000454  0.59199038  1
  Sm  Sm10  1  -0.00000568  0.00000754  0.00001233  1
  Fe  Fe0  1  0.84329785  0.64611100  0.64610898  1
  Fe  Fe1  1  0.15670579  0.80281934  0.80281970  1
  Fe  Fe2  1  0.00000041  0.35390082  0.19718383  1
  Fe  Fe3  1  0.64613643  0.64612549  0.84330245  1
  Fe  Fe4  1  0.00000290  0.19719026  0.35390668  1
  Fe  Fe5  1  0.80280574  0.80280179  0.15669833  1
  Fe  Fe6  1  0.35385863  0.19716622  -0.00001066  1
  Fe  Fe7  1  0.19719473  0.35388968  0.99999559  1
  Fe  Fe8  1  0.64612748  0.84329303  0.64611644  1
  Fe  Fe9  1  0.19719978  0.00000056  0.35390347  1
  Fe  Fe10  1  0.35386567  -0.00000802  0.19716160  1
  Fe  Fe11  1  0.80280723  0.15670469  0.80280537  1
  C  C0  1  0.56791306  0.56791689  0.00000679  1
  C  C1  1  0.43209111  0.43209840  0.00000344  1
  C  C2  1  0.56790897  0.00000439  0.56791295  1
  C  C3  1  0.43208855  0.00000090  0.43209792  1
  C  C4  1  -0.00000140  0.56790371  0.56790428  1
  C  C5  1  -0.00000084  0.43208563  0.43208698  1
  C  C6  1  0.50212165  0.70904061  0.70902789  1
  C  C7  1  0.49787480  0.20690931  0.20691577  1
  C  C8  1  -0.00000685  0.29097005  0.79307908  1
  C  C9  1  0.70905746  0.70902879  0.50211847  1
  C  C10  1  0.00001529  0.79309131  0.29098396  1
  C  C11  1  0.20692094  0.20691549  0.49788427  1
  C  C12  1  0.29094247  0.79306305  -0.00002627  1
  C  C13  1  0.79308278  0.29096155  -0.00000360  1
  C  C14  1  0.70906073  0.50212142  0.70901898  1
  C  C15  1  0.79309017  0.00000947  0.29097565  1
  C  C16  1  0.29094159  -0.00003337  0.79306106  1
  C  C17  1  0.20691339  0.49788301  0.20691542  1
loop_
_geom_bond_atom_site_label_1
_geom_bond_atom_site_label_2
_geom_bond_distance
_geom_bond_site_symmetry_2
Fe0 Sm10 3.056575 1_666
Fe1 Sm10 3.056575 1_566
Fe2 Sm10 3.056430 1_555
Fe3 Sm10 3.056188 1_666
Fe4 Sm10 3.056433 1_555
Fe5 Sm10 3.056311 1_665
Fe6 Sm10 3.056255 1_555
Fe7 Sm10 3.056396 1_556
Fe8 Sm10 3.056332 1_666
Fe9 Sm10 3.056467 1_555
Fe10 Sm10 3.056309 1_555
Fe11 Sm10 3.056454 1_656
C0 C1 1.397753 1_555
C0 Fe5 1.973771 1_555
C0 Fe3 1.973990 1_554
C0 Sm2 2.666050 1_555
C0 Sm3 2.666108 1_554
C0 Sm4 2.666133 1_554
C0 Sm5 2.666154 1_555
C1 Fe7 1.973806 1_554
C1 Fe6 1.974038 1_555
C1 Sm3 2.666040 1_554
C1 Sm2 2.666091 1_555
C1 Sm4 2.666119 1_554
C1 Sm5 2.666144 1_555
C2 C3 1.397755 1_555
C2 Fe11 1.973843 1_555
C2 Fe8 1.974038 1_545
C2 Sm1 2.666019 1_555
C2 Sm0 2.666075 1_545
C2 Sm5 2.666161 1_545
C2 Sm4 2.666213 1_555
C3 Fe9 1.973798 1_555
C3 Fe10 1.974105 1_555
C3 Sm0 2.666007 1_545
C3 Sm1 2.666075 1_555
C3 Sm5 2.666172 1_545
C3 Sm4 2.666193 1_555
C4 C5 1.397802 1_555
C4 Fe0 1.973957 1_455
C4 Fe1 1.974021 1_555
C4 Sm0 2.666063 1_555
C4 Sm1 2.666081 1_455
C4 Sm2 2.666144 1_455
C4 Sm3 2.666149 1_555
C5 Fe4 1.973857 1_555
C5 Fe2 1.973898 1_555
C5 Sm0 2.666098 1_555
C5 Sm1 2.666108 1_455
C5 Sm3 2.666169 1_555
C5 Sm2 2.666187 1_455
C6 Fe8 1.815638 1_555
C6 Fe3 1.815853 1_555
C6 Sm7 2.615213 1_566
C6 Sm0 2.619672 1_555
C6 Sm3 2.619748 1_555
C6 Sm6 2.701956 1_555
C7 Fe10 1.815647 1_555
C7 Fe6 1.815813 1_555
C7 Sm6 2.615213 1_555
C7 Sm1 2.619702 1_555
C7 Sm2 2.619724 1_555
C7 Sm7 2.701995 1_555
C8 Fe11 1.815705 1_455
C8 Fe7 1.815835 1_555
C8 Sm9 2.615181 1_555
C8 Sm1 2.619730 1_455
C8 Sm3 2.619736 1_555
C8 Sm8 2.702012 1_556
C9 Fe0 1.815577 1_555
C9 Fe8 1.815856 1_555
C9 Sm9 2.615017 1_665
C9 Sm2 2.619633 1_555
C9 Sm5 2.619884 1_555
C9 Sm6 2.702008 1_555
C10 Fe9 1.815686 1_565
C10 Fe5 1.815884 1_455
C10 Sm8 2.615181 1_555
C10 Sm0 2.619682 1_555
C10 Sm2 2.619783 1_455
C10 Sm9 2.701968 1_565
C11 Fe4 1.815744 1_555
C11 Fe9 1.815770 1_555
C11 Sm6 2.615055 1_555
C11 Sm4 2.619738 1_555
C11 Sm3 2.619853 1_555
C11 Sm9 2.701901 1_555
C12 Fe1 1.815565 1_554
C12 Fe10 1.815849 1_565
C12 Sm8 2.615047 1_555
C12 Sm3 2.619630 1_554
C12 Sm5 2.619855 1_555
C12 Sm7 2.701994 1_565
C13 Fe2 1.815716 1_655
C13 Fe11 1.815754 1_554
C13 Sm7 2.615073 1_555
C13 Sm4 2.619753 1_554
C13 Sm2 2.619844 1_555
C13 Sm8 2.701891 1_655
C14 Fe0 1.815467 1_555
C14 Fe3 1.815942 1_555
C14 Sm8 2.615102 1_656
C14 Sm1 2.619584 1_555
C14 Sm4 2.619911 1_555
C14 Sm6 2.702015 1_555
C15 Fe4 1.815653 1_655
C15 Fe5 1.815892 1_545
C15 Sm7 2.615142 1_555
C15 Sm5 2.619752 1_545
C15 Sm1 2.619768 1_555
C15 Sm9 2.701889 1_655
C16 Fe1 1.815498 1_545
C16 Fe6 1.815920 1_556
C16 Sm9 2.615110 1_555
C16 Sm0 2.619600 1_545
C16 Sm4 2.619847 1_555
C16 Sm7 2.702046 1_556
C17 Fe2 1.815658 1_555
C17 Fe7 1.815848 1_554
C17 Sm6 2.615137 1_555
C17 Sm5 2.619724 1_555
C17 Sm0 2.619812 1_555
C17 Sm8 2.701932 1_555
