# generated using pymatgen
data_MgMn2As2(PbO9)2
_symmetry_space_group_name_H-M   'P 1'
_cell_length_a   5.11603800
_cell_length_b   5.31489567
_cell_length_c   12.91195592
_cell_angle_alpha   99.98623349
_cell_angle_beta   100.57431954
_cell_angle_gamma   93.93799023
_symmetry_Int_Tables_number   1
_chemical_formula_structural   MgMn2As2(PbO9)2
_chemical_formula_sum   'Mg1 Mn2 As2 Pb2 O18'
_cell_volume   338.06405297
_cell_formula_units_Z   1
loop_
 _symmetry_equiv_pos_site_id
 _symmetry_equiv_pos_as_xyz
  1  'x, y, z'
loop_
 _atom_site_type_symbol
 _atom_site_label
 _atom_site_symmetry_multiplicity
 _atom_site_fract_x
 _atom_site_fract_y
 _atom_site_fract_z
 _atom_site_occupancy
  Mg  Mg0  1  0.00000000  0.50000000  0.00000000  1
  Mn  Mn0  1  0.46999200  0.22507100  0.45172700  1
  Mn  Mn1  1  0.53000800  0.77492900  0.54827300  1
  As  As0  1  0.87236500  0.11359900  0.27993700  1
  As  As1  1  0.12763500  0.88640100  0.72006300  1
  Pb  Pb0  1  0.66180200  0.34799400  0.72098700  1
  Pb  Pb1  1  0.33819800  0.65200600  0.27901300  1
  O  O0  1  0.15114800  0.01433500  0.36119600  1
  O  O1  1  0.84885200  0.98566500  0.63880400  1
  O  O2  1  0.65424400  0.31519000  0.33901300  1
  O  O3  1  0.34575600  0.68481000  0.66098700  1
  O  O4  1  0.37050200  0.09391500  0.56824900  1
  O  O5  1  0.62949800  0.90608500  0.43175100  1
  O  O6  1  0.28731400  0.52990300  0.43724300  1
  O  O7  1  0.71268600  0.47009700  0.56275700  1
  O  O8  1  0.82932000  0.27651300  0.86921600  1
  O  O9  1  0.17068000  0.72348700  0.13078400  1
  O  O10  1  0.66421800  0.76025400  0.96923900  1
  O  O11  1  0.33578200  0.23974600  0.03076100  1
  O  O12  1  0.58382300  0.28112900  0.05003300  1
  O  O13  1  0.41617700  0.71887100  0.94996700  1
  O  O14  1  0.01647400  0.29930700  0.20576700  1
  O  O15  1  0.98352600  0.70069300  0.79423300  1
  O  O16  1  0.69711000  0.82656700  0.21776400  1
  O  O17  1  0.30289000  0.17343300  0.78223600  1
loop_
_geom_bond_atom_site_label_1
_geom_bond_atom_site_label_2
_geom_bond_distance
_geom_bond_site_symmetry_2
Mg0 O9 1.909368 1_555
Mg0 O8 1.909368 1_454
Mg0 O11 2.299706 1_555
Mg0 O10 2.299706 1_454
Mg0 O13 2.594076 1_554
Mg0 O12 2.594076 1_455
Mn0 O4 1.898596 1_555
Mn0 O5 1.929344 1_545
Mn0 O7 1.941633 1_555
Mn0 O6 1.944796 1_555
Mn0 O0 1.968986 1_555
Mn0 O2 1.979725 1_555
Mn1 O5 1.898596 1_555
Mn1 O4 1.929344 1_565
Mn1 O6 1.941633 1_555
Mn1 O7 1.944796 1_555
Mn1 O1 1.968986 1_555
Mn1 O3 1.979725 1_555
As0 O16 1.702602 1_545
As0 O14 1.709369 1_655
As0 O0 1.777504 1_655
As0 O2 1.779963 1_555
As1 O17 1.702602 1_565
As1 O15 1.709369 1_455
As1 O1 1.777504 1_455
As1 O3 1.779963 1_555
O0 Pb1 2.380621 1_545
O1 Pb0 2.380621 1_565
O2 Pb1 2.614954 1_555
O3 Pb0 2.614954 1_555
O4 Pb0 2.378057 1_555
O5 Pb1 2.378057 1_555
O6 Pb1 2.301055 1_555
O7 Pb0 2.301055 1_555
O8 Pb0 2.058356 1_555
O9 Pb1 2.058356 1_555
O10 O13 1.243950 1_555
O11 O12 1.243950 1_555
O14 Pb1 2.346823 1_555
O15 Pb0 2.346823 1_555
O16 Pb1 2.326222 1_555
O17 Pb0 2.326222 1_555
