# generated using pymatgen
data_YZrS2
_symmetry_space_group_name_H-M   'P 1'
_cell_length_a   6.48974157
_cell_length_b   6.48974157
_cell_length_c   6.48974229
_cell_angle_alpha   34.56957662
_cell_angle_beta   34.56957662
_cell_angle_gamma   34.56957710
_symmetry_Int_Tables_number   1
_chemical_formula_structural   YZrS2
_chemical_formula_sum   'Y1 Zr1 S2'
_cell_volume   78.51394960
_cell_formula_units_Z   1
loop_
 _symmetry_equiv_pos_site_id
 _symmetry_equiv_pos_as_xyz
  1  'x, y, z'
loop_
 _atom_site_type_symbol
 _atom_site_label
 _atom_site_symmetry_multiplicity
 _atom_site_fract_x
 _atom_site_fract_y
 _atom_site_fract_z
 _atom_site_occupancy
  Y  Y0  1  0.00000000  0.00000000  0.00000000  1
  Zr  Zr0  1  0.50000000  0.50000000  0.50000000  1
  S  S0  1  0.24657500  0.24657500  0.24657500  1
  S  S1  1  0.75342500  0.75342500  0.75342500  1
loop_
_geom_bond_atom_site_label_1
_geom_bond_atom_site_label_2
_geom_bond_distance
_geom_bond_site_symmetry_2
S0 Zr0 2.663260 1_545
S0 Zr0 2.663260 1_455
S0 Zr0 2.663261 1_554
S0 Y0 2.734002 1_565
S0 Y0 2.734002 1_655
S0 Y0 2.734002 1_556
S1 Zr0 2.663260 1_565
S1 Zr0 2.663260 1_655
S1 Zr0 2.663261 1_556
S1 Y0 2.734002 1_566
S1 Y0 2.734002 1_656
S1 Y0 2.734002 1_665
