# generated using pymatgen
data_Li4CoOF5
_symmetry_space_group_name_H-M   'P 1'
_cell_length_a   3.71897227
_cell_length_b   9.40814607
_cell_length_c   13.15918783
_cell_angle_alpha   77.37324271
_cell_angle_beta   90.02840490
_cell_angle_gamma   89.97468525
_symmetry_Int_Tables_number   1
_chemical_formula_structural   Li4CoOF5
_chemical_formula_sum   'Li16 Co4 O4 F20'
_cell_volume   449.28647774
_cell_formula_units_Z   4
loop_
 _symmetry_equiv_pos_site_id
 _symmetry_equiv_pos_as_xyz
  1  'x, y, z'
loop_
 _atom_site_type_symbol
 _atom_site_label
 _atom_site_symmetry_multiplicity
 _atom_site_fract_x
 _atom_site_fract_y
 _atom_site_fract_z
 _atom_site_occupancy
  Li  Li0  1  0.99950900  0.36384900  0.12692600  1
  Li  Li1  1  0.99818000  0.36538500  0.62824100  1
  Li  Li2  1  0.49950600  0.86373800  0.37631300  1
  Li  Li3  1  0.49973100  0.86292300  0.87819000  1
  Li  Li4  1  0.00079200  0.63532000  0.87305300  1
  Li  Li5  1  0.99973400  0.63623900  0.37332700  1
  Li  Li6  1  0.49982400  0.13626500  0.12331200  1
  Li  Li7  1  0.49910200  0.13762900  0.62362500  1
  Li  Li8  1  0.99932800  0.33476000  0.92890100  1
  Li  Li9  1  0.99962300  0.33393800  0.42959200  1
  Li  Li10  1  0.49971300  0.83432800  0.17831700  1
  Li  Li11  1  0.50068200  0.83464600  0.68057100  1
  Li  Li12  1  0.99955900  0.66719200  0.07040300  1
  Li  Li13  1  0.00004300  0.66455400  0.57274500  1
  Li  Li14  1  0.49944500  0.16715800  0.32092200  1
  Li  Li15  1  0.49843100  0.16451700  0.82140800  1
  Co  Co0  1  0.49979200  0.50069500  0.24989700  1
  Co  Co1  1  0.99955000  0.99925600  0.50133700  1
  Co  Co2  1  0.49930100  0.49950200  0.75095900  1
  Co  Co3  1  0.99949400  0.00083400  0.99969400  1
  O  O0  1  0.99969100  0.49958700  0.75086100  1
  O  O1  1  0.99961200  0.50074000  0.25007600  1
  O  O2  1  0.49940500  0.00112100  0.99885300  1
  O  O3  1  0.49961900  0.99873900  0.50258300  1
  F  F0  1  0.00002000  0.49960300  0.00015300  1
  F  F1  1  0.99934300  0.50068400  0.50058600  1
  F  F2  1  0.49959700  0.00054000  0.25026400  1
  F  F3  1  0.49965100  0.99978400  0.75052000  1
  F  F4  1  0.49900000  0.35674100  0.88311300  1
  F  F5  1  0.49954000  0.35115800  0.38555800  1
  F  F6  1  0.99958700  0.85067200  0.13535400  1
  F  F7  1  0.00041600  0.84628300  0.63620800  1
  F  F8  1  0.49962200  0.65002300  0.11441300  1
  F  F9  1  0.50040300  0.64187000  0.61842700  1
  F  F10  1  0.99950800  0.14886300  0.36612200  1
  F  F11  1  0.99871200  0.15366600  0.86425000  1
  F  F12  1  0.99995800  0.81554000  0.93079900  1
  F  F13  1  0.99970100  0.81664200  0.43222000  1
  F  F14  1  0.49962500  0.31766400  0.18178500  1
  F  F15  1  0.49659800  0.31883700  0.68192400  1
  F  F16  1  0.99965300  0.18524200  0.06857400  1
  F  F17  1  0.99878700  0.18320000  0.56994800  1
  F  F18  1  0.49947700  0.68307900  0.31902300  1
  F  F19  1  0.50239700  0.68091800  0.81880800  1
loop_
_geom_bond_atom_site_label_1
_geom_bond_atom_site_label_2
_geom_bond_distance
_geom_bond_site_symmetry_2
Li0 O1 2.279766 1_555
Li1 O0 2.255772 1_555
Li2 O3 2.301478 1_555
Li3 O2 2.261474 1_565
Li4 O0 2.261403 1_455
Li5 O1 2.271462 1_555
Li6 O2 2.282394 1_554
Li7 O3 2.270346 1_545
Li8 O0 2.511044 1_555
Li9 O1 2.534233 1_555
Li10 O2 2.533652 1_564
Li11 O3 2.507647 1_555
Li12 O1 2.534514 1_555
Li13 O0 2.512386 1_455
Li14 O3 2.563045 1_545
Li15 O2 2.499237 1_555
Co0 O1 1.858817 1_555
Co0 O1 1.860158 1_455
Co0 F8 2.014265 1_555
Co0 F5 2.016964 1_555
Co0 F14 2.107926 1_555
Co0 F18 2.110485 1_555
Co1 O3 1.859309 1_555
Co1 O3 1.859802 1_655
Co1 F10 2.013000 1_565
Co1 F7 2.025943 1_655
Co1 F13 2.112376 1_555
Co1 F17 2.119708 1_565
Co2 O0 1.858035 1_455
Co2 O0 1.860938 1_555
Co2 F4 1.951165 1_555
Co2 F9 1.953043 1_555
Co2 F19 2.092048 1_555
Co2 F15 2.095117 1_555
Co3 O2 1.859193 1_655
Co3 O2 1.859842 1_555
Co3 F6 2.019923 1_546
Co3 F11 2.030699 1_555
Co3 F16 2.125817 1_556
Co3 F12 2.133519 1_545
F0 Li0 1.866201 1_455
F0 Li4 1.869238 1_554
F0 Li8 1.979915 1_454
F0 Li12 1.994444 1_455
F1 Li5 1.870054 1_555
F1 Li1 1.872788 1_555
F1 Li13 1.979538 1_655
F1 Li9 1.993631 1_555
F2 Li2 1.863989 1_545
F2 Li6 1.867820 1_555
F2 Li14 1.989730 1_555
F2 Li10 1.997232 1_545
F3 Li7 1.877081 1_565
F3 Li3 1.880077 1_555
F3 Li11 1.971374 1_555
F3 Li15 1.975914 1_565
F4 Li8 1.950882 1_455
F4 Li8 1.952463 1_555
F4 Li15 2.138201 1_555
F5 Li9 1.943829 1_555
F5 Li9 1.943925 1_455
F5 Li14 2.088990 1_555
F6 Li10 1.939719 1_555
F6 Li10 1.939949 1_655
F6 Li12 2.086946 1_555
F7 Li11 1.944250 1_455
F7 Li11 1.945496 1_555
F7 Li13 2.060307 1_555
F8 Li12 1.943661 1_455
F8 Li12 1.943899 1_555
F8 Li10 2.085976 1_555
F9 Li13 1.950639 1_655
F9 Li13 1.952443 1_555
F9 Li11 2.146288 1_555
F10 Li14 1.948289 1_555
F10 Li14 1.948549 1_655
F10 Li9 2.089309 1_555
F11 Li15 1.938582 1_655
F11 Li15 1.939964 1_555
F11 Li8 2.064048 1_555
F12 Li3 1.999906 1_655
F12 Li3 2.000472 1_555
F12 Li4 2.003891 1_655
F12 Li12 2.049832 1_556
F13 Li2 2.012989 1_655
F13 Li2 2.013294 1_555
F13 Li5 2.014039 1_555
F13 Li13 2.076076 1_655
F14 Li0 2.007499 1_455
F14 Li0 2.007718 1_555
F14 Li6 2.019595 1_555
F14 Li14 2.055201 1_555
F15 Li1 1.997346 1_455
F15 Li1 2.009278 1_555
F15 Li7 2.016651 1_555
F15 Li15 2.076511 1_555
F16 Li0 1.994327 1_555
F16 Li6 2.010837 1_555
F16 Li6 2.010976 1_655
F16 Li8 2.055867 1_554
F17 Li7 2.001419 1_555
F17 Li7 2.002593 1_655
F17 Li1 2.025126 1_555
F17 Li9 2.068177 1_555
F18 Li2 2.004351 1_555
F18 Li5 2.005828 1_455
F18 Li5 2.006582 1_555
F18 Li10 2.073954 1_555
F19 Li4 1.998301 1_655
F19 Li4 2.010384 1_555
F19 Li3 2.031692 1_555
F19 Li11 2.061705 1_555
