# generated using pymatgen
data_Rb2Mo2P2O11
_symmetry_space_group_name_H-M   'P 1'
_cell_length_a   10.39071500
_cell_length_b   10.15689500
_cell_length_c   10.17903738
_cell_angle_alpha   82.28681869
_cell_angle_beta   90.00000000
_cell_angle_gamma   90.00000000
_symmetry_Int_Tables_number   1
_chemical_formula_structural   Rb2Mo2P2O11
_chemical_formula_sum   'Rb8 Mo8 P8 O44'
_cell_volume   1064.54953950
_cell_formula_units_Z   4
loop_
 _symmetry_equiv_pos_site_id
 _symmetry_equiv_pos_as_xyz
  1  'x, y, z'
loop_
 _atom_site_type_symbol
 _atom_site_label
 _atom_site_symmetry_multiplicity
 _atom_site_fract_x
 _atom_site_fract_y
 _atom_site_fract_z
 _atom_site_occupancy
  Rb  Rb0  1  0.18874100  0.23679000  0.03444500  1
  Rb  Rb1  1  0.68874100  0.76321000  0.96555500  1
  Rb  Rb2  1  0.81518900  0.76088900  0.45620300  1
  Rb  Rb3  1  0.31518900  0.23911100  0.54379700  1
  Rb  Rb4  1  0.99990200  0.99978800  0.74993800  1
  Rb  Rb5  1  0.49990200  0.00021200  0.25006200  1
  Rb  Rb6  1  0.06672200  0.49223600  0.25475800  1
  Rb  Rb7  1  0.56672200  0.50776400  0.74524200  1
  Mo  Mo0  1  0.08488500  0.65285300  0.88604800  1
  Mo  Mo1  1  0.58488500  0.34714700  0.11395200  1
  Mo  Mo2  1  0.91556900  0.34697100  0.61265300  1
  Mo  Mo3  1  0.41556900  0.65302900  0.38734700  1
  Mo  Mo4  1  0.32310200  0.92040600  0.89891900  1
  Mo  Mo5  1  0.82310200  0.07959400  0.10108100  1
  Mo  Mo6  1  0.67722500  0.07899400  0.60084500  1
  Mo  Mo7  1  0.17722500  0.92100600  0.39915500  1
  P  P0  1  0.37403100  0.60393200  0.06735600  1
  P  P1  1  0.87403100  0.39606800  0.93264400  1
  P  P2  1  0.62595000  0.39572200  0.43179000  1
  P  P3  1  0.12595000  0.60427800  0.56821000  1
  P  P4  1  0.07579400  0.87476800  0.10375100  1
  P  P5  1  0.57579400  0.12523200  0.89624900  1
  P  P6  1  0.92444700  0.12549700  0.39607300  1
  P  P7  1  0.42444700  0.87450300  0.60392700  1
  O  O0  1  0.14796400  0.57377100  0.72041600  1
  O  O1  1  0.64796400  0.42622900  0.27958400  1
  O  O2  1  0.85157000  0.42639700  0.77938100  1
  O  O3  1  0.35157000  0.57360300  0.22061900  1
  O  O4  1  0.40431700  0.75267900  0.02278900  1
  O  O5  1  0.90431700  0.24732100  0.97721100  1
  O  O6  1  0.59566600  0.24695600  0.47697600  1
  O  O7  1  0.09566600  0.75304400  0.52302400  1
  O  O8  1  0.99643500  0.47257700  0.97102300  1
  O  O9  1  0.49643500  0.52742300  0.02897700  1
  O  O10  1  0.00328400  0.52753700  0.52931900  1
  O  O11  1  0.50328400  0.47246300  0.47068100  1
  O  O12  1  0.21334600  0.92915900  0.06849200  1
  O  O13  1  0.71334600  0.07084100  0.93150800  1
  O  O14  1  0.78688900  0.07144800  0.43129000  1
  O  O15  1  0.28688900  0.92855200  0.56871000  1
  O  O16  1  0.25273300  0.55625300  0.99864100  1
  O  O17  1  0.75273300  0.44374700  0.00135900  1
  O  O18  1  0.74410100  0.44361300  0.50590500  1
  O  O19  1  0.24410100  0.55638700  0.49409500  1
  O  O20  1  0.05357900  0.73286200  0.06675500  1
  O  O21  1  0.55357900  0.26713800  0.93324500  1
  O  O22  1  0.94750100  0.26752600  0.43300800  1
  O  O23  1  0.44750100  0.73247400  0.56699200  1
  O  O24  1  0.47928800  0.02500200  0.97227900  1
  O  O25  1  0.97928800  0.97499800  0.02772100  1
  O  O26  1  0.52057100  0.97512700  0.52776300  1
  O  O27  1  0.02057100  0.02487300  0.47223700  1
  O  O28  1  0.44664300  0.86692200  0.75535500  1
  O  O29  1  0.94664300  0.13307800  0.24464500  1
  O  O30  1  0.55394700  0.13317400  0.74462500  1
  O  O31  1  0.05394700  0.86682600  0.25537500  1
  O  O32  1  0.19958400  0.80005500  0.83668400  1
  O  O33  1  0.69958400  0.19994500  0.16331600  1
  O  O34  1  0.80027100  0.20005600  0.66294100  1
  O  O35  1  0.30027100  0.79994400  0.33705900  1
  O  O36  1  0.26402900  0.07202300  0.82044000  1
  O  O37  1  0.76402900  0.92797700  0.17956000  1
  O  O38  1  0.73577500  0.92720400  0.67931500  1
  O  O39  1  0.23577500  0.07279600  0.32068500  1
  O  O40  1  0.93881700  0.71380200  0.82070000  1
  O  O41  1  0.43881700  0.28619800  0.17930000  1
  O  O42  1  0.06062900  0.28577800  0.68002100  1
  O  O43  1  0.56062900  0.71422200  0.31997900  1
loop_
_geom_bond_atom_site_label_1
_geom_bond_atom_site_label_2
_geom_bond_distance
_geom_bond_site_symmetry_2
Mo0 O40 1.737448 1_455
Mo0 O32 1.925251 1_555
Mo0 O0 2.069007 1_555
Mo0 O8 2.126128 1_455
Mo0 O20 2.133290 1_556
Mo0 O16 2.239663 1_555
Mo1 O41 1.737448 1_555
Mo1 O33 1.925251 1_555
Mo1 O1 2.069007 1_555
Mo1 O9 2.126128 1_555
Mo1 O21 2.133290 1_554
Mo1 O17 2.239663 1_555
Mo2 O42 1.736093 1_655
Mo2 O34 1.928451 1_555
Mo2 O2 2.083454 1_555
Mo2 O10 2.120415 1_655
Mo2 O22 2.121580 1_555
Mo2 O18 2.243268 1_555
Mo3 O43 1.736093 1_555
Mo3 O35 1.928451 1_555
Mo3 O3 2.083454 1_555
Mo3 O11 2.120415 1_555
Mo3 O23 2.121580 1_555
Mo3 O19 2.243268 1_555
Mo4 O36 1.748189 1_565
Mo4 O32 1.936657 1_555
Mo4 O28 2.071605 1_555
Mo4 O12 2.080647 1_556
Mo4 O24 2.129071 1_565
Mo4 O4 2.151178 1_556
Mo5 O37 1.748189 1_545
Mo5 O33 1.936657 1_555
Mo5 O29 2.071605 1_555
Mo5 O13 2.080647 1_554
Mo5 O25 2.129071 1_545
Mo5 O5 2.151178 1_554
Mo6 O38 1.747699 1_545
Mo6 O34 1.937718 1_555
Mo6 O30 2.074078 1_555
Mo6 O14 2.078116 1_555
Mo6 O26 2.127573 1_545
Mo6 O6 2.154279 1_555
Mo7 O39 1.747699 1_565
Mo7 O35 1.937718 1_555
Mo7 O31 2.074078 1_555
Mo7 O15 2.078116 1_555
Mo7 O27 2.127573 1_565
Mo7 O7 2.154279 1_555
O0 P3 1.555582 1_555
O1 P2 1.555582 1_555
O2 P1 1.566582 1_555
O2 Rb7 3.080086 1_555
O3 P0 1.566582 1_555
O3 Rb6 3.080086 1_555
O4 P0 1.550289 1_555
O4 Rb1 3.011366 1_554
O5 P1 1.550289 1_555
O5 Rb0 3.011366 1_656
O6 P2 1.551497 1_555
O6 Rb3 2.991306 1_555
O7 P3 1.551497 1_555
O7 Rb2 2.991306 1_455
O8 P1 1.567042 1_555
O8 Rb6 3.011554 1_656
O8 Rb0 3.119282 1_656
O9 P0 1.567042 1_555
O9 Rb7 3.011554 1_554
O9 Rb1 3.119282 1_554
O10 P3 1.572151 1_555
O10 Rb6 2.939857 1_555
O10 Rb2 3.085089 1_455
O11 P2 1.572151 1_555
O11 Rb7 2.939857 1_555
O11 Rb3 3.085089 1_555
O12 P4 1.556784 1_555
O12 Rb0 3.107696 1_565
O13 P5 1.556784 1_555
O13 Rb1 3.107696 1_545
O14 P6 1.555642 1_555
O14 Rb2 3.144164 1_545
O15 P7 1.555642 1_555
O15 Rb3 3.144164 1_565
O16 P0 1.550231 1_556
O16 Rb6 3.240371 1_556
O16 Rb0 3.284194 1_556
O17 P1 1.550231 1_554
O17 Rb7 3.240371 1_554
O17 Rb1 3.284194 1_554
O18 P2 1.552882 1_555
O18 Rb7 3.191052 1_555
O18 Rb2 3.278520 1_555
O19 P3 1.552882 1_555
O19 Rb6 3.191052 1_555
O19 Rb3 3.278520 1_555
O20 P4 1.555060 1_555
O20 Rb6 2.898033 1_555
O21 P5 1.555060 1_555
O21 Rb7 2.898033 1_555
O22 P6 1.557348 1_555
O22 Rb6 2.987348 1_655
O23 P7 1.557348 1_555
O23 Rb7 2.987348 1_555
O24 P5 1.558644 1_555
O24 Rb5 2.813056 1_556
O24 Rb1 3.443887 1_545
O25 P4 1.558644 1_655
O25 Rb4 2.813056 1_554
O25 Rb0 3.443887 1_665
O26 P7 1.559006 1_555
O26 Rb5 2.812136 1_565
O26 Rb3 3.447823 1_565
O27 P6 1.559006 1_455
O27 Rb4 2.812136 1_445
O27 Rb2 3.447823 1_445
O28 P7 1.550209 1_555
O28 Rb1 3.377982 1_555
O29 P6 1.550209 1_555
O29 Rb0 3.377982 1_655
O30 P5 1.551342 1_555
O30 Rb3 3.301655 1_555
O31 P4 1.551342 1_555
O31 Rb2 3.301655 1_455
O32 Rb4 2.952843 1_455
O33 Rb5 2.952843 1_555
O34 Rb4 2.956518 1_545
O35 Rb5 2.956518 1_565
O36 Rb4 2.954106 1_445
O36 Rb0 3.022664 1_556
O36 Rb3 3.132019 1_555
O37 Rb5 2.954106 1_565
O37 Rb1 3.022664 1_554
O37 Rb2 3.132019 1_555
O38 Rb4 2.955444 1_555
O38 Rb2 3.118009 1_555
O38 Rb1 3.193730 1_555
O39 Rb5 2.955444 1_555
O39 Rb3 3.118009 1_555
O39 Rb0 3.193730 1_555
O40 Rb4 2.966061 1_555
O40 Rb1 3.062123 1_555
O41 Rb5 2.966061 1_555
O41 Rb0 3.062123 1_555
O42 Rb4 2.964360 1_445
O42 Rb3 3.052897 1_555
O43 Rb5 2.964360 1_565
O43 Rb2 3.052897 1_555
