# generated using pymatgen
data_HoFeNi
_symmetry_space_group_name_H-M   'P 1'
_cell_length_a   5.08441767
_cell_length_b   5.08441767
_cell_length_c   5.08441767
_cell_angle_alpha   124.32771755
_cell_angle_beta   119.94036480
_cell_angle_gamma   86.38659819
_symmetry_Int_Tables_number   1
_chemical_formula_structural   HoFeNi
_chemical_formula_sum   'Ho2 Fe2 Ni2'
_cell_volume   89.57085154
_cell_formula_units_Z   2
loop_
 _symmetry_equiv_pos_site_id
 _symmetry_equiv_pos_as_xyz
  1  'x, y, z'
loop_
 _atom_site_type_symbol
 _atom_site_label
 _atom_site_symmetry_multiplicity
 _atom_site_fract_x
 _atom_site_fract_y
 _atom_site_fract_z
 _atom_site_occupancy
  Ho  Ho0  1  0.12964800  0.87964800  0.25000000  1
  Ho  Ho1  1  0.87035200  0.12035200  0.75000000  1
  Fe  Fe0  1  0.50000000  0.50000000  0.50000000  1
  Fe  Fe1  1  0.50000000  0.00000000  0.00000000  1
  Ni  Ni0  1  0.50000000  0.50000000  0.00000000  1
  Ni  Ni1  1  0.00000000  0.50000000  0.50000000  1
loop_
_geom_bond_atom_site_label_1
_geom_bond_atom_site_label_2
_geom_bond_distance
_geom_bond_site_symmetry_2
Ho0 Ni1 2.837473 1_565
Ho0 Ni1 2.837473 1_554
Ho0 Ni0 2.837473 1_555
Ho0 Ni0 2.837473 1_566
Ho0 Ho1 3.054803 1_465
Ho0 Ho1 3.054803 1_454
Ho0 Ni1 3.088739 1_555
Ho0 Ni0 3.088739 1_455
Ho0 Ho1 3.107867 1_565
Ho0 Ho1 3.107867 1_464
Ho1 Ni0 2.837473 1_545
Ho1 Ni0 2.837473 1_556
Ho1 Ni1 2.837473 1_645
Ho1 Ni1 2.837473 1_656
Ho1 Ni1 3.088739 1_655
Ho1 Ni0 3.088739 1_656
Fe0 Fe1 2.374141 1_566
Fe0 Fe1 2.374141 1_555
Fe0 Ni0 2.542209 1_555
Fe0 Ni0 2.542209 1_556
Fe0 Ni1 2.542209 1_555
Fe0 Ni1 2.542209 1_655
Fe0 Ho0 2.967732 1_555
Fe0 Ho1 2.967732 1_555
Fe0 Ho1 2.967732 1_454
Fe0 Ho0 2.967732 1_656
Fe0 Ho1 2.991260 1_565
Fe0 Ho0 2.991260 1_545
Fe1 Ni0 2.542209 1_555
Fe1 Ni0 2.542209 1_545
Fe1 Ni1 2.542209 1_544
Fe1 Ni1 2.542209 1_655
Fe1 Ho0 2.967732 1_544
Fe1 Ho1 2.967732 1_555
Fe1 Ho0 2.967732 1_645
Fe1 Ho1 2.967732 1_454
Fe1 Ho1 2.991260 1_554
Fe1 Ho0 2.991260 1_545
Ni0 Ni1 2.544500 1_655
Ni0 Ni1 2.544500 1_554
