# generated using pymatgen
data_LaMg14Bi
_symmetry_space_group_name_H-M   'P 1'
_cell_length_a   6.61123956
_cell_length_b   6.53019031
_cell_length_c   10.53239445
_cell_angle_alpha   90.00000000
_cell_angle_beta   90.00000000
_cell_angle_gamma   119.59529276
_symmetry_Int_Tables_number   1
_chemical_formula_structural   LaMg14Bi
_chemical_formula_sum   'La1 Mg14 Bi1'
_cell_volume   395.38771292
_cell_formula_units_Z   1
loop_
 _symmetry_equiv_pos_site_id
 _symmetry_equiv_pos_as_xyz
  1  'x, y, z'
loop_
 _atom_site_type_symbol
 _atom_site_label
 _atom_site_symmetry_multiplicity
 _atom_site_fract_x
 _atom_site_fract_y
 _atom_site_fract_z
 _atom_site_occupancy
  La  La0  1  0.16736505  0.33368202  0.12500000  1
  Mg  Mg0  1  0.16589166  0.33294533  0.62500000  1
  Mg  Mg1  1  0.16511724  0.83255812  0.62500000  1
  Mg  Mg2  1  0.66617183  0.32886419  0.12500000  1
  Mg  Mg3  1  0.66679248  0.33401563  0.62500000  1
  Mg  Mg4  1  0.66617183  0.83730663  0.12500000  1
  Mg  Mg5  1  0.66679248  0.83277585  0.62500000  1
  Mg  Mg6  1  0.33820323  0.16833699  0.38544544  1
  Mg  Mg7  1  0.33820323  0.16833699  0.86455456  1
  Mg  Mg8  1  0.33820323  0.66986724  0.38544544  1
  Mg  Mg9  1  0.33820323  0.66986724  0.86455456  1
  Mg  Mg10  1  0.82808480  0.16404290  0.38208730  1
  Mg  Mg11  1  0.82808480  0.16404290  0.86791270  1
  Mg  Mg12  1  0.82833538  0.66416819  0.37593181  1
  Mg  Mg13  1  0.82833538  0.66416819  0.87406819  1
  Bi  Bi0  1  0.17004415  0.83502158  0.12500000  1
loop_
_geom_bond_atom_site_label_1
_geom_bond_atom_site_label_2
_geom_bond_distance
_geom_bond_site_symmetry_2
La0 Mg4 3.298084 1_445
La0 Mg2 3.298084 1_455
La0 Mg4 3.313382 1_555
La0 Mg2 3.313382 1_555
La0 Mg10 3.337069 1_455
La0 Mg11 3.337069 1_454
La0 Mg6 3.342263 1_555
La0 Mg7 3.342263 1_554
La0 Mg9 3.342269 1_554
La0 Mg8 3.342269 1_555
Mg0 Mg7 3.166813 1_555
Mg0 Mg6 3.166813 1_555
Mg0 Mg9 3.166820 1_555
Mg0 Mg8 3.166820 1_555
Mg0 Mg10 3.211987 1_455
Mg0 Mg11 3.211987 1_455
Mg0 Mg1 3.265098 1_545
Mg0 Mg1 3.265098 1_555
Mg0 Mg5 3.303121 1_445
Mg0 Mg3 3.303122 1_455
Mg0 Mg5 3.308129 1_555
Mg0 Mg3 3.308129 1_555
Mg1 Mg9 3.163055 1_555
Mg1 Mg8 3.163055 1_555
Mg1 Mg6 3.163062 1_565
Mg1 Mg7 3.163062 1_565
Mg1 Mg12 3.260361 1_455
Mg1 Mg13 3.260361 1_455
Mg1 Mg3 3.295247 1_455
Mg1 Mg5 3.295247 1_455
Mg1 Mg3 3.315993 1_565
Mg1 Mg5 3.315993 1_555
Mg2 Mg4 3.209964 1_545
Mg2 Mg4 3.320226 1_555
Mg2 Mg6 3.328649 1_555
Mg2 Mg7 3.328649 1_554
Mg3 Mg7 3.151859 1_555
Mg3 Mg6 3.151859 1_555
Mg3 Mg5 3.256999 1_555
Mg3 Mg5 3.273191 1_545
Mg4 Mg8 3.328648 1_555
Mg4 Mg9 3.328648 1_554
Mg5 Mg8 3.151859 1_555
Mg5 Mg9 3.151859 1_555
Mg6 Mg8 3.255102 1_545
Mg6 Mg8 3.275088 1_555
Mg7 Mg9 3.255102 1_545
Mg7 Mg9 3.275088 1_555
Mg10 Mg3 3.175507 1_555
Mg10 Mg5 3.175514 1_545
Mg10 Mg8 3.252857 1_545
Mg10 Mg6 3.252857 1_555
Mg10 Mg12 3.265739 1_555
Mg10 Mg12 3.265739 1_545
Mg10 Mg2 3.282408 1_555
Mg10 Mg4 3.282414 1_545
Mg10 Mg8 3.358941 1_655
Mg10 Mg6 3.358941 1_655
Mg11 Mg3 3.175507 1_555
Mg11 Mg5 3.175514 1_545
Mg11 Mg9 3.252857 1_545
Mg11 Mg7 3.252857 1_555
Mg11 Mg13 3.265739 1_555
Mg11 Mg13 3.265739 1_545
Mg11 Mg2 3.282408 1_556
Mg11 Mg4 3.282414 1_546
Mg11 Mg9 3.358941 1_655
Mg11 Mg7 3.358941 1_655
Mg12 Mg5 3.224287 1_555
Mg12 Mg3 3.224293 1_555
Mg12 Mg4 3.257299 1_555
Mg12 Mg2 3.257305 1_555
Mg12 Mg6 3.260461 1_555
Mg12 Mg8 3.260462 1_555
Mg12 Mg6 3.354132 1_665
Mg12 Mg8 3.354132 1_655
Mg13 Mg5 3.224287 1_555
Mg13 Mg3 3.224293 1_555
Mg13 Mg4 3.257299 1_556
Mg13 Mg2 3.257305 1_556
Mg13 Mg7 3.260461 1_555
Mg13 Mg9 3.260462 1_555
Mg13 Mg7 3.354132 1_665
Mg13 Mg9 3.354132 1_655
Bi0 La0 3.265131 1_565
Bi0 La0 3.265132 1_555
Bi0 Mg2 3.272675 1_565
Bi0 Mg4 3.272675 1_555
Bi0 Mg12 3.292991 1_455
Bi0 Mg13 3.292991 1_454
Bi0 Mg8 3.332879 1_555
Bi0 Mg9 3.332879 1_554
Bi0 Mg6 3.332885 1_565
Bi0 Mg7 3.332885 1_564
Bi0 Mg2 3.338615 1_455
Bi0 Mg4 3.338615 1_455
