# generated using pymatgen
data_GaAgO2
_symmetry_space_group_name_H-M   'P 1'
_cell_length_a   6.43050818
_cell_length_b   6.43050818
_cell_length_c   6.43050808
_cell_angle_alpha   27.06759779
_cell_angle_beta   27.06759779
_cell_angle_gamma   27.06760479
_symmetry_Int_Tables_number   1
_chemical_formula_structural   GaAgO2
_chemical_formula_sum   'Ga1 Ag1 O2'
_cell_volume   48.56951449
_cell_formula_units_Z   1
loop_
 _symmetry_equiv_pos_site_id
 _symmetry_equiv_pos_as_xyz
  1  'x, y, z'
loop_
 _atom_site_type_symbol
 _atom_site_label
 _atom_site_symmetry_multiplicity
 _atom_site_fract_x
 _atom_site_fract_y
 _atom_site_fract_z
 _atom_site_occupancy
  Ga  Ga0  1  0.99796000  0.99796000  0.99796000  1
  Ag  Ag0  1  0.15989200  0.15989200  0.15989200  1
  O  O0  1  0.27797000  0.27797000  0.27797000  1
  O  O1  1  0.72317700  0.72317700  0.72317700  1
loop_
_geom_bond_atom_site_label_1
_geom_bond_atom_site_label_2
_geom_bond_distance
_geom_bond_site_symmetry_2
Ga0 O0 2.000101 1_665
Ga0 O0 2.000101 1_566
Ga0 O0 2.000101 1_656
Ga0 O1 2.049912 1_556
Ga0 O1 2.049913 1_655
Ga0 O1 2.049913 1_565
Ag0 O0 2.193162 1_555
Ag0 O1 2.589715 1_445
Ag0 O1 2.589715 1_544
Ag0 O1 2.589715 1_454
