# generated using pymatgen
data_DyThCN
_symmetry_space_group_name_H-M   'P 1'
_cell_length_a   3.66394100
_cell_length_b   3.66394100
_cell_length_c   5.11144500
_cell_angle_alpha   90.00000000
_cell_angle_beta   90.00000000
_cell_angle_gamma   90.00000000
_symmetry_Int_Tables_number   1
_chemical_formula_structural   DyThCN
_chemical_formula_sum   'Dy1 Th1 C1 N1'
_cell_volume   68.61840761
_cell_formula_units_Z   1
loop_
 _symmetry_equiv_pos_site_id
 _symmetry_equiv_pos_as_xyz
  1  'x, y, z'
loop_
 _atom_site_type_symbol
 _atom_site_label
 _atom_site_symmetry_multiplicity
 _atom_site_fract_x
 _atom_site_fract_y
 _atom_site_fract_z
 _atom_site_occupancy
  Dy  Dy0  1  0.00000000  0.00000000  0.50000000  1
  Th  Th0  1  0.50000000  0.50000000  0.00000000  1
  C  C0  1  0.00000000  0.00000000  0.00000000  1
  N  N0  1  0.50000000  0.50000000  0.50000000  1
loop_
_geom_bond_atom_site_label_1
_geom_bond_atom_site_label_2
_geom_bond_distance
_geom_bond_site_symmetry_2
Dy0 N0 2.590798 1_445
Dy0 N0 2.590798 1_555
Dy0 N0 2.590798 1_545
Dy0 N0 2.590798 1_455
C0 Dy0 2.555722 1_555
C0 Dy0 2.555722 1_554
C0 Th0 2.590798 1_455
C0 Th0 2.590798 1_445
C0 Th0 2.590798 1_555
C0 Th0 2.590798 1_545
N0 Th0 2.555722 1_556
N0 Th0 2.555722 1_555
