# generated using pymatgen
data_TmP5O14
_symmetry_space_group_name_H-M   'P 1'
_cell_length_a   9.16163161
_cell_length_b   9.16163161
_cell_length_c   12.51415392
_cell_angle_alpha   88.92632824
_cell_angle_beta   88.92632824
_cell_angle_gamma   89.58327207
_symmetry_Int_Tables_number   1
_chemical_formula_structural   TmP5O14
_chemical_formula_sum   'Tm4 P20 O56'
_cell_volume   1049.98771121
_cell_formula_units_Z   4
loop_
 _symmetry_equiv_pos_site_id
 _symmetry_equiv_pos_as_xyz
  1  'x, y, z'
loop_
 _atom_site_type_symbol
 _atom_site_label
 _atom_site_symmetry_multiplicity
 _atom_site_fract_x
 _atom_site_fract_y
 _atom_site_fract_z
 _atom_site_occupancy
  Tm  Tm0  1  0.01977100  0.98022900  0.25000000  1
  Tm  Tm1  1  0.98022900  0.01977100  0.75000000  1
  Tm  Tm2  1  0.46632600  0.53367400  0.25000000  1
  Tm  Tm3  1  0.53367400  0.46632600  0.75000000  1
  P  P0  1  0.17531200  0.11476100  0.49917700  1
  P  P1  1  0.88523900  0.82468800  0.00082300  1
  P  P2  1  0.82468800  0.88523900  0.50082300  1
  P  P3  1  0.11476100  0.17531200  0.99917700  1
  P  P4  1  0.44998800  0.18338500  0.39010300  1
  P  P5  1  0.81661500  0.55001200  0.10989700  1
  P  P6  1  0.55001200  0.81661500  0.60989700  1
  P  P7  1  0.18338500  0.44998800  0.89010300  1
  P  P8  1  0.62525600  0.32859500  0.03446700  1
  P  P9  1  0.67140500  0.37474400  0.46553300  1
  P  P10  1  0.37474400  0.67140500  0.96553300  1
  P  P11  1  0.32859500  0.62525600  0.53446700  1
  P  P12  1  0.31812000  0.97827900  0.89308000  1
  P  P13  1  0.02172100  0.68188000  0.60692000  1
  P  P14  1  0.68188000  0.02172100  0.10692000  1
  P  P15  1  0.97827900  0.31812000  0.39308000  1
  P  P16  1  0.42203800  0.92815600  0.24162900  1
  P  P17  1  0.07184400  0.57796200  0.25837100  1
  P  P18  1  0.57796200  0.07184400  0.75837100  1
  P  P19  1  0.92815600  0.42203800  0.74162900  1
  O  O0  1  0.53371500  0.35105600  0.13289700  1
  O  O1  1  0.64894400  0.46628500  0.36710300  1
  O  O2  1  0.46628500  0.64894400  0.86710300  1
  O  O3  1  0.35105600  0.53371500  0.63289700  1
  O  O4  1  0.57719400  0.37235100  0.92616700  1
  O  O5  1  0.62764900  0.42280600  0.57383300  1
  O  O6  1  0.42280600  0.62764900  0.07383300  1
  O  O7  1  0.37235100  0.57719400  0.42616700  1
  O  O8  1  0.14060100  0.01515700  0.41029000  1
  O  O9  1  0.98484300  0.85939900  0.08971000  1
  O  O10  1  0.85939900  0.98484300  0.58971000  1
  O  O11  1  0.01515700  0.14060100  0.91029000  1
  O  O12  1  0.14512200  0.07634900  0.61264900  1
  O  O13  1  0.92365200  0.85487800  0.88735100  1
  O  O14  1  0.85487800  0.92365200  0.38735100  1
  O  O15  1  0.07634900  0.14512200  0.11264900  1
  O  O16  1  0.34864300  0.15335200  0.49220300  1
  O  O17  1  0.84664800  0.65135700  0.00779700  1
  O  O18  1  0.65135700  0.84664800  0.50779700  1
  O  O19  1  0.60192800  0.21179300  0.44374200  1
  O  O20  1  0.15335200  0.34864300  0.99220300  1
  O  O21  1  0.69961400  0.60537600  0.18124400  1
  O  O22  1  0.60537600  0.69961400  0.68124400  1
  O  O23  1  0.30038600  0.39462400  0.81875600  1
  O  O24  1  0.95885600  0.26725100  0.71615900  1
  O  O25  1  0.73274900  0.04114400  0.78384100  1
  O  O26  1  0.04114400  0.73274900  0.28384100  1
  O  O27  1  0.26725100  0.95885600  0.21615900  1
  O  O28  1  0.22153100  0.52571800  0.23091500  1
  O  O29  1  0.47428200  0.77846900  0.26908500  1
  O  O30  1  0.77846900  0.47428200  0.76908500  1
  O  O31  1  0.52571800  0.22153100  0.73091500  1
  O  O32  1  0.03019800  0.47852500  0.83818500  1
  O  O33  1  0.52147500  0.96980200  0.66181500  1
  O  O34  1  0.96980200  0.52147500  0.16181500  1
  O  O35  1  0.47852500  0.03019800  0.33818500  1
  O  O36  1  0.00483000  0.48293800  0.36035100  1
  O  O37  1  0.51706200  0.99517000  0.13964900  1
  O  O38  1  0.99517000  0.51706200  0.63964900  1
  O  O39  1  0.48293800  0.00483000  0.86035100  1
  O  O40  1  0.10635100  0.27859300  0.47188500  1
  O  O41  1  0.72140700  0.89364900  0.02811500  1
  O  O42  1  0.89364900  0.72140700  0.52811500  1
  O  O43  1  0.27859300  0.10635100  0.97188500  1
  O  O44  1  0.96271000  0.21784500  0.30334400  1
  O  O45  1  0.78215500  0.03729000  0.19665600  1
  O  O46  1  0.03729000  0.78215500  0.69665600  1
  O  O47  1  0.21784500  0.96271000  0.80334400  1
  O  O48  1  0.15765100  0.67372900  0.52743400  1
  O  O49  1  0.32627200  0.84234900  0.97256600  1
  O  O50  1  0.84234900  0.32627100  0.47256600  1
  O  O51  1  0.67372900  0.15765100  0.02743400  1
  O  O52  1  0.21179300  0.60192800  0.94374200  1
  O  O53  1  0.39807200  0.78820700  0.55625800  1
  O  O54  1  0.78820700  0.39807200  0.05625800  1
  O  O55  1  0.39462400  0.30038600  0.31875600  1
loop_
_geom_bond_atom_site_label_1
_geom_bond_atom_site_label_2
_geom_bond_distance
_geom_bond_site_symmetry_2
O0 P8 1.493731 1_555
O0 Tm2 2.317509 1_555
O1 P9 1.493731 1_555
O1 Tm2 2.317509 1_555
O2 P10 1.493731 1_555
O2 Tm3 2.317509 1_555
O3 P11 1.493731 1_555
O3 Tm3 2.317509 1_555
O4 P8 1.480141 1_556
O4 Tm3 2.391072 1_555
O5 P9 1.480141 1_555
O5 Tm3 2.391072 1_555
O6 P10 1.480141 1_554
O6 Tm2 2.391072 1_555
O7 P11 1.480141 1_555
O7 Tm2 2.391072 1_555
O8 P0 1.492207 1_555
O8 Tm0 2.337495 1_545
O9 P1 1.492207 1_555
O9 Tm0 2.337495 1_655
O10 P2 1.492207 1_555
O10 Tm1 2.337495 1_565
O11 P3 1.492207 1_555
O11 Tm1 2.337495 1_455
O12 P0 1.478084 1_555
O12 Tm1 2.320762 1_455
O13 P1 1.478086 1_556
O13 Tm1 2.320760 1_565
O14 P2 1.478086 1_555
O14 Tm0 2.320760 1_655
O15 P3 1.478084 1_554
O15 Tm0 2.320762 1_545
O16 P4 1.586311 1_555
O16 P0 1.629774 1_555
O17 P5 1.586311 1_555
O17 P1 1.629774 1_555
O18 P6 1.586311 1_555
O18 P2 1.629774 1_555
O19 P4 1.582043 1_555
O19 P9 1.656457 1_555
O20 P7 1.586311 1_555
O20 P3 1.629774 1_555
O21 P5 1.475351 1_555
O21 Tm2 2.381223 1_555
O22 P6 1.475351 1_555
O22 Tm3 2.381223 1_555
O23 P7 1.475351 1_555
O23 Tm3 2.381223 1_555
O24 P19 1.483068 1_555
O24 Tm1 2.306316 1_555
O25 P18 1.483068 1_555
O25 Tm1 2.306316 1_555
O26 P17 1.483068 1_555
O26 Tm0 2.306316 1_555
O27 P16 1.483068 1_555
O27 Tm0 2.306316 1_555
O28 P17 1.485524 1_555
O28 Tm2 2.261694 1_555
O29 P16 1.485524 1_555
O29 Tm2 2.261694 1_555
O30 P19 1.485524 1_555
O30 Tm3 2.261694 1_555
O31 P18 1.485524 1_555
O31 Tm3 2.261694 1_555
O32 P7 1.575626 1_555
O32 P19 1.635432 1_455
O33 P6 1.575626 1_555
O33 P18 1.635432 1_565
O34 P5 1.575626 1_555
O34 P17 1.635432 1_655
O35 P4 1.575626 1_555
O35 P16 1.635432 1_545
O36 P15 1.576534 1_455
O36 P17 1.643256 1_555
O37 P14 1.576534 1_565
O37 P16 1.643256 1_555
O38 P13 1.576534 1_655
O38 P19 1.643256 1_555
O39 P12 1.576534 1_545
O39 P18 1.643256 1_555
O40 P15 1.582477 1_455
O40 P0 1.656442 1_555
O41 P14 1.582477 1_565
O41 P1 1.656442 1_555
O42 P13 1.582477 1_655
O42 P2 1.656442 1_555
O43 P12 1.582477 1_545
O43 P3 1.656442 1_555
O44 P15 1.473756 1_555
O44 Tm0 2.341551 1_645
O45 P14 1.473756 1_555
O45 Tm0 2.341551 1_645
O46 P13 1.473756 1_555
O46 Tm1 2.341551 1_465
O47 P12 1.473756 1_555
O47 Tm1 2.341551 1_465
O48 P13 1.581419 1_555
O48 P11 1.628281 1_555
O49 P12 1.581419 1_555
O49 P10 1.628278 1_555
O50 P15 1.581419 1_555
O50 P9 1.628281 1_555
O51 P14 1.581419 1_555
O51 P8 1.628281 1_555
O52 P7 1.582043 1_555
O52 P10 1.656457 1_555
O53 P6 1.582043 1_555
O53 P11 1.656457 1_555
O54 P5 1.582043 1_555
O54 P8 1.656457 1_555
O55 P4 1.475351 1_555
O55 Tm2 2.381223 1_555
