# generated using pymatgen
data_CaO2
_symmetry_space_group_name_H-M   'P 1'
_cell_length_a   5.21197730
_cell_length_b   5.21197730
_cell_length_c   7.03998672
_cell_angle_alpha   71.08082303
_cell_angle_beta   71.08082303
_cell_angle_gamma   89.45299119
_symmetry_Int_Tables_number   1
_chemical_formula_structural   CaO2
_chemical_formula_sum   'Ca4 O8'
_cell_volume   170.15566624
_cell_formula_units_Z   4
loop_
 _symmetry_equiv_pos_site_id
 _symmetry_equiv_pos_as_xyz
  1  'x, y, z'
loop_
 _atom_site_type_symbol
 _atom_site_label
 _atom_site_symmetry_multiplicity
 _atom_site_fract_x
 _atom_site_fract_y
 _atom_site_fract_z
 _atom_site_occupancy
  Ca  Ca0  1  0.63682000  0.87474600  0.74201800  1
  Ca  Ca1  1  0.12525400  0.36318000  0.75798200  1
  Ca  Ca2  1  0.87474600  0.63682000  0.24201800  1
  Ca  Ca3  1  0.36318000  0.12525400  0.25798200  1
  O  O0  1  0.72478700  0.47148300  0.00017000  1
  O  O1  1  0.52851700  0.27521300  0.49983000  1
  O  O2  1  0.74584900  0.02756100  0.00262600  1
  O  O3  1  0.97243900  0.25415100  0.49737400  1
  O  O4  1  0.27521300  0.52851700  0.99983000  1
  O  O5  1  0.47148300  0.72478700  0.50017000  1
  O  O6  1  0.25415100  0.97243900  0.99737400  1
  O  O7  1  0.02756100  0.74584900  0.50262600  1
loop_
_geom_bond_atom_site_label_1
_geom_bond_atom_site_label_2
_geom_bond_distance
_geom_bond_site_symmetry_2
Ca0 O6 2.391235 1_555
Ca0 O4 2.413597 1_555
Ca0 O3 2.416676 1_565
Ca0 O1 2.424057 1_565
Ca0 O7 2.433411 1_655
Ca0 O2 2.440412 1_566
Ca0 O0 2.444499 1_556
Ca0 O5 2.465674 1_555
Ca1 O7 2.391235 1_555
Ca1 O5 2.413597 1_555
Ca1 O2 2.416676 1_456
Ca1 O0 2.424057 1_456
Ca1 O6 2.433411 1_545
Ca1 O3 2.440412 1_455
Ca1 O1 2.444499 1_555
Ca1 O4 2.465674 1_555
Ca2 O3 2.391235 1_555
Ca2 O1 2.413597 1_555
Ca2 O6 2.416676 1_654
Ca2 O4 2.424057 1_654
Ca2 O2 2.433411 1_565
Ca2 O7 2.440412 1_655
Ca2 O5 2.444499 1_555
Ca2 O0 2.465674 1_555
Ca3 O2 2.391235 1_555
Ca3 O0 2.413597 1_555
Ca3 O7 2.416676 1_545
Ca3 O5 2.424057 1_545
Ca3 O3 2.433411 1_455
Ca3 O6 2.440412 1_544
Ca3 O4 2.444499 1_554
Ca3 O1 2.465674 1_555
