# generated using pymatgen
data_Sr4MgMn2(GaO5)2
_symmetry_space_group_name_H-M   'P 1'
_cell_length_a   6.54522675
_cell_length_b   6.10863405
_cell_length_c   9.02678044
_cell_angle_alpha   68.12910792
_cell_angle_beta   74.90733263
_cell_angle_gamma   97.88720533
_symmetry_Int_Tables_number   1
_chemical_formula_structural   Sr4MgMn2(GaO5)2
_chemical_formula_sum   'Sr4 Mg1 Mn2 Ga2 O10'
_cell_volume   312.13860698
_cell_formula_units_Z   1
loop_
 _symmetry_equiv_pos_site_id
 _symmetry_equiv_pos_as_xyz
  1  'x, y, z'
loop_
 _atom_site_type_symbol
 _atom_site_label
 _atom_site_symmetry_multiplicity
 _atom_site_fract_x
 _atom_site_fract_y
 _atom_site_fract_z
 _atom_site_occupancy
  Sr  Sr0  1  0.18859400  0.63242000  0.78148800  1
  Sr  Sr1  1  0.77321300  0.39356700  0.21822600  1
  Sr  Sr2  1  0.76503200  0.07672400  0.74341900  1
  Sr  Sr3  1  0.39126400  0.93060900  0.20993800  1
  Mg  Mg0  1  0.30619100  0.47632800  0.14578300  1
  Mn  Mn0  1  0.62279500  0.48857800  0.87828100  1
  Mn  Mn1  1  0.01136100  0.01827900  0.02958500  1
  Ga  Ga0  1  0.63429000  0.69893600  0.47801800  1
  Ga  Ga1  1  0.33416300  0.27842500  0.53729800  1
  O  O0  1  0.28748900  0.29224600  0.00563200  1
  O  O1  1  0.11879700  0.69816600  0.12303400  1
  O  O2  1  0.83840800  0.29387200  0.92423200  1
  O  O3  1  0.61346300  0.69306700  0.02364600  1
  O  O4  1  0.61982600  0.75839100  0.66482900  1
  O  O5  1  0.34560500  0.23114300  0.34452100  1
  O  O6  1  0.13479700  0.04073900  0.73634500  1
  O  O7  1  0.76524300  0.95333800  0.26949000  1
  O  O8  1  0.32009900  0.60431400  0.50313400  1
  O  O9  1  0.64365700  0.36942900  0.51881400  1
loop_
_geom_bond_atom_site_label_1
_geom_bond_atom_site_label_2
_geom_bond_distance
_geom_bond_site_symmetry_2
Mg0 O1 1.939827 1_555
Mg0 O5 1.968074 1_555
Mg0 O0 1.995677 1_555
Mg0 O3 2.010032 1_555
Mn0 O2 1.994046 1_555
Mn0 O4 2.022792 1_555
Mn0 O3 2.118089 1_556
Mn0 O0 2.124383 1_556
Mn1 O1 2.118298 1_545
Mn1 O7 2.193158 1_445
Mn1 O0 2.193347 1_555
Mn1 O2 2.216049 1_454
Mn1 O6 2.502709 1_554
Ga0 O7 1.818723 1_555
Ga0 O4 1.834959 1_555
Ga0 O9 1.919444 1_555
Ga0 O8 1.986917 1_555
Ga1 O6 1.831567 1_555
Ga1 O5 1.851945 1_555
Ga1 O8 1.916844 1_555
Ga1 O9 1.971343 1_555
O0 Sr0 2.597989 1_554
O0 Sr3 2.602208 1_545
O1 Sr1 2.440980 1_455
O1 Sr3 2.583668 1_555
O2 Sr0 2.523181 1_655
O2 Sr2 2.549612 1_555
O2 Sr1 2.877746 1_556
O2 Sr3 3.188100 1_546
O3 Sr2 2.552185 1_564
O3 Sr1 2.571537 1_555
O3 Sr3 2.858682 1_555
O4 Sr2 2.461628 1_565
O4 Sr0 2.630587 1_555
O5 Sr3 2.560990 1_545
O5 Sr1 2.617422 1_555
O6 Sr2 2.446575 1_455
O6 Sr0 2.463723 1_545
O7 Sr1 2.543705 1_565
O7 Sr3 2.635799 1_555
O8 Sr0 2.513842 1_555
O8 Sr3 2.523373 1_555
O9 Sr2 2.542933 1_555
O9 Sr1 2.563678 1_555
