# generated using pymatgen
data_Mg4Si7
_symmetry_space_group_name_H-M   'P 1'
_cell_length_a   4.06940700
_cell_length_b   7.96297619
_cell_length_c   12.61241960
_cell_angle_alpha   102.75358684
_cell_angle_beta   98.85950475
_cell_angle_gamma   90.16290837
_symmetry_Int_Tables_number   1
_chemical_formula_structural   Mg4Si7
_chemical_formula_sum   'Mg8 Si14'
_cell_volume   393.57319785
_cell_formula_units_Z   2
loop_
 _symmetry_equiv_pos_site_id
 _symmetry_equiv_pos_as_xyz
  1  'x, y, z'
loop_
 _atom_site_type_symbol
 _atom_site_label
 _atom_site_symmetry_multiplicity
 _atom_site_fract_x
 _atom_site_fract_y
 _atom_site_fract_z
 _atom_site_occupancy
  Mg  Mg0  1  0.83069400  0.86002700  0.09501300  1
  Mg  Mg1  1  0.55030100  0.54612200  0.53464400  1
  Mg  Mg2  1  0.13748000  0.86013600  0.70328600  1
  Mg  Mg3  1  0.96106500  0.30159600  0.36098800  1
  Mg  Mg4  1  0.86448300  0.54074700  0.16684600  1
  Mg  Mg5  1  0.68422400  0.64060000  0.80482600  1
  Mg  Mg6  1  0.06652900  0.16240300  0.56535200  1
  Mg  Mg7  1  0.98510000  0.77227600  0.40468400  1
  Si  Si0  1  0.27982400  0.61724600  0.00612900  1
  Si  Si1  1  0.28820000  0.27434100  0.00687700  1
  Si  Si2  1  0.75617300  0.42204900  0.93879700  1
  Si  Si3  1  0.25975600  0.87578500  0.92949600  1
  Si  Si4  1  0.47710700  0.06813700  0.40294500  1
  Si  Si5  1  0.57376200  0.92104500  0.56733100  1
  Si  Si6  1  0.76802800  0.04951200  0.92439400  1
  Si  Si7  1  0.84073200  0.20209900  0.12354900  1
  Si  Si8  1  0.43340600  0.51952600  0.31229800  1
  Si  Si9  1  0.18687300  0.32742500  0.79702800  1
  Si  Si10  1  0.10941300  0.50412500  0.66164200  1
  Si  Si11  1  0.39934100  0.79884400  0.24317200  1
  Si  Si12  1  0.37404200  0.09765400  0.20349900  1
  Si  Si13  1  0.66622000  0.13471300  0.74361600  1
loop_
_geom_bond_atom_site_label_1
_geom_bond_atom_site_label_2
_geom_bond_distance
_geom_bond_site_symmetry_2
Mg0 Si7 2.667000 1_565
Mg0 Si0 2.833551 1_655
Mg0 Si11 2.856654 1_655
Mg0 Si11 2.866688 1_555
Mg0 Si6 2.870400 1_564
Mg0 Si12 2.871034 1_665
Mg0 Si0 2.874700 1_555
Mg0 Mg4 2.878232 1_555
Mg0 Si3 2.897432 1_554
Mg0 Si12 2.926777 1_565
Mg0 Si3 2.942694 1_654
Mg1 Si10 2.640549 1_655
Mg1 Si10 2.648531 1_555
Mg1 Si8 2.731603 1_555
Mg1 Si5 2.921495 1_555
Mg2 Si5 2.756778 1_455
Mg2 Si5 2.761814 1_555
Mg2 Si10 2.765480 1_555
Mg2 Si3 2.794358 1_555
Mg2 Si13 2.924096 1_465
Mg2 Si13 2.968842 1_565
Mg3 Si8 2.810413 1_655
Mg3 Si8 2.843395 1_555
Mg3 Si4 2.874057 1_655
Mg3 Si7 2.886893 1_555
Mg3 Si4 2.889495 1_555
Mg3 Mg6 2.996613 1_655
Mg3 Si12 3.004435 1_655
Mg3 Si12 3.062918 1_555
Mg4 Si7 2.628980 1_555
Mg4 Si8 2.754062 1_655
Mg4 Si8 2.756395 1_555
Mg4 Si2 2.786987 1_554
Mg4 Si11 2.888541 1_655
Mg4 Si11 2.905751 1_555
Mg4 Si0 2.988530 1_655
Mg4 Si0 3.034550 1_555
Mg5 Si2 2.668023 1_555
Mg5 Si10 2.746412 1_655
Mg5 Si10 2.780599 1_555
Mg5 Si3 2.918599 1_555
Mg5 Si3 3.000927 1_655
Mg5 Si9 3.182247 1_555
Mg5 Si9 3.224193 1_655
Mg5 Si6 3.265009 1_565
Mg6 Si10 2.717133 1_555
Mg6 Si5 2.780327 1_445
Mg6 Si4 2.816599 1_555
Mg6 Si5 2.825414 1_545
Mg6 Si4 2.882703 1_455
Mg6 Si9 2.892219 1_555
Mg6 Si13 3.017013 1_455
Mg6 Si13 3.096935 1_555
Mg7 Si11 2.877841 1_655
Mg7 Si8 2.894287 1_655
Mg7 Si5 2.899909 1_555
Mg7 Si11 2.928107 1_555
Mg7 Si8 2.929483 1_555
Mg7 Si5 2.957569 1_655
Mg7 Si4 3.093402 1_665
Mg7 Si4 3.140206 1_565
Si0 Si3 2.456510 1_554
Si0 Si2 2.553248 1_454
Si0 Si2 2.614612 1_554
Si0 Si1 2.732934 1_555
Si1 Si2 2.585383 1_554
Si1 Si2 2.587636 1_454
Si1 Si7 2.629427 1_555
Si1 Si7 2.646737 1_455
Si1 Si6 2.691855 1_454
Si1 Si9 2.740901 1_554
Si1 Si6 2.814856 1_554
Si2 Si9 2.686035 1_655
Si2 Si9 2.692824 1_555
Si2 Si6 2.932755 1_555
Si3 Si6 2.436686 1_465
Si3 Si6 2.502011 1_565
Si4 Si5 2.578536 1_545
Si6 Si7 2.508922 1_556
Si10 Si9 2.427428 1_555
Si11 Si12 2.536492 1_565
Si11 Si8 2.558732 1_555
Si11 Si4 2.578963 1_565
Si12 Si7 2.474869 1_455
Si12 Si7 2.503289 1_555
Si12 Si4 2.548629 1_555
Si13 Si5 2.459332 1_545
Si13 Si6 2.494831 1_555
Si13 Si9 2.526505 1_655
Si13 Si9 2.564979 1_555
