# generated using pymatgen
data_Ce(Mg4Al3)4
_symmetry_space_group_name_H-M   'P 1'
_cell_length_a   9.26692349
_cell_length_b   9.26692349
_cell_length_c   9.26692364
_cell_angle_alpha   110.32297161
_cell_angle_beta   110.32297161
_cell_angle_gamma   110.32296998
_symmetry_Int_Tables_number   1
_chemical_formula_structural   Ce(Mg4Al3)4
_chemical_formula_sum   'Ce1 Mg16 Al12'
_cell_volume   592.50601137
_cell_formula_units_Z   1
loop_
 _symmetry_equiv_pos_site_id
 _symmetry_equiv_pos_as_xyz
  1  'x, y, z'
loop_
 _atom_site_type_symbol
 _atom_site_label
 _atom_site_symmetry_multiplicity
 _atom_site_fract_x
 _atom_site_fract_y
 _atom_site_fract_z
 _atom_site_occupancy
  Ce  Ce0  1  0.37090100  0.37090100  0.37090100  1
  Mg  Mg0  1  0.99526100  0.99526100  0.99526100  1
  Mg  Mg1  1  0.31496000  0.31496000  0.71641000  1
  Mg  Mg2  1  0.61238700  0.61238700  0.28029200  1
  Mg  Mg3  1  0.99615500  0.99615500  0.65356100  1
  Mg  Mg4  1  0.68820500  0.39447400  0.00185300  1
  Mg  Mg5  1  0.00185300  0.68820500  0.39447400  1
  Mg  Mg6  1  0.61238700  0.28029200  0.61238700  1
  Mg  Mg7  1  0.99615500  0.65356100  0.99615500  1
  Mg  Mg8  1  0.39447400  0.00185300  0.68820500  1
  Mg  Mg9  1  0.71641000  0.31496000  0.31496000  1
  Mg  Mg10  1  0.31496000  0.71641000  0.31496000  1
  Mg  Mg11  1  0.00185300  0.39447400  0.68820500  1
  Mg  Mg12  1  0.65356100  0.99615500  0.99615500  1
  Mg  Mg13  1  0.28029200  0.61238700  0.61238700  1
  Mg  Mg14  1  0.68820500  0.00185300  0.39447400  1
  Mg  Mg15  1  0.39447400  0.68820500  0.00185300  1
  Al  Al0  1  0.63086900  0.63086900  0.81238500  1
  Al  Al1  1  0.81082200  0.81082200  0.17521700  1
  Al  Al2  1  0.36366500  0.18465800  0.99993200  1
  Al  Al3  1  0.81238500  0.63086900  0.63086900  1
  Al  Al4  1  0.18465800  0.99993200  0.36366500  1
  Al  Al5  1  0.17521700  0.81082200  0.81082200  1
  Al  Al6  1  0.36366500  0.99993200  0.18465800  1
  Al  Al7  1  0.99993200  0.36366500  0.18465800  1
  Al  Al8  1  0.81082200  0.17521700  0.81082200  1
  Al  Al9  1  0.99993200  0.18465800  0.36366500  1
  Al  Al10  1  0.63086900  0.81238500  0.63086900  1
  Al  Al11  1  0.18465800  0.36366500  0.99993200  1
loop_
_geom_bond_atom_site_label_1
_geom_bond_atom_site_label_2
_geom_bond_distance
_geom_bond_site_symmetry_2
Ce0 Mg13 3.138896 1_555
Ce0 Mg6 3.138896 1_555
Ce0 Mg2 3.138896 1_555
Ce0 Mg0 3.331854 1_444
Ce0 Mg9 3.592807 1_555
Ce0 Mg10 3.592807 1_555
Ce0 Mg1 3.592807 1_555
Mg0 Mg7 3.172271 1_555
Mg0 Mg12 3.172271 1_555
Mg0 Mg3 3.172271 1_555
Mg1 Mg3 3.056517 1_445
Mg1 Mg4 3.166060 1_556
Mg1 Mg15 3.166060 1_556
Mg1 Mg11 3.181553 1_555
Mg1 Mg8 3.181553 1_555
Mg1 Mg13 3.297697 1_555
Mg1 Mg6 3.297697 1_555
Mg2 Mg5 3.115880 1_655
Mg2 Mg4 3.139238 1_555
Mg2 Mg9 3.297697 1_555
Mg2 Mg3 3.374167 1_555
Mg3 Mg5 3.056890 1_655
Mg4 Mg7 3.056890 1_554
Mg4 Mg8 3.061778 1_554
Mg4 Mg5 3.061778 1_655
Mg4 Mg6 3.115880 1_554
Mg4 Mg9 3.181553 1_555
Mg5 Mg8 3.061778 1_565
Mg5 Mg9 3.166060 1_455
Mg6 Mg8 3.139238 1_555
Mg6 Mg9 3.297697 1_555
Mg6 Mg7 3.374167 1_555
Mg10 Mg7 3.056517 1_454
Mg10 Mg8 3.166060 1_565
Mg10 Mg14 3.166060 1_565
Mg10 Mg5 3.181553 1_555
Mg10 Mg15 3.181553 1_555
Mg10 Mg2 3.297697 1_555
Mg10 Mg13 3.297697 1_555
Mg11 Mg7 3.056890 1_455
Mg11 Mg15 3.061778 1_556
Mg11 Mg14 3.061778 1_455
Mg11 Mg6 3.115880 1_455
Mg11 Mg13 3.139238 1_555
Mg11 Mg9 3.166060 1_455
Mg12 Mg9 3.056517 1_566
Mg12 Mg8 3.056890 1_565
Mg12 Mg15 3.056890 1_556
Mg12 Mg13 3.374167 1_555
Mg13 Mg8 3.115880 1_565
Mg13 Mg15 3.115880 1_556
Mg13 Mg5 3.139238 1_555
Mg14 Mg3 3.056890 1_545
Mg14 Mg15 3.061778 1_545
Mg14 Mg2 3.115880 1_545
Mg14 Mg6 3.139238 1_555
Mg14 Mg9 3.181553 1_555
Mg15 Mg2 3.139238 1_555
Al0 Al1 2.673174 1_556
Al0 Al10 2.761211 1_555
Al0 Al3 2.761211 1_555
Al0 Mg1 2.891588 1_555
Al0 Mg13 3.037988 1_555
Al0 Mg6 3.037988 1_555
Al0 Mg7 3.107346 1_555
Al0 Mg12 3.107346 1_555
Al0 Mg0 3.131564 1_555
Al0 Ce0 3.259055 1_555
Al0 Mg15 3.316067 1_556
Al0 Mg4 3.316067 1_556
Al1 Al4 2.752629 1_655
Al1 Al9 2.752629 1_565
Al1 Mg2 2.801746 1_555
Al1 Mg14 3.009290 1_565
Al1 Mg5 3.009290 1_655
Al1 Mg12 3.140918 1_554
Al1 Mg7 3.140918 1_554
Al1 Mg15 3.184245 1_555
Al1 Mg4 3.184245 1_555
Al1 Mg0 3.248721 1_554
Al2 Al5 2.752629 1_545
Al2 Al6 2.810041 1_546
Al2 Mg4 2.950030 1_556
Al2 Mg8 2.967451 1_555
Al2 Mg9 2.974378 1_556
Al2 Mg3 3.054901 1_445
Al2 Mg2 3.180369 1_556
Al2 Mg1 3.213013 1_555
Al2 Mg0 3.227999 1_445
Al2 Ce0 3.231012 1_556
Al3 Al5 2.673174 1_655
Al3 Mg9 2.891588 1_555
Al3 Mg2 3.037988 1_555
Al3 Mg6 3.037988 1_555
Al3 Mg3 3.107346 1_555
Al3 Mg7 3.107346 1_555
Al3 Mg0 3.131564 1_555
Al3 Ce0 3.259055 1_555
Al3 Mg11 3.316067 1_655
Al3 Mg5 3.316067 1_655
Al4 Al6 2.723044 1_555
Al4 Al9 2.810041 1_465
Al4 Mg8 2.950030 1_565
Al4 Mg5 2.967451 1_555
Al4 Mg1 2.974378 1_565
Al4 Mg7 3.054901 1_454
Al4 Mg6 3.180369 1_565
Al4 Mg10 3.213013 1_555
Al4 Mg0 3.227999 1_454
Al4 Ce0 3.231012 1_565
Al5 Al6 2.752629 1_556
Al5 Mg13 2.801745 1_555
Al5 Mg15 3.009290 1_556
Al5 Mg8 3.009290 1_565
Al5 Mg3 3.140918 1_455
Al5 Mg7 3.140919 1_455
Al5 Mg11 3.184245 1_555
Al5 Mg5 3.184245 1_555
Al5 Mg0 3.248721 1_455
Al6 Mg14 2.950030 1_565
Al6 Mg15 2.967451 1_555
Al6 Mg9 2.974378 1_565
Al6 Mg7 3.054901 1_454
Al6 Mg6 3.180369 1_565
Al6 Mg10 3.213013 1_555
Al6 Mg0 3.227999 1_454
Al6 Ce0 3.231012 1_565
Al7 Al9 2.723044 1_555
Al7 Al8 2.752629 1_554
Al7 Mg5 2.950030 1_655
Al7 Mg4 2.967451 1_555
Al7 Mg10 2.974378 1_655
Al7 Mg12 3.054901 1_544
Al7 Mg13 3.180369 1_655
Al7 Mg9 3.213013 1_555
Al7 Mg0 3.227999 1_544
Al7 Ce0 3.231012 1_655
Al8 Mg6 2.801745 1_555
Al8 Mg4 3.009290 1_556
Al8 Mg11 3.009290 1_655
Al8 Mg3 3.140918 1_545
Al8 Mg12 3.140919 1_545
Al8 Mg8 3.184245 1_555
Al8 Mg14 3.184245 1_555
Al8 Mg0 3.248721 1_545
Al9 Mg11 2.950030 1_655
Al9 Mg14 2.967451 1_555
Al9 Mg1 2.974378 1_655
Al9 Mg12 3.054901 1_544
Al9 Mg13 3.180369 1_655
Al9 Mg9 3.213013 1_555
Al9 Mg0 3.227999 1_544
Al9 Ce0 3.231012 1_655
Al10 Al8 2.673174 1_565
Al10 Al3 2.761211 1_555
Al10 Mg10 2.891588 1_555
Al10 Mg2 3.037988 1_555
Al10 Mg13 3.037988 1_555
Al10 Mg3 3.107346 1_555
Al10 Mg12 3.107346 1_555
Al10 Mg0 3.131564 1_555
Al10 Ce0 3.259055 1_555
Al10 Mg8 3.316067 1_565
Al10 Mg14 3.316067 1_565
Al11 Al2 2.723044 1_555
Al11 Al8 2.752629 1_455
Al11 Al7 2.810041 1_456
Al11 Mg15 2.950030 1_556
Al11 Mg11 2.967451 1_555
Al11 Mg10 2.974378 1_556
Al11 Mg3 3.054901 1_445
Al11 Mg2 3.180369 1_556
Al11 Mg1 3.213013 1_555
Al11 Mg0 3.227999 1_445
Al11 Ce0 3.231012 1_556
