# generated using pymatgen
data_NaCeTi4O12
_symmetry_space_group_name_H-M   'P 1'
_cell_length_a   5.40039060
_cell_length_b   5.40039060
_cell_length_c   7.79940927
_cell_angle_alpha   90.00000000
_cell_angle_beta   90.00000000
_cell_angle_gamma   90.42189317
_symmetry_Int_Tables_number   1
_chemical_formula_structural   NaCeTi4O12
_chemical_formula_sum   'Na1 Ce1 Ti4 O12'
_cell_volume   227.45751023
_cell_formula_units_Z   1
loop_
 _symmetry_equiv_pos_site_id
 _symmetry_equiv_pos_as_xyz
  1  'x, y, z'
loop_
 _atom_site_type_symbol
 _atom_site_label
 _atom_site_symmetry_multiplicity
 _atom_site_fract_x
 _atom_site_fract_y
 _atom_site_fract_z
 _atom_site_occupancy
  Na  Na0  1  0.98792598  0.01207402  0.00000000  1
  Ce  Ce0  1  0.52258968  0.47741032  0.50000000  1
  Ti  Ti0  1  0.49388988  0.98908107  0.23465467  1
  Ti  Ti1  1  0.49388988  0.98908107  0.76534533  1
  Ti  Ti2  1  0.01091893  0.50611012  0.76534533  1
  Ti  Ti3  1  0.01091893  0.50611012  0.23465467  1
  O  O0  1  0.29026768  0.28897180  0.27678687  1
  O  O1  1  0.71102820  0.70973232  0.27678687  1
  O  O2  1  0.71102820  0.70973232  0.72321313  1
  O  O3  1  0.29026768  0.28897180  0.72321313  1
  O  O4  1  0.20693756  0.79306244  0.21297751  1
  O  O5  1  0.75947721  0.24052279  0.30205527  1
  O  O6  1  0.75947721  0.24052279  0.69794473  1
  O  O7  1  0.20693756  0.79306244  0.78702249  1
  O  O8  1  0.55258969  0.02090757  0.00000000  1
  O  O9  1  0.46147793  0.93621465  0.50000000  1
  O  O10  1  0.97909243  0.44741031  0.00000000  1
  O  O11  1  0.06378535  0.53852207  0.50000000  1
loop_
_geom_bond_atom_site_label_1
_geom_bond_atom_site_label_2
_geom_bond_distance
_geom_bond_site_symmetry_2
Na0 O8 2.351821 1_555
Na0 O10 2.351821 1_555
Na0 O7 2.361702 1_644
Na0 O4 2.361702 1_645
Ce0 O0 2.371018 1_555
Ce0 O2 2.371018 1_555
Ce0 O3 2.371018 1_555
Ce0 O1 2.371018 1_555
Ce0 O5 2.383426 1_555
Ce0 O6 2.383426 1_555
Ce0 O11 2.502013 1_555
Ce0 O9 2.502013 1_555
O0 Ti3 1.945495 1_555
O0 Ti0 1.991553 1_545
O1 Ti0 1.945495 1_555
O1 Ti3 1.991553 1_655
O2 Ti1 1.945495 1_555
O2 Ti2 1.991553 1_655
O3 Ti2 1.945495 1_555
O3 Ti1 1.991553 1_545
O4 Ti3 1.877882 1_555
O4 Ti0 1.877882 1_555
O5 Ti0 2.036825 1_545
O5 Ti3 2.036825 1_655
O6 Ti1 2.036825 1_545
O6 Ti2 2.036825 1_655
O7 Ti2 1.877882 1_555
O7 Ti1 1.877882 1_555
O8 Ti1 1.865139 1_544
O8 Ti0 1.865139 1_545
O9 Ti0 2.096281 1_555
O9 Ti1 2.096281 1_555
O10 Ti2 1.865139 1_654
O10 Ti3 1.865139 1_655
O11 Ti3 2.096281 1_555
O11 Ti2 2.096281 1_555
