# generated using pymatgen
data_MgTi4MnZnNiO12
_symmetry_space_group_name_H-M   'P 1'
_cell_length_a   5.12159300
_cell_length_b   5.55251489
_cell_length_c   8.87963706
_cell_angle_alpha   105.39338494
_cell_angle_beta   90.00922061
_cell_angle_gamma   117.41520184
_symmetry_Int_Tables_number   1
_chemical_formula_structural   MgTi4MnZnNiO12
_chemical_formula_sum   'Mg1 Ti4 Mn1 Zn1 Ni1 O12'
_cell_volume   213.89501382
_cell_formula_units_Z   1
loop_
 _symmetry_equiv_pos_site_id
 _symmetry_equiv_pos_as_xyz
  1  'x, y, z'
loop_
 _atom_site_type_symbol
 _atom_site_label
 _atom_site_symmetry_multiplicity
 _atom_site_fract_x
 _atom_site_fract_y
 _atom_site_fract_z
 _atom_site_occupancy
  Mg  Mg0  1  0.53246300  0.88451900  0.17998900  1
  Ti  Ti0  1  0.71472300  0.86426300  0.57072000  1
  Ti  Ti1  1  0.21968000  0.36006600  0.07396700  1
  Ti  Ti2  1  0.78342600  0.63561600  0.93129900  1
  Ti  Ti3  1  0.28250300  0.14079300  0.42407400  1
  Mn  Mn0  1  0.46245300  0.10604500  0.81957400  1
  Zn  Zn0  1  0.03986700  0.40168200  0.67766500  1
  Ni  Ni0  1  0.97283700  0.61988900  0.32467000  1
  O  O0  1  0.50880100  0.45754900  0.28136500  1
  O  O1  1  0.99422600  0.95219100  0.78086800  1
  O  O2  1  0.03653600  0.26213200  0.47223600  1
  O  O3  1  0.54052800  0.75694600  0.98130100  1
  O  O4  1  0.06468700  0.62570200  0.11411600  1
  O  O5  1  0.56241400  0.12565000  0.60633100  1
  O  O6  1  0.99309000  0.04047700  0.21840300  1
  O  O7  1  0.49253600  0.54654900  0.71777100  1
  O  O8  1  0.46381100  0.23613400  0.02758600  1
  O  O9  1  0.95910100  0.73558200  0.52301600  1
  O  O10  1  0.43368800  0.87001300  0.38663200  1
  O  O11  1  0.94263000  0.37820000  0.88842000  1
loop_
_geom_bond_atom_site_label_1
_geom_bond_atom_site_label_2
_geom_bond_distance
_geom_bond_site_symmetry_2
Mg0 O3 1.726164 1_554
Mg0 O10 1.915870 1_555
Mg0 O6 2.096057 1_565
Mg0 O4 2.128339 1_555
Mn0 O8 1.794585 1_556
Mn0 O5 1.979341 1_555
Mn0 O1 2.134478 1_445
Mn0 O11 2.189093 1_555
Ni0 O9 1.720636 1_555
Ni0 O4 1.932935 1_655
Ni0 O10 2.092319 1_655
Ni0 O0 2.109875 1_555
O0 Ti1 2.146866 1_555
O0 Ti3 2.312789 1_555
O1 Ti0 2.154424 1_555
O1 Ti2 2.353532 1_555
O2 Ti3 1.688949 1_555
O2 Zn0 1.779212 1_555
O3 Ti2 1.676822 1_555
O4 Ti1 1.931792 1_555
O4 Ti2 2.198421 1_454
O5 Ti0 1.901032 1_545
O5 Zn0 2.182358 1_655
O5 Ti3 2.205422 1_555
O6 Ti3 2.131065 1_655
O6 Ti1 2.335155 1_655
O7 Zn0 2.068605 1_555
O7 Ti2 2.209514 1_555
O7 Ti0 2.342391 1_555
O8 Ti1 1.687757 1_555
O9 Ti0 1.708644 1_555
O10 Ti3 1.943553 1_565
O10 Ti0 2.194091 1_555
O11 Ti2 1.907123 1_555
O11 Zn0 1.958903 1_655
O11 Ti1 2.226423 1_656
