# generated using pymatgen
data_Te2MoW3(SeS2)2
_symmetry_space_group_name_H-M   'P 1'
_cell_length_a   3.30570431
_cell_length_b   3.30570431
_cell_length_c   37.63466700
_cell_angle_alpha   90.00000000
_cell_angle_beta   90.00000000
_cell_angle_gamma   120.00000622
_symmetry_Int_Tables_number   1
_chemical_formula_structural   Te2MoW3(SeS2)2
_chemical_formula_sum   'Te2 Mo1 W3 Se2 S4'
_cell_volume   356.16126924
_cell_formula_units_Z   1
loop_
 _symmetry_equiv_pos_site_id
 _symmetry_equiv_pos_as_xyz
  1  'x, y, z'
loop_
 _atom_site_type_symbol
 _atom_site_label
 _atom_site_symmetry_multiplicity
 _atom_site_fract_x
 _atom_site_fract_y
 _atom_site_fract_z
 _atom_site_occupancy
  Te  Te0  1  0.33333300  0.66666700  0.04310000  1
  Te  Te1  1  0.33333300  0.66666700  0.14470800  1
  Mo  Mo0  1  0.00000000  0.00000000  0.09388400  1
  W  W0  1  0.00000000  0.00000000  0.46964500  1
  W  W1  1  0.33333300  0.66666700  0.28180500  1
  W  W2  1  0.33333300  0.66666700  0.65755500  1
  Se  Se0  1  0.33333300  0.66666700  0.42479000  1
  Se  Se1  1  0.33333300  0.66666700  0.51453300  1
  S  S0  1  0.00000000  0.00000000  0.32256900  1
  S  S1  1  0.00000000  0.00000000  0.69829900  1
  S  S2  1  0.00000000  0.00000000  0.24107100  1
  S  S3  1  0.00000000  0.00000000  0.61678900  1
loop_
_geom_bond_atom_site_label_1
_geom_bond_atom_site_label_2
_geom_bond_distance
_geom_bond_site_symmetry_2
Mo0 Te0 2.700998 1_545
Mo0 Te0 2.700999 1_445
Mo0 Te0 2.700999 1_555
Mo0 Te1 2.702063 1_545
Mo0 Te1 2.702065 1_445
Mo0 Te1 2.702065 1_555
Se0 W0 2.547988 1_565
Se0 W0 2.547990 1_555
Se0 W0 2.547990 1_665
Se1 W0 2.548811 1_565
Se1 W0 2.548813 1_555
Se1 W0 2.548813 1_665
S0 W1 2.448701 1_545
S0 W1 2.448703 1_555
S0 W1 2.448703 1_445
S1 W2 2.448230 1_545
S1 W2 2.448232 1_555
S1 W2 2.448232 1_445
S2 W1 2.447994 1_545
S2 W1 2.447996 1_445
S2 W1 2.447996 1_555
S3 W2 2.448748 1_545
S3 W2 2.448750 1_445
S3 W2 2.448750 1_555
