# generated using pymatgen
data_Sc5Ir15C4
_symmetry_space_group_name_H-M   'P 1'
_cell_length_a   4.08387200
_cell_length_b   4.08387200
_cell_length_c   20.64844200
_cell_angle_alpha   90.00000000
_cell_angle_beta   90.00000000
_cell_angle_gamma   90.00000000
_symmetry_Int_Tables_number   1
_chemical_formula_structural   Sc5Ir15C4
_chemical_formula_sum   'Sc5 Ir15 C4'
_cell_volume   344.37493274
_cell_formula_units_Z   1
loop_
 _symmetry_equiv_pos_site_id
 _symmetry_equiv_pos_as_xyz
  1  'x, y, z'
loop_
 _atom_site_type_symbol
 _atom_site_label
 _atom_site_symmetry_multiplicity
 _atom_site_fract_x
 _atom_site_fract_y
 _atom_site_fract_z
 _atom_site_occupancy
  Sc  Sc0  1  0.00000000  0.00000000  0.90807900  1
  Sc  Sc1  1  0.00000000  0.00000000  0.09192100  1
  Sc  Sc2  1  0.00000000  0.00000000  0.29834100  1
  Sc  Sc3  1  0.00000000  0.00000000  0.50000000  1
  Sc  Sc4  1  0.00000000  0.00000000  0.70165900  1
  Ir  Ir0  1  0.50000000  0.50000000  0.91112300  1
  Ir  Ir1  1  0.50000000  0.50000000  0.08887700  1
  Ir  Ir2  1  0.50000000  0.50000000  0.29856600  1
  Ir  Ir3  1  0.50000000  0.50000000  0.50000000  1
  Ir  Ir4  1  0.50000000  0.50000000  0.70143400  1
  Ir  Ir5  1  0.50000000  0.00000000  0.00000000  1
  Ir  Ir6  1  0.50000000  0.00000000  0.20211800  1
  Ir  Ir7  1  0.50000000  0.00000000  0.40152900  1
  Ir  Ir8  1  0.50000000  0.00000000  0.59847100  1
  Ir  Ir9  1  0.50000000  0.00000000  0.79788200  1
  Ir  Ir10  1  0.00000000  0.50000000  0.00000000  1
  Ir  Ir11  1  0.00000000  0.50000000  0.20211800  1
  Ir  Ir12  1  0.00000000  0.50000000  0.40152900  1
  Ir  Ir13  1  0.00000000  0.50000000  0.59847100  1
  Ir  Ir14  1  0.00000000  0.50000000  0.79788200  1
  C  C0  1  0.50000000  0.50000000  0.18274700  1
  C  C1  1  0.50000000  0.50000000  0.39580400  1
  C  C2  1  0.50000000  0.50000000  0.60419600  1
  C  C3  1  0.50000000  0.50000000  0.81725300  1
loop_
_geom_bond_atom_site_label_1
_geom_bond_atom_site_label_2
_geom_bond_distance
_geom_bond_site_symmetry_2
Ir0 Sc0 2.888418 1_555
Ir0 Sc0 2.888418 1_565
Ir0 Sc0 2.888418 1_665
Ir0 Sc0 2.888418 1_655
Ir1 Sc1 2.888418 1_565
Ir1 Sc1 2.888418 1_665
Ir1 Sc1 2.888418 1_655
Ir1 Sc1 2.888418 1_555
Ir2 Sc2 2.887737 1_655
Ir2 Sc2 2.887737 1_565
Ir2 Sc2 2.887737 1_555
Ir2 Sc2 2.887737 1_665
Ir3 Sc3 2.887734 1_565
Ir3 Sc3 2.887734 1_555
Ir3 Sc3 2.887734 1_655
Ir3 Sc3 2.887734 1_665
Ir4 Sc4 2.887737 1_565
Ir4 Sc4 2.887737 1_655
Ir4 Sc4 2.887737 1_665
Ir4 Sc4 2.887737 1_555
Ir5 Sc1 2.787831 1_555
Ir5 Sc1 2.787831 1_655
Ir5 Sc0 2.787831 1_554
Ir5 Sc0 2.787831 1_654
Ir6 Sc2 2.849052 1_555
Ir6 Sc2 2.849052 1_655
Ir6 Sc1 3.057275 1_655
Ir6 Sc1 3.057275 1_555
Ir7 Sc3 2.881614 1_555
Ir7 Sc3 2.881614 1_655
Ir7 Sc2 2.951146 1_555
Ir7 Sc2 2.951146 1_655
Ir8 Sc3 2.881614 1_555
Ir8 Sc3 2.881614 1_655
Ir8 Sc4 2.951146 1_555
Ir8 Sc4 2.951146 1_655
Ir9 Sc4 2.849052 1_655
Ir9 Sc4 2.849052 1_555
Ir9 Sc0 3.057275 1_655
Ir9 Sc0 3.057275 1_555
Ir10 Sc1 2.787831 1_555
Ir10 Sc1 2.787831 1_565
Ir10 Sc0 2.787831 1_554
Ir10 Sc0 2.787831 1_564
Ir11 Sc2 2.849052 1_565
Ir11 Sc2 2.849052 1_555
Ir11 Sc1 3.057275 1_565
Ir11 Sc1 3.057275 1_555
Ir12 Sc3 2.881614 1_565
Ir12 Sc3 2.881614 1_555
Ir12 Sc2 2.951146 1_555
Ir12 Sc2 2.951146 1_565
Ir13 Sc3 2.881614 1_565
Ir13 Sc3 2.881614 1_555
Ir13 Sc4 2.951146 1_555
Ir13 Sc4 2.951146 1_565
Ir14 Sc4 2.849052 1_565
Ir14 Sc4 2.849052 1_555
Ir14 Sc0 3.057275 1_565
Ir14 Sc0 3.057275 1_555
C0 Ir1 1.938269 1_555
C0 Ir6 2.080742 1_555
C0 Ir11 2.080742 1_655
C0 Ir11 2.080742 1_555
C0 Ir6 2.080742 1_565
C0 Ir2 2.391482 1_555
C1 Ir2 2.007813 1_555
C1 Ir7 2.045355 1_565
C1 Ir12 2.045355 1_655
C1 Ir7 2.045355 1_555
C1 Ir12 2.045355 1_555
C1 Ir3 2.151485 1_555
C2 Ir4 2.007813 1_555
C2 Ir13 2.045355 1_655
C2 Ir13 2.045355 1_555
C2 Ir8 2.045355 1_565
C2 Ir8 2.045355 1_555
C2 Ir3 2.151485 1_555
C3 Ir0 1.938269 1_555
C3 Ir14 2.080742 1_655
C3 Ir9 2.080742 1_555
C3 Ir14 2.080742 1_555
C3 Ir9 2.080742 1_565
C3 Ir4 2.391482 1_555
