# generated using pymatgen
data_Ca(SbO2)2
_symmetry_space_group_name_H-M   'P 1'
_cell_length_a   5.84385521
_cell_length_b   5.84385521
_cell_length_c   11.22296600
_cell_angle_alpha   90.00000000
_cell_angle_beta   90.00000000
_cell_angle_gamma   146.83307395
_symmetry_Int_Tables_number   1
_chemical_formula_structural   Ca(SbO2)2
_chemical_formula_sum   'Ca2 Sb4 O8'
_cell_volume   209.68022178
_cell_formula_units_Z   2
loop_
 _symmetry_equiv_pos_site_id
 _symmetry_equiv_pos_as_xyz
  1  'x, y, z'
loop_
 _atom_site_type_symbol
 _atom_site_label
 _atom_site_symmetry_multiplicity
 _atom_site_fract_x
 _atom_site_fract_y
 _atom_site_fract_z
 _atom_site_occupancy
  Ca  Ca0  1  0.61446900  0.38553100  0.75000000  1
  Ca  Ca1  1  0.38553100  0.61446900  0.25000000  1
  Sb  Sb0  1  0.13240700  0.86759300  0.07793300  1
  Sb  Sb1  1  0.86759300  0.13240700  0.92206700  1
  Sb  Sb2  1  0.13240700  0.86759300  0.42206700  1
  Sb  Sb3  1  0.86759300  0.13240700  0.57793300  1
  O  O0  1  0.77123900  0.22876100  0.37816300  1
  O  O1  1  0.22876100  0.77123900  0.62183700  1
  O  O2  1  0.22876100  0.77123900  0.87816300  1
  O  O3  1  0.77123900  0.22876100  0.12183700  1
  O  O4  1  0.03767300  0.96232700  0.25000000  1
  O  O5  1  0.96232700  0.03767300  0.75000000  1
  O  O6  1  0.50000000  0.50000000  0.00000000  1
  O  O7  1  0.50000000  0.50000000  0.50000000  1
loop_
_geom_bond_atom_site_label_1
_geom_bond_atom_site_label_2
_geom_bond_distance
_geom_bond_site_symmetry_2
Ca0 O5 2.384596 1_455
Ca0 O5 2.384596 1_565
Ca0 O2 2.547518 1_545
Ca0 O2 2.547518 1_655
Ca0 O1 2.547518 1_545
Ca0 O1 2.547518 1_655
Ca1 O4 2.384596 1_545
Ca1 O4 2.384596 1_655
Ca1 O0 2.547518 1_455
Ca1 O0 2.547518 1_565
Ca1 O3 2.547518 1_455
Ca1 O3 2.547518 1_565
O0 Sb2 2.333053 1_655
O0 Sb2 2.333053 1_545
O0 Sb3 2.488280 1_555
O1 Sb3 2.333053 1_455
O1 Sb3 2.333053 1_565
O1 Sb2 2.488280 1_555
O2 Sb1 2.333053 1_565
O2 Sb1 2.333053 1_455
O2 Sb0 2.488280 1_556
O3 Sb0 2.333053 1_655
O3 Sb0 2.333053 1_545
O3 Sb1 2.488280 1_554
O4 Sb2 2.203460 1_555
O4 Sb0 2.203460 1_555
O5 Sb1 2.203460 1_555
O5 Sb3 2.203460 1_555
O6 Sb0 2.397223 1_655
O6 Sb1 2.397223 1_564
O6 Sb1 2.397223 1_454
O6 Sb0 2.397223 1_545
O7 Sb3 2.397223 1_455
O7 Sb3 2.397223 1_565
O7 Sb2 2.397223 1_655
O7 Sb2 2.397223 1_545
