# generated using pymatgen
data_MnS2
_symmetry_space_group_name_H-M   'P 1'
_cell_length_a   5.52315400
_cell_length_b   5.52315400
_cell_length_c   5.52315400
_cell_angle_alpha   90.00000000
_cell_angle_beta   90.00000000
_cell_angle_gamma   90.00000000
_symmetry_Int_Tables_number   1
_chemical_formula_structural   MnS2
_chemical_formula_sum   'Mn4 S8'
_cell_volume   168.48508369
_cell_formula_units_Z   4
loop_
 _symmetry_equiv_pos_site_id
 _symmetry_equiv_pos_as_xyz
  1  'x, y, z'
loop_
 _atom_site_type_symbol
 _atom_site_label
 _atom_site_symmetry_multiplicity
 _atom_site_fract_x
 _atom_site_fract_y
 _atom_site_fract_z
 _atom_site_occupancy
  Mn  Mn0  1  0.50000000  0.50000000  0.00000000  1
  Mn  Mn1  1  0.50000000  0.00000000  0.50000000  1
  Mn  Mn2  1  0.00000000  0.50000000  0.50000000  1
  Mn  Mn3  1  0.00000000  0.00000000  0.00000000  1
  S  S0  1  0.11921300  0.88078700  0.38078700  1
  S  S1  1  0.88078700  0.38078700  0.11921300  1
  S  S2  1  0.38078700  0.11921300  0.88078700  1
  S  S3  1  0.61921300  0.61921300  0.61921300  1
  S  S4  1  0.88078700  0.11921300  0.61921300  1
  S  S5  1  0.11921300  0.61921300  0.88078700  1
  S  S6  1  0.61921300  0.88078700  0.11921300  1
  S  S7  1  0.38078700  0.38078700  0.38078700  1
loop_
_geom_bond_atom_site_label_1
_geom_bond_atom_site_label_2
_geom_bond_distance
_geom_bond_site_symmetry_2
Mn0 S7 2.300062 1_555
Mn0 S3 2.300062 1_554
Mn0 S6 2.300062 1_555
Mn0 S1 2.300062 1_555
Mn0 S5 2.300062 1_554
Mn0 S2 2.300062 1_554
Mn1 S6 2.300062 1_545
Mn1 S2 2.300062 1_555
Mn1 S7 2.300062 1_555
Mn1 S4 2.300062 1_555
Mn1 S3 2.300062 1_545
Mn1 S0 2.300062 1_545
Mn2 S1 2.300062 1_455
Mn2 S5 2.300062 1_555
Mn2 S4 2.300062 1_455
Mn2 S0 2.300062 1_555
Mn2 S7 2.300062 1_555
Mn2 S3 2.300062 1_455
Mn3 S4 2.300062 1_454
Mn3 S0 2.300062 1_545
Mn3 S5 2.300062 1_544
Mn3 S6 2.300062 1_445
Mn3 S1 2.300062 1_455
Mn3 S2 2.300062 1_554
