# generated using pymatgen
data_Li3Fe5OF11
_symmetry_space_group_name_H-M   'P 1'
_cell_length_a   5.30406700
_cell_length_b   5.67615002
_cell_length_c   9.22458755
_cell_angle_alpha   105.66523298
_cell_angle_beta   89.82003633
_cell_angle_gamma   117.19135901
_symmetry_Int_Tables_number   1
_chemical_formula_structural   Li3Fe5OF11
_chemical_formula_sum   'Li3 Fe5 O1 F11'
_cell_volume   235.49762004
_cell_formula_units_Z   1
loop_
 _symmetry_equiv_pos_site_id
 _symmetry_equiv_pos_as_xyz
  1  'x, y, z'
loop_
 _atom_site_type_symbol
 _atom_site_label
 _atom_site_symmetry_multiplicity
 _atom_site_fract_x
 _atom_site_fract_y
 _atom_site_fract_z
 _atom_site_occupancy
  Li  Li0  1  0.79216800  0.62546600  0.94278700  1
  Li  Li1  1  0.27152400  0.12754300  0.42209000  1
  Li  Li2  1  0.22520500  0.35347700  0.07365100  1
  Fe  Fe0  1  0.47978800  0.12580900  0.82967900  1
  Fe  Fe1  1  0.96727200  0.63680800  0.33178400  1
  Fe  Fe2  1  0.01672700  0.39568000  0.66994400  1
  Fe  Fe3  1  0.74224000  0.86139900  0.57224800  1
  Fe  Fe4  1  0.52114500  0.86651100  0.17077400  1
  O  O0  1  0.97601800  0.72245500  0.52240400  1
  F  F0  1  0.51109700  0.46307800  0.27123000  1
  F  F1  1  0.02265300  0.97987400  0.78348100  1
  F  F2  1  0.57482500  0.10234200  0.63030800  1
  F  F3  1  0.92970800  0.37832200  0.87890400  1
  F  F4  1  0.47569400  0.22626000  0.02847900  1
  F  F5  1  0.52565800  0.77976600  0.96513300  1
  F  F6  1  0.03187800  0.27632700  0.47094700  1
  F  F7  1  0.07446900  0.64558600  0.13295400  1
  F  F8  1  0.43704100  0.88463600  0.37175500  1
  F  F9  1  0.47018700  0.51215200  0.72520500  1
  F  F10  1  0.95470400  0.03650900  0.20624300  1
loop_
_geom_bond_atom_site_label_1
_geom_bond_atom_site_label_2
_geom_bond_distance
_geom_bond_site_symmetry_2
Fe1 O0 1.687807 1_555
Fe3 O0 1.750795 1_555
F0 Li2 2.133344 1_555
F0 Fe1 2.160839 1_555
F1 Fe0 2.174183 1_565
F1 Fe3 2.204005 1_455
F2 Fe0 1.891411 1_555
F2 Fe3 1.912358 1_545
F2 Fe2 2.123600 1_655
F3 Li0 1.825805 1_555
F3 Fe2 1.998419 1_655
F3 Fe0 2.117729 1_555
F3 Li2 2.461749 1_656
F4 Fe0 1.770584 1_554
F4 Li2 1.780763 1_555
F5 Fe4 1.829625 1_556
F5 Li0 1.959584 1_555
F6 Fe2 1.792297 1_555
F6 Li1 1.817678 1_555
F6 Fe3 2.579338 1_445
F7 Fe1 1.925276 1_455
F7 Fe4 2.088304 1_555
F7 Li2 2.099188 1_555
F7 Li0 2.254854 1_454
F8 Fe4 1.892227 1_555
F8 Li1 1.909273 1_565
F8 Fe1 2.201264 1_455
F8 Fe3 2.530632 1_555
F9 Fe2 2.203248 1_555
F9 Li0 2.383119 1_555
F9 Fe3 2.624165 1_555
F9 Fe0 2.642732 1_555
F10 Fe4 2.032896 1_545
F10 Li2 2.368473 1_655
F10 Li1 2.393150 1_655
