# generated using pymatgen
data_CaAl2Si2(WO2)4
_symmetry_space_group_name_H-M   'P 1'
_cell_length_a   10.42987700
_cell_length_b   10.30273400
_cell_length_c   10.77618631
_cell_angle_alpha   87.28128431
_cell_angle_beta   90.00000000
_cell_angle_gamma   90.00000000
_symmetry_Int_Tables_number   1
_chemical_formula_structural   CaAl2Si2(WO2)4
_chemical_formula_sum   'Ca4 Al8 Si8 W16 O32'
_cell_volume   1156.66518261
_cell_formula_units_Z   4
loop_
 _symmetry_equiv_pos_site_id
 _symmetry_equiv_pos_as_xyz
  1  'x, y, z'
loop_
 _atom_site_type_symbol
 _atom_site_label
 _atom_site_symmetry_multiplicity
 _atom_site_fract_x
 _atom_site_fract_y
 _atom_site_fract_z
 _atom_site_occupancy
  Ca  Ca0  1  0.40762800  0.66522300  0.95366700  1
  Ca  Ca1  1  0.90762800  0.33477700  0.04633300  1
  Ca  Ca2  1  0.57404900  0.33148800  0.54806400  1
  Ca  Ca3  1  0.07404900  0.66851200  0.45193600  1
  Al  Al0  1  0.33832200  0.41893100  0.38385900  1
  Al  Al1  1  0.83832200  0.58106900  0.61614100  1
  Al  Al2  1  0.12528000  0.08691100  0.61031200  1
  Al  Al3  1  0.62528000  0.91308900  0.38968800  1
  Al  Al4  1  0.14444300  0.41979200  0.88323600  1
  Al  Al5  1  0.64444300  0.58020800  0.11676400  1
  Al  Al6  1  0.34754400  0.08518600  0.10954600  1
  Al  Al7  1  0.84754400  0.91481400  0.89045400  1
  Si  Si0  1  0.10551300  0.10365200  0.90574400  1
  Si  Si1  1  0.60551300  0.89634800  0.09425600  1
  Si  Si2  1  0.87923400  0.60162900  0.91179400  1
  Si  Si3  1  0.37923400  0.39837100  0.08820600  1
  Si  Si4  1  0.10826700  0.40451600  0.58911600  1
  Si  Si5  1  0.60826700  0.59548400  0.41088400  1
  Si  Si6  1  0.36566300  0.10233000  0.40599500  1
  Si  Si7  1  0.86566300  0.89767000  0.59400500  1
  W  W0  1  0.61066700  0.04978600  0.69807900  1
  W  W1  1  0.11066700  0.95021400  0.30192100  1
  W  W2  1  0.35950100  0.94944200  0.80725800  1
  W  W3  1  0.85950100  0.05055800  0.19274200  1
  W  W4  1  0.18146100  0.82584900  0.04468400  1
  W  W5  1  0.68146100  0.17415100  0.95531600  1
  W  W6  1  0.04734400  0.24110000  0.29141200  1
  W  W7  1  0.54734400  0.75890000  0.70858800  1
  W  W8  1  0.42076500  0.24448500  0.79146200  1
  W  W9  1  0.92076500  0.75551500  0.20853800  1
  W  W10  1  0.62407600  0.45212200  0.81387300  1
  W  W11  1  0.12407600  0.54787800  0.18612700  1
  W  W12  1  0.80225700  0.17215000  0.44771700  1
  W  W13  1  0.30225700  0.82785000  0.55228300  1
  W  W14  1  0.37426000  0.54164700  0.69174300  1
  W  W15  1  0.87426000  0.45835300  0.30825700  1
  O  O0  1  0.00861700  0.51135000  0.92615900  1
  O  O1  1  0.50861700  0.48865000  0.07384100  1
  O  O2  1  0.20582200  0.05189100  0.01816700  1
  O  O3  1  0.70582200  0.94810900  0.98183300  1
  O  O4  1  0.96902300  0.02762700  0.91543700  1
  O  O5  1  0.46902300  0.97237300  0.08456300  1
  O  O6  1  0.17591000  0.44589000  0.72169200  1
  O  O7  1  0.67591000  0.55411000  0.27830800  1
  O  O8  1  0.49792400  0.02030800  0.41300200  1
  O  O9  1  0.99792400  0.97969200  0.58699800  1
  O  O10  1  0.08552800  0.25039800  0.58242400  1
  O  O11  1  0.58552800  0.74960200  0.41757600  1
  O  O12  1  0.17432200  0.06861200  0.77174700  1
  O  O13  1  0.67432200  0.93138800  0.22825300  1
  O  O14  1  0.29274000  0.07822800  0.27050700  1
  O  O15  1  0.79274000  0.92177200  0.72949300  1
  O  O16  1  0.39140100  0.25803800  0.42204200  1
  O  O17  1  0.89140100  0.74196200  0.57795800  1
  O  O18  1  0.28292400  0.45289200  0.97401800  1
  O  O19  1  0.78292400  0.54710800  0.02598200  1
  O  O20  1  0.47791100  0.50596600  0.42514200  1
  O  O21  1  0.97791100  0.49403400  0.57485800  1
  O  O22  1  0.40130600  0.24465900  0.08155800  1
  O  O23  1  0.90130600  0.75534100  0.91844200  1
  O  O24  1  0.31130800  0.43851800  0.22079700  1
  O  O25  1  0.81130800  0.56148200  0.77920300  1
  O  O26  1  0.26268800  0.04737200  0.51502100  1
  O  O27  1  0.76268800  0.95262800  0.48497900  1
  O  O28  1  0.20539400  0.46238600  0.47744700  1
  O  O29  1  0.70539400  0.53761400  0.52255300  1
  O  O30  1  0.08480800  0.26053200  0.91731700  1
  O  O31  1  0.58480800  0.73946800  0.08268300  1
loop_
_geom_bond_atom_site_label_1
_geom_bond_atom_site_label_2
_geom_bond_distance
_geom_bond_site_symmetry_2
Ca0 O1 2.423316 1_556
Ca0 O31 2.456402 1_556
Ca0 O18 2.545548 1_555
Ca0 W4 3.069041 1_556
Ca0 W7 3.128599 1_555
Ca1 O0 2.423316 1_654
Ca1 O30 2.456402 1_654
Ca1 O19 2.545548 1_555
Ca1 W5 3.069041 1_554
Ca1 W6 3.128599 1_655
Ca2 O20 2.401155 1_555
Ca2 O16 2.478591 1_555
Ca2 O29 2.531164 1_555
Ca2 W12 3.114146 1_555
Ca2 W8 3.164807 1_555
Ca3 O21 2.401155 1_455
Ca3 O17 2.478591 1_455
Ca3 O28 2.531164 1_555
Ca3 W13 3.114146 1_555
Ca3 W9 3.164807 1_455
Al0 O16 1.777314 1_555
Al0 O20 1.777486 1_555
Al0 O24 1.781621 1_555
Al0 O28 1.783972 1_555
Al1 O17 1.777314 1_555
Al1 O21 1.777486 1_555
Al1 O25 1.781621 1_555
Al1 O29 1.783972 1_555
Al2 O10 1.746790 1_555
Al2 O9 1.753310 1_445
Al2 O12 1.814513 1_555
Al2 O26 1.820442 1_555
Al3 O11 1.746790 1_555
Al3 O8 1.753310 1_565
Al3 O13 1.814513 1_555
Al3 O27 1.820442 1_555
Al4 O0 1.775400 1_555
Al4 O30 1.776753 1_555
Al4 O6 1.779351 1_555
Al4 O18 1.786365 1_555
Al5 O1 1.775400 1_555
Al5 O31 1.776753 1_555
Al5 O7 1.779351 1_555
Al5 O19 1.786365 1_555
Al6 O22 1.748671 1_555
Al6 O5 1.748823 1_545
Al6 O2 1.817770 1_555
Al6 O14 1.824477 1_555
Al7 O23 1.748671 1_555
Al7 O4 1.748823 1_565
Al7 O3 1.817770 1_555
Al7 O15 1.824477 1_555
O0 Si2 1.642084 1_455
O1 Si3 1.642084 1_555
O2 Si0 1.668941 1_554
O2 W4 2.346620 1_545
O3 Si1 1.668941 1_556
O3 W5 2.346620 1_565
O4 Si0 1.625797 1_655
O5 Si1 1.625797 1_555
O6 Si4 1.666822 1_555
O6 W14 2.308039 1_555
O7 Si5 1.666822 1_555
O7 W15 2.308039 1_555
O8 Si6 1.617617 1_555
O9 Si7 1.617617 1_555
O10 Si4 1.610446 1_555
O11 Si5 1.610446 1_555
O12 Si0 1.667302 1_555
O12 W2 2.310755 1_545
O13 Si1 1.667302 1_555
O13 W3 2.310755 1_565
O14 Si6 1.675190 1_555
O14 W1 2.327643 1_545
O15 Si7 1.675190 1_555
O15 W0 2.327643 1_565
O16 Si6 1.643715 1_555
O17 Si7 1.643715 1_555
O18 Si3 1.665273 1_556
O19 Si2 1.665273 1_554
O20 Si5 1.645986 1_555
O21 Si4 1.645986 1_655
O22 Si3 1.605257 1_555
O23 Si2 1.605257 1_555
O24 Si3 1.664514 1_555
O24 W11 2.276527 1_555
O25 Si2 1.664514 1_555
O25 W10 2.276527 1_555
O26 Si6 1.670736 1_555
O26 W13 2.315294 1_545
O27 Si7 1.670736 1_555
O27 W12 2.315294 1_565
O28 Si4 1.661842 1_555
O29 Si5 1.661842 1_555
O30 Si0 1.641253 1_555
O31 Si1 1.641253 1_555
