# generated using pymatgen
data_VCrSbO6
_symmetry_space_group_name_H-M   'P 1'
_cell_length_a   4.61730000
_cell_length_b   4.61732900
_cell_length_c   9.23950900
_cell_angle_alpha   90.00320685
_cell_angle_beta   89.99952235
_cell_angle_gamma   90.00250660
_symmetry_Int_Tables_number   1
_chemical_formula_structural   VCrSbO6
_chemical_formula_sum   'V2 Cr2 Sb2 O12'
_cell_volume   196.98257292
_cell_formula_units_Z   2
loop_
 _symmetry_equiv_pos_site_id
 _symmetry_equiv_pos_as_xyz
  1  'x, y, z'
loop_
 _atom_site_type_symbol
 _atom_site_label
 _atom_site_symmetry_multiplicity
 _atom_site_fract_x
 _atom_site_fract_y
 _atom_site_fract_z
 _atom_site_occupancy
  V  V0  1  0.50000000  0.49999300  0.50033900  1
  V  V1  1  0.99999700  0.99999900  0.00042600  1
  Cr  Cr0  1  0.00000700  0.99999700  0.66761100  1
  Cr  Cr1  1  0.50001400  0.50001300  0.16748800  1
  Sb  Sb0  1  0.49999600  0.49999100  0.83357700  1
  Sb  Sb1  1  0.00000300  0.99998900  0.33341500  1
  O  O0  1  0.19291100  0.80710400  0.16398100  1
  O  O1  1  0.80709500  0.19291200  0.16398300  1
  O  O2  1  0.30718600  0.30720100  0.66396700  1
  O  O3  1  0.69279600  0.69281600  0.66396900  1
  O  O4  1  0.20079200  0.79920700  0.49928200  1
  O  O5  1  0.79920000  0.20079500  0.49926600  1
  O  O6  1  0.29926200  0.29925200  0.99931600  1
  O  O7  1  0.70073900  0.70075100  0.99930200  1
  O  O8  1  0.19299100  0.80700400  0.83603000  1
  O  O9  1  0.80700000  0.19298400  0.83603400  1
  O  O10  1  0.30698500  0.30697200  0.33600400  1
  O  O11  1  0.69302700  0.69301900  0.33600800  1
loop_
_geom_bond_atom_site_label_1
_geom_bond_atom_site_label_2
_geom_bond_distance
_geom_bond_site_symmetry_2
Cr0 O9 2.002423 1_465
Cr0 O8 2.002449 1_555
Cr0 O2 2.006160 1_565
Cr0 O3 2.006187 1_455
Cr0 O4 2.034159 1_555
Cr0 O5 2.034426 1_465
Cr1 O11 2.003148 1_555
Cr1 O10 2.003290 1_555
Cr1 O1 2.005568 1_555
Cr1 O0 2.005610 1_555
Cr1 O6 2.032894 1_554
Cr1 O7 2.032955 1_554
O0 V1 1.967376 1_455
O0 Sb1 2.009279 1_555
O1 V1 1.967314 1_545
O1 Sb1 2.009432 1_645
O2 V0 1.967423 1_555
O2 Sb0 2.010129 1_555
O3 V0 1.967399 1_555
O3 Sb0 2.010232 1_555
O4 V0 1.953876 1_555
O4 Sb1 2.016903 1_555
O5 V0 1.953798 1_555
O5 Sb1 2.016780 1_645
O6 V1 1.954107 1_446
O6 Sb0 2.015747 1_555
O7 V1 1.954067 1_556
O7 Sb0 2.015645 1_555
O8 V1 1.973638 1_456
O8 Sb0 2.004899 1_555
O9 V1 1.973683 1_546
O9 Sb0 2.004879 1_555
O10 V0 1.973278 1_555
O10 Sb1 2.004654 1_545
O11 V0 1.973350 1_555
O11 Sb1 2.004594 1_655
