# generated using pymatgen
data_Gd3TiS6
_symmetry_space_group_name_H-M   'P 1'
_cell_length_a   3.79910400
_cell_length_b   13.57540100
_cell_length_c   16.24972500
_cell_angle_alpha   90.00000000
_cell_angle_beta   90.00000000
_cell_angle_gamma   90.00000000
_symmetry_Int_Tables_number   1
_chemical_formula_structural   Gd3TiS6
_chemical_formula_sum   'Gd12 Ti4 S24'
_cell_volume   838.06917096
_cell_formula_units_Z   4
loop_
 _symmetry_equiv_pos_site_id
 _symmetry_equiv_pos_as_xyz
  1  'x, y, z'
loop_
 _atom_site_type_symbol
 _atom_site_label
 _atom_site_symmetry_multiplicity
 _atom_site_fract_x
 _atom_site_fract_y
 _atom_site_fract_z
 _atom_site_occupancy
  Gd  Gd0  1  0.00000000  0.31839000  0.14863300  1
  Gd  Gd1  1  0.00000000  0.68161000  0.85136700  1
  Gd  Gd2  1  0.50000000  0.18161000  0.64863300  1
  Gd  Gd3  1  0.50000000  0.81839000  0.35136700  1
  Gd  Gd4  1  0.00000000  0.75765500  0.10058400  1
  Gd  Gd5  1  0.00000000  0.24234500  0.89941600  1
  Gd  Gd6  1  0.50000000  0.74234500  0.60058400  1
  Gd  Gd7  1  0.50000000  0.25765500  0.39941500  1
  Gd  Gd8  1  0.00000000  0.54782900  0.28186400  1
  Gd  Gd9  1  0.00000000  0.45217100  0.71813600  1
  Gd  Gd10  1  0.50000000  0.95217100  0.78186400  1
  Gd  Gd11  1  0.50000000  0.04782900  0.21813600  1
  Ti  Ti0  1  0.00000000  0.00000000  0.50000000  1
  Ti  Ti1  1  0.50000000  0.50000000  0.00000000  1
  Ti  Ti2  1  0.00000000  0.00000000  0.00000000  1
  Ti  Ti3  1  0.50000000  0.50000000  0.50000000  1
  S  S0  1  0.00000000  0.52069000  0.10024200  1
  S  S1  1  0.00000000  0.47931000  0.89975800  1
  S  S2  1  0.50000000  0.97931000  0.60024200  1
  S  S3  1  0.50000000  0.02069000  0.39975800  1
  S  S4  1  0.00000000  0.18530600  0.28799400  1
  S  S5  1  0.00000000  0.81469400  0.71200600  1
  S  S6  1  0.50000000  0.31469400  0.78799400  1
  S  S7  1  0.50000000  0.68530600  0.21200600  1
  S  S8  1  0.00000000  0.10366100  0.75393000  1
  S  S9  1  0.00000000  0.89633900  0.24607000  1
  S  S10  1  0.50000000  0.39633900  0.25393000  1
  S  S11  1  0.50000000  0.60366100  0.74607000  1
  S  S12  1  0.00000000  0.12221200  0.10513300  1
  S  S13  1  0.00000000  0.87778800  0.89486700  1
  S  S14  1  0.50000000  0.37778800  0.60513300  1
  S  S15  1  0.50000000  0.62221200  0.39486700  1
  S  S16  1  0.00000000  0.41299200  0.42509900  1
  S  S17  1  0.00000000  0.58700800  0.57490100  1
  S  S18  1  0.50000000  0.08700800  0.92509900  1
  S  S19  1  0.50000000  0.91299200  0.07490100  1
  S  S20  1  0.00000000  0.18255900  0.52030500  1
  S  S21  1  0.00000000  0.81744100  0.47969500  1
  S  S22  1  0.50000000  0.31744100  0.02030500  1
  S  S23  1  0.50000000  0.68255900  0.97969500  1
loop_
_geom_bond_atom_site_label_1
_geom_bond_atom_site_label_2
_geom_bond_distance
_geom_bond_site_symmetry_2
Gd0 S12 2.755406 1_555
Gd0 S10 2.766902 1_455
Gd0 S10 2.766902 1_555
Gd0 S22 2.820801 1_555
Gd0 S22 2.820801 1_455
Gd0 S0 2.856661 1_555
Gd0 S4 2.896958 1_555
Gd1 S13 2.755406 1_555
Gd1 S11 2.766902 1_555
Gd1 S11 2.766902 1_455
Gd1 S23 2.820801 1_455
Gd1 S23 2.820801 1_555
Gd1 S1 2.856661 1_555
Gd1 S5 2.896958 1_555
Gd2 S14 2.755406 1_555
Gd2 S8 2.766902 1_555
Gd2 S8 2.766902 1_655
Gd2 S20 2.820801 1_555
Gd2 S20 2.820801 1_655
Gd2 S2 2.856661 1_545
Gd2 S6 2.896958 1_555
Gd3 S15 2.755406 1_555
Gd3 S9 2.766902 1_555
Gd3 S9 2.766902 1_655
Gd3 S21 2.820801 1_655
Gd3 S21 2.820801 1_555
Gd3 S3 2.856661 1_565
Gd3 S7 2.896958 1_555
Gd4 S7 2.801988 1_555
Gd4 S7 2.801988 1_455
Gd4 S19 2.868684 1_455
Gd4 S19 2.868684 1_555
Gd4 S23 2.916592 1_554
Gd4 S23 2.916592 1_454
Gd4 S9 3.022173 1_555
Gd4 S0 3.216900 1_555
Gd5 S6 2.801988 1_455
Gd5 S6 2.801988 1_555
Gd5 S18 2.868684 1_455
Gd5 S18 2.868684 1_555
Gd5 S22 2.916592 1_456
Gd5 S22 2.916592 1_556
Gd5 S8 3.022173 1_555
Gd5 S1 3.216900 1_555
Gd6 S5 2.801988 1_655
Gd6 S5 2.801988 1_555
Gd6 S17 2.868684 1_555
Gd6 S17 2.868684 1_655
Gd6 S21 2.916592 1_655
Gd6 S21 2.916592 1_555
Gd6 S11 3.022173 1_555
Gd6 S2 3.216900 1_555
Gd7 S4 2.801978 1_555
Gd7 S4 2.801978 1_655
Gd7 S16 2.868687 1_555
Gd7 S16 2.868687 1_655
Gd7 S20 2.916603 1_555
Gd7 S20 2.916603 1_655
Gd7 S10 3.022160 1_555
Gd7 S3 3.216900 1_555
Gd8 S15 2.828397 1_555
Gd8 S15 2.828397 1_455
Gd8 S10 2.836140 1_455
Gd8 S10 2.836140 1_555
Gd8 S7 2.894825 1_555
Gd8 S7 2.894825 1_455
Gd8 S16 2.961081 1_555
Gd8 S0 2.974214 1_555
Gd9 S14 2.828397 1_455
Gd9 S14 2.828397 1_555
Gd9 S11 2.836140 1_455
Gd9 S11 2.836140 1_555
Gd9 S6 2.894825 1_455
Gd9 S6 2.894825 1_555
Gd9 S17 2.961081 1_555
Gd9 S1 2.974214 1_555
Gd10 S13 2.828397 1_555
Gd10 S13 2.828397 1_655
Gd10 S8 2.836140 1_565
Gd10 S8 2.836140 1_665
Gd10 S5 2.894825 1_555
Gd10 S5 2.894825 1_655
Gd10 S18 2.961081 1_565
Gd10 S2 2.974214 1_555
Gd11 S12 2.828397 1_555
Gd11 S12 2.828397 1_655
Gd11 S9 2.836140 1_645
Gd11 S9 2.836140 1_545
Gd11 S4 2.894825 1_555
Gd11 S4 2.894825 1_655
Gd11 S19 2.961081 1_545
Gd11 S3 2.974214 1_555
S0 Ti1 2.518039 1_455
S0 Ti1 2.518039 1_555
S1 Ti1 2.518039 1_456
S1 Ti1 2.518039 1_556
S2 Ti0 2.518039 1_565
S2 Ti0 2.518039 1_665
S3 Ti0 2.518039 1_655
S3 Ti0 2.518039 1_555
S12 Ti2 2.381408 1_555
S13 Ti2 2.381408 1_566
S14 Ti3 2.381408 1_555
S15 Ti3 2.381408 1_555
S16 Ti3 2.546535 1_455
S16 Ti3 2.546535 1_555
S17 Ti3 2.546535 1_455
S17 Ti3 2.546535 1_555
S18 Ti2 2.546535 1_556
S18 Ti2 2.546535 1_656
S19 Ti2 2.546535 1_565
S19 Ti2 2.546535 1_665
S20 Ti0 2.500179 1_555
S21 Ti0 2.500179 1_565
S22 Ti1 2.500179 1_555
S23 Ti1 2.500179 1_556
