# generated using pymatgen
data_SrEu(WO3)4
_symmetry_space_group_name_H-M   'P 1'
_cell_length_a   5.59767803
_cell_length_b   5.59767803
_cell_length_c   8.05995725
_cell_angle_alpha   90.00000000
_cell_angle_beta   90.00000000
_cell_angle_gamma   89.96967424
_symmetry_Int_Tables_number   1
_chemical_formula_structural   SrEu(WO3)4
_chemical_formula_sum   'Sr1 Eu1 W4 O12'
_cell_volume   252.55065964
_cell_formula_units_Z   1
loop_
 _symmetry_equiv_pos_site_id
 _symmetry_equiv_pos_as_xyz
  1  'x, y, z'
loop_
 _atom_site_type_symbol
 _atom_site_label
 _atom_site_symmetry_multiplicity
 _atom_site_fract_x
 _atom_site_fract_y
 _atom_site_fract_z
 _atom_site_occupancy
  Sr  Sr0  1  0.00470496  0.00470496  -0.00000000  1
  Eu  Eu0  1  0.49913781  0.49913781  0.50000000  1
  W  W0  1  0.50097134  0.00010891  0.74982547  1
  W  W1  1  0.50097134  0.00010891  0.25017453  1
  W  W2  1  0.00010891  0.50097134  0.25017453  1
  W  W3  1  0.00010891  0.50097134  0.74982547  1
  O  O0  1  0.72377584  0.27651524  0.74553157  1
  O  O1  1  0.27651524  0.72377584  0.74553157  1
  O  O2  1  0.27651524  0.72377584  0.25446843  1
  O  O3  1  0.72377584  0.27651524  0.25446843  1
  O  O4  1  0.76714506  0.76714506  0.77142722  1
  O  O5  1  0.23887430  0.23887430  0.72761042  1
  O  O6  1  0.23887430  0.23887430  0.27238958  1
  O  O7  1  0.76714506  0.76714506  0.22857278  1
  O  O8  1  0.46727061  0.01529748  -0.00000000  1
  O  O9  1  0.52451758  0.97349019  0.50000000  1
  O  O10  1  0.01529748  0.46727061  -0.00000000  1
  O  O11  1  0.97349019  0.52451758  0.50000000  1
loop_
_geom_bond_atom_site_label_1
_geom_bond_atom_site_label_2
_geom_bond_distance
_geom_bond_site_symmetry_2
Eu0 O2 2.654958 1_555
Eu0 O3 2.654958 1_555
Eu0 O1 2.654958 1_555
Eu0 O0 2.654958 1_555
Eu0 O9 2.659145 1_555
Eu0 O11 2.659145 1_555
Eu0 O5 2.759111 1_555
Eu0 O6 2.759111 1_555
Eu0 O11 2.945759 1_455
Eu0 O9 2.945759 1_545
Eu0 O7 3.047899 1_555
Eu0 O4 3.047899 1_555
O0 W0 1.988127 1_555
O0 W3 1.993625 1_655
O0 Sr0 2.998664 1_656
O1 W3 1.988127 1_555
O1 W0 1.993625 1_565
O1 Sr0 2.998664 1_566
O2 W2 1.988127 1_555
O2 W1 1.993625 1_565
O2 Sr0 2.998664 1_565
O3 W1 1.988127 1_555
O3 W2 1.993625 1_655
O3 Sr0 2.998664 1_655
O4 W0 1.987155 1_565
O4 W3 1.987155 1_655
O4 Sr0 2.632972 1_666
O5 W3 1.992181 1_555
O5 W0 1.992181 1_555
O5 Sr0 2.873714 1_556
O6 W1 1.992181 1_555
O6 W2 1.992181 1_555
O6 Sr0 2.873714 1_555
O7 W1 1.987155 1_565
O7 W2 1.987155 1_655
O7 Sr0 2.632972 1_665
O8 W0 2.026981 1_554
O8 W1 2.026981 1_555
O8 Sr0 2.590004 1_555
O8 Sr0 3.008937 1_655
O9 W1 2.023380 1_565
O9 W0 2.023380 1_565
O10 W2 2.026981 1_555
O10 W3 2.026981 1_554
O10 Sr0 2.590004 1_555
O10 Sr0 3.008937 1_565
O11 W3 2.023380 1_655
O11 W2 2.023380 1_655
