# generated using pymatgen
data_RbHfMg6
_symmetry_space_group_name_H-M   'P 1'
_cell_length_a   4.60814200
_cell_length_b   9.66041000
_cell_length_c   9.69734800
_cell_angle_alpha   90.00000000
_cell_angle_beta   90.00000000
_cell_angle_gamma   90.00000000
_symmetry_Int_Tables_number   1
_chemical_formula_structural   RbHfMg6
_chemical_formula_sum   'Rb2 Hf2 Mg12'
_cell_volume   431.69239040
_cell_formula_units_Z   2
loop_
 _symmetry_equiv_pos_site_id
 _symmetry_equiv_pos_as_xyz
  1  'x, y, z'
loop_
 _atom_site_type_symbol
 _atom_site_label
 _atom_site_symmetry_multiplicity
 _atom_site_fract_x
 _atom_site_fract_y
 _atom_site_fract_z
 _atom_site_occupancy
  Rb  Rb0  1  0.50000000  0.36999800  0.50000000  1
  Rb  Rb1  1  0.50000000  0.86999800  0.00000000  1
  Hf  Hf0  1  0.50000000  0.87508100  0.50000000  1
  Hf  Hf1  1  0.50000000  0.37508100  0.00000000  1
  Mg  Mg0  1  0.50000000  0.12432100  0.24384300  1
  Mg  Mg1  1  0.50000000  0.12432100  0.75615700  1
  Mg  Mg2  1  0.00000000  0.87773300  0.28170800  1
  Mg  Mg3  1  0.00000000  0.87773300  0.71829200  1
  Mg  Mg4  1  0.00000000  0.09351900  0.50000000  1
  Mg  Mg5  1  0.00000000  0.65729700  0.50000000  1
  Mg  Mg6  1  0.50000000  0.62432100  0.74384300  1
  Mg  Mg7  1  0.50000000  0.62432100  0.25615700  1
  Mg  Mg8  1  0.00000000  0.37773300  0.78170800  1
  Mg  Mg9  1  0.00000000  0.37773300  0.21829200  1
  Mg  Mg10  1  0.00000000  0.59351900  0.00000000  1
  Mg  Mg11  1  0.00000000  0.15729700  0.00000000  1
loop_
_geom_bond_atom_site_label_1
_geom_bond_atom_site_label_2
_geom_bond_distance
_geom_bond_site_symmetry_2
Hf0 Mg5 3.120107 1_555
Hf0 Mg5 3.120107 1_655
Hf0 Mg4 3.124370 1_665
Hf0 Mg4 3.124370 1_565
Hf0 Mg3 3.128972 1_655
Hf0 Mg3 3.128972 1_555
Hf0 Mg2 3.128972 1_555
Hf0 Mg2 3.128972 1_655
Hf0 Mg6 3.385220 1_555
Hf0 Mg7 3.385220 1_555
Hf0 Mg1 3.459448 1_565
Hf0 Mg0 3.459448 1_565
Hf1 Mg11 3.120107 1_555
Hf1 Mg11 3.120107 1_655
Hf1 Mg10 3.124370 1_555
Hf1 Mg10 3.124370 1_655
Hf1 Mg9 3.128972 1_655
Hf1 Mg9 3.128972 1_555
Hf1 Mg8 3.128972 1_554
Hf1 Mg8 3.128972 1_654
Hf1 Mg0 3.385220 1_555
Hf1 Mg1 3.385220 1_554
Hf1 Mg7 3.459448 1_555
Hf1 Mg6 3.459448 1_554
Mg0 Mg11 3.316881 1_555
Mg0 Mg11 3.316881 1_655
Mg0 Mg2 3.334392 1_545
Mg0 Mg2 3.334392 1_645
Mg0 Mg9 3.370928 1_655
Mg0 Mg9 3.370928 1_555
Mg0 Mg4 3.401141 1_655
Mg0 Mg4 3.401141 1_555
Mg0 Rb1 3.409935 1_545
Mg0 Rb0 3.435581 1_555
Mg1 Mg11 3.316881 1_656
Mg1 Mg11 3.316881 1_556
Mg1 Mg3 3.334392 1_545
Mg1 Mg3 3.334392 1_645
Mg1 Mg8 3.370928 1_555
Mg1 Mg8 3.370928 1_655
Mg1 Mg4 3.401141 1_555
Mg1 Mg4 3.401141 1_655
Mg1 Rb1 3.409935 1_546
Mg1 Rb0 3.435581 1_555
Mg2 Mg4 2.970951 1_565
Mg2 Mg5 3.002640 1_555
Mg2 Mg7 3.370928 1_455
Mg2 Mg7 3.370928 1_555
Mg2 Rb1 3.574517 1_455
Mg2 Rb1 3.574517 1_555
Mg3 Mg4 2.970951 1_565
Mg3 Mg5 3.002640 1_555
Mg3 Mg6 3.370928 1_455
Mg3 Mg6 3.370928 1_555
Mg3 Rb1 3.574517 1_456
Mg3 Rb1 3.574517 1_556
Mg4 Rb0 3.527386 1_455
Mg4 Rb0 3.527386 1_555
Mg5 Mg6 3.316881 1_555
Mg5 Mg6 3.316881 1_455
Mg5 Mg7 3.316881 1_455
Mg5 Mg7 3.316881 1_555
Mg5 Rb0 3.607178 1_455
Mg5 Rb0 3.607178 1_555
Mg6 Mg8 3.334392 1_655
Mg6 Mg8 3.334392 1_555
Mg6 Rb0 3.409935 1_555
Mg6 Rb1 3.435581 1_556
Mg7 Mg9 3.334392 1_555
Mg7 Mg9 3.334392 1_655
Mg7 Rb0 3.409935 1_555
Mg7 Rb1 3.435581 1_555
Mg8 Rb0 3.574517 1_455
Mg8 Rb0 3.574517 1_555
Mg9 Rb0 3.574517 1_455
Mg9 Rb0 3.574517 1_555
Mg10 Mg9 2.970951 1_555
Mg10 Mg8 2.970951 1_554
Mg10 Mg7 3.401141 1_455
Mg10 Mg7 3.401141 1_555
Mg10 Mg6 3.401141 1_454
Mg10 Mg6 3.401141 1_554
Mg10 Rb1 3.527386 1_455
Mg10 Rb1 3.527386 1_555
Mg11 Mg9 3.002640 1_555
Mg11 Mg8 3.002640 1_554
Mg11 Rb1 3.607178 1_445
Mg11 Rb1 3.607178 1_545
