# generated using pymatgen
data_Mg14AlSb
_symmetry_space_group_name_H-M   'P 1'
_cell_length_a   6.34187493
_cell_length_b   6.44585898
_cell_length_c   10.29326202
_cell_angle_alpha   90.00000000
_cell_angle_beta   90.00000000
_cell_angle_gamma   120.54389319
_symmetry_Int_Tables_number   1
_chemical_formula_structural   Mg14AlSb
_chemical_formula_sum   'Mg14 Al1 Sb1'
_cell_volume   362.38961226
_cell_formula_units_Z   1
loop_
 _symmetry_equiv_pos_site_id
 _symmetry_equiv_pos_as_xyz
  1  'x, y, z'
loop_
 _atom_site_type_symbol
 _atom_site_label
 _atom_site_symmetry_multiplicity
 _atom_site_fract_x
 _atom_site_fract_y
 _atom_site_fract_z
 _atom_site_occupancy
  Mg  Mg0  1  0.16779403  0.33389652  0.62500000  1
  Mg  Mg1  1  0.16741762  0.83370831  0.62500000  1
  Mg  Mg2  1  0.66820027  0.33306292  0.12500000  1
  Mg  Mg3  1  0.66630560  0.33361052  0.62500000  1
  Mg  Mg4  1  0.66820027  0.83513635  0.12500000  1
  Mg  Mg5  1  0.66630560  0.83269408  0.62500000  1
  Mg  Mg6  1  0.33282436  0.17000471  0.37398127  1
  Mg  Mg7  1  0.33282436  0.17000471  0.87601873  1
  Mg  Mg8  1  0.33282436  0.66282065  0.37398127  1
  Mg  Mg9  1  0.33282436  0.66282065  0.87601873  1
  Mg  Mg10  1  0.83623309  0.16811705  0.37325445  1
  Mg  Mg11  1  0.83623309  0.16811705  0.87674555  1
  Mg  Mg12  1  0.83192924  0.66596512  0.37696262  1
  Mg  Mg13  1  0.83192924  0.66596512  0.87303738  1
  Al  Al0  1  0.16310738  0.33155319  0.12500000  1
  Sb  Sb0  1  0.16504712  0.83252306  0.12500000  1
loop_
_geom_bond_atom_site_label_1
_geom_bond_atom_site_label_2
_geom_bond_distance
_geom_bond_site_symmetry_2
Mg0 Mg10 3.161371 1_455
Mg0 Mg11 3.161371 1_455
Mg0 Mg5 3.162435 1_555
Mg0 Mg3 3.162435 1_555
Mg0 Mg7 3.164051 1_555
Mg0 Mg6 3.164051 1_555
Mg0 Mg9 3.164058 1_555
Mg0 Mg8 3.164058 1_555
Mg0 Mg5 3.179440 1_445
Mg0 Mg3 3.179440 1_455
Mg0 Mg1 3.222930 1_555
Mg0 Mg1 3.222930 1_545
Mg1 Mg12 3.142621 1_455
Mg1 Mg13 3.142621 1_455
Mg1 Mg3 3.167212 1_565
Mg1 Mg5 3.167213 1_555
Mg1 Mg3 3.174672 1_455
Mg1 Mg5 3.174672 1_455
Mg1 Mg9 3.188130 1_555
Mg1 Mg8 3.188130 1_555
Mg1 Mg7 3.188137 1_565
Mg1 Mg6 3.188137 1_565
Mg2 Mg6 3.150303 1_555
Mg2 Mg7 3.150303 1_554
Mg2 Sb0 3.159534 1_655
Mg2 Sb0 3.182407 1_545
Mg2 Mg4 3.209564 1_545
Mg2 Mg4 3.236295 1_555
Mg3 Mg7 3.161338 1_555
Mg3 Mg6 3.161338 1_555
Mg3 Mg5 3.217022 1_555
Mg3 Mg5 3.228837 1_545
Mg4 Mg8 3.150303 1_555
Mg4 Mg9 3.150303 1_554
Mg4 Sb0 3.159534 1_655
Mg4 Sb0 3.182407 1_555
Mg5 Mg9 3.161338 1_555
Mg5 Mg8 3.161338 1_555
Mg6 Sb0 3.174877 1_545
Mg6 Mg8 3.176622 1_555
Mg6 Mg8 3.269237 1_545
Mg7 Sb0 3.174877 1_546
Mg7 Mg9 3.176622 1_555
Mg7 Mg9 3.269237 1_545
Mg8 Sb0 3.174870 1_555
Mg9 Sb0 3.174870 1_556
Mg10 Mg8 3.143162 1_655
Mg10 Mg6 3.143163 1_655
Mg10 Mg2 3.153953 1_555
Mg10 Mg4 3.153960 1_545
Mg10 Mg3 3.191001 1_555
Mg10 Mg5 3.191007 1_545
Mg10 Mg8 3.198764 1_545
Mg10 Mg6 3.198765 1_555
Mg10 Mg12 3.223241 1_555
Mg10 Mg12 3.223241 1_545
Mg11 Mg9 3.143162 1_655
Mg11 Mg7 3.143163 1_655
Mg11 Mg2 3.153953 1_556
Mg11 Mg4 3.153960 1_546
Mg11 Mg3 3.191001 1_555
Mg11 Mg5 3.191007 1_545
Mg11 Mg9 3.198764 1_545
Mg11 Mg7 3.198765 1_555
Mg11 Mg13 3.223241 1_555
Mg11 Mg13 3.223241 1_545
Mg12 Mg5 3.150239 1_555
Mg12 Mg3 3.150246 1_555
Mg12 Mg6 3.155157 1_555
Mg12 Mg8 3.155158 1_555
Mg12 Sb0 3.168079 1_655
Mg12 Mg4 3.185032 1_555
Mg12 Mg2 3.185038 1_555
Mg12 Mg6 3.187110 1_665
Mg12 Mg8 3.187110 1_655
Mg13 Mg5 3.150239 1_555
Mg13 Mg3 3.150246 1_555
Mg13 Mg7 3.155157 1_555
Mg13 Mg9 3.155158 1_555
Mg13 Sb0 3.168079 1_656
Mg13 Mg4 3.185032 1_556
Mg13 Mg2 3.185038 1_556
Mg13 Mg7 3.187110 1_665
Mg13 Mg9 3.187110 1_655
Al0 Mg11 3.117253 1_454
Al0 Mg10 3.117253 1_455
Al0 Mg4 3.143595 1_445
Al0 Mg2 3.143596 1_455
Al0 Mg6 3.154376 1_555
Al0 Mg7 3.154376 1_554
Al0 Mg8 3.154382 1_555
Al0 Mg9 3.154382 1_554
Al0 Mg4 3.198301 1_555
Al0 Mg2 3.198301 1_555
Al0 Sb0 3.222947 1_555
Al0 Sb0 3.222947 1_545
