# generated using pymatgen
data_Co2As2O7
_symmetry_space_group_name_H-M   'P 1'
_cell_length_a   4.86132764
_cell_length_b   5.45004822
_cell_length_c   5.45551794
_cell_angle_alpha   105.33286427
_cell_angle_beta   97.34370235
_cell_angle_gamma   97.46137846
_symmetry_Int_Tables_number   1
_chemical_formula_structural   Co2As2O7
_chemical_formula_sum   'Co2 As2 O7'
_cell_volume   136.21407157
_cell_formula_units_Z   1
loop_
 _symmetry_equiv_pos_site_id
 _symmetry_equiv_pos_as_xyz
  1  'x, y, z'
loop_
 _atom_site_type_symbol
 _atom_site_label
 _atom_site_symmetry_multiplicity
 _atom_site_fract_x
 _atom_site_fract_y
 _atom_site_fract_z
 _atom_site_occupancy
  Co  Co0  1  0.49792700  0.30912200  0.69366300  1
  Co  Co1  1  0.49949400  0.69332700  0.31036500  1
  As  As0  1  0.09911400  0.75925400  0.76094000  1
  As  As1  1  0.90085500  0.23670800  0.23521700  1
  O  O0  1  0.00891300  0.00362900  0.99964200  1
  O  O1  1  0.77059500  0.59697400  0.59861700  1
  O  O2  1  0.22396200  0.40591900  0.40586200  1
  O  O3  1  0.29216000  0.92759900  0.59703700  1
  O  O4  1  0.28945400  0.59447100  0.92925600  1
  O  O5  1  0.70990900  0.40343100  0.07013500  1
  O  O6  1  0.70761700  0.06956400  0.39926600  1
loop_
_geom_bond_atom_site_label_1
_geom_bond_atom_site_label_2
_geom_bond_distance
_geom_bond_site_symmetry_2
Co0 O5 2.075456 1_556
Co0 O3 2.085037 1_545
Co0 O1 2.133749 1_555
Co0 O2 2.145522 1_555
Co0 O4 2.186968 1_555
Co0 O6 2.231249 1_555
Co1 O6 2.067188 1_565
Co1 O4 2.092298 1_554
Co1 O1 2.138283 1_555
Co1 O2 2.141072 1_555
Co1 O3 2.184765 1_555
Co1 O5 2.219807 1_555
As0 O4 1.714832 1_555
As0 O3 1.716628 1_555
As0 O1 1.724636 1_455
As0 O0 1.744239 1_565
As1 O5 1.713625 1_555
As1 O6 1.713793 1_555
As1 O2 1.726346 1_655
As1 O0 1.738906 1_654
