# generated using pymatgen
data_CsRbMg6
_symmetry_space_group_name_H-M   'P 1'
_cell_length_a   5.04274200
_cell_length_b   7.53991900
_cell_length_c   8.68970165
_cell_angle_alpha   65.50265602
_cell_angle_beta   90.00000000
_cell_angle_gamma   90.00000000
_symmetry_Int_Tables_number   1
_chemical_formula_structural   CsRbMg6
_chemical_formula_sum   'Cs1 Rb1 Mg6'
_cell_volume   300.65634822
_cell_formula_units_Z   1
loop_
 _symmetry_equiv_pos_site_id
 _symmetry_equiv_pos_as_xyz
  1  'x, y, z'
loop_
 _atom_site_type_symbol
 _atom_site_label
 _atom_site_symmetry_multiplicity
 _atom_site_fract_x
 _atom_site_fract_y
 _atom_site_fract_z
 _atom_site_occupancy
  Cs  Cs0  1  0.00000000  0.81956100  0.86314000  1
  Rb  Rb0  1  0.00000000  0.32466900  0.85226100  1
  Mg  Mg0  1  0.00000000  0.32814700  0.34215000  1
  Mg  Mg1  1  0.00000000  0.83066900  0.34222800  1
  Mg  Mg2  1  0.50000000  0.22354100  0.55336800  1
  Mg  Mg3  1  0.50000000  0.72409600  0.55293600  1
  Mg  Mg4  1  0.50000000  0.12626100  0.24402700  1
  Mg  Mg5  1  0.50000000  0.62305500  0.24989100  1
loop_
_geom_bond_atom_site_label_1
_geom_bond_atom_site_label_2
_geom_bond_distance
_geom_bond_site_symmetry_2
Cs0 Rb0 3.770256 1_565
Cs0 Rb0 3.771626 1_555
Cs0 Mg5 3.964564 1_456
Cs0 Mg5 3.964564 1_556
Cs0 Mg3 3.968709 1_455
Cs0 Mg3 3.968709 1_555
Cs0 Mg2 4.010183 1_465
Cs0 Mg2 4.010183 1_565
Cs0 Mg1 4.198552 1_556
Cs0 Mg0 4.273701 1_556
Mg0 Mg2 3.024506 1_555
Mg0 Mg2 3.024506 1_455
Mg0 Mg5 3.235120 1_455
Mg0 Mg5 3.235120 1_555
Mg0 Mg4 3.236945 1_555
Mg0 Mg4 3.236945 1_455
Mg1 Mg3 3.022479 1_455
Mg1 Mg3 3.022479 1_555
Mg1 Mg4 3.236596 1_565
Mg1 Mg4 3.236596 1_465
Mg1 Mg5 3.239324 1_555
Mg1 Mg5 3.239324 1_455
Mg2 Mg4 3.065759 1_555
Mg2 Mg5 3.072551 1_555
Mg2 Rb0 3.914972 1_655
Mg2 Rb0 3.914972 1_555
Mg3 Mg5 3.029653 1_555
Mg3 Mg4 3.106471 1_565
Mg3 Rb0 3.961879 1_555
Mg3 Rb0 3.961879 1_655
Mg4 Rb0 3.995153 1_654
Mg4 Rb0 3.995153 1_554
