# generated using pymatgen
data_Li7Co5O12
_symmetry_space_group_name_H-M   'P 1'
_cell_length_a   5.11112400
_cell_length_b   5.84776703
_cell_length_c   7.62058132
_cell_angle_alpha   100.17276042
_cell_angle_beta   108.74936018
_cell_angle_gamma   90.00571217
_symmetry_Int_Tables_number   1
_chemical_formula_structural   Li7Co5O12
_chemical_formula_sum   'Li7 Co5 O12'
_cell_volume   211.89599987
_cell_formula_units_Z   1
loop_
 _symmetry_equiv_pos_site_id
 _symmetry_equiv_pos_as_xyz
  1  'x, y, z'
loop_
 _atom_site_type_symbol
 _atom_site_label
 _atom_site_symmetry_multiplicity
 _atom_site_fract_x
 _atom_site_fract_y
 _atom_site_fract_z
 _atom_site_occupancy
  Li  Li0  1  0.49500500  0.25355200  0.99943200  1
  Li  Li1  1  0.49865000  0.42088200  0.66352300  1
  Li  Li2  1  0.50499500  0.74644800  0.00056800  1
  Li  Li3  1  0.50402000  0.91318500  0.66647800  1
  Li  Li4  1  0.49598000  0.08681500  0.33352200  1
  Li  Li5  1  0.50135000  0.57911800  0.33647700  1
  Li  Li6  1  0.00000000  0.50000000  0.00000000  1
  Co  Co0  1  0.00000000  0.00000000  0.00000000  1
  Co  Co1  1  0.00037600  0.17367200  0.66937200  1
  Co  Co2  1  0.98986200  0.33989100  0.32337100  1
  Co  Co3  1  0.01013800  0.66010900  0.67662900  1
  Co  Co4  1  0.99962400  0.82632800  0.33062800  1
  O  O0  1  0.77227700  0.04225100  0.16118300  1
  O  O1  1  0.78495700  0.18799200  0.83521800  1
  O  O2  1  0.75868100  0.53785600  0.18110700  1
  O  O3  1  0.78077000  0.73525400  0.84259400  1
  O  O4  1  0.77836000  0.87198800  0.50028100  1
  O  O5  1  0.76448300  0.37847500  0.50911900  1
  O  O6  1  0.24131900  0.46214400  0.81889300  1
  O  O7  1  0.23551700  0.62152500  0.49088100  1
  O  O8  1  0.22772300  0.95774900  0.83881700  1
  O  O9  1  0.22164000  0.12801200  0.49971900  1
  O  O10  1  0.21923000  0.26474600  0.15740600  1
  O  O11  1  0.21504300  0.81200800  0.16478200  1
loop_
_geom_bond_atom_site_label_1
_geom_bond_atom_site_label_2
_geom_bond_distance
_geom_bond_site_symmetry_2
Li0 O0 2.114225 1_556
Li0 O2 2.117567 1_556
Li0 O10 2.122102 1_556
Li0 O6 2.123278 1_555
Li0 O8 2.129152 1_545
Li0 O1 2.220839 1_555
Li1 O6 2.022433 1_555
Li1 O5 2.053491 1_555
Li1 O7 2.079527 1_555
Li1 O9 2.145718 1_555
Li1 O1 2.259878 1_555
Li1 O3 2.273630 1_555
Li2 O8 2.114225 1_554
Li2 O6 2.117567 1_554
Li2 O3 2.122102 1_554
Li2 O2 2.123278 1_555
Li2 O0 2.129152 1_565
Li2 O11 2.220839 1_555
Li3 O3 2.039085 1_555
Li3 O1 2.092949 1_565
Li3 O7 2.143765 1_555
Li3 O9 2.159022 1_565
Li3 O4 2.159205 1_555
Li3 O8 2.204193 1_555
Li4 O10 2.039085 1_555
Li4 O11 2.092949 1_545
Li4 O5 2.143765 1_555
Li4 O4 2.159022 1_545
Li4 O9 2.159205 1_555
Li4 O0 2.204193 1_555
Li5 O2 2.022433 1_555
Li5 O7 2.053491 1_555
Li5 O5 2.079527 1_555
Li5 O4 2.145718 1_555
Li5 O11 2.259878 1_555
Li5 O10 2.273630 1_555
Li6 O10 2.075126 1_555
Li6 O3 2.075126 1_454
Li6 O11 2.101647 1_555
Li6 O1 2.101647 1_454
Li6 O6 2.112239 1_554
Li6 O2 2.112239 1_455
Co0 O10 1.889674 1_555
Co0 O3 1.889674 1_444
Co0 O11 1.895798 1_545
Co0 O1 1.895798 1_454
Co0 O0 1.932982 1_455
Co0 O8 1.932982 1_544
Co1 O1 1.916710 1_455
Co1 O9 1.959531 1_555
Co1 O5 1.987401 1_455
Co1 O6 2.019687 1_555
Co1 O8 2.055137 1_545
Co1 O4 2.077743 1_445
Co2 O2 1.879300 1_555
Co2 O10 1.980908 1_655
Co2 O7 2.035920 1_655
Co2 O0 2.037139 1_555
Co2 O9 2.075950 1_655
Co2 O5 2.077740 1_555
Co3 O6 1.879300 1_555
Co3 O3 1.980908 1_455
Co3 O5 2.035920 1_455
Co3 O8 2.037139 1_555
Co3 O4 2.075950 1_455
Co3 O7 2.077740 1_555
Co4 O11 1.916710 1_655
Co4 O4 1.959531 1_555
Co4 O7 1.987401 1_655
Co4 O2 2.019687 1_555
Co4 O0 2.055137 1_565
Co4 O9 2.077743 1_665
