# generated using pymatgen
data_KAl(PO3)4
_symmetry_space_group_name_H-M   'P 1'
_cell_length_a   10.45813777
_cell_length_b   10.45813777
_cell_length_c   5.14431566
_cell_angle_alpha   81.58995768
_cell_angle_beta   81.58995768
_cell_angle_gamma   72.65019822
_symmetry_Int_Tables_number   1
_chemical_formula_structural   KAl(PO3)4
_chemical_formula_sum   'K2 Al2 P8 O24'
_cell_volume   528.12481116
_cell_formula_units_Z   2
loop_
 _symmetry_equiv_pos_site_id
 _symmetry_equiv_pos_as_xyz
  1  'x, y, z'
loop_
 _atom_site_type_symbol
 _atom_site_label
 _atom_site_symmetry_multiplicity
 _atom_site_fract_x
 _atom_site_fract_y
 _atom_site_fract_z
 _atom_site_occupancy
  K  K0  1  0.40670300  0.40670300  0.74667800  1
  K  K1  1  0.59329700  0.59329700  0.25332200  1
  Al  Al0  1  0.00000000  0.50000000  0.00000000  1
  Al  Al1  1  0.50000000  0.00000000  0.00000000  1
  P  P0  1  0.06901100  0.31188100  0.53176700  1
  P  P1  1  0.31188100  0.06901100  0.53176700  1
  P  P2  1  0.93098900  0.68811900  0.46823300  1
  P  P3  1  0.68811900  0.93098900  0.46823300  1
  P  P4  1  0.80205400  0.35430800  0.83614600  1
  P  P5  1  0.35430800  0.80205400  0.83614600  1
  P  P6  1  0.19794600  0.64569200  0.16385400  1
  P  P7  1  0.64569200  0.19794600  0.16385400  1
  O  O0  1  0.91256300  0.64938400  0.76063500  1
  O  O1  1  0.64938400  0.91256300  0.76063500  1
  O  O2  1  0.08743700  0.35061600  0.23936500  1
  O  O3  1  0.35061600  0.08743700  0.23936500  1
  O  O4  1  0.85755700  0.42443100  0.01209200  1
  O  O5  1  0.42443100  0.85755700  0.01209200  1
  O  O6  1  0.14244300  0.57556900  0.98790800  1
  O  O7  1  0.57556900  0.14244300  0.98790800  1
  O  O8  1  0.09572600  0.40230000  0.70815200  1
  O  O9  1  0.40230000  0.09572600  0.70815200  1
  O  O10  1  0.90427400  0.59770000  0.29184800  1
  O  O11  1  0.59770000  0.90427400  0.29184800  1
  O  O12  1  0.92333800  0.29024500  0.61503600  1
  O  O13  1  0.29024500  0.92333800  0.61503600  1
  O  O14  1  0.07666200  0.70975500  0.38496400  1
  O  O15  1  0.70975500  0.07666200  0.38496400  1
  O  O16  1  0.67853300  0.43160200  0.71327500  1
  O  O17  1  0.43160200  0.67853300  0.71327500  1
  O  O18  1  0.32146700  0.56839800  0.28672500  1
  O  O19  1  0.56839800  0.32146700  0.28672500  1
  O  O20  1  0.78565800  0.21434200  0.00000000  1
  O  O21  1  0.21434200  0.78565800  0.00000000  1
  O  O22  1  0.16093900  0.16093900  0.59809800  1
  O  O23  1  0.83906100  0.83906100  0.40190200  1
loop_
_geom_bond_atom_site_label_1
_geom_bond_atom_site_label_2
_geom_bond_distance
_geom_bond_site_symmetry_2
K0 O18 2.792912 1_555
K0 O19 2.792912 1_555
K0 O16 2.909393 1_555
K0 O17 2.909393 1_555
K0 O6 3.003939 1_555
K0 O7 3.003939 1_555
K0 O8 3.301363 1_555
K0 O9 3.301363 1_555
K0 O18 3.335148 1_556
K0 O19 3.335148 1_556
K1 O17 2.792912 1_555
K1 O16 2.792912 1_555
K1 O18 2.909393 1_555
K1 O19 2.909393 1_555
K1 O4 3.003939 1_555
K1 O5 3.003939 1_555
K1 O11 3.301363 1_555
K1 O10 3.301363 1_555
K1 O16 3.335148 1_554
K1 O17 3.335148 1_554
Al0 O6 1.873048 1_554
Al0 O4 1.873048 1_455
Al0 O8 1.923357 1_554
Al0 O10 1.923357 1_455
Al0 O0 1.925562 1_454
Al0 O2 1.925562 1_555
Al1 O7 1.873048 1_554
Al1 O5 1.873048 1_545
Al1 O11 1.923357 1_545
Al1 O9 1.923357 1_554
Al1 O1 1.925562 1_544
Al1 O3 1.925562 1_555
O0 P2 1.499135 1_555
O1 P3 1.499135 1_555
O2 P0 1.499135 1_555
O3 P1 1.499135 1_555
O4 P4 1.515161 1_554
O5 P5 1.515161 1_554
O6 P6 1.515161 1_556
O7 P7 1.515161 1_556
O8 P0 1.509401 1_555
O9 P1 1.509401 1_555
O10 P2 1.509401 1_555
O11 P3 1.509401 1_555
O12 P0 1.594364 1_655
O12 P4 1.626529 1_555
O13 P1 1.594364 1_565
O13 P5 1.626529 1_555
O14 P2 1.594364 1_455
O14 P6 1.626529 1_555
O15 P3 1.594364 1_545
O15 P7 1.626529 1_555
O16 P4 1.479294 1_555
O17 P5 1.479294 1_555
O18 P6 1.479294 1_555
O19 P7 1.479294 1_555
O20 P7 1.621443 1_555
O20 P4 1.621443 1_554
O21 P6 1.621443 1_555
O21 P5 1.621443 1_554
O22 P1 1.601835 1_555
O22 P0 1.601835 1_555
O23 P2 1.601835 1_555
O23 P3 1.601835 1_555
