# generated using pymatgen
data_MnH4(CO3)2
_symmetry_space_group_name_H-M   'P 1'
_cell_length_a   6.23223024
_cell_length_b   6.23223024
_cell_length_c   9.30703829
_cell_angle_alpha   63.00109093
_cell_angle_beta   63.00109093
_cell_angle_gamma   54.75179134
_symmetry_Int_Tables_number   1
_chemical_formula_structural   MnH4(CO3)2
_chemical_formula_sum   'Mn2 H8 C4 O12'
_cell_volume   253.72204829
_cell_formula_units_Z   2
loop_
 _symmetry_equiv_pos_site_id
 _symmetry_equiv_pos_as_xyz
  1  'x, y, z'
loop_
 _atom_site_type_symbol
 _atom_site_label
 _atom_site_symmetry_multiplicity
 _atom_site_fract_x
 _atom_site_fract_y
 _atom_site_fract_z
 _atom_site_occupancy
  Mn  Mn0  1  0.18880300  0.81119700  0.75000000  1
  Mn  Mn1  1  0.81119700  0.18880300  0.25000000  1
  H  H0  1  0.30595200  0.05290800  0.86295700  1
  H  H1  1  0.94709200  0.69404800  0.63704300  1
  H  H2  1  0.69404800  0.94709200  0.13704300  1
  H  H3  1  0.05290800  0.30595200  0.36295700  1
  H  H4  1  0.33832600  0.19899000  0.66777500  1
  H  H5  1  0.80101000  0.66167400  0.83222500  1
  H  H6  1  0.66167400  0.80101000  0.33222500  1
  H  H7  1  0.19899000  0.33832600  0.16777500  1
  C  C0  1  0.63654700  0.26379600  0.84715400  1
  C  C1  1  0.73620400  0.36345300  0.65284600  1
  C  C2  1  0.36345300  0.73620400  0.15284600  1
  C  C3  1  0.26379600  0.63654700  0.34715400  1
  O  O0  1  0.40186100  0.42138200  0.91842400  1
  O  O1  1  0.57861800  0.59813900  0.58157600  1
  O  O2  1  0.59813900  0.57861800  0.08157600  1
  O  O3  1  0.42138200  0.40186100  0.41842400  1
  O  O4  1  0.79905200  0.03120200  0.91932700  1
  O  O5  1  0.96879800  0.20094800  0.58067300  1
  O  O6  1  0.20094800  0.96879800  0.08067300  1
  O  O7  1  0.03120200  0.79905200  0.41932700  1
  O  O8  1  0.97820600  0.62222600  0.74941200  1
  O  O9  1  0.37777400  0.02179400  0.75058800  1
  O  O10  1  0.02179400  0.37777400  0.25058800  1
  O  O11  1  0.62222600  0.97820600  0.24941200  1
loop_
_geom_bond_atom_site_label_1
_geom_bond_atom_site_label_2
_geom_bond_distance
_geom_bond_site_symmetry_2
Mn0 O0 2.197981 1_555
Mn0 O1 2.197981 1_555
Mn0 O5 2.214902 1_465
Mn0 O4 2.214902 1_465
Mn0 O8 2.214989 1_455
Mn0 O9 2.214989 1_565
Mn1 O3 2.197981 1_555
Mn1 O2 2.197981 1_555
Mn1 O6 2.214902 1_645
Mn1 O7 2.214902 1_645
Mn1 O11 2.214989 1_545
Mn1 O10 2.214989 1_655
H0 O9 0.995297 1_555
H0 O6 1.742550 1_546
H1 O8 0.995297 1_555
H1 O7 1.742550 1_655
H2 O11 0.995297 1_555
H2 O4 1.742550 1_564
H3 O10 0.995297 1_555
H3 O5 1.742550 1_455
H4 O9 0.979741 1_555
H5 O8 0.979741 1_555
H6 O11 0.979741 1_555
H7 O10 0.979741 1_555
C0 O0 1.263479 1_555
C0 O4 1.271713 1_555
C1 O1 1.263479 1_555
C1 O5 1.271713 1_555
C2 O2 1.263479 1_555
C2 O6 1.271713 1_555
C3 O3 1.263479 1_555
C3 O7 1.271713 1_555
