# generated using pymatgen
data_Mg30CdBiO32
_symmetry_space_group_name_H-M   'P 1'
_cell_length_a   8.66193800
_cell_length_b   8.66193800
_cell_length_c   8.71697700
_cell_angle_alpha   90.00000000
_cell_angle_beta   90.00000000
_cell_angle_gamma   90.00000000
_symmetry_Int_Tables_number   1
_chemical_formula_structural   Mg30CdBiO32
_chemical_formula_sum   'Mg30 Cd1 Bi1 O32'
_cell_volume   654.02754849
_cell_formula_units_Z   1
loop_
 _symmetry_equiv_pos_site_id
 _symmetry_equiv_pos_as_xyz
  1  'x, y, z'
loop_
 _atom_site_type_symbol
 _atom_site_label
 _atom_site_symmetry_multiplicity
 _atom_site_fract_x
 _atom_site_fract_y
 _atom_site_fract_z
 _atom_site_occupancy
  Mg  Mg0  1  0.00000000  0.50000000  0.00000000  1
  Mg  Mg1  1  0.00000000  0.50000000  0.50000000  1
  Mg  Mg2  1  0.50000000  0.00000000  0.00000000  1
  Mg  Mg3  1  0.50000000  0.00000000  0.50000000  1
  Mg  Mg4  1  0.50000000  0.50000000  0.00000000  1
  Mg  Mg5  1  0.50000000  0.50000000  0.50000000  1
  Mg  Mg6  1  0.00000000  0.25880200  0.24395100  1
  Mg  Mg7  1  0.00000000  0.25880200  0.75604900  1
  Mg  Mg8  1  0.00000000  0.74119800  0.24395100  1
  Mg  Mg9  1  0.00000000  0.74119800  0.75604900  1
  Mg  Mg10  1  0.50000000  0.25049300  0.24897700  1
  Mg  Mg11  1  0.50000000  0.25049300  0.75102300  1
  Mg  Mg12  1  0.50000000  0.74950700  0.24897700  1
  Mg  Mg13  1  0.50000000  0.74950700  0.75102300  1
  Mg  Mg14  1  0.25880200  0.00000000  0.24395100  1
  Mg  Mg15  1  0.25880200  0.00000000  0.75604900  1
  Mg  Mg16  1  0.25049300  0.50000000  0.24897700  1
  Mg  Mg17  1  0.25049300  0.50000000  0.75102300  1
  Mg  Mg18  1  0.74119800  0.00000000  0.24395100  1
  Mg  Mg19  1  0.74119800  0.00000000  0.75604900  1
  Mg  Mg20  1  0.74950700  0.50000000  0.24897700  1
  Mg  Mg21  1  0.74950700  0.50000000  0.75102300  1
  Mg  Mg22  1  0.25202400  0.25202400  0.00000000  1
  Mg  Mg23  1  0.25692100  0.25692100  0.50000000  1
  Mg  Mg24  1  0.25202400  0.74797600  0.00000000  1
  Mg  Mg25  1  0.25692100  0.74307900  0.50000000  1
  Mg  Mg26  1  0.74797600  0.25202400  0.00000000  1
  Mg  Mg27  1  0.74307900  0.25692100  0.50000000  1
  Mg  Mg28  1  0.74797600  0.74797600  0.00000000  1
  Mg  Mg29  1  0.74307900  0.74307900  0.50000000  1
  Cd  Cd0  1  0.00000000  0.00000000  0.00000000  1
  Bi  Bi0  1  0.00000000  0.00000000  0.50000000  1
  O  O0  1  0.27014100  0.00000000  0.00000000  1
  O  O1  1  0.26797100  0.00000000  0.50000000  1
  O  O2  1  0.25265000  0.50000000  0.00000000  1
  O  O3  1  0.25233200  0.50000000  0.50000000  1
  O  O4  1  0.72985900  0.00000000  0.00000000  1
  O  O5  1  0.73202900  0.00000000  0.50000000  1
  O  O6  1  0.74735000  0.50000000  0.00000000  1
  O  O7  1  0.74766800  0.50000000  0.50000000  1
  O  O8  1  0.24891600  0.24891600  0.25167400  1
  O  O9  1  0.24891600  0.24891600  0.74832600  1
  O  O10  1  0.24891600  0.75108400  0.25167400  1
  O  O11  1  0.24891600  0.75108400  0.74832600  1
  O  O12  1  0.75108400  0.24891600  0.25167400  1
  O  O13  1  0.75108400  0.24891600  0.74832600  1
  O  O14  1  0.75108400  0.75108400  0.25167400  1
  O  O15  1  0.75108400  0.75108400  0.74832600  1
  O  O16  1  0.00000000  0.00000000  0.24439000  1
  O  O17  1  0.00000000  0.00000000  0.75561000  1
  O  O18  1  0.00000000  0.50000000  0.25117800  1
  O  O19  1  0.00000000  0.50000000  0.74882200  1
  O  O20  1  0.50000000  0.00000000  0.25117800  1
  O  O21  1  0.50000000  0.00000000  0.74882200  1
  O  O22  1  0.50000000  0.50000000  0.25089100  1
  O  O23  1  0.50000000  0.50000000  0.74910900  1
  O  O24  1  0.00000000  0.27014100  0.00000000  1
  O  O25  1  0.00000000  0.26797100  0.50000000  1
  O  O26  1  0.00000000  0.72985900  0.00000000  1
  O  O27  1  0.00000000  0.73202900  0.50000000  1
  O  O28  1  0.50000000  0.25265000  0.00000000  1
  O  O29  1  0.50000000  0.25233200  0.50000000  1
  O  O30  1  0.50000000  0.74735000  0.00000000  1
  O  O31  1  0.50000000  0.74766800  0.50000000  1
loop_
_geom_bond_atom_site_label_1
_geom_bond_atom_site_label_2
_geom_bond_distance
_geom_bond_site_symmetry_2
Mg0 O26 1.991024 1_555
Mg0 O24 1.991024 1_555
Mg0 O6 2.188439 1_455
Mg0 O2 2.188439 1_555
Mg0 O18 2.189513 1_555
Mg0 O19 2.189513 1_554
Mg1 O27 2.009821 1_555
Mg1 O25 2.009821 1_555
Mg1 O18 2.168976 1_555
Mg1 O19 2.168976 1_555
Mg1 O3 2.185684 1_555
Mg1 O7 2.185684 1_455
Mg2 O4 1.991024 1_555
Mg2 O0 1.991024 1_555
Mg2 O30 2.188439 1_545
Mg2 O28 2.188439 1_555
Mg2 O20 2.189513 1_555
Mg2 O21 2.189513 1_554
Mg3 O5 2.009821 1_555
Mg3 O1 2.009821 1_555
Mg3 O21 2.168976 1_555
Mg3 O20 2.168976 1_555
Mg3 O31 2.185684 1_545
Mg3 O29 2.185684 1_555
Mg4 O2 2.142530 1_555
Mg4 O28 2.142530 1_555
Mg4 O6 2.142530 1_555
Mg4 O30 2.142530 1_555
Mg4 O22 2.187011 1_555
Mg4 O23 2.187011 1_554
Mg5 O7 2.145285 1_555
Mg5 O29 2.145285 1_555
Mg5 O31 2.145285 1_555
Mg5 O3 2.145285 1_555
Mg5 O23 2.171477 1_555
Mg5 O22 2.171477 1_555
Mg6 O18 2.090192 1_555
Mg6 O24 2.128782 1_555
Mg6 O8 2.158845 1_555
Mg6 O12 2.158845 1_455
Mg6 O25 2.233386 1_555
Mg6 O16 2.241730 1_555
Mg7 O19 2.090192 1_555
Mg7 O24 2.128782 1_556
Mg7 O9 2.158845 1_555
Mg7 O13 2.158845 1_455
Mg7 O25 2.233386 1_555
Mg7 O17 2.241730 1_555
Mg8 O18 2.090192 1_555
Mg8 O26 2.128782 1_555
Mg8 O10 2.158845 1_555
Mg8 O14 2.158845 1_455
Mg8 O27 2.233386 1_555
Mg8 O16 2.241730 1_565
Mg9 O19 2.090192 1_555
Mg9 O26 2.128782 1_556
Mg9 O11 2.158845 1_555
Mg9 O15 2.158845 1_455
Mg9 O27 2.233386 1_555
Mg9 O17 2.241730 1_565
Mg10 O22 2.161279 1_555
Mg10 O20 2.169840 1_555
Mg10 O28 2.170407 1_555
Mg10 O12 2.175044 1_555
Mg10 O8 2.175044 1_555
Mg10 O29 2.188220 1_555
Mg11 O23 2.161279 1_555
Mg11 O21 2.169840 1_555
Mg11 O28 2.170407 1_556
Mg11 O9 2.175044 1_555
Mg11 O13 2.175044 1_555
Mg11 O29 2.188220 1_555
Mg12 O22 2.161279 1_555
Mg12 O20 2.169840 1_565
Mg12 O30 2.170407 1_555
Mg12 O14 2.175044 1_555
Mg12 O10 2.175044 1_555
Mg12 O31 2.188220 1_555
Mg13 O23 2.161279 1_555
Mg13 O21 2.169840 1_565
Mg13 O30 2.170407 1_556
Mg13 O11 2.175044 1_555
Mg13 O15 2.175044 1_555
Mg13 O31 2.188220 1_555
Mg14 O20 2.090192 1_555
Mg14 O0 2.128782 1_555
Mg14 O8 2.158845 1_555
Mg14 O10 2.158845 1_545
Mg14 O1 2.233386 1_555
Mg14 O16 2.241730 1_555
Mg15 O21 2.090192 1_555
Mg15 O0 2.128782 1_556
Mg15 O9 2.158845 1_555
Mg15 O11 2.158845 1_545
Mg15 O1 2.233386 1_555
Mg15 O17 2.241730 1_555
Mg16 O22 2.161279 1_555
Mg16 O18 2.169840 1_555
Mg16 O2 2.170407 1_555
Mg16 O10 2.175044 1_555
Mg16 O8 2.175044 1_555
Mg16 O3 2.188220 1_555
Mg17 O23 2.161279 1_555
Mg17 O19 2.169840 1_555
Mg17 O2 2.170407 1_556
Mg17 O11 2.175044 1_555
Mg17 O9 2.175044 1_555
Mg17 O3 2.188220 1_555
Mg18 O20 2.090192 1_555
Mg18 O4 2.128782 1_555
Mg18 O12 2.158845 1_555
Mg18 O14 2.158845 1_545
Mg18 O5 2.233386 1_555
Mg18 O16 2.241730 1_655
Mg19 O21 2.090192 1_555
Mg19 O4 2.128782 1_556
Mg19 O13 2.158845 1_555
Mg19 O15 2.158845 1_545
Mg19 O5 2.233386 1_555
Mg19 O17 2.241730 1_655
Mg20 O22 2.161279 1_555
Mg20 O18 2.169840 1_655
Mg20 O6 2.170407 1_555
Mg20 O14 2.175044 1_555
Mg20 O12 2.175044 1_555
Mg20 O7 2.188220 1_555
Mg21 O23 2.161279 1_555
Mg21 O19 2.169840 1_655
Mg21 O6 2.170407 1_556
Mg21 O15 2.175044 1_555
Mg21 O13 2.175044 1_555
Mg21 O7 2.188220 1_555
Mg22 O28 2.147960 1_555
Mg22 O2 2.147960 1_555
Mg22 O0 2.188649 1_555
Mg22 O24 2.188649 1_555
Mg22 O8 2.194167 1_555
Mg22 O9 2.194167 1_554
Mg23 O3 2.105910 1_555
Mg23 O29 2.105910 1_555
Mg23 O9 2.166872 1_555
Mg23 O8 2.166872 1_555
Mg23 O25 2.227491 1_555
Mg23 O1 2.227491 1_555
Mg24 O2 2.147960 1_555
Mg24 O30 2.147960 1_555
Mg24 O26 2.188649 1_555
Mg24 O0 2.188649 1_565
Mg24 O10 2.194167 1_555
Mg24 O11 2.194167 1_554
Mg25 O3 2.105910 1_555
Mg25 O31 2.105910 1_555
Mg25 O11 2.166872 1_555
Mg25 O10 2.166872 1_555
Mg25 O27 2.227491 1_555
Mg25 O1 2.227491 1_565
Mg26 O28 2.147960 1_555
Mg26 O6 2.147960 1_555
Mg26 O4 2.188649 1_555
Mg26 O24 2.188649 1_655
Mg26 O12 2.194167 1_555
Mg26 O13 2.194167 1_554
Mg27 O29 2.105910 1_555
Mg27 O7 2.105910 1_555
Mg27 O13 2.166872 1_555
Mg27 O12 2.166872 1_555
Mg27 O5 2.227491 1_555
Mg27 O25 2.227491 1_655
Mg28 O30 2.147960 1_555
Mg28 O6 2.147960 1_555
Mg28 O26 2.188649 1_655
Mg28 O4 2.188649 1_565
Mg28 O14 2.194167 1_555
Mg28 O15 2.194167 1_554
Mg29 O7 2.105910 1_555
Mg29 O31 2.105910 1_555
Mg29 O15 2.166872 1_555
Mg29 O14 2.166872 1_555
Mg29 O27 2.227491 1_655
Mg29 O5 2.227491 1_565
Cd0 O17 2.130342 1_554
Cd0 O16 2.130342 1_555
Cd0 O0 2.339945 1_555
Cd0 O24 2.339945 1_555
Cd0 O4 2.339945 1_455
Cd0 O26 2.339945 1_545
Bi0 O16 2.228146 1_555
Bi0 O17 2.228146 1_555
Bi0 O1 2.321148 1_555
Bi0 O25 2.321148 1_555
Bi0 O27 2.321148 1_545
Bi0 O5 2.321148 1_455
