# generated using pymatgen
data_NdMnIn
_symmetry_space_group_name_H-M   'P 1'
_cell_length_a   4.56677014
_cell_length_b   4.56677014
_cell_length_c   3.92945200
_cell_angle_alpha   90.00000000
_cell_angle_beta   90.00000000
_cell_angle_gamma   120.00000209
_symmetry_Int_Tables_number   1
_chemical_formula_structural   NdMnIn
_chemical_formula_sum   'Nd1 Mn1 In1'
_cell_volume   70.97099874
_cell_formula_units_Z   1
loop_
 _symmetry_equiv_pos_site_id
 _symmetry_equiv_pos_as_xyz
  1  'x, y, z'
loop_
 _atom_site_type_symbol
 _atom_site_label
 _atom_site_symmetry_multiplicity
 _atom_site_fract_x
 _atom_site_fract_y
 _atom_site_fract_z
 _atom_site_occupancy
  Nd  Nd0  1  0.66666700  0.33333300  0.00000000  1
  Mn  Mn0  1  0.00000000  0.00000000  0.50000000  1
  In  In0  1  0.33333300  0.66666700  0.50000000  1
loop_
_geom_bond_atom_site_label_1
_geom_bond_atom_site_label_2
_geom_bond_distance
_geom_bond_site_symmetry_2
Mn0 Nd0 3.288150 1_455
Mn0 Nd0 3.288150 1_456
Mn0 Nd0 3.288153 1_555
Mn0 Nd0 3.288153 1_445
Mn0 Nd0 3.288153 1_446
Mn0 Nd0 3.288153 1_556
In0 Mn0 2.636623 1_565
In0 Mn0 2.636627 1_665
In0 Mn0 2.636627 1_555
In0 Nd0 3.288150 1_456
In0 Nd0 3.288150 1_455
In0 Nd0 3.288150 1_565
In0 Nd0 3.288150 1_566
In0 Nd0 3.288156 1_555
In0 Nd0 3.288156 1_556
