# generated using pymatgen
data_LiSm(C2O5)2
_symmetry_space_group_name_H-M   'P 1'
_cell_length_a   7.50887900
_cell_length_b   9.56985300
_cell_length_c   12.59421937
_cell_angle_alpha   75.17105423
_cell_angle_beta   90.00000000
_cell_angle_gamma   90.00000000
_symmetry_Int_Tables_number   1
_chemical_formula_structural   LiSm(C2O5)2
_chemical_formula_sum   'Li4 Sm4 C16 O40'
_cell_volume   874.86440265
_cell_formula_units_Z   4
loop_
 _symmetry_equiv_pos_site_id
 _symmetry_equiv_pos_as_xyz
  1  'x, y, z'
loop_
 _atom_site_type_symbol
 _atom_site_label
 _atom_site_symmetry_multiplicity
 _atom_site_fract_x
 _atom_site_fract_y
 _atom_site_fract_z
 _atom_site_occupancy
  Li  Li0  1  0.30488300  0.59145500  0.29442900  1
  Li  Li1  1  0.69511700  0.40854500  0.70557100  1
  Li  Li2  1  0.30488300  0.90854500  0.70557100  1
  Li  Li3  1  0.69511700  0.09145500  0.29442900  1
  Sm  Sm0  1  0.77577900  0.71337900  0.25516900  1
  Sm  Sm1  1  0.22422100  0.28662100  0.74483100  1
  Sm  Sm2  1  0.77577900  0.78662100  0.74483100  1
  Sm  Sm3  1  0.22422100  0.21337900  0.25516900  1
  C  C0  1  0.83357700  0.37106400  0.27780800  1
  C  C1  1  0.16642300  0.62893600  0.72219200  1
  C  C2  1  0.83357700  0.12893600  0.72219200  1
  C  C3  1  0.16642300  0.87106400  0.27780800  1
  C  C4  1  0.87639600  0.75000000  0.00000000  1
  C  C5  1  0.12360400  0.25000000  0.00000000  1
  C  C6  1  0.66985300  0.75000000  0.00000000  1
  C  C7  1  0.33014700  0.25000000  0.00000000  1
  C  C8  1  0.37182200  0.88269800  0.28602700  1
  C  C9  1  0.62817800  0.11730200  0.71397300  1
  C  C10  1  0.37182200  0.61730200  0.71397300  1
  C  C11  1  0.62817800  0.38269800  0.28602700  1
  C  C12  1  0.77776500  0.83415800  0.47879900  1
  C  C13  1  0.22223500  0.16584200  0.52120100  1
  C  C14  1  0.77776500  0.66584200  0.52120100  1
  C  C15  1  0.22223500  0.33415800  0.47879900  1
  O  O0  1  0.56617600  0.50813600  0.27755800  1
  O  O1  1  0.43382400  0.49186400  0.72244200  1
  O  O2  1  0.56617600  0.99186400  0.72244200  1
  O  O3  1  0.43382400  0.00813600  0.27755800  1
  O  O4  1  0.95158700  0.76241100  0.08701400  1
  O  O5  1  0.04841300  0.23758900  0.91298600  1
  O  O6  1  0.95158700  0.73758900  0.91298600  1
  O  O7  1  0.04841300  0.26241100  0.08701400  1
  O  O8  1  0.59429500  0.74871700  0.09005800  1
  O  O9  1  0.40570500  0.25128300  0.90994200  1
  O  O10  1  0.59429500  0.75128300  0.90994200  1
  O  O11  1  0.40570500  0.24871700  0.09005800  1
  O  O12  1  0.77210400  0.88553700  0.37490400  1
  O  O13  1  0.22789600  0.11446300  0.62509600  1
  O  O14  1  0.77210400  0.61446300  0.62509600  1
  O  O15  1  0.22789600  0.38553700  0.37490400  1
  O  O16  1  0.25327300  0.51930800  0.12110300  1
  O  O17  1  0.74672700  0.48069200  0.87889700  1
  O  O18  1  0.25327300  0.98069200  0.87889700  1
  O  O19  1  0.74672700  0.01930800  0.12110300  1
  O  O20  1  0.77868900  0.90691400  0.54921200  1
  O  O21  1  0.22131100  0.09308600  0.45078800  1
  O  O22  1  0.77868900  0.59308600  0.45078800  1
  O  O23  1  0.22131100  0.40691400  0.54921200  1
  O  O24  1  0.45985600  0.76718600  0.29660300  1
  O  O25  1  0.54014400  0.23281400  0.70339700  1
  O  O26  1  0.45985600  0.73281400  0.70339700  1
  O  O27  1  0.54014400  0.26718600  0.29660300  1
  O  O28  1  0.89970700  0.24520800  0.29420600  1
  O  O29  1  0.10029300  0.75479200  0.70579400  1
  O  O30  1  0.89970700  0.25479200  0.70579400  1
  O  O31  1  0.10029300  0.74520800  0.29420600  1
  O  O32  1  0.73483800  0.42579500  0.97815900  1
  O  O33  1  0.26516200  0.57420500  0.02184100  1
  O  O34  1  0.73483800  0.07420500  0.02184100  1
  O  O35  1  0.26516200  0.92579500  0.97815900  1
  O  O36  1  0.91759300  0.48934100  0.25184200  1
  O  O37  1  0.08240700  0.51065900  0.74815800  1
  O  O38  1  0.91759300  0.01065900  0.74815800  1
  O  O39  1  0.08240700  0.98934100  0.25184200  1
loop_
_geom_bond_atom_site_label_1
_geom_bond_atom_site_label_2
_geom_bond_distance
_geom_bond_site_symmetry_2
Li0 O24 2.051009 1_555
Li0 O15 2.054839 1_555
Li0 O31 2.126718 1_555
Li0 O0 2.148755 1_555
Li0 O16 2.482625 1_555
Li1 O25 2.051009 1_555
Li1 O14 2.054839 1_555
Li1 O30 2.126718 1_555
Li1 O1 2.148755 1_555
Li1 O17 2.482625 1_555
Li2 O26 2.051009 1_555
Li2 O13 2.054839 1_565
Li2 O29 2.126718 1_555
Li2 O2 2.148755 1_555
Li2 O18 2.482625 1_555
Li3 O27 2.051009 1_555
Li3 O12 2.054839 1_545
Li3 O28 2.126718 1_555
Li3 O3 2.148755 1_555
Li3 O19 2.482625 1_555
C0 O36 1.263585 1_555
C0 O28 1.269858 1_555
C1 O37 1.263585 1_555
C1 O29 1.269858 1_555
C2 O38 1.263585 1_555
C2 O30 1.269858 1_555
C3 O39 1.263585 1_555
C3 O31 1.269858 1_555
C4 O4 1.265086 1_555
C4 O6 1.265086 1_554
C5 O7 1.265086 1_555
C5 O5 1.265086 1_554
C6 O10 1.265444 1_554
C6 O8 1.265444 1_555
C7 O11 1.265444 1_555
C7 O9 1.265444 1_554
C8 O24 1.265435 1_555
C8 O3 1.266335 1_565
C9 O25 1.265435 1_555
C9 O2 1.266335 1_545
C10 O26 1.265435 1_555
C10 O1 1.266335 1_555
C11 O27 1.265435 1_555
C11 O0 1.266335 1_555
C12 O20 1.259877 1_555
C12 O12 1.275288 1_555
C13 O21 1.259877 1_555
C13 O13 1.275288 1_555
C14 O22 1.259877 1_555
C14 O14 1.275288 1_555
C15 O23 1.259877 1_555
C15 O15 1.275288 1_555
O0 Sm0 2.476085 1_555
O1 Sm1 2.476085 1_555
O2 Sm2 2.476085 1_555
O3 Sm3 2.476085 1_555
O4 Sm0 2.437055 1_555
O5 Sm1 2.437055 1_555
O6 Sm2 2.437055 1_555
O7 Sm3 2.437055 1_555
O8 Sm0 2.436300 1_555
O9 Sm1 2.436300 1_555
O10 Sm2 2.436300 1_555
O11 Sm3 2.436300 1_555
O12 Sm0 2.502153 1_555
O13 Sm1 2.502153 1_555
O14 Sm2 2.502153 1_555
O15 Sm3 2.502153 1_555
O16 O33 1.229069 1_555
O16 Sm3 2.989910 1_555
O17 O32 1.229069 1_555
O17 Sm2 2.989910 1_555
O18 O35 1.229069 1_555
O18 Sm1 2.989910 1_565
O19 O34 1.229069 1_555
O19 Sm0 2.989910 1_545
O20 Sm2 2.437958 1_555
O21 Sm3 2.437958 1_555
O22 Sm0 2.437958 1_555
O23 Sm1 2.437958 1_555
O24 Sm0 2.510470 1_555
O25 Sm1 2.510470 1_555
O26 Sm2 2.510470 1_555
O27 Sm3 2.510470 1_555
O28 Sm3 2.519688 1_655
O29 Sm2 2.519688 1_455
O30 Sm1 2.519688 1_655
O31 Sm0 2.519688 1_455
O36 Sm0 2.403842 1_555
O37 Sm1 2.403842 1_555
O38 Sm2 2.403842 1_545
O39 Sm3 2.403842 1_565
