# generated using pymatgen
data_Li9Mn2Co5O16
_symmetry_space_group_name_H-M   'P 1'
_cell_length_a   5.11183368
_cell_length_b   5.11183368
_cell_length_c   20.95903809
_cell_angle_alpha   82.95718776
_cell_angle_beta   82.95718776
_cell_angle_gamma   32.84193391
_symmetry_Int_Tables_number   1
_chemical_formula_structural   Li9Mn2Co5O16
_chemical_formula_sum   'Li9 Mn2 Co5 O16'
_cell_volume   294.58165316
_cell_formula_units_Z   1
loop_
 _symmetry_equiv_pos_site_id
 _symmetry_equiv_pos_as_xyz
  1  'x, y, z'
loop_
 _atom_site_type_symbol
 _atom_site_label
 _atom_site_symmetry_multiplicity
 _atom_site_fract_x
 _atom_site_fract_y
 _atom_site_fract_z
 _atom_site_occupancy
  Li  Li0  1  0.24620600  0.24620600  0.06383900  1
  Li  Li1  1  0.75262100  0.75262100  0.19475600  1
  Li  Li2  1  0.24009100  0.24009100  0.32430600  1
  Li  Li3  1  0.73554400  0.73554400  0.44571700  1
  Li  Li4  1  0.26048400  0.26048400  0.55570200  1
  Li  Li5  1  0.75843200  0.75843200  0.68281800  1
  Li  Li6  1  0.25297400  0.25297400  0.80619200  1
  Li  Li7  1  0.75882100  0.75882100  0.92466700  1
  Li  Li8  1  0.99949900  0.99949900  0.50051700  1
  Mn  Mn0  1  0.99854400  0.99854400  0.99794600  1
  Mn  Mn1  1  0.49526400  0.49526400  0.12818900  1
  Co  Co0  1  0.00230700  0.00230700  0.25821300  1
  Co  Co1  1  0.48218300  0.48218300  0.39050100  1
  Co  Co2  1  0.51483000  0.51483000  0.61349800  1
  Co  Co3  1  0.99721800  0.99721800  0.74517100  1
  Co  Co4  1  0.51015800  0.51015800  0.86802300  1
  O  O0  1  0.38418100  0.38418100  0.97115100  1
  O  O1  1  0.88139200  0.88139200  0.10094400  1
  O  O2  1  0.39451800  0.39451800  0.21238200  1
  O  O3  1  0.88567200  0.88567200  0.34017600  1
  O  O4  1  0.37373100  0.37373100  0.46514900  1
  O  O5  1  0.89205300  0.89205300  0.59767900  1
  O  O6  1  0.38227400  0.38227400  0.72139400  1
  O  O7  1  0.89101900  0.89101900  0.84334700  1
  O  O8  1  0.11073600  0.11073600  0.15134500  1
  O  O9  1  0.61956700  0.61956700  0.27561800  1
  O  O10  1  0.10889000  0.10889000  0.40465800  1
  O  O11  1  0.62342500  0.62342500  0.53789900  1
  O  O12  1  0.10971100  0.10971100  0.65644800  1
  O  O13  1  0.61580800  0.61580800  0.78006500  1
  O  O14  1  0.12150500  0.12150500  0.90389700  1
  O  O15  1  0.60034000  0.60034000  0.03779300  1
loop_
_geom_bond_atom_site_label_1
_geom_bond_atom_site_label_2
_geom_bond_distance
_geom_bond_site_symmetry_2
Li0 O8 2.122673 1_555
Li0 O15 2.152230 1_455
Li0 O15 2.152230 1_545
Li0 O1 2.171210 1_455
Li0 O1 2.171210 1_545
Li0 O0 2.220971 1_554
Li1 O9 2.002377 1_555
Li1 O2 2.071837 1_565
Li1 O2 2.071837 1_655
Li1 O1 2.196795 1_555
Li1 O8 2.275031 1_565
Li1 O8 2.275031 1_655
Li2 O10 1.984362 1_555
Li2 O3 2.087703 1_455
Li2 O3 2.087703 1_545
Li2 O9 2.198838 1_545
Li2 O9 2.198838 1_455
Li3 O4 2.057099 1_565
Li3 O4 2.057099 1_655
Li3 O11 2.097296 1_555
Li3 O10 2.155168 1_655
Li3 O10 2.155168 1_565
Li3 O3 2.495610 1_555
Li4 O11 2.040164 1_455
Li4 O11 2.040164 1_545
Li4 O4 2.072815 1_555
Li4 O5 2.194822 1_455
Li4 O5 2.194822 1_545
Li4 O12 2.417981 1_555
Li5 O5 2.074487 1_555
Li5 O6 2.113746 1_655
Li5 O6 2.113746 1_565
Li5 O12 2.174138 1_655
Li5 O12 2.174138 1_565
Li5 O13 2.319857 1_555
Li6 O6 2.047055 1_555
Li6 O13 2.094235 1_455
Li6 O13 2.094235 1_545
Li6 O7 2.190170 1_545
Li6 O7 2.190170 1_455
Li6 O14 2.276127 1_555
Li7 O7 2.005184 1_555
Li7 O14 2.059362 1_655
Li7 O14 2.059362 1_565
Li7 O0 2.203397 1_655
Li7 O0 2.203397 1_565
Li8 O4 2.095867 1_565
Li8 O4 2.095867 1_655
Li8 O11 2.102969 1_655
Li8 O11 2.102969 1_565
Li8 O10 2.153217 1_665
Li8 O5 2.169956 1_555
Mn0 O0 1.955111 1_655
Mn0 O0 1.955111 1_565
Mn0 O15 1.998857 1_656
Mn0 O15 1.998857 1_566
Mn0 O14 2.175297 1_665
Mn0 O1 2.312145 1_556
Mn1 O2 1.908988 1_555
Mn1 O8 1.935615 1_655
Mn1 O8 1.935615 1_565
Mn1 O1 1.955599 1_455
Mn1 O1 1.955599 1_545
Mn1 O15 2.037712 1_555
Co0 O9 1.910732 1_455
Co0 O9 1.910732 1_545
Co0 O3 1.938302 1_445
Co0 O2 2.094727 1_545
Co0 O2 2.094727 1_455
Co0 O8 2.353447 1_555
Co1 O4 1.775827 1_555
Co1 O10 1.953082 1_565
Co1 O10 1.953082 1_655
Co1 O3 2.086085 1_455
Co1 O3 2.086085 1_545
Co2 O11 1.792575 1_555
Co2 O5 1.936471 1_455
Co2 O5 1.936471 1_545
Co2 O12 1.994614 1_655
Co2 O12 1.994614 1_565
Co2 O6 2.460124 1_555
Co3 O6 1.936703 1_565
Co3 O6 1.936703 1_655
Co3 O12 2.037273 1_665
Co3 O13 2.047694 1_655
Co3 O13 2.047694 1_565
Co3 O7 2.184217 1_555
Co4 O7 1.968568 1_455
Co4 O7 1.968568 1_545
Co4 O13 1.995921 1_555
Co4 O14 2.013903 1_655
Co4 O14 2.013903 1_565
Co4 O0 2.348512 1_555
