# generated using pymatgen
data_Ce2VCo16
_symmetry_space_group_name_H-M   'P 1'
_cell_length_a   8.15046302
_cell_length_b   8.31372200
_cell_length_c   8.31874508
_cell_angle_alpha   60.01997241
_cell_angle_beta   90.00713471
_cell_angle_gamma   90.00000000
_symmetry_Int_Tables_number   1
_chemical_formula_structural   Ce2VCo16
_chemical_formula_sum   'Ce4 V2 Co32'
_cell_volume   488.26274839
_cell_formula_units_Z   2
loop_
 _symmetry_equiv_pos_site_id
 _symmetry_equiv_pos_as_xyz
  1  'x, y, z'
loop_
 _atom_site_type_symbol
 _atom_site_label
 _atom_site_symmetry_multiplicity
 _atom_site_fract_x
 _atom_site_fract_y
 _atom_site_fract_z
 _atom_site_occupancy
  Ce  Ce0  1  0.26064400  0.66736600  0.66526700  1
  Ce  Ce1  1  0.73935600  0.33263400  0.33473300  1
  Ce  Ce2  1  0.75326100  0.00019500  0.99961100  1
  Ce  Ce3  1  0.24673900  0.99980500  0.00038900  1
  V  V0  1  0.11339900  0.33317200  0.33365600  1
  V  V1  1  0.88660100  0.66682800  0.66634400  1
  Co  Co0  1  0.75014800  0.67180900  0.37247600  1
  Co  Co1  1  0.75026800  0.37234100  0.95553400  1
  Co  Co2  1  0.75024600  0.95558900  0.67187200  1
  Co  Co3  1  0.75024600  0.37253900  0.67187200  1
  Co  Co4  1  0.75014800  0.95571500  0.37247600  1
  Co  Co5  1  0.75026800  0.67212500  0.95553400  1
  Co  Co6  1  0.24985200  0.32819100  0.62752400  1
  Co  Co7  1  0.24973200  0.62765900  0.04446600  1
  Co  Co8  1  0.24975400  0.04441100  0.32812800  1
  Co  Co9  1  0.24975400  0.62746100  0.32812800  1
  Co  Co10  1  0.24985200  0.04428500  0.62752400  1
  Co  Co11  1  0.24973200  0.32787500  0.04446600  1
  Co  Co12  1  0.48067400  0.83313100  0.83281900  1
  Co  Co13  1  0.48043400  0.83301700  0.33396600  1
  Co  Co14  1  0.48067400  0.33405000  0.83281900  1
  Co  Co15  1  0.51932600  0.16686900  0.16718100  1
  Co  Co16  1  0.51956600  0.16698300  0.66603400  1
  Co  Co17  1  0.51932600  0.66595000  0.16718100  1
  Co  Co18  1  0.97412800  0.16897000  0.16924200  1
  Co  Co19  1  0.97405200  0.16910400  0.66179200  1
  Co  Co20  1  0.97412800  0.66178800  0.16924200  1
  Co  Co21  1  0.02587200  0.83103000  0.83075800  1
  Co  Co22  1  0.02594800  0.83089600  0.33820800  1
  Co  Co23  1  0.02587200  0.33821200  0.83075800  1
  Co  Co24  1  0.50000000  0.50000000  0.50000000  1
  Co  Co25  1  0.50000000  0.50000000  0.00000000  1
  Co  Co26  1  0.50000000  0.00000000  0.50000000  1
  Co  Co27  1  0.00000000  0.50000000  0.50000000  1
  Co  Co28  1  0.00000000  0.50000000  0.00000000  1
  Co  Co29  1  0.00000000  0.00000000  0.50000000  1
  Co  Co30  1  0.60996700  0.66676600  0.66646900  1
  Co  Co31  1  0.39003300  0.33323400  0.33353100  1
loop_
_geom_bond_atom_site_label_1
_geom_bond_atom_site_label_2
_geom_bond_distance
_geom_bond_site_symmetry_2
Ce0 Co30 2.847156 1_555
Ce0 Co13 2.984843 1_555
Ce0 Co9 2.985531 1_555
Ce0 Co8 2.985535 1_565
Ce0 Co6 2.990390 1_555
Ce0 Co10 2.990398 1_565
Ce0 Co14 2.996181 1_555
Ce0 Co12 2.996187 1_555
Ce0 Co11 3.004472 1_556
Ce0 Co7 3.004475 1_556
Ce0 Co22 3.035093 1_555
Ce0 Co23 3.046439 1_555
Ce0 Co21 3.046444 1_555
Ce0 V1 3.048635 1_455
Ce0 Co24 3.089424 1_555
Ce0 Co26 3.089430 1_565
Ce0 Co25 3.101963 1_556
Ce0 Co27 3.201598 1_555
Ce0 Co29 3.201603 1_565
Ce0 Co28 3.214356 1_556
Ce1 Co31 2.847156 1_555
Ce1 Co16 2.984843 1_555
Ce1 Co3 2.985531 1_555
Ce1 Co2 2.985535 1_545
Ce1 Co0 2.990390 1_555
Ce1 Co4 2.990398 1_545
Ce1 Co17 2.996181 1_555
Ce1 Co15 2.996187 1_555
Ce1 Co5 3.004472 1_554
Ce1 Co1 3.004475 1_554
Ce1 Co19 3.035093 1_555
Ce1 Co20 3.046439 1_555
Ce1 Co18 3.046444 1_555
Ce1 V0 3.048635 1_655
Ce1 Co24 3.089424 1_555
Ce1 Co26 3.089430 1_555
Ce1 Co25 3.101963 1_555
Ce1 Co27 3.201598 1_655
Ce1 Co29 3.201603 1_655
Ce1 Co28 3.214356 1_655
Ce2 Co1 2.928074 1_555
Ce2 Co5 2.928083 1_545
Ce2 Co3 2.929447 1_555
Ce2 Co2 2.929452 1_545
Ce2 Co4 2.934631 1_546
Ce2 Co0 2.934634 1_546
Ce2 Co19 3.027386 1_555
Ce2 Co18 3.029664 1_556
Ce2 Co20 3.029669 1_546
Ce2 Co16 3.066627 1_555
Ce2 Co15 3.070796 1_556
Ce2 Co17 3.070802 1_546
Ce2 Co14 3.273443 1_555
Ce2 Co12 3.273448 1_545
Ce2 Co13 3.278836 1_546
Ce2 Co23 3.295885 1_655
Ce2 Co21 3.295890 1_645
Ce2 Co22 3.300123 1_646
Ce3 Co7 2.928074 1_555
Ce3 Co11 2.928083 1_565
Ce3 Co9 2.929447 1_555
Ce3 Co8 2.929452 1_565
Ce3 Co10 2.934631 1_564
Ce3 Co6 2.934634 1_564
Ce3 Co22 3.027386 1_555
Ce3 Co21 3.029664 1_554
Ce3 Co23 3.029669 1_564
Ce3 Co13 3.066627 1_555
Ce3 Co12 3.070796 1_554
Ce3 Co14 3.070802 1_564
Ce3 Co17 3.273443 1_555
Ce3 Co15 3.273448 1_565
Ce3 Co16 3.278836 1_564
Ce3 Co20 3.295885 1_455
Ce3 Co18 3.295890 1_465
Ce3 Co19 3.300123 1_464
Co0 Co4 2.360316 1_555
Co0 Co27 2.407840 1_655
Co0 Co24 2.410104 1_555
Co0 Co3 2.490076 1_555
Co0 Co13 2.510397 1_555
Co0 Co20 2.517812 1_555
Co0 Co22 2.550872 1_655
Co0 Co17 2.557458 1_555
Co0 V1 2.667000 1_555
Co0 Co30 2.680782 1_555
Co1 Co3 2.358890 1_555
Co1 Co28 2.407981 1_656
Co1 Co25 2.411752 1_556
Co1 Co5 2.492321 1_555
Co1 Co14 2.509155 1_555
Co1 Co18 2.518616 1_556
Co1 Co23 2.549253 1_655
Co1 Co15 2.560462 1_556
Co1 V1 2.670315 1_555
Co1 Co30 2.682984 1_555
Co2 Co5 2.358890 1_555
Co2 Co29 2.407778 1_665
Co2 Co26 2.410868 1_565
Co2 Co4 2.490076 1_555
Co2 Co21 2.548995 1_655
Co2 V1 2.666614 1_555
Co2 Co30 2.680079 1_555
Co3 V1 2.666614 1_555
Co3 Co30 2.680087 1_555
Co4 V1 2.667000 1_555
Co5 V1 2.670315 1_555
Co6 Co9 2.490076 1_555
Co6 V0 2.667000 1_555
Co7 Co9 2.358890 1_555
Co7 V0 2.670315 1_555
Co8 V0 2.666614 1_555
Co9 V0 2.666614 1_555
Co10 Co6 2.360316 1_555
Co10 Co29 2.407840 1_555
Co10 Co26 2.410104 1_555
Co10 Co8 2.490076 1_555
Co10 Co16 2.510397 1_555
Co10 Co21 2.517812 1_545
Co10 Co19 2.550872 1_455
Co10 Co12 2.557458 1_545
Co10 V0 2.667000 1_555
Co10 Co31 2.680779 1_555
Co11 Co8 2.358890 1_555
Co11 Co28 2.407981 1_555
Co11 Co25 2.411752 1_555
Co11 Co7 2.492321 1_555
Co11 Co15 2.509155 1_555
Co11 Co23 2.518616 1_554
Co11 Co18 2.549253 1_455
Co11 Co14 2.560462 1_554
Co11 V0 2.670315 1_555
Co11 Co31 2.682981 1_555
Co12 Co26 2.403385 1_565
Co12 Co25 2.404154 1_556
Co12 Co16 2.425013 1_565
Co12 Co17 2.429774 1_556
Co12 Co2 2.508976 1_555
Co12 Co5 2.509155 1_555
Co12 Co7 2.560462 1_556
Co12 Co30 2.617565 1_555
Co13 Co26 2.403456 1_565
Co13 Co24 2.403456 1_555
Co13 Co15 2.425013 1_565
Co13 Co17 2.425013 1_555
Co13 Co4 2.510397 1_555
Co13 Co8 2.557479 1_565
Co13 Co9 2.557479 1_555
Co13 Co30 2.618071 1_555
Co14 Co24 2.403385 1_555
Co14 Co25 2.404154 1_556
Co14 Co16 2.425013 1_555
Co14 Co15 2.429774 1_556
Co14 Co3 2.508976 1_555
Co14 Co6 2.557458 1_555
Co14 Co30 2.617572 1_555
Co15 Co26 2.403385 1_555
Co15 Co25 2.404154 1_555
Co15 Co8 2.508976 1_555
Co15 Co4 2.557458 1_545
Co15 Co31 2.617565 1_555
Co16 Co26 2.403456 1_555
Co16 Co24 2.403456 1_555
Co16 Co6 2.510397 1_555
Co16 Co2 2.557479 1_545
Co16 Co3 2.557479 1_555
Co16 Co31 2.618071 1_555
Co17 Co24 2.403385 1_555
Co17 Co25 2.404154 1_555
Co17 Co9 2.508976 1_555
Co17 Co7 2.509155 1_555
Co17 Co5 2.560462 1_554
Co17 Co31 2.617572 1_555
Co18 Co29 2.392807 1_655
Co18 Co28 2.393407 1_655
Co18 Co22 2.470921 1_645
Co18 Co23 2.475265 1_654
Co18 Co4 2.517812 1_545
Co18 Co8 2.548995 1_655
Co18 V0 2.624564 1_655
Co19 Co27 2.392450 1_655
Co19 Co29 2.392450 1_655
Co19 Co23 2.470921 1_655
Co19 Co21 2.470921 1_645
Co19 Co2 2.517286 1_545
Co19 Co3 2.517286 1_555
Co19 Co6 2.550872 1_655
Co19 V0 2.623222 1_655
Co20 Co27 2.392807 1_655
Co20 Co28 2.393407 1_655
Co20 Co22 2.470921 1_655
Co20 Co21 2.475265 1_654
Co20 Co5 2.518616 1_554
Co20 Co9 2.548995 1_655
Co20 Co7 2.549253 1_655
Co20 V0 2.624564 1_655
Co21 Co29 2.392807 1_565
Co21 Co28 2.393407 1_556
Co21 Co7 2.518616 1_556
Co21 Co5 2.549253 1_455
Co21 V1 2.624564 1_455
Co22 Co27 2.392450 1_555
Co22 Co29 2.392450 1_565
Co22 Co9 2.517286 1_555
Co22 Co8 2.517286 1_565
Co22 Co4 2.550872 1_455
Co22 V1 2.623222 1_455
Co23 Co27 2.392807 1_555
Co23 Co28 2.393407 1_556
Co23 Co6 2.517812 1_555
Co23 Co3 2.548995 1_455
Co23 V1 2.624564 1_455
Co24 Co6 2.410104 1_555
Co24 Co9 2.410868 1_555
Co24 Co3 2.410868 1_555
Co24 Co30 2.561594 1_555
Co24 Co31 2.561594 1_555
Co25 Co7 2.411752 1_555
Co25 Co5 2.411752 1_554
Co25 Co31 2.565131 1_555
Co25 Co30 2.565131 1_554
Co26 Co4 2.410104 1_545
Co26 Co8 2.410868 1_555
Co26 Co31 2.561587 1_555
Co26 Co30 2.561587 1_545
Co27 Co9 2.407778 1_555
Co27 Co3 2.407778 1_455
Co27 Co6 2.407840 1_555
Co27 V0 2.571213 1_555
Co27 V1 2.571213 1_455
Co28 Co5 2.407981 1_454
Co28 Co7 2.407981 1_555
Co28 V1 2.575635 1_454
Co28 V0 2.575635 1_555
Co29 Co8 2.407778 1_555
Co29 Co4 2.407840 1_445
Co29 V0 2.571213 1_555
Co29 V1 2.571213 1_445
Co30 V1 2.254695 1_555
Co30 Co4 2.680779 1_555
Co30 Co5 2.682981 1_555
Co31 V0 2.254695 1_555
Co31 Co8 2.680079 1_555
Co31 Co9 2.680087 1_555
Co31 Co6 2.680782 1_555
Co31 Co7 2.682984 1_555
