# generated using pymatgen
data_Zn3(GaS3)2
_symmetry_space_group_name_H-M   'P 1'
_cell_length_a   8.79823722
_cell_length_b   8.79823722
_cell_length_c   6.88043481
_cell_angle_alpha   81.48447894
_cell_angle_beta   81.48447894
_cell_angle_gamma   111.27476792
_symmetry_Int_Tables_number   1
_chemical_formula_structural   Zn3(GaS3)2
_chemical_formula_sum   'Zn6 Ga4 S12'
_cell_volume   478.92655483
_cell_formula_units_Z   2
loop_
 _symmetry_equiv_pos_site_id
 _symmetry_equiv_pos_as_xyz
  1  'x, y, z'
loop_
 _atom_site_type_symbol
 _atom_site_label
 _atom_site_symmetry_multiplicity
 _atom_site_fract_x
 _atom_site_fract_y
 _atom_site_fract_z
 _atom_site_occupancy
  Zn  Zn0  1  0.30673900  0.48000200  0.51682300  1
  Zn  Zn1  1  0.51999800  0.69326100  0.98317700  1
  Zn  Zn2  1  0.69326100  0.51999800  0.48317700  1
  Zn  Zn3  1  0.48000200  0.30673900  0.01682300  1
  Zn  Zn4  1  0.17952700  0.82047300  0.25000000  1
  Zn  Zn5  1  0.82047300  0.17952700  0.75000000  1
  Ga  Ga0  1  0.98552600  0.67199100  0.86225600  1
  Ga  Ga1  1  0.32800900  0.01447400  0.63774400  1
  Ga  Ga2  1  0.01447400  0.32800900  0.13774400  1
  Ga  Ga3  1  0.67199100  0.98552600  0.36225600  1
  S  S0  1  0.13751600  0.91564800  0.95699400  1
  S  S1  1  0.08435200  0.86248400  0.54300600  1
  S  S2  1  0.86248400  0.08435200  0.04300600  1
  S  S3  1  0.91564800  0.13751600  0.45699400  1
  S  S4  1  0.29583300  0.42891500  0.16981800  1
  S  S5  1  0.57108500  0.70416700  0.33018200  1
  S  S6  1  0.70416700  0.57108500  0.83018200  1
  S  S7  1  0.42891500  0.29583300  0.66981800  1
  S  S8  1  0.53470100  0.92403000  0.73653500  1
  S  S9  1  0.07597000  0.46529900  0.76346500  1
  S  S10  1  0.46529900  0.07597000  0.26346500  1
  S  S11  1  0.92403000  0.53470100  0.23653500  1
loop_
_geom_bond_atom_site_label_1
_geom_bond_atom_site_label_2
_geom_bond_distance
_geom_bond_site_symmetry_2
Ga0 S0 2.323887 1_655
Ga0 S6 2.364271 1_555
Ga0 S9 2.378716 1_655
Ga0 S1 2.382547 1_655
Ga0 S11 2.564240 1_556
Ga1 S1 2.323887 1_545
Ga1 S7 2.364271 1_555
Ga1 S8 2.378716 1_545
Ga1 S0 2.382547 1_545
Ga1 S10 2.564240 1_555
Ga2 S2 2.323887 1_455
Ga2 S4 2.364271 1_555
Ga2 S11 2.378716 1_455
Ga2 S3 2.382547 1_455
Ga2 S9 2.564240 1_554
Ga3 S3 2.323887 1_565
Ga3 S5 2.364271 1_555
Ga3 S10 2.378716 1_565
Ga3 S2 2.382547 1_565
Ga3 S8 2.564240 1_555
S0 Zn4 2.201691 1_556
S1 Zn4 2.201691 1_555
S2 Zn5 2.201691 1_554
S3 Zn5 2.201691 1_555
S4 Zn3 2.446041 1_555
S4 Zn1 2.446388 1_554
S4 Zn0 2.503193 1_555
S5 Zn2 2.446041 1_555
S5 Zn0 2.446388 1_555
S5 Zn1 2.503193 1_554
S6 Zn1 2.446041 1_555
S6 Zn3 2.446388 1_556
S6 Zn2 2.503193 1_555
S7 Zn0 2.446041 1_555
S7 Zn2 2.446388 1_555
S7 Zn3 2.503193 1_556
S8 Zn1 2.396435 1_555
S8 Zn5 2.722601 1_565
S9 Zn0 2.396435 1_555
S9 Zn5 2.722601 1_455
S10 Zn3 2.396435 1_555
S10 Zn4 2.722601 1_545
S11 Zn2 2.396435 1_555
S11 Zn4 2.722601 1_655
