# generated using pymatgen
data_Er5(In2Pd)2
_symmetry_space_group_name_H-M   'P 1'
_cell_length_a   7.20885800
_cell_length_b   16.19251800
_cell_length_c   36.42167000
_cell_angle_alpha   90.00000000
_cell_angle_beta   90.00000000
_cell_angle_gamma   90.00000000
_symmetry_Int_Tables_number   1
_chemical_formula_structural   Er5(In2Pd)2
_chemical_formula_sum   'Er80 In64 Pd32'
_cell_volume   4251.48562008
_cell_formula_units_Z   16
loop_
 _symmetry_equiv_pos_site_id
 _symmetry_equiv_pos_as_xyz
  1  'x, y, z'
loop_
 _atom_site_type_symbol
 _atom_site_label
 _atom_site_symmetry_multiplicity
 _atom_site_fract_x
 _atom_site_fract_y
 _atom_site_fract_z
 _atom_site_occupancy
  Er  Er0_0  1  0.00000000  0.25000000  0.25000000  1
  Er  Er0_1  1  0.00000000  0.25000000  0.75000000  1
  Er  Er0_2  1  0.00000000  0.75000000  0.25000000  1
  Er  Er0_3  1  0.00000000  0.75000000  0.75000000  1
  Er  Er0_4  1  0.50000000  0.25000000  0.25000000  1
  Er  Er0_5  1  0.50000000  0.25000000  0.75000000  1
  Er  Er0_6  1  0.50000000  0.75000000  0.25000000  1
  Er  Er0_7  1  0.50000000  0.75000000  0.75000000  1
  Er  Er1_0  1  0.00000000  0.00000000  0.00000000  1
  Er  Er1_1  1  0.00000000  0.00000000  0.50000000  1
  Er  Er1_2  1  0.00000000  0.50000000  0.00000000  1
  Er  Er1_3  1  0.00000000  0.50000000  0.50000000  1
  Er  Er1_4  1  0.50000000  0.00000000  0.00000000  1
  Er  Er1_5  1  0.50000000  0.00000000  0.50000000  1
  Er  Er1_6  1  0.50000000  0.50000000  0.00000000  1
  Er  Er1_7  1  0.50000000  0.50000000  0.50000000  1
  Er  Er2_0  1  0.00000000  0.36996500  0.13996150  1
  Er  Er2_1  1  0.00000000  0.36996500  0.63996150  1
  Er  Er2_2  1  0.00000000  0.86996500  0.13996150  1
  Er  Er2_3  1  0.00000000  0.86996500  0.63996150  1
  Er  Er2_4  1  0.50000000  0.36996500  0.13996150  1
  Er  Er2_5  1  0.50000000  0.36996500  0.63996150  1
  Er  Er2_6  1  0.50000000  0.86996500  0.13996150  1
  Er  Er2_7  1  0.50000000  0.86996500  0.63996150  1
  Er  Er3_0  1  0.00000000  0.13003500  0.36003850  1
  Er  Er3_1  1  0.00000000  0.13003500  0.86003850  1
  Er  Er3_2  1  0.00000000  0.63003500  0.36003850  1
  Er  Er3_3  1  0.00000000  0.63003500  0.86003850  1
  Er  Er3_4  1  0.50000000  0.13003500  0.36003850  1
  Er  Er3_5  1  0.50000000  0.13003500  0.86003850  1
  Er  Er3_6  1  0.50000000  0.63003500  0.36003850  1
  Er  Er3_7  1  0.50000000  0.63003500  0.86003850  1
  Er  Er4_0  1  0.00000000  0.38003500  0.38996150  1
  Er  Er4_1  1  0.00000000  0.38003500  0.88996150  1
  Er  Er4_2  1  0.00000000  0.88003500  0.38996150  1
  Er  Er4_3  1  0.00000000  0.88003500  0.88996150  1
  Er  Er4_4  1  0.50000000  0.38003500  0.38996150  1
  Er  Er4_5  1  0.50000000  0.38003500  0.88996150  1
  Er  Er4_6  1  0.50000000  0.88003500  0.38996150  1
  Er  Er4_7  1  0.50000000  0.88003500  0.88996150  1
  Er  Er5_0  1  0.00000000  0.11996500  0.11003850  1
  Er  Er5_1  1  0.00000000  0.11996500  0.61003850  1
  Er  Er5_2  1  0.00000000  0.61996500  0.11003850  1
  Er  Er5_3  1  0.00000000  0.61996500  0.61003850  1
  Er  Er5_4  1  0.50000000  0.11996500  0.11003850  1
  Er  Er5_5  1  0.50000000  0.11996500  0.61003850  1
  Er  Er5_6  1  0.50000000  0.61996500  0.11003850  1
  Er  Er5_7  1  0.50000000  0.61996500  0.61003850  1
  Er  Er6_0  1  0.00000000  0.30592050  0.04110250  1
  Er  Er6_1  1  0.00000000  0.30592050  0.54110250  1
  Er  Er6_2  1  0.00000000  0.80592050  0.04110250  1
  Er  Er6_3  1  0.00000000  0.80592050  0.54110250  1
  Er  Er6_4  1  0.50000000  0.30592050  0.04110250  1
  Er  Er6_5  1  0.50000000  0.30592050  0.54110250  1
  Er  Er6_6  1  0.50000000  0.80592050  0.04110250  1
  Er  Er6_7  1  0.50000000  0.80592050  0.54110250  1
  Er  Er7_0  1  0.00000000  0.19407950  0.45889750  1
  Er  Er7_1  1  0.00000000  0.19407950  0.95889750  1
  Er  Er7_2  1  0.00000000  0.69407950  0.45889750  1
  Er  Er7_3  1  0.00000000  0.69407950  0.95889750  1
  Er  Er7_4  1  0.50000000  0.19407950  0.45889750  1
  Er  Er7_5  1  0.50000000  0.19407950  0.95889750  1
  Er  Er7_6  1  0.50000000  0.69407950  0.45889750  1
  Er  Er7_7  1  0.50000000  0.69407950  0.95889750  1
  Er  Er8_0  1  0.00000000  0.44407950  0.29110250  1
  Er  Er8_1  1  0.00000000  0.44407950  0.79110250  1
  Er  Er8_2  1  0.00000000  0.94407950  0.29110250  1
  Er  Er8_3  1  0.00000000  0.94407950  0.79110250  1
  Er  Er8_4  1  0.50000000  0.44407950  0.29110250  1
  Er  Er8_5  1  0.50000000  0.44407950  0.79110250  1
  Er  Er8_6  1  0.50000000  0.94407950  0.29110250  1
  Er  Er8_7  1  0.50000000  0.94407950  0.79110250  1
  Er  Er9_0  1  0.00000000  0.05592050  0.20889750  1
  Er  Er9_1  1  0.00000000  0.05592050  0.70889750  1
  Er  Er9_2  1  0.00000000  0.55592050  0.20889750  1
  Er  Er9_3  1  0.00000000  0.55592050  0.70889750  1
  Er  Er9_4  1  0.50000000  0.05592050  0.20889750  1
  Er  Er9_5  1  0.50000000  0.05592050  0.70889750  1
  Er  Er9_6  1  0.50000000  0.55592050  0.20889750  1
  Er  Er9_7  1  0.50000000  0.55592050  0.70889750  1
  In  In0_0  1  0.25000000  0.35711400  0.46537100  1
  In  In0_1  1  0.25000000  0.35711400  0.96537100  1
  In  In0_2  1  0.25000000  0.85711400  0.46537100  1
  In  In0_3  1  0.25000000  0.85711400  0.96537100  1
  In  In0_4  1  0.75000000  0.35711400  0.46537100  1
  In  In0_5  1  0.75000000  0.35711400  0.96537100  1
  In  In0_6  1  0.75000000  0.85711400  0.46537100  1
  In  In0_7  1  0.75000000  0.85711400  0.96537100  1
  In  In1_0  1  0.25000000  0.14288600  0.03462900  1
  In  In1_1  1  0.25000000  0.14288600  0.53462900  1
  In  In1_2  1  0.25000000  0.64288600  0.03462900  1
  In  In1_3  1  0.25000000  0.64288600  0.53462900  1
  In  In1_4  1  0.75000000  0.14288600  0.03462900  1
  In  In1_5  1  0.75000000  0.14288600  0.53462900  1
  In  In1_6  1  0.75000000  0.64288600  0.03462900  1
  In  In1_7  1  0.75000000  0.64288600  0.53462900  1
  In  In2_0  1  0.25000000  0.39288600  0.21537100  1
  In  In2_1  1  0.25000000  0.39288600  0.71537100  1
  In  In2_2  1  0.25000000  0.89288600  0.21537100  1
  In  In2_3  1  0.25000000  0.89288600  0.71537100  1
  In  In2_4  1  0.75000000  0.39288600  0.21537100  1
  In  In2_5  1  0.75000000  0.39288600  0.71537100  1
  In  In2_6  1  0.75000000  0.89288600  0.21537100  1
  In  In2_7  1  0.75000000  0.89288600  0.71537100  1
  In  In3_0  1  0.25000000  0.10711400  0.28462900  1
  In  In3_1  1  0.25000000  0.10711400  0.78462900  1
  In  In3_2  1  0.25000000  0.60711400  0.28462900  1
  In  In3_3  1  0.25000000  0.60711400  0.78462900  1
  In  In3_4  1  0.75000000  0.10711400  0.28462900  1
  In  In3_5  1  0.75000000  0.10711400  0.78462900  1
  In  In3_6  1  0.75000000  0.60711400  0.28462900  1
  In  In3_7  1  0.75000000  0.60711400  0.78462900  1
  In  In4_0  1  0.25000000  0.29111550  0.32444250  1
  In  In4_1  1  0.25000000  0.29111550  0.82444250  1
  In  In4_2  1  0.25000000  0.79111550  0.32444250  1
  In  In4_3  1  0.25000000  0.79111550  0.82444250  1
  In  In4_4  1  0.75000000  0.29111550  0.32444250  1
  In  In4_5  1  0.75000000  0.29111550  0.82444250  1
  In  In4_6  1  0.75000000  0.79111550  0.32444250  1
  In  In4_7  1  0.75000000  0.79111550  0.82444250  1
  In  In5_0  1  0.25000000  0.20888450  0.17555750  1
  In  In5_1  1  0.25000000  0.20888450  0.67555750  1
  In  In5_2  1  0.25000000  0.70888450  0.17555750  1
  In  In5_3  1  0.25000000  0.70888450  0.67555750  1
  In  In5_4  1  0.75000000  0.20888450  0.17555750  1
  In  In5_5  1  0.75000000  0.20888450  0.67555750  1
  In  In5_6  1  0.75000000  0.70888450  0.17555750  1
  In  In5_7  1  0.75000000  0.70888450  0.67555750  1
  In  In6_0  1  0.25000000  0.45888450  0.07444250  1
  In  In6_1  1  0.25000000  0.45888450  0.57444250  1
  In  In6_2  1  0.25000000  0.95888450  0.07444250  1
  In  In6_3  1  0.25000000  0.95888450  0.57444250  1
  In  In6_4  1  0.75000000  0.45888450  0.07444250  1
  In  In6_5  1  0.75000000  0.45888450  0.57444250  1
  In  In6_6  1  0.75000000  0.95888450  0.07444250  1
  In  In6_7  1  0.75000000  0.95888450  0.57444250  1
  In  In7_0  1  0.25000000  0.04111550  0.42555750  1
  In  In7_1  1  0.25000000  0.04111550  0.92555750  1
  In  In7_2  1  0.25000000  0.54111550  0.42555750  1
  In  In7_3  1  0.25000000  0.54111550  0.92555750  1
  In  In7_4  1  0.75000000  0.04111550  0.42555750  1
  In  In7_5  1  0.75000000  0.04111550  0.92555750  1
  In  In7_6  1  0.75000000  0.54111550  0.42555750  1
  In  In7_7  1  0.75000000  0.54111550  0.92555750  1
  Pd  Pd0_0  1  0.25000000  0.26227150  0.09807600  1
  Pd  Pd0_1  1  0.25000000  0.26227150  0.59807600  1
  Pd  Pd0_2  1  0.25000000  0.76227150  0.09807600  1
  Pd  Pd0_3  1  0.25000000  0.76227150  0.59807600  1
  Pd  Pd0_4  1  0.75000000  0.26227150  0.09807600  1
  Pd  Pd0_5  1  0.75000000  0.26227150  0.59807600  1
  Pd  Pd0_6  1  0.75000000  0.76227150  0.09807600  1
  Pd  Pd0_7  1  0.75000000  0.76227150  0.59807600  1
  Pd  Pd1_0  1  0.25000000  0.23772850  0.40192400  1
  Pd  Pd1_1  1  0.25000000  0.23772850  0.90192400  1
  Pd  Pd1_2  1  0.25000000  0.73772850  0.40192400  1
  Pd  Pd1_3  1  0.25000000  0.73772850  0.90192400  1
  Pd  Pd1_4  1  0.75000000  0.23772850  0.40192400  1
  Pd  Pd1_5  1  0.75000000  0.23772850  0.90192400  1
  Pd  Pd1_6  1  0.75000000  0.73772850  0.40192400  1
  Pd  Pd1_7  1  0.75000000  0.73772850  0.90192400  1
  Pd  Pd2_0  1  0.25000000  0.48772850  0.34807600  1
  Pd  Pd2_1  1  0.25000000  0.48772850  0.84807600  1
  Pd  Pd2_2  1  0.25000000  0.98772850  0.34807600  1
  Pd  Pd2_3  1  0.25000000  0.98772850  0.84807600  1
  Pd  Pd2_4  1  0.75000000  0.48772850  0.34807600  1
  Pd  Pd2_5  1  0.75000000  0.48772850  0.84807600  1
  Pd  Pd2_6  1  0.75000000  0.98772850  0.34807600  1
  Pd  Pd2_7  1  0.75000000  0.98772850  0.84807600  1
  Pd  Pd3_0  1  0.25000000  0.01227150  0.15192400  1
  Pd  Pd3_1  1  0.25000000  0.01227150  0.65192400  1
  Pd  Pd3_2  1  0.25000000  0.51227150  0.15192400  1
  Pd  Pd3_3  1  0.25000000  0.51227150  0.65192400  1
  Pd  Pd3_4  1  0.75000000  0.01227150  0.15192400  1
  Pd  Pd3_5  1  0.75000000  0.01227150  0.65192400  1
  Pd  Pd3_6  1  0.75000000  0.51227150  0.15192400  1
  Pd  Pd3_7  1  0.75000000  0.51227150  0.65192400  1
loop_
_geom_bond_atom_site_label_1
_geom_bond_atom_site_label_2
_geom_bond_distance
_geom_bond_site_symmetry_2
Er0_0 In3_4 3.192468 1_455
Er0_0 In3_0 3.192468 1_555
Er0_0 In2_0 3.192468 1_555
Er0_0 In2_4 3.192468 1_455
Er0_0 In4_4 3.323022 1_455
Er0_0 In4_0 3.323022 1_555
Er0_0 In5_0 3.323022 1_555
Er0_0 In5_4 3.323022 1_455
Er0_0 Er8_0 3.480982 1_555
Er0_0 Er9_0 3.480982 1_555
Er0_0 Er0_4 3.604429 1_455
Er0_0 Er0_4 3.604429 1_555
Er0_1 In3_5 3.192468 1_455
Er0_1 In3_1 3.192468 1_555
Er0_1 In2_1 3.192468 1_555
Er0_1 In2_5 3.192468 1_455
Er0_1 In4_5 3.323022 1_455
Er0_1 In4_1 3.323022 1_555
Er0_1 In5_1 3.323022 1_555
Er0_1 In5_5 3.323022 1_455
Er0_1 Er8_1 3.480982 1_555
Er0_1 Er9_1 3.480982 1_555
Er0_1 Er0_5 3.604429 1_455
Er0_1 Er0_5 3.604429 1_555
Er0_2 In3_2 3.192468 1_555
Er0_2 In3_6 3.192468 1_455
Er0_2 In2_2 3.192468 1_555
Er0_2 In2_6 3.192468 1_455
Er0_2 In4_2 3.323022 1_555
Er0_2 In4_6 3.323022 1_455
Er0_2 In5_2 3.323022 1_555
Er0_2 In5_6 3.323022 1_455
Er0_2 Er8_2 3.480982 1_555
Er0_2 Er9_2 3.480982 1_555
Er0_2 Er0_6 3.604429 1_555
Er0_2 Er0_6 3.604429 1_455
Er0_3 In3_7 3.192468 1_455
Er0_3 In3_3 3.192468 1_555
Er0_3 In2_7 3.192468 1_455
Er0_3 In2_3 3.192468 1_555
Er0_3 In4_3 3.323022 1_555
Er0_3 In4_7 3.323022 1_455
Er0_3 In5_7 3.323022 1_455
Er0_3 In5_3 3.323022 1_555
Er0_3 Er8_3 3.480982 1_555
Er0_3 Er9_3 3.480982 1_555
Er0_3 Er0_7 3.604429 1_555
Er0_3 Er0_7 3.604429 1_455
Er0_4 In3_0 3.192468 1_555
Er0_4 In3_4 3.192468 1_555
Er0_4 In2_4 3.192468 1_555
Er0_4 In2_0 3.192468 1_555
Er0_4 In4_4 3.323022 1_555
Er0_4 In4_0 3.323022 1_555
Er0_4 In5_0 3.323022 1_555
Er0_4 In5_4 3.323022 1_555
Er0_4 Er8_4 3.480982 1_555
Er0_4 Er9_4 3.480982 1_555
Er0_5 In3_5 3.192468 1_555
Er0_5 In3_1 3.192468 1_555
Er0_5 In2_1 3.192468 1_555
Er0_5 In2_5 3.192468 1_555
Er0_5 In4_5 3.323022 1_555
Er0_5 In4_1 3.323022 1_555
Er0_5 In5_1 3.323022 1_555
Er0_5 In5_5 3.323022 1_555
Er0_5 Er8_5 3.480982 1_555
Er0_5 Er9_5 3.480982 1_555
Er0_6 In3_2 3.192468 1_555
Er0_6 In3_6 3.192468 1_555
Er0_6 In2_2 3.192468 1_555
Er0_6 In2_6 3.192468 1_555
Er0_6 In4_2 3.323022 1_555
Er0_6 In4_6 3.323022 1_555
Er0_6 In5_2 3.323022 1_555
Er0_6 In5_6 3.323022 1_555
Er0_6 Er8_6 3.480982 1_555
Er0_6 Er9_6 3.480982 1_555
Er0_7 In3_7 3.192468 1_555
Er0_7 In3_3 3.192468 1_555
Er0_7 In2_3 3.192468 1_555
Er0_7 In2_7 3.192468 1_555
Er0_7 In4_3 3.323022 1_555
Er0_7 In4_7 3.323022 1_555
Er0_7 In5_7 3.323022 1_555
Er0_7 In5_3 3.323022 1_555
Er0_7 Er8_7 3.480982 1_555
Er0_7 Er9_7 3.480982 1_555
Er1_0 In1_4 3.192468 1_455
Er1_0 In1_0 3.192468 1_555
Er1_0 In0_7 3.192468 1_444
Er1_0 In0_3 3.192468 1_544
Er1_0 In7_1 3.323022 1_554
Er1_0 In7_5 3.323022 1_454
Er1_0 In6_6 3.323022 1_445
Er1_0 In6_2 3.323022 1_545
Er1_0 Er6_2 3.480982 1_545
Er1_0 Er7_1 3.480982 1_554
Er1_0 Er1_4 3.604429 1_455
Er1_0 Er1_4 3.604429 1_555
Er1_1 In1_1 3.192468 1_555
Er1_1 In1_5 3.192468 1_455
Er1_1 In0_6 3.192468 1_445
Er1_1 In0_2 3.192468 1_545
Er1_1 In6_3 3.323022 1_545
Er1_1 In6_7 3.323022 1_445
Er1_1 In7_0 3.323022 1_555
Er1_1 In7_4 3.323022 1_455
Er1_1 Er6_3 3.480982 1_545
Er1_1 Er7_0 3.480982 1_555
Er1_1 Er1_5 3.604429 1_555
Er1_1 Er1_5 3.604429 1_455
Er1_2 In1_6 3.192468 1_455
Er1_2 In1_2 3.192468 1_555
Er1_2 In0_5 3.192468 1_454
Er1_2 In0_1 3.192468 1_554
Er1_2 In7_7 3.323022 1_454
Er1_2 In7_3 3.323022 1_554
Er1_2 In6_0 3.323022 1_555
Er1_2 In6_4 3.323022 1_455
Er1_2 Er6_0 3.480982 1_555
Er1_2 Er7_3 3.480982 1_554
Er1_2 Er1_6 3.604429 1_455
Er1_2 Er1_6 3.604429 1_555
Er1_3 In1_7 3.192468 1_455
Er1_3 In1_3 3.192468 1_555
Er1_3 In0_0 3.192468 1_555
Er1_3 In0_4 3.192468 1_455
Er1_3 In6_5 3.323022 1_455
Er1_3 In6_1 3.323022 1_555
Er1_3 In7_6 3.323022 1_455
Er1_3 In7_2 3.323022 1_555
Er1_3 Er6_1 3.480982 1_555
Er1_3 Er7_2 3.480982 1_555
Er1_3 Er1_7 3.604429 1_455
Er1_3 Er1_7 3.604429 1_555
Er1_4 In1_4 3.192468 1_555
Er1_4 In1_0 3.192468 1_555
Er1_4 In0_3 3.192468 1_544
Er1_4 In0_7 3.192468 1_544
Er1_4 In7_1 3.323022 1_554
Er1_4 In7_5 3.323022 1_554
Er1_4 In6_6 3.323022 1_545
Er1_4 In6_2 3.323022 1_545
Er1_4 Er6_6 3.480982 1_545
Er1_4 Er7_5 3.480982 1_554
Er1_5 In1_1 3.192468 1_555
Er1_5 In1_5 3.192468 1_555
Er1_5 In0_2 3.192468 1_545
Er1_5 In0_6 3.192468 1_545
Er1_5 In6_3 3.323022 1_545
Er1_5 In6_7 3.323022 1_545
Er1_5 In7_4 3.323022 1_555
Er1_5 In7_0 3.323022 1_555
Er1_5 Er6_7 3.480982 1_545
Er1_5 Er7_4 3.480982 1_555
Er1_6 In1_6 3.192468 1_555
Er1_6 In1_2 3.192468 1_555
Er1_6 In0_1 3.192468 1_554
Er1_6 In0_5 3.192468 1_554
Er1_6 In7_7 3.323022 1_554
Er1_6 In7_3 3.323022 1_554
Er1_6 In6_4 3.323022 1_555
Er1_6 In6_0 3.323022 1_555
Er1_6 Er6_4 3.480982 1_555
Er1_6 Er7_7 3.480982 1_554
Er1_7 In1_3 3.192468 1_555
Er1_7 In1_7 3.192468 1_555
Er1_7 In0_0 3.192468 1_555
Er1_7 In0_4 3.192468 1_555
Er1_7 In6_1 3.323022 1_555
Er1_7 In6_5 3.323022 1_555
Er1_7 In7_6 3.323022 1_555
Er1_7 In7_2 3.323022 1_555
Er1_7 Er6_5 3.480982 1_555
Er1_7 Er7_6 3.480982 1_555
Er2_0 Pd0_0 2.935334 1_555
Er2_0 Pd0_4 2.935334 1_455
Er2_0 Pd3_2 2.957635 1_555
Er2_0 Pd3_6 2.957635 1_455
Er2_0 In2_0 3.305936 1_555
Er2_0 In2_4 3.305936 1_455
Er2_0 In6_0 3.318971 1_555
Er2_0 In6_4 3.318971 1_455
Er2_0 In5_0 3.425204 1_555
Er2_0 In5_4 3.425204 1_455
Er2_1 Pd0_5 2.935334 1_455
Er2_1 Pd0_1 2.935334 1_555
Er2_1 Pd3_7 2.957635 1_455
Er2_1 Pd3_3 2.957635 1_555
Er2_1 In2_1 3.305936 1_555
Er2_1 In2_5 3.305936 1_455
Er2_1 In6_5 3.318971 1_455
Er2_1 In6_1 3.318971 1_555
Er2_1 In5_5 3.425204 1_455
Er2_1 In5_1 3.425204 1_555
Er2_2 Pd0_6 2.935334 1_455
Er2_2 Pd0_2 2.935334 1_555
Er2_2 Pd3_0 2.957635 1_565
Er2_2 Pd3_4 2.957635 1_465
Er2_2 In2_6 3.305936 1_455
Er2_2 In2_2 3.305936 1_555
Er2_2 In6_2 3.318971 1_555
Er2_2 In6_6 3.318971 1_455
Er2_2 In5_2 3.425204 1_555
Er2_2 In5_6 3.425204 1_455
Er2_3 Pd0_3 2.935334 1_555
Er2_3 Pd0_7 2.935334 1_455
Er2_3 Pd3_1 2.957635 1_565
Er2_3 Pd3_5 2.957635 1_465
Er2_3 In2_7 3.305936 1_455
Er2_3 In2_3 3.305936 1_555
Er2_3 In6_3 3.318971 1_555
Er2_3 In6_7 3.318971 1_455
Er2_3 In5_3 3.425204 1_555
Er2_3 In5_7 3.425204 1_455
Er2_4 Pd0_0 2.935334 1_555
Er2_4 Pd0_4 2.935334 1_555
Er2_4 Pd3_2 2.957635 1_555
Er2_4 Pd3_6 2.957635 1_555
Er2_4 In2_4 3.305936 1_555
Er2_4 In2_0 3.305936 1_555
Er2_4 In6_0 3.318971 1_555
Er2_4 In6_4 3.318971 1_555
Er2_4 In5_0 3.425204 1_555
Er2_4 In5_4 3.425204 1_555
Er2_5 Pd0_5 2.935334 1_555
Er2_5 Pd0_1 2.935334 1_555
Er2_5 Pd3_3 2.957635 1_555
Er2_5 Pd3_7 2.957635 1_555
Er2_5 In2_1 3.305936 1_555
Er2_5 In2_5 3.305936 1_555
Er2_5 In6_5 3.318971 1_555
Er2_5 In6_1 3.318971 1_555
Er2_5 In5_5 3.425204 1_555
Er2_5 In5_1 3.425204 1_555
Er2_6 Pd0_6 2.935334 1_555
Er2_6 Pd0_2 2.935334 1_555
Er2_6 Pd3_0 2.957635 1_565
Er2_6 Pd3_4 2.957635 1_565
Er2_6 In2_2 3.305936 1_555
Er2_6 In2_6 3.305936 1_555
Er2_6 In6_2 3.318971 1_555
Er2_6 In6_6 3.318971 1_555
Er2_6 In5_2 3.425204 1_555
Er2_6 In5_6 3.425204 1_555
Er2_7 Pd0_3 2.935334 1_555
Er2_7 Pd0_7 2.935334 1_555
Er2_7 Pd3_1 2.957635 1_565
Er2_7 Pd3_5 2.957635 1_565
Er2_7 In2_7 3.305936 1_555
Er2_7 In2_3 3.305936 1_555
Er2_7 In6_7 3.318971 1_555
Er2_7 In6_3 3.318971 1_555
Er2_7 In5_3 3.425204 1_555
Er2_7 In5_7 3.425204 1_555
Er3_0 Pd1_4 2.935334 1_455
Er3_0 Pd1_0 2.935334 1_555
Er3_0 Pd2_6 2.957635 1_445
Er3_0 Pd2_2 2.957635 1_545
Er3_0 In3_0 3.305936 1_555
Er3_0 In3_4 3.305936 1_455
Er3_0 In7_0 3.318971 1_555
Er3_0 In7_4 3.318971 1_455
Er3_0 In4_0 3.425204 1_555
Er3_0 In4_4 3.425204 1_455
Er3_1 Pd1_5 2.935334 1_455
Er3_1 Pd1_1 2.935334 1_555
Er3_1 Pd2_3 2.957635 1_545
Er3_1 Pd2_7 2.957635 1_445
Er3_1 In3_5 3.305936 1_455
Er3_1 In3_1 3.305936 1_555
Er3_1 In7_1 3.318971 1_555
Er3_1 In7_5 3.318971 1_455
Er3_1 In4_1 3.425204 1_555
Er3_1 In4_5 3.425204 1_455
Er3_2 Pd1_2 2.935334 1_555
Er3_2 Pd1_6 2.935334 1_455
Er3_2 Pd2_0 2.957635 1_555
Er3_2 Pd2_4 2.957635 1_455
Er3_2 In3_6 3.305936 1_455
Er3_2 In3_2 3.305936 1_555
Er3_2 In7_2 3.318971 1_555
Er3_2 In7_6 3.318971 1_455
Er3_2 In4_2 3.425204 1_555
Er3_2 In4_6 3.425204 1_455
Er3_3 Pd1_7 2.935334 1_455
Er3_3 Pd1_3 2.935334 1_555
Er3_3 Pd2_1 2.957635 1_555
Er3_3 Pd2_5 2.957635 1_455
Er3_3 In3_3 3.305936 1_555
Er3_3 In3_7 3.305936 1_455
Er3_3 In7_7 3.318971 1_455
Er3_3 In7_3 3.318971 1_555
Er3_3 In4_3 3.425204 1_555
Er3_3 In4_7 3.425204 1_455
Er3_4 Pd1_0 2.935334 1_555
Er3_4 Pd1_4 2.935334 1_555
Er3_4 Pd2_6 2.957635 1_545
Er3_4 Pd2_2 2.957635 1_545
Er3_4 In3_0 3.305936 1_555
Er3_4 In3_4 3.305936 1_555
Er3_4 In7_0 3.318971 1_555
Er3_4 In7_4 3.318971 1_555
Er3_4 In4_4 3.425204 1_555
Er3_4 In4_0 3.425204 1_555
Er3_5 Pd1_1 2.935334 1_555
Er3_5 Pd1_5 2.935334 1_555
Er3_5 Pd2_3 2.957635 1_545
Er3_5 Pd2_7 2.957635 1_545
Er3_5 In3_1 3.305936 1_555
Er3_5 In3_5 3.305936 1_555
Er3_5 In7_1 3.318971 1_555
Er3_5 In7_5 3.318971 1_555
Er3_5 In4_1 3.425204 1_555
Er3_5 In4_5 3.425204 1_555
Er3_6 Pd1_2 2.935334 1_555
Er3_6 Pd1_6 2.935334 1_555
Er3_6 Pd2_0 2.957635 1_555
Er3_6 Pd2_4 2.957635 1_555
Er3_6 In3_6 3.305936 1_555
Er3_6 In3_2 3.305936 1_555
Er3_6 In7_2 3.318971 1_555
Er3_6 In7_6 3.318971 1_555
Er3_6 In4_2 3.425204 1_555
Er3_6 In4_6 3.425204 1_555
Er3_7 Pd1_7 2.935334 1_555
Er3_7 Pd1_3 2.935334 1_555
Er3_7 Pd2_1 2.957635 1_555
Er3_7 Pd2_5 2.957635 1_555
Er3_7 In3_3 3.305936 1_555
Er3_7 In3_7 3.305936 1_555
Er3_7 In7_3 3.318971 1_555
Er3_7 In7_7 3.318971 1_555
Er3_7 In4_7 3.425204 1_555
Er3_7 In4_3 3.425204 1_555
Er4_0 Pd2_4 2.935334 1_455
Er4_0 Pd2_0 2.935334 1_555
Er4_0 Pd1_0 2.957635 1_555
Er4_0 Pd1_4 2.957635 1_455
Er4_0 In0_0 3.305936 1_555
Er4_0 In0_4 3.305936 1_455
Er4_0 In4_0 3.318971 1_555
Er4_0 In4_4 3.318971 1_455
Er4_0 In7_2 3.425204 1_555
Er4_0 In7_6 3.425204 1_455
Er4_1 Pd2_1 2.935334 1_555
Er4_1 Pd2_5 2.935334 1_455
Er4_1 Pd1_5 2.957635 1_455
Er4_1 Pd1_1 2.957635 1_555
Er4_1 In0_5 3.305936 1_455
Er4_1 In0_1 3.305936 1_555
Er4_1 In4_5 3.318971 1_455
Er4_1 In4_1 3.318971 1_555
Er4_1 In7_3 3.425204 1_555
Er4_1 In7_7 3.425204 1_455
Er4_2 Pd2_2 2.935334 1_555
Er4_2 Pd2_6 2.935334 1_455
Er4_2 Pd1_2 2.957635 1_555
Er4_2 Pd1_6 2.957635 1_455
Er4_2 In0_2 3.305936 1_555
Er4_2 In0_6 3.305936 1_455
Er4_2 In4_6 3.318971 1_455
Er4_2 In4_2 3.318971 1_555
Er4_2 In7_4 3.425204 1_465
Er4_2 In7_0 3.425204 1_565
Er4_3 Pd2_7 2.935334 1_455
Er4_3 Pd2_3 2.935334 1_555
Er4_3 Pd1_7 2.957635 1_455
Er4_3 Pd1_3 2.957635 1_555
Er4_3 In0_7 3.305936 1_455
Er4_3 In0_3 3.305936 1_555
Er4_3 In4_3 3.318971 1_555
Er4_3 In4_7 3.318971 1_455
Er4_3 In7_5 3.425204 1_465
Er4_3 In7_1 3.425204 1_565
Er4_4 Pd2_0 2.935334 1_555
Er4_4 Pd2_4 2.935334 1_555
Er4_4 Pd1_0 2.957635 1_555
Er4_4 Pd1_4 2.957635 1_555
Er4_4 In0_0 3.305936 1_555
Er4_4 In0_4 3.305936 1_555
Er4_4 In4_0 3.318971 1_555
Er4_4 In4_4 3.318971 1_555
Er4_4 In7_2 3.425204 1_555
Er4_4 In7_6 3.425204 1_555
Er4_5 Pd2_1 2.935334 1_555
Er4_5 Pd2_5 2.935334 1_555
Er4_5 Pd1_5 2.957635 1_555
Er4_5 Pd1_1 2.957635 1_555
Er4_5 In0_1 3.305936 1_555
Er4_5 In0_5 3.305936 1_555
Er4_5 In4_1 3.318971 1_555
Er4_5 In4_5 3.318971 1_555
Er4_5 In7_3 3.425204 1_555
Er4_5 In7_7 3.425204 1_555
Er4_6 Pd2_6 2.935334 1_555
Er4_6 Pd2_2 2.935334 1_555
Er4_6 Pd1_2 2.957635 1_555
Er4_6 Pd1_6 2.957635 1_555
Er4_6 In0_6 3.305936 1_555
Er4_6 In0_2 3.305936 1_555
Er4_6 In4_6 3.318971 1_555
Er4_6 In4_2 3.318971 1_555
Er4_6 In7_0 3.425204 1_565
Er4_6 In7_4 3.425204 1_565
Er4_7 Pd2_3 2.935334 1_555
Er4_7 Pd2_7 2.935334 1_555
Er4_7 Pd1_3 2.957635 1_555
Er4_7 Pd1_7 2.957635 1_555
Er4_7 In0_3 3.305936 1_555
Er4_7 In0_7 3.305936 1_555
Er4_7 In4_7 3.318971 1_555
Er4_7 In4_3 3.318971 1_555
Er4_7 In7_5 3.425204 1_565
Er4_7 In7_1 3.425204 1_565
Er5_0 Pd3_4 2.935334 1_455
Er5_0 Pd3_0 2.935334 1_555
Er5_0 Pd0_0 2.957635 1_555
Er5_0 Pd0_4 2.957635 1_455
Er5_0 In1_4 3.305936 1_455
Er5_0 In1_0 3.305936 1_555
Er5_0 In5_0 3.318971 1_555
Er5_0 In5_4 3.318971 1_455
Er5_0 In6_2 3.425204 1_545
Er5_0 In6_6 3.425204 1_445
Er5_1 Pd3_5 2.935334 1_455
Er5_1 Pd3_1 2.935334 1_555
Er5_1 Pd0_5 2.957635 1_455
Er5_1 Pd0_1 2.957635 1_555
Er5_1 In1_1 3.305936 1_555
Er5_1 In1_5 3.305936 1_455
Er5_1 In5_1 3.318971 1_555
Er5_1 In5_5 3.318971 1_455
Er5_1 In6_3 3.425204 1_545
Er5_1 In6_7 3.425204 1_445
Er5_2 Pd3_2 2.935334 1_555
Er5_2 Pd3_6 2.935334 1_455
Er5_2 Pd0_6 2.957635 1_455
Er5_2 Pd0_2 2.957635 1_555
Er5_2 In1_2 3.305936 1_555
Er5_2 In1_6 3.305936 1_455
Er5_2 In5_6 3.318971 1_455
Er5_2 In5_2 3.318971 1_555
Er5_2 In6_0 3.425204 1_555
Er5_2 In6_4 3.425204 1_455
Er5_3 Pd3_7 2.935334 1_455
Er5_3 Pd3_3 2.935334 1_555
Er5_3 Pd0_3 2.957635 1_555
Er5_3 Pd0_7 2.957635 1_455
Er5_3 In1_3 3.305936 1_555
Er5_3 In1_7 3.305936 1_455
Er5_3 In5_3 3.318971 1_555
Er5_3 In5_7 3.318971 1_455
Er5_3 In6_5 3.425204 1_455
Er5_3 In6_1 3.425204 1_555
Er5_4 Pd3_4 2.935334 1_555
Er5_4 Pd3_0 2.935334 1_555
Er5_4 Pd0_0 2.957635 1_555
Er5_4 Pd0_4 2.957635 1_555
Er5_4 In1_0 3.305936 1_555
Er5_4 In1_4 3.305936 1_555
Er5_4 In5_0 3.318971 1_555
Er5_4 In5_4 3.318971 1_555
Er5_4 In6_2 3.425204 1_545
Er5_4 In6_6 3.425204 1_545
Er5_5 Pd3_1 2.935334 1_555
Er5_5 Pd3_5 2.935334 1_555
Er5_5 Pd0_5 2.957635 1_555
Er5_5 Pd0_1 2.957635 1_555
Er5_5 In1_1 3.305936 1_555
Er5_5 In1_5 3.305936 1_555
Er5_5 In5_1 3.318971 1_555
Er5_5 In5_5 3.318971 1_555
Er5_5 In6_7 3.425204 1_545
Er5_5 In6_3 3.425204 1_545
Er5_6 Pd3_2 2.935334 1_555
Er5_6 Pd3_6 2.935334 1_555
Er5_6 Pd0_2 2.957635 1_555
Er5_6 Pd0_6 2.957635 1_555
Er5_6 In1_2 3.305936 1_555
Er5_6 In1_6 3.305936 1_555
Er5_6 In5_6 3.318971 1_555
Er5_6 In5_2 3.318971 1_555
Er5_6 In6_0 3.425204 1_555
Er5_6 In6_4 3.425204 1_555
Er5_7 Pd3_7 2.935334 1_555
Er5_7 Pd3_3 2.935334 1_555
Er5_7 Pd0_3 2.957635 1_555
Er5_7 Pd0_7 2.957635 1_555
Er5_7 In1_3 3.305936 1_555
Er5_7 In1_7 3.305936 1_555
Er5_7 In5_3 3.318971 1_555
Er5_7 In5_7 3.318971 1_555
Er5_7 In6_1 3.425204 1_555
Er5_7 In6_5 3.425204 1_555
Er6_0 Pd0_4 2.837858 1_455
Er6_0 Pd0_0 2.837858 1_555
Er6_0 In1_0 3.205128 1_555
Er6_0 In1_4 3.205128 1_455
Er6_0 In6_4 3.295056 1_455
Er6_0 In6_0 3.295056 1_555
Er6_0 In0_5 3.397525 1_454
Er6_0 In0_1 3.397525 1_554
Er6_1 Pd0_5 2.837858 1_455
Er6_1 Pd0_1 2.837858 1_555
Er6_1 In1_5 3.205128 1_455
Er6_1 In1_1 3.205128 1_555
Er6_1 In6_5 3.295056 1_455
Er6_1 In6_1 3.295056 1_555
Er6_1 In0_4 3.397525 1_455
Er6_1 In0_0 3.397525 1_555
Er6_2 Pd0_2 2.837858 1_555
Er6_2 Pd0_6 2.837858 1_455
Er6_2 In1_2 3.205128 1_555
Er6_2 In1_6 3.205128 1_455
Er6_2 In6_2 3.295056 1_555
Er6_2 In6_6 3.295056 1_455
Er6_2 In0_3 3.397525 1_554
Er6_2 In0_7 3.397525 1_454
Er6_3 Pd0_7 2.837858 1_455
Er6_3 Pd0_3 2.837858 1_555
Er6_3 In1_3 3.205128 1_555
Er6_3 In1_7 3.205128 1_455
Er6_3 In6_7 3.295056 1_455
Er6_3 In6_3 3.295056 1_555
Er6_3 In0_2 3.397525 1_555
Er6_3 In0_6 3.397525 1_455
Er6_4 Pd0_4 2.837858 1_555
Er6_4 Pd0_0 2.837858 1_555
Er6_4 In1_0 3.205128 1_555
Er6_4 In1_4 3.205128 1_555
Er6_4 In6_0 3.295056 1_555
Er6_4 In6_4 3.295056 1_555
Er6_4 In0_1 3.397525 1_554
Er6_4 In0_5 3.397525 1_554
Er6_5 Pd0_1 2.837858 1_555
Er6_5 Pd0_5 2.837858 1_555
Er6_5 In1_5 3.205128 1_555
Er6_5 In1_1 3.205128 1_555
Er6_5 In6_1 3.295056 1_555
Er6_5 In6_5 3.295056 1_555
Er6_5 In0_4 3.397525 1_555
Er6_5 In0_0 3.397525 1_555
Er6_6 Pd0_2 2.837858 1_555
Er6_6 Pd0_6 2.837858 1_555
Er6_6 In1_2 3.205128 1_555
Er6_6 In1_6 3.205128 1_555
Er6_6 In6_2 3.295056 1_555
Er6_6 In6_6 3.295056 1_555
Er6_6 In0_3 3.397525 1_554
Er6_6 In0_7 3.397525 1_554
Er6_7 Pd0_7 2.837858 1_555
Er6_7 Pd0_3 2.837858 1_555
Er6_7 In1_3 3.205128 1_555
Er6_7 In1_7 3.205128 1_555
Er6_7 In6_7 3.295056 1_555
Er6_7 In6_3 3.295056 1_555
Er6_7 In0_2 3.397525 1_555
Er6_7 In0_6 3.397525 1_555
Er7_0 Pd1_4 2.837858 1_455
Er7_0 Pd1_0 2.837858 1_555
Er7_0 In0_0 3.205128 1_555
Er7_0 In0_4 3.205128 1_455
Er7_0 In7_0 3.295056 1_555
Er7_0 In7_4 3.295056 1_455
Er7_0 In1_5 3.397525 1_455
Er7_0 In1_1 3.397525 1_555
Er7_1 Pd1_1 2.837858 1_555
Er7_1 Pd1_5 2.837858 1_455
Er7_1 In0_5 3.205128 1_455
Er7_1 In0_1 3.205128 1_555
Er7_1 In7_1 3.295056 1_555
Er7_1 In7_5 3.295056 1_455
Er7_1 In1_4 3.397525 1_456
Er7_1 In1_0 3.397525 1_556
Er7_2 Pd1_2 2.837858 1_555
Er7_2 Pd1_6 2.837858 1_455
Er7_2 In0_6 3.205128 1_455
Er7_2 In0_2 3.205128 1_555
Er7_2 In7_6 3.295056 1_455
Er7_2 In7_2 3.295056 1_555
Er7_2 In1_3 3.397525 1_555
Er7_2 In1_7 3.397525 1_455
Er7_3 Pd1_3 2.837858 1_555
Er7_3 Pd1_7 2.837858 1_455
Er7_3 In0_3 3.205128 1_555
Er7_3 In0_7 3.205128 1_455
Er7_3 In7_7 3.295056 1_455
Er7_3 In7_3 3.295056 1_555
Er7_3 In1_2 3.397525 1_556
Er7_3 In1_6 3.397525 1_456
Er7_4 Pd1_4 2.837858 1_555
Er7_4 Pd1_0 2.837858 1_555
Er7_4 In0_0 3.205128 1_555
Er7_4 In0_4 3.205128 1_555
Er7_4 In7_0 3.295056 1_555
Er7_4 In7_4 3.295056 1_555
Er7_4 In1_5 3.397525 1_555
Er7_4 In1_1 3.397525 1_555
Er7_5 Pd1_1 2.837858 1_555
Er7_5 Pd1_5 2.837858 1_555
Er7_5 In0_1 3.205128 1_555
Er7_5 In0_5 3.205128 1_555
Er7_5 In7_1 3.295056 1_555
Er7_5 In7_5 3.295056 1_555
Er7_5 In1_0 3.397525 1_556
Er7_5 In1_4 3.397525 1_556
Er7_6 Pd1_6 2.837858 1_555
Er7_6 Pd1_2 2.837858 1_555
Er7_6 In0_6 3.205128 1_555
Er7_6 In0_2 3.205128 1_555
Er7_6 In7_6 3.295056 1_555
Er7_6 In7_2 3.295056 1_555
Er7_6 In1_3 3.397525 1_555
Er7_6 In1_7 3.397525 1_555
Er7_7 Pd1_3 2.837858 1_555
Er7_7 Pd1_7 2.837858 1_555
Er7_7 In0_3 3.205128 1_555
Er7_7 In0_7 3.205128 1_555
Er7_7 In7_3 3.295056 1_555
Er7_7 In7_7 3.295056 1_555
Er7_7 In1_2 3.397525 1_556
Er7_7 In1_6 3.397525 1_556
Er8_0 Pd2_4 2.837858 1_455
Er8_0 Pd2_0 2.837858 1_555
Er8_0 In3_6 3.205128 1_455
Er8_0 In3_2 3.205128 1_555
Er8_0 In4_0 3.295056 1_555
Er8_0 In4_4 3.295056 1_455
Er8_0 In2_0 3.397525 1_555
Er8_0 In2_4 3.397525 1_455
Er8_1 Pd2_1 2.837858 1_555
Er8_1 Pd2_5 2.837858 1_455
Er8_1 In3_7 3.205128 1_455
Er8_1 In3_3 3.205128 1_555
Er8_1 In4_5 3.295056 1_455
Er8_1 In4_1 3.295056 1_555
Er8_1 In2_1 3.397525 1_555
Er8_1 In2_5 3.397525 1_455
Er8_2 Pd2_6 2.837858 1_455
Er8_2 Pd2_2 2.837858 1_555
Er8_2 In3_4 3.205128 1_465
Er8_2 In3_0 3.205128 1_565
Er8_2 In4_6 3.295056 1_455
Er8_2 In4_2 3.295056 1_555
Er8_2 In2_6 3.397525 1_455
Er8_2 In2_2 3.397525 1_555
Er8_3 Pd2_3 2.837858 1_555
Er8_3 Pd2_7 2.837858 1_455
Er8_3 In3_5 3.205128 1_465
Er8_3 In3_1 3.205128 1_565
Er8_3 In4_3 3.295056 1_555
Er8_3 In4_7 3.295056 1_455
Er8_3 In2_7 3.397525 1_455
Er8_3 In2_3 3.397525 1_555
Er8_4 Pd2_0 2.837858 1_555
Er8_4 Pd2_4 2.837858 1_555
Er8_4 In3_2 3.205128 1_555
Er8_4 In3_6 3.205128 1_555
Er8_4 In4_0 3.295056 1_555
Er8_4 In4_4 3.295056 1_555
Er8_4 In2_0 3.397525 1_555
Er8_4 In2_4 3.397525 1_555
Er8_5 Pd2_1 2.837858 1_555
Er8_5 Pd2_5 2.837858 1_555
Er8_5 In3_7 3.205128 1_555
Er8_5 In3_3 3.205128 1_555
Er8_5 In4_1 3.295056 1_555
Er8_5 In4_5 3.295056 1_555
Er8_5 In2_1 3.397525 1_555
Er8_5 In2_5 3.397525 1_555
Er8_6 Pd2_6 2.837858 1_555
Er8_6 Pd2_2 2.837858 1_555
Er8_6 In3_4 3.205128 1_565
Er8_6 In3_0 3.205128 1_565
Er8_6 In4_6 3.295056 1_555
Er8_6 In4_2 3.295056 1_555
Er8_6 In2_6 3.397525 1_555
Er8_6 In2_2 3.397525 1_555
Er8_7 Pd2_3 2.837858 1_555
Er8_7 Pd2_7 2.837858 1_555
Er8_7 In3_5 3.205128 1_565
Er8_7 In3_1 3.205128 1_565
Er8_7 In4_7 3.295056 1_555
Er8_7 In4_3 3.295056 1_555
Er8_7 In2_3 3.397525 1_555
Er8_7 In2_7 3.397525 1_555
Er9_0 Pd3_0 2.837858 1_555
Er9_0 Pd3_4 2.837858 1_455
Er9_0 In2_6 3.205128 1_445
Er9_0 In2_2 3.205128 1_545
Er9_0 In5_0 3.295056 1_555
Er9_0 In5_4 3.295056 1_455
Er9_0 In3_4 3.397525 1_455
Er9_0 In3_0 3.397525 1_555
Er9_1 Pd3_5 2.837858 1_455
Er9_1 Pd3_1 2.837858 1_555
Er9_1 In2_3 3.205128 1_545
Er9_1 In2_7 3.205128 1_445
Er9_1 In5_5 3.295056 1_455
Er9_1 In5_1 3.295056 1_555
Er9_1 In3_5 3.397525 1_455
Er9_1 In3_1 3.397525 1_555
Er9_2 Pd3_2 2.837858 1_555
Er9_2 Pd3_6 2.837858 1_455
Er9_2 In2_0 3.205128 1_555
Er9_2 In2_4 3.205128 1_455
Er9_2 In5_2 3.295056 1_555
Er9_2 In5_6 3.295056 1_455
Er9_2 In3_2 3.397525 1_555
Er9_2 In3_6 3.397525 1_455
Er9_3 Pd3_3 2.837858 1_555
Er9_3 Pd3_7 2.837858 1_455
Er9_3 In2_1 3.205128 1_555
Er9_3 In2_5 3.205128 1_455
Er9_3 In5_7 3.295056 1_455
Er9_3 In5_3 3.295056 1_555
Er9_3 In3_7 3.397525 1_455
Er9_3 In3_3 3.397525 1_555
Er9_4 Pd3_0 2.837858 1_555
Er9_4 Pd3_4 2.837858 1_555
Er9_4 In2_2 3.205128 1_545
Er9_4 In2_6 3.205128 1_545
Er9_4 In5_4 3.295056 1_555
Er9_4 In5_0 3.295056 1_555
Er9_4 In3_4 3.397525 1_555
Er9_4 In3_0 3.397525 1_555
Er9_5 Pd3_1 2.837858 1_555
Er9_5 Pd3_5 2.837858 1_555
Er9_5 In2_3 3.205128 1_545
Er9_5 In2_7 3.205128 1_545
Er9_5 In5_5 3.295056 1_555
Er9_5 In5_1 3.295056 1_555
Er9_5 In3_5 3.397525 1_555
Er9_5 In3_1 3.397525 1_555
Er9_6 Pd3_2 2.837858 1_555
Er9_6 Pd3_6 2.837858 1_555
Er9_6 In2_4 3.205128 1_555
Er9_6 In2_0 3.205128 1_555
Er9_6 In5_2 3.295056 1_555
Er9_6 In5_6 3.295056 1_555
Er9_6 In3_2 3.397525 1_555
Er9_6 In3_6 3.397525 1_555
Er9_7 Pd3_7 2.837858 1_555
Er9_7 Pd3_3 2.837858 1_555
Er9_7 In2_1 3.205128 1_555
Er9_7 In2_5 3.205128 1_555
Er9_7 In5_7 3.295056 1_555
Er9_7 In5_3 3.295056 1_555
Er9_7 In3_7 3.397525 1_555
Er9_7 In3_3 3.397525 1_555
In0_0 Pd1_0 3.012820 1_555
In0_0 In7_2 3.313582 1_555
In0_1 Pd1_1 3.012820 1_555
In0_1 In7_3 3.313582 1_555
In0_2 Pd1_2 3.012820 1_555
In0_2 In7_0 3.313582 1_565
In0_3 Pd1_3 3.012820 1_555
In0_3 In7_1 3.313582 1_565
In0_4 Pd1_4 3.012820 1_555
In0_4 In7_6 3.313582 1_555
In0_5 Pd1_5 3.012820 1_555
In0_5 In7_7 3.313582 1_555
In0_6 Pd1_6 3.012820 1_555
In0_6 In7_4 3.313582 1_565
In0_7 Pd1_7 3.012820 1_555
In0_7 In7_5 3.313582 1_565
In1_0 Pd0_0 3.012820 1_555
In1_0 In6_2 3.313582 1_545
In1_1 Pd0_1 3.012820 1_555
In1_1 In6_3 3.313582 1_545
In1_2 Pd0_2 3.012820 1_555
In1_2 In6_0 3.313582 1_555
In1_3 Pd0_3 3.012820 1_555
In1_3 In6_1 3.313582 1_555
In1_4 Pd0_4 3.012820 1_555
In1_4 In6_6 3.313582 1_545
In1_5 Pd0_5 3.012820 1_555
In1_5 In6_7 3.313582 1_545
In1_6 Pd0_6 3.012820 1_555
In1_6 In6_4 3.313582 1_555
In1_7 Pd0_7 3.012820 1_555
In1_7 In6_5 3.313582 1_555
In2_0 Pd3_2 3.012820 1_555
In2_0 In5_0 3.313582 1_555
In2_1 Pd3_3 3.012820 1_555
In2_1 In5_1 3.313582 1_555
In2_2 Pd3_0 3.012820 1_565
In2_2 In5_2 3.313582 1_555
In2_3 Pd3_1 3.012820 1_565
In2_3 In5_3 3.313582 1_555
In2_4 Pd3_6 3.012820 1_555
In2_4 In5_4 3.313582 1_555
In2_5 Pd3_7 3.012820 1_555
In2_5 In5_5 3.313582 1_555
In2_6 Pd3_4 3.012820 1_565
In2_6 In5_6 3.313582 1_555
In2_7 Pd3_5 3.012820 1_565
In2_7 In5_7 3.313582 1_555
In3_0 Pd2_2 3.012820 1_545
In3_0 In4_0 3.313582 1_555
In3_1 Pd2_3 3.012820 1_545
In3_1 In4_1 3.313582 1_555
In3_2 Pd2_0 3.012820 1_555
In3_2 In4_2 3.313582 1_555
In3_3 Pd2_1 3.012820 1_555
In3_3 In4_3 3.313582 1_555
In3_4 Pd2_6 3.012820 1_545
In3_4 In4_4 3.313582 1_555
In3_5 Pd2_7 3.012820 1_545
In3_5 In4_5 3.313582 1_555
In3_6 Pd2_4 3.012820 1_555
In3_6 In4_6 3.313582 1_555
In3_7 Pd2_5 3.012820 1_555
In3_7 In4_7 3.313582 1_555
In4_0 Pd1_0 2.951444 1_555
In4_0 Pd2_0 3.297971 1_555
In4_1 Pd1_1 2.951444 1_555
In4_1 Pd2_1 3.297971 1_555
In4_2 Pd1_2 2.951444 1_555
In4_2 Pd2_2 3.297971 1_555
In4_3 Pd1_3 2.951444 1_555
In4_3 Pd2_3 3.297971 1_555
In4_4 Pd1_4 2.951444 1_555
In4_4 Pd2_4 3.297971 1_555
In4_5 Pd1_5 2.951444 1_555
In4_5 Pd2_5 3.297971 1_555
In4_6 Pd1_6 2.951444 1_555
In4_6 Pd2_6 3.297971 1_555
In4_7 Pd1_7 2.951444 1_555
In4_7 Pd2_7 3.297971 1_555
In5_0 Pd0_0 2.951444 1_555
In5_0 Pd3_0 3.297971 1_555
In5_1 Pd0_1 2.951444 1_555
In5_1 Pd3_1 3.297971 1_555
In5_2 Pd0_2 2.951444 1_555
In5_2 Pd3_2 3.297971 1_555
In5_3 Pd0_3 2.951444 1_555
In5_3 Pd3_3 3.297971 1_555
In5_4 Pd0_4 2.951444 1_555
In5_4 Pd3_4 3.297971 1_555
In5_5 Pd0_5 2.951444 1_555
In5_5 Pd3_5 3.297971 1_555
In5_6 Pd0_6 2.951444 1_555
In5_6 Pd3_6 3.297971 1_555
In5_7 Pd0_7 2.951444 1_555
In5_7 Pd3_7 3.297971 1_555
In6_0 Pd3_2 2.951444 1_555
In6_0 Pd0_0 3.297971 1_555
In6_1 Pd3_3 2.951444 1_555
In6_1 Pd0_1 3.297971 1_555
In6_2 Pd3_0 2.951444 1_565
In6_2 Pd0_2 3.297971 1_555
In6_3 Pd3_1 2.951444 1_565
In6_3 Pd0_3 3.297971 1_555
In6_4 Pd3_6 2.951444 1_555
In6_4 Pd0_4 3.297971 1_555
In6_5 Pd3_7 2.951444 1_555
In6_5 Pd0_5 3.297971 1_555
In6_6 Pd3_4 2.951444 1_565
In6_6 Pd0_6 3.297971 1_555
In6_7 Pd3_5 2.951444 1_565
In6_7 Pd0_7 3.297971 1_555
In7_0 Pd2_2 2.951444 1_545
In7_0 Pd1_0 3.297971 1_555
In7_1 Pd2_3 2.951444 1_545
In7_1 Pd1_1 3.297971 1_555
In7_2 Pd2_0 2.951444 1_555
In7_2 Pd1_2 3.297971 1_555
In7_3 Pd2_1 2.951444 1_555
In7_3 Pd1_3 3.297971 1_555
In7_4 Pd2_6 2.951444 1_545
In7_4 Pd1_4 3.297971 1_555
In7_5 Pd2_7 2.951444 1_545
In7_5 Pd1_5 3.297971 1_555
In7_6 Pd2_4 2.951444 1_555
In7_6 Pd1_6 3.297971 1_555
In7_7 Pd2_5 2.951444 1_555
In7_7 Pd1_7 3.297971 1_555
