# generated using pymatgen
data_CsTlF4
_symmetry_space_group_name_H-M   'P 1'
_cell_length_a   6.68088300
_cell_length_b   8.56107000
_cell_length_c   8.72686200
_cell_angle_alpha   90.00000000
_cell_angle_beta   90.00000000
_cell_angle_gamma   90.00000000
_symmetry_Int_Tables_number   1
_chemical_formula_structural   CsTlF4
_chemical_formula_sum   'Cs4 Tl4 F16'
_cell_volume   499.13729683
_cell_formula_units_Z   4
loop_
 _symmetry_equiv_pos_site_id
 _symmetry_equiv_pos_as_xyz
  1  'x, y, z'
loop_
 _atom_site_type_symbol
 _atom_site_label
 _atom_site_symmetry_multiplicity
 _atom_site_fract_x
 _atom_site_fract_y
 _atom_site_fract_z
 _atom_site_occupancy
  Cs  Cs0  1  0.51329000  0.19689600  0.80186500  1
  Cs  Cs1  1  0.48671000  0.80310400  0.30186500  1
  Cs  Cs2  1  0.48671000  0.69689600  0.80186500  1
  Cs  Cs3  1  0.51329000  0.30310400  0.30186500  1
  Tl  Tl0  1  0.00051700  0.99410800  0.55307100  1
  Tl  Tl1  1  0.99948300  0.00589200  0.05307100  1
  Tl  Tl2  1  0.99948300  0.49410800  0.55307100  1
  Tl  Tl3  1  0.00051700  0.50589200  0.05307100  1
  F  F0  1  0.29228000  0.06127000  0.49603500  1
  F  F1  1  0.70772000  0.93873000  0.99603500  1
  F  F2  1  0.70772000  0.56127000  0.49603500  1
  F  F3  1  0.29228000  0.43873000  0.99603500  1
  F  F4  1  0.09314200  0.01325800  0.80275900  1
  F  F5  1  0.90685800  0.98674200  0.30275900  1
  F  F6  1  0.90685800  0.51325800  0.80275900  1
  F  F7  1  0.09314200  0.48674200  0.30275900  1
  F  F8  1  0.12170400  0.74368400  0.56017700  1
  F  F9  1  0.87829600  0.25631600  0.06017700  1
  F  F10  1  0.87829600  0.24368400  0.56017700  1
  F  F11  1  0.12170400  0.75631600  0.06017700  1
  F  F12  1  0.29115600  0.42041300  0.60609300  1
  F  F13  1  0.70884400  0.57958700  0.10609300  1
  F  F14  1  0.70884400  0.92041300  0.60609300  1
  F  F15  1  0.29115600  0.07958700  0.10609300  1
loop_
_geom_bond_atom_site_label_1
_geom_bond_atom_site_label_2
_geom_bond_distance
_geom_bond_site_symmetry_2
Cs0 F12 2.963604 1_555
Cs0 F3 3.055793 1_555
Cs0 F1 3.073028 1_545
Cs0 F14 3.198188 1_545
Cs0 F15 3.203092 1_556
Cs0 F4 3.217250 1_555
Cs0 F10 3.248948 1_555
Cs0 F0 3.263673 1_555
Cs0 F9 3.359616 1_556
Cs1 F13 2.963604 1_555
Cs1 F2 3.055793 1_555
Cs1 F0 3.073028 1_565
Cs1 F15 3.198188 1_565
Cs1 F14 3.203092 1_555
Cs1 F5 3.217250 1_555
Cs1 F11 3.248948 1_555
Cs1 F1 3.263673 1_554
Cs1 F8 3.359616 1_555
Cs2 F14 2.963604 1_555
Cs2 F1 3.055793 1_555
Cs2 F3 3.073028 1_555
Cs2 F12 3.198188 1_555
Cs2 F13 3.203092 1_556
Cs2 F6 3.217250 1_555
Cs2 F8 3.248948 1_555
Cs2 F2 3.263673 1_555
Cs2 F11 3.359616 1_556
Cs3 F15 2.963604 1_555
Cs3 F0 3.055793 1_555
Cs3 F2 3.073028 1_555
Cs3 F13 3.198188 1_555
Cs3 F12 3.203092 1_555
Cs3 F7 3.217250 1_555
Cs3 F9 3.248948 1_555
Cs3 F3 3.263673 1_554
Cs3 F10 3.359616 1_555
F0 Tl0 2.092335 1_545
F1 Tl1 2.092335 1_566
F2 Tl2 2.092335 1_555
F3 Tl3 2.092335 1_556
F4 Tl0 2.271084 1_545
F4 Tl1 2.273165 1_456
F5 Tl1 2.271084 1_565
F5 Tl0 2.273165 1_655
F6 Tl2 2.271084 1_555
F6 Tl3 2.273165 1_656
F7 Tl3 2.271084 1_555
F7 Tl2 2.273165 1_455
F8 Tl2 2.288189 1_455
F8 Tl0 2.292521 1_555
F9 Tl3 2.288189 1_655
F9 Tl1 2.292521 1_555
F10 Tl0 2.288189 1_645
F10 Tl2 2.292521 1_555
F11 Tl1 2.288189 1_465
F11 Tl3 2.292521 1_555
F12 Tl2 2.099839 1_455
F13 Tl3 2.099839 1_655
F14 Tl0 2.099839 1_655
F15 Tl1 2.099839 1_455
