# generated using pymatgen
data_Dy2(SiIr)3
_symmetry_space_group_name_H-M   'P 1'
_cell_length_a   5.57181200
_cell_length_b   5.57181200
_cell_length_c   40.72243400
_cell_angle_alpha   90.00000000
_cell_angle_beta   90.00000000
_cell_angle_gamma   90.00000000
_symmetry_Int_Tables_number   1
_chemical_formula_structural   Dy2(SiIr)3
_chemical_formula_sum   'Dy16 Si24 Ir24'
_cell_volume   1264.23158633
_cell_formula_units_Z   8
loop_
 _symmetry_equiv_pos_site_id
 _symmetry_equiv_pos_as_xyz
  1  'x, y, z'
loop_
 _atom_site_type_symbol
 _atom_site_label
 _atom_site_symmetry_multiplicity
 _atom_site_fract_x
 _atom_site_fract_y
 _atom_site_fract_z
 _atom_site_occupancy
  Dy  Dy0_0  1  0.25000000  0.25000000  0.37954750  1
  Dy  Dy0_1  1  0.25000000  0.25000000  0.87954750  1
  Dy  Dy0_2  1  0.25000000  0.75000000  0.37954750  1
  Dy  Dy0_3  1  0.25000000  0.75000000  0.87954750  1
  Dy  Dy0_4  1  0.75000000  0.25000000  0.37954750  1
  Dy  Dy0_5  1  0.75000000  0.25000000  0.87954750  1
  Dy  Dy0_6  1  0.75000000  0.75000000  0.37954750  1
  Dy  Dy0_7  1  0.75000000  0.75000000  0.87954750  1
  Dy  Dy1_0  1  0.25000000  0.25000000  0.12045250  1
  Dy  Dy1_1  1  0.25000000  0.25000000  0.62045250  1
  Dy  Dy1_2  1  0.25000000  0.75000000  0.12045250  1
  Dy  Dy1_3  1  0.25000000  0.75000000  0.62045250  1
  Dy  Dy1_4  1  0.75000000  0.25000000  0.12045250  1
  Dy  Dy1_5  1  0.75000000  0.25000000  0.62045250  1
  Dy  Dy1_6  1  0.75000000  0.75000000  0.12045250  1
  Dy  Dy1_7  1  0.75000000  0.75000000  0.62045250  1
  Si  Si0_0  1  0.25000000  0.25000000  0.19349300  1
  Si  Si0_1  1  0.25000000  0.25000000  0.69349300  1
  Si  Si0_2  1  0.25000000  0.75000000  0.19349300  1
  Si  Si0_3  1  0.25000000  0.75000000  0.69349300  1
  Si  Si0_4  1  0.75000000  0.25000000  0.19349300  1
  Si  Si0_5  1  0.75000000  0.25000000  0.69349300  1
  Si  Si0_6  1  0.75000000  0.75000000  0.19349300  1
  Si  Si0_7  1  0.75000000  0.75000000  0.69349300  1
  Si  Si1_0  1  0.25000000  0.25000000  0.30650700  1
  Si  Si1_1  1  0.25000000  0.25000000  0.80650700  1
  Si  Si1_2  1  0.25000000  0.75000000  0.30650700  1
  Si  Si1_3  1  0.25000000  0.75000000  0.80650700  1
  Si  Si1_4  1  0.75000000  0.25000000  0.30650700  1
  Si  Si1_5  1  0.75000000  0.25000000  0.80650700  1
  Si  Si1_6  1  0.75000000  0.75000000  0.30650700  1
  Si  Si1_7  1  0.75000000  0.75000000  0.80650700  1
  Si  Si2_0  1  0.25000000  0.25000000  0.00000000  1
  Si  Si2_1  1  0.25000000  0.25000000  0.50000000  1
  Si  Si2_2  1  0.25000000  0.75000000  0.00000000  1
  Si  Si2_3  1  0.25000000  0.75000000  0.50000000  1
  Si  Si2_4  1  0.75000000  0.25000000  0.00000000  1
  Si  Si2_5  1  0.75000000  0.25000000  0.50000000  1
  Si  Si2_6  1  0.75000000  0.75000000  0.00000000  1
  Si  Si2_7  1  0.75000000  0.75000000  0.50000000  1
  Ir  Ir0_0  1  0.25000000  0.25000000  0.05539550  1
  Ir  Ir0_1  1  0.25000000  0.25000000  0.55539550  1
  Ir  Ir0_2  1  0.25000000  0.75000000  0.05539550  1
  Ir  Ir0_3  1  0.25000000  0.75000000  0.55539550  1
  Ir  Ir0_4  1  0.75000000  0.25000000  0.05539550  1
  Ir  Ir0_5  1  0.75000000  0.25000000  0.55539550  1
  Ir  Ir0_6  1  0.75000000  0.75000000  0.05539550  1
  Ir  Ir0_7  1  0.75000000  0.75000000  0.55539550  1
  Ir  Ir1_0  1  0.25000000  0.25000000  0.44460450  1
  Ir  Ir1_1  1  0.25000000  0.25000000  0.94460450  1
  Ir  Ir1_2  1  0.25000000  0.75000000  0.44460450  1
  Ir  Ir1_3  1  0.25000000  0.75000000  0.94460450  1
  Ir  Ir1_4  1  0.75000000  0.25000000  0.44460450  1
  Ir  Ir1_5  1  0.75000000  0.25000000  0.94460450  1
  Ir  Ir1_6  1  0.75000000  0.75000000  0.44460450  1
  Ir  Ir1_7  1  0.75000000  0.75000000  0.94460450  1
  Ir  Ir2_0  1  0.25000000  0.25000000  0.25000000  1
  Ir  Ir2_1  1  0.25000000  0.25000000  0.75000000  1
  Ir  Ir2_2  1  0.25000000  0.75000000  0.25000000  1
  Ir  Ir2_3  1  0.25000000  0.75000000  0.75000000  1
  Ir  Ir2_4  1  0.75000000  0.25000000  0.25000000  1
  Ir  Ir2_5  1  0.75000000  0.25000000  0.75000000  1
  Ir  Ir2_6  1  0.75000000  0.75000000  0.25000000  1
  Ir  Ir2_7  1  0.75000000  0.75000000  0.75000000  1
loop_
_geom_bond_atom_site_label_1
_geom_bond_atom_site_label_2
_geom_bond_distance
_geom_bond_site_symmetry_2
Dy0_0 Ir1_0 2.649279 1_555
Dy0_0 Dy0_4 2.785906 1_455
Dy0_0 Dy0_4 2.785906 1_555
Dy0_0 Dy0_2 2.785906 1_555
Dy0_0 Dy0_2 2.785906 1_545
Dy0_0 Si1_0 2.974387 1_555
Dy0_1 Ir1_1 2.649279 1_555
Dy0_1 Dy0_3 2.785906 1_545
Dy0_1 Dy0_5 2.785906 1_455
Dy0_1 Dy0_5 2.785906 1_555
Dy0_1 Dy0_3 2.785906 1_555
Dy0_1 Si1_1 2.974387 1_555
Dy0_2 Ir1_2 2.649279 1_555
Dy0_2 Dy0_6 2.785906 1_455
Dy0_2 Dy0_6 2.785906 1_555
Dy0_2 Si1_2 2.974387 1_555
Dy0_3 Ir1_3 2.649279 1_555
Dy0_3 Dy0_7 2.785906 1_555
Dy0_3 Dy0_7 2.785906 1_455
Dy0_3 Si1_3 2.974387 1_555
Dy0_4 Ir1_4 2.649279 1_555
Dy0_4 Dy0_6 2.785906 1_555
Dy0_4 Dy0_6 2.785906 1_545
Dy0_4 Si1_4 2.974387 1_555
Dy0_5 Ir1_5 2.649279 1_555
Dy0_5 Dy0_7 2.785906 1_555
Dy0_5 Dy0_7 2.785906 1_545
Dy0_5 Si1_5 2.974387 1_555
Dy0_6 Ir1_6 2.649279 1_555
Dy0_6 Si1_6 2.974387 1_555
Dy0_7 Ir1_7 2.649279 1_555
Dy0_7 Si1_7 2.974387 1_555
Dy1_0 Ir0_0 2.649279 1_555
Dy1_0 Dy1_2 2.785906 1_545
Dy1_0 Dy1_2 2.785906 1_555
Dy1_0 Dy1_4 2.785906 1_555
Dy1_0 Dy1_4 2.785906 1_455
Dy1_0 Si0_0 2.974387 1_555
Dy1_1 Ir0_1 2.649279 1_555
Dy1_1 Dy1_5 2.785906 1_555
Dy1_1 Dy1_5 2.785906 1_455
Dy1_1 Dy1_3 2.785906 1_555
Dy1_1 Dy1_3 2.785906 1_545
Dy1_1 Si0_1 2.974387 1_555
Dy1_2 Ir0_2 2.649279 1_555
Dy1_2 Dy1_6 2.785906 1_555
Dy1_2 Dy1_6 2.785906 1_455
Dy1_2 Si0_2 2.974387 1_555
Dy1_3 Ir0_3 2.649279 1_555
Dy1_3 Dy1_7 2.785906 1_455
Dy1_3 Dy1_7 2.785906 1_555
Dy1_3 Si0_3 2.974387 1_555
Dy1_4 Ir0_4 2.649279 1_555
Dy1_4 Dy1_6 2.785906 1_545
Dy1_4 Dy1_6 2.785906 1_555
Dy1_4 Si0_4 2.974387 1_555
Dy1_5 Ir0_5 2.649279 1_555
Dy1_5 Dy1_7 2.785906 1_555
Dy1_5 Dy1_7 2.785906 1_545
Dy1_5 Si0_5 2.974387 1_555
Dy1_6 Ir0_6 2.649279 1_555
Dy1_6 Si0_6 2.974387 1_555
Dy1_7 Ir0_7 2.649279 1_555
Dy1_7 Si0_7 2.974387 1_555
Si0_0 Si0_2 2.785906 1_545
Si0_0 Si0_2 2.785906 1_555
Si0_0 Si0_4 2.785906 1_455
Si0_0 Si0_4 2.785906 1_555
Si0_1 Si0_5 2.785906 1_555
Si0_1 Si0_5 2.785906 1_455
Si0_1 Si0_3 2.785906 1_545
Si0_1 Si0_3 2.785906 1_555
Si0_2 Si0_6 2.785906 1_455
Si0_2 Si0_6 2.785906 1_555
Si0_3 Si0_7 2.785906 1_455
Si0_3 Si0_7 2.785906 1_555
Si0_4 Si0_6 2.785906 1_545
Si0_4 Si0_6 2.785906 1_555
Si0_5 Si0_7 2.785906 1_555
Si0_5 Si0_7 2.785906 1_545
Si1_0 Si1_4 2.785906 1_455
Si1_0 Si1_4 2.785906 1_555
Si1_0 Si1_2 2.785906 1_555
Si1_0 Si1_2 2.785906 1_545
Si1_1 Si1_3 2.785906 1_555
Si1_1 Si1_3 2.785906 1_545
Si1_1 Si1_5 2.785906 1_555
Si1_1 Si1_5 2.785906 1_455
Si1_2 Si1_6 2.785906 1_555
Si1_2 Si1_6 2.785906 1_455
Si1_3 Si1_7 2.785906 1_455
Si1_3 Si1_7 2.785906 1_555
Si1_4 Si1_6 2.785906 1_545
Si1_4 Si1_6 2.785906 1_555
Si1_5 Si1_7 2.785906 1_555
Si1_5 Si1_7 2.785906 1_545
Ir0_0 Si2_0 2.255840 1_555
Ir0_1 Si2_1 2.255840 1_555
Ir0_2 Si2_2 2.255840 1_555
Ir0_3 Si2_3 2.255840 1_555
Ir0_4 Si2_4 2.255840 1_555
Ir0_5 Si2_5 2.255840 1_555
Ir0_6 Si2_6 2.255840 1_555
Ir0_7 Si2_7 2.255840 1_555
Ir1_0 Si2_1 2.255840 1_555
Ir1_1 Si2_0 2.255840 1_556
Ir1_2 Si2_3 2.255840 1_555
Ir1_3 Si2_2 2.255840 1_556
Ir1_4 Si2_5 2.255840 1_555
Ir1_5 Si2_4 2.255840 1_556
Ir1_6 Si2_7 2.255840 1_555
Ir1_7 Si2_6 2.255840 1_556
Ir2_0 Si1_0 2.301103 1_555
Ir2_0 Si0_0 2.301103 1_555
Ir2_1 Si1_1 2.301103 1_555
Ir2_1 Si0_1 2.301103 1_555
Ir2_2 Si1_2 2.301103 1_555
Ir2_2 Si0_2 2.301103 1_555
Ir2_3 Si1_3 2.301103 1_555
Ir2_3 Si0_3 2.301103 1_555
Ir2_4 Si0_4 2.301103 1_555
Ir2_4 Si1_4 2.301103 1_555
Ir2_5 Si1_5 2.301103 1_555
Ir2_5 Si0_5 2.301103 1_555
Ir2_6 Si0_6 2.301103 1_555
Ir2_6 Si1_6 2.301103 1_555
Ir2_7 Si1_7 2.301103 1_555
Ir2_7 Si0_7 2.301103 1_555
