# generated using pymatgen
data_Mg5Ti
_symmetry_space_group_name_H-M   'P 1'
_cell_length_a   6.11553448
_cell_length_b   6.11553448
_cell_length_c   6.11553490
_cell_angle_alpha   52.21313909
_cell_angle_beta   52.21313909
_cell_angle_gamma   52.21314228
_symmetry_Int_Tables_number   1
_chemical_formula_structural   Mg5Ti
_chemical_formula_sum   'Mg5 Ti1'
_cell_volume   132.13896662
_cell_formula_units_Z   1
loop_
 _symmetry_equiv_pos_site_id
 _symmetry_equiv_pos_as_xyz
  1  'x, y, z'
loop_
 _atom_site_type_symbol
 _atom_site_label
 _atom_site_symmetry_multiplicity
 _atom_site_fract_x
 _atom_site_fract_y
 _atom_site_fract_z
 _atom_site_occupancy
  Mg  Mg0  1  0.00000000  0.65987300  0.34012700  1
  Mg  Mg1  1  0.16513800  0.16513800  0.16513800  1
  Mg  Mg2  1  0.34012700  0.00000000  0.65987300  1
  Mg  Mg3  1  0.65987300  0.34012700  0.00000000  1
  Mg  Mg4  1  0.83486200  0.83486200  0.83486200  1
  Ti  Ti0  1  0.50000000  0.50000000  0.50000000  1
loop_
_geom_bond_atom_site_label_1
_geom_bond_atom_site_label_2
_geom_bond_distance
_geom_bond_site_symmetry_2
Mg0 Mg3 3.076229 1_456
Mg0 Mg3 3.076229 1_555
Mg0 Mg2 3.076229 1_555
Mg0 Mg2 3.076229 1_465
Mg0 Mg2 3.170738 1_564
Mg0 Mg3 3.170739 1_465
Mg0 Ti0 3.176530 1_455
Mg0 Ti0 3.176530 1_555
Mg0 Mg1 3.187552 1_565
Mg0 Mg4 3.187553 1_454
Mg0 Mg1 3.196586 1_555
Mg0 Mg4 3.196586 1_455
Mg1 Ti0 3.107500 1_554
Mg1 Ti0 3.107500 1_545
Mg1 Ti0 3.107500 1_455
Mg1 Mg4 3.107782 1_445
Mg1 Mg4 3.107782 1_454
Mg1 Mg4 3.107782 1_544
Mg1 Mg3 3.187553 1_455
Mg1 Mg2 3.187553 1_554
Mg1 Mg3 3.196585 1_555
Mg1 Mg2 3.196586 1_555
Mg2 Mg3 3.076229 1_555
Mg2 Mg3 3.076229 1_546
Mg2 Mg3 3.170739 1_456
Mg2 Ti0 3.176530 1_555
Mg2 Ti0 3.176530 1_545
Mg2 Mg4 3.187552 1_445
Mg2 Mg4 3.196586 1_545
Mg3 Ti0 3.176530 1_554
Mg3 Ti0 3.176530 1_555
Mg3 Mg4 3.187553 1_544
Mg3 Mg4 3.196585 1_554
Mg4 Ti0 3.107500 1_556
Mg4 Ti0 3.107500 1_655
Mg4 Ti0 3.107500 1_565
