# generated using pymatgen
data_SmDyFe4
_symmetry_space_group_name_H-M   'P 1'
_cell_length_a   5.20462478
_cell_length_b   5.20536637
_cell_length_c   5.20539853
_cell_angle_alpha   90.00420933
_cell_angle_beta   60.00449164
_cell_angle_gamma   119.99546280
_symmetry_Int_Tables_number   1
_chemical_formula_structural   SmDyFe4
_chemical_formula_sum   'Sm1 Dy1 Fe4'
_cell_volume   99.73668138
_cell_formula_units_Z   1
loop_
 _symmetry_equiv_pos_site_id
 _symmetry_equiv_pos_as_xyz
  1  'x, y, z'
loop_
 _atom_site_type_symbol
 _atom_site_label
 _atom_site_symmetry_multiplicity
 _atom_site_fract_x
 _atom_site_fract_y
 _atom_site_fract_z
 _atom_site_occupancy
  Sm  Sm0  1  0.99999849  0.00004483  0.00004943  1
  Dy  Dy0  1  0.50000141  0.74996981  0.74996695  1
  Fe  Fe0  1  0.75029006  0.37513017  0.87461774  1
  Fe  Fe1  1  0.24972114  0.37508709  0.37514833  1
  Fe  Fe2  1  0.24971008  0.87461805  0.37512948  1
  Fe  Fe3  1  0.75027881  0.37514905  0.37508607  1
loop_
_geom_bond_atom_site_label_1
_geom_bond_atom_site_label_2
_geom_bond_distance
_geom_bond_site_symmetry_2
Dy0 Fe2 3.051187 1_655
Dy0 Fe0 3.051193 1_455
Dy0 Fe3 3.051306 1_555
Dy0 Fe1 3.051314 1_555
Dy0 Fe0 3.051509 1_555
Dy0 Fe2 3.051515 1_555
Dy0 Fe0 3.051881 1_565
Dy0 Fe2 3.051899 1_556
Dy0 Fe1 3.051926 1_665
Dy0 Fe3 3.051944 1_456
Dy0 Fe3 3.052221 1_565
Dy0 Fe1 3.052240 1_556
Dy0 Sm0 3.187612 1_466
Dy0 Sm0 3.187627 1_566
Dy0 Sm0 3.187698 1_565
Dy0 Sm0 3.187712 1_456
Fe0 Fe1 2.599933 1_655
Fe0 Fe3 2.600291 1_555
Fe0 Fe2 2.600572 1_655
Fe0 Fe3 2.605108 1_556
Fe0 Fe1 2.605432 1_556
Fe0 Fe2 2.605903 1_546
Fe0 Sm0 3.051758 1_556
Fe0 Sm0 3.052036 1_456
Fe0 Sm0 3.052523 1_566
Fe1 Fe3 2.599733 1_455
Fe1 Fe2 2.600270 1_555
Fe1 Fe3 2.604892 1_555
Fe1 Fe2 2.605096 1_545
Fe1 Sm0 3.051674 1_455
Fe1 Sm0 3.052587 1_456
Fe1 Sm0 3.052809 1_565
Fe2 Fe3 2.599927 1_455
Fe2 Fe3 2.605426 1_565
Fe2 Sm0 3.051747 1_465
Fe2 Sm0 3.052033 1_565
Fe2 Sm0 3.052550 1_466
Fe3 Sm0 3.051673 1_555
Fe3 Sm0 3.052546 1_565
Fe3 Sm0 3.052836 1_456
