# generated using pymatgen
data_Rb3TbCl6
_symmetry_space_group_name_H-M   'P 1'
_cell_length_a   13.50909314
_cell_length_b   13.50909314
_cell_length_c   12.82154210
_cell_angle_alpha   81.08123073
_cell_angle_beta   81.08123073
_cell_angle_gamma   34.24581673
_symmetry_Int_Tables_number   1
_chemical_formula_structural   Rb3TbCl6
_chemical_formula_sum   'Rb12 Tb4 Cl24'
_cell_volume   1299.31008183
_cell_formula_units_Z   4
loop_
 _symmetry_equiv_pos_site_id
 _symmetry_equiv_pos_as_xyz
  1  'x, y, z'
loop_
 _atom_site_type_symbol
 _atom_site_label
 _atom_site_symmetry_multiplicity
 _atom_site_fract_x
 _atom_site_fract_y
 _atom_site_fract_z
 _atom_site_occupancy
  Rb  Rb0  1  0.29558184  0.80818910  0.06332886  1
  Rb  Rb1  1  0.70441816  0.19181090  0.93667114  1
  Rb  Rb2  1  0.19181090  0.70441816  0.43667114  1
  Rb  Rb3  1  0.80818910  0.29558184  0.56332886  1
  Rb  Rb4  1  0.47107211  0.83692977  0.35469965  1
  Rb  Rb5  1  0.52892789  0.16307023  0.64530035  1
  Rb  Rb6  1  0.16307023  0.52892789  0.14530035  1
  Rb  Rb7  1  0.83692977  0.47107211  0.85469965  1
  Rb  Rb8  1  0.65383154  0.02187323  0.30250830  1
  Rb  Rb9  1  0.34616846  0.97812677  0.69749170  1
  Rb  Rb10  1  0.97812677  0.34616846  0.19749170  1
  Rb  Rb11  1  0.02187323  0.65383154  0.80250830  1
  Tb  Tb0  1  0.79503274  0.20496726  0.25000000  1
  Tb  Tb1  1  0.20496726  0.79503274  0.75000000  1
  Tb  Tb2  1  0.50000000  0.00000000  -0.00000000  1
  Tb  Tb3  1  -0.00000000  0.50000000  0.50000000  1
  Cl  Cl0  1  0.62317807  0.71865852  0.07785283  1
  Cl  Cl1  1  0.37682193  0.28134148  0.92214717  1
  Cl  Cl2  1  0.28134148  0.37682193  0.42214717  1
  Cl  Cl3  1  0.71865852  0.62317807  0.57785283  1
  Cl  Cl4  1  0.51006488  0.36708995  0.17848615  1
  Cl  Cl5  1  0.48993512  0.63291005  0.82151385  1
  Cl  Cl6  1  0.63291005  0.48993512  0.32151385  1
  Cl  Cl7  1  0.36708995  0.51006488  0.67848615  1
  Cl  Cl8  1  0.78767839  0.85954917  0.03376579  1
  Cl  Cl9  1  0.21232161  0.14045083  0.96623421  1
  Cl  Cl10  1  0.14045083  0.21232161  0.46623421  1
  Cl  Cl11  1  0.85954917  0.78767839  0.53376579  1
  Cl  Cl12  1  0.89336596  0.98383765  0.70430371  1
  Cl  Cl13  1  0.10663404  0.01616235  0.29569629  1
  Cl  Cl14  1  0.01616235  0.10663404  0.79569629  1
  Cl  Cl15  1  0.98383765  0.89336596  0.20430371  1
  Cl  Cl16  1  0.72951401  0.15718273  0.43949208  1
  Cl  Cl17  1  0.27048599  0.84281727  0.56050792  1
  Cl  Cl18  1  0.84281727  0.27048599  0.06050792  1
  Cl  Cl19  1  0.15718273  0.72951401  0.93949208  1
  Cl  Cl20  1  0.36371389  0.13680959  0.18986127  1
  Cl  Cl21  1  0.63628611  0.86319041  0.81013873  1
  Cl  Cl22  1  0.86319041  0.63628611  0.31013873  1
  Cl  Cl23  1  0.13680959  0.36371389  0.68986127  1
loop_
_geom_bond_atom_site_label_1
_geom_bond_atom_site_label_2
_geom_bond_distance
_geom_bond_site_symmetry_2
Cl0 Tb2 2.663314 1_565
Cl0 Rb10 3.265392 1_555
Cl0 Rb7 3.485615 1_554
Cl0 Rb0 3.524103 1_555
Cl0 Rb4 3.666592 1_555
Cl1 Tb2 2.663314 1_556
Cl1 Rb11 3.265392 1_555
Cl1 Rb6 3.485615 1_556
Cl1 Rb1 3.524103 1_555
Cl1 Rb5 3.666592 1_555
Cl2 Tb3 2.663314 1_555
Cl2 Rb8 3.265392 1_555
Cl2 Rb5 3.485615 1_555
Cl2 Rb2 3.524103 1_555
Cl2 Rb6 3.666592 1_555
Cl3 Tb3 2.663314 1_655
Cl3 Rb9 3.265392 1_555
Cl3 Rb4 3.485615 1_555
Cl3 Rb3 3.524103 1_555
Cl3 Rb7 3.666592 1_555
Cl4 Tb0 2.643865 1_555
Cl4 Rb6 3.212639 1_555
Cl4 Rb1 3.403977 1_554
Cl4 Rb8 3.425403 1_555
Cl5 Tb1 2.643865 1_555
Cl5 Rb7 3.212639 1_555
Cl5 Rb0 3.403977 1_556
Cl5 Rb9 3.425403 1_555
Cl6 Tb0 2.643865 1_555
Cl6 Rb4 3.212639 1_555
Cl6 Rb3 3.403977 1_555
Cl6 Rb10 3.425403 1_555
Cl7 Tb1 2.643865 1_555
Cl7 Rb5 3.212639 1_555
Cl7 Rb2 3.403977 1_555
Cl7 Rb11 3.425403 1_555
Cl8 Tb2 2.639492 1_565
Cl8 Rb6 3.245400 1_655
Cl8 Rb11 3.410955 1_654
Cl8 Rb1 3.649237 1_564
Cl8 Rb8 3.715728 1_565
Cl9 Tb2 2.639492 1_556
Cl9 Rb7 3.245400 1_455
Cl9 Rb10 3.410955 1_456
Cl9 Rb0 3.649237 1_546
Cl9 Rb9 3.715728 1_545
Cl10 Tb3 2.639492 1_555
Cl10 Rb4 3.245400 1_545
Cl10 Rb9 3.410955 1_545
Cl10 Rb3 3.649237 1_455
Cl10 Rb10 3.715728 1_455
Cl11 Tb3 2.639492 1_655
Cl11 Rb5 3.245400 1_565
Cl11 Rb8 3.410955 1_565
Cl11 Rb2 3.649237 1_655
Cl11 Rb11 3.715728 1_655
Cl12 Tb1 2.668193 1_655
Cl12 Rb11 3.258196 1_655
Cl12 Rb5 3.398864 1_565
Cl12 Rb1 3.415604 1_565
Cl12 Rb3 3.549644 1_565
Cl13 Tb0 2.668193 1_455
Cl13 Rb10 3.258196 1_455
Cl13 Rb4 3.398864 1_545
Cl13 Rb0 3.415604 1_545
Cl13 Rb2 3.549644 1_545
Cl14 Tb1 2.668193 1_545
Cl14 Rb9 3.258196 1_545
Cl14 Rb7 3.398864 1_455
Cl14 Rb3 3.415604 1_455
Cl14 Rb1 3.549644 1_455
Cl15 Tb0 2.668193 1_565
Cl15 Rb8 3.258196 1_565
Cl15 Rb6 3.398864 1_655
Cl15 Rb2 3.415604 1_655
Cl15 Rb0 3.549644 1_655
Cl16 Tb0 2.625736 1_555
Cl16 Rb5 3.435668 1_555
Cl16 Rb3 3.446035 1_555
Cl16 Rb8 3.480409 1_555
Cl16 Rb2 3.641609 1_645
Cl17 Tb1 2.625736 1_555
Cl17 Rb4 3.435668 1_555
Cl17 Rb2 3.446035 1_555
Cl17 Rb9 3.480409 1_555
Cl17 Rb3 3.641609 1_465
Cl18 Tb0 2.625736 1_555
Cl18 Rb7 3.435668 1_554
Cl18 Rb1 3.446035 1_554
Cl18 Rb10 3.480409 1_555
Cl18 Rb0 3.641609 1_645
Cl19 Tb1 2.625736 1_555
Cl19 Rb6 3.435668 1_556
Cl19 Rb0 3.446035 1_556
Cl19 Rb11 3.480409 1_555
Cl19 Rb1 3.641609 1_465
Cl20 Tb2 2.666667 1_555
Cl20 Rb10 3.273104 1_455
Cl20 Rb8 3.294901 1_555
Cl20 Rb6 3.396679 1_555
Cl20 Rb4 3.400556 1_545
Cl21 Tb2 2.666667 1_566
Cl21 Rb11 3.273104 1_655
Cl21 Rb9 3.294901 1_555
Cl21 Rb7 3.396679 1_555
Cl21 Rb5 3.400556 1_565
Cl22 Tb3 2.666667 1_655
Cl22 Rb8 3.273104 1_565
Cl22 Rb10 3.294901 1_555
Cl22 Rb4 3.396679 1_555
Cl22 Rb6 3.400556 1_655
Cl23 Tb3 2.666667 1_555
Cl23 Rb9 3.273104 1_545
Cl23 Rb11 3.294901 1_555
Cl23 Rb5 3.396679 1_555
Cl23 Rb7 3.400556 1_455
