# generated using pymatgen
data_CoCu2O3
_symmetry_space_group_name_H-M   'P 1'
_cell_length_a   6.88166239
_cell_length_b   6.88166239
_cell_length_c   6.88166239
_cell_angle_alpha   154.91831823
_cell_angle_beta   154.91831823
_cell_angle_gamma   35.76620067
_symmetry_Int_Tables_number   1
_chemical_formula_structural   CoCu2O3
_chemical_formula_sum   'Co1 Cu2 O3'
_cell_volume   58.49178292
_cell_formula_units_Z   1
loop_
 _symmetry_equiv_pos_site_id
 _symmetry_equiv_pos_as_xyz
  1  'x, y, z'
loop_
 _atom_site_type_symbol
 _atom_site_label
 _atom_site_symmetry_multiplicity
 _atom_site_fract_x
 _atom_site_fract_y
 _atom_site_fract_z
 _atom_site_occupancy
  Co  Co0  1  0.00000000  0.00000000  0.00000000  1
  Cu  Cu0  1  0.33464200  0.33464200  0.00000000  1
  Cu  Cu1  1  0.66535800  0.66535800  0.00000000  1
  O  O0  1  0.83732200  0.83732200  0.00000000  1
  O  O1  1  0.16267800  0.16267800  0.00000000  1
  O  O2  1  0.50000000  0.50000000  0.00000000  1
loop_
_geom_bond_atom_site_label_1
_geom_bond_atom_site_label_2
_geom_bond_distance
_geom_bond_site_symmetry_2
Co0 O2 2.113193 1_444
Co0 O2 2.113193 1_545
Co0 O2 2.113193 1_455
Co0 O2 2.113193 1_556
Co0 O1 2.130813 1_555
Co0 O0 2.130813 1_445
Cu0 O0 2.113484 1_545
Cu0 O0 2.113484 1_444
Cu0 O0 2.113484 1_455
Cu0 O0 2.113484 1_556
Cu0 O2 2.165917 1_555
Cu0 O1 2.252445 1_555
Cu1 O1 2.113484 1_666
Cu1 O1 2.113484 1_655
Cu1 O1 2.113484 1_565
Cu1 O1 2.113484 1_554
Cu1 O2 2.165917 1_555
Cu1 O0 2.252445 1_555
