# generated using pymatgen
data_LiMn6(OF2)4
_symmetry_space_group_name_H-M   'P 1'
_cell_length_a   4.97258651
_cell_length_b   8.06666408
_cell_length_c   5.78348851
_cell_angle_alpha   93.61840861
_cell_angle_beta   93.14082778
_cell_angle_gamma   87.67915935
_symmetry_Int_Tables_number   1
_chemical_formula_structural   LiMn6(OF2)4
_chemical_formula_sum   'Li1 Mn6 O4 F8'
_cell_volume   231.01838379
_cell_formula_units_Z   1
loop_
 _symmetry_equiv_pos_site_id
 _symmetry_equiv_pos_as_xyz
  1  'x, y, z'
loop_
 _atom_site_type_symbol
 _atom_site_label
 _atom_site_symmetry_multiplicity
 _atom_site_fract_x
 _atom_site_fract_y
 _atom_site_fract_z
 _atom_site_occupancy
  Li  Li0  1  0.48365400  0.80689500  0.81684700  1
  Mn  Mn0  1  0.48457000  0.02717600  0.47774900  1
  Mn  Mn1  1  0.61546900  0.65924800  0.21106200  1
  Mn  Mn2  1  0.48768900  0.34302800  0.83761200  1
  Mn  Mn3  1  0.96319900  0.67845400  0.68359800  1
  Mn  Mn4  1  0.00245700  0.34006900  0.33899200  1
  Mn  Mn5  1  0.99269100  0.99825800  0.00656600  1
  O  O0  1  0.82543000  0.76456800  0.97055500  1
  O  O1  1  0.66583700  0.78360800  0.51944800  1
  O  O2  1  0.70099200  0.42436500  0.13001400  1
  O  O3  1  0.30129800  0.25663300  0.53573000  1
  F  F0  1  0.79636500  0.43190900  0.63650800  1
  F  F1  1  0.83118500  0.10588200  0.31645900  1
  F  F2  1  0.66640600  0.10203300  0.81427600  1
  F  F3  1  0.30868500  0.59292800  0.85362400  1
  F  F4  1  0.35534700  0.89493100  0.16065200  1
  F  F5  1  0.12939900  0.58622700  0.38770600  1
  F  F6  1  0.19116300  0.23582000  0.04107100  1
  F  F7  1  0.18427000  0.91796500  0.68861600  1
loop_
_geom_bond_atom_site_label_1
_geom_bond_atom_site_label_2
_geom_bond_distance
_geom_bond_site_symmetry_2
Li0 O0 1.902877 1_555
Li0 O1 1.982568 1_555
Mn0 O3 2.046346 1_555
Mn0 O1 2.150242 1_545
Mn1 O2 1.958322 1_555
Mn1 O1 1.998920 1_555
Mn1 O0 2.031443 1_554
Mn2 O3 2.028404 1_555
Mn2 O2 2.033493 1_556
Mn3 O0 1.909635 1_555
Mn3 O1 1.911404 1_555
Mn4 O3 1.945834 1_555
Mn4 O2 1.998243 1_455
Mn5 O0 2.084988 1_554
F0 Mn4 2.128536 1_655
F0 Mn2 2.147743 1_555
F0 Mn3 2.181332 1_555
F1 Mn4 2.097168 1_655
F1 Mn5 2.125030 1_545
F1 Mn0 2.140913 1_555
F2 Mn5 2.092791 1_546
F2 Mn2 2.104119 1_555
F2 Mn0 2.161785 1_555
F3 Li0 1.992371 1_555
F3 Mn3 2.049108 1_455
F3 Mn2 2.169034 1_555
F3 Mn1 2.543185 1_556
F4 Mn5 2.129984 1_455
F4 Mn0 2.143278 1_565
F4 Li0 2.188419 1_554
F4 Mn1 2.280796 1_555
F5 Mn3 2.027186 1_455
F5 Mn4 2.105265 1_555
F6 Mn4 2.118224 1_555
F6 Mn2 2.174519 1_554
F6 Mn5 2.183916 1_445
F7 Li0 1.850373 1_555
F7 Mn5 2.167972 1_456
F7 Mn0 2.221478 1_565
F7 Mn3 2.259108 1_455
