# generated using pymatgen
data_BaFeP(O2F)2
_symmetry_space_group_name_H-M   'P 1'
_cell_length_a   12.97759200
_cell_length_b   5.28907900
_cell_length_c   8.05890233
_cell_angle_alpha   62.11931900
_cell_angle_beta   90.00000000
_cell_angle_gamma   90.00000000
_symmetry_Int_Tables_number   1
_chemical_formula_structural   BaFeP(O2F)2
_chemical_formula_sum   'Ba4 Fe4 P4 O16 F8'
_cell_volume   488.95024993
_cell_formula_units_Z   4
loop_
 _symmetry_equiv_pos_site_id
 _symmetry_equiv_pos_as_xyz
  1  'x, y, z'
loop_
 _atom_site_type_symbol
 _atom_site_label
 _atom_site_symmetry_multiplicity
 _atom_site_fract_x
 _atom_site_fract_y
 _atom_site_fract_z
 _atom_site_occupancy
  Ba  Ba0  1  0.70098500  0.35064100  0.18572700  1
  Ba  Ba1  1  0.29901500  0.64935900  0.81427300  1
  Ba  Ba2  1  0.20098500  0.64935900  0.31427300  1
  Ba  Ba3  1  0.79901500  0.35064100  0.68572700  1
  Fe  Fe0  1  0.00000000  0.50000000  0.00000000  1
  Fe  Fe1  1  0.50000000  0.50000000  0.50000000  1
  Fe  Fe2  1  0.00000000  0.00000000  0.50000000  1
  Fe  Fe3  1  0.50000000  0.00000000  0.00000000  1
  P  P0  1  0.88578100  0.87273000  0.19543900  1
  P  P1  1  0.11421900  0.12727000  0.80456100  1
  P  P2  1  0.38578100  0.12727000  0.30456100  1
  P  P3  1  0.61421900  0.87273000  0.69543900  1
  O  O0  1  0.90683600  0.73110000  0.06797900  1
  O  O1  1  0.09316400  0.26890000  0.93202100  1
  O  O2  1  0.40683600  0.26890000  0.43202100  1
  O  O3  1  0.59316400  0.73110000  0.56797900  1
  O  O4  1  0.38373800  0.79304400  0.43723300  1
  O  O5  1  0.61626200  0.20695600  0.56276700  1
  O  O6  1  0.88373800  0.20695600  0.06276700  1
  O  O7  1  0.11626200  0.79304400  0.93723300  1
  O  O8  1  0.97229100  0.80021300  0.34535900  1
  O  O9  1  0.02770900  0.19978700  0.65464100  1
  O  O10  1  0.47229100  0.19978700  0.15464100  1
  O  O11  1  0.52770900  0.80021300  0.84535900  1
  O  O12  1  0.78003700  0.77851900  0.28811300  1
  O  O13  1  0.21996300  0.22148100  0.71188700  1
  O  O14  1  0.28003700  0.22148100  0.21188700  1
  O  O15  1  0.71996300  0.77851900  0.78811300  1
  F  F0  1  0.36207600  0.83237200  0.05352600  1
  F  F1  1  0.63792400  0.16762800  0.94647400  1
  F  F2  1  0.86207600  0.16762800  0.44647400  1
  F  F3  1  0.13792400  0.83237200  0.55352600  1
  F  F4  1  0.55705200  0.68248200  0.23638100  1
  F  F5  1  0.44294800  0.31751800  0.76361900  1
  F  F6  1  0.05705200  0.31751800  0.26361900  1
  F  F7  1  0.94294800  0.68248200  0.73638100  1
loop_
_geom_bond_atom_site_label_1
_geom_bond_atom_site_label_2
_geom_bond_distance
_geom_bond_site_symmetry_2
Ba0 F1 2.658925 1_554
Ba0 F4 2.721450 1_555
Ba0 F2 2.796554 1_555
Ba0 O6 2.808685 1_555
Ba0 O12 2.924858 1_545
Ba0 O12 2.932791 1_555
Ba0 O15 2.944100 1_554
Ba0 O5 2.976478 1_555
Ba0 O10 3.113636 1_555
Ba0 O0 3.209436 1_555
Ba1 F0 2.658925 1_556
Ba1 F5 2.721450 1_555
Ba1 F3 2.796554 1_555
Ba1 O7 2.808685 1_555
Ba1 O13 2.924858 1_565
Ba1 O13 2.932791 1_555
Ba1 O14 2.944100 1_556
Ba1 O4 2.976478 1_555
Ba1 O11 3.113636 1_555
Ba1 O1 3.209436 1_555
Ba2 F3 2.658925 1_555
Ba2 F6 2.721450 1_555
Ba2 F0 2.796554 1_555
Ba2 O4 2.808685 1_555
Ba2 O14 2.924858 1_565
Ba2 O14 2.932791 1_555
Ba2 O13 2.944100 1_555
Ba2 O7 2.976478 1_554
Ba2 O8 3.113636 1_455
Ba2 O2 3.209436 1_555
Ba3 F2 2.658925 1_555
Ba3 F7 2.721450 1_555
Ba3 F1 2.796554 1_555
Ba3 O5 2.808685 1_555
Ba3 O15 2.924858 1_545
Ba3 O15 2.932791 1_555
Ba3 O12 2.944100 1_555
Ba3 O6 2.976478 1_556
Ba3 O9 3.113636 1_655
Ba3 O3 3.209436 1_555
Fe0 O1 1.970335 1_554
Fe0 O0 1.970335 1_455
Fe0 O7 2.049728 1_554
Fe0 O6 2.049728 1_455
Fe1 O2 1.970335 1_555
Fe1 O3 1.970335 1_555
Fe1 O5 2.049728 1_555
Fe1 O4 2.049728 1_555
Fe2 O9 2.007646 1_555
Fe2 O8 2.007646 1_445
Fe3 O11 2.007646 1_544
Fe3 O10 2.007646 1_555
O0 P0 1.552598 1_555
O1 P1 1.552598 1_555
O2 P2 1.552598 1_555
O3 P3 1.552598 1_555
O4 P2 1.581487 1_565
O5 P3 1.581487 1_545
O6 P0 1.581487 1_545
O7 P1 1.581487 1_565
O8 P0 1.560086 1_555
O9 P1 1.560086 1_555
O10 P2 1.560086 1_555
O11 P3 1.560086 1_555
O12 P0 1.530110 1_555
O13 P1 1.530110 1_555
O14 P2 1.530110 1_555
O15 P3 1.530110 1_555
F0 Fe3 1.954037 1_565
F1 Fe3 1.954037 1_556
F2 Fe2 1.954037 1_655
F3 Fe2 1.954037 1_565
F4 Fe3 2.001337 1_565
F4 Fe1 2.018765 1_555
F5 Fe3 2.001337 1_556
F5 Fe1 2.018765 1_555
F6 Fe2 2.001337 1_555
F6 Fe0 2.018765 1_555
F7 Fe2 2.001337 1_665
F7 Fe0 2.018765 1_656
