# generated using pymatgen
data_BaSnS3
_symmetry_space_group_name_H-M   'P 1'
_cell_length_a   3.96018971
_cell_length_b   8.60846534
_cell_length_c   14.69781739
_cell_angle_alpha   90.00000000
_cell_angle_beta   90.00000000
_cell_angle_gamma   90.00000000
_symmetry_Int_Tables_number   1
_chemical_formula_structural   BaSnS3
_chemical_formula_sum   'Ba4 Sn4 S12'
_cell_volume   501.06558342
_cell_formula_units_Z   4
loop_
 _symmetry_equiv_pos_site_id
 _symmetry_equiv_pos_as_xyz
  1  'x, y, z'
loop_
 _atom_site_type_symbol
 _atom_site_label
 _atom_site_symmetry_multiplicity
 _atom_site_fract_x
 _atom_site_fract_y
 _atom_site_fract_z
 _atom_site_occupancy
  Ba  Ba0  1  0.75000000  0.57653227  0.67388059  1
  Ba  Ba1  1  0.25000000  0.92346773  0.17388059  1
  Ba  Ba2  1  0.25000000  0.42346773  0.32611941  1
  Ba  Ba3  1  0.75000000  0.07653227  0.82611941  1
  Sn  Sn0  1  0.25000000  0.66721826  0.94358828  1
  Sn  Sn1  1  0.75000000  0.33278174  0.05641172  1
  Sn  Sn2  1  0.25000000  0.16721826  0.55641172  1
  Sn  Sn3  1  0.75000000  0.83278174  0.44358828  1
  S  S0  1  0.25000000  0.66328565  0.50234926  1
  S  S1  1  0.75000000  0.83671435  0.00234926  1
  S  S2  1  0.25000000  0.02750484  0.40019758  1
  S  S3  1  0.75000000  0.47249516  0.90019758  1
  S  S4  1  0.25000000  0.52750484  0.09980242  1
  S  S5  1  0.25000000  0.28743218  0.70785123  1
  S  S6  1  0.75000000  0.21256782  0.20785123  1
  S  S7  1  0.25000000  0.78743218  0.79214877  1
  S  S8  1  0.75000000  0.71256782  0.29214877  1
  S  S9  1  0.75000000  0.33671435  0.49765074  1
  S  S10  1  0.25000000  0.16328565  0.99765074  1
  S  S11  1  0.75000000  0.97249516  0.59980242  1
loop_
_geom_bond_atom_site_label_1
_geom_bond_atom_site_label_2
_geom_bond_distance
_geom_bond_site_symmetry_2
Ba0 S7 3.199771 1_555
Ba0 S7 3.199771 1_655
Ba0 S5 3.219276 1_555
Ba0 S5 3.219276 1_655
Ba0 S0 3.291600 1_555
Ba0 S0 3.291600 1_655
Ba0 S9 3.312268 1_555
Ba0 S3 3.444823 1_555
Ba0 S11 3.578301 1_555
Ba1 S8 3.199771 1_555
Ba1 S8 3.199771 1_455
Ba1 S6 3.219276 1_465
Ba1 S6 3.219276 1_565
Ba1 S1 3.291600 1_455
Ba1 S1 3.291600 1_555
Ba1 S10 3.312268 1_564
Ba1 S2 3.444823 1_565
Ba1 S4 3.578301 1_555
Ba2 S6 3.199771 1_555
Ba2 S6 3.199771 1_455
Ba2 S8 3.219276 1_455
Ba2 S8 3.219276 1_555
Ba2 S9 3.291600 1_455
Ba2 S9 3.291600 1_555
Ba2 S0 3.312268 1_555
Ba2 S4 3.444823 1_555
Ba2 S2 3.578301 1_555
Ba3 S5 3.199771 1_555
Ba3 S5 3.199771 1_655
Ba3 S7 3.219276 1_545
Ba3 S7 3.219276 1_645
Ba3 S10 3.291600 1_555
Ba3 S10 3.291600 1_655
Ba3 S1 3.312268 1_546
Ba3 S11 3.444823 1_545
Ba3 S3 3.578301 1_555
S0 Sn3 2.606848 1_455
S0 Sn3 2.606848 1_555
S1 Sn0 2.606848 1_654
S1 Sn0 2.606848 1_554
S2 Sn2 2.591945 1_555
S2 Sn3 2.671586 1_445
S2 Sn3 2.671586 1_545
S3 Sn1 2.591945 1_556
S3 Sn0 2.671586 1_555
S3 Sn0 2.671586 1_655
S4 Sn0 2.591945 1_554
S4 Sn1 2.671586 1_555
S4 Sn1 2.671586 1_455
S5 Sn2 2.454638 1_555
S6 Sn1 2.454638 1_555
S7 Sn0 2.454638 1_555
S8 Sn3 2.454638 1_555
S9 Sn2 2.606848 1_555
S9 Sn2 2.606848 1_655
S10 Sn1 2.606848 1_456
S10 Sn1 2.606848 1_556
S11 Sn3 2.591945 1_555
S11 Sn2 2.671586 1_565
S11 Sn2 2.671586 1_665
