# generated using pymatgen
data_Mg(SnO2)2
_symmetry_space_group_name_H-M   'P 1'
_cell_length_a   6.58954082
_cell_length_b   6.58954082
_cell_length_c   6.58954082
_cell_angle_alpha   60.00000000
_cell_angle_beta   60.00000000
_cell_angle_gamma   60.00000000
_symmetry_Int_Tables_number   1
_chemical_formula_structural   Mg(SnO2)2
_chemical_formula_sum   'Mg2 Sn4 O8'
_cell_volume   202.32542458
_cell_formula_units_Z   2
loop_
 _symmetry_equiv_pos_site_id
 _symmetry_equiv_pos_as_xyz
  1  'x, y, z'
loop_
 _atom_site_type_symbol
 _atom_site_label
 _atom_site_symmetry_multiplicity
 _atom_site_fract_x
 _atom_site_fract_y
 _atom_site_fract_z
 _atom_site_occupancy
  Mg  Mg0  1  0.75000000  0.75000000  0.75000000  1
  Mg  Mg1  1  0.50000000  0.50000000  0.50000000  1
  Sn  Sn0  1  0.12500000  0.12500000  0.62500000  1
  Sn  Sn1  1  0.62500000  0.12500000  0.12500000  1
  Sn  Sn2  1  0.12500000  0.12500000  0.12500000  1
  Sn  Sn3  1  0.12500000  0.62500000  0.12500000  1
  O  O0  1  0.88738600  0.37087100  0.37087100  1
  O  O1  1  0.37087100  0.37087100  0.88738600  1
  O  O2  1  0.37087100  0.37087100  0.37087100  1
  O  O3  1  0.36261400  0.87912900  0.87912900  1
  O  O4  1  0.87912900  0.36261400  0.87912900  1
  O  O5  1  0.87912900  0.87912900  0.36261400  1
  O  O6  1  0.37087100  0.88738600  0.37087100  1
  O  O7  1  0.87912900  0.87912900  0.87912900  1
loop_
_geom_bond_atom_site_label_1
_geom_bond_atom_site_label_2
_geom_bond_distance
_geom_bond_site_symmetry_2
Mg0 O4 2.084267 1_555
Mg0 O5 2.084267 1_555
Mg0 O3 2.084267 1_555
Mg0 O7 2.084273 1_555
Mg1 O1 2.084267 1_555
Mg1 O0 2.084267 1_555
Mg1 O6 2.084267 1_555
Mg1 O2 2.084273 1_555
O0 Sn2 2.291922 1_655
O0 Sn0 2.291927 1_655
O0 Sn3 2.291927 1_655
O1 Sn2 2.291922 1_556
O1 Sn3 2.291927 1_556
O1 Sn1 2.291927 1_556
O2 Sn1 2.291922 1_555
O2 Sn0 2.291922 1_555
O2 Sn3 2.291922 1_555
O3 Sn2 2.291922 1_566
O3 Sn0 2.291927 1_565
O3 Sn3 2.291927 1_556
O4 Sn2 2.291922 1_656
O4 Sn0 2.291927 1_655
O4 Sn1 2.291927 1_556
O5 Sn2 2.291922 1_665
O5 Sn3 2.291927 1_655
O5 Sn1 2.291927 1_565
O6 Sn2 2.291922 1_565
O6 Sn1 2.291927 1_565
O6 Sn0 2.291927 1_565
O7 Sn0 2.291922 1_665
O7 Sn3 2.291922 1_656
O7 Sn1 2.291922 1_566
