# generated using pymatgen
data_Gd2USe5
_symmetry_space_group_name_H-M   'P 1'
_cell_length_a   7.67847700
_cell_length_b   8.26551200
_cell_length_c   12.05951100
_cell_angle_alpha   90.00000000
_cell_angle_beta   90.00000000
_cell_angle_gamma   90.00000000
_symmetry_Int_Tables_number   1
_chemical_formula_structural   Gd2USe5
_chemical_formula_sum   'Gd8 U4 Se20'
_cell_volume   765.37548291
_cell_formula_units_Z   4
loop_
 _symmetry_equiv_pos_site_id
 _symmetry_equiv_pos_as_xyz
  1  'x, y, z'
loop_
 _atom_site_type_symbol
 _atom_site_label
 _atom_site_symmetry_multiplicity
 _atom_site_fract_x
 _atom_site_fract_y
 _atom_site_fract_z
 _atom_site_occupancy
  Gd  Gd0  1  0.53002800  0.49857100  0.32206500  1
  Gd  Gd1  1  0.96997200  0.00142900  0.82206500  1
  Gd  Gd2  1  0.46997200  0.99857100  0.67793500  1
  Gd  Gd3  1  0.03002800  0.50142900  0.17793500  1
  Gd  Gd4  1  0.46997200  0.50142900  0.67793500  1
  Gd  Gd5  1  0.03002800  0.99857100  0.17793500  1
  Gd  Gd6  1  0.53002800  0.00142900  0.32206500  1
  Gd  Gd7  1  0.96997200  0.49857100  0.82206500  1
  U  U0  1  0.07722900  0.75000000  0.48929500  1
  U  U1  1  0.42277100  0.75000000  0.98929500  1
  U  U2  1  0.92277100  0.25000000  0.51070500  1
  U  U3  1  0.57722900  0.25000000  0.01070500  1
  Se  Se0  1  0.82823800  0.95152900  0.59358400  1
  Se  Se1  1  0.67176200  0.54847100  0.09358400  1
  Se  Se2  1  0.17176200  0.45152900  0.40641600  1
  Se  Se3  1  0.32823800  0.04847100  0.90641600  1
  Se  Se4  1  0.17176200  0.04847100  0.40641600  1
  Se  Se5  1  0.32823800  0.45152900  0.90641600  1
  Se  Se6  1  0.82823800  0.54847100  0.59358400  1
  Se  Se7  1  0.67176200  0.95152900  0.09358400  1
  Se  Se8  1  0.82896100  0.75000000  0.31259400  1
  Se  Se9  1  0.67103900  0.75000000  0.81259400  1
  Se  Se10  1  0.17103900  0.25000000  0.68740600  1
  Se  Se11  1  0.32896100  0.25000000  0.18740600  1
  Se  Se12  1  0.46270500  0.75000000  0.50022700  1
  Se  Se13  1  0.03729500  0.75000000  0.00022700  1
  Se  Se14  1  0.53729500  0.25000000  0.49977300  1
  Se  Se15  1  0.96270500  0.25000000  0.99977300  1
  Se  Se16  1  0.19443500  0.75000000  0.71974100  1
  Se  Se17  1  0.30556500  0.75000000  0.21974100  1
  Se  Se18  1  0.80556500  0.25000000  0.28025900  1
  Se  Se19  1  0.69443500  0.25000000  0.78025900  1
loop_
_geom_bond_atom_site_label_1
_geom_bond_atom_site_label_2
_geom_bond_distance
_geom_bond_site_symmetry_2
Gd0 Se2 2.958649 1_555
Gd0 Se17 2.968525 1_555
Gd0 Se14 2.969362 1_555
Gd0 Se1 2.991082 1_555
Gd0 Se18 2.991927 1_555
Gd0 Se12 3.033537 1_555
Gd0 Se11 3.040059 1_555
Gd0 Se8 3.098475 1_555
Gd1 Se3 2.958649 1_655
Gd1 Se16 2.968525 1_645
Gd1 Se15 2.969362 1_555
Gd1 Se0 2.991082 1_545
Gd1 Se19 2.991927 1_555
Gd1 Se13 3.033537 1_646
Gd1 Se10 3.040059 1_655
Gd1 Se9 3.098475 1_545
Gd2 Se0 2.958649 1_555
Gd2 Se19 2.968525 1_565
Gd2 Se12 2.969362 1_555
Gd2 Se3 2.991082 1_565
Gd2 Se16 2.991927 1_555
Gd2 Se14 3.033537 1_565
Gd2 Se9 3.040059 1_555
Gd2 Se10 3.098475 1_565
Gd3 Se1 2.958649 1_455
Gd3 Se18 2.968525 1_455
Gd3 Se13 2.969362 1_555
Gd3 Se2 2.991082 1_555
Gd3 Se17 2.991927 1_555
Gd3 Se15 3.033537 1_454
Gd3 Se8 3.040059 1_455
Gd3 Se11 3.098475 1_555
Gd4 Se6 2.958649 1_555
Gd4 Se19 2.968525 1_555
Gd4 Se12 2.969362 1_555
Gd4 Se5 2.991082 1_555
Gd4 Se16 2.991927 1_555
Gd4 Se14 3.033537 1_555
Gd4 Se9 3.040059 1_555
Gd4 Se10 3.098475 1_555
Gd5 Se7 2.958649 1_455
Gd5 Se18 2.968525 1_465
Gd5 Se13 2.969362 1_555
Gd5 Se4 2.991082 1_565
Gd5 Se17 2.991927 1_555
Gd5 Se15 3.033537 1_464
Gd5 Se8 3.040059 1_455
Gd5 Se11 3.098475 1_565
Gd6 Se4 2.958649 1_555
Gd6 Se17 2.968525 1_545
Gd6 Se14 2.969362 1_555
Gd6 Se7 2.991082 1_545
Gd6 Se18 2.991927 1_555
Gd6 Se12 3.033537 1_545
Gd6 Se11 3.040059 1_555
Gd6 Se8 3.098475 1_545
Gd7 Se5 2.958649 1_655
Gd7 Se16 2.968525 1_655
Gd7 Se15 2.969362 1_555
Gd7 Se6 2.991082 1_555
Gd7 Se19 2.991927 1_555
Gd7 Se13 3.033537 1_656
Gd7 Se10 3.040059 1_655
Gd7 Se9 3.098475 1_555
Se0 U2 2.758988 1_565
Se0 U0 2.830493 1_655
Se1 U3 2.758988 1_555
Se1 U1 2.830493 1_554
Se2 U0 2.758988 1_555
Se2 U2 2.830493 1_455
Se3 U1 2.758988 1_545
Se3 U3 2.830493 1_556
Se4 U0 2.758988 1_545
Se4 U2 2.830493 1_455
Se5 U1 2.758988 1_555
Se5 U3 2.830493 1_556
Se6 U2 2.758988 1_555
Se6 U0 2.830493 1_655
Se7 U3 2.758988 1_565
Se7 U1 2.830493 1_554
Se8 U0 2.859180 1_655
Se9 U1 2.859180 1_555
Se10 U2 2.859180 1_455
Se11 U3 2.859180 1_555
Se12 U0 2.962803 1_555
Se13 U1 2.962803 1_554
Se14 U2 2.962803 1_555
Se15 U3 2.962803 1_556
Se16 U0 2.921154 1_555
Se17 U1 2.921154 1_554
Se18 U2 2.921154 1_555
Se19 U3 2.921154 1_556
