# generated using pymatgen
data_YbGePd
_symmetry_space_group_name_H-M   'P 1'
_cell_length_a   5.58282829
_cell_length_b   5.58282829
_cell_length_c   6.86820699
_cell_angle_alpha   51.78913770
_cell_angle_beta   51.78913770
_cell_angle_gamma   45.14696339
_symmetry_Int_Tables_number   1
_chemical_formula_structural   YbGePd
_chemical_formula_sum   'Yb2 Ge2 Pd2'
_cell_volume   112.67500653
_cell_formula_units_Z   2
loop_
 _symmetry_equiv_pos_site_id
 _symmetry_equiv_pos_as_xyz
  1  'x, y, z'
loop_
 _atom_site_type_symbol
 _atom_site_label
 _atom_site_symmetry_multiplicity
 _atom_site_fract_x
 _atom_site_fract_y
 _atom_site_fract_z
 _atom_site_occupancy
  Yb  Yb0  1  0.45281410  0.45281410  0.80833633  1
  Yb  Yb1  1  0.54718590  0.54718590  0.19166367  1
  Ge  Ge0  1  0.84222021  0.84222021  0.60249424  1
  Ge  Ge1  1  0.15777979  0.15777979  0.39750576  1
  Pd  Pd0  1  0.17756765  0.17756765  0.77225704  1
  Pd  Pd1  1  0.82243235  0.82243235  0.22774296  1
loop_
_geom_bond_atom_site_label_1
_geom_bond_atom_site_label_2
_geom_bond_distance
_geom_bond_site_symmetry_2
Ge0 Pd0 2.486411 1_655
Ge0 Pd0 2.486411 1_565
Ge0 Ge1 2.535846 1_665
Ge0 Pd1 2.714766 1_555
Ge0 Yb1 3.005256 1_565
Ge0 Yb1 3.005256 1_655
Ge0 Yb1 3.022636 1_556
Ge0 Yb0 3.170393 1_655
Ge0 Yb0 3.170393 1_565
Ge0 Yb0 3.242426 1_555
Ge1 Pd1 2.486411 1_545
Ge1 Pd1 2.486411 1_455
Ge1 Pd0 2.714766 1_555
Ge1 Yb0 3.005256 1_455
Ge1 Yb0 3.005256 1_545
Ge1 Yb0 3.022636 1_554
Ge1 Yb1 3.170393 1_455
Ge1 Yb1 3.170393 1_545
Ge1 Yb1 3.242426 1_555
Pd0 Pd1 2.801267 1_446
Pd0 Yb0 3.009480 1_555
Pd0 Yb0 3.042127 1_545
Pd0 Yb0 3.042127 1_455
Pd0 Yb1 3.083766 1_546
Pd0 Yb1 3.083766 1_456
Pd0 Yb1 3.172460 1_555
Pd1 Yb1 3.009480 1_555
Pd1 Yb1 3.042127 1_565
Pd1 Yb1 3.042127 1_655
Pd1 Yb0 3.083766 1_654
Pd1 Yb0 3.083766 1_564
Pd1 Yb0 3.172460 1_555
