# generated using pymatgen
data_LaMg6Mo
_symmetry_space_group_name_H-M   'P 1'
_cell_length_a   4.95889100
_cell_length_b   6.45076400
_cell_length_c   11.49971800
_cell_angle_alpha   90.00000000
_cell_angle_beta   90.00000000
_cell_angle_gamma   90.00000000
_symmetry_Int_Tables_number   1
_chemical_formula_structural   LaMg6Mo
_chemical_formula_sum   'La2 Mg12 Mo2'
_cell_volume   367.86028795
_cell_formula_units_Z   2
loop_
 _symmetry_equiv_pos_site_id
 _symmetry_equiv_pos_as_xyz
  1  'x, y, z'
loop_
 _atom_site_type_symbol
 _atom_site_label
 _atom_site_symmetry_multiplicity
 _atom_site_fract_x
 _atom_site_fract_y
 _atom_site_fract_z
 _atom_site_occupancy
  La  La0  1  0.00000000  0.50000000  0.30095700  1
  La  La1  1  0.00000000  0.00000000  0.80095700  1
  Mg  Mg0  1  0.00000000  0.25900100  0.07247500  1
  Mg  Mg1  1  0.00000000  0.74099900  0.07247500  1
  Mg  Mg2  1  0.00000000  0.00000000  0.33523100  1
  Mg  Mg3  1  0.50000000  0.76191600  0.42799400  1
  Mg  Mg4  1  0.50000000  0.23808400  0.42799400  1
  Mg  Mg5  1  0.50000000  0.00000000  0.17152300  1
  Mg  Mg6  1  0.00000000  0.75900100  0.57247500  1
  Mg  Mg7  1  0.00000000  0.24099900  0.57247500  1
  Mg  Mg8  1  0.00000000  0.50000000  0.83523100  1
  Mg  Mg9  1  0.50000000  0.26191600  0.92799400  1
  Mg  Mg10  1  0.50000000  0.73808400  0.92799400  1
  Mg  Mg11  1  0.50000000  0.50000000  0.67152300  1
  Mo  Mo0  1  0.50000000  0.50000000  0.19135000  1
  Mo  Mo1  1  0.50000000  0.00000000  0.69135000  1
loop_
_geom_bond_atom_site_label_1
_geom_bond_atom_site_label_2
_geom_bond_distance
_geom_bond_site_symmetry_2
La0 Mo0 2.781435 1_555
La0 Mo0 2.781435 1_455
La0 Mg1 3.052951 1_555
La0 Mg0 3.052951 1_555
La0 Mg2 3.249375 1_555
La0 Mg2 3.249375 1_565
La0 Mg3 3.337133 1_455
La0 Mg3 3.337133 1_555
La0 Mg4 3.337133 1_455
La0 Mg4 3.337133 1_555
La0 Mg6 3.541282 1_555
La0 Mg7 3.541282 1_555
La1 Mo1 2.781435 1_455
La1 Mo1 2.781435 1_555
La1 Mg7 3.052951 1_555
La1 Mg6 3.052951 1_545
La1 Mg8 3.249375 1_545
La1 Mg8 3.249375 1_555
La1 Mg10 3.337133 1_445
La1 Mg10 3.337133 1_545
La1 Mg9 3.337133 1_455
La1 Mg9 3.337133 1_555
La1 Mg0 3.541282 1_556
La1 Mg1 3.541282 1_546
Mg0 Mg9 2.984720 1_554
Mg0 Mg9 2.984720 1_454
Mg0 Mg1 3.109255 1_555
Mg0 Mg8 3.140088 1_554
Mg0 Mg5 3.199445 1_455
Mg0 Mg5 3.199445 1_555
Mg0 Mo0 3.230060 1_555
Mg0 Mo0 3.230060 1_455
Mg0 Mg1 3.341509 1_545
Mg0 Mg2 3.452768 1_555
Mg1 Mg10 2.984720 1_454
Mg1 Mg10 2.984720 1_554
Mg1 Mg8 3.140088 1_554
Mg1 Mg5 3.199445 1_465
Mg1 Mg5 3.199445 1_565
Mg1 Mo0 3.230060 1_555
Mg1 Mo0 3.230060 1_455
Mg1 Mg2 3.452768 1_565
Mg2 Mg4 3.105536 1_555
Mg2 Mg4 3.105536 1_455
Mg2 Mg3 3.105536 1_445
Mg2 Mg3 3.105536 1_545
Mg2 Mg5 3.113168 1_555
Mg2 Mg5 3.113168 1_455
Mg2 Mg7 3.140088 1_555
Mg2 Mg6 3.140088 1_545
Mg3 Mg6 2.984720 1_655
Mg3 Mg6 2.984720 1_555
Mg3 Mg4 3.071647 1_565
Mg3 Mo0 3.203169 1_555
Mg3 Mg5 3.325265 1_565
Mg3 Mg4 3.379117 1_555
Mg3 Mo1 3.395686 1_565
Mg4 Mg7 2.984720 1_555
Mg4 Mg7 2.984720 1_655
Mg4 Mo0 3.203169 1_555
Mg4 Mg5 3.325265 1_555
Mg4 Mo1 3.395686 1_555
Mg5 Mo0 3.233431 1_545
Mg5 Mo0 3.233431 1_555
Mg5 Mg9 3.270702 1_554
Mg6 Mg7 3.109255 1_565
Mg6 Mo1 3.230060 1_565
Mg6 Mo1 3.230060 1_465
Mg6 Mg7 3.341509 1_555
Mg6 Mg8 3.452768 1_555
Mg7 Mo1 3.230060 1_555
Mg7 Mo1 3.230060 1_455
Mg7 Mg8 3.452768 1_555
Mg8 Mg9 3.105536 1_455
Mg8 Mg9 3.105536 1_555
Mg9 Mo1 3.203169 1_555
Mg9 Mo0 3.395686 1_556
Mg10 Mg9 3.071647 1_555
Mg10 Mg8 3.105536 1_555
Mg10 Mg8 3.105536 1_655
Mg10 Mo1 3.203169 1_565
Mg10 Mg5 3.270702 1_566
Mg10 Mg11 3.325265 1_555
Mg10 Mg9 3.379117 1_565
Mg10 Mo0 3.395686 1_556
Mg11 Mg8 3.113168 1_655
Mg11 Mg8 3.113168 1_555
Mg11 Mg6 3.199445 1_655
Mg11 Mg6 3.199445 1_555
Mg11 Mg7 3.199445 1_655
Mg11 Mg7 3.199445 1_555
Mg11 Mo1 3.233431 1_555
Mg11 Mo1 3.233431 1_565
Mg11 Mg3 3.270702 1_555
Mg11 Mg4 3.270702 1_555
Mg11 Mg9 3.325265 1_555
