# generated using pymatgen
data_RbMg30CoO32
_symmetry_space_group_name_H-M   'P 1'
_cell_length_a   8.62236000
_cell_length_b   8.62236000
_cell_length_c   8.56446700
_cell_angle_alpha   90.00000000
_cell_angle_beta   90.00000000
_cell_angle_gamma   90.00000000
_symmetry_Int_Tables_number   1
_chemical_formula_structural   RbMg30CoO32
_chemical_formula_sum   'Rb1 Mg30 Co1 O32'
_cell_volume   636.72608679
_cell_formula_units_Z   1
loop_
 _symmetry_equiv_pos_site_id
 _symmetry_equiv_pos_as_xyz
  1  'x, y, z'
loop_
 _atom_site_type_symbol
 _atom_site_label
 _atom_site_symmetry_multiplicity
 _atom_site_fract_x
 _atom_site_fract_y
 _atom_site_fract_z
 _atom_site_occupancy
  Rb  Rb0  1  0.00000000  0.00000000  0.50000000  1
  Mg  Mg0  1  0.50000000  0.00000000  0.00000000  1
  Mg  Mg1  1  0.50000000  0.00000000  0.50000000  1
  Mg  Mg2  1  0.00000000  0.50000000  0.00000000  1
  Mg  Mg3  1  0.00000000  0.50000000  0.50000000  1
  Mg  Mg4  1  0.50000000  0.50000000  0.00000000  1
  Mg  Mg5  1  0.50000000  0.50000000  0.50000000  1
  Mg  Mg6  1  0.25487200  0.00000000  0.24943900  1
  Mg  Mg7  1  0.25487200  0.00000000  0.75056100  1
  Mg  Mg8  1  0.74512800  0.00000000  0.24943900  1
  Mg  Mg9  1  0.74512800  0.00000000  0.75056100  1
  Mg  Mg10  1  0.25001000  0.50000000  0.25125200  1
  Mg  Mg11  1  0.25001000  0.50000000  0.74874800  1
  Mg  Mg12  1  0.74999000  0.50000000  0.25125200  1
  Mg  Mg13  1  0.74999000  0.50000000  0.74874800  1
  Mg  Mg14  1  0.00000000  0.25487200  0.24943900  1
  Mg  Mg15  1  0.00000000  0.25487200  0.75056100  1
  Mg  Mg16  1  0.50000000  0.25001000  0.25125200  1
  Mg  Mg17  1  0.50000000  0.25001000  0.74874800  1
  Mg  Mg18  1  0.00000000  0.74512800  0.24943900  1
  Mg  Mg19  1  0.00000000  0.74512800  0.75056100  1
  Mg  Mg20  1  0.50000000  0.74999000  0.25125200  1
  Mg  Mg21  1  0.50000000  0.74999000  0.74874800  1
  Mg  Mg22  1  0.25053600  0.25053600  0.00000000  1
  Mg  Mg23  1  0.25279800  0.25279800  0.50000000  1
  Mg  Mg24  1  0.74946400  0.25053600  0.00000000  1
  Mg  Mg25  1  0.74720200  0.25279800  0.50000000  1
  Mg  Mg26  1  0.25053600  0.74946400  0.00000000  1
  Mg  Mg27  1  0.25279800  0.74720200  0.50000000  1
  Mg  Mg28  1  0.74946400  0.74946400  0.00000000  1
  Mg  Mg29  1  0.74720200  0.74720200  0.50000000  1
  Co  Co0  1  0.00000000  0.00000000  0.00000000  1
  O  O0  1  0.00000000  0.24599600  0.00000000  1
  O  O1  1  0.00000000  0.27843400  0.50000000  1
  O  O2  1  0.50000000  0.24936300  0.00000000  1
  O  O3  1  0.50000000  0.25475100  0.50000000  1
  O  O4  1  0.00000000  0.75400400  0.00000000  1
  O  O5  1  0.00000000  0.72156600  0.50000000  1
  O  O6  1  0.50000000  0.75063700  0.00000000  1
  O  O7  1  0.50000000  0.74524900  0.50000000  1
  O  O8  1  0.24886500  0.24886500  0.24961800  1
  O  O9  1  0.24886500  0.24886500  0.75038200  1
  O  O10  1  0.75113500  0.24886500  0.24961800  1
  O  O11  1  0.75113500  0.24886500  0.75038200  1
  O  O12  1  0.24886500  0.75113500  0.24961800  1
  O  O13  1  0.24886500  0.75113500  0.75038200  1
  O  O14  1  0.75113500  0.75113500  0.24961800  1
  O  O15  1  0.75113500  0.75113500  0.75038200  1
  O  O16  1  0.00000000  0.00000000  0.21743400  1
  O  O17  1  0.00000000  0.00000000  0.78256600  1
  O  O18  1  0.50000000  0.00000000  0.24281500  1
  O  O19  1  0.50000000  0.00000000  0.75718500  1
  O  O20  1  0.00000000  0.50000000  0.24281500  1
  O  O21  1  0.00000000  0.50000000  0.75718500  1
  O  O22  1  0.50000000  0.50000000  0.24809500  1
  O  O23  1  0.50000000  0.50000000  0.75190500  1
  O  O24  1  0.24599600  0.00000000  0.00000000  1
  O  O25  1  0.27843400  0.00000000  0.50000000  1
  O  O26  1  0.75400400  0.00000000  0.00000000  1
  O  O27  1  0.72156600  0.00000000  0.50000000  1
  O  O28  1  0.24936300  0.50000000  0.00000000  1
  O  O29  1  0.25475100  0.50000000  0.50000000  1
  O  O30  1  0.75063700  0.50000000  0.00000000  1
  O  O31  1  0.74524900  0.50000000  0.50000000  1
loop_
_geom_bond_atom_site_label_1
_geom_bond_atom_site_label_2
_geom_bond_distance
_geom_bond_site_symmetry_2
Mg0 O18 2.079581 1_555
Mg0 O19 2.079581 1_554
Mg0 O6 2.150098 1_545
Mg0 O2 2.150098 1_555
Mg0 O24 2.190114 1_555
Mg0 O26 2.190114 1_555
Mg1 O27 1.910422 1_555
Mg1 O25 1.910422 1_555
Mg1 O3 2.196555 1_555
Mg1 O7 2.196555 1_545
Mg1 O19 2.202652 1_555
Mg1 O18 2.202652 1_555
Mg2 O20 2.079581 1_555
Mg2 O21 2.079581 1_554
Mg2 O30 2.150098 1_455
Mg2 O28 2.150098 1_555
Mg2 O0 2.190114 1_555
Mg2 O4 2.190114 1_555
Mg3 O5 1.910422 1_555
Mg3 O1 1.910422 1_555
Mg3 O29 2.196555 1_555
Mg3 O31 2.196555 1_455
Mg3 O21 2.202652 1_555
Mg3 O20 2.202652 1_555
Mg4 O22 2.124801 1_555
Mg4 O23 2.124801 1_554
Mg4 O30 2.161082 1_555
Mg4 O2 2.161082 1_555
Mg4 O28 2.161082 1_555
Mg4 O6 2.161082 1_555
Mg5 O7 2.114625 1_555
Mg5 O31 2.114625 1_555
Mg5 O29 2.114625 1_555
Mg5 O3 2.114625 1_555
Mg5 O23 2.157432 1_555
Mg5 O22 2.157432 1_555
Mg6 O18 2.114343 1_555
Mg6 O24 2.137683 1_555
Mg6 O8 2.146429 1_555
Mg6 O12 2.146429 1_545
Mg6 O25 2.155517 1_555
Mg6 O16 2.214627 1_555
Mg7 O19 2.114343 1_555
Mg7 O24 2.137683 1_556
Mg7 O9 2.146429 1_555
Mg7 O13 2.146429 1_545
Mg7 O25 2.155517 1_555
Mg7 O17 2.214627 1_555
Mg8 O18 2.114343 1_555
Mg8 O26 2.137683 1_555
Mg8 O10 2.146429 1_555
Mg8 O14 2.146429 1_545
Mg8 O27 2.155517 1_555
Mg8 O16 2.214627 1_655
Mg9 O19 2.114343 1_555
Mg9 O26 2.137683 1_556
Mg9 O11 2.146429 1_555
Mg9 O15 2.146429 1_545
Mg9 O27 2.155517 1_555
Mg9 O17 2.214627 1_655
Mg10 O29 2.130786 1_555
Mg10 O28 2.151847 1_555
Mg10 O22 2.155673 1_555
Mg10 O20 2.156887 1_555
Mg10 O12 2.165444 1_555
Mg10 O8 2.165444 1_555
Mg11 O29 2.130786 1_555
Mg11 O28 2.151847 1_556
Mg11 O23 2.155673 1_555
Mg11 O21 2.156887 1_555
Mg11 O13 2.165444 1_555
Mg11 O9 2.165444 1_555
Mg12 O31 2.130786 1_555
Mg12 O30 2.151847 1_555
Mg12 O22 2.155673 1_555
Mg12 O20 2.156887 1_655
Mg12 O14 2.165444 1_555
Mg12 O10 2.165444 1_555
Mg13 O31 2.130786 1_555
Mg13 O30 2.151847 1_556
Mg13 O23 2.155673 1_555
Mg13 O21 2.156887 1_655
Mg13 O15 2.165444 1_555
Mg13 O11 2.165444 1_555
Mg14 O20 2.114343 1_555
Mg14 O0 2.137683 1_555
Mg14 O8 2.146429 1_555
Mg14 O10 2.146429 1_455
Mg14 O1 2.155517 1_555
Mg14 O16 2.214627 1_555
Mg15 O21 2.114343 1_555
Mg15 O0 2.137683 1_556
Mg15 O9 2.146429 1_555
Mg15 O11 2.146429 1_455
Mg15 O1 2.155517 1_555
Mg15 O17 2.214627 1_555
Mg16 O3 2.130786 1_555
Mg16 O2 2.151847 1_555
Mg16 O22 2.155673 1_555
Mg16 O18 2.156887 1_555
Mg16 O10 2.165444 1_555
Mg16 O8 2.165444 1_555
Mg17 O3 2.130786 1_555
Mg17 O2 2.151847 1_556
Mg17 O23 2.155673 1_555
Mg17 O19 2.156887 1_555
Mg17 O11 2.165444 1_555
Mg17 O9 2.165444 1_555
Mg18 O20 2.114343 1_555
Mg18 O4 2.137683 1_555
Mg18 O12 2.146429 1_555
Mg18 O14 2.146429 1_455
Mg18 O5 2.155517 1_555
Mg18 O16 2.214627 1_565
Mg19 O21 2.114343 1_555
Mg19 O4 2.137683 1_556
Mg19 O13 2.146429 1_555
Mg19 O15 2.146429 1_455
Mg19 O5 2.155517 1_555
Mg19 O17 2.214627 1_565
Mg20 O7 2.130786 1_555
Mg20 O6 2.151847 1_555
Mg20 O22 2.155673 1_555
Mg20 O18 2.156887 1_565
Mg20 O14 2.165444 1_555
Mg20 O12 2.165444 1_555
Mg21 O7 2.130786 1_555
Mg21 O6 2.151847 1_556
Mg21 O23 2.155673 1_555
Mg21 O19 2.156887 1_565
Mg21 O15 2.165444 1_555
Mg21 O13 2.165444 1_555
Mg22 O8 2.137942 1_555
Mg22 O9 2.137942 1_554
Mg22 O28 2.150992 1_555
Mg22 O2 2.150992 1_555
Mg22 O0 2.160566 1_555
Mg22 O24 2.160566 1_555
Mg23 O3 2.131531 1_555
Mg23 O29 2.131531 1_555
Mg23 O9 2.144925 1_555
Mg23 O8 2.144925 1_555
Mg23 O25 2.190895 1_555
Mg23 O1 2.190895 1_555
Mg24 O10 2.137942 1_555
Mg24 O11 2.137942 1_554
Mg24 O30 2.150992 1_555
Mg24 O2 2.150992 1_555
Mg24 O26 2.160566 1_555
Mg24 O0 2.160566 1_655
Mg25 O3 2.131531 1_555
Mg25 O31 2.131531 1_555
Mg25 O11 2.144925 1_555
Mg25 O10 2.144925 1_555
Mg25 O27 2.190895 1_555
Mg25 O1 2.190895 1_655
Mg26 O12 2.137942 1_555
Mg26 O13 2.137942 1_554
Mg26 O28 2.150992 1_555
Mg26 O6 2.150992 1_555
Mg26 O4 2.160566 1_555
Mg26 O24 2.160566 1_565
Mg27 O29 2.131531 1_555
Mg27 O7 2.131531 1_555
Mg27 O13 2.144925 1_555
Mg27 O12 2.144925 1_555
Mg27 O5 2.190895 1_555
Mg27 O25 2.190895 1_565
Mg28 O14 2.137942 1_555
Mg28 O15 2.137942 1_554
Mg28 O30 2.150992 1_555
Mg28 O6 2.150992 1_555
Mg28 O26 2.160566 1_565
Mg28 O4 2.160566 1_655
Mg29 O31 2.131531 1_555
Mg29 O7 2.131531 1_555
Mg29 O15 2.144925 1_555
Mg29 O14 2.144925 1_555
Mg29 O27 2.190895 1_565
Mg29 O5 2.190895 1_655
Co0 O16 1.862206 1_555
Co0 O17 1.862206 1_554
Co0 O26 2.121066 1_455
Co0 O4 2.121066 1_545
Co0 O24 2.121066 1_555
Co0 O0 2.121066 1_555
O1 Rb0 2.400758 1_555
O5 Rb0 2.400758 1_565
O16 Rb0 2.420027 1_555
O17 Rb0 2.420027 1_555
O25 Rb0 2.400758 1_555
O27 Rb0 2.400758 1_655
