# generated using pymatgen
data_Hf5CoSn3
_symmetry_space_group_name_H-M   'P 1'
_cell_length_a   5.75416816
_cell_length_b   8.55304924
_cell_length_c   8.55304766
_cell_angle_alpha   120.00021904
_cell_angle_beta   90.00003469
_cell_angle_gamma   90.00000859
_symmetry_Int_Tables_number   1
_chemical_formula_structural   Hf5CoSn3
_chemical_formula_sum   'Hf10 Co2 Sn6'
_cell_volume   364.54746852
_cell_formula_units_Z   2
loop_
 _symmetry_equiv_pos_site_id
 _symmetry_equiv_pos_as_xyz
  1  'x, y, z'
loop_
 _atom_site_type_symbol
 _atom_site_label
 _atom_site_symmetry_multiplicity
 _atom_site_fract_x
 _atom_site_fract_y
 _atom_site_fract_z
 _atom_site_occupancy
  Hf  Hf0  1  0.75000011  0.75153091  0.75152598  1
  Hf  Hf1  1  0.24999889  0.24847276  0.24846848  1
  Hf  Hf2  1  0.75000068  -0.00000365  0.24846954  1
  Hf  Hf3  1  0.24999997  -0.00000523  0.75152636  1
  Hf  Hf4  1  0.75000022  0.24847393  0.00000532  1
  Hf  Hf5  1  0.24999964  0.75153214  0.00000425  1
  Hf  Hf6  1  0.00000009  0.66666653  0.33333301  1
  Hf  Hf7  1  0.00000024  0.33333319  0.66666632  1
  Hf  Hf8  1  0.49999996  0.33333317  0.66666641  1
  Hf  Hf9  1  0.50000002  0.66666696  0.33333377  1
  Co  Co0  1  -0.00000227  0.00000006  -0.00000035  1
  Co  Co1  1  0.50000220  0.00000003  0.00000003  1
  Sn  Sn0  1  0.74999964  0.39631695  0.39629905  1
  Sn  Sn1  1  0.25000035  0.60370052  0.60368264  1
  Sn  Sn2  1  0.74999891  -0.00001872  0.60368627  1
  Sn  Sn3  1  0.25000141  -0.00001890  0.39629543  1
  Sn  Sn4  1  0.74999865  0.60370528  0.00001880  1
  Sn  Sn5  1  0.25000128  0.39631404  0.00001870  1
loop_
_geom_bond_atom_site_label_1
_geom_bond_atom_site_label_2
_geom_bond_distance
_geom_bond_site_symmetry_2
Hf0 Sn2 2.966752 1_565
Hf0 Sn4 2.966995 1_556
Hf0 Sn0 3.038208 1_555
Hf0 Sn1 3.142680 1_555
Hf0 Sn1 3.142684 1_655
Hf1 Sn5 2.966758 1_555
Hf1 Sn3 2.966995 1_555
Hf1 Sn1 3.038212 1_555
Hf1 Sn0 3.142681 1_455
Hf1 Sn0 3.142687 1_555
Hf2 Sn4 2.966748 1_545
Hf2 Sn0 2.967000 1_555
Hf2 Sn2 3.038250 1_555
Hf2 Sn3 3.142669 1_555
Hf2 Sn3 3.142675 1_655
Hf3 Sn1 2.966773 1_545
Hf3 Sn5 2.966989 1_556
Hf3 Sn3 3.038249 1_555
Hf3 Sn2 3.142667 1_555
Hf3 Sn2 3.142677 1_455
Hf4 Sn0 2.966769 1_555
Hf4 Sn2 2.966988 1_554
Hf4 Sn4 3.038254 1_555
Hf4 Sn5 3.142667 1_555
Hf4 Sn5 3.142677 1_655
Hf5 Sn3 2.966746 1_565
Hf5 Sn1 2.967005 1_554
Hf5 Sn5 3.038260 1_555
Hf5 Sn4 3.142669 1_555
Hf5 Sn4 3.142679 1_455
Hf6 Hf9 2.877084 1_555
Hf6 Hf9 2.877084 1_455
Hf6 Sn5 2.991909 1_555
Hf6 Sn1 2.991913 1_555
Hf6 Sn2 2.991913 1_465
Hf6 Sn0 2.991914 1_455
Hf6 Sn4 2.991914 1_455
Hf6 Sn3 2.991914 1_565
Hf7 Hf8 2.877082 1_555
Hf7 Hf8 2.877086 1_455
Hf7 Sn1 2.992129 1_555
Hf7 Sn0 2.992130 1_455
Hf7 Sn3 2.992139 1_555
Hf7 Sn4 2.992145 1_456
Hf7 Sn5 2.992145 1_556
Hf7 Sn2 2.992145 1_455
Hf8 Sn1 2.992129 1_555
Hf8 Sn0 2.992129 1_555
Hf8 Sn3 2.992130 1_555
Hf8 Sn4 2.992134 1_556
Hf8 Sn2 2.992139 1_555
Hf8 Sn5 2.992139 1_556
Hf9 Sn2 2.991901 1_565
Hf9 Sn5 2.991905 1_555
Hf9 Sn3 2.991906 1_565
Hf9 Sn1 2.991909 1_555
Hf9 Sn0 2.991911 1_555
Hf9 Sn4 2.991913 1_555
Co0 Hf0 2.566272 1_444
Co0 Hf4 2.566276 1_455
Co0 Hf1 2.566279 1_555
Co0 Hf2 2.566280 1_455
Co0 Hf5 2.566285 1_545
Co0 Hf3 2.566289 1_554
Co0 Co1 2.877058 1_455
Co0 Co1 2.877110 1_555
Co1 Hf0 2.566276 1_544
Co1 Hf4 2.566279 1_555
Co1 Hf2 2.566280 1_555
Co1 Hf5 2.566285 1_545
Co1 Hf1 2.566287 1_555
Co1 Hf3 2.566290 1_554
Sn0 Sn1 3.379912 1_555
Sn0 Sn1 3.379917 1_655
Sn2 Sn3 3.379937 1_555
Sn2 Sn3 3.379963 1_655
Sn4 Sn5 3.379939 1_555
Sn4 Sn5 3.379965 1_655
