# generated using pymatgen
data_Mo3W(SeS)4
_symmetry_space_group_name_H-M   'P 1'
_cell_length_a   3.25704910
_cell_length_b   3.25704910
_cell_length_c   36.86000100
_cell_angle_alpha   90.00000000
_cell_angle_beta   90.00000000
_cell_angle_gamma   119.99998168
_symmetry_Int_Tables_number   1
_chemical_formula_structural   Mo3W(SeS)4
_chemical_formula_sum   'Mo3 W1 Se4 S4'
_cell_volume   338.63720054
_cell_formula_units_Z   1
loop_
 _symmetry_equiv_pos_site_id
 _symmetry_equiv_pos_as_xyz
  1  'x, y, z'
loop_
 _atom_site_type_symbol
 _atom_site_label
 _atom_site_symmetry_multiplicity
 _atom_site_fract_x
 _atom_site_fract_y
 _atom_site_fract_z
 _atom_site_occupancy
  Mo  Mo0  1  0.33333300  0.66666700  0.09389900  1
  Mo  Mo1  1  0.33333300  0.66666700  0.46968600  1
  Mo  Mo2  1  0.66666700  0.33333300  0.28180600  1
  W  W0  1  0.66666700  0.33333300  0.65755600  1
  Se  Se0  1  0.33333300  0.66666700  0.32781600  1
  Se  Se1  1  0.33333300  0.66666700  0.70389200  1
  Se  Se2  1  0.33333300  0.66666700  0.23575100  1
  Se  Se3  1  0.33333300  0.66666700  0.61120800  1
  S  S0  1  0.66666700  0.33333300  0.05203500  1
  S  S1  1  0.66666700  0.33333300  0.42781300  1
  S  S2  1  0.66666700  0.33333300  0.13578500  1
  S  S3  1  0.66666700  0.33333300  0.51150100  1
loop_
_geom_bond_atom_site_label_1
_geom_bond_atom_site_label_2
_geom_bond_distance
_geom_bond_site_symmetry_2
Mo0 S0 2.432549 1_455
Mo0 S0 2.432549 1_565
Mo0 S0 2.432553 1_555
Mo0 S2 2.433064 1_565
Mo0 S2 2.433064 1_455
Mo0 S2 2.433068 1_555
Mo1 S3 2.431404 1_455
Mo1 S3 2.431404 1_565
Mo1 S3 2.431408 1_555
Mo1 S1 2.432760 1_455
Mo1 S1 2.432760 1_565
Mo1 S1 2.432764 1_555
Mo2 Se0 2.532250 1_545
Mo2 Se0 2.532250 1_655
Mo2 Se0 2.532254 1_555
Mo2 Se2 2.533361 1_545
Mo2 Se2 2.533361 1_655
Mo2 Se2 2.533365 1_555
Se1 W0 2.540314 1_455
Se1 W0 2.540314 1_565
Se1 W0 2.540317 1_555
Se3 W0 2.540611 1_455
Se3 W0 2.540611 1_565
Se3 W0 2.540615 1_555
