# generated using pymatgen
data_ZnWO4
_symmetry_space_group_name_H-M   'P 1'
_cell_length_a   6.49709090
_cell_length_b   6.49709090
_cell_length_c   6.49709090
_cell_angle_alpha   134.49920191
_cell_angle_beta   134.49920191
_cell_angle_gamma   66.30933045
_symmetry_Int_Tables_number   1
_chemical_formula_structural   ZnWO4
_chemical_formula_sum   'Zn2 W2 O8'
_cell_volume   137.35106595
_cell_formula_units_Z   2
loop_
 _symmetry_equiv_pos_site_id
 _symmetry_equiv_pos_as_xyz
  1  'x, y, z'
loop_
 _atom_site_type_symbol
 _atom_site_label
 _atom_site_symmetry_multiplicity
 _atom_site_fract_x
 _atom_site_fract_y
 _atom_site_fract_z
 _atom_site_occupancy
  Zn  Zn0  1  0.25000000  0.75000000  0.50000000  1
  Zn  Zn1  1  0.50000000  0.50000000  0.00000000  1
  W  W0  1  0.75000000  0.25000000  0.50000000  1
  W  W1  1  0.00000000  0.00000000  0.00000000  1
  O  O0  1  0.84763900  0.41011800  0.93626900  1
  O  O1  1  0.47384900  0.91137000  0.06373100  1
  O  O2  1  0.90236100  0.83988200  0.56373100  1
  O  O3  1  0.27615100  0.33863000  0.43626900  1
  O  O4  1  0.08863000  0.15236100  0.56247900  1
  O  O5  1  0.58988200  0.52615100  0.43752100  1
  O  O6  1  0.66137000  0.09763900  0.93752100  1
  O  O7  1  0.16011800  0.72384900  0.06247900  1
loop_
_geom_bond_atom_site_label_1
_geom_bond_atom_site_label_2
_geom_bond_distance
_geom_bond_site_symmetry_2
O0 W0 1.842596 1_555
O0 Zn0 2.237065 1_656
O0 Zn1 2.350755 1_556
O1 W0 1.842596 1_565
O1 Zn0 2.237065 1_554
O1 Zn1 2.350755 1_555
O2 W1 1.842596 1_666
O2 Zn1 2.237065 1_555
O2 Zn0 2.350755 1_655
O3 W1 1.842596 1_555
O3 Zn1 2.237065 1_556
O3 Zn0 2.350755 1_555
O4 W0 1.842596 1_455
O4 Zn0 2.237065 1_545
O4 Zn1 2.350755 1_556
O5 W0 1.842596 1_555
O5 Zn0 2.237065 1_555
O5 Zn1 2.350755 1_555
O6 W1 1.842596 1_656
O6 Zn1 2.237065 1_556
O6 Zn0 2.350755 1_545
O7 W1 1.842596 1_565
O7 Zn1 2.237065 1_555
O7 Zn0 2.350755 1_555
