# generated using pymatgen
data_Mg(W2O3)2
_symmetry_space_group_name_H-M   'P 1'
_cell_length_a   5.63674832
_cell_length_b   5.63674832
_cell_length_c   16.72175600
_cell_angle_alpha   90.00000000
_cell_angle_beta   90.00000000
_cell_angle_gamma   146.68391123
_symmetry_Int_Tables_number   1
_chemical_formula_structural   Mg(W2O3)2
_chemical_formula_sum   'Mg2 W8 O12'
_cell_volume   291.82007234
_cell_formula_units_Z   2
loop_
 _symmetry_equiv_pos_site_id
 _symmetry_equiv_pos_as_xyz
  1  'x, y, z'
loop_
 _atom_site_type_symbol
 _atom_site_label
 _atom_site_symmetry_multiplicity
 _atom_site_fract_x
 _atom_site_fract_y
 _atom_site_fract_z
 _atom_site_occupancy
  Mg  Mg0  1  0.32825400  0.67174600  0.75000000  1
  Mg  Mg1  1  0.67174600  0.32825400  0.25000000  1
  W  W0  1  0.12843600  0.87156400  0.05321300  1
  W  W1  1  0.62566900  0.37433100  0.63772700  1
  W  W2  1  0.87156400  0.12843600  0.94678700  1
  W  W3  1  0.37433100  0.62566900  0.36227300  1
  W  W4  1  0.12843600  0.87156400  0.44678700  1
  W  W5  1  0.87156400  0.12843600  0.55321300  1
  W  W6  1  0.37433100  0.62566900  0.13772700  1
  W  W7  1  0.62566900  0.37433100  0.86227300  1
  O  O0  1  0.50000000  0.50000000  0.50000000  1
  O  O1  1  0.50000000  0.50000000  0.00000000  1
  O  O2  1  0.99892900  0.00107100  0.84703600  1
  O  O3  1  0.00107100  0.99892900  0.15296400  1
  O  O4  1  0.00107100  0.99892900  0.34703600  1
  O  O5  1  0.99892900  0.00107100  0.65296400  1
  O  O6  1  0.27982700  0.72017300  0.87358300  1
  O  O7  1  0.72017300  0.27982700  0.12641700  1
  O  O8  1  0.72017300  0.27982700  0.37358300  1
  O  O9  1  0.27982700  0.72017300  0.62641700  1
  O  O10  1  0.71543000  0.28457000  0.75000000  1
  O  O11  1  0.28457000  0.71543000  0.25000000  1
loop_
_geom_bond_atom_site_label_1
_geom_bond_atom_site_label_2
_geom_bond_distance
_geom_bond_site_symmetry_2
Mg0 O10 2.023792 1_455
Mg0 O10 2.023792 1_565
Mg0 O9 2.131686 1_555
Mg0 O6 2.131686 1_555
Mg1 O11 2.023792 1_655
Mg1 O11 2.023792 1_545
Mg1 O8 2.131686 1_555
Mg1 O7 2.131686 1_555
O0 W5 2.308001 1_565
O0 W4 2.308001 1_545
O0 W5 2.308001 1_455
O0 W4 2.308001 1_655
O0 W3 2.673232 1_555
O0 W1 2.673232 1_555
O1 W2 2.308001 1_564
O1 W0 2.308001 1_545
O1 W0 2.308001 1_655
O1 W2 2.308001 1_454
O1 W6 2.673232 1_555
O1 W7 2.673232 1_554
O2 W7 2.132963 1_655
O2 W7 2.132963 1_545
O2 W2 2.162062 1_555
O3 W6 2.132963 1_455
O3 W6 2.132963 1_565
O3 W0 2.162062 1_555
O4 W3 2.132963 1_565
O4 W3 2.132963 1_455
O4 W4 2.162062 1_555
O5 W1 2.132963 1_655
O5 W1 2.132963 1_545
O5 W5 2.162062 1_555
O6 W2 2.256321 1_455
O6 W2 2.256321 1_565
O6 W7 2.327824 1_565
O6 W7 2.327824 1_455
O7 W0 2.256321 1_655
O7 W0 2.256321 1_545
O7 W6 2.327824 1_655
O7 W6 2.327824 1_545
O8 W4 2.256321 1_655
O8 W4 2.256321 1_545
O8 W3 2.327824 1_655
O8 W3 2.327824 1_545
O9 W5 2.256321 1_565
O9 W5 2.256321 1_455
O9 W1 2.327824 1_565
O9 W1 2.327824 1_455
O10 W7 2.112931 1_555
O10 W1 2.112931 1_555
O11 W6 2.112931 1_555
O11 W3 2.112931 1_555
