# generated using pymatgen
data_Nb7As4
_symmetry_space_group_name_H-M   'P 1'
_cell_length_a   3.55163800
_cell_length_b   7.98313786
_cell_length_c   14.30091862
_cell_angle_alpha   104.44741845
_cell_angle_beta   90.00000000
_cell_angle_gamma   102.85275319
_symmetry_Int_Tables_number   1
_chemical_formula_structural   Nb7As4
_chemical_formula_sum   'Nb14 As8'
_cell_volume   382.15467154
_cell_formula_units_Z   2
loop_
 _symmetry_equiv_pos_site_id
 _symmetry_equiv_pos_as_xyz
  1  'x, y, z'
loop_
 _atom_site_type_symbol
 _atom_site_label
 _atom_site_symmetry_multiplicity
 _atom_site_fract_x
 _atom_site_fract_y
 _atom_site_fract_z
 _atom_site_occupancy
  Nb  Nb0  1  0.00000000  0.00000000  0.00000000  1
  Nb  Nb1  1  0.50000000  0.00000000  0.50000000  1
  Nb  Nb2  1  0.43095400  0.86190900  0.82568700  1
  Nb  Nb3  1  0.56904600  0.13809100  0.17431300  1
  Nb  Nb4  1  0.19624100  0.39248200  0.31011600  1
  Nb  Nb5  1  0.80375900  0.60751800  0.68988400  1
  Nb  Nb6  1  0.21086800  0.42173600  0.79975400  1
  Nb  Nb7  1  0.78913200  0.57826400  0.20024600  1
  Nb  Nb8  1  0.33618200  0.67236300  0.02863200  1
  Nb  Nb9  1  0.66381800  0.32763700  0.97136800  1
  Nb  Nb10  1  0.00285800  0.00571600  0.66274700  1
  Nb  Nb11  1  0.99714200  0.99428400  0.33725300  1
  Nb  Nb12  1  0.17677000  0.35353900  0.54168700  1
  Nb  Nb13  1  0.82323000  0.64646100  0.45831300  1
  As  As0  1  0.17295100  0.34590100  0.11087100  1
  As  As1  1  0.82704900  0.65409900  0.88912900  1
  As  As2  1  0.37318200  0.74636500  0.60212700  1
  As  As3  1  0.62681800  0.25363500  0.39787300  1
  As  As4  1  0.37045100  0.74090100  0.33491000  1
  As  As5  1  0.62954900  0.25909900  0.66509000  1
  As  As6  1  0.06402600  0.12805300  0.84878000  1
  As  As7  1  0.93597400  0.87194700  0.15122000  1
loop_
_geom_bond_atom_site_label_1
_geom_bond_atom_site_label_2
_geom_bond_distance
_geom_bond_site_symmetry_2
As0 Nb7 2.621989 1_555
As0 Nb7 2.621992 1_455
As0 Nb9 2.647393 1_554
As0 Nb9 2.647398 1_454
As0 Nb3 2.709935 1_555
As0 Nb3 2.709935 1_455
As0 Nb0 2.752665 1_555
As0 Nb4 2.778800 1_555
As0 Nb8 3.060846 1_555
As1 Nb6 2.621989 1_555
As1 Nb6 2.621992 1_655
As1 Nb8 2.647393 1_556
As1 Nb8 2.647398 1_656
As1 Nb2 2.709935 1_555
As1 Nb2 2.709935 1_655
As1 Nb0 2.752665 1_666
As1 Nb5 2.778800 1_555
As1 Nb9 3.060846 1_555
As2 Nb5 2.567203 1_455
As2 Nb5 2.567205 1_555
As2 Nb10 2.661586 1_565
As2 Nb10 2.661588 1_665
As2 Nb13 2.677604 1_455
As2 Nb13 2.677604 1_555
As2 Nb1 2.739646 1_565
As2 Nb12 2.956743 1_555
As2 Nb2 3.091722 1_555
As3 Nb4 2.567203 1_655
As3 Nb4 2.567205 1_555
As3 Nb11 2.661586 1_545
As3 Nb11 2.661588 1_445
As3 Nb12 2.677604 1_555
As3 Nb12 2.677604 1_655
As3 Nb1 2.739646 1_555
As3 Nb13 2.956743 1_555
As3 Nb3 3.091722 1_555
As4 Nb4 2.643368 1_555
As4 Nb11 2.647650 1_555
As4 Nb11 2.647652 1_455
As4 Nb1 2.684019 1_565
As4 Nb7 2.686440 1_555
As4 Nb7 2.686442 1_455
As4 Nb13 2.733521 1_555
As4 Nb13 2.733526 1_455
As5 Nb5 2.643368 1_555
As5 Nb10 2.647650 1_555
As5 Nb10 2.647652 1_655
As5 Nb1 2.684019 1_555
As5 Nb6 2.686440 1_555
As5 Nb6 2.686442 1_655
As5 Nb12 2.733521 1_555
As5 Nb12 2.733526 1_655
As6 Nb6 2.556663 1_555
As6 Nb10 2.586131 1_555
As6 Nb0 2.602539 1_556
As6 Nb2 2.683897 1_445
As6 Nb2 2.683897 1_545
As6 Nb9 2.691874 1_555
As6 Nb9 2.691874 1_455
As7 Nb7 2.556663 1_555
As7 Nb11 2.586131 1_555
As7 Nb0 2.602539 1_665
As7 Nb3 2.683897 1_665
As7 Nb3 2.683897 1_565
As7 Nb8 2.691874 1_655
As7 Nb8 2.691874 1_555
