# generated using pymatgen
data_RbAg2SbS4
_symmetry_space_group_name_H-M   'P 1'
_cell_length_a   6.66367908
_cell_length_b   6.66367908
_cell_length_c   16.77187190
_cell_angle_alpha   90.00000000
_cell_angle_beta   90.00000000
_cell_angle_gamma   119.99999302
_symmetry_Int_Tables_number   1
_chemical_formula_structural   RbAg2SbS4
_chemical_formula_sum   'Rb3 Ag6 Sb3 S12'
_cell_volume   644.97123414
_cell_formula_units_Z   3
loop_
 _symmetry_equiv_pos_site_id
 _symmetry_equiv_pos_as_xyz
  1  'x, y, z'
loop_
 _atom_site_type_symbol
 _atom_site_label
 _atom_site_symmetry_multiplicity
 _atom_site_fract_x
 _atom_site_fract_y
 _atom_site_fract_z
 _atom_site_occupancy
  Rb  Rb0  1  1.00000000  0.55695483  0.83333300  1
  Rb  Rb1  1  0.55695483  1.00000000  0.16666700  1
  Rb  Rb2  1  0.44304517  0.44304517  0.50000000  1
  Ag  Ag0  1  0.90773775  0.60123350  0.07279865  1
  Ag  Ag1  1  0.69349574  0.09226225  0.40613265  1
  Ag  Ag2  1  0.39876650  0.30650426  0.73946565  1
  Ag  Ag3  1  0.09226225  0.69349574  0.59386735  1
  Ag  Ag4  1  0.60123350  0.90773775  0.92720135  1
  Ag  Ag5  1  0.30650426  0.39876650  0.26053435  1
  Sb  Sb0  1  0.71998053  0.00000000  0.66666700  1
  Sb  Sb1  1  0.00000000  0.71998053  0.33333300  1
  Sb  Sb2  1  0.28001947  0.28001947  0.00000000  1
  S  S0  1  0.66829639  0.76192444  0.32709164  1
  S  S1  1  0.23807556  0.90637195  0.99375864  1
  S  S2  1  0.09362805  0.33170361  0.66042464  1
  S  S3  1  0.90637195  0.23807556  0.00624136  1
  S  S4  1  0.33170361  0.09362805  0.33957536  1
  S  S5  1  0.76192444  0.66829639  0.67290836  1
  S  S6  1  0.97722605  0.50084517  0.44694874  1
  S  S7  1  0.50084517  0.97722605  0.55305126  1
  S  S8  1  0.52361913  0.02277395  0.78028174  1
  S  S9  1  0.47638087  0.49915483  0.88638526  1
  S  S10  1  0.02277395  0.52361913  0.21971826  1
  S  S11  1  0.49915483  0.47638087  0.11361474  1
loop_
_geom_bond_atom_site_label_1
_geom_bond_atom_site_label_2
_geom_bond_distance
_geom_bond_site_symmetry_2
Rb0 S5 3.388782 1_555
Rb0 S1 3.388795 1_655
Rb0 S8 3.430867 1_665
Rb0 S9 3.430871 1_555
Rb0 S2 3.462475 1_655
Rb0 S3 3.462475 1_556
Rb0 S8 3.498548 1_555
Rb0 S9 3.498552 1_655
Rb1 S0 3.388782 1_555
Rb1 S3 3.388795 1_565
Rb1 S10 3.430867 1_665
Rb1 S11 3.430871 1_555
Rb1 S4 3.462475 1_565
Rb1 S1 3.462475 1_554
Rb1 S10 3.498548 1_555
Rb1 S11 3.498552 1_565
Rb2 S4 3.388782 1_555
Rb2 S2 3.388782 1_555
Rb2 S6 3.430867 1_455
Rb2 S7 3.430867 1_545
Rb2 S5 3.462475 1_555
Rb2 S0 3.462475 1_555
Rb2 S7 3.498548 1_555
Rb2 S6 3.498548 1_555
Ag0 S1 2.502294 1_654
Ag0 S11 2.511677 1_555
Ag0 S3 2.660903 1_555
Ag0 S10 2.706187 1_655
Ag1 S0 2.502303 1_545
Ag1 S6 2.511677 1_555
Ag1 S4 2.660903 1_555
Ag1 S7 2.706172 1_545
Ag2 S2 2.502302 1_555
Ag2 S8 2.511677 1_555
Ag2 S5 2.660904 1_555
Ag2 S9 2.706188 1_555
Ag3 S5 2.502303 1_455
Ag3 S7 2.511677 1_555
Ag3 S2 2.660903 1_555
Ag3 S6 2.706172 1_455
Ag4 S3 2.502294 1_566
Ag4 S9 2.511677 1_555
Ag4 S1 2.660903 1_555
Ag4 S8 2.706187 1_565
Ag5 S4 2.502302 1_555
Ag5 S10 2.511677 1_555
Ag5 S0 2.660904 1_555
Ag5 S11 2.706188 1_555
S0 Sb1 2.364867 1_655
S1 Sb2 2.364867 1_566
S2 Sb0 2.364868 1_455
S3 Sb2 2.364867 1_655
S4 Sb1 2.364868 1_545
S5 Sb0 2.364867 1_565
S6 Sb1 2.358997 1_655
S7 Sb0 2.358997 1_565
S8 Sb0 2.358983 1_555
S9 Sb2 2.358983 1_556
S10 Sb1 2.358983 1_555
S11 Sb2 2.358983 1_555
