# generated using pymatgen
data_Sr2LaTi2Nb3O15
_symmetry_space_group_name_H-M   'P 1'
_cell_length_a   3.96007100
_cell_length_b   12.44021200
_cell_length_c   12.53131500
_cell_angle_alpha   90.00000000
_cell_angle_beta   90.00000000
_cell_angle_gamma   90.00000000
_symmetry_Int_Tables_number   1
_chemical_formula_structural   Sr2LaTi2Nb3O15
_chemical_formula_sum   'Sr4 La2 Ti4 Nb6 O30'
_cell_volume   617.34424069
_cell_formula_units_Z   2
loop_
 _symmetry_equiv_pos_site_id
 _symmetry_equiv_pos_as_xyz
  1  'x, y, z'
loop_
 _atom_site_type_symbol
 _atom_site_label
 _atom_site_symmetry_multiplicity
 _atom_site_fract_x
 _atom_site_fract_y
 _atom_site_fract_z
 _atom_site_occupancy
  Sr  Sr0  1  0.00000000  0.33006100  0.16833600  1
  Sr  Sr1  1  0.00000000  0.66993900  0.83166400  1
  Sr  Sr2  1  0.00000000  0.83006100  0.33166400  1
  Sr  Sr3  1  0.00000000  0.16993900  0.66833600  1
  La  La0  1  0.00000000  0.50000000  0.50000000  1
  La  La1  1  0.00000000  0.00000000  0.00000000  1
  Ti  Ti0  1  0.50000000  0.28861100  0.42148400  1
  Ti  Ti1  1  0.50000000  0.71138900  0.57851600  1
  Ti  Ti2  1  0.50000000  0.78861100  0.07851600  1
  Ti  Ti3  1  0.50000000  0.21138900  0.92148400  1
  Nb  Nb0  1  0.50000000  0.58028800  0.28885100  1
  Nb  Nb1  1  0.50000000  0.41971200  0.71114900  1
  Nb  Nb2  1  0.50000000  0.91971200  0.78885100  1
  Nb  Nb3  1  0.50000000  0.08028800  0.21114900  1
  Nb  Nb4  1  0.50000000  0.00000000  0.50000000  1
  Nb  Nb5  1  0.50000000  0.50000000  0.00000000  1
  O  O0  1  0.50000000  0.33985000  0.00701800  1
  O  O1  1  0.50000000  0.66015000  0.99298200  1
  O  O2  1  0.50000000  0.83985000  0.49298200  1
  O  O3  1  0.50000000  0.16015000  0.50701800  1
  O  O4  1  0.50000000  0.98696200  0.33957500  1
  O  O5  1  0.50000000  0.01303800  0.66042500  1
  O  O6  1  0.50000000  0.51303800  0.83957500  1
  O  O7  1  0.50000000  0.48696200  0.16042500  1
  O  O8  1  0.00000000  0.30304800  0.42211400  1
  O  O9  1  0.00000000  0.69695200  0.57788600  1
  O  O10  1  0.00000000  0.80304800  0.07788600  1
  O  O11  1  0.00000000  0.19695200  0.92211400  1
  O  O12  1  0.00000000  0.57979700  0.30040100  1
  O  O13  1  0.00000000  0.42020300  0.69959900  1
  O  O14  1  0.00000000  0.92020300  0.80040100  1
  O  O15  1  0.00000000  0.07979700  0.19959900  1
  O  O16  1  0.50000000  0.43830800  0.36866600  1
  O  O17  1  0.50000000  0.56169200  0.63133400  1
  O  O18  1  0.50000000  0.93830800  0.13133400  1
  O  O19  1  0.50000000  0.06169200  0.86866600  1
  O  O20  1  0.50000000  0.63438300  0.43725100  1
  O  O21  1  0.50000000  0.36561700  0.56274900  1
  O  O22  1  0.50000000  0.86561700  0.93725100  1
  O  O23  1  0.50000000  0.13438300  0.06274900  1
  O  O24  1  0.50000000  0.22849800  0.27281200  1
  O  O25  1  0.50000000  0.77150200  0.72718800  1
  O  O26  1  0.50000000  0.72849800  0.22718800  1
  O  O27  1  0.50000000  0.27150200  0.77281200  1
  O  O28  1  0.00000000  0.00000000  0.50000000  1
  O  O29  1  0.00000000  0.50000000  0.00000000  1
loop_
_geom_bond_atom_site_label_1
_geom_bond_atom_site_label_2
_geom_bond_distance
_geom_bond_site_symmetry_2
La0 O8 2.637369 1_555
La0 O9 2.637369 1_555
La0 O17 2.686662 1_555
La0 O17 2.686662 1_455
La0 O16 2.686662 1_555
La0 O16 2.686662 1_455
La0 O13 2.691027 1_555
La0 O12 2.691027 1_555
La0 O20 2.708064 1_455
La0 O20 2.708064 1_555
La0 O21 2.708064 1_455
La0 O21 2.708064 1_555
La1 O10 2.637369 1_545
La1 O11 2.637369 1_554
La1 O18 2.686662 1_545
La1 O18 2.686662 1_445
La1 O19 2.686662 1_454
La1 O19 2.686662 1_554
La1 O15 2.691027 1_555
La1 O14 2.691027 1_544
La1 O23 2.708064 1_455
La1 O23 2.708064 1_555
La1 O22 2.708064 1_444
La1 O22 2.708064 1_544
Nb0 O20 1.977664 1_555
Nb0 O7 1.984416 1_555
Nb0 O12 1.985328 1_655
Nb0 O12 1.985328 1_555
Nb0 O26 1.999140 1_555
Nb0 O16 2.029791 1_555
Nb1 O21 1.977664 1_555
Nb1 O6 1.984416 1_555
Nb1 O13 1.985328 1_655
Nb1 O13 1.985328 1_555
Nb1 O27 1.999140 1_555
Nb1 O17 2.029791 1_555
Nb2 O22 1.977664 1_555
Nb2 O5 1.984416 1_565
Nb2 O14 1.985328 1_555
Nb2 O14 1.985328 1_655
Nb2 O25 1.999140 1_555
Nb2 O19 2.029791 1_565
Nb3 O23 1.977664 1_555
Nb3 O4 1.984416 1_545
Nb3 O15 1.985328 1_555
Nb3 O15 1.985328 1_655
Nb3 O24 1.999140 1_555
Nb3 O18 2.029791 1_545
Nb4 O28 1.980036 1_655
Nb4 O28 1.980036 1_555
Nb4 O2 1.994240 1_545
Nb4 O3 1.994240 1_555
Nb4 O5 2.016869 1_555
Nb4 O4 2.016869 1_545
Nb5 O29 1.980036 1_555
Nb5 O29 1.980036 1_655
Nb5 O0 1.994240 1_555
Nb5 O1 1.994240 1_554
Nb5 O7 2.016869 1_555
Nb5 O6 2.016869 1_554
O0 Ti3 1.924250 1_554
O0 Sr0 2.832303 1_655
O0 Sr0 2.832303 1_555
O1 Ti2 1.924250 1_556
O1 Sr1 2.832303 1_655
O1 Sr1 2.832303 1_555
O2 Ti1 1.924250 1_555
O2 Sr2 2.832303 1_555
O2 Sr2 2.832303 1_655
O3 Ti0 1.924250 1_555
O3 Sr3 2.832303 1_555
O3 Sr3 2.832303 1_655
O4 Sr2 2.782123 1_655
O4 Sr2 2.782123 1_555
O5 Sr3 2.782123 1_555
O5 Sr3 2.782123 1_655
O6 Sr1 2.782123 1_555
O6 Sr1 2.782123 1_655
O7 Sr0 2.782123 1_555
O7 Sr0 2.782123 1_655
O8 Ti0 1.988180 1_555
O8 Ti0 1.988180 1_455
O8 Sr0 3.197878 1_555
O9 Ti1 1.988180 1_455
O9 Ti1 1.988180 1_555
O9 Sr1 3.197878 1_555
O10 Ti2 1.988180 1_455
O10 Ti2 1.988180 1_555
O10 Sr2 3.197878 1_555
O11 Ti3 1.988180 1_555
O11 Ti3 1.988180 1_455
O11 Sr3 3.197878 1_555
O12 Sr2 3.137889 1_555
O13 Sr3 3.137889 1_555
O14 Sr1 3.137889 1_555
O15 Sr0 3.137889 1_555
O16 Ti0 1.976387 1_555
O17 Ti1 1.976387 1_555
O18 Ti2 1.976387 1_555
O19 Ti3 1.976387 1_555
O20 Ti1 2.012820 1_555
O21 Ti0 2.012820 1_555
O22 Ti2 2.012820 1_556
O23 Ti3 2.012820 1_554
O24 Ti0 2.007538 1_555
O24 Sr0 2.689042 1_555
O24 Sr0 2.689042 1_655
O25 Ti1 2.007538 1_555
O25 Sr1 2.689042 1_555
O25 Sr1 2.689042 1_655
O26 Ti2 2.007538 1_555
O26 Sr2 2.689042 1_555
O26 Sr2 2.689042 1_655
O27 Ti3 2.007538 1_555
O27 Sr3 2.689042 1_555
O27 Sr3 2.689042 1_655
O28 Sr3 2.986502 1_555
O28 Sr2 2.986502 1_545
O29 Sr0 2.986502 1_555
O29 Sr1 2.986502 1_554
