# generated using pymatgen
data_K2Ba7(Si2O5)8
_symmetry_space_group_name_H-M   'P 1'
_cell_length_a   7.74431572
_cell_length_b   8.23407842
_cell_length_c   16.56056732
_cell_angle_alpha   100.18695635
_cell_angle_beta   76.47804493
_cell_angle_gamma   90.00000000
_symmetry_Int_Tables_number   1
_chemical_formula_structural   K2Ba7(Si2O5)8
_chemical_formula_sum   'K2 Ba7 Si16 O40'
_cell_volume   1009.62038207
_cell_formula_units_Z   1
loop_
 _symmetry_equiv_pos_site_id
 _symmetry_equiv_pos_as_xyz
  1  'x, y, z'
loop_
 _atom_site_type_symbol
 _atom_site_label
 _atom_site_symmetry_multiplicity
 _atom_site_fract_x
 _atom_site_fract_y
 _atom_site_fract_z
 _atom_site_occupancy
  K  K0  1  0.04036992  0.72583224  0.91926017  1
  K  K1  1  0.95963008  0.27416776  0.08073983  1
  Ba  Ba0  1  0.38564796  0.30574341  0.22870407  1
  Ba  Ba1  1  0.61435204  0.69425659  0.77129593  1
  Ba  Ba2  1  0.27029899  0.09974065  0.45940303  1
  Ba  Ba3  1  0.72970101  0.90025935  0.54059697  1
  Ba  Ba4  1  0.14893135  0.93899234  0.70213730  1
  Ba  Ba5  1  0.85106865  0.06100766  0.29786270  1
  Ba  Ba6  1  0.50000000  0.50000000  -0.00000000  1
  Si  Si0  1  0.46503164  0.24621130  0.66550725  1
  Si  Si1  1  0.86946212  0.24621130  0.66550725  1
  Si  Si2  1  0.53496836  0.75378870  0.33449275  1
  Si  Si3  1  0.13053788  0.75378870  0.33449275  1
  Si  Si4  1  0.40932544  0.56643381  0.59895427  1
  Si  Si5  1  0.99172030  0.56643381  0.59895427  1
  Si  Si6  1  0.59067456  0.43356619  0.40104573  1
  Si  Si7  1  0.00827970  0.43356619  0.40104573  1
  Si  Si8  1  0.34251080  0.02386295  0.90868617  1
  Si  Si9  1  0.74880303  0.02386295  0.90868617  1
  Si  Si10  1  0.65748920  0.97613705  0.09131383  1
  Si  Si11  1  0.25119697  0.97613705  0.09131383  1
  Si  Si12  1  0.27458880  0.34485392  0.85166114  1
  Si  Si13  1  0.87375006  0.34485392  0.85166114  1
  Si  Si14  1  0.72541120  0.65514608  0.14833886  1
  Si  Si15  1  0.12624994  0.65514608  0.14833886  1
  O  O0  1  0.33971577  0.80163900  0.32056746  1
  O  O1  1  0.66028423  0.19836100  0.67943254  1
  O  O2  1  0.05810545  0.36043761  0.88379010  1
  O  O3  1  0.94189455  0.63956239  0.11620990  1
  O  O4  1  0.45520417  0.03006221  0.08959265  1
  O  O5  1  0.54479583  0.96993779  0.91040735  1
  O  O6  1  0.19391161  0.55872311  0.61217579  1
  O  O7  1  0.80608839  0.44127689  0.38782421  1
  O  O8  1  0.36010056  0.51862115  0.86652035  1
  O  O9  1  0.77337809  0.51862115  0.86652035  1
  O  O10  1  0.63989944  0.48137885  0.13347965  1
  O  O11  1  0.22662191  0.48137885  0.13347965  1
  O  O12  1  0.46556320  0.74517215  0.63401990  1
  O  O13  1  0.90041690  0.74517215  0.63401990  1
  O  O14  1  0.53443680  0.25482785  0.36598010  1
  O  O15  1  0.09958310  0.25482785  0.36598010  1
  O  O16  1  0.47113458  0.43828295  0.65301375  1
  O  O17  1  0.87585167  0.43828295  0.65301375  1
  O  O18  1  0.52886542  0.56171705  0.34698625  1
  O  O19  1  0.12414833  0.56171705  0.34698625  1
  O  O20  1  0.33731255  0.22503101  0.91086358  1
  O  O21  1  0.75182387  0.22503101  0.91086358  1
  O  O22  1  0.66268745  0.77496899  0.08913642  1
  O  O23  1  0.24817613  0.77496899  0.08913642  1
  O  O24  1  0.41827932  0.11497417  0.59266957  1
  O  O25  1  0.98905110  0.11497417  0.59266957  1
  O  O26  1  0.58172068  0.88502583  0.40733043  1
  O  O27  1  0.01094890  0.88502583  0.40733043  1
  O  O28  1  0.32059105  0.24198158  0.75483832  1
  O  O29  1  0.92457063  0.24198158  0.75483832  1
  O  O30  1  0.67940895  0.75801842  0.24516168  1
  O  O31  1  0.07542937  0.75801842  0.24516168  1
  O  O32  1  0.50000000  0.50000000  0.50000000  1
  O  O33  1  0.00000000  0.50000000  0.50000000  1
  O  O34  1  0.29256786  0.91093098  0.83104174  1
  O  O35  1  0.87639040  0.91093098  0.83104174  1
  O  O36  1  0.70743214  0.08906902  0.16895826  1
  O  O37  1  0.12360960  0.08906902  0.16895826  1
  O  O38  1  0.21447862  -0.00000000  -0.00000000  1
  O  O39  1  0.78552138  -0.00000000  -0.00000000  1
loop_
_geom_bond_atom_site_label_1
_geom_bond_atom_site_label_2
_geom_bond_distance
_geom_bond_site_symmetry_2
K0 O34 2.779420 1_555
K0 O35 2.779420 1_455
K0 O8 2.875158 1_555
K0 O9 2.875165 1_455
K0 O38 2.911641 1_566
K0 O39 2.911641 1_466
K0 O2 2.958589 1_555
K0 O3 3.373510 1_456
K1 O36 2.779420 1_555
K1 O37 2.779420 1_655
K1 O10 2.875158 1_555
K1 O11 2.875165 1_655
K1 O39 2.911641 1_555
K1 O38 2.911641 1_655
K1 O3 2.958589 1_555
K1 O2 3.373510 1_654
Ba0 O11 2.794625 1_555
Ba0 O10 2.794630 1_555
Ba0 O15 2.869461 1_555
Ba0 O14 2.869461 1_555
Ba0 O4 2.884476 1_555
Ba0 O37 2.931663 1_555
Ba0 O36 2.931663 1_555
Ba0 O19 3.010838 1_555
Ba0 O18 3.010838 1_555
Ba1 O9 2.794625 1_555
Ba1 O8 2.794630 1_555
Ba1 O13 2.869461 1_555
Ba1 O12 2.869461 1_555
Ba1 O5 2.884476 1_555
Ba1 O35 2.931663 1_555
Ba1 O34 2.931663 1_555
Ba1 O17 3.010838 1_555
Ba1 O16 3.010838 1_555
Ba2 O24 2.699000 1_555
Ba2 O25 2.699005 1_455
Ba2 O14 2.725360 1_555
Ba2 O15 2.725365 1_555
Ba2 O26 2.859031 1_545
Ba2 O27 2.859037 1_545
Ba2 O0 3.004340 1_545
Ba3 O26 2.699000 1_555
Ba3 O27 2.699005 1_655
Ba3 O12 2.725360 1_555
Ba3 O13 2.725365 1_555
Ba3 O24 2.859031 1_565
Ba3 O25 2.859037 1_565
Ba3 O1 3.004340 1_565
Ba4 O34 2.670720 1_555
Ba4 O35 2.670720 1_455
Ba4 O12 2.811042 1_555
Ba4 O13 2.811042 1_455
Ba4 O29 2.919857 1_465
Ba4 O28 2.919857 1_565
Ba4 O24 2.982960 1_565
Ba4 O25 2.982961 1_465
Ba4 O6 3.201929 1_555
Ba5 O36 2.670720 1_555
Ba5 O37 2.670720 1_655
Ba5 O15 2.811042 1_655
Ba5 O14 2.811042 1_555
Ba5 O30 2.919857 1_545
Ba5 O31 2.919857 1_645
Ba5 O26 2.982960 1_545
Ba5 O27 2.982961 1_645
Ba5 O7 3.201929 1_555
Ba6 O9 2.706184 1_554
Ba6 O11 2.706184 1_555
Ba6 O8 2.706189 1_554
Ba6 O10 2.706189 1_555
Ba6 O21 2.929182 1_554
Ba6 O23 2.929182 1_555
Ba6 O20 2.929182 1_554
Ba6 O22 2.929182 1_555
O0 Si2 1.640142 1_555
O0 Si3 1.640142 1_555
O1 Si0 1.640142 1_555
O1 Si1 1.640142 1_555
O2 Si12 1.633700 1_555
O2 Si13 1.633708 1_455
O3 Si14 1.633700 1_555
O3 Si15 1.633708 1_655
O4 Si10 1.636287 1_545
O4 Si11 1.636294 1_545
O5 Si8 1.636287 1_565
O5 Si9 1.636294 1_565
O6 Si5 1.633723 1_455
O6 Si4 1.633731 1_555
O7 Si7 1.633723 1_655
O7 Si6 1.633731 1_555
O8 Si12 1.580504 1_555
O9 Si13 1.580507 1_555
O10 Si14 1.580504 1_555
O11 Si15 1.580507 1_555
O12 Si4 1.583950 1_555
O13 Si5 1.583950 1_555
O14 Si6 1.583950 1_555
O15 Si7 1.583950 1_555
O16 Si0 1.630172 1_555
O16 Si4 1.636647 1_555
O17 Si1 1.630171 1_555
O17 Si5 1.636647 1_555
O18 Si2 1.630172 1_555
O18 Si6 1.636647 1_555
O19 Si3 1.630171 1_555
O19 Si7 1.636647 1_555
O20 Si8 1.650723 1_555
O20 Si12 1.653935 1_555
O21 Si9 1.650723 1_555
O21 Si13 1.653935 1_555
O22 Si10 1.650723 1_555
O22 Si14 1.653935 1_555
O23 Si11 1.650723 1_555
O23 Si15 1.653935 1_555
O24 Si0 1.580186 1_555
O25 Si1 1.580183 1_555
O26 Si2 1.580186 1_555
O27 Si3 1.580183 1_555
O28 Si12 1.633368 1_555
O28 Si0 1.638714 1_555
O29 Si13 1.633368 1_555
O29 Si1 1.638710 1_555
O30 Si14 1.633368 1_555
O30 Si2 1.638714 1_555
O31 Si15 1.633368 1_555
O31 Si3 1.638710 1_555
O32 Si6 1.619440 1_555
O32 Si4 1.619440 1_555
O33 Si7 1.619440 1_555
O33 Si5 1.619440 1_455
O34 Si8 1.573942 1_565
O35 Si9 1.573942 1_565
O36 Si10 1.573942 1_545
O37 Si11 1.573942 1_545
O38 Si8 1.646947 1_554
O38 Si11 1.646947 1_545
O39 Si9 1.646947 1_554
O39 Si10 1.646947 1_545
