# generated using pymatgen
data_Ba2LiTbSnO6
_symmetry_space_group_name_H-M   'P 1'
_cell_length_a   6.00219750
_cell_length_b   6.46223886
_cell_length_c   6.46223886
_cell_angle_alpha   55.35974353
_cell_angle_beta   89.98945169
_cell_angle_gamma   117.67607889
_symmetry_Int_Tables_number   1
_chemical_formula_structural   Ba2LiTbSnO6
_chemical_formula_sum   'Ba2 Li1 Tb1 Sn1 O6'
_cell_volume   170.19908509
_cell_formula_units_Z   1
loop_
 _symmetry_equiv_pos_site_id
 _symmetry_equiv_pos_as_xyz
  1  'x, y, z'
loop_
 _atom_site_type_symbol
 _atom_site_label
 _atom_site_symmetry_multiplicity
 _atom_site_fract_x
 _atom_site_fract_y
 _atom_site_fract_z
 _atom_site_occupancy
  Ba  Ba0  1  0.71125200  0.42013400  0.70888300  1
  Ba  Ba1  1  0.23959900  0.47724600  0.23764700  1
  Li  Li0  1  0.87221100  0.74256800  0.87035700  1
  Tb  Tb0  1  0.02152900  0.04164100  0.02011200  1
  Sn  Sn0  1  0.50233400  0.00363800  0.50130400  1
  O  O0  1  0.26553400  0.02074100  0.26649600  1
  O  O1  1  0.74974400  0.00364000  0.74737400  1
  O  O2  1  0.26553400  0.53202900  0.75520700  1
  O  O3  1  0.74974400  0.49711700  0.25389600  1
  O  O4  1  0.25586300  0.00401200  0.74814900  1
  O  O5  1  0.75207300  0.01764900  0.26557600  1
loop_
_geom_bond_atom_site_label_1
_geom_bond_atom_site_label_2
_geom_bond_distance
_geom_bond_site_symmetry_2
Ba0 Li0 2.639311 1_555
Ba0 O4 2.676340 1_555
Ba0 O1 2.678790 1_555
Ba0 O3 2.678796 1_555
Ba0 O2 3.113283 1_655
Ba0 O0 3.113285 1_665
Ba0 O5 3.117992 1_556
Ba0 O5 3.117998 1_565
Ba0 O2 3.132484 1_555
Ba0 O0 3.132485 1_556
Ba1 O0 2.926281 1_555
Ba1 O2 2.926284 1_554
Ba1 O5 2.955235 1_455
Ba1 O3 3.006372 1_455
Ba1 O1 3.006376 1_455
Ba1 O4 3.008850 1_555
Ba1 O4 3.008850 1_564
Ba1 O1 3.008901 1_564
Ba1 O3 3.008903 1_555
Li0 O3 1.909509 1_556
Li0 O1 1.909509 1_565
Li0 O4 1.910288 1_665
O0 Sn0 2.071446 1_555
O0 Tb0 2.153697 1_555
O1 Sn0 2.175943 1_555
O1 Tb0 2.439024 1_656
O2 Sn0 2.071451 1_565
O2 Tb0 2.153693 1_556
O3 Sn0 2.175939 1_555
O3 Tb0 2.439029 1_665
O4 Sn0 2.177141 1_555
O4 Tb0 2.434923 1_556
O5 Sn0 2.071706 1_555
O5 Tb0 2.154645 1_655
