# generated using pymatgen
data_Ce2Ge3Rh
_symmetry_space_group_name_H-M   'P 1'
_cell_length_a   8.03464073
_cell_length_b   8.03464073
_cell_length_c   8.03464073
_cell_angle_alpha   150.59873074
_cell_angle_beta   149.09770626
_cell_angle_gamma   43.17667186
_symmetry_Int_Tables_number   1
_chemical_formula_structural   Ce2Ge3Rh
_chemical_formula_sum   'Ce2 Ge3 Rh1'
_cell_volume   130.42842921
_cell_formula_units_Z   1
loop_
 _symmetry_equiv_pos_site_id
 _symmetry_equiv_pos_as_xyz
  1  'x, y, z'
loop_
 _atom_site_type_symbol
 _atom_site_label
 _atom_site_symmetry_multiplicity
 _atom_site_fract_x
 _atom_site_fract_y
 _atom_site_fract_z
 _atom_site_occupancy
  Ce  Ce0  1  0.12293100  0.12293100  0.00000000  1
  Ce  Ce1  1  0.37867900  0.87867900  0.50000000  1
  Ge  Ge0  1  0.70381200  0.70381200  0.00000000  1
  Ge  Ge1  1  0.53918500  0.53918500  0.00000000  1
  Ge  Ge2  1  0.79638800  0.29638800  0.50000000  1
  Rh  Rh0  1  0.95900600  0.45900600  0.50000000  1
loop_
_geom_bond_atom_site_label_1
_geom_bond_atom_site_label_2
_geom_bond_distance
_geom_bond_site_symmetry_2
Ce0 Rh0 3.186960 1_444
Ce0 Rh0 3.186960 1_455
Ce0 Ge0 3.193716 1_455
Ce0 Ge0 3.193716 1_556
Ce0 Ge0 3.193716 1_444
Ce0 Ge0 3.193716 1_545
Ce0 Ge1 3.210160 1_545
Ce0 Ge1 3.210160 1_455
Ce0 Ge1 3.210160 1_556
Ce0 Ge1 3.210160 1_444
Ce0 Ge2 3.361465 1_454
Ce0 Ge2 3.361465 1_555
Ce1 Ge1 3.147866 1_555
Ce1 Ge1 3.147866 1_566
Ce1 Rh0 3.190593 1_566
Ce1 Rh0 3.190593 1_454
Ce1 Rh0 3.190593 1_555
Ce1 Rh0 3.190593 1_465
Ce1 Ge2 3.201748 1_454
Ce1 Ge2 3.201748 1_555
Ce1 Ge2 3.201748 1_465
Ce1 Ge2 3.201748 1_566
Ce1 Ge0 3.377736 1_556
Ce1 Ge0 3.377736 1_455
Ge0 Ge1 2.459864 1_555
Ge0 Ge2 2.463884 1_565
Ge0 Ge2 2.463884 1_554
Ge1 Rh0 2.453019 1_555
Ge1 Rh0 2.453019 1_454
Ge2 Rh0 2.429845 1_555
