# generated using pymatgen
data_Li7Mn5O12
_symmetry_space_group_name_H-M   'P 1'
_cell_length_a   5.23885057
_cell_length_b   14.95327029
_cell_length_c   5.75867300
_cell_angle_alpha   78.90055951
_cell_angle_beta   90.00001003
_cell_angle_gamma   86.98871148
_symmetry_Int_Tables_number   1
_chemical_formula_structural   Li7Mn5O12
_chemical_formula_sum   'Li14 Mn10 O24'
_cell_volume   442.04937485
_cell_formula_units_Z   2
loop_
 _symmetry_equiv_pos_site_id
 _symmetry_equiv_pos_as_xyz
  1  'x, y, z'
loop_
 _atom_site_type_symbol
 _atom_site_label
 _atom_site_symmetry_multiplicity
 _atom_site_fract_x
 _atom_site_fract_y
 _atom_site_fract_z
 _atom_site_occupancy
  Li  Li0  1  0.83341700  0.33331800  0.08318200  1
  Li  Li1  1  0.83341900  0.33332300  0.58352200  1
  Li  Li2  1  0.33340000  0.83341600  0.08329400  1
  Li  Li3  1  0.33371200  0.83341800  0.58332100  1
  Li  Li4  1  0.83336300  0.83334400  0.83325600  1
  Li  Li5  1  0.83333800  0.83333600  0.33330500  1
  Li  Li6  1  0.49687200  0.99127000  0.75415900  1
  Li  Li7  1  0.49685900  0.99127200  0.25447900  1
  Li  Li8  1  0.16973400  0.67544200  0.91240400  1
  Li  Li9  1  0.16973200  0.67545000  0.41210100  1
  Li  Li10  1  0.65597300  0.16472500  0.41764900  1
  Li  Li11  1  0.65570900  0.16488700  0.91755400  1
  Li  Li12  1  0.01082500  0.50197400  0.24900100  1
  Li  Li13  1  0.01112600  0.50176800  0.74909700  1
  Mn  Mn0  1  0.33341600  0.33335200  0.33337800  1
  Mn  Mn1  1  0.33319800  0.33329200  0.83316800  1
  Mn  Mn2  1  0.96915700  0.99131700  0.00442900  1
  Mn  Mn3  1  0.96939900  0.99132600  0.50427000  1
  Mn  Mn4  1  0.69718500  0.67534900  0.16233800  1
  Mn  Mn5  1  0.69742800  0.67534000  0.66238900  1
  Mn  Mn6  1  0.14567500  0.16291600  0.16880100  1
  Mn  Mn7  1  0.14564400  0.16290100  0.66844000  1
  Mn  Mn8  1  0.52103200  0.50372700  0.99836800  1
  Mn  Mn9  1  0.52098800  0.50376700  0.49794600  1
  O  O0  1  0.14396000  0.92473300  0.78769200  1
  O  O1  1  0.14397300  0.92472000  0.28756700  1
  O  O2  1  0.52253500  0.74194800  0.87892800  1
  O  O3  1  0.52251000  0.74196100  0.37907800  1
  O  O4  1  0.28050200  0.08354900  0.45823600  1
  O  O5  1  0.28009700  0.08386300  0.95809700  1
  O  O6  1  0.38611800  0.58307000  0.20848100  1
  O  O7  1  0.38654500  0.58276100  0.70864600  1
  O  O8  1  0.48436600  0.25663300  0.12186600  1
  O  O9  1  0.48441400  0.25660300  0.62152700  1
  O  O10  1  0.18243800  0.40997800  0.04512200  1
  O  O11  1  0.18237000  0.41000400  0.54490600  1
  O  O12  1  0.66877700  0.42646000  0.28682200  1
  O  O13  1  0.66772500  0.42590500  0.78705700  1
  O  O14  1  0.99792800  0.24015500  0.37998500  1
  O  O15  1  0.99895900  0.24071100  0.87966800  1
  O  O16  1  0.97590800  0.74356300  0.12819200  1
  O  O17  1  0.97605200  0.74352900  0.62819200  1
  O  O18  1  0.69045600  0.92315600  0.03840100  1
  O  O19  1  0.69057500  0.92312700  0.53839500  1
  O  O20  1  0.84036200  0.59595300  0.95189000  1
  O  O21  1  0.84039200  0.59594300  0.45210300  1
  O  O22  1  0.82622000  0.07072400  0.21452900  1
  O  O23  1  0.82621500  0.07071900  0.71477200  1
loop_
_geom_bond_atom_site_label_1
_geom_bond_atom_site_label_2
_geom_bond_distance
_geom_bond_site_symmetry_2
Li0 O15 2.131181 1_554
Li0 O13 2.131428 1_554
Li0 O12 2.135800 1_555
Li0 O14 2.135863 1_555
Li0 O10 2.197467 1_655
Li0 O8 2.197807 1_555
Li1 O13 2.131285 1_555
Li1 O15 2.131390 1_555
Li1 O14 2.135433 1_555
Li1 O12 2.135531 1_555
Li1 O11 2.197324 1_655
Li1 O9 2.197886 1_555
Li2 O1 2.169940 1_555
Li2 O0 2.170231 1_554
Li2 O3 2.171132 1_555
Li2 O2 2.171388 1_554
Li2 O18 2.344506 1_555
Li2 O16 2.347399 1_455
Li3 O2 2.169922 1_555
Li3 O3 2.170055 1_555
Li3 O0 2.171154 1_555
Li3 O1 2.171375 1_555
Li3 O19 2.343394 1_555
Li3 O17 2.348447 1_455
Li4 O16 2.064331 1_556
Li4 O19 2.064461 1_555
Li4 O17 2.064509 1_555
Li4 O18 2.065176 1_556
Li4 O0 2.163239 1_655
Li4 O2 2.164257 1_555
Li5 O16 2.064036 1_555
Li5 O19 2.064474 1_555
Li5 O17 2.064608 1_555
Li5 O18 2.065057 1_555
Li5 O1 2.163346 1_655
Li5 O3 2.164054 1_555
Li6 O19 1.997682 1_555
Li6 O18 1.998694 1_556
Li6 O23 2.133398 1_565
Li6 O0 2.136530 1_555
Li6 O4 2.241264 1_565
Li6 O5 2.246519 1_565
Li7 O19 1.997825 1_555
Li7 O18 1.998474 1_555
Li7 O22 2.133503 1_565
Li7 O1 2.136519 1_555
Li7 O4 2.241553 1_565
Li7 O5 2.245999 1_564
Li8 O16 1.997893 1_456
Li8 O17 1.998685 1_455
Li8 O20 2.133871 1_455
Li8 O2 2.135783 1_555
Li8 O6 2.242484 1_556
Li8 O7 2.246852 1_555
Li9 O16 1.997913 1_455
Li9 O17 1.998404 1_455
Li9 O21 2.133886 1_455
Li9 O3 2.135713 1_555
Li9 O6 2.242181 1_555
Li9 O7 2.247378 1_555
Li10 O9 2.136605 1_555
Li10 O8 2.137096 1_555
Li10 O22 2.154248 1_555
Li10 O23 2.154362 1_555
Li10 O14 2.155611 1_555
Li10 O4 2.353489 1_555
Li11 O9 2.136070 1_555
Li11 O8 2.136417 1_556
Li11 O23 2.155300 1_555
Li11 O22 2.155451 1_556
Li11 O15 2.164662 1_555
Li11 O5 2.352899 1_555
Li12 O11 2.137877 1_555
Li12 O10 2.138001 1_555
Li12 O21 2.154197 1_455
Li12 O20 2.154563 1_454
Li12 O12 2.156718 1_455
Li12 O6 2.352038 1_555
Li13 O11 2.135943 1_555
Li13 O10 2.136613 1_556
Li13 O20 2.156043 1_455
Li13 O21 2.156055 1_455
Li13 O13 2.165661 1_455
Li13 O7 2.351776 1_555
Mn0 O11 1.966224 1_555
Mn0 O10 1.966329 1_555
Mn0 O9 1.966652 1_555
Mn0 O8 1.966652 1_555
Mn0 O12 2.282606 1_555
Mn0 O14 2.283975 1_455
Mn1 O11 1.966576 1_555
Mn1 O9 1.967408 1_555
Mn1 O10 1.967810 1_556
Mn1 O8 1.968759 1_556
Mn1 O15 2.272948 1_455
Mn1 O13 2.274459 1_555
Mn2 O18 1.813421 1_555
Mn2 O1 1.941131 1_655
Mn2 O0 1.941755 1_654
Mn2 O22 1.973376 1_565
Mn2 O23 1.974058 1_564
Mn2 O5 2.175889 1_664
Mn3 O19 1.814290 1_555
Mn3 O1 1.941278 1_655
Mn3 O0 1.941730 1_655
Mn3 O22 1.974818 1_565
Mn3 O23 1.975368 1_565
Mn3 O4 2.173413 1_665
Mn4 O16 1.813980 1_555
Mn4 O3 1.941725 1_555
Mn4 O2 1.941915 1_554
Mn4 O21 1.975020 1_555
Mn4 O20 1.975160 1_554
Mn4 O6 2.173810 1_555
Mn5 O17 1.813329 1_555
Mn5 O2 1.941339 1_555
Mn5 O3 1.942224 1_555
Mn5 O20 1.973295 1_555
Mn5 O21 1.974102 1_555
Mn5 O7 2.175977 1_555
Mn6 O5 1.957129 1_554
Mn6 O4 1.958520 1_555
Mn6 O14 1.964424 1_455
Mn6 O15 1.968915 1_454
Mn6 O22 2.207554 1_455
Mn6 O8 2.302313 1_555
Mn7 O5 1.956739 1_555
Mn7 O4 1.958915 1_555
Mn7 O14 1.964664 1_455
Mn7 O15 1.968474 1_455
Mn7 O23 2.207350 1_455
Mn7 O9 2.302504 1_555
Mn8 O7 1.957048 1_555
Mn8 O6 1.958531 1_556
Mn8 O12 1.964793 1_556
Mn8 O13 1.968963 1_555
Mn8 O20 2.207362 1_555
Mn8 O10 2.302205 1_556
Mn9 O7 1.956527 1_555
Mn9 O6 1.958316 1_555
Mn9 O12 1.964949 1_555
Mn9 O13 1.969270 1_555
Mn9 O21 2.207188 1_555
Mn9 O11 2.302437 1_555
