# generated using pymatgen
data_MgBi4O9
_symmetry_space_group_name_H-M   'P 1'
_cell_length_a   5.73821300
_cell_length_b   8.24372900
_cell_length_c   11.39656345
_cell_angle_alpha   51.16744819
_cell_angle_beta   90.00000000
_cell_angle_gamma   90.00000000
_symmetry_Int_Tables_number   1
_chemical_formula_structural   MgBi4O9
_chemical_formula_sum   'Mg2 Bi8 O18'
_cell_volume   419.95390054
_cell_formula_units_Z   2
loop_
 _symmetry_equiv_pos_site_id
 _symmetry_equiv_pos_as_xyz
  1  'x, y, z'
loop_
 _atom_site_type_symbol
 _atom_site_label
 _atom_site_symmetry_multiplicity
 _atom_site_fract_x
 _atom_site_fract_y
 _atom_site_fract_z
 _atom_site_occupancy
  Mg  Mg0  1  0.28757800  0.00000000  0.75000000  1
  Mg  Mg1  1  0.71242200  0.00000000  0.25000000  1
  Bi  Bi0  1  0.77414800  0.62012400  0.85728100  1
  Bi  Bi1  1  0.31534200  0.20733000  0.93644500  1
  Bi  Bi2  1  0.68465800  0.20733000  0.43644500  1
  Bi  Bi3  1  0.22585200  0.62012400  0.35728100  1
  Bi  Bi4  1  0.77414800  0.37987600  0.64271900  1
  Bi  Bi5  1  0.68465800  0.79267000  0.06355500  1
  Bi  Bi6  1  0.22585200  0.37987600  0.14271900  1
  Bi  Bi7  1  0.31534200  0.79267000  0.56355500  1
  O  O0  1  0.46994200  0.50000000  0.75000000  1
  O  O1  1  0.53005800  0.50000000  0.25000000  1
  O  O2  1  0.04315600  0.69232600  0.49698600  1
  O  O3  1  0.87689500  0.17909900  0.29268100  1
  O  O4  1  0.87689500  0.82090100  0.20731900  1
  O  O5  1  0.04315600  0.30767400  0.00301400  1
  O  O6  1  0.95684400  0.30767400  0.50301400  1
  O  O7  1  0.12310500  0.82090100  0.70731900  1
  O  O8  1  0.12310500  0.17909900  0.79268100  1
  O  O9  1  0.95684400  0.69232600  0.99698600  1
  O  O10  1  0.63682000  0.11662500  0.88045000  1
  O  O11  1  0.48587000  0.25424300  0.57601200  1
  O  O12  1  0.48587000  0.74575700  0.92398800  1
  O  O13  1  0.63682000  0.88337500  0.61955000  1
  O  O14  1  0.36318000  0.11662500  0.38045000  1
  O  O15  1  0.51413000  0.74575700  0.42398800  1
  O  O16  1  0.51413000  0.25424300  0.07601200  1
  O  O17  1  0.36318000  0.88337500  0.11955000  1
loop_
_geom_bond_atom_site_label_1
_geom_bond_atom_site_label_2
_geom_bond_distance
_geom_bond_site_symmetry_2
Mg0 O8 2.051306 1_555
Mg0 O7 2.051306 1_545
Mg0 O12 2.099377 1_545
Mg0 O11 2.099377 1_555
Mg1 O3 2.051306 1_555
Mg1 O4 2.051306 1_545
Mg1 O15 2.099377 1_545
Mg1 O16 2.099377 1_555
Bi0 O9 2.275247 1_555
Bi0 O13 2.301596 1_555
Bi0 O12 2.318274 1_555
Bi0 O7 2.474358 1_655
Bi0 O5 2.531950 1_656
Bi0 O0 2.653481 1_555
Bi0 O16 2.847541 1_556
Bi1 O8 2.105608 1_555
Bi1 O5 2.118083 1_556
Bi1 O17 2.138478 1_546
Bi1 O0 2.166518 1_555
Bi1 O16 2.179939 1_556
Bi1 O10 2.228842 1_555
Bi2 O3 2.105608 1_555
Bi2 O6 2.118083 1_555
Bi2 O13 2.138478 1_545
Bi2 O1 2.166518 1_555
Bi2 O11 2.179939 1_555
Bi2 O14 2.228842 1_555
Bi3 O2 2.275247 1_555
Bi3 O17 2.301596 1_555
Bi3 O15 2.318274 1_555
Bi3 O4 2.474358 1_455
Bi3 O6 2.531950 1_455
Bi3 O1 2.653481 1_555
Bi3 O11 2.847541 1_555
Bi4 O6 2.275247 1_555
Bi4 O10 2.301596 1_555
Bi4 O11 2.318274 1_555
Bi4 O8 2.474358 1_655
Bi4 O2 2.531950 1_655
Bi4 O0 2.653481 1_555
Bi4 O15 2.847541 1_555
Bi5 O4 2.105608 1_555
Bi5 O9 2.118083 1_554
Bi5 O10 2.138478 1_564
Bi5 O1 2.166518 1_555
Bi5 O12 2.179939 1_554
Bi5 O17 2.228842 1_555
Bi6 O5 2.275247 1_555
Bi6 O14 2.301596 1_555
Bi6 O16 2.318274 1_555
Bi6 O3 2.474358 1_455
Bi6 O9 2.531950 1_454
Bi6 O1 2.653481 1_555
Bi6 O12 2.847541 1_554
Bi7 O7 2.105608 1_555
Bi7 O2 2.118083 1_555
Bi7 O14 2.138478 1_565
Bi7 O0 2.166518 1_555
Bi7 O15 2.179939 1_555
Bi7 O13 2.228842 1_555
