# generated using pymatgen
data_Mg14SiB
_symmetry_space_group_name_H-M   'P 1'
_cell_length_a   6.28975040
_cell_length_b   6.46341913
_cell_length_c   9.75548348
_cell_angle_alpha   90.00000000
_cell_angle_beta   90.00000000
_cell_angle_gamma   120.91766458
_symmetry_Int_Tables_number   1
_chemical_formula_structural   Mg14SiB
_chemical_formula_sum   'Mg14 Si1 B1'
_cell_volume   340.23932370
_cell_formula_units_Z   1
loop_
 _symmetry_equiv_pos_site_id
 _symmetry_equiv_pos_as_xyz
  1  'x, y, z'
loop_
 _atom_site_type_symbol
 _atom_site_label
 _atom_site_symmetry_multiplicity
 _atom_site_fract_x
 _atom_site_fract_y
 _atom_site_fract_z
 _atom_site_occupancy
  Mg  Mg0  1  0.17754845  0.33877372  0.62500000  1
  Mg  Mg1  1  0.17618710  0.83809305  0.62500000  1
  Mg  Mg2  1  0.74627889  0.38008135  0.12500000  1
  Mg  Mg3  1  0.66163838  0.33174450  0.62500000  1
  Mg  Mg4  1  0.74627889  0.86619654  0.12500000  1
  Mg  Mg5  1  0.66163838  0.82989288  0.62500000  1
  Mg  Mg6  1  0.31224095  0.14117702  0.32586452  1
  Mg  Mg7  1  0.31224095  0.14117702  0.92413548  1
  Mg  Mg8  1  0.31224095  0.67106493  0.32586452  1
  Mg  Mg9  1  0.31224095  0.67106493  0.92413548  1
  Mg  Mg10  1  0.83169666  0.16584883  0.37496059  1
  Mg  Mg11  1  0.83169666  0.16584883  0.87503941  1
  Mg  Mg12  1  0.83211879  0.66605989  0.37196661  1
  Mg  Mg13  1  0.83211879  0.66605989  0.87803339  1
  Si  Si0  1  0.14916900  0.32458400  0.12500000  1
  B  B0  1  0.10466624  0.80233262  0.12500000  1
loop_
_geom_bond_atom_site_label_1
_geom_bond_atom_site_label_2
_geom_bond_distance
_geom_bond_site_symmetry_2
Mg0 Mg5 3.068396 1_555
Mg0 Mg3 3.068396 1_555
Mg0 Mg11 3.071279 1_455
Mg0 Mg10 3.071279 1_455
Mg0 Mg5 3.221837 1_445
Mg0 Mg3 3.221838 1_455
Mg0 Mg1 3.231718 1_545
Mg0 Mg1 3.231718 1_555
Mg0 Mg6 3.460728 1_555
Mg0 Mg7 3.460728 1_555
Mg0 Mg8 3.460735 1_555
Mg0 Mg9 3.460735 1_555
Mg1 Mg3 3.080935 1_565
Mg1 Mg5 3.080935 1_555
Mg1 Mg12 3.088733 1_455
Mg1 Mg13 3.088733 1_455
Mg1 Mg3 3.209473 1_455
Mg1 Mg5 3.209473 1_455
Mg1 Mg8 3.370917 1_555
Mg1 Mg9 3.370917 1_555
Mg1 Mg7 3.370923 1_565
Mg1 Mg6 3.370923 1_565
Mg2 Si0 2.735745 1_655
Mg3 Mg5 3.219742 1_555
Mg3 Mg5 3.243677 1_545
Mg3 Mg7 3.475779 1_555
Mg3 Mg6 3.475779 1_555
Mg4 Si0 2.735744 1_665
Mg5 Mg8 3.475779 1_555
Mg5 Mg9 3.475779 1_555
Mg6 Si0 2.747088 1_555
Mg7 Si0 2.747088 1_556
Mg8 Si0 2.747096 1_555
Mg9 Si0 2.747096 1_556
Mg10 Si0 2.980081 1_655
Mg10 Mg2 2.986076 1_555
Mg10 Mg4 2.986083 1_545
Mg10 Mg3 3.069587 1_555
Mg10 Mg5 3.069594 1_545
Mg10 Mg8 3.144144 1_655
Mg10 Mg6 3.144145 1_655
Mg10 Mg8 3.224024 1_545
Mg10 Mg6 3.224025 1_555
Mg10 Mg12 3.231842 1_555
Mg10 Mg12 3.231842 1_545
Mg11 Si0 2.980081 1_656
Mg11 Mg2 2.986076 1_556
Mg11 Mg4 2.986083 1_546
Mg11 Mg3 3.069587 1_555
Mg11 Mg5 3.069594 1_545
Mg11 Mg9 3.144144 1_655
Mg11 Mg7 3.144145 1_655
Mg11 Mg9 3.224024 1_545
Mg11 Mg7 3.224025 1_555
Mg11 Mg13 3.231842 1_555
Mg11 Mg13 3.231842 1_545
Mg12 Mg5 3.087267 1_555
Mg12 Mg3 3.087274 1_555
Mg13 Mg5 3.087267 1_555
Mg13 Mg3 3.087274 1_555
B0 Mg2 2.491550 1_455
B0 Mg4 2.491550 1_455
B0 Mg8 2.720750 1_555
B0 Mg9 2.720750 1_554
B0 Mg7 2.720757 1_564
B0 Mg6 2.720757 1_565
B0 Mg12 2.822675 1_455
B0 Mg13 2.822675 1_454
