# generated using pymatgen
data_HoMnCu4P3
_symmetry_space_group_name_H-M   'P 1'
_cell_length_a   3.77181100
_cell_length_b   10.83911000
_cell_length_c   12.52432300
_cell_angle_alpha   90.00000000
_cell_angle_beta   90.00000000
_cell_angle_gamma   90.00000000
_symmetry_Int_Tables_number   1
_chemical_formula_structural   HoMnCu4P3
_chemical_formula_sum   'Ho4 Mn4 Cu16 P12'
_cell_volume   512.03282812
_cell_formula_units_Z   4
loop_
 _symmetry_equiv_pos_site_id
 _symmetry_equiv_pos_as_xyz
  1  'x, y, z'
loop_
 _atom_site_type_symbol
 _atom_site_label
 _atom_site_symmetry_multiplicity
 _atom_site_fract_x
 _atom_site_fract_y
 _atom_site_fract_z
 _atom_site_occupancy
  Ho  Ho0  1  0.25000000  0.58411900  0.79253700  1
  Ho  Ho1  1  0.25000000  0.91588100  0.29253700  1
  Ho  Ho2  1  0.75000000  0.41588100  0.20746300  1
  Ho  Ho3  1  0.75000000  0.08411900  0.70746300  1
  Mn  Mn0  1  0.25000000  0.71391600  0.52187100  1
  Mn  Mn1  1  0.25000000  0.78608400  0.02187100  1
  Mn  Mn2  1  0.75000000  0.28608400  0.47812900  1
  Mn  Mn3  1  0.75000000  0.21391600  0.97812900  1
  Cu  Cu0  1  0.25000000  0.08711700  0.50580200  1
  Cu  Cu1  1  0.25000000  0.41288300  0.00580200  1
  Cu  Cu2  1  0.75000000  0.91288300  0.49419800  1
  Cu  Cu3  1  0.75000000  0.58711700  0.99419800  1
  Cu  Cu4  1  0.25000000  0.46283900  0.56515200  1
  Cu  Cu5  1  0.25000000  0.03716100  0.06515200  1
  Cu  Cu6  1  0.75000000  0.53716100  0.43484800  1
  Cu  Cu7  1  0.75000000  0.96283900  0.93484800  1
  Cu  Cu8  1  0.25000000  0.87451000  0.80750100  1
  Cu  Cu9  1  0.25000000  0.62549000  0.30750100  1
  Cu  Cu10  1  0.75000000  0.12549000  0.19249900  1
  Cu  Cu11  1  0.75000000  0.37451000  0.69249900  1
  Cu  Cu12  1  0.25000000  0.28593900  0.81779400  1
  Cu  Cu13  1  0.25000000  0.21406100  0.31779400  1
  Cu  Cu14  1  0.75000000  0.71406100  0.18220600  1
  Cu  Cu15  1  0.75000000  0.78593900  0.68220600  1
  P  P0  1  0.25000000  0.90589900  0.61705700  1
  P  P1  1  0.25000000  0.59410100  0.11705700  1
  P  P2  1  0.75000000  0.09410100  0.38294300  1
  P  P3  1  0.75000000  0.40589900  0.88294300  1
  P  P4  1  0.25000000  0.25779500  0.62404900  1
  P  P5  1  0.25000000  0.24220500  0.12404900  1
  P  P6  1  0.75000000  0.74220500  0.37595100  1
  P  P7  1  0.75000000  0.75779500  0.87595100  1
  P  P8  1  0.25000000  0.08492400  0.87898400  1
  P  P9  1  0.25000000  0.41507600  0.37898400  1
  P  P10  1  0.75000000  0.91507600  0.12101600  1
  P  P11  1  0.75000000  0.58492400  0.62101600  1
loop_
_geom_bond_atom_site_label_1
_geom_bond_atom_site_label_2
_geom_bond_distance
_geom_bond_site_symmetry_2
Ho0 P11 2.858568 1_555
Ho0 P11 2.858568 1_455
Ho0 P7 2.862137 1_455
Ho0 P7 2.862137 1_555
Ho0 P3 2.927512 1_555
Ho0 P3 2.927512 1_455
Ho1 P10 2.858568 1_555
Ho1 P10 2.858568 1_455
Ho1 P6 2.862137 1_555
Ho1 P6 2.862137 1_455
Ho1 P2 2.927512 1_565
Ho1 P2 2.927512 1_465
Ho2 P9 2.858568 1_655
Ho2 P9 2.858568 1_555
Ho2 P5 2.862137 1_555
Ho2 P5 2.862137 1_655
Ho2 P1 2.927512 1_655
Ho2 P1 2.927512 1_555
Ho3 P8 2.858568 1_655
Ho3 P8 2.858568 1_555
Ho3 P4 2.862137 1_555
Ho3 P4 2.862137 1_655
Ho3 P0 2.927512 1_545
Ho3 P0 2.927512 1_645
Mn0 P0 2.398217 1_555
Mn0 P6 2.643974 1_455
Mn0 P6 2.643974 1_555
Mn0 P11 2.655817 1_455
Mn0 P11 2.655817 1_555
Mn1 P1 2.398217 1_555
Mn1 P7 2.643974 1_454
Mn1 P7 2.643974 1_554
Mn1 P10 2.655817 1_555
Mn1 P10 2.655817 1_455
Mn2 P2 2.398217 1_555
Mn2 P4 2.643974 1_555
Mn2 P4 2.643974 1_655
Mn2 P9 2.655817 1_655
Mn2 P9 2.655817 1_555
Mn3 P3 2.398217 1_555
Mn3 P5 2.643974 1_656
Mn3 P5 2.643974 1_556
Mn3 P8 2.655817 1_655
Mn3 P8 2.655817 1_555
Cu0 P4 2.369756 1_555
Cu0 P0 2.408276 1_545
Cu0 P2 2.435169 1_555
Cu0 P2 2.435169 1_455
Cu0 Mn2 2.885792 1_455
Cu0 Mn2 2.885792 1_555
Cu1 P5 2.369756 1_555
Cu1 P1 2.408276 1_555
Cu1 P3 2.435169 1_554
Cu1 P3 2.435169 1_454
Cu1 Mn3 2.885792 1_554
Cu1 Mn3 2.885792 1_454
Cu2 P6 2.369756 1_555
Cu2 P2 2.408276 1_565
Cu2 P0 2.435169 1_555
Cu2 P0 2.435169 1_655
Cu2 Mn0 2.885792 1_555
Cu2 Mn0 2.885792 1_655
Cu3 P7 2.369756 1_555
Cu3 P3 2.408276 1_555
Cu3 P1 2.435169 1_556
Cu3 P1 2.435169 1_656
Cu3 Mn1 2.885792 1_556
Cu3 Mn1 2.885792 1_656
Cu4 P4 2.341709 1_555
Cu4 P9 2.388412 1_555
Cu4 P11 2.407751 1_455
Cu4 P11 2.407751 1_555
Cu4 Cu6 2.620864 1_555
Cu4 Cu6 2.620864 1_455
Cu4 Mn0 2.774911 1_555
Cu4 Mn2 2.900875 1_555
Cu4 Mn2 2.900875 1_455
Cu4 Ho0 3.136606 1_555
Cu5 P5 2.341709 1_555
Cu5 P8 2.388412 1_554
Cu5 P10 2.407751 1_545
Cu5 P10 2.407751 1_445
Cu5 Cu7 2.620864 1_444
Cu5 Cu7 2.620864 1_544
Cu5 Mn1 2.774911 1_545
Cu5 Mn3 2.900875 1_554
Cu5 Mn3 2.900875 1_454
Cu5 Ho1 3.136606 1_545
Cu6 P6 2.341709 1_555
Cu6 P11 2.388412 1_555
Cu6 P9 2.407751 1_655
Cu6 P9 2.407751 1_555
Cu6 Cu9 2.648978 1_655
Cu6 Cu9 2.648978 1_555
Cu6 Mn2 2.774911 1_555
Cu6 Mn0 2.900875 1_555
Cu6 Mn0 2.900875 1_655
Cu6 Ho2 3.136606 1_555
Cu7 P7 2.341709 1_555
Cu7 P10 2.388412 1_556
Cu7 P8 2.407751 1_665
Cu7 P8 2.407751 1_565
Cu7 Cu8 2.648978 1_655
Cu7 Cu8 2.648978 1_555
Cu7 Mn3 2.774911 1_565
Cu7 Mn1 2.900875 1_656
Cu7 Mn1 2.900875 1_556
Cu7 Ho3 3.136606 1_565
Cu8 P0 2.409326 1_555
Cu8 P7 2.427350 1_555
Cu8 P7 2.427350 1_455
Cu8 P8 2.450125 1_565
Cu8 Mn1 2.850790 1_556
Cu9 P1 2.409326 1_555
Cu9 P6 2.427350 1_455
Cu9 P6 2.427350 1_555
Cu9 P9 2.450125 1_555
Cu9 Mn0 2.850790 1_555
Cu10 P2 2.409326 1_555
Cu10 P5 2.427350 1_655
Cu10 P5 2.427350 1_555
Cu10 P10 2.450125 1_545
Cu10 Cu5 2.648978 1_555
Cu10 Cu5 2.648978 1_655
Cu10 Mn3 2.850790 1_554
Cu11 P3 2.409326 1_555
Cu11 P4 2.427350 1_555
Cu11 P4 2.427350 1_655
Cu11 P11 2.450125 1_555
Cu11 Cu4 2.648978 1_555
Cu11 Cu4 2.648978 1_655
Cu11 Mn2 2.850790 1_555
Cu12 P8 2.309672 1_555
Cu12 P3 2.431683 1_555
Cu12 P3 2.431683 1_455
Cu12 P4 2.445625 1_555
Cu12 Mn3 2.863301 1_455
Cu12 Mn3 2.863301 1_555
Cu13 P9 2.309672 1_555
Cu13 P2 2.431683 1_555
Cu13 P2 2.431683 1_455
Cu13 P5 2.445625 1_555
Cu13 Mn2 2.863301 1_555
Cu13 Mn2 2.863301 1_455
Cu14 P10 2.309672 1_555
Cu14 P1 2.431683 1_555
Cu14 P1 2.431683 1_655
Cu14 P6 2.445625 1_555
Cu14 Mn1 2.863301 1_555
Cu14 Mn1 2.863301 1_655
Cu15 P11 2.309672 1_555
Cu15 P0 2.431683 1_555
Cu15 P0 2.431683 1_655
Cu15 P7 2.445625 1_555
Cu15 Mn0 2.863301 1_655
Cu15 Mn0 2.863301 1_555
