# generated using pymatgen
data_Zr6Al2Fe
_symmetry_space_group_name_H-M   'P 1'
_cell_length_a   15.88893954
_cell_length_b   15.88954082
_cell_length_c   6.62376182
_cell_angle_alpha   90.00000000
_cell_angle_beta   90.00000000
_cell_angle_gamma   119.99951535
_symmetry_Int_Tables_number   1
_chemical_formula_structural   Zr6Al2Fe
_chemical_formula_sum   'Zr48 Al16 Fe8'
_cell_volume   1448.25060879
_cell_formula_units_Z   8
loop_
 _symmetry_equiv_pos_site_id
 _symmetry_equiv_pos_as_xyz
  1  'x, y, z'
loop_
 _atom_site_type_symbol
 _atom_site_label
 _atom_site_symmetry_multiplicity
 _atom_site_fract_x
 _atom_site_fract_y
 _atom_site_fract_z
 _atom_site_occupancy
  Zr  Zr0_0  1  0.30071942  0.99999874  0.00000000  1
  Zr  Zr0_1  1  0.30071942  0.99999874  0.50000000  1
  Zr  Zr0_2  1  0.30071942  0.49999874  0.00000000  1
  Zr  Zr0_3  1  0.30071942  0.49999874  0.50000000  1
  Zr  Zr0_4  1  0.80071942  0.99999874  0.00000000  1
  Zr  Zr0_5  1  0.80071942  0.99999874  0.50000000  1
  Zr  Zr0_6  1  0.80071941  0.49999874  0.00000000  1
  Zr  Zr0_7  1  0.80071941  0.49999874  0.50000000  1
  Zr  Zr1_0  1  0.19927761  0.19927912  0.00000000  1
  Zr  Zr1_1  1  0.19927761  0.19927912  0.50000000  1
  Zr  Zr1_2  1  0.19927760  0.69927912  0.00000000  1
  Zr  Zr1_3  1  0.19927760  0.69927912  0.50000000  1
  Zr  Zr1_4  1  0.69927761  0.19927912  0.00000000  1
  Zr  Zr1_5  1  0.69927761  0.19927912  0.50000000  1
  Zr  Zr1_6  1  0.69927761  0.69927912  0.00000000  1
  Zr  Zr1_7  1  0.69927761  0.69927912  0.50000000  1
  Zr  Zr2_0  1  0.00000138  0.30072077  0.00000000  1
  Zr  Zr2_1  1  0.00000138  0.30072077  0.50000000  1
  Zr  Zr2_2  1  0.00000138  0.80072077  0.00000000  1
  Zr  Zr2_3  1  0.00000138  0.80072077  0.50000000  1
  Zr  Zr2_4  1  0.50000138  0.30072077  0.00000000  1
  Zr  Zr2_5  1  0.50000138  0.30072077  0.50000000  1
  Zr  Zr2_6  1  0.50000138  0.80072076  0.00000000  1
  Zr  Zr2_7  1  0.50000138  0.80072076  0.50000000  1
  Zr  Zr3_0  1  0.00000346  0.12404218  0.25000000  1
  Zr  Zr3_1  1  0.00000346  0.12404218  0.75000000  1
  Zr  Zr3_2  1  0.00000346  0.62404218  0.25000000  1
  Zr  Zr3_3  1  0.00000346  0.62404218  0.75000000  1
  Zr  Zr3_4  1  0.50000346  0.12404218  0.25000000  1
  Zr  Zr3_5  1  0.50000346  0.12404218  0.75000000  1
  Zr  Zr3_6  1  0.50000346  0.62404218  0.25000000  1
  Zr  Zr3_7  1  0.50000346  0.62404218  0.75000000  1
  Zr  Zr4_0  1  0.37596223  0.37596116  0.25000000  1
  Zr  Zr4_1  1  0.37596223  0.37596116  0.75000000  1
  Zr  Zr4_2  1  0.37596222  0.87596116  0.25000000  1
  Zr  Zr4_3  1  0.37596222  0.87596116  0.75000000  1
  Zr  Zr4_4  1  0.87596223  0.37596116  0.25000000  1
  Zr  Zr4_5  1  0.87596223  0.37596116  0.75000000  1
  Zr  Zr4_6  1  0.87596222  0.87596116  0.25000000  1
  Zr  Zr4_7  1  0.87596222  0.87596116  0.75000000  1
  Zr  Zr5_0  1  0.12403893  0.00000264  0.25000000  1
  Zr  Zr5_1  1  0.12403893  0.00000264  0.75000000  1
  Zr  Zr5_2  1  0.12403893  0.50000264  0.25000000  1
  Zr  Zr5_3  1  0.12403893  0.50000264  0.75000000  1
  Zr  Zr5_4  1  0.62403893  0.00000264  0.25000000  1
  Zr  Zr5_5  1  0.62403893  0.00000264  0.75000000  1
  Zr  Zr5_6  1  0.62403893  0.50000264  0.25000000  1
  Zr  Zr5_7  1  0.62403893  0.50000264  0.75000000  1
  Al  Al0_0  1  0.16667283  0.33334367  0.25000000  1
  Al  Al0_1  1  0.16667283  0.33334367  0.75000000  1
  Al  Al0_2  1  0.16667283  0.83334367  0.25000000  1
  Al  Al0_3  1  0.16667283  0.83334367  0.75000000  1
  Al  Al0_4  1  0.66667284  0.33334367  0.25000000  1
  Al  Al0_5  1  0.66667284  0.33334367  0.75000000  1
  Al  Al0_6  1  0.66667283  0.83334367  0.25000000  1
  Al  Al0_7  1  0.66667283  0.83334367  0.75000000  1
  Al  Al1_0  1  0.33332217  0.16665202  0.25000000  1
  Al  Al1_1  1  0.33332217  0.16665202  0.75000000  1
  Al  Al1_2  1  0.33332217  0.66665202  0.25000000  1
  Al  Al1_3  1  0.33332217  0.66665202  0.75000000  1
  Al  Al1_4  1  0.83332218  0.16665202  0.25000000  1
  Al  Al1_5  1  0.83332218  0.16665202  0.75000000  1
  Al  Al1_6  1  0.83332218  0.66665202  0.25000000  1
  Al  Al1_7  1  0.83332218  0.66665202  0.75000000  1
  Fe  Fe0_0  1  0.00000247  0.49999920  0.00000000  1
  Fe  Fe0_1  1  0.00000247  0.49999920  0.50000000  1
  Fe  Fe0_2  1  0.00000247  0.99999919  0.00000000  1
  Fe  Fe0_3  1  0.00000247  0.99999919  0.50000000  1
  Fe  Fe0_4  1  0.50000247  0.49999920  0.00000000  1
  Fe  Fe0_5  1  0.50000247  0.49999920  0.50000000  1
  Fe  Fe0_6  1  0.50000247  0.99999920  0.00000000  1
  Fe  Fe0_7  1  0.50000247  0.99999920  0.50000000  1
loop_
_geom_bond_atom_site_label_1
_geom_bond_atom_site_label_2
_geom_bond_distance
_geom_bond_site_symmetry_2
Zr0_0 Zr4_3 3.226780 1_554
Zr0_0 Zr4_2 3.226780 1_555
Zr0_0 Zr3_4 3.226799 1_565
Zr0_0 Zr3_5 3.226799 1_564
Zr0_0 Zr5_1 3.259302 1_564
Zr0_0 Zr5_0 3.259302 1_565
Zr0_0 Zr0_1 3.311881 1_555
Zr0_0 Zr0_1 3.311881 1_554
Zr0_1 Zr4_2 3.226780 1_555
Zr0_1 Zr4_3 3.226780 1_555
Zr0_1 Zr3_4 3.226799 1_565
Zr0_1 Zr3_5 3.226799 1_565
Zr0_1 Zr5_0 3.259302 1_565
Zr0_1 Zr5_1 3.259302 1_565
Zr0_2 Zr4_1 3.226780 1_554
Zr0_2 Zr4_0 3.226780 1_555
Zr0_2 Zr3_7 3.226799 1_554
Zr0_2 Zr3_6 3.226799 1_555
Zr0_2 Zr5_3 3.259302 1_554
Zr0_2 Zr5_2 3.259302 1_555
Zr0_2 Zr0_3 3.311881 1_554
Zr0_2 Zr0_3 3.311881 1_555
Zr0_3 Zr4_0 3.226780 1_555
Zr0_3 Zr4_1 3.226780 1_555
Zr0_3 Zr3_7 3.226799 1_555
Zr0_3 Zr3_6 3.226799 1_555
Zr0_3 Zr5_2 3.259302 1_555
Zr0_3 Zr5_3 3.259302 1_555
Zr0_4 Zr4_7 3.226780 1_554
Zr0_4 Zr4_6 3.226780 1_555
Zr0_4 Zr3_1 3.226799 1_664
Zr0_4 Zr3_0 3.226799 1_665
Zr0_4 Zr5_4 3.259302 1_565
Zr0_4 Zr5_5 3.259302 1_564
Zr0_4 Zr0_5 3.311881 1_555
Zr0_4 Zr0_5 3.311881 1_554
Zr0_5 Zr4_6 3.226780 1_555
Zr0_5 Zr4_7 3.226780 1_555
Zr0_5 Zr3_0 3.226799 1_665
Zr0_5 Zr3_1 3.226799 1_665
Zr0_5 Zr5_4 3.259302 1_565
Zr0_5 Zr5_5 3.259302 1_565
Zr0_6 Zr4_4 3.226780 1_555
Zr0_6 Zr4_5 3.226780 1_554
Zr0_6 Zr3_3 3.226799 1_654
Zr0_6 Zr3_2 3.226799 1_655
Zr0_6 Zr5_7 3.259302 1_554
Zr0_6 Zr5_6 3.259302 1_555
Zr0_6 Zr0_7 3.311881 1_554
Zr0_6 Zr0_7 3.311881 1_555
Zr0_7 Zr4_4 3.226780 1_555
Zr0_7 Zr4_5 3.226780 1_555
Zr0_7 Zr3_2 3.226799 1_655
Zr0_7 Zr3_3 3.226799 1_655
Zr0_7 Zr5_6 3.259302 1_555
Zr0_7 Zr5_7 3.259302 1_555
Zr1_0 Zr3_0 3.226661 1_555
Zr1_0 Zr3_1 3.226661 1_554
Zr1_0 Zr5_0 3.226788 1_555
Zr1_0 Zr5_1 3.226788 1_554
Zr1_0 Zr4_0 3.259378 1_555
Zr1_0 Zr4_1 3.259378 1_554
Zr1_0 Zr1_1 3.311881 1_555
Zr1_0 Zr1_1 3.311881 1_554
Zr1_1 Zr3_0 3.226661 1_555
Zr1_1 Zr3_1 3.226661 1_555
Zr1_1 Zr5_0 3.226788 1_555
Zr1_1 Zr5_1 3.226788 1_555
Zr1_1 Zr4_0 3.259378 1_555
Zr1_1 Zr4_1 3.259378 1_555
Zr1_2 Zr3_3 3.226661 1_554
Zr1_2 Zr3_2 3.226661 1_555
Zr1_2 Zr5_2 3.226788 1_555
Zr1_2 Zr5_3 3.226788 1_554
Zr1_2 Zr4_3 3.259378 1_554
Zr1_2 Zr4_2 3.259378 1_555
Zr1_2 Zr1_3 3.311881 1_554
Zr1_2 Zr1_3 3.311881 1_555
Zr1_3 Zr3_2 3.226661 1_555
Zr1_3 Zr3_3 3.226661 1_555
Zr1_3 Zr5_2 3.226788 1_555
Zr1_3 Zr5_3 3.226788 1_555
Zr1_3 Zr4_2 3.259378 1_555
Zr1_3 Zr4_3 3.259378 1_555
Zr1_4 Zr3_5 3.226661 1_554
Zr1_4 Zr3_4 3.226661 1_555
Zr1_4 Zr5_4 3.226788 1_555
Zr1_4 Zr5_5 3.226788 1_554
Zr1_4 Zr4_5 3.259378 1_554
Zr1_4 Zr4_4 3.259378 1_555
Zr1_4 Zr1_5 3.311881 1_554
Zr1_4 Zr1_5 3.311881 1_555
Zr1_5 Zr3_4 3.226661 1_555
Zr1_5 Zr3_5 3.226661 1_555
Zr1_5 Zr5_4 3.226788 1_555
Zr1_5 Zr5_5 3.226788 1_555
Zr1_5 Zr4_4 3.259378 1_555
Zr1_5 Zr4_5 3.259378 1_555
Zr1_6 Zr3_7 3.226661 1_554
Zr1_6 Zr3_6 3.226661 1_555
Zr1_6 Zr5_7 3.226788 1_554
Zr1_6 Zr5_6 3.226788 1_555
Zr1_6 Zr4_7 3.259378 1_554
Zr1_6 Zr4_6 3.259378 1_555
Zr1_6 Zr1_7 3.311881 1_554
Zr1_6 Zr1_7 3.311881 1_555
Zr1_7 Zr3_6 3.226661 1_555
Zr1_7 Zr3_7 3.226661 1_555
Zr1_7 Zr5_6 3.226788 1_555
Zr1_7 Zr5_7 3.226788 1_555
Zr1_7 Zr4_6 3.259378 1_555
Zr1_7 Zr4_7 3.259378 1_555
Zr2_0 Zr4_5 3.226745 1_454
Zr2_0 Zr4_4 3.226745 1_455
Zr2_0 Zr5_3 3.226837 1_554
Zr2_0 Zr5_2 3.226837 1_555
Zr2_0 Zr3_1 3.259355 1_554
Zr2_0 Zr3_0 3.259355 1_555
Zr2_0 Zr2_1 3.311881 1_554
Zr2_0 Zr2_1 3.311881 1_555
Zr2_1 Zr4_4 3.226745 1_455
Zr2_1 Zr4_5 3.226745 1_455
Zr2_1 Zr5_2 3.226837 1_555
Zr2_1 Zr5_3 3.226837 1_555
Zr2_1 Zr3_0 3.259355 1_555
Zr2_1 Zr3_1 3.259355 1_555
Zr2_2 Zr4_7 3.226745 1_454
Zr2_2 Zr4_6 3.226745 1_455
Zr2_2 Zr5_1 3.226837 1_564
Zr2_2 Zr5_0 3.226837 1_565
Zr2_2 Zr3_3 3.259355 1_554
Zr2_2 Zr3_2 3.259355 1_555
Zr2_2 Zr2_3 3.311881 1_554
Zr2_2 Zr2_3 3.311881 1_555
Zr2_3 Zr4_6 3.226745 1_455
Zr2_3 Zr4_7 3.226745 1_455
Zr2_3 Zr5_0 3.226837 1_565
Zr2_3 Zr5_1 3.226837 1_565
Zr2_3 Zr3_2 3.259355 1_555
Zr2_3 Zr3_3 3.259355 1_555
Zr2_4 Zr4_1 3.226745 1_554
Zr2_4 Zr4_0 3.226745 1_555
Zr2_4 Zr5_7 3.226837 1_554
Zr2_4 Zr5_6 3.226837 1_555
Zr2_4 Zr3_5 3.259355 1_554
Zr2_4 Zr3_4 3.259355 1_555
Zr2_4 Zr2_5 3.311881 1_554
Zr2_4 Zr2_5 3.311881 1_555
Zr2_5 Zr4_0 3.226745 1_555
Zr2_5 Zr4_1 3.226745 1_555
Zr2_5 Zr5_6 3.226837 1_555
Zr2_5 Zr5_7 3.226837 1_555
Zr2_5 Zr3_4 3.259355 1_555
Zr2_5 Zr3_5 3.259355 1_555
Zr2_6 Zr4_2 3.226745 1_555
Zr2_6 Zr4_3 3.226745 1_554
Zr2_6 Zr5_5 3.226837 1_564
Zr2_6 Zr5_4 3.226837 1_565
Zr2_6 Zr3_6 3.259355 1_555
Zr2_6 Zr3_7 3.259355 1_554
Zr2_6 Zr2_7 3.311881 1_555
Zr2_6 Zr2_7 3.311881 1_554
Zr2_7 Zr4_2 3.226745 1_555
Zr2_7 Zr4_3 3.226745 1_555
Zr2_7 Zr5_4 3.226837 1_565
Zr2_7 Zr5_5 3.226837 1_565
Zr2_7 Zr3_6 3.259355 1_555
Zr2_7 Zr3_7 3.259355 1_555
Al0_0 Zr0_2 2.941222 1_555
Al0_0 Zr0_3 2.941222 1_555
Al0_0 Zr2_1 2.941301 1_555
Al0_0 Zr2_0 2.941301 1_555
Al0_0 Zr1_0 2.941417 1_555
Al0_0 Zr1_1 2.941417 1_555
Al0_0 Zr4_0 3.043835 1_555
Al0_0 Zr5_2 3.043902 1_555
Al0_0 Zr3_0 3.044055 1_555
Al0_1 Zr0_2 2.941222 1_556
Al0_1 Zr0_3 2.941222 1_555
Al0_1 Zr2_0 2.941301 1_556
Al0_1 Zr2_1 2.941301 1_555
Al0_1 Zr1_0 2.941417 1_556
Al0_1 Zr1_1 2.941417 1_555
Al0_1 Zr4_1 3.043835 1_555
Al0_1 Zr5_3 3.043902 1_555
Al0_1 Zr3_1 3.044055 1_555
Al0_2 Zr0_1 2.941222 1_555
Al0_2 Zr0_0 2.941222 1_555
Al0_2 Zr2_2 2.941301 1_555
Al0_2 Zr2_3 2.941301 1_555
Al0_2 Zr1_2 2.941417 1_555
Al0_2 Zr1_3 2.941417 1_555
Al0_2 Zr4_2 3.043835 1_555
Al0_2 Zr5_0 3.043902 1_565
Al0_2 Zr3_2 3.044055 1_555
Al0_3 Zr0_0 2.941222 1_556
Al0_3 Zr0_1 2.941222 1_555
Al0_3 Zr2_2 2.941301 1_556
Al0_3 Zr2_3 2.941301 1_555
Al0_3 Zr1_2 2.941417 1_556
Al0_3 Zr1_3 2.941417 1_555
Al0_3 Zr4_3 3.043835 1_555
Al0_3 Zr5_1 3.043902 1_565
Al0_3 Zr3_3 3.044055 1_555
Al0_4 Zr0_6 2.941222 1_555
Al0_4 Zr0_7 2.941222 1_555
Al0_4 Zr2_4 2.941301 1_555
Al0_4 Zr2_5 2.941301 1_555
Al0_4 Zr1_4 2.941417 1_555
Al0_4 Zr1_5 2.941417 1_555
Al0_4 Zr4_4 3.043835 1_555
Al0_4 Zr5_6 3.043902 1_555
Al0_4 Zr3_4 3.044055 1_555
Al0_5 Zr0_6 2.941222 1_556
Al0_5 Zr0_7 2.941222 1_555
Al0_5 Zr2_4 2.941301 1_556
Al0_5 Zr2_5 2.941301 1_555
Al0_5 Zr1_4 2.941417 1_556
Al0_5 Zr1_5 2.941417 1_555
Al0_5 Zr4_5 3.043835 1_555
Al0_5 Zr5_7 3.043902 1_555
Al0_5 Zr3_5 3.044055 1_555
Al0_6 Zr0_4 2.941222 1_555
Al0_6 Zr0_5 2.941222 1_555
Al0_6 Zr2_7 2.941301 1_555
Al0_6 Zr2_6 2.941301 1_555
Al0_6 Zr1_6 2.941417 1_555
Al0_6 Zr1_7 2.941417 1_555
Al0_6 Zr4_6 3.043835 1_555
Al0_6 Zr5_4 3.043902 1_565
Al0_6 Zr3_6 3.044055 1_555
Al0_7 Zr0_4 2.941222 1_556
Al0_7 Zr0_5 2.941222 1_555
Al0_7 Zr2_6 2.941301 1_556
Al0_7 Zr2_7 2.941301 1_555
Al0_7 Zr1_6 2.941417 1_556
Al0_7 Zr1_7 2.941417 1_555
Al0_7 Zr4_7 3.043835 1_555
Al0_7 Zr5_5 3.043902 1_565
Al0_7 Zr3_7 3.044055 1_555
Al1_0 Zr0_0 2.941241 1_545
Al1_0 Zr0_1 2.941241 1_545
Al1_0 Zr1_0 2.941295 1_555
Al1_0 Zr1_1 2.941295 1_555
Al1_0 Zr2_5 2.941493 1_555
Al1_0 Zr2_4 2.941493 1_555
Al1_0 Zr5_0 3.043711 1_555
Al1_0 Zr3_4 3.043917 1_555
Al1_0 Zr4_0 3.044159 1_555
Al1_1 Zr0_0 2.941241 1_546
Al1_1 Zr0_1 2.941241 1_545
Al1_1 Zr1_0 2.941295 1_556
Al1_1 Zr1_1 2.941295 1_555
Al1_1 Zr2_4 2.941493 1_556
Al1_1 Zr2_5 2.941493 1_555
Al1_1 Zr5_1 3.043711 1_555
Al1_1 Zr3_5 3.043917 1_555
Al1_1 Zr4_1 3.044159 1_555
Al1_2 Zr0_3 2.941241 1_555
Al1_2 Zr0_2 2.941241 1_555
Al1_2 Zr1_2 2.941295 1_555
Al1_2 Zr1_3 2.941295 1_555
Al1_2 Zr2_7 2.941493 1_555
Al1_2 Zr2_6 2.941493 1_555
Al1_2 Zr5_2 3.043711 1_555
Al1_2 Zr3_6 3.043917 1_555
Al1_2 Zr4_2 3.044159 1_555
Al1_3 Zr0_2 2.941241 1_556
Al1_3 Zr0_3 2.941241 1_555
Al1_3 Zr1_2 2.941295 1_556
Al1_3 Zr1_3 2.941295 1_555
Al1_3 Zr2_6 2.941493 1_556
Al1_3 Zr2_7 2.941493 1_555
Al1_3 Zr5_3 3.043711 1_555
Al1_3 Zr3_7 3.043917 1_555
Al1_3 Zr4_3 3.044159 1_555
Al1_4 Zr0_4 2.941241 1_545
Al1_4 Zr0_5 2.941241 1_545
Al1_4 Zr1_4 2.941295 1_555
Al1_4 Zr1_5 2.941295 1_555
Al1_4 Zr2_0 2.941493 1_655
Al1_4 Zr2_1 2.941493 1_655
Al1_4 Zr5_4 3.043711 1_555
Al1_4 Zr3_0 3.043917 1_655
Al1_4 Zr4_4 3.044159 1_555
Al1_5 Zr0_4 2.941241 1_546
Al1_5 Zr0_5 2.941241 1_545
Al1_5 Zr1_4 2.941295 1_556
Al1_5 Zr1_5 2.941295 1_555
Al1_5 Zr2_0 2.941493 1_656
Al1_5 Zr2_1 2.941493 1_655
Al1_5 Zr5_5 3.043711 1_555
Al1_5 Zr3_1 3.043917 1_655
Al1_5 Zr4_5 3.044159 1_555
Al1_6 Zr0_6 2.941241 1_555
Al1_6 Zr0_7 2.941241 1_555
Al1_6 Zr1_7 2.941295 1_555
Al1_6 Zr1_6 2.941295 1_555
Al1_6 Zr2_2 2.941493 1_655
Al1_6 Zr2_3 2.941493 1_655
Al1_6 Zr5_6 3.043711 1_555
Al1_6 Zr3_2 3.043917 1_655
Al1_6 Zr4_6 3.044159 1_555
Al1_7 Zr0_6 2.941241 1_556
Al1_7 Zr0_7 2.941241 1_555
Al1_7 Zr1_6 2.941295 1_556
Al1_7 Zr1_7 2.941295 1_555
Al1_7 Zr2_2 2.941493 1_656
Al1_7 Zr2_3 2.941493 1_655
Al1_7 Zr5_7 3.043711 1_555
Al1_7 Zr3_3 3.043917 1_655
Al1_7 Zr4_7 3.044159 1_555
Fe0_0 Zr5_3 2.574124 1_554
Fe0_0 Zr5_2 2.574124 1_555
Fe0_0 Zr4_5 2.574217 1_454
Fe0_0 Zr4_4 2.574217 1_455
Fe0_0 Zr3_3 2.574275 1_554
Fe0_0 Zr3_2 2.574275 1_555
Fe0_0 Zr1_2 3.166392 1_555
Fe0_0 Zr0_6 3.166393 1_455
Fe0_0 Zr2_0 3.166434 1_555
Fe0_1 Zr5_2 2.574124 1_555
Fe0_1 Zr5_3 2.574124 1_555
Fe0_1 Zr4_4 2.574217 1_455
Fe0_1 Zr4_5 2.574217 1_455
Fe0_1 Zr3_2 2.574275 1_555
Fe0_1 Zr3_3 2.574275 1_555
Fe0_1 Zr1_3 3.166392 1_555
Fe0_1 Zr0_7 3.166393 1_455
Fe0_1 Zr2_1 3.166434 1_555
Fe0_2 Zr5_1 2.574124 1_564
Fe0_2 Zr5_0 2.574124 1_565
Fe0_2 Zr4_7 2.574217 1_454
Fe0_2 Zr4_6 2.574217 1_455
Fe0_2 Zr3_1 2.574275 1_564
Fe0_2 Zr3_0 2.574275 1_565
Fe0_2 Zr1_0 3.166392 1_565
Fe0_2 Zr0_4 3.166393 1_455
Fe0_2 Zr2_2 3.166434 1_555
Fe0_3 Zr5_0 2.574124 1_565
Fe0_3 Zr5_1 2.574124 1_565
Fe0_3 Zr4_6 2.574217 1_455
Fe0_3 Zr4_7 2.574217 1_455
Fe0_3 Zr3_0 2.574275 1_565
Fe0_3 Zr3_1 2.574275 1_565
Fe0_3 Zr1_1 3.166392 1_565
Fe0_3 Zr0_5 3.166393 1_455
Fe0_3 Zr2_3 3.166434 1_555
Fe0_4 Zr5_7 2.574124 1_554
Fe0_4 Zr5_6 2.574124 1_555
Fe0_4 Zr4_1 2.574217 1_554
Fe0_4 Zr4_0 2.574217 1_555
Fe0_4 Zr3_7 2.574275 1_554
Fe0_4 Zr3_6 2.574275 1_555
Fe0_4 Zr1_6 3.166392 1_555
Fe0_4 Zr0_2 3.166393 1_555
Fe0_4 Zr2_4 3.166434 1_555
Fe0_5 Zr5_6 2.574124 1_555
Fe0_5 Zr5_7 2.574124 1_555
Fe0_5 Zr4_0 2.574217 1_555
Fe0_5 Zr4_1 2.574217 1_555
Fe0_5 Zr3_6 2.574275 1_555
Fe0_5 Zr3_7 2.574275 1_555
Fe0_5 Zr1_7 3.166392 1_555
Fe0_5 Zr0_3 3.166393 1_555
Fe0_5 Zr2_5 3.166434 1_555
Fe0_6 Zr5_5 2.574124 1_564
Fe0_6 Zr5_4 2.574124 1_565
Fe0_6 Zr4_3 2.574217 1_554
Fe0_6 Zr4_2 2.574217 1_555
Fe0_6 Zr3_5 2.574275 1_564
Fe0_6 Zr3_4 2.574275 1_565
Fe0_6 Zr1_4 3.166392 1_565
Fe0_6 Zr0_0 3.166393 1_555
Fe0_6 Zr2_6 3.166434 1_555
Fe0_7 Zr5_4 2.574124 1_565
Fe0_7 Zr5_5 2.574124 1_565
Fe0_7 Zr4_2 2.574217 1_555
Fe0_7 Zr4_3 2.574217 1_555
Fe0_7 Zr3_4 2.574275 1_565
Fe0_7 Zr3_5 2.574275 1_565
Fe0_7 Zr1_5 3.166392 1_565
Fe0_7 Zr0_1 3.166393 1_555
Fe0_7 Zr2_7 3.166434 1_555
