# generated using pymatgen
data_YbSi3
_symmetry_space_group_name_H-M   'P 1'
_cell_length_a   7.58442782
_cell_length_b   7.58442782
_cell_length_c   7.58442782
_cell_angle_alpha   123.75543968
_cell_angle_beta   123.75543968
_cell_angle_gamma   83.60983535
_symmetry_Int_Tables_number   1
_chemical_formula_structural   YbSi3
_chemical_formula_sum   'Yb4 Si12'
_cell_volume   289.01793521
_cell_formula_units_Z   4
loop_
 _symmetry_equiv_pos_site_id
 _symmetry_equiv_pos_as_xyz
  1  'x, y, z'
loop_
 _atom_site_type_symbol
 _atom_site_label
 _atom_site_symmetry_multiplicity
 _atom_site_fract_x
 _atom_site_fract_y
 _atom_site_fract_z
 _atom_site_occupancy
  Yb  Yb0  1  0.82755200  0.82755200  0.00000000  1
  Yb  Yb1  1  0.17244800  0.17244800  0.00000000  1
  Yb  Yb2  1  0.75000000  0.25000000  0.50000000  1
  Yb  Yb3  1  0.25000000  0.75000000  0.50000000  1
  Si  Si0  1  0.20838200  0.20838200  0.63322700  1
  Si  Si1  1  0.57515400  0.57515400  0.36677300  1
  Si  Si2  1  0.20838200  0.57515400  0.00000000  1
  Si  Si3  1  0.57515400  0.20838200  0.00000000  1
  Si  Si4  1  0.79161800  0.79161800  0.36677300  1
  Si  Si5  1  0.42484600  0.42484600  0.63322700  1
  Si  Si6  1  0.79161800  0.42484600  0.00000000  1
  Si  Si7  1  0.42484600  0.79161800  0.00000000  1
  Si  Si8  1  0.33424000  0.00000000  0.33424000  1
  Si  Si9  1  0.66576000  0.00000000  0.66576000  1
  Si  Si10  1  0.00000000  0.66576000  0.66576000  1
  Si  Si11  1  0.00000000  0.33424000  0.33424000  1
loop_
_geom_bond_atom_site_label_1
_geom_bond_atom_site_label_2
_geom_bond_distance
_geom_bond_site_symmetry_2
Si0 Si5 2.447591 1_555
Si0 Si11 2.576461 1_555
Si0 Si8 2.576461 1_555
Si0 Si2 2.622392 1_556
Si0 Si3 2.622392 1_556
Si0 Yb2 3.068134 1_455
Si0 Yb3 3.068134 1_545
Si0 Yb1 3.096503 1_556
Si0 Yb0 3.282749 1_445
Si1 Si4 2.447591 1_555
Si1 Si10 2.576466 1_655
Si1 Si9 2.576466 1_565
Si1 Si2 2.622392 1_555
Si1 Si3 2.622392 1_555
Si1 Yb2 3.068128 1_555
Si1 Yb3 3.068128 1_555
Si1 Yb1 3.096494 1_555
Si1 Yb0 3.282747 1_556
Si2 Si7 2.447591 1_555
Si2 Si8 2.576467 1_565
Si2 Yb2 3.068132 1_454
Si2 Yb3 3.068132 1_555
Si2 Yb1 3.096496 1_555
Si2 Yb0 3.282753 1_455
Si3 Si6 2.447591 1_555
Si3 Si9 2.576467 1_554
Si3 Yb2 3.068132 1_555
Si3 Yb3 3.068132 1_544
Si3 Yb1 3.096496 1_555
Si3 Yb0 3.282753 1_545
Si4 Si9 2.576461 1_565
Si4 Si7 2.622392 1_555
Si4 Si6 2.622392 1_555
Si4 Yb2 3.068134 1_565
Si4 Yb3 3.068134 1_655
Si4 Yb0 3.096503 1_555
Si4 Yb1 3.282749 1_666
Si5 Si8 2.576466 1_555
Si5 Si6 2.622392 1_556
Si5 Si7 2.622392 1_556
Si5 Yb2 3.068128 1_555
Si5 Yb3 3.068128 1_555
Si5 Yb0 3.096494 1_556
Si5 Yb1 3.282747 1_555
Si6 Si9 2.576467 1_554
Si6 Yb3 3.068132 1_655
Si6 Yb2 3.068132 1_554
Si6 Yb0 3.096496 1_555
Si6 Yb1 3.282753 1_655
Si7 Si8 2.576467 1_565
Si7 Yb3 3.068132 1_554
Si7 Yb2 3.068132 1_565
Si7 Yb0 3.096496 1_555
Si7 Yb1 3.282753 1_565
Si8 Si9 2.370339 1_555
Si8 Yb2 3.065184 1_555
Si8 Yb3 3.065184 1_545
Si8 Yb1 3.084344 1_555
Si8 Yb0 3.084344 1_445
Si9 Yb2 3.065184 1_555
Si9 Yb3 3.065184 1_545
Si9 Yb1 3.084344 1_656
Si9 Yb0 3.084344 1_546
Si10 Si11 2.370339 1_555
Si10 Si4 2.576461 1_455
Si10 Si2 2.576467 1_556
Si10 Si7 2.576467 1_556
Si10 Yb2 3.065184 1_455
Si10 Yb3 3.065184 1_555
Si10 Yb1 3.084344 1_566
Si10 Yb0 3.084344 1_456
Si11 Si5 2.576466 1_555
Si11 Si3 2.576467 1_455
Si11 Si6 2.576467 1_455
Si11 Yb2 3.065184 1_455
Si11 Yb3 3.065184 1_555
Si11 Yb1 3.084344 1_555
Si11 Yb0 3.084344 1_445
