# generated using pymatgen
data_NdY3(Co4B)4
_symmetry_space_group_name_H-M   'P 1'
_cell_length_a   5.04863014
_cell_length_b   5.04863014
_cell_length_c   13.66876400
_cell_angle_alpha   90.00000000
_cell_angle_beta   90.00000000
_cell_angle_gamma   120.00000188
_symmetry_Int_Tables_number   1
_chemical_formula_structural   NdY3(Co4B)4
_chemical_formula_sum   'Nd1 Y3 Co16 B4'
_cell_volume   301.72200194
_cell_formula_units_Z   1
loop_
 _symmetry_equiv_pos_site_id
 _symmetry_equiv_pos_as_xyz
  1  'x, y, z'
loop_
 _atom_site_type_symbol
 _atom_site_label
 _atom_site_symmetry_multiplicity
 _atom_site_fract_x
 _atom_site_fract_y
 _atom_site_fract_z
 _atom_site_occupancy
  Nd  Nd0  1  0.00000000  0.00000000  0.00000000  1
  Y  Y0  1  0.00000000  0.00000000  0.50000000  1
  Y  Y1  1  0.00000000  0.00000000  0.74946100  1
  Y  Y2  1  0.00000000  0.00000000  0.25053900  1
  Co  Co0  1  0.50000000  0.50000000  0.85464800  1
  Co  Co1  1  0.50000000  0.50000000  0.35572900  1
  Co  Co2  1  0.50000000  0.00000000  0.85464800  1
  Co  Co3  1  0.50000000  0.00000000  0.35572900  1
  Co  Co4  1  0.00000000  0.50000000  0.85464800  1
  Co  Co5  1  0.00000000  0.50000000  0.35572900  1
  Co  Co6  1  0.50000000  0.50000000  0.64427100  1
  Co  Co7  1  0.50000000  0.50000000  0.14535200  1
  Co  Co8  1  0.50000000  0.00000000  0.64427100  1
  Co  Co9  1  0.50000000  0.00000000  0.14535200  1
  Co  Co10  1  0.00000000  0.50000000  0.64427100  1
  Co  Co11  1  0.00000000  0.50000000  0.14535200  1
  Co  Co12  1  0.66666700  0.33333300  0.00000000  1
  Co  Co13  1  0.66666700  0.33333300  0.50000000  1
  Co  Co14  1  0.33333300  0.66666700  0.00000000  1
  Co  Co15  1  0.33333300  0.66666700  0.50000000  1
  B  B0  1  0.66666700  0.33333300  0.74994200  1
  B  B1  1  0.66666700  0.33333300  0.25005800  1
  B  B2  1  0.33333300  0.66666700  0.74994200  1
  B  B3  1  0.33333300  0.66666700  0.25005800  1
loop_
_geom_bond_atom_site_label_1
_geom_bond_atom_site_label_2
_geom_bond_distance
_geom_bond_site_symmetry_2
Co0 Co14 2.464015 1_556
Co0 Co12 2.464015 1_556
Co0 Y1 2.905059 1_555
Co0 Y1 2.905059 1_665
Co1 Co15 2.452116 1_555
Co1 Co13 2.452116 1_555
Co1 Y2 2.905079 1_555
Co1 Y2 2.905079 1_665
Co2 Y1 2.905059 1_655
Co2 Y1 2.905059 1_555
Co3 Y2 2.905079 1_555
Co3 Y2 2.905079 1_655
Co4 Y1 2.905059 1_555
Co4 Y1 2.905059 1_565
Co5 Y2 2.905079 1_555
Co5 Y2 2.905079 1_565
Co6 Y1 2.905079 1_665
Co6 Y1 2.905079 1_555
Co7 Y2 2.905059 1_555
Co7 Y2 2.905059 1_665
Co8 Y1 2.905079 1_655
Co8 Y1 2.905079 1_555
Co9 Y2 2.905059 1_655
Co9 Y2 2.905059 1_555
Co10 Co15 2.452113 1_555
Co10 Co13 2.452113 1_455
Co10 Y1 2.905079 1_555
Co10 Y1 2.905079 1_565
Co11 Co14 2.464012 1_555
Co11 Co12 2.464012 1_455
Co11 Y2 2.905059 1_555
Co11 Y2 2.905059 1_565
Co12 Co9 2.464012 1_555
Co12 Co2 2.464012 1_554
Co12 Co4 2.464012 1_654
Co12 Co7 2.464015 1_555
Co12 Nd0 2.914825 1_655
Co12 Nd0 2.914829 1_665
Co12 Nd0 2.914829 1_555
Co13 Co8 2.452113 1_555
Co13 Co3 2.452113 1_555
Co13 Co5 2.452113 1_655
Co13 Co6 2.452116 1_555
Co13 Y0 2.914825 1_655
Co13 Y0 2.914829 1_665
Co13 Y0 2.914829 1_555
Co14 Co9 2.464012 1_565
Co14 Co2 2.464012 1_564
Co14 Co4 2.464012 1_554
Co14 Co7 2.464015 1_555
Co14 Nd0 2.914825 1_565
Co14 Nd0 2.914829 1_665
Co14 Nd0 2.914829 1_555
Co15 Co8 2.452113 1_565
Co15 Co3 2.452113 1_565
Co15 Co5 2.452113 1_555
Co15 Co6 2.452116 1_555
Co15 Y0 2.914825 1_565
Co15 Y0 2.914829 1_665
Co15 Y0 2.914829 1_555
B0 Co4 2.042643 1_655
B0 Co2 2.042643 1_555
B0 Co0 2.042646 1_555
B0 Co8 2.051906 1_555
B0 Co10 2.051906 1_655
B0 Co6 2.051909 1_555
B0 Y1 2.914833 1_655
B0 Y1 2.914837 1_665
B0 Y1 2.914837 1_555
B1 Co11 2.042643 1_655
B1 Co9 2.042643 1_555
B1 Co7 2.042646 1_555
B1 Co5 2.051906 1_655
B1 Co3 2.051906 1_555
B1 Co1 2.051909 1_555
B1 Y2 2.914833 1_655
B1 Y2 2.914837 1_665
B1 Y2 2.914837 1_555
B2 Co4 2.042643 1_555
B2 Co2 2.042643 1_565
B2 Co0 2.042646 1_555
B2 Co8 2.051906 1_565
B2 Co10 2.051906 1_555
B2 Co6 2.051909 1_555
B2 Y1 2.914833 1_565
B2 Y1 2.914837 1_665
B2 Y1 2.914837 1_555
B3 Co9 2.042643 1_565
B3 Co11 2.042643 1_555
B3 Co7 2.042646 1_555
B3 Co3 2.051906 1_565
B3 Co5 2.051906 1_555
B3 Co1 2.051909 1_555
B3 Y2 2.914833 1_565
B3 Y2 2.914837 1_665
B3 Y2 2.914837 1_555
