# generated using pymatgen
data_Tl2Mo9Se11
_symmetry_space_group_name_H-M   'P 1'
_cell_length_a   13.51908381
_cell_length_b   13.51908381
_cell_length_c   13.51908327
_cell_angle_alpha   42.57571957
_cell_angle_beta   42.57571957
_cell_angle_gamma   42.57572069
_symmetry_Int_Tables_number   1
_chemical_formula_structural   Tl2Mo9Se11
_chemical_formula_sum   'Tl4 Mo18 Se22'
_cell_volume   1024.24870618
_cell_formula_units_Z   2
loop_
 _symmetry_equiv_pos_site_id
 _symmetry_equiv_pos_as_xyz
  1  'x, y, z'
loop_
 _atom_site_type_symbol
 _atom_site_label
 _atom_site_symmetry_multiplicity
 _atom_site_fract_x
 _atom_site_fract_y
 _atom_site_fract_z
 _atom_site_occupancy
  Tl  Tl0  1  0.82970700  0.82970700  0.82970700  1
  Tl  Tl1  1  0.17029300  0.17029300  0.17029300  1
  Tl  Tl2  1  0.26802300  0.26802300  0.26802300  1
  Tl  Tl3  1  0.73197700  0.73197700  0.73197700  1
  Mo  Mo0  1  0.86481600  0.04617500  0.18169600  1
  Mo  Mo1  1  0.04617500  0.18169600  0.86481600  1
  Mo  Mo2  1  0.18169600  0.86481600  0.04617500  1
  Mo  Mo3  1  0.13518400  0.95382500  0.81830400  1
  Mo  Mo4  1  0.95382500  0.81830400  0.13518400  1
  Mo  Mo5  1  0.81830400  0.13518400  0.95382500  1
  Mo  Mo6  1  0.39160700  0.25991500  0.56963400  1
  Mo  Mo7  1  0.25991500  0.56963400  0.39160700  1
  Mo  Mo8  1  0.56963400  0.39160700  0.25991500  1
  Mo  Mo9  1  0.60839300  0.74008500  0.43036600  1
  Mo  Mo10  1  0.74008500  0.43036600  0.60839300  1
  Mo  Mo11  1  0.43036600  0.60839300  0.74008500  1
  Mo  Mo12  1  0.30719500  0.47882900  0.62359100  1
  Mo  Mo13  1  0.47882900  0.62359100  0.30719500  1
  Mo  Mo14  1  0.62359100  0.30719500  0.47882900  1
  Mo  Mo15  1  0.69280600  0.52117100  0.37640900  1
  Mo  Mo16  1  0.52117100  0.37640900  0.69280600  1
  Mo  Mo17  1  0.37640900  0.69280600  0.52117100  1
  Se  Se0  1  0.65099600  0.00463800  0.26423400  1
  Se  Se1  1  0.00463800  0.26423400  0.65099600  1
  Se  Se2  1  0.26423400  0.65099600  0.00463800  1
  Se  Se3  1  0.34900400  0.99536200  0.73576600  1
  Se  Se4  1  0.99536200  0.73576600  0.34900400  1
  Se  Se5  1  0.73576600  0.34900400  0.99536200  1
  Se  Se6  1  0.70636400  0.08886100  0.44101200  1
  Se  Se7  1  0.08886100  0.44101200  0.70636400  1
  Se  Se8  1  0.44101200  0.70636400  0.08886100  1
  Se  Se9  1  0.29363600  0.91113900  0.55898800  1
  Se  Se10  1  0.91113900  0.55898800  0.29363600  1
  Se  Se11  1  0.55898800  0.29363600  0.91113900  1
  Se  Se12  1  0.44989900  0.16802100  0.78525600  1
  Se  Se13  1  0.16802100  0.78525600  0.44989900  1
  Se  Se14  1  0.78525600  0.44989900  0.16802100  1
  Se  Se15  1  0.55010100  0.83197900  0.21474400  1
  Se  Se16  1  0.83197900  0.21474400  0.55010100  1
  Se  Se17  1  0.21474400  0.55010100  0.83197900  1
  Se  Se18  1  0.08560400  0.08560400  0.08560400  1
  Se  Se19  1  0.91439600  0.91439600  0.91439600  1
  Se  Se20  1  0.35208400  0.35208400  0.35208400  1
  Se  Se21  1  0.64791600  0.64791600  0.64791600  1
loop_
_geom_bond_atom_site_label_1
_geom_bond_atom_site_label_2
_geom_bond_distance
_geom_bond_site_symmetry_2
Mo0 Se18 2.548286 1_655
Mo0 Se0 2.575594 1_555
Mo0 Se4 2.614055 1_545
Mo0 Se5 2.629599 1_554
Mo0 Se6 2.703821 1_555
Mo1 Se18 2.548286 1_556
Mo1 Se1 2.575594 1_555
Mo1 Se5 2.614055 1_455
Mo1 Se3 2.629599 1_545
Mo1 Se7 2.703821 1_555
Mo2 Se18 2.548286 1_565
Mo2 Se2 2.575594 1_555
Mo2 Se3 2.614055 1_554
Mo2 Se4 2.629598 1_455
Mo2 Se8 2.703821 1_555
Mo3 Se19 2.548286 1_455
Mo3 Se3 2.575594 1_555
Mo3 Se1 2.614055 1_565
Mo3 Se2 2.629599 1_556
Mo3 Se9 2.703821 1_555
Mo4 Se19 2.548286 1_554
Mo4 Se4 2.575594 1_555
Mo4 Se2 2.614055 1_655
Mo4 Se0 2.629599 1_565
Mo4 Se10 2.703821 1_555
Mo5 Se19 2.548286 1_545
Mo5 Se5 2.575594 1_555
Mo5 Se0 2.614055 1_556
Mo5 Se1 2.629598 1_655
Mo5 Se11 2.703821 1_555
Mo6 Se20 2.534689 1_555
Mo6 Se7 2.631995 1_555
Mo6 Se6 2.647770 1_555
Mo6 Se12 2.696217 1_555
Mo6 Se3 2.732371 1_545
Mo7 Se20 2.534689 1_555
Mo7 Se8 2.631995 1_555
Mo7 Se7 2.647770 1_555
Mo7 Se13 2.696217 1_555
Mo7 Se4 2.732371 1_455
Mo8 Se20 2.534689 1_555
Mo8 Se6 2.631995 1_555
Mo8 Se8 2.647770 1_555
Mo8 Se14 2.696217 1_555
Mo8 Se5 2.732370 1_554
Mo9 Se21 2.534689 1_555
Mo9 Se10 2.631995 1_555
Mo9 Se9 2.647770 1_555
Mo9 Se15 2.696217 1_555
Mo9 Se0 2.732371 1_565
Mo10 Se21 2.534689 1_555
Mo10 Se11 2.631995 1_555
Mo10 Se10 2.647770 1_555
Mo10 Se16 2.696217 1_555
Mo10 Se1 2.732371 1_655
Mo11 Se21 2.534689 1_555
Mo11 Se9 2.631995 1_555
Mo11 Se11 2.647770 1_555
Mo11 Se17 2.696217 1_555
Mo11 Se2 2.732370 1_556
Mo12 Se7 2.596414 1_555
Mo12 Se12 2.626825 1_555
Mo12 Se13 2.629888 1_555
Mo12 Se17 2.732332 1_555
Mo13 Se8 2.596414 1_555
Mo13 Se13 2.626825 1_555
Mo13 Se14 2.629888 1_555
Mo13 Se15 2.732332 1_555
Mo14 Se6 2.596414 1_555
Mo14 Se14 2.626825 1_555
Mo14 Se12 2.629888 1_555
Mo14 Se16 2.732332 1_555
Mo15 Se10 2.596401 1_555
Mo15 Se15 2.626828 1_555
Mo15 Se16 2.629886 1_555
Mo15 Se14 2.732339 1_555
Mo16 Se11 2.596401 1_555
Mo16 Se16 2.626828 1_555
Mo16 Se17 2.629886 1_555
Mo16 Se12 2.732339 1_555
Mo17 Se9 2.596401 1_555
Mo17 Se17 2.626828 1_555
Mo17 Se15 2.629885 1_555
Mo17 Se13 2.732339 1_555
Se6 Tl3 3.235073 1_545
Se7 Tl3 3.235073 1_455
Se8 Tl3 3.235073 1_554
Se9 Tl2 3.235073 1_565
Se10 Tl2 3.235073 1_655
Se11 Tl2 3.235073 1_556
Se18 Tl1 3.118362 1_555
Se19 Tl0 3.118362 1_555
Se20 Tl2 3.095238 1_555
Se21 Tl3 3.095238 1_555
