# generated using pymatgen
data_Cu31PdN8
_symmetry_space_group_name_H-M   'P 1'
_cell_length_a   3.94324000
_cell_length_b   7.70940500
_cell_length_c   15.20210100
_cell_angle_alpha   90.00000000
_cell_angle_beta   90.00000000
_cell_angle_gamma   90.00000000
_symmetry_Int_Tables_number   1
_chemical_formula_structural   Cu31PdN8
_chemical_formula_sum   'Cu31 Pd1 N8'
_cell_volume   462.14438989
_cell_formula_units_Z   1
loop_
 _symmetry_equiv_pos_site_id
 _symmetry_equiv_pos_as_xyz
  1  'x, y, z'
loop_
 _atom_site_type_symbol
 _atom_site_label
 _atom_site_symmetry_multiplicity
 _atom_site_fract_x
 _atom_site_fract_y
 _atom_site_fract_z
 _atom_site_occupancy
  Cu  Cu0  1  0.50000000  0.25048900  0.12557000  1
  Cu  Cu1  1  0.50000000  0.24998800  0.62505900  1
  Cu  Cu2  1  0.50000000  0.75001200  0.37494100  1
  Cu  Cu3  1  0.50000000  0.74951100  0.87443000  1
  Cu  Cu4  1  0.50000000  0.74951100  0.12557000  1
  Cu  Cu5  1  0.50000000  0.75001200  0.62505900  1
  Cu  Cu6  1  0.50000000  0.24998800  0.37494100  1
  Cu  Cu7  1  0.50000000  0.25048900  0.87443000  1
  Cu  Cu8  1  0.00000000  0.50000000  0.12502600  1
  Cu  Cu9  1  0.00000000  0.50000000  0.62493600  1
  Cu  Cu10  1  0.00000000  0.50000000  0.37506400  1
  Cu  Cu11  1  0.00000000  0.50000000  0.87497400  1
  Cu  Cu12  1  0.00000000  0.74999800  0.24980100  1
  Cu  Cu13  1  0.00000000  0.74999800  0.75019900  1
  Cu  Cu14  1  0.00000000  0.25000200  0.24980100  1
  Cu  Cu15  1  0.00000000  0.25000200  0.75019900  1
  Cu  Cu16  1  0.00000000  0.00000000  0.12575900  1
  Cu  Cu17  1  0.00000000  0.00000000  0.62485100  1
  Cu  Cu18  1  0.00000000  0.00000000  0.37514900  1
  Cu  Cu19  1  0.00000000  0.00000000  0.87424100  1
  Cu  Cu20  1  0.00000000  0.74897100  0.00000000  1
  Cu  Cu21  1  0.00000000  0.75008100  0.50000000  1
  Cu  Cu22  1  0.00000000  0.25102900  0.00000000  1
  Cu  Cu23  1  0.00000000  0.24991900  0.50000000  1
  Cu  Cu24  1  0.50000000  0.50000000  0.24970700  1
  Cu  Cu25  1  0.50000000  0.50000000  0.75029300  1
  Cu  Cu26  1  0.50000000  0.50000000  0.00000000  1
  Cu  Cu27  1  0.50000000  0.50000000  0.50000000  1
  Cu  Cu28  1  0.50000000  0.00000000  0.25042900  1
  Cu  Cu29  1  0.50000000  0.00000000  0.74957100  1
  Cu  Cu30  1  0.50000000  0.00000000  0.50000000  1
  Pd  Pd0  1  0.50000000  0.00000000  0.00000000  1
  N  N0  1  0.00000000  0.00000000  0.00000000  1
  N  N1  1  0.00000000  0.00000000  0.50000000  1
  N  N2  1  0.00000000  0.50000000  0.00000000  1
  N  N3  1  0.00000000  0.50000000  0.50000000  1
  N  N4  1  0.00000000  0.00000000  0.25038100  1
  N  N5  1  0.00000000  0.00000000  0.74961900  1
  N  N6  1  0.00000000  0.50000000  0.25012800  1
  N  N7  1  0.00000000  0.50000000  0.74987200  1
loop_
_geom_bond_atom_site_label_1
_geom_bond_atom_site_label_2
_geom_bond_distance
_geom_bond_site_symmetry_2
Cu0 Cu24 2.694712 1_555
Cu0 Cu28 2.707782 1_555
Cu0 Cu26 2.710013 1_555
Cu0 Pd0 2.715370 1_555
Cu0 Cu14 2.730202 1_655
Cu0 Cu14 2.730202 1_555
Cu0 Cu22 2.744323 1_655
Cu0 Cu22 2.744323 1_555
Cu0 Cu8 2.754545 1_655
Cu0 Cu8 2.754545 1_555
Cu0 Cu16 2.759805 1_655
Cu0 Cu16 2.759805 1_555
Cu1 Cu29 2.701330 1_555
Cu1 Cu30 2.707163 1_555
Cu1 Cu27 2.707295 1_555
Cu1 Cu25 2.709164 1_555
Cu1 Cu23 2.738922 1_555
Cu1 Cu23 2.738922 1_655
Cu1 Cu15 2.739777 1_555
Cu1 Cu15 2.739777 1_655
Cu1 Cu17 2.757104 1_655
Cu1 Cu17 2.757104 1_555
Cu1 Cu9 2.757232 1_655
Cu1 Cu9 2.757232 1_555
Cu2 Cu28 2.701330 1_565
Cu2 Cu30 2.707163 1_565
Cu2 Cu27 2.707295 1_555
Cu2 Cu24 2.709164 1_555
Cu2 Cu21 2.738922 1_555
Cu2 Cu21 2.738922 1_655
Cu3 Pd0 2.715370 1_566
Cu4 Pd0 2.715370 1_565
Cu4 Cu8 2.754545 1_555
Cu4 Cu8 2.754545 1_655
Cu5 Cu9 2.757232 1_655
Cu5 Cu9 2.757232 1_555
Cu7 Pd0 2.715370 1_556
Cu8 N2 1.900658 1_555
Cu8 N6 1.901813 1_555
Cu9 N7 1.899290 1_555
Cu9 N3 1.899290 1_555
Cu10 N6 1.899290 1_555
Cu10 N3 1.899290 1_555
Cu10 Cu6 2.757232 1_455
Cu10 Cu2 2.757232 1_555
Cu10 Cu6 2.757232 1_555
Cu10 Cu2 2.757232 1_455
Cu11 N2 1.900658 1_556
Cu11 N7 1.901813 1_555
Cu11 Cu7 2.754545 1_455
Cu11 Cu7 2.754545 1_555
Cu11 Cu3 2.754545 1_455
Cu11 Cu3 2.754545 1_555
Cu12 N6 1.927342 1_555
Cu12 N4 1.927387 1_565
Cu12 Cu4 2.730202 1_455
Cu12 Cu4 2.730202 1_555
Cu12 Cu2 2.739777 1_555
Cu12 Cu2 2.739777 1_455
Cu13 N7 1.927342 1_555
Cu13 N5 1.927387 1_565
Cu13 Cu3 2.730202 1_555
Cu13 Cu3 2.730202 1_455
Cu13 Cu5 2.739777 1_455
Cu13 Cu5 2.739777 1_555
Cu14 N6 1.927342 1_555
Cu14 N4 1.927387 1_555
Cu14 Cu6 2.739777 1_555
Cu14 Cu6 2.739777 1_455
Cu15 N7 1.927342 1_555
Cu15 N5 1.927387 1_555
Cu15 Cu7 2.730202 1_455
Cu15 Cu7 2.730202 1_555
Cu16 N4 1.894516 1_555
Cu16 N0 1.911801 1_555
Cu16 Cu4 2.759805 1_445
Cu16 Cu4 2.759805 1_545
Cu17 N5 1.896736 1_555
Cu17 N1 1.897998 1_555
Cu17 Cu5 2.757104 1_445
Cu17 Cu5 2.757104 1_545
Cu18 N4 1.896736 1_555
Cu18 N1 1.897998 1_555
Cu18 Cu6 2.757104 1_555
Cu18 Cu6 2.757104 1_455
Cu18 Cu2 2.757104 1_545
Cu18 Cu2 2.757104 1_445
Cu19 N5 1.894516 1_555
Cu19 N0 1.911801 1_556
Cu19 Cu3 2.759805 1_545
Cu19 Cu3 2.759805 1_445
Cu19 Cu7 2.759805 1_455
Cu19 Cu7 2.759805 1_555
Cu20 N2 1.919418 1_555
Cu20 N0 1.935284 1_565
Cu20 Cu3 2.744323 1_454
Cu20 Cu3 2.744323 1_554
Cu20 Cu4 2.744323 1_455
Cu20 Cu4 2.744323 1_555
Cu21 N1 1.926727 1_565
Cu21 N3 1.927976 1_555
Cu21 Cu5 2.738922 1_555
Cu21 Cu5 2.738922 1_455
Cu22 N2 1.919418 1_555
Cu22 N0 1.935284 1_555
Cu22 Cu7 2.744323 1_454
Cu22 Cu7 2.744323 1_554
Cu23 N1 1.926727 1_555
Cu23 N3 1.927976 1_555
Cu23 Cu6 2.738922 1_555
Cu23 Cu6 2.738922 1_455
Cu24 N6 1.971630 1_655
Cu24 N6 1.971630 1_555
Cu24 Cu4 2.694712 1_555
Cu24 Cu6 2.709164 1_555
Cu25 N7 1.971630 1_555
Cu25 N7 1.971630 1_655
Cu25 Cu7 2.694712 1_555
Cu25 Cu3 2.694712 1_555
Cu25 Cu5 2.709164 1_555
Cu26 N2 1.971620 1_655
Cu26 N2 1.971620 1_555
Cu26 Cu7 2.710013 1_554
Cu26 Cu4 2.710013 1_555
Cu26 Cu3 2.710013 1_554
Cu27 N3 1.971620 1_655
Cu27 N3 1.971620 1_555
Cu27 Cu6 2.707295 1_555
Cu27 Cu5 2.707295 1_555
Cu28 N4 1.971620 1_555
Cu28 N4 1.971620 1_655
Cu28 Cu6 2.701330 1_555
Cu28 Cu4 2.707782 1_545
Cu29 N5 1.971620 1_555
Cu29 N5 1.971620 1_655
Cu29 Cu5 2.701330 1_545
Cu29 Cu3 2.707782 1_545
Cu29 Cu7 2.707782 1_555
Cu30 N1 1.971620 1_555
Cu30 N1 1.971620 1_655
Cu30 Cu6 2.707163 1_555
Cu30 Cu5 2.707163 1_545
N0 Pd0 1.971620 1_555
N0 Pd0 1.971620 1_455
