# generated using pymatgen
data_Mn5(Si2O7)2
_symmetry_space_group_name_H-M   'P 1'
_cell_length_a   7.81261642
_cell_length_b   8.97145612
_cell_length_c   9.57995343
_cell_angle_alpha   103.64982283
_cell_angle_beta   80.59749261
_cell_angle_gamma   75.94975789
_symmetry_Int_Tables_number   1
_chemical_formula_structural   Mn5(Si2O7)2
_chemical_formula_sum   'Mn10 Si8 O28'
_cell_volume   615.39342732
_cell_formula_units_Z   2
loop_
 _symmetry_equiv_pos_site_id
 _symmetry_equiv_pos_as_xyz
  1  'x, y, z'
loop_
 _atom_site_type_symbol
 _atom_site_label
 _atom_site_symmetry_multiplicity
 _atom_site_fract_x
 _atom_site_fract_y
 _atom_site_fract_z
 _atom_site_occupancy
  Mn  Mn0  1  0.51236600  0.48983000  0.48829700  1
  Mn  Mn1  1  0.98707400  0.01039800  0.01159300  1
  Mn  Mn2  1  0.00648700  0.44562400  0.64996800  1
  Mn  Mn3  1  0.47489900  0.94266800  0.15489000  1
  Mn  Mn4  1  0.02504100  0.55780200  0.34567600  1
  Mn  Mn5  1  0.49408100  0.05390300  0.84968700  1
  Mn  Mn6  1  0.88368000  0.67840500  0.98152900  1
  Mn  Mn7  1  0.38629000  0.17443800  0.47447200  1
  Mn  Mn8  1  0.11430300  0.32593000  0.02521500  1
  Mn  Mn9  1  0.61553900  0.82155900  0.51895900  1
  Si  Si0  1  0.55275200  0.66987900  0.81230100  1
  Si  Si1  1  0.03695400  0.18009600  0.33305000  1
  Si  Si2  1  0.46328000  0.32002600  0.16674900  1
  Si  Si3  1  0.94780400  0.82965700  0.68770600  1
  Si  Si4  1  0.67111700  0.55995800  0.17992400  1
  Si  Si5  1  0.16115300  0.06726000  0.69910200  1
  Si  Si6  1  0.33876700  0.43305900  0.80077800  1
  Si  Si7  1  0.82855800  0.93998100  0.32035200  1
  O  O0  1  0.47394200  0.86226700  0.91077800  1
  O  O1  1  0.97868000  0.36964400  0.43856400  1
  O  O2  1  0.52137800  0.13044700  0.06141800  1
  O  O3  1  0.02624800  0.63757800  0.58850800  1
  O  O4  1  0.60718500  0.70993700  0.11520300  1
  O  O5  1  0.11651300  0.21920300  0.63033500  1
  O  O6  1  0.38423800  0.28060700  0.86884200  1
  O  O7  1  0.88992600  0.79041100  0.38625700  1
  O  O8  1  0.61223600  0.40263300  0.10128400  1
  O  O9  1  0.08829900  0.92074500  0.62108300  1
  O  O10  1  0.41179200  0.57926800  0.87900100  1
  O  O11  1  0.88822600  0.09707600  0.39849400  1
  O  O12  1  0.76358500  0.58181700  0.80579400  1
  O  O13  1  0.24678300  0.08256200  0.31913900  1
  O  O14  1  0.25324600  0.41749600  0.18088900  1
  O  O15  1  0.73687200  0.91806100  0.69466800  1
  O  O16  1  0.58642100  0.60835600  0.36087600  1
  O  O17  1  0.07508100  0.12318100  0.87942000  1
  O  O18  1  0.42360100  0.37872200  0.62039200  1
  O  O19  1  0.91326200  0.89040600  0.13920400  1
  O  O20  1  0.89391000  0.51966300  0.14303300  1
  O  O21  1  0.38570800  0.00708200  0.66761700  1
  O  O22  1  0.11426600  0.49252500  0.83258500  1
  O  O23  1  0.60579100  0.98147600  0.35695300  1
  O  O24  1  0.01677900  0.17854300  0.16220400  1
  O  O25  1  0.53538600  0.65708800  0.63933000  1
  O  O26  1  0.96641000  0.84065000  0.86033100  1
  O  O27  1  0.48409200  0.32208200  0.33754900  1
loop_
_geom_bond_atom_site_label_1
_geom_bond_atom_site_label_2
_geom_bond_distance
_geom_bond_site_symmetry_2
Mn0 O25 1.889131 1_555
Mn0 O16 1.906861 1_555
Mn0 O27 1.907645 1_555
Mn0 O18 1.928780 1_555
Mn1 O26 1.897196 1_544
Mn1 O24 1.913993 1_655
Mn1 O19 1.917846 1_545
Mn1 O17 1.938518 1_654
Mn2 O5 1.954378 1_555
Mn2 O3 1.978409 1_555
Mn2 O1 2.043902 1_455
Mn2 O22 2.062186 1_555
Mn2 O12 2.100078 1_455
Mn3 O4 2.005329 1_555
Mn3 O13 2.071924 1_565
Mn3 O2 2.162064 1_565
Mn3 O0 2.280678 1_554
Mn3 O23 2.327156 1_555
Mn4 O7 2.008420 1_455
Mn4 O14 2.075595 1_555
Mn4 O1 2.161733 1_455
Mn4 O3 2.269077 1_555
Mn4 O20 2.332774 1_455
Mn5 O6 1.957461 1_555
Mn5 O0 1.974654 1_545
Mn5 O2 2.046064 1_556
Mn5 O21 2.060346 1_555
Mn5 O15 2.095620 1_545
Mn6 O22 2.154217 1_655
Mn6 O12 2.165140 1_555
Mn6 O26 2.212189 1_555
Mn6 O19 2.219023 1_556
Mn6 O4 2.239342 1_556
Mn6 O20 2.335277 1_556
Mn7 O23 2.052570 1_545
Mn7 O13 2.113986 1_555
Mn7 O18 2.140407 1_555
Mn7 O27 2.245647 1_555
Mn7 O5 2.260702 1_555
Mn7 O21 2.643815 1_555
Mn8 O20 2.060487 1_455
Mn8 O14 2.112103 1_555
Mn8 O17 2.136512 1_554
Mn8 O24 2.243360 1_555
Mn8 O6 2.262927 1_554
Mn8 O22 2.634578 1_554
Mn9 O21 2.148764 1_565
Mn9 O15 2.171076 1_555
Mn9 O25 2.216955 1_555
Mn9 O7 2.222756 1_555
Mn9 O16 2.227215 1_555
Mn9 O23 2.347202 1_555
O0 Si0 1.665496 1_555
O1 Si1 1.668305 1_655
O2 Si2 1.668071 1_555
O3 Si3 1.664998 1_455
O4 Si4 1.616471 1_555
O5 Si5 1.637647 1_555
O6 Si6 1.637896 1_555
O7 Si7 1.617242 1_555
O8 Si2 1.642101 1_555
O8 Si4 1.642543 1_555
O9 Si5 1.627564 1_565
O9 Si3 1.653103 1_455
O10 Si6 1.626881 1_555
O10 Si0 1.652824 1_555
O11 Si7 1.642893 1_545
O11 Si1 1.643327 1_655
O12 Si0 1.628661 1_555
O13 Si1 1.627228 1_555
O14 Si2 1.627996 1_555
O15 Si3 1.629009 1_555
O16 Si4 1.661895 1_555
O17 Si5 1.653948 1_555
O18 Si6 1.653634 1_555
O19 Si7 1.662796 1_555
O20 Si4 1.648772 1_555
O21 Si5 1.658493 1_555
O22 Si6 1.657736 1_555
O23 Si7 1.647701 1_555
O24 Si1 1.666856 1_555
O25 Si0 1.663933 1_555
O26 Si3 1.665605 1_555
O27 Si2 1.666809 1_555
