# generated using pymatgen
data_MgMn4O8
_symmetry_space_group_name_H-M   'P 1'
_cell_length_a   6.03853600
_cell_length_b   9.41733700
_cell_length_c   13.98965432
_cell_angle_alpha   49.35715357
_cell_angle_beta   90.00000000
_cell_angle_gamma   90.00000000
_symmetry_Int_Tables_number   1
_chemical_formula_structural   MgMn4O8
_chemical_formula_sum   'Mg4 Mn16 O32'
_cell_volume   603.64995245
_cell_formula_units_Z   4
loop_
 _symmetry_equiv_pos_site_id
 _symmetry_equiv_pos_as_xyz
  1  'x, y, z'
loop_
 _atom_site_type_symbol
 _atom_site_label
 _atom_site_symmetry_multiplicity
 _atom_site_fract_x
 _atom_site_fract_y
 _atom_site_fract_z
 _atom_site_occupancy
  Mg  Mg0  1  0.63119300  0.17660700  0.08947600  1
  Mg  Mg1  1  0.86880700  0.17660700  0.58947600  1
  Mg  Mg2  1  0.13119300  0.82339300  0.41052400  1
  Mg  Mg3  1  0.36880700  0.82339300  0.91052400  1
  Mn  Mn0  1  0.63445000  0.47248500  0.10626600  1
  Mn  Mn1  1  0.13411500  0.45297200  0.11291400  1
  Mn  Mn2  1  0.61711200  0.81485200  0.59077100  1
  Mn  Mn3  1  0.11275000  0.81992500  0.60334800  1
  Mn  Mn4  1  0.11711200  0.18514800  0.90922900  1
  Mn  Mn5  1  0.61275000  0.18007500  0.89665200  1
  Mn  Mn6  1  0.13445000  0.52751500  0.39373400  1
  Mn  Mn7  1  0.63411500  0.54702800  0.38708600  1
  Mn  Mn8  1  0.86555000  0.47248500  0.60626600  1
  Mn  Mn9  1  0.36588500  0.45297200  0.61291400  1
  Mn  Mn10  1  0.88288800  0.81485200  0.09077100  1
  Mn  Mn11  1  0.38725000  0.81992500  0.10334800  1
  Mn  Mn12  1  0.88725000  0.18007500  0.39665200  1
  Mn  Mn13  1  0.38288800  0.18514800  0.40922900  1
  Mn  Mn14  1  0.86588500  0.54702800  0.88708600  1
  Mn  Mn15  1  0.36555000  0.52751500  0.89373400  1
  O  O0  1  0.89321900  0.39414700  0.39092600  1
  O  O1  1  0.38336400  0.40826100  0.38936800  1
  O  O2  1  0.85371200  0.26615800  0.78213500  1
  O  O3  1  0.36234200  0.25317700  0.79189400  1
  O  O4  1  0.86234200  0.74682300  0.70810600  1
  O  O5  1  0.35371200  0.73384200  0.71786500  1
  O  O6  1  0.88336400  0.59173900  0.11063200  1
  O  O7  1  0.39321900  0.60585300  0.10907400  1
  O  O8  1  0.11663600  0.40826100  0.88936800  1
  O  O9  1  0.60678100  0.39414700  0.89092600  1
  O  O10  1  0.13765800  0.25317700  0.29189400  1
  O  O11  1  0.64628800  0.26615800  0.28213500  1
  O  O12  1  0.63765800  0.74682300  0.20810600  1
  O  O13  1  0.14628800  0.73384200  0.21786500  1
  O  O14  1  0.61663600  0.59173900  0.61063200  1
  O  O15  1  0.10678100  0.60585300  0.60907400  1
  O  O16  1  0.65019500  0.35489800  0.57460700  1
  O  O17  1  0.10071600  0.34408100  0.58729100  1
  O  O18  1  0.14531800  0.92111400  0.97429700  1
  O  O19  1  0.59501400  0.92743500  0.95796700  1
  O  O20  1  0.15019500  0.64510200  0.92539300  1
  O  O21  1  0.60071600  0.65591900  0.91270900  1
  O  O22  1  0.64531800  0.07888600  0.52570300  1
  O  O23  1  0.09501400  0.07256500  0.54203300  1
  O  O24  1  0.84980500  0.35489800  0.07460700  1
  O  O25  1  0.39928400  0.34408100  0.08729100  1
  O  O26  1  0.90498600  0.92743500  0.45796700  1
  O  O27  1  0.35468200  0.92111400  0.47429700  1
  O  O28  1  0.89928400  0.65591900  0.41270900  1
  O  O29  1  0.34980500  0.64510200  0.42539300  1
  O  O30  1  0.85468200  0.07888600  0.02570300  1
  O  O31  1  0.40498600  0.07256500  0.04203300  1
loop_
_geom_bond_atom_site_label_1
_geom_bond_atom_site_label_2
_geom_bond_distance
_geom_bond_site_symmetry_2
Mg0 O31 2.028177 1_555
Mg0 O24 2.037175 1_555
Mg0 O25 2.094435 1_555
Mg0 O9 2.126309 1_554
Mg0 O30 2.129242 1_555
Mg1 O23 2.028177 1_655
Mg1 O16 2.037175 1_555
Mg1 O17 2.094435 1_655
Mg1 O0 2.126309 1_555
Mg1 O22 2.129242 1_555
Mg2 O26 2.028177 1_455
Mg2 O29 2.037175 1_555
Mg2 O28 2.094435 1_455
Mg2 O15 2.126309 1_555
Mg2 O27 2.129242 1_555
Mg3 O19 2.028177 1_555
Mg3 O20 2.037175 1_555
Mg3 O21 2.094435 1_555
Mg3 O7 2.126309 1_556
Mg3 O18 2.129242 1_555
Mn0 O11 1.899021 1_555
Mn0 O6 1.900942 1_555
Mn0 O24 1.937114 1_555
Mn0 O7 1.940413 1_555
Mn0 O25 1.991835 1_555
Mn0 O21 2.065024 1_554
Mn1 O10 1.916480 1_555
Mn1 O6 1.986743 1_455
Mn1 O20 1.995467 1_554
Mn1 O25 2.054959 1_555
Mn1 O7 2.103084 1_555
Mn1 O24 2.175419 1_455
Mn2 O14 1.931697 1_555
Mn2 O4 1.981872 1_555
Mn2 O27 2.010865 1_555
Mn2 O22 2.022816 1_565
Mn2 O5 2.122769 1_555
Mn2 O26 2.243129 1_555
Mn3 O4 1.895747 1_455
Mn3 O5 1.910264 1_555
Mn3 O23 1.936307 1_565
Mn3 O15 1.965084 1_555
Mn3 O26 2.013228 1_455
Mn3 O27 2.015094 1_555
Mn4 O8 1.931697 1_555
Mn4 O3 1.981872 1_555
Mn4 O30 2.010865 1_456
Mn4 O18 2.022816 1_545
Mn4 O2 2.122769 1_455
Mn4 O31 2.243129 1_556
Mn5 O3 1.895747 1_555
Mn5 O2 1.910264 1_555
Mn5 O19 1.936307 1_545
Mn5 O9 1.965084 1_555
Mn5 O31 2.013228 1_556
Mn5 O30 2.015094 1_556
Mn6 O13 1.899021 1_555
Mn6 O1 1.900942 1_555
Mn6 O29 1.937114 1_555
Mn6 O0 1.940413 1_455
Mn6 O28 1.991835 1_455
Mn6 O17 2.065024 1_555
Mn7 O12 1.916480 1_555
Mn7 O1 1.986743 1_555
Mn7 O16 1.995467 1_555
Mn7 O28 2.054959 1_555
Mn7 O0 2.103084 1_555
Mn7 O29 2.175419 1_555
Mn8 O2 1.899021 1_555
Mn8 O14 1.900942 1_555
Mn8 O16 1.937114 1_555
Mn8 O15 1.940413 1_655
Mn8 O17 1.991835 1_655
Mn8 O28 2.065024 1_555
Mn9 O3 1.916480 1_555
Mn9 O14 1.986743 1_555
Mn9 O29 1.995467 1_555
Mn9 O17 2.054959 1_555
Mn9 O15 2.103084 1_555
Mn9 O16 2.175419 1_555
Mn10 O6 1.931697 1_555
Mn10 O12 1.981872 1_555
Mn10 O18 2.010865 1_654
Mn10 O30 2.022816 1_565
Mn10 O13 2.122769 1_655
Mn10 O19 2.243129 1_554
Mn11 O12 1.895747 1_555
Mn11 O13 1.910264 1_555
Mn11 O31 1.936307 1_565
Mn11 O7 1.965084 1_555
Mn11 O19 2.013228 1_554
Mn11 O18 2.015094 1_554
Mn12 O10 1.895747 1_655
Mn12 O11 1.910264 1_555
Mn12 O26 1.936307 1_545
Mn12 O0 1.965084 1_555
Mn12 O23 2.013228 1_655
Mn12 O22 2.015094 1_555
Mn13 O1 1.931697 1_555
Mn13 O10 1.981872 1_555
Mn13 O22 2.010865 1_555
Mn13 O27 2.022816 1_545
Mn13 O11 2.122769 1_555
Mn13 O23 2.243129 1_555
Mn14 O4 1.916480 1_555
Mn14 O8 1.986743 1_655
Mn14 O24 1.995467 1_556
Mn14 O21 2.054959 1_555
Mn14 O9 2.103084 1_555
Mn14 O20 2.175419 1_655
Mn15 O5 1.899021 1_555
Mn15 O8 1.900942 1_555
Mn15 O20 1.937114 1_555
Mn15 O9 1.940413 1_555
Mn15 O21 1.991835 1_555
Mn15 O25 2.065024 1_556
