# generated using pymatgen
data_Li7OsN4
_symmetry_space_group_name_H-M   'P 1'
_cell_length_a   9.78032584
_cell_length_b   9.78032584
_cell_length_c   9.78032584
_cell_angle_alpha   90.00000000
_cell_angle_beta   90.00000000
_cell_angle_gamma   90.00000000
_symmetry_Int_Tables_number   1
_chemical_formula_structural   Li7OsN4
_chemical_formula_sum   'Li56 Os8 N32'
_cell_volume   935.53485334
_cell_formula_units_Z   8
loop_
 _symmetry_equiv_pos_site_id
 _symmetry_equiv_pos_as_xyz
  1  'x, y, z'
loop_
 _atom_site_type_symbol
 _atom_site_label
 _atom_site_symmetry_multiplicity
 _atom_site_fract_x
 _atom_site_fract_y
 _atom_site_fract_z
 _atom_site_occupancy
  Li  Li0  1  0.36622205  0.63377795  0.13377795  1
  Li  Li1  1  0.63377795  0.13377795  0.36622205  1
  Li  Li2  1  0.13377795  0.36622205  0.63377795  1
  Li  Li3  1  0.86622205  0.86622205  0.86622205  1
  Li  Li4  1  0.63377795  0.36622205  0.86622205  1
  Li  Li5  1  0.36622205  0.86622205  0.63377795  1
  Li  Li6  1  0.86622205  0.63377795  0.36622205  1
  Li  Li7  1  0.13377795  0.13377795  0.13377795  1
  Li  Li8  1  0.36830101  0.62869823  0.38301746  1
  Li  Li9  1  0.63169899  0.12869823  0.11698254  1
  Li  Li10  1  0.13169899  0.37130177  0.88301746  1
  Li  Li11  1  0.86830101  0.87130177  0.61698254  1
  Li  Li12  1  0.38301746  0.36830101  0.62869823  1
  Li  Li13  1  0.11698254  0.63169899  0.12869823  1
  Li  Li14  1  0.88301746  0.13169899  0.37130177  1
  Li  Li15  1  0.61698254  0.86830101  0.87130177  1
  Li  Li16  1  0.62869823  0.38301746  0.36830101  1
  Li  Li17  1  0.12869823  0.11698254  0.63169899  1
  Li  Li18  1  0.37130177  0.88301746  0.13169899  1
  Li  Li19  1  0.87130177  0.61698254  0.86830101  1
  Li  Li20  1  0.63169899  0.37130177  0.61698254  1
  Li  Li21  1  0.36830101  0.87130177  0.88301746  1
  Li  Li22  1  0.86830101  0.62869823  0.11698254  1
  Li  Li23  1  0.13169899  0.12869823  0.38301746  1
  Li  Li24  1  0.61698254  0.63169899  0.37130177  1
  Li  Li25  1  0.88301746  0.36830101  0.87130177  1
  Li  Li26  1  0.11698254  0.86830101  0.62869823  1
  Li  Li27  1  0.38301746  0.13169899  0.12869823  1
  Li  Li28  1  0.37130177  0.61698254  0.63169899  1
  Li  Li29  1  0.87130177  0.88301746  0.36830101  1
  Li  Li30  1  0.62869823  0.11698254  0.86830101  1
  Li  Li31  1  0.12869823  0.38301746  0.13169899  1
  Li  Li32  1  0.39733453  0.86342174  0.38343619  1
  Li  Li33  1  0.60266547  0.36342174  0.11656381  1
  Li  Li34  1  0.10266547  0.13657826  0.88343619  1
  Li  Li35  1  0.89733453  0.63657826  0.61656381  1
  Li  Li36  1  0.38343619  0.39733453  0.86342174  1
  Li  Li37  1  0.11656381  0.60266547  0.36342174  1
  Li  Li38  1  0.88343619  0.10266547  0.13657826  1
  Li  Li39  1  0.61656381  0.89733453  0.63657826  1
  Li  Li40  1  0.86342174  0.38343619  0.39733453  1
  Li  Li41  1  0.36342174  0.11656381  0.60266547  1
  Li  Li42  1  0.13657826  0.88343619  0.10266547  1
  Li  Li43  1  0.63657826  0.61656381  0.89733453  1
  Li  Li44  1  0.60266547  0.13657826  0.61656381  1
  Li  Li45  1  0.39733453  0.63657826  0.88343619  1
  Li  Li46  1  0.89733453  0.86342174  0.11656381  1
  Li  Li47  1  0.10266547  0.36342174  0.38343619  1
  Li  Li48  1  0.61656381  0.60266547  0.13657826  1
  Li  Li49  1  0.88343619  0.39733453  0.63657826  1
  Li  Li50  1  0.11656381  0.89733453  0.86342174  1
  Li  Li51  1  0.38343619  0.10266547  0.36342174  1
  Li  Li52  1  0.13657826  0.61656381  0.60266547  1
  Li  Li53  1  0.63657826  0.88343619  0.39733453  1
  Li  Li54  1  0.86342174  0.11656381  0.89733453  1
  Li  Li55  1  0.36342174  0.38343619  0.10266547  1
  Os  Os0  1  0.13026738  0.86973262  0.36973262  1
  Os  Os1  1  0.86973262  0.36973262  0.13026738  1
  Os  Os2  1  0.36973262  0.13026738  0.86973262  1
  Os  Os3  1  0.63026738  0.63026738  0.63026738  1
  Os  Os4  1  0.86973262  0.13026738  0.63026738  1
  Os  Os5  1  0.13026738  0.63026738  0.86973262  1
  Os  Os6  1  0.63026738  0.86973262  0.13026738  1
  Os  Os7  1  0.36973262  0.36973262  0.36973262  1
  N  N0  1  0.24440928  0.75559072  0.25559072  1
  N  N1  1  0.75559072  0.25559072  0.24440928  1
  N  N2  1  0.25559072  0.24440928  0.75559072  1
  N  N3  1  0.74440928  0.74440928  0.74440928  1
  N  N4  1  0.75559072  0.24440928  0.74440928  1
  N  N5  1  0.24440928  0.74440928  0.75559072  1
  N  N6  1  0.74440928  0.75559072  0.24440928  1
  N  N7  1  0.25559072  0.25559072  0.25559072  1
  N  N8  1  0.01712990  0.99146919  0.25644966  1
  N  N9  1  0.98287010  0.49146919  0.24355034  1
  N  N10  1  0.48287010  0.00853081  0.75644966  1
  N  N11  1  0.51712990  0.50853081  0.74355034  1
  N  N12  1  0.25644966  0.01712990  0.99146919  1
  N  N13  1  0.24355034  0.98287010  0.49146919  1
  N  N14  1  0.75644966  0.48287010  0.00853081  1
  N  N15  1  0.74355034  0.51712990  0.50853081  1
  N  N16  1  0.99146919  0.25644966  0.01712990  1
  N  N17  1  0.49146919  0.24355034  0.98287010  1
  N  N18  1  0.00853081  0.75644966  0.48287010  1
  N  N19  1  0.50853081  0.74355034  0.51712990  1
  N  N20  1  0.98287010  0.00853081  0.74355034  1
  N  N21  1  0.01712990  0.50853081  0.75644966  1
  N  N22  1  0.51712990  0.99146919  0.24355034  1
  N  N23  1  0.48287010  0.49146919  0.25644966  1
  N  N24  1  0.74355034  0.98287010  0.00853081  1
  N  N25  1  0.75644966  0.01712990  0.50853081  1
  N  N26  1  0.24355034  0.51712990  0.99146919  1
  N  N27  1  0.25644966  0.48287010  0.49146919  1
  N  N28  1  0.00853081  0.74355034  0.98287010  1
  N  N29  1  0.50853081  0.75644966  0.01712990  1
  N  N30  1  0.99146919  0.24355034  0.51712990  1
  N  N31  1  0.49146919  0.25644966  0.48287010  1
loop_
_geom_bond_atom_site_label_1
_geom_bond_atom_site_label_2
_geom_bond_distance
_geom_bond_site_symmetry_2
Li0 N0 2.063511 1_555
Li0 N23 2.162910 1_555
Li0 N29 2.162910 1_555
Li0 N26 2.162910 1_554
Li1 N1 2.063511 1_555
Li1 N31 2.162910 1_555
Li1 N22 2.162910 1_545
Li1 N25 2.162910 1_555
Li2 N2 2.063511 1_555
Li2 N27 2.162910 1_555
Li2 N21 2.162910 1_555
Li2 N30 2.162910 1_455
Li3 N3 2.063511 1_555
Li3 N24 2.162910 1_556
Li3 N28 2.162910 1_655
Li3 N20 2.162910 1_565
Li4 N4 2.063511 1_555
Li4 N14 2.162910 1_556
Li4 N11 2.162910 1_555
Li4 N17 2.162910 1_555
Li5 N5 2.063511 1_555
Li5 N10 2.162910 1_565
Li5 N19 2.162910 1_555
Li5 N13 2.162910 1_555
Li6 N6 2.063511 1_555
Li6 N18 2.162910 1_655
Li6 N15 2.162910 1_555
Li6 N9 2.162910 1_555
Li7 N7 2.063511 1_555
Li7 N8 2.162910 1_545
Li7 N12 2.162910 1_554
Li7 N16 2.162910 1_455
Li8 N27 2.087094 1_555
Li8 N0 2.135797 1_555
Li8 N23 2.142255 1_555
Li8 N19 2.205275 1_555
Li9 N24 2.087094 1_545
Li9 N1 2.135797 1_555
Li9 N22 2.142255 1_545
Li9 N17 2.205275 1_554
Li10 N26 2.087094 1_555
Li10 N2 2.135797 1_555
Li10 N21 2.142255 1_555
Li10 N16 2.205275 1_456
Li11 N25 2.087094 1_565
Li11 N3 2.135797 1_555
Li11 N20 2.142255 1_565
Li11 N18 2.205275 1_655
Li12 N31 2.087094 1_555
Li12 N2 2.135797 1_555
Li12 N27 2.142255 1_555
Li12 N11 2.205275 1_555
Li13 N28 2.087094 1_554
Li13 N0 2.135797 1_555
Li13 N26 2.142255 1_554
Li13 N9 2.205275 1_455
Li14 N30 2.087094 1_555
Li14 N1 2.135797 1_555
Li14 N25 2.142255 1_555
Li14 N8 2.205275 1_645
Li15 N29 2.087094 1_556
Li15 N3 2.135797 1_555
Li15 N24 2.142255 1_556
Li15 N10 2.205275 1_565
Li16 N23 2.087094 1_555
Li16 N1 2.135797 1_555
Li16 N31 2.142255 1_555
Li16 N15 2.205275 1_555
Li17 N20 2.087094 1_455
Li17 N2 2.135797 1_555
Li17 N30 2.142255 1_455
Li17 N13 2.205275 1_545
Li18 N22 2.087094 1_555
Li18 N0 2.135797 1_555
Li18 N29 2.142255 1_555
Li18 N12 2.205275 1_564
Li19 N21 2.087094 1_655
Li19 N3 2.135797 1_555
Li19 N28 2.142255 1_655
Li19 N14 2.205275 1_556
Li20 N15 2.087094 1_555
Li20 N4 2.135797 1_555
Li20 N11 2.142255 1_555
Li20 N31 2.205275 1_555
Li21 N12 2.087094 1_565
Li21 N5 2.135797 1_555
Li21 N10 2.142255 1_565
Li21 N29 2.205275 1_556
Li22 N14 2.087094 1_555
Li22 N6 2.135797 1_555
Li22 N9 2.142255 1_555
Li22 N28 2.205275 1_654
Li23 N13 2.087094 1_545
Li23 N7 2.135797 1_555
Li23 N8 2.142255 1_545
Li23 N30 2.205275 1_455
Li24 N19 2.087094 1_555
Li24 N6 2.135797 1_555
Li24 N15 2.142255 1_555
Li24 N23 2.205275 1_555
Li25 N16 2.087094 1_556
Li25 N4 2.135797 1_555
Li25 N14 2.142255 1_556
Li25 N21 2.205275 1_655
Li26 N18 2.087094 1_555
Li26 N5 2.135797 1_555
Li26 N13 2.142255 1_555
Li26 N20 2.205275 1_465
Li27 N17 2.087094 1_554
Li27 N7 2.135797 1_555
Li27 N12 2.142255 1_554
Li27 N22 2.205275 1_545
Li28 N11 2.087094 1_555
Li28 N5 2.135797 1_555
Li28 N19 2.142255 1_555
Li28 N27 2.205275 1_555
Li29 N8 2.087094 1_655
Li29 N6 2.135797 1_555
Li29 N18 2.142255 1_655
Li29 N25 2.205275 1_565
Li30 N10 2.087094 1_555
Li30 N4 2.135797 1_555
Li30 N17 2.142255 1_555
Li30 N24 2.205275 1_546
Li31 N9 2.087094 1_455
Li31 N7 2.135797 1_555
Li31 N16 2.142255 1_455
Li31 N26 2.205275 1_554
Li32 N19 2.065659 1_555
Li32 N13 2.177932 1_555
Li32 N22 2.193828 1_555
Li32 N0 2.216450 1_555
Li33 N17 2.065659 1_554
Li33 N14 2.177932 1_555
Li33 N23 2.193828 1_555
Li33 N1 2.216450 1_555
Li34 N16 2.065659 1_456
Li34 N12 2.177932 1_555
Li34 N20 2.193828 1_455
Li34 N2 2.216450 1_555
Li35 N18 2.065659 1_655
Li35 N15 2.177932 1_555
Li35 N21 2.193828 1_655
Li35 N3 2.216450 1_555
Li36 N11 2.065659 1_555
Li36 N17 2.177932 1_555
Li36 N26 2.193828 1_555
Li36 N2 2.216450 1_555
Li37 N9 2.065659 1_455
Li37 N18 2.177932 1_555
Li37 N27 2.193828 1_555
Li37 N0 2.216450 1_555
Li38 N8 2.065659 1_645
Li38 N16 2.177932 1_555
Li38 N24 2.193828 1_545
Li38 N1 2.216450 1_555
Li39 N10 2.065659 1_565
Li39 N19 2.177932 1_555
Li39 N25 2.193828 1_565
Li39 N3 2.216450 1_555
Li40 N15 2.065659 1_555
Li40 N9 2.177932 1_555
Li40 N30 2.193828 1_555
Li40 N1 2.216450 1_555
Li41 N13 2.065659 1_545
Li41 N10 2.177932 1_555
Li41 N31 2.193828 1_555
Li41 N2 2.216450 1_555
Li42 N12 2.065659 1_564
Li42 N8 2.177932 1_555
Li42 N28 2.193828 1_554
Li42 N0 2.216450 1_555
Li43 N14 2.065659 1_556
Li43 N11 2.177932 1_555
Li43 N29 2.193828 1_556
Li43 N3 2.216450 1_555
Li44 N31 2.065659 1_555
Li44 N25 2.177932 1_555
Li44 N10 2.193828 1_555
Li44 N4 2.216450 1_555
Li45 N29 2.065659 1_556
Li45 N26 2.177932 1_555
Li45 N11 2.193828 1_555
Li45 N5 2.216450 1_555
Li46 N28 2.065659 1_654
Li46 N24 2.177932 1_555
Li46 N8 2.193828 1_655
Li46 N6 2.216450 1_555
Li47 N30 2.065659 1_455
Li47 N27 2.177932 1_555
Li47 N9 2.193828 1_455
Li47 N7 2.216450 1_555
Li48 N23 2.065659 1_555
Li48 N29 2.177932 1_555
Li48 N14 2.193828 1_555
Li48 N6 2.216450 1_555
Li49 N21 2.065659 1_655
Li49 N30 2.177932 1_555
Li49 N15 2.193828 1_555
Li49 N4 2.216450 1_555
Li50 N20 2.065659 1_465
Li50 N28 2.177932 1_555
Li50 N12 2.193828 1_565
Li50 N5 2.216450 1_555
Li51 N22 2.065659 1_545
Li51 N31 2.177932 1_555
Li51 N13 2.193828 1_545
Li51 N7 2.216450 1_555
Li52 N27 2.065659 1_555
Li52 N21 2.177932 1_555
Li52 N18 2.193828 1_555
Li52 N5 2.216450 1_555
Li53 N25 2.065659 1_565
Li53 N22 2.177932 1_555
Li53 N19 2.193828 1_555
Li53 N6 2.216450 1_555
Li54 N24 2.065659 1_546
Li54 N20 2.177932 1_555
Li54 N16 2.193828 1_556
Li54 N4 2.216450 1_555
Li55 N26 2.065659 1_554
Li55 N23 2.177932 1_555
Li55 N17 2.193828 1_554
Li55 N7 2.216450 1_555
N0 Os0 1.933566 1_555
N1 Os1 1.933566 1_555
N2 Os2 1.933566 1_555
N3 Os3 1.933566 1_555
N4 Os4 1.933566 1_555
N5 Os5 1.933566 1_555
N6 Os6 1.933566 1_555
N7 Os7 1.933566 1_555
N8 Os0 1.967108 1_555
N9 Os1 1.967108 1_555
N10 Os2 1.967108 1_555
N11 Os3 1.967108 1_555
N12 Os2 1.967108 1_555
N13 Os0 1.967108 1_555
N14 Os1 1.967108 1_555
N15 Os3 1.967108 1_555
N16 Os1 1.967108 1_555
N17 Os2 1.967108 1_555
N18 Os0 1.967108 1_555
N19 Os3 1.967108 1_555
N20 Os4 1.967108 1_555
N21 Os5 1.967108 1_555
N22 Os6 1.967108 1_555
N23 Os7 1.967108 1_555
N24 Os6 1.967108 1_555
N25 Os4 1.967108 1_555
N26 Os5 1.967108 1_555
N27 Os7 1.967108 1_555
N28 Os5 1.967108 1_555
N29 Os6 1.967108 1_555
N30 Os4 1.967108 1_555
N31 Os7 1.967108 1_555
