# generated using pymatgen
data_CsNdZnTe3
_symmetry_space_group_name_H-M   'P 1'
_cell_length_a   4.52753600
_cell_length_b   8.96081945
_cell_length_c   12.04062500
_cell_angle_alpha   90.00000000
_cell_angle_beta   90.00000000
_cell_angle_gamma   104.63317155
_symmetry_Int_Tables_number   1
_chemical_formula_structural   CsNdZnTe3
_chemical_formula_sum   'Cs2 Nd2 Zn2 Te6'
_cell_volume   472.64814178
_cell_formula_units_Z   2
loop_
 _symmetry_equiv_pos_site_id
 _symmetry_equiv_pos_as_xyz
  1  'x, y, z'
loop_
 _atom_site_type_symbol
 _atom_site_label
 _atom_site_symmetry_multiplicity
 _atom_site_fract_x
 _atom_site_fract_y
 _atom_site_fract_z
 _atom_site_occupancy
  Cs  Cs0  1  0.74643400  0.49286800  0.75000000  1
  Cs  Cs1  1  0.25356600  0.50713200  0.25000000  1
  Nd  Nd0  1  0.00000000  0.00000000  0.00000000  1
  Nd  Nd1  1  0.00000000  0.00000000  0.50000000  1
  Zn  Zn0  1  0.46472100  0.92944200  0.75000000  1
  Zn  Zn1  1  0.53527900  0.07055800  0.25000000  1
  Te  Te0  1  0.37919400  0.75838800  0.56539800  1
  Te  Te1  1  0.62080600  0.24161200  0.43460200  1
  Te  Te2  1  0.93945500  0.87891000  0.25000000  1
  Te  Te3  1  0.06054500  0.12109000  0.75000000  1
  Te  Te4  1  0.37919400  0.75838800  0.93460200  1
  Te  Te5  1  0.62080600  0.24161200  0.06539800  1
loop_
_geom_bond_atom_site_label_1
_geom_bond_atom_site_label_2
_geom_bond_distance
_geom_bond_site_symmetry_2
Cs0 Te4 3.919797 1_655
Cs0 Te0 3.919797 1_655
Cs0 Te4 3.919797 1_555
Cs0 Te0 3.919797 1_555
Cs0 Te3 3.938881 1_655
Cs0 Te3 3.938881 1_555
Cs0 Te1 4.378040 1_555
Cs0 Te5 4.378040 1_556
Cs1 Te5 3.919797 1_555
Cs1 Te1 3.919797 1_455
Cs1 Te1 3.919797 1_555
Cs1 Te5 3.919797 1_455
Cs1 Te2 3.938881 1_555
Cs1 Te2 3.938881 1_455
Cs1 Te4 4.378040 1_554
Cs1 Te0 4.378040 1_555
Nd0 Te4 3.183228 1_544
Nd0 Te4 3.183228 1_444
Nd0 Te5 3.183228 1_455
Nd0 Te5 3.183228 1_555
Nd0 Te3 3.187988 1_554
Nd0 Te2 3.187988 1_445
Nd1 Te0 3.183228 1_545
Nd1 Te1 3.183228 1_455
Nd1 Te1 3.183228 1_555
Nd1 Te0 3.183228 1_445
Nd1 Te3 3.187988 1_555
Nd1 Te2 3.187988 1_445
Te0 Zn0 2.672074 1_555
Te1 Zn1 2.672074 1_555
Te2 Zn1 2.808135 1_665
Te2 Zn1 2.808135 1_565
Te3 Zn0 2.808135 1_445
Te3 Zn0 2.808135 1_545
Te4 Zn0 2.672074 1_555
Te5 Zn1 2.672074 1_555
