# generated using pymatgen
data_LiHfMg14O15
_symmetry_space_group_name_H-M   'P 1'
_cell_length_a   8.59749095
_cell_length_b   8.57325684
_cell_length_c   4.29864720
_cell_angle_alpha   90.00000000
_cell_angle_beta   90.00000000
_cell_angle_gamma   90.00000000
_symmetry_Int_Tables_number   1
_chemical_formula_structural   LiHfMg14O15
_chemical_formula_sum   'Li1 Hf1 Mg14 O15'
_cell_volume   316.84682895
_cell_formula_units_Z   1
loop_
 _symmetry_equiv_pos_site_id
 _symmetry_equiv_pos_as_xyz
  1  'x, y, z'
loop_
 _atom_site_type_symbol
 _atom_site_label
 _atom_site_symmetry_multiplicity
 _atom_site_fract_x
 _atom_site_fract_y
 _atom_site_fract_z
 _atom_site_occupancy
  Li  Li0  1  0.00005615  0.00000000  -0.00000000  1
  Hf  Hf0  1  0.49270321  0.50000000  -0.00000000  1
  Mg  Mg0  1  0.99920971  0.50000000  -0.00000000  1
  Mg  Mg1  1  0.50019065  0.00000000  -0.00000000  1
  Mg  Mg2  1  0.00069529  0.24253345  0.50000000  1
  Mg  Mg3  1  0.00069529  0.75746655  0.50000000  1
  Mg  Mg4  1  0.49895942  0.23957987  0.50000000  1
  Mg  Mg5  1  0.49895942  0.76042013  0.50000000  1
  Mg  Mg6  1  0.24101134  0.00000000  0.50000000  1
  Mg  Mg7  1  0.24372962  0.50000000  0.50000000  1
  Mg  Mg8  1  0.75844693  0.00000000  0.50000000  1
  Mg  Mg9  1  0.75863761  0.50000000  0.50000000  1
  Mg  Mg10  1  0.23796451  0.23924918  -0.00000000  1
  Mg  Mg11  1  0.23796451  0.76075082  0.00000000  1
  Mg  Mg12  1  0.76152347  0.24154668  0.00000000  1
  Mg  Mg13  1  0.76152347  0.75845332  -0.00000000  1
  O  O0  1  0.26117926  0.00000000  -0.00000000  1
  O  O1  1  0.73922017  0.00000000  -0.00000000  1
  O  O2  1  0.75203285  0.50000000  -0.00000000  1
  O  O3  1  0.25131297  0.24556604  0.50000000  1
  O  O4  1  0.25131297  0.75443396  0.50000000  1
  O  O5  1  0.74777610  0.25072650  0.50000000  1
  O  O6  1  0.74777610  0.74927350  0.50000000  1
  O  O7  1  0.99908585  0.00000000  0.50000000  1
  O  O8  1  0.00011035  0.50000000  0.50000000  1
  O  O9  1  0.50098890  0.00000000  0.50000000  1
  O  O10  1  0.50575513  0.50000000  0.50000000  1
  O  O11  1  -0.00001097  0.25823806  -0.00000000  1
  O  O12  1  -0.00001097  0.74176194  0.00000000  1
  O  O13  1  0.50060035  0.25560457  -0.00000000  1
  O  O14  1  0.50060035  0.74439543  -0.00000000  1
loop_
_geom_bond_atom_site_label_1
_geom_bond_atom_site_label_2
_geom_bond_distance
_geom_bond_site_symmetry_2
Li0 O7 2.149340 1_455
Li0 O7 2.149340 1_454
Li0 O12 2.213941 1_545
Li0 O11 2.213941 1_555
Li0 O1 2.242535 1_455
Li0 O0 2.245004 1_555
Hf0 O13 2.096365 1_555
Hf0 O14 2.096365 1_555
Hf0 O10 2.152251 1_555
Hf0 O10 2.152251 1_554
Hf0 O2 2.229584 1_555
Mg0 O11 2.072698 1_655
Mg0 O12 2.072698 1_655
Mg0 O2 2.125101 1_555
Mg0 O8 2.149338 1_654
Mg0 O8 2.149338 1_655
Mg1 O0 2.054898 1_555
Mg1 O1 2.055054 1_555
Mg1 O9 2.149335 1_554
Mg1 O9 2.149335 1_555
Mg1 O14 2.191366 1_545
Mg1 O13 2.191366 1_555
Mg2 O7 2.079348 1_455
Mg2 O11 2.153545 1_556
Mg2 O11 2.153545 1_555
Mg2 O3 2.154840 1_555
Mg2 O5 2.175605 1_455
Mg2 O8 2.207333 1_555
Mg3 O7 2.079348 1_465
Mg3 O12 2.153545 1_556
Mg3 O12 2.153545 1_555
Mg3 O4 2.154840 1_555
Mg3 O6 2.175605 1_455
Mg3 O8 2.207333 1_555
Mg4 O9 2.054054 1_555
Mg4 O3 2.129757 1_555
Mg4 O5 2.141333 1_555
Mg4 O13 2.153756 1_555
Mg4 O13 2.153756 1_556
Mg4 O10 2.233413 1_555
Mg5 O9 2.054054 1_565
Mg5 O4 2.129757 1_555
Mg5 O6 2.141333 1_555
Mg5 O14 2.153756 1_556
Mg5 O14 2.153756 1_555
Mg5 O10 2.233413 1_555
Mg6 O7 2.079952 1_455
Mg6 O4 2.107163 1_545
Mg6 O3 2.107163 1_555
Mg6 O0 2.156306 1_555
Mg6 O0 2.156306 1_556
Mg6 O9 2.235155 1_555
Mg7 O8 2.094514 1_555
Mg7 O3 2.182302 1_555
Mg7 O4 2.182302 1_555
Mg7 O10 2.252762 1_555
Mg8 O7 2.068891 1_555
Mg8 O5 2.151500 1_555
Mg8 O6 2.151500 1_545
Mg8 O1 2.155671 1_555
Mg8 O1 2.155671 1_556
Mg8 O9 2.213493 1_555
Mg9 O8 2.076060 1_655
Mg9 O6 2.139125 1_555
Mg9 O5 2.139125 1_555
Mg9 O2 2.150074 1_556
Mg9 O2 2.150074 1_555
Mg9 O10 2.174155 1_555
Mg10 O11 2.052459 1_555
Mg10 O0 2.060832 1_555
Mg10 O3 2.153067 1_554
Mg10 O3 2.153067 1_555
Mg10 O13 2.262359 1_555
Mg11 O12 2.052459 1_555
Mg11 O0 2.060832 1_565
Mg11 O4 2.153067 1_554
Mg11 O4 2.153067 1_555
Mg11 O14 2.262359 1_555
Mg12 O11 2.055193 1_655
Mg12 O1 2.079701 1_555
Mg12 O5 2.154009 1_555
Mg12 O5 2.154009 1_554
Mg12 O2 2.217289 1_555
Mg12 O13 2.246519 1_555
Mg13 O12 2.055193 1_655
Mg13 O1 2.079701 1_565
Mg13 O6 2.154009 1_555
Mg13 O6 2.154009 1_554
Mg13 O2 2.217289 1_555
Mg13 O14 2.246519 1_555
