# generated using pymatgen
data_LiFeP2O7
_symmetry_space_group_name_H-M   'P 1'
_cell_length_a   6.31285718
_cell_length_b   6.31285718
_cell_length_c   13.41794947
_cell_angle_alpha   74.16224890
_cell_angle_beta   74.16224890
_cell_angle_gamma   80.32612810
_symmetry_Int_Tables_number   1
_chemical_formula_structural   LiFeP2O7
_chemical_formula_sum   'Li4 Fe4 P8 O28'
_cell_volume   492.37107756
_cell_formula_units_Z   4
loop_
 _symmetry_equiv_pos_site_id
 _symmetry_equiv_pos_as_xyz
  1  'x, y, z'
loop_
 _atom_site_type_symbol
 _atom_site_label
 _atom_site_symmetry_multiplicity
 _atom_site_fract_x
 _atom_site_fract_y
 _atom_site_fract_z
 _atom_site_occupancy
  Li  Li0  1  0.76732200  0.01947100  0.62902500  1
  Li  Li1  1  0.01947100  0.76732200  0.12902500  1
  Li  Li2  1  0.23267800  0.98052900  0.37097500  1
  Li  Li3  1  0.98052900  0.23267800  0.87097500  1
  Fe  Fe0  1  0.59742300  0.12384200  0.14189100  1
  Fe  Fe1  1  0.87615800  0.40257700  0.35810900  1
  Fe  Fe2  1  0.40257700  0.87615800  0.85810900  1
  Fe  Fe3  1  0.12384200  0.59742300  0.64189100  1
  P  P0  1  0.24631700  0.09475200  0.63600300  1
  P  P1  1  0.33306100  0.42042200  0.42636600  1
  P  P2  1  0.57957800  0.66693900  0.07363400  1
  P  P3  1  0.09475200  0.24631700  0.13600300  1
  P  P4  1  0.66693900  0.57957800  0.57363400  1
  P  P5  1  0.90524800  0.75368300  0.86399700  1
  P  P6  1  0.75368300  0.90524800  0.36399700  1
  P  P7  1  0.42042200  0.33306100  0.92636600  1
  O  O0  1  0.53325300  0.43954800  0.14530100  1
  O  O1  1  0.98420100  0.42577300  0.19598600  1
  O  O2  1  0.19011400  0.33064700  0.37440900  1
  O  O3  1  0.61207600  0.78781800  0.47858600  1
  O  O4  1  0.21516700  0.61411100  0.47660600  1
  O  O5  1  0.61411100  0.21516700  0.97660600  1
  O  O6  1  0.72834700  0.91413100  0.81521300  1
  O  O7  1  0.38588900  0.78483300  0.02339400  1
  O  O8  1  0.46674700  0.56045200  0.85469900  1
  O  O9  1  0.01579900  0.57422700  0.80401400  1
  O  O10  1  0.11235700  0.93255800  0.61695300  1
  O  O11  1  0.66935300  0.80988600  0.12559100  1
  O  O12  1  0.21218200  0.38792400  0.02141400  1
  O  O13  1  0.33064700  0.19011400  0.87440900  1
  O  O14  1  0.56045200  0.46674700  0.35469900  1
  O  O15  1  0.38792400  0.21218200  0.52141400  1
  O  O16  1  0.78781800  0.61207600  0.97858600  1
  O  O17  1  0.43954800  0.53325300  0.64530100  1
  O  O18  1  0.57422700  0.01579900  0.30401400  1
  O  O19  1  0.93255800  0.11235700  0.11695300  1
  O  O20  1  0.80988600  0.66935300  0.62559100  1
  O  O21  1  0.27165300  0.08586900  0.18478700  1
  O  O22  1  0.88764300  0.06744200  0.38304700  1
  O  O23  1  0.42577300  0.98420100  0.69598600  1
  O  O24  1  0.06744200  0.88764300  0.88304700  1
  O  O25  1  0.78483300  0.38588900  0.52339400  1
  O  O26  1  0.91413100  0.72834700  0.31521300  1
  O  O27  1  0.08586900  0.27165300  0.68478700  1
loop_
_geom_bond_atom_site_label_1
_geom_bond_atom_site_label_2
_geom_bond_distance
_geom_bond_site_symmetry_2
Li0 O23 2.121453 1_545
Li0 O10 2.127423 1_645
Li0 O20 2.192884 1_545
Li0 O6 2.357274 1_545
Li0 O25 2.362761 1_555
Li1 O1 2.121453 1_455
Li1 O19 2.127423 1_465
Li1 O11 2.192884 1_455
Li1 O26 2.357274 1_455
Li1 O7 2.362761 1_555
Li2 O18 2.121453 1_565
Li2 O22 2.127423 1_465
Li2 O2 2.192884 1_565
Li2 O21 2.357274 1_565
Li2 O4 2.362761 1_555
Li3 O9 2.121453 1_655
Li3 O24 2.127423 1_645
Li3 O13 2.192884 1_655
Li3 O27 2.357274 1_655
Li3 O5 2.362761 1_555
Fe0 O0 1.976510 1_555
Fe0 O11 2.015471 1_545
Fe0 O21 2.015536 1_555
Fe0 O19 2.041695 1_555
Fe0 O18 2.066076 1_555
Fe0 O5 2.111169 1_554
Fe1 O14 1.976510 1_555
Fe1 O2 2.015471 1_655
Fe1 O26 2.015536 1_555
Fe1 O22 2.041695 1_555
Fe1 O1 2.066076 1_555
Fe1 O25 2.111169 1_555
Fe2 O8 1.976510 1_555
Fe2 O13 2.015471 1_565
Fe2 O6 2.015536 1_555
Fe2 O24 2.041695 1_555
Fe2 O23 2.066076 1_555
Fe2 O7 2.111169 1_556
Fe3 O17 1.976510 1_555
Fe3 O20 2.015471 1_455
Fe3 O27 2.015536 1_555
Fe3 O10 2.041695 1_555
Fe3 O9 2.066076 1_555
Fe3 O4 2.111169 1_555
O0 P2 1.518220 1_555
O1 P3 1.530893 1_655
O2 P1 1.533779 1_555
O3 P6 1.600966 1_555
O3 P4 1.627138 1_555
O4 P1 1.540660 1_555
O5 P7 1.540660 1_555
O6 P5 1.535742 1_555
O7 P2 1.540660 1_555
O8 P7 1.518220 1_555
O9 P5 1.530893 1_455
O10 P0 1.542963 1_565
O11 P2 1.533779 1_555
O12 P3 1.600966 1_555
O12 P7 1.627138 1_554
O13 P7 1.533779 1_555
O14 P1 1.518220 1_555
O15 P0 1.600966 1_555
O15 P1 1.627138 1_555
O16 P5 1.600966 1_555
O16 P2 1.627138 1_556
O17 P4 1.518220 1_555
O18 P6 1.530893 1_545
O19 P3 1.542963 1_655
O20 P4 1.533779 1_555
O21 P3 1.535742 1_555
O22 P6 1.542963 1_545
O23 P0 1.530893 1_565
O24 P5 1.542963 1_455
O25 P4 1.540660 1_555
O26 P6 1.535742 1_555
O27 P0 1.535742 1_555
