# generated using pymatgen
data_LiMg
_symmetry_space_group_name_H-M   'P 1'
_cell_length_a   11.66529412
_cell_length_b   11.66529412
_cell_length_c   14.84192505
_cell_angle_alpha   73.76265085
_cell_angle_beta   73.76265085
_cell_angle_gamma   31.30672798
_symmetry_Int_Tables_number   1
_chemical_formula_structural   LiMg
_chemical_formula_sum   'Li24 Mg24'
_cell_volume   1004.24062540
_cell_formula_units_Z   24
loop_
 _symmetry_equiv_pos_site_id
 _symmetry_equiv_pos_as_xyz
  1  'x, y, z'
loop_
 _atom_site_type_symbol
 _atom_site_label
 _atom_site_symmetry_multiplicity
 _atom_site_fract_x
 _atom_site_fract_y
 _atom_site_fract_z
 _atom_site_occupancy
  Li  Li0_0  1  0.30575600  0.30575600  0.13852350  1
  Li  Li0_1  1  0.30575600  0.30575600  0.63852350  1
  Li  Li0_2  1  0.30575600  0.80575600  0.13852350  1
  Li  Li0_3  1  0.30575600  0.80575600  0.63852350  1
  Li  Li0_4  1  0.80575600  0.30575600  0.13852350  1
  Li  Li0_5  1  0.80575600  0.30575600  0.63852350  1
  Li  Li0_6  1  0.80575600  0.80575600  0.13852350  1
  Li  Li0_7  1  0.80575600  0.80575600  0.63852350  1
  Li  Li1_0  1  0.16638250  0.16638250  0.16731350  1
  Li  Li1_1  1  0.16638250  0.16638250  0.66731350  1
  Li  Li1_2  1  0.16638250  0.66638250  0.16731350  1
  Li  Li1_3  1  0.16638250  0.66638250  0.66731350  1
  Li  Li1_4  1  0.66638250  0.16638250  0.16731350  1
  Li  Li1_5  1  0.66638250  0.16638250  0.66731350  1
  Li  Li1_6  1  0.66638250  0.66638250  0.16731350  1
  Li  Li1_7  1  0.66638250  0.66638250  0.66731350  1
  Li  Li2_0  1  0.47290800  0.47290800  0.30420950  1
  Li  Li2_1  1  0.47290800  0.47290800  0.80420950  1
  Li  Li2_2  1  0.47290800  0.97290800  0.30420950  1
  Li  Li2_3  1  0.47290800  0.97290800  0.80420950  1
  Li  Li2_4  1  0.97290800  0.47290800  0.30420950  1
  Li  Li2_5  1  0.97290800  0.47290800  0.80420950  1
  Li  Li2_6  1  0.97290800  0.97290800  0.30420950  1
  Li  Li2_7  1  0.97290800  0.97290800  0.80420950  1
  Mg  Mg0_0  1  0.49875200  0.49875200  0.00443750  1
  Mg  Mg0_1  1  0.49875200  0.49875200  0.50443750  1
  Mg  Mg0_2  1  0.49875200  0.99875200  0.00443750  1
  Mg  Mg0_3  1  0.49875200  0.99875200  0.50443750  1
  Mg  Mg0_4  1  0.99875200  0.49875200  0.00443750  1
  Mg  Mg0_5  1  0.99875200  0.49875200  0.50443750  1
  Mg  Mg0_6  1  0.99875200  0.99875200  0.00443750  1
  Mg  Mg0_7  1  0.99875200  0.99875200  0.50443750  1
  Mg  Mg1_0  1  0.33341050  0.33341050  0.33044000  1
  Mg  Mg1_1  1  0.33341050  0.33341050  0.83044000  1
  Mg  Mg1_2  1  0.33341050  0.83341050  0.33044000  1
  Mg  Mg1_3  1  0.33341050  0.83341050  0.83044000  1
  Mg  Mg1_4  1  0.83341050  0.33341050  0.33044000  1
  Mg  Mg1_5  1  0.83341050  0.33341050  0.83044000  1
  Mg  Mg1_6  1  0.83341050  0.83341050  0.33044000  1
  Mg  Mg1_7  1  0.83341050  0.83341050  0.83044000  1
  Mg  Mg2_0  1  0.13945700  0.13945700  0.47174200  1
  Mg  Mg2_1  1  0.13945700  0.13945700  0.97174200  1
  Mg  Mg2_2  1  0.13945700  0.63945700  0.47174200  1
  Mg  Mg2_3  1  0.13945700  0.63945700  0.97174200  1
  Mg  Mg2_4  1  0.63945700  0.13945700  0.47174200  1
  Mg  Mg2_5  1  0.63945700  0.13945700  0.97174200  1
  Mg  Mg2_6  1  0.63945700  0.63945700  0.47174200  1
  Mg  Mg2_7  1  0.63945700  0.63945700  0.97174200  1
loop_
_geom_bond_atom_site_label_1
_geom_bond_atom_site_label_2
_geom_bond_distance
_geom_bond_site_symmetry_2
Li0_0 Li1_0 3.034657 1_555
Li0_0 Li2_2 3.054471 1_545
Li0_0 Li2_4 3.054471 1_455
Li0_0 Mg2_5 3.071905 1_554
Li0_0 Mg2_3 3.071905 1_554
Li0_0 Li1_2 3.074494 1_555
Li0_0 Li1_4 3.074494 1_555
Li0_0 Mg1_0 3.086610 1_555
Li0_0 Mg0_4 3.091479 1_455
Li0_0 Mg0_2 3.091479 1_545
Li0_0 Li0_6 3.147492 1_455
Li0_0 Li0_6 3.147492 1_545
Li0_1 Li1_1 3.034657 1_555
Li0_1 Li2_3 3.054471 1_545
Li0_1 Li2_5 3.054471 1_455
Li0_1 Mg2_2 3.071905 1_555
Li0_1 Mg2_4 3.071905 1_555
Li0_1 Li1_5 3.074494 1_555
Li0_1 Li1_3 3.074494 1_555
Li0_1 Mg1_1 3.086610 1_555
Li0_1 Mg0_3 3.091479 1_545
Li0_1 Mg0_5 3.091479 1_455
Li0_1 Li0_7 3.147492 1_545
Li0_1 Li0_7 3.147492 1_455
Li0_2 Li1_2 3.034657 1_555
Li0_2 Li2_6 3.054471 1_455
Li0_2 Li2_0 3.054471 1_555
Li0_2 Mg2_7 3.071905 1_554
Li0_2 Mg2_1 3.071905 1_564
Li0_2 Li1_6 3.074494 1_555
Li0_2 Li1_0 3.074494 1_565
Li0_2 Mg1_2 3.086610 1_555
Li0_2 Mg0_0 3.091479 1_555
Li0_2 Mg0_6 3.091479 1_455
Li0_2 Li0_4 3.147492 1_465
Li0_2 Li0_4 3.147492 1_555
Li0_3 Li1_3 3.034657 1_555
Li0_3 Li2_1 3.054471 1_555
Li0_3 Li2_7 3.054471 1_455
Li0_3 Mg2_0 3.071905 1_565
Li0_3 Mg2_6 3.071905 1_555
Li0_3 Li1_1 3.074494 1_565
Li0_3 Li1_7 3.074494 1_555
Li0_3 Mg1_3 3.086610 1_555
Li0_3 Mg0_7 3.091479 1_455
Li0_3 Mg0_1 3.091479 1_555
Li0_3 Li0_5 3.147492 1_465
Li0_3 Li0_5 3.147492 1_555
Li0_4 Li1_4 3.034657 1_555
Li0_4 Li2_6 3.054471 1_545
Li0_4 Li2_0 3.054471 1_555
Li0_4 Mg2_1 3.071905 1_654
Li0_4 Mg2_7 3.071905 1_554
Li0_4 Li1_0 3.074494 1_655
Li0_4 Li1_6 3.074494 1_555
Li0_4 Mg1_4 3.086610 1_555
Li0_4 Mg0_0 3.091479 1_555
Li0_4 Mg0_6 3.091479 1_545
Li0_5 Li1_5 3.034657 1_555
Li0_5 Li2_1 3.054471 1_555
Li0_5 Li2_7 3.054471 1_545
Li0_5 Mg2_6 3.071905 1_555
Li0_5 Mg2_0 3.071905 1_655
Li0_5 Li1_1 3.074494 1_655
Li0_5 Li1_7 3.074494 1_555
Li0_5 Mg1_5 3.086610 1_555
Li0_5 Mg0_1 3.091479 1_555
Li0_5 Mg0_7 3.091479 1_545
Li0_6 Li1_6 3.034657 1_555
Li0_6 Li2_2 3.054471 1_555
Li0_6 Li2_4 3.054471 1_555
Li0_6 Mg2_3 3.071905 1_654
Li0_6 Mg2_5 3.071905 1_564
Li0_6 Li1_2 3.074494 1_655
Li0_6 Li1_4 3.074494 1_565
Li0_6 Mg1_6 3.086610 1_555
Li0_6 Mg0_4 3.091479 1_555
Li0_6 Mg0_2 3.091479 1_555
Li0_7 Li1_7 3.034657 1_555
Li0_7 Li2_3 3.054471 1_555
Li0_7 Li2_5 3.054471 1_555
Li0_7 Mg2_2 3.071905 1_655
Li0_7 Mg2_4 3.071905 1_565
Li0_7 Li1_5 3.074494 1_565
Li0_7 Li1_3 3.074494 1_655
Li0_7 Mg1_7 3.086610 1_555
Li0_7 Mg0_5 3.091479 1_555
Li0_7 Mg0_3 3.091479 1_555
Li1_0 Mg0_2 3.024349 1_545
Li1_0 Mg0_4 3.024349 1_455
Li1_0 Mg1_4 3.031819 1_455
Li1_0 Mg1_2 3.031819 1_545
Li1_0 Li2_4 3.117033 1_455
Li1_0 Li2_2 3.117033 1_545
Li1_0 Mg2_1 3.132256 1_554
Li1_0 Li1_6 3.147492 1_545
Li1_0 Li1_6 3.147492 1_455
Li1_1 Mg0_3 3.024349 1_545
Li1_1 Mg0_5 3.024349 1_455
Li1_1 Mg1_3 3.031819 1_545
Li1_1 Mg1_5 3.031819 1_455
Li1_1 Li2_5 3.117033 1_455
Li1_1 Li2_3 3.117033 1_545
Li1_1 Mg2_0 3.132256 1_555
Li1_1 Li1_7 3.147492 1_545
Li1_1 Li1_7 3.147492 1_455
Li1_2 Mg0_6 3.024349 1_455
Li1_2 Mg0_0 3.024349 1_555
Li1_2 Mg1_0 3.031819 1_555
Li1_2 Mg1_6 3.031819 1_455
Li1_2 Li2_0 3.117033 1_555
Li1_2 Li2_6 3.117033 1_455
Li1_2 Mg2_3 3.132256 1_554
Li1_2 Li1_4 3.147492 1_555
Li1_2 Li1_4 3.147492 1_465
Li1_3 Mg0_7 3.024349 1_455
Li1_3 Mg0_1 3.024349 1_555
Li1_3 Mg1_7 3.031819 1_455
Li1_3 Mg1_1 3.031819 1_555
Li1_3 Li2_7 3.117033 1_455
Li1_3 Li2_1 3.117033 1_555
Li1_3 Mg2_2 3.132256 1_555
Li1_3 Li1_5 3.147492 1_465
Li1_3 Li1_5 3.147492 1_555
Li1_4 Mg0_0 3.024349 1_555
Li1_4 Mg0_6 3.024349 1_545
Li1_4 Mg1_0 3.031819 1_555
Li1_4 Mg1_6 3.031819 1_545
Li1_4 Li2_0 3.117033 1_555
Li1_4 Li2_6 3.117033 1_545
Li1_4 Mg2_5 3.132256 1_554
Li1_5 Mg0_1 3.024349 1_555
Li1_5 Mg0_7 3.024349 1_545
Li1_5 Mg1_1 3.031819 1_555
Li1_5 Mg1_7 3.031819 1_545
Li1_5 Li2_7 3.117033 1_545
Li1_5 Li2_1 3.117033 1_555
Li1_5 Mg2_4 3.132256 1_555
Li1_6 Mg0_2 3.024349 1_555
Li1_6 Mg0_4 3.024349 1_555
Li1_6 Mg1_4 3.031819 1_555
Li1_6 Mg1_2 3.031819 1_555
Li1_6 Li2_4 3.117033 1_555
Li1_6 Li2_2 3.117033 1_555
Li1_6 Mg2_7 3.132256 1_554
Li1_7 Mg0_5 3.024349 1_555
Li1_7 Mg0_3 3.024349 1_555
Li1_7 Mg1_3 3.031819 1_555
Li1_7 Mg1_5 3.031819 1_555
Li1_7 Li2_5 3.117033 1_555
Li1_7 Li2_3 3.117033 1_555
Li1_7 Mg2_6 3.132256 1_555
Li2_0 Mg1_0 3.043686 1_555
Li2_0 Mg1_2 3.058136 1_555
Li2_0 Mg1_4 3.058136 1_555
Li2_0 Mg2_4 3.076809 1_555
Li2_0 Mg2_2 3.076809 1_555
Li2_0 Li2_6 3.147492 1_455
Li2_0 Li2_6 3.147492 1_545
Li2_0 Mg0_1 3.189132 1_555
Li2_1 Mg1_1 3.043686 1_555
Li2_1 Mg1_3 3.058136 1_555
Li2_1 Mg1_5 3.058136 1_555
Li2_1 Mg2_5 3.076809 1_555
Li2_1 Mg2_3 3.076809 1_555
Li2_1 Li2_7 3.147492 1_545
Li2_1 Li2_7 3.147492 1_455
Li2_1 Mg0_0 3.189132 1_556
Li2_2 Mg1_2 3.043686 1_555
Li2_2 Mg1_6 3.058136 1_555
Li2_2 Mg1_0 3.058136 1_565
Li2_2 Mg2_0 3.076809 1_565
Li2_2 Mg2_6 3.076809 1_555
Li2_2 Li2_4 3.147492 1_555
Li2_2 Li2_4 3.147492 1_465
Li2_2 Mg0_3 3.189132 1_555
Li2_3 Mg1_3 3.043686 1_555
Li2_3 Mg1_7 3.058136 1_555
Li2_3 Mg1_1 3.058136 1_565
Li2_3 Mg2_7 3.076809 1_555
Li2_3 Mg2_1 3.076809 1_565
Li2_3 Li2_5 3.147492 1_555
Li2_3 Li2_5 3.147492 1_465
Li2_3 Mg0_2 3.189132 1_556
Li2_4 Mg1_4 3.043686 1_555
Li2_4 Mg1_6 3.058136 1_555
Li2_4 Mg1_0 3.058136 1_655
Li2_4 Mg2_6 3.076809 1_555
Li2_4 Mg2_0 3.076809 1_655
Li2_4 Mg0_5 3.189132 1_555
Li2_5 Mg1_5 3.043686 1_555
Li2_5 Mg1_7 3.058136 1_555
Li2_5 Mg1_1 3.058136 1_655
Li2_5 Mg2_7 3.076809 1_555
Li2_5 Mg2_1 3.076809 1_655
Li2_5 Mg0_4 3.189132 1_556
Li2_6 Mg1_6 3.043686 1_555
Li2_6 Mg1_2 3.058136 1_655
Li2_6 Mg1_4 3.058136 1_565
Li2_6 Mg2_4 3.076809 1_565
Li2_6 Mg2_2 3.076809 1_655
Li2_6 Mg0_7 3.189132 1_555
Li2_7 Mg1_7 3.043686 1_555
Li2_7 Mg1_5 3.058136 1_565
Li2_7 Mg1_3 3.058136 1_655
Li2_7 Mg2_5 3.076809 1_565
Li2_7 Mg2_3 3.076809 1_655
Li2_7 Mg0_6 3.189132 1_556
Mg0_0 Mg2_7 3.055555 1_554
Mg0_0 Mg2_3 3.071296 1_554
Mg0_0 Mg2_5 3.071296 1_554
Mg0_0 Mg0_6 3.147492 1_545
Mg0_0 Mg0_6 3.147492 1_455
Mg0_0 Mg1_5 3.148082 1_554
Mg0_0 Mg1_3 3.148082 1_554
Mg0_1 Mg2_6 3.055555 1_555
Mg0_1 Mg2_4 3.071296 1_555
Mg0_1 Mg2_2 3.071296 1_555
Mg0_1 Mg0_7 3.147492 1_545
Mg0_1 Mg0_7 3.147492 1_455
Mg0_1 Mg1_2 3.148082 1_555
Mg0_1 Mg1_4 3.148082 1_555
Mg0_2 Mg2_5 3.055555 1_564
Mg0_2 Mg2_1 3.071296 1_564
Mg0_2 Mg2_7 3.071296 1_554
Mg0_2 Mg0_4 3.147492 1_555
Mg0_2 Mg0_4 3.147492 1_465
Mg0_2 Mg1_7 3.148082 1_554
Mg0_2 Mg1_1 3.148082 1_564
Mg0_3 Mg2_4 3.055555 1_565
Mg0_3 Mg2_0 3.071296 1_565
Mg0_3 Mg2_6 3.071296 1_555
Mg0_3 Mg0_5 3.147492 1_555
Mg0_3 Mg0_5 3.147492 1_465
Mg0_3 Mg1_6 3.148082 1_555
Mg0_3 Mg1_0 3.148082 1_565
Mg0_4 Mg2_3 3.055555 1_654
Mg0_4 Mg2_7 3.071296 1_554
Mg0_4 Mg2_1 3.071296 1_654
Mg0_4 Mg1_7 3.148082 1_554
Mg0_4 Mg1_1 3.148082 1_654
Mg0_5 Mg2_2 3.055555 1_655
Mg0_5 Mg2_6 3.071296 1_555
Mg0_5 Mg2_0 3.071296 1_655
Mg0_5 Mg1_6 3.148082 1_555
Mg0_5 Mg1_0 3.148082 1_655
Mg0_6 Mg2_1 3.055555 1_664
Mg0_6 Mg2_5 3.071296 1_564
Mg0_6 Mg2_3 3.071296 1_654
Mg0_6 Mg1_5 3.148082 1_564
Mg0_6 Mg1_3 3.148082 1_654
Mg0_7 Mg2_0 3.055555 1_665
Mg0_7 Mg2_4 3.071296 1_565
Mg0_7 Mg2_2 3.071296 1_655
Mg0_7 Mg1_2 3.148082 1_655
Mg0_7 Mg1_4 3.148082 1_565
Mg1_0 Mg1_6 3.147492 1_545
Mg1_0 Mg1_6 3.147492 1_455
Mg1_0 Mg2_2 3.161299 1_555
Mg1_0 Mg2_4 3.161299 1_555
Mg1_1 Mg1_7 3.147492 1_545
Mg1_1 Mg1_7 3.147492 1_455
Mg1_1 Mg2_5 3.161299 1_555
Mg1_1 Mg2_3 3.161299 1_555
Mg1_2 Mg1_4 3.147492 1_555
Mg1_2 Mg1_4 3.147492 1_465
Mg1_2 Mg2_0 3.161299 1_565
Mg1_2 Mg2_6 3.161299 1_555
Mg1_3 Mg1_5 3.147492 1_465
Mg1_3 Mg1_5 3.147492 1_555
Mg1_3 Mg2_7 3.161299 1_555
Mg1_3 Mg2_1 3.161299 1_565
Mg1_4 Mg2_6 3.161299 1_555
Mg1_4 Mg2_0 3.161299 1_655
Mg1_5 Mg2_1 3.161299 1_655
Mg1_5 Mg2_7 3.161299 1_555
Mg1_6 Mg2_2 3.161299 1_655
Mg1_6 Mg2_4 3.161299 1_565
Mg1_7 Mg2_3 3.161299 1_655
Mg1_7 Mg2_5 3.161299 1_565
Mg2_0 Mg2_6 3.147492 1_455
Mg2_0 Mg2_6 3.147492 1_545
Mg2_1 Mg2_7 3.147492 1_545
Mg2_1 Mg2_7 3.147492 1_455
Mg2_2 Mg2_4 3.147492 1_555
Mg2_2 Mg2_4 3.147492 1_465
Mg2_3 Mg2_5 3.147492 1_555
Mg2_3 Mg2_5 3.147492 1_465
