# generated using pymatgen
data_Cr2O3
_symmetry_space_group_name_H-M   'P 1'
_cell_length_a   10.06031341
_cell_length_b   10.34307846
_cell_length_c   10.12936541
_cell_angle_alpha   98.43008569
_cell_angle_beta   94.56468063
_cell_angle_gamma   85.84753198
_symmetry_Int_Tables_number   1
_chemical_formula_structural   Cr2O3
_chemical_formula_sum   'Cr32 O48'
_cell_volume   1037.33819543
_cell_formula_units_Z   16
loop_
 _symmetry_equiv_pos_site_id
 _symmetry_equiv_pos_as_xyz
  1  'x, y, z'
loop_
 _atom_site_type_symbol
 _atom_site_label
 _atom_site_symmetry_multiplicity
 _atom_site_fract_x
 _atom_site_fract_y
 _atom_site_fract_z
 _atom_site_occupancy
  Cr  Cr0  1  0.21466100  0.55530400  0.09805600  1
  Cr  Cr1  1  0.68375100  0.91730600  0.64548100  1
  Cr  Cr2  1  0.28950200  0.44472400  0.80140700  1
  Cr  Cr3  1  0.80028200  0.15660200  0.74734900  1
  Cr  Cr4  1  0.74263400  0.31618500  0.40064500  1
  Cr  Cr5  1  0.83447000  0.60524700  0.86313400  1
  Cr  Cr6  1  0.12108500  0.82215600  0.12528100  1
  Cr  Cr7  1  0.84297300  0.57613400  0.51776300  1
  Cr  Cr8  1  0.28118100  0.87752000  0.87216300  1
  Cr  Cr9  1  0.68871700  0.79328500  0.36575700  1
  Cr  Cr10  1  0.03454500  0.72505100  0.38463600  1
  Cr  Cr11  1  0.06813600  0.63664900  0.72130400  1
  Cr  Cr12  1  0.49207600  0.07505300  0.40030100  1
  Cr  Cr13  1  0.56662100  0.90473500  0.88650800  1
  Cr  Cr14  1  0.76143300  0.33770000  0.02965700  1
  Cr  Cr15  1  0.43309100  0.12137300  0.74234300  1
  Cr  Cr16  1  0.30638500  0.52881400  0.54467900  1
  Cr  Cr17  1  0.39118600  0.31356800  0.29675700  1
  Cr  Cr18  1  0.29654900  0.31395500  0.00406800  1
  Cr  Cr19  1  0.32155000  0.80584700  0.58280500  1
  Cr  Cr20  1  0.62212600  0.40202700  0.69748300  1
  Cr  Cr21  1  0.04641600  0.02358700  0.61999900  1
  Cr  Cr22  1  0.59513500  0.66599300  0.64404900  1
  Cr  Cr23  1  0.64599600  0.10936500  0.17197500  1
  Cr  Cr24  1  0.34407100  0.07091200  0.11059700  1
  Cr  Cr25  1  0.00301800  0.33806000  0.60209400  1
  Cr  Cr26  1  0.17247500  0.04471500  0.40418700  1
  Cr  Cr27  1  0.85132900  0.86050000  0.97505300  1
  Cr  Cr28  1  0.38563900  0.66545500  0.32493500  1
  Cr  Cr29  1  0.85615600  0.58818700  0.14310700  1
  Cr  Cr30  1  0.55992300  0.53940800  0.96984900  1
  Cr  Cr31  1  0.05143100  0.14929700  0.90684000  1
  O  O0  1  0.22246500  0.69378600  0.43754700  1
  O  O1  1  0.67964900  0.50244200  0.12262400  1
  O  O2  1  0.61856400  0.35885200  0.88872900  1
  O  O3  1  0.91308500  0.51847500  0.69568700  1
  O  O4  1  0.43385000  0.23811000  0.11950600  1
  O  O5  1  0.43964800  0.14454300  0.57002000  1
  O  O6  1  0.74730000  0.26671100  0.62340100  1
  O  O7  1  0.18816000  0.17956200  0.04217500  1
  O  O8  1  0.64544000  0.57221500  0.80718600  1
  O  O9  1  0.04739300  0.65122600  0.18122300  1
  O  O10  1  0.16083400  0.45776600  0.63857300  1
  O  O11  1  0.99289200  0.68878600  0.55779000  1
  O  O12  1  0.15037100  0.43998200  0.93658900  1
  O  O13  1  0.24434500  0.72516900  0.72804700  1
  O  O14  1  0.24356800  0.98446200  0.57348600  1
  O  O15  1  0.63625300  0.96127600  0.46064300  1
  O  O16  1  0.77830400  0.71124900  0.03081900  1
  O  O17  1  0.31545200  0.26104400  0.81793800  1
  O  O18  1  0.40401500  0.02506400  0.91334400  1
  O  O19  1  0.99138300  0.72121900  0.88666600  1
  O  O20  1  0.50860700  0.00500800  0.20655200  1
  O  O21  1  0.84211700  0.66542300  0.33259800  1
  O  O22  1  0.71485300  0.74253100  0.54127700  1
  O  O23  1  0.56556800  0.22801100  0.35067200  1
  O  O24  1  0.11499900  0.98297300  0.80781000  1
  O  O25  1  0.31382200  0.48012300  0.25794800  1
  O  O26  1  0.44478400  0.64913400  0.51730100  1
  O  O27  1  0.91661000  0.40535800  0.44476500  1
  O  O28  1  0.49950100  0.85784400  0.68847900  1
  O  O29  1  0.62813200  0.07285200  0.77259300  1
  O  O30  1  0.85954000  0.17510400  0.92826400  1
  O  O31  1  0.75889700  0.24977500  0.19277700  1
  O  O32  1  0.69044600  0.97706800  0.02277100  1
  O  O33  1  0.73041100  0.81269700  0.80346200  1
  O  O34  1  0.03788700  0.91393500  0.42851800  1
  O  O35  1  0.30538700  0.13991300  0.31412800  1
  O  O36  1  0.05086300  0.16542600  0.49347500  1
  O  O37  1  0.46545000  0.78137100  0.92532900  1
  O  O38  1  0.87769900  0.46546200  0.97675600  1
  O  O39  1  0.85511400  0.00085800  0.65746600  1
  O  O40  1  0.38091800  0.48742400  0.99247900  1
  O  O41  1  0.28421500  0.71689700  0.16999400  1
  O  O42  1  0.96315300  0.91543700  0.12750400  1
  O  O43  1  0.99329200  0.20215500  0.73351000  1
  O  O44  1  0.66635700  0.49451000  0.54409700  1
  O  O45  1  0.53766600  0.73114200  0.28168600  1
  O  O46  1  0.42879000  0.45308100  0.68123200  1
  O  O47  1  0.23441600  0.92278000  0.05341500  1
loop_
_geom_bond_atom_site_label_1
_geom_bond_atom_site_label_2
_geom_bond_distance
_geom_bond_site_symmetry_2
Cr0 O41 1.882871 1_555
Cr0 O12 1.971662 1_554
Cr0 O25 2.054927 1_555
Cr0 O9 2.065070 1_555
Cr0 O40 2.080549 1_554
Cr1 O39 1.971115 1_565
Cr1 O22 1.972573 1_555
Cr1 O29 1.983978 1_565
Cr1 O15 2.004103 1_555
Cr1 O33 2.065518 1_555
Cr1 O28 2.091881 1_555
Cr2 O17 1.928727 1_555
Cr2 O46 1.942362 1_555
Cr2 O10 2.028404 1_555
Cr2 O12 2.042370 1_555
Cr2 O40 2.076452 1_555
Cr3 O39 1.802599 1_555
Cr3 O6 1.839090 1_555
Cr3 O30 1.868177 1_555
Cr3 O29 2.041534 1_555
Cr3 O43 2.051142 1_555
Cr4 O27 2.025393 1_555
Cr4 O23 2.053661 1_555
Cr4 O31 2.132254 1_555
Cr4 O44 2.299761 1_555
Cr4 O6 2.381910 1_555
Cr5 O8 1.979936 1_555
Cr5 O38 1.980221 1_555
Cr5 O16 1.980760 1_556
Cr5 O3 1.993050 1_555
Cr5 O19 2.029309 1_555
Cr5 O33 2.453452 1_555
Cr6 O42 1.798089 1_455
Cr6 O47 1.854490 1_555
Cr6 O41 1.962461 1_555
Cr6 O9 2.132314 1_555
Cr7 O27 1.931392 1_555
Cr7 O11 1.953311 1_555
Cr7 O3 2.037938 1_555
Cr7 O22 2.070631 1_555
Cr7 O44 2.073565 1_555
Cr7 O21 2.207944 1_555
Cr8 O47 1.914381 1_556
Cr8 O18 2.008569 1_565
Cr8 O13 2.018769 1_555
Cr8 O24 2.044637 1_555
Cr8 O37 2.108728 1_555
Cr9 O45 1.795149 1_555
Cr9 O15 1.918252 1_555
Cr9 O22 1.919614 1_555
Cr9 O21 1.974869 1_555
Cr10 O11 1.930088 1_455
Cr10 O0 1.940861 1_555
Cr10 O34 1.941119 1_555
Cr10 O21 2.078710 1_455
Cr10 O9 2.100472 1_555
Cr11 O11 1.900085 1_455
Cr11 O19 1.960989 1_455
Cr11 O3 2.028096 1_455
Cr11 O13 2.045215 1_555
Cr11 O10 2.101213 1_555
Cr12 O5 1.864774 1_555
Cr12 O15 1.919611 1_545
Cr12 O23 1.940106 1_555
Cr12 O20 2.005434 1_555
Cr12 O35 2.113690 1_555
Cr13 O37 1.793754 1_555
Cr13 O32 1.890811 1_556
Cr13 O18 1.993903 1_565
Cr13 O33 2.021801 1_555
Cr13 O28 2.064325 1_555
Cr13 O29 2.365537 1_565
Cr14 O2 1.967474 1_554
Cr14 O1 1.979134 1_555
Cr14 O38 1.983113 1_554
Cr14 O31 2.002108 1_555
Cr14 O30 2.066824 1_554
Cr15 O5 1.803303 1_555
Cr15 O17 1.909510 1_555
Cr15 O29 2.000663 1_555
Cr15 O18 2.169533 1_555
Cr16 O46 1.987487 1_555
Cr16 O26 1.994449 1_555
Cr16 O10 2.042338 1_555
Cr16 O0 2.233915 1_555
Cr16 O13 2.618974 1_555
Cr17 O4 1.918396 1_555
Cr17 O25 1.919284 1_555
Cr17 O23 1.980761 1_555
Cr17 O35 2.084095 1_555
Cr18 O17 1.905199 1_554
Cr18 O7 1.927189 1_555
Cr18 O4 1.935355 1_555
Cr18 O12 2.037796 1_554
Cr18 O40 2.061924 1_554
Cr19 O14 1.966425 1_555
Cr19 O0 1.983896 1_555
Cr19 O13 2.024785 1_555
Cr19 O26 2.032033 1_555
Cr19 O28 2.074998 1_555
Cr20 O6 1.922232 1_555
Cr20 O8 1.957844 1_555
Cr20 O46 1.978592 1_555
Cr20 O44 2.033335 1_555
Cr20 O2 2.054376 1_555
Cr21 O39 2.027600 1_455
Cr21 O24 2.062785 1_545
Cr21 O14 2.072742 1_545
Cr21 O43 2.085920 1_455
Cr21 O36 2.089658 1_555
Cr21 O34 2.097197 1_545
Cr22 O26 1.905281 1_555
Cr22 O22 1.933976 1_555
Cr22 O44 2.022183 1_555
Cr22 O8 2.047769 1_555
Cr22 O28 2.143910 1_555
Cr22 O33 2.448023 1_555
Cr23 O31 1.885377 1_555
Cr23 O20 1.897915 1_555
Cr23 O32 1.941422 1_545
Cr23 O23 2.207957 1_555
Cr23 O4 2.495216 1_555
Cr24 O47 1.944939 1_545
Cr24 O20 1.980933 1_555
Cr24 O4 1.995500 1_555
Cr24 O7 2.000879 1_555
Cr24 O18 2.110286 1_554
Cr24 O35 2.137108 1_555
Cr25 O27 1.948587 1_455
Cr25 O36 2.003565 1_555
Cr25 O10 2.060919 1_555
Cr25 O43 2.084893 1_455
Cr25 O3 2.138411 1_455
Cr26 O36 1.870152 1_555
Cr26 O14 1.973411 1_545
Cr26 O34 2.034666 1_545
Cr26 O35 2.058597 1_555
Cr27 O42 1.879335 1_556
Cr27 O16 1.930758 1_556
Cr27 O32 1.994485 1_556
Cr27 O33 2.060068 1_555
Cr27 O19 2.095421 1_555
Cr28 O45 1.826772 1_555
Cr28 O41 1.923210 1_555
Cr28 O26 2.019091 1_555
Cr28 O0 2.052366 1_555
Cr28 O25 2.097167 1_555
Cr29 O16 1.914565 1_555
Cr29 O38 1.971981 1_554
Cr29 O21 1.979781 1_555
Cr29 O1 2.024407 1_555
Cr29 O9 2.065242 1_655
Cr30 O1 1.949837 1_556
Cr30 O40 1.956210 1_555
Cr30 O2 1.994610 1_555
Cr30 O8 2.000492 1_555
Cr31 O7 1.872362 1_556
Cr31 O43 1.948138 1_455
Cr31 O24 1.952296 1_545
Cr31 O30 1.954528 1_455
