# generated using pymatgen
data_Zn6B5Ir11
_symmetry_space_group_name_H-M   'P 1'
_cell_length_a   5.75129558
_cell_length_b   16.92717884
_cell_length_c   22.59774506
_cell_angle_alpha   90.00000000
_cell_angle_beta   90.00000000
_cell_angle_gamma   90.00000000
_symmetry_Int_Tables_number   1
_chemical_formula_structural   Zn6B5Ir11
_chemical_formula_sum   'Zn48 B40 Ir88'
_cell_volume   2199.96299424
_cell_formula_units_Z   8
loop_
 _symmetry_equiv_pos_site_id
 _symmetry_equiv_pos_as_xyz
  1  'x, y, z'
loop_
 _atom_site_type_symbol
 _atom_site_label
 _atom_site_symmetry_multiplicity
 _atom_site_fract_x
 _atom_site_fract_y
 _atom_site_fract_z
 _atom_site_occupancy
  Zn  Zn0_0  1  0.25000000  0.17201469  0.25000000  1
  Zn  Zn0_1  1  0.25000000  0.17201469  0.75000000  1
  Zn  Zn0_2  1  0.25000000  0.67201469  0.25000000  1
  Zn  Zn0_3  1  0.25000000  0.67201469  0.75000000  1
  Zn  Zn0_4  1  0.75000000  0.17201469  0.25000000  1
  Zn  Zn0_5  1  0.75000000  0.17201469  0.75000000  1
  Zn  Zn0_6  1  0.75000000  0.67201469  0.25000000  1
  Zn  Zn0_7  1  0.75000000  0.67201469  0.75000000  1
  Zn  Zn1_0  1  0.25000000  0.32100681  0.25000000  1
  Zn  Zn1_1  1  0.25000000  0.32100681  0.75000000  1
  Zn  Zn1_2  1  0.25000000  0.82100681  0.25000000  1
  Zn  Zn1_3  1  0.25000000  0.82100681  0.75000000  1
  Zn  Zn1_4  1  0.75000000  0.32100681  0.25000000  1
  Zn  Zn1_5  1  0.75000000  0.32100681  0.75000000  1
  Zn  Zn1_6  1  0.75000000  0.82100681  0.25000000  1
  Zn  Zn1_7  1  0.75000000  0.82100681  0.75000000  1
  Zn  Zn2_0  1  0.25000000  0.00017790  0.25000000  1
  Zn  Zn2_1  1  0.25000000  0.00017790  0.75000000  1
  Zn  Zn2_2  1  0.25000000  0.50017790  0.25000000  1
  Zn  Zn2_3  1  0.25000000  0.50017790  0.75000000  1
  Zn  Zn2_4  1  0.75000000  0.00017790  0.25000000  1
  Zn  Zn2_5  1  0.75000000  0.00017790  0.75000000  1
  Zn  Zn2_6  1  0.75000000  0.50017790  0.25000000  1
  Zn  Zn2_7  1  0.75000000  0.50017790  0.75000000  1
  Zn  Zn3_0  1  0.25000000  0.25785824  0.00000000  1
  Zn  Zn3_1  1  0.25000000  0.25785824  0.50000000  1
  Zn  Zn3_2  1  0.25000000  0.75785824  0.00000000  1
  Zn  Zn3_3  1  0.25000000  0.75785824  0.50000000  1
  Zn  Zn3_4  1  0.75000000  0.25785824  0.00000000  1
  Zn  Zn3_5  1  0.75000000  0.25785824  0.50000000  1
  Zn  Zn3_6  1  0.75000000  0.75785824  0.00000000  1
  Zn  Zn3_7  1  0.75000000  0.75785824  0.50000000  1
  Zn  Zn4_0  1  0.25000000  0.49340808  0.10006588  1
  Zn  Zn4_1  1  0.25000000  0.49340808  0.60006588  1
  Zn  Zn4_2  1  0.25000000  0.99340808  0.10006588  1
  Zn  Zn4_3  1  0.25000000  0.99340808  0.60006588  1
  Zn  Zn4_4  1  0.75000000  0.49340808  0.10006588  1
  Zn  Zn4_5  1  0.75000000  0.49340808  0.60006588  1
  Zn  Zn4_6  1  0.75000000  0.99340808  0.10006588  1
  Zn  Zn4_7  1  0.75000000  0.99340808  0.60006588  1
  Zn  Zn5_0  1  0.25000000  0.49340808  0.39993412  1
  Zn  Zn5_1  1  0.25000000  0.49340808  0.89993412  1
  Zn  Zn5_2  1  0.25000000  0.99340808  0.39993412  1
  Zn  Zn5_3  1  0.25000000  0.99340808  0.89993412  1
  Zn  Zn5_4  1  0.75000000  0.49340808  0.39993412  1
  Zn  Zn5_5  1  0.75000000  0.49340808  0.89993412  1
  Zn  Zn5_6  1  0.75000000  0.99340808  0.39993412  1
  Zn  Zn5_7  1  0.75000000  0.99340808  0.89993412  1
  B  B0_0  1  0.25000000  0.15840397  0.13324849  1
  B  B0_1  1  0.25000000  0.15840397  0.63324849  1
  B  B0_2  1  0.25000000  0.65840397  0.13324849  1
  B  B0_3  1  0.25000000  0.65840397  0.63324849  1
  B  B0_4  1  0.75000000  0.15840397  0.13324849  1
  B  B0_5  1  0.75000000  0.15840397  0.63324849  1
  B  B0_6  1  0.75000000  0.65840397  0.13324849  1
  B  B0_7  1  0.75000000  0.65840397  0.63324849  1
  B  B1_0  1  0.25000000  0.34250345  0.12833955  1
  B  B1_1  1  0.25000000  0.34250345  0.62833955  1
  B  B1_2  1  0.25000000  0.84250345  0.12833955  1
  B  B1_3  1  0.25000000  0.84250345  0.62833955  1
  B  B1_4  1  0.75000000  0.34250345  0.12833955  1
  B  B1_5  1  0.75000000  0.34250345  0.62833955  1
  B  B1_6  1  0.75000000  0.84250345  0.12833955  1
  B  B1_7  1  0.75000000  0.84250345  0.62833955  1
  B  B2_0  1  0.25000000  0.34250345  0.37166045  1
  B  B2_1  1  0.25000000  0.34250345  0.87166045  1
  B  B2_2  1  0.25000000  0.84250345  0.37166045  1
  B  B2_3  1  0.25000000  0.84250345  0.87166045  1
  B  B2_4  1  0.75000000  0.34250345  0.37166045  1
  B  B2_5  1  0.75000000  0.34250345  0.87166045  1
  B  B2_6  1  0.75000000  0.84250345  0.37166045  1
  B  B2_7  1  0.75000000  0.84250345  0.87166045  1
  B  B3_0  1  0.25000000  0.15840397  0.36675151  1
  B  B3_1  1  0.25000000  0.15840397  0.86675151  1
  B  B3_2  1  0.25000000  0.65840397  0.36675151  1
  B  B3_3  1  0.25000000  0.65840397  0.86675151  1
  B  B3_4  1  0.75000000  0.15840397  0.36675151  1
  B  B3_5  1  0.75000000  0.15840397  0.86675151  1
  B  B3_6  1  0.75000000  0.65840397  0.36675151  1
  B  B3_7  1  0.75000000  0.65840397  0.86675151  1
  B  B4_0  1  0.25000000  0.09036455  0.00000000  1
  B  B4_1  1  0.25000000  0.09036455  0.50000000  1
  B  B4_2  1  0.25000000  0.59036456  0.00000000  1
  B  B4_3  1  0.25000000  0.59036456  0.50000000  1
  B  B4_4  1  0.75000000  0.09036455  0.00000000  1
  B  B4_5  1  0.75000000  0.09036455  0.50000000  1
  B  B4_6  1  0.75000000  0.59036456  0.00000000  1
  B  B4_7  1  0.75000000  0.59036456  0.50000000  1
  Ir  Ir0_0  1  0.00000000  0.24993595  0.15928692  1
  Ir  Ir0_1  1  0.00000000  0.24993595  0.65928692  1
  Ir  Ir0_2  1  0.00000000  0.74993595  0.15928692  1
  Ir  Ir0_3  1  0.00000000  0.74993595  0.65928692  1
  Ir  Ir0_4  1  0.50000000  0.24993595  0.15928692  1
  Ir  Ir0_5  1  0.50000000  0.24993595  0.65928692  1
  Ir  Ir0_6  1  0.50000000  0.74993595  0.15928692  1
  Ir  Ir0_7  1  0.50000000  0.74993595  0.65928692  1
  Ir  Ir1_0  1  0.00000000  0.24993595  0.34071308  1
  Ir  Ir1_1  1  0.00000000  0.24993595  0.84071308  1
  Ir  Ir1_2  1  0.00000000  0.74993595  0.34071308  1
  Ir  Ir1_3  1  0.00000000  0.74993595  0.84071308  1
  Ir  Ir1_4  1  0.50000000  0.24993595  0.34071308  1
  Ir  Ir1_5  1  0.50000000  0.24993595  0.84071308  1
  Ir  Ir1_6  1  0.50000000  0.74993595  0.34071308  1
  Ir  Ir1_7  1  0.50000000  0.74993595  0.84071308  1
  Ir  Ir2_0  1  0.00000000  0.08359846  0.17497335  1
  Ir  Ir2_1  1  0.00000000  0.08359846  0.67497335  1
  Ir  Ir2_2  1  0.00000000  0.58359846  0.17497335  1
  Ir  Ir2_3  1  0.00000000  0.58359846  0.67497335  1
  Ir  Ir2_4  1  0.50000000  0.08359846  0.17497335  1
  Ir  Ir2_5  1  0.50000000  0.08359846  0.67497335  1
  Ir  Ir2_6  1  0.50000000  0.58359846  0.17497335  1
  Ir  Ir2_7  1  0.50000000  0.58359846  0.67497335  1
  Ir  Ir3_0  1  0.00000000  0.41194355  0.17913439  1
  Ir  Ir3_1  1  0.00000000  0.41194355  0.67913439  1
  Ir  Ir3_2  1  0.00000000  0.91194355  0.17913439  1
  Ir  Ir3_3  1  0.00000000  0.91194355  0.67913439  1
  Ir  Ir3_4  1  0.50000000  0.41194355  0.17913439  1
  Ir  Ir3_5  1  0.50000000  0.41194355  0.67913439  1
  Ir  Ir3_6  1  0.50000000  0.91194355  0.17913439  1
  Ir  Ir3_7  1  0.50000000  0.91194355  0.67913439  1
  Ir  Ir4_0  1  0.00000000  0.41194355  0.32086561  1
  Ir  Ir4_1  1  0.00000000  0.41194355  0.82086561  1
  Ir  Ir4_2  1  0.00000000  0.91194355  0.32086561  1
  Ir  Ir4_3  1  0.00000000  0.91194355  0.82086561  1
  Ir  Ir4_4  1  0.50000000  0.41194355  0.32086561  1
  Ir  Ir4_5  1  0.50000000  0.41194355  0.82086561  1
  Ir  Ir4_6  1  0.50000000  0.91194355  0.32086561  1
  Ir  Ir4_7  1  0.50000000  0.91194355  0.82086561  1
  Ir  Ir5_0  1  0.00000000  0.08359846  0.32502665  1
  Ir  Ir5_1  1  0.00000000  0.08359846  0.82502665  1
  Ir  Ir5_2  1  0.00000000  0.58359846  0.32502665  1
  Ir  Ir5_3  1  0.00000000  0.58359846  0.82502665  1
  Ir  Ir5_4  1  0.50000000  0.08359846  0.32502665  1
  Ir  Ir5_5  1  0.50000000  0.08359846  0.82502665  1
  Ir  Ir5_6  1  0.50000000  0.58359846  0.32502665  1
  Ir  Ir5_7  1  0.50000000  0.58359846  0.82502665  1
  Ir  Ir6_0  1  0.00000000  0.14886368  0.06032059  1
  Ir  Ir6_1  1  0.00000000  0.14886368  0.56032059  1
  Ir  Ir6_2  1  0.00000000  0.64886369  0.06032059  1
  Ir  Ir6_3  1  0.00000000  0.64886369  0.56032059  1
  Ir  Ir6_4  1  0.50000000  0.14886368  0.06032059  1
  Ir  Ir6_5  1  0.50000000  0.14886368  0.56032059  1
  Ir  Ir6_6  1  0.50000000  0.64886369  0.06032059  1
  Ir  Ir6_7  1  0.50000000  0.64886369  0.56032059  1
  Ir  Ir7_0  1  0.00000000  0.36326000  0.05972734  1
  Ir  Ir7_1  1  0.00000000  0.36326000  0.55972734  1
  Ir  Ir7_2  1  0.00000000  0.86326000  0.05972734  1
  Ir  Ir7_3  1  0.00000000  0.86326000  0.55972734  1
  Ir  Ir7_4  1  0.50000000  0.36326000  0.05972734  1
  Ir  Ir7_5  1  0.50000000  0.36326000  0.55972734  1
  Ir  Ir7_6  1  0.50000000  0.86326000  0.05972734  1
  Ir  Ir7_7  1  0.50000000  0.86326000  0.55972734  1
  Ir  Ir8_0  1  0.00000000  0.36326000  0.44027266  1
  Ir  Ir8_1  1  0.00000000  0.36326000  0.94027266  1
  Ir  Ir8_2  1  0.00000000  0.86326000  0.44027266  1
  Ir  Ir8_3  1  0.00000000  0.86326000  0.94027266  1
  Ir  Ir8_4  1  0.50000000  0.36326000  0.44027266  1
  Ir  Ir8_5  1  0.50000000  0.36326000  0.94027266  1
  Ir  Ir8_6  1  0.50000000  0.86326000  0.44027266  1
  Ir  Ir8_7  1  0.50000000  0.86326000  0.94027266  1
  Ir  Ir9_0  1  0.00000000  0.14886368  0.43967942  1
  Ir  Ir9_1  1  0.00000000  0.14886368  0.93967941  1
  Ir  Ir9_2  1  0.00000000  0.64886369  0.43967942  1
  Ir  Ir9_3  1  0.00000000  0.64886369  0.93967941  1
  Ir  Ir9_4  1  0.50000000  0.14886368  0.43967942  1
  Ir  Ir9_5  1  0.50000000  0.14886368  0.93967941  1
  Ir  Ir9_6  1  0.50000000  0.64886369  0.43967942  1
  Ir  Ir9_7  1  0.50000000  0.64886369  0.93967941  1
  Ir  Ir10_0  1  0.00000000  0.00074354  0.00000000  1
  Ir  Ir10_1  1  0.00000000  0.00074354  0.50000000  1
  Ir  Ir10_2  1  0.00000000  0.50074354  0.00000000  1
  Ir  Ir10_3  1  0.00000000  0.50074354  0.50000000  1
  Ir  Ir10_4  1  0.50000000  0.00074354  0.00000000  1
  Ir  Ir10_5  1  0.50000000  0.00074354  0.50000000  1
  Ir  Ir10_6  1  0.50000000  0.50074354  0.00000000  1
  Ir  Ir10_7  1  0.50000000  0.50074354  0.50000000  1
loop_
_geom_bond_atom_site_label_1
_geom_bond_atom_site_label_2
_geom_bond_distance
_geom_bond_site_symmetry_2
Zn0_0 Zn1_0 2.522016 1_555
Zn0_0 Zn0_4 2.875648 1_455
Zn0_0 Zn0_4 2.875648 1_555
Zn0_0 Zn2_0 2.908712 1_555
Zn0_1 Zn1_1 2.522016 1_555
Zn0_1 Zn0_5 2.875648 1_555
Zn0_1 Zn0_5 2.875648 1_455
Zn0_1 Zn2_1 2.908712 1_555
Zn0_2 Zn1_2 2.522016 1_555
Zn0_2 Zn0_6 2.875648 1_455
Zn0_2 Zn0_6 2.875648 1_555
Zn0_2 Zn2_2 2.908712 1_555
Zn0_3 Zn1_3 2.522016 1_555
Zn0_3 Zn0_7 2.875648 1_555
Zn0_3 Zn0_7 2.875648 1_455
Zn0_3 Zn2_3 2.908712 1_555
Zn0_4 Zn1_4 2.522016 1_555
Zn0_4 Zn2_4 2.908712 1_555
Zn0_5 Zn1_5 2.522016 1_555
Zn0_5 Zn2_5 2.908712 1_555
Zn0_6 Zn1_6 2.522016 1_555
Zn0_6 Zn2_6 2.908712 1_555
Zn0_7 Zn1_7 2.522016 1_555
Zn0_7 Zn2_7 2.908712 1_555
B0_0 Ir2_0 2.135358 1_555
B0_0 Ir2_4 2.135358 1_555
B0_0 Ir6_0 2.193021 1_555
B0_0 Ir6_4 2.193021 1_555
B0_0 Ir0_4 2.194114 1_555
B0_0 Ir0_0 2.194114 1_555
B0_0 Zn0_0 2.648361 1_555
B0_1 Ir2_1 2.135358 1_555
B0_1 Ir2_5 2.135358 1_555
B0_1 Ir6_1 2.193021 1_555
B0_1 Ir6_5 2.193021 1_555
B0_1 Ir0_1 2.194114 1_555
B0_1 Ir0_5 2.194114 1_555
B0_1 Zn0_1 2.648361 1_555
B0_2 Ir2_6 2.135358 1_555
B0_2 Ir2_2 2.135358 1_555
B0_2 Ir6_2 2.193021 1_555
B0_2 Ir6_6 2.193021 1_555
B0_2 Ir0_2 2.194114 1_555
B0_2 Ir0_6 2.194114 1_555
B0_2 Zn0_2 2.648361 1_555
B0_3 Ir2_3 2.135358 1_555
B0_3 Ir2_7 2.135358 1_555
B0_3 Ir6_3 2.193021 1_555
B0_3 Ir6_7 2.193021 1_555
B0_3 Ir0_7 2.194114 1_555
B0_3 Ir0_3 2.194114 1_555
B0_3 Zn0_3 2.648361 1_555
B0_4 Ir2_0 2.135358 1_655
B0_4 Ir2_4 2.135358 1_555
B0_4 Ir6_0 2.193021 1_655
B0_4 Ir6_4 2.193021 1_555
B0_4 Ir0_0 2.194114 1_655
B0_4 Ir0_4 2.194114 1_555
B0_4 Zn0_4 2.648361 1_555
B0_5 Ir2_5 2.135358 1_555
B0_5 Ir2_1 2.135358 1_655
B0_5 Ir6_1 2.193021 1_655
B0_5 Ir6_5 2.193021 1_555
B0_5 Ir0_1 2.194114 1_655
B0_5 Ir0_5 2.194114 1_555
B0_5 Zn0_5 2.648361 1_555
B0_6 Ir2_6 2.135358 1_555
B0_6 Ir2_2 2.135358 1_655
B0_6 Ir6_6 2.193021 1_555
B0_6 Ir6_2 2.193021 1_655
B0_6 Ir0_2 2.194114 1_655
B0_6 Ir0_6 2.194114 1_555
B0_6 Zn0_6 2.648361 1_555
B0_7 Ir2_7 2.135358 1_555
B0_7 Ir2_3 2.135358 1_655
B0_7 Ir6_7 2.193021 1_555
B0_7 Ir6_3 2.193021 1_655
B0_7 Ir0_7 2.194114 1_555
B0_7 Ir0_3 2.194114 1_655
B0_7 Zn0_7 2.648361 1_555
B1_0 Ir7_0 2.143543 1_555
B1_0 Ir7_4 2.143543 1_555
B1_0 Ir3_0 2.183236 1_555
B1_0 Ir3_4 2.183236 1_555
B1_0 Ir0_0 2.238663 1_555
B1_0 Ir0_4 2.238663 1_555
B1_0 Zn4_0 2.633083 1_555
B1_1 Ir7_1 2.143543 1_555
B1_1 Ir7_5 2.143543 1_555
B1_1 Ir3_1 2.183236 1_555
B1_1 Ir3_5 2.183236 1_555
B1_1 Ir0_1 2.238663 1_555
B1_1 Ir0_5 2.238663 1_555
B1_1 Zn4_1 2.633083 1_555
B1_2 Ir7_2 2.143543 1_555
B1_2 Ir7_6 2.143543 1_555
B1_2 Ir3_2 2.183236 1_555
B1_2 Ir3_6 2.183236 1_555
B1_2 Ir0_6 2.238663 1_555
B1_2 Ir0_2 2.238663 1_555
B1_2 Zn4_2 2.633083 1_555
B1_3 Ir7_3 2.143543 1_555
B1_3 Ir7_7 2.143543 1_555
B1_3 Ir3_7 2.183236 1_555
B1_3 Ir3_3 2.183236 1_555
B1_3 Ir0_7 2.238663 1_555
B1_3 Ir0_3 2.238663 1_555
B1_3 Zn4_3 2.633083 1_555
B1_4 Ir7_0 2.143543 1_655
B1_4 Ir7_4 2.143543 1_555
B1_4 Ir3_0 2.183236 1_655
B1_4 Ir3_4 2.183236 1_555
B1_4 Ir0_0 2.238663 1_655
B1_4 Ir0_4 2.238663 1_555
B1_4 Zn4_4 2.633083 1_555
B1_5 Ir7_1 2.143543 1_655
B1_5 Ir7_5 2.143543 1_555
B1_5 Ir3_1 2.183236 1_655
B1_5 Ir3_5 2.183236 1_555
B1_5 Ir0_1 2.238663 1_655
B1_5 Ir0_5 2.238663 1_555
B1_5 Zn4_5 2.633083 1_555
B1_6 Ir7_2 2.143543 1_655
B1_6 Ir7_6 2.143543 1_555
B1_6 Ir3_6 2.183236 1_555
B1_6 Ir3_2 2.183236 1_655
B1_6 Ir0_6 2.238663 1_555
B1_6 Ir0_2 2.238663 1_655
B1_6 Zn4_6 2.633083 1_555
B1_7 Ir7_3 2.143543 1_655
B1_7 Ir7_7 2.143543 1_555
B1_7 Ir3_7 2.183236 1_555
B1_7 Ir3_3 2.183236 1_655
B1_7 Ir0_3 2.238663 1_655
B1_7 Ir0_7 2.238663 1_555
B1_7 Zn4_7 2.633083 1_555
B2_0 Ir8_0 2.143543 1_555
B2_0 Ir8_4 2.143543 1_555
B2_0 Ir4_4 2.183236 1_555
B2_0 Ir4_0 2.183236 1_555
B2_0 Ir1_0 2.238663 1_555
B2_0 Ir1_4 2.238663 1_555
B2_0 Zn5_0 2.633083 1_555
B2_1 Ir8_1 2.143543 1_555
B2_1 Ir8_5 2.143543 1_555
B2_1 Ir4_5 2.183236 1_555
B2_1 Ir4_1 2.183236 1_555
B2_1 Ir1_5 2.238663 1_555
B2_1 Ir1_1 2.238663 1_555
B2_1 Zn5_1 2.633083 1_555
B2_2 Ir8_2 2.143543 1_555
B2_2 Ir8_6 2.143543 1_555
B2_2 Ir4_6 2.183236 1_555
B2_2 Ir4_2 2.183236 1_555
B2_2 Ir1_6 2.238663 1_555
B2_2 Ir1_2 2.238663 1_555
B2_2 Zn5_2 2.633083 1_555
B2_3 Ir8_7 2.143543 1_555
B2_3 Ir8_3 2.143543 1_555
B2_3 Ir4_3 2.183236 1_555
B2_3 Ir4_7 2.183236 1_555
B2_3 Ir1_7 2.238663 1_555
B2_3 Ir1_3 2.238663 1_555
B2_3 Zn5_3 2.633083 1_555
B2_4 Ir8_0 2.143543 1_655
B2_4 Ir8_4 2.143543 1_555
B2_4 Ir4_4 2.183236 1_555
B2_4 Ir4_0 2.183236 1_655
B2_4 Ir1_0 2.238663 1_655
B2_4 Ir1_4 2.238663 1_555
B2_4 Zn5_4 2.633083 1_555
B2_5 Ir8_1 2.143543 1_655
B2_5 Ir8_5 2.143543 1_555
B2_5 Ir4_1 2.183236 1_655
B2_5 Ir4_5 2.183236 1_555
B2_5 Ir1_5 2.238663 1_555
B2_5 Ir1_1 2.238663 1_655
B2_5 Zn5_5 2.633083 1_555
B2_6 Ir8_2 2.143543 1_655
B2_6 Ir8_6 2.143543 1_555
B2_6 Ir4_6 2.183236 1_555
B2_6 Ir4_2 2.183236 1_655
B2_6 Ir1_6 2.238663 1_555
B2_6 Ir1_2 2.238663 1_655
B2_6 Zn5_6 2.633083 1_555
B2_7 Ir8_3 2.143543 1_655
B2_7 Ir8_7 2.143543 1_555
B2_7 Ir4_3 2.183236 1_655
B2_7 Ir4_7 2.183236 1_555
B2_7 Ir1_7 2.238663 1_555
B2_7 Ir1_3 2.238663 1_655
B2_7 Zn5_7 2.633083 1_555
B3_0 Ir5_4 2.135358 1_555
B3_0 Ir5_0 2.135358 1_555
B3_0 Ir9_0 2.193021 1_555
B3_0 Ir9_4 2.193021 1_555
B3_0 Ir1_0 2.194114 1_555
B3_0 Ir1_4 2.194114 1_555
B3_0 Zn0_0 2.648361 1_555
B3_1 Ir5_5 2.135358 1_555
B3_1 Ir5_1 2.135358 1_555
B3_1 Ir9_5 2.193021 1_555
B3_1 Ir9_1 2.193021 1_555
B3_1 Ir1_1 2.194114 1_555
B3_1 Ir1_5 2.194114 1_555
B3_1 Zn0_1 2.648361 1_555
B3_2 Ir5_6 2.135358 1_555
B3_2 Ir5_2 2.135358 1_555
B3_2 Ir9_6 2.193021 1_555
B3_2 Ir9_2 2.193021 1_555
B3_2 Ir1_2 2.194114 1_555
B3_2 Ir1_6 2.194114 1_555
B3_2 Zn0_2 2.648361 1_555
B3_3 Ir5_3 2.135358 1_555
B3_3 Ir5_7 2.135358 1_555
B3_3 Ir9_3 2.193021 1_555
B3_3 Ir9_7 2.193021 1_555
B3_3 Ir1_7 2.194114 1_555
B3_3 Ir1_3 2.194114 1_555
B3_3 Zn0_3 2.648361 1_555
B3_4 Ir5_0 2.135358 1_655
B3_4 Ir5_4 2.135358 1_555
B3_4 Ir9_0 2.193021 1_655
B3_4 Ir9_4 2.193021 1_555
B3_4 Ir1_0 2.194114 1_655
B3_4 Ir1_4 2.194114 1_555
B3_4 Zn0_4 2.648361 1_555
B3_5 Ir5_1 2.135358 1_655
B3_5 Ir5_5 2.135358 1_555
B3_5 Ir9_1 2.193021 1_655
B3_5 Ir9_5 2.193021 1_555
B3_5 Ir1_1 2.194114 1_655
B3_5 Ir1_5 2.194114 1_555
B3_5 Zn0_5 2.648361 1_555
B3_6 Ir5_6 2.135358 1_555
B3_6 Ir5_2 2.135358 1_655
B3_6 Ir9_6 2.193021 1_555
B3_6 Ir9_2 2.193021 1_655
B3_6 Ir1_2 2.194114 1_655
B3_6 Ir1_6 2.194114 1_555
B3_6 Zn0_6 2.648361 1_555
B3_7 Ir5_7 2.135358 1_555
B3_7 Ir5_3 2.135358 1_655
B3_7 Ir9_3 2.193021 1_655
B3_7 Ir9_7 2.193021 1_555
B3_7 Ir1_7 2.194114 1_555
B3_7 Ir1_3 2.194114 1_655
B3_7 Zn0_7 2.648361 1_555
B4_0 Ir10_4 2.090148 1_555
B4_0 Ir10_0 2.090148 1_555
B4_0 Ir9_1 2.214938 1_554
B4_0 Ir6_0 2.214938 1_555
B4_0 Ir9_5 2.214938 1_554
B4_0 Ir6_4 2.214938 1_555
B4_1 Ir10_1 2.090148 1_555
B4_1 Ir10_5 2.090148 1_555
B4_1 Ir9_0 2.214938 1_555
B4_1 Ir9_4 2.214938 1_555
B4_1 Ir6_1 2.214938 1_555
B4_1 Ir6_5 2.214938 1_555
B4_2 Ir10_6 2.090148 1_555
B4_2 Ir10_2 2.090148 1_555
B4_2 Ir6_2 2.214938 1_555
B4_2 Ir6_6 2.214938 1_555
B4_2 Ir9_3 2.214938 1_554
B4_2 Ir9_7 2.214938 1_554
B4_3 Ir10_3 2.090148 1_555
B4_3 Ir10_7 2.090148 1_555
B4_3 Ir9_6 2.214938 1_555
B4_3 Ir9_2 2.214938 1_555
B4_3 Ir6_7 2.214938 1_555
B4_3 Ir6_3 2.214938 1_555
B4_4 Ir10_4 2.090148 1_555
B4_4 Ir10_0 2.090148 1_655
B4_4 Ir9_5 2.214938 1_554
B4_4 Ir6_4 2.214938 1_555
B4_4 Ir9_1 2.214938 1_654
B4_4 Ir6_0 2.214938 1_655
B4_5 Ir10_5 2.090148 1_555
B4_5 Ir10_1 2.090148 1_655
B4_5 Ir9_0 2.214938 1_655
B4_5 Ir9_4 2.214938 1_555
B4_5 Ir6_1 2.214938 1_655
B4_5 Ir6_5 2.214938 1_555
B4_6 Ir10_6 2.090148 1_555
B4_6 Ir10_2 2.090148 1_655
B4_6 Ir6_6 2.214938 1_555
B4_6 Ir6_2 2.214938 1_655
B4_6 Ir9_7 2.214938 1_554
B4_6 Ir9_3 2.214938 1_654
B4_7 Ir10_7 2.090148 1_555
B4_7 Ir10_3 2.090148 1_655
B4_7 Ir9_6 2.214938 1_555
B4_7 Ir9_2 2.214938 1_655
B4_7 Ir6_7 2.214938 1_555
B4_7 Ir6_3 2.214938 1_655
Ir0_0 Zn1_4 2.777904 1_455
Ir0_0 Zn1_0 2.777904 1_555
Ir0_0 Zn0_0 2.830053 1_555
Ir0_0 Zn0_4 2.830053 1_455
Ir0_1 Zn1_1 2.777904 1_555
Ir0_1 Zn1_5 2.777904 1_455
Ir0_1 Zn0_1 2.830053 1_555
Ir0_1 Zn0_5 2.830053 1_455
Ir0_2 Zn1_6 2.777904 1_455
Ir0_2 Zn1_2 2.777904 1_555
Ir0_2 Zn0_2 2.830053 1_555
Ir0_2 Zn0_6 2.830053 1_455
Ir0_3 Zn1_7 2.777904 1_455
Ir0_3 Zn1_3 2.777904 1_555
Ir0_3 Zn0_3 2.830053 1_555
Ir0_3 Zn0_7 2.830053 1_455
Ir0_4 Zn1_0 2.777904 1_555
Ir0_4 Zn1_4 2.777904 1_555
Ir0_4 Zn0_0 2.830053 1_555
Ir0_4 Zn0_4 2.830053 1_555
Ir0_5 Zn1_1 2.777904 1_555
Ir0_5 Zn1_5 2.777904 1_555
Ir0_5 Zn0_1 2.830053 1_555
Ir0_5 Zn0_5 2.830053 1_555
Ir0_6 Zn1_6 2.777904 1_555
Ir0_6 Zn1_2 2.777904 1_555
Ir0_6 Zn0_6 2.830053 1_555
Ir0_6 Zn0_2 2.830053 1_555
Ir0_7 Zn1_3 2.777904 1_555
Ir0_7 Zn1_7 2.777904 1_555
Ir0_7 Zn0_3 2.830053 1_555
Ir0_7 Zn0_7 2.830053 1_555
Ir1_0 Zn1_0 2.777904 1_555
Ir1_0 Zn1_4 2.777904 1_455
Ir1_0 Zn0_0 2.830053 1_555
Ir1_0 Zn0_4 2.830053 1_455
Ir1_1 Zn1_5 2.777904 1_455
Ir1_1 Zn1_1 2.777904 1_555
Ir1_1 Zn0_5 2.830053 1_455
Ir1_1 Zn0_1 2.830053 1_555
Ir1_2 Zn1_6 2.777904 1_455
Ir1_2 Zn1_2 2.777904 1_555
Ir1_2 Zn0_2 2.830053 1_555
Ir1_2 Zn0_6 2.830053 1_455
Ir1_3 Zn1_3 2.777904 1_555
Ir1_3 Zn1_7 2.777904 1_455
Ir1_3 Zn0_3 2.830053 1_555
Ir1_3 Zn0_7 2.830053 1_455
Ir1_4 Zn1_0 2.777904 1_555
Ir1_4 Zn1_4 2.777904 1_555
Ir1_4 Zn0_0 2.830053 1_555
Ir1_4 Zn0_4 2.830053 1_555
Ir1_5 Zn1_1 2.777904 1_555
Ir1_5 Zn1_5 2.777904 1_555
Ir1_5 Zn0_1 2.830053 1_555
Ir1_5 Zn0_5 2.830053 1_555
Ir1_6 Zn1_6 2.777904 1_555
Ir1_6 Zn1_2 2.777904 1_555
Ir1_6 Zn0_2 2.830053 1_555
Ir1_6 Zn0_6 2.830053 1_555
Ir1_7 Zn1_3 2.777904 1_555
Ir1_7 Zn1_7 2.777904 1_555
Ir1_7 Zn0_7 2.830053 1_555
Ir1_7 Zn0_3 2.830053 1_555
Ir2_0 Zn2_0 2.633588 1_555
Ir2_0 Zn2_4 2.633588 1_455
Ir2_0 Zn0_0 2.679880 1_555
Ir2_0 Zn0_4 2.679880 1_455
Ir2_0 Zn4_2 2.695074 1_545
Ir2_0 Zn4_6 2.695074 1_445
Ir2_1 Zn2_1 2.633588 1_555
Ir2_1 Zn2_5 2.633588 1_455
Ir2_1 Zn0_5 2.679880 1_455
Ir2_1 Zn0_1 2.679880 1_555
Ir2_1 Zn4_3 2.695074 1_545
Ir2_1 Zn4_7 2.695074 1_445
Ir2_2 Zn2_2 2.633588 1_555
Ir2_2 Zn2_6 2.633588 1_455
Ir2_2 Zn0_6 2.679880 1_455
Ir2_2 Zn0_2 2.679880 1_555
Ir2_2 Zn4_0 2.695074 1_555
Ir2_2 Zn4_4 2.695074 1_455
Ir2_3 Zn2_3 2.633588 1_555
Ir2_3 Zn2_7 2.633588 1_455
Ir2_3 Zn0_7 2.679880 1_455
Ir2_3 Zn0_3 2.679880 1_555
Ir2_3 Zn4_5 2.695074 1_455
Ir2_3 Zn4_1 2.695074 1_555
Ir2_4 Zn2_0 2.633588 1_555
Ir2_4 Zn2_4 2.633588 1_555
Ir2_4 Zn0_0 2.679880 1_555
Ir2_4 Zn0_4 2.679880 1_555
Ir2_4 Zn4_2 2.695074 1_545
Ir2_4 Zn4_6 2.695074 1_545
Ir2_5 Zn2_1 2.633588 1_555
Ir2_5 Zn2_5 2.633588 1_555
Ir2_5 Zn0_5 2.679880 1_555
Ir2_5 Zn0_1 2.679880 1_555
Ir2_5 Zn4_7 2.695074 1_545
Ir2_5 Zn4_3 2.695074 1_545
Ir2_6 Zn2_6 2.633588 1_555
Ir2_6 Zn2_2 2.633588 1_555
Ir2_6 Zn0_6 2.679880 1_555
Ir2_6 Zn0_2 2.679880 1_555
Ir2_6 Zn4_0 2.695074 1_555
Ir2_6 Zn4_4 2.695074 1_555
Ir2_7 Zn2_3 2.633588 1_555
Ir2_7 Zn2_7 2.633588 1_555
Ir2_7 Zn0_3 2.679880 1_555
Ir2_7 Zn0_7 2.679880 1_555
Ir2_7 Zn4_1 2.695074 1_555
Ir2_7 Zn4_5 2.695074 1_555
Ir3_0 Zn2_6 2.619646 1_455
Ir3_0 Zn2_2 2.619646 1_555
Ir3_0 Zn1_0 2.645993 1_555
Ir3_0 Zn1_4 2.645993 1_455
Ir3_0 Zn4_0 2.676085 1_555
Ir3_0 Zn4_4 2.676085 1_455
Ir3_1 Zn2_3 2.619646 1_555
Ir3_1 Zn2_7 2.619646 1_455
Ir3_1 Zn1_1 2.645993 1_555
Ir3_1 Zn1_5 2.645993 1_455
Ir3_1 Zn4_5 2.676085 1_455
Ir3_1 Zn4_1 2.676085 1_555
Ir3_2 Zn2_0 2.619646 1_565
Ir3_2 Zn2_4 2.619646 1_465
Ir3_2 Zn1_2 2.645993 1_555
Ir3_2 Zn1_6 2.645993 1_455
Ir3_2 Zn4_2 2.676085 1_555
Ir3_2 Zn4_6 2.676085 1_455
Ir3_3 Zn2_1 2.619646 1_565
Ir3_3 Zn2_5 2.619646 1_465
Ir3_3 Zn1_7 2.645993 1_455
Ir3_3 Zn1_3 2.645993 1_555
Ir3_3 Zn4_3 2.676085 1_555
Ir3_3 Zn4_7 2.676085 1_455
Ir3_4 Zn2_6 2.619646 1_555
Ir3_4 Zn2_2 2.619646 1_555
Ir3_4 Zn1_0 2.645993 1_555
Ir3_4 Zn1_4 2.645993 1_555
Ir3_4 Zn4_0 2.676085 1_555
Ir3_4 Zn4_4 2.676085 1_555
Ir3_5 Zn2_3 2.619646 1_555
Ir3_5 Zn2_7 2.619646 1_555
Ir3_5 Zn1_1 2.645993 1_555
Ir3_5 Zn1_5 2.645993 1_555
Ir3_5 Zn4_5 2.676085 1_555
Ir3_5 Zn4_1 2.676085 1_555
Ir3_6 Zn2_4 2.619646 1_565
Ir3_6 Zn2_0 2.619646 1_565
Ir3_6 Zn1_2 2.645993 1_555
Ir3_6 Zn1_6 2.645993 1_555
Ir3_6 Zn4_2 2.676085 1_555
Ir3_6 Zn4_6 2.676085 1_555
Ir3_7 Zn2_5 2.619646 1_565
Ir3_7 Zn2_1 2.619646 1_565
Ir3_7 Zn1_7 2.645993 1_555
Ir3_7 Zn1_3 2.645993 1_555
Ir3_7 Zn4_3 2.676085 1_555
Ir3_7 Zn4_7 2.676085 1_555
Ir4_0 Zn2_2 2.619646 1_555
Ir4_0 Zn2_6 2.619646 1_455
Ir4_0 Zn1_4 2.645993 1_455
Ir4_0 Zn1_0 2.645993 1_555
Ir4_0 Zn5_4 2.676085 1_455
Ir4_0 Zn5_0 2.676085 1_555
Ir4_1 Zn2_3 2.619646 1_555
Ir4_1 Zn2_7 2.619646 1_455
Ir4_1 Zn1_1 2.645993 1_555
Ir4_1 Zn1_5 2.645993 1_455
Ir4_1 Zn5_5 2.676085 1_455
Ir4_1 Zn5_1 2.676085 1_555
Ir4_2 Zn2_4 2.619646 1_465
Ir4_2 Zn2_0 2.619646 1_565
Ir4_2 Zn1_2 2.645993 1_555
Ir4_2 Zn1_6 2.645993 1_455
Ir4_2 Zn5_6 2.676085 1_455
Ir4_2 Zn5_2 2.676085 1_555
Ir4_3 Zn2_1 2.619646 1_565
Ir4_3 Zn2_5 2.619646 1_465
Ir4_3 Zn1_7 2.645993 1_455
Ir4_3 Zn1_3 2.645993 1_555
Ir4_3 Zn5_7 2.676085 1_455
Ir4_3 Zn5_3 2.676085 1_555
Ir4_4 Zn2_6 2.619646 1_555
Ir4_4 Zn2_2 2.619646 1_555
Ir4_4 Zn1_4 2.645993 1_555
Ir4_4 Zn1_0 2.645993 1_555
Ir4_4 Zn5_4 2.676085 1_555
Ir4_4 Zn5_0 2.676085 1_555
Ir4_5 Zn2_3 2.619646 1_555
Ir4_5 Zn2_7 2.619646 1_555
Ir4_5 Zn1_1 2.645993 1_555
Ir4_5 Zn1_5 2.645993 1_555
Ir4_5 Zn5_1 2.676085 1_555
Ir4_5 Zn5_5 2.676085 1_555
Ir4_6 Zn2_4 2.619646 1_565
Ir4_6 Zn2_0 2.619646 1_565
Ir4_6 Zn1_2 2.645993 1_555
Ir4_6 Zn1_6 2.645993 1_555
Ir4_6 Zn5_2 2.676085 1_555
Ir4_6 Zn5_6 2.676085 1_555
Ir4_7 Zn2_5 2.619646 1_565
Ir4_7 Zn2_1 2.619646 1_565
Ir4_7 Zn1_7 2.645993 1_555
Ir4_7 Zn1_3 2.645993 1_555
Ir4_7 Zn5_3 2.676085 1_555
Ir4_7 Zn5_7 2.676085 1_555
Ir5_0 Zn2_0 2.633588 1_555
Ir5_0 Zn2_4 2.633588 1_455
Ir5_0 Zn0_0 2.679880 1_555
Ir5_0 Zn0_4 2.679880 1_455
Ir5_0 Zn5_2 2.695074 1_545
Ir5_0 Zn5_6 2.695074 1_445
Ir5_1 Zn2_1 2.633588 1_555
Ir5_1 Zn2_5 2.633588 1_455
Ir5_1 Zn0_1 2.679880 1_555
Ir5_1 Zn0_5 2.679880 1_455
Ir5_1 Zn5_7 2.695074 1_445
Ir5_1 Zn5_3 2.695074 1_545
Ir5_2 Zn2_2 2.633588 1_555
Ir5_2 Zn2_6 2.633588 1_455
Ir5_2 Zn0_6 2.679880 1_455
Ir5_2 Zn0_2 2.679880 1_555
Ir5_2 Zn5_0 2.695074 1_555
Ir5_2 Zn5_4 2.695074 1_455
Ir5_3 Zn2_3 2.633588 1_555
Ir5_3 Zn2_7 2.633588 1_455
Ir5_3 Zn0_3 2.679880 1_555
Ir5_3 Zn0_7 2.679880 1_455
Ir5_3 Zn5_5 2.695074 1_455
Ir5_3 Zn5_1 2.695074 1_555
Ir5_4 Zn2_0 2.633588 1_555
Ir5_4 Zn2_4 2.633588 1_555
Ir5_4 Zn0_0 2.679880 1_555
Ir5_4 Zn0_4 2.679880 1_555
Ir5_4 Zn5_2 2.695074 1_545
Ir5_4 Zn5_6 2.695074 1_545
Ir5_5 Zn2_5 2.633588 1_555
Ir5_5 Zn2_1 2.633588 1_555
Ir5_5 Zn0_1 2.679880 1_555
Ir5_5 Zn0_5 2.679880 1_555
Ir5_5 Zn5_7 2.695074 1_545
Ir5_5 Zn5_3 2.695074 1_545
Ir5_6 Zn2_6 2.633588 1_555
Ir5_6 Zn2_2 2.633588 1_555
Ir5_6 Zn0_6 2.679880 1_555
Ir5_6 Zn0_2 2.679880 1_555
Ir5_6 Zn5_0 2.695074 1_555
Ir5_6 Zn5_4 2.695074 1_555
Ir5_7 Zn2_3 2.633588 1_555
Ir5_7 Zn2_7 2.633588 1_555
Ir5_7 Zn0_7 2.679880 1_555
Ir5_7 Zn0_3 2.679880 1_555
Ir5_7 Zn5_1 2.695074 1_555
Ir5_7 Zn5_5 2.695074 1_555
Ir6_0 Zn3_0 2.707272 1_555
Ir6_0 Zn3_4 2.707272 1_455
Ir6_1 Zn3_1 2.707272 1_555
Ir6_1 Zn3_5 2.707272 1_455
Ir6_2 Zn3_6 2.707272 1_455
Ir6_2 Zn3_2 2.707272 1_555
Ir6_3 Zn3_3 2.707272 1_555
Ir6_3 Zn3_7 2.707272 1_455
Ir6_4 Zn3_4 2.707272 1_555
Ir6_4 Zn3_0 2.707272 1_555
Ir6_5 Zn3_5 2.707272 1_555
Ir6_5 Zn3_1 2.707272 1_555
Ir6_6 Zn3_6 2.707272 1_555
Ir6_6 Zn3_2 2.707272 1_555
Ir6_7 Zn3_3 2.707272 1_555
Ir6_7 Zn3_7 2.707272 1_555
Ir7_0 Zn3_0 2.659369 1_555
Ir7_0 Zn3_4 2.659369 1_455
Ir7_0 Zn4_0 2.784181 1_555
Ir7_0 Zn4_4 2.784181 1_455
Ir7_1 Zn3_1 2.659369 1_555
Ir7_1 Zn3_5 2.659369 1_455
Ir7_1 Zn4_5 2.784181 1_455
Ir7_1 Zn4_1 2.784181 1_555
Ir7_2 Zn3_6 2.659369 1_455
Ir7_2 Zn3_2 2.659369 1_555
Ir7_2 Zn4_2 2.784181 1_555
Ir7_2 Zn4_6 2.784181 1_455
Ir7_3 Zn3_3 2.659369 1_555
Ir7_3 Zn3_7 2.659369 1_455
Ir7_3 Zn4_3 2.784181 1_555
Ir7_3 Zn4_7 2.784181 1_455
Ir7_4 Zn3_0 2.659369 1_555
Ir7_4 Zn3_4 2.659369 1_555
Ir7_4 Zn4_0 2.784181 1_555
Ir7_4 Zn4_4 2.784181 1_555
Ir7_5 Zn3_1 2.659369 1_555
Ir7_5 Zn3_5 2.659369 1_555
Ir7_5 Zn4_1 2.784181 1_555
Ir7_5 Zn4_5 2.784181 1_555
Ir7_6 Zn3_6 2.659369 1_555
Ir7_6 Zn3_2 2.659369 1_555
Ir7_6 Zn4_2 2.784181 1_555
Ir7_6 Zn4_6 2.784181 1_555
Ir7_7 Zn3_3 2.659369 1_555
Ir7_7 Zn3_7 2.659369 1_555
Ir7_7 Zn4_3 2.784181 1_555
Ir7_7 Zn4_7 2.784181 1_555
Ir8_0 Zn3_1 2.659369 1_555
Ir8_0 Zn3_5 2.659369 1_455
Ir8_0 Zn5_0 2.784181 1_555
Ir8_0 Zn5_4 2.784181 1_455
Ir8_1 Zn3_0 2.659369 1_556
Ir8_1 Zn3_4 2.659369 1_456
Ir8_1 Zn5_5 2.784181 1_455
Ir8_1 Zn5_1 2.784181 1_555
Ir8_2 Zn3_3 2.659369 1_555
Ir8_2 Zn3_7 2.659369 1_455
Ir8_2 Zn5_2 2.784181 1_555
Ir8_2 Zn5_6 2.784181 1_455
Ir8_3 Zn3_2 2.659369 1_556
Ir8_3 Zn3_6 2.659369 1_456
Ir8_3 Zn5_3 2.784181 1_555
Ir8_3 Zn5_7 2.784181 1_455
Ir8_4 Zn3_1 2.659369 1_555
Ir8_4 Zn3_5 2.659369 1_555
Ir8_4 Zn5_0 2.784181 1_555
Ir8_4 Zn5_4 2.784181 1_555
Ir8_5 Zn3_0 2.659369 1_556
Ir8_5 Zn3_4 2.659369 1_556
Ir8_5 Zn5_1 2.784181 1_555
Ir8_5 Zn5_5 2.784181 1_555
Ir8_6 Zn3_3 2.659369 1_555
Ir8_6 Zn3_7 2.659369 1_555
Ir8_6 Zn5_2 2.784181 1_555
Ir8_6 Zn5_6 2.784181 1_555
Ir8_7 Zn3_2 2.659369 1_556
Ir8_7 Zn3_6 2.659369 1_556
Ir8_7 Zn5_3 2.784181 1_555
Ir8_7 Zn5_7 2.784181 1_555
Ir9_0 Zn3_1 2.707272 1_555
Ir9_0 Zn3_5 2.707272 1_455
Ir9_1 Zn3_4 2.707272 1_456
Ir9_1 Zn3_0 2.707272 1_556
Ir9_2 Zn3_3 2.707272 1_555
Ir9_2 Zn3_7 2.707272 1_455
Ir9_3 Zn3_6 2.707272 1_456
Ir9_3 Zn3_2 2.707272 1_556
Ir9_4 Zn3_1 2.707272 1_555
Ir9_4 Zn3_5 2.707272 1_555
Ir9_5 Zn3_0 2.707272 1_556
Ir9_5 Zn3_4 2.707272 1_556
Ir9_6 Zn3_3 2.707272 1_555
Ir9_6 Zn3_7 2.707272 1_555
Ir9_7 Zn3_6 2.707272 1_556
Ir9_7 Zn3_2 2.707272 1_556
Ir10_0 Zn4_6 2.682549 1_445
Ir10_0 Zn4_2 2.682549 1_545
Ir10_0 Zn5_7 2.682549 1_444
Ir10_0 Zn5_3 2.682549 1_544
Ir10_1 Zn4_7 2.682549 1_445
Ir10_1 Zn4_3 2.682549 1_545
Ir10_1 Zn5_2 2.682549 1_545
Ir10_1 Zn5_6 2.682549 1_445
Ir10_2 Zn4_0 2.682549 1_555
Ir10_2 Zn4_4 2.682549 1_455
Ir10_2 Zn5_1 2.682549 1_554
Ir10_2 Zn5_5 2.682549 1_454
Ir10_3 Zn5_0 2.682549 1_555
Ir10_3 Zn4_5 2.682549 1_455
Ir10_3 Zn4_1 2.682549 1_555
Ir10_3 Zn5_4 2.682549 1_455
Ir10_4 Zn4_6 2.682549 1_545
Ir10_4 Zn4_2 2.682549 1_545
Ir10_4 Zn5_3 2.682549 1_544
Ir10_4 Zn5_7 2.682549 1_544
Ir10_5 Zn4_7 2.682549 1_545
Ir10_5 Zn4_3 2.682549 1_545
Ir10_5 Zn5_2 2.682549 1_545
Ir10_5 Zn5_6 2.682549 1_545
Ir10_6 Zn4_0 2.682549 1_555
Ir10_6 Zn4_4 2.682549 1_555
Ir10_6 Zn5_1 2.682549 1_554
Ir10_6 Zn5_5 2.682549 1_554
Ir10_7 Zn5_0 2.682549 1_555
Ir10_7 Zn4_1 2.682549 1_555
Ir10_7 Zn5_4 2.682549 1_555
Ir10_7 Zn4_5 2.682549 1_555
