# generated using pymatgen
data_Nb4Te3N2
_symmetry_space_group_name_H-M   'P 1'
_cell_length_a   5.79920500
_cell_length_b   10.50425300
_cell_length_c   12.52690600
_cell_angle_alpha   90.00000000
_cell_angle_beta   90.00000000
_cell_angle_gamma   90.00000000
_symmetry_Int_Tables_number   1
_chemical_formula_structural   Nb4Te3N2
_chemical_formula_sum   'Nb16 Te12 N8'
_cell_volume   763.09297090
_cell_formula_units_Z   4
loop_
 _symmetry_equiv_pos_site_id
 _symmetry_equiv_pos_as_xyz
  1  'x, y, z'
loop_
 _atom_site_type_symbol
 _atom_site_label
 _atom_site_symmetry_multiplicity
 _atom_site_fract_x
 _atom_site_fract_y
 _atom_site_fract_z
 _atom_site_occupancy
  Nb  Nb0  1  0.60879000  0.25000000  0.83650600  1
  Nb  Nb1  1  0.10879000  0.25000000  0.66349400  1
  Nb  Nb2  1  0.39121000  0.75000000  0.16349400  1
  Nb  Nb3  1  0.89121000  0.75000000  0.33650600  1
  Nb  Nb4  1  0.66040600  0.25000000  0.55566400  1
  Nb  Nb5  1  0.16040600  0.25000000  0.94433600  1
  Nb  Nb6  1  0.33959400  0.75000000  0.44433600  1
  Nb  Nb7  1  0.83959400  0.75000000  0.05566400  1
  Nb  Nb8  1  0.74144400  0.46043500  0.01217500  1
  Nb  Nb9  1  0.24144400  0.03956500  0.48782500  1
  Nb  Nb10  1  0.25855600  0.96043500  0.98782500  1
  Nb  Nb11  1  0.75855600  0.53956500  0.51217500  1
  Nb  Nb12  1  0.25855600  0.53956500  0.98782500  1
  Nb  Nb13  1  0.75855600  0.96043500  0.51217500  1
  Nb  Nb14  1  0.74144400  0.03956500  0.01217500  1
  Nb  Nb15  1  0.24144400  0.46043500  0.48782500  1
  Te  Te0  1  0.87180800  0.25000000  0.13314400  1
  Te  Te1  1  0.37180800  0.25000000  0.36685600  1
  Te  Te2  1  0.12819200  0.75000000  0.86685600  1
  Te  Te3  1  0.62819200  0.75000000  0.63314400  1
  Te  Te4  1  0.53789800  0.55309900  0.31636400  1
  Te  Te5  1  0.03789800  0.94690100  0.18363600  1
  Te  Te6  1  0.46210200  0.05309900  0.68363600  1
  Te  Te7  1  0.96210200  0.44690100  0.81636400  1
  Te  Te8  1  0.46210200  0.44690100  0.68363600  1
  Te  Te9  1  0.96210200  0.05309900  0.81636400  1
  Te  Te10  1  0.53789800  0.94690100  0.31636400  1
  Te  Te11  1  0.03789800  0.55309900  0.18363600  1
  N  N0  1  0.55399300  0.61992500  0.05489300  1
  N  N1  1  0.05399300  0.88007500  0.44510700  1
  N  N2  1  0.44600700  0.11992500  0.94510700  1
  N  N3  1  0.94600700  0.38007500  0.55489300  1
  N  N4  1  0.44600700  0.38007500  0.94510700  1
  N  N5  1  0.94600700  0.11992500  0.55489300  1
  N  N6  1  0.55399300  0.88007500  0.05489300  1
  N  N7  1  0.05399300  0.61992500  0.44510700  1
loop_
_geom_bond_atom_site_label_1
_geom_bond_atom_site_label_2
_geom_bond_distance
_geom_bond_site_symmetry_2
Nb0 Te7 2.922264 1_555
Nb0 Te9 2.922264 1_555
Nb0 Te8 2.944263 1_555
Nb0 Te6 2.944263 1_555
Nb1 Te6 2.922264 1_555
Nb1 Te8 2.922264 1_555
Nb1 Te7 2.944263 1_455
Nb1 Te9 2.944263 1_455
Nb2 Te5 2.922264 1_555
Nb2 Te11 2.922264 1_555
Nb2 Te4 2.944263 1_555
Nb2 Te10 2.944263 1_555
Nb3 Te10 2.922264 1_555
Nb3 Te4 2.922264 1_555
Nb3 Te11 2.944263 1_655
Nb3 Te5 2.944263 1_655
Nb4 Te8 2.858370 1_555
Nb4 Te6 2.858370 1_555
Nb4 Te1 2.897438 1_555
Nb5 Te7 2.858370 1_455
Nb5 Te9 2.858370 1_455
Nb5 Te0 2.897438 1_456
Nb6 Te4 2.858370 1_555
Nb6 Te10 2.858370 1_555
Nb6 Te3 2.897438 1_555
Nb7 Te5 2.858370 1_655
Nb7 Te11 2.858370 1_655
Nb7 Te2 2.897438 1_654
Nb8 Te7 2.770278 1_554
Nb8 Te0 2.784606 1_555
Nb8 Te11 2.918296 1_655
Nb9 Te6 2.770278 1_555
Nb9 Te1 2.784606 1_555
Nb9 Te10 2.918296 1_545
Nb10 Te5 2.770278 1_556
Nb10 Te2 2.784606 1_555
Nb10 Te9 2.918296 1_465
Nb11 Te4 2.770278 1_555
Nb11 Te3 2.784606 1_555
Nb11 Te8 2.918296 1_555
Nb12 Te11 2.770278 1_556
Nb12 Te2 2.784606 1_555
Nb12 Te7 2.918296 1_455
Nb13 Te10 2.770278 1_555
Nb13 Te3 2.784606 1_555
Nb13 Te6 2.918296 1_565
Nb14 Te9 2.770278 1_554
Nb14 Te0 2.784606 1_555
Nb14 Te5 2.918296 1_645
Nb15 Te8 2.770278 1_555
Nb15 Te1 2.784606 1_555
Nb15 Te4 2.918296 1_555
N0 Nb8 2.067554 1_555
N0 Nb12 2.086575 1_554
N0 Nb2 2.146818 1_555
N0 Nb7 2.147131 1_555
N1 Nb9 2.067554 1_565
N1 Nb13 2.086575 1_455
N1 Nb3 2.146818 1_455
N1 Nb6 2.147131 1_555
N2 Nb10 2.067554 1_545
N2 Nb14 2.086575 1_556
N2 Nb0 2.146818 1_555
N2 Nb5 2.147131 1_555
N3 Nb11 2.067554 1_555
N3 Nb15 2.086575 1_655
N3 Nb1 2.146818 1_655
N3 Nb4 2.147131 1_555
N4 Nb12 2.067554 1_555
N4 Nb8 2.086575 1_556
N4 Nb0 2.146818 1_555
N4 Nb5 2.147131 1_555
N5 Nb13 2.067554 1_545
N5 Nb9 2.086575 1_655
N5 Nb1 2.146818 1_655
N5 Nb4 2.147131 1_555
N6 Nb14 2.067554 1_565
N6 Nb10 2.086575 1_554
N6 Nb2 2.146818 1_555
N6 Nb7 2.147131 1_555
N7 Nb15 2.067554 1_555
N7 Nb11 2.086575 1_455
N7 Nb3 2.146818 1_455
N7 Nb6 2.147131 1_555
