# generated using pymatgen
data_Th2S5
_symmetry_space_group_name_H-M   'P 1'
_cell_length_a   7.64669280
_cell_length_b   7.68385843
_cell_length_c   10.22618131
_cell_angle_alpha   90.00000000
_cell_angle_beta   90.00000000
_cell_angle_gamma   90.00000000
_symmetry_Int_Tables_number   1
_chemical_formula_structural   Th2S5
_chemical_formula_sum   'Th8 S20'
_cell_volume   600.85058211
_cell_formula_units_Z   4
loop_
 _symmetry_equiv_pos_site_id
 _symmetry_equiv_pos_as_xyz
  1  'x, y, z'
loop_
 _atom_site_type_symbol
 _atom_site_label
 _atom_site_symmetry_multiplicity
 _atom_site_fract_x
 _atom_site_fract_y
 _atom_site_fract_z
 _atom_site_occupancy
  Th  Th0  1  0.76784626  0.02018159  0.85399254  1
  Th  Th1  1  0.26784626  0.97981841  0.64600746  1
  Th  Th2  1  0.73215374  0.52018159  0.64600746  1
  Th  Th3  1  0.23215374  0.47981841  0.85399254  1
  Th  Th4  1  0.23215374  0.97981841  0.14600746  1
  Th  Th5  1  0.73215374  0.02018159  0.35399254  1
  Th  Th6  1  0.26784626  0.47981841  0.35399254  1
  Th  Th7  1  0.76784626  0.52018159  0.14600746  1
  S  S0  1  0.00000000  0.75000000  0.75146869  1
  S  S1  1  0.50000000  0.25000000  0.74853131  1
  S  S2  1  0.00000000  0.25000000  0.24853131  1
  S  S3  1  0.50000000  0.75000000  0.25146869  1
  S  S4  1  0.63809252  0.38902109  0.39179506  1
  S  S5  1  0.13809252  0.61097891  0.10820494  1
  S  S6  1  0.86190748  0.88902109  0.10820494  1
  S  S7  1  0.36190748  0.11097991  0.39179506  1
  S  S8  1  0.36190748  0.61097891  0.60820494  1
  S  S9  1  0.86190748  0.38902109  0.89179506  1
  S  S10  1  0.13809252  0.11097991  0.89179506  1
  S  S11  1  0.63809252  0.88902109  0.60820494  1
  S  S12  1  0.09756038  0.84894880  0.39830681  1
  S  S13  1  0.59756038  0.15105120  0.10169319  1
  S  S14  1  0.40243962  0.34894880  0.10169319  1
  S  S15  1  0.90243962  0.65105120  0.39830681  1
  S  S16  1  0.90243962  0.15105120  0.60169319  1
  S  S17  1  0.40243962  0.84894880  0.89830681  1
  S  S18  1  0.59756038  0.65105120  0.89830681  1
  S  S19  1  0.09756038  0.34894880  0.60169319  1
loop_
_geom_bond_atom_site_label_1
_geom_bond_atom_site_label_2
_geom_bond_distance
_geom_bond_site_symmetry_2
S0 Th1 2.911414 1_555
S0 Th2 2.911414 1_455
S0 Th3 2.925832 1_555
S0 Th0 2.925832 1_465
S1 Th0 2.911414 1_555
S1 Th3 2.911414 1_555
S1 Th2 2.925832 1_555
S1 Th1 2.925832 1_545
S2 Th6 2.911414 1_555
S2 Th5 2.911414 1_455
S2 Th7 2.925832 1_455
S2 Th4 2.925832 1_545
S3 Th4 2.911414 1_555
S3 Th7 2.911414 1_555
S3 Th6 2.925832 1_555
S3 Th5 2.925832 1_565
S4 Th2 2.879421 1_555
S4 Th7 2.884035 1_555
S4 Th6 2.941369 1_555
S4 Th5 2.949399 1_555
S5 Th3 2.879421 1_554
S5 Th6 2.884035 1_555
S5 Th7 2.941369 1_455
S5 Th4 2.949399 1_555
S6 Th0 2.879421 1_564
S6 Th5 2.884035 1_565
S6 Th4 2.941369 1_655
S6 Th7 2.949399 1_555
S7 Th1 2.879424 1_545
S7 Th4 2.884038 1_545
S7 Th5 2.941371 1_555
S7 Th6 2.949392 1_555
S8 Th6 2.879421 1_555
S8 Th3 2.884035 1_555
S8 Th2 2.941369 1_555
S8 Th1 2.949399 1_555
S9 Th7 2.879421 1_556
S9 Th2 2.884035 1_555
S9 Th3 2.941369 1_655
S9 Th0 2.949399 1_555
S10 Th4 2.879424 1_546
S10 Th1 2.884038 1_545
S10 Th0 2.941371 1_455
S10 Th3 2.949392 1_555
S11 Th5 2.879421 1_565
S11 Th0 2.884035 1_565
S11 Th1 2.941369 1_555
S11 Th2 2.949399 1_555
S12 S15 2.130358 1_455
S12 Th4 2.954174 1_555
S12 Th1 3.020426 1_555
S12 Th5 3.121504 1_465
S12 Th6 3.153687 1_555
S13 S14 2.130358 1_555
S13 Th5 2.954174 1_555
S13 Th0 3.020426 1_554
S13 Th4 3.121504 1_545
S13 Th7 3.153687 1_555
S14 Th6 2.954174 1_555
S14 Th3 3.020426 1_554
S14 Th7 3.121504 1_555
S14 Th4 3.153687 1_545
S15 Th7 2.954174 1_555
S15 Th2 3.020426 1_555
S15 Th6 3.121504 1_655
S15 Th5 3.153687 1_565
S16 S19 2.130358 1_655
S16 Th0 2.954174 1_555
S16 Th5 3.020426 1_555
S16 Th1 3.121504 1_645
S16 Th2 3.153687 1_555
S17 S18 2.130358 1_555
S17 Th1 2.954174 1_555
S17 Th4 3.020426 1_556
S17 Th0 3.121504 1_565
S17 Th3 3.153687 1_555
S18 Th2 2.954174 1_555
S18 Th7 3.020426 1_556
S18 Th3 3.121504 1_555
S18 Th0 3.153687 1_565
S19 Th3 2.954174 1_555
S19 Th6 3.020426 1_555
S19 Th2 3.121504 1_455
S19 Th1 3.153687 1_545
