# generated using pymatgen
data_La6Sm2Co7AgO20
_symmetry_space_group_name_H-M   'P 1'
_cell_length_a   10.79478899
_cell_length_b   11.42598974
_cell_length_c   17.82118207
_cell_angle_alpha   108.62983984
_cell_angle_beta   107.69976531
_cell_angle_gamma   89.97941502
_symmetry_Int_Tables_number   1
_chemical_formula_structural   La6Sm2Co7AgO20
_chemical_formula_sum   'La24 Sm8 Co28 Ag4 O80'
_cell_volume   1972.87874667
_cell_formula_units_Z   4
loop_
 _symmetry_equiv_pos_site_id
 _symmetry_equiv_pos_as_xyz
  1  'x, y, z'
loop_
 _atom_site_type_symbol
 _atom_site_label
 _atom_site_symmetry_multiplicity
 _atom_site_fract_x
 _atom_site_fract_y
 _atom_site_fract_z
 _atom_site_occupancy
  La  La0  1  0.30817194  0.06314683  0.61220730  1
  La  La1  1  0.30750168  0.56370332  0.61377343  1
  La  La2  1  0.80733492  0.06645687  0.61057027  1
  La  La3  1  0.80942899  0.56604014  0.61470740  1
  La  La4  1  0.19774675  0.43413819  0.38892654  1
  La  La5  1  0.19285436  0.43608062  0.88644534  1
  La  La6  1  0.19413424  0.93397584  0.38630559  1
  La  La7  1  0.69807136  0.43466044  0.38949914  1
  La  La8  1  0.69637531  0.93476986  0.38730801  1
  La  La9  1  0.69551703  0.93376198  0.89006271  1
  La  La10  1  0.05871734  0.29549090  0.11229285  1
  La  La11  1  0.05782383  0.29803429  0.61253332  1
  La  La12  1  0.05926253  0.80098519  0.61421266  1
  La  La13  1  0.55850750  0.29522577  0.11151453  1
  La  La14  1  0.55739924  0.29662794  0.61306390  1
  La  La15  1  0.55783502  0.79756260  0.11238334  1
  La  La16  1  0.55717923  0.79547359  0.61221145  1
  La  La17  1  0.44589921  0.20380640  0.38648683  1
  La  La18  1  0.44559921  0.20124590  0.88751831  1
  La  La19  1  0.44622645  0.70386337  0.38610948  1
  La  La20  1  0.44182953  0.70094486  0.88702676  1
  La  La21  1  0.94472943  0.20136555  0.38525975  1
  La  La22  1  0.94498398  0.20503729  0.88896103  1
  La  La23  1  0.94525570  0.70140222  0.38701055  1
  Sm  Sm0  1  0.30157530  0.06641994  0.10821661  1
  Sm  Sm1  1  0.30294621  0.56626467  0.10741382  1
  Sm  Sm2  1  0.80706958  0.06638876  0.11072980  1
  Sm  Sm3  1  0.80619128  0.56431098  0.10839946  1
  Sm  Sm4  1  0.19283586  0.93663085  0.89117360  1
  Sm  Sm5  1  0.69629515  0.43437227  0.89172414  1
  Sm  Sm6  1  0.05627103  0.79160005  0.10907693  1
  Sm  Sm7  1  0.94571284  0.70644505  0.89059234  1
  Co  Co0  1  0.00633907  0.99922417  0.00147059  1
  Co  Co1  1  0.00757575  0.00105372  0.50260685  1
  Co  Co2  1  0.00469460  0.50077374  0.99926404  1
  Co  Co3  1  0.00375745  0.49833480  0.49563735  1
  Co  Co4  1  0.50839661  0.00221413  0.00547967  1
  Co  Co5  1  0.50438527  0.99916596  0.49800152  1
  Co  Co6  1  0.50893907  0.50202117  0.00452416  1
  Co  Co7  1  0.50559693  0.50004584  0.49941397  1
  Co  Co8  1  0.25591679  0.25089723  0.00099376  1
  Co  Co9  1  0.25444859  0.24699195  0.49581104  1
  Co  Co10  1  0.25834907  0.75502375  0.00589326  1
  Co  Co11  1  0.25377467  0.74740793  0.49604506  1
  Co  Co12  1  0.75719181  0.25171343  0.00258259  1
  Co  Co13  1  0.75516063  0.25035781  0.50029208  1
  Co  Co14  1  0.75638566  0.74839578  0.99845075  1
  Co  Co15  1  0.75545152  0.74999549  0.50040322  1
  Co  Co16  1  0.10846765  0.09338344  0.24688603  1
  Co  Co17  1  0.10509147  0.09873773  0.75214077  1
  Co  Co18  1  0.10664593  0.59483936  0.24709289  1
  Co  Co19  1  0.60085893  0.09607085  0.24788127  1
  Co  Co20  1  0.61381335  0.09945324  0.75117178  1
  Co  Co21  1  0.60696639  0.59419922  0.24788043  1
  Co  Co22  1  0.61956795  0.59566970  0.75224916  1
  Co  Co23  1  0.35844888  0.40516876  0.24767266  1
  Co  Co24  1  0.35850948  0.90622027  0.24716617  1
  Co  Co25  1  0.85818568  0.40336370  0.24765981  1
  Co  Co26  1  0.85762378  0.40680413  0.75249054  1
  Co  Co27  1  0.86519638  0.90523161  0.75181054  1
  Ag  Ag0  1  0.11752456  0.62170565  0.75127506  1
  Ag  Ag1  1  0.37387917  0.38014705  0.75084208  1
  Ag  Ag2  1  0.36591047  0.88122607  0.75102142  1
  Ag  Ag3  1  0.86790196  0.88186355  0.24796873  1
  O  O0  1  0.12108003  0.11812202  0.48246125  1
  O  O1  1  0.12196079  0.11565392  0.98395032  1
  O  O2  1  0.11724598  0.61448906  0.47483527  1
  O  O3  1  0.11779468  0.62544927  0.98673544  1
  O  O4  1  0.62068369  0.11872150  0.48460548  1
  O  O5  1  0.62333603  0.12271184  0.98898145  1
  O  O6  1  0.62119633  0.61996952  0.48507622  1
  O  O7  1  0.62453929  0.61680430  0.98369222  1
  O  O8  1  0.13812515  0.38431879  0.01870911  1
  O  O9  1  0.13458711  0.37702762  0.50976074  1
  O  O10  1  0.13745941  0.88404536  0.02071146  1
  O  O11  1  0.13933525  0.88115516  0.51913476  1
  O  O12  1  0.64408363  0.38555529  0.02217436  1
  O  O13  1  0.63490789  0.38043209  0.51433603  1
  O  O14  1  0.64472103  0.88541850  0.02279255  1
  O  O15  1  0.63459471  0.87925874  0.51352876  1
  O  O16  1  0.37018315  0.11194243  0.47927480  1
  O  O17  1  0.36789438  0.11223839  0.98657282  1
  O  O18  1  0.37130933  0.61230035  0.47871250  1
  O  O19  1  0.37217860  0.61652525  0.99129870  1
  O  O20  1  0.87055359  0.11559218  0.48584824  1
  O  O21  1  0.87142439  0.11503643  0.98780716  1
  O  O22  1  0.86919267  0.61629584  0.48211349  1
  O  O23  1  0.86758415  0.60977742  0.97628709  1
  O  O24  1  0.38886358  0.38833047  0.02232362  1
  O  O25  1  0.38502566  0.38342786  0.51134984  1
  O  O26  1  0.38865592  0.89412052  0.02607888  1
  O  O27  1  0.38567197  0.88342833  0.51118509  1
  O  O28  1  0.88438925  0.38968122  0.01680724  1
  O  O29  1  0.88418522  0.38482853  0.51372392  1
  O  O30  1  0.88952260  0.88411479  0.01705872  1
  O  O31  1  0.88685336  0.88353277  0.51757358  1
  O  O32  1  0.09548088  0.10866365  0.13808002  1
  O  O33  1  0.08685715  0.10456252  0.63972468  1
  O  O34  1  0.09313775  0.60953201  0.13840327  1
  O  O35  1  0.08463322  0.60304188  0.62339461  1
  O  O36  1  0.59702772  0.10849801  0.14063873  1
  O  O37  1  0.59032347  0.10677110  0.63844871  1
  O  O38  1  0.59721400  0.60832797  0.14009746  1
  O  O39  1  0.59058648  0.60602132  0.63856533  1
  O  O40  1  0.44869669  0.39242017  0.35803616  1
  O  O41  1  0.46889433  0.39737947  0.87818730  1
  O  O42  1  0.44638174  0.89208041  0.35832995  1
  O  O43  1  0.46317612  0.89817378  0.87840990  1
  O  O44  1  0.94451999  0.39304208  0.35876586  1
  O  O45  1  0.94858360  0.39015620  0.86222476  1
  O  O46  1  0.95892545  0.89651572  0.37542391  1
  O  O47  1  0.95555722  0.88983041  0.86227457  1
  O  O48  1  0.33729737  0.27704395  0.13999082  1
  O  O49  1  0.33533247  0.27172961  0.62265153  1
  O  O50  1  0.33599171  0.77612465  0.14004820  1
  O  O51  1  0.33631052  0.77055285  0.62369796  1
  O  O52  1  0.83967463  0.27797250  0.13897463  1
  O  O53  1  0.83429931  0.28375218  0.64012584  1
  O  O54  1  0.84623848  0.76503589  0.12377579  1
  O  O55  1  0.83658533  0.78135050  0.63984236  1
  O  O56  1  0.20016418  0.21448351  0.35855113  1
  O  O57  1  0.19976925  0.21961190  0.86315302  1
  O  O58  1  0.19637280  0.71725705  0.35758150  1
  O  O59  1  0.21137485  0.73427432  0.87844739  1
  O  O60  1  0.69557739  0.21682150  0.35906768  1
  O  O61  1  0.70349326  0.22224054  0.86314690  1
  O  O62  1  0.69436095  0.71684993  0.35927102  1
  O  O63  1  0.70958258  0.72206672  0.86276353  1
  O  O64  1  0.40850977  0.07460232  0.24406273  1
  O  O65  1  0.42701502  0.09189220  0.75073548  1
  O  O66  1  0.41428586  0.56980136  0.24286424  1
  O  O67  1  0.43103627  0.59339093  0.75116616  1
  O  O68  1  0.92059219  0.09418629  0.24563375  1
  O  O69  1  0.91348823  0.07552862  0.75056389  1
  O  O70  1  0.91572914  0.56771451  0.24314897  1
  O  O71  1  0.88653204  0.57977310  0.75547818  1
  O  O72  1  0.16931886  0.42966524  0.24940849  1
  O  O73  1  0.13691589  0.40649569  0.74997524  1
  O  O74  1  0.16616935  0.92423515  0.24384699  1
  O  O75  1  0.14125884  0.93135676  0.75620172  1
  O  O76  1  0.66947171  0.42924822  0.25023329  1
  O  O77  1  0.66763362  0.42521422  0.75549132  1
  O  O78  1  0.63899895  0.92845411  0.25030249  1
  O  O79  1  0.67524702  0.93201748  0.75149500  1
loop_
_geom_bond_atom_site_label_1
_geom_bond_atom_site_label_2
_geom_bond_distance
_geom_bond_site_symmetry_2
La0 O65 2.324821 1_555
La0 O49 2.341893 1_555
La0 O11 2.521477 1_545
La0 O27 2.590447 1_545
La0 O33 2.595239 1_555
La0 O0 2.812000 1_555
La0 O16 2.859997 1_555
La0 O37 2.954642 1_555
La1 O67 2.317930 1_555
La1 O51 2.326789 1_555
La1 O35 2.494033 1_555
La1 O25 2.607753 1_555
La1 O9 2.615820 1_555
La1 O18 2.904893 1_555
La1 O2 2.917274 1_555
La1 O39 2.968295 1_555
La2 O53 2.366072 1_555
La2 O69 2.375844 1_555
La2 O31 2.550018 1_545
La2 O37 2.550973 1_555
La2 O15 2.592595 1_545
La2 O20 2.727846 1_555
La2 O4 2.749718 1_555
La2 O33 2.909856 1_655
La3 O71 2.343054 1_555
La3 O55 2.357001 1_555
La3 O39 2.540881 1_555
La3 O29 2.584215 1_555
La3 O13 2.603166 1_555
La3 O6 2.810636 1_555
La3 O22 2.850217 1_555
La3 O35 2.950868 1_655
La4 O56 2.394409 1_555
La4 O72 2.394520 1_555
La4 O2 2.477402 1_555
La4 O18 2.512631 1_555
La4 O44 2.632080 1_455
La4 O25 2.703248 1_555
La4 O9 2.705305 1_555
La4 O40 2.933751 1_555
La5 O73 2.230629 1_555
La5 O57 2.378694 1_555
La5 O45 2.564928 1_455
La5 O19 2.613750 1_555
La5 O3 2.634604 1_555
La5 O8 2.827084 1_556
La5 O24 2.892427 1_556
La5 O41 3.052948 1_555
La6 O58 2.364728 1_555
La6 O74 2.429487 1_555
La6 O46 2.513132 1_455
La6 O16 2.535197 1_565
La6 O0 2.549963 1_565
La6 O27 2.753875 1_555
La6 O11 2.842915 1_555
La6 O42 2.926478 1_555
La7 O60 2.370406 1_555
La7 O76 2.386403 1_555
La7 O22 2.530590 1_555
La7 O6 2.574301 1_555
La7 O40 2.589236 1_555
La7 O29 2.713230 1_555
La7 O13 2.757115 1_555
La7 O44 2.884842 1_555
La8 O78 2.306114 1_555
La8 O62 2.376667 1_555
La8 O20 2.562176 1_565
La8 O4 2.573649 1_565
La8 O42 2.603805 1_555
La8 O15 2.780450 1_555
La8 O31 2.815109 1_555
La8 O46 2.928036 1_555
La9 O63 2.324495 1_555
La9 O79 2.405495 1_555
La9 O43 2.475676 1_555
La9 O21 2.572256 1_565
La9 O5 2.603493 1_565
La9 O30 2.786970 1_556
La9 O14 2.797245 1_556
La9 O47 3.010372 1_555
La10 O32 2.332561 1_555
La10 O72 2.362344 1_555
La10 O8 2.549066 1_555
La10 O52 2.569422 1_455
La10 O28 2.610876 1_455
La10 O21 2.759307 1_454
La10 O1 2.804538 1_554
La10 O48 2.914588 1_555
La11 O73 2.248110 1_555
La11 O33 2.410682 1_555
La11 O29 2.589406 1_455
La11 O9 2.614449 1_555
La11 O53 2.619834 1_455
La11 O20 2.783916 1_455
La11 O0 2.825305 1_555
La11 O49 2.966863 1_555
La12 O35 2.329338 1_555
La12 O75 2.374070 1_555
La12 O11 2.517934 1_555
La12 O31 2.531205 1_455
La12 O55 2.602007 1_455
La12 O22 2.845535 1_455
La13 O36 2.360077 1_555
La13 O76 2.381867 1_555
La13 O24 2.514107 1_555
La13 O12 2.529513 1_555
La13 O48 2.609102 1_555
La13 O5 2.705875 1_554
La13 O17 2.793921 1_554
La13 O52 2.940828 1_555
La14 O37 2.359136 1_555
La14 O77 2.408168 1_555
La14 O49 2.477321 1_555
La14 O13 2.585479 1_555
La14 O25 2.613057 1_555
La14 O4 2.795775 1_555
La14 O16 2.842645 1_555
La14 O53 2.890897 1_555
La15 O78 2.321309 1_555
La15 O38 2.377747 1_555
La15 O26 2.508533 1_555
La15 O14 2.524242 1_555
La15 O50 2.614076 1_555
La15 O19 2.733724 1_554
La15 O7 2.832084 1_554
La15 O54 3.087837 1_555
La16 O39 2.362724 1_555
La16 O79 2.413154 1_555
La16 O51 2.478313 1_555
La16 O15 2.584095 1_555
La16 O27 2.609008 1_555
La16 O6 2.771360 1_555
La16 O18 2.825848 1_555
La16 O55 2.917686 1_555
La17 O40 2.368527 1_555
La17 O64 2.401687 1_555
La17 O16 2.536830 1_555
La17 O56 2.556343 1_555
La17 O4 2.577065 1_555
La17 O25 2.750604 1_555
La17 O13 2.768647 1_555
La17 O60 2.893552 1_555
La18 O65 2.302250 1_555
La18 O41 2.318832 1_555
La18 O57 2.575224 1_555
La18 O5 2.584921 1_555
La18 O17 2.627175 1_555
La18 O24 2.885948 1_556
La18 O12 2.903848 1_556
La18 O61 2.966246 1_555
La19 O42 2.356004 1_555
La19 O66 2.439032 1_555
La19 O18 2.527301 1_555
La19 O6 2.578801 1_555
La19 O58 2.602300 1_555
La19 O27 2.751061 1_555
La19 O15 2.755928 1_555
La19 O62 2.872299 1_555
La20 O67 2.305111 1_555
La20 O43 2.323379 1_555
La20 O59 2.482407 1_555
La20 O7 2.602450 1_555
La20 O19 2.635160 1_555
La20 O14 2.935385 1_556
La20 O26 2.951534 1_556
La21 O68 2.327733 1_555
La21 O44 2.383161 1_555
La21 O0 2.564276 1_655
La21 O60 2.602244 1_555
La21 O20 2.609763 1_555
La21 O9 2.746712 1_655
La21 O29 2.811639 1_555
La21 O56 2.948898 1_655
La22 O45 2.314667 1_555
La22 O69 2.355227 1_555
La22 O61 2.524696 1_555
La22 O1 2.587495 1_655
La22 O21 2.607606 1_555
La22 O28 2.811397 1_556
La22 O8 2.816935 1_656
La22 O57 2.936349 1_655
La23 O46 2.312435 1_555
La23 O70 2.451377 1_555
La23 O2 2.471358 1_655
La23 O22 2.528248 1_555
La23 O62 2.617636 1_555
La23 O31 2.817698 1_555
La23 O11 2.839982 1_655
La23 O58 2.929436 1_655
Co0 O10 1.960811 1_555
Co0 O30 1.960818 1_455
Co0 O21 1.979952 1_464
Co0 O1 1.982063 1_564
Co0 O32 2.246766 1_565
Co0 O47 2.282327 1_454
Co1 O20 1.992351 1_455
Co1 O11 1.997048 1_545
Co1 O0 1.998713 1_555
Co1 O31 2.003481 1_445
Co1 O46 2.094453 1_445
Co1 O33 2.232718 1_555
Co2 O23 1.966089 1_455
Co2 O28 1.974116 1_456
Co2 O3 1.984933 1_555
Co2 O8 1.988708 1_556
Co2 O45 2.248923 1_455
Co2 O34 2.279679 1_556
Co3 O29 1.993292 1_455
Co3 O22 1.994495 1_455
Co3 O9 1.996089 1_555
Co3 O2 1.997833 1_555
Co3 O35 2.104533 1_555
Co3 O44 2.232323 1_455
Co4 O26 1.977444 1_545
Co4 O17 1.988163 1_554
Co4 O5 2.000793 1_554
Co4 O14 2.006803 1_545
Co4 O43 2.094727 1_544
Co4 O36 2.218699 1_555
Co5 O27 1.956780 1_555
Co5 O16 1.962127 1_565
Co5 O4 1.972553 1_565
Co5 O15 1.983338 1_555
Co5 O42 2.278566 1_555
Co5 O37 2.293415 1_565
Co6 O19 1.982618 1_554
Co6 O24 1.995668 1_555
Co6 O12 1.996267 1_555
Co6 O7 2.002261 1_554
Co6 O41 2.091462 1_554
Co6 O38 2.224130 1_555
Co7 O18 1.964275 1_555
Co7 O25 1.966068 1_555
Co7 O13 1.972870 1_555
Co7 O6 1.979608 1_555
Co7 O39 2.270779 1_555
Co7 O40 2.305968 1_555
Co8 O24 1.989601 1_555
Co8 O17 1.991134 1_554
Co8 O8 1.993915 1_555
Co8 O1 2.001457 1_554
Co8 O57 2.250169 1_554
Co8 O48 2.280605 1_555
Co9 O0 1.966441 1_555
Co9 O9 1.975273 1_555
Co9 O16 1.990151 1_555
Co9 O25 1.995535 1_555
Co9 O49 2.084162 1_555
Co9 O56 2.238968 1_555
Co10 O10 1.976210 1_555
Co10 O26 1.990629 1_555
Co10 O3 1.993550 1_554
Co10 O19 2.002930 1_554
Co10 O59 2.104188 1_554
Co10 O50 2.211324 1_555
Co11 O2 1.979293 1_555
Co11 O11 1.984127 1_555
Co11 O27 2.003880 1_555
Co11 O18 2.005126 1_555
Co11 O51 2.102944 1_555
Co11 O58 2.262499 1_555
Co12 O12 1.966752 1_555
Co12 O5 1.969647 1_554
Co12 O21 1.990490 1_554
Co12 O28 1.992301 1_555
Co12 O52 2.238128 1_555
Co12 O61 2.283381 1_554
Co13 O13 1.978659 1_555
Co13 O29 1.980333 1_555
Co13 O20 1.982249 1_555
Co13 O4 1.983394 1_555
Co13 O53 2.276777 1_555
Co13 O60 2.300967 1_555
Co14 O7 1.968956 1_555
Co14 O30 1.990846 1_556
Co14 O14 1.993741 1_556
Co14 O23 1.998176 1_555
Co14 O54 2.092075 1_556
Co14 O63 2.232817 1_555
Co15 O22 1.967573 1_555
Co15 O31 1.968003 1_555
Co15 O6 1.970725 1_555
Co15 O15 1.975251 1_555
Co15 O55 2.275642 1_555
Co15 O62 2.299415 1_555
Co16 O32 1.964954 1_555
Co16 O56 1.974457 1_555
Co16 O74 2.019643 1_545
Co16 O68 2.021453 1_455
Co17 O75 1.971296 1_545
Co17 O57 1.972761 1_555
Co17 O33 1.975382 1_555
Co17 O69 2.075894 1_455
Co18 O34 1.958909 1_555
Co18 O58 1.963004 1_555
Co18 O72 2.013230 1_555
Co18 O70 2.060775 1_455
Co19 O36 1.949316 1_555
Co19 O78 1.969960 1_545
Co19 O60 1.974251 1_555
Co19 O64 2.068790 1_555
Co20 O37 1.975947 1_555
Co20 O61 1.981216 1_555
Co20 O65 2.015875 1_555
Co20 O79 2.025747 1_545
Co21 O38 1.949831 1_555
Co21 O62 1.969624 1_555
Co21 O76 2.010372 1_555
Co21 O66 2.069617 1_555
Co22 O63 1.982146 1_555
Co22 O39 1.996029 1_555
Co22 O77 2.029465 1_555
Co22 O67 2.029472 1_555
Co23 O48 1.953669 1_555
Co23 O40 1.963794 1_555
Co23 O66 2.011059 1_555
Co23 O72 2.068808 1_555
Co24 O50 1.953964 1_555
Co24 O42 1.977941 1_555
Co24 O64 2.020588 1_565
Co24 O74 2.071126 1_555
Co25 O44 1.957058 1_555
Co25 O52 1.958589 1_555
Co25 O70 2.011557 1_555
Co25 O76 2.070549 1_555
Co26 O45 1.973472 1_555
Co26 O71 1.982234 1_555
Co26 O53 1.986193 1_555
Co26 O77 2.076658 1_555
Co27 O55 1.975249 1_555
Co27 O47 1.977728 1_555
Co27 O69 2.023320 1_565
Co27 O79 2.071651 1_555
Ag0 O59 2.135294 1_555
Ag0 O35 2.136077 1_555
Ag0 O73 2.461129 1_555
Ag0 O71 2.567128 1_455
Ag1 O41 2.130824 1_555
Ag1 O49 2.130948 1_555
Ag1 O67 2.511431 1_555
Ag1 O73 2.571472 1_555
Ag2 O43 2.136275 1_555
Ag2 O51 2.139158 1_555
Ag2 O65 2.498022 1_565
Ag2 O75 2.513745 1_555
Ag3 O54 2.129089 1_555
Ag3 O46 2.133737 1_555
Ag3 O68 2.508104 1_565
Ag3 O78 2.537353 1_555
O1 Sm4 2.471930 1_545
O1 Sm0 2.676637 1_556
O3 Sm7 2.513829 1_455
O3 Sm6 2.652127 1_556
O3 Sm1 2.718777 1_556
O5 Sm2 2.707400 1_556
O7 Sm5 2.493848 1_555
O7 Sm3 2.710161 1_556
O8 Sm1 2.485797 1_555
O10 Sm0 2.481788 1_565
O10 Sm6 2.503274 1_555
O10 Sm4 2.788039 1_554
O10 Sm7 2.803117 1_454
O12 Sm3 2.440778 1_555
O12 Sm5 2.767453 1_554
O14 Sm2 2.462753 1_565
O17 Sm4 2.521341 1_545
O17 Sm0 2.674911 1_556
O19 Sm1 2.621122 1_556
O21 Sm2 2.700744 1_556
O23 Sm5 2.466845 1_555
O23 Sm7 2.474896 1_555
O23 Sm3 2.825373 1_556
O23 Sm6 2.827711 1_656
O24 Sm1 2.485390 1_555
O26 Sm0 2.428219 1_565
O26 Sm4 2.852973 1_554
O28 Sm3 2.472637 1_555
O28 Sm5 2.706809 1_554
O30 Sm6 2.521493 1_655
O30 Sm2 2.568506 1_565
O30 Sm7 2.734180 1_554
O32 Sm0 2.453724 1_555
O32 Sm2 3.015247 1_455
O34 Sm6 2.307980 1_555
O34 Sm1 2.502841 1_555
O34 Sm3 2.994175 1_455
O36 Sm2 2.495342 1_555
O36 Sm0 3.072462 1_555
O38 Sm3 2.500703 1_555
O38 Sm1 3.059081 1_555
O41 Sm5 2.416223 1_555
O43 Sm4 3.016612 1_555
O45 Sm5 2.940820 1_555
O47 Sm7 2.316219 1_555
O47 Sm4 2.476839 1_655
O48 Sm0 2.293085 1_555
O50 Sm1 2.280063 1_555
O50 Sm6 2.915822 1_555
O52 Sm2 2.310242 1_555
O54 Sm3 2.247037 1_555
O54 Sm6 2.390319 1_655
O59 Sm4 2.264870 1_555
O59 Sm7 2.965481 1_455
O61 Sm5 2.318522 1_555
O63 Sm7 2.462246 1_555
O64 Sm0 2.314817 1_555
O66 Sm1 2.333799 1_555
O68 Sm2 2.259096 1_555
O70 Sm3 2.319517 1_555
O71 Sm7 2.267064 1_555
O74 Sm6 2.327184 1_555
O75 Sm4 2.278697 1_555
O77 Sm5 2.319913 1_555
