# generated using pymatgen
data_Ce(MnCo2)4
_symmetry_space_group_name_H-M   'P 1'
_cell_length_a   4.69686000
_cell_length_b   6.42326319
_cell_length_c   6.42326319
_cell_angle_alpha   97.68188829
_cell_angle_beta   111.44531720
_cell_angle_gamma   68.55468280
_symmetry_Int_Tables_number   1
_chemical_formula_structural   Ce(MnCo2)4
_chemical_formula_sum   'Ce1 Mn4 Co8'
_cell_volume   167.88076507
_cell_formula_units_Z   1
loop_
 _symmetry_equiv_pos_site_id
 _symmetry_equiv_pos_as_xyz
  1  'x, y, z'
loop_
 _atom_site_type_symbol
 _atom_site_label
 _atom_site_symmetry_multiplicity
 _atom_site_fract_x
 _atom_site_fract_y
 _atom_site_fract_z
 _atom_site_occupancy
  Ce  Ce0  1  0.00000000  0.00000000  0.00000000  1
  Mn  Mn0  1  0.73269300  0.76730700  0.23269300  1
  Mn  Mn1  1  0.26730700  0.23269300  0.76730700  1
  Mn  Mn2  1  0.50000000  0.76730700  0.76730700  1
  Mn  Mn3  1  0.50000000  0.23269300  0.23269300  1
  Co  Co0  1  0.50000000  0.00000000  0.50000000  1
  Co  Co1  1  0.00000000  0.00000000  0.50000000  1
  Co  Co2  1  0.50000000  0.50000000  0.00000000  1
  Co  Co3  1  0.00000000  0.50000000  0.00000000  1
  Co  Co4  1  0.63689000  0.36311000  0.63689000  1
  Co  Co5  1  0.36311000  0.63689000  0.36311000  1
  Co  Co6  1  0.00000000  0.36311000  0.36311000  1
  Co  Co7  1  0.00000000  0.63689000  0.63689000  1
loop_
_geom_bond_atom_site_label_1
_geom_bond_atom_site_label_2
_geom_bond_distance
_geom_bond_site_symmetry_2
Ce0 Mn0 3.063629 1_445
Ce0 Mn1 3.063629 1_554
Ce0 Mn2 3.063630 1_444
Ce0 Mn3 3.063630 1_555
Ce0 Mn3 3.063630 1_455
Ce0 Mn2 3.063630 1_544
Ce0 Mn0 3.063630 1_545
Ce0 Mn1 3.063630 1_454
Ce0 Co6 3.070081 1_555
Ce0 Co7 3.070081 1_544
Ce0 Co5 3.070081 1_545
Ce0 Co4 3.070081 1_454
Ce0 Co1 3.211632 1_555
Ce0 Co1 3.211632 1_554
Ce0 Co3 3.211632 1_545
Ce0 Co3 3.211632 1_555
Ce0 Co2 3.211632 1_455
Ce0 Co2 3.211632 1_545
Ce0 Co0 3.211632 1_454
Ce0 Co0 3.211632 1_555
Mn0 Mn2 2.782339 1_554
Mn0 Mn3 2.782339 1_565
Mn1 Mn3 2.782339 1_556
Mn1 Mn2 2.782339 1_545
Co0 Co1 2.348430 1_655
Co0 Co1 2.348430 1_555
Co0 Mn3 2.422414 1_555
Co0 Mn2 2.422414 1_545
Co0 Mn1 2.422415 1_555
Co0 Mn0 2.422415 1_545
Co0 Co4 2.600244 1_555
Co0 Co5 2.600244 1_545
Co0 Co6 2.600244 1_555
Co0 Co7 2.600244 1_645
Co1 Mn0 2.422415 1_445
Co1 Mn1 2.422415 1_555
Co1 Mn3 2.422415 1_455
Co1 Mn2 2.422415 1_545
Co1 Co6 2.600243 1_555
Co1 Co7 2.600243 1_545
Co1 Co4 2.600244 1_455
Co1 Co5 2.600244 1_545
Co2 Co3 2.348430 1_555
Co2 Co3 2.348430 1_655
Co2 Mn2 2.422414 1_554
Co2 Mn3 2.422414 1_555
Co2 Mn1 2.422415 1_554
Co2 Mn0 2.422415 1_555
Co2 Co5 2.600244 1_555
Co2 Co4 2.600244 1_554
Co2 Co6 2.600244 1_655
Co2 Co7 2.600244 1_554
Co3 Mn0 2.422415 1_455
Co3 Mn1 2.422415 1_554
Co3 Mn2 2.422415 1_454
Co3 Mn3 2.422415 1_555
Co3 Co6 2.600243 1_555
Co3 Co7 2.600243 1_554
Co3 Co5 2.600244 1_555
Co3 Co4 2.600244 1_454
Co4 Co5 2.314799 1_555
Co4 Mn3 2.539191 1_555
Co4 Mn2 2.539191 1_555
Co4 Mn1 2.594418 1_555
Co4 Mn1 2.594419 1_655
Co4 Co6 2.862564 1_655
Co4 Co7 2.862564 1_655
Co4 Co6 2.862564 1_555
Co4 Co7 2.862564 1_555
Co5 Mn2 2.539191 1_555
Co5 Mn3 2.539191 1_555
Co5 Mn0 2.594418 1_555
Co5 Mn0 2.594419 1_455
Co5 Co7 2.862564 1_555
Co5 Co6 2.862564 1_555
Co5 Co6 2.862564 1_655
Co5 Co7 2.862564 1_655
Co6 Co7 2.314799 1_555
Co6 Mn1 2.539191 1_555
Co6 Mn0 2.539191 1_455
Co6 Mn3 2.594418 1_455
Co6 Mn3 2.594418 1_555
Co7 Mn1 2.539191 1_555
Co7 Mn0 2.539191 1_455
Co7 Mn2 2.594418 1_455
Co7 Mn2 2.594418 1_555
