# generated using pymatgen
data_Dy2NbGaO7
_symmetry_space_group_name_H-M   'P 1'
_cell_length_a   7.28414967
_cell_length_b   7.28414967
_cell_length_c   7.28414967
_cell_angle_alpha   121.00028759
_cell_angle_beta   119.13709487
_cell_angle_gamma   89.88865360
_symmetry_Int_Tables_number   1
_chemical_formula_structural   Dy2NbGaO7
_chemical_formula_sum   'Dy4 Nb2 Ga2 O14'
_cell_volume   272.91389761
_cell_formula_units_Z   2
loop_
 _symmetry_equiv_pos_site_id
 _symmetry_equiv_pos_as_xyz
  1  'x, y, z'
loop_
 _atom_site_type_symbol
 _atom_site_label
 _atom_site_symmetry_multiplicity
 _atom_site_fract_x
 _atom_site_fract_y
 _atom_site_fract_z
 _atom_site_occupancy
  Dy  Dy0  1  0.50000000  0.50000000  0.50000000  1
  Dy  Dy1  1  0.50000000  0.00000000  0.00000000  1
  Dy  Dy2  1  0.50000000  0.50000000  0.00000000  1
  Dy  Dy3  1  0.00000000  0.50000000  0.50000000  1
  Nb  Nb0  1  0.00000000  0.00000000  0.00000000  1
  Nb  Nb1  1  0.50000000  0.00000000  0.50000000  1
  Ga  Ga0  1  0.00000000  0.00000000  0.50000000  1
  Ga  Ga1  1  0.00000000  0.50000000  0.00000000  1
  O  O0  1  0.37523000  0.62523000  0.75000000  1
  O  O1  1  0.62477000  0.37477000  0.25000000  1
  O  O2  1  0.33331200  0.08331200  0.25000000  1
  O  O3  1  0.91565000  0.66565000  0.25000000  1
  O  O4  1  0.33405800  0.66739500  0.25242300  1
  O  O5  1  0.91497100  0.08163400  0.24757700  1
  O  O6  1  0.33405800  0.08163400  0.66666300  1
  O  O7  1  0.91497100  0.66739500  0.83333700  1
  O  O8  1  0.66668800  0.91668800  0.75000000  1
  O  O9  1  0.08435000  0.33435000  0.75000000  1
  O  O10  1  0.66594200  0.33260500  0.74757700  1
  O  O11  1  0.08502900  0.91836600  0.75242300  1
  O  O12  1  0.66594200  0.91836600  0.33333700  1
  O  O13  1  0.08502900  0.33260500  0.16666300  1
loop_
_geom_bond_atom_site_label_1
_geom_bond_atom_site_label_2
_geom_bond_distance
_geom_bond_site_symmetry_2
Dy0 O0 2.207173 1_555
Dy0 O1 2.207173 1_555
Dy0 O8 2.484071 1_555
Dy0 O2 2.484071 1_555
Dy0 O13 2.517267 1_555
Dy0 O7 2.517267 1_555
Dy0 O10 2.517273 1_555
Dy0 O4 2.517273 1_555
Dy1 O0 2.207173 1_544
Dy1 O1 2.207173 1_555
Dy1 O8 2.484071 1_544
Dy1 O2 2.484071 1_555
Dy1 O6 2.517267 1_554
Dy1 O12 2.517267 1_545
Dy1 O11 2.517267 1_544
Dy1 O5 2.517267 1_555
Dy2 O1 2.251774 1_555
Dy2 O0 2.251774 1_554
Dy2 O10 2.485506 1_554
Dy2 O4 2.485506 1_555
Dy2 O12 2.485511 1_555
Dy2 O6 2.485511 1_554
Dy2 O9 2.514075 1_554
Dy2 O3 2.514075 1_555
Dy3 O1 2.251774 1_455
Dy3 O0 2.251774 1_555
Dy3 O7 2.485511 1_455
Dy3 O13 2.485511 1_555
Dy3 O11 2.485511 1_555
Dy3 O5 2.485511 1_455
Dy3 O9 2.514075 1_555
Dy3 O3 2.514075 1_455
Nb0 O13 1.992743 1_555
Nb0 O7 1.992743 1_444
Nb0 O11 1.992750 1_544
Nb0 O5 1.992750 1_455
Nb0 O2 2.034954 1_555
Nb0 O8 2.034954 1_444
Nb1 O10 1.992743 1_555
Nb1 O4 1.992743 1_545
Nb1 O12 1.992743 1_545
Nb1 O6 1.992743 1_555
Nb1 O2 2.034954 1_555
Nb1 O8 2.034954 1_545
Ga0 O3 1.993213 1_445
Ga0 O9 1.993213 1_555
Ga0 O5 2.033174 1_455
Ga0 O11 2.033174 1_545
Ga0 O6 2.033181 1_555
Ga0 O12 2.033181 1_445
Ga1 O3 1.993213 1_455
Ga1 O9 1.993213 1_554
Ga1 O4 2.033181 1_555
Ga1 O10 2.033181 1_454
Ga1 O7 2.033181 1_454
Ga1 O13 2.033181 1_555
