# generated using pymatgen
data_TiAlNi2
_symmetry_space_group_name_H-M   'P 1'
_cell_length_a   2.94515361
_cell_length_b   2.94515361
_cell_length_c   5.83727944
_cell_angle_alpha   90.00000000
_cell_angle_beta   90.00000000
_cell_angle_gamma   90.00000000
_symmetry_Int_Tables_number   1
_chemical_formula_structural   TiAlNi2
_chemical_formula_sum   'Ti1 Al1 Ni2'
_cell_volume   50.63215201
_cell_formula_units_Z   1
loop_
 _symmetry_equiv_pos_site_id
 _symmetry_equiv_pos_as_xyz
  1  'x, y, z'
loop_
 _atom_site_type_symbol
 _atom_site_label
 _atom_site_symmetry_multiplicity
 _atom_site_fract_x
 _atom_site_fract_y
 _atom_site_fract_z
 _atom_site_occupancy
  Ti  Ti0  1  -0.00000000  -0.00000000  0.50000000  1
  Al  Al0  1  -0.00000000  -0.00000000  -0.00000000  1
  Ni  Ni0  1  0.50000000  0.50000000  0.24796247  1
  Ni  Ni1  1  0.50000000  0.50000000  0.75203753  1
loop_
_geom_bond_atom_site_label_1
_geom_bond_atom_site_label_2
_geom_bond_distance
_geom_bond_site_symmetry_2
Al0 Ni0 2.536140 1_445
Al0 Ni0 2.536140 1_555
Al0 Ni1 2.536140 1_544
Al0 Ni1 2.536140 1_444
Al0 Ni1 2.536140 1_454
Al0 Ni0 2.536140 1_545
Al0 Ni1 2.536140 1_554
Al0 Ni0 2.536140 1_455
Ni0 Ti0 2.549791 1_555
Ni0 Ti0 2.549791 1_565
Ni0 Ti0 2.549791 1_655
Ni0 Ti0 2.549791 1_665
Ni1 Ti0 2.549791 1_665
Ni1 Ti0 2.549791 1_555
Ni1 Ti0 2.549791 1_565
Ni1 Ti0 2.549791 1_655
