# generated using pymatgen
data_Tl5Ag3(PS3)4
_symmetry_space_group_name_H-M   'P 1'
_cell_length_a   13.57394930
_cell_length_b   13.57394930
_cell_length_c   13.17735185
_cell_angle_alpha   71.08220449
_cell_angle_beta   71.08220449
_cell_angle_gamma   32.46589355
_symmetry_Int_Tables_number   1
_chemical_formula_structural   Tl5Ag3(PS3)4
_chemical_formula_sum   'Tl10 Ag6 P8 S24'
_cell_volume   1226.76737461
_cell_formula_units_Z   2
loop_
 _symmetry_equiv_pos_site_id
 _symmetry_equiv_pos_as_xyz
  1  'x, y, z'
loop_
 _atom_site_type_symbol
 _atom_site_label
 _atom_site_symmetry_multiplicity
 _atom_site_fract_x
 _atom_site_fract_y
 _atom_site_fract_z
 _atom_site_occupancy
  Tl  Tl0  1  0.23427800  0.45011600  0.11529000  1
  Tl  Tl1  1  0.54988400  0.76572200  0.38471000  1
  Tl  Tl2  1  0.76572200  0.54988400  0.88471000  1
  Tl  Tl3  1  0.45011600  0.23427800  0.61529000  1
  Tl  Tl4  1  0.03327800  0.28986100  0.22747400  1
  Tl  Tl5  1  0.71013900  0.96672200  0.27252600  1
  Tl  Tl6  1  0.96672200  0.71013900  0.77252600  1
  Tl  Tl7  1  0.28986100  0.03327800  0.72747400  1
  Tl  Tl8  1  0.50163200  0.49836800  0.25000000  1
  Tl  Tl9  1  0.49836800  0.50163200  0.75000000  1
  Ag  Ag0  1  0.01539200  0.98460800  0.25000000  1
  Ag  Ag1  1  0.98460800  0.01539200  0.75000000  1
  Ag  Ag2  1  0.03469900  0.72932700  0.46519500  1
  Ag  Ag3  1  0.27067300  0.96530100  0.03480500  1
  Ag  Ag4  1  0.96530100  0.27067300  0.53480500  1
  Ag  Ag5  1  0.72932700  0.03469900  0.96519500  1
  P  P0  1  0.09890600  0.42283200  0.42476600  1
  P  P1  1  0.57716800  0.90109400  0.07523400  1
  P  P2  1  0.90109400  0.57716800  0.57523400  1
  P  P3  1  0.42283200  0.09890600  0.92476600  1
  P  P4  1  0.13026100  0.84050100  0.00771800  1
  P  P5  1  0.15949900  0.86973900  0.49228200  1
  P  P6  1  0.86973900  0.15949900  0.99228200  1
  P  P7  1  0.84050100  0.13026100  0.50771800  1
  S  S0  1  0.93584800  0.57154700  0.30353000  1
  S  S1  1  0.42845300  0.06415200  0.19647000  1
  S  S2  1  0.06415200  0.42845300  0.69647000  1
  S  S3  1  0.57154700  0.93584800  0.80353000  1
  S  S4  1  0.11852800  0.75823300  0.16598600  1
  S  S5  1  0.24176700  0.88147200  0.33401400  1
  S  S6  1  0.88147200  0.24176700  0.83401400  1
  S  S7  1  0.75823300  0.11852800  0.66598600  1
  S  S8  1  0.83256500  0.75637100  0.03290300  1
  S  S9  1  0.24362900  0.16743500  0.46709700  1
  S  S10  1  0.16743500  0.24362900  0.96709700  1
  S  S11  1  0.75637100  0.83256500  0.53290300  1
  S  S12  1  0.26316400  0.41492400  0.38954900  1
  S  S13  1  0.58507600  0.73683600  0.11045100  1
  S  S14  1  0.73683600  0.58507600  0.61045100  1
  S  S15  1  0.41492400  0.26316400  0.88954900  1
  S  S16  1  0.89128400  0.23227000  0.08893100  1
  S  S17  1  0.76773000  0.10871600  0.41106900  1
  S  S18  1  0.10871600  0.76773000  0.91106900  1
  S  S19  1  0.23227000  0.89128400  0.58893100  1
  S  S20  1  0.64520300  0.24983100  0.04476400  1
  S  S21  1  0.75016900  0.35479700  0.45523600  1
  S  S22  1  0.35479700  0.75016900  0.95523600  1
  S  S23  1  0.24983100  0.64520300  0.54476400  1
loop_
_geom_bond_atom_site_label_1
_geom_bond_atom_site_label_2
_geom_bond_distance
_geom_bond_site_symmetry_2
Ag0 S5 2.563110 1_555
Ag0 S4 2.563110 1_555
Ag0 S17 2.603778 1_465
Ag0 S16 2.603778 1_465
Ag1 S6 2.563110 1_555
Ag1 S7 2.563110 1_555
Ag1 S18 2.603778 1_645
Ag1 S19 2.603778 1_645
Ag2 S23 2.552065 1_555
Ag2 S11 2.593160 1_455
Ag2 S12 2.691711 1_555
Ag2 S17 2.822219 1_465
Ag3 S22 2.552065 1_554
Ag3 S10 2.593160 1_564
Ag3 S13 2.691711 1_555
Ag3 S16 2.822219 1_465
Ag4 S21 2.552065 1_555
Ag4 S9 2.593160 1_655
Ag4 S14 2.691711 1_555
Ag4 S19 2.822219 1_645
Ag5 S20 2.552065 1_556
Ag5 S8 2.593160 1_546
Ag5 S15 2.691711 1_555
Ag5 S18 2.822219 1_645
P0 S9 2.037985 1_555
P0 S12 2.038541 1_555
P0 S0 2.046558 1_455
P0 P2 2.297652 1_455
P1 S8 2.037985 1_555
P1 S13 2.038541 1_555
P1 S1 2.046558 1_565
P1 P3 2.297652 1_564
P2 S11 2.037985 1_555
P2 S14 2.038541 1_555
P2 S2 2.046558 1_655
P3 S10 2.037985 1_555
P3 S15 2.038541 1_555
P3 S3 2.046558 1_545
P4 S22 2.036673 1_554
P4 S4 2.048539 1_555
P4 S18 2.056201 1_554
P4 P6 2.313667 1_464
P5 S23 2.036673 1_555
P5 S5 2.048539 1_555
P5 S19 2.056201 1_555
P5 P7 2.313667 1_465
P6 S20 2.036673 1_556
P6 S6 2.048539 1_555
P6 S16 2.056201 1_556
P7 S21 2.036673 1_555
P7 S7 2.048539 1_555
P7 S17 2.056201 1_555
S0 Tl5 3.160064 1_555
S0 Tl0 3.185597 1_655
S0 Tl1 3.229891 1_555
S0 Tl4 3.235092 1_655
S1 Tl4 3.160064 1_555
S1 Tl1 3.185597 1_545
S1 Tl0 3.229891 1_555
S1 Tl5 3.235092 1_545
S2 Tl7 3.160064 1_555
S2 Tl2 3.185597 1_455
S2 Tl3 3.229891 1_555
S2 Tl6 3.235092 1_455
S3 Tl6 3.160064 1_555
S3 Tl3 3.185597 1_565
S3 Tl2 3.229891 1_555
S3 Tl7 3.235092 1_565
S4 Tl0 3.232593 1_555
S5 Tl1 3.232593 1_555
S6 Tl2 3.232593 1_555
S7 Tl3 3.232593 1_555
S8 Tl0 3.294722 1_655
S8 Tl6 3.301314 1_554
S9 Tl1 3.294722 1_545
S9 Tl7 3.301314 1_555
S10 Tl2 3.294722 1_455
S10 Tl4 3.301314 1_556
S11 Tl3 3.294722 1_565
S11 Tl5 3.301314 1_555
S12 Tl3 3.311514 1_555
S13 Tl2 3.311514 1_554
S14 Tl1 3.311514 1_555
S15 Tl0 3.311514 1_556
