# generated using pymatgen
data_CeZn3Pd2
_symmetry_space_group_name_H-M   'P 1'
_cell_length_a   5.30899341
_cell_length_b   5.30899341
_cell_length_c   4.31903110
_cell_angle_alpha   90.00000000
_cell_angle_beta   90.00000000
_cell_angle_gamma   120.00000530
_symmetry_Int_Tables_number   1
_chemical_formula_structural   CeZn3Pd2
_chemical_formula_sum   'Ce1 Zn3 Pd2'
_cell_volume   105.42444212
_cell_formula_units_Z   1
loop_
 _symmetry_equiv_pos_site_id
 _symmetry_equiv_pos_as_xyz
  1  'x, y, z'
loop_
 _atom_site_type_symbol
 _atom_site_label
 _atom_site_symmetry_multiplicity
 _atom_site_fract_x
 _atom_site_fract_y
 _atom_site_fract_z
 _atom_site_occupancy
  Ce  Ce0  1  -0.00000000  -0.00000000  -0.00000000  1
  Zn  Zn0  1  -0.00000000  0.50000000  0.50000000  1
  Zn  Zn1  1  0.50000000  0.50000000  0.50000000  1
  Zn  Zn2  1  0.50000000  -0.00000000  0.50000000  1
  Pd  Pd0  1  0.33333300  0.66666700  -0.00000000  1
  Pd  Pd1  1  0.66666700  0.33333300  -0.00000000  1
loop_
_geom_bond_atom_site_label_1
_geom_bond_atom_site_label_2
_geom_bond_distance
_geom_bond_site_symmetry_2
Ce0 Pd1 3.065146 1_455
Ce0 Pd0 3.065146 1_545
Ce0 Pd0 3.065150 1_445
Ce0 Pd1 3.065150 1_445
Ce0 Pd1 3.065150 1_555
Ce0 Pd0 3.065150 1_555
Pd0 Zn2 2.648072 1_565
Pd0 Zn0 2.648072 1_554
Pd0 Zn2 2.648072 1_564
Pd0 Zn0 2.648072 1_555
Pd0 Zn1 2.648075 1_555
Pd0 Zn1 2.648075 1_554
Pd1 Zn2 2.648072 1_554
Pd1 Zn2 2.648072 1_555
Pd1 Zn0 2.648072 1_655
Pd1 Zn0 2.648072 1_654
Pd1 Zn1 2.648075 1_555
Pd1 Zn1 2.648075 1_554
