# generated using pymatgen
data_LaCeIn6
_symmetry_space_group_name_H-M   'P 1'
_cell_length_a   4.75444159
_cell_length_b   4.75443631
_cell_length_c   9.43366910
_cell_angle_alpha   90.00000000
_cell_angle_beta   90.00000000
_cell_angle_gamma   90.00000000
_symmetry_Int_Tables_number   1
_chemical_formula_structural   LaCeIn6
_chemical_formula_sum   'La1 Ce1 In6'
_cell_volume   213.24516301
_cell_formula_units_Z   1
loop_
 _symmetry_equiv_pos_site_id
 _symmetry_equiv_pos_as_xyz
  1  'x, y, z'
loop_
 _atom_site_type_symbol
 _atom_site_label
 _atom_site_symmetry_multiplicity
 _atom_site_fract_x
 _atom_site_fract_y
 _atom_site_fract_z
 _atom_site_occupancy
  La  La0  1  -0.00000000  -0.00000000  0.50000000  1
  Ce  Ce0  1  -0.00000000  -0.00000000  0.00000000  1
  In  In0  1  0.50000000  0.50000000  0.00000000  1
  In  In1  1  0.50000000  0.50000000  0.50000000  1
  In  In2  1  0.50000000  0.00000000  0.24618850  1
  In  In3  1  0.50000000  0.00000000  0.75381150  1
  In  In4  1  0.00000000  0.50000000  0.24618850  1
  In  In5  1  -0.00000000  0.50000000  0.75381150  1
loop_
_geom_bond_atom_site_label_1
_geom_bond_atom_site_label_2
_geom_bond_distance
_geom_bond_site_symmetry_2
Ce0 In4 3.323400 1_545
Ce0 In4 3.323400 1_555
Ce0 In5 3.323400 1_544
Ce0 In5 3.323400 1_554
Ce0 In3 3.323402 1_554
Ce0 In2 3.323402 1_455
Ce0 In2 3.323402 1_555
Ce0 In3 3.323402 1_454
Ce0 In0 3.361896 1_445
Ce0 In0 3.361896 1_555
Ce0 In0 3.361896 1_455
Ce0 In0 3.361896 1_545
In0 In3 3.323400 1_554
In0 In2 3.323400 1_555
In0 In3 3.323400 1_564
In0 In2 3.323400 1_565
In0 In4 3.323402 1_555
In0 In5 3.323402 1_654
In0 In4 3.323402 1_655
In0 In5 3.323402 1_554
In1 La0 3.361896 1_555
In1 La0 3.361896 1_565
In1 La0 3.361896 1_655
In1 La0 3.361896 1_665
In1 In2 3.374047 1_555
In1 In3 3.374047 1_555
In1 In3 3.374047 1_565
In1 In2 3.374047 1_565
In1 In5 3.374049 1_555
In1 In5 3.374049 1_655
In1 In4 3.374049 1_655
In1 In4 3.374049 1_555
In2 In4 3.361896 1_645
In2 In4 3.361896 1_555
In2 In4 3.361896 1_545
In2 In4 3.361896 1_655
In2 La0 3.374049 1_555
In2 La0 3.374049 1_655
In3 In5 3.361896 1_555
In3 In5 3.361896 1_645
In3 In5 3.361896 1_545
In3 In5 3.361896 1_655
In3 La0 3.374049 1_555
In3 La0 3.374049 1_655
In4 La0 3.374047 1_565
In4 La0 3.374047 1_555
In5 La0 3.374047 1_565
In5 La0 3.374047 1_555
