# generated using pymatgen
data_LiCu6OF11
_symmetry_space_group_name_H-M   'P 1'
_cell_length_a   5.44811069
_cell_length_b   4.72272272
_cell_length_c   8.76642581
_cell_angle_alpha   90.58091749
_cell_angle_beta   88.98643696
_cell_angle_gamma   91.89866034
_symmetry_Int_Tables_number   1
_chemical_formula_structural   LiCu6OF11
_chemical_formula_sum   'Li1 Cu6 O1 F11'
_cell_volume   225.38999524
_cell_formula_units_Z   1
loop_
 _symmetry_equiv_pos_site_id
 _symmetry_equiv_pos_as_xyz
  1  'x, y, z'
loop_
 _atom_site_type_symbol
 _atom_site_label
 _atom_site_symmetry_multiplicity
 _atom_site_fract_x
 _atom_site_fract_y
 _atom_site_fract_z
 _atom_site_occupancy
  Li  Li0  1  0.06169500  0.77484400  0.74834000  1
  Cu  Cu0  1  0.99924600  0.02732700  0.02137900  1
  Cu  Cu1  1  0.50444400  0.55674900  0.04008700  1
  Cu  Cu2  1  0.33469500  0.99212500  0.31489300  1
  Cu  Cu3  1  0.79659100  0.53219400  0.33791000  1
  Cu  Cu4  1  0.24905000  0.34830800  0.59648700  1
  Cu  Cu5  1  0.64821500  0.98866300  0.67110100  1
  O  O0  1  0.54439100  0.71929000  0.24236600  1
  F  F0  1  0.26835300  0.25002100  0.09738300  1
  F  F1  1  0.04206300  0.79300600  0.25299000  1
  F  F2  1  0.77581000  0.29884200  0.08748000  1
  F  F3  1  0.08936100  0.29373400  0.40419500  1
  F  F4  1  0.57551800  0.22771900  0.42377600  1
  F  F5  1  0.34018800  0.78557100  0.60616600  1
  F  F6  1  0.83498200  0.69441000  0.58403700  1
  F  F7  1  0.46572300  0.28964300  0.76239200  1
  F  F8  1  0.22788200  0.75950000  0.93777800  1
  F  F9  1  0.96982500  0.17224200  0.72508200  1
  F  F10  1  0.74696900  0.80136800  0.91959500  1
loop_
_geom_bond_atom_site_label_1
_geom_bond_atom_site_label_2
_geom_bond_distance
_geom_bond_site_symmetry_2
Cu0 F2 1.877576 1_555
Cu0 F0 1.902038 1_655
Cu0 F8 1.934407 1_644
Cu0 F10 1.936728 1_544
Cu0 F1 2.341154 1_645
Cu1 O0 1.938060 1_555
Cu1 F0 1.968140 1_555
Cu1 F2 1.998317 1_555
Cu1 F10 2.017533 1_554
Cu1 F8 2.037737 1_554
Cu2 O0 1.850665 1_555
Cu2 F1 1.908269 1_555
Cu2 F4 1.948471 1_565
Cu2 F3 2.120112 1_565
Cu2 F0 2.313129 1_565
Cu3 O0 1.872532 1_555
Cu3 F1 1.932391 1_655
Cu3 F4 1.989995 1_555
Cu3 F3 2.077304 1_655
Cu3 F6 2.293024 1_555
Cu3 F2 2.449181 1_555
Cu4 F7 1.917312 1_555
Cu4 F3 1.921765 1_555
Cu4 F9 2.037394 1_455
Cu4 F5 2.109089 1_555
Cu4 F4 2.394706 1_555
Cu5 F6 1.895735 1_555
Cu5 F7 1.921436 1_565
Cu5 F9 1.991496 1_565
Cu5 F5 1.994069 1_555
Cu5 F10 2.435036 1_555
Cu5 F4 2.498408 1_565
F5 Li0 1.946109 1_555
F6 Li0 1.940432 1_655
F8 Li0 1.908638 1_555
F9 Li0 1.971823 1_645
F10 Li0 2.264727 1_655
