# generated using pymatgen
data_UPBrO6
_symmetry_space_group_name_H-M   'P 1'
_cell_length_a   10.05948687
_cell_length_b   10.05948687
_cell_length_c   10.05948687
_cell_angle_alpha   97.06218784
_cell_angle_beta   97.06218784
_cell_angle_gamma   138.94739134
_symmetry_Int_Tables_number   1
_chemical_formula_structural   UPBrO6
_chemical_formula_sum   'U4 P4 Br4 O24'
_cell_volume   626.09715819
_cell_formula_units_Z   4
loop_
 _symmetry_equiv_pos_site_id
 _symmetry_equiv_pos_as_xyz
  1  'x, y, z'
loop_
 _atom_site_type_symbol
 _atom_site_label
 _atom_site_symmetry_multiplicity
 _atom_site_fract_x
 _atom_site_fract_y
 _atom_site_fract_z
 _atom_site_occupancy
  U  U0  1  0.63097600  0.83725200  0.47125700  1
  U  U1  1  0.36599400  0.15971900  0.52874300  1
  U  U2  1  0.84028100  0.36902400  0.20627600  1
  U  U3  1  0.16274800  0.63400600  0.79372400  1
  P  P0  1  0.36275900  0.80073700  0.16334100  1
  P  P1  1  0.63739600  0.19941800  0.83665900  1
  P  P2  1  0.80058200  0.63724100  0.43797800  1
  P  P3  1  0.19926300  0.36260400  0.56202200  1
  Br  Br0  1  0.24849100  0.31959400  0.09714300  1
  Br  Br1  1  0.22245100  0.15134800  0.90285700  1
  Br  Br2  1  0.68040600  0.77754900  0.92889700  1
  Br  Br3  1  0.84865200  0.75150900  0.07110300  1
  O  O0  1  0.31755900  0.50579000  0.46955100  1
  O  O1  1  0.03623800  0.84800700  0.53044900  1
  O  O2  1  0.51486700  0.03892800  0.18927700  1
  O  O3  1  0.84965100  0.32559000  0.81072300  1
  O  O4  1  0.67441000  0.48513300  0.52406100  1
  O  O5  1  0.96107200  0.15034900  0.47593900  1
  O  O6  1  0.49421000  0.96376200  0.81176900  1
  O  O7  1  0.15199300  0.68244100  0.18823100  1
  O  O8  1  0.47483300  0.77765700  0.26249000  1
  O  O9  1  0.51516700  0.21234300  0.73751000  1
  O  O10  1  0.78765700  0.52516700  0.30282400  1
  O  O11  1  0.22234300  0.48483300  0.69717600  1
  O  O12  1  0.75290500  0.87539800  0.64932400  1
  O  O13  1  0.22607500  0.10358100  0.35067600  1
  O  O14  1  0.89641900  0.24709500  0.12249400  1
  O  O15  1  0.12460200  0.77392500  0.87750600  1
  O  O16  1  0.69338200  0.68502300  0.37685600  1
  O  O17  1  0.30816700  0.31652600  0.62314400  1
  O  O18  1  0.68347400  0.30661800  0.99164100  1
  O  O19  1  0.31497700  0.69183300  0.00835900  1
  O  O20  1  0.57108700  0.96856000  0.54138600  1
  O  O21  1  0.42717400  0.02970200  0.45861400  1
  O  O22  1  0.97029800  0.42891300  0.39747300  1
  O  O23  1  0.03144000  0.57282600  0.60252700  1
loop_
_geom_bond_atom_site_label_1
_geom_bond_atom_site_label_2
_geom_bond_distance
_geom_bond_site_symmetry_2
Br0 Br1 2.268240 1_554
Br2 Br3 2.268240 1_556
O0 P3 1.540318 1_555
O0 U0 2.275038 1_555
O1 P2 1.540312 1_455
O1 U1 2.275040 1_565
O2 P0 1.539188 1_545
O2 U2 2.258294 1_555
O3 P1 1.539188 1_555
O3 U3 2.258297 1_655
O4 P2 1.539188 1_555
O4 U1 2.258297 1_555
O5 P3 1.539188 1_655
O5 U0 2.258294 1_545
O6 P1 1.540309 1_565
O6 U3 2.275038 1_555
O7 P0 1.540309 1_555
O7 U2 2.275041 1_455
O8 P0 1.579543 1_555
O8 U0 2.167035 1_555
O9 P1 1.579543 1_555
O9 U1 2.167039 1_555
O10 P2 1.579543 1_555
O10 U2 2.167035 1_555
O11 P3 1.579543 1_555
O11 U3 2.167043 1_555
O12 U0 1.855037 1_555
O13 U1 1.855029 1_555
O14 U2 1.855033 1_555
O15 U3 1.855016 1_555
O16 P2 1.569514 1_555
O16 U0 2.209031 1_555
O17 P3 1.569514 1_555
O17 U1 2.209022 1_555
O18 P1 1.569514 1_555
O18 U2 2.209031 1_556
O19 P0 1.569514 1_555
O19 U3 2.209035 1_554
O20 U0 1.918580 1_555
O21 U1 1.918580 1_555
O22 U2 1.918577 1_555
O23 U3 1.918577 1_555
