# generated using pymatgen
data_BaU2Se5
_symmetry_space_group_name_H-M   'P 1'
_cell_length_a   7.95203360
_cell_length_b   8.86717602
_cell_length_c   12.38715135
_cell_angle_alpha   89.56634999
_cell_angle_beta   90.00000000
_cell_angle_gamma   90.00000000
_symmetry_Int_Tables_number   1
_chemical_formula_structural   BaU2Se5
_chemical_formula_sum   'Ba4 U8 Se20'
_cell_volume   873.41880997
_cell_formula_units_Z   4
loop_
 _symmetry_equiv_pos_site_id
 _symmetry_equiv_pos_as_xyz
  1  'x, y, z'
loop_
 _atom_site_type_symbol
 _atom_site_label
 _atom_site_symmetry_multiplicity
 _atom_site_fract_x
 _atom_site_fract_y
 _atom_site_fract_z
 _atom_site_occupancy
  Ba  Ba0  1  0.05458076  0.49203115  0.33071740  1
  Ba  Ba1  1  0.55458076  0.50796885  0.16928260  1
  Ba  Ba2  1  0.94541924  0.50796885  0.66928260  1
  Ba  Ba3  1  0.44541924  0.49203115  0.83071740  1
  U  U0  1  0.02003516  -0.00312503  0.32032203  1
  U  U1  1  0.52003516  0.00312503  0.17967797  1
  U  U2  1  0.97996484  0.00312503  0.67967797  1
  U  U3  1  0.47996484  -0.00312503  0.82032203  1
  U  U4  1  0.06914330  0.75506154  0.00807418  1
  U  U5  1  0.56914330  0.24493846  0.49192582  1
  U  U6  1  0.93085670  0.24493846  0.99192582  1
  U  U7  1  0.43085670  0.75506154  0.50807418  1
  Se  Se0  1  0.66047356  0.95746869  0.40051180  1
  Se  Se1  1  0.16047356  0.04253131  0.09948820  1
  Se  Se2  1  0.33952644  0.04253131  0.59948820  1
  Se  Se3  1  0.83952644  0.95746869  0.90051180  1
  Se  Se4  1  0.45380208  0.79286629  0.00170231  1
  Se  Se5  1  0.95380208  0.20713371  0.49829769  1
  Se  Se6  1  0.54619792  0.20713371  0.99829769  1
  Se  Se7  1  0.04619792  0.79286629  0.50170231  1
  Se  Se8  1  0.84097117  0.78119228  0.18837685  1
  Se  Se9  1  0.34097117  0.21880772  0.31162315  1
  Se  Se10  1  0.15902883  0.21880772  0.81162315  1
  Se  Se11  1  0.65902883  0.78119228  0.68837685  1
  Se  Se12  1  0.31105621  0.77521294  0.28500879  1
  Se  Se13  1  0.81105621  0.22478706  0.21499121  1
  Se  Se14  1  0.68894379  0.22478706  0.71499121  1
  Se  Se15  1  0.18894379  0.77521294  0.78500879  1
  Se  Se16  1  0.17848084  0.46326553  0.07114063  1
  Se  Se17  1  0.67848084  0.53673447  0.42885937  1
  Se  Se18  1  0.82151916  0.53673447  0.92885937  1
  Se  Se19  1  0.32151916  0.46326553  0.57114063  1
loop_
_geom_bond_atom_site_label_1
_geom_bond_atom_site_label_2
_geom_bond_distance
_geom_bond_site_symmetry_2
Ba0 Se17 3.253765 1_455
Ba0 Se12 3.280833 1_555
Ba0 Se9 3.334768 1_555
Ba0 Se5 3.354675 1_455
Ba0 Se16 3.374480 1_555
Ba0 Se13 3.387029 1_455
Ba0 Se7 3.419331 1_555
Ba0 Se8 3.535545 1_455
Ba0 Se19 3.664541 1_555
Ba1 Se16 3.253765 1_555
Ba1 Se13 3.280833 1_555
Ba1 Se8 3.334768 1_555
Ba1 Se4 3.354675 1_555
Ba1 Se17 3.374480 1_555
Ba1 Se12 3.387029 1_555
Ba1 Se6 3.419331 1_554
Ba1 Se9 3.535545 1_555
Ba1 Se18 3.664541 1_554
Ba2 Se19 3.253765 1_655
Ba2 Se14 3.280833 1_555
Ba2 Se11 3.334768 1_555
Ba2 Se7 3.354675 1_655
Ba2 Se18 3.374480 1_555
Ba2 Se15 3.387029 1_655
Ba2 Se5 3.419331 1_555
Ba2 Se10 3.535545 1_655
Ba2 Se17 3.664541 1_555
Ba3 Se18 3.253765 1_555
Ba3 Se15 3.280833 1_555
Ba3 Se10 3.334768 1_555
Ba3 Se6 3.354675 1_555
Ba3 Se19 3.374480 1_555
Ba3 Se14 3.387029 1_555
Ba3 Se4 3.419331 1_556
Ba3 Se11 3.535545 1_555
Ba3 Se16 3.664541 1_556
Se0 U7 2.879981 1_555
Se0 U5 2.889812 1_565
Se0 U1 2.979477 1_565
Se0 U0 3.046115 1_665
Se1 U6 2.879981 1_454
Se1 U4 2.889812 1_545
Se1 U0 2.979477 1_555
Se1 U1 3.046115 1_555
Se2 U5 2.879981 1_555
Se2 U7 2.889812 1_545
Se2 U3 2.979477 1_555
Se2 U2 3.046115 1_455
Se3 U4 2.879981 1_656
Se3 U6 2.889812 1_565
Se3 U2 2.979477 1_565
Se3 U3 3.046115 1_565
Se4 U3 2.881356 1_564
Se4 U1 2.945492 1_565
Se4 U4 3.078081 1_555
Se5 U2 2.881356 1_555
Se5 U0 2.945492 1_655
Se5 U5 3.078081 1_555
Se6 U1 2.881356 1_556
Se6 U3 2.945492 1_555
Se6 U6 3.078081 1_555
Se7 U0 2.881356 1_565
Se7 U2 2.945492 1_465
Se7 U7 3.078081 1_555
Se8 U4 2.888239 1_655
Se8 U0 2.898941 1_665
Se8 U1 3.224016 1_565
Se9 U5 2.888239 1_555
Se9 U1 2.898941 1_555
Se9 U0 3.224016 1_555
Se10 U6 2.888239 1_455
Se10 U2 2.898941 1_455
Se10 U3 3.224016 1_555
Se11 U7 2.888239 1_555
Se11 U3 2.898941 1_565
Se11 U2 3.224016 1_565
Se12 U1 2.916890 1_565
Se12 U7 2.926940 1_555
Se12 U0 3.069720 1_565
Se13 U0 2.916890 1_655
Se13 U6 2.926940 1_554
Se13 U1 3.069720 1_555
Se14 U3 2.916890 1_555
Se14 U5 2.926940 1_555
Se14 U2 3.069720 1_555
Se15 U2 2.916890 1_465
Se15 U4 2.926940 1_556
Se15 U3 3.069720 1_565
Se16 U4 2.833783 1_555
Se16 U6 2.935455 1_454
Se17 U5 2.833783 1_555
Se17 U7 2.935455 1_555
Se18 U6 2.833783 1_555
Se18 U4 2.935455 1_656
Se19 U7 2.833783 1_555
Se19 U5 2.935455 1_555
