# generated using pymatgen
data_Gd2Cu(SeO3)4
_symmetry_space_group_name_H-M   'P 1'
_cell_length_a   7.00755600
_cell_length_b   8.15707500
_cell_length_c   10.89918727
_cell_angle_alpha   70.31418391
_cell_angle_beta   90.00000000
_cell_angle_gamma   90.00000000
_symmetry_Int_Tables_number   1
_chemical_formula_structural   Gd2Cu(SeO3)4
_chemical_formula_sum   'Gd4 Cu2 Se8 O24'
_cell_volume   586.59771135
_cell_formula_units_Z   2
loop_
 _symmetry_equiv_pos_site_id
 _symmetry_equiv_pos_as_xyz
  1  'x, y, z'
loop_
 _atom_site_type_symbol
 _atom_site_label
 _atom_site_symmetry_multiplicity
 _atom_site_fract_x
 _atom_site_fract_y
 _atom_site_fract_z
 _atom_site_occupancy
  Gd  Gd0  1  0.65662000  0.76003500  0.58718400  1
  Gd  Gd1  1  0.15662000  0.73996500  0.41281600  1
  Gd  Gd2  1  0.34338000  0.23996500  0.41281600  1
  Gd  Gd3  1  0.84338000  0.26003500  0.58718400  1
  Cu  Cu0  1  0.50000000  0.50000000  0.00000000  1
  Cu  Cu1  1  0.00000000  0.00000000  0.00000000  1
  Se  Se0  1  0.82680300  0.13638200  0.31858100  1
  Se  Se1  1  0.32680300  0.36361800  0.68141900  1
  Se  Se2  1  0.67229200  0.87903000  0.86424700  1
  Se  Se3  1  0.17229200  0.62097000  0.13575300  1
  Se  Se4  1  0.32770800  0.12097000  0.13575300  1
  Se  Se5  1  0.82770800  0.37903000  0.86424700  1
  Se  Se6  1  0.67319700  0.63638200  0.31858100  1
  Se  Se7  1  0.17319700  0.86361800  0.68141900  1
  O  O0  1  0.34482700  0.91435300  0.55652100  1
  O  O1  1  0.84482700  0.58564700  0.44347900  1
  O  O2  1  0.65517300  0.08564700  0.44347900  1
  O  O3  1  0.15517300  0.41435300  0.55652100  1
  O  O4  1  0.11093800  0.07225100  0.66348000  1
  O  O5  1  0.61093800  0.42774900  0.33652000  1
  O  O6  1  0.88906200  0.92774900  0.33652000  1
  O  O7  1  0.38906200  0.57225100  0.66348000  1
  O  O8  1  0.50244300  0.71438400  0.40155200  1
  O  O9  1  0.00244300  0.78561600  0.59844800  1
  O  O10  1  0.77909100  0.46996200  0.69998900  1
  O  O11  1  0.27909100  0.03003800  0.30001100  1
  O  O12  1  0.22090900  0.53003800  0.30001100  1
  O  O13  1  0.72090900  0.96996200  0.69998900  1
  O  O14  1  0.88616000  0.17788200  0.84808800  1
  O  O15  1  0.38616000  0.32211800  0.15191200  1
  O  O16  1  0.11384000  0.82211800  0.15191200  1
  O  O17  1  0.61384000  0.67788200  0.84808800  1
  O  O18  1  0.89188000  0.82190300  0.94024700  1
  O  O19  1  0.39188000  0.67809700  0.05975300  1
  O  O20  1  0.10812000  0.17809700  0.05975300  1
  O  O21  1  0.60812000  0.32190300  0.94024700  1
  O  O22  1  0.49755700  0.28561600  0.59844800  1
  O  O23  1  0.99755700  0.21438400  0.40155200  1
loop_
_geom_bond_atom_site_label_1
_geom_bond_atom_site_label_2
_geom_bond_distance
_geom_bond_site_symmetry_2
Gd0 O7 2.386420 1_555
Gd0 O10 2.426287 1_555
Gd0 O8 2.430436 1_555
Gd0 O9 2.438978 1_655
Gd0 O13 2.462782 1_555
Gd0 O0 2.487291 1_555
Gd0 O2 2.589423 1_565
Gd0 O17 2.709499 1_555
Gd0 O1 2.777980 1_555
Gd0 O6 3.077441 1_555
Gd1 O6 2.386420 1_455
Gd1 O11 2.426287 1_565
Gd1 O9 2.430436 1_555
Gd1 O8 2.438978 1_555
Gd1 O12 2.462782 1_555
Gd1 O1 2.487291 1_455
Gd1 O3 2.589423 1_555
Gd1 O16 2.709499 1_555
Gd1 O0 2.777980 1_555
Gd1 O7 3.077441 1_555
Gd2 O5 2.386420 1_555
Gd2 O12 2.426287 1_555
Gd2 O22 2.430436 1_555
Gd2 O23 2.438978 1_455
Gd2 O11 2.462782 1_555
Gd2 O2 2.487291 1_555
Gd2 O0 2.589423 1_545
Gd2 O15 2.709499 1_555
Gd2 O3 2.777980 1_555
Gd2 O4 3.077441 1_555
Gd3 O4 2.386420 1_655
Gd3 O13 2.426287 1_545
Gd3 O23 2.430436 1_555
Gd3 O22 2.438978 1_555
Gd3 O10 2.462782 1_555
Gd3 O3 2.487291 1_655
Gd3 O1 2.589423 1_555
Gd3 O14 2.709499 1_555
Gd3 O2 2.777980 1_555
Gd3 O5 3.077441 1_555
Cu0 O21 1.935482 1_554
Cu0 O19 1.935482 1_555
Cu0 O15 1.965858 1_555
Cu0 O17 1.965858 1_554
Cu1 O18 1.935482 1_444
Cu1 O20 1.935482 1_555
Cu1 O16 1.965858 1_545
Cu1 O14 1.965858 1_454
O0 Se7 1.758216 1_555
O1 Se6 1.758216 1_555
O2 Se0 1.758216 1_555
O3 Se1 1.758216 1_555
O4 Se7 1.703125 1_545
O5 Se6 1.703125 1_555
O6 Se0 1.703125 1_565
O7 Se1 1.703125 1_555
O8 Se6 1.744148 1_555
O9 Se7 1.744148 1_555
O10 Se5 1.725309 1_555
O11 Se4 1.725309 1_555
O12 Se3 1.725309 1_555
O13 Se2 1.725309 1_555
O14 Se5 1.756599 1_555
O15 Se4 1.756599 1_555
O16 Se3 1.756599 1_555
O17 Se2 1.756599 1_555
O18 Se2 1.735242 1_555
O19 Se3 1.735242 1_555
O20 Se4 1.735242 1_555
O21 Se5 1.735242 1_555
O22 Se1 1.744148 1_555
O23 Se0 1.744148 1_555
