# generated using pymatgen
data_Tm5Mg
_symmetry_space_group_name_H-M   'P 1'
_cell_length_a   6.51588797
_cell_length_b   6.51588797
_cell_length_c   6.51588855
_cell_angle_alpha   55.11088277
_cell_angle_beta   55.11088277
_cell_angle_gamma   55.11088080
_symmetry_Int_Tables_number   1
_chemical_formula_structural   Tm5Mg
_chemical_formula_sum   'Tm5 Mg1'
_cell_volume   173.37443983
_cell_formula_units_Z   1
loop_
 _symmetry_equiv_pos_site_id
 _symmetry_equiv_pos_as_xyz
  1  'x, y, z'
loop_
 _atom_site_type_symbol
 _atom_site_label
 _atom_site_symmetry_multiplicity
 _atom_site_fract_x
 _atom_site_fract_y
 _atom_site_fract_z
 _atom_site_occupancy
  Tm  Tm0  1  0.65675896  0.34324104  -0.00000000  1
  Tm  Tm1  1  -0.00000000  0.65675896  0.34324104  1
  Tm  Tm2  1  0.34324104  0.00000000  0.65675896  1
  Tm  Tm3  1  0.83648350  0.83648350  0.83648350  1
  Tm  Tm4  1  0.16351650  0.16351650  0.16351650  1
  Mg  Mg0  1  0.50000000  0.50000000  0.50000000  1
loop_
_geom_bond_atom_site_label_1
_geom_bond_atom_site_label_2
_geom_bond_distance
_geom_bond_site_symmetry_2
Tm0 Tm3 3.403430 1_544
Tm0 Tm4 3.403430 1_655
Tm0 Tm2 3.430049 1_564
Tm0 Tm1 3.430049 1_555
Tm0 Tm2 3.430050 1_555
Tm0 Tm1 3.430050 1_654
Tm0 Tm4 3.434640 1_555
Tm0 Tm3 3.434640 1_554
Tm0 Tm2 3.584061 1_654
Tm0 Tm1 3.584061 1_645
Tm1 Tm4 3.403430 1_565
Tm1 Tm3 3.403430 1_454
Tm1 Tm2 3.430049 1_555
Tm1 Tm2 3.430049 1_465
Tm1 Tm4 3.434640 1_555
Tm1 Tm3 3.434640 1_455
Tm1 Tm2 3.584061 1_564
Tm2 Tm3 3.403430 1_445
Tm2 Tm4 3.403430 1_556
Tm2 Tm3 3.434640 1_545
Tm2 Tm4 3.434640 1_555
Tm3 Tm4 3.482163 1_566
Tm3 Tm4 3.482163 1_656
Tm3 Tm4 3.482163 1_665
Mg0 Tm2 3.392240 1_555
Mg0 Tm1 3.392240 1_655
Mg0 Tm1 3.392240 1_555
Mg0 Tm2 3.392240 1_565
Mg0 Tm0 3.392240 1_555
Mg0 Tm0 3.392240 1_556
Mg0 Tm3 3.480995 1_545
Mg0 Tm4 3.480995 1_565
Mg0 Tm3 3.480995 1_455
Mg0 Tm4 3.480995 1_655
Mg0 Tm4 3.480996 1_556
Mg0 Tm3 3.480996 1_554
