# generated using pymatgen
data_LiHg3
_symmetry_space_group_name_H-M   'P 1'
_cell_length_a   6.52643709
_cell_length_b   6.52643709
_cell_length_c   4.71046250
_cell_angle_alpha   90.00000000
_cell_angle_beta   90.00000000
_cell_angle_gamma   120.00015524
_symmetry_Int_Tables_number   1
_chemical_formula_structural   LiHg3
_chemical_formula_sum   'Li2 Hg6'
_cell_volume   173.75840275
_cell_formula_units_Z   2
loop_
 _symmetry_equiv_pos_site_id
 _symmetry_equiv_pos_as_xyz
  1  'x, y, z'
loop_
 _atom_site_type_symbol
 _atom_site_label
 _atom_site_symmetry_multiplicity
 _atom_site_fract_x
 _atom_site_fract_y
 _atom_site_fract_z
 _atom_site_occupancy
  Li  Li0  1  0.33333300  0.66666700  0.25000000  1
  Li  Li1  1  0.66666700  0.33333300  0.75000000  1
  Hg  Hg0  1  0.82810110  0.17189890  0.25000000  1
  Hg  Hg1  1  0.82810110  0.65620220  0.25000000  1
  Hg  Hg2  1  0.34379780  0.17189890  0.25000000  1
  Hg  Hg3  1  0.17189890  0.82810110  0.75000000  1
  Hg  Hg4  1  0.17189890  0.34379780  0.75000000  1
  Hg  Hg5  1  0.65620220  0.82810110  0.75000000  1
loop_
_geom_bond_atom_site_label_1
_geom_bond_atom_site_label_2
_geom_bond_distance
_geom_bond_site_symmetry_2
Hg0 Li1 2.979475 1_554
Hg0 Li1 2.979475 1_555
Hg0 Li0 3.263747 1_545
Hg0 Li0 3.263747 1_655
Hg1 Li1 2.979476 1_554
Hg1 Li1 2.979476 1_555
Hg1 Li0 3.263751 1_655
Hg1 Li0 3.263758 1_555
Hg2 Li1 2.979476 1_555
Hg2 Li1 2.979476 1_554
Hg2 Li0 3.263751 1_545
Hg2 Li0 3.263758 1_555
Hg3 Li0 2.979475 1_556
Hg3 Li0 2.979475 1_555
Hg3 Li1 3.263747 1_455
Hg3 Li1 3.263747 1_565
Hg4 Li0 2.979476 1_556
Hg4 Li0 2.979476 1_555
Hg4 Li1 3.263751 1_455
Hg4 Li1 3.263758 1_555
Hg5 Li0 2.979476 1_556
Hg5 Li0 2.979476 1_555
Hg5 Li1 3.263751 1_565
Hg5 Li1 3.263758 1_555
