# generated using pymatgen
data_CeHfMg6
_symmetry_space_group_name_H-M   'P 1'
_cell_length_a   5.05996200
_cell_length_b   6.50499100
_cell_length_c   11.53685400
_cell_angle_alpha   90.00000000
_cell_angle_beta   90.00000000
_cell_angle_gamma   90.00000000
_symmetry_Int_Tables_number   1
_chemical_formula_structural   CeHfMg6
_chemical_formula_sum   'Ce2 Hf2 Mg12'
_cell_volume   379.73563329
_cell_formula_units_Z   2
loop_
 _symmetry_equiv_pos_site_id
 _symmetry_equiv_pos_as_xyz
  1  'x, y, z'
loop_
 _atom_site_type_symbol
 _atom_site_label
 _atom_site_symmetry_multiplicity
 _atom_site_fract_x
 _atom_site_fract_y
 _atom_site_fract_z
 _atom_site_occupancy
  Ce  Ce0  1  0.00000000  0.50000000  0.31229800  1
  Ce  Ce1  1  0.00000000  0.00000000  0.81229800  1
  Hf  Hf0  1  0.50000000  0.50000000  0.18598300  1
  Hf  Hf1  1  0.50000000  0.00000000  0.68598300  1
  Mg  Mg0  1  0.00000000  0.26113400  0.07488700  1
  Mg  Mg1  1  0.00000000  0.73886600  0.07488700  1
  Mg  Mg2  1  0.00000000  0.00000000  0.32919900  1
  Mg  Mg3  1  0.50000000  0.75550800  0.42605400  1
  Mg  Mg4  1  0.50000000  0.24449200  0.42605400  1
  Mg  Mg5  1  0.50000000  0.00000000  0.17063800  1
  Mg  Mg6  1  0.00000000  0.76113300  0.57488700  1
  Mg  Mg7  1  0.00000000  0.23886600  0.57488700  1
  Mg  Mg8  1  0.00000000  0.50000000  0.82919900  1
  Mg  Mg9  1  0.50000000  0.25550800  0.92605400  1
  Mg  Mg10  1  0.50000000  0.74449200  0.92605400  1
  Mg  Mg11  1  0.50000000  0.50000000  0.67063800  1
loop_
_geom_bond_atom_site_label_1
_geom_bond_atom_site_label_2
_geom_bond_distance
_geom_bond_site_symmetry_2
Ce0 Hf0 2.919668 1_455
Ce0 Hf0 2.919668 1_555
Ce0 Mg1 3.149024 1_555
Ce0 Mg0 3.149024 1_555
Ce0 Mg2 3.258335 1_565
Ce0 Mg2 3.258335 1_555
Ce0 Mg3 3.299343 1_455
Ce0 Mg3 3.299343 1_555
Ce0 Mg4 3.299343 1_455
Ce0 Mg4 3.299343 1_555
Ce0 Mg6 3.473190 1_555
Ce0 Mg7 3.473193 1_555
Ce1 Hf1 2.919668 1_555
Ce1 Hf1 2.919668 1_455
Ce1 Mg7 3.149024 1_555
Ce1 Mg6 3.149027 1_545
Ce1 Mg8 3.258335 1_555
Ce1 Mg8 3.258335 1_545
Ce1 Mg9 3.299343 1_455
Ce1 Mg9 3.299343 1_555
Ce1 Mg10 3.299343 1_545
Ce1 Mg10 3.299343 1_445
Ce1 Mg0 3.473193 1_556
Ce1 Mg1 3.473193 1_546
Hf0 Mg3 3.230099 1_555
Hf0 Mg4 3.230099 1_555
Hf0 Mg1 3.233870 1_655
Hf0 Mg1 3.233870 1_555
Hf0 Mg0 3.233870 1_655
Hf0 Mg0 3.233870 1_555
Hf0 Mg5 3.257310 1_555
Hf0 Mg5 3.257310 1_565
Hf0 Mg10 3.394409 1_554
Hf0 Mg9 3.394409 1_554
Hf1 Mg9 3.230099 1_555
Hf1 Mg10 3.230099 1_545
Hf1 Mg7 3.233870 1_655
Hf1 Mg7 3.233870 1_555
Hf1 Mg6 3.233873 1_545
Hf1 Mg6 3.233873 1_645
Hf1 Mg11 3.257310 1_545
Hf1 Mg11 3.257310 1_555
Hf1 Mg4 3.394409 1_555
Hf1 Mg3 3.394409 1_545
Mg0 Mg9 3.057851 1_554
Mg0 Mg9 3.057851 1_454
Mg0 Mg1 3.107642 1_555
Mg0 Mg8 3.232423 1_554
Mg0 Mg5 3.241386 1_555
Mg0 Mg5 3.241386 1_455
Mg0 Mg2 3.390224 1_555
Mg0 Mg1 3.397349 1_545
Mg1 Mg10 3.057851 1_554
Mg1 Mg10 3.057851 1_454
Mg1 Mg8 3.232423 1_554
Mg1 Mg5 3.241386 1_465
Mg1 Mg5 3.241386 1_565
Mg1 Mg2 3.390224 1_565
Mg2 Mg5 3.122039 1_455
Mg2 Mg5 3.122039 1_555
Mg2 Mg3 3.190427 1_445
Mg2 Mg4 3.190427 1_555
Mg2 Mg3 3.190427 1_545
Mg2 Mg4 3.190427 1_455
Mg2 Mg7 3.232423 1_555
Mg2 Mg6 3.232427 1_545
Mg3 Mg6 3.057851 1_655
Mg3 Mg6 3.057851 1_555
Mg3 Mg4 3.180837 1_565
Mg3 Mg4 3.324154 1_555
Mg3 Mg5 3.348500 1_565
Mg4 Mg7 3.057851 1_655
Mg4 Mg7 3.057851 1_555
Mg4 Mg5 3.348500 1_555
Mg5 Mg9 3.274853 1_554
Mg6 Mg7 3.107649 1_565
Mg6 Mg8 3.390221 1_555
Mg6 Mg7 3.397342 1_555
Mg7 Mg8 3.390224 1_555
Mg8 Mg9 3.190427 1_455
Mg8 Mg9 3.190427 1_555
Mg10 Mg9 3.180837 1_555
Mg10 Mg8 3.190427 1_555
Mg10 Mg8 3.190427 1_655
Mg10 Mg5 3.274853 1_566
Mg10 Mg9 3.324154 1_565
Mg10 Mg11 3.348500 1_555
Mg11 Mg8 3.122039 1_655
Mg11 Mg8 3.122039 1_555
Mg11 Mg6 3.241383 1_555
Mg11 Mg6 3.241383 1_655
Mg11 Mg7 3.241386 1_555
Mg11 Mg7 3.241386 1_655
Mg11 Mg3 3.274853 1_555
Mg11 Mg4 3.274853 1_555
Mg11 Mg9 3.348500 1_555
