# generated using pymatgen
data_K2B(PO4)2
_symmetry_space_group_name_H-M   'P 1'
_cell_length_a   8.97916019
_cell_length_b   8.97916019
_cell_length_c   8.97916019
_cell_angle_alpha   131.73217985
_cell_angle_beta   131.73217985
_cell_angle_gamma   70.65235001
_symmetry_Int_Tables_number   1
_chemical_formula_structural   K2B(PO4)2
_chemical_formula_sum   'K4 B2 P4 O16'
_cell_volume   394.96793951
_cell_formula_units_Z   2
loop_
 _symmetry_equiv_pos_site_id
 _symmetry_equiv_pos_as_xyz
  1  'x, y, z'
loop_
 _atom_site_type_symbol
 _atom_site_label
 _atom_site_symmetry_multiplicity
 _atom_site_fract_x
 _atom_site_fract_y
 _atom_site_fract_z
 _atom_site_occupancy
  K  K0  1  0.51298600  0.12500000  0.88798600  1
  K  K1  1  0.23701400  0.62500000  0.11201400  1
  K  K2  1  0.87500000  0.76298600  0.38798600  1
  K  K3  1  0.37500000  0.48701400  0.61201400  1
  B  B0  1  0.75000000  0.25000000  0.50000000  1
  B  B1  1  0.00000000  0.00000000  0.00000000  1
  P  P0  1  0.02671400  0.12500000  0.40171400  1
  P  P1  1  0.72328600  0.62500000  0.59828600  1
  P  P2  1  0.87500000  0.27671400  0.90171400  1
  P  P3  1  0.37500000  0.97328600  0.09828600  1
  O  O0  1  0.19263700  0.31366400  0.66367600  1
  O  O1  1  0.64998800  0.52896000  0.33632400  1
  O  O2  1  0.68633600  0.35001200  0.87897300  1
  O  O3  1  0.55736300  0.72104000  0.62102700  1
  O  O4  1  0.47104000  0.80736300  0.12102700  1
  O  O5  1  0.10001200  0.93633600  0.37897300  1
  O  O6  1  0.06366400  0.44263700  0.16367600  1
  O  O7  1  0.27896000  0.89998800  0.83632400  1
  O  O8  1  0.81668200  0.13887900  0.34520100  1
  O  O9  1  0.79367800  0.47148200  0.65479900  1
  O  O10  1  0.86112100  0.20632200  0.67780300  1
  O  O11  1  0.93331800  0.77851800  0.82219700  1
  O  O12  1  0.52851800  0.18331800  0.32219700  1
  O  O13  1  0.95632200  0.11112100  0.17780300  1
  O  O14  1  0.88887900  0.06668200  0.84520100  1
  O  O15  1  0.22148200  0.04367800  0.15479900  1
loop_
_geom_bond_atom_site_label_1
_geom_bond_atom_site_label_2
_geom_bond_distance
_geom_bond_site_symmetry_2
K0 O3 2.792871 1_545
K0 O1 2.792873 1_556
K0 O5 2.966685 1_545
K0 O0 2.966685 1_555
K0 O8 2.990985 1_556
K0 O13 2.990985 1_556
K0 O2 2.996767 1_555
K0 O7 2.996774 1_545
K1 O0 2.792877 1_554
K1 O5 2.792877 1_555
K1 O3 2.966681 1_555
K1 O1 2.966688 1_555
K1 O11 2.990978 1_454
K1 O9 2.990985 1_454
K1 O6 2.996767 1_555
K1 O4 2.996775 1_555
K2 O4 2.792871 1_555
K2 O7 2.792873 1_655
K2 O6 2.966685 1_655
K2 O2 2.966685 1_554
K2 O10 2.990985 1_565
K2 O14 2.990985 1_565
K2 O5 2.996767 1_655
K2 O1 2.996774 1_555
K3 O6 2.792877 1_555
K3 O2 2.792877 1_555
K3 O4 2.966681 1_556
K3 O7 2.966688 1_555
K3 O12 2.990978 1_555
K3 O15 2.990985 1_555
K3 O0 2.996767 1_555
K3 O3 2.996775 1_555
B0 O10 1.466911 1_555
B0 O8 1.466911 1_555
B0 O12 1.466918 1_555
B0 O9 1.466918 1_555
B1 O13 1.466911 1_455
B1 O14 1.466911 1_454
B1 O11 1.466918 1_444
B1 O15 1.466918 1_555
O0 P0 1.524562 1_555
O1 P1 1.524559 1_555
O2 P2 1.524562 1_555
O3 P1 1.524563 1_555
O4 P3 1.524563 1_555
O5 P0 1.524562 1_565
O6 P2 1.524562 1_454
O7 P3 1.524559 1_556
O8 P0 1.576107 1_655
O9 P1 1.576098 1_555
O10 P2 1.576107 1_555
O11 P1 1.576103 1_555
O12 P3 1.576103 1_545
O13 P0 1.576107 1_655
O14 P2 1.576107 1_555
O15 P3 1.576098 1_545
