# generated using pymatgen
data_Nd4Cr3Fe25B2
_symmetry_space_group_name_H-M   'P 1'
_cell_length_a   8.76496489
_cell_length_b   8.76496489
_cell_length_c   12.13701700
_cell_angle_alpha   90.00000000
_cell_angle_beta   90.00000000
_cell_angle_gamma   90.21821523
_symmetry_Int_Tables_number   1
_chemical_formula_structural   Nd4Cr3Fe25B2
_chemical_formula_sum   'Nd8 Cr6 Fe50 B4'
_cell_volume   932.41482978
_cell_formula_units_Z   2
loop_
 _symmetry_equiv_pos_site_id
 _symmetry_equiv_pos_as_xyz
  1  'x, y, z'
loop_
 _atom_site_type_symbol
 _atom_site_label
 _atom_site_symmetry_multiplicity
 _atom_site_fract_x
 _atom_site_fract_y
 _atom_site_fract_z
 _atom_site_occupancy
  Nd  Nd0  1  0.23393300  0.76606700  0.49946300  1
  Nd  Nd1  1  0.76606700  0.23393300  0.49946300  1
  Nd  Nd2  1  0.26647000  0.26647000  0.00049100  1
  Nd  Nd3  1  0.73353000  0.73353000  0.00049100  1
  Nd  Nd4  1  0.64187100  0.64187100  0.49957100  1
  Nd  Nd5  1  0.35812900  0.35812900  0.49957100  1
  Nd  Nd6  1  0.85772100  0.14227900  0.00069400  1
  Nd  Nd7  1  0.14227900  0.85772100  0.00069400  1
  Cr  Cr0  1  0.67805000  0.67805000  0.24512000  1
  Cr  Cr1  1  0.32195000  0.32195000  0.24512000  1
  Cr  Cr2  1  0.50000000  0.50000000  0.11730300  1
  Cr  Cr3  1  0.00000000  0.00000000  0.62032700  1
  Cr  Cr4  1  0.50000000  0.50000000  0.87925200  1
  Cr  Cr5  1  0.00000000  0.00000000  0.37779600  1
  Fe  Fe0  1  0.40203000  0.59797000  0.29388400  1
  Fe  Fe1  1  0.59797000  0.40203000  0.29388400  1
  Fe  Fe2  1  0.09952200  0.09952200  0.79394700  1
  Fe  Fe3  1  0.90047800  0.90047800  0.79394700  1
  Fe  Fe4  1  0.59967800  0.40032200  0.70552500  1
  Fe  Fe5  1  0.40032200  0.59967800  0.70552500  1
  Fe  Fe6  1  0.89958900  0.89958900  0.20666100  1
  Fe  Fe7  1  0.10041100  0.10041100  0.20666100  1
  Fe  Fe8  1  0.14049400  0.53769600  0.32381000  1
  Fe  Fe9  1  0.85950600  0.46230400  0.32381000  1
  Fe  Fe10  1  0.35989200  0.03764000  0.82413000  1
  Fe  Fe11  1  0.64010800  0.96236000  0.82413000  1
  Fe  Fe12  1  0.85983200  0.46200200  0.67558900  1
  Fe  Fe13  1  0.14016800  0.53799800  0.67558900  1
  Fe  Fe14  1  0.64082700  0.96129600  0.17645200  1
  Fe  Fe15  1  0.35917300  0.03870400  0.17645200  1
  Fe  Fe16  1  0.53769600  0.14049400  0.32381000  1
  Fe  Fe17  1  0.46230400  0.85950600  0.32381000  1
  Fe  Fe18  1  0.03764000  0.35989200  0.82413000  1
  Fe  Fe19  1  0.96236000  0.64010800  0.82413000  1
  Fe  Fe20  1  0.46200200  0.85983200  0.67558900  1
  Fe  Fe21  1  0.53799800  0.14016800  0.67558900  1
  Fe  Fe22  1  0.96129600  0.64082700  0.17645200  1
  Fe  Fe23  1  0.03870400  0.35917300  0.17645200  1
  Fe  Fe24  1  0.93259000  0.72301000  0.37275200  1
  Fe  Fe25  1  0.06741000  0.27699000  0.37275200  1
  Fe  Fe26  1  0.56714200  0.22346300  0.87352200  1
  Fe  Fe27  1  0.43285800  0.77653700  0.87352200  1
  Fe  Fe28  1  0.06670800  0.27637300  0.62638000  1
  Fe  Fe29  1  0.93329200  0.72362700  0.62638000  1
  Fe  Fe30  1  0.43331400  0.77677000  0.12861900  1
  Fe  Fe31  1  0.56668600  0.22323000  0.12861900  1
  Fe  Fe32  1  0.72301000  0.93259000  0.37275200  1
  Fe  Fe33  1  0.27699000  0.06741000  0.37275200  1
  Fe  Fe34  1  0.22346300  0.56714200  0.87352200  1
  Fe  Fe35  1  0.77653700  0.43285800  0.87352200  1
  Fe  Fe36  1  0.27637300  0.06670800  0.62638000  1
  Fe  Fe37  1  0.72362700  0.93329200  0.62638000  1
  Fe  Fe38  1  0.77677000  0.43331400  0.12861900  1
  Fe  Fe39  1  0.22323000  0.56668600  0.12861900  1
  Fe  Fe40  1  0.00000000  0.50000000  0.49910800  1
  Fe  Fe41  1  0.50000000  0.00000000  0.00106300  1
  Fe  Fe42  1  0.50000000  0.00000000  0.49910800  1
  Fe  Fe43  1  0.00000000  0.50000000  0.00106300  1
  Fe  Fe44  1  0.18123000  0.81877000  0.25414600  1
  Fe  Fe45  1  0.81877000  0.18123000  0.25414600  1
  Fe  Fe46  1  0.31804000  0.31804000  0.75372600  1
  Fe  Fe47  1  0.68196000  0.68196000  0.75372600  1
  Fe  Fe48  1  0.81830500  0.18169500  0.74585800  1
  Fe  Fe49  1  0.18169500  0.81830500  0.74585800  1
  B  B0  1  0.87412900  0.87412900  0.49939500  1
  B  B1  1  0.12587100  0.12587100  0.49939500  1
  B  B2  1  0.62670800  0.37329200  0.00150000  1
  B  B3  1  0.37329200  0.62670800  0.00150000  1
loop_
_geom_bond_atom_site_label_1
_geom_bond_atom_site_label_2
_geom_bond_distance
_geom_bond_site_symmetry_2
Nd0 Nd4 3.741562 1_555
Nd0 Nd5 3.741562 1_555
Nd1 Nd4 3.741562 1_555
Nd1 Nd5 3.741562 1_555
Nd4 Nd5 3.510429 1_555
Cr0 Fe0 2.585160 1_555
Cr0 Fe1 2.585160 1_555
Cr0 Fe22 2.640212 1_555
Cr0 Fe14 2.640212 1_555
Cr0 Fe17 2.653395 1_555
Cr0 Fe9 2.653395 1_555
Cr0 Cr2 2.694251 1_555
Cr0 Fe38 2.713601 1_555
Cr0 Fe30 2.713601 1_555
Cr0 Fe32 2.743307 1_555
Cr0 Fe24 2.743307 1_555
Cr0 Fe6 2.780322 1_555
Cr0 Nd3 3.047374 1_555
Cr0 Nd4 3.120544 1_555
Cr1 Fe0 2.585160 1_555
Cr1 Fe1 2.585160 1_555
Cr1 Fe23 2.640212 1_555
Cr1 Fe15 2.640212 1_555
Cr1 Fe16 2.653395 1_555
Cr1 Fe8 2.653395 1_555
Cr1 Cr2 2.694251 1_555
Cr1 Fe31 2.713601 1_555
Cr1 Fe39 2.713601 1_555
Cr1 Fe33 2.743307 1_555
Cr1 Fe25 2.743307 1_555
Cr1 Fe7 2.780322 1_555
Cr1 Nd2 3.047374 1_555
Cr1 Nd5 3.120544 1_555
Cr2 Fe1 2.464452 1_555
Cr2 Fe0 2.464452 1_555
Cr2 Nd2 3.218315 1_555
Cr2 Nd3 3.218315 1_555
Cr3 Fe3 2.440585 1_445
Cr3 Fe2 2.440585 1_555
Cr3 Fe49 2.722687 1_545
Cr3 Fe48 2.722687 1_455
Cr3 Nd0 3.254582 1_545
Cr3 Nd1 3.254582 1_455
Cr4 Fe4 2.445059 1_555
Cr4 Fe5 2.445059 1_555
Cr4 Fe46 2.718263 1_555
Cr4 Fe47 2.718263 1_555
Cr4 Nd2 3.242344 1_556
Cr4 Nd3 3.242344 1_556
Cr5 Fe6 2.420219 1_445
Cr5 Fe7 2.420219 1_555
Cr5 Fe44 2.705171 1_545
Cr5 Fe45 2.705171 1_455
Cr5 Nd1 3.258986 1_455
Cr5 Nd0 3.258986 1_545
Fe0 Fe17 2.378379 1_555
Fe0 Fe8 2.378379 1_555
Fe0 Fe1 2.433401 1_555
Fe0 Fe30 2.559548 1_555
Fe0 Fe39 2.559548 1_555
Fe0 Fe44 2.784232 1_555
Fe0 Nd0 3.253267 1_555
Fe0 Nd4 3.285313 1_555
Fe0 Nd5 3.285313 1_555
Fe1 Fe16 2.378379 1_555
Fe1 Fe9 2.378379 1_555
Fe1 Fe31 2.559548 1_555
Fe1 Fe38 2.559548 1_555
Fe1 Fe45 2.784232 1_555
Fe1 Nd1 3.253267 1_555
Fe1 Nd4 3.285313 1_555
Fe1 Nd5 3.285313 1_555
Fe2 Fe3 2.462553 1_445
Fe2 Fe28 2.573927 1_555
Fe2 Fe36 2.573927 1_555
Fe2 Fe48 2.635991 1_455
Fe2 Fe49 2.635991 1_545
Fe2 Fe46 2.747204 1_555
Fe2 Nd2 3.248127 1_556
Fe2 Nd7 3.306781 1_546
Fe2 Nd6 3.306781 1_456
Fe3 Fe37 2.573927 1_555
Fe3 Fe49 2.635991 1_655
Fe3 Fe48 2.635991 1_565
Fe3 Fe47 2.747204 1_555
Fe3 Nd3 3.248127 1_556
Fe3 Nd7 3.306781 1_656
Fe3 Nd6 3.306781 1_566
Fe4 Fe5 2.475825 1_555
Fe4 Fe47 2.634869 1_555
Fe4 Fe46 2.634869 1_555
Fe4 Fe48 2.758929 1_555
Fe4 Nd1 3.244213 1_555
Fe4 Nd4 3.295685 1_555
Fe4 Nd5 3.295685 1_555
Fe5 Nd0 3.244213 1_555
Fe5 Nd4 3.295685 1_555
Fe5 Nd5 3.295685 1_555
Fe6 Fe7 2.484551 1_665
Fe6 Nd3 3.237635 1_555
Fe6 Nd7 3.303723 1_655
Fe6 Nd6 3.303723 1_565
Fe7 Nd2 3.237635 1_555
Fe7 Nd7 3.303723 1_545
Fe7 Nd6 3.303723 1_455
Fe8 Fe9 2.547528 1_455
Fe8 Nd0 3.034786 1_555
Fe8 Nd5 3.269469 1_555
Fe9 Nd1 3.034786 1_555
Fe9 Nd4 3.269469 1_555
Fe10 Fe2 2.376121 1_555
Fe10 Fe27 2.452964 1_545
Fe10 Fe41 2.496299 1_556
Fe10 Fe26 2.507870 1_555
Fe10 Fe36 2.522434 1_555
Fe10 Fe11 2.545596 1_545
Fe10 Fe21 2.546400 1_555
Fe10 Fe20 2.547694 1_545
Fe10 Fe46 2.629042 1_555
Fe10 Fe49 2.648580 1_545
Fe10 Nd2 3.047542 1_556
Fe10 Nd7 3.270215 1_546
Fe11 Fe3 2.376121 1_555
Fe11 Fe26 2.452964 1_565
Fe11 Fe41 2.496299 1_566
Fe11 Fe27 2.507870 1_555
Fe11 Fe37 2.522434 1_555
Fe11 Fe20 2.546400 1_555
Fe11 Fe21 2.547694 1_565
Fe11 Fe47 2.629042 1_555
Fe11 Fe48 2.648580 1_565
Fe11 Nd3 3.047542 1_556
Fe11 Nd6 3.270215 1_566
Fe12 Fe4 2.369471 1_555
Fe12 Fe29 2.453263 1_555
Fe12 Fe40 2.491013 1_655
Fe12 Fe28 2.512833 1_655
Fe12 Fe35 2.523483 1_555
Fe12 Fe13 2.543372 1_655
Fe12 Fe19 2.546400 1_555
Fe12 Fe18 2.547694 1_655
Fe12 Fe48 2.624748 1_555
Fe12 Fe47 2.658903 1_555
Fe12 Nd1 3.037846 1_555
Fe12 Nd4 3.274456 1_555
Fe13 Fe5 2.369471 1_555
Fe13 Fe28 2.453263 1_555
Fe13 Fe40 2.491013 1_555
Fe13 Fe29 2.512833 1_455
Fe13 Fe34 2.523483 1_555
Fe13 Fe18 2.546400 1_555
Fe13 Fe19 2.547694 1_455
Fe13 Fe49 2.624748 1_555
Fe13 Fe46 2.658903 1_555
Fe13 Nd0 3.037846 1_555
Fe13 Nd5 3.274456 1_555
Fe14 Fe6 2.362268 1_555
Fe14 Fe31 2.457965 1_565
Fe14 Fe41 2.484600 1_565
Fe14 Fe30 2.497737 1_555
Fe14 Fe32 2.501970 1_555
Fe14 Fe17 2.536234 1_555
Fe14 Fe16 2.548253 1_565
Fe14 Fe15 2.562715 1_565
Fe14 Fe45 2.648571 1_565
Fe14 Nd3 3.036280 1_555
Fe14 Nd6 3.264646 1_565
Fe15 Fe7 2.362268 1_555
Fe15 Fe30 2.457965 1_545
Fe15 Fe41 2.484600 1_555
Fe15 Fe31 2.497737 1_555
Fe15 Fe33 2.501970 1_555
Fe15 Fe16 2.536234 1_555
Fe15 Fe17 2.548253 1_545
Fe15 Fe44 2.648571 1_545
Fe15 Nd2 3.036280 1_555
Fe15 Nd7 3.264646 1_545
Fe16 Fe33 2.444100 1_555
Fe16 Fe42 2.479745 1_555
Fe16 Fe31 2.490257 1_555
Fe16 Fe32 2.516808 1_545
Fe16 Fe17 2.547528 1_545
Fe16 Fe45 2.627740 1_555
Fe16 Nd1 3.034786 1_555
Fe16 Nd5 3.269469 1_555
Fe17 Fe32 2.444100 1_555
Fe17 Fe42 2.479745 1_565
Fe17 Fe30 2.490257 1_555
Fe17 Fe33 2.516808 1_565
Fe17 Fe44 2.627740 1_555
Fe17 Nd0 3.034786 1_555
Fe17 Nd4 3.269469 1_555
Fe18 Fe2 2.376121 1_555
Fe18 Fe35 2.452964 1_455
Fe18 Fe43 2.496299 1_556
Fe18 Fe34 2.507870 1_555
Fe18 Fe28 2.522434 1_555
Fe18 Fe19 2.545596 1_455
Fe18 Fe46 2.629042 1_555
Fe18 Fe48 2.648580 1_455
Fe18 Nd2 3.047542 1_556
Fe18 Nd6 3.270215 1_456
Fe19 Fe3 2.376121 1_555
Fe19 Fe34 2.452964 1_655
Fe19 Fe43 2.496299 1_656
Fe19 Fe35 2.507870 1_555
Fe19 Fe29 2.522434 1_555
Fe19 Fe47 2.629042 1_555
Fe19 Fe49 2.648580 1_655
Fe19 Nd3 3.047542 1_556
Fe19 Nd7 3.270215 1_656
Fe20 Fe5 2.369471 1_555
Fe20 Fe37 2.453263 1_555
Fe20 Fe42 2.491013 1_565
Fe20 Fe36 2.512833 1_565
Fe20 Fe27 2.523483 1_555
Fe20 Fe21 2.543372 1_565
Fe20 Fe49 2.624748 1_555
Fe20 Fe47 2.658903 1_555
Fe20 Nd0 3.037846 1_555
Fe20 Nd4 3.274456 1_555
Fe21 Fe4 2.369471 1_555
Fe21 Fe36 2.453263 1_555
Fe21 Fe42 2.491013 1_555
Fe21 Fe37 2.512833 1_545
Fe21 Fe26 2.523483 1_555
Fe21 Fe48 2.624748 1_555
Fe21 Fe46 2.658903 1_555
Fe21 Nd1 3.037846 1_555
Fe21 Nd5 3.274456 1_555
Fe22 Fe6 2.362268 1_555
Fe22 Fe39 2.457965 1_655
Fe22 Fe43 2.484600 1_655
Fe22 Fe38 2.497737 1_555
Fe22 Fe24 2.501970 1_555
Fe22 Fe9 2.536234 1_555
Fe22 Fe8 2.548253 1_655
Fe22 Fe23 2.562715 1_655
Fe22 Fe44 2.648571 1_655
Fe22 Nd3 3.036280 1_555
Fe22 Nd7 3.264646 1_655
Fe23 Fe7 2.362268 1_555
Fe23 Fe38 2.457965 1_455
Fe23 Fe43 2.484600 1_555
Fe23 Fe39 2.497737 1_555
Fe23 Fe25 2.501970 1_555
Fe23 Fe8 2.536234 1_555
Fe23 Fe9 2.548253 1_455
Fe23 Fe45 2.648571 1_455
Fe23 Nd2 3.036280 1_555
Fe23 Nd6 3.264646 1_455
Fe24 Fe9 2.444100 1_555
Fe24 Fe8 2.516808 1_655
Fe24 Fe40 2.555491 1_655
Fe24 Fe6 2.558540 1_555
Fe24 Fe44 2.740842 1_655
Fe24 Nd4 3.058456 1_555
Fe24 Nd0 3.078345 1_655
Fe25 Fe8 2.444100 1_555
Fe25 Fe9 2.516808 1_455
Fe25 Fe40 2.555491 1_555
Fe25 Fe7 2.558540 1_555
Fe25 Fe45 2.740842 1_455
Fe25 Nd5 3.058456 1_555
Fe25 Nd1 3.078345 1_455
Fe26 Fe41 2.563210 1_556
Fe26 Fe4 2.576512 1_555
Fe26 Fe48 2.717960 1_555
Fe26 Fe46 2.753560 1_555
Fe26 Nd6 3.064192 1_556
Fe26 Nd2 3.077279 1_556
Fe27 Fe41 2.563210 1_566
Fe27 Fe5 2.576512 1_555
Fe27 Fe49 2.717960 1_555
Fe27 Fe47 2.753560 1_555
Fe27 Nd7 3.064192 1_556
Fe27 Nd3 3.077279 1_556
Fe28 Fe40 2.564883 1_555
Fe28 Fe46 2.714585 1_555
Fe28 Fe48 2.741913 1_455
Fe28 Nd5 3.064760 1_555
Fe28 Nd1 3.073681 1_455
Fe29 Fe40 2.564883 1_655
Fe29 Fe3 2.573927 1_555
Fe29 Fe47 2.714585 1_555
Fe29 Fe49 2.741913 1_655
Fe29 Nd4 3.064760 1_555
Fe29 Nd0 3.073681 1_655
Fe30 Fe41 2.560858 1_565
Fe30 Fe44 2.710122 1_555
Fe30 Nd7 3.071649 1_555
Fe30 Nd3 3.081188 1_555
Fe31 Fe41 2.560858 1_555
Fe31 Fe45 2.710122 1_555
Fe31 Nd6 3.071649 1_555
Fe31 Nd2 3.081188 1_555
Fe32 Fe42 2.555491 1_565
Fe32 Fe6 2.558540 1_555
Fe32 Fe45 2.740842 1_565
Fe32 Nd4 3.058456 1_555
Fe32 Nd1 3.078345 1_565
Fe33 Fe42 2.555491 1_555
Fe33 Fe7 2.558540 1_555
Fe33 Fe44 2.740842 1_545
Fe33 Nd5 3.058456 1_555
Fe33 Nd0 3.078345 1_545
Fe34 Fe43 2.563210 1_556
Fe34 Fe5 2.576512 1_555
Fe34 Fe49 2.717960 1_555
Fe34 Fe46 2.753560 1_555
Fe34 Nd7 3.064192 1_556
Fe34 Nd2 3.077279 1_556
Fe35 Fe43 2.563210 1_656
Fe35 Fe4 2.576512 1_555
Fe35 Fe48 2.717960 1_555
Fe35 Fe47 2.753560 1_555
Fe35 Nd6 3.064192 1_556
Fe35 Nd3 3.077279 1_556
Fe36 Fe42 2.564883 1_555
Fe36 Fe46 2.714585 1_555
Fe36 Fe49 2.741913 1_545
Fe36 Nd5 3.064760 1_555
Fe36 Nd0 3.073681 1_545
Fe37 Fe42 2.564883 1_565
Fe37 Fe47 2.714585 1_555
Fe37 Fe48 2.741913 1_565
Fe37 Nd4 3.064760 1_555
Fe37 Nd1 3.073681 1_565
Fe38 Fe9 2.490257 1_555
Fe38 Fe43 2.560858 1_655
Fe38 Fe45 2.710122 1_555
Fe38 Nd6 3.071649 1_555
Fe38 Nd3 3.081188 1_555
Fe39 Fe8 2.490257 1_555
Fe39 Fe43 2.560858 1_555
Fe39 Fe44 2.710122 1_555
Fe39 Nd7 3.071649 1_555
Fe39 Nd2 3.081188 1_555
Fe40 Fe8 2.479745 1_555
Fe40 Fe9 2.479745 1_455
Fe40 Nd1 3.099409 1_455
Fe40 Nd0 3.099409 1_555
Fe40 Nd5 3.380723 1_555
Fe40 Nd4 3.380723 1_455
Fe41 Nd2 3.111466 1_555
Fe41 Nd3 3.111466 1_545
Fe41 Nd6 3.369901 1_555
Fe41 Nd7 3.369901 1_545
Fe42 Nd0 3.099409 1_545
Fe42 Nd1 3.099409 1_555
Fe42 Nd4 3.380723 1_545
Fe42 Nd5 3.380723 1_555
Fe43 Nd2 3.111466 1_555
Fe43 Nd3 3.111466 1_455
Fe43 Nd7 3.369901 1_555
Fe43 Nd6 3.369901 1_455
Fe44 Fe8 2.627740 1_555
Fe44 Fe7 2.634601 1_565
Fe44 Fe6 2.634601 1_455
Fe44 Nd0 3.048510 1_555
Fe44 Nd7 3.113954 1_555
Fe45 Fe9 2.627740 1_555
Fe45 Fe6 2.634601 1_545
Fe45 Fe7 2.634601 1_655
Fe45 Nd1 3.048510 1_555
Fe45 Nd6 3.113954 1_555
Fe46 Fe5 2.634869 1_555
Fe46 Nd2 3.062195 1_556
Fe46 Nd5 3.124303 1_555
Fe47 Fe5 2.634869 1_555
Fe47 Nd3 3.062195 1_556
Fe47 Nd4 3.124303 1_555
Fe48 Nd1 3.060060 1_555
Fe48 Nd6 3.131446 1_556
Fe49 Fe5 2.758929 1_555
Fe49 Nd0 3.060060 1_555
Fe49 Nd7 3.131446 1_556
B0 Fe24 2.093980 1_555
B0 Fe32 2.093980 1_555
B0 Fe37 2.095141 1_555
B0 Fe29 2.095141 1_555
B0 Cr3 2.139947 1_665
B0 Cr5 2.145507 1_665
B0 Nd4 2.873475 1_555
B0 Nd1 3.296285 1_565
B0 Nd0 3.296285 1_655
B1 Fe25 2.093980 1_555
B1 Fe33 2.093980 1_555
B1 Fe36 2.095141 1_555
B1 Fe28 2.095141 1_555
B1 Cr3 2.139947 1_555
B1 Cr5 2.145507 1_555
B1 Nd5 2.873475 1_555
B1 Nd0 3.296285 1_545
B1 Nd1 3.296285 1_455
B2 Fe38 2.093288 1_555
B2 Fe31 2.093288 1_555
B2 Fe26 2.098720 1_554
B2 Fe35 2.098720 1_554
B2 Cr2 2.109896 1_555
B2 Cr4 2.162791 1_554
B2 Nd6 2.868994 1_555
B2 Nd2 3.289971 1_555
B2 Nd3 3.289971 1_555
B3 Fe30 2.093288 1_555
B3 Fe39 2.093288 1_555
B3 Fe27 2.098720 1_554
B3 Fe34 2.098720 1_554
B3 Cr2 2.109896 1_555
B3 Cr4 2.162791 1_554
B3 Nd7 2.868994 1_555
B3 Nd3 3.289971 1_555
B3 Nd2 3.289971 1_555
