# generated using pymatgen
data_Li7Mn2(CoO4)3
_symmetry_space_group_name_H-M   'P 1'
_cell_length_a   2.88716100
_cell_length_b   5.13169281
_cell_length_c   14.77600542
_cell_angle_alpha   80.33509350
_cell_angle_beta   85.02469208
_cell_angle_gamma   88.85101355
_symmetry_Int_Tables_number   1
_chemical_formula_structural   Li7Mn2(CoO4)3
_chemical_formula_sum   'Li7 Mn2 Co3 O12'
_cell_volume   214.99785877
_cell_formula_units_Z   1
loop_
 _symmetry_equiv_pos_site_id
 _symmetry_equiv_pos_as_xyz
  1  'x, y, z'
loop_
 _atom_site_type_symbol
 _atom_site_label
 _atom_site_symmetry_multiplicity
 _atom_site_fract_x
 _atom_site_fract_y
 _atom_site_fract_z
 _atom_site_occupancy
  Li  Li0  1  0.09556000  0.42211400  0.82308100  1
  Li  Li1  1  0.74857500  0.76075100  0.50900400  1
  Li  Li2  1  0.41644600  0.08420800  0.17018000  1
  Li  Li3  1  0.58812300  0.90382500  0.82036800  1
  Li  Li4  1  0.24240900  0.25059900  0.50455400  1
  Li  Li5  1  0.91353000  0.57693800  0.17233300  1
  Li  Li6  1  0.16634200  0.83162000  0.66648800  1
  Mn  Mn0  1  0.00093700  0.99954800  0.99988400  1
  Mn  Mn1  1  0.66619400  0.33283000  0.66662100  1
  Co  Co0  1  0.33277200  0.66742100  0.33439600  1
  Co  Co1  1  0.50187500  0.50033700  0.99907500  1
  Co  Co2  1  0.83360300  0.16653100  0.33452000  1
  O  O0  1  0.52568400  0.18366400  0.92782600  1
  O  O1  1  0.19605600  0.52038400  0.59288300  1
  O  O2  1  0.88993600  0.86525300  0.25574300  1
  O  O3  1  0.04105000  0.72558300  0.92525900  1
  O  O4  1  0.70702000  0.06900400  0.58926300  1
  O  O5  1  0.38877900  0.36572000  0.25496900  1
  O  O6  1  0.62509100  0.59719500  0.74606200  1
  O  O7  1  0.27432600  0.97002000  0.40977100  1
  O  O8  1  0.96084700  0.27635600  0.07468100  1
  O  O9  1  0.13516300  0.14573100  0.74125100  1
  O  O10  1  0.77443000  0.47127500  0.40799400  1
  O  O11  1  0.47525300  0.81309500  0.07379300  1
loop_
_geom_bond_atom_site_label_1
_geom_bond_atom_site_label_2
_geom_bond_distance
_geom_bond_site_symmetry_2
Li0 O6 1.955313 1_455
Li0 O6 1.962063 1_555
Li0 O9 2.007982 1_555
Li0 O0 2.251984 1_555
Li0 O3 2.338343 1_555
Li0 O0 2.367060 1_455
Li1 O1 2.104101 1_655
Li1 O4 2.126181 1_565
Li1 O7 2.181266 1_655
Li1 O1 2.196579 1_555
Li1 O7 2.222287 1_555
Li1 O10 2.271695 1_555
Li2 O5 2.061234 1_555
Li2 O2 2.104716 1_445
Li2 O2 2.119175 1_545
Li2 O8 2.120485 1_455
Li2 O11 2.146333 1_545
Li2 O8 2.155040 1_555
Li3 O6 2.060561 1_555
Li3 O9 2.081041 1_565
Li3 O9 2.161772 1_665
Li3 O3 2.185479 1_655
Li3 O3 2.211526 1_555
Li3 O0 2.306820 1_565
Li4 O4 2.020864 1_555
Li4 O4 2.038372 1_455
Li4 O1 2.051103 1_555
Li4 O7 2.166211 1_545
Li4 O10 2.196497 1_555
Li4 O10 2.207747 1_455
Li5 O5 2.064392 1_555
Li5 O2 2.075171 1_555
Li5 O5 2.082079 1_655
Li5 O11 2.203509 1_555
Li5 O8 2.276973 1_555
Li5 O11 2.301222 1_655
Li6 O4 2.067755 1_465
Li6 O1 2.074302 1_555
Li6 O6 2.077308 1_555
Li6 O9 2.097996 1_565
Li6 O4 2.126825 1_565
Li6 O6 2.133869 1_455
Mn0 O3 1.922935 1_555
Mn0 O8 1.936756 1_466
Mn0 O0 1.939456 1_565
Mn0 O0 1.942350 1_465
Mn0 O11 1.957434 1_456
Mn0 O11 1.959457 1_556
Mn1 O4 1.908733 1_555
Mn1 O6 1.933001 1_555
Mn1 O1 1.951392 1_555
Mn1 O9 1.955123 1_655
Mn1 O1 1.967633 1_655
Mn1 O9 1.974531 1_555
Co0 O10 1.908736 1_555
Co0 O2 1.955886 1_455
Co0 O10 2.046428 1_455
Co0 O7 2.053733 1_555
Co0 O2 2.077027 1_555
Co0 O5 2.089905 1_555
Co1 O3 2.015591 1_555
Co1 O8 2.022291 1_556
Co1 O3 2.074448 1_655
Co1 O0 2.076373 1_555
Co1 O8 2.085014 1_456
Co1 O11 2.091902 1_556
Co2 O7 1.920893 1_645
Co2 O5 1.970191 1_555
Co2 O10 2.044664 1_555
Co2 O7 2.058640 1_545
Co2 O5 2.081159 1_655
Co2 O2 2.081594 1_545
