# generated using pymatgen
data_ZrSiTe
_symmetry_space_group_name_H-M   'P 1'
_cell_length_a   3.69120745
_cell_length_b   3.69120745
_cell_length_c   10.14537149
_cell_angle_alpha   90.00000000
_cell_angle_beta   90.00000000
_cell_angle_gamma   90.00000000
_symmetry_Int_Tables_number   1
_chemical_formula_structural   ZrSiTe
_chemical_formula_sum   'Zr2 Si2 Te2'
_cell_volume   138.23081275
_cell_formula_units_Z   2
loop_
 _symmetry_equiv_pos_site_id
 _symmetry_equiv_pos_as_xyz
  1  'x, y, z'
loop_
 _atom_site_type_symbol
 _atom_site_label
 _atom_site_symmetry_multiplicity
 _atom_site_fract_x
 _atom_site_fract_y
 _atom_site_fract_z
 _atom_site_occupancy
  Zr  Zr0  1  0.75000000  0.75000000  0.28990255  1
  Zr  Zr1  1  0.25000000  0.25000000  0.71009745  1
  Si  Si0  1  0.25000000  0.75000000  0.50000000  1
  Si  Si1  1  0.75000000  0.25000000  0.50000000  1
  Te  Te0  1  0.25000000  0.25000000  0.15560728  1
  Te  Te1  1  0.75000000  0.75000000  0.84439272  1
loop_
_geom_bond_atom_site_label_1
_geom_bond_atom_site_label_2
_geom_bond_distance
_geom_bond_site_symmetry_2
Si0 Si1 2.610078 1_455
Si0 Si1 2.610078 1_465
Si0 Si1 2.610078 1_555
Si0 Si1 2.610078 1_565
Si0 Zr0 2.819506 1_455
Si0 Zr1 2.819506 1_565
Si0 Zr0 2.819506 1_555
Si0 Zr1 2.819506 1_555
Si1 Zr0 2.819506 1_545
Si1 Zr1 2.819506 1_655
Si1 Zr0 2.819506 1_555
Si1 Zr1 2.819506 1_555
Te0 Zr0 2.944290 1_545
Te0 Zr0 2.944290 1_555
Te0 Zr0 2.944290 1_455
Te0 Zr0 2.944290 1_445
Te1 Zr1 2.944290 1_555
Te1 Zr1 2.944290 1_655
Te1 Zr1 2.944290 1_565
Te1 Zr1 2.944290 1_665
