# generated using pymatgen
data_BaCaWF7
_symmetry_space_group_name_H-M   'P 1'
_cell_length_a   10.66116100
_cell_length_b   5.97731200
_cell_length_c   10.27059251
_cell_angle_alpha   88.66076828
_cell_angle_beta   90.00000000
_cell_angle_gamma   90.00000000
_symmetry_Int_Tables_number   1
_chemical_formula_structural   BaCaWF7
_chemical_formula_sum   'Ba4 Ca4 W4 F28'
_cell_volume   654.31560528
_cell_formula_units_Z   4
loop_
 _symmetry_equiv_pos_site_id
 _symmetry_equiv_pos_as_xyz
  1  'x, y, z'
loop_
 _atom_site_type_symbol
 _atom_site_label
 _atom_site_symmetry_multiplicity
 _atom_site_fract_x
 _atom_site_fract_y
 _atom_site_fract_z
 _atom_site_occupancy
  Ba  Ba0  1  0.33656000  0.73019000  0.50053200  1
  Ba  Ba1  1  0.83656000  0.26981000  0.99946800  1
  Ba  Ba2  1  0.66344000  0.26981000  0.49946800  1
  Ba  Ba3  1  0.16344000  0.73019000  0.00053200  1
  Ca  Ca0  1  0.40641400  0.30386000  0.81891700  1
  Ca  Ca1  1  0.90641400  0.69614000  0.68108300  1
  Ca  Ca2  1  0.09358600  0.30386000  0.31891700  1
  Ca  Ca3  1  0.59358600  0.69614000  0.18108300  1
  W  W0  1  0.62057500  0.81050000  0.80997700  1
  W  W1  1  0.37942500  0.18950000  0.19002300  1
  W  W2  1  0.87942500  0.81050000  0.30997700  1
  W  W3  1  0.12057500  0.18950000  0.69002300  1
  F  F0  1  0.42451000  0.88006300  0.10727800  1
  F  F1  1  0.04417200  0.64938000  0.37593900  1
  F  F2  1  0.70793800  0.51813800  0.73489100  1
  F  F3  1  0.29206200  0.48186200  0.26510900  1
  F  F4  1  0.46355400  0.07072800  0.36531900  1
  F  F5  1  0.79433200  0.71003100  0.48915600  1
  F  F6  1  0.78244000  0.98885700  0.74474500  1
  F  F7  1  0.96355400  0.92927200  0.13468100  1
  F  F8  1  0.45582800  0.64938000  0.87593900  1
  F  F9  1  0.20793800  0.48186200  0.76510900  1
  F  F10  1  0.07549000  0.88006300  0.60727800  1
  F  F11  1  0.57549000  0.11993700  0.89272200  1
  F  F12  1  0.28244000  0.01114300  0.75525500  1
  F  F13  1  0.96001700  0.58717700  0.87896500  1
  F  F14  1  0.53644600  0.92927200  0.63468100  1
  F  F15  1  0.03644600  0.07072800  0.86531900  1
  F  F16  1  0.21756000  0.01114300  0.25525500  1
  F  F17  1  0.92451000  0.11993700  0.39272200  1
  F  F18  1  0.46001700  0.41282300  0.62103500  1
  F  F19  1  0.95582800  0.35062000  0.62406100  1
  F  F20  1  0.03998300  0.41282300  0.12103500  1
  F  F21  1  0.71756000  0.98885700  0.24474500  1
  F  F22  1  0.53998300  0.58717700  0.37896500  1
  F  F23  1  0.29433200  0.28996900  0.01084400  1
  F  F24  1  0.20566800  0.28996900  0.51084400  1
  F  F25  1  0.70566800  0.71003100  0.98915600  1
  F  F26  1  0.54417200  0.35062000  0.12406100  1
  F  F27  1  0.79206200  0.51813800  0.23489100  1
loop_
_geom_bond_atom_site_label_1
_geom_bond_atom_site_label_2
_geom_bond_distance
_geom_bond_site_symmetry_2
Ba0 F18 2.598651 1_555
Ba0 F22 2.653849 1_555
Ba0 F4 2.787961 1_565
Ba0 F14 2.816419 1_555
Ba0 F3 2.905593 1_555
Ba0 F24 2.978161 1_555
Ba0 F10 3.130051 1_555
Ba0 F12 3.194173 1_565
Ba0 F16 3.252393 1_565
Ba0 F9 3.358440 1_555
Ba0 F1 3.408314 1_555
Ba1 F13 2.598651 1_555
Ba1 F20 2.653849 1_656
Ba1 F7 2.787961 1_546
Ba1 F15 2.816419 1_655
Ba1 F27 2.905593 1_556
Ba1 F25 2.978161 1_555
Ba1 F11 3.130051 1_555
Ba1 F6 3.194173 1_545
Ba1 F21 3.252393 1_546
Ba1 F2 3.358440 1_555
Ba1 F26 3.408314 1_556
Ba2 F22 2.598651 1_555
Ba2 F18 2.653849 1_555
Ba2 F14 2.787961 1_545
Ba2 F4 2.816419 1_555
Ba2 F2 2.905593 1_555
Ba2 F5 2.978161 1_555
Ba2 F17 3.130051 1_555
Ba2 F21 3.194173 1_545
Ba2 F6 3.252393 1_545
Ba2 F27 3.358440 1_555
Ba2 F19 3.408314 1_555
Ba3 F20 2.598651 1_555
Ba3 F13 2.653849 1_454
Ba3 F15 2.787961 1_564
Ba3 F7 2.816419 1_455
Ba3 F9 2.905593 1_554
Ba3 F23 2.978161 1_555
Ba3 F0 3.130051 1_555
Ba3 F16 3.194173 1_565
Ba3 F12 3.252393 1_564
Ba3 F3 3.358440 1_555
Ba3 F8 3.408314 1_554
Ca0 F18 2.195316 1_555
Ca0 F8 2.223159 1_555
Ca0 F11 2.234596 1_555
Ca0 F12 2.299829 1_555
Ca0 F23 2.304937 1_556
Ca0 F9 2.426388 1_555
Ca1 F13 2.195316 1_555
Ca1 F19 2.223159 1_555
Ca1 F10 2.234596 1_655
Ca1 F6 2.299829 1_555
Ca1 F5 2.304937 1_555
Ca1 F2 2.426388 1_555
Ca2 F20 2.195316 1_555
Ca2 F1 2.223159 1_555
Ca2 F17 2.234596 1_455
Ca2 F16 2.299829 1_555
Ca2 F24 2.304937 1_555
Ca2 F3 2.426388 1_555
Ca3 F22 2.195316 1_555
Ca3 F26 2.223159 1_555
Ca3 F0 2.234596 1_555
Ca3 F21 2.299829 1_555
Ca3 F25 2.304937 1_554
Ca3 F27 2.426388 1_555
F0 W1 2.108972 1_565
F1 W2 2.107340 1_455
F2 W0 2.139881 1_555
F3 W1 2.139881 1_555
F4 W1 2.118994 1_555
F5 W2 2.125697 1_555
F6 W0 2.128372 1_555
F7 W2 2.118994 1_555
F8 W0 2.107340 1_555
F9 W3 2.139881 1_555
F10 W3 2.108972 1_565
F11 W0 2.108972 1_545
F12 W3 2.128372 1_555
F14 W0 2.118994 1_555
F15 W3 2.118994 1_555
F16 W1 2.128372 1_555
F17 W2 2.108972 1_545
F19 W3 2.107340 1_655
F21 W2 2.128372 1_555
F23 W1 2.125697 1_555
F24 W3 2.125697 1_555
F25 W0 2.125697 1_555
F26 W1 2.107340 1_555
F27 W2 2.139881 1_555
