# generated using pymatgen
data_Yb2(B2Rh3)3
_symmetry_space_group_name_H-M   'P 1'
_cell_length_a   5.62677380
_cell_length_b   5.62677380
_cell_length_c   8.52346100
_cell_angle_alpha   90.00000000
_cell_angle_beta   90.00000000
_cell_angle_gamma   119.99999771
_symmetry_Int_Tables_number   1
_chemical_formula_structural   Yb2(B2Rh3)3
_chemical_formula_sum   'Yb2 B6 Rh9'
_cell_volume   233.70367082
_cell_formula_units_Z   1
loop_
 _symmetry_equiv_pos_site_id
 _symmetry_equiv_pos_as_xyz
  1  'x, y, z'
loop_
 _atom_site_type_symbol
 _atom_site_label
 _atom_site_symmetry_multiplicity
 _atom_site_fract_x
 _atom_site_fract_y
 _atom_site_fract_z
 _atom_site_occupancy
  Yb  Yb0  1  0.00000000  0.00000000  0.70356200  1
  Yb  Yb1  1  0.00000000  0.00000000  0.29643800  1
  B  B0  1  0.66666700  0.33333300  0.00000000  1
  B  B1  1  0.33333300  0.66666700  0.00000000  1
  B  B2  1  0.66666700  0.33333300  0.66762600  1
  B  B3  1  0.33333300  0.66666700  0.66762600  1
  B  B4  1  0.33333300  0.66666700  0.33237400  1
  B  B5  1  0.66666700  0.33333300  0.33237400  1
  Rh  Rh0  1  0.50000000  0.50000000  0.83513700  1
  Rh  Rh1  1  0.50000000  0.00000000  0.83513700  1
  Rh  Rh2  1  0.00000000  0.50000000  0.83513700  1
  Rh  Rh3  1  0.50000000  0.50000000  0.16486300  1
  Rh  Rh4  1  0.50000000  0.00000000  0.16486300  1
  Rh  Rh5  1  0.00000000  0.50000000  0.16486300  1
  Rh  Rh6  1  0.50000000  0.50000000  0.50000000  1
  Rh  Rh7  1  0.50000000  0.00000000  0.50000000  1
  Rh  Rh8  1  0.00000000  0.50000000  0.50000000  1
loop_
_geom_bond_atom_site_label_1
_geom_bond_atom_site_label_2
_geom_bond_distance
_geom_bond_site_symmetry_2
Yb0 Yb1 3.470106 1_555
B0 Rh4 2.147783 1_555
B0 Rh2 2.147783 1_654
B0 Rh1 2.147783 1_554
B0 Rh5 2.147783 1_655
B0 Rh0 2.147787 1_554
B0 Rh3 2.147787 1_555
B1 Rh4 2.147783 1_565
B1 Rh2 2.147783 1_554
B1 Rh1 2.147783 1_564
B1 Rh5 2.147783 1_555
B1 Rh0 2.147787 1_554
B1 Rh3 2.147787 1_555
B2 Rh1 2.162617 1_555
B2 Rh2 2.162617 1_655
B2 Rh0 2.162621 1_555
B2 Rh8 2.163265 1_655
B2 Rh7 2.163265 1_555
B2 Rh6 2.163268 1_555
B2 Yb0 3.263024 1_655
B2 Yb0 3.263029 1_665
B2 Yb0 3.263029 1_555
B3 Rh1 2.162617 1_565
B3 Rh2 2.162617 1_555
B3 Rh0 2.162621 1_555
B3 Rh8 2.163265 1_555
B3 Rh7 2.163265 1_565
B3 Rh6 2.163268 1_555
B3 Yb0 3.263024 1_565
B3 Yb0 3.263029 1_665
B3 Yb0 3.263029 1_555
B4 Rh5 2.162617 1_555
B4 Rh4 2.162617 1_565
B4 Rh3 2.162621 1_555
B4 Rh8 2.163265 1_555
B4 Rh7 2.163265 1_565
B4 Rh6 2.163268 1_555
B4 Yb1 3.263024 1_565
B4 Yb1 3.263029 1_555
B4 Yb1 3.263029 1_665
B5 Rh5 2.162617 1_655
B5 Rh4 2.162617 1_555
B5 Rh3 2.162621 1_555
B5 Rh8 2.163265 1_655
B5 Rh7 2.163265 1_555
B5 Rh6 2.163268 1_555
B5 Yb1 3.263024 1_655
B5 Yb1 3.263029 1_555
B5 Yb1 3.263029 1_665
Rh0 Yb0 3.028672 1_665
Rh0 Yb0 3.028672 1_555
Rh1 Yb0 3.028671 1_655
Rh1 Yb0 3.028671 1_555
Rh2 Yb0 3.028671 1_565
Rh2 Yb0 3.028671 1_555
Rh3 Yb1 3.028672 1_665
Rh3 Yb1 3.028672 1_555
Rh4 Yb1 3.028671 1_655
Rh4 Yb1 3.028671 1_555
Rh5 Yb1 3.028671 1_565
Rh5 Yb1 3.028671 1_555
Rh6 Yb0 3.305383 1_555
Rh6 Yb1 3.305383 1_555
Rh6 Yb0 3.305383 1_665
Rh6 Yb1 3.305383 1_665
Rh7 Yb1 3.305383 1_655
Rh7 Yb0 3.305383 1_555
Rh7 Yb1 3.305383 1_555
Rh7 Yb0 3.305383 1_655
Rh8 Yb0 3.305383 1_555
Rh8 Yb1 3.305383 1_555
Rh8 Yb1 3.305383 1_565
Rh8 Yb0 3.305383 1_565
