# generated using pymatgen
data_ZrSiPd
_symmetry_space_group_name_H-M   'P 1'
_cell_length_a   3.89918679
_cell_length_b   6.63836696
_cell_length_c   7.61446756
_cell_angle_alpha   90.00000000
_cell_angle_beta   90.00000000
_cell_angle_gamma   90.00000000
_symmetry_Int_Tables_number   1
_chemical_formula_structural   ZrSiPd
_chemical_formula_sum   'Zr4 Si4 Pd4'
_cell_volume   197.09465065
_cell_formula_units_Z   4
loop_
 _symmetry_equiv_pos_site_id
 _symmetry_equiv_pos_as_xyz
  1  'x, y, z'
loop_
 _atom_site_type_symbol
 _atom_site_label
 _atom_site_symmetry_multiplicity
 _atom_site_fract_x
 _atom_site_fract_y
 _atom_site_fract_z
 _atom_site_occupancy
  Zr  Zr0  1  0.75000000  0.47434184  0.18035493  1
  Zr  Zr1  1  0.75000000  0.97434184  0.31964507  1
  Zr  Zr2  1  0.25000000  0.52565816  0.81964507  1
  Zr  Zr3  1  0.25000000  0.02565816  0.68035493  1
  Si  Si0  1  0.75000000  0.23831438  0.87725145  1
  Si  Si1  1  0.75000000  0.73831438  0.62274855  1
  Si  Si2  1  0.25000000  0.76168562  0.12274855  1
  Si  Si3  1  0.25000000  0.26168562  0.37725145  1
  Pd  Pd0  1  0.75000000  0.35702064  0.56173851  1
  Pd  Pd1  1  0.75000000  0.85702064  0.93826149  1
  Pd  Pd2  1  0.25000000  0.64297936  0.43826149  1
  Pd  Pd3  1  0.25000000  0.14297936  0.06173851  1
loop_
_geom_bond_atom_site_label_1
_geom_bond_atom_site_label_2
_geom_bond_distance
_geom_bond_site_symmetry_2
Si0 Zr2 2.762581 1_655
Si0 Zr2 2.762581 1_555
Si0 Zr0 2.789572 1_556
Si0 Zr3 2.835766 1_655
Si0 Zr3 2.835766 1_555
Si1 Zr3 2.762581 1_665
Si1 Zr3 2.762581 1_565
Si1 Zr1 2.789572 1_555
Si1 Zr2 2.835766 1_555
Si1 Zr2 2.835766 1_655
Si2 Zr0 2.762581 1_555
Si2 Zr0 2.762581 1_455
Si2 Zr2 2.789572 1_554
Si2 Zr1 2.835766 1_555
Si2 Zr1 2.835766 1_455
Si3 Zr1 2.762581 1_545
Si3 Zr1 2.762581 1_445
Si3 Zr3 2.789572 1_555
Si3 Zr0 2.835766 1_455
Si3 Zr0 2.835766 1_555
Pd0 Si3 2.484918 1_555
Pd0 Si3 2.484918 1_655
Pd0 Si0 2.528398 1_555
Pd0 Si1 2.573446 1_555
Pd0 Pd2 2.878967 1_655
Pd0 Pd2 2.878967 1_555
Pd0 Zr2 2.985086 1_655
Pd0 Zr2 2.985086 1_555
Pd0 Zr0 3.006654 1_555
Pd0 Zr3 3.074962 1_655
Pd0 Zr3 3.074962 1_555
Pd0 Zr1 3.138728 1_545
Pd1 Si2 2.484918 1_656
Pd1 Si2 2.484918 1_556
Pd1 Si1 2.528398 1_555
Pd1 Si0 2.573446 1_565
Pd1 Pd3 2.878967 1_666
Pd1 Pd3 2.878967 1_566
Pd1 Zr3 2.985086 1_665
Pd1 Zr3 2.985086 1_565
Pd1 Zr1 3.006654 1_556
Pd1 Zr2 3.074962 1_555
Pd1 Zr2 3.074962 1_655
Pd1 Zr0 3.138728 1_556
Pd2 Si1 2.484918 1_455
Pd2 Si1 2.484918 1_555
Pd2 Si2 2.528398 1_555
Pd2 Si3 2.573446 1_555
Pd2 Zr0 2.985086 1_555
Pd2 Zr0 2.985086 1_455
Pd2 Zr2 3.006654 1_555
Pd2 Zr1 3.074962 1_555
Pd2 Zr1 3.074962 1_455
Pd2 Zr3 3.138728 1_565
Pd3 Si0 2.484918 1_554
Pd3 Si0 2.484918 1_454
Pd3 Si3 2.528398 1_555
Pd3 Si2 2.573446 1_545
Pd3 Zr1 2.985086 1_445
Pd3 Zr1 2.985086 1_545
Pd3 Zr3 3.006654 1_554
Pd3 Zr0 3.074962 1_455
Pd3 Zr0 3.074962 1_555
Pd3 Zr2 3.138728 1_554
