# generated using pymatgen
data_SiH7N2F5
_symmetry_space_group_name_H-M   'P 1'
_cell_length_a   6.31296380
_cell_length_b   6.31154978
_cell_length_c   7.25941400
_cell_angle_alpha   90.00000000
_cell_angle_beta   90.00000000
_cell_angle_gamma   88.43351318
_symmetry_Int_Tables_number   1
_chemical_formula_structural   SiH7N2F5
_chemical_formula_sum   'Si2 H14 N4 F10'
_cell_volume   289.14024134
_cell_formula_units_Z   2
loop_
 _symmetry_equiv_pos_site_id
 _symmetry_equiv_pos_as_xyz
  1  'x, y, z'
loop_
 _atom_site_type_symbol
 _atom_site_label
 _atom_site_symmetry_multiplicity
 _atom_site_fract_x
 _atom_site_fract_y
 _atom_site_fract_z
 _atom_site_occupancy
  Si  Si0  1  0.74786700  0.75135600  0.27189800  1
  Si  Si1  1  0.24786700  0.25135600  0.72810200  1
  H  H0  1  0.87614900  0.21940200  0.91508500  1
  H  H1  1  0.61404800  0.27362700  0.92023400  1
  H  H2  1  0.22463200  0.61715000  0.91862800  1
  H  H3  1  0.27083100  0.87759200  0.91722700  1
  H  H4  1  0.11404800  0.77362700  0.07976600  1
  H  H5  1  0.37614900  0.71940200  0.08491500  1
  H  H6  1  0.77083100  0.37759200  0.08277300  1
  H  H7  1  0.72463200  0.11715000  0.08137200  1
  H  H8  1  0.61009800  0.63925000  0.57456700  1
  H  H9  1  0.86837800  0.66627700  0.58910600  1
  H  H10  1  0.70631400  0.87905100  0.59287200  1
  H  H11  1  0.11009800  0.13925000  0.42543300  1
  H  H12  1  0.20631400  0.37905100  0.40712800  1
  H  H13  1  0.36837800  0.16627700  0.41089400  1
  N  N0  1  0.74718100  0.24804500  0.00004800  1
  N  N1  1  0.24718100  0.74804500  0.99995200  1
  N  N2  1  0.73215700  0.73294700  0.53371000  1
  N  N3  1  0.23215700  0.23294700  0.46629000  1
  F  F0  1  0.76223000  0.76871400  0.03764700  1
  F  F1  1  0.26223000  0.26871400  0.96235300  1
  F  F2  1  0.94541000  0.93240900  0.29251100  1
  F  F3  1  0.54956900  0.57113500  0.25396300  1
  F  F4  1  0.93426900  0.54791100  0.27070800  1
  F  F5  1  0.56086800  0.95513500  0.27605900  1
  F  F6  1  0.04956900  0.07113500  0.74603700  1
  F  F7  1  0.44541000  0.43240900  0.70748900  1
  F  F8  1  0.06086800  0.45513500  0.72394100  1
  F  F9  1  0.43426900  0.04791100  0.72929200  1
loop_
_geom_bond_atom_site_label_1
_geom_bond_atom_site_label_2
_geom_bond_distance
_geom_bond_site_symmetry_2
H0 N0 1.033406 1_556
H1 N0 1.029921 1_556
H2 N1 1.028469 1_555
H3 N1 1.028663 1_555
H4 N1 1.029921 1_554
H5 N1 1.033406 1_554
H6 N0 1.028663 1_555
H7 N0 1.028469 1_555
H8 N2 1.027794 1_555
H9 N2 1.028848 1_555
H10 N2 1.026252 1_555
H11 N3 1.027794 1_555
H12 N3 1.026252 1_555
H13 N3 1.028848 1_555
N2 Si0 1.906896 1_555
N3 Si1 1.906896 1_555
F0 Si0 1.706620 1_555
F1 Si1 1.706620 1_555
F2 Si0 1.720854 1_555
F3 Si0 1.719237 1_555
F4 Si0 1.717845 1_555
F5 Si0 1.722130 1_555
F6 Si1 1.719237 1_555
F7 Si1 1.720854 1_555
F8 Si1 1.722130 1_555
F9 Si1 1.717845 1_555
