# generated using pymatgen
data_CaEuS2
_symmetry_space_group_name_H-M   'P 1'
_cell_length_a   4.10394627
_cell_length_b   4.10394627
_cell_length_c   5.81581774
_cell_angle_alpha   90.00000000
_cell_angle_beta   90.00000000
_cell_angle_gamma   90.00000000
_symmetry_Int_Tables_number   1
_chemical_formula_structural   CaEuS2
_chemical_formula_sum   'Ca1 Eu1 S2'
_cell_volume   97.95218323
_cell_formula_units_Z   1
loop_
 _symmetry_equiv_pos_site_id
 _symmetry_equiv_pos_as_xyz
  1  'x, y, z'
loop_
 _atom_site_type_symbol
 _atom_site_label
 _atom_site_symmetry_multiplicity
 _atom_site_fract_x
 _atom_site_fract_y
 _atom_site_fract_z
 _atom_site_occupancy
  Ca  Ca0  1  0.00000000  -0.00000000  0.00000000  1
  Eu  Eu0  1  0.50000000  0.50000000  0.50000000  1
  S  S0  1  0.00000000  -0.00000000  0.50000000  1
  S  S1  1  0.50000000  0.50000000  0.00000000  1
loop_
_geom_bond_atom_site_label_1
_geom_bond_atom_site_label_2
_geom_bond_distance
_geom_bond_site_symmetry_2
Ca0 S1 2.901928 1_555
Ca0 S1 2.901928 1_545
Ca0 S1 2.901928 1_445
Ca0 S1 2.901928 1_455
Ca0 S0 2.907909 1_554
Ca0 S0 2.907909 1_555
Eu0 S0 2.901928 1_565
Eu0 S0 2.901928 1_655
Eu0 S0 2.901928 1_665
Eu0 S0 2.901928 1_555
Eu0 S1 2.907909 1_556
Eu0 S1 2.907909 1_555
