# generated using pymatgen
data_Er2Fe17
_symmetry_space_group_name_H-M   'P 1'
_cell_length_a   8.50839010
_cell_length_b   8.50839010
_cell_length_c   8.18163500
_cell_angle_alpha   90.00000000
_cell_angle_beta   90.00000000
_cell_angle_gamma   120.00000077
_symmetry_Int_Tables_number   1
_chemical_formula_structural   Er2Fe17
_chemical_formula_sum   'Er4 Fe34'
_cell_volume   512.93875841
_cell_formula_units_Z   2
loop_
 _symmetry_equiv_pos_site_id
 _symmetry_equiv_pos_as_xyz
  1  'x, y, z'
loop_
 _atom_site_type_symbol
 _atom_site_label
 _atom_site_symmetry_multiplicity
 _atom_site_fract_x
 _atom_site_fract_y
 _atom_site_fract_z
 _atom_site_occupancy
  Er  Er0  1  0.00000000  0.00000000  0.25000000  1
  Er  Er1  1  0.00000000  0.00000000  0.75000000  1
  Er  Er2  1  0.33333300  0.66666700  0.75000000  1
  Er  Er3  1  0.66666700  0.33333300  0.25000000  1
  Fe  Fe0  1  0.33333300  0.66666700  0.39495200  1
  Fe  Fe1  1  0.66666700  0.33333300  0.60504800  1
  Fe  Fe2  1  0.66666700  0.33333300  0.89495200  1
  Fe  Fe3  1  0.33333300  0.66666700  0.10504800  1
  Fe  Fe4  1  0.50000000  0.50000000  0.50000000  1
  Fe  Fe5  1  0.50000000  0.00000000  0.50000000  1
  Fe  Fe6  1  0.00000000  0.50000000  0.50000000  1
  Fe  Fe7  1  0.50000000  0.50000000  0.00000000  1
  Fe  Fe8  1  0.50000000  0.00000000  0.00000000  1
  Fe  Fe9  1  0.00000000  0.50000000  0.00000000  1
  Fe  Fe10  1  0.32936200  0.36768300  0.25000000  1
  Fe  Fe11  1  0.63231700  0.96167900  0.25000000  1
  Fe  Fe12  1  0.03832100  0.67063800  0.25000000  1
  Fe  Fe13  1  0.63231700  0.67063800  0.25000000  1
  Fe  Fe14  1  0.03832100  0.36768300  0.25000000  1
  Fe  Fe15  1  0.32936200  0.96167900  0.25000000  1
  Fe  Fe16  1  0.67063800  0.63231700  0.75000000  1
  Fe  Fe17  1  0.36768300  0.03832100  0.75000000  1
  Fe  Fe18  1  0.96167900  0.32936200  0.75000000  1
  Fe  Fe19  1  0.36768300  0.32936200  0.75000000  1
  Fe  Fe20  1  0.96167900  0.63231700  0.75000000  1
  Fe  Fe21  1  0.67063800  0.03832100  0.75000000  1
  Fe  Fe22  1  0.16591700  0.83408300  0.51673600  1
  Fe  Fe23  1  0.16591700  0.33183400  0.51673600  1
  Fe  Fe24  1  0.66816600  0.83408300  0.51673600  1
  Fe  Fe25  1  0.83408300  0.16591700  0.48326400  1
  Fe  Fe26  1  0.83408300  0.66816600  0.48326400  1
  Fe  Fe27  1  0.33183400  0.16591700  0.48326400  1
  Fe  Fe28  1  0.83408300  0.16591700  0.01673600  1
  Fe  Fe29  1  0.83408300  0.66816600  0.01673600  1
  Fe  Fe30  1  0.33183400  0.16591700  0.01673600  1
  Fe  Fe31  1  0.16591700  0.83408300  0.98326400  1
  Fe  Fe32  1  0.16591700  0.33183400  0.98326400  1
  Fe  Fe33  1  0.66816600  0.83408300  0.98326400  1
loop_
_geom_bond_atom_site_label_1
_geom_bond_atom_site_label_2
_geom_bond_distance
_geom_bond_site_symmetry_2
Er0 Fe10 2.978779 1_555
Er0 Fe13 2.978779 1_445
Er0 Fe11 2.978779 1_445
Er0 Fe14 2.978779 1_555
Er0 Fe15 2.978779 1_545
Er0 Fe12 2.978779 1_545
Er0 Fe27 3.101754 1_555
Er0 Fe30 3.101754 1_555
Er0 Fe26 3.101754 1_445
Er0 Fe29 3.101754 1_445
Er0 Fe25 3.101754 1_455
Er0 Fe28 3.101754 1_455
Er0 Fe23 3.277372 1_555
Er0 Fe32 3.277372 1_554
Er0 Fe24 3.277372 1_445
Er0 Fe33 3.277372 1_444
Er0 Fe22 3.277372 1_545
Er0 Fe31 3.277372 1_544
Er1 Fe16 2.978779 1_445
Er1 Fe19 2.978779 1_555
Er1 Fe17 2.978779 1_555
Er1 Fe20 2.978779 1_445
Er1 Fe18 2.978779 1_455
Er1 Fe21 2.978779 1_455
Er1 Fe32 3.101754 1_555
Er1 Fe23 3.101754 1_555
Er1 Fe33 3.101754 1_445
Er1 Fe24 3.101754 1_445
Er1 Fe31 3.101754 1_545
Er1 Fe22 3.101754 1_545
Er1 Fe30 3.277372 1_556
Er1 Fe27 3.277372 1_555
Er1 Fe29 3.277372 1_446
Er1 Fe26 3.277372 1_445
Er1 Fe28 3.277372 1_456
Er1 Fe25 3.277372 1_455
Er2 Fe3 2.904873 1_556
Er2 Fe0 2.904873 1_555
Er2 Fe17 3.026647 1_565
Er2 Fe20 3.026647 1_455
Er2 Fe18 3.026651 1_455
Er2 Fe21 3.026651 1_565
Er2 Fe16 3.026656 1_555
Er2 Fe19 3.026656 1_555
Er2 Fe31 3.119197 1_555
Er2 Fe22 3.119197 1_555
Er2 Fe33 3.119203 1_555
Er2 Fe24 3.119203 1_555
Er2 Fe32 3.119203 1_555
Er2 Fe23 3.119203 1_555
Er2 Fe9 3.196312 1_556
Er2 Fe6 3.196312 1_555
Er2 Fe8 3.196312 1_566
Er2 Fe5 3.196312 1_565
Er2 Fe4 3.196318 1_555
Er2 Fe7 3.196318 1_556
Er3 Fe1 2.904873 1_555
Er3 Fe2 2.904873 1_554
Er3 Fe11 3.026647 1_545
Er3 Fe14 3.026647 1_655
Er3 Fe15 3.026651 1_545
Er3 Fe12 3.026651 1_655
Er3 Fe10 3.026656 1_555
Er3 Fe13 3.026656 1_555
Er3 Fe25 3.119197 1_555
Er3 Fe28 3.119197 1_555
Er3 Fe26 3.119203 1_555
Er3 Fe29 3.119203 1_555
Er3 Fe27 3.119203 1_555
Er3 Fe30 3.119203 1_555
Er3 Fe9 3.196312 1_655
Er3 Fe5 3.196312 1_555
Er3 Fe6 3.196312 1_655
Er3 Fe8 3.196312 1_555
Er3 Fe4 3.196318 1_555
Er3 Fe7 3.196318 1_555
Fe0 Fe3 2.371889 1_555
Fe0 Fe6 2.602190 1_555
Fe0 Fe5 2.602190 1_565
Fe0 Fe4 2.602197 1_555
Fe0 Fe22 2.660806 1_555
Fe0 Fe24 2.660813 1_555
Fe0 Fe23 2.660813 1_555
Fe0 Fe15 2.791577 1_555
Fe0 Fe12 2.791577 1_555
Fe0 Fe11 2.791581 1_555
Fe0 Fe14 2.791581 1_555
Fe0 Fe10 2.791584 1_555
Fe0 Fe13 2.791584 1_555
Fe1 Fe2 2.371889 1_555
Fe1 Fe6 2.602190 1_655
Fe1 Fe5 2.602190 1_555
Fe1 Fe4 2.602197 1_555
Fe1 Fe25 2.660806 1_555
Fe1 Fe26 2.660813 1_555
Fe1 Fe27 2.660813 1_555
Fe1 Fe18 2.791577 1_555
Fe1 Fe21 2.791577 1_555
Fe1 Fe20 2.791581 1_555
Fe1 Fe17 2.791581 1_555
Fe1 Fe19 2.791584 1_555
Fe1 Fe16 2.791584 1_555
Fe2 Fe8 2.602190 1_556
Fe2 Fe9 2.602190 1_656
Fe2 Fe7 2.602197 1_556
Fe2 Fe28 2.660806 1_556
Fe2 Fe29 2.660813 1_556
Fe2 Fe30 2.660813 1_556
Fe2 Fe21 2.791577 1_555
Fe2 Fe20 2.791581 1_555
Fe3 Fe8 2.602190 1_565
Fe3 Fe9 2.602190 1_555
Fe3 Fe7 2.602197 1_555
Fe3 Fe31 2.660806 1_554
Fe3 Fe33 2.660813 1_554
Fe3 Fe32 2.660813 1_554
Fe10 Fe4 2.434032 1_555
Fe10 Fe7 2.434032 1_555
Fe10 Fe14 2.476290 1_555
Fe10 Fe23 2.522969 1_555
Fe10 Fe32 2.522969 1_554
Fe10 Fe27 2.574086 1_555
Fe10 Fe30 2.574086 1_555
Fe10 Fe13 2.577659 1_555
Fe10 Fe3 2.791584 1_555
Fe11 Fe8 2.434032 1_565
Fe11 Fe5 2.434032 1_565
Fe11 Fe13 2.476290 1_555
Fe11 Fe24 2.522969 1_555
Fe11 Fe33 2.522969 1_554
Fe11 Fe25 2.574086 1_565
Fe11 Fe28 2.574086 1_565
Fe11 Fe15 2.577659 1_555
Fe11 Fe3 2.791581 1_555
Fe12 Fe6 2.434032 1_555
Fe12 Fe9 2.434032 1_555
Fe12 Fe15 2.476290 1_555
Fe12 Fe22 2.522969 1_555
Fe12 Fe31 2.522969 1_554
Fe12 Fe26 2.574086 1_455
Fe12 Fe29 2.574086 1_455
Fe12 Fe14 2.577659 1_555
Fe12 Fe3 2.791577 1_555
Fe13 Fe4 2.434032 1_555
Fe13 Fe7 2.434032 1_555
Fe13 Fe24 2.522969 1_555
Fe13 Fe33 2.522969 1_554
Fe13 Fe26 2.574086 1_555
Fe13 Fe29 2.574086 1_555
Fe13 Fe3 2.791584 1_555
Fe14 Fe9 2.434032 1_555
Fe14 Fe6 2.434032 1_555
Fe14 Fe23 2.522969 1_555
Fe14 Fe32 2.522969 1_554
Fe14 Fe25 2.574086 1_455
Fe14 Fe28 2.574086 1_455
Fe14 Fe3 2.791581 1_555
Fe15 Fe8 2.434032 1_565
Fe15 Fe5 2.434032 1_565
Fe15 Fe22 2.522969 1_555
Fe15 Fe31 2.522969 1_554
Fe15 Fe27 2.574086 1_565
Fe15 Fe30 2.574086 1_565
Fe15 Fe3 2.791577 1_555
Fe16 Fe4 2.434032 1_555
Fe16 Fe7 2.434032 1_556
Fe16 Fe20 2.476290 1_555
Fe16 Fe29 2.522969 1_556
Fe16 Fe26 2.522969 1_555
Fe16 Fe33 2.574086 1_555
Fe16 Fe24 2.574086 1_555
Fe16 Fe19 2.577659 1_555
Fe16 Fe2 2.791584 1_555
Fe17 Fe8 2.434032 1_556
Fe17 Fe5 2.434032 1_555
Fe17 Fe19 2.476290 1_555
Fe17 Fe30 2.522969 1_556
Fe17 Fe27 2.522969 1_555
Fe17 Fe31 2.574086 1_545
Fe17 Fe22 2.574086 1_545
Fe17 Fe21 2.577659 1_555
Fe17 Fe2 2.791581 1_555
Fe18 Fe9 2.434032 1_656
Fe18 Fe6 2.434032 1_655
Fe18 Fe21 2.476290 1_555
Fe18 Fe28 2.522969 1_556
Fe18 Fe25 2.522969 1_555
Fe18 Fe32 2.574086 1_655
Fe18 Fe23 2.574086 1_655
Fe18 Fe20 2.577659 1_555
Fe18 Fe2 2.791577 1_555
Fe19 Fe4 2.434032 1_555
Fe19 Fe7 2.434032 1_556
Fe19 Fe30 2.522969 1_556
Fe19 Fe27 2.522969 1_555
Fe19 Fe32 2.574086 1_555
Fe19 Fe23 2.574086 1_555
Fe19 Fe2 2.791584 1_555
Fe20 Fe6 2.434032 1_655
Fe20 Fe9 2.434032 1_656
Fe20 Fe29 2.522969 1_556
Fe20 Fe26 2.522969 1_555
Fe20 Fe31 2.574086 1_655
Fe20 Fe22 2.574086 1_655
Fe21 Fe8 2.434032 1_556
Fe21 Fe5 2.434032 1_555
Fe21 Fe28 2.522969 1_556
Fe21 Fe25 2.522969 1_555
Fe21 Fe33 2.574086 1_545
Fe21 Fe24 2.574086 1_545
Fe22 Fe27 2.460401 1_565
Fe22 Fe26 2.460401 1_455
Fe22 Fe6 2.465508 1_555
Fe22 Fe5 2.465508 1_565
Fe23 Fe25 2.460401 1_455
Fe23 Fe27 2.460401 1_555
Fe23 Fe4 2.465508 1_555
Fe23 Fe6 2.465508 1_555
Fe24 Fe25 2.460401 1_565
Fe24 Fe26 2.460401 1_555
Fe24 Fe4 2.465508 1_555
Fe24 Fe5 2.465508 1_565
Fe25 Fe5 2.465508 1_555
Fe25 Fe6 2.465508 1_655
Fe26 Fe4 2.465508 1_555
Fe26 Fe6 2.465508 1_655
Fe27 Fe4 2.465508 1_555
Fe27 Fe5 2.465508 1_555
Fe28 Fe33 2.460401 1_544
Fe28 Fe32 2.460401 1_654
Fe28 Fe8 2.465508 1_555
Fe28 Fe9 2.465508 1_655
Fe29 Fe31 2.460401 1_654
Fe29 Fe33 2.460401 1_554
Fe29 Fe7 2.465508 1_555
Fe29 Fe9 2.465508 1_655
Fe30 Fe31 2.460401 1_544
Fe30 Fe32 2.460401 1_554
Fe30 Fe7 2.465508 1_555
Fe30 Fe8 2.465508 1_555
Fe31 Fe9 2.465508 1_556
Fe31 Fe8 2.465508 1_566
Fe32 Fe7 2.465508 1_556
Fe32 Fe9 2.465508 1_556
Fe33 Fe7 2.465508 1_556
Fe33 Fe8 2.465508 1_566
