# generated using pymatgen
data_YWClO4
_symmetry_space_group_name_H-M   'P 1'
_cell_length_a   6.36565422
_cell_length_b   6.36565422
_cell_length_c   6.95230558
_cell_angle_alpha   76.02704222
_cell_angle_beta   76.02704222
_cell_angle_gamma   70.81286153
_symmetry_Int_Tables_number   1
_chemical_formula_structural   YWClO4
_chemical_formula_sum   'Y2 W2 Cl2 O8'
_cell_volume   254.12495100
_cell_formula_units_Z   2
loop_
 _symmetry_equiv_pos_site_id
 _symmetry_equiv_pos_as_xyz
  1  'x, y, z'
loop_
 _atom_site_type_symbol
 _atom_site_label
 _atom_site_symmetry_multiplicity
 _atom_site_fract_x
 _atom_site_fract_y
 _atom_site_fract_z
 _atom_site_occupancy
  Y  Y0  1  0.27790200  0.27790200  0.61596300  1
  Y  Y1  1  0.72209800  0.72209800  0.38403700  1
  W  W0  1  0.13723800  0.13723800  0.23238900  1
  W  W1  1  0.86276200  0.86276200  0.76761100  1
  Cl  Cl0  1  0.51070600  0.51070600  0.73161700  1
  Cl  Cl1  1  0.48929400  0.48929400  0.26838300  1
  O  O0  1  0.04398700  0.04398700  0.70188500  1
  O  O1  1  0.95601300  0.95601300  0.29811500  1
  O  O2  1  0.61015100  0.99056700  0.65130200  1
  O  O3  1  0.38984900  0.00943300  0.34869800  1
  O  O4  1  0.00943300  0.38984900  0.34869800  1
  O  O5  1  0.99056700  0.61015100  0.65130200  1
  O  O6  1  0.20640800  0.20640800  0.96380200  1
  O  O7  1  0.79359200  0.79359200  0.03619800  1
loop_
_geom_bond_atom_site_label_1
_geom_bond_atom_site_label_2
_geom_bond_distance
_geom_bond_site_symmetry_2
Cl0 Y1 2.740521 1_555
Cl0 Y0 2.762847 1_555
Cl1 Y0 2.740521 1_555
Cl1 Y1 2.762847 1_555
O0 W1 1.798912 1_445
O0 Y0 2.321525 1_555
O1 W0 1.798912 1_665
O1 Y1 2.321525 1_555
O2 W1 1.830805 1_555
O2 Y0 2.317364 1_565
O2 Y1 2.640941 1_555
O3 W0 1.830805 1_555
O3 Y1 2.317364 1_545
O3 Y0 2.640941 1_555
O4 W0 1.830805 1_555
O4 Y1 2.317364 1_455
O4 Y0 2.640941 1_555
O5 W1 1.830805 1_555
O5 Y0 2.317364 1_655
O5 Y1 2.640941 1_555
O6 W0 1.791053 1_556
O6 Y0 2.309866 1_555
O7 W1 1.791053 1_554
O7 Y1 2.309866 1_555
