# generated using pymatgen
data_Cd5Ge(PO6)2
_symmetry_space_group_name_H-M   'P 1'
_cell_length_a   6.88569600
_cell_length_b   10.40004900
_cell_length_c   15.31513400
_cell_angle_alpha   90.00000000
_cell_angle_beta   90.00000000
_cell_angle_gamma   90.00000000
_symmetry_Int_Tables_number   1
_chemical_formula_structural   Cd5Ge(PO6)2
_chemical_formula_sum   'Cd20 Ge4 P8 O48'
_cell_volume   1096.74087931
_cell_formula_units_Z   4
loop_
 _symmetry_equiv_pos_site_id
 _symmetry_equiv_pos_as_xyz
  1  'x, y, z'
loop_
 _atom_site_type_symbol
 _atom_site_label
 _atom_site_symmetry_multiplicity
 _atom_site_fract_x
 _atom_site_fract_y
 _atom_site_fract_z
 _atom_site_occupancy
  Cd  Cd0  1  0.08779000  0.66293800  0.85957500  1
  Cd  Cd1  1  0.58779000  0.83706200  0.14042500  1
  Cd  Cd2  1  0.41221000  0.33706200  0.35957500  1
  Cd  Cd3  1  0.91221000  0.16293800  0.64042500  1
  Cd  Cd4  1  0.40564500  0.33560000  0.63919900  1
  Cd  Cd5  1  0.90564500  0.16440000  0.36080100  1
  Cd  Cd6  1  0.09435500  0.66440000  0.13919900  1
  Cd  Cd7  1  0.59435500  0.83560000  0.86080100  1
  Cd  Cd8  1  0.19589600  0.72038300  0.49859600  1
  Cd  Cd9  1  0.69589600  0.77961700  0.50140400  1
  Cd  Cd10  1  0.30410400  0.27961700  0.99859600  1
  Cd  Cd11  1  0.80410400  0.22038300  0.00140400  1
  Cd  Cd12  1  0.89341500  0.55529300  0.65994400  1
  Cd  Cd13  1  0.39341500  0.94470700  0.34005600  1
  Cd  Cd14  1  0.60658500  0.44470700  0.15994400  1
  Cd  Cd15  1  0.10658500  0.05529300  0.84005600  1
  Cd  Cd16  1  0.60572200  0.44915000  0.84087000  1
  Cd  Cd17  1  0.10572200  0.05085000  0.15913000  1
  Cd  Cd18  1  0.89427800  0.55085000  0.34087000  1
  Cd  Cd19  1  0.39427800  0.94915000  0.65913000  1
  Ge  Ge0  1  0.89457200  0.86720600  0.68019600  1
  Ge  Ge1  1  0.39457200  0.63279400  0.31980400  1
  Ge  Ge2  1  0.60542800  0.13279400  0.18019600  1
  Ge  Ge3  1  0.10542800  0.36720600  0.81980400  1
  P  P0  1  0.24046900  0.08780300  0.49922000  1
  P  P1  1  0.74046900  0.41219700  0.50078000  1
  P  P2  1  0.25953100  0.91219700  0.99922000  1
  P  P3  1  0.75953100  0.58780300  0.00078000  1
  P  P4  1  0.60583200  0.13234300  0.82173600  1
  P  P5  1  0.10583200  0.36765700  0.17826400  1
  P  P6  1  0.89416800  0.86765700  0.32173600  1
  P  P7  1  0.39416800  0.63234300  0.67826400  1
  O  O0  1  0.08316300  0.98113900  0.70053600  1
  O  O1  1  0.58316300  0.51886100  0.29946400  1
  O  O2  1  0.41683700  0.01886100  0.20053600  1
  O  O3  1  0.91683700  0.48113900  0.79946400  1
  O  O4  1  0.43704300  0.03393600  0.80342000  1
  O  O5  1  0.93704300  0.46606400  0.19658000  1
  O  O6  1  0.06295700  0.96606400  0.30342000  1
  O  O7  1  0.56295700  0.53393600  0.69658000  1
  O  O8  1  0.95274800  0.75379800  0.59530800  1
  O  O9  1  0.45274800  0.74620200  0.40469200  1
  O  O10  1  0.54725200  0.24620200  0.09530800  1
  O  O11  1  0.04725200  0.25379800  0.90469200  1
  O  O12  1  0.54805800  0.23164100  0.89503100  1
  O  O13  1  0.04805800  0.26835900  0.10496900  1
  O  O14  1  0.95194200  0.76835900  0.39503100  1
  O  O15  1  0.45194200  0.73164100  0.60496900  1
  O  O16  1  0.70947400  0.96331700  0.63280000  1
  O  O17  1  0.20947400  0.53668300  0.36720000  1
  O  O18  1  0.79052600  0.03668300  0.13280000  1
  O  O19  1  0.29052600  0.46331700  0.86720000  1
  O  O20  1  0.77415200  0.04762700  0.85860000  1
  O  O21  1  0.27415200  0.45237300  0.14140000  1
  O  O22  1  0.72584800  0.95237300  0.35860000  1
  O  O23  1  0.22584800  0.54762700  0.64140000  1
  O  O24  1  0.01718400  0.11386800  0.49879300  1
  O  O25  1  0.51718400  0.38613200  0.50120700  1
  O  O26  1  0.48281600  0.88613200  0.99879300  1
  O  O27  1  0.98281600  0.61386800  0.00120700  1
  O  O28  1  0.33191000  0.14370400  0.58356800  1
  O  O29  1  0.83191000  0.35629600  0.41643200  1
  O  O30  1  0.16809000  0.85629600  0.08356800  1
  O  O31  1  0.66809000  0.64370400  0.91643200  1
  O  O32  1  0.17023600  0.85772300  0.91310800  1
  O  O33  1  0.67023600  0.64227700  0.08689200  1
  O  O34  1  0.32976400  0.14227700  0.41310800  1
  O  O35  1  0.82976400  0.35772300  0.58689200  1
  O  O36  1  0.28800900  0.94103600  0.50043300  1
  O  O37  1  0.78800900  0.55896400  0.49956700  1
  O  O38  1  0.21199100  0.05896400  0.00043300  1
  O  O39  1  0.71199100  0.44103600  0.99956700  1
  O  O40  1  0.83901500  0.77184000  0.77188200  1
  O  O41  1  0.33901500  0.72816000  0.22811800  1
  O  O42  1  0.66098500  0.22816000  0.27188200  1
  O  O43  1  0.16098500  0.27184000  0.72811800  1
  O  O44  1  0.65785600  0.21393200  0.73993900  1
  O  O45  1  0.15785600  0.28606800  0.26006100  1
  O  O46  1  0.84214400  0.78606800  0.23993900  1
  O  O47  1  0.34214400  0.71393200  0.76006100  1
loop_
_geom_bond_atom_site_label_1
_geom_bond_atom_site_label_2
_geom_bond_distance
_geom_bond_site_symmetry_2
Cd0 O32 2.257923 1_555
Cd0 O27 2.342639 1_456
Cd0 O47 2.381484 1_555
Cd0 O3 2.409973 1_455
Cd0 O40 2.453734 1_455
Cd0 O19 2.504486 1_555
Cd1 O33 2.257923 1_555
Cd1 O26 2.342639 1_554
Cd1 O46 2.381484 1_555
Cd1 O2 2.409973 1_565
Cd1 O41 2.453734 1_555
Cd1 O18 2.504486 1_565
Cd2 O34 2.257923 1_555
Cd2 O25 2.342639 1_555
Cd2 O45 2.381484 1_555
Cd2 O1 2.409973 1_555
Cd2 O42 2.453734 1_555
Cd2 O17 2.504486 1_555
Cd3 O35 2.257923 1_555
Cd3 O24 2.342639 1_655
Cd3 O44 2.381484 1_555
Cd3 O0 2.409973 1_645
Cd3 O43 2.453734 1_655
Cd3 O16 2.504486 1_545
Cd4 O28 2.228588 1_555
Cd4 O43 2.265455 1_555
Cd4 O25 2.309191 1_555
Cd4 O7 2.490053 1_555
Cd4 O23 2.529086 1_555
Cd4 O44 2.645268 1_555
Cd5 O29 2.228588 1_555
Cd5 O42 2.265455 1_555
Cd5 O24 2.309191 1_655
Cd5 O6 2.490053 1_645
Cd5 O22 2.529086 1_545
Cd5 O45 2.645268 1_655
Cd6 O30 2.228588 1_555
Cd6 O41 2.265455 1_555
Cd6 O27 2.309191 1_455
Cd6 O5 2.490053 1_455
Cd6 O21 2.529086 1_555
Cd6 O46 2.645268 1_455
Cd7 O31 2.228588 1_555
Cd7 O40 2.265455 1_555
Cd7 O26 2.309191 1_555
Cd7 O4 2.490053 1_565
Cd7 O20 2.529086 1_565
Cd7 O47 2.645268 1_555
Cd8 O8 2.262230 1_455
Cd8 O9 2.295288 1_555
Cd8 O14 2.363559 1_455
Cd8 O36 2.381007 1_555
Cd8 O15 2.403350 1_555
Cd8 O17 2.776374 1_555
Cd9 O9 2.262230 1_555
Cd9 O8 2.295288 1_555
Cd9 O15 2.363559 1_555
Cd9 O37 2.381007 1_555
Cd9 O14 2.403350 1_555
Cd9 O16 2.776374 1_555
Cd10 O10 2.262230 1_556
Cd10 O11 2.295288 1_555
Cd10 O12 2.363559 1_555
Cd10 O38 2.381007 1_556
Cd10 O13 2.403350 1_556
Cd10 O19 2.776374 1_555
Cd11 O11 2.262230 1_654
Cd11 O10 2.295288 1_555
Cd11 O13 2.363559 1_655
Cd11 O39 2.381007 1_554
Cd11 O12 2.403350 1_554
Cd11 O18 2.776374 1_555
Cd12 O3 2.277398 1_555
Cd12 O23 2.307961 1_655
Cd12 O8 2.325690 1_555
Cd12 O7 2.354092 1_555
Cd12 O35 2.380284 1_555
Cd12 O37 2.561470 1_555
Cd13 O2 2.277398 1_565
Cd13 O22 2.307961 1_555
Cd13 O9 2.325690 1_555
Cd13 O6 2.354092 1_555
Cd13 O34 2.380284 1_565
Cd13 O36 2.561470 1_555
Cd14 O1 2.277398 1_555
Cd14 O21 2.307961 1_555
Cd14 O10 2.325690 1_555
Cd14 O5 2.354092 1_555
Cd14 O33 2.380284 1_555
Cd14 O39 2.561470 1_554
Cd15 O0 2.277398 1_545
Cd15 O20 2.307961 1_455
Cd15 O11 2.325690 1_555
Cd15 O4 2.354092 1_555
Cd15 O32 2.380284 1_545
Cd15 O38 2.561470 1_556
Cd16 O19 2.212399 1_555
Cd16 O3 2.258765 1_555
Cd16 O31 2.370161 1_555
Cd16 O7 2.397405 1_555
Cd16 O12 2.441887 1_555
Cd16 O39 2.539630 1_555
Cd17 O18 2.212399 1_455
Cd17 O2 2.258765 1_555
Cd17 O30 2.370161 1_545
Cd17 O6 2.397405 1_545
Cd17 O13 2.441887 1_555
Cd17 O38 2.539630 1_555
Cd18 O17 2.212399 1_655
Cd18 O1 2.258765 1_555
Cd18 O29 2.370161 1_555
Cd18 O5 2.397405 1_555
Cd18 O14 2.441887 1_555
Cd18 O37 2.539630 1_555
Cd19 O16 2.212399 1_555
Cd19 O0 2.258765 1_555
Cd19 O28 2.370161 1_565
Cd19 O4 2.397405 1_565
Cd19 O15 2.441887 1_555
Cd19 O36 2.539630 1_555
Ge0 O40 1.761182 1_555
Ge0 O16 1.774947 1_555
Ge0 O0 1.785317 1_655
Ge0 O8 1.800486 1_555
Ge1 O41 1.761182 1_555
Ge1 O17 1.774947 1_555
Ge1 O1 1.785317 1_555
Ge1 O9 1.800486 1_555
Ge2 O42 1.761182 1_555
Ge2 O18 1.774947 1_555
Ge2 O2 1.785317 1_555
Ge2 O10 1.800486 1_555
Ge3 O43 1.761182 1_555
Ge3 O19 1.774947 1_555
Ge3 O3 1.785317 1_455
Ge3 O11 1.800486 1_555
O4 P4 1.573814 1_555
O5 P5 1.573814 1_655
O6 P6 1.573814 1_455
O7 P7 1.573814 1_555
O12 P4 1.576322 1_555
O13 P5 1.576322 1_555
O14 P6 1.576322 1_555
O15 P7 1.576322 1_555
O20 P4 1.561499 1_555
O21 P5 1.561499 1_555
O22 P6 1.561499 1_555
O23 P7 1.561499 1_555
O24 P0 1.561201 1_555
O25 P1 1.561201 1_555
O26 P2 1.561201 1_555
O27 P3 1.561201 1_555
O28 P0 1.550221 1_555
O29 P1 1.550221 1_555
O30 P2 1.550221 1_554
O31 P3 1.550221 1_556
O32 P2 1.561502 1_555
O33 P3 1.561502 1_555
O34 P0 1.561502 1_555
O35 P1 1.561502 1_555
O36 P0 1.561201 1_565
O37 P1 1.561201 1_555
O38 P2 1.561201 1_544
O39 P3 1.561201 1_556
O44 P4 1.554883 1_555
O45 P5 1.554883 1_555
O46 P6 1.554883 1_555
O47 P7 1.554883 1_555
