# generated using pymatgen
data_Dy2CdTe4
_symmetry_space_group_name_H-M   'P 1'
_cell_length_a   8.93875885
_cell_length_b   8.93875885
_cell_length_c   8.93875885
_cell_angle_alpha   60.00000000
_cell_angle_beta   60.00000000
_cell_angle_gamma   60.00000000
_symmetry_Int_Tables_number   1
_chemical_formula_structural   Dy2CdTe4
_chemical_formula_sum   'Dy4 Cd2 Te8'
_cell_volume   505.02940531
_cell_formula_units_Z   2
loop_
 _symmetry_equiv_pos_site_id
 _symmetry_equiv_pos_as_xyz
  1  'x, y, z'
loop_
 _atom_site_type_symbol
 _atom_site_label
 _atom_site_symmetry_multiplicity
 _atom_site_fract_x
 _atom_site_fract_y
 _atom_site_fract_z
 _atom_site_occupancy
  Dy  Dy0  1  0.12500000  0.62500000  0.62500000  1
  Dy  Dy1  1  0.62500000  0.12500000  0.62500000  1
  Dy  Dy2  1  0.62500000  0.62500000  0.12500000  1
  Dy  Dy3  1  0.62500000  0.62500000  0.62500000  1
  Cd  Cd0  1  0.25000000  0.25000000  0.25000000  1
  Cd  Cd1  1  0.00000000  0.00000000  0.00000000  1
  Te  Te0  1  0.85733400  0.38088900  0.38088900  1
  Te  Te1  1  0.38088900  0.85733400  0.38088900  1
  Te  Te2  1  0.38088900  0.38088900  0.85733400  1
  Te  Te3  1  0.38088900  0.38088900  0.38088900  1
  Te  Te4  1  0.39266600  0.86911100  0.86911100  1
  Te  Te5  1  0.86911100  0.39266600  0.86911100  1
  Te  Te6  1  0.86911100  0.86911100  0.39266600  1
  Te  Te7  1  0.86911100  0.86911100  0.86911100  1
loop_
_geom_bond_atom_site_label_1
_geom_bond_atom_site_label_2
_geom_bond_distance
_geom_bond_site_symmetry_2
Dy0 Te7 3.087679 1_455
Dy0 Te3 3.087679 1_555
Dy0 Te1 3.087685 1_555
Dy0 Te2 3.087685 1_555
Dy0 Te5 3.087685 1_455
Dy0 Te6 3.087685 1_455
Dy1 Te7 3.087679 1_545
Dy1 Te3 3.087679 1_555
Dy1 Te0 3.087685 1_555
Dy1 Te2 3.087685 1_555
Dy1 Te4 3.087685 1_545
Dy1 Te6 3.087685 1_545
Dy2 Te3 3.087679 1_555
Dy2 Te7 3.087679 1_554
Dy2 Te0 3.087685 1_555
Dy2 Te1 3.087685 1_555
Dy2 Te4 3.087685 1_554
Dy2 Te5 3.087685 1_554
Dy3 Te4 3.087679 1_555
Dy3 Te5 3.087679 1_555
Dy3 Te6 3.087679 1_555
Dy3 Te0 3.087679 1_555
Dy3 Te1 3.087679 1_555
Dy3 Te2 3.087679 1_555
Cd0 Te2 2.865859 1_554
Cd0 Te1 2.865859 1_545
Cd0 Te0 2.865859 1_455
Cd0 Te3 2.865867 1_555
Cd1 Te4 2.865859 1_544
Cd1 Te5 2.865859 1_454
Cd1 Te6 2.865859 1_445
Cd1 Te7 2.865867 1_444
