# generated using pymatgen
data_Eu2Mg
_symmetry_space_group_name_H-M   'P 1'
_cell_length_a   19.04848097
_cell_length_b   19.04848097
_cell_length_c   11.99501600
_cell_angle_alpha   90.00000000
_cell_angle_beta   90.00000000
_cell_angle_gamma   156.54035600
_symmetry_Int_Tables_number   1
_chemical_formula_structural   Eu2Mg
_chemical_formula_sum   'Eu32 Mg16'
_cell_volume   1732.67466857
_cell_formula_units_Z   16
loop_
 _symmetry_equiv_pos_site_id
 _symmetry_equiv_pos_as_xyz
  1  'x, y, z'
loop_
 _atom_site_type_symbol
 _atom_site_label
 _atom_site_symmetry_multiplicity
 _atom_site_fract_x
 _atom_site_fract_y
 _atom_site_fract_z
 _atom_site_occupancy
  Eu  Eu0_0  1  0.04584850  0.45415150  0.12500000  1
  Eu  Eu0_1  1  0.04584850  0.45415150  0.62500000  1
  Eu  Eu0_2  1  0.04584850  0.95415150  0.12500000  1
  Eu  Eu0_3  1  0.04584850  0.95415150  0.62500000  1
  Eu  Eu0_4  1  0.54584850  0.45415150  0.12500000  1
  Eu  Eu0_5  1  0.54584850  0.45415150  0.62500000  1
  Eu  Eu0_6  1  0.54584850  0.95415150  0.12500000  1
  Eu  Eu0_7  1  0.54584850  0.95415150  0.62500000  1
  Eu  Eu1_0  1  0.39086500  0.10913500  0.12500000  1
  Eu  Eu1_1  1  0.39086500  0.10913500  0.62500000  1
  Eu  Eu1_2  1  0.39086500  0.60913500  0.12500000  1
  Eu  Eu1_3  1  0.39086500  0.60913500  0.62500000  1
  Eu  Eu1_4  1  0.89086500  0.10913500  0.12500000  1
  Eu  Eu1_5  1  0.89086500  0.10913500  0.62500000  1
  Eu  Eu1_6  1  0.89086500  0.60913500  0.12500000  1
  Eu  Eu1_7  1  0.89086500  0.60913500  0.62500000  1
  Eu  Eu2_0  1  0.45415150  0.04584850  0.37500000  1
  Eu  Eu2_1  1  0.45415150  0.04584850  0.87500000  1
  Eu  Eu2_2  1  0.45415150  0.54584850  0.37500000  1
  Eu  Eu2_3  1  0.45415150  0.54584850  0.87500000  1
  Eu  Eu2_4  1  0.95415150  0.04584850  0.37500000  1
  Eu  Eu2_5  1  0.95415150  0.04584850  0.87500000  1
  Eu  Eu2_6  1  0.95415150  0.54584850  0.37500000  1
  Eu  Eu2_7  1  0.95415150  0.54584850  0.87500000  1
  Eu  Eu3_0  1  0.10913500  0.39086500  0.37500000  1
  Eu  Eu3_1  1  0.10913500  0.39086500  0.87500000  1
  Eu  Eu3_2  1  0.10913500  0.89086500  0.37500000  1
  Eu  Eu3_3  1  0.10913500  0.89086500  0.87500000  1
  Eu  Eu3_4  1  0.60913500  0.39086500  0.37500000  1
  Eu  Eu3_5  1  0.60913500  0.39086500  0.87500000  1
  Eu  Eu3_6  1  0.60913500  0.89086500  0.37500000  1
  Eu  Eu3_7  1  0.60913500  0.89086500  0.87500000  1
  Mg  Mg0_0  1  0.21923100  0.28076900  0.12500000  1
  Mg  Mg0_1  1  0.21923100  0.28076900  0.62500000  1
  Mg  Mg0_2  1  0.21923100  0.78076900  0.12500000  1
  Mg  Mg0_3  1  0.21923100  0.78076900  0.62500000  1
  Mg  Mg0_4  1  0.71923100  0.28076900  0.12500000  1
  Mg  Mg0_5  1  0.71923100  0.28076900  0.62500000  1
  Mg  Mg0_6  1  0.71923100  0.78076900  0.12500000  1
  Mg  Mg0_7  1  0.71923100  0.78076900  0.62500000  1
  Mg  Mg1_0  1  0.28076900  0.21923100  0.37500000  1
  Mg  Mg1_1  1  0.28076900  0.21923100  0.87500000  1
  Mg  Mg1_2  1  0.28076900  0.71923100  0.37500000  1
  Mg  Mg1_3  1  0.28076900  0.71923100  0.87500000  1
  Mg  Mg1_4  1  0.78076900  0.21923100  0.37500000  1
  Mg  Mg1_5  1  0.78076900  0.21923100  0.87500000  1
  Mg  Mg1_6  1  0.78076900  0.71923100  0.37500000  1
  Mg  Mg1_7  1  0.78076900  0.71923100  0.87500000  1
loop_
_geom_bond_atom_site_label_1
_geom_bond_atom_site_label_2
_geom_bond_distance
_geom_bond_site_symmetry_2
Eu0_0 Mg0_2 3.452083 1_555
Eu0_0 Mg0_4 3.452083 1_455
Eu0_0 Mg1_3 3.613582 1_554
Eu0_0 Mg1_2 3.613582 1_555
Eu0_0 Mg1_5 3.613582 1_454
Eu0_0 Mg1_4 3.613582 1_455
Eu0_0 Eu3_1 3.816452 1_554
Eu0_0 Eu3_0 3.816452 1_555
Eu0_0 Eu1_2 4.038657 1_555
Eu0_0 Eu1_4 4.038657 1_455
Eu0_1 Mg0_3 3.452083 1_555
Eu0_1 Mg0_5 3.452083 1_455
Eu0_1 Mg1_2 3.613582 1_555
Eu0_1 Mg1_3 3.613582 1_555
Eu0_1 Mg1_4 3.613582 1_455
Eu0_1 Mg1_5 3.613582 1_455
Eu0_1 Eu3_0 3.816452 1_555
Eu0_1 Eu3_1 3.816452 1_555
Eu0_1 Eu1_3 4.038657 1_555
Eu0_1 Eu1_5 4.038657 1_455
Eu0_2 Mg0_6 3.452083 1_455
Eu0_2 Mg0_0 3.452083 1_565
Eu0_2 Mg1_1 3.613582 1_564
Eu0_2 Mg1_0 3.613582 1_565
Eu0_2 Mg1_7 3.613582 1_454
Eu0_2 Mg1_6 3.613582 1_455
Eu0_2 Eu3_3 3.816452 1_554
Eu0_2 Eu3_2 3.816452 1_555
Eu0_2 Eu1_0 4.038657 1_565
Eu0_2 Eu1_6 4.038657 1_455
Eu0_3 Mg0_7 3.452083 1_455
Eu0_3 Mg0_1 3.452083 1_565
Eu0_3 Mg1_0 3.613582 1_565
Eu0_3 Mg1_1 3.613582 1_565
Eu0_3 Mg1_6 3.613582 1_455
Eu0_3 Mg1_7 3.613582 1_455
Eu0_3 Eu3_2 3.816452 1_555
Eu0_3 Eu3_3 3.816452 1_555
Eu0_3 Eu1_1 4.038657 1_565
Eu0_3 Eu1_7 4.038657 1_455
Eu0_4 Mg0_6 3.452083 1_555
Eu0_4 Mg0_0 3.452083 1_555
Eu0_4 Mg1_7 3.613582 1_554
Eu0_4 Mg1_6 3.613582 1_555
Eu0_4 Mg1_1 3.613582 1_554
Eu0_4 Mg1_0 3.613582 1_555
Eu0_4 Eu3_5 3.816452 1_554
Eu0_4 Eu3_4 3.816452 1_555
Eu0_4 Eu1_0 4.038657 1_555
Eu0_4 Eu1_6 4.038657 1_555
Eu0_5 Mg0_7 3.452083 1_555
Eu0_5 Mg0_1 3.452083 1_555
Eu0_5 Mg1_6 3.613582 1_555
Eu0_5 Mg1_7 3.613582 1_555
Eu0_5 Mg1_0 3.613582 1_555
Eu0_5 Mg1_1 3.613582 1_555
Eu0_5 Eu3_4 3.816452 1_555
Eu0_5 Eu3_5 3.816452 1_555
Eu0_5 Eu1_1 4.038657 1_555
Eu0_5 Eu1_7 4.038657 1_555
Eu0_6 Mg0_4 3.452083 1_565
Eu0_6 Mg0_2 3.452083 1_555
Eu0_6 Mg1_5 3.613582 1_564
Eu0_6 Mg1_4 3.613582 1_565
Eu0_6 Mg1_3 3.613582 1_554
Eu0_6 Mg1_2 3.613582 1_555
Eu0_6 Eu3_7 3.816452 1_554
Eu0_6 Eu3_6 3.816452 1_555
Eu0_6 Eu1_4 4.038657 1_565
Eu0_6 Eu1_2 4.038657 1_555
Eu0_7 Mg0_5 3.452083 1_565
Eu0_7 Mg0_3 3.452083 1_555
Eu0_7 Mg1_4 3.613582 1_565
Eu0_7 Mg1_5 3.613582 1_565
Eu0_7 Mg1_2 3.613582 1_555
Eu0_7 Mg1_3 3.613582 1_555
Eu0_7 Eu3_6 3.816452 1_555
Eu0_7 Eu3_7 3.816452 1_555
Eu0_7 Eu1_3 4.038657 1_555
Eu0_7 Eu1_5 4.038657 1_565
Eu1_0 Mg0_4 3.506270 1_555
Eu1_0 Mg0_2 3.506270 1_545
Eu1_0 Eu3_5 3.760642 1_554
Eu1_0 Eu3_3 3.760642 1_544
Eu1_0 Eu3_4 3.760642 1_555
Eu1_0 Eu3_2 3.760642 1_545
Eu1_0 Eu2_1 3.816452 1_554
Eu1_0 Eu2_0 3.816452 1_555
Eu1_0 Eu1_6 3.872498 1_555
Eu1_0 Eu1_6 3.872498 1_445
Eu1_1 Mg0_5 3.506270 1_555
Eu1_1 Mg0_3 3.506270 1_545
Eu1_1 Eu3_4 3.760642 1_555
Eu1_1 Eu3_2 3.760642 1_545
Eu1_1 Eu3_3 3.760642 1_545
Eu1_1 Eu3_5 3.760642 1_555
Eu1_1 Eu2_0 3.816452 1_555
Eu1_1 Eu2_1 3.816452 1_555
Eu1_1 Eu1_7 3.872498 1_555
Eu1_1 Eu1_7 3.872498 1_445
Eu1_2 Mg0_0 3.506270 1_555
Eu1_2 Mg0_6 3.506270 1_555
Eu1_2 Eu3_7 3.760642 1_554
Eu1_2 Eu3_1 3.760642 1_554
Eu1_2 Eu3_6 3.760642 1_555
Eu1_2 Eu3_0 3.760642 1_555
Eu1_2 Eu2_3 3.816452 1_554
Eu1_2 Eu2_2 3.816452 1_555
Eu1_2 Eu1_4 3.872498 1_565
Eu1_2 Eu1_4 3.872498 1_455
Eu1_3 Mg0_7 3.506270 1_555
Eu1_3 Mg0_1 3.506270 1_555
Eu1_3 Eu3_6 3.760642 1_555
Eu1_3 Eu3_0 3.760642 1_555
Eu1_3 Eu3_7 3.760642 1_555
Eu1_3 Eu3_1 3.760642 1_555
Eu1_3 Eu2_2 3.816452 1_555
Eu1_3 Eu2_3 3.816452 1_555
Eu1_3 Eu1_5 3.872498 1_565
Eu1_3 Eu1_5 3.872498 1_455
Eu1_4 Mg0_0 3.506270 1_655
Eu1_4 Mg0_6 3.506270 1_545
Eu1_4 Eu3_7 3.760642 1_544
Eu1_4 Eu3_6 3.760642 1_545
Eu1_4 Eu3_1 3.760642 1_654
Eu1_4 Eu3_0 3.760642 1_655
Eu1_4 Eu2_5 3.816452 1_554
Eu1_4 Eu2_4 3.816452 1_555
Eu1_5 Mg0_1 3.506270 1_655
Eu1_5 Mg0_7 3.506270 1_545
Eu1_5 Eu3_6 3.760642 1_545
Eu1_5 Eu3_0 3.760642 1_655
Eu1_5 Eu3_7 3.760642 1_545
Eu1_5 Eu3_1 3.760642 1_655
Eu1_5 Eu2_4 3.816452 1_555
Eu1_5 Eu2_5 3.816452 1_555
Eu1_6 Mg0_2 3.506270 1_655
Eu1_6 Mg0_4 3.506270 1_555
Eu1_6 Eu3_5 3.760642 1_554
Eu1_6 Eu3_3 3.760642 1_654
Eu1_6 Eu3_4 3.760642 1_555
Eu1_6 Eu3_2 3.760642 1_655
Eu1_6 Eu2_7 3.816452 1_554
Eu1_6 Eu2_6 3.816452 1_555
Eu1_7 Mg0_3 3.506270 1_655
Eu1_7 Mg0_5 3.506270 1_555
Eu1_7 Eu3_4 3.760642 1_555
Eu1_7 Eu3_2 3.760642 1_655
Eu1_7 Eu3_5 3.760642 1_555
Eu1_7 Eu3_3 3.760642 1_655
Eu1_7 Eu2_6 3.816452 1_555
Eu1_7 Eu2_7 3.816452 1_555
Eu2_0 Mg1_4 3.452083 1_555
Eu2_0 Mg1_2 3.452083 1_545
Eu2_0 Mg0_4 3.613582 1_555
Eu2_0 Mg0_5 3.613582 1_555
Eu2_0 Mg0_2 3.613582 1_545
Eu2_0 Mg0_3 3.613582 1_545
Eu2_0 Eu3_4 4.038657 1_555
Eu2_0 Eu3_2 4.038657 1_545
Eu2_1 Mg1_5 3.452083 1_555
Eu2_1 Mg1_3 3.452083 1_545
Eu2_1 Mg0_4 3.613582 1_556
Eu2_1 Mg0_2 3.613582 1_546
Eu2_1 Mg0_5 3.613582 1_555
Eu2_1 Mg0_3 3.613582 1_545
Eu2_1 Eu3_3 4.038657 1_545
Eu2_1 Eu3_5 4.038657 1_555
Eu2_2 Mg1_0 3.452083 1_555
Eu2_2 Mg1_6 3.452083 1_555
Eu2_2 Mg0_6 3.613582 1_555
Eu2_2 Mg0_7 3.613582 1_555
Eu2_2 Mg0_1 3.613582 1_555
Eu2_2 Mg0_0 3.613582 1_555
Eu2_2 Eu3_6 4.038657 1_555
Eu2_2 Eu3_0 4.038657 1_555
Eu2_3 Mg1_1 3.452083 1_555
Eu2_3 Mg1_7 3.452083 1_555
Eu2_3 Mg0_6 3.613582 1_556
Eu2_3 Mg0_0 3.613582 1_556
Eu2_3 Mg0_7 3.613582 1_555
Eu2_3 Mg0_1 3.613582 1_555
Eu2_3 Eu3_7 4.038657 1_555
Eu2_3 Eu3_1 4.038657 1_555
Eu2_4 Mg1_0 3.452083 1_655
Eu2_4 Mg1_6 3.452083 1_545
Eu2_4 Mg0_0 3.613582 1_655
Eu2_4 Mg0_1 3.613582 1_655
Eu2_4 Mg0_6 3.613582 1_545
Eu2_4 Mg0_7 3.613582 1_545
Eu2_4 Eu3_6 4.038657 1_545
Eu2_4 Eu3_0 4.038657 1_655
Eu2_5 Mg1_1 3.452083 1_655
Eu2_5 Mg1_7 3.452083 1_545
Eu2_5 Mg0_0 3.613582 1_656
Eu2_5 Mg0_1 3.613582 1_655
Eu2_5 Mg0_6 3.613582 1_546
Eu2_5 Mg0_7 3.613582 1_545
Eu2_5 Eu3_7 4.038657 1_545
Eu2_5 Eu3_1 4.038657 1_655
Eu2_6 Mg1_2 3.452083 1_655
Eu2_6 Mg1_4 3.452083 1_555
Eu2_6 Mg0_3 3.613582 1_655
Eu2_6 Mg0_2 3.613582 1_655
Eu2_6 Mg0_4 3.613582 1_555
Eu2_6 Mg0_5 3.613582 1_555
Eu2_6 Eu3_2 4.038657 1_655
Eu2_6 Eu3_4 4.038657 1_555
Eu2_7 Mg1_3 3.452083 1_655
Eu2_7 Mg1_5 3.452083 1_555
Eu2_7 Mg0_2 3.613582 1_656
Eu2_7 Mg0_4 3.613582 1_556
Eu2_7 Mg0_3 3.613582 1_655
Eu2_7 Mg0_5 3.613582 1_555
Eu2_7 Eu3_3 4.038657 1_655
Eu2_7 Eu3_5 4.038657 1_555
Eu3_0 Mg1_2 3.506270 1_555
Eu3_0 Mg1_4 3.506270 1_455
Eu3_0 Eu3_6 3.872498 1_555
Eu3_0 Eu3_6 3.872498 1_445
Eu3_1 Mg1_3 3.506270 1_555
Eu3_1 Mg1_5 3.506270 1_455
Eu3_1 Eu3_7 3.872498 1_445
Eu3_1 Eu3_7 3.872498 1_555
Eu3_2 Mg1_6 3.506270 1_455
Eu3_2 Mg1_0 3.506270 1_565
Eu3_2 Eu3_4 3.872498 1_455
Eu3_2 Eu3_4 3.872498 1_565
Eu3_3 Mg1_7 3.506270 1_455
Eu3_3 Mg1_1 3.506270 1_565
Eu3_3 Eu3_5 3.872498 1_565
Eu3_3 Eu3_5 3.872498 1_455
Eu3_4 Mg1_6 3.506270 1_555
Eu3_4 Mg1_0 3.506270 1_555
Eu3_5 Mg1_7 3.506270 1_555
Eu3_5 Mg1_1 3.506270 1_555
Eu3_6 Mg1_4 3.506270 1_565
Eu3_6 Mg1_2 3.506270 1_555
Eu3_7 Mg1_5 3.506270 1_565
Eu3_7 Mg1_3 3.506270 1_555
