# generated using pymatgen
data_Zn2SbMoO6
_symmetry_space_group_name_H-M   'P 1'
_cell_length_a   8.07722000
_cell_length_b   5.38011700
_cell_length_c   5.40282867
_cell_angle_alpha   89.16796257
_cell_angle_beta   90.00000000
_cell_angle_gamma   90.00000000
_symmetry_Int_Tables_number   1
_chemical_formula_structural   Zn2SbMoO6
_chemical_formula_sum   'Zn4 Sb2 Mo2 O12'
_cell_volume   234.76266661
_cell_formula_units_Z   2
loop_
 _symmetry_equiv_pos_site_id
 _symmetry_equiv_pos_as_xyz
  1  'x, y, z'
loop_
 _atom_site_type_symbol
 _atom_site_label
 _atom_site_symmetry_multiplicity
 _atom_site_fract_x
 _atom_site_fract_y
 _atom_site_fract_z
 _atom_site_occupancy
  Zn  Zn0  1  0.75000000  0.51087000  0.53266700  1
  Zn  Zn1  1  0.25000000  0.48913000  0.46733300  1
  Zn  Zn2  1  0.75000000  0.98052600  0.01488000  1
  Zn  Zn3  1  0.25000000  0.01947400  0.98512000  1
  Sb  Sb0  1  0.50000000  0.00000000  0.50000000  1
  Sb  Sb1  1  0.00000000  0.00000000  0.50000000  1
  Mo  Mo0  1  0.50000000  0.50000000  0.00000000  1
  Mo  Mo1  1  0.00000000  0.50000000  0.00000000  1
  O  O0  1  0.42973700  0.65383200  0.67255300  1
  O  O1  1  0.07293800  0.82721600  0.16952600  1
  O  O2  1  0.92973700  0.34616800  0.32744700  1
  O  O3  1  0.57293800  0.17278400  0.83047400  1
  O  O4  1  0.42706200  0.82721600  0.16952600  1
  O  O5  1  0.92706200  0.17278400  0.83047400  1
  O  O6  1  0.25000000  0.11267700  0.59848500  1
  O  O7  1  0.07026300  0.65383200  0.67255300  1
  O  O8  1  0.75000000  0.62333200  0.89875900  1
  O  O9  1  0.57026300  0.34616800  0.32744700  1
  O  O10  1  0.75000000  0.88732300  0.40151500  1
  O  O11  1  0.25000000  0.37666800  0.10124100  1
loop_
_geom_bond_atom_site_label_1
_geom_bond_atom_site_label_2
_geom_bond_distance
_geom_bond_site_symmetry_2
Mo0 O9 2.023463 1_555
Mo0 O0 2.023463 1_554
Mo0 O4 2.081356 1_555
Mo0 O3 2.081356 1_554
Mo0 O8 2.192381 1_554
Mo0 O11 2.192381 1_555
Mo1 O7 2.023463 1_554
Mo1 O2 2.023463 1_455
Mo1 O1 2.081356 1_555
Mo1 O5 2.081356 1_454
Mo1 O11 2.192381 1_555
Mo1 O8 2.192381 1_454
O0 Zn1 2.037340 1_555
O0 Sb0 2.146957 1_565
O1 Zn3 2.019410 1_564
O1 Sb1 2.108893 1_565
O2 Zn0 2.037340 1_555
O2 Sb1 2.146957 1_655
O3 Zn2 2.019410 1_546
O3 Sb0 2.108893 1_555
O4 Zn3 2.019410 1_564
O4 Sb0 2.108893 1_565
O5 Zn2 2.019410 1_546
O5 Sb1 2.108893 1_655
O6 Zn1 2.136003 1_555
O6 Zn3 2.141173 1_555
O6 Sb0 2.176600 1_555
O6 Sb1 2.176600 1_555
O7 Zn1 2.037340 1_555
O7 Sb1 2.146957 1_565
O8 Zn2 2.030204 1_556
O8 Zn0 2.076793 1_555
O9 Zn0 2.037340 1_555
O9 Sb0 2.146957 1_555
O10 Zn0 2.136003 1_555
O10 Zn2 2.141173 1_555
O10 Sb0 2.176600 1_565
O10 Sb1 2.176600 1_665
O11 Zn3 2.030204 1_554
O11 Zn1 2.076793 1_555
