# generated using pymatgen
data_MgTiCr(PO4)3
_symmetry_space_group_name_H-M   'P 1'
_cell_length_a   8.53409906
_cell_length_b   8.53409906
_cell_length_c   8.53409879
_cell_angle_alpha   60.48602556
_cell_angle_beta   60.48602556
_cell_angle_gamma   60.48602600
_symmetry_Int_Tables_number   1
_chemical_formula_structural   MgTiCr(PO4)3
_chemical_formula_sum   'Mg2 Ti2 Cr2 P6 O24'
_cell_volume   444.32709330
_cell_formula_units_Z   2
loop_
 _symmetry_equiv_pos_site_id
 _symmetry_equiv_pos_as_xyz
  1  'x, y, z'
loop_
 _atom_site_type_symbol
 _atom_site_label
 _atom_site_symmetry_multiplicity
 _atom_site_fract_x
 _atom_site_fract_y
 _atom_site_fract_z
 _atom_site_occupancy
  Mg  Mg0  1  0.00151500  0.00151500  0.00151500  1
  Mg  Mg1  1  0.50151500  0.50151500  0.50151500  1
  Ti  Ti0  1  0.85566700  0.85566700  0.85566700  1
  Ti  Ti1  1  0.35566700  0.35566700  0.35566700  1
  Cr  Cr0  1  0.64224300  0.64224300  0.64224300  1
  Cr  Cr1  1  0.14224300  0.14224300  0.14224300  1
  P  P0  1  0.95493500  0.54307400  0.24948700  1
  P  P1  1  0.54307400  0.24948700  0.95493500  1
  P  P2  1  0.24948700  0.95493500  0.54307400  1
  P  P3  1  0.74948700  0.04307400  0.45493500  1
  P  P4  1  0.45493500  0.74948700  0.04307400  1
  P  P5  1  0.04307400  0.45493500  0.74948700  1
  O  O0  1  0.88701200  0.49380700  0.68620000  1
  O  O1  1  0.68620000  0.88701200  0.49380700  1
  O  O2  1  0.94566200  0.74118700  0.08711600  1
  O  O3  1  0.49380700  0.68620000  0.88701200  1
  O  O4  1  0.99380700  0.38701200  0.18620000  1
  O  O5  1  0.75894900  0.56094100  0.41104000  1
  O  O6  1  0.74118700  0.08711600  0.94566200  1
  O  O7  1  0.56094100  0.41104000  0.75894900  1
  O  O8  1  0.81327500  0.99784200  0.62005100  1
  O  O9  1  0.41104000  0.75894900  0.56094100  1
  O  O10  1  0.91104000  0.06094100  0.25894900  1
  O  O11  1  0.62005100  0.81327500  0.99784200  1
  O  O12  1  0.38701200  0.18620000  0.99380700  1
  O  O13  1  0.08711600  0.94566200  0.74118700  1
  O  O14  1  0.58711600  0.24118700  0.44566200  1
  O  O15  1  0.18620000  0.99380700  0.38701200  1
  O  O16  1  0.44566200  0.58711600  0.24118700  1
  O  O17  1  0.25894900  0.91104000  0.06094100  1
  O  O18  1  0.24118700  0.44566200  0.58711600  1
  O  O19  1  0.99784200  0.62005100  0.81327500  1
  O  O20  1  0.49784200  0.31327500  0.12005100  1
  O  O21  1  0.06094100  0.25894900  0.91104000  1
  O  O22  1  0.31327500  0.12005100  0.49784200  1
  O  O23  1  0.12005200  0.49784200  0.31327500  1
loop_
_geom_bond_atom_site_label_1
_geom_bond_atom_site_label_2
_geom_bond_distance
_geom_bond_site_symmetry_2
Mg0 O10 2.172707 1_455
Mg0 O17 2.172707 1_545
Mg0 O21 2.172707 1_554
Mg0 O13 2.190404 1_544
Mg0 O6 2.190405 1_454
Mg0 O2 2.190405 1_445
Mg1 O7 2.172707 1_555
Mg1 O9 2.172707 1_555
Mg1 O5 2.172707 1_555
Mg1 O16 2.190404 1_555
Mg1 O14 2.190405 1_555
Mg1 O18 2.190405 1_555
Cr0 O3 1.950785 1_555
Cr0 O1 1.950785 1_555
Cr0 O0 1.950785 1_555
Cr0 O5 2.024426 1_555
Cr0 O9 2.024426 1_555
Cr0 O7 2.024426 1_555
Cr1 O15 1.950785 1_545
Cr1 O12 1.950785 1_554
Cr1 O4 1.950785 1_455
Cr1 O21 2.024426 1_554
Cr1 O17 2.024426 1_545
Cr1 O10 2.024426 1_455
O0 P5 1.507468 1_655
O1 P3 1.507468 1_565
O2 P0 1.566153 1_555
O2 Ti0 2.073610 1_554
O3 P4 1.507468 1_556
O4 P0 1.507468 1_555
O5 P0 1.550934 1_555
O6 P1 1.566153 1_555
O6 Ti0 2.073610 1_545
O7 P1 1.550934 1_555
O8 P3 1.563258 1_565
O8 Ti0 1.877952 1_555
O9 P2 1.550934 1_555
O10 P3 1.550934 1_555
O11 P4 1.563258 1_556
O11 Ti0 1.877952 1_555
O12 P1 1.507468 1_555
O13 P2 1.566153 1_555
O13 Ti0 2.073610 1_455
O14 P3 1.566153 1_555
O14 Ti1 2.073610 1_555
O15 P2 1.507468 1_555
O16 P4 1.566153 1_555
O16 Ti1 2.073610 1_555
O17 P4 1.550934 1_555
O18 P5 1.566153 1_555
O18 Ti1 2.073610 1_555
O19 P5 1.563258 1_655
O19 Ti0 1.877952 1_555
O20 P1 1.563258 1_554
O20 Ti1 1.877952 1_555
O21 P5 1.550934 1_555
O22 P2 1.563258 1_545
O22 Ti1 1.877952 1_555
O23 P0 1.563266 1_455
O23 Ti1 1.877944 1_555
