# generated using pymatgen
data_CaMg
_symmetry_space_group_name_H-M   'P 1'
_cell_length_a   11.37457634
_cell_length_b   7.72116366
_cell_length_c   34.39690844
_cell_angle_alpha   90.00000000
_cell_angle_beta   90.00000000
_cell_angle_gamma   90.00000000
_symmetry_Int_Tables_number   1
_chemical_formula_structural   CaMg
_chemical_formula_sum   'Ca48 Mg48'
_cell_volume   3020.90729651
_cell_formula_units_Z   48
loop_
 _symmetry_equiv_pos_site_id
 _symmetry_equiv_pos_as_xyz
  1  'x, y, z'
loop_
 _atom_site_type_symbol
 _atom_site_label
 _atom_site_symmetry_multiplicity
 _atom_site_fract_x
 _atom_site_fract_y
 _atom_site_fract_z
 _atom_site_occupancy
  Ca  Ca0_0  1  0.00000000  0.25000000  0.09519757  1
  Ca  Ca0_1  1  0.00000000  0.25000000  0.59519757  1
  Ca  Ca0_2  1  0.00000000  0.75000000  0.09519757  1
  Ca  Ca0_3  1  0.00000000  0.75000000  0.59519757  1
  Ca  Ca0_4  1  0.50000000  0.25000000  0.09519757  1
  Ca  Ca0_5  1  0.50000000  0.25000000  0.59519757  1
  Ca  Ca0_6  1  0.50000000  0.75000000  0.09519757  1
  Ca  Ca0_7  1  0.50000000  0.75000000  0.59519757  1
  Ca  Ca1_0  1  0.25000000  0.25000000  0.17911900  1
  Ca  Ca1_1  1  0.25000000  0.25000000  0.67911900  1
  Ca  Ca1_2  1  0.25000000  0.75000000  0.17911900  1
  Ca  Ca1_3  1  0.25000000  0.75000000  0.67911900  1
  Ca  Ca1_4  1  0.75000000  0.25000000  0.17911900  1
  Ca  Ca1_5  1  0.75000000  0.25000000  0.67911900  1
  Ca  Ca1_6  1  0.75000000  0.75000000  0.17911900  1
  Ca  Ca1_7  1  0.75000000  0.75000000  0.67911900  1
  Ca  Ca2_0  1  0.25000000  0.25000000  0.02147965  1
  Ca  Ca2_1  1  0.25000000  0.25000000  0.52147965  1
  Ca  Ca2_2  1  0.25000000  0.75000000  0.02147965  1
  Ca  Ca2_3  1  0.25000000  0.75000000  0.52147965  1
  Ca  Ca2_4  1  0.75000000  0.25000000  0.02147965  1
  Ca  Ca2_5  1  0.75000000  0.25000000  0.52147965  1
  Ca  Ca2_6  1  0.75000000  0.75000000  0.02147965  1
  Ca  Ca2_7  1  0.75000000  0.75000000  0.52147965  1
  Ca  Ca3_0  1  0.00000000  0.00000000  0.34519757  1
  Ca  Ca3_1  1  0.00000000  0.00000000  0.84519757  1
  Ca  Ca3_2  1  0.00000000  0.50000000  0.34519757  1
  Ca  Ca3_3  1  0.00000000  0.50000000  0.84519757  1
  Ca  Ca3_4  1  0.50000000  0.00000000  0.34519757  1
  Ca  Ca3_5  1  0.50000000  0.00000000  0.84519757  1
  Ca  Ca3_6  1  0.50000000  0.50000000  0.34519757  1
  Ca  Ca3_7  1  0.50000000  0.50000000  0.84519757  1
  Ca  Ca4_0  1  0.25000000  0.00000000  0.42911901  1
  Ca  Ca4_1  1  0.25000000  0.00000000  0.92911900  1
  Ca  Ca4_2  1  0.25000000  0.50000000  0.42911901  1
  Ca  Ca4_3  1  0.25000000  0.50000000  0.92911900  1
  Ca  Ca4_4  1  0.75000000  0.00000000  0.42911901  1
  Ca  Ca4_5  1  0.75000000  0.00000000  0.92911900  1
  Ca  Ca4_6  1  0.75000000  0.50000000  0.42911901  1
  Ca  Ca4_7  1  0.75000000  0.50000000  0.92911900  1
  Ca  Ca5_0  1  0.25000000  0.00000000  0.27147964  1
  Ca  Ca5_1  1  0.25000000  0.00000000  0.77147964  1
  Ca  Ca5_2  1  0.25000000  0.50000000  0.27147964  1
  Ca  Ca5_3  1  0.25000000  0.50000000  0.77147964  1
  Ca  Ca5_4  1  0.75000000  0.00000000  0.27147964  1
  Ca  Ca5_5  1  0.75000000  0.00000000  0.77147964  1
  Ca  Ca5_6  1  0.75000000  0.50000000  0.27147964  1
  Ca  Ca5_7  1  0.75000000  0.50000000  0.77147964  1
  Mg  Mg0_0  1  0.00000000  0.25000000  0.25442887  1
  Mg  Mg0_1  1  0.00000000  0.25000000  0.75442886  1
  Mg  Mg0_2  1  0.00000000  0.75000000  0.25442887  1
  Mg  Mg0_3  1  0.00000000  0.75000000  0.75442886  1
  Mg  Mg0_4  1  0.50000000  0.25000000  0.25442887  1
  Mg  Mg0_5  1  0.50000000  0.25000000  0.75442886  1
  Mg  Mg0_6  1  0.50000000  0.75000000  0.25442887  1
  Mg  Mg0_7  1  0.50000000  0.75000000  0.75442886  1
  Mg  Mg1_0  1  0.00000000  0.00000000  0.18123516  1
  Mg  Mg1_1  1  0.00000000  0.00000000  0.68123516  1
  Mg  Mg1_2  1  0.00000000  0.50000000  0.18123516  1
  Mg  Mg1_3  1  0.00000000  0.50000000  0.68123516  1
  Mg  Mg1_4  1  0.50000000  0.00000000  0.18123516  1
  Mg  Mg1_5  1  0.50000000  0.00000000  0.68123516  1
  Mg  Mg1_6  1  0.50000000  0.50000000  0.18123516  1
  Mg  Mg1_7  1  0.50000000  0.50000000  0.68123516  1
  Mg  Mg2_0  1  0.25000000  0.00000000  0.10187275  1
  Mg  Mg2_1  1  0.25000000  0.00000000  0.60187276  1
  Mg  Mg2_2  1  0.25000000  0.50000000  0.10187275  1
  Mg  Mg2_3  1  0.25000000  0.50000000  0.60187276  1
  Mg  Mg2_4  1  0.75000000  0.00000000  0.10187275  1
  Mg  Mg2_5  1  0.75000000  0.00000000  0.60187276  1
  Mg  Mg2_6  1  0.75000000  0.50000000  0.10187275  1
  Mg  Mg2_7  1  0.75000000  0.50000000  0.60187276  1
  Mg  Mg3_0  1  0.00000000  0.00000000  0.00442886  1
  Mg  Mg3_1  1  0.00000000  0.00000000  0.50442887  1
  Mg  Mg3_2  1  0.00000000  0.50000000  0.00442886  1
  Mg  Mg3_3  1  0.00000000  0.50000000  0.50442887  1
  Mg  Mg3_4  1  0.50000000  0.00000000  0.00442886  1
  Mg  Mg3_5  1  0.50000000  0.00000000  0.50442887  1
  Mg  Mg3_6  1  0.50000000  0.50000000  0.00442886  1
  Mg  Mg3_7  1  0.50000000  0.50000000  0.50442887  1
  Mg  Mg4_0  1  0.00000000  0.25000000  0.43123516  1
  Mg  Mg4_1  1  0.00000000  0.25000000  0.93123516  1
  Mg  Mg4_2  1  0.00000000  0.75000000  0.43123516  1
  Mg  Mg4_3  1  0.00000000  0.75000000  0.93123516  1
  Mg  Mg4_4  1  0.50000000  0.25000000  0.43123516  1
  Mg  Mg4_5  1  0.50000000  0.25000000  0.93123516  1
  Mg  Mg4_6  1  0.50000000  0.75000000  0.43123516  1
  Mg  Mg4_7  1  0.50000000  0.75000000  0.93123516  1
  Mg  Mg5_0  1  0.25000000  0.25000000  0.35187275  1
  Mg  Mg5_1  1  0.25000000  0.25000000  0.85187276  1
  Mg  Mg5_2  1  0.25000000  0.75000000  0.35187275  1
  Mg  Mg5_3  1  0.25000000  0.75000000  0.85187276  1
  Mg  Mg5_4  1  0.75000000  0.25000000  0.35187275  1
  Mg  Mg5_5  1  0.75000000  0.25000000  0.85187276  1
  Mg  Mg5_6  1  0.75000000  0.75000000  0.35187275  1
  Mg  Mg5_7  1  0.75000000  0.75000000  0.85187276  1
loop_
_geom_bond_atom_site_label_1
_geom_bond_atom_site_label_2
_geom_bond_distance
_geom_bond_site_symmetry_2
Ca0_0 Mg2_0 3.444569 1_555
Ca0_0 Mg2_2 3.444569 1_555
Ca0_0 Mg2_4 3.444569 1_455
Ca0_0 Mg2_6 3.444569 1_455
Ca0_0 Mg1_0 3.533303 1_555
Ca0_0 Mg1_2 3.533303 1_555
Ca0_0 Mg3_2 3.670684 1_555
Ca0_0 Mg3_0 3.670684 1_555
Ca0_0 Ca2_0 3.809977 1_555
Ca0_0 Ca2_4 3.809977 1_455
Ca0_0 Ca0_2 3.860582 1_555
Ca0_0 Ca0_2 3.860582 1_545
Ca0_0 Ca1_0 4.052035 1_555
Ca0_0 Ca1_4 4.052035 1_455
Ca0_1 Mg2_3 3.444569 1_555
Ca0_1 Mg2_1 3.444569 1_555
Ca0_1 Mg2_7 3.444569 1_455
Ca0_1 Mg2_5 3.444569 1_455
Ca0_1 Mg1_3 3.533303 1_555
Ca0_1 Mg1_1 3.533303 1_555
Ca0_1 Mg3_3 3.670684 1_555
Ca0_1 Mg3_1 3.670684 1_555
Ca0_1 Ca2_1 3.809977 1_555
Ca0_1 Ca2_5 3.809977 1_455
Ca0_1 Ca0_3 3.860582 1_545
Ca0_1 Ca0_3 3.860582 1_555
Ca0_1 Ca1_1 4.052035 1_555
Ca0_1 Ca1_5 4.052035 1_455
Ca0_2 Mg2_0 3.444569 1_565
Ca0_2 Mg2_2 3.444569 1_555
Ca0_2 Mg2_4 3.444569 1_465
Ca0_2 Mg2_6 3.444569 1_455
Ca0_2 Mg1_0 3.533303 1_565
Ca0_2 Mg1_2 3.533303 1_555
Ca0_2 Mg3_2 3.670684 1_555
Ca0_2 Mg3_0 3.670684 1_565
Ca0_2 Ca2_2 3.809977 1_555
Ca0_2 Ca2_6 3.809977 1_455
Ca0_2 Ca1_2 4.052035 1_555
Ca0_2 Ca1_6 4.052035 1_455
Ca0_3 Mg2_3 3.444569 1_555
Ca0_3 Mg2_1 3.444569 1_565
Ca0_3 Mg2_7 3.444569 1_455
Ca0_3 Mg2_5 3.444569 1_465
Ca0_3 Mg1_3 3.533303 1_555
Ca0_3 Mg1_1 3.533303 1_565
Ca0_3 Mg3_3 3.670684 1_555
Ca0_3 Mg3_1 3.670684 1_565
Ca0_3 Ca2_3 3.809977 1_555
Ca0_3 Ca2_7 3.809977 1_455
Ca0_3 Ca1_3 4.052035 1_555
Ca0_3 Ca1_7 4.052035 1_455
Ca0_4 Mg2_6 3.444569 1_555
Ca0_4 Mg2_4 3.444569 1_555
Ca0_4 Mg2_0 3.444569 1_555
Ca0_4 Mg2_2 3.444569 1_555
Ca0_4 Mg1_6 3.533303 1_555
Ca0_4 Mg1_4 3.533303 1_555
Ca0_4 Mg3_6 3.670684 1_555
Ca0_4 Mg3_4 3.670684 1_555
Ca0_4 Ca2_4 3.809977 1_555
Ca0_4 Ca2_0 3.809977 1_555
Ca0_4 Ca0_6 3.860582 1_555
Ca0_4 Ca0_6 3.860582 1_545
Ca0_4 Ca1_4 4.052035 1_555
Ca0_4 Ca1_0 4.052035 1_555
Ca0_5 Mg2_7 3.444569 1_555
Ca0_5 Mg2_5 3.444569 1_555
Ca0_5 Mg2_3 3.444569 1_555
Ca0_5 Mg2_1 3.444569 1_555
Ca0_5 Mg1_7 3.533303 1_555
Ca0_5 Mg1_5 3.533303 1_555
Ca0_5 Mg3_7 3.670684 1_555
Ca0_5 Mg3_5 3.670684 1_555
Ca0_5 Ca2_5 3.809977 1_555
Ca0_5 Ca2_1 3.809977 1_555
Ca0_5 Ca0_7 3.860582 1_555
Ca0_5 Ca0_7 3.860582 1_545
Ca0_5 Ca1_5 4.052035 1_555
Ca0_5 Ca1_1 4.052035 1_555
Ca0_6 Mg2_6 3.444569 1_555
Ca0_6 Mg2_4 3.444569 1_565
Ca0_6 Mg2_0 3.444569 1_565
Ca0_6 Mg2_2 3.444569 1_555
Ca0_6 Mg1_6 3.533303 1_555
Ca0_6 Mg1_4 3.533303 1_565
Ca0_6 Mg3_6 3.670684 1_555
Ca0_6 Mg3_4 3.670684 1_565
Ca0_6 Ca2_6 3.809977 1_555
Ca0_6 Ca2_2 3.809977 1_555
Ca0_6 Ca1_6 4.052035 1_555
Ca0_6 Ca1_2 4.052035 1_555
Ca0_7 Mg2_7 3.444569 1_555
Ca0_7 Mg2_5 3.444569 1_565
Ca0_7 Mg2_3 3.444569 1_555
Ca0_7 Mg2_1 3.444569 1_565
Ca0_7 Mg1_7 3.533303 1_555
Ca0_7 Mg1_5 3.533303 1_565
Ca0_7 Mg3_7 3.670684 1_555
Ca0_7 Mg3_5 3.670684 1_565
Ca0_7 Ca2_7 3.809977 1_555
Ca0_7 Ca2_3 3.809977 1_555
Ca0_7 Ca1_7 4.052035 1_555
Ca0_7 Ca1_3 4.052035 1_555
Ca1_0 Mg2_2 3.284181 1_555
Ca1_0 Mg2_0 3.284181 1_555
Ca1_0 Mg1_0 3.437678 1_555
Ca1_0 Mg1_2 3.437678 1_555
Ca1_0 Mg1_6 3.437678 1_555
Ca1_0 Mg1_4 3.437678 1_555
Ca1_0 Ca5_2 3.717371 1_555
Ca1_0 Ca5_0 3.717371 1_555
Ca1_0 Mg0_0 3.846638 1_555
Ca1_0 Mg0_4 3.846638 1_555
Ca1_0 Ca1_2 3.860582 1_545
Ca1_0 Ca1_2 3.860582 1_555
Ca1_1 Mg2_3 3.284181 1_555
Ca1_1 Mg2_1 3.284181 1_555
Ca1_1 Mg1_7 3.437678 1_555
Ca1_1 Mg1_1 3.437678 1_555
Ca1_1 Mg1_5 3.437678 1_555
Ca1_1 Mg1_3 3.437678 1_555
Ca1_1 Ca5_3 3.717371 1_555
Ca1_1 Ca5_1 3.717371 1_555
Ca1_1 Mg0_1 3.846638 1_555
Ca1_1 Mg0_5 3.846638 1_555
Ca1_1 Ca1_3 3.860582 1_555
Ca1_1 Ca1_3 3.860582 1_545
Ca1_2 Mg2_2 3.284181 1_555
Ca1_2 Mg2_0 3.284181 1_565
Ca1_2 Mg1_0 3.437678 1_565
Ca1_2 Mg1_2 3.437678 1_555
Ca1_2 Mg1_6 3.437678 1_555
Ca1_2 Mg1_4 3.437678 1_565
Ca1_2 Ca5_0 3.717371 1_565
Ca1_2 Ca5_2 3.717371 1_555
Ca1_2 Mg0_6 3.846638 1_555
Ca1_2 Mg0_2 3.846638 1_555
Ca1_3 Mg2_3 3.284181 1_555
Ca1_3 Mg2_1 3.284181 1_565
Ca1_3 Mg1_7 3.437678 1_555
Ca1_3 Mg1_1 3.437678 1_565
Ca1_3 Mg1_5 3.437678 1_565
Ca1_3 Mg1_3 3.437678 1_555
Ca1_3 Ca5_1 3.717371 1_565
Ca1_3 Ca5_3 3.717371 1_555
Ca1_3 Mg0_7 3.846638 1_555
Ca1_3 Mg0_3 3.846638 1_555
Ca1_4 Mg2_4 3.284181 1_555
Ca1_4 Mg2_6 3.284181 1_555
Ca1_4 Mg1_6 3.437678 1_555
Ca1_4 Mg1_4 3.437678 1_555
Ca1_4 Mg1_0 3.437678 1_655
Ca1_4 Mg1_2 3.437678 1_655
Ca1_4 Ca5_6 3.717371 1_555
Ca1_4 Ca5_4 3.717371 1_555
Ca1_4 Mg0_4 3.846638 1_555
Ca1_4 Mg0_0 3.846638 1_655
Ca1_4 Ca1_6 3.860582 1_545
Ca1_4 Ca1_6 3.860582 1_555
Ca1_5 Mg2_5 3.284181 1_555
Ca1_5 Mg2_7 3.284181 1_555
Ca1_5 Mg1_7 3.437678 1_555
Ca1_5 Mg1_5 3.437678 1_555
Ca1_5 Mg1_1 3.437678 1_655
Ca1_5 Mg1_3 3.437678 1_655
Ca1_5 Ca5_7 3.717371 1_555
Ca1_5 Ca5_5 3.717371 1_555
Ca1_5 Mg0_5 3.846638 1_555
Ca1_5 Mg0_1 3.846638 1_655
Ca1_5 Ca1_7 3.860582 1_555
Ca1_5 Ca1_7 3.860582 1_545
Ca1_6 Mg2_6 3.284181 1_555
Ca1_6 Mg2_4 3.284181 1_565
Ca1_6 Mg1_6 3.437678 1_555
Ca1_6 Mg1_4 3.437678 1_565
Ca1_6 Mg1_2 3.437678 1_655
Ca1_6 Mg1_0 3.437678 1_665
Ca1_6 Ca5_4 3.717371 1_565
Ca1_6 Ca5_6 3.717371 1_555
Ca1_6 Mg0_6 3.846638 1_555
Ca1_6 Mg0_2 3.846638 1_655
Ca1_7 Mg2_5 3.284181 1_565
Ca1_7 Mg2_7 3.284181 1_555
Ca1_7 Mg1_7 3.437678 1_555
Ca1_7 Mg1_5 3.437678 1_565
Ca1_7 Mg1_1 3.437678 1_665
Ca1_7 Mg1_3 3.437678 1_655
Ca1_7 Ca5_7 3.717371 1_555
Ca1_7 Ca5_5 3.717371 1_565
Ca1_7 Mg0_7 3.846638 1_555
Ca1_7 Mg0_3 3.846638 1_655
Ca2_0 Mg2_2 3.372353 1_555
Ca2_0 Mg2_0 3.372353 1_555
Ca2_0 Mg3_4 3.486590 1_555
Ca2_0 Mg3_2 3.486590 1_555
Ca2_0 Mg3_6 3.486590 1_555
Ca2_0 Mg3_0 3.486590 1_555
Ca2_0 Ca4_3 3.717371 1_554
Ca2_0 Ca4_1 3.717371 1_554
Ca2_0 Ca2_2 3.860582 1_555
Ca2_0 Ca2_2 3.860582 1_545
Ca2_1 Mg2_3 3.372353 1_555
Ca2_1 Mg2_1 3.372353 1_555
Ca2_1 Mg3_1 3.486590 1_555
Ca2_1 Mg3_7 3.486590 1_555
Ca2_1 Mg3_5 3.486590 1_555
Ca2_1 Mg3_3 3.486590 1_555
Ca2_1 Ca4_0 3.717371 1_555
Ca2_1 Ca4_2 3.717371 1_555
Ca2_1 Ca2_3 3.860582 1_545
Ca2_1 Ca2_3 3.860582 1_555
Ca2_2 Mg2_0 3.372353 1_565
Ca2_2 Mg2_2 3.372353 1_555
Ca2_2 Mg3_2 3.486590 1_555
Ca2_2 Mg3_0 3.486590 1_565
Ca2_2 Mg3_6 3.486590 1_555
Ca2_2 Mg3_4 3.486590 1_565
Ca2_2 Ca4_3 3.717371 1_554
Ca2_2 Ca4_1 3.717371 1_564
Ca2_3 Mg2_3 3.372353 1_555
Ca2_3 Mg2_1 3.372353 1_565
Ca2_3 Mg3_5 3.486590 1_565
Ca2_3 Mg3_7 3.486590 1_555
Ca2_3 Mg3_1 3.486590 1_565
Ca2_3 Mg3_3 3.486590 1_555
Ca2_3 Ca4_0 3.717371 1_565
Ca2_3 Ca4_2 3.717371 1_555
Ca2_4 Mg2_6 3.372353 1_555
Ca2_4 Mg2_4 3.372353 1_555
Ca2_4 Mg3_6 3.486590 1_555
Ca2_4 Mg3_4 3.486590 1_555
Ca2_4 Mg3_0 3.486590 1_655
Ca2_4 Mg3_2 3.486590 1_655
Ca2_4 Ca4_7 3.717371 1_554
Ca2_4 Ca4_5 3.717371 1_554
Ca2_4 Ca2_6 3.860582 1_555
Ca2_4 Ca2_6 3.860582 1_545
Ca2_5 Mg2_5 3.372353 1_555
Ca2_5 Mg2_7 3.372353 1_555
Ca2_5 Mg3_7 3.486590 1_555
Ca2_5 Mg3_5 3.486590 1_555
Ca2_5 Mg3_1 3.486590 1_655
Ca2_5 Mg3_3 3.486590 1_655
Ca2_5 Ca4_6 3.717371 1_555
Ca2_5 Ca4_4 3.717371 1_555
Ca2_5 Ca2_7 3.860582 1_555
Ca2_5 Ca2_7 3.860582 1_545
Ca2_6 Mg2_6 3.372353 1_555
Ca2_6 Mg2_4 3.372353 1_565
Ca2_6 Mg3_6 3.486590 1_555
Ca2_6 Mg3_4 3.486590 1_565
Ca2_6 Mg3_0 3.486590 1_665
Ca2_6 Mg3_2 3.486590 1_655
Ca2_6 Ca4_5 3.717371 1_564
Ca2_6 Ca4_7 3.717371 1_554
Ca2_7 Mg2_7 3.372353 1_555
Ca2_7 Mg2_5 3.372353 1_565
Ca2_7 Mg3_5 3.486590 1_565
Ca2_7 Mg3_7 3.486590 1_555
Ca2_7 Mg3_3 3.486590 1_655
Ca2_7 Mg3_1 3.486590 1_665
Ca2_7 Ca4_6 3.717371 1_555
Ca2_7 Ca4_4 3.717371 1_565
Ca3_0 Mg5_2 3.444569 1_545
Ca3_0 Mg5_0 3.444569 1_555
Ca3_0 Mg5_4 3.444569 1_455
Ca3_0 Mg5_6 3.444569 1_445
Ca3_0 Mg4_2 3.533303 1_545
Ca3_0 Mg4_0 3.533303 1_555
Ca3_0 Mg0_2 3.670684 1_545
Ca3_0 Mg0_0 3.670684 1_555
Ca3_0 Ca5_0 3.809977 1_555
Ca3_0 Ca5_4 3.809977 1_455
Ca3_0 Ca3_2 3.860582 1_545
Ca3_0 Ca3_2 3.860582 1_555
Ca3_0 Ca4_0 4.052035 1_555
Ca3_0 Ca4_4 4.052035 1_455
Ca3_1 Mg5_3 3.444569 1_545
Ca3_1 Mg5_1 3.444569 1_555
Ca3_1 Mg5_5 3.444569 1_455
Ca3_1 Mg5_7 3.444569 1_445
Ca3_1 Mg4_3 3.533303 1_545
Ca3_1 Mg4_1 3.533303 1_555
Ca3_1 Mg0_3 3.670684 1_545
Ca3_1 Mg0_1 3.670684 1_555
Ca3_1 Ca5_1 3.809977 1_555
Ca3_1 Ca5_5 3.809977 1_455
Ca3_1 Ca3_3 3.860582 1_545
Ca3_1 Ca3_3 3.860582 1_555
Ca3_1 Ca4_1 4.052035 1_555
Ca3_1 Ca4_5 4.052035 1_455
Ca3_2 Mg5_2 3.444569 1_555
Ca3_2 Mg5_0 3.444569 1_555
Ca3_2 Mg5_6 3.444569 1_455
Ca3_2 Mg5_4 3.444569 1_455
Ca3_2 Mg4_2 3.533303 1_555
Ca3_2 Mg4_0 3.533303 1_555
Ca3_2 Mg0_2 3.670684 1_555
Ca3_2 Mg0_0 3.670684 1_555
Ca3_2 Ca5_2 3.809977 1_555
Ca3_2 Ca5_6 3.809977 1_455
Ca3_2 Ca4_2 4.052035 1_555
Ca3_2 Ca4_6 4.052035 1_455
Ca3_3 Mg5_3 3.444569 1_555
Ca3_3 Mg5_1 3.444569 1_555
Ca3_3 Mg5_5 3.444569 1_455
Ca3_3 Mg5_7 3.444569 1_455
Ca3_3 Mg4_3 3.533303 1_555
Ca3_3 Mg4_1 3.533303 1_555
Ca3_3 Mg0_1 3.670684 1_555
Ca3_3 Mg0_3 3.670684 1_555
Ca3_3 Ca5_3 3.809977 1_555
Ca3_3 Ca5_7 3.809977 1_455
Ca3_3 Ca4_3 4.052035 1_555
Ca3_3 Ca4_7 4.052035 1_455
Ca3_4 Mg5_6 3.444569 1_545
Ca3_4 Mg5_4 3.444569 1_555
Ca3_4 Mg5_2 3.444569 1_545
Ca3_4 Mg5_0 3.444569 1_555
Ca3_4 Mg4_6 3.533303 1_545
Ca3_4 Mg4_4 3.533303 1_555
Ca3_4 Mg0_4 3.670684 1_555
Ca3_4 Mg0_6 3.670684 1_545
Ca3_4 Ca5_4 3.809977 1_555
Ca3_4 Ca5_0 3.809977 1_555
Ca3_4 Ca3_6 3.860582 1_545
Ca3_4 Ca3_6 3.860582 1_555
Ca3_4 Ca4_4 4.052035 1_555
Ca3_4 Ca4_0 4.052035 1_555
Ca3_5 Mg5_7 3.444569 1_545
Ca3_5 Mg5_5 3.444569 1_555
Ca3_5 Mg5_3 3.444569 1_545
Ca3_5 Mg5_1 3.444569 1_555
Ca3_5 Mg4_5 3.533303 1_555
Ca3_5 Mg4_7 3.533303 1_545
Ca3_5 Mg0_5 3.670684 1_555
Ca3_5 Mg0_7 3.670684 1_545
Ca3_5 Ca5_5 3.809977 1_555
Ca3_5 Ca5_1 3.809977 1_555
Ca3_5 Ca3_7 3.860582 1_545
Ca3_5 Ca3_7 3.860582 1_555
Ca3_5 Ca4_5 4.052035 1_555
Ca3_5 Ca4_1 4.052035 1_555
Ca3_6 Mg5_6 3.444569 1_555
Ca3_6 Mg5_4 3.444569 1_555
Ca3_6 Mg5_2 3.444569 1_555
Ca3_6 Mg5_0 3.444569 1_555
Ca3_6 Mg4_6 3.533303 1_555
Ca3_6 Mg4_4 3.533303 1_555
Ca3_6 Mg0_6 3.670684 1_555
Ca3_6 Mg0_4 3.670684 1_555
Ca3_6 Ca5_6 3.809977 1_555
Ca3_6 Ca5_2 3.809977 1_555
Ca3_6 Ca4_6 4.052035 1_555
Ca3_6 Ca4_2 4.052035 1_555
Ca3_7 Mg5_5 3.444569 1_555
Ca3_7 Mg5_7 3.444569 1_555
Ca3_7 Mg5_3 3.444569 1_555
Ca3_7 Mg5_1 3.444569 1_555
Ca3_7 Mg4_5 3.533303 1_555
Ca3_7 Mg4_7 3.533303 1_555
Ca3_7 Mg0_7 3.670684 1_555
Ca3_7 Mg0_5 3.670684 1_555
Ca3_7 Ca5_7 3.809977 1_555
Ca3_7 Ca5_3 3.809977 1_555
Ca3_7 Ca4_7 4.052035 1_555
Ca3_7 Ca4_3 4.052035 1_555
Ca4_0 Mg5_2 3.284181 1_545
Ca4_0 Mg5_0 3.284181 1_555
Ca4_0 Mg4_0 3.437678 1_555
Ca4_0 Mg4_4 3.437678 1_555
Ca4_0 Mg4_2 3.437678 1_545
Ca4_0 Mg4_6 3.437678 1_545
Ca4_0 Mg3_1 3.846638 1_555
Ca4_0 Mg3_5 3.846638 1_555
Ca4_0 Ca4_2 3.860582 1_545
Ca4_0 Ca4_2 3.860582 1_555
Ca4_1 Mg5_3 3.284181 1_545
Ca4_1 Mg5_1 3.284181 1_555
Ca4_1 Mg4_1 3.437678 1_555
Ca4_1 Mg4_5 3.437678 1_555
Ca4_1 Mg4_7 3.437678 1_545
Ca4_1 Mg4_3 3.437678 1_545
Ca4_1 Mg3_0 3.846638 1_556
Ca4_1 Mg3_4 3.846638 1_556
Ca4_1 Ca4_3 3.860582 1_545
Ca4_1 Ca4_3 3.860582 1_555
Ca4_2 Mg5_2 3.284181 1_555
Ca4_2 Mg5_0 3.284181 1_555
Ca4_2 Mg4_0 3.437678 1_555
Ca4_2 Mg4_4 3.437678 1_555
Ca4_2 Mg4_6 3.437678 1_555
Ca4_2 Mg4_2 3.437678 1_555
Ca4_2 Mg3_3 3.846638 1_555
Ca4_2 Mg3_7 3.846638 1_555
Ca4_3 Mg5_3 3.284181 1_555
Ca4_3 Mg5_1 3.284181 1_555
Ca4_3 Mg4_3 3.437678 1_555
Ca4_3 Mg4_1 3.437678 1_555
Ca4_3 Mg4_5 3.437678 1_555
Ca4_3 Mg4_7 3.437678 1_555
Ca4_3 Mg3_2 3.846638 1_556
Ca4_3 Mg3_6 3.846638 1_556
Ca4_4 Mg5_4 3.284181 1_555
Ca4_4 Mg5_6 3.284181 1_545
Ca4_4 Mg4_6 3.437678 1_545
Ca4_4 Mg4_4 3.437678 1_555
Ca4_4 Mg4_2 3.437678 1_645
Ca4_4 Mg4_0 3.437678 1_655
Ca4_4 Mg3_5 3.846638 1_555
Ca4_4 Mg3_1 3.846638 1_655
Ca4_4 Ca4_6 3.860582 1_545
Ca4_4 Ca4_6 3.860582 1_555
Ca4_5 Mg5_5 3.284181 1_555
Ca4_5 Mg5_7 3.284181 1_545
Ca4_5 Mg4_5 3.437678 1_555
Ca4_5 Mg4_7 3.437678 1_545
Ca4_5 Mg4_1 3.437678 1_655
Ca4_5 Mg4_3 3.437678 1_645
Ca4_5 Mg3_4 3.846638 1_556
Ca4_5 Mg3_0 3.846638 1_656
Ca4_5 Ca4_7 3.860582 1_545
Ca4_5 Ca4_7 3.860582 1_555
Ca4_6 Mg5_4 3.284181 1_555
Ca4_6 Mg5_6 3.284181 1_555
Ca4_6 Mg4_6 3.437678 1_555
Ca4_6 Mg4_4 3.437678 1_555
Ca4_6 Mg4_2 3.437678 1_655
Ca4_6 Mg4_0 3.437678 1_655
Ca4_6 Mg3_7 3.846638 1_555
Ca4_6 Mg3_3 3.846638 1_655
Ca4_7 Mg5_5 3.284181 1_555
Ca4_7 Mg5_7 3.284181 1_555
Ca4_7 Mg4_5 3.437678 1_555
Ca4_7 Mg4_7 3.437678 1_555
Ca4_7 Mg4_3 3.437678 1_655
Ca4_7 Mg4_1 3.437678 1_655
Ca4_7 Mg3_6 3.846638 1_556
Ca4_7 Mg3_2 3.846638 1_656
Ca5_0 Mg5_2 3.372353 1_545
Ca5_0 Mg5_0 3.372353 1_555
Ca5_0 Mg0_2 3.486590 1_545
Ca5_0 Mg0_0 3.486590 1_555
Ca5_0 Mg0_4 3.486590 1_555
Ca5_0 Mg0_6 3.486590 1_545
Ca5_0 Ca5_2 3.860582 1_545
Ca5_0 Ca5_2 3.860582 1_555
Ca5_1 Mg5_3 3.372353 1_545
Ca5_1 Mg5_1 3.372353 1_555
Ca5_1 Mg0_5 3.486590 1_555
Ca5_1 Mg0_7 3.486590 1_545
Ca5_1 Mg0_1 3.486590 1_555
Ca5_1 Mg0_3 3.486590 1_545
Ca5_1 Ca5_3 3.860582 1_545
Ca5_1 Ca5_3 3.860582 1_555
Ca5_2 Mg5_2 3.372353 1_555
Ca5_2 Mg5_0 3.372353 1_555
Ca5_2 Mg0_2 3.486590 1_555
Ca5_2 Mg0_6 3.486590 1_555
Ca5_2 Mg0_0 3.486590 1_555
Ca5_2 Mg0_4 3.486590 1_555
Ca5_3 Mg5_3 3.372353 1_555
Ca5_3 Mg5_1 3.372353 1_555
Ca5_3 Mg0_5 3.486590 1_555
Ca5_3 Mg0_3 3.486590 1_555
Ca5_3 Mg0_1 3.486590 1_555
Ca5_3 Mg0_7 3.486590 1_555
Ca5_4 Mg5_6 3.372353 1_545
Ca5_4 Mg5_4 3.372353 1_555
Ca5_4 Mg0_4 3.486590 1_555
Ca5_4 Mg0_6 3.486590 1_545
Ca5_4 Mg0_0 3.486590 1_655
Ca5_4 Mg0_2 3.486590 1_645
Ca5_4 Ca5_6 3.860582 1_545
Ca5_4 Ca5_6 3.860582 1_555
Ca5_5 Mg5_7 3.372353 1_545
Ca5_5 Mg5_5 3.372353 1_555
Ca5_5 Mg0_5 3.486590 1_555
Ca5_5 Mg0_7 3.486590 1_545
Ca5_5 Mg0_3 3.486590 1_645
Ca5_5 Mg0_1 3.486590 1_655
Ca5_5 Ca5_7 3.860582 1_545
Ca5_5 Ca5_7 3.860582 1_555
Ca5_6 Mg5_4 3.372353 1_555
Ca5_6 Mg5_6 3.372353 1_555
Ca5_6 Mg0_4 3.486590 1_555
Ca5_6 Mg0_6 3.486590 1_555
Ca5_6 Mg0_2 3.486590 1_655
Ca5_6 Mg0_0 3.486590 1_655
Ca5_7 Mg5_7 3.372353 1_555
Ca5_7 Mg5_5 3.372353 1_555
Ca5_7 Mg0_5 3.486590 1_555
Ca5_7 Mg0_7 3.486590 1_555
Ca5_7 Mg0_1 3.486590 1_655
Ca5_7 Mg0_3 3.486590 1_655
Mg0_0 Mg1_0 3.172463 1_555
Mg0_0 Mg1_2 3.172463 1_555
Mg0_1 Mg1_1 3.172463 1_555
Mg0_1 Mg1_3 3.172463 1_555
Mg0_2 Mg1_0 3.172463 1_565
Mg0_2 Mg1_2 3.172463 1_555
Mg0_3 Mg1_3 3.172463 1_555
Mg0_3 Mg1_1 3.172463 1_565
Mg0_4 Mg1_6 3.172463 1_555
Mg0_4 Mg1_4 3.172463 1_555
Mg0_5 Mg1_5 3.172463 1_555
Mg0_5 Mg1_7 3.172463 1_555
Mg0_6 Mg1_6 3.172463 1_555
Mg0_6 Mg1_4 3.172463 1_565
Mg0_7 Mg1_5 3.172463 1_565
Mg0_7 Mg1_7 3.172463 1_555
Mg3_0 Mg4_3 3.172463 1_544
Mg3_0 Mg4_1 3.172463 1_554
Mg3_1 Mg4_2 3.172463 1_545
Mg3_1 Mg4_0 3.172463 1_555
Mg3_2 Mg4_3 3.172463 1_554
Mg3_2 Mg4_1 3.172463 1_554
Mg3_3 Mg4_2 3.172463 1_555
Mg3_3 Mg4_0 3.172463 1_555
Mg3_4 Mg4_5 3.172463 1_554
Mg3_4 Mg4_7 3.172463 1_544
Mg3_5 Mg4_4 3.172463 1_555
Mg3_5 Mg4_6 3.172463 1_545
Mg3_6 Mg4_5 3.172463 1_554
Mg3_6 Mg4_7 3.172463 1_554
Mg3_7 Mg4_4 3.172463 1_555
Mg3_7 Mg4_6 3.172463 1_555
