# generated using pymatgen
data_RbTa3(TeO6)2
_symmetry_space_group_name_H-M   'P 1'
_cell_length_a   3.98979900
_cell_length_b   15.21514400
_cell_length_c   17.76537100
_cell_angle_alpha   90.00000000
_cell_angle_beta   90.00000000
_cell_angle_gamma   90.00000000
_symmetry_Int_Tables_number   1
_chemical_formula_structural   RbTa3(TeO6)2
_chemical_formula_sum   'Rb4 Ta12 Te8 O48'
_cell_volume   1078.45335430
_cell_formula_units_Z   4
loop_
 _symmetry_equiv_pos_site_id
 _symmetry_equiv_pos_as_xyz
  1  'x, y, z'
loop_
 _atom_site_type_symbol
 _atom_site_label
 _atom_site_symmetry_multiplicity
 _atom_site_fract_x
 _atom_site_fract_y
 _atom_site_fract_z
 _atom_site_occupancy
  Rb  Rb0  1  0.21464000  0.07409000  0.75000000  1
  Rb  Rb1  1  0.78536000  0.92591000  0.25000000  1
  Rb  Rb2  1  0.21464000  0.42591000  0.25000000  1
  Rb  Rb3  1  0.78536000  0.57409000  0.75000000  1
  Ta  Ta0  1  0.25754600  0.79381300  0.75000000  1
  Ta  Ta1  1  0.74245400  0.20618700  0.25000000  1
  Ta  Ta2  1  0.25754600  0.70618700  0.25000000  1
  Ta  Ta3  1  0.74245400  0.29381300  0.75000000  1
  Ta  Ta4  1  0.74820200  0.15057700  0.56936100  1
  Ta  Ta5  1  0.25179800  0.84942300  0.06936100  1
  Ta  Ta6  1  0.74820200  0.34942300  0.43063900  1
  Ta  Ta7  1  0.25179800  0.65057700  0.93063900  1
  Ta  Ta8  1  0.25179800  0.84942300  0.43063900  1
  Ta  Ta9  1  0.74820200  0.15057700  0.93063900  1
  Ta  Ta10  1  0.25179800  0.65057700  0.56936100  1
  Ta  Ta11  1  0.74820200  0.34942300  0.06936100  1
  Te  Te0  1  0.62309800  0.91350200  0.59686600  1
  Te  Te1  1  0.37690200  0.08649800  0.09686600  1
  Te  Te2  1  0.62309800  0.58649800  0.40313400  1
  Te  Te3  1  0.37690200  0.41350200  0.90313400  1
  Te  Te4  1  0.37690200  0.08649800  0.40313400  1
  Te  Te5  1  0.62309800  0.91350200  0.90313400  1
  Te  Te6  1  0.37690200  0.41350200  0.59686600  1
  Te  Te7  1  0.62309800  0.58649800  0.09686600  1
  O  O0  1  0.28228500  0.93179600  0.52358300  1
  O  O1  1  0.71771500  0.06820400  0.02358300  1
  O  O2  1  0.28228500  0.56820400  0.47641700  1
  O  O3  1  0.71771500  0.43179600  0.97641700  1
  O  O4  1  0.71771500  0.06820400  0.47641700  1
  O  O5  1  0.28228500  0.93179600  0.97641700  1
  O  O6  1  0.71771500  0.43179600  0.52358300  1
  O  O7  1  0.28228500  0.56820400  0.02358300  1
  O  O8  1  0.70337500  0.03134800  0.62671700  1
  O  O9  1  0.29662500  0.96865200  0.12671700  1
  O  O10  1  0.70337500  0.46865200  0.37328300  1
  O  O11  1  0.29662500  0.53134800  0.87328300  1
  O  O12  1  0.29662500  0.96865200  0.37328300  1
  O  O13  1  0.70337500  0.03134800  0.87328300  1
  O  O14  1  0.29662500  0.53134800  0.62671700  1
  O  O15  1  0.70337500  0.46865200  0.12671700  1
  O  O16  1  0.29448000  0.89565600  0.67372100  1
  O  O17  1  0.70552000  0.10434400  0.17372100  1
  O  O18  1  0.29448000  0.60434400  0.32627900  1
  O  O19  1  0.70552000  0.39565600  0.82627900  1
  O  O20  1  0.70552000  0.10434400  0.32627900  1
  O  O21  1  0.29448000  0.89565600  0.82627900  1
  O  O22  1  0.70552000  0.39565600  0.67372100  1
  O  O23  1  0.29448000  0.60434400  0.17372100  1
  O  O24  1  0.28932400  0.70807100  0.66782700  1
  O  O25  1  0.71067600  0.29192900  0.16782700  1
  O  O26  1  0.28932400  0.79192900  0.33217300  1
  O  O27  1  0.71067600  0.20807100  0.83217300  1
  O  O28  1  0.71067600  0.29192900  0.33217300  1
  O  O29  1  0.28932400  0.70807100  0.83217300  1
  O  O30  1  0.71067600  0.20807100  0.66782700  1
  O  O31  1  0.28932400  0.79192900  0.16782700  1
  O  O32  1  0.78827000  0.80149900  0.75000000  1
  O  O33  1  0.21173000  0.19850100  0.25000000  1
  O  O34  1  0.78827000  0.69850100  0.25000000  1
  O  O35  1  0.21173000  0.30149900  0.75000000  1
  O  O36  1  0.70537400  0.25000000  0.50000000  1
  O  O37  1  0.29462600  0.75000000  0.00000000  1
  O  O38  1  0.29462600  0.75000000  0.50000000  1
  O  O39  1  0.70537400  0.25000000  0.00000000  1
  O  O40  1  0.21577100  0.14600900  0.56733400  1
  O  O41  1  0.78422900  0.85399100  0.06733400  1
  O  O42  1  0.21577100  0.35399100  0.43266600  1
  O  O43  1  0.78422900  0.64600900  0.93266600  1
  O  O44  1  0.78422900  0.85399100  0.43266600  1
  O  O45  1  0.21577100  0.14600900  0.93266600  1
  O  O46  1  0.78422900  0.64600900  0.56733400  1
  O  O47  1  0.21577100  0.35399100  0.06733400  1
loop_
_geom_bond_atom_site_label_1
_geom_bond_atom_site_label_2
_geom_bond_distance
_geom_bond_site_symmetry_2
O0 Te0 1.903000 1_555
O0 Ta8 2.076538 1_555
O1 Te1 1.903000 1_555
O1 Ta9 2.076538 1_554
O2 Te2 1.903000 1_555
O2 Ta10 2.076538 1_555
O3 Te3 1.903000 1_555
O3 Ta11 2.076538 1_556
O4 Te4 1.903000 1_555
O4 Ta4 2.076538 1_555
O5 Te5 1.903000 1_555
O5 Ta5 2.076538 1_556
O6 Te6 1.903000 1_555
O6 Ta6 2.076538 1_555
O7 Te7 1.903000 1_555
O7 Ta7 2.076538 1_554
O8 Te0 1.897057 1_545
O8 Ta4 2.088338 1_555
O8 Rb0 3.003678 1_555
O8 Rb0 3.062797 1_655
O9 Te1 1.897057 1_565
O9 Ta5 2.088338 1_555
O9 Rb1 3.003678 1_555
O9 Rb1 3.062797 1_455
O10 Te2 1.897057 1_555
O10 Ta6 2.088338 1_555
O10 Rb2 3.003678 1_555
O10 Rb2 3.062797 1_655
O11 Te3 1.897057 1_555
O11 Ta7 2.088338 1_555
O11 Rb3 3.003678 1_555
O11 Rb3 3.062797 1_455
O12 Te4 1.897057 1_565
O12 Ta8 2.088338 1_555
O12 Rb1 3.003678 1_555
O12 Rb1 3.062797 1_455
O13 Te5 1.897057 1_545
O13 Ta9 2.088338 1_555
O13 Rb0 3.003678 1_555
O13 Rb0 3.062797 1_655
O14 Te6 1.897057 1_555
O14 Ta10 2.088338 1_555
O14 Rb3 3.003678 1_555
O14 Rb3 3.062797 1_455
O15 Te7 1.897057 1_555
O15 Ta11 2.088338 1_555
O15 Rb2 3.003678 1_555
O15 Rb2 3.062797 1_655
O16 Te0 1.912319 1_555
O16 Ta0 2.063783 1_555
O16 Rb0 3.050985 1_565
O17 Te1 1.912319 1_555
O17 Ta1 2.063783 1_555
O17 Rb1 3.050985 1_545
O18 Te2 1.912319 1_555
O18 Ta2 2.063783 1_555
O18 Rb2 3.050985 1_555
O19 Te3 1.912319 1_555
O19 Ta3 2.063783 1_555
O19 Rb3 3.050985 1_555
O20 Te4 1.912319 1_555
O20 Ta1 2.063783 1_555
O20 Rb1 3.050985 1_545
O21 Te5 1.912319 1_555
O21 Ta0 2.063783 1_555
O21 Rb0 3.050985 1_565
O22 Te6 1.912319 1_555
O22 Ta3 2.063783 1_555
O22 Rb3 3.050985 1_555
O23 Te7 1.912319 1_555
O23 Ta2 2.063783 1_555
O23 Rb2 3.050985 1_555
O24 Ta10 1.961544 1_555
O24 Ta0 1.961915 1_555
O24 Rb3 3.194297 1_555
O24 Rb3 3.213991 1_455
O25 Ta11 1.961544 1_555
O25 Ta1 1.961915 1_555
O25 Rb2 3.194297 1_555
O25 Rb2 3.213991 1_655
O26 Ta8 1.961544 1_555
O26 Ta2 1.961915 1_555
O26 Rb1 3.194297 1_555
O26 Rb1 3.213991 1_455
O27 Ta9 1.961544 1_555
O27 Ta3 1.961915 1_555
O27 Rb0 3.194297 1_555
O27 Rb0 3.213991 1_655
O28 Ta6 1.961544 1_555
O28 Ta1 1.961915 1_555
O28 Rb2 3.194297 1_555
O28 Rb2 3.213991 1_655
O29 Ta7 1.961544 1_555
O29 Ta0 1.961915 1_555
O29 Rb3 3.194297 1_555
O29 Rb3 3.213991 1_455
O30 Ta4 1.961544 1_555
O30 Ta3 1.961915 1_555
O30 Rb0 3.194297 1_555
O30 Rb0 3.213991 1_655
O31 Ta5 1.961544 1_555
O31 Ta2 1.961915 1_555
O31 Rb1 3.194297 1_555
O31 Rb1 3.213991 1_455
O32 Ta0 1.875965 1_655
O32 Ta0 2.120709 1_555
O32 Rb3 3.460080 1_555
O33 Ta1 1.875965 1_455
O33 Ta1 2.120709 1_555
O33 Rb2 3.460080 1_555
O34 Ta2 1.875965 1_655
O34 Ta2 2.120709 1_555
O34 Rb1 3.460080 1_555
O35 Ta3 1.875965 1_455
O35 Ta3 2.120709 1_555
O35 Rb0 3.460080 1_555
O36 Ta6 1.958556 1_555
O36 Ta4 1.958556 1_555
O37 Ta5 1.958556 1_555
O37 Ta7 1.958556 1_554
O38 Ta8 1.958556 1_555
O38 Ta10 1.958556 1_555
O39 Ta11 1.958556 1_555
O39 Ta9 1.958556 1_554
O40 Ta4 1.867148 1_455
O40 Ta4 2.125734 1_555
O40 Rb0 3.424658 1_555
O41 Ta5 1.867148 1_655
O41 Ta5 2.125734 1_555
O41 Rb1 3.424658 1_555
O42 Ta6 1.867148 1_455
O42 Ta6 2.125734 1_555
O42 Rb2 3.424658 1_555
O43 Ta7 1.867148 1_655
O43 Ta7 2.125734 1_555
O43 Rb3 3.424658 1_555
O44 Ta8 1.867148 1_655
O44 Ta8 2.125734 1_555
O44 Rb1 3.424658 1_555
O45 Ta9 1.867148 1_455
O45 Ta9 2.125734 1_555
O45 Rb0 3.424658 1_555
O46 Ta10 1.867148 1_655
O46 Ta10 2.125734 1_555
O46 Rb3 3.424658 1_555
O47 Ta11 1.867148 1_455
O47 Ta11 2.125734 1_555
O47 Rb2 3.424658 1_555
