# generated using pymatgen
data_La(YbS2)3
_symmetry_space_group_name_H-M   'P 1'
_cell_length_a   4.15979700
_cell_length_b   11.23801600
_cell_length_c   11.52195987
_cell_angle_alpha   74.82639826
_cell_angle_beta   90.00000000
_cell_angle_gamma   90.00000000
_symmetry_Int_Tables_number   1
_chemical_formula_structural   La(YbS2)3
_chemical_formula_sum   'La2 Yb6 S12'
_cell_volume   519.84897692
_cell_formula_units_Z   2
loop_
 _symmetry_equiv_pos_site_id
 _symmetry_equiv_pos_as_xyz
  1  'x, y, z'
loop_
 _atom_site_type_symbol
 _atom_site_label
 _atom_site_symmetry_multiplicity
 _atom_site_fract_x
 _atom_site_fract_y
 _atom_site_fract_z
 _atom_site_occupancy
  La  La0  1  0.25000000  0.81812800  0.53708700  1
  La  La1  1  0.75000000  0.18187200  0.46291300  1
  Yb  Yb0  1  0.25000000  0.94896500  0.20388600  1
  Yb  Yb1  1  0.75000000  0.05103500  0.79611400  1
  Yb  Yb2  1  0.25000000  0.65550000  0.93947900  1
  Yb  Yb3  1  0.75000000  0.34450000  0.06052100  1
  Yb  Yb4  1  0.25000000  0.42643700  0.68694800  1
  Yb  Yb5  1  0.75000000  0.57356300  0.31305200  1
  S  S0  1  0.25000000  0.92679800  0.96180600  1
  S  S1  1  0.75000000  0.07320200  0.03819400  1
  S  S2  1  0.25000000  0.71371600  0.33703900  1
  S  S3  1  0.75000000  0.28628400  0.66296100  1
  S  S4  1  0.25000000  0.41913900  0.91466900  1
  S  S5  1  0.75000000  0.58086100  0.08533100  1
  S  S6  1  0.25000000  0.38030800  0.37994800  1
  S  S7  1  0.75000000  0.61969200  0.62005200  1
  S  S8  1  0.25000000  0.26307000  0.26395400  1
  S  S9  1  0.75000000  0.73693000  0.73604600  1
  S  S10  1  0.25000000  0.04018900  0.61978200  1
  S  S11  1  0.75000000  0.95981100  0.38021800  1
loop_
_geom_bond_atom_site_label_1
_geom_bond_atom_site_label_2
_geom_bond_distance
_geom_bond_site_symmetry_2
La0 S2 2.847002 1_555
La0 S10 2.894861 1_565
La0 S11 2.936238 1_455
La0 S11 2.936238 1_555
La0 S7 3.016098 1_455
La0 S7 3.016098 1_555
La0 S9 3.052652 1_555
La0 S9 3.052652 1_455
La1 S3 2.847002 1_555
La1 S11 2.894861 1_545
La1 S10 2.936238 1_655
La1 S10 2.936238 1_555
La1 S6 3.016098 1_655
La1 S6 3.016098 1_555
La1 S8 3.052652 1_555
La1 S8 3.052652 1_655
S0 Yb0 2.864548 1_556
S0 Yb1 2.919694 1_465
S0 Yb1 2.919694 1_565
S0 Yb2 3.126061 1_555
S1 Yb1 2.864548 1_554
S1 Yb0 2.919694 1_545
S1 Yb0 2.919694 1_645
S1 Yb3 3.126061 1_555
S2 Yb5 2.666645 1_555
S2 Yb5 2.666645 1_455
S2 Yb0 2.686965 1_555
S3 Yb4 2.666645 1_555
S3 Yb4 2.666645 1_655
S3 Yb1 2.686965 1_555
S4 Yb4 2.603529 1_555
S4 Yb3 2.667532 1_556
S4 Yb3 2.667532 1_456
S4 Yb2 2.744951 1_555
S5 Yb5 2.603529 1_555
S5 Yb2 2.667532 1_554
S5 Yb2 2.667532 1_654
S5 Yb3 2.744951 1_555
S6 S8 2.108037 1_555
S6 Yb5 2.959813 1_555
S6 Yb5 2.959813 1_455
S7 S9 2.108037 1_555
S7 Yb4 2.959813 1_555
S7 Yb4 2.959813 1_655
S8 Yb3 3.087819 1_455
S8 Yb3 3.087819 1_555
S9 Yb2 3.087819 1_655
S9 Yb2 3.087819 1_555
S10 Yb1 2.932275 1_555
S10 Yb1 2.932275 1_455
S11 Yb0 2.932275 1_655
S11 Yb0 2.932275 1_555
