# generated using pymatgen
data_Er5InNi2
_symmetry_space_group_name_H-M   'P 1'
_cell_length_a   8.56283881
_cell_length_b   8.56283881
_cell_length_c   8.56283881
_cell_angle_alpha   127.36296441
_cell_angle_beta   127.36296441
_cell_angle_gamma   77.65929755
_symmetry_Int_Tables_number   1
_chemical_formula_structural   Er5InNi2
_chemical_formula_sum   'Er10 In2 Ni4'
_cell_volume   384.56799915
_cell_formula_units_Z   2
loop_
 _symmetry_equiv_pos_site_id
 _symmetry_equiv_pos_as_xyz
  1  'x, y, z'
loop_
 _atom_site_type_symbol
 _atom_site_label
 _atom_site_symmetry_multiplicity
 _atom_site_fract_x
 _atom_site_fract_y
 _atom_site_fract_z
 _atom_site_occupancy
  Er  Er0  1  0.00000000  0.00000000  0.00000000  1
  Er  Er1  1  0.50000000  0.50000000  0.00000000  1
  Er  Er2  1  0.79630500  0.29630500  0.82301100  1
  Er  Er3  1  0.20369500  0.70369500  0.17698900  1
  Er  Er4  1  0.47329300  0.97329300  0.17698900  1
  Er  Er5  1  0.29630500  0.47329300  0.50000000  1
  Er  Er6  1  0.02670700  0.20369500  0.50000000  1
  Er  Er7  1  0.52670700  0.02670700  0.82301100  1
  Er  Er8  1  0.70369500  0.52670700  0.50000000  1
  Er  Er9  1  0.97329300  0.79630500  0.50000000  1
  In  In0  1  0.25000000  0.25000000  0.00000000  1
  In  In1  1  0.75000000  0.75000000  0.00000000  1
  Ni  Ni0  1  0.12402200  0.62402200  0.74804400  1
  Ni  Ni1  1  0.87597800  0.37597800  0.25195600  1
  Ni  Ni2  1  0.62402200  0.87597800  0.50000000  1
  Ni  Ni3  1  0.37597800  0.12402200  0.50000000  1
loop_
_geom_bond_atom_site_label_1
_geom_bond_atom_site_label_2
_geom_bond_distance
_geom_bond_site_symmetry_2
Er0 Ni1 3.006051 1_455
Er0 Ni0 3.006051 1_544
Er0 Ni3 3.006051 1_555
Er0 Ni2 3.006051 1_444
Er0 In1 3.335284 1_445
Er0 In0 3.335284 1_555
Er1 Ni3 3.006051 1_554
Er1 Ni2 3.006051 1_555
Er1 Ni1 3.006051 1_555
Er1 Ni0 3.006051 1_554
Er1 In1 3.335284 1_555
Er1 In0 3.335284 1_555
Er2 Ni2 2.831123 1_545
Er2 Ni3 2.831123 1_555
Er2 Ni1 2.921972 1_556
Er2 In0 3.235967 1_656
Er2 In1 3.235967 1_556
Er3 Ni2 2.831123 1_555
Er3 Ni3 2.831123 1_565
Er3 Ni0 2.921972 1_554
Er3 In1 3.235967 1_455
Er3 In0 3.235967 1_555
Er4 Ni2 2.831114 1_555
Er4 Ni3 2.831114 1_565
Er4 Ni0 2.921964 1_554
Er4 In1 3.235973 1_555
Er4 In0 3.235973 1_565
Er5 Ni1 2.831122 1_455
Er5 Ni0 2.831122 1_555
Er5 Ni3 2.921964 1_555
Er5 In1 3.235968 1_556
Er5 In0 3.235968 1_555
Er6 Ni1 2.831122 1_455
Er6 Ni0 2.831122 1_555
Er6 Ni3 2.921964 1_555
Er6 In1 3.235968 1_445
Er6 In0 3.235968 1_556
Er7 Ni2 2.831114 1_545
Er7 Ni3 2.831114 1_555
Er7 Ni1 2.921964 1_556
Er7 In1 3.235973 1_546
Er7 In0 3.235973 1_556
Er8 Ni1 2.831122 1_555
Er8 Ni0 2.831122 1_655
Er8 Ni2 2.921964 1_555
Er8 In0 3.235968 1_555
Er8 In1 3.235968 1_556
Er9 Ni1 2.831122 1_555
Er9 Ni0 2.831122 1_655
Er9 Ni2 2.921964 1_555
Er9 In0 3.235968 1_666
Er9 In1 3.235968 1_555
Ni0 Ni1 2.663477 1_455
Ni2 Ni3 2.663477 1_565
