# generated using pymatgen
data_Li9Mn2Co5O16
_symmetry_space_group_name_H-M   'P 1'
_cell_length_a   5.82928600
_cell_length_b   6.49412263
_cell_length_c   7.69926930
_cell_angle_alpha   86.38469095
_cell_angle_beta   81.11131295
_cell_angle_gamma   76.87905947
_symmetry_Int_Tables_number   1
_chemical_formula_structural   Li9Mn2Co5O16
_chemical_formula_sum   'Li9 Mn2 Co5 O16'
_cell_volume   280.32746001
_cell_formula_units_Z   1
loop_
 _symmetry_equiv_pos_site_id
 _symmetry_equiv_pos_as_xyz
  1  'x, y, z'
loop_
 _atom_site_type_symbol
 _atom_site_label
 _atom_site_symmetry_multiplicity
 _atom_site_fract_x
 _atom_site_fract_y
 _atom_site_fract_z
 _atom_site_occupancy
  Li  Li0  1  0.80577300  0.63304600  0.12512200  1
  Li  Li1  1  0.55303500  0.12500300  0.62849900  1
  Li  Li2  1  0.44696500  0.87499700  0.37150100  1
  Li  Li3  1  0.19422700  0.36695400  0.87487800  1
  Li  Li4  1  0.06120000  0.12089500  0.62880500  1
  Li  Li5  1  0.68793100  0.37122600  0.87282300  1
  Li  Li6  1  0.31206900  0.62877400  0.12717700  1
  Li  Li7  1  0.93880000  0.87910500  0.37119500  1
  Li  Li8  1  0.50000000  0.00000000  0.00000000  1
  Mn  Mn0  1  0.86599900  0.75389600  0.75485900  1
  Mn  Mn1  1  0.13400100  0.24610400  0.24514100  1
  Co  Co0  1  0.62795900  0.25252400  0.24670800  1
  Co  Co1  1  0.37204100  0.74747600  0.75329200  1
  Co  Co2  1  0.24394800  0.49734800  0.50060000  1
  Co  Co3  1  0.00000000  0.00000000  0.00000000  1
  Co  Co4  1  0.75605200  0.50265200  0.49940000  1
  O  O0  1  0.06519600  0.70737300  0.93903500  1
  O  O1  1  0.85542400  0.19944100  0.41217200  1
  O  O2  1  0.73886500  0.96600000  0.17184300  1
  O  O3  1  0.46401200  0.45222500  0.68555700  1
  O  O4  1  0.33099100  0.18681000  0.42931500  1
  O  O5  1  0.96138300  0.45874200  0.69014600  1
  O  O6  1  0.59910900  0.69360900  0.91467900  1
  O  O7  1  0.20341900  0.95559800  0.17882100  1
  O  O8  1  0.53598800  0.54777500  0.31444300  1
  O  O9  1  0.26113500  0.03400000  0.82815700  1
  O  O10  1  0.14457600  0.80055900  0.58782800  1
  O  O11  1  0.93480400  0.29262700  0.06096500  1
  O  O12  1  0.79658100  0.04440200  0.82117900  1
  O  O13  1  0.40089100  0.30639100  0.08532100  1
  O  O14  1  0.03861700  0.54125800  0.30985400  1
  O  O15  1  0.66900900  0.81319000  0.57068500  1
loop_
_geom_bond_atom_site_label_1
_geom_bond_atom_site_label_2
_geom_bond_distance
_geom_bond_site_symmetry_2
Li0 O0 2.036479 1_654
Li0 O14 2.083961 1_655
Li0 O8 2.118908 1_555
Li0 O6 2.130482 1_554
Li0 O2 2.151434 1_555
Li0 O11 2.228227 1_555
Li1 O15 2.038322 1_545
Li1 O4 2.118544 1_555
Li1 O3 2.127113 1_555
Li1 O12 2.169291 1_555
Li1 O9 2.267445 1_555
Li1 O1 2.343710 1_555
Li2 O4 2.038322 1_565
Li2 O15 2.118544 1_555
Li2 O8 2.127113 1_555
Li2 O7 2.169291 1_555
Li2 O2 2.267445 1_555
Li2 O10 2.343710 1_555
Li3 O11 2.036479 1_456
Li3 O5 2.083961 1_455
Li3 O3 2.118908 1_555
Li3 O13 2.130482 1_556
Li3 O9 2.151434 1_555
Li3 O0 2.228227 1_555
Li4 O9 2.043910 1_555
Li4 O10 2.059066 1_545
Li4 O12 2.090221 1_455
Li4 O4 2.119413 1_555
Li4 O1 2.171218 1_455
Li4 O5 2.200339 1_455
Li5 O3 2.057548 1_555
Li5 O6 2.072787 1_555
Li5 O5 2.111822 1_555
Li5 O12 2.117136 1_555
Li5 O11 2.155761 1_556
Li5 O13 2.245163 1_556
Li6 O8 2.057548 1_555
Li6 O13 2.072787 1_555
Li6 O14 2.111822 1_555
Li6 O7 2.117136 1_555
Li6 O0 2.155761 1_554
Li6 O6 2.245163 1_554
Li7 O2 2.043910 1_555
Li7 O1 2.059066 1_565
Li7 O7 2.090221 1_655
Li7 O15 2.119413 1_555
Li7 O10 2.171218 1_655
Li7 O14 2.200339 1_655
Li8 O2 2.032475 1_545
Li8 O9 2.032475 1_554
Li8 O6 2.061559 1_544
Li8 O13 2.061559 1_555
Li8 O12 2.099603 1_554
Li8 O7 2.099603 1_545
Mn0 O12 1.922160 1_565
Mn0 O15 1.926451 1_555
Mn0 O6 1.926664 1_555
Mn0 O0 1.935439 1_655
Mn0 O5 1.944828 1_555
Mn0 O10 1.977787 1_655
Mn1 O7 1.922160 1_545
Mn1 O4 1.926451 1_555
Mn1 O13 1.926664 1_555
Mn1 O11 1.935439 1_455
Mn1 O14 1.944828 1_555
Mn1 O1 1.977787 1_455
Co0 O13 1.913528 1_555
Co0 O2 1.920009 1_545
Co0 O1 1.938830 1_555
Co0 O8 1.951616 1_555
Co0 O4 2.159431 1_555
Co0 O11 2.164811 1_555
Co1 O6 1.913528 1_555
Co1 O9 1.920009 1_565
Co1 O10 1.938830 1_555
Co1 O3 1.951616 1_555
Co1 O15 2.159431 1_555
Co1 O0 2.164811 1_555
Co2 O14 2.001551 1_555
Co2 O3 2.024992 1_555
Co2 O10 2.047582 1_555
Co2 O4 2.052950 1_555
Co2 O5 2.074660 1_455
Co2 O8 2.121206 1_555
Co3 O9 1.899949 1_554
Co3 O2 1.899949 1_445
Co3 O7 1.919376 1_545
Co3 O12 1.919376 1_454
Co3 O0 1.924987 1_544
Co3 O11 1.924987 1_455
Co4 O5 2.001551 1_555
Co4 O8 2.024992 1_555
Co4 O1 2.047582 1_555
Co4 O15 2.052950 1_555
Co4 O14 2.074660 1_655
Co4 O3 2.121206 1_555
