# generated using pymatgen
data_Li7Mn2(CoO4)3
_symmetry_space_group_name_H-M   'P 1'
_cell_length_a   5.13083400
_cell_length_b   5.82663790
_cell_length_c   7.75607444
_cell_angle_alpha   100.94435997
_cell_angle_beta   96.23265109
_cell_angle_gamma   106.19490921
_symmetry_Int_Tables_number   1
_chemical_formula_structural   Li7Mn2(CoO4)3
_chemical_formula_sum   'Li7 Mn2 Co3 O12'
_cell_volume   215.38911347
_cell_formula_units_Z   1
loop_
 _symmetry_equiv_pos_site_id
 _symmetry_equiv_pos_as_xyz
  1  'x, y, z'
loop_
 _atom_site_type_symbol
 _atom_site_label
 _atom_site_symmetry_multiplicity
 _atom_site_fract_x
 _atom_site_fract_y
 _atom_site_fract_z
 _atom_site_occupancy
  Li  Li0  1  0.50814900  0.08712800  0.81474000  1
  Li  Li1  1  0.50529000  0.58200500  0.82378200  1
  Li  Li2  1  0.50128500  0.25281800  0.50662300  1
  Li  Li3  1  0.50688800  0.75320400  0.50236400  1
  Li  Li4  1  0.49102000  0.41385100  0.17638000  1
  Li  Li5  1  0.49173000  0.91412600  0.17334300  1
  Li  Li6  1  0.99897400  0.16680700  0.66669700  1
  Mn  Mn0  1  0.00220200  0.00019900  0.99714100  1
  Mn  Mn1  1  0.99687100  0.49471500  0.99682800  1
  Co  Co0  1  0.99590500  0.65709900  0.66021900  1
  Co  Co1  1  0.99353900  0.32777700  0.34476700  1
  Co  Co2  1  0.01258400  0.84380500  0.35109900  1
  O  O0  1  0.22346400  0.78449300  0.92560900  1
  O  O1  1  0.22224900  0.28692600  0.92929300  1
  O  O2  1  0.24106200  0.95069900  0.56981800  1
  O  O3  1  0.23395900  0.47227900  0.58365200  1
  O  O4  1  0.22447200  0.11429700  0.23676700  1
  O  O5  1  0.21269900  0.60305300  0.23849400  1
  O  O6  1  0.77038700  0.38924500  0.76631800  1
  O  O7  1  0.78451500  0.87454700  0.76302300  1
  O  O8  1  0.75732500  0.54951800  0.41766000  1
  O  O9  1  0.76140100  0.05330000  0.40316100  1
  O  O10  1  0.78661400  0.71742200  0.08179200  1
  O  O11  1  0.77741500  0.21068700  0.07043200  1
loop_
_geom_bond_atom_site_label_1
_geom_bond_atom_site_label_2
_geom_bond_distance
_geom_bond_site_symmetry_2
Li0 O6 2.022309 1_555
Li0 O2 2.090973 1_545
Li0 O7 2.149503 1_545
Li0 O11 2.160578 1_556
Li0 O1 2.266998 1_555
Li0 O0 2.322529 1_545
Li1 O6 2.025797 1_555
Li1 O7 2.066264 1_555
Li1 O3 2.074612 1_555
Li1 O10 2.201953 1_556
Li1 O0 2.225411 1_555
Li1 O1 2.265894 1_555
Li2 O2 2.068904 1_545
Li2 O9 2.126112 1_555
Li2 O8 2.138565 1_555
Li2 O3 2.177051 1_555
Li2 O6 2.184325 1_555
Li2 O4 2.263411 1_555
Li3 O8 2.056479 1_555
Li3 O2 2.063969 1_555
Li3 O3 2.083921 1_555
Li3 O9 2.193185 1_565
Li3 O7 2.210511 1_555
Li3 O5 2.268277 1_555
Li4 O4 2.062549 1_555
Li4 O8 2.067488 1_555
Li4 O5 2.076656 1_555
Li4 O1 2.107233 1_554
Li4 O11 2.258084 1_555
Li4 O10 2.281445 1_555
Li5 O9 2.009739 1_565
Li5 O4 2.074458 1_565
Li5 O0 2.109917 1_554
Li5 O5 2.155825 1_555
Li5 O10 2.235738 1_555
Li5 O11 2.266363 1_565
Li6 O7 2.070065 1_545
Li6 O6 2.077689 1_555
Li6 O2 2.099720 1_645
Li6 O3 2.107928 1_655
Li6 O1 2.110755 1_655
Li6 O9 2.144109 1_555
Mn0 O7 1.918194 1_445
Mn0 O1 1.937366 1_555
Mn0 O11 1.955543 1_456
Mn0 O0 1.960654 1_545
Mn0 O4 1.960735 1_556
Mn0 O10 1.980194 1_446
Mn1 O6 1.912536 1_555
Mn1 O1 1.936253 1_655
Mn1 O11 1.947155 1_556
Mn1 O5 1.961675 1_656
Mn1 O10 1.972927 1_556
Mn1 O0 1.976409 1_655
Co0 O3 1.911167 1_655
Co0 O7 1.997030 1_555
Co0 O8 2.013666 1_555
Co0 O6 2.034425 1_555
Co0 O2 2.108784 1_655
Co0 O0 2.136753 1_655
Co1 O9 1.873784 1_555
Co1 O3 1.998876 1_655
Co1 O8 2.050043 1_555
Co1 O5 2.052716 1_655
Co1 O4 2.072394 1_655
Co1 O11 2.176454 1_555
Co2 O2 1.843819 1_555
Co2 O9 2.029126 1_465
Co2 O8 2.037709 1_455
Co2 O4 2.058271 1_565
Co2 O5 2.077912 1_555
Co2 O10 2.159471 1_455
