# generated using pymatgen
data_Mg6NbH16
_symmetry_space_group_name_H-M   'P 1'
_cell_length_a   6.73131432
_cell_length_b   6.73131432
_cell_length_c   6.73131432
_cell_angle_alpha   60.00000000
_cell_angle_beta   60.00000000
_cell_angle_gamma   60.00000000
_symmetry_Int_Tables_number   1
_chemical_formula_structural   Mg6NbH16
_chemical_formula_sum   'Mg6 Nb1 H16'
_cell_volume   215.66745484
_cell_formula_units_Z   1
loop_
 _symmetry_equiv_pos_site_id
 _symmetry_equiv_pos_as_xyz
  1  'x, y, z'
loop_
 _atom_site_type_symbol
 _atom_site_label
 _atom_site_symmetry_multiplicity
 _atom_site_fract_x
 _atom_site_fract_y
 _atom_site_fract_z
 _atom_site_occupancy
  Mg  Mg0  1  0.00000000  0.00000000  0.50000000  1
  Mg  Mg1  1  0.50000000  0.00000000  0.50000000  1
  Mg  Mg2  1  0.00000000  0.50000000  0.50000000  1
  Mg  Mg3  1  0.50000000  0.50000000  0.00000000  1
  Mg  Mg4  1  0.00000000  0.50000000  0.00000000  1
  Mg  Mg5  1  0.50000000  0.00000000  0.00000000  1
  Nb  Nb0  1  0.00000000  0.00000000  0.00000000  1
  H  H0  1  0.88448400  0.88448400  0.34654700  1
  H  H1  1  0.88448400  0.34654700  0.88448400  1
  H  H2  1  0.34654700  0.88448400  0.88448400  1
  H  H3  1  0.88448400  0.88448400  0.88448400  1
  H  H4  1  0.11551600  0.11551600  0.65345300  1
  H  H5  1  0.11551600  0.65345300  0.11551600  1
  H  H6  1  0.65345300  0.11551600  0.11551600  1
  H  H7  1  0.11551600  0.11551600  0.11551600  1
  H  H8  1  0.64297900  0.64297900  0.07106300  1
  H  H9  1  0.64297900  0.07106300  0.64297900  1
  H  H10  1  0.07106300  0.64297900  0.64297900  1
  H  H11  1  0.64297900  0.64297900  0.64297900  1
  H  H12  1  0.35702100  0.35702100  0.92893700  1
  H  H13  1  0.35702100  0.92893700  0.35702100  1
  H  H14  1  0.92893700  0.35702100  0.35702100  1
  H  H15  1  0.35702100  0.35702100  0.35702100  1
loop_
_geom_bond_atom_site_label_1
_geom_bond_atom_site_label_2
_geom_bond_distance
_geom_bond_site_symmetry_2
H0 Nb0 1.904655 1_665
H0 Mg1 2.118298 1_565
H0 Mg2 2.118298 1_655
H0 Mg0 2.118303 1_665
H1 Nb0 1.904655 1_656
H1 Mg3 2.118298 1_556
H1 Mg2 2.118298 1_655
H1 Mg4 2.118303 1_656
H2 Nb0 1.904655 1_566
H2 Mg1 2.118298 1_565
H2 Mg3 2.118298 1_556
H2 Mg5 2.118303 1_566
H3 Nb0 1.904661 1_666
H3 Mg0 2.118297 1_665
H3 Mg5 2.118297 1_566
H3 Mg4 2.118297 1_656
H4 Nb0 1.904655 1_556
H4 Mg2 2.118298 1_555
H4 Mg1 2.118298 1_555
H4 Mg0 2.118303 1_555
H5 Nb0 1.904655 1_565
H5 Mg2 2.118298 1_555
H5 Mg3 2.118298 1_555
H5 Mg4 2.118303 1_555
H6 Nb0 1.904655 1_655
H6 Mg3 2.118298 1_555
H6 Mg1 2.118298 1_555
H6 Mg5 2.118303 1_555
H7 Nb0 1.904661 1_555
H7 Mg4 2.118297 1_555
H7 Mg5 2.118297 1_555
H7 Mg0 2.118297 1_555
H8 Mg3 1.982026 1_555
H8 Mg4 1.982026 1_655
H8 Mg5 1.982026 1_565
H9 Mg1 1.982026 1_555
H9 Mg5 1.982026 1_556
H9 Mg0 1.982026 1_655
H10 Mg2 1.982026 1_555
H10 Mg0 1.982026 1_565
H10 Mg4 1.982026 1_556
H11 Mg1 1.982026 1_565
H11 Mg2 1.982026 1_655
H11 Mg3 1.982026 1_556
H12 Mg5 1.982026 1_556
H12 Mg4 1.982026 1_556
H12 Mg3 1.982026 1_556
H13 Mg0 1.982026 1_565
H13 Mg5 1.982026 1_565
H13 Mg1 1.982026 1_565
H14 Mg4 1.982026 1_655
H14 Mg0 1.982026 1_655
H14 Mg2 1.982026 1_655
H15 Mg3 1.982026 1_555
H15 Mg1 1.982026 1_555
H15 Mg2 1.982026 1_555
