# generated using pymatgen
data_Y2B6Os
_symmetry_space_group_name_H-M   'P 1'
_cell_length_a   3.65733212
_cell_length_b   9.15926803
_cell_length_c   11.53005284
_cell_angle_alpha   90.00000000
_cell_angle_beta   90.00000000
_cell_angle_gamma   90.00000000
_symmetry_Int_Tables_number   1
_chemical_formula_structural   Y2B6Os
_chemical_formula_sum   'Y8 B24 Os4'
_cell_volume   386.23930398
_cell_formula_units_Z   4
loop_
 _symmetry_equiv_pos_site_id
 _symmetry_equiv_pos_as_xyz
  1  'x, y, z'
loop_
 _atom_site_type_symbol
 _atom_site_label
 _atom_site_symmetry_multiplicity
 _atom_site_fract_x
 _atom_site_fract_y
 _atom_site_fract_z
 _atom_site_occupancy
  Y  Y0  1  -0.00000000  0.32220128  0.41383106  1
  Y  Y1  1  -0.00000000  0.67779872  0.58616894  1
  Y  Y2  1  0.00000000  0.82220128  0.08616894  1
  Y  Y3  1  0.00000000  0.17779872  0.91383106  1
  Y  Y4  1  -0.00000000  0.94414046  0.37362770  1
  Y  Y5  1  -0.00000000  0.05585954  0.62637230  1
  Y  Y6  1  0.00000000  0.44414046  0.12637230  1
  Y  Y7  1  0.00000000  0.55585954  0.87362770  1
  B  B0  1  0.50000000  0.55370012  0.43259692  1
  B  B1  1  0.50000000  0.44629988  0.56740308  1
  B  B2  1  0.50000000  0.05370012  0.06740308  1
  B  B3  1  0.50000000  0.94629988  0.93259692  1
  B  B4  1  0.50000000  0.74691777  0.41993428  1
  B  B5  1  0.50000000  0.25308223  0.58006572  1
  B  B6  1  0.50000000  0.24691777  0.08006572  1
  B  B7  1  0.50000000  0.75308223  0.91993428  1
  B  B8  1  0.50000000  0.79026865  0.26714572  1
  B  B9  1  0.50000000  0.20973135  0.73285428  1
  B  B10  1  0.50000000  0.29026865  0.23285428  1
  B  B11  1  0.50000000  0.70973135  0.76714572  1
  B  B12  1  0.50000000  0.63213090  0.18598782  1
  B  B13  1  0.50000000  0.36786910  0.81401218  1
  B  B14  1  0.50000000  0.13213090  0.31401218  1
  B  B15  1  0.50000000  0.86786910  0.68598782  1
  B  B16  1  0.50000000  0.98372990  0.21311009  1
  B  B17  1  0.50000000  0.01627010  0.78688991  1
  B  B18  1  0.50000000  0.48372990  0.28688991  1
  B  B19  1  0.50000000  0.51627010  0.71311009  1
  B  B20  1  0.50000000  0.61173108  0.03102349  1
  B  B21  1  0.50000000  0.38826892  0.96897651  1
  B  B22  1  0.50000000  0.11173108  0.46897651  1
  B  B23  1  0.50000000  0.88826892  0.53102349  1
  Os  Os0  1  -0.00000000  0.63731783  0.32147416  1
  Os  Os1  1  -0.00000000  0.36268217  0.67852584  1
  Os  Os2  1  0.00000000  0.13731783  0.17852584  1
  Os  Os3  1  -0.00000000  0.86268217  0.82147416  1
loop_
_geom_bond_atom_site_label_1
_geom_bond_atom_site_label_2
_geom_bond_distance
_geom_bond_site_symmetry_2
B0 B4 1.775744 1_555
B0 B18 1.798097 1_555
B0 B1 1.839456 1_555
B0 Os0 2.360549 1_555
B0 Os0 2.360549 1_655
B0 Y1 2.787715 1_555
B0 Y1 2.787715 1_655
B0 Y0 2.808338 1_655
B0 Y0 2.808338 1_555
B1 B5 1.775744 1_555
B1 B19 1.798097 1_555
B1 Os1 2.360549 1_655
B1 Os1 2.360549 1_555
B1 Y0 2.787715 1_555
B1 Y0 2.787715 1_655
B1 Y1 2.808338 1_555
B1 Y1 2.808338 1_655
B2 B6 1.775744 1_555
B2 B3 1.839456 1_544
B2 Os2 2.360549 1_655
B2 Os2 2.360549 1_555
B2 Y3 2.787715 1_554
B2 Y3 2.787715 1_654
B2 Y2 2.808338 1_645
B2 Y2 2.808338 1_545
B3 B7 1.775744 1_555
B3 Os3 2.360549 1_655
B3 Os3 2.360549 1_555
B3 Y2 2.787715 1_556
B3 Y2 2.787715 1_656
B3 Y3 2.808338 1_565
B3 Y3 2.808338 1_665
B4 B8 1.805853 1_555
B4 Os0 2.374982 1_655
B4 Os0 2.374982 1_555
B4 Y4 2.625305 1_655
B4 Y4 2.625305 1_555
B4 Y1 2.723697 1_555
B4 Y1 2.723697 1_655
B5 B9 1.805853 1_555
B5 Os1 2.374982 1_655
B5 Os1 2.374982 1_555
B5 Y5 2.625305 1_655
B5 Y5 2.625305 1_555
B5 Y0 2.723697 1_555
B5 Y0 2.723697 1_655
B6 Os2 2.374982 1_655
B6 Os2 2.374982 1_555
B6 Y6 2.625305 1_555
B6 Y6 2.625305 1_655
B6 Y3 2.723697 1_654
B6 Y3 2.723697 1_554
B7 Os3 2.374982 1_555
B7 Os3 2.374982 1_655
B7 Y7 2.625305 1_655
B7 Y7 2.625305 1_555
B7 Y2 2.723697 1_656
B7 Y2 2.723697 1_556
B8 Os0 2.387253 1_655
B8 Os0 2.387253 1_555
B8 Y4 2.614890 1_655
B8 Y4 2.614890 1_555
B8 Y2 2.789940 1_555
B8 Y2 2.789940 1_655
B9 Os1 2.387253 1_655
B9 Os1 2.387253 1_555
B9 Y5 2.614890 1_555
B9 Y5 2.614890 1_655
B9 Y3 2.789940 1_555
B9 Y3 2.789940 1_655
B10 B14 1.724406 1_555
B10 B6 1.805853 1_555
B10 B18 1.878304 1_555
B10 Os2 2.387253 1_555
B10 Os2 2.387253 1_655
B10 Y6 2.614890 1_655
B10 Y6 2.614890 1_555
B10 Y0 2.789940 1_555
B10 Y0 2.789940 1_655
B11 B15 1.724406 1_555
B11 B7 1.805853 1_555
B11 B19 1.878304 1_555
B11 Os3 2.387253 1_655
B11 Os3 2.387253 1_555
B11 Y7 2.614890 1_555
B11 Y7 2.614890 1_655
B11 Y1 2.789940 1_655
B11 Y1 2.789940 1_555
B12 B8 1.724406 1_555
B12 B18 1.789151 1_555
B12 B20 1.796490 1_555
B12 Os0 2.405543 1_555
B12 Os0 2.405543 1_655
B12 Y6 2.604089 1_655
B12 Y6 2.604089 1_555
B12 Y2 2.774776 1_655
B12 Y2 2.774776 1_555
B13 B9 1.724406 1_555
B13 B19 1.789151 1_555
B13 B21 1.796490 1_555
B13 Os1 2.405543 1_655
B13 Os1 2.405543 1_555
B13 Y7 2.604089 1_555
B13 Y7 2.604089 1_655
B13 Y3 2.774776 1_555
B13 Y3 2.774776 1_655
B14 B16 1.789151 1_545
B14 B22 1.796490 1_555
B14 Os2 2.405543 1_655
B14 Os2 2.405543 1_555
B14 Y4 2.604089 1_645
B14 Y4 2.604089 1_545
B14 Y0 2.774776 1_555
B14 Y0 2.774776 1_655
B15 B17 1.789151 1_565
B15 B23 1.796490 1_555
B15 Os3 2.405543 1_655
B15 Os3 2.405543 1_555
B15 Y5 2.604089 1_665
B15 Y5 2.604089 1_565
B15 Y1 2.774776 1_555
B15 Y1 2.774776 1_655
B16 B2 1.798097 1_565
B16 B8 1.878304 1_555
B16 Os2 2.341363 1_665
B16 Os2 2.341363 1_565
B16 Y4 2.626953 1_555
B16 Y4 2.626953 1_655
B16 Y2 2.770402 1_655
B16 Y2 2.770402 1_555
B17 B3 1.798097 1_545
B17 B9 1.878304 1_555
B17 Os3 2.341363 1_645
B17 Os3 2.341363 1_545
B17 Y5 2.626953 1_655
B17 Y5 2.626953 1_555
B17 Y3 2.770402 1_555
B17 Y3 2.770402 1_655
B18 Os0 2.341363 1_655
B18 Os0 2.341363 1_555
B18 Y6 2.626953 1_555
B18 Y6 2.626953 1_655
B18 Y0 2.770402 1_655
B18 Y0 2.770402 1_555
B19 Os1 2.341363 1_655
B19 Os1 2.341363 1_555
B19 Y7 2.626953 1_655
B19 Y7 2.626953 1_555
B19 Y1 2.770402 1_555
B19 Y1 2.770402 1_655
B20 B7 1.821206 1_554
B20 B21 2.168176 1_554
B20 Y7 2.626658 1_554
B20 Y7 2.626658 1_654
B20 Y6 2.628478 1_555
B20 Y6 2.628478 1_655
B20 Y2 2.732129 1_655
B20 Y2 2.732129 1_555
B21 B6 1.821206 1_556
B21 Y6 2.626658 1_556
B21 Y6 2.626658 1_656
B21 Y7 2.628478 1_555
B21 Y7 2.628478 1_655
B21 Y3 2.732129 1_555
B21 Y3 2.732129 1_655
B22 B5 1.821206 1_555
B22 B23 2.168176 1_545
B22 Y5 2.626658 1_655
B22 Y5 2.626658 1_555
B22 Y4 2.628478 1_545
B22 Y4 2.628478 1_645
B22 Y0 2.732129 1_555
B22 Y0 2.732129 1_655
B23 B4 1.821206 1_555
B23 Y4 2.626658 1_655
B23 Y4 2.626658 1_555
B23 Y5 2.628478 1_565
B23 Y5 2.628478 1_665
B23 Y1 2.732129 1_655
B23 Y1 2.732129 1_555
Os0 Y6 2.862002 1_555
Os0 Y4 2.873886 1_555
Os0 Y1 3.074385 1_555
Os0 Y0 3.076416 1_555
Os0 Y2 3.198188 1_555
Os1 Y7 2.862002 1_555
Os1 Y5 2.873886 1_555
Os1 Y0 3.074385 1_555
Os1 Y1 3.076416 1_555
Os1 Y3 3.198188 1_555
Os2 Y4 2.862002 1_545
Os2 Y6 2.873886 1_555
Os2 Y3 3.074385 1_554
Os2 Y2 3.076416 1_545
Os2 Y0 3.198188 1_555
Os3 Y5 2.862002 1_565
Os3 Y7 2.873886 1_555
Os3 Y2 3.074385 1_556
Os3 Y3 3.076416 1_565
Os3 Y1 3.198188 1_555
