# generated using pymatgen
data_ErCuSb2
_symmetry_space_group_name_H-M   'P 1'
_cell_length_a   4.27408262
_cell_length_b   4.27408262
_cell_length_c   9.77099548
_cell_angle_alpha   90.00000000
_cell_angle_beta   90.00000000
_cell_angle_gamma   90.00000000
_symmetry_Int_Tables_number   1
_chemical_formula_structural   ErCuSb2
_chemical_formula_sum   'Er2 Cu2 Sb4'
_cell_volume   178.49441772
_cell_formula_units_Z   2
loop_
 _symmetry_equiv_pos_site_id
 _symmetry_equiv_pos_as_xyz
  1  'x, y, z'
loop_
 _atom_site_type_symbol
 _atom_site_label
 _atom_site_symmetry_multiplicity
 _atom_site_fract_x
 _atom_site_fract_y
 _atom_site_fract_z
 _atom_site_occupancy
  Er  Er0  1  -0.00000000  0.50000000  0.75286200  1
  Er  Er1  1  0.50000000  0.00000000  0.24713800  1
  Cu  Cu0  1  0.50000000  0.50000000  0.50000000  1
  Cu  Cu1  1  -0.00000000  -0.00000000  0.50000000  1
  Sb  Sb0  1  0.50000000  0.50000000  -0.00000000  1
  Sb  Sb1  1  0.00000000  -0.00000000  -0.00000000  1
  Sb  Sb2  1  0.00000000  0.50000000  0.34003154  1
  Sb  Sb3  1  0.50000000  -0.00000000  0.65996846  1
loop_
_geom_bond_atom_site_label_1
_geom_bond_atom_site_label_2
_geom_bond_distance
_geom_bond_site_symmetry_2
Er0 Sb3 3.155589 1_555
Er0 Sb3 3.155589 1_455
Er0 Sb3 3.155589 1_565
Er0 Sb3 3.155589 1_465
Er0 Sb0 3.224613 1_556
Er0 Sb1 3.224613 1_556
Er0 Sb0 3.224613 1_456
Er0 Sb1 3.224613 1_566
Er1 Sb2 3.155589 1_655
Er1 Sb2 3.155589 1_645
Er1 Sb2 3.155589 1_545
Er1 Sb2 3.155589 1_555
Er1 Sb0 3.224613 1_545
Er1 Sb1 3.224613 1_655
Er1 Sb1 3.224613 1_555
Er1 Sb0 3.224613 1_555
Cu0 Sb3 2.647654 1_555
Cu0 Sb2 2.647654 1_655
Cu0 Sb3 2.647654 1_565
Cu0 Sb2 2.647654 1_555
Cu0 Cu1 3.022233 1_665
Cu0 Cu1 3.022233 1_565
Cu0 Cu1 3.022233 1_655
Cu0 Cu1 3.022233 1_555
Cu0 Er0 3.266706 1_555
Cu0 Er1 3.266706 1_555
Cu0 Er1 3.266706 1_565
Cu0 Er0 3.266706 1_655
Cu1 Sb3 2.647654 1_555
Cu1 Sb3 2.647654 1_455
Cu1 Sb2 2.647654 1_545
Cu1 Sb2 2.647654 1_555
Cu1 Er0 3.266706 1_555
Cu1 Er1 3.266706 1_555
Cu1 Er1 3.266706 1_455
Cu1 Er0 3.266706 1_545
Sb0 Sb1 3.022233 1_665
Sb0 Sb1 3.022233 1_565
Sb0 Sb1 3.022233 1_655
Sb0 Sb1 3.022233 1_555
