# generated using pymatgen
data_Sr4SiN4
_symmetry_space_group_name_H-M   'P 1'
_cell_length_a   5.99304800
_cell_length_b   11.92387700
_cell_length_c   9.91260500
_cell_angle_alpha   90.00000000
_cell_angle_beta   90.00000000
_cell_angle_gamma   90.00000000
_symmetry_Int_Tables_number   1
_chemical_formula_structural   Sr4SiN4
_chemical_formula_sum   'Sr16 Si4 N16'
_cell_volume   708.35839328
_cell_formula_units_Z   4
loop_
 _symmetry_equiv_pos_site_id
 _symmetry_equiv_pos_as_xyz
  1  'x, y, z'
loop_
 _atom_site_type_symbol
 _atom_site_label
 _atom_site_symmetry_multiplicity
 _atom_site_fract_x
 _atom_site_fract_y
 _atom_site_fract_z
 _atom_site_occupancy
  Sr  Sr0  1  0.11873100  0.37678200  0.60374600  1
  Sr  Sr1  1  0.38126900  0.62321800  0.60374600  1
  Sr  Sr2  1  0.11873100  0.12321800  0.89625400  1
  Sr  Sr3  1  0.38126900  0.87678200  0.89625400  1
  Sr  Sr4  1  0.88126900  0.62321800  0.39625400  1
  Sr  Sr5  1  0.61873100  0.37678200  0.39625400  1
  Sr  Sr6  1  0.88126900  0.87678200  0.10374600  1
  Sr  Sr7  1  0.61873100  0.12321800  0.10374600  1
  Sr  Sr8  1  0.75000000  0.50000000  0.06773500  1
  Sr  Sr9  1  0.75000000  0.00000000  0.43226500  1
  Sr  Sr10  1  0.25000000  0.50000000  0.93226500  1
  Sr  Sr11  1  0.25000000  0.00000000  0.56773500  1
  Sr  Sr12  1  0.64699500  0.25000000  0.75000000  1
  Sr  Sr13  1  0.85300500  0.75000000  0.75000000  1
  Sr  Sr14  1  0.35300500  0.75000000  0.25000000  1
  Sr  Sr15  1  0.14699500  0.25000000  0.25000000  1
  Si  Si0  1  0.75000000  0.50000000  0.75059200  1
  Si  Si1  1  0.75000000  0.00000000  0.74940800  1
  Si  Si2  1  0.25000000  0.50000000  0.24940800  1
  Si  Si3  1  0.25000000  0.00000000  0.25059200  1
  N  N0  1  0.53447500  0.43170400  0.64789500  1
  N  N1  1  0.96552500  0.56829600  0.64789500  1
  N  N2  1  0.53447500  0.06829600  0.85210500  1
  N  N3  1  0.96552500  0.93170400  0.85210500  1
  N  N4  1  0.46552500  0.56829600  0.35210500  1
  N  N5  1  0.03447500  0.43170400  0.35210500  1
  N  N6  1  0.46552500  0.93170400  0.14789500  1
  N  N7  1  0.03447500  0.06829600  0.14789500  1
  N  N8  1  0.89549200  0.10373000  0.65137900  1
  N  N9  1  0.60450800  0.89627000  0.65137900  1
  N  N10  1  0.89549200  0.39627000  0.84862100  1
  N  N11  1  0.60450800  0.60373000  0.84862100  1
  N  N12  1  0.10450800  0.89627000  0.34862100  1
  N  N13  1  0.39549200  0.10373000  0.34862100  1
  N  N14  1  0.10450800  0.60373000  0.15137900  1
  N  N15  1  0.39549200  0.39627000  0.15137900  1
loop_
_geom_bond_atom_site_label_1
_geom_bond_atom_site_label_2
_geom_bond_distance
_geom_bond_site_symmetry_2
N0 Si0 1.835170 1_555
N0 Sr12 2.484624 1_555
N0 Sr1 2.499868 1_555
N0 Sr0 2.613108 1_555
N0 Sr5 2.627921 1_555
N1 Si0 1.835170 1_555
N1 Sr13 2.484624 1_555
N1 Sr0 2.499868 1_655
N1 Sr1 2.613108 1_655
N1 Sr4 2.627921 1_555
N2 Si1 1.835170 1_555
N2 Sr12 2.484624 1_555
N2 Sr3 2.499868 1_545
N2 Sr2 2.613108 1_555
N2 Sr7 2.627921 1_556
N3 Si1 1.835170 1_565
N3 Sr13 2.484624 1_555
N3 Sr2 2.499868 1_665
N3 Sr3 2.613108 1_655
N3 Sr6 2.627921 1_556
N4 Si2 1.835170 1_555
N4 Sr14 2.484624 1_555
N4 Sr5 2.499868 1_555
N4 Sr4 2.613108 1_555
N4 Sr1 2.627921 1_555
N5 Si2 1.835170 1_555
N5 Sr15 2.484624 1_555
N5 Sr4 2.499868 1_455
N5 Sr5 2.613108 1_455
N5 Sr0 2.627921 1_555
N6 Si3 1.835170 1_565
N6 Sr14 2.484624 1_555
N6 Sr7 2.499868 1_565
N6 Sr6 2.613108 1_555
N6 Sr3 2.627921 1_554
N7 Si3 1.835170 1_555
N7 Sr15 2.484624 1_555
N7 Sr6 2.499868 1_445
N7 Sr7 2.613108 1_455
N7 Sr2 2.627921 1_554
N8 Si1 1.798432 1_555
N8 Sr12 2.493084 1_555
N8 Sr11 2.594445 1_655
N8 Sr9 2.647198 1_555
N8 Sr2 2.781357 1_655
N9 Si1 1.798432 1_565
N9 Sr13 2.493084 1_555
N9 Sr11 2.594445 1_565
N9 Sr9 2.647198 1_565
N9 Sr3 2.781357 1_555
N10 Si0 1.798432 1_555
N10 Sr12 2.493084 1_555
N10 Sr10 2.594445 1_655
N10 Sr8 2.647198 1_556
N10 Sr0 2.781357 1_655
N11 Si0 1.798432 1_555
N11 Sr13 2.493084 1_555
N11 Sr10 2.594445 1_555
N11 Sr8 2.647198 1_556
N11 Sr1 2.781357 1_555
N12 Si3 1.798432 1_565
N12 Sr14 2.493084 1_555
N12 Sr9 2.594445 1_465
N12 Sr11 2.647198 1_565
N12 Sr6 2.781357 1_455
N13 Si3 1.798432 1_555
N13 Sr15 2.493084 1_555
N13 Sr9 2.594445 1_555
N13 Sr11 2.647198 1_555
N13 Sr7 2.781357 1_555
N14 Si2 1.798432 1_555
N14 Sr14 2.493084 1_555
N14 Sr8 2.594445 1_455
N14 Sr10 2.647198 1_554
N14 Sr4 2.781357 1_455
N15 Si2 1.798432 1_555
N15 Sr15 2.493084 1_555
N15 Sr8 2.594445 1_555
N15 Sr10 2.647198 1_554
N15 Sr5 2.781357 1_555
