# generated using pymatgen
data_Si
_symmetry_space_group_name_H-M   'P 1'
_cell_length_a   5.07791981
_cell_length_b   5.07791981
_cell_length_c   5.18306700
_cell_angle_alpha   90.00000000
_cell_angle_beta   90.00000000
_cell_angle_gamma   118.99725284
_symmetry_Int_Tables_number   1
_chemical_formula_structural   Si
_chemical_formula_sum   Si8
_cell_volume   116.89321424
_cell_formula_units_Z   8
loop_
 _symmetry_equiv_pos_site_id
 _symmetry_equiv_pos_as_xyz
  1  'x, y, z'
loop_
 _atom_site_type_symbol
 _atom_site_label
 _atom_site_symmetry_multiplicity
 _atom_site_fract_x
 _atom_site_fract_y
 _atom_site_fract_z
 _atom_site_occupancy
  Si  Si0  1  0.34438000  0.34438000  0.82587000  1
  Si  Si1  1  0.65562000  0.65562000  0.17413000  1
  Si  Si2  1  0.15562000  0.15562000  0.32587000  1
  Si  Si3  1  0.84438000  0.84438000  0.67413000  1
  Si  Si4  1  0.70571500  0.29428500  0.50000000  1
  Si  Si5  1  0.20571500  0.79428500  0.00000000  1
  Si  Si6  1  0.29428500  0.70571500  0.50000000  1
  Si  Si7  1  0.79428500  0.20571500  0.00000000  1
loop_
_geom_bond_atom_site_label_1
_geom_bond_atom_site_label_2
_geom_bond_distance
_geom_bond_site_symmetry_2
Si0 Si1 2.414984 1_556
Si0 Si4 2.595491 1_555
Si0 Si6 2.595491 1_555
Si0 Si5 2.684426 1_546
Si0 Si7 2.684426 1_456
Si0 Si3 2.694671 1_555
Si0 Si3 2.694671 1_445
Si0 Si2 2.768171 1_555
Si0 Si2 2.768171 1_556
Si0 Si7 2.844170 1_556
Si0 Si5 2.844170 1_556
Si1 Si6 2.595491 1_555
Si1 Si4 2.595491 1_555
Si1 Si7 2.684426 1_565
Si1 Si5 2.684426 1_655
Si1 Si2 2.694671 1_665
Si1 Si2 2.694671 1_555
Si1 Si3 2.768171 1_554
Si1 Si3 2.768171 1_555
Si1 Si7 2.844170 1_555
Si1 Si5 2.844170 1_555
Si2 Si3 2.414984 1_445
Si2 Si7 2.595491 1_455
Si2 Si5 2.595491 1_545
Si2 Si6 2.684426 1_555
Si2 Si4 2.684426 1_555
Si2 Si4 2.844170 1_455
Si2 Si6 2.844170 1_545
Si3 Si7 2.595491 1_566
Si3 Si5 2.595491 1_656
Si3 Si4 2.684426 1_555
Si3 Si6 2.684426 1_555
Si3 Si4 2.844170 1_565
Si3 Si6 2.844170 1_655
Si4 Si6 2.691351 1_545
Si4 Si6 2.691351 1_655
Si4 Si7 2.704942 1_555
Si4 Si7 2.704942 1_556
Si5 Si7 2.691351 1_565
Si5 Si7 2.691351 1_455
Si5 Si6 2.704942 1_554
Si5 Si6 2.704942 1_555
