# generated using pymatgen
data_CsHSO2
_symmetry_space_group_name_H-M   'P 1'
_cell_length_a   5.81737100
_cell_length_b   6.41132607
_cell_length_c   12.03870392
_cell_angle_alpha   93.73447953
_cell_angle_beta   90.00000000
_cell_angle_gamma   116.97998094
_symmetry_Int_Tables_number   1
_chemical_formula_structural   CsHSO2
_chemical_formula_sum   'Cs4 H4 S4 O8'
_cell_volume   399.07035955
_cell_formula_units_Z   4
loop_
 _symmetry_equiv_pos_site_id
 _symmetry_equiv_pos_as_xyz
  1  'x, y, z'
loop_
 _atom_site_type_symbol
 _atom_site_label
 _atom_site_symmetry_multiplicity
 _atom_site_fract_x
 _atom_site_fract_y
 _atom_site_fract_z
 _atom_site_occupancy
  Cs  Cs0  1  0.22664500  0.45329100  0.34398500  1
  Cs  Cs1  1  0.77335500  0.54670900  0.65601500  1
  Cs  Cs2  1  0.85344900  0.70689800  0.08112200  1
  Cs  Cs3  1  0.14655100  0.29310200  0.91887800  1
  H  H0  1  0.80591800  0.88238400  0.37189300  1
  H  H1  1  0.07646600  0.88238400  0.37189300  1
  H  H2  1  0.19408200  0.11761600  0.62810700  1
  H  H3  1  0.92353400  0.11761600  0.62810700  1
  S  S0  1  0.54094500  0.08189100  0.35988100  1
  S  S1  1  0.45905500  0.91810900  0.64011900  1
  S  S2  1  0.53324700  0.06649300  0.18874500  1
  S  S3  1  0.46675300  0.93350700  0.81125500  1
  O  O0  1  0.88879900  0.77759800  0.37293700  1
  O  O1  1  0.11120100  0.22240200  0.62706300  1
  O  O2  1  0.80377000  0.18561200  0.15211000  1
  O  O3  1  0.38184200  0.18561200  0.15211000  1
  O  O4  1  0.19623000  0.81438800  0.84789000  1
  O  O5  1  0.61815800  0.81438800  0.84789000  1
  O  O6  1  0.40641600  0.81283100  0.14856500  1
  O  O7  1  0.59358400  0.18716900  0.85143500  1
loop_
_geom_bond_atom_site_label_1
_geom_bond_atom_site_label_2
_geom_bond_distance
_geom_bond_site_symmetry_2
Cs0 O2 3.160001 1_455
Cs0 O3 3.160004 1_555
Cs0 O6 3.234366 1_555
Cs1 O4 3.160001 1_655
Cs1 O5 3.160004 1_555
Cs1 O7 3.234366 1_555
Cs2 O6 3.068250 1_555
Cs2 O6 3.068255 1_655
Cs2 O2 3.270620 1_565
Cs2 O3 3.270620 1_665
Cs2 O5 3.367529 1_554
Cs2 O4 3.367529 1_654
Cs2 O2 3.388126 1_555
Cs2 O3 3.388126 1_555
Cs2 O0 3.506769 1_555
Cs3 O7 3.068250 1_555
Cs3 O7 3.068255 1_455
Cs3 O4 3.270620 1_545
Cs3 O5 3.270620 1_445
Cs3 O3 3.367529 1_556
Cs3 O2 3.367529 1_456
Cs3 O4 3.388126 1_555
Cs3 O5 3.388126 1_555
Cs3 O1 3.506769 1_555
H0 O0 0.989430 1_555
H1 O0 0.989431 1_455
H2 O1 0.989430 1_555
H3 O1 0.989431 1_655
S0 S2 2.055699 1_555
S1 S3 2.055699 1_555
O2 S2 1.485849 1_555
O3 S2 1.485854 1_555
O4 S3 1.485849 1_555
O5 S3 1.485854 1_555
O6 S2 1.493990 1_565
O7 S3 1.493990 1_545
