# generated using pymatgen
data_Ba3NiSbRuO9
_symmetry_space_group_name_H-M   'P 1'
_cell_length_a   5.88579612
_cell_length_b   5.88579612
_cell_length_c   14.54260300
_cell_angle_alpha   90.00000000
_cell_angle_beta   90.00000000
_cell_angle_gamma   120.00000139
_symmetry_Int_Tables_number   1
_chemical_formula_structural   Ba3NiSbRuO9
_chemical_formula_sum   'Ba6 Ni2 Sb2 Ru2 O18'
_cell_volume   436.29798101
_cell_formula_units_Z   2
loop_
 _symmetry_equiv_pos_site_id
 _symmetry_equiv_pos_as_xyz
  1  'x, y, z'
loop_
 _atom_site_type_symbol
 _atom_site_label
 _atom_site_symmetry_multiplicity
 _atom_site_fract_x
 _atom_site_fract_y
 _atom_site_fract_z
 _atom_site_occupancy
  Ba  Ba0  1  0.66666700  0.33333300  0.59050600  1
  Ba  Ba1  1  0.33333300  0.66666700  0.40949400  1
  Ba  Ba2  1  0.33333300  0.66666700  0.08564000  1
  Ba  Ba3  1  0.66666700  0.33333300  0.91436000  1
  Ba  Ba4  1  0.00000000  0.00000000  0.24927300  1
  Ba  Ba5  1  0.00000000  0.00000000  0.75072700  1
  Ni  Ni0  1  0.00000000  0.00000000  0.50000000  1
  Ni  Ni1  1  0.00000000  0.00000000  0.00000000  1
  Sb  Sb0  1  0.33333300  0.66666700  0.84357800  1
  Sb  Sb1  1  0.66666700  0.33333300  0.15642200  1
  Ru  Ru0  1  0.66666700  0.33333300  0.35069400  1
  Ru  Ru1  1  0.33333300  0.66666700  0.64930600  1
  O  O0  1  0.34126600  0.17063300  0.08668000  1
  O  O1  1  0.82936700  0.17063300  0.08668000  1
  O  O2  1  0.82936700  0.65873400  0.08668000  1
  O  O3  1  0.65873400  0.82936700  0.91332000  1
  O  O4  1  0.17063300  0.82936700  0.91332000  1
  O  O5  1  0.17063300  0.34126600  0.91332000  1
  O  O6  1  0.65800800  0.82900400  0.58070200  1
  O  O7  1  0.17099600  0.82900400  0.58070200  1
  O  O8  1  0.17099600  0.34199200  0.58070200  1
  O  O9  1  0.34199200  0.17099600  0.41929800  1
  O  O10  1  0.82900400  0.17099600  0.41929800  1
  O  O11  1  0.82900400  0.65800800  0.41929800  1
  O  O12  1  0.96529700  0.48264800  0.25311500  1
  O  O13  1  0.51735200  0.48264800  0.25311500  1
  O  O14  1  0.51735200  0.03470300  0.25311500  1
  O  O15  1  0.03470300  0.51735200  0.74688500  1
  O  O16  1  0.48264800  0.51735200  0.74688500  1
  O  O17  1  0.48264800  0.96529700  0.74688500  1
loop_
_geom_bond_atom_site_label_1
_geom_bond_atom_site_label_2
_geom_bond_distance
_geom_bond_site_symmetry_2
Ba0 O8 2.946677 1_655
Ba0 O6 2.946677 1_545
Ba0 O7 2.946680 1_655
Ba0 O7 2.946680 1_545
Ba0 O6 2.946683 1_555
Ba0 O8 2.946683 1_555
Ba0 O15 2.948061 1_655
Ba0 O17 2.948061 1_545
Ba0 O16 2.948067 1_555
Ba0 O10 2.989648 1_555
Ba0 O11 2.989651 1_555
Ba0 O9 2.989651 1_555
Ba1 O9 2.946677 1_565
Ba1 O11 2.946677 1_455
Ba1 O10 2.946680 1_565
Ba1 O10 2.946680 1_455
Ba1 O9 2.946683 1_555
Ba1 O11 2.946683 1_555
Ba1 O14 2.948061 1_565
Ba1 O12 2.948061 1_455
Ba1 O13 2.948067 1_555
Ba1 O7 2.989648 1_555
Ba1 O6 2.989651 1_555
Ba1 O8 2.989651 1_555
Ba2 O0 2.943212 1_565
Ba2 O2 2.943212 1_455
Ba2 O1 2.943215 1_565
Ba2 O1 2.943215 1_455
Ba2 O2 2.943218 1_555
Ba2 O0 2.943218 1_555
Ba2 O4 3.005170 1_554
Ba2 O5 3.005173 1_554
Ba2 O3 3.005173 1_554
Ba2 O14 3.074254 1_565
Ba2 O12 3.074254 1_455
Ba2 O13 3.074260 1_555
Ba3 O5 2.943212 1_655
Ba3 O3 2.943212 1_545
Ba3 O4 2.943215 1_655
Ba3 O4 2.943215 1_545
Ba3 O3 2.943218 1_555
Ba3 O5 2.943218 1_555
Ba3 O1 3.005170 1_556
Ba3 O2 3.005173 1_556
Ba3 O0 3.005173 1_556
Ba3 O17 3.074254 1_545
Ba3 O15 3.074254 1_655
Ba3 O16 3.074260 1_555
Ba4 O2 2.935456 1_445
Ba4 O0 2.935456 1_555
Ba4 O1 2.935456 1_455
Ba4 O14 2.948736 1_455
Ba4 O12 2.948736 1_455
Ba4 O13 2.948739 1_445
Ba4 O13 2.948739 1_555
Ba4 O12 2.948742 1_445
Ba4 O14 2.948742 1_555
Ba4 O11 3.025325 1_445
Ba4 O9 3.025325 1_555
Ba4 O10 3.025325 1_455
Ba5 O3 2.935456 1_445
Ba5 O5 2.935456 1_555
Ba5 O4 2.935456 1_545
Ba5 O15 2.948736 1_545
Ba5 O17 2.948736 1_545
Ba5 O16 2.948739 1_555
Ba5 O16 2.948739 1_445
Ba5 O17 2.948742 1_445
Ba5 O15 2.948742 1_555
Ba5 O6 3.025325 1_445
Ba5 O8 3.025325 1_555
Ba5 O7 3.025325 1_545
Ni0 O6 2.101473 1_445
Ni0 O11 2.101473 1_445
Ni0 O9 2.101473 1_555
Ni0 O8 2.101473 1_555
Ni0 O10 2.101473 1_455
Ni0 O7 2.101473 1_545
Ni1 O3 2.148235 1_444
Ni1 O5 2.148235 1_554
Ni1 O2 2.148235 1_445
Ni1 O0 2.148235 1_555
Ni1 O4 2.148235 1_544
Ni1 O1 2.148235 1_455
O0 Sb1 1.944166 1_555
O1 Sb1 1.944162 1_555
O2 Sb1 1.944166 1_555
O3 Sb0 1.944166 1_555
O4 Sb0 1.944162 1_555
O5 Sb0 1.944166 1_555
O6 Ru1 1.932414 1_555
O7 Ru1 1.932410 1_555
O8 Ru1 1.932414 1_555
O9 Ru0 1.932414 1_555
O10 Ru0 1.932410 1_555
O11 Ru0 1.932414 1_555
O12 Sb1 2.072287 1_555
O12 Ru0 2.081052 1_555
O13 Sb1 2.072287 1_555
O13 Ru0 2.081052 1_555
O14 Sb1 2.072287 1_555
O14 Ru0 2.081052 1_555
O15 Sb0 2.072287 1_555
O15 Ru1 2.081052 1_555
O16 Sb0 2.072287 1_555
O16 Ru1 2.081052 1_555
O17 Sb0 2.072287 1_555
O17 Ru1 2.081052 1_555
