# generated using pymatgen
data_CaP2(WO4)2
_symmetry_space_group_name_H-M   'P 1'
_cell_length_a   9.72752508
_cell_length_b   9.72752508
_cell_length_c   16.97872698
_cell_angle_alpha   63.62649563
_cell_angle_beta   63.62649563
_cell_angle_gamma   30.48597406
_symmetry_Int_Tables_number   1
_chemical_formula_structural   CaP2(WO4)2
_chemical_formula_sum   'Ca4 P8 W8 O32'
_cell_volume   723.54463015
_cell_formula_units_Z   4
loop_
 _symmetry_equiv_pos_site_id
 _symmetry_equiv_pos_as_xyz
  1  'x, y, z'
loop_
 _atom_site_type_symbol
 _atom_site_label
 _atom_site_symmetry_multiplicity
 _atom_site_fract_x
 _atom_site_fract_y
 _atom_site_fract_z
 _atom_site_occupancy
  Ca  Ca0  1  0.16135800  0.53296700  0.13038700  1
  Ca  Ca1  1  0.46703300  0.83864200  0.36961300  1
  Ca  Ca2  1  0.53296700  0.16135800  0.63038700  1
  Ca  Ca3  1  0.83864200  0.46703300  0.86961300  1
  P  P0  1  0.48350800  0.93826700  0.14488100  1
  P  P1  1  0.77100800  0.26843600  0.39311800  1
  P  P2  1  0.51649200  0.06173300  0.85511900  1
  P  P3  1  0.26843600  0.77100800  0.89311800  1
  P  P4  1  0.93826700  0.48350800  0.64488100  1
  P  P5  1  0.06173300  0.51649200  0.35511900  1
  P  P6  1  0.22899200  0.73156400  0.60688200  1
  P  P7  1  0.73156400  0.22899200  0.10688200  1
  W  W0  1  0.29931200  0.92258000  0.02699800  1
  W  W1  1  0.07742000  0.70068800  0.47300200  1
  W  W2  1  0.70068800  0.07742000  0.97300200  1
  W  W3  1  0.00000000  0.50000000  0.00000000  1
  W  W4  1  0.92258000  0.29931200  0.52699800  1
  W  W5  1  0.73678900  0.26321100  0.75000000  1
  W  W6  1  0.26321100  0.73678900  0.25000000  1
  W  W7  1  0.50000000  0.00000000  0.50000000  1
  O  O0  1  0.20103700  0.32403900  0.87769900  1
  O  O1  1  0.69794000  0.10476100  0.09848300  1
  O  O2  1  0.32403900  0.20103700  0.37769900  1
  O  O3  1  0.64969400  0.24844500  0.48423800  1
  O  O4  1  0.62840200  0.82372500  0.93569800  1
  O  O5  1  0.56294600  0.51331700  0.32552800  1
  O  O6  1  0.75155500  0.35030600  0.01576200  1
  O  O7  1  0.98969400  0.01127600  0.85605400  1
  O  O8  1  0.35030600  0.75155500  0.51576200  1
  O  O9  1  0.89523900  0.30206000  0.40151700  1
  O  O10  1  0.63499400  0.11310300  0.85138500  1
  O  O11  1  0.03534900  0.38664600  0.72864400  1
  O  O12  1  0.30206000  0.89523900  0.90151700  1
  O  O13  1  0.01127600  0.98969400  0.35605400  1
  O  O14  1  0.79896300  0.67596100  0.12230100  1
  O  O15  1  0.36500600  0.88689700  0.14861500  1
  O  O16  1  0.38664600  0.03534900  0.22864400  1
  O  O17  1  0.24844500  0.64969400  0.98423800  1
  O  O18  1  0.11310300  0.63499400  0.35138500  1
  O  O19  1  0.96465100  0.61335400  0.27135600  1
  O  O20  1  0.98872400  0.01030600  0.64394600  1
  O  O21  1  0.82372500  0.62840200  0.43569800  1
  O  O22  1  0.01030600  0.98872400  0.14394600  1
  O  O23  1  0.51331700  0.56294600  0.82552800  1
  O  O24  1  0.10476100  0.69794000  0.59848300  1
  O  O25  1  0.67596100  0.79896300  0.62230100  1
  O  O26  1  0.61335400  0.96465100  0.77135600  1
  O  O27  1  0.17627500  0.37159800  0.56430200  1
  O  O28  1  0.37159800  0.17627500  0.06430200  1
  O  O29  1  0.48668300  0.43705400  0.17447200  1
  O  O30  1  0.43705400  0.48668300  0.67447200  1
  O  O31  1  0.88689700  0.36500600  0.64861500  1
loop_
_geom_bond_atom_site_label_1
_geom_bond_atom_site_label_2
_geom_bond_distance
_geom_bond_site_symmetry_2
Ca0 O19 2.239783 1_455
Ca0 O17 2.334819 1_554
Ca0 O14 2.487947 1_455
Ca0 O28 2.582760 1_555
Ca0 O1 2.628480 1_555
Ca0 O1 2.798242 1_465
Ca0 O29 2.800134 1_555
Ca0 O16 2.967749 1_555
Ca1 O16 2.239783 1_565
Ca1 O8 2.334819 1_555
Ca1 O2 2.487947 1_565
Ca1 O21 2.582760 1_555
Ca1 O9 2.628480 1_555
Ca1 O9 2.798242 1_465
Ca1 O5 2.800134 1_555
Ca1 O19 2.967749 1_555
Ca2 O26 2.239783 1_545
Ca2 O3 2.334819 1_555
Ca2 O25 2.487947 1_545
Ca2 O27 2.582760 1_555
Ca2 O24 2.628480 1_555
Ca2 O24 2.798242 1_645
Ca2 O30 2.800134 1_555
Ca2 O11 2.967749 1_555
Ca3 O11 2.239783 1_655
Ca3 O6 2.334819 1_556
Ca3 O0 2.487947 1_655
Ca3 O4 2.582760 1_555
Ca3 O12 2.628480 1_555
Ca3 O12 2.798242 1_645
Ca3 O23 2.800134 1_555
Ca3 O26 2.967749 1_555
O0 P2 1.550182 1_555
O0 W3 2.201571 1_556
O1 P7 1.569546 1_555
O1 W2 2.247461 1_554
O2 P5 1.550182 1_555
O2 W7 2.201571 1_555
O3 P1 1.526475 1_555
O4 P2 1.606948 1_565
O4 W3 2.237817 1_656
O4 W0 2.277182 1_556
O5 P1 1.553415 1_555
O5 W6 2.189173 1_555
O6 P7 1.526475 1_555
O7 P3 1.580363 1_645
O7 W5 2.219136 1_555
O7 W2 2.306124 1_555
O8 P6 1.526475 1_555
O9 P1 1.569546 1_555
O9 W4 2.247461 1_555
O10 P2 1.575505 1_555
O10 W5 2.195520 1_555
O10 W2 2.223947 1_555
O11 P4 1.507102 1_455
O12 P3 1.569546 1_555
O12 W0 2.247461 1_556
O13 P1 1.580363 1_465
O13 W6 2.219136 1_555
O13 W1 2.306124 1_555
O14 P0 1.550182 1_555
O14 W3 2.201571 1_655
O15 P0 1.575505 1_555
O15 W6 2.195520 1_555
O15 W0 2.223947 1_555
O16 P0 1.507102 1_545
O17 P3 1.526475 1_555
O18 P5 1.575505 1_555
O18 W6 2.195520 1_555
O18 W1 2.223947 1_555
O19 P5 1.507102 1_655
O20 P6 1.580363 1_645
O20 W5 2.219136 1_555
O20 W4 2.306124 1_555
O21 P5 1.606948 1_655
O21 W7 2.237817 1_565
O21 W4 2.277182 1_555
O22 P7 1.580363 1_465
O22 W6 2.219136 1_555
O22 W0 2.306124 1_555
O23 P3 1.553415 1_555
O23 W5 2.189173 1_555
O24 P6 1.569546 1_555
O24 W1 2.247461 1_555
O25 P4 1.550182 1_555
O25 W7 2.201571 1_565
O26 P2 1.507102 1_565
O27 P4 1.606948 1_455
O27 W7 2.237817 1_555
O27 W1 2.277182 1_555
O28 P0 1.606948 1_545
O28 W3 2.237817 1_555
O28 W2 2.277182 1_554
O29 P7 1.553415 1_555
O29 W6 2.189173 1_555
O30 P6 1.553415 1_555
O30 W5 2.189173 1_555
O31 P4 1.575505 1_555
O31 W5 2.195520 1_555
O31 W4 2.223947 1_555
