# generated using pymatgen
data_Tb(NbSn)6
_symmetry_space_group_name_H-M   'P 1'
_cell_length_a   5.80251388
_cell_length_b   5.80251388
_cell_length_c   9.58680776
_cell_angle_alpha   90.00000000
_cell_angle_beta   90.00000000
_cell_angle_gamma   119.99999906
_symmetry_Int_Tables_number   1
_chemical_formula_structural   Tb(NbSn)6
_chemical_formula_sum   'Tb1 Nb6 Sn6'
_cell_volume   279.53553901
_cell_formula_units_Z   1
loop_
 _symmetry_equiv_pos_site_id
 _symmetry_equiv_pos_as_xyz
  1  'x, y, z'
loop_
 _atom_site_type_symbol
 _atom_site_label
 _atom_site_symmetry_multiplicity
 _atom_site_fract_x
 _atom_site_fract_y
 _atom_site_fract_z
 _atom_site_occupancy
  Tb  Tb0  1  0.00000000  0.00000000  -0.00000000  1
  Nb  Nb0  1  0.00000000  0.50000000  0.75014871  1
  Nb  Nb1  1  0.50000000  0.50000000  0.75014871  1
  Nb  Nb2  1  0.50000000  0.00000000  0.75014871  1
  Nb  Nb3  1  0.00000000  0.50000000  0.24985129  1
  Nb  Nb4  1  0.50000000  0.50000000  0.24985129  1
  Nb  Nb5  1  0.50000000  0.00000000  0.24985129  1
  Sn  Sn0  1  0.66666700  0.33333300  0.50000000  1
  Sn  Sn1  1  0.33333300  0.66666700  0.50000000  1
  Sn  Sn2  1  0.66666700  0.33333300  -0.00000000  1
  Sn  Sn3  1  0.33333300  0.66666700  -0.00000000  1
  Sn  Sn4  1  0.00000000  0.00000000  0.67094197  1
  Sn  Sn5  1  0.00000000  0.00000000  0.32905803  1
loop_
_geom_bond_atom_site_label_1
_geom_bond_atom_site_label_2
_geom_bond_distance
_geom_bond_site_symmetry_2
Nb0 Nb1 2.901257 1_555
Nb0 Nb1 2.901257 1_455
Nb0 Nb2 2.901257 1_565
Nb0 Nb2 2.901257 1_455
Nb0 Sn3 2.922859 1_556
Nb0 Sn2 2.922859 1_456
Nb0 Sn0 2.925196 1_455
Nb0 Sn1 2.925196 1_555
Nb0 Sn4 2.998981 1_565
Nb0 Sn4 2.998981 1_555
Nb1 Nb2 2.901257 1_555
Nb1 Nb2 2.901257 1_565
Nb1 Sn3 2.922862 1_556
Nb1 Sn2 2.922862 1_556
Nb1 Sn0 2.925199 1_555
Nb1 Sn1 2.925199 1_555
Nb1 Sn4 2.998981 1_665
Nb1 Sn4 2.998981 1_555
Nb2 Sn3 2.922859 1_546
Nb2 Sn2 2.922859 1_556
Nb2 Sn1 2.925196 1_545
Nb2 Sn0 2.925196 1_555
Nb2 Sn4 2.998981 1_655
Nb2 Sn4 2.998981 1_555
Nb3 Nb4 2.901257 1_455
Nb3 Nb4 2.901257 1_555
Nb3 Nb5 2.901257 1_565
Nb3 Nb5 2.901257 1_455
Nb3 Sn3 2.922859 1_555
Nb3 Sn2 2.922859 1_455
Nb3 Sn1 2.925196 1_555
Nb3 Sn0 2.925196 1_455
Nb3 Sn5 2.998981 1_565
Nb3 Sn5 2.998981 1_555
Nb4 Nb5 2.901257 1_565
Nb4 Nb5 2.901257 1_555
Nb4 Sn2 2.922862 1_555
Nb4 Sn3 2.922862 1_555
Nb4 Sn1 2.925199 1_555
Nb4 Sn0 2.925199 1_555
Nb4 Sn5 2.998981 1_665
Nb4 Sn5 2.998981 1_555
Nb5 Sn3 2.922859 1_545
Nb5 Sn2 2.922859 1_555
Nb5 Sn0 2.925196 1_555
Nb5 Sn1 2.925196 1_545
Nb5 Sn5 2.998981 1_655
Nb5 Sn5 2.998981 1_555
Sn0 Sn1 3.350080 1_545
Sn0 Sn1 3.350080 1_655
Sn0 Sn1 3.350090 1_555
Sn2 Tb0 3.350080 1_655
Sn2 Sn3 3.350080 1_545
Sn2 Sn3 3.350080 1_655
Sn2 Tb0 3.350085 1_555
Sn2 Tb0 3.350085 1_665
Sn2 Sn3 3.350090 1_555
Sn3 Tb0 3.350080 1_565
Sn3 Tb0 3.350085 1_555
Sn3 Tb0 3.350085 1_665
Sn4 Tb0 3.154616 1_556
Sn4 Sn5 3.277576 1_555
Sn5 Tb0 3.154616 1_555
