# generated using pymatgen
data_NbCr3(CuS4)2
_symmetry_space_group_name_H-M   'P 1'
_cell_length_a   3.45010400
_cell_length_b   11.07370700
_cell_length_c   12.57677100
_cell_angle_alpha   90.00000000
_cell_angle_beta   90.00000000
_cell_angle_gamma   90.00000000
_symmetry_Int_Tables_number   1
_chemical_formula_structural   NbCr3(CuS4)2
_chemical_formula_sum   'Nb2 Cr6 Cu4 S16'
_cell_volume   480.50108009
_cell_formula_units_Z   2
loop_
 _symmetry_equiv_pos_site_id
 _symmetry_equiv_pos_as_xyz
  1  'x, y, z'
loop_
 _atom_site_type_symbol
 _atom_site_label
 _atom_site_symmetry_multiplicity
 _atom_site_fract_x
 _atom_site_fract_y
 _atom_site_fract_z
 _atom_site_occupancy
  Nb  Nb0  1  0.50000000  0.70836500  0.88374000  1
  Nb  Nb1  1  0.00000000  0.29163500  0.38374000  1
  Cr  Cr0  1  0.00000000  0.79713700  0.12804100  1
  Cr  Cr1  1  0.50000000  0.20286300  0.62804100  1
  Cr  Cr2  1  0.50000000  0.65872600  0.41362800  1
  Cr  Cr3  1  0.00000000  0.84658300  0.58760200  1
  Cr  Cr4  1  0.00000000  0.34127400  0.91362800  1
  Cr  Cr5  1  0.50000000  0.15341700  0.08760200  1
  Cu  Cu0  1  0.50000000  0.48112300  0.64574600  1
  Cu  Cu1  1  0.00000000  0.99238700  0.29073700  1
  Cu  Cu2  1  0.00000000  0.51887700  0.14574600  1
  Cu  Cu3  1  0.50000000  0.00761300  0.79073700  1
  S  S0  1  0.00000000  0.68128900  0.28835200  1
  S  S1  1  0.50000000  0.81072300  0.71628400  1
  S  S2  1  0.50000000  0.31871100  0.78835200  1
  S  S3  1  0.00000000  0.18927700  0.21628400  1
  S  S4  1  0.50000000  0.65305400  0.07493300  1
  S  S5  1  0.00000000  0.85508000  0.94584600  1
  S  S6  1  0.00000000  0.34694600  0.57493300  1
  S  S7  1  0.50000000  0.14492000  0.44584600  1
  S  S8  1  0.00000000  0.63517500  0.55027300  1
  S  S9  1  0.50000000  0.86514700  0.45982200  1
  S  S10  1  0.50000000  0.36482500  0.05027300  1
  S  S11  1  0.00000000  0.13485300  0.95982200  1
  S  S12  1  0.00000000  0.55606500  0.84655500  1
  S  S13  1  0.50000000  0.94255600  0.16843900  1
  S  S14  1  0.50000000  0.44393500  0.34655500  1
  S  S15  1  0.00000000  0.05744400  0.66843900  1
loop_
_geom_bond_atom_site_label_1
_geom_bond_atom_site_label_2
_geom_bond_distance
_geom_bond_site_symmetry_2
Nb0 S1 2.391705 1_555
Nb0 S12 2.457414 1_655
Nb0 S12 2.457414 1_555
Nb0 S4 2.481372 1_556
Nb0 S5 2.495094 1_555
Nb0 S5 2.495094 1_655
Nb1 S3 2.391705 1_555
Nb1 S14 2.457414 1_455
Nb1 S14 2.457414 1_555
Nb1 S6 2.481372 1_555
Nb1 S7 2.495094 1_455
Nb1 S7 2.495094 1_555
Cr0 S5 2.379566 1_554
Cr0 S0 2.389726 1_555
Cr0 S13 2.413939 1_555
Cr0 S13 2.413939 1_455
Cr0 S4 2.442879 1_455
Cr0 S4 2.442879 1_555
Cr1 S7 2.379566 1_555
Cr1 S2 2.389726 1_555
Cr1 S15 2.413939 1_555
Cr1 S15 2.413939 1_655
Cr1 S6 2.442879 1_655
Cr1 S6 2.442879 1_555
Cr2 S0 2.349605 1_555
Cr2 S0 2.349605 1_655
Cr2 S9 2.358520 1_555
Cr2 S8 2.448927 1_655
Cr2 S8 2.448927 1_555
Cr2 S14 2.523691 1_555
Cr3 S9 2.366581 1_455
Cr3 S9 2.366581 1_555
Cr3 S8 2.387681 1_555
Cr3 S1 2.398484 1_555
Cr3 S1 2.398484 1_455
Cr3 S15 2.546743 1_565
Cr4 S2 2.349605 1_455
Cr4 S2 2.349605 1_555
Cr4 S11 2.358520 1_555
Cr4 S10 2.448927 1_556
Cr4 S10 2.448927 1_456
Cr4 S12 2.523691 1_555
Cr5 S11 2.366581 1_554
Cr5 S11 2.366581 1_654
Cr5 S10 2.387681 1_555
Cr5 S3 2.398484 1_655
Cr5 S3 2.398484 1_555
Cr5 S13 2.546743 1_545
Cu0 S6 2.444725 1_655
Cu0 S6 2.444725 1_555
Cu0 S2 2.539948 1_555
Cu0 S8 2.706986 1_555
Cu0 S8 2.706986 1_655
Cu1 S3 2.372872 1_565
Cu1 S13 2.376152 1_555
Cu1 S13 2.376152 1_455
Cu2 S4 2.444725 1_455
Cu2 S4 2.444725 1_555
Cu2 S0 2.539948 1_555
Cu2 S10 2.706986 1_555
Cu2 S10 2.706986 1_455
Cu3 S1 2.372872 1_545
Cu3 S15 2.376152 1_655
Cu3 S15 2.376152 1_555
