# generated using pymatgen
data_ZnNi9Ge2
_symmetry_space_group_name_H-M   'P 1'
_cell_length_a   10.54394898
_cell_length_b   10.54394898
_cell_length_c   10.54394898
_cell_angle_alpha   160.07526458
_cell_angle_beta   160.07526458
_cell_angle_gamma   28.32357800
_symmetry_Int_Tables_number   1
_chemical_formula_structural   ZnNi9Ge2
_chemical_formula_sum   'Zn1 Ni9 Ge2'
_cell_volume   136.07087787
_cell_formula_units_Z   1
loop_
 _symmetry_equiv_pos_site_id
 _symmetry_equiv_pos_as_xyz
  1  'x, y, z'
loop_
 _atom_site_type_symbol
 _atom_site_label
 _atom_site_symmetry_multiplicity
 _atom_site_fract_x
 _atom_site_fract_y
 _atom_site_fract_z
 _atom_site_occupancy
  Zn  Zn0  1  0.50000000  0.50000000  0.00000000  1
  Ni  Ni0  1  0.58410200  0.08410200  0.50000000  1
  Ni  Ni1  1  0.25000000  0.75000000  0.50000000  1
  Ni  Ni2  1  0.91589800  0.41589800  0.50000000  1
  Ni  Ni3  1  0.08410200  0.58410200  0.50000000  1
  Ni  Ni4  1  0.75000000  0.25000000  0.50000000  1
  Ni  Ni5  1  0.41589800  0.91589800  0.50000000  1
  Ni  Ni6  1  0.00000000  0.00000000  0.00000000  1
  Ni  Ni7  1  0.66583300  0.66583300  0.00000000  1
  Ni  Ni8  1  0.33416700  0.33416700  0.00000000  1
  Ge  Ge0  1  0.16739300  0.16739300  0.00000000  1
  Ge  Ge1  1  0.83260700  0.83260700  0.00000000  1
loop_
_geom_bond_atom_site_label_1
_geom_bond_atom_site_label_2
_geom_bond_distance
_geom_bond_site_symmetry_2
Ni0 Ni7 2.473896 1_545
Ni0 Ni7 2.473896 1_556
Ni0 Ni6 2.506900 1_656
Ni0 Zn0 2.506900 1_545
Ni0 Ni6 2.506900 1_555
Ni0 Zn0 2.506900 1_556
Ni0 Ni3 2.579691 1_645
Ni0 Ni3 2.579691 1_656
Ni0 Ni3 2.579691 1_544
Ni0 Ni3 2.579691 1_555
Ni1 Ni8 2.507811 1_566
Ni1 Ni7 2.507811 1_455
Ni1 Ni8 2.507811 1_555
Ni1 Ni7 2.507811 1_556
Ni1 Ni4 2.579691 1_454
Ni1 Ni4 2.579691 1_465
Ni1 Ni4 2.579691 1_555
Ni1 Ni4 2.579691 1_566
Ni2 Ni8 2.473896 1_656
Ni2 Ni8 2.473896 1_555
Ni2 Zn0 2.506900 1_656
Ni2 Zn0 2.506900 1_555
Ni2 Ni6 2.506900 1_666
Ni2 Ni6 2.506900 1_655
Ni2 Ni5 2.579691 1_645
Ni2 Ni5 2.579691 1_544
Ni2 Ni5 2.579691 1_656
Ni2 Ni5 2.579691 1_555
Ni3 Ni7 2.473896 1_455
Ni3 Ni7 2.473896 1_556
Ni3 Zn0 2.506900 1_455
Ni3 Zn0 2.506900 1_556
Ni3 Ni6 2.506900 1_555
Ni3 Ni6 2.506900 1_566
Ni4 Ni8 2.507811 1_656
Ni4 Ni7 2.507811 1_556
Ni4 Ni7 2.507811 1_545
Ni4 Ni8 2.507811 1_555
Ni5 Ni8 2.473896 1_555
Ni5 Ni8 2.473896 1_566
Ni5 Ni6 2.506900 1_565
Ni5 Zn0 2.506900 1_566
Ni5 Ni6 2.506900 1_666
Ni5 Zn0 2.506900 1_555
Ni6 Zn0 2.579691 1_455
Ni6 Zn0 2.579691 1_556
Ni6 Zn0 2.579691 1_444
Ni6 Zn0 2.579691 1_545
Ge0 Ni1 2.486030 1_555
Ge0 Ni1 2.486030 1_544
Ge0 Ni4 2.486030 1_555
Ge0 Ni4 2.486030 1_454
Ge0 Ni3 2.495554 1_555
Ge0 Ni0 2.495554 1_555
Ge0 Ni0 2.495554 1_454
Ge0 Ni3 2.495554 1_544
Ge0 Ni7 2.579888 1_545
Ge0 Ni7 2.579888 1_556
Ge0 Ni7 2.579888 1_455
Ge0 Ni7 2.579888 1_444
Ge1 Ni4 2.486030 1_565
Ge1 Ni1 2.486030 1_655
Ge1 Ni4 2.486030 1_554
Ge1 Ni1 2.486030 1_554
Ge1 Ni5 2.495554 1_655
Ge1 Ni2 2.495554 1_565
Ge1 Ni2 2.495554 1_554
Ge1 Ni5 2.495554 1_554
Ge1 Ni8 2.579888 1_655
Ge1 Ni8 2.579888 1_565
Ge1 Ni8 2.579888 1_666
Ge1 Ni8 2.579888 1_554
