# generated using pymatgen
data_Ca2CoO3
_symmetry_space_group_name_H-M   'P 1'
_cell_length_a   3.84977932
_cell_length_b   3.84977932
_cell_length_c   10.11259120
_cell_angle_alpha   89.12406897
_cell_angle_beta   89.12406897
_cell_angle_gamma   61.16282449
_symmetry_Int_Tables_number   1
_chemical_formula_structural   Ca2CoO3
_chemical_formula_sum   'Ca2 Co1 O3'
_cell_volume   131.27037651
_cell_formula_units_Z   1
loop_
 _symmetry_equiv_pos_site_id
 _symmetry_equiv_pos_as_xyz
  1  'x, y, z'
loop_
 _atom_site_type_symbol
 _atom_site_label
 _atom_site_symmetry_multiplicity
 _atom_site_fract_x
 _atom_site_fract_y
 _atom_site_fract_z
 _atom_site_occupancy
  Ca  Ca0  1  0.85228000  0.85228000  0.70851500  1
  Ca  Ca1  1  0.14772000  0.14772000  0.29148500  1
  Co  Co0  1  0.50000000  0.50000000  0.50000000  1
  O  O0  1  0.00000000  0.00000000  0.50000000  1
  O  O1  1  0.48864200  0.48864200  0.29056800  1
  O  O2  1  0.51135800  0.51135800  0.70943200  1
loop_
_geom_bond_atom_site_label_1
_geom_bond_atom_site_label_2
_geom_bond_distance
_geom_bond_site_symmetry_2
Ca0 O2 2.224529 1_655
Ca0 O2 2.224529 1_565
Ca0 O2 2.259692 1_555
Ca0 O0 2.309062 1_665
Ca1 O1 2.224529 1_545
Ca1 O1 2.224529 1_455
Ca1 O1 2.259692 1_555
Ca1 O0 2.309062 1_555
Co0 O0 1.958622 1_655
Co0 O0 1.958622 1_565
Co0 O2 2.120574 1_555
Co0 O1 2.120574 1_555
