# generated using pymatgen
data_La2MgZr2O8
_symmetry_space_group_name_H-M   'P 1'
_cell_length_a   5.51951400
_cell_length_b   5.51951400
_cell_length_c   6.72215789
_cell_angle_alpha   65.76084333
_cell_angle_beta   65.76084333
_cell_angle_gamma   90.00000000
_symmetry_Int_Tables_number   1
_chemical_formula_structural   La2MgZr2O8
_chemical_formula_sum   'La2 Mg1 Zr2 O8'
_cell_volume   166.73836473
_cell_formula_units_Z   1
loop_
 _symmetry_equiv_pos_site_id
 _symmetry_equiv_pos_as_xyz
  1  'x, y, z'
loop_
 _atom_site_type_symbol
 _atom_site_label
 _atom_site_symmetry_multiplicity
 _atom_site_fract_x
 _atom_site_fract_y
 _atom_site_fract_z
 _atom_site_occupancy
  La  La0  1  0.00000000  0.00000000  0.00000000  1
  La  La1  1  0.50000000  0.50000000  0.00000000  1
  Mg  Mg0  1  0.50000000  0.00000000  0.00000000  1
  Zr  Zr0  1  0.22153000  0.72153000  0.55693900  1
  Zr  Zr1  1  0.77847000  0.27847000  0.44306100  1
  O  O0  1  0.38691500  0.37600000  0.73708500  1
  O  O1  1  0.61308500  0.11308500  0.26291500  1
  O  O2  1  0.87600000  0.88691500  0.73708500  1
  O  O3  1  0.12400000  0.62400000  0.26291500  1
  O  O4  1  0.61308500  0.62400000  0.26291500  1
  O  O5  1  0.87600000  0.37600000  0.73708500  1
  O  O6  1  0.12400000  0.11308500  0.26291500  1
  O  O7  1  0.38691500  0.88691500  0.73708500  1
loop_
_geom_bond_atom_site_label_1
_geom_bond_atom_site_label_2
_geom_bond_distance
_geom_bond_site_symmetry_2
La0 O2 2.424986 1_444
La0 O3 2.424986 1_545
La0 O5 2.424986 1_454
La0 O7 2.424986 1_544
La0 O4 2.424986 1_445
La0 O6 2.424986 1_555
La0 O0 2.424986 1_554
La0 O1 2.424986 1_455
La1 O2 2.424986 1_554
La1 O6 2.424986 1_555
La1 O3 2.424986 1_555
La1 O0 2.424986 1_554
La1 O5 2.424986 1_554
La1 O7 2.424986 1_554
La1 O4 2.424986 1_555
La1 O1 2.424986 1_555
Mg0 O0 2.390459 1_554
Mg0 O5 2.390459 1_554
Mg0 O4 2.390459 1_545
Mg0 O3 2.390459 1_545
Mg0 O7 2.390459 1_544
Mg0 O1 2.390459 1_555
Mg0 O6 2.390459 1_555
Mg0 O2 2.390459 1_544
O0 Zr0 2.224482 1_555
O0 Zr1 2.496655 1_555
O1 Zr1 2.224486 1_555
O1 Zr0 2.496658 1_545
O2 Zr0 2.224482 1_655
O2 Zr1 2.496655 1_565
O3 Zr1 2.224479 1_455
O3 Zr0 2.496652 1_555
O4 Zr1 2.224482 1_555
O4 Zr0 2.496655 1_555
O5 Zr0 2.224479 1_655
O5 Zr1 2.496652 1_555
O6 Zr1 2.224482 1_455
O6 Zr0 2.496655 1_545
O7 Zr0 2.224486 1_555
O7 Zr1 2.496658 1_565
