# generated using pymatgen
data_LuAlCu
_symmetry_space_group_name_H-M   'P 1'
_cell_length_a   5.25447323
_cell_length_b   5.25447323
_cell_length_c   5.25447323
_cell_angle_alpha   119.37952288
_cell_angle_beta   118.77449667
_cell_angle_gamma   91.60701791
_symmetry_Int_Tables_number   1
_chemical_formula_structural   LuAlCu
_chemical_formula_sum   'Lu2 Al2 Cu2'
_cell_volume   103.96569789
_cell_formula_units_Z   2
loop_
 _symmetry_equiv_pos_site_id
 _symmetry_equiv_pos_as_xyz
  1  'x, y, z'
loop_
 _atom_site_type_symbol
 _atom_site_label
 _atom_site_symmetry_multiplicity
 _atom_site_fract_x
 _atom_site_fract_y
 _atom_site_fract_z
 _atom_site_occupancy
  Lu  Lu0  1  0.12754653  0.87754653  0.25000000  1
  Lu  Lu1  1  0.87245347  0.12245347  0.75000000  1
  Al  Al0  1  -0.00000000  0.50000000  0.50000000  1
  Al  Al1  1  0.50000000  0.50000000  0.00000000  1
  Cu  Cu0  1  0.50000000  -0.00000000  0.00000000  1
  Cu  Cu1  1  0.50000000  0.50000000  0.50000000  1
loop_
_geom_bond_atom_site_label_1
_geom_bond_atom_site_label_2
_geom_bond_distance
_geom_bond_site_symmetry_2
Lu0 Lu1 3.221609 1_464
Lu0 Lu1 3.221609 1_565
Lu0 Lu1 3.244181 1_465
Lu0 Lu1 3.244181 1_454
Al0 Cu0 2.627237 1_566
Al0 Cu1 2.627237 1_555
Al0 Cu0 2.627237 1_455
Al0 Cu1 2.627237 1_455
Al0 Al1 2.675751 1_556
Al0 Al1 2.675751 1_455
Al0 Lu1 3.072485 1_455
Al0 Lu0 3.072485 1_555
Al0 Lu1 3.102730 1_465
Al0 Lu1 3.102730 1_454
Al0 Lu0 3.102730 1_545
Al0 Lu0 3.102730 1_556
Al1 Cu1 2.627237 1_554
Al1 Cu1 2.627237 1_555
Al1 Cu0 2.627237 1_565
Al1 Cu0 2.627237 1_555
Al1 Lu1 3.072485 1_454
Al1 Lu0 3.072485 1_655
Al1 Lu1 3.102730 1_565
Al1 Lu0 3.102730 1_544
Al1 Lu1 3.102730 1_554
Al1 Lu0 3.102730 1_555
Cu0 Cu1 2.651838 1_544
Cu0 Cu1 2.651838 1_555
Cu0 Lu0 3.033695 1_545
Cu0 Lu1 3.033695 1_554
Cu0 Lu0 3.129029 1_544
Cu0 Lu0 3.129029 1_645
Cu0 Lu1 3.129029 1_454
Cu0 Lu1 3.129029 1_555
Cu1 Lu1 3.033695 1_565
Cu1 Lu0 3.033695 1_545
Cu1 Lu0 3.129029 1_656
Cu1 Lu0 3.129029 1_555
Cu1 Lu1 3.129029 1_454
Cu1 Lu1 3.129029 1_555
