# generated using pymatgen
data_BaYMnCuO5
_symmetry_space_group_name_H-M   'P 1'
_cell_length_a   5.51489304
_cell_length_b   5.51491566
_cell_length_c   8.74408517
_cell_angle_alpha   71.68294136
_cell_angle_beta   71.68275051
_cell_angle_gamma   90.24902407
_symmetry_Int_Tables_number   1
_chemical_formula_structural   BaYMnCuO5
_chemical_formula_sum   'Ba2 Y2 Mn2 Cu2 O10'
_cell_volume   238.10283174
_cell_formula_units_Z   2
loop_
 _symmetry_equiv_pos_site_id
 _symmetry_equiv_pos_as_xyz
  1  'x, y, z'
loop_
 _atom_site_type_symbol
 _atom_site_label
 _atom_site_symmetry_multiplicity
 _atom_site_fract_x
 _atom_site_fract_y
 _atom_site_fract_z
 _atom_site_occupancy
  Ba  Ba0  1  0.00512700  0.00514700  0.98967800  1
  Ba  Ba1  1  0.50514400  0.50513000  0.98968100  1
  Y  Y0  1  0.27036000  0.27036500  0.45935700  1
  Y  Y1  1  0.77036400  0.77035100  0.45935700  1
  Mn  Mn0  1  0.15040500  0.65042100  0.69898300  1
  Mn  Mn1  1  0.64996600  0.14997200  0.69981500  1
  Cu  Cu0  1  0.37957200  0.87958300  0.24073000  1
  Cu  Cu1  1  0.87670400  0.37669900  0.24654600  1
  O  O0  1  0.02470700  0.52470900  0.95111800  1
  O  O1  1  0.52382200  0.02381900  0.95296700  1
  O  O2  1  0.42791500  0.92791500  0.64333700  1
  O  O3  1  0.92872000  0.42871600  0.64338500  1
  O  O4  1  0.92979900  0.92838000  0.64160200  1
  O  O5  1  0.42838000  0.42980200  0.64160200  1
  O  O6  1  0.10891900  0.60891500  0.27999400  1
  O  O7  1  0.61097100  0.11096500  0.28001600  1
  O  O8  1  0.10958000  0.11162400  0.27883400  1
  O  O9  1  0.61162700  0.60957900  0.27883400  1
loop_
_geom_bond_atom_site_label_1
_geom_bond_atom_site_label_2
_geom_bond_distance
_geom_bond_site_symmetry_2
Ba0 O1 2.770625 1_455
Ba0 O0 2.772493 1_545
Ba0 O1 2.774143 1_555
Ba0 O0 2.775373 1_555
Ba0 O9 2.984012 1_446
Ba0 O8 2.985839 1_556
Ba0 O7 2.997400 1_456
Ba0 O6 2.997403 1_546
Ba0 O3 3.341814 1_455
Ba0 O2 3.342211 1_545
Ba0 O5 3.347147 1_555
Ba0 O4 3.349401 1_445
Ba1 O1 2.770678 1_555
Ba1 O0 2.772489 1_555
Ba1 O1 2.774117 1_565
Ba1 O0 2.775360 1_655
Ba1 O8 2.984006 1_556
Ba1 O9 2.985818 1_556
Ba1 O6 2.997339 1_556
Ba1 O7 2.997438 1_556
Ba1 O3 3.341854 1_555
Ba1 O2 3.342227 1_555
Ba1 O4 3.347152 1_555
Ba1 O5 3.349420 1_555
Mn0 O0 1.973907 1_555
Mn0 O3 1.990022 1_455
Mn0 O2 1.991110 1_555
Mn0 O4 1.999554 1_455
Mn0 O5 1.999661 1_555
Mn1 O1 1.981870 1_555
Mn1 O2 1.997607 1_545
Mn1 O3 1.998948 1_555
Mn1 O5 2.011878 1_555
Mn1 O4 2.011909 1_545
Cu0 O6 1.977468 1_555
Cu0 O7 1.977819 1_565
Cu0 O8 1.984538 1_565
Cu0 O9 1.984641 1_555
Cu0 O1 2.252827 1_564
Cu1 O6 1.955057 1_655
Cu1 O7 1.955291 1_555
Cu1 O8 1.962387 1_655
Cu1 O9 1.962409 1_555
Cu1 O0 2.312834 1_654
O2 Y0 2.427542 1_565
O2 Y1 2.427559 1_555
O3 Y0 2.427714 1_655
O3 Y1 2.427722 1_555
O4 Y1 2.412281 1_555
O4 Y0 2.413058 1_665
O5 Y0 2.412259 1_555
O5 Y1 2.413017 1_555
O6 Y1 2.406236 1_455
O6 Y0 2.406244 1_555
O7 Y1 2.406185 1_545
O7 Y0 2.406190 1_555
O8 Y1 2.404069 1_445
O8 Y0 2.405389 1_555
O9 Y0 2.404044 1_555
O9 Y1 2.405351 1_555
