# generated using pymatgen
data_U8TiS17
_symmetry_space_group_name_H-M   'P 1'
_cell_length_a   7.90127795
_cell_length_b   7.90127795
_cell_length_c   10.45541164
_cell_angle_alpha   80.90226555
_cell_angle_beta   80.90226555
_cell_angle_gamma   65.22365576
_symmetry_Int_Tables_number   1
_chemical_formula_structural   U8TiS17
_chemical_formula_sum   'U8 Ti1 S17'
_cell_volume   582.11456864
_cell_formula_units_Z   1
loop_
 _symmetry_equiv_pos_site_id
 _symmetry_equiv_pos_as_xyz
  1  'x, y, z'
loop_
 _atom_site_type_symbol
 _atom_site_label
 _atom_site_symmetry_multiplicity
 _atom_site_fract_x
 _atom_site_fract_y
 _atom_site_fract_z
 _atom_site_occupancy
  U  U0  1  0.81561191  0.29988259  0.29802056  1
  U  U1  1  0.29988259  0.81561191  0.29802056  1
  U  U2  1  0.18438809  0.70011741  0.70197944  1
  U  U3  1  0.70011741  0.18438809  0.70197944  1
  U  U4  1  0.20638841  0.20638841  0.54136631  1
  U  U5  1  0.79361159  0.79361159  0.45863369  1
  U  U6  1  0.67981760  0.67981760  0.98167803  1
  U  U7  1  0.32018240  0.32018240  0.01832197  1
  Ti  Ti0  1  0.00000000  -0.00000000  0.00000000  1
  S  S0  1  0.82423096  0.43082973  0.53310927  1
  S  S1  1  0.43082973  0.82423096  0.53310927  1
  S  S2  1  0.17576904  0.56917027  0.46689073  1
  S  S3  1  0.56917027  0.17576904  0.46689073  1
  S  S4  1  0.94061106  0.32308029  0.02742155  1
  S  S5  1  0.32308029  0.94061106  0.02742155  1
  S  S6  1  0.05938894  0.67691971  0.97257845  1
  S  S7  1  0.67691971  0.05938894  0.97257845  1
  S  S8  1  0.20962246  0.20962246  0.27676601  1
  S  S9  1  0.79037754  0.79037754  0.72323399  1
  S  S10  1  0.05938190  0.05938190  0.77265279  1
  S  S11  1  0.94061810  0.94061810  0.22734721  1
  S  S12  1  0.30315081  0.30315081  0.75470066  1
  S  S13  1  0.69684919  0.69684919  0.24529934  1
  S  S14  1  0.52001031  0.52001031  0.83167835  1
  S  S15  1  0.47998969  0.47998969  0.16832165  1
  S  S16  1  0.00000000  -0.00000000  0.50000000  1
loop_
_geom_bond_atom_site_label_1
_geom_bond_atom_site_label_2
_geom_bond_distance
_geom_bond_site_symmetry_2
S0 U5 2.766554 1_555
S0 U4 2.795673 1_655
S0 U3 2.799351 1_555
S0 U0 2.834233 1_555
S1 U5 2.766554 1_555
S1 U4 2.795673 1_565
S1 U2 2.799351 1_555
S1 U1 2.834233 1_555
S2 U4 2.766554 1_555
S2 U5 2.795673 1_455
S2 U1 2.799351 1_555
S2 U2 2.834233 1_555
S3 U4 2.766554 1_555
S3 U5 2.795673 1_545
S3 U0 2.799351 1_555
S3 U3 2.834233 1_555
S4 Ti0 2.450268 1_655
S4 U6 2.727081 1_554
S4 U0 2.849147 1_555
S4 U7 2.976083 1_655
S5 Ti0 2.450268 1_565
S5 U6 2.727081 1_554
S5 U1 2.849147 1_555
S5 U7 2.976083 1_565
S6 Ti0 2.450268 1_566
S6 U7 2.727081 1_556
S6 U2 2.849147 1_555
S6 U6 2.976083 1_455
S7 Ti0 2.450268 1_656
S7 U7 2.727081 1_556
S7 U3 2.849147 1_555
S7 U6 2.976083 1_545
S8 U4 2.758748 1_555
S8 U7 2.823905 1_555
S8 U1 2.867118 1_545
S8 U0 2.867118 1_455
S9 U5 2.758748 1_555
S9 U6 2.823905 1_555
S9 U3 2.867118 1_565
S9 U2 2.867118 1_655
S10 Ti0 2.359996 1_556
S10 U3 2.768037 1_455
S10 U2 2.768037 1_545
S10 U4 2.810750 1_555
S11 Ti0 2.359996 1_665
S11 U0 2.768037 1_565
S11 U1 2.768037 1_655
S11 U5 2.810750 1_555
S12 U4 2.777173 1_555
S12 U7 2.807670 1_556
S12 U3 2.858709 1_555
S12 U2 2.858709 1_555
S13 U5 2.777173 1_555
S13 U6 2.807670 1_554
S13 U1 2.858709 1_555
S13 U0 2.858709 1_555
S14 U6 2.870039 1_555
S14 U3 2.874064 1_555
S14 U2 2.874064 1_555
S14 U7 2.989087 1_556
S15 U7 2.870039 1_555
S15 U0 2.874064 1_555
S15 U1 2.874064 1_555
S15 U6 2.989087 1_554
S16 U5 2.860176 1_445
S16 U4 2.860176 1_555
S16 U2 2.948508 1_545
S16 U3 2.948508 1_455
S16 U0 2.948508 1_455
S16 U1 2.948508 1_545
