# generated using pymatgen
data_ZrTa(SiRu)2
_symmetry_space_group_name_H-M   'P 1'
_cell_length_a   3.77113200
_cell_length_b   6.56465600
_cell_length_c   11.26933857
_cell_angle_alpha   89.71382340
_cell_angle_beta   90.00000000
_cell_angle_gamma   90.00000000
_symmetry_Int_Tables_number   1
_chemical_formula_structural   ZrTa(SiRu)2
_chemical_formula_sum   'Zr3 Ta3 Si6 Ru6'
_cell_volume   278.98234272
_cell_formula_units_Z   3
loop_
 _symmetry_equiv_pos_site_id
 _symmetry_equiv_pos_as_xyz
  1  'x, y, z'
loop_
 _atom_site_type_symbol
 _atom_site_label
 _atom_site_symmetry_multiplicity
 _atom_site_fract_x
 _atom_site_fract_y
 _atom_site_fract_z
 _atom_site_occupancy
  Zr  Zr0  1  0.50000000  0.28808500  0.29001200  1
  Zr  Zr1  1  0.50000000  0.28881400  0.71025500  1
  Zr  Zr2  1  0.50000000  0.78906600  0.20914300  1
  Ta  Ta0  1  0.50000000  0.42312600  0.99886000  1
  Ta  Ta1  1  0.50000000  0.92061700  0.50226400  1
  Ta  Ta2  1  0.50000000  0.78893200  0.79118900  1
  Si  Si0  1  0.50000000  0.00563700  0.99589700  1
  Si  Si1  1  0.50000000  0.50733300  0.50009500  1
  Si  Si2  1  0.00000000  0.99270600  0.66743900  1
  Si  Si3  1  0.00000000  0.49816500  0.16220000  1
  Si  Si4  1  0.00000000  0.50284900  0.83514200  1
  Si  Si5  1  0.00000000  0.99677600  0.33766200  1
  Ru  Ru0  1  0.00000000  0.25154500  0.50242800  1
  Ru  Ru1  1  0.00000000  0.75364000  0.99684300  1
  Ru  Ru2  1  0.00000000  0.62490300  0.62430900  1
  Ru  Ru3  1  0.00000000  0.12295900  0.12098000  1
  Ru  Ru4  1  0.00000000  0.12237300  0.87641800  1
  Ru  Ru5  1  0.00000000  0.62267200  0.37886400  1
loop_
_geom_bond_atom_site_label_1
_geom_bond_atom_site_label_2
_geom_bond_distance
_geom_bond_site_symmetry_2
Si0 Ta2 2.716331 1_545
Si0 Ta0 2.741042 1_555
Si0 Zr2 2.786078 1_546
Si1 Ta1 2.713299 1_555
Si1 Zr1 2.762790 1_555
Si1 Zr0 2.776802 1_555
Si2 Ta1 2.693134 1_555
Si2 Ta1 2.693134 1_455
Si2 Ta2 2.696486 1_455
Si2 Ta2 2.696486 1_555
Si2 Zr1 2.752469 1_465
Si2 Zr1 2.752469 1_565
Si3 Ta0 2.682420 1_454
Si3 Ta0 2.682420 1_554
Si3 Zr2 2.737176 1_555
Si3 Zr2 2.737176 1_455
Si3 Zr0 2.740815 1_455
Si3 Zr0 2.740815 1_555
Si4 Ta0 2.687678 1_555
Si4 Ta0 2.687678 1_455
Si4 Ta2 2.705260 1_455
Si4 Ta2 2.705260 1_555
Si4 Zr1 2.744099 1_555
Si4 Zr1 2.744099 1_455
Si5 Ta1 2.690151 1_455
Si5 Ta1 2.690151 1_555
Si5 Zr0 2.736880 1_465
Si5 Zr0 2.736880 1_565
Si5 Zr2 2.744446 1_455
Si5 Zr2 2.744446 1_555
Ru0 Si5 2.505175 1_545
Ru0 Si2 2.512700 1_545
Ru0 Si1 2.524914 1_555
Ru0 Si1 2.524914 1_455
Ru0 Ru5 2.800140 1_555
Ru0 Ru2 2.815567 1_555
Ru0 Ta1 2.876604 1_445
Ru0 Ta1 2.876604 1_545
Ru0 Zr1 3.017656 1_455
Ru0 Zr1 3.017656 1_555
Ru0 Zr0 3.055713 1_455
Ru0 Zr0 3.055713 1_555
Ru1 Si4 2.461931 1_555
Ru1 Si3 2.500792 1_556
Ru1 Si0 2.508370 1_465
Ru1 Si0 2.508370 1_565
Ru1 Ru4 2.769163 1_565
Ru1 Ru3 2.805154 1_566
Ru1 Ta0 2.874548 1_455
Ru1 Ta0 2.874548 1_555
Ru1 Ta2 2.995809 1_455
Ru1 Ta2 2.995809 1_555
Ru1 Zr2 3.055972 1_456
Ru1 Zr2 3.055972 1_556
Ru2 Si2 2.465314 1_555
Ru2 Si1 2.474127 1_555
Ru2 Si1 2.474127 1_455
Ru2 Si4 2.503618 1_555
Ru2 Ru5 2.766115 1_555
Ru2 Ta2 2.876079 1_555
Ru2 Ta2 2.876079 1_455
Ru2 Ta1 3.031306 1_455
Ru2 Ta1 3.031306 1_555
Ru2 Zr1 3.056126 1_555
Ru2 Zr1 3.056126 1_455
Ru3 Si0 2.479185 1_454
Ru3 Si0 2.479185 1_554
Ru3 Si3 2.508797 1_555
Ru3 Si5 2.574616 1_545
Ru3 Ru4 2.756074 1_554
Ru3 Zr0 2.894753 1_455
Ru3 Zr0 2.894753 1_555
Ru3 Ta0 3.050421 1_554
Ru3 Ta0 3.050421 1_454
Ru3 Zr2 3.053706 1_445
Ru3 Zr2 3.053706 1_545
Ru4 Si0 2.438287 1_555
Ru4 Si0 2.438287 1_455
Ru4 Si2 2.508164 1_545
Ru4 Si4 2.538353 1_555
Ru4 Zr1 2.869702 1_555
Ru4 Zr1 2.869702 1_455
Ru4 Ta2 3.047994 1_445
Ru4 Ta2 3.047994 1_545
Ru4 Ta0 3.063421 1_455
Ru4 Ta0 3.063421 1_555
Ru5 Si1 2.446386 1_555
Ru5 Si1 2.446386 1_455
Ru5 Si5 2.497092 1_555
Ru5 Si3 2.578700 1_555
Ru5 Zr2 2.895834 1_555
Ru5 Zr2 2.895834 1_455
Ru5 Ta1 3.056464 1_455
Ru5 Ta1 3.056464 1_555
Ru5 Zr0 3.066647 1_455
Ru5 Zr0 3.066647 1_555
