# generated using pymatgen
data_Zn(InSe2)2
_symmetry_space_group_name_H-M   'P 1'
_cell_length_a   8.00330325
_cell_length_b   8.00330325
_cell_length_c   8.00330325
_cell_angle_alpha   60.00000000
_cell_angle_beta   60.00000000
_cell_angle_gamma   60.00000000
_symmetry_Int_Tables_number   1
_chemical_formula_structural   Zn(InSe2)2
_chemical_formula_sum   'Zn2 In4 Se8'
_cell_volume   362.48732126
_cell_formula_units_Z   2
loop_
 _symmetry_equiv_pos_site_id
 _symmetry_equiv_pos_as_xyz
  1  'x, y, z'
loop_
 _atom_site_type_symbol
 _atom_site_label
 _atom_site_symmetry_multiplicity
 _atom_site_fract_x
 _atom_site_fract_y
 _atom_site_fract_z
 _atom_site_occupancy
  Zn  Zn0  1  0.25000000  0.25000000  0.25000000  1
  Zn  Zn1  1  0.00000000  0.00000000  0.00000000  1
  In  In0  1  0.12500000  0.62500000  0.62500000  1
  In  In1  1  0.62500000  0.12500000  0.62500000  1
  In  In2  1  0.62500000  0.62500000  0.12500000  1
  In  In3  1  0.62500000  0.62500000  0.62500000  1
  Se  Se0  1  0.86123400  0.37958900  0.37958900  1
  Se  Se1  1  0.37958900  0.86123400  0.37958900  1
  Se  Se2  1  0.37958900  0.37958900  0.86123400  1
  Se  Se3  1  0.37958900  0.37958900  0.37958900  1
  Se  Se4  1  0.38876600  0.87041100  0.87041100  1
  Se  Se5  1  0.87041100  0.38876600  0.87041100  1
  Se  Se6  1  0.87041100  0.87041100  0.38876600  1
  Se  Se7  1  0.87041100  0.87041100  0.87041100  1
loop_
_geom_bond_atom_site_label_1
_geom_bond_atom_site_label_2
_geom_bond_distance
_geom_bond_site_symmetry_2
In0 Se7 2.778626 1_455
In0 Se3 2.778626 1_555
In0 Se1 2.778632 1_555
In0 Se2 2.778632 1_555
In0 Se6 2.778632 1_455
In0 Se5 2.778632 1_455
In1 Se7 2.778626 1_545
In1 Se3 2.778626 1_555
In1 Se0 2.778632 1_555
In1 Se2 2.778632 1_555
In1 Se4 2.778632 1_545
In1 Se6 2.778632 1_545
In2 Se7 2.778626 1_554
In2 Se3 2.778626 1_555
In2 Se0 2.778632 1_555
In2 Se1 2.778632 1_555
In2 Se5 2.778632 1_554
In2 Se4 2.778632 1_554
In3 Se4 2.778626 1_555
In3 Se6 2.778626 1_555
In3 Se5 2.778626 1_555
In3 Se1 2.778626 1_555
In3 Se2 2.778626 1_555
In3 Se0 2.778626 1_555
Se0 Zn0 2.540457 1_655
Se1 Zn0 2.540457 1_565
Se2 Zn0 2.540457 1_556
Se3 Zn0 2.540464 1_555
Se4 Zn1 2.540457 1_566
Se5 Zn1 2.540457 1_656
Se6 Zn1 2.540457 1_665
Se7 Zn1 2.540464 1_666
