# generated using pymatgen
data_NbCl2O
_symmetry_space_group_name_H-M   'P 1'
_cell_length_a   3.91678724
_cell_length_b   7.04157653
_cell_length_c   6.74211724
_cell_angle_alpha   104.42154985
_cell_angle_beta   90.00000000
_cell_angle_gamma   106.14795072
_symmetry_Int_Tables_number   1
_chemical_formula_structural   NbCl2O
_chemical_formula_sum   'Nb2 Cl4 O2'
_cell_volume   172.50529084
_cell_formula_units_Z   2
loop_
 _symmetry_equiv_pos_site_id
 _symmetry_equiv_pos_as_xyz
  1  'x, y, z'
loop_
 _atom_site_type_symbol
 _atom_site_label
 _atom_site_symmetry_multiplicity
 _atom_site_fract_x
 _atom_site_fract_y
 _atom_site_fract_z
 _atom_site_occupancy
  Nb  Nb0  1  0.96327464  0.99983943  0.71871118  1
  Nb  Nb1  1  0.96343620  0.00016057  0.28128882  1
  Cl  Cl0  1  0.87628227  0.74202810  0.93337063  1
  Cl  Cl1  1  0.13425517  0.25797190  0.06662937  1
  Cl  Cl2  1  0.85052854  0.70046574  0.42151906  1
  Cl  Cl3  1  0.15006381  0.29953426  0.57848094  1
  O  O0  1  0.49460073  0.99903908  0.72693160  1
  O  O1  1  0.49555965  0.00096092  0.27306840  1
loop_
_geom_bond_atom_site_label_1
_geom_bond_atom_site_label_2
_geom_bond_distance
_geom_bond_site_symmetry_2
Nb0 O0 1.835016 1_555
Nb0 O0 2.083440 1_655
Nb1 O1 1.835028 1_555
Nb1 O1 2.083429 1_655
Cl0 Nb1 2.540439 1_566
Cl0 Nb0 2.543809 1_555
Cl1 Nb0 2.540440 1_444
Cl1 Nb1 2.543809 1_455
Cl2 Nb1 2.453085 1_565
Cl2 Nb0 2.456009 1_555
Cl3 Nb0 2.453086 1_445
Cl3 Nb1 2.456009 1_455
