# generated using pymatgen
data_BaU(SeO4)2
_symmetry_space_group_name_H-M   'P 1'
_cell_length_a   9.50962500
_cell_length_b   7.87683900
_cell_length_c   13.62872973
_cell_angle_alpha   68.06798330
_cell_angle_beta   90.00000000
_cell_angle_gamma   90.00000000
_symmetry_Int_Tables_number   1
_chemical_formula_structural   BaU(SeO4)2
_chemical_formula_sum   'Ba4 U4 Se8 O32'
_cell_volume   946.98792346
_cell_formula_units_Z   4
loop_
 _symmetry_equiv_pos_site_id
 _symmetry_equiv_pos_as_xyz
  1  'x, y, z'
loop_
 _atom_site_type_symbol
 _atom_site_label
 _atom_site_symmetry_multiplicity
 _atom_site_fract_x
 _atom_site_fract_y
 _atom_site_fract_z
 _atom_site_occupancy
  Ba  Ba0  1  0.60187600  0.33474300  0.69290500  1
  Ba  Ba1  1  0.10187600  0.66525700  0.80709500  1
  Ba  Ba2  1  0.39812400  0.66525700  0.30709500  1
  Ba  Ba3  1  0.89812400  0.33474300  0.19290500  1
  U  U0  1  0.59640400  0.76506400  0.78802300  1
  U  U1  1  0.09640400  0.23493600  0.71197700  1
  U  U2  1  0.40359600  0.23493600  0.21197700  1
  U  U3  1  0.90359600  0.76506400  0.28802300  1
  Se  Se0  1  0.55079100  0.72256900  0.03718400  1
  Se  Se1  1  0.05079100  0.27743100  0.46281600  1
  Se  Se2  1  0.44920900  0.27743100  0.96281600  1
  Se  Se3  1  0.94920900  0.72256900  0.53718400  1
  Se  Se4  1  0.33821500  0.02073400  0.61661900  1
  Se  Se5  1  0.83821500  0.97926600  0.88338100  1
  Se  Se6  1  0.66178500  0.97926600  0.38338100  1
  Se  Se7  1  0.16178500  0.02073400  0.11661900  1
  O  O0  1  0.45003800  0.74795900  0.92498100  1
  O  O1  1  0.95003800  0.25204100  0.57501900  1
  O  O2  1  0.54996200  0.25204100  0.07501900  1
  O  O3  1  0.04996200  0.74795900  0.42498100  1
  O  O4  1  0.04343400  0.55232600  0.01663100  1
  O  O5  1  0.54343400  0.44767400  0.48336900  1
  O  O6  1  0.95656600  0.44767400  0.98336900  1
  O  O7  1  0.45656600  0.55232600  0.51663100  1
  O  O8  1  0.46518700  0.53588700  0.13651200  1
  O  O9  1  0.96518700  0.46411300  0.36348800  1
  O  O10  1  0.53481300  0.46411300  0.86348800  1
  O  O11  1  0.03481300  0.53588700  0.63651200  1
  O  O12  1  0.60397000  0.00607100  0.68216900  1
  O  O13  1  0.10397000  0.99392900  0.81783100  1
  O  O14  1  0.39603000  0.99392900  0.31783100  1
  O  O15  1  0.89603000  0.00607100  0.18216900  1
  O  O16  1  0.15711200  0.00369600  0.61280500  1
  O  O17  1  0.65711200  0.99630400  0.88719500  1
  O  O18  1  0.84288800  0.99630400  0.38719500  1
  O  O19  1  0.34288800  0.00369600  0.11280500  1
  O  O20  1  0.68047100  0.66582500  0.69400100  1
  O  O21  1  0.18047100  0.33417500  0.80599900  1
  O  O22  1  0.31952900  0.33417500  0.30599900  1
  O  O23  1  0.81952900  0.66582500  0.19400100  1
  O  O24  1  0.37062200  0.80571700  0.71812200  1
  O  O25  1  0.87062200  0.19428300  0.78187800  1
  O  O26  1  0.62937800  0.19428300  0.28187800  1
  O  O27  1  0.12937800  0.80571700  0.21812200  1
  O  O28  1  0.83811900  0.81503400  0.82533300  1
  O  O29  1  0.33811900  0.18496600  0.67466700  1
  O  O30  1  0.16188100  0.18496600  0.17466700  1
  O  O31  1  0.66188100  0.81503400  0.32533300  1
loop_
_geom_bond_atom_site_label_1
_geom_bond_atom_site_label_2
_geom_bond_distance
_geom_bond_site_symmetry_2
Ba0 O12 2.647104 1_555
Ba0 O5 2.712493 1_555
Ba0 O20 2.718268 1_555
Ba0 O7 2.746376 1_555
Ba0 O29 2.822041 1_555
Ba0 O25 2.867706 1_555
Ba0 O10 2.935930 1_555
Ba0 O17 3.020095 1_545
Ba1 O13 2.647104 1_555
Ba1 O4 2.712493 1_556
Ba1 O21 2.718268 1_555
Ba1 O6 2.746376 1_455
Ba1 O28 2.822041 1_455
Ba1 O24 2.867706 1_555
Ba1 O11 2.935930 1_555
Ba1 O16 3.020095 1_565
Ba2 O14 2.647104 1_555
Ba2 O7 2.712493 1_555
Ba2 O22 2.718268 1_555
Ba2 O5 2.746376 1_555
Ba2 O31 2.822041 1_555
Ba2 O27 2.867706 1_555
Ba2 O8 2.935930 1_555
Ba2 O19 3.020095 1_565
Ba3 O15 2.647104 1_555
Ba3 O6 2.712493 1_554
Ba3 O23 2.718268 1_555
Ba3 O4 2.746376 1_655
Ba3 O30 2.822041 1_655
Ba3 O26 2.867706 1_555
Ba3 O9 2.935930 1_555
Ba3 O18 3.020095 1_545
O0 Se0 1.751555 1_556
O0 U0 2.291657 1_555
O1 Se1 1.751555 1_655
O1 U1 2.291657 1_655
O2 Se2 1.751555 1_554
O2 U2 2.291657 1_555
O3 Se3 1.751555 1_455
O3 U3 2.291657 1_455
O4 O6 1.358886 1_454
O5 O7 1.358886 1_555
O8 Se0 1.780593 1_555
O8 U2 2.280141 1_555
O9 Se1 1.780593 1_655
O9 U3 2.280141 1_555
O10 Se2 1.780593 1_555
O10 U0 2.280141 1_555
O11 Se3 1.780593 1_455
O11 U1 2.280141 1_555
O12 U0 1.909034 1_545
O13 U1 1.909034 1_565
O14 U2 1.909034 1_565
O15 U3 1.909034 1_545
O16 Se4 1.729732 1_555
O16 U1 2.704948 1_555
O17 Se5 1.729732 1_555
O17 U0 2.704948 1_555
O18 Se6 1.729732 1_555
O18 U3 2.704948 1_555
O19 Se7 1.729732 1_555
O19 U2 2.704948 1_555
O20 U0 1.907980 1_555
O21 U1 1.907980 1_555
O22 U2 1.907980 1_555
O23 U3 1.907980 1_555
O24 Se4 1.768310 1_565
O24 U0 2.322126 1_555
O25 Se5 1.768310 1_545
O25 U1 2.322126 1_655
O26 Se6 1.768310 1_545
O26 U2 2.322126 1_555
O27 Se7 1.768310 1_565
O27 U3 2.322126 1_455
O28 Se5 1.750387 1_555
O28 U0 2.417984 1_555
O29 Se4 1.750387 1_555
O29 U1 2.417984 1_555
O30 Se7 1.750387 1_555
O30 U2 2.417984 1_555
O31 Se6 1.750387 1_555
O31 U3 2.417984 1_555
