# generated using pymatgen
data_CdAg2Sn3S8
_symmetry_space_group_name_H-M   'P 1'
_cell_length_a   7.76363741
_cell_length_b   7.76363741
_cell_length_c   7.76363703
_cell_angle_alpha   59.35563462
_cell_angle_beta   59.35563462
_cell_angle_gamma   59.35563032
_symmetry_Int_Tables_number   1
_chemical_formula_structural   CdAg2Sn3S8
_chemical_formula_sum   'Cd1 Ag2 Sn3 S8'
_cell_volume   326.03450504
_cell_formula_units_Z   1
loop_
 _symmetry_equiv_pos_site_id
 _symmetry_equiv_pos_as_xyz
  1  'x, y, z'
loop_
 _atom_site_type_symbol
 _atom_site_label
 _atom_site_symmetry_multiplicity
 _atom_site_fract_x
 _atom_site_fract_y
 _atom_site_fract_z
 _atom_site_occupancy
  Cd  Cd0  1  0.50000000  0.50000000  0.50000000  1
  Ag  Ag0  1  0.11947700  0.11947700  0.11947700  1
  Ag  Ag1  1  0.88052300  0.88052300  0.88052300  1
  Sn  Sn0  1  0.00000000  0.50000000  0.50000000  1
  Sn  Sn1  1  0.50000000  0.50000000  0.00000000  1
  Sn  Sn2  1  0.50000000  0.00000000  0.50000000  1
  S  S0  1  0.25569800  0.25569800  0.25569800  1
  S  S1  1  0.71873400  0.25419400  0.25419400  1
  S  S2  1  0.25419400  0.25419400  0.71873400  1
  S  S3  1  0.25419400  0.71873400  0.25419400  1
  S  S4  1  0.74430200  0.74430200  0.74430200  1
  S  S5  1  0.28126600  0.74580600  0.74580600  1
  S  S6  1  0.74580600  0.74580600  0.28126600  1
  S  S7  1  0.74580600  0.28126600  0.74580600  1
loop_
_geom_bond_atom_site_label_1
_geom_bond_atom_site_label_2
_geom_bond_distance
_geom_bond_site_symmetry_2
Cd0 S7 2.696781 1_555
Cd0 S5 2.696781 1_555
Cd0 S1 2.696781 1_555
Cd0 S3 2.696781 1_555
Cd0 S6 2.696782 1_555
Cd0 S2 2.696782 1_555
Ag0 S2 2.519574 1_554
Ag0 S1 2.519574 1_455
Ag0 S3 2.519574 1_545
Ag0 S0 2.603052 1_555
Ag1 S6 2.519574 1_556
Ag1 S7 2.519574 1_565
Ag1 S5 2.519574 1_655
Ag1 S4 2.603052 1_555
S0 Sn0 2.669494 1_555
S0 Sn2 2.669494 1_555
S0 Sn1 2.669494 1_555
S1 Sn1 2.587220 1_555
S1 Sn2 2.587221 1_555
S2 Sn0 2.587220 1_555
S2 Sn2 2.587220 1_555
S3 Sn1 2.587220 1_555
S3 Sn0 2.587221 1_555
S4 Sn2 2.669494 1_565
S4 Sn0 2.669494 1_655
S4 Sn1 2.669494 1_556
S5 Sn1 2.587220 1_556
S5 Sn2 2.587221 1_565
S6 Sn2 2.587220 1_565
S6 Sn0 2.587220 1_655
S7 Sn1 2.587220 1_556
S7 Sn0 2.587221 1_655
