# generated using pymatgen
data_K2PtI5
_symmetry_space_group_name_H-M   'P 1'
_cell_length_a   7.90662353
_cell_length_b   7.90662353
_cell_length_c   11.52497800
_cell_angle_alpha   90.00000000
_cell_angle_beta   90.00000000
_cell_angle_gamma   108.73990546
_symmetry_Int_Tables_number   1
_chemical_formula_structural   K2PtI5
_chemical_formula_sum   'K4 Pt2 I10'
_cell_volume   682.28547772
_cell_formula_units_Z   2
loop_
 _symmetry_equiv_pos_site_id
 _symmetry_equiv_pos_as_xyz
  1  'x, y, z'
loop_
 _atom_site_type_symbol
 _atom_site_label
 _atom_site_symmetry_multiplicity
 _atom_site_fract_x
 _atom_site_fract_y
 _atom_site_fract_z
 _atom_site_occupancy
  K  K0  1  0.53580200  0.92266200  0.25000000  1
  K  K1  1  0.07733800  0.46419800  0.75000000  1
  K  K2  1  0.46419800  0.07733800  0.75000000  1
  K  K3  1  0.92266200  0.53580200  0.25000000  1
  Pt  Pt0  1  0.00000000  0.00000000  0.50000000  1
  Pt  Pt1  1  0.00000000  0.00000000  0.00000000  1
  I  I0  1  0.29244500  0.29244500  0.52141000  1
  I  I1  1  0.70755500  0.70755500  0.47859000  1
  I  I2  1  0.29244500  0.29244500  0.97859000  1
  I  I3  1  0.70755500  0.70755500  0.02141000  1
  I  I4  1  0.20912400  0.79087600  0.50000000  1
  I  I5  1  0.20912400  0.79087600  0.00000000  1
  I  I6  1  0.79087600  0.20912400  0.50000000  1
  I  I7  1  0.79087600  0.20912400  0.00000000  1
  I  I8  1  0.03415500  0.03415500  0.25000000  1
  I  I9  1  0.96584500  0.96584500  0.75000000  1
loop_
_geom_bond_atom_site_label_1
_geom_bond_atom_site_label_2
_geom_bond_distance
_geom_bond_site_symmetry_2
I0 Pt0 2.705279 1_555
I0 K1 3.627857 1_555
I0 K2 3.627857 1_555
I1 Pt0 2.705279 1_665
I1 K0 3.627857 1_555
I1 K3 3.627857 1_555
I2 Pt1 2.705279 1_556
I2 K1 3.627857 1_555
I2 K2 3.627857 1_555
I3 Pt1 2.705279 1_665
I3 K0 3.627857 1_555
I3 K3 3.627857 1_555
I4 Pt0 2.687857 1_565
I4 K1 3.785427 1_555
I4 K0 3.785427 1_555
I4 K3 3.816262 1_455
I4 K2 3.816262 1_565
I5 Pt1 2.687857 1_565
I5 K1 3.785427 1_554
I5 K0 3.785427 1_555
I5 K3 3.816262 1_455
I5 K2 3.816262 1_564
I6 Pt0 2.687857 1_655
I6 K2 3.785427 1_555
I6 K3 3.785427 1_555
I6 K0 3.816262 1_545
I6 K1 3.816262 1_655
I7 Pt1 2.687857 1_655
I7 K2 3.785427 1_554
I7 K3 3.785427 1_555
I7 K0 3.816262 1_545
I7 K1 3.816262 1_654
I8 Pt1 2.898373 1_555
I8 Pt0 2.898373 1_555
I8 K3 3.751147 1_445
I8 K0 3.751147 1_445
I9 Pt1 2.898373 1_666
I9 Pt0 2.898373 1_665
I9 K2 3.751147 1_665
I9 K1 3.751147 1_665
