# generated using pymatgen
data_HoZn12
_symmetry_space_group_name_H-M   'P 1'
_cell_length_a   5.06074815
_cell_length_b   6.71236332
_cell_length_c   6.71236332
_cell_angle_alpha   81.83015411
_cell_angle_beta   67.85374335
_cell_angle_gamma   67.85374335
_symmetry_Int_Tables_number   1
_chemical_formula_structural   HoZn12
_chemical_formula_sum   'Ho1 Zn12'
_cell_volume   195.61324209
_cell_formula_units_Z   1
loop_
 _symmetry_equiv_pos_site_id
 _symmetry_equiv_pos_as_xyz
  1  'x, y, z'
loop_
 _atom_site_type_symbol
 _atom_site_label
 _atom_site_symmetry_multiplicity
 _atom_site_fract_x
 _atom_site_fract_y
 _atom_site_fract_z
 _atom_site_occupancy
  Ho  Ho0  1  -0.00000000  0.00000000  -0.00000000  1
  Zn  Zn0  1  -0.00000000  0.00000000  0.50000000  1
  Zn  Zn1  1  0.50000000  0.00000000  0.50000000  1
  Zn  Zn2  1  0.50000000  0.50000000  -0.00000000  1
  Zn  Zn3  1  -0.00000000  0.50000000  -0.00000000  1
  Zn  Zn4  1  -0.00000000  0.35400625  0.64599375  1
  Zn  Zn5  1  0.00000000  0.64599375  0.35400625  1
  Zn  Zn6  1  0.64599375  0.35400625  0.35400625  1
  Zn  Zn7  1  0.35400625  0.64599375  0.64599375  1
  Zn  Zn8  1  0.50000000  0.78377132  0.21622868  1
  Zn  Zn9  1  0.50000000  0.21622868  0.78377132  1
  Zn  Zn10  1  0.71622868  0.78377132  0.78377132  1
  Zn  Zn11  1  0.28377132  0.21622868  0.21622868  1
loop_
_geom_bond_atom_site_label_1
_geom_bond_atom_site_label_2
_geom_bond_distance
_geom_bond_site_symmetry_2
Ho0 Zn7 3.112560 1_544
Ho0 Zn4 3.112560 1_554
Ho0 Zn5 3.112560 1_545
Ho0 Zn6 3.112560 1_455
Ho0 Zn10 3.165000 1_444
Ho0 Zn11 3.165000 1_555
Ho0 Zn9 3.165000 1_454
Ho0 Zn8 3.165000 1_445
Ho0 Zn8 3.165000 1_545
Ho0 Zn9 3.165000 1_554
Ho0 Zn11 3.165000 1_455
Ho0 Zn10 3.165000 1_544
Ho0 Zn0 3.356182 1_555
Ho0 Zn3 3.356182 1_545
Ho0 Zn0 3.356182 1_554
Ho0 Zn3 3.356182 1_555
Ho0 Zn1 3.356182 1_554
Ho0 Zn2 3.356182 1_545
Ho0 Zn1 3.356182 1_455
Ho0 Zn2 3.356182 1_455
Zn0 Zn1 2.530374 1_455
Zn0 Zn1 2.530374 1_555
Zn0 Zn10 2.553526 1_445
Zn0 Zn11 2.553526 1_555
Zn0 Zn9 2.553526 1_455
Zn0 Zn8 2.553526 1_545
Zn0 Zn4 2.696028 1_555
Zn0 Zn5 2.696028 1_545
Zn0 Zn7 2.696028 1_545
Zn0 Zn6 2.696028 1_455
Zn1 Zn8 2.553526 1_545
Zn1 Zn9 2.553526 1_555
Zn1 Zn11 2.553526 1_555
Zn1 Zn10 2.553526 1_545
Zn1 Zn7 2.696028 1_545
Zn1 Zn6 2.696028 1_555
Zn1 Zn5 2.696028 1_645
Zn1 Zn4 2.696028 1_555
Zn2 Zn3 2.530374 1_655
Zn2 Zn3 2.530374 1_555
Zn2 Zn9 2.553526 1_554
Zn2 Zn8 2.553526 1_555
Zn2 Zn7 2.696028 1_554
Zn2 Zn6 2.696028 1_555
Zn2 Zn4 2.696028 1_654
Zn2 Zn5 2.696028 1_555
Zn3 Zn8 2.553526 1_455
Zn3 Zn9 2.553526 1_554
Zn3 Zn4 2.696028 1_554
Zn3 Zn5 2.696028 1_555
Zn3 Zn6 2.696028 1_455
Zn3 Zn7 2.696028 1_554
Zn4 Zn5 2.567267 1_555
Zn4 Zn9 2.805400 1_555
Zn4 Zn9 2.805400 1_455
Zn5 Zn8 2.805400 1_555
Zn5 Zn8 2.805400 1_455
Zn6 Zn7 2.567267 1_555
Zn6 Zn8 2.805864 1_555
Zn6 Zn9 2.805864 1_555
Zn7 Zn8 2.805864 1_555
Zn7 Zn9 2.805864 1_555
Zn10 Zn2 2.553526 1_556
Zn10 Zn3 2.553526 1_656
Zn10 Zn9 2.688655 1_565
Zn10 Zn8 2.688655 1_556
Zn10 Zn7 2.805400 1_555
Zn10 Zn7 2.805400 1_655
Zn10 Zn4 2.805864 1_655
Zn10 Zn5 2.805864 1_655
Zn11 Zn2 2.553526 1_555
Zn11 Zn3 2.553526 1_555
Zn11 Zn9 2.688655 1_554
Zn11 Zn8 2.688655 1_545
Zn11 Zn6 2.805400 1_555
Zn11 Zn6 2.805400 1_455
Zn11 Zn4 2.805864 1_555
Zn11 Zn5 2.805864 1_555
