# generated using pymatgen
data_DyV2(FeCo)5
_symmetry_space_group_name_H-M   'P 1'
_cell_length_a   4.65412700
_cell_length_b   6.36539052
_cell_length_c   6.36539052
_cell_angle_alpha   97.41503230
_cell_angle_beta   111.44332510
_cell_angle_gamma   68.55667490
_symmetry_Int_Tables_number   1
_chemical_formula_structural   DyV2(FeCo)5
_chemical_formula_sum   'Dy1 V2 Fe5 Co5'
_cell_volume   163.37138202
_cell_formula_units_Z   1
loop_
 _symmetry_equiv_pos_site_id
 _symmetry_equiv_pos_as_xyz
  1  'x, y, z'
loop_
 _atom_site_type_symbol
 _atom_site_label
 _atom_site_symmetry_multiplicity
 _atom_site_fract_x
 _atom_site_fract_y
 _atom_site_fract_z
 _atom_site_occupancy
  Dy  Dy0  1  0.00000000  0.99876700  0.99876700  1
  V  V0  1  0.00000000  0.35865000  0.35865000  1
  V  V1  1  0.00000000  0.64214400  0.64214400  1
  Fe  Fe0  1  0.50088700  0.99882900  0.50146300  1
  Fe  Fe1  1  0.00174700  0.99882900  0.50146300  1
  Fe  Fe2  1  0.49911300  0.50146300  0.99882900  1
  Fe  Fe3  1  0.99825300  0.50146300  0.99882900  1
  Fe  Fe4  1  0.50000000  0.22500100  0.22500100  1
  Co  Co0  1  0.72496000  0.77564900  0.22556900  1
  Co  Co1  1  0.27504000  0.22556900  0.77564900  1
  Co  Co2  1  0.50000000  0.77601100  0.77601100  1
  Co  Co3  1  0.64104300  0.35776900  0.63985600  1
  Co  Co4  1  0.35895700  0.63985600  0.35776900  1
loop_
_geom_bond_atom_site_label_1
_geom_bond_atom_site_label_2
_geom_bond_distance
_geom_bond_site_symmetry_2
Dy0 V1 2.996019 1_555
Dy0 Fe4 3.004587 1_566
Dy0 Fe4 3.004587 1_466
Dy0 V0 3.023407 1_566
Dy0 Fe2 3.168567 1_555
Dy0 Fe0 3.168567 1_455
Dy0 Fe1 3.168567 1_555
Dy0 Fe3 3.168567 1_455
Dy0 Fe0 3.196842 1_556
Dy0 Fe2 3.196842 1_465
Dy0 Fe3 3.196842 1_465
Dy0 Fe1 3.196842 1_556
V0 V1 2.381656 1_555
Fe0 Fe1 2.323061 1_555
Fe0 Fe1 2.331066 1_655
Fe0 Fe4 2.411183 1_565
Fe0 V1 2.549601 1_655
Fe0 V0 2.567253 1_565
Fe1 Fe4 2.411183 1_465
Fe1 V1 2.549601 1_555
Fe1 V0 2.567254 1_565
Fe2 Fe3 2.323061 1_555
Fe2 Fe3 2.331066 1_455
Fe2 Fe4 2.411183 1_556
Fe2 V1 2.549601 1_555
Fe2 V0 2.567253 1_656
Fe3 Fe4 2.411183 1_656
Fe3 V1 2.549601 1_655
Fe3 V0 2.567254 1_656
Fe4 V0 2.583776 1_655
Fe4 V0 2.583776 1_555
Co0 Fe1 2.408691 1_655
Co0 Fe0 2.408691 1_555
Co0 Fe3 2.411627 1_554
Co0 Fe2 2.411627 1_554
Co0 Co4 2.582501 1_555
Co0 Co4 2.582505 1_655
Co0 V1 2.587768 1_655
Co0 V0 2.589407 1_655
Co0 Fe4 2.662294 1_565
Co0 Co2 2.663520 1_554
Co0 Dy0 2.991578 1_554
Co0 Dy0 2.991578 1_654
Co1 Fe3 2.408691 1_455
Co1 Fe2 2.408691 1_555
Co1 Fe1 2.411627 1_545
Co1 Fe0 2.411627 1_545
Co1 Co3 2.582501 1_555
Co1 Co3 2.582505 1_455
Co1 V1 2.587768 1_555
Co1 V0 2.589407 1_555
Co1 Fe4 2.662294 1_556
Co1 Co2 2.663520 1_545
Co1 Dy0 2.991578 1_645
Co1 Dy0 2.991578 1_545
Co2 Fe3 2.390630 1_555
Co2 Fe1 2.390630 1_555
Co2 Fe2 2.390630 1_555
Co2 Fe0 2.390630 1_555
Co2 V1 2.584572 1_555
Co2 V1 2.584572 1_655
Co2 Co3 2.610053 1_555
Co2 Co4 2.610053 1_555
Co2 Dy0 2.986190 1_555
Co2 Dy0 2.986190 1_655
Co3 Co4 2.357304 1_555
Co3 Fe0 2.563564 1_545
Co3 Fe1 2.563566 1_645
Co3 Fe2 2.572271 1_555
Co3 Fe3 2.572273 1_555
Co3 Fe4 2.584697 1_555
Co3 V0 2.861989 1_555
Co3 V0 2.861993 1_655
Co3 V1 2.873045 1_555
Co3 V1 2.873049 1_655
Co3 Dy0 2.999676 1_645
Co4 Fe2 2.563564 1_554
Co4 Fe3 2.563566 1_454
Co4 Fe0 2.572271 1_555
Co4 Fe1 2.572273 1_555
Co4 Fe4 2.584697 1_555
Co4 V0 2.861989 1_655
Co4 V0 2.861993 1_555
Co4 V1 2.873045 1_655
Co4 V1 2.873049 1_555
Co4 Dy0 2.999676 1_554
