# generated using pymatgen
data_YbSmSe3
_symmetry_space_group_name_H-M   'P 1'
_cell_length_a   7.49944976
_cell_length_b   7.49944976
_cell_length_c   9.26056300
_cell_angle_alpha   90.00000000
_cell_angle_beta   90.00000000
_cell_angle_gamma   148.47840826
_symmetry_Int_Tables_number   1
_chemical_formula_structural   YbSmSe3
_chemical_formula_sum   'Yb2 Sm2 Se6'
_cell_volume   272.30038340
_cell_formula_units_Z   2
loop_
 _symmetry_equiv_pos_site_id
 _symmetry_equiv_pos_as_xyz
  1  'x, y, z'
loop_
 _atom_site_type_symbol
 _atom_site_label
 _atom_site_symmetry_multiplicity
 _atom_site_fract_x
 _atom_site_fract_y
 _atom_site_fract_z
 _atom_site_occupancy
  Yb  Yb0  1  0.00000000  0.00000000  0.00000000  1
  Yb  Yb1  1  0.00000000  0.00000000  0.50000000  1
  Sm  Sm0  1  0.24830200  0.75169800  0.75000000  1
  Sm  Sm1  1  0.75169800  0.24830200  0.25000000  1
  Se  Se0  1  0.11128000  0.88872000  0.25000000  1
  Se  Se1  1  0.88872000  0.11128000  0.75000000  1
  Se  Se2  1  0.64277600  0.35722400  0.57604900  1
  Se  Se3  1  0.35722400  0.64277600  0.42395100  1
  Se  Se4  1  0.64277600  0.35722400  0.92395100  1
  Se  Se5  1  0.35722400  0.64277600  0.07604900  1
loop_
_geom_bond_atom_site_label_1
_geom_bond_atom_site_label_2
_geom_bond_distance
_geom_bond_site_symmetry_2
Se0 Yb0 2.817830 1_565
Se0 Yb1 2.817830 1_565
Se0 Sm1 2.873654 1_565
Se0 Sm1 2.873654 1_455
Se1 Yb0 2.817830 1_656
Se1 Yb1 2.817830 1_655
Se1 Sm0 2.873654 1_545
Se1 Sm0 2.873654 1_655
Se2 Yb1 2.982115 1_555
Se2 Yb1 2.982115 1_665
Se2 Sm0 3.010767 1_655
Se2 Sm0 3.010767 1_545
Se2 Sm1 3.404241 1_555
Se3 Yb1 2.982115 1_665
Se3 Yb1 2.982115 1_555
Se3 Sm1 3.010767 1_455
Se3 Sm1 3.010767 1_565
Se3 Sm0 3.404241 1_555
Se4 Yb0 2.982115 1_556
Se4 Yb0 2.982115 1_666
Se4 Sm0 3.010767 1_655
Se4 Sm0 3.010767 1_545
Se4 Sm1 3.404241 1_556
Se5 Yb0 2.982115 1_555
Se5 Yb0 2.982115 1_665
Se5 Sm1 3.010767 1_565
Se5 Sm1 3.010767 1_455
Se5 Sm0 3.404241 1_554
