# generated using pymatgen
data_VP3(Pb2O7)2
_symmetry_space_group_name_H-M   'P 1'
_cell_length_a   13.48098705
_cell_length_b   13.71779171
_cell_length_c   14.02695693
_cell_angle_alpha   90.00000000
_cell_angle_beta   90.00000000
_cell_angle_gamma   91.92236968
_symmetry_Int_Tables_number   1
_chemical_formula_structural   VP3(Pb2O7)2
_chemical_formula_sum   'V8 P24 Pb32 O112'
_cell_volume   2592.53642825
_cell_formula_units_Z   8
loop_
 _symmetry_equiv_pos_site_id
 _symmetry_equiv_pos_as_xyz
  1  'x, y, z'
loop_
 _atom_site_type_symbol
 _atom_site_label
 _atom_site_symmetry_multiplicity
 _atom_site_fract_x
 _atom_site_fract_y
 _atom_site_fract_z
 _atom_site_occupancy
  V  V0  1  0.86622797  0.45054759  0.60697837  1
  V  V1  1  0.63377203  0.54945241  0.10697837  1
  V  V2  1  0.13377203  0.54945241  0.39302163  1
  V  V3  1  0.36622797  0.45054759  0.89302163  1
  V  V4  1  0.62990776  0.05876528  0.59091053  1
  V  V5  1  0.87009224  0.94123472  0.09091053  1
  V  V6  1  0.37009224  0.94123472  0.40908947  1
  V  V7  1  0.12990776  0.05876528  0.90908947  1
  P  P0  1  0.55778953  0.84896210  0.51275776  1
  P  P1  1  0.94221047  0.15103790  0.01275776  1
  P  P2  1  0.44221047  0.15103790  0.48724224  1
  P  P3  1  0.05778953  0.84896210  0.98724224  1
  P  P4  1  0.94482111  0.65523015  0.51771173  1
  P  P5  1  0.55517889  0.34476985  0.01771173  1
  P  P6  1  0.05517889  0.34476985  0.48228827  1
  P  P7  1  0.44482111  0.65523015  0.98228827  1
  P  P8  1  0.73762081  0.25448671  0.70192905  1
  P  P9  1  0.76237919  0.74551329  0.20192905  1
  P  P10  1  0.26237919  0.74551329  0.29807095  1
  P  P11  1  0.23762081  0.25448671  0.79807095  1
  P  P12  1  0.53139076  0.02536681  0.84248579  1
  P  P13  1  0.96860924  0.97463319  0.34248579  1
  P  P14  1  0.46860924  0.97463319  0.15751421  1
  P  P15  1  0.03139076  0.02536681  0.65751421  1
  P  P16  1  0.56848599  0.53628187  0.34959308  1
  P  P17  1  0.93151401  0.46371813  0.84959308  1
  P  P18  1  0.43151401  0.46371813  0.65040692  1
  P  P19  1  0.06848599  0.53628187  0.15040692  1
  P  P20  1  0.73172424  0.74939074  0.77120548  1
  P  P21  1  0.76827576  0.25060926  0.27120548  1
  P  P22  1  0.26827576  0.25060926  0.22879452  1
  P  P23  1  0.23172424  0.74939074  0.72879452  1
  Pb  Pb0  1  0.62317657  0.35539599  0.48714407  1
  Pb  Pb1  1  0.87682343  0.64460401  0.98714407  1
  Pb  Pb2  1  0.37682343  0.64460401  0.51285593  1
  Pb  Pb3  1  0.12317657  0.35539599  0.01285593  1
  Pb  Pb4  1  0.83905336  0.50488569  0.31519086  1
  Pb  Pb5  1  0.66094664  0.49511431  0.81519086  1
  Pb  Pb6  1  0.16094664  0.49511431  0.68480914  1
  Pb  Pb7  1  0.33905336  0.50488569  0.18480914  1
  Pb  Pb8  1  0.85897432  0.16289160  0.49109697  1
  Pb  Pb9  1  0.64102568  0.83710840  0.99109697  1
  Pb  Pb10  1  0.14102568  0.83710840  0.50890303  1
  Pb  Pb11  1  0.35897432  0.16289160  0.00890303  1
  Pb  Pb12  1  0.66804499  0.63608885  0.54718221  1
  Pb  Pb13  1  0.83195501  0.36391115  0.04718221  1
  Pb  Pb14  1  0.33195501  0.36391115  0.45281779  1
  Pb  Pb15  1  0.16804499  0.63608885  0.95281779  1
  Pb  Pb16  1  0.83342566  0.86852058  0.54575460  1
  Pb  Pb17  1  0.66657434  0.13147942  0.04575460  1
  Pb  Pb18  1  0.16657434  0.13147942  0.45424540  1
  Pb  Pb19  1  0.33342566  0.86852058  0.95424540  1
  Pb  Pb20  1  0.98563239  0.25468551  0.75150118  1
  Pb  Pb21  1  0.51436761  0.74531449  0.25150118  1
  Pb  Pb22  1  0.01436761  0.74531449  0.24849882  1
  Pb  Pb23  1  0.48563239  0.25468551  0.74849882  1
  Pb  Pb24  1  0.77229561  0.01126076  0.79054205  1
  Pb  Pb25  1  0.72770439  0.98873924  0.29054205  1
  Pb  Pb26  1  0.22770439  0.98873924  0.20945795  1
  Pb  Pb27  1  0.27229561  0.01126076  0.70945795  1
  Pb  Pb28  1  0.49167565  0.77837301  0.75025089  1
  Pb  Pb29  1  0.00832435  0.22162699  0.25025089  1
  Pb  Pb30  1  0.50832435  0.22162699  0.24974911  1
  Pb  Pb31  1  0.99167565  0.77837301  0.74974911  1
  O  O0  1  0.83714394  0.68462054  0.49761993  1
  O  O1  1  0.66285606  0.31537946  0.99761993  1
  O  O2  1  0.16285606  0.31537946  0.50238007  1
  O  O3  1  0.33714394  0.68462054  0.00238007  1
  O  O4  1  0.66463595  0.81415083  0.49621322  1
  O  O5  1  0.83536405  0.18584917  0.99621322  1
  O  O6  1  0.33536405  0.18584917  0.50378678  1
  O  O7  1  0.16463595  0.81415083  0.00378678  1
  O  O8  1  0.49756176  0.76464355  0.56220427  1
  O  O9  1  0.00243824  0.23535645  0.06220427  1
  O  O10  1  0.50243824  0.23535645  0.43779573  1
  O  O11  1  0.99756176  0.76464355  0.93779573  1
  O  O12  1  0.51090926  0.87957186  0.41631848  1
  O  O13  1  0.98909074  0.12042814  0.91631848  1
  O  O14  1  0.48909074  0.12042814  0.58368152  1
  O  O15  1  0.01090926  0.87957186  0.08368152  1
  O  O16  1  0.79298835  0.18513563  0.76808138  1
  O  O17  1  0.70701165  0.81486437  0.26808138  1
  O  O18  1  0.20701165  0.81486437  0.23191862  1
  O  O19  1  0.29298835  0.18513563  0.73191862  1
  O  O20  1  0.99927873  0.74544537  0.56735899  1
  O  O21  1  0.50072127  0.25455463  0.06735899  1
  O  O22  1  0.00072127  0.25455463  0.43264101  1
  O  O23  1  0.49927873  0.74544537  0.93264101  1
  O  O24  1  0.67298674  0.19691166  0.62526981  1
  O  O25  1  0.82701326  0.80308834  0.12526981  1
  O  O26  1  0.32701326  0.80308834  0.37473019  1
  O  O27  1  0.17298674  0.19691166  0.87473019  1
  O  O28  1  0.55944704  0.93445067  0.58767545  1
  O  O29  1  0.94055296  0.06554933  0.08767545  1
  O  O30  1  0.44055296  0.06554933  0.41232455  1
  O  O31  1  0.05944704  0.93445067  0.91232455  1
  O  O32  1  0.99526648  0.62945153  0.42202600  1
  O  O33  1  0.50473352  0.37054847  0.92202600  1
  O  O34  1  0.00473352  0.37054847  0.57797400  1
  O  O35  1  0.49526648  0.62945153  0.07797400  1
  O  O36  1  0.83537884  0.43762066  0.49166879  1
  O  O37  1  0.66462116  0.56237934  0.99166879  1
  O  O38  1  0.16462116  0.56237934  0.50833121  1
  O  O39  1  0.33537884  0.43762066  0.00833121  1
  O  O40  1  0.55367752  0.55611894  0.24128782  1
  O  O41  1  0.94632248  0.44388106  0.74128782  1
  O  O42  1  0.44632248  0.44388106  0.75871218  1
  O  O43  1  0.05367752  0.55611894  0.25871218  1
  O  O44  1  0.59851348  0.05509593  0.75564887  1
  O  O45  1  0.90148652  0.94490407  0.25564887  1
  O  O46  1  0.40148652  0.94490407  0.24435113  1
  O  O47  1  0.09851348  0.05509593  0.74435113  1
  O  O48  1  0.52945857  0.62798415  0.40194000  1
  O  O49  1  0.97054143  0.37201585  0.90194000  1
  O  O50  1  0.47054143  0.37201585  0.59806000  1
  O  O51  1  0.02945857  0.62798415  0.09806000  1
  O  O52  1  0.67929399  0.52726609  0.37951467  1
  O  O53  1  0.82070601  0.47273391  0.87951467  1
  O  O54  1  0.32070601  0.47273391  0.62048533  1
  O  O55  1  0.17929399  0.52726609  0.12048533  1
  O  O56  1  0.65431248  0.07185752  0.47686494  1
  O  O57  1  0.84568752  0.92814248  0.97686494  1
  O  O58  1  0.34568752  0.92814248  0.52313506  1
  O  O59  1  0.15431248  0.07185752  0.02313506  1
  O  O60  1  0.76330921  0.50003429  0.65546415  1
  O  O61  1  0.73669079  0.49996571  0.15546415  1
  O  O62  1  0.23669079  0.49996571  0.34453585  1
  O  O63  1  0.26330921  0.50003429  0.84453585  1
  O  O64  1  0.66741052  0.83613899  0.80625767  1
  O  O65  1  0.83258948  0.16386101  0.30625767  1
  O  O66  1  0.33258948  0.16386101  0.19374233  1
  O  O67  1  0.16741052  0.83613899  0.69374233  1
  O  O68  1  0.94852575  0.57014849  0.59199290  1
  O  O69  1  0.55147425  0.42985151  0.09199290  1
  O  O70  1  0.05147425  0.42985151  0.40800710  1
  O  O71  1  0.44852575  0.57014849  0.90800710  1
  O  O72  1  0.82214075  0.31210422  0.64562275  1
  O  O73  1  0.67785925  0.68789578  0.14562275  1
  O  O74  1  0.17785925  0.68789578  0.35437725  1
  O  O75  1  0.32214075  0.31210422  0.85437725  1
  O  O76  1  0.66656267  0.32231904  0.75339658  1
  O  O77  1  0.83343733  0.67768096  0.25339658  1
  O  O78  1  0.33343733  0.67768096  0.24660342  1
  O  O79  1  0.16656267  0.32231904  0.74660342  1
  O  O80  1  0.47845163  0.11767913  0.87781813  1
  O  O81  1  0.02154837  0.88232087  0.37781813  1
  O  O82  1  0.52154837  0.88232087  0.12218187  1
  O  O83  1  0.97845163  0.11767913  0.62218187  1
  O  O84  1  0.45433226  0.94317800  0.81460682  1
  O  O85  1  0.04566774  0.05682200  0.31460682  1
  O  O86  1  0.54566774  0.05682200  0.18539318  1
  O  O87  1  0.95433226  0.94317800  0.68539318  1
  O  O88  1  0.74398998  0.01066485  0.62785019  1
  O  O89  1  0.75601002  0.98933515  0.12785019  1
  O  O90  1  0.25601002  0.98933515  0.37214981  1
  O  O91  1  0.24398998  0.01066485  0.87214981  1
  O  O92  1  0.51257347  0.44090131  0.38141276  1
  O  O93  1  0.98742653  0.55909869  0.88141276  1
  O  O94  1  0.48742653  0.55909869  0.61858724  1
  O  O95  1  0.01257347  0.44090131  0.11858724  1
  O  O96  1  0.60135420  0.98999458  0.92383614  1
  O  O97  1  0.89864580  0.01000542  0.42383614  1
  O  O98  1  0.39864580  0.01000542  0.07616386  1
  O  O99  1  0.10135420  0.98999458  0.57616386  1
  O  O100  1  0.65726237  0.67176463  0.72724955  1
  O  O101  1  0.84273763  0.32823537  0.22724955  1
  O  O102  1  0.34273763  0.32823537  0.27275045  1
  O  O103  1  0.15726237  0.67176463  0.77275045  1
  O  O104  1  0.80698495  0.78753679  0.69463054  1
  O  O105  1  0.69301505  0.21246321  0.19463054  1
  O  O106  1  0.19301505  0.21246321  0.30536946  1
  O  O107  1  0.30698495  0.78753679  0.80536946  1
  O  O108  1  0.79048775  0.70760256  0.85454573  1
  O  O109  1  0.70951225  0.29239744  0.35454573  1
  O  O110  1  0.20951225  0.29239744  0.14545427  1
  O  O111  1  0.29048775  0.70760256  0.64545427  1
loop_
_geom_bond_atom_site_label_1
_geom_bond_atom_site_label_2
_geom_bond_distance
_geom_bond_site_symmetry_2
O0 P4 1.545433 1_555
O0 Pb12 2.453851 1_555
O0 Pb16 2.613598 1_555
O1 P5 1.545433 1_556
O1 Pb13 2.453851 1_556
O1 Pb17 2.613598 1_556
O2 P6 1.545433 1_555
O2 Pb14 2.453851 1_555
O2 Pb18 2.613598 1_555
O3 P7 1.545433 1_554
O3 Pb15 2.453851 1_554
O3 Pb19 2.613598 1_554
O4 P0 1.550091 1_555
O4 Pb16 2.470424 1_555
O4 Pb12 2.546991 1_555
O5 P1 1.550091 1_556
O5 Pb17 2.470424 1_556
O5 Pb13 2.546991 1_556
O6 P2 1.550091 1_555
O6 Pb18 2.470424 1_555
O6 Pb14 2.546991 1_555
O7 P3 1.550091 1_554
O7 Pb19 2.470424 1_554
O7 Pb15 2.546991 1_554
O8 P0 1.554077 1_555
O8 Pb2 2.379116 1_555
O8 Pb28 2.645817 1_555
O9 P1 1.554077 1_455
O9 Pb3 2.379116 1_555
O9 Pb29 2.645817 1_555
O10 P2 1.554077 1_555
O10 Pb0 2.379116 1_555
O10 Pb30 2.645817 1_555
O11 P3 1.554077 1_655
O11 Pb1 2.379116 1_555
O11 Pb31 2.645817 1_555
O12 P0 1.556748 1_555
O12 V6 2.106482 1_555
O13 P1 1.556748 1_556
O13 V7 2.106482 1_655
O14 P2 1.556748 1_555
O14 V4 2.106482 1_555
O15 P3 1.556748 1_554
O15 V5 2.106482 1_455
O16 P8 1.539756 1_555
O16 Pb24 2.412782 1_555
O16 Pb20 2.746394 1_555
O17 P9 1.539756 1_555
O17 Pb25 2.412782 1_555
O17 Pb21 2.746394 1_555
O18 P10 1.539756 1_555
O18 Pb26 2.412782 1_555
O18 Pb22 2.746394 1_555
O19 P11 1.539756 1_555
O19 Pb27 2.412782 1_555
O19 Pb23 2.746394 1_555
O20 P4 1.579406 1_555
O20 Pb10 2.396605 1_655
O20 Pb31 2.600565 1_555
O21 P5 1.579406 1_555
O21 Pb11 2.396605 1_555
O21 Pb30 2.600565 1_555
O22 P6 1.579406 1_555
O22 Pb8 2.396605 1_455
O22 Pb29 2.600565 1_555
O23 P7 1.579406 1_555
O23 Pb9 2.396605 1_555
O23 Pb28 2.600565 1_555
O24 P8 1.578954 1_555
O24 V4 2.021627 1_555
O25 P9 1.578954 1_555
O25 V5 2.021627 1_555
O26 P10 1.578954 1_555
O26 V6 2.021627 1_555
O27 P11 1.578954 1_555
O27 V7 2.021627 1_555
O28 P0 1.574269 1_555
O28 V4 1.924520 1_565
O29 P1 1.574269 1_555
O29 V5 1.924520 1_545
O30 P2 1.574269 1_555
O30 V6 1.924520 1_545
O31 P3 1.574269 1_555
O31 V7 1.924520 1_565
O32 P4 1.550840 1_555
O32 V2 2.234661 1_655
O33 P5 1.550840 1_556
O33 V3 2.234661 1_555
O34 P6 1.550840 1_555
O34 V0 2.234661 1_455
O35 P7 1.550840 1_554
O35 V1 2.234661 1_555
O36 V0 1.677966 1_555
O36 Pb4 2.641715 1_555
O37 V1 1.677966 1_556
O37 Pb5 2.641715 1_555
O38 V2 1.677966 1_555
O38 Pb6 2.641715 1_555
O39 V3 1.677966 1_554
O39 Pb7 2.641715 1_555
O40 P16 1.557400 1_555
O40 V1 2.174887 1_555
O40 Pb21 2.670103 1_555
O41 P17 1.557400 1_555
O41 V0 2.174887 1_555
O41 Pb20 2.670103 1_555
O42 P18 1.557400 1_555
O42 V3 2.174887 1_555
O42 Pb23 2.670103 1_555
O43 P19 1.557400 1_555
O43 V2 2.174887 1_555
O43 Pb22 2.670103 1_555
O44 P12 1.563340 1_555
O44 V4 2.349451 1_555
O44 Pb24 2.486797 1_555
O45 P13 1.563340 1_555
O45 V5 2.349451 1_555
O45 Pb25 2.486797 1_555
O46 P14 1.563340 1_555
O46 V6 2.349451 1_555
O46 Pb26 2.486797 1_555
O47 P15 1.563340 1_555
O47 V7 2.349451 1_555
O47 Pb27 2.486797 1_555
O48 P16 1.562949 1_555
O48 Pb2 2.595770 1_555
O48 Pb21 2.665864 1_555
O48 Pb12 2.763968 1_555
O49 P17 1.562949 1_555
O49 Pb3 2.595770 1_656
O49 Pb20 2.665864 1_555
O49 Pb13 2.763968 1_556
O50 P18 1.562949 1_555
O50 Pb0 2.595770 1_555
O50 Pb23 2.665864 1_555
O50 Pb14 2.763968 1_555
O51 P19 1.562949 1_555
O51 Pb1 2.595770 1_454
O51 Pb22 2.665864 1_555
O51 Pb15 2.763968 1_554
O52 P16 1.560541 1_555
O52 Pb4 2.364569 1_555
O52 Pb12 2.792478 1_555
O53 P17 1.560541 1_555
O53 Pb5 2.364569 1_555
O53 Pb13 2.792478 1_556
O54 P18 1.560541 1_555
O54 Pb6 2.364569 1_555
O54 Pb14 2.792478 1_555
O55 P19 1.560541 1_555
O55 Pb7 2.364569 1_555
O55 Pb15 2.792478 1_554
O56 V4 1.641832 1_555
O57 V5 1.641832 1_556
O58 V6 1.641832 1_555
O59 V7 1.641832 1_554
O60 V0 1.706335 1_555
O60 Pb5 2.631029 1_555
O60 Pb12 2.756883 1_555
O61 V1 1.706335 1_555
O61 Pb4 2.631029 1_555
O61 Pb13 2.756883 1_555
O62 V2 1.706335 1_555
O62 Pb7 2.631029 1_555
O62 Pb14 2.756883 1_555
O63 V3 1.706335 1_555
O63 Pb6 2.631029 1_555
O63 Pb15 2.756883 1_555
O64 P20 1.574409 1_555
O64 Pb28 2.594551 1_555
O64 Pb9 2.617112 1_555
O64 Pb24 2.755166 1_565
O65 P21 1.574409 1_555
O65 Pb29 2.594551 1_655
O65 Pb8 2.617112 1_555
O65 Pb25 2.755166 1_545
O66 P22 1.574409 1_555
O66 Pb30 2.594551 1_555
O66 Pb11 2.617112 1_555
O66 Pb26 2.755166 1_545
O67 P23 1.574409 1_555
O67 Pb31 2.594551 1_455
O67 Pb10 2.617112 1_555
O67 Pb27 2.755166 1_565
O68 P4 1.566601 1_555
O68 V0 1.960796 1_555
O69 P5 1.566601 1_555
O69 V1 1.960796 1_555
O70 P6 1.566601 1_555
O70 V2 1.960796 1_555
O71 P7 1.566601 1_555
O71 V3 1.960796 1_555
O72 P8 1.576814 1_555
O72 V0 2.044032 1_555
O72 Pb20 2.792901 1_555
O73 P9 1.576814 1_555
O73 V1 2.044032 1_555
O73 Pb21 2.792901 1_555
O74 P10 1.576814 1_555
O74 V2 2.044032 1_555
O74 Pb22 2.792901 1_555
O75 P11 1.576814 1_555
O75 V3 2.044032 1_555
O75 Pb23 2.792901 1_555
O76 P8 1.537685 1_555
O76 Pb5 2.527398 1_555
O76 Pb23 2.581274 1_555
O77 P9 1.537685 1_555
O77 Pb4 2.527398 1_555
O77 Pb22 2.581274 1_655
O78 P10 1.537685 1_555
O78 Pb7 2.527398 1_555
O78 Pb21 2.581274 1_555
O79 P11 1.537685 1_555
O79 Pb6 2.527398 1_555
O79 Pb20 2.581274 1_455
O80 P12 1.555363 1_555
O80 Pb11 2.535124 1_556
O80 Pb23 2.611482 1_555
O81 P13 1.555363 1_455
O81 Pb10 2.535124 1_555
O81 Pb22 2.611482 1_555
O82 P14 1.555363 1_555
O82 Pb9 2.535124 1_554
O82 Pb21 2.611482 1_555
O83 P15 1.555363 1_655
O83 Pb8 2.535124 1_555
O83 Pb20 2.611482 1_555
O84 P12 1.557127 1_565
O84 Pb28 2.501146 1_555
O84 Pb19 2.725819 1_555
O85 P13 1.557127 1_445
O85 Pb29 2.501146 1_555
O85 Pb18 2.725819 1_555
O86 P14 1.557127 1_545
O86 Pb30 2.501146 1_555
O86 Pb17 2.725819 1_555
O87 P15 1.557127 1_665
O87 Pb31 2.501146 1_555
O87 Pb16 2.725819 1_555
O88 V4 1.771215 1_555
O88 Pb24 2.313724 1_555
O88 Pb16 2.596073 1_545
O89 V5 1.771215 1_555
O89 Pb25 2.313724 1_555
O89 Pb17 2.596073 1_565
O90 V6 1.771215 1_555
O90 Pb26 2.313724 1_555
O90 Pb18 2.596073 1_565
O91 V7 1.771215 1_555
O91 Pb27 2.313724 1_555
O91 Pb19 2.596073 1_545
O92 P16 1.553426 1_555
O92 Pb0 2.432259 1_555
O92 Pb14 2.806224 1_555
O93 P17 1.553426 1_555
O93 Pb1 2.432259 1_555
O93 Pb15 2.806224 1_655
O94 P18 1.553426 1_555
O94 Pb2 2.432259 1_555
O94 Pb12 2.806224 1_555
O95 P19 1.553426 1_555
O95 Pb3 2.432259 1_555
O95 Pb13 2.806224 1_455
O96 P12 1.567749 1_565
O96 Pb9 2.376952 1_555
O96 Pb17 2.711105 1_566
O97 P13 1.567749 1_545
O97 Pb8 2.376952 1_555
O97 Pb16 2.711105 1_545
O98 P14 1.567749 1_545
O98 Pb11 2.376952 1_555
O98 Pb19 2.711105 1_544
O99 P15 1.567749 1_565
O99 Pb10 2.376952 1_555
O99 Pb18 2.711105 1_565
O100 P20 1.565254 1_555
O100 Pb12 2.577801 1_555
O100 Pb5 2.721091 1_555
O100 Pb28 2.728528 1_555
O101 P21 1.565254 1_555
O101 Pb13 2.577801 1_555
O101 Pb4 2.721091 1_555
O101 Pb29 2.728528 1_655
O102 P22 1.565254 1_555
O102 Pb14 2.577801 1_555
O102 Pb7 2.721091 1_555
O102 Pb30 2.728528 1_555
O103 P23 1.565254 1_555
O103 Pb15 2.577801 1_555
O103 Pb6 2.721091 1_555
O103 Pb31 2.728528 1_455
O104 P20 1.556056 1_555
O104 Pb16 2.386530 1_555
O104 Pb31 2.614139 1_555
O105 P21 1.556056 1_555
O105 Pb17 2.386530 1_555
O105 Pb30 2.614139 1_555
O106 P22 1.556056 1_555
O106 Pb18 2.386530 1_555
O106 Pb29 2.614139 1_555
O107 P23 1.556056 1_555
O107 Pb19 2.386530 1_555
O107 Pb28 2.614139 1_555
O108 P20 1.534022 1_555
O108 Pb1 2.372422 1_555
O109 P21 1.534022 1_555
O109 Pb0 2.372422 1_555
O110 P22 1.534022 1_555
O110 Pb3 2.372422 1_555
O111 P23 1.534022 1_555
O111 Pb2 2.372422 1_555
