# generated using pymatgen
data_MgCr8(PO5)4
_symmetry_space_group_name_H-M   'P 1'
_cell_length_a   7.93919664
_cell_length_b   6.62347725
_cell_length_c   7.59254375
_cell_angle_alpha   90.00000000
_cell_angle_beta   90.64773219
_cell_angle_gamma   90.00000000
_symmetry_Int_Tables_number   1
_chemical_formula_structural   MgCr8(PO5)4
_chemical_formula_sum   'Mg1 Cr8 P4 O20'
_cell_volume   399.22907061
_cell_formula_units_Z   1
loop_
 _symmetry_equiv_pos_site_id
 _symmetry_equiv_pos_as_xyz
  1  'x, y, z'
loop_
 _atom_site_type_symbol
 _atom_site_label
 _atom_site_symmetry_multiplicity
 _atom_site_fract_x
 _atom_site_fract_y
 _atom_site_fract_z
 _atom_site_occupancy
  Mg  Mg0  1  0.75938749  0.25000000  0.09847681  1
  Cr  Cr0  1  0.01848134  0.98639549  0.99792233  1
  Cr  Cr1  1  0.01848134  0.51360451  0.99792233  1
  Cr  Cr2  1  0.16802609  0.25000000  0.72723048  1
  Cr  Cr3  1  0.33840339  0.75000000  0.22239844  1
  Cr  Cr4  1  0.47816167  0.99261751  0.51217605  1
  Cr  Cr5  1  0.47816167  0.50738249  0.51217605  1
  Cr  Cr6  1  0.65006226  0.25000000  0.76387524  1
  Cr  Cr7  1  0.81974868  0.75000000  0.29376273  1
  P  P0  1  0.10509517  0.75000000  0.62388249  1
  P  P1  1  0.36414732  0.25000000  0.14225559  1
  P  P2  1  0.60624950  0.75000000  0.88206793  1
  P  P3  1  0.90784853  0.25000000  0.38772344  1
  O  O0  1  0.07110942  0.25000000  0.49034778  1
  O  O1  1  0.10945100  0.75000000  0.12516685  1
  O  O2  1  0.12868068  0.93994753  0.74901915  1
  O  O3  1  0.12868068  0.56005247  0.74901915  1
  O  O4  1  0.22199826  0.25000000  0.00041733  1
  O  O5  1  0.25306048  0.75000000  0.49188317  1
  O  O6  1  0.35127628  0.06026602  0.26216342  1
  O  O7  1  0.35127628  0.43973398  0.26216342  1
  O  O8  1  0.40491728  0.25000000  0.64103647  1
  O  O9  1  0.44180130  0.75000000  0.98632250  1
  O  O10  1  0.53249026  0.25000000  0.04567545  1
  O  O11  1  0.55906682  0.75000000  0.37101069  1
  O  O12  1  0.61431463  0.56266202  0.75646461  1
  O  O13  1  0.61431463  0.93733798  0.75646461  1
  O  O14  1  0.74119794  0.25000000  0.48639819  1
  O  O15  1  0.76166966  0.75000000  0.01180174  1
  O  O16  1  0.89837490  0.06720985  0.25036308  1
  O  O17  1  0.89837490  0.43279015  0.25036308  1
  O  O18  1  0.89875973  0.25000000  0.88717321  1
  O  O19  1  0.93193040  0.75000000  0.53719517  1
loop_
_geom_bond_atom_site_label_1
_geom_bond_atom_site_label_2
_geom_bond_distance
_geom_bond_site_symmetry_2
Mg0 O10 1.841023 1_555
Mg0 O18 1.959175 1_554
Mg0 O16 1.996125 1_555
Mg0 O17 1.996125 1_555
Cr0 O1 1.972513 1_556
Cr0 O2 2.113964 1_555
Cr0 O18 2.154267 1_465
Cr0 O16 2.216012 1_466
Cr0 O4 2.378821 1_566
Cr0 O15 2.573828 1_456
Cr1 O1 1.972513 1_556
Cr1 O3 2.113964 1_555
Cr1 O18 2.154267 1_455
Cr1 O17 2.216012 1_456
Cr1 O4 2.378821 1_556
Cr1 O15 2.573828 1_456
Cr2 O0 1.948205 1_555
Cr2 O8 1.998309 1_555
Cr2 O3 2.084104 1_555
Cr2 O2 2.084104 1_545
Cr2 O4 2.113232 1_556
Cr2 O18 2.470507 1_455
Cr3 O1 1.954144 1_555
Cr3 O9 1.979873 1_554
Cr3 O11 2.073063 1_555
Cr3 O7 2.079445 1_555
Cr3 O6 2.079445 1_565
Cr3 O5 2.162601 1_555
Cr4 O11 2.039428 1_555
Cr4 O8 2.052916 1_565
Cr4 O13 2.167337 1_555
Cr4 O6 2.185316 1_565
Cr4 O5 2.407006 1_555
Cr4 O14 2.704581 1_565
Cr5 O11 2.039428 1_555
Cr5 O8 2.052916 1_555
Cr5 O12 2.167337 1_555
Cr5 O7 2.185316 1_555
Cr5 O5 2.407006 1_555
Cr5 O14 2.704581 1_555
Cr6 O12 2.090937 1_555
Cr6 O13 2.090937 1_545
Cr6 O8 2.148655 1_555
Cr6 O18 2.175560 1_555
Cr6 O14 2.235264 1_555
Cr6 O10 2.343981 1_556
Cr7 O19 2.042576 1_555
Cr7 O11 2.157475 1_555
Cr7 O15 2.184794 1_555
Cr7 O16 2.217482 1_565
Cr7 O17 2.217482 1_555
Cr7 O1 2.644838 1_655
O0 P3 1.504765 1_455
O2 P0 1.586376 1_555
O3 P0 1.586376 1_555
O4 P1 1.551092 1_555
O5 P0 1.552748 1_555
O6 P1 1.555852 1_555
O7 P1 1.555852 1_555
O9 P2 1.534433 1_555
O10 P1 1.531706 1_555
O12 P2 1.566711 1_555
O13 P2 1.566711 1_555
O14 P3 1.527815 1_555
O15 P2 1.570128 1_554
O16 P3 1.599176 1_555
O17 P3 1.599176 1_555
O19 P0 1.517493 1_655
