# generated using pymatgen
data_Cd(PbN)2
_symmetry_space_group_name_H-M   'P 1'
_cell_length_a   10.77215900
_cell_length_b   3.66678800
_cell_length_c   12.73022100
_cell_angle_alpha   90.00000000
_cell_angle_beta   90.00000000
_cell_angle_gamma   90.00000000
_symmetry_Int_Tables_number   1
_chemical_formula_structural   Cd(PbN)2
_chemical_formula_sum   'Cd4 Pb8 N8'
_cell_volume   502.83384264
_cell_formula_units_Z   4
loop_
 _symmetry_equiv_pos_site_id
 _symmetry_equiv_pos_as_xyz
  1  'x, y, z'
loop_
 _atom_site_type_symbol
 _atom_site_label
 _atom_site_symmetry_multiplicity
 _atom_site_fract_x
 _atom_site_fract_y
 _atom_site_fract_z
 _atom_site_occupancy
  Cd  Cd0  1  0.79446300  0.25000000  0.13980800  1
  Cd  Cd1  1  0.29446300  0.25000000  0.36019200  1
  Cd  Cd2  1  0.20553700  0.75000000  0.86019200  1
  Cd  Cd3  1  0.70553700  0.75000000  0.63980800  1
  Pb  Pb0  1  0.59584400  0.25000000  0.88177100  1
  Pb  Pb1  1  0.09584400  0.25000000  0.61822900  1
  Pb  Pb2  1  0.40415600  0.75000000  0.11822900  1
  Pb  Pb3  1  0.90415600  0.75000000  0.38177100  1
  Pb  Pb4  1  0.12351400  0.25000000  0.10297900  1
  Pb  Pb5  1  0.62351400  0.25000000  0.39702100  1
  Pb  Pb6  1  0.87648600  0.75000000  0.89702100  1
  Pb  Pb7  1  0.37648600  0.75000000  0.60297900  1
  N  N0  1  0.80689300  0.25000000  0.30170300  1
  N  N1  1  0.30689300  0.25000000  0.19829700  1
  N  N2  1  0.19310700  0.75000000  0.69829700  1
  N  N3  1  0.69310700  0.75000000  0.80170300  1
  N  N4  1  0.78158000  0.25000000  0.97775700  1
  N  N5  1  0.28158000  0.25000000  0.52224300  1
  N  N6  1  0.21842000  0.75000000  0.02224300  1
  N  N7  1  0.71842000  0.75000000  0.47775700  1
loop_
_geom_bond_atom_site_label_1
_geom_bond_atom_site_label_2
_geom_bond_distance
_geom_bond_site_symmetry_2
Cd0 N0 2.065304 1_555
Cd0 N4 2.067608 1_554
Cd1 N1 2.065304 1_555
Cd1 N5 2.067608 1_555
Cd2 N2 2.065304 1_555
Cd2 N6 2.067608 1_556
Cd3 N3 2.065304 1_555
Cd3 N7 2.067608 1_555
N0 Pb5 2.318306 1_555
N0 Pb3 2.344785 1_545
N0 Pb3 2.344785 1_555
N1 Pb4 2.318306 1_555
N1 Pb2 2.344785 1_555
N1 Pb2 2.344785 1_545
N2 Pb7 2.318306 1_555
N2 Pb1 2.344785 1_565
N2 Pb1 2.344785 1_555
N3 Pb6 2.318306 1_555
N3 Pb0 2.344785 1_555
N3 Pb0 2.344785 1_565
N4 Pb6 2.337277 1_555
N4 Pb6 2.337277 1_545
N4 Pb0 2.344399 1_555
N5 Pb7 2.337277 1_555
N5 Pb7 2.337277 1_545
N5 Pb1 2.344399 1_555
N6 Pb4 2.337277 1_555
N6 Pb4 2.337277 1_565
N6 Pb2 2.344399 1_555
N7 Pb5 2.337277 1_565
N7 Pb5 2.337277 1_555
N7 Pb3 2.344399 1_555
