# generated using pymatgen
data_Cs3Pr(MoO4)3
_symmetry_space_group_name_H-M   'P 1'
_cell_length_a   6.54947200
_cell_length_b   9.55722900
_cell_length_c   26.50951800
_cell_angle_alpha   90.00000000
_cell_angle_beta   90.00000000
_cell_angle_gamma   90.00000000
_symmetry_Int_Tables_number   1
_chemical_formula_structural   Cs3Pr(MoO4)3
_chemical_formula_sum   'Cs12 Pr4 Mo12 O48'
_cell_volume   1659.35807627
_cell_formula_units_Z   4
loop_
 _symmetry_equiv_pos_site_id
 _symmetry_equiv_pos_as_xyz
  1  'x, y, z'
loop_
 _atom_site_type_symbol
 _atom_site_label
 _atom_site_symmetry_multiplicity
 _atom_site_fract_x
 _atom_site_fract_y
 _atom_site_fract_z
 _atom_site_occupancy
  Cs  Cs0  1  0.25000000  0.52472800  0.09216900  1
  Cs  Cs1  1  0.75000000  0.47527200  0.90783100  1
  Cs  Cs2  1  0.75000000  0.97527200  0.59216900  1
  Cs  Cs3  1  0.25000000  0.02472800  0.40783100  1
  Cs  Cs4  1  0.25000000  0.60390200  0.67994100  1
  Cs  Cs5  1  0.75000000  0.39609800  0.32005900  1
  Cs  Cs6  1  0.75000000  0.89609800  0.17994100  1
  Cs  Cs7  1  0.25000000  0.10390200  0.82005900  1
  Cs  Cs8  1  0.25000000  0.68843400  0.25899600  1
  Cs  Cs9  1  0.75000000  0.31156600  0.74100400  1
  Cs  Cs10  1  0.75000000  0.81156600  0.75899600  1
  Cs  Cs11  1  0.25000000  0.18843400  0.24100400  1
  Pr  Pr0  1  0.25000000  0.81845400  0.95928300  1
  Pr  Pr1  1  0.75000000  0.18154600  0.04071700  1
  Pr  Pr2  1  0.75000000  0.68154600  0.45928300  1
  Pr  Pr3  1  0.25000000  0.31845400  0.54071700  1
  Mo  Mo0  1  0.25000000  0.61502600  0.82552100  1
  Mo  Mo1  1  0.75000000  0.38497400  0.17447900  1
  Mo  Mo2  1  0.75000000  0.88497400  0.32552100  1
  Mo  Mo3  1  0.25000000  0.11502600  0.67447900  1
  Mo  Mo4  1  0.25000000  0.75361800  0.52433300  1
  Mo  Mo5  1  0.75000000  0.24638200  0.47566700  1
  Mo  Mo6  1  0.75000000  0.74638200  0.02433300  1
  Mo  Mo7  1  0.25000000  0.25361800  0.97566700  1
  Mo  Mo8  1  0.25000000  0.98021200  0.09974700  1
  Mo  Mo9  1  0.75000000  0.01978800  0.90025300  1
  Mo  Mo10  1  0.75000000  0.51978800  0.59974700  1
  Mo  Mo11  1  0.25000000  0.48021200  0.40025300  1
  O  O0  1  0.25000000  0.77871200  0.79227000  1
  O  O1  1  0.75000000  0.22128800  0.20773000  1
  O  O2  1  0.75000000  0.72128800  0.29227000  1
  O  O3  1  0.25000000  0.27871200  0.70773000  1
  O  O4  1  0.25000000  0.84180800  0.05401500  1
  O  O5  1  0.75000000  0.15819200  0.94598500  1
  O  O6  1  0.75000000  0.65819200  0.55401500  1
  O  O7  1  0.25000000  0.34180800  0.44598500  1
  O  O8  1  0.25000000  0.64623200  0.89339700  1
  O  O9  1  0.75000000  0.35376800  0.10660300  1
  O  O10  1  0.75000000  0.85376800  0.39339700  1
  O  O11  1  0.25000000  0.14623200  0.60660300  1
  O  O12  1  0.25000000  0.80149700  0.58847800  1
  O  O13  1  0.75000000  0.19850300  0.41152200  1
  O  O14  1  0.75000000  0.69850300  0.08847800  1
  O  O15  1  0.25000000  0.30149700  0.91152200  1
  O  O16  1  0.52752900  0.67722300  0.99241100  1
  O  O17  1  0.47247100  0.32277700  0.00758900  1
  O  O18  1  0.47247100  0.82277700  0.49241100  1
  O  O19  1  0.02752900  0.32277700  0.00758900  1
  O  O20  1  0.52752900  0.17722300  0.50758900  1
  O  O21  1  0.97247100  0.67722300  0.99241100  1
  O  O22  1  0.97247100  0.17722300  0.50758900  1
  O  O23  1  0.02752900  0.82277700  0.49241100  1
  O  O24  1  0.25000000  0.56552000  0.51857000  1
  O  O25  1  0.75000000  0.43448000  0.48143000  1
  O  O26  1  0.75000000  0.93448000  0.01857000  1
  O  O27  1  0.25000000  0.06552000  0.98143000  1
  O  O28  1  0.52225300  0.91465900  0.90556300  1
  O  O29  1  0.47774700  0.08534100  0.09443700  1
  O  O30  1  0.47774700  0.58534100  0.40556300  1
  O  O31  1  0.02225300  0.08534100  0.09443700  1
  O  O32  1  0.52225300  0.41465900  0.59443700  1
  O  O33  1  0.97774700  0.91465900  0.90556300  1
  O  O34  1  0.97774700  0.41465900  0.59443700  1
  O  O35  1  0.02225300  0.58534100  0.40556300  1
  O  O36  1  0.02481900  0.52164500  0.80664900  1
  O  O37  1  0.97518100  0.47835500  0.19335100  1
  O  O38  1  0.97518100  0.97835500  0.30664900  1
  O  O39  1  0.52481900  0.47835500  0.19335100  1
  O  O40  1  0.02481900  0.02164500  0.69335100  1
  O  O41  1  0.47518100  0.52164500  0.80664900  1
  O  O42  1  0.47518100  0.02164500  0.69335100  1
  O  O43  1  0.52481900  0.97835500  0.30664900  1
  O  O44  1  0.25000000  0.90383200  0.16131200  1
  O  O45  1  0.75000000  0.09616800  0.83868800  1
  O  O46  1  0.75000000  0.59616800  0.66131200  1
  O  O47  1  0.25000000  0.40383200  0.33868800  1
loop_
_geom_bond_atom_site_label_1
_geom_bond_atom_site_label_2
_geom_bond_distance
_geom_bond_site_symmetry_2
Cs0 O4 3.194743 1_555
Cs0 O39 3.260490 1_555
Cs0 O37 3.260490 1_455
Cs0 O19 3.297825 1_555
Cs0 O17 3.297825 1_555
Cs0 O16 3.524428 1_554
Cs0 O21 3.524428 1_454
Cs0 O14 3.673112 1_555
Cs0 O14 3.673112 1_455
Cs0 O9 3.679667 1_455
Cs0 O9 3.679667 1_555
Cs1 O5 3.194743 1_555
Cs1 O36 3.260490 1_655
Cs1 O41 3.260490 1_555
Cs1 O16 3.297825 1_555
Cs1 O21 3.297825 1_555
Cs1 O19 3.524428 1_656
Cs1 O17 3.524428 1_556
Cs1 O15 3.673112 1_555
Cs1 O15 3.673112 1_655
Cs1 O8 3.679667 1_555
Cs1 O8 3.679667 1_655
Cs2 O6 3.194743 1_555
Cs2 O40 3.260490 1_665
Cs2 O42 3.260490 1_565
Cs2 O20 3.297825 1_565
Cs2 O22 3.297825 1_565
Cs2 O23 3.524428 1_655
Cs2 O18 3.524428 1_555
Cs2 O12 3.673112 1_555
Cs2 O12 3.673112 1_655
Cs2 O11 3.679667 1_565
Cs2 O11 3.679667 1_665
Cs3 O7 3.194743 1_555
Cs3 O43 3.260490 1_545
Cs3 O38 3.260490 1_445
Cs3 O23 3.297825 1_545
Cs3 O18 3.297825 1_545
Cs3 O20 3.524428 1_555
Cs3 O22 3.524428 1_455
Cs3 O13 3.673112 1_455
Cs3 O13 3.673112 1_555
Cs3 O10 3.679667 1_545
Cs3 O10 3.679667 1_445
Cs4 O12 3.073298 1_555
Cs4 O3 3.194030 1_555
Cs4 O46 3.312589 1_555
Cs4 O46 3.312589 1_455
Cs4 O34 3.404183 1_455
Cs4 O32 3.404183 1_555
Cs4 O0 3.414448 1_555
Cs5 O13 3.073298 1_555
Cs5 O2 3.194030 1_555
Cs5 O47 3.312589 1_555
Cs5 O47 3.312589 1_655
Cs5 O30 3.404183 1_555
Cs5 O35 3.404183 1_655
Cs5 O1 3.414448 1_555
Cs6 O14 3.073298 1_555
Cs6 O1 3.194030 1_565
Cs6 O44 3.312589 1_655
Cs6 O44 3.312589 1_555
Cs6 O31 3.404183 1_665
Cs6 O29 3.404183 1_565
Cs6 O2 3.414448 1_555
Cs7 O15 3.073298 1_555
Cs7 O0 3.194030 1_545
Cs7 O45 3.312589 1_455
Cs7 O45 3.312589 1_555
Cs7 O33 3.404183 1_445
Cs7 O28 3.404183 1_545
Cs7 O3 3.414448 1_555
Cs8 O39 3.209240 1_555
Cs8 O37 3.209240 1_455
Cs8 O44 3.308121 1_555
Cs8 O2 3.405958 1_455
Cs8 O2 3.405958 1_555
Cs8 O47 3.444053 1_555
Cs8 O38 3.537385 1_455
Cs8 O43 3.537385 1_555
Cs9 O36 3.209240 1_655
Cs9 O41 3.209240 1_555
Cs9 O45 3.308121 1_555
Cs9 O3 3.405958 1_655
Cs9 O3 3.405958 1_555
Cs9 O46 3.444053 1_555
Cs9 O40 3.537385 1_655
Cs9 O42 3.537385 1_555
Cs10 O40 3.209240 1_665
Cs10 O42 3.209240 1_565
Cs10 O46 3.308121 1_555
Cs10 O0 3.405958 1_655
Cs10 O0 3.405958 1_555
Cs10 O45 3.444053 1_565
Cs10 O36 3.537385 1_655
Cs10 O41 3.537385 1_555
Cs11 O43 3.209240 1_545
Cs11 O38 3.209240 1_445
Cs11 O47 3.308121 1_555
Cs11 O1 3.405958 1_555
Cs11 O1 3.405958 1_455
Cs11 O44 3.444053 1_545
Cs11 O39 3.537385 1_555
Cs11 O37 3.537385 1_455
Mo0 O36 1.794955 1_555
Mo0 O41 1.794955 1_555
Mo0 O0 1.795629 1_555
Mo0 O8 1.823909 1_555
Mo1 O39 1.794955 1_555
Mo1 O37 1.794955 1_555
Mo1 O1 1.795629 1_555
Mo1 O9 1.823909 1_555
Mo2 O43 1.794955 1_555
Mo2 O38 1.794955 1_555
Mo2 O2 1.795629 1_555
Mo2 O10 1.823909 1_555
Mo3 O40 1.794955 1_555
Mo3 O42 1.794955 1_555
Mo3 O3 1.795629 1_555
Mo3 O11 1.823909 1_555
Mo4 O12 1.760946 1_555
Mo4 O24 1.804176 1_555
Mo4 O23 1.809984 1_555
Mo4 O18 1.809984 1_555
Mo5 O13 1.760946 1_555
Mo5 O25 1.804176 1_555
Mo5 O22 1.809984 1_555
Mo5 O20 1.809984 1_555
Mo6 O14 1.760946 1_555
Mo6 O26 1.804176 1_555
Mo6 O16 1.809984 1_554
Mo6 O21 1.809984 1_554
Mo7 O15 1.760946 1_555
Mo7 O27 1.804176 1_555
Mo7 O19 1.809984 1_556
Mo7 O17 1.809984 1_556
Mo8 O44 1.787872 1_555
Mo8 O4 1.794281 1_555
Mo8 O29 1.803957 1_565
Mo8 O31 1.803957 1_565
Mo9 O45 1.787872 1_555
Mo9 O5 1.794281 1_555
Mo9 O33 1.803957 1_545
Mo9 O28 1.803957 1_545
Mo10 O46 1.787872 1_555
Mo10 O6 1.794281 1_555
Mo10 O32 1.803957 1_555
Mo10 O34 1.803957 1_555
Mo11 O47 1.787872 1_555
Mo11 O7 1.794281 1_555
Mo11 O35 1.803957 1_555
Mo11 O30 1.803957 1_555
O4 Pr0 2.521199 1_554
O5 Pr1 2.521199 1_556
O6 Pr2 2.521199 1_555
O7 Pr3 2.521199 1_555
O8 Pr0 2.399965 1_555
O9 Pr1 2.399965 1_555
O10 Pr2 2.399965 1_555
O11 Pr3 2.399965 1_555
O16 Pr0 2.428387 1_555
O17 Pr1 2.428387 1_555
O18 Pr2 2.428387 1_555
O19 Pr1 2.428387 1_455
O20 Pr3 2.428387 1_555
O21 Pr0 2.428387 1_655
O22 Pr3 2.428387 1_655
O23 Pr2 2.428387 1_455
O24 Pr3 2.433161 1_555
O25 Pr2 2.433161 1_555
O26 Pr1 2.433161 1_565
O27 Pr0 2.433161 1_545
O28 Pr0 2.460269 1_555
O29 Pr1 2.460269 1_555
O30 Pr2 2.460269 1_555
O31 Pr1 2.460269 1_455
O32 Pr3 2.460269 1_555
O33 Pr0 2.460269 1_655
O34 Pr3 2.460269 1_655
O35 Pr2 2.460269 1_455
