# generated using pymatgen
data_Bi3P
_symmetry_space_group_name_H-M   'P 1'
_cell_length_a   6.99719867
_cell_length_b   6.99719867
_cell_length_c   5.21240400
_cell_angle_alpha   90.00000000
_cell_angle_beta   90.00000000
_cell_angle_gamma   120.00000636
_symmetry_Int_Tables_number   1
_chemical_formula_structural   Bi3P
_chemical_formula_sum   'Bi6 P2'
_cell_volume   221.01262532
_cell_formula_units_Z   2
loop_
 _symmetry_equiv_pos_site_id
 _symmetry_equiv_pos_as_xyz
  1  'x, y, z'
loop_
 _atom_site_type_symbol
 _atom_site_label
 _atom_site_symmetry_multiplicity
 _atom_site_fract_x
 _atom_site_fract_y
 _atom_site_fract_z
 _atom_site_occupancy
  Bi  Bi0  1  0.82089400  0.17910600  0.75000000  1
  Bi  Bi1  1  0.35821100  0.17910600  0.75000000  1
  Bi  Bi2  1  0.82089400  0.64178900  0.75000000  1
  Bi  Bi3  1  0.17910600  0.82089400  0.25000000  1
  Bi  Bi4  1  0.64178900  0.82089400  0.25000000  1
  Bi  Bi5  1  0.17910600  0.35821100  0.25000000  1
  P  P0  1  0.66666700  0.33333300  0.25000000  1
  P  P1  1  0.33333300  0.66666700  0.75000000  1
loop_
_geom_bond_atom_site_label_1
_geom_bond_atom_site_label_2
_geom_bond_distance
_geom_bond_site_symmetry_2
Bi0 P0 3.207184 1_555
Bi0 P0 3.207184 1_556
Bi0 Bi1 3.237485 1_555
Bi0 Bi2 3.237485 1_555
Bi0 Bi4 3.391773 1_546
Bi0 Bi4 3.391773 1_545
Bi0 Bi5 3.391773 1_655
Bi0 Bi5 3.391773 1_656
Bi1 P0 3.207191 1_556
Bi1 P0 3.207191 1_555
Bi1 Bi2 3.237485 1_555
Bi1 Bi5 3.391765 1_555
Bi1 Bi5 3.391765 1_556
Bi1 Bi3 3.391773 1_545
Bi1 Bi3 3.391773 1_546
Bi2 P0 3.207191 1_555
Bi2 P0 3.207191 1_556
Bi2 Bi4 3.391765 1_555
Bi2 Bi4 3.391765 1_556
Bi2 Bi3 3.391773 1_656
Bi2 Bi3 3.391773 1_655
Bi3 P1 3.207184 1_554
Bi3 P1 3.207184 1_555
Bi3 Bi5 3.237485 1_555
Bi3 Bi4 3.237485 1_555
Bi4 P1 3.207191 1_555
Bi4 P1 3.207191 1_554
Bi4 Bi5 3.237485 1_555
Bi5 P1 3.207191 1_554
Bi5 P1 3.207191 1_555
