# generated using pymatgen
data_Te2Mo3WS6
_symmetry_space_group_name_H-M   'P 1'
_cell_length_a   3.27759565
_cell_length_b   3.27759565
_cell_length_c   36.41468300
_cell_angle_alpha   90.00000000
_cell_angle_beta   90.00000000
_cell_angle_gamma   119.99999302
_symmetry_Int_Tables_number   1
_chemical_formula_structural   Te2Mo3WS6
_chemical_formula_sum   'Te2 Mo3 W1 S6'
_cell_volume   338.78014230
_cell_formula_units_Z   1
loop_
 _symmetry_equiv_pos_site_id
 _symmetry_equiv_pos_as_xyz
  1  'x, y, z'
loop_
 _atom_site_type_symbol
 _atom_site_label
 _atom_site_symmetry_multiplicity
 _atom_site_fract_x
 _atom_site_fract_y
 _atom_site_fract_z
 _atom_site_occupancy
  Te  Te0  1  0.33333300  0.66666700  0.71079300  1
  Te  Te1  1  0.33333300  0.66666700  0.60441000  1
  Mo  Mo0  1  0.33333300  0.66666700  0.09393800  1
  Mo  Mo1  1  0.33333300  0.66666700  0.46957000  1
  Mo  Mo2  1  0.66666700  0.33333300  0.28182200  1
  W  W0  1  0.66666700  0.33333300  0.65763000  1
  S  S0  1  0.33333300  0.66666700  0.32399200  1
  S  S1  1  0.66666700  0.33333300  0.05170000  1
  S  S2  1  0.66666700  0.33333300  0.42742800  1
  S  S3  1  0.66666700  0.33333300  0.13614900  1
  S  S4  1  0.66666700  0.33333300  0.51174800  1
  S  S5  1  0.33333300  0.66666700  0.23956600  1
loop_
_geom_bond_atom_site_label_1
_geom_bond_atom_site_label_2
_geom_bond_distance
_geom_bond_site_symmetry_2
Te0 W0 2.707145 1_455
Te0 W0 2.707145 1_565
Te0 W0 2.707149 1_555
Te1 W0 2.708630 1_455
Te1 W0 2.708630 1_565
Te1 W0 2.708633 1_555
Mo0 S3 2.437939 1_455
Mo0 S3 2.437939 1_565
Mo0 S3 2.437944 1_555
Mo0 S1 2.438559 1_455
Mo0 S1 2.438559 1_565
Mo0 S1 2.438564 1_555
Mo1 S2 2.436356 1_455
Mo1 S2 2.436356 1_565
Mo1 S2 2.436360 1_555
Mo1 S4 2.437182 1_455
Mo1 S4 2.437182 1_565
Mo1 S4 2.437186 1_555
Mo2 S0 2.436998 1_545
Mo2 S0 2.436998 1_655
Mo2 S0 2.437003 1_555
Mo2 S5 2.438973 1_545
Mo2 S5 2.438973 1_655
Mo2 S5 2.438977 1_555
