# generated using pymatgen
data_Li3CN2
_symmetry_space_group_name_H-M   'P 1'
_cell_length_a   5.04148459
_cell_length_b   6.82697600
_cell_length_c   6.85735050
_cell_angle_alpha   90.00000000
_cell_angle_beta   112.24083100
_cell_angle_gamma   90.00000000
_symmetry_Int_Tables_number   1
_chemical_formula_structural   Li3CN2
_chemical_formula_sum   'Li12 C4 N8'
_cell_volume   218.45753283
_cell_formula_units_Z   4
loop_
 _symmetry_equiv_pos_site_id
 _symmetry_equiv_pos_as_xyz
  1  'x, y, z'
loop_
 _atom_site_type_symbol
 _atom_site_label
 _atom_site_symmetry_multiplicity
 _atom_site_fract_x
 _atom_site_fract_y
 _atom_site_fract_z
 _atom_site_occupancy
  Li  Li0  1  0.25281400  0.02631100  0.99698400  1
  Li  Li1  1  0.74718600  0.52631100  0.50301600  1
  Li  Li2  1  0.74718600  0.97368900  0.00301600  1
  Li  Li3  1  0.25281400  0.47368900  0.49698400  1
  Li  Li4  1  0.25223300  0.48542900  0.87210700  1
  Li  Li5  1  0.74776700  0.98542900  0.62789300  1
  Li  Li6  1  0.74776700  0.51457100  0.12789300  1
  Li  Li7  1  0.25223300  0.01457100  0.37210700  1
  Li  Li8  1  0.75391600  0.30278300  0.82281600  1
  Li  Li9  1  0.24608400  0.80278300  0.67718400  1
  Li  Li10  1  0.24608400  0.69721700  0.17718400  1
  Li  Li11  1  0.75391600  0.19721700  0.32281600  1
  C  C0  1  0.16048000  0.13808200  0.63190800  1
  C  C1  1  0.83951900  0.63808200  0.86809200  1
  C  C2  1  0.83951900  0.86191800  0.36809200  1
  C  C3  1  0.16048000  0.36191800  0.13190800  1
  N  N0  1  0.42587400  0.07551800  0.72065700  1
  N  N1  1  0.57412600  0.57551800  0.77934300  1
  N  N2  1  0.57412600  0.92448200  0.27934300  1
  N  N3  1  0.42587400  0.42448200  0.22065700  1
  N  N4  1  0.00141900  0.29020400  0.62907500  1
  N  N5  1  0.99858100  0.79020400  0.87092500  1
  N  N6  1  0.99858100  0.70979600  0.37092500  1
  N  N7  1  0.00141900  0.20979600  0.12907500  1
loop_
_geom_bond_atom_site_label_1
_geom_bond_atom_site_label_2
_geom_bond_distance
_geom_bond_site_symmetry_2
Li0 N5 2.037036 1_445
Li0 N2 2.117074 1_546
Li0 N7 2.205662 1_556
Li0 N0 2.390839 1_555
Li1 N4 2.037036 1_655
Li1 N3 2.117074 1_555
Li1 N6 2.205662 1_555
Li1 N1 2.390839 1_555
Li2 N7 2.037036 1_665
Li2 N0 2.117074 1_564
Li2 N5 2.205662 1_554
Li2 N2 2.390839 1_555
Li3 N6 2.037036 1_455
Li3 N1 2.117074 1_555
Li3 N4 2.205662 1_555
Li3 N3 2.390839 1_555
Li4 N1 2.048879 1_555
Li4 N4 2.134809 1_555
Li4 N3 2.251284 1_556
Li4 N5 2.440652 1_455
Li5 N0 2.048879 1_565
Li5 N5 2.134809 1_555
Li5 N2 2.251284 1_555
Li5 N4 2.440652 1_665
Li6 N3 2.048879 1_555
Li6 N6 2.134809 1_555
Li6 N1 2.251284 1_554
Li6 N7 2.440652 1_655
Li7 N2 2.048879 1_545
Li7 N7 2.134809 1_555
Li7 N0 2.251284 1_555
Li7 N6 2.440652 1_445
Li8 N1 2.042737 1_555
Li8 N7 2.094460 1_656
Li8 N4 2.141096 1_655
Li8 N0 2.180846 1_555
Li9 N0 2.042737 1_565
Li9 N6 2.094460 1_455
Li9 N5 2.141096 1_455
Li9 N1 2.180846 1_555
Li10 N3 2.042737 1_555
Li10 N5 2.094460 1_454
Li10 N6 2.141096 1_455
Li10 N2 2.180846 1_555
Li11 N2 2.042737 1_545
Li11 N4 2.094460 1_655
Li11 N7 2.141096 1_655
Li11 N3 2.180846 1_555
C0 N4 1.307740 1_555
C0 N0 1.313999 1_555
C0 Li7 2.173181 1_555
C0 Li5 2.317918 1_445
C1 N5 1.307744 1_555
C1 N1 1.313994 1_555
C1 Li6 2.173179 1_556
C1 Li4 2.317922 1_655
C2 N6 1.307744 1_555
C2 N2 1.313994 1_555
C2 Li5 2.173179 1_555
C2 Li7 2.317922 1_665
C3 N7 1.307740 1_555
C3 N3 1.313999 1_555
C3 Li4 2.173181 1_554
C3 Li6 2.317918 1_455
