# generated using pymatgen
data_SmY3Fe34
_symmetry_space_group_name_H-M   'P 1'
_cell_length_a   8.26837500
_cell_length_b   8.52270100
_cell_length_c   8.52378071
_cell_angle_alpha   60.00418625
_cell_angle_beta   90.00000000
_cell_angle_gamma   90.00000000
_symmetry_Int_Tables_number   1
_chemical_formula_structural   SmY3Fe34
_chemical_formula_sum   'Sm1 Y3 Fe34'
_cell_volume   520.20992754
_cell_formula_units_Z   1
loop_
 _symmetry_equiv_pos_site_id
 _symmetry_equiv_pos_as_xyz
  1  'x, y, z'
loop_
 _atom_site_type_symbol
 _atom_site_label
 _atom_site_symmetry_multiplicity
 _atom_site_fract_x
 _atom_site_fract_y
 _atom_site_fract_z
 _atom_site_occupancy
  Sm  Sm0  1  0.25000000  0.66667900  0.66664100  1
  Y  Y0  1  0.75000000  0.33335600  0.33328900  1
  Y  Y1  1  0.75000000  0.99998800  0.00002300  1
  Y  Y2  1  0.25000000  0.99995300  0.00009500  1
  Fe  Fe0  1  0.60745800  0.66667300  0.66665300  1
  Fe  Fe1  1  0.39293000  0.33332200  0.33335600  1
  Fe  Fe2  1  0.10707000  0.33332200  0.33335600  1
  Fe  Fe3  1  0.89254200  0.66667300  0.66665300  1
  Fe  Fe4  1  0.48637300  0.83431600  0.83436200  1
  Fe  Fe5  1  0.48633100  0.83434500  0.33131100  1
  Fe  Fe6  1  0.48637300  0.33132200  0.83436200  1
  Fe  Fe7  1  0.51510700  0.16618500  0.16613700  1
  Fe  Fe8  1  0.51506600  0.16615300  0.66769300  1
  Fe  Fe9  1  0.51510700  0.66767800  0.16613700  1
  Fe  Fe10  1  0.98489300  0.16618500  0.16613700  1
  Fe  Fe11  1  0.98493400  0.16615300  0.66769300  1
  Fe  Fe12  1  0.98489300  0.66767800  0.16613700  1
  Fe  Fe13  1  0.01362700  0.83431600  0.83436200  1
  Fe  Fe14  1  0.01366900  0.83434500  0.33131100  1
  Fe  Fe15  1  0.01362700  0.33132200  0.83436200  1
  Fe  Fe16  1  0.50063900  0.49950300  0.49950000  1
  Fe  Fe17  1  0.50063800  0.49949700  0.00100600  1
  Fe  Fe18  1  0.50063900  0.00099700  0.49950000  1
  Fe  Fe19  1  0.99936100  0.49950300  0.49950000  1
  Fe  Fe20  1  0.99936200  0.49949700  0.00100600  1
  Fe  Fe21  1  0.99936100  0.00099700  0.49950000  1
  Fe  Fe22  1  0.75000000  0.67069800  0.36827700  1
  Fe  Fe23  1  0.75000000  0.36830200  0.96098900  1
  Fe  Fe24  1  0.75000000  0.96109500  0.67072500  1
  Fe  Fe25  1  0.75000000  0.36818000  0.67072500  1
  Fe  Fe26  1  0.75000000  0.96102500  0.36827700  1
  Fe  Fe27  1  0.75000000  0.67070800  0.96098900  1
  Fe  Fe28  1  0.25000000  0.32869700  0.63156400  1
  Fe  Fe29  1  0.25000000  0.63154700  0.03974500  1
  Fe  Fe30  1  0.25000000  0.03984700  0.32865900  1
  Fe  Fe31  1  0.25000000  0.63149400  0.32865900  1
  Fe  Fe32  1  0.25000000  0.03974000  0.63156400  1
  Fe  Fe33  1  0.25000000  0.32870800  0.03974500  1
loop_
_geom_bond_atom_site_label_1
_geom_bond_atom_site_label_2
_geom_bond_distance
_geom_bond_site_symmetry_2
Fe0 Fe3 2.357181 1_555
Fe0 Fe16 2.620997 1_555
Fe0 Fe18 2.621003 1_565
Fe0 Fe17 2.621502 1_556
Fe0 Fe6 2.670095 1_555
Fe0 Fe4 2.670102 1_555
Fe0 Fe5 2.670454 1_555
Fe0 Fe23 2.787630 1_555
Fe0 Fe27 2.787630 1_555
Fe0 Fe22 2.787714 1_555
Fe0 Fe26 2.787718 1_555
Fe0 Fe25 2.788146 1_555
Fe0 Fe24 2.788154 1_555
Fe0 Sm0 2.955597 1_555
Fe1 Fe2 2.363598 1_555
Fe1 Fe18 2.609618 1_555
Fe1 Fe16 2.609619 1_555
Fe1 Fe17 2.610081 1_555
Fe1 Fe9 2.666695 1_555
Fe1 Fe7 2.666695 1_555
Fe1 Fe8 2.666726 1_555
Fe1 Fe31 2.784668 1_555
Fe1 Fe30 2.784668 1_555
Fe1 Fe32 2.785507 1_555
Fe1 Fe28 2.785511 1_555
Fe1 Fe29 2.785674 1_555
Fe1 Fe33 2.785675 1_555
Fe1 Y0 2.952389 1_555
Fe2 Fe21 2.609618 1_455
Fe2 Fe20 2.610081 1_455
Fe2 Fe31 2.784668 1_555
Fe2 Fe30 2.784668 1_555
Fe2 Fe32 2.785507 1_555
Fe2 Fe28 2.785511 1_555
Fe2 Fe29 2.785674 1_555
Fe2 Fe33 2.785675 1_555
Fe2 Y0 2.952389 1_455
Fe3 Sm0 2.955597 1_655
Fe4 Fe9 2.460708 1_556
Fe4 Fe8 2.460823 1_565
Fe4 Y2 3.130848 1_556
Fe4 Sm0 3.153898 1_555
Fe4 Y1 3.276049 1_556
Fe5 Fe7 2.460909 1_565
Fe5 Fe9 2.460917 1_555
Fe5 Y2 3.129985 1_555
Fe5 Sm0 3.153766 1_555
Fe5 Y1 3.276263 1_555
Fe6 Fe7 2.460708 1_556
Fe6 Fe8 2.460831 1_555
Fe6 Y2 3.130842 1_546
Fe6 Sm0 3.153892 1_555
Fe6 Y1 3.276054 1_546
Fe7 Y1 3.128666 1_545
Fe7 Y0 3.140322 1_555
Fe7 Y2 3.289379 1_545
Fe8 Y1 3.129229 1_546
Fe8 Y0 3.141247 1_555
Fe8 Y2 3.290089 1_546
Fe9 Y1 3.128660 1_555
Fe9 Y0 3.140316 1_555
Fe9 Y2 3.289384 1_555
Fe10 Fe15 2.460708 1_654
Fe10 Fe14 2.460909 1_645
Fe10 Fe20 2.463178 1_555
Fe10 Fe21 2.463865 1_555
Fe10 Fe30 2.528219 1_655
Fe10 Fe33 2.528254 1_655
Fe10 Fe23 2.604862 1_554
Fe10 Fe26 2.604957 1_545
Fe10 Fe2 2.666695 1_655
Fe10 Y1 3.128666 1_545
Fe10 Y0 3.140322 1_555
Fe10 Y2 3.289379 1_645
Fe11 Fe13 2.460823 1_645
Fe11 Fe15 2.460831 1_655
Fe11 Fe21 2.463437 1_555
Fe11 Fe19 2.463444 1_555
Fe11 Fe32 2.527988 1_655
Fe11 Fe28 2.527996 1_655
Fe11 Fe24 2.604453 1_545
Fe11 Fe25 2.604458 1_555
Fe11 Fe2 2.666726 1_655
Fe11 Y1 3.129229 1_546
Fe11 Y0 3.141247 1_555
Fe11 Y2 3.290089 1_646
Fe12 Fe13 2.460708 1_654
Fe12 Fe14 2.460917 1_655
Fe12 Fe20 2.463178 1_555
Fe12 Fe19 2.463865 1_555
Fe12 Fe31 2.528219 1_655
Fe12 Fe29 2.528254 1_655
Fe12 Fe27 2.604865 1_554
Fe12 Fe22 2.604957 1_555
Fe12 Fe2 2.666695 1_655
Fe12 Y1 3.128660 1_555
Fe12 Y0 3.140316 1_555
Fe12 Y2 3.289384 1_655
Fe13 Fe20 2.474182 1_456
Fe13 Fe21 2.474813 1_465
Fe13 Fe27 2.521079 1_455
Fe13 Fe24 2.521398 1_455
Fe13 Fe29 2.616486 1_556
Fe13 Fe32 2.616681 1_565
Fe13 Fe3 2.670102 1_455
Fe13 Y2 3.130848 1_556
Fe13 Sm0 3.153898 1_555
Fe13 Y1 3.276049 1_456
Fe14 Fe21 2.474364 1_465
Fe14 Fe19 2.474371 1_455
Fe14 Fe26 2.521504 1_455
Fe14 Fe22 2.521508 1_455
Fe14 Fe30 2.616647 1_565
Fe14 Fe31 2.616653 1_555
Fe14 Fe3 2.670454 1_455
Fe14 Y2 3.129985 1_555
Fe14 Sm0 3.153766 1_555
Fe14 Y1 3.276263 1_455
Fe15 Fe20 2.474182 1_456
Fe15 Fe19 2.474813 1_455
Fe15 Fe23 2.521076 1_455
Fe15 Fe25 2.521398 1_455
Fe15 Fe33 2.616486 1_556
Fe15 Fe28 2.616678 1_555
Fe15 Fe3 2.670095 1_455
Fe15 Y2 3.130842 1_546
Fe15 Sm0 3.153892 1_555
Fe15 Y1 3.276054 1_446
Fe16 Fe22 2.449325 1_555
Fe16 Fe25 2.449599 1_555
Fe16 Fe28 2.458165 1_555
Fe16 Fe31 2.458217 1_555
Fe16 Fe8 2.463444 1_555
Fe16 Fe9 2.463865 1_555
Fe16 Fe5 2.474371 1_555
Fe16 Fe6 2.474813 1_555
Fe16 Y0 3.204565 1_555
Fe16 Sm0 3.222433 1_555
Fe17 Fe27 2.449284 1_554
Fe17 Fe23 2.449288 1_554
Fe17 Fe33 2.458026 1_555
Fe17 Fe29 2.458026 1_555
Fe17 Fe7 2.463178 1_555
Fe17 Fe9 2.463178 1_555
Fe17 Fe4 2.474182 1_554
Fe17 Fe6 2.474182 1_554
Fe17 Y0 3.204384 1_555
Fe17 Sm0 3.222939 1_554
Fe18 Fe26 2.449325 1_545
Fe18 Fe24 2.449599 1_545
Fe18 Fe32 2.458168 1_555
Fe18 Fe30 2.458217 1_555
Fe18 Fe8 2.463437 1_555
Fe18 Fe7 2.463865 1_555
Fe18 Fe5 2.474364 1_545
Fe18 Fe4 2.474813 1_545
Fe18 Y0 3.204570 1_555
Fe18 Sm0 3.222439 1_545
Fe19 Fe22 2.449325 1_555
Fe19 Fe25 2.449599 1_555
Fe19 Fe28 2.458165 1_655
Fe19 Fe31 2.458217 1_655
Fe19 Fe2 2.609619 1_655
Fe19 Fe3 2.620997 1_555
Fe19 Y0 3.204565 1_555
Fe19 Sm0 3.222433 1_655
Fe20 Fe27 2.449284 1_554
Fe20 Fe23 2.449288 1_554
Fe20 Fe33 2.458026 1_655
Fe20 Fe29 2.458026 1_655
Fe20 Fe3 2.621502 1_554
Fe20 Y0 3.204384 1_555
Fe20 Sm0 3.222939 1_654
Fe21 Fe26 2.449325 1_545
Fe21 Fe24 2.449599 1_545
Fe21 Fe32 2.458168 1_655
Fe21 Fe30 2.458217 1_655
Fe21 Fe3 2.621003 1_545
Fe21 Y0 3.204570 1_555
Fe21 Sm0 3.222439 1_645
Fe22 Fe26 2.474370 1_555
Fe22 Fe5 2.521508 1_555
Fe22 Fe25 2.578299 1_555
Fe22 Fe9 2.604957 1_555
Fe22 Fe3 2.787714 1_555
Fe22 Y1 2.986777 1_555
Fe22 Y0 3.035171 1_555
Fe23 Fe25 2.474667 1_555
Fe23 Fe6 2.521076 1_555
Fe23 Fe27 2.577316 1_555
Fe23 Fe7 2.604862 1_556
Fe23 Fe3 2.787630 1_555
Fe23 Y1 2.986626 1_546
Fe23 Y0 3.035485 1_556
Fe24 Fe27 2.474671 1_555
Fe24 Fe4 2.521398 1_555
Fe24 Fe26 2.578299 1_555
Fe24 Fe8 2.604453 1_565
Fe24 Fe3 2.788154 1_555
Fe24 Y1 2.986410 1_556
Fe24 Y0 3.035516 1_565
Fe25 Fe6 2.521398 1_555
Fe25 Fe8 2.604458 1_555
Fe25 Fe3 2.788146 1_555
Fe25 Y1 2.986414 1_546
Fe25 Y0 3.035512 1_555
Fe26 Fe5 2.521504 1_555
Fe26 Fe7 2.604957 1_565
Fe26 Fe3 2.787718 1_555
Fe26 Y1 2.986781 1_555
Fe26 Y0 3.035179 1_565
Fe27 Fe4 2.521079 1_555
Fe27 Fe9 2.604865 1_556
Fe27 Fe3 2.787630 1_555
Fe27 Y1 2.986626 1_556
Fe27 Y0 3.035477 1_556
Fe28 Fe32 2.462694 1_555
Fe28 Fe8 2.527996 1_555
Fe28 Fe31 2.581436 1_555
Fe28 Fe6 2.616678 1_555
Fe28 Y2 2.986228 1_546
Fe28 Sm0 3.041039 1_555
Fe29 Fe31 2.462414 1_555
Fe29 Fe9 2.528254 1_555
Fe29 Fe33 2.581006 1_555
Fe29 Fe4 2.616486 1_554
Fe29 Y2 2.985236 1_555
Fe29 Sm0 3.041640 1_554
Fe30 Fe33 2.462414 1_555
Fe30 Fe7 2.528219 1_555
Fe30 Fe32 2.581440 1_555
Fe30 Fe5 2.616647 1_545
Fe30 Y2 2.985147 1_545
Fe30 Sm0 3.041912 1_545
Fe31 Fe9 2.528219 1_555
Fe31 Fe5 2.616653 1_555
Fe31 Y2 2.985152 1_555
Fe31 Sm0 3.041908 1_555
Fe32 Fe8 2.527988 1_555
Fe32 Fe4 2.616681 1_545
Fe32 Y2 2.986228 1_546
Fe32 Sm0 3.041056 1_545
Fe33 Fe7 2.528254 1_555
Fe33 Fe6 2.616486 1_554
Fe33 Y2 2.985227 1_545
Fe33 Sm0 3.041636 1_554
