# generated using pymatgen
data_DyTl(WO4)2
_symmetry_space_group_name_H-M   'P 1'
_cell_length_a   7.64160071
_cell_length_b   7.64160071
_cell_length_c   7.46694659
_cell_angle_alpha   62.49395966
_cell_angle_beta   62.49395966
_cell_angle_gamma   88.61936742
_symmetry_Int_Tables_number   1
_chemical_formula_structural   DyTl(WO4)2
_chemical_formula_sum   'Dy2 Tl2 W4 O16'
_cell_volume   332.95372487
_cell_formula_units_Z   2
loop_
 _symmetry_equiv_pos_site_id
 _symmetry_equiv_pos_as_xyz
  1  'x, y, z'
loop_
 _atom_site_type_symbol
 _atom_site_label
 _atom_site_symmetry_multiplicity
 _atom_site_fract_x
 _atom_site_fract_y
 _atom_site_fract_z
 _atom_site_occupancy
  Dy  Dy0  1  0.77608400  0.22391600  0.75000000  1
  Dy  Dy1  1  0.22391600  0.77608400  0.25000000  1
  Tl  Tl0  1  0.20486000  0.79514000  0.75000000  1
  Tl  Tl1  1  0.79514000  0.20486000  0.25000000  1
  W  W0  1  0.70086400  0.68955400  0.78211900  1
  W  W1  1  0.29913600  0.31044600  0.21788100  1
  W  W2  1  0.31044600  0.29913600  0.71788100  1
  W  W3  1  0.68955400  0.70086400  0.28211900  1
  O  O0  1  0.62031400  0.75476800  0.55814900  1
  O  O1  1  0.37968600  0.24523200  0.44185100  1
  O  O2  1  0.24523200  0.37968600  0.94185100  1
  O  O3  1  0.75476800  0.62031400  0.05814900  1
  O  O4  1  0.37511700  0.06251700  0.87706200  1
  O  O5  1  0.62488300  0.93748300  0.12293800  1
  O  O6  1  0.93748300  0.62488300  0.62293800  1
  O  O7  1  0.06251700  0.37511700  0.37706200  1
  O  O8  1  0.58984200  0.37020700  0.96608500  1
  O  O9  1  0.41015800  0.62979300  0.03391500  1
  O  O10  1  0.62979300  0.41015800  0.53391500  1
  O  O11  1  0.37020700  0.58984200  0.46608500  1
  O  O12  1  0.78329700  0.95462100  0.69047000  1
  O  O13  1  0.21670300  0.04537900  0.30953000  1
  O  O14  1  0.04537900  0.21670300  0.80953000  1
  O  O15  1  0.95462100  0.78329700  0.19047000  1
loop_
_geom_bond_atom_site_label_1
_geom_bond_atom_site_label_2
_geom_bond_distance
_geom_bond_site_symmetry_2
Dy0 O14 2.291762 1_655
Dy0 O12 2.291762 1_545
Dy0 O10 2.312329 1_555
Dy0 O8 2.312329 1_555
Dy0 O5 2.323865 1_546
Dy0 O7 2.323865 1_655
Dy1 O13 2.291762 1_565
Dy1 O15 2.291762 1_455
Dy1 O11 2.312329 1_555
Dy1 O9 2.312329 1_555
Dy1 O6 2.323865 1_455
Dy1 O4 2.323865 1_564
O0 W0 1.894808 1_555
O0 W3 2.112853 1_555
O1 W1 1.894808 1_555
O1 W2 2.112853 1_555
O2 W2 1.894808 1_555
O2 W1 2.112853 1_556
O3 W3 1.894808 1_555
O3 W0 2.112853 1_554
O4 W2 1.854925 1_555
O5 W3 1.854925 1_555
O6 W0 1.854925 1_555
O7 W1 1.854925 1_555
O8 W1 2.018975 1_556
O8 W0 2.118687 1_555
O9 W0 2.018975 1_554
O9 W1 2.118687 1_555
O10 W3 2.018975 1_555
O10 W2 2.118687 1_555
O11 W2 2.018975 1_555
O11 W3 2.118687 1_555
O12 W0 1.830534 1_555
O13 W1 1.830534 1_555
O14 W2 1.830534 1_555
O15 W3 1.830534 1_555
