# generated using pymatgen
data_BaPS3
_symmetry_space_group_name_H-M   'P 1'
_cell_length_a   7.83000695
_cell_length_b   6.80542891
_cell_length_c   11.99680662
_cell_angle_alpha   56.64821983
_cell_angle_beta   90.00000000
_cell_angle_gamma   90.00000000
_symmetry_Int_Tables_number   1
_chemical_formula_structural   BaPS3
_chemical_formula_sum   'Ba4 P4 S12'
_cell_volume   533.98791652
_cell_formula_units_Z   4
loop_
 _symmetry_equiv_pos_site_id
 _symmetry_equiv_pos_as_xyz
  1  'x, y, z'
loop_
 _atom_site_type_symbol
 _atom_site_label
 _atom_site_symmetry_multiplicity
 _atom_site_fract_x
 _atom_site_fract_y
 _atom_site_fract_z
 _atom_site_occupancy
  Ba  Ba0  1  0.90049377  0.70248812  0.75357155  1
  Ba  Ba1  1  0.40049377  0.29751188  0.74642845  1
  Ba  Ba2  1  0.09950623  0.29751188  0.24642845  1
  Ba  Ba3  1  0.59950623  0.70248812  0.25357155  1
  P  P0  1  0.89068001  0.38714226  0.56209659  1
  P  P1  1  0.39068001  0.61285774  0.93790341  1
  P  P2  1  0.10931999  0.61285774  0.43790341  1
  P  P3  1  0.60931999  0.38714226  0.06209659  1
  S  S0  1  0.51953291  0.18126686  0.24973752  1
  S  S1  1  0.01953291  0.81873314  0.25026248  1
  S  S2  1  0.48046709  0.81873314  0.75026248  1
  S  S3  1  0.98046709  0.18126686  0.74973752  1
  S  S4  1  0.69002481  0.21537157  0.97793697  1
  S  S5  1  0.19002481  0.78462843  0.52206303  1
  S  S6  1  0.30997519  0.78462843  0.02206303  1
  S  S7  1  0.80997519  0.21537157  0.47793697  1
  S  S8  1  0.78827382  0.61855479  0.04343420  1
  S  S9  1  0.28827382  0.38144521  0.45656580  1
  S  S10  1  0.21172618  0.38144521  0.95656580  1
  S  S11  1  0.71172618  0.61855479  0.54343420  1
loop_
_geom_bond_atom_site_label_1
_geom_bond_atom_site_label_2
_geom_bond_distance
_geom_bond_site_symmetry_2
Ba0 S11 3.232581 1_555
Ba0 S10 3.285185 1_655
Ba0 S3 3.293315 1_565
Ba0 S7 3.305876 1_565
Ba0 S8 3.317648 1_556
Ba0 S4 3.337522 1_555
Ba0 S2 3.377745 1_555
Ba0 S5 3.385047 1_655
Ba0 S3 3.627091 1_555
Ba1 S10 3.232581 1_555
Ba1 S11 3.285185 1_555
Ba1 S2 3.293315 1_545
Ba1 S6 3.305876 1_546
Ba1 S9 3.317648 1_555
Ba1 S5 3.337522 1_555
Ba1 S3 3.377745 1_455
Ba1 S4 3.385047 1_555
Ba1 S2 3.627091 1_555
Ba2 S9 3.232581 1_555
Ba2 S8 3.285185 1_455
Ba2 S1 3.293315 1_545
Ba2 S5 3.305876 1_545
Ba2 S10 3.317648 1_554
Ba2 S6 3.337522 1_555
Ba2 S0 3.377745 1_555
Ba2 S7 3.385047 1_455
Ba2 S1 3.627091 1_555
Ba3 S8 3.232581 1_555
Ba3 S9 3.285185 1_555
Ba3 S0 3.293315 1_565
Ba3 S4 3.305876 1_564
Ba3 S11 3.317648 1_555
Ba3 S7 3.337522 1_555
Ba3 S1 3.377745 1_655
Ba3 S6 3.385047 1_555
Ba3 S0 3.627091 1_555
P0 S3 2.014135 1_555
P0 S7 2.020633 1_555
P0 S11 2.026328 1_555
P0 P2 2.234663 1_655
P1 S2 2.014135 1_555
P1 S6 2.020633 1_556
P1 S10 2.026328 1_555
P1 P3 2.234663 1_556
P2 S1 2.014135 1_555
P2 S5 2.020633 1_555
P2 S9 2.026328 1_555
P3 S0 2.014135 1_555
P3 S4 2.020633 1_554
P3 S8 2.026328 1_555
