# generated using pymatgen
data_Mg2Ta2Ni2O9
_symmetry_space_group_name_H-M   'P 1'
_cell_length_a   5.19406231
_cell_length_b   5.19406231
_cell_length_c   14.12936100
_cell_angle_alpha   90.00000000
_cell_angle_beta   90.00000000
_cell_angle_gamma   120.00000396
_symmetry_Int_Tables_number   1
_chemical_formula_structural   Mg2Ta2Ni2O9
_chemical_formula_sum   'Mg4 Ta4 Ni4 O18'
_cell_volume   330.11666306
_cell_formula_units_Z   2
loop_
 _symmetry_equiv_pos_site_id
 _symmetry_equiv_pos_as_xyz
  1  'x, y, z'
loop_
 _atom_site_type_symbol
 _atom_site_label
 _atom_site_symmetry_multiplicity
 _atom_site_fract_x
 _atom_site_fract_y
 _atom_site_fract_z
 _atom_site_occupancy
  Mg  Mg0  1  0.33333300  0.66666700  0.18970600  1
  Mg  Mg1  1  0.33333300  0.66666700  0.68970600  1
  Mg  Mg2  1  0.66666700  0.33333300  0.81029400  1
  Mg  Mg3  1  0.66666700  0.33333300  0.31029400  1
  Ta  Ta0  1  0.00000000  0.00000000  0.14287800  1
  Ta  Ta1  1  0.00000000  0.00000000  0.64287800  1
  Ta  Ta2  1  0.00000000  0.00000000  0.85712200  1
  Ta  Ta3  1  0.00000000  0.00000000  0.35712200  1
  Ni  Ni0  1  0.33333300  0.66666700  0.48682200  1
  Ni  Ni1  1  0.33333300  0.66666700  0.98682200  1
  Ni  Ni2  1  0.66666700  0.33333300  0.51317800  1
  Ni  Ni3  1  0.66666700  0.33333300  0.01317800  1
  O  O0  1  0.34712500  0.02641700  0.41541900  1
  O  O1  1  0.67929200  0.65287500  0.41541900  1
  O  O2  1  0.97358300  0.32070800  0.41541900  1
  O  O3  1  0.67929200  0.02641700  0.91541900  1
  O  O4  1  0.34712500  0.32070800  0.91541900  1
  O  O5  1  0.97358300  0.65287500  0.91541900  1
  O  O6  1  0.65287500  0.97358300  0.58458100  1
  O  O7  1  0.32070800  0.34712500  0.58458100  1
  O  O8  1  0.02641700  0.67929200  0.58458100  1
  O  O9  1  0.32070800  0.97358300  0.08458100  1
  O  O10  1  0.65287500  0.67929200  0.08458100  1
  O  O11  1  0.02641700  0.34712500  0.08458100  1
  O  O12  1  0.28869400  0.28869400  0.25000000  1
  O  O13  1  0.00000000  0.71130600  0.25000000  1
  O  O14  1  0.71130600  0.00000000  0.25000000  1
  O  O15  1  0.00000000  0.28869400  0.75000000  1
  O  O16  1  0.28869400  0.00000000  0.75000000  1
  O  O17  1  0.71130600  0.71130600  0.75000000  1
loop_
_geom_bond_atom_site_label_1
_geom_bond_atom_site_label_2
_geom_bond_distance
_geom_bond_site_symmetry_2
Mg0 O13 2.044145 1_555
Mg0 O14 2.044147 1_565
Mg0 O12 2.044149 1_555
Mg0 O9 2.203720 1_555
Mg0 O11 2.203722 1_555
Mg0 O10 2.203724 1_555
Mg1 O16 2.044145 1_565
Mg1 O15 2.044147 1_555
Mg1 O17 2.044149 1_555
Mg1 O8 2.203720 1_555
Mg1 O6 2.203722 1_555
Mg1 O7 2.203724 1_555
Mg2 O15 2.044145 1_655
Mg2 O16 2.044147 1_555
Mg2 O17 2.044149 1_555
Mg2 O3 2.203720 1_555
Mg2 O5 2.203722 1_555
Mg2 O4 2.203724 1_555
Mg3 O14 2.044145 1_555
Mg3 O13 2.044147 1_655
Mg3 O12 2.044149 1_555
Mg3 O2 2.203720 1_555
Mg3 O0 2.203722 1_555
Mg3 O1 2.203724 1_555
Ni0 O0 2.092998 1_565
Ni0 O2 2.093000 1_455
Ni0 O1 2.093003 1_555
Ni0 O8 2.134955 1_555
Ni0 O6 2.134957 1_555
Ni0 O7 2.134959 1_555
Ni1 O5 2.092998 1_455
Ni1 O3 2.093000 1_565
Ni1 O4 2.093003 1_555
Ni1 O9 2.134955 1_556
Ni1 O11 2.134957 1_556
Ni1 O10 2.134959 1_556
Ni2 O6 2.092998 1_545
Ni2 O8 2.093000 1_655
Ni2 O7 2.093003 1_555
Ni2 O2 2.134955 1_555
Ni2 O0 2.134957 1_555
Ni2 O1 2.134959 1_555
Ni3 O11 2.092998 1_655
Ni3 O9 2.093000 1_545
Ni3 O10 2.093003 1_555
Ni3 O3 2.134955 1_554
Ni3 O5 2.134957 1_554
Ni3 O4 2.134959 1_554
O0 Ta3 1.923717 1_555
O1 Ta3 1.923717 1_665
O2 Ta3 1.923717 1_655
O3 Ta2 1.923717 1_655
O4 Ta2 1.923717 1_555
O5 Ta2 1.923717 1_665
O6 Ta1 1.923717 1_665
O7 Ta1 1.923717 1_555
O8 Ta1 1.923717 1_565
O9 Ta0 1.923717 1_565
O10 Ta0 1.923717 1_665
O11 Ta0 1.923717 1_555
O12 Ta3 2.130578 1_555
O12 Ta0 2.130578 1_555
O13 Ta0 2.130578 1_565
O13 Ta3 2.130578 1_565
O14 Ta3 2.130578 1_655
O14 Ta0 2.130578 1_655
O15 Ta2 2.130578 1_555
O15 Ta1 2.130578 1_555
O16 Ta1 2.130578 1_555
O16 Ta2 2.130578 1_555
O17 Ta2 2.130578 1_665
O17 Ta1 2.130578 1_665
