# generated using pymatgen
data_DyScS3
_symmetry_space_group_name_H-M   'P 1'
_cell_length_a   6.37621861
_cell_length_b   7.00288526
_cell_length_c   9.52664085
_cell_angle_alpha   90.00000000
_cell_angle_beta   90.00000000
_cell_angle_gamma   90.00000000
_symmetry_Int_Tables_number   1
_chemical_formula_structural   DyScS3
_chemical_formula_sum   'Dy4 Sc4 S12'
_cell_volume   425.38287482
_cell_formula_units_Z   4
loop_
 _symmetry_equiv_pos_site_id
 _symmetry_equiv_pos_as_xyz
  1  'x, y, z'
loop_
 _atom_site_type_symbol
 _atom_site_label
 _atom_site_symmetry_multiplicity
 _atom_site_fract_x
 _atom_site_fract_y
 _atom_site_fract_z
 _atom_site_occupancy
  Dy  Dy0  1  0.04072307  0.60031921  0.25000000  1
  Dy  Dy1  1  0.45927693  0.10031921  0.25000000  1
  Dy  Dy2  1  0.95927693  0.39968079  0.75000000  1
  Dy  Dy3  1  0.54072307  0.89968079  0.75000000  1
  Sc  Sc0  1  0.50000000  0.50000000  0.50000000  1
  Sc  Sc1  1  0.50000000  0.50000000  -0.00000000  1
  Sc  Sc2  1  0.00000000  -0.00000000  0.50000000  1
  Sc  Sc3  1  0.00000000  -0.00000000  -0.00000000  1
  S  S0  1  0.17614298  0.31548404  0.07140610  1
  S  S1  1  0.32385702  0.81548404  0.07140610  1
  S  S2  1  0.67614298  0.18451596  0.57140610  1
  S  S3  1  0.82385702  0.68451596  0.92859390  1
  S  S4  1  0.64562678  0.45112240  0.25000000  1
  S  S5  1  0.35437322  0.54887760  0.75000000  1
  S  S6  1  0.82385702  0.68451596  0.57140610  1
  S  S7  1  0.17614298  0.31548404  0.42859390  1
  S  S8  1  0.32385702  0.81548404  0.42859390  1
  S  S9  1  0.67614298  0.18451596  0.92859390  1
  S  S10  1  0.14562678  0.04887760  0.75000000  1
  S  S11  1  0.85437322  0.95112240  0.25000000  1
loop_
_geom_bond_atom_site_label_1
_geom_bond_atom_site_label_2
_geom_bond_distance
_geom_bond_site_symmetry_2
Dy0 S4 2.727287 1_455
Dy0 S11 2.728899 1_455
Dy0 S7 2.760260 1_555
Dy0 S0 2.760260 1_555
Dy0 S8 2.902469 1_555
Dy0 S1 2.902469 1_555
Dy0 S6 3.411027 1_455
Dy0 S3 3.411027 1_454
Dy1 S11 2.727287 1_545
Dy1 S4 2.728899 1_555
Dy1 S8 2.760260 1_545
Dy1 S1 2.760260 1_545
Dy1 S7 2.902469 1_555
Dy1 S0 2.902469 1_555
Dy1 S2 3.411027 1_555
Dy1 S9 3.411027 1_554
Dy2 S5 2.727287 1_655
Dy2 S10 2.728899 1_655
Dy2 S3 2.760260 1_555
Dy2 S6 2.760260 1_555
Dy2 S9 2.902469 1_555
Dy2 S2 2.902469 1_555
Dy2 S0 3.411027 1_656
Dy2 S7 3.411027 1_655
Dy3 S10 2.727287 1_565
Dy3 S5 2.728899 1_555
Dy3 S9 2.760260 1_565
Dy3 S2 2.760260 1_565
Dy3 S3 2.902469 1_555
Dy3 S6 2.902469 1_555
Dy3 S1 3.411027 1_556
Dy3 S8 3.411027 1_555
S0 Sc1 2.529139 1_555
S0 Sc3 2.570052 1_555
S1 Sc3 2.529139 1_565
S1 Sc1 2.570052 1_555
S2 Sc2 2.529139 1_655
S2 Sc0 2.570052 1_555
S3 Sc1 2.529139 1_556
S3 Sc3 2.570052 1_666
S4 Sc0 2.579082 1_555
S4 Sc1 2.579082 1_555
S5 Sc0 2.579082 1_555
S5 Sc1 2.579082 1_556
S6 Sc0 2.529139 1_555
S6 Sc2 2.570052 1_665
S7 Sc0 2.529139 1_555
S7 Sc2 2.570052 1_555
S8 Sc2 2.529139 1_565
S8 Sc0 2.570052 1_555
S9 Sc3 2.529139 1_656
S9 Sc1 2.570052 1_556
S10 Sc3 2.579082 1_556
S10 Sc2 2.579082 1_555
S11 Sc2 2.579082 1_665
S11 Sc3 2.579082 1_665
