# generated using pymatgen
data_Ca2Mn2B4O13
_symmetry_space_group_name_H-M   'P 1'
_cell_length_a   8.93631000
_cell_length_b   8.35613600
_cell_length_c   12.14212100
_cell_angle_alpha   90.00000000
_cell_angle_beta   90.00000000
_cell_angle_gamma   90.00000000
_symmetry_Int_Tables_number   1
_chemical_formula_structural   Ca2Mn2B4O13
_chemical_formula_sum   'Ca8 Mn8 B16 O52'
_cell_volume   906.68886489
_cell_formula_units_Z   4
loop_
 _symmetry_equiv_pos_site_id
 _symmetry_equiv_pos_as_xyz
  1  'x, y, z'
loop_
 _atom_site_type_symbol
 _atom_site_label
 _atom_site_symmetry_multiplicity
 _atom_site_fract_x
 _atom_site_fract_y
 _atom_site_fract_z
 _atom_site_occupancy
  Ca  Ca0  1  0.23781400  0.76209800  0.38096500  1
  Ca  Ca1  1  0.23781400  0.23790200  0.61903500  1
  Ca  Ca2  1  0.76218600  0.26209800  0.11903500  1
  Ca  Ca3  1  0.76218600  0.73790200  0.88096500  1
  Ca  Ca4  1  0.76218600  0.23790200  0.61903500  1
  Ca  Ca5  1  0.76218600  0.76209800  0.38096500  1
  Ca  Ca6  1  0.23781400  0.73790200  0.88096500  1
  Ca  Ca7  1  0.23781400  0.26209800  0.11903500  1
  Mn  Mn0  1  0.00000000  0.50000000  0.50000000  1
  Mn  Mn1  1  0.00000000  0.00000000  0.00000000  1
  Mn  Mn2  1  0.00000000  0.00000000  0.50000000  1
  Mn  Mn3  1  0.00000000  0.50000000  0.00000000  1
  Mn  Mn4  1  0.00000000  0.00088700  0.26339000  1
  Mn  Mn5  1  0.00000000  0.99911300  0.73661000  1
  Mn  Mn6  1  0.00000000  0.50088700  0.23661000  1
  Mn  Mn7  1  0.00000000  0.49911300  0.76339000  1
  B  B0  1  0.50000000  0.76509400  0.22524100  1
  B  B1  1  0.50000000  0.23490600  0.77475900  1
  B  B2  1  0.50000000  0.26509400  0.27475900  1
  B  B3  1  0.50000000  0.73490600  0.72524100  1
  B  B4  1  0.50000000  0.76399300  0.03630000  1
  B  B5  1  0.50000000  0.23600700  0.96370000  1
  B  B6  1  0.50000000  0.26399300  0.46370000  1
  B  B7  1  0.50000000  0.73600700  0.53630000  1
  B  B8  1  0.28961300  0.89919700  0.13231900  1
  B  B9  1  0.28961300  0.10080300  0.86768100  1
  B  B10  1  0.71038700  0.39919700  0.36768100  1
  B  B11  1  0.71038700  0.60080300  0.63231900  1
  B  B12  1  0.71038700  0.10080300  0.86768100  1
  B  B13  1  0.71038700  0.89919700  0.13231900  1
  B  B14  1  0.28961300  0.60080300  0.63231900  1
  B  B15  1  0.28961300  0.39919700  0.36768100  1
  O  O0  1  0.50000000  0.67930600  0.33838100  1
  O  O1  1  0.50000000  0.32069400  0.66161900  1
  O  O2  1  0.50000000  0.17930600  0.16161900  1
  O  O3  1  0.50000000  0.82069400  0.83838100  1
  O  O4  1  0.50000000  0.68353500  0.92215300  1
  O  O5  1  0.50000000  0.31646500  0.07784700  1
  O  O6  1  0.50000000  0.18353500  0.57784700  1
  O  O7  1  0.50000000  0.81646500  0.42215300  1
  O  O8  1  0.50000000  0.66116500  0.13100100  1
  O  O9  1  0.50000000  0.33883500  0.86899900  1
  O  O10  1  0.50000000  0.16116500  0.36899900  1
  O  O11  1  0.50000000  0.83883500  0.63100100  1
  O  O12  1  0.36120100  0.86399700  0.22897600  1
  O  O13  1  0.36120100  0.13600300  0.77102400  1
  O  O14  1  0.63879900  0.36399700  0.27102400  1
  O  O15  1  0.63879900  0.63600300  0.72897600  1
  O  O16  1  0.63879900  0.13600300  0.77102400  1
  O  O17  1  0.63879900  0.86399700  0.22897600  1
  O  O18  1  0.36120100  0.63600300  0.72897600  1
  O  O19  1  0.36120100  0.36399700  0.27102400  1
  O  O20  1  0.35518900  0.85525500  0.03492400  1
  O  O21  1  0.35518900  0.14474500  0.96507600  1
  O  O22  1  0.64481100  0.35525500  0.46507600  1
  O  O23  1  0.64481100  0.64474500  0.53492400  1
  O  O24  1  0.64481100  0.14474500  0.96507600  1
  O  O25  1  0.64481100  0.85525500  0.03492400  1
  O  O26  1  0.35518900  0.64474500  0.53492400  1
  O  O27  1  0.35518900  0.35525500  0.46507600  1
  O  O28  1  0.15458200  0.98319300  0.13505200  1
  O  O29  1  0.15458200  0.01680700  0.86494800  1
  O  O30  1  0.84541800  0.48319300  0.36494800  1
  O  O31  1  0.84541800  0.51680700  0.63505200  1
  O  O32  1  0.84541800  0.01680700  0.86494800  1
  O  O33  1  0.84541800  0.98319300  0.13505200  1
  O  O34  1  0.15458200  0.51680700  0.63505200  1
  O  O35  1  0.15458200  0.48319300  0.36494800  1
  O  O36  1  0.00000000  0.73583000  0.47468800  1
  O  O37  1  0.00000000  0.26417000  0.52531200  1
  O  O38  1  0.00000000  0.23583000  0.02531200  1
  O  O39  1  0.00000000  0.76417000  0.97468800  1
  O  O40  1  0.00000000  0.75274300  0.27744800  1
  O  O41  1  0.00000000  0.24725700  0.72255200  1
  O  O42  1  0.00000000  0.25274300  0.22255200  1
  O  O43  1  0.00000000  0.74725700  0.77744800  1
  O  O44  1  0.13814100  0.01601800  0.37896900  1
  O  O45  1  0.13814100  0.98398200  0.62103100  1
  O  O46  1  0.86185900  0.51601800  0.12103100  1
  O  O47  1  0.86185900  0.48398200  0.87896900  1
  O  O48  1  0.86185900  0.98398200  0.62103100  1
  O  O49  1  0.86185900  0.01601800  0.37896900  1
  O  O50  1  0.13814100  0.48398200  0.87896900  1
  O  O51  1  0.13814100  0.51601800  0.12103100  1
loop_
_geom_bond_atom_site_label_1
_geom_bond_atom_site_label_2
_geom_bond_distance
_geom_bond_site_symmetry_2
Ca0 O44 2.301292 1_565
Ca0 O12 2.312262 1_555
Ca0 O26 2.357205 1_555
Ca0 O36 2.420662 1_555
Ca0 O7 2.438448 1_555
Ca0 O35 2.454096 1_555
Ca0 O40 2.470291 1_555
Ca0 O0 2.497099 1_555
Ca1 O45 2.301292 1_545
Ca1 O13 2.312262 1_555
Ca1 O27 2.357205 1_555
Ca1 O37 2.420662 1_555
Ca1 O6 2.438448 1_555
Ca1 O34 2.454096 1_555
Ca1 O41 2.470291 1_555
Ca1 O1 2.497099 1_555
Ca2 O46 2.301292 1_555
Ca2 O14 2.312262 1_555
Ca2 O24 2.357205 1_554
Ca2 O38 2.420662 1_655
Ca2 O5 2.438448 1_555
Ca2 O33 2.454096 1_545
Ca2 O42 2.470291 1_655
Ca2 O2 2.497099 1_555
Ca3 O47 2.301292 1_555
Ca3 O15 2.312262 1_555
Ca3 O25 2.357205 1_556
Ca3 O39 2.420662 1_655
Ca3 O4 2.438448 1_555
Ca3 O32 2.454096 1_565
Ca3 O43 2.470291 1_655
Ca3 O3 2.497099 1_555
Ca4 O48 2.301292 1_545
Ca4 O16 2.312262 1_555
Ca4 O22 2.357205 1_555
Ca4 O37 2.420662 1_655
Ca4 O6 2.438448 1_555
Ca4 O31 2.454096 1_555
Ca4 O41 2.470291 1_655
Ca4 O1 2.497099 1_555
Ca5 O49 2.301292 1_565
Ca5 O17 2.312262 1_555
Ca5 O23 2.357205 1_555
Ca5 O36 2.420662 1_655
Ca5 O7 2.438448 1_555
Ca5 O30 2.454096 1_555
Ca5 O40 2.470291 1_655
Ca5 O0 2.497099 1_555
Ca6 O50 2.301292 1_555
Ca6 O18 2.312262 1_555
Ca6 O20 2.357205 1_556
Ca6 O39 2.420662 1_555
Ca6 O4 2.438448 1_555
Ca6 O29 2.454096 1_565
Ca6 O43 2.470291 1_555
Ca6 O3 2.497099 1_555
Ca7 O51 2.301292 1_555
Ca7 O19 2.312262 1_555
Ca7 O21 2.357205 1_554
Ca7 O38 2.420662 1_555
Ca7 O5 2.438448 1_555
Ca7 O28 2.454096 1_545
Ca7 O42 2.470291 1_555
Ca7 O2 2.497099 1_555
Mn0 O37 1.994450 1_555
Mn0 O36 1.994450 1_555
Mn0 O31 2.148714 1_455
Mn0 O34 2.148714 1_555
Mn0 O35 2.148714 1_555
Mn0 O30 2.148714 1_455
Mn1 O38 1.994450 1_555
Mn1 O39 1.994450 1_544
Mn1 O33 2.148714 1_445
Mn1 O28 2.148714 1_545
Mn1 O32 2.148714 1_454
Mn1 O29 2.148714 1_554
Mn2 O44 1.923923 1_555
Mn2 O45 1.923923 1_545
Mn2 O49 1.923923 1_455
Mn2 O48 1.923923 1_445
Mn2 O36 2.228733 1_545
Mn2 O37 2.228733 1_555
Mn3 O51 1.923923 1_555
Mn3 O50 1.923923 1_554
Mn3 O46 1.923923 1_455
Mn3 O47 1.923923 1_454
Mn3 O38 2.228733 1_555
Mn3 O39 2.228733 1_554
Mn4 O44 1.873330 1_555
Mn4 O49 1.873330 1_455
Mn4 O40 2.080539 1_545
Mn4 O33 2.087676 1_445
Mn4 O28 2.087676 1_545
Mn4 O42 2.162170 1_555
Mn5 O45 1.873330 1_555
Mn5 O48 1.873330 1_455
Mn5 O41 2.080539 1_565
Mn5 O32 2.087676 1_465
Mn5 O29 2.087676 1_565
Mn5 O43 2.162170 1_555
Mn6 O51 1.873330 1_555
Mn6 O46 1.873330 1_455
Mn6 O42 2.080539 1_555
Mn6 O35 2.087676 1_555
Mn6 O30 2.087676 1_455
Mn6 O40 2.162170 1_555
Mn7 O50 1.873330 1_555
Mn7 O47 1.873330 1_455
Mn7 O43 2.080539 1_555
Mn7 O31 2.087676 1_455
Mn7 O34 2.087676 1_555
Mn7 O41 2.162170 1_555
B0 O8 1.436509 1_555
B0 O12 1.491154 1_555
B0 O17 1.491154 1_555
B0 O0 1.549548 1_555
B1 O9 1.436509 1_555
B1 O16 1.491154 1_555
B1 O13 1.491154 1_555
B1 O1 1.549548 1_555
B2 O10 1.436509 1_555
B2 O19 1.491154 1_555
B2 O14 1.491154 1_555
B2 O2 1.549548 1_555
B3 O11 1.436509 1_555
B3 O18 1.491154 1_555
B3 O15 1.491154 1_555
B3 O3 1.549548 1_555
B4 O8 1.435446 1_555
B4 O20 1.502154 1_555
B4 O25 1.502154 1_555
B4 O4 1.540445 1_554
B5 O9 1.435446 1_555
B5 O21 1.502154 1_555
B5 O24 1.502154 1_555
B5 O5 1.540445 1_556
B6 O10 1.435446 1_555
B6 O27 1.502154 1_555
B6 O22 1.502154 1_555
B6 O6 1.540445 1_555
B7 O11 1.435446 1_555
B7 O23 1.502154 1_555
B7 O26 1.502154 1_555
B7 O7 1.540445 1_555
B8 O12 1.368634 1_555
B8 O20 1.369938 1_555
B8 O28 1.396357 1_555
B9 O13 1.368634 1_555
B9 O21 1.369938 1_555
B9 O29 1.396357 1_555
B10 O14 1.368634 1_555
B10 O22 1.369938 1_555
B10 O30 1.396357 1_555
B11 O15 1.368634 1_555
B11 O23 1.369938 1_555
B11 O31 1.396357 1_555
B12 O16 1.368634 1_555
B12 O24 1.369938 1_555
B12 O32 1.396357 1_555
B13 O17 1.368634 1_555
B13 O25 1.369938 1_555
B13 O33 1.396357 1_555
B14 O18 1.368634 1_555
B14 O26 1.369938 1_555
B14 O34 1.396357 1_555
B15 O19 1.368634 1_555
B15 O27 1.369938 1_555
B15 O35 1.396357 1_555
