# generated using pymatgen
data_Ba3(TiN2)2
_symmetry_space_group_name_H-M   'P 1'
_cell_length_a   7.78049328
_cell_length_b   9.17712130
_cell_length_c   6.06843582
_cell_angle_alpha   89.99999273
_cell_angle_beta   91.87453309
_cell_angle_gamma   126.13941244
_symmetry_Int_Tables_number   1
_chemical_formula_structural   Ba3(TiN2)2
_chemical_formula_sum   'Ba6 Ti4 N8'
_cell_volume   349.64050471
_cell_formula_units_Z   2
loop_
 _symmetry_equiv_pos_site_id
 _symmetry_equiv_pos_as_xyz
  1  'x, y, z'
loop_
 _atom_site_type_symbol
 _atom_site_label
 _atom_site_symmetry_multiplicity
 _atom_site_fract_x
 _atom_site_fract_y
 _atom_site_fract_z
 _atom_site_occupancy
  Ba  Ba0  1  0.24072000  0.98339300  0.05821500  1
  Ba  Ba1  1  0.75928000  0.74267300  0.44178500  1
  Ba  Ba2  1  0.75928000  0.01660700  0.94178500  1
  Ba  Ba3  1  0.24072000  0.25732700  0.55821500  1
  Ba  Ba4  1  0.00000000  0.59868700  0.75000000  1
  Ba  Ba5  1  0.00000000  0.40131300  0.25000000  1
  Ti  Ti0  1  0.58366000  0.17538300  0.57000400  1
  Ti  Ti1  1  0.41634000  0.59172200  0.92999600  1
  Ti  Ti2  1  0.41634000  0.82461700  0.42999600  1
  Ti  Ti3  1  0.58366000  0.40827800  0.07000400  1
  N  N0  1  0.29427400  0.95662700  0.52011800  1
  N  N1  1  0.70572600  0.66235300  0.97988200  1
  N  N2  1  0.70572600  0.04337300  0.47988200  1
  N  N3  1  0.29427400  0.33764700  0.02011800  1
  N  N4  1  0.63366200  0.26289500  0.87936400  1
  N  N5  1  0.36633800  0.62923300  0.62063600  1
  N  N6  1  0.36633800  0.73710500  0.12063600  1
  N  N7  1  0.63366200  0.37076700  0.37936400  1
loop_
_geom_bond_atom_site_label_1
_geom_bond_atom_site_label_2
_geom_bond_distance
_geom_bond_site_symmetry_2
Ba0 N4 2.841075 1_564
Ba0 N0 2.852234 1_555
Ba0 N6 2.964573 1_555
Ba0 N3 3.033939 1_565
Ba0 N0 3.332653 1_554
Ba0 N1 3.411482 1_454
Ba1 N5 2.841076 1_555
Ba1 N1 2.852234 1_554
Ba1 N7 2.964573 1_555
Ba1 N2 3.033940 1_565
Ba1 N1 3.332653 1_555
Ba1 N0 3.411482 1_655
Ba2 N6 2.841075 1_546
Ba2 N2 2.852234 1_555
Ba2 N4 2.964573 1_555
Ba2 N1 3.033939 1_545
Ba2 N2 3.332653 1_556
Ba2 N3 3.411482 1_656
Ba3 N7 2.841076 1_555
Ba3 N3 2.852234 1_556
Ba3 N5 2.964573 1_555
Ba3 N0 3.033940 1_545
Ba3 N3 3.332653 1_555
Ba3 N2 3.411482 1_455
Ba4 N4 2.832485 1_455
Ba4 N5 2.832486 1_555
Ba4 N0 3.052302 1_555
Ba4 N1 3.052303 1_455
Ba4 N7 3.179085 1_455
Ba4 N6 3.179085 1_556
Ba5 N6 2.832485 1_555
Ba5 N7 2.832486 1_455
Ba5 N2 3.052302 1_455
Ba5 N3 3.052303 1_555
Ba5 N5 3.179085 1_555
Ba5 N4 3.179085 1_454
N0 Ti0 1.953291 1_565
N0 Ti2 2.014906 1_555
N1 Ti1 1.953288 1_555
N1 Ti3 2.014898 1_556
N2 Ti2 1.953291 1_545
N2 Ti0 2.014906 1_555
N3 Ti3 1.953288 1_555
N3 Ti1 2.014898 1_554
N4 Ti0 1.975956 1_555
N4 Ti3 1.977750 1_556
N5 Ti1 1.975958 1_555
N5 Ti2 1.977743 1_555
N6 Ti2 1.975956 1_555
N6 Ti1 1.977750 1_554
N7 Ti3 1.975958 1_555
N7 Ti0 1.977743 1_555
