# generated using pymatgen
data_KNa3V2(MoO5)2
_symmetry_space_group_name_H-M   'P 1'
_cell_length_a   11.33167546
_cell_length_b   11.66295997
_cell_length_c   16.77112100
_cell_angle_alpha   110.53933685
_cell_angle_beta   109.13437591
_cell_angle_gamma   89.98049665
_symmetry_Int_Tables_number   1
_chemical_formula_structural   KNa3V2(MoO5)2
_chemical_formula_sum   'K8 Na24 V16 Mo16 O80'
_cell_volume   1944.37672737
_cell_formula_units_Z   8
loop_
 _symmetry_equiv_pos_site_id
 _symmetry_equiv_pos_as_xyz
  1  'x, y, z'
loop_
 _atom_site_type_symbol
 _atom_site_label
 _atom_site_symmetry_multiplicity
 _atom_site_fract_x
 _atom_site_fract_y
 _atom_site_fract_z
 _atom_site_occupancy
  K  K0  1  0.30682700  0.07065800  0.11761100  1
  K  K1  1  0.30700200  0.57082800  0.11732200  1
  K  K2  1  0.80589700  0.07152200  0.11734300  1
  K  K3  1  0.80573600  0.57083300  0.11696500  1
  K  K4  1  0.18543000  0.92520500  0.87725500  1
  K  K5  1  0.05531100  0.79648600  0.11761100  1
  K  K6  1  0.55746300  0.29677000  0.11654800  1
  K  K7  1  0.55725500  0.79599300  0.11700300  1
  Na  Na0  1  0.30510500  0.07094000  0.60885200  1
  Na  Na1  1  0.30575000  0.57057600  0.60891800  1
  Na  Na2  1  0.80566300  0.07101700  0.60902800  1
  Na  Na3  1  0.80528000  0.57103900  0.60917500  1
  Na  Na4  1  0.19862800  0.43250000  0.39453600  1
  Na  Na5  1  0.19623200  0.42778800  0.88865800  1
  Na  Na6  1  0.19963100  0.93197100  0.39547600  1
  Na  Na7  1  0.70057400  0.43379500  0.39669100  1
  Na  Na8  1  0.69587600  0.42781800  0.88818900  1
  Na  Na9  1  0.70001300  0.93335900  0.39685200  1
  Na  Na10  1  0.69682700  0.92854600  0.88847400  1
  Na  Na11  1  0.05508600  0.29064100  0.10641000  1
  Na  Na12  1  0.05476300  0.28826100  0.60757000  1
  Na  Na13  1  0.05453400  0.78692500  0.60625400  1
  Na  Na14  1  0.55564900  0.28819700  0.60906500  1
  Na  Na15  1  0.55519200  0.78783400  0.60886100  1
  Na  Na16  1  0.44996200  0.21383900  0.39701500  1
  Na  Na17  1  0.44678500  0.20964800  0.88887800  1
  Na  Na18  1  0.45072600  0.71336100  0.39671700  1
  Na  Na19  1  0.44562800  0.71007200  0.88872100  1
  Na  Na20  1  0.95001800  0.21328600  0.39683300  1
  Na  Na21  1  0.94756800  0.21023300  0.88955900  1
  Na  Na22  1  0.94969800  0.71357900  0.39687200  1
  Na  Na23  1  0.94601000  0.71020700  0.88924800  1
  V  V0  1  0.11129300  0.09485300  0.25711100  1
  V  V1  1  0.10017300  0.08690400  0.74393900  1
  V  V2  1  0.10910800  0.58583500  0.25458300  1
  V  V3  1  0.09991800  0.57881100  0.74604900  1
  V  V4  1  0.61201100  0.09095500  0.25748200  1
  V  V5  1  0.60356900  0.08687100  0.74765700  1
  V  V6  1  0.61009400  0.58908500  0.25745500  1
  V  V7  1  0.60088400  0.58411500  0.74692900  1
  V  V8  1  0.35597900  0.41480000  0.25545000  1
  V  V9  1  0.35122500  0.41191600  0.74687700  1
  V  V10  1  0.36106900  0.91736000  0.25762000  1
  V  V11  1  0.35478800  0.91308100  0.74384100  1
  V  V12  1  0.86337900  0.41647600  0.25748300  1
  V  V13  1  0.85080500  0.41167900  0.74783100  1
  V  V14  1  0.86167600  0.91680300  0.25706200  1
  V  V15  1  0.84976800  0.91319300  0.74774600  1
  Mo  Mo0  1  0.99978700  0.99859700  0.99658800  1
  Mo  Mo1  1  0.00689100  0.00022400  0.50022800  1
  Mo  Mo2  1  0.00003000  0.49602400  0.99435300  1
  Mo  Mo3  1  0.00763000  0.49998100  0.50135200  1
  Mo  Mo4  1  0.49926800  0.99605700  0.99322400  1
  Mo  Mo5  1  0.50730400  0.00024900  0.50117000  1
  Mo  Mo6  1  0.49968200  0.49580000  0.99296700  1
  Mo  Mo7  1  0.50623100  0.49942700  0.50039000  1
  Mo  Mo8  1  0.25062800  0.24852400  0.99520600  1
  Mo  Mo9  1  0.25742300  0.25113000  0.50113300  1
  Mo  Mo10  1  0.24990100  0.74642200  0.99475400  1
  Mo  Mo11  1  0.25749700  0.74985700  0.49951500  1
  Mo  Mo12  1  0.75146700  0.24786900  0.99455000  1
  Mo  Mo13  1  0.75700000  0.25107500  0.50084200  1
  Mo  Mo14  1  0.74911900  0.74664200  0.99258400  1
  Mo  Mo15  1  0.75704700  0.75107400  0.50113500  1
  O  O0  1  0.12413000  0.11689300  0.48323700  1
  O  O1  1  0.11815200  0.12207300  0.98698200  1
  O  O2  1  0.12461900  0.61714900  0.48444500  1
  O  O3  1  0.11828600  0.61346700  0.97976300  1
  O  O4  1  0.62431400  0.11699000  0.48411600  1
  O  O5  1  0.61782600  0.11337800  0.97749500  1
  O  O6  1  0.62423300  0.61688400  0.48408300  1
  O  O7  1  0.61723000  0.61393600  0.97771100  1
  O  O8  1  0.13064000  0.37756600  0.00719500  1
  O  O9  1  0.14120600  0.38430200  0.51935100  1
  O  O10  1  0.12877300  0.87632500  0.00737300  1
  O  O11  1  0.14061200  0.88356200  0.51691700  1
  O  O12  1  0.62992900  0.37596100  0.00272700  1
  O  O13  1  0.64023600  0.38364000  0.51795800  1
  O  O14  1  0.62807400  0.87527800  0.00157900  1
  O  O15  1  0.64094100  0.88408800  0.51898000  1
  O  O16  1  0.37432500  0.11705700  0.48397900  1
  O  O17  1  0.37007400  0.11704000  0.98147100  1
  O  O18  1  0.37341200  0.61549900  0.48207000  1
  O  O19  1  0.36841200  0.61376900  0.97957800  1
  O  O20  1  0.87352500  0.11664700  0.48302200  1
  O  O21  1  0.86957100  0.11683100  0.98107500  1
  O  O22  1  0.87468700  0.61736900  0.48459200  1
  O  O23  1  0.86699900  0.61307200  0.97795400  1
  O  O24  1  0.37885600  0.37697500  0.00231900  1
  O  O25  1  0.39126000  0.38513600  0.51944300  1
  O  O26  1  0.38077900  0.87609400  0.00497300  1
  O  O27  1  0.39050700  0.88435700  0.51779500  1
  O  O28  1  0.88443900  0.37721800  0.00824900  1
  O  O29  1  0.89118300  0.38511100  0.51940400  1
  O  O30  1  0.87919800  0.87847500  0.00488300  1
  O  O31  1  0.89103800  0.88516100  0.51889500  1
  O  O32  1  0.07250100  0.09720700  0.14519200  1
  O  O33  1  0.07771700  0.11122700  0.64169600  1
  O  O34  1  0.07257400  0.58706000  0.14331300  1
  O  O35  1  0.08122400  0.60538000  0.64431300  1
  O  O36  1  0.57450200  0.08411400  0.14359700  1
  O  O37  1  0.58256000  0.10616800  0.64345200  1
  O  O38  1  0.57251300  0.58283100  0.14361400  1
  O  O39  1  0.58087200  0.60444800  0.64312000  1
  O  O40  1  0.43778900  0.38844500  0.35677000  1
  O  O41  1  0.43514600  0.39336400  0.85041700  1
  O  O42  1  0.44285800  0.88860300  0.35749200  1
  O  O43  1  0.42997100  0.89630900  0.84943400  1
  O  O44  1  0.94501500  0.38860900  0.35798600  1
  O  O45  1  0.93486100  0.39286200  0.85135700  1
  O  O46  1  0.94436100  0.88766300  0.35655600  1
  O  O47  1  0.93116100  0.89661200  0.85267800  1
  O  O48  1  0.32679100  0.30820100  0.14284400  1
  O  O49  1  0.33246700  0.28769800  0.64322200  1
  O  O50  1  0.32402400  0.80904700  0.14430400  1
  O  O51  1  0.33689900  0.78660400  0.64166200  1
  O  O52  1  0.82703700  0.30934500  0.14358200  1
  O  O53  1  0.83048700  0.28813100  0.64340200  1
  O  O54  1  0.82213300  0.80967500  0.14280100  1
  O  O55  1  0.83106900  0.78860700  0.64409900  1
  O  O56  1  0.19478000  0.22048000  0.35855800  1
  O  O57  1  0.18257300  0.20381800  0.85156000  1
  O  O58  1  0.19579400  0.71282000  0.35570300  1
  O  O59  1  0.18617000  0.69491600  0.85174500  1
  O  O60  1  0.69433600  0.21980400  0.35768000  1
  O  O61  1  0.68897800  0.20787000  0.85173100  1
  O  O62  1  0.69271500  0.71842700  0.35767800  1
  O  O63  1  0.68550700  0.70679800  0.85032400  1
  O  O64  1  0.45712400  0.05523000  0.26759600  1
  O  O65  1  0.43955700  0.05409900  0.74709300  1
  O  O66  1  0.45390100  0.55373100  0.26695900  1
  O  O67  1  0.43667800  0.55142200  0.74766000  1
  O  O68  1  0.95696800  0.05496900  0.26669700  1
  O  O69  1  0.93862400  0.04973600  0.74745900  1
  O  O70  1  0.95443300  0.55745000  0.26730600  1
  O  O71  1  0.93571400  0.55034000  0.74749200  1
  O  O72  1  0.19257400  0.44697500  0.25578500  1
  O  O73  1  0.18558300  0.44052200  0.74583000  1
  O  O74  1  0.20574200  0.96486000  0.26576900  1
  O  O75  1  0.18886400  0.94939900  0.73346500  1
  O  O76  1  0.70730000  0.46128900  0.26703900  1
  O  O77  1  0.68652900  0.44564300  0.74778700  1
  O  O78  1  0.70696200  0.96215800  0.26752900  1
  O  O79  1  0.68583500  0.94632100  0.74742200  1
loop_
_geom_bond_atom_site_label_1
_geom_bond_atom_site_label_2
_geom_bond_distance
_geom_bond_site_symmetry_2
K0 O64 2.601769 1_555
K0 O48 2.649653 1_555
K0 O10 2.691347 1_545
K0 O26 2.729211 1_545
K0 O1 2.753279 1_554
K0 O17 2.821183 1_554
K0 O32 2.839830 1_555
K0 O36 2.915584 1_555
K1 O66 2.592484 1_555
K1 O50 2.649920 1_555
K1 O8 2.673533 1_555
K1 O24 2.731852 1_555
K1 O3 2.777186 1_554
K1 O19 2.817387 1_554
K1 O34 2.825510 1_555
K1 O38 2.890236 1_555
K2 O68 2.601931 1_555
K2 O52 2.649417 1_555
K2 O30 2.713386 1_545
K2 O14 2.718200 1_545
K2 O36 2.793215 1_555
K2 O5 2.794094 1_554
K2 O21 2.819833 1_554
K2 O32 2.900373 1_655
K3 O70 2.590699 1_555
K3 O54 2.661294 1_555
K3 O12 2.692659 1_555
K3 O28 2.719276 1_555
K3 O7 2.796881 1_554
K3 O38 2.816728 1_555
K3 O23 2.833207 1_554
K3 O34 2.905124 1_655
K4 O75 2.536843 1_555
K4 O59 2.567669 1_555
K4 O1 2.682024 1_565
K4 O10 2.700179 1_556
K4 O17 2.701898 1_565
K4 O26 2.750986 1_556
K4 O47 2.776435 1_455
K4 O43 2.957481 1_555
K5 O74 2.595722 1_555
K5 O34 2.621678 1_555
K5 O10 2.682466 1_555
K5 O30 2.695391 1_455
K5 O23 2.797533 1_454
K5 O54 2.805315 1_455
K5 O3 2.833374 1_554
K5 O50 2.924782 1_555
K6 O76 2.594099 1_555
K6 O36 2.669496 1_555
K6 O24 2.712139 1_555
K6 O12 2.727003 1_555
K6 O17 2.748140 1_554
K6 O48 2.785492 1_555
K6 O5 2.833009 1_554
K6 O52 2.933276 1_555
K6 O38 3.202047 1_555
K7 O78 2.601607 1_555
K7 O38 2.671601 1_555
K7 O26 2.677537 1_555
K7 O14 2.742503 1_555
K7 O19 2.782205 1_554
K7 O50 2.821675 1_555
K7 O7 2.826106 1_554
K7 O54 2.884833 1_555
Na0 O49 2.383321 1_555
Na0 O65 2.395565 1_555
Na0 O11 2.526242 1_545
Na0 O27 2.576749 1_545
Na0 O0 2.624934 1_555
Na0 O16 2.675456 1_555
Na0 O33 2.812744 1_555
Na1 O51 2.382609 1_555
Na1 O67 2.401396 1_555
Na1 O9 2.515844 1_555
Na1 O25 2.557882 1_555
Na1 O2 2.617577 1_555
Na1 O18 2.690695 1_555
Na1 O35 2.794765 1_555
Na1 O39 2.978921 1_555
Na2 O53 2.386065 1_555
Na2 O69 2.415082 1_555
Na2 O15 2.522362 1_545
Na2 O31 2.564693 1_545
Na2 O4 2.619986 1_555
Na2 O20 2.682392 1_555
Na2 O37 2.771801 1_555
Na2 O33 2.955901 1_655
Na3 O55 2.390125 1_555
Na3 O71 2.401879 1_555
Na3 O13 2.529024 1_555
Na3 O29 2.566121 1_555
Na3 O6 2.619335 1_555
Na3 O22 2.673188 1_555
Na3 O39 2.781201 1_555
Na4 O56 2.327332 1_555
Na4 O72 2.370482 1_555
Na4 O2 2.482734 1_555
Na4 O18 2.555645 1_555
Na4 O9 2.615362 1_555
Na4 O25 2.696616 1_555
Na4 O44 2.742774 1_455
Na5 O73 2.415495 1_555
Na5 O57 2.455836 1_555
Na5 O3 2.523097 1_555
Na5 O24 2.544254 1_556
Na5 O19 2.562897 1_555
Na5 O8 2.575605 1_556
Na5 O45 2.817219 1_455
Na5 O41 2.976376 1_555
Na6 O74 2.359721 1_555
Na6 O58 2.400923 1_555
Na6 O0 2.479239 1_565
Na6 O16 2.570990 1_565
Na6 O11 2.571828 1_555
Na6 O27 2.661725 1_555
Na6 O46 2.754449 1_455
Na7 O76 2.331225 1_555
Na7 O60 2.342204 1_555
Na7 O6 2.467811 1_555
Na7 O22 2.555629 1_555
Na7 O13 2.587008 1_555
Na7 O29 2.669862 1_555
Na7 O40 2.835639 1_555
Na8 O77 2.403961 1_555
Na8 O61 2.414258 1_555
Na8 O7 2.519769 1_555
Na8 O12 2.524046 1_556
Na8 O23 2.549793 1_555
Na8 O28 2.642100 1_556
Na8 O41 2.808397 1_555
Na8 O45 2.966611 1_555
Na9 O78 2.333725 1_555
Na9 O62 2.351834 1_555
Na9 O4 2.467152 1_565
Na9 O20 2.548799 1_565
Na9 O15 2.588145 1_555
Na9 O31 2.663267 1_555
Na9 O42 2.774494 1_555
Na10 O79 2.409459 1_555
Na10 O63 2.428940 1_555
Na10 O5 2.508768 1_565
Na10 O14 2.527303 1_556
Na10 O30 2.564661 1_556
Na10 O21 2.585106 1_565
Na10 O43 2.871280 1_555
Na10 O47 2.904781 1_555
Na11 O72 2.503151 1_555
Na11 O32 2.548877 1_555
Na11 O28 2.558752 1_455
Na11 O1 2.561625 1_554
Na11 O8 2.578320 1_555
Na11 O21 2.657634 1_454
Na11 O52 2.841572 1_455
Na11 O48 2.928149 1_555
Na12 O33 2.321556 1_555
Na12 O73 2.363625 1_555
Na12 O29 2.504393 1_455
Na12 O9 2.552829 1_555
Na12 O20 2.616079 1_455
Na12 O0 2.666385 1_555
Na12 O53 2.796753 1_455
Na13 O75 2.344281 1_555
Na13 O35 2.409028 1_555
Na13 O31 2.507714 1_455
Na13 O11 2.571056 1_555
Na13 O22 2.583127 1_455
Na13 O2 2.636079 1_555
Na13 O55 2.803624 1_455
Na14 O37 2.382456 1_555
Na14 O77 2.392965 1_555
Na14 O25 2.522488 1_555
Na14 O13 2.578153 1_555
Na14 O16 2.616395 1_555
Na14 O4 2.667496 1_555
Na14 O49 2.770609 1_555
Na14 O53 2.975823 1_555
Na15 O79 2.396020 1_555
Na15 O39 2.396173 1_555
Na15 O27 2.533570 1_555
Na15 O15 2.573922 1_555
Na15 O18 2.633793 1_555
Na15 O6 2.666648 1_555
Na15 O51 2.705418 1_555
Na16 O64 2.331864 1_555
Na16 O40 2.350503 1_555
Na16 O16 2.472095 1_555
Na16 O4 2.564650 1_555
Na16 O25 2.581806 1_555
Na16 O13 2.646162 1_555
Na16 O56 2.756051 1_555
Na17 O65 2.407828 1_555
Na17 O41 2.436876 1_555
Na17 O24 2.524746 1_556
Na17 O17 2.529064 1_555
Na17 O5 2.550897 1_555
Na17 O12 2.553685 1_556
Na17 O57 2.846404 1_555
Na18 O66 2.326273 1_555
Na18 O42 2.350081 1_555
Na18 O18 2.467514 1_555
Na18 O6 2.558403 1_555
Na18 O27 2.575295 1_555
Na18 O15 2.656276 1_555
Na18 O58 2.740928 1_555
Na19 O67 2.408730 1_555
Na19 O43 2.472015 1_555
Na19 O26 2.525819 1_556
Na19 O19 2.534696 1_555
Na19 O14 2.539211 1_556
Na19 O7 2.556561 1_555
Na19 O59 2.790723 1_555
Na20 O68 2.337471 1_555
Na20 O44 2.349326 1_555
Na20 O20 2.465030 1_555
Na20 O0 2.554164 1_655
Na20 O29 2.587094 1_555
Na20 O9 2.665095 1_655
Na20 O60 2.760253 1_555
Na21 O45 2.421775 1_555
Na21 O69 2.430062 1_555
Na21 O21 2.527192 1_555
Na21 O28 2.545440 1_556
Na21 O1 2.563261 1_655
Na21 O8 2.573428 1_656
Na21 O61 2.785450 1_555
Na21 O57 2.929551 1_655
Na22 O70 2.310910 1_555
Na22 O46 2.349360 1_555
Na22 O22 2.474813 1_555
Na22 O2 2.569028 1_655
Na22 O31 2.579086 1_555
Na22 O11 2.647773 1_655
Na22 O62 2.772435 1_555
Na23 O71 2.418673 1_555
Na23 O47 2.449209 1_555
Na23 O23 2.520875 1_555
Na23 O30 2.544897 1_556
Na23 O10 2.566548 1_656
Na23 O3 2.577987 1_655
Na23 O63 2.803609 1_555
Na23 O59 2.979361 1_655
Mo0 O30 2.027815 1_556
Mo0 O21 2.035975 1_565
Mo0 O1 2.050516 1_665
Mo0 O10 2.051575 1_656
Mo0 O47 2.144864 1_555
Mo0 O32 2.203650 1_666
Mo1 O31 2.046415 1_445
Mo1 O20 2.049037 1_455
Mo1 O11 2.052683 1_545
Mo1 O0 2.054060 1_555
Mo1 O33 2.132217 1_555
Mo1 O46 2.166358 1_445
Mo2 O28 2.029264 1_456
Mo2 O8 2.035693 1_556
Mo2 O3 2.045272 1_555
Mo2 O23 2.049857 1_455
Mo2 O45 2.135230 1_455
Mo2 O34 2.199370 1_556
Mo3 O29 2.043384 1_455
Mo3 O9 2.046291 1_555
Mo3 O22 2.052778 1_455
Mo3 O2 2.055426 1_555
Mo3 O35 2.139367 1_555
Mo3 O44 2.159290 1_455
Mo4 O14 2.034042 1_556
Mo4 O26 2.041404 1_556
Mo4 O17 2.043933 1_565
Mo4 O5 2.057573 1_565
Mo4 O43 2.139172 1_555
Mo4 O36 2.217055 1_566
Mo5 O27 2.040571 1_545
Mo5 O16 2.049178 1_555
Mo5 O15 2.050336 1_545
Mo5 O4 2.053478 1_555
Mo5 O37 2.132037 1_555
Mo5 O42 2.163457 1_545
Mo6 O24 2.028393 1_556
Mo6 O19 2.037779 1_555
Mo6 O12 2.039456 1_556
Mo6 O7 2.051865 1_555
Mo6 O41 2.127890 1_555
Mo6 O38 2.220094 1_556
Mo7 O25 2.036964 1_555
Mo7 O18 2.044396 1_555
Mo7 O13 2.049581 1_555
Mo7 O6 2.059924 1_555
Mo7 O39 2.135812 1_555
Mo7 O40 2.160305 1_555
Mo8 O8 2.029696 1_556
Mo8 O24 2.032819 1_556
Mo8 O1 2.042205 1_555
Mo8 O17 2.047389 1_555
Mo8 O57 2.138053 1_555
Mo8 O48 2.179526 1_556
Mo9 O9 2.041918 1_555
Mo9 O25 2.048555 1_555
Mo9 O0 2.048728 1_555
Mo9 O16 2.053160 1_555
Mo9 O49 2.131268 1_555
Mo9 O56 2.153343 1_555
Mo10 O26 2.041840 1_556
Mo10 O3 2.043097 1_555
Mo10 O10 2.046506 1_556
Mo10 O19 2.051386 1_555
Mo10 O59 2.118639 1_555
Mo10 O50 2.205343 1_556
Mo11 O27 2.046378 1_555
Mo11 O18 2.048234 1_555
Mo11 O11 2.050331 1_555
Mo11 O2 2.050438 1_555
Mo11 O51 2.133931 1_555
Mo11 O58 2.157840 1_555
Mo12 O12 2.031269 1_556
Mo12 O28 2.032354 1_556
Mo12 O21 2.032822 1_555
Mo12 O5 2.058730 1_555
Mo12 O61 2.135519 1_555
Mo12 O52 2.198710 1_556
Mo13 O13 2.039529 1_555
Mo13 O4 2.049928 1_555
Mo13 O29 2.049996 1_555
Mo13 O20 2.054124 1_555
Mo13 O53 2.136946 1_555
Mo13 O60 2.161020 1_555
Mo14 O14 2.032345 1_556
Mo14 O30 2.039372 1_556
Mo14 O7 2.043922 1_555
Mo14 O23 2.053423 1_555
Mo14 O63 2.126656 1_555
Mo14 O54 2.215004 1_556
Mo15 O15 2.039160 1_555
Mo15 O6 2.049779 1_555
Mo15 O31 2.053776 1_555
Mo15 O22 2.055041 1_555
Mo15 O55 2.142270 1_555
Mo15 O62 2.161595 1_555
O32 V0 1.792313 1_555
O33 V1 1.772217 1_555
O34 V2 1.779395 1_555
O35 V3 1.784968 1_555
O36 V4 1.787717 1_555
O37 V5 1.778977 1_555
O38 V6 1.789178 1_555
O39 V7 1.780328 1_555
O40 V8 1.781839 1_555
O41 V9 1.774109 1_555
O42 V10 1.775743 1_555
O43 V11 1.775979 1_555
O44 V12 1.778895 1_555
O45 V13 1.775680 1_555
O46 V14 1.774960 1_555
O47 V15 1.777547 1_555
O48 V8 1.779010 1_555
O49 V9 1.776752 1_555
O50 V10 1.782261 1_555
O51 V11 1.775479 1_555
O52 V12 1.785951 1_555
O53 V13 1.778120 1_555
O54 V14 1.786453 1_555
O55 V15 1.778829 1_555
O56 V0 1.770024 1_555
O57 V1 1.777065 1_555
O58 V2 1.783496 1_555
O59 V3 1.764068 1_555
O60 V4 1.775857 1_555
O61 V5 1.771955 1_555
O62 V6 1.779745 1_555
O63 V7 1.773018 1_555
O64 V10 1.868516 1_545
O64 V4 1.878328 1_555
O65 V11 1.880017 1_545
O65 V5 1.893869 1_555
O66 V8 1.880263 1_555
O66 V6 1.886698 1_555
O67 V9 1.887557 1_555
O67 V7 1.904355 1_555
O68 V14 1.868927 1_545
O68 V0 1.880885 1_655
O69 V15 1.886673 1_545
O69 V1 1.905758 1_655
O70 V12 1.869412 1_555
O70 V2 1.876785 1_655
O71 V13 1.884731 1_555
O71 V3 1.899646 1_655
O72 V2 1.878076 1_555
O72 V8 1.890591 1_555
O73 V3 1.881690 1_555
O73 V9 1.901796 1_555
O74 V0 1.875263 1_565
O74 V10 1.878163 1_555
O75 V1 1.878771 1_565
O75 V11 1.892492 1_555
O76 V6 1.873927 1_555
O76 V12 1.885031 1_555
O77 V7 1.885834 1_555
O77 V13 1.902887 1_555
O78 V4 1.870880 1_565
O78 V14 1.876219 1_555
O79 V5 1.884925 1_565
O79 V15 1.895914 1_555
