# generated using pymatgen
data_Sr4MnRuO8
_symmetry_space_group_name_H-M   'P 1'
_cell_length_a   3.92694300
_cell_length_b   3.92694300
_cell_length_c   12.68084400
_cell_angle_alpha   90.00000000
_cell_angle_beta   90.00000000
_cell_angle_gamma   90.00000000
_symmetry_Int_Tables_number   1
_chemical_formula_structural   Sr4MnRuO8
_chemical_formula_sum   'Sr4 Mn1 Ru1 O8'
_cell_volume   195.54979043
_cell_formula_units_Z   1
loop_
 _symmetry_equiv_pos_site_id
 _symmetry_equiv_pos_as_xyz
  1  'x, y, z'
loop_
 _atom_site_type_symbol
 _atom_site_label
 _atom_site_symmetry_multiplicity
 _atom_site_fract_x
 _atom_site_fract_y
 _atom_site_fract_z
 _atom_site_occupancy
  Sr  Sr0  1  0.50000000  0.50000000  0.13770800  1
  Sr  Sr1  1  0.00000000  0.00000000  0.65207800  1
  Sr  Sr2  1  0.00000000  0.00000000  0.34792200  1
  Sr  Sr3  1  0.50000000  0.50000000  0.86229200  1
  Mn  Mn0  1  0.00000000  0.00000000  0.00000000  1
  Ru  Ru0  1  0.50000000  0.50000000  0.50000000  1
  O  O0  1  0.50000000  0.00000000  0.50000000  1
  O  O1  1  0.00000000  0.50000000  0.00000000  1
  O  O2  1  0.50000000  0.00000000  0.00000000  1
  O  O3  1  0.00000000  0.50000000  0.50000000  1
  O  O4  1  0.50000000  0.50000000  0.33888600  1
  O  O5  1  0.00000000  0.00000000  0.84190300  1
  O  O6  1  0.00000000  0.00000000  0.15809700  1
  O  O7  1  0.50000000  0.50000000  0.66111400  1
loop_
_geom_bond_atom_site_label_1
_geom_bond_atom_site_label_2
_geom_bond_distance
_geom_bond_site_symmetry_2
Mn0 O1 1.963472 1_555
Mn0 O2 1.963472 1_555
Mn0 O2 1.963472 1_455
Mn0 O1 1.963472 1_545
Mn0 O6 2.004803 1_555
Mn0 O5 2.004803 1_554
O0 Ru0 1.963472 1_545
O0 Ru0 1.963472 1_555
O0 Sr2 2.752135 1_655
O0 Sr2 2.752135 1_555
O0 Sr1 2.752135 1_655
O0 Sr1 2.752135 1_555
O1 Sr0 2.627665 1_555
O1 Sr0 2.627665 1_455
O1 Sr3 2.627665 1_454
O1 Sr3 2.627665 1_554
O2 Sr0 2.627665 1_545
O2 Sr0 2.627665 1_555
O2 Sr3 2.627665 1_544
O2 Sr3 2.627665 1_554
O3 Ru0 1.963472 1_455
O3 Ru0 1.963472 1_555
O3 Sr2 2.752135 1_565
O3 Sr2 2.752135 1_555
O3 Sr1 2.752135 1_555
O3 Sr1 2.752135 1_565
O4 Ru0 2.043062 1_555
O4 Sr0 2.551107 1_555
O4 Sr2 2.779131 1_565
O4 Sr2 2.779131 1_665
O4 Sr2 2.779131 1_555
O4 Sr2 2.779131 1_655
O5 Sr1 2.407141 1_555
O5 Sr3 2.788779 1_545
O5 Sr3 2.788779 1_445
O5 Sr3 2.788779 1_455
O5 Sr3 2.788779 1_555
O6 Sr2 2.407141 1_555
O6 Sr0 2.788779 1_445
O6 Sr0 2.788779 1_545
O6 Sr0 2.788779 1_455
O6 Sr0 2.788779 1_555
O7 Ru0 2.043062 1_555
O7 Sr3 2.551107 1_555
O7 Sr1 2.779131 1_665
O7 Sr1 2.779131 1_655
O7 Sr1 2.779131 1_565
O7 Sr1 2.779131 1_555
