# generated using pymatgen
data_Mg3Sb2O7
_symmetry_space_group_name_H-M   'P 1'
_cell_length_a   9.82010460
_cell_length_b   9.82010460
_cell_length_c   5.57232000
_cell_angle_alpha   90.00000000
_cell_angle_beta   90.00000000
_cell_angle_gamma   147.34311509
_symmetry_Int_Tables_number   1
_chemical_formula_structural   Mg3Sb2O7
_chemical_formula_sum   'Mg6 Sb4 O14'
_cell_volume   289.96514388
_cell_formula_units_Z   2
loop_
 _symmetry_equiv_pos_site_id
 _symmetry_equiv_pos_as_xyz
  1  'x, y, z'
loop_
 _atom_site_type_symbol
 _atom_site_label
 _atom_site_symmetry_multiplicity
 _atom_site_fract_x
 _atom_site_fract_y
 _atom_site_fract_z
 _atom_site_occupancy
  Mg  Mg0  1  0.25571900  0.25571900  0.25803800  1
  Mg  Mg1  1  0.74428100  0.74428100  0.75803800  1
  Mg  Mg2  1  0.00676200  0.40906700  0.19962200  1
  Mg  Mg3  1  0.99323800  0.59093300  0.69962200  1
  Mg  Mg4  1  0.40906700  0.00676200  0.19962200  1
  Mg  Mg5  1  0.59093300  0.99323800  0.69962200  1
  Sb  Sb0  1  0.84240500  0.63188700  0.25134300  1
  Sb  Sb1  1  0.15759500  0.36811300  0.75134300  1
  Sb  Sb2  1  0.36811300  0.15759500  0.75134300  1
  Sb  Sb3  1  0.63188700  0.84240500  0.25134300  1
  O  O0  1  0.65438200  0.06859500  0.32574400  1
  O  O1  1  0.34561800  0.93140500  0.82574400  1
  O  O2  1  0.93140500  0.34561800  0.82574400  1
  O  O3  1  0.06859500  0.65438200  0.32574400  1
  O  O4  1  0.43756200  0.72631600  0.94173600  1
  O  O5  1  0.56243800  0.27368400  0.44173600  1
  O  O6  1  0.27368400  0.56243800  0.44173600  1
  O  O7  1  0.72631600  0.43756200  0.94173600  1
  O  O8  1  0.99365600  0.15716000  0.09618200  1
  O  O9  1  0.00634400  0.84284000  0.59618200  1
  O  O10  1  0.58740100  0.58740100  0.09270700  1
  O  O11  1  0.41259900  0.41259900  0.59270700  1
  O  O12  1  0.15716000  0.99365600  0.09618200  1
  O  O13  1  0.84284000  0.00634400  0.59618200  1
loop_
_geom_bond_atom_site_label_1
_geom_bond_atom_site_label_2
_geom_bond_distance
_geom_bond_site_symmetry_2
Mg0 O12 2.044256 1_545
Mg0 O8 2.044256 1_455
Mg0 O10 2.050114 1_555
Mg0 O11 2.056251 1_555
Mg1 O13 2.044256 1_565
Mg1 O9 2.044256 1_655
Mg1 O11 2.050114 1_555
Mg1 O10 2.056251 1_556
Mg2 O0 2.040970 1_455
Mg2 O3 2.050103 1_555
Mg2 O6 2.076476 1_555
Mg2 O2 2.121291 1_454
Mg2 O8 2.435603 1_455
Mg3 O1 2.040970 1_655
Mg3 O2 2.050103 1_555
Mg3 O7 2.076476 1_555
Mg3 O3 2.121291 1_655
Mg3 O9 2.435603 1_655
Mg4 O3 2.040970 1_545
Mg4 O0 2.050103 1_555
Mg4 O5 2.076476 1_555
Mg4 O1 2.121291 1_544
Mg4 O12 2.435603 1_545
Mg5 O2 2.040970 1_565
Mg5 O1 2.050103 1_555
Mg5 O4 2.076476 1_555
Mg5 O0 2.121291 1_565
Mg5 O13 2.435603 1_565
O0 Sb3 2.080442 1_545
O1 Sb2 2.080442 1_565
O2 Sb1 2.080442 1_655
O3 Sb0 2.080442 1_455
O4 Sb3 2.062641 1_556
O4 Sb1 2.184824 1_555
O5 Sb2 2.062641 1_555
O5 Sb0 2.184824 1_555
O6 Sb1 2.062641 1_555
O6 Sb3 2.184824 1_555
O7 Sb0 2.062641 1_556
O7 Sb2 2.184824 1_555
O8 Sb3 2.105343 1_545
O8 Sb1 2.227093 1_654
O9 Sb2 2.105343 1_565
O9 Sb0 2.227093 1_455
O10 Sb3 2.324014 1_555
O10 Sb0 2.324014 1_555
O11 Sb2 2.324014 1_555
O11 Sb1 2.324014 1_555
O12 Sb0 2.105343 1_455
O12 Sb2 2.227093 1_564
O13 Sb1 2.105343 1_655
O13 Sb3 2.227093 1_545
