# generated using pymatgen
data_MgSc
_symmetry_space_group_name_H-M   'P 1'
_cell_length_a   3.59807934
_cell_length_b   5.09022539
_cell_length_c   5.08868809
_cell_angle_alpha   90.00000000
_cell_angle_beta   90.00000000
_cell_angle_gamma   90.00000000
_symmetry_Int_Tables_number   1
_chemical_formula_structural   MgSc
_chemical_formula_sum   'Mg2 Sc2'
_cell_volume   93.19949951
_cell_formula_units_Z   2
loop_
 _symmetry_equiv_pos_site_id
 _symmetry_equiv_pos_as_xyz
  1  'x, y, z'
loop_
 _atom_site_type_symbol
 _atom_site_label
 _atom_site_symmetry_multiplicity
 _atom_site_fract_x
 _atom_site_fract_y
 _atom_site_fract_z
 _atom_site_occupancy
  Mg  Mg0  1  0.50000000  0.75000000  0.24129963  1
  Mg  Mg1  1  0.50000000  0.25000000  0.75870037  1
  Sc  Sc0  1  -0.00000000  0.75000000  0.74351740  1
  Sc  Sc1  1  -0.00000000  0.25000000  0.25648260  1
loop_
_geom_bond_atom_site_label_1
_geom_bond_atom_site_label_2
_geom_bond_distance
_geom_bond_site_symmetry_2
Mg0 Sc0 3.106916 1_654
Mg0 Sc0 3.106916 1_554
Mg0 Sc1 3.117709 1_555
Mg0 Sc1 3.117709 1_655
Mg0 Sc1 3.117709 1_665
Mg0 Sc1 3.117709 1_565
Mg0 Sc0 3.125346 1_555
Mg0 Sc0 3.125346 1_655
Mg1 Sc1 3.106916 1_656
Mg1 Sc1 3.106916 1_556
Mg1 Sc0 3.117709 1_655
Mg1 Sc0 3.117709 1_645
Mg1 Sc0 3.117709 1_545
Mg1 Sc0 3.117709 1_555
Mg1 Sc1 3.125346 1_555
Mg1 Sc1 3.125346 1_655
