# generated using pymatgen
data_YbFeC6(N3O2)2
_symmetry_space_group_name_H-M   'P 1'
_cell_length_a   7.70325856
_cell_length_b   7.70325856
_cell_length_c   13.19938500
_cell_angle_alpha   90.00000000
_cell_angle_beta   90.00000000
_cell_angle_gamma   120.47443496
_symmetry_Int_Tables_number   1
_chemical_formula_structural   YbFeC6(N3O2)2
_chemical_formula_sum   'Yb2 Fe2 C12 N12 O8'
_cell_volume   675.05183554
_cell_formula_units_Z   2
loop_
 _symmetry_equiv_pos_site_id
 _symmetry_equiv_pos_as_xyz
  1  'x, y, z'
loop_
 _atom_site_type_symbol
 _atom_site_label
 _atom_site_symmetry_multiplicity
 _atom_site_fract_x
 _atom_site_fract_y
 _atom_site_fract_z
 _atom_site_occupancy
  Yb  Yb0  1  0.66600300  0.33399700  0.25000000  1
  Yb  Yb1  1  0.33399700  0.66600300  0.75000000  1
  Fe  Fe0  1  0.00000000  0.00000000  0.00000000  1
  Fe  Fe1  1  0.00000000  0.00000000  0.50000000  1
  C  C0  1  0.86957300  0.13042700  0.06838600  1
  C  C1  1  0.13042700  0.86957300  0.93161500  1
  C  C2  1  0.13042700  0.86957300  0.56838600  1
  C  C3  1  0.86957300  0.13042700  0.43161500  1
  C  C4  1  0.86709600  0.76875800  0.09054200  1
  C  C5  1  0.13290400  0.23124200  0.90945800  1
  C  C6  1  0.13290400  0.23124200  0.59054200  1
  C  C7  1  0.23124200  0.13290400  0.40945800  1
  C  C8  1  0.86709600  0.76875800  0.40945800  1
  C  C9  1  0.76875800  0.86709600  0.59054200  1
  C  C10  1  0.76875800  0.86709600  0.90945800  1
  C  C11  1  0.23124200  0.13290400  0.09054200  1
  N  N0  1  0.78960600  0.62464100  0.14089400  1
  N  N1  1  0.21039400  0.37535900  0.85910600  1
  N  N2  1  0.21039400  0.37535900  0.64089400  1
  N  N3  1  0.37535900  0.21039400  0.35910600  1
  N  N4  1  0.78960600  0.62464100  0.35910600  1
  N  N5  1  0.62464100  0.78960600  0.64089400  1
  N  N6  1  0.62464100  0.78960600  0.85910600  1
  N  N7  1  0.37535900  0.21039400  0.14089400  1
  N  N8  1  0.79352300  0.20647700  0.11206600  1
  N  N9  1  0.20647700  0.79352300  0.88793400  1
  N  N10  1  0.20647700  0.79352300  0.61206600  1
  N  N11  1  0.79352300  0.20647700  0.38793400  1
  O  O0  1  0.16411500  0.56972200  0.25000000  1
  O  O1  1  0.83588500  0.43027800  0.75000000  1
  O  O2  1  0.43027800  0.83588500  0.25000000  1
  O  O3  1  0.56972200  0.16411500  0.75000000  1
  O  O4  1  0.32436700  0.67563300  0.17276700  1
  O  O5  1  0.67563300  0.32436700  0.82723300  1
  O  O6  1  0.67563300  0.32436700  0.67276700  1
  O  O7  1  0.32436700  0.67563300  0.32723300  1
loop_
_geom_bond_atom_site_label_1
_geom_bond_atom_site_label_2
_geom_bond_distance
_geom_bond_site_symmetry_2
C0 N8 1.169153 1_555
C0 Fe0 1.964070 1_655
C1 N9 1.169160 1_555
C1 Fe0 1.964064 1_566
C2 N10 1.169153 1_555
C2 Fe1 1.964070 1_565
C3 N11 1.169160 1_555
C3 Fe1 1.964064 1_655
C4 N0 1.165479 1_555
C4 Fe0 1.949285 1_665
C5 N1 1.165479 1_555
C5 Fe0 1.949285 1_556
C6 N2 1.165479 1_555
C6 Fe1 1.949285 1_555
C7 N3 1.165479 1_555
C7 Fe1 1.949285 1_555
C8 N4 1.165479 1_555
C8 Fe1 1.949285 1_665
C9 N5 1.165479 1_555
C9 Fe1 1.949285 1_665
C10 N6 1.165479 1_555
C10 Fe0 1.949285 1_666
C11 N7 1.165479 1_555
C11 Fe0 1.949285 1_555
N0 Yb0 2.414746 1_555
N1 Yb1 2.414746 1_555
N2 Yb1 2.414746 1_555
N3 Yb0 2.414746 1_555
N4 Yb0 2.414746 1_555
N5 Yb1 2.414746 1_555
N6 Yb1 2.414746 1_555
N7 Yb0 2.414746 1_555
N8 Yb0 2.494675 1_555
N9 Yb1 2.494675 1_555
N10 Yb1 2.494675 1_555
N11 Yb0 2.494675 1_555
O0 O4 1.485665 1_555
O0 O7 1.485665 1_555
O1 O6 1.485665 1_555
O1 O5 1.485665 1_555
O2 O4 1.485665 1_555
O2 O7 1.485665 1_555
O3 O6 1.485665 1_555
O3 O5 1.485665 1_555
