# generated using pymatgen
data_SnO2
_symmetry_space_group_name_H-M   'P 1'
_cell_length_a   6.44913994
_cell_length_b   6.44913994
_cell_length_c   15.53144100
_cell_angle_alpha   90.00000000
_cell_angle_beta   90.00000000
_cell_angle_gamma   119.99999936
_symmetry_Int_Tables_number   1
_chemical_formula_structural   SnO2
_chemical_formula_sum   'Sn12 O24'
_cell_volume   559.43030251
_cell_formula_units_Z   12
loop_
 _symmetry_equiv_pos_site_id
 _symmetry_equiv_pos_as_xyz
  1  'x, y, z'
loop_
 _atom_site_type_symbol
 _atom_site_label
 _atom_site_symmetry_multiplicity
 _atom_site_fract_x
 _atom_site_fract_y
 _atom_site_fract_z
 _atom_site_occupancy
  Sn  Sn0  1  0.98199300  0.49099700  0.16749600  1
  Sn  Sn1  1  0.16761900  0.83238100  0.49839200  1
  Sn  Sn2  1  0.33333300  0.66666700  0.33007400  1
  Sn  Sn3  1  0.50900300  0.01800700  0.16749600  1
  Sn  Sn4  1  0.66476100  0.83238100  0.49839200  1
  Sn  Sn5  1  0.50900300  0.49099700  0.16749600  1
  Sn  Sn6  1  0.00000000  0.00000000  0.66352200  1
  Sn  Sn7  1  0.16761900  0.33523900  0.49839200  1
  Sn  Sn8  1  0.32962000  0.16481000  0.83461100  1
  Sn  Sn9  1  0.83519000  0.67038000  0.83461100  1
  Sn  Sn10  1  0.83519000  0.16481000  0.83461100  1
  Sn  Sn11  1  0.33333300  0.66666700  0.95667600  1
  O  O0  1  0.35241600  0.17620800  0.09971100  1
  O  O1  1  0.82379200  0.64758400  0.09971100  1
  O  O2  1  0.66666700  0.33333300  0.24423500  1
  O  O3  1  0.82379200  0.17620800  0.09971100  1
  O  O4  1  0.04297900  0.52149000  0.42193500  1
  O  O5  1  0.19273800  0.80726200  0.24199500  1
  O  O6  1  0.33333300  0.66666700  0.08458000  1
  O  O7  1  0.19273800  0.38547700  0.24199500  1
  O  O8  1  0.47851000  0.95702100  0.42193500  1
  O  O9  1  0.33333300  0.66666700  0.56869800  1
  O  O10  1  0.47851000  0.52149000  0.42193500  1
  O  O11  1  0.61452300  0.80726200  0.24199500  1
  O  O12  1  0.71389500  0.85694800  0.75445300  1
  O  O13  1  0.85408800  0.14591200  0.57794700  1
  O  O14  1  0.00000000  0.00000000  0.43251300  1
  O  O15  1  0.85408800  0.70817700  0.57794700  1
  O  O16  1  0.00000000  0.00000000  0.90349200  1
  O  O17  1  0.14305200  0.28610500  0.75445300  1
  O  O18  1  0.14305200  0.85694800  0.75445300  1
  O  O19  1  0.29182300  0.14591200  0.57794700  1
  O  O20  1  0.50008900  0.49991100  0.90210400  1
  O  O21  1  0.50008900  0.00017700  0.90210400  1
  O  O22  1  0.66666700  0.33333300  0.77380800  1
  O  O23  1  0.99982300  0.49991100  0.90210400  1
loop_
_geom_bond_atom_site_label_1
_geom_bond_atom_site_label_2
_geom_bond_distance
_geom_bond_site_symmetry_2
O0 Sn3 2.049251 1_555
O0 Sn5 2.049255 1_555
O1 Sn0 2.049251 1_555
O1 Sn5 2.049255 1_555
O2 Sn3 2.126532 1_555
O2 Sn0 2.126532 1_555
O2 Sn5 2.126541 1_555
O3 Sn0 2.049255 1_555
O3 Sn3 2.049255 1_555
O4 Sn7 2.112949 1_555
O4 Sn1 2.112949 1_555
O4 Sn2 2.159943 1_555
O5 Sn2 2.082742 1_555
O5 Sn0 2.138702 1_455
O5 Sn3 2.138702 1_565
O6 Sn11 1.986533 1_554
O6 Sn5 2.347119 1_555
O6 Sn0 2.347119 1_455
O6 Sn3 2.347119 1_565
O7 Sn2 2.082742 1_555
O7 Sn0 2.138702 1_455
O7 Sn5 2.138702 1_555
O8 Sn4 2.112949 1_555
O8 Sn1 2.112949 1_555
O8 Sn2 2.159943 1_555
O9 Sn1 2.149140 1_555
O9 Sn7 2.149140 1_555
O9 Sn4 2.149140 1_555
O10 Sn7 2.112949 1_555
O10 Sn4 2.112949 1_555
O10 Sn2 2.159943 1_555
O11 Sn2 2.082742 1_555
O11 Sn3 2.138702 1_565
O11 Sn5 2.138702 1_555
O12 Sn6 2.132591 1_665
O12 Sn10 2.133247 1_565
O12 Sn9 2.133252 1_555
O13 Sn6 2.103092 1_655
O13 Sn4 2.153414 1_545
O13 Sn7 2.153414 1_655
O14 Sn1 2.133683 1_545
O14 Sn4 2.133688 1_445
O14 Sn7 2.133688 1_555
O15 Sn6 2.103088 1_665
O15 Sn4 2.153414 1_555
O15 Sn1 2.153414 1_655
O16 Sn10 2.129243 1_455
O16 Sn8 2.129243 1_555
O16 Sn9 2.129243 1_445
O17 Sn6 2.132591 1_555
O17 Sn10 2.133247 1_455
O17 Sn8 2.133252 1_555
O18 Sn6 2.132587 1_565
O18 Sn9 2.133247 1_455
O18 Sn8 2.133247 1_565
O19 Sn6 2.103088 1_555
O19 Sn7 2.153414 1_555
O19 Sn1 2.153414 1_545
O20 Sn11 2.046475 1_555
O20 Sn9 2.145232 1_555
O20 Sn8 2.145232 1_555
O21 Sn11 2.046465 1_545
O21 Sn10 2.145232 1_555
O21 Sn8 2.145236 1_555
O22 Sn10 2.106039 1_555
O22 Sn8 2.106044 1_555
O22 Sn9 2.106044 1_555
O23 Sn11 2.046465 1_655
O23 Sn10 2.145232 1_555
O23 Sn9 2.145236 1_555
