# generated using pymatgen
data_CsP(HO2)2
_symmetry_space_group_name_H-M   'P 1'
_cell_length_a   4.87625658
_cell_length_b   6.25788683
_cell_length_c   7.85595825
_cell_angle_alpha   90.00000000
_cell_angle_beta   106.53760511
_cell_angle_gamma   90.00000000
_symmetry_Int_Tables_number   1
_chemical_formula_structural   CsP(HO2)2
_chemical_formula_sum   'Cs2 P2 H4 O8'
_cell_volume   229.80837420
_cell_formula_units_Z   2
loop_
 _symmetry_equiv_pos_site_id
 _symmetry_equiv_pos_as_xyz
  1  'x, y, z'
loop_
 _atom_site_type_symbol
 _atom_site_label
 _atom_site_symmetry_multiplicity
 _atom_site_fract_x
 _atom_site_fract_y
 _atom_site_fract_z
 _atom_site_occupancy
  Cs  Cs0  1  0.26300319  0.21936916  0.73475513  1
  Cs  Cs1  1  0.73699681  0.71936916  0.26524487  1
  P  P0  1  0.20782957  0.23023539  0.23813543  1
  P  P1  1  0.79217043  0.73023539  0.76186457  1
  H  H0  1  0.03644184  0.98380099  0.02436037  1
  H  H1  1  0.96355816  0.48380099  0.97563963  1
  H  H2  1  0.68019393  0.22356684  0.35464313  1
  H  H3  1  0.31980607  0.72356684  0.64535687  1
  O  O0  1  0.21344612  0.01927809  0.13000021  1
  O  O1  1  0.78655388  0.51927809  0.86999979  1
  O  O2  1  0.20673608  0.42363879  0.12245247  1
  O  O3  1  0.79326392  0.92363879  0.87754753  1
  O  O4  1  0.02768200  0.72372723  0.67409218  1
  O  O5  1  0.97231800  0.22372723  0.32590782  1
  O  O6  1  0.49684679  0.21988351  0.39048692  1
  O  O7  1  0.50315321  0.71988351  0.60951308  1
loop_
_geom_bond_atom_site_label_1
_geom_bond_atom_site_label_2
_geom_bond_distance
_geom_bond_site_symmetry_2
Cs0 O1 3.102368 1_555
Cs0 O3 3.117338 1_545
Cs0 O5 3.119990 1_455
Cs0 O6 3.220333 1_555
Cs1 O0 3.102368 1_565
Cs1 O2 3.117338 1_555
Cs1 O4 3.119990 1_655
Cs1 O7 3.220333 1_555
H0 O0 1.036926 1_565
H0 O3 1.448966 1_454
H1 O1 1.036926 1_555
H1 O2 1.448966 1_656
H2 O6 1.011170 1_555
H2 O5 1.504375 1_555
H3 O7 1.011170 1_555
H3 O4 1.504375 1_555
O0 P0 1.574307 1_555
O1 P1 1.574307 1_555
O2 P0 1.512616 1_555
O3 P1 1.512616 1_555
O4 P1 1.498927 1_455
O5 P0 1.498927 1_655
O6 P0 1.569272 1_555
O7 P1 1.569272 1_555
