# generated using pymatgen
data_UCuO6
_symmetry_space_group_name_H-M   'P 1'
_cell_length_a   5.32135000
_cell_length_b   5.80721238
_cell_length_c   7.59655912
_cell_angle_alpha   79.69375862
_cell_angle_beta   85.34994349
_cell_angle_gamma   83.77631196
_symmetry_Int_Tables_number   1
_chemical_formula_structural   UCuO6
_chemical_formula_sum   'U2 Cu2 O12'
_cell_volume   229.14472533
_cell_formula_units_Z   2
loop_
 _symmetry_equiv_pos_site_id
 _symmetry_equiv_pos_as_xyz
  1  'x, y, z'
loop_
 _atom_site_type_symbol
 _atom_site_label
 _atom_site_symmetry_multiplicity
 _atom_site_fract_x
 _atom_site_fract_y
 _atom_site_fract_z
 _atom_site_occupancy
  U  U0  1  0.14680500  0.65350700  0.29668100  1
  U  U1  1  0.85319500  0.34649300  0.70331900  1
  Cu  Cu0  1  0.33642900  0.13795600  0.10006800  1
  Cu  Cu1  1  0.66357100  0.86204400  0.89993200  1
  O  O0  1  0.41070300  0.73815500  0.40473700  1
  O  O1  1  0.58929700  0.26184500  0.59526300  1
  O  O2  1  0.10895600  0.39674000  0.84002100  1
  O  O3  1  0.89104400  0.60326000  0.15997900  1
  O  O4  1  0.05876500  0.04097400  0.23322200  1
  O  O5  1  0.94123500  0.95902600  0.76677800  1
  O  O6  1  0.33716900  0.86511200  0.00948100  1
  O  O7  1  0.66283100  0.13488800  0.99051900  1
  O  O8  1  0.92962100  0.71104800  0.51335500  1
  O  O9  1  0.07037900  0.28895200  0.48664500  1
  O  O10  1  0.36812300  0.40591900  0.18655900  1
  O  O11  1  0.63187700  0.59408100  0.81344100  1
loop_
_geom_bond_atom_site_label_1
_geom_bond_atom_site_label_2
_geom_bond_distance
_geom_bond_site_symmetry_2
Cu0 O4 1.804924 1_555
Cu0 O10 1.822733 1_555
Cu0 O6 1.836421 1_545
Cu0 O7 1.863845 1_554
Cu0 O2 2.560691 1_554
Cu1 O5 1.804924 1_555
Cu1 O11 1.822733 1_555
Cu1 O7 1.836421 1_565
Cu1 O6 1.863845 1_556
Cu1 O3 2.560691 1_556
O0 U0 1.835330 1_555
O1 U1 1.835330 1_555
O2 U1 1.854602 1_455
O3 U0 1.854602 1_655
O4 U0 2.221434 1_545
O5 U1 2.221434 1_565
O6 U0 2.499679 1_555
O7 U1 2.499679 1_555
O8 U0 1.990278 1_655
O8 U1 2.393348 1_555
O9 U1 1.990278 1_455
O9 U0 2.393348 1_555
O10 U0 2.014340 1_555
O11 U1 2.014340 1_555
