# generated using pymatgen
data_LaTaZnCrO6
_symmetry_space_group_name_H-M   'P 1'
_cell_length_a   5.72504800
_cell_length_b   5.42284500
_cell_length_c   10.00285536
_cell_angle_alpha   58.01628818
_cell_angle_beta   90.00000000
_cell_angle_gamma   90.00000000
_symmetry_Int_Tables_number   1
_chemical_formula_structural   LaTaZnCrO6
_chemical_formula_sum   'La2 Ta2 Zn2 Cr2 O12'
_cell_volume   263.40736840
_cell_formula_units_Z   2
loop_
 _symmetry_equiv_pos_site_id
 _symmetry_equiv_pos_as_xyz
  1  'x, y, z'
loop_
 _atom_site_type_symbol
 _atom_site_label
 _atom_site_symmetry_multiplicity
 _atom_site_fract_x
 _atom_site_fract_y
 _atom_site_fract_z
 _atom_site_occupancy
  La  La0  1  0.30261800  0.78026000  0.24759500  1
  La  La1  1  0.69738200  0.78026000  0.74759500  1
  Ta  Ta0  1  0.22173300  0.50223000  0.99746200  1
  Ta  Ta1  1  0.77826700  0.50223000  0.49746200  1
  Zn  Zn0  1  0.64593700  0.25718100  0.25093900  1
  Zn  Zn1  1  0.35406300  0.25718100  0.75093900  1
  Cr  Cr0  1  0.24230000  0.00461500  0.50075500  1
  Cr  Cr1  1  0.75770000  0.00461500  0.00075500  1
  O  O0  1  0.74634400  0.38077300  0.72050600  1
  O  O1  1  0.05112400  0.15205200  0.05466200  1
  O  O2  1  0.04367900  0.75049500  0.44498700  1
  O  O3  1  0.54654900  0.23848400  0.06578100  1
  O  O4  1  0.55283100  0.85925900  0.43552300  1
  O  O5  1  0.29036600  0.57464700  0.78179200  1
  O  O6  1  0.25365600  0.38077300  0.22050600  1
  O  O7  1  0.94887600  0.15205200  0.55466200  1
  O  O8  1  0.95632100  0.75049500  0.94498700  1
  O  O9  1  0.45345100  0.23848400  0.56578100  1
  O  O10  1  0.44716900  0.85925900  0.93552300  1
  O  O11  1  0.70963400  0.57464700  0.28179200  1
loop_
_geom_bond_atom_site_label_1
_geom_bond_atom_site_label_2
_geom_bond_distance
_geom_bond_site_symmetry_2
La0 O6 2.338151 1_555
La0 O1 2.395940 1_565
La0 O2 2.405128 1_555
La0 O11 2.527048 1_555
La0 O4 2.573393 1_555
La0 O3 2.577792 1_565
La1 O0 2.338151 1_555
La1 O7 2.395940 1_565
La1 O8 2.405128 1_555
La1 O5 2.527048 1_555
La1 O10 2.573393 1_555
La1 O9 2.577792 1_565
Cr0 O7 2.051505 1_455
Cr0 O2 2.077885 1_545
Cr0 O9 2.089665 1_555
Cr0 O4 2.180033 1_545
Cr0 O6 2.442527 1_555
Cr0 O5 2.543870 1_545
Cr1 O1 2.051505 1_655
Cr1 O8 2.077885 1_544
Cr1 O3 2.089665 1_555
Cr1 O10 2.180033 1_544
Cr1 O0 2.442527 1_554
Cr1 O11 2.543870 1_545
O0 Ta1 1.971855 1_555
O0 Zn1 2.317212 1_555
O1 Ta0 1.932989 1_554
O2 Ta1 1.910052 1_455
O3 Zn0 1.990799 1_555
O3 Ta0 2.221548 1_554
O4 Zn0 2.031967 1_565
O4 Ta1 2.127763 1_555
O5 Zn1 1.937749 1_555
O5 Ta0 2.016220 1_555
O6 Ta0 1.971855 1_554
O6 Zn0 2.317212 1_555
O7 Ta1 1.932989 1_555
O8 Ta0 1.910052 1_655
O9 Zn1 1.990799 1_555
O9 Ta1 2.221548 1_555
O10 Zn1 2.031967 1_565
O10 Ta0 2.127763 1_555
O11 Zn0 1.937749 1_555
O11 Ta1 2.016220 1_555
