# generated using pymatgen
data_BaHoFe4O7
_symmetry_space_group_name_H-M   'P 1'
_cell_length_a   6.46435954
_cell_length_b   6.46435954
_cell_length_c   6.46435954
_cell_angle_alpha   121.27391491
_cell_angle_beta   121.27391491
_cell_angle_gamma   87.80732280
_symmetry_Int_Tables_number   1
_chemical_formula_structural   BaHoFe4O7
_chemical_formula_sum   'Ba1 Ho1 Fe4 O7'
_cell_volume   187.18551084
_cell_formula_units_Z   1
loop_
 _symmetry_equiv_pos_site_id
 _symmetry_equiv_pos_as_xyz
  1  'x, y, z'
loop_
 _atom_site_type_symbol
 _atom_site_label
 _atom_site_symmetry_multiplicity
 _atom_site_fract_x
 _atom_site_fract_y
 _atom_site_fract_z
 _atom_site_occupancy
  Ba  Ba0  1  0.25000000  0.75000000  0.50000000  1
  Ho  Ho0  1  0.00000000  0.00000000  0.00000000  1
  Fe  Fe0  1  0.62033800  0.40813200  0.26854800  1
  Fe  Fe1  1  0.13958400  0.35179000  0.73145200  1
  Fe  Fe2  1  0.59186800  0.86041600  0.21220700  1
  Fe  Fe3  1  0.64821000  0.37966200  0.78779300  1
  O  O0  1  0.22245100  0.72616100  0.90177600  1
  O  O1  1  0.82438500  0.32067500  0.09822400  1
  O  O2  1  0.27383900  0.17561500  0.49629000  1
  O  O3  1  0.67932500  0.77754900  0.50371000  1
  O  O4  1  0.75539400  0.75539400  0.00000000  1
  O  O5  1  0.24460600  0.24460600  0.00000000  1
  O  O6  1  0.75000000  0.25000000  0.50000000  1
loop_
_geom_bond_atom_site_label_1
_geom_bond_atom_site_label_2
_geom_bond_distance
_geom_bond_site_symmetry_2
Ba0 O0 2.774693 1_555
Ba0 O3 2.774693 1_555
Ba0 O2 2.774693 1_565
Ba0 O1 2.774693 1_455
Ba0 O4 3.170143 1_556
Ba0 O5 3.170143 1_555
Ba0 O4 3.170143 1_455
Ba0 O5 3.170143 1_566
Ho0 O0 2.278338 1_544
Ho0 O3 2.278338 1_444
Ho0 O2 2.278338 1_555
Ho0 O1 2.278338 1_455
Ho0 O5 2.278561 1_555
Ho0 O4 2.278561 1_445
Fe0 O3 1.964125 1_555
Fe0 O5 1.985911 1_555
Fe0 O1 2.018977 1_555
Fe0 O6 2.050951 1_555
Fe1 O2 1.964125 1_555
Fe1 O5 1.985911 1_556
Fe1 O0 2.018977 1_555
Fe1 O6 2.050951 1_455
Fe2 O0 1.964126 1_554
Fe2 O4 1.985916 1_555
Fe2 O3 2.018971 1_555
Fe2 O6 2.050951 1_565
Fe3 O1 1.964130 1_556
Fe3 O4 1.985910 1_556
Fe3 O2 2.018977 1_555
Fe3 O6 2.050945 1_555
