# generated using pymatgen
data_Li2V(OF)2
_symmetry_space_group_name_H-M   'P 1'
_cell_length_a   5.95483242
_cell_length_b   5.95478915
_cell_length_c   8.32876883
_cell_angle_alpha   91.09969465
_cell_angle_beta   88.90118911
_cell_angle_gamma   87.07837745
_symmetry_Int_Tables_number   1
_chemical_formula_structural   Li2V(OF)2
_chemical_formula_sum   'Li8 V4 O8 F8'
_cell_volume   294.83795225
_cell_formula_units_Z   4
loop_
 _symmetry_equiv_pos_site_id
 _symmetry_equiv_pos_as_xyz
  1  'x, y, z'
loop_
 _atom_site_type_symbol
 _atom_site_label
 _atom_site_symmetry_multiplicity
 _atom_site_fract_x
 _atom_site_fract_y
 _atom_site_fract_z
 _atom_site_occupancy
  Li  Li0  1  0.49707000  0.24702300  0.62497400  1
  Li  Li1  1  0.99505700  0.74505200  0.12499500  1
  Li  Li2  1  0.50085700  0.75581200  0.37487100  1
  Li  Li3  1  0.00576600  0.25092700  0.87516000  1
  Li  Li4  1  0.75117900  0.25002000  0.25082000  1
  Li  Li5  1  0.25293200  0.75687900  0.74720300  1
  Li  Li6  1  0.00687700  0.00289100  0.50277200  1
  Li  Li7  1  0.50008100  0.50120800  0.99921900  1
  V  V0  1  0.74514100  0.75298300  0.74542400  1
  V  V1  1  0.00291900  0.49516500  0.50465900  1
  V  V2  1  0.25315700  0.24729500  0.25409600  1
  V  V3  1  0.49725600  0.00319300  0.99586300  1
  O  O0  1  0.76968300  0.73205000  0.51992400  1
  O  O1  1  0.27734100  0.23171000  0.01183300  1
  O  O2  1  0.48173700  0.02729400  0.23805600  1
  O  O3  1  0.98197900  0.51976700  0.73023200  1
  O  O4  1  0.22842400  0.26033300  0.48947000  1
  O  O5  1  0.72422400  0.76962100  0.98213400  1
  O  O6  1  0.51035400  0.97843700  0.76044200  1
  O  O7  1  0.01965300  0.47415800  0.26780000  1
  F  F0  1  0.23005600  0.73633600  0.50496900  1
  F  F1  1  0.73078100  0.23637700  0.00522900  1
  F  F2  1  0.98627800  0.98002300  0.74512100  1
  F  F3  1  0.48640700  0.48079700  0.24475300  1
  F  F4  1  0.01458800  0.01946000  0.25672000  1
  F  F5  1  0.50994900  0.52080200  0.75631200  1
  F  F6  1  0.77074700  0.25979700  0.49369700  1
  F  F7  1  0.26950600  0.76458900  0.99324900  1
loop_
_geom_bond_atom_site_label_1
_geom_bond_atom_site_label_2
_geom_bond_distance
_geom_bond_site_symmetry_2
Li0 O6 1.974098 1_545
Li0 O4 1.974565 1_555
Li1 O5 2.023463 1_554
Li1 O7 2.023484 1_655
Li2 O2 1.995445 1_565
Li2 O0 2.024798 1_555
Li3 O1 1.995215 1_556
Li3 O3 2.024237 1_455
Li4 O2 2.136061 1_555
Li4 O7 2.139218 1_655
Li5 O6 2.075970 1_555
Li5 O3 2.202323 1_455
Li6 O4 2.076047 1_555
Li6 O0 2.202243 1_445
Li7 O1 2.136312 1_556
Li7 O5 2.139015 1_555
O0 V0 1.882266 1_555
O0 V1 1.929139 1_655
O1 V3 1.840935 1_554
O1 V2 2.020144 1_555
O2 V2 1.841569 1_555
O2 V3 2.019529 1_554
O3 V1 1.882892 1_655
O3 V0 1.928841 1_555
O4 V1 1.889434 1_555
O4 V2 1.962832 1_555
O5 V3 1.889614 1_565
O5 V0 1.973317 1_555
O6 V0 1.888987 1_555
O6 V3 1.963235 1_565
O7 V2 1.888902 1_555
O7 V1 1.974592 1_555
F0 Li2 1.935152 1_555
F0 Li6 2.018172 1_565
F0 V1 2.022346 1_555
F0 Li5 2.026484 1_555
F1 Li3 1.952557 1_654
F1 V3 2.016136 1_554
F1 Li7 2.039991 1_554
F1 Li4 2.051697 1_555
F2 Li3 1.935374 1_665
F2 Li5 2.018455 1_655
F2 V0 2.021789 1_555
F2 Li6 2.027452 1_665
F3 Li2 1.952843 1_555
F3 V2 2.016315 1_555
F3 Li4 2.040049 1_555
F3 Li7 2.051237 1_554
F4 Li1 1.960285 1_445
F4 V2 2.013896 1_555
F4 Li4 2.033163 1_455
F4 Li6 2.053322 1_555
F5 Li0 1.951369 1_555
F5 V0 2.019552 1_555
F5 Li5 2.028208 1_555
F5 Li7 2.028612 1_555
F6 Li0 1.950556 1_555
F6 V1 2.020301 1_655
F6 Li6 2.027919 1_655
F6 Li4 2.028341 1_555
F7 Li1 1.960611 1_456
F7 V3 2.013689 1_565
F7 Li7 2.033126 1_555
F7 Li5 2.053272 1_555
