# generated using pymatgen
data_LuSiAg
_symmetry_space_group_name_H-M   'P 1'
_cell_length_a   6.90050373
_cell_length_b   6.90050373
_cell_length_c   4.11616748
_cell_angle_alpha   90.00000000
_cell_angle_beta   90.00000000
_cell_angle_gamma   120.00000216
_symmetry_Int_Tables_number   1
_chemical_formula_structural   LuSiAg
_chemical_formula_sum   'Lu3 Si3 Ag3'
_cell_volume   169.74041074
_cell_formula_units_Z   3
loop_
 _symmetry_equiv_pos_site_id
 _symmetry_equiv_pos_as_xyz
  1  'x, y, z'
loop_
 _atom_site_type_symbol
 _atom_site_label
 _atom_site_symmetry_multiplicity
 _atom_site_fract_x
 _atom_site_fract_y
 _atom_site_fract_z
 _atom_site_occupancy
  Lu  Lu0  1  0.41991558  0.41991558  0.50000000  1
  Lu  Lu1  1  0.58008442  -0.00000000  0.50000000  1
  Lu  Lu2  1  -0.00000000  0.58008442  0.50000000  1
  Si  Si0  1  0.66666700  0.33333300  0.00000000  1
  Si  Si1  1  0.33333300  0.66666700  0.00000000  1
  Si  Si2  1  0.00000000  0.00000000  0.50000000  1
  Ag  Ag0  1  0.74850037  0.74850037  -0.00000000  1
  Ag  Ag1  1  0.25149963  -0.00000000  0.00000000  1
  Ag  Ag2  1  -0.00000000  0.25149963  0.00000000  1
loop_
_geom_bond_atom_site_label_1
_geom_bond_atom_site_label_2
_geom_bond_distance
_geom_bond_site_symmetry_2
Lu0 Si2 2.897629 1_555
Lu0 Si0 2.917053 1_555
Lu0 Si0 2.917053 1_556
Lu0 Si1 2.917053 1_556
Lu0 Si1 2.917053 1_555
Lu1 Si2 2.897629 1_655
Lu1 Si0 2.917048 1_555
Lu1 Si0 2.917048 1_556
Lu1 Si1 2.917049 1_546
Lu1 Si1 2.917049 1_545
Lu2 Si2 2.897629 1_565
Lu2 Si1 2.917048 1_556
Lu2 Si1 2.917048 1_555
Lu2 Si0 2.917049 1_455
Lu2 Si0 2.917049 1_456
Ag0 Si0 2.628414 1_555
Ag0 Si1 2.628414 1_555
Ag0 Si2 2.692133 1_665
Ag0 Si2 2.692133 1_664
Ag0 Ag2 3.005929 1_665
Ag0 Ag1 3.005929 1_665
Ag0 Lu0 3.062158 1_555
Ag0 Lu0 3.062158 1_554
Ag0 Lu1 3.258078 1_565
Ag0 Lu1 3.258078 1_564
Ag0 Lu2 3.258078 1_655
Ag0 Lu2 3.258078 1_654
Ag1 Si1 2.628407 1_545
Ag1 Si0 2.628411 1_555
Ag1 Si2 2.692133 1_554
Ag1 Si2 2.692133 1_555
Ag1 Ag2 3.005929 1_555
Ag1 Lu1 3.062158 1_555
Ag1 Lu1 3.062158 1_554
Ag1 Lu2 3.258078 1_545
Ag1 Lu2 3.258078 1_544
Ag1 Lu0 3.258078 1_554
Ag1 Lu0 3.258078 1_555
Ag2 Si0 2.628407 1_455
Ag2 Si1 2.628411 1_555
Ag2 Si2 2.692133 1_554
Ag2 Si2 2.692133 1_555
Ag2 Lu2 3.062158 1_555
Ag2 Lu2 3.062158 1_554
Ag2 Lu1 3.258078 1_455
Ag2 Lu1 3.258078 1_454
Ag2 Lu0 3.258078 1_554
Ag2 Lu0 3.258078 1_555
