# generated using pymatgen
data_K3ErF6
_symmetry_space_group_name_H-M   'P 1'
_cell_length_a   6.76646609
_cell_length_b   6.76646609
_cell_length_c   6.76646609
_cell_angle_alpha   95.00285350
_cell_angle_beta   117.15487648
_cell_angle_gamma   117.15487648
_symmetry_Int_Tables_number   1
_chemical_formula_structural   K3ErF6
_chemical_formula_sum   'K3 Er1 F6'
_cell_volume   227.54581672
_cell_formula_units_Z   1
loop_
 _symmetry_equiv_pos_site_id
 _symmetry_equiv_pos_as_xyz
  1  'x, y, z'
loop_
 _atom_site_type_symbol
 _atom_site_label
 _atom_site_symmetry_multiplicity
 _atom_site_fract_x
 _atom_site_fract_y
 _atom_site_fract_z
 _atom_site_occupancy
  K  K0  1  0.50000000  0.75000000  0.25000000  1
  K  K1  1  0.50000000  0.25000000  0.75000000  1
  K  K2  1  0.00000000  0.50000000  0.50000000  1
  Er  Er0  1  0.00000000  0.00000000  0.00000000  1
  F  F0  1  0.69406700  0.00000000  0.69406700  1
  F  F1  1  0.30593300  0.00000000  0.30593300  1
  F  F2  1  0.69406700  0.69406700  0.00000000  1
  F  F3  1  0.30593300  0.30593300  0.00000000  1
  F  F4  1  0.00000000  0.23665600  0.23665600  1
  F  F5  1  0.00000000  0.76334400  0.76334400  1
loop_
_geom_bond_atom_site_label_1
_geom_bond_atom_site_label_2
_geom_bond_distance
_geom_bond_site_symmetry_2
Er0 F1 2.158460 1_555
Er0 F0 2.158460 1_454
Er0 F2 2.158460 1_445
Er0 F3 2.158460 1_555
Er0 F5 2.163620 1_544
Er0 F4 2.163620 1_555
F0 K0 2.664353 1_545
F0 K1 2.664353 1_555
F1 K0 2.664353 1_545
F1 K1 2.664353 1_555
F2 K0 2.664353 1_555
F2 K1 2.664353 1_554
F3 K0 2.664353 1_555
F3 K1 2.664353 1_554
F4 K2 2.407614 1_555
F5 K2 2.407614 1_555
