# generated using pymatgen
data_LiY2(FeO2)4
_symmetry_space_group_name_H-M   'P 1'
_cell_length_a   6.68146602
_cell_length_b   6.62708444
_cell_length_c   6.66953126
_cell_angle_alpha   55.65812577
_cell_angle_beta   54.29029874
_cell_angle_gamma   55.56416920
_symmetry_Int_Tables_number   1
_chemical_formula_structural   LiY2(FeO2)4
_chemical_formula_sum   'Li1 Y2 Fe4 O8'
_cell_volume   185.29857865
_cell_formula_units_Z   1
loop_
 _symmetry_equiv_pos_site_id
 _symmetry_equiv_pos_as_xyz
  1  'x, y, z'
loop_
 _atom_site_type_symbol
 _atom_site_label
 _atom_site_symmetry_multiplicity
 _atom_site_fract_x
 _atom_site_fract_y
 _atom_site_fract_z
 _atom_site_occupancy
  Li  Li0  1  0.50000000  0.50000000  0.50000000  1
  Y  Y0  1  0.65252100  0.64663900  0.65383200  1
  Y  Y1  1  0.34747900  0.35336100  0.34616800  1
  Fe  Fe0  1  0.00000000  0.50000000  0.00000000  1
  Fe  Fe1  1  0.00000000  0.00000000  0.00000000  1
  Fe  Fe2  1  0.50000000  0.00000000  0.00000000  1
  Fe  Fe3  1  0.00000000  0.00000000  0.50000000  1
  O  O0  1  0.24569200  0.72285500  0.76040900  1
  O  O1  1  0.23994700  0.27653800  0.75384100  1
  O  O2  1  0.22738500  0.76522500  0.22578600  1
  O  O3  1  0.21753400  0.22696300  0.21839600  1
  O  O4  1  0.76005300  0.72346200  0.24615900  1
  O  O5  1  0.75430800  0.27714500  0.23959100  1
  O  O6  1  0.77261500  0.23477500  0.77421400  1
  O  O7  1  0.78246600  0.77303700  0.78160400  1
loop_
_geom_bond_atom_site_label_1
_geom_bond_atom_site_label_2
_geom_bond_distance
_geom_bond_site_symmetry_2
Li0 O0 2.166968 1_555
Li0 O5 2.166968 1_555
Li0 O1 2.173883 1_555
Li0 O4 2.173883 1_555
Li0 O6 2.528439 1_555
Li0 O2 2.528439 1_555
Fe0 O7 2.007892 1_454
Fe0 O3 2.007892 1_555
Fe0 O1 2.108115 1_554
Fe0 O4 2.108115 1_455
Fe0 O0 2.108672 1_554
Fe0 O5 2.108672 1_455
Fe1 O2 2.085784 1_545
Fe1 O6 2.085784 1_454
Fe1 O0 2.336847 1_544
Fe1 O5 2.336847 1_455
Fe1 O1 2.340906 1_554
Fe1 O4 2.340906 1_445
Fe2 O3 1.999550 1_555
Fe2 O7 1.999550 1_544
Fe2 O2 2.316433 1_545
Fe2 O6 2.316433 1_554
Fe2 O1 2.325306 1_554
Fe2 O4 2.325306 1_545
Fe3 O3 2.000208 1_555
Fe3 O7 2.000208 1_445
Fe3 O2 2.316733 1_545
Fe3 O6 2.316733 1_455
Fe3 O0 2.324633 1_545
Fe3 O5 2.324633 1_455
O0 Y0 2.178503 1_555
O1 Y1 2.177088 1_555
O2 Y1 2.130961 1_555
O3 Y1 2.161778 1_555
O4 Y0 2.177088 1_555
O5 Y1 2.178503 1_555
O6 Y0 2.130961 1_555
O7 Y0 2.161778 1_555
