# generated using pymatgen
data_Bi3P3O13
_symmetry_space_group_name_H-M   'P 1'
_cell_length_a   7.05798500
_cell_length_b   8.10812200
_cell_length_c   11.49472030
_cell_angle_alpha   84.57050822
_cell_angle_beta   90.00000000
_cell_angle_gamma   90.00000000
_symmetry_Int_Tables_number   1
_chemical_formula_structural   Bi3P3O13
_chemical_formula_sum   'Bi6 P6 O26'
_cell_volume   654.85707012
_cell_formula_units_Z   2
loop_
 _symmetry_equiv_pos_site_id
 _symmetry_equiv_pos_as_xyz
  1  'x, y, z'
loop_
 _atom_site_type_symbol
 _atom_site_label
 _atom_site_symmetry_multiplicity
 _atom_site_fract_x
 _atom_site_fract_y
 _atom_site_fract_z
 _atom_site_occupancy
  Bi  Bi0  1  0.25000000  0.64150300  0.21099800  1
  Bi  Bi1  1  0.75000000  0.35849700  0.78900200  1
  Bi  Bi2  1  0.25000000  0.21002200  0.45050800  1
  Bi  Bi3  1  0.50000000  0.00000000  0.00000000  1
  Bi  Bi4  1  0.75000000  0.78997800  0.54949200  1
  Bi  Bi5  1  0.00000000  0.00000000  0.00000000  1
  P  P0  1  0.25000000  0.78026300  0.48882300  1
  P  P1  1  0.75000000  0.21973700  0.51117700  1
  P  P2  1  0.25000000  0.25029900  0.77106200  1
  P  P3  1  0.75000000  0.74970100  0.22893800  1
  P  P4  1  0.75000000  0.68439300  0.87864700  1
  P  P5  1  0.25000000  0.31560700  0.12135300  1
  O  O0  1  0.75000000  0.64701500  0.74474900  1
  O  O1  1  0.57240600  0.23704000  0.43394800  1
  O  O2  1  0.25000000  0.18482200  0.65106800  1
  O  O3  1  0.56696300  0.77776800  0.90473200  1
  O  O4  1  0.75000000  0.36631500  0.59338500  1
  O  O5  1  0.75000000  0.12994800  0.91121600  1
  O  O6  1  0.25000000  0.63368500  0.40661500  1
  O  O7  1  0.06696300  0.22223200  0.09526800  1
  O  O8  1  0.25000000  0.94726400  0.40754600  1
  O  O9  1  0.75000000  0.05273600  0.59245400  1
  O  O10  1  0.07363500  0.35504900  0.79494700  1
  O  O11  1  0.25000000  0.87005200  0.08878400  1
  O  O12  1  0.57363500  0.64495100  0.20505300  1
  O  O13  1  0.75000000  0.50491100  0.94162500  1
  O  O14  1  0.75000000  0.81517800  0.34893200  1
  O  O15  1  0.43303700  0.22223200  0.09526800  1
  O  O16  1  0.92759400  0.23704000  0.43394800  1
  O  O17  1  0.42759400  0.76296000  0.56605200  1
  O  O18  1  0.42636500  0.35504900  0.79494700  1
  O  O19  1  0.25000000  0.35298500  0.25525100  1
  O  O20  1  0.75000000  0.90668700  0.13087600  1
  O  O21  1  0.25000000  0.09331300  0.86912400  1
  O  O22  1  0.92636500  0.64495100  0.20505300  1
  O  O23  1  0.93303700  0.77776800  0.90473200  1
  O  O24  1  0.07240600  0.76296000  0.56605200  1
  O  O25  1  0.25000000  0.49508900  0.05837500  1
loop_
_geom_bond_atom_site_label_1
_geom_bond_atom_site_label_2
_geom_bond_distance
_geom_bond_site_symmetry_2
Bi0 O25 2.209346 1_555
Bi0 O11 2.216947 1_555
Bi0 O6 2.243452 1_555
Bi0 O22 2.285325 1_455
Bi0 O12 2.285325 1_555
Bi0 O19 2.346501 1_555
Bi1 O13 2.209346 1_555
Bi1 O5 2.216947 1_555
Bi1 O4 2.243452 1_555
Bi1 O10 2.285325 1_655
Bi1 O18 2.285325 1_555
Bi1 O0 2.346501 1_555
Bi2 O8 2.232016 1_545
Bi2 O1 2.292248 1_555
Bi2 O16 2.292248 1_455
Bi2 O2 2.295079 1_555
Bi2 O19 2.426676 1_555
Bi3 O15 2.245611 1_555
Bi3 O3 2.245611 1_544
Bi3 O11 2.249805 1_545
Bi3 O5 2.249805 1_554
Bi3 O21 2.394505 1_554
Bi3 O20 2.394505 1_545
Bi4 O9 2.232016 1_565
Bi4 O24 2.292248 1_655
Bi4 O17 2.292248 1_555
Bi4 O14 2.295079 1_555
Bi4 O0 2.426676 1_555
Bi5 O7 2.245611 1_555
Bi5 O23 2.245611 1_444
Bi5 O11 2.249805 1_545
Bi5 O5 2.249805 1_454
Bi5 O21 2.394505 1_554
Bi5 O20 2.394505 1_445
O0 P4 1.596562 1_555
O1 P1 1.534706 1_555
O2 P2 1.524102 1_555
O3 P4 1.541101 1_555
O4 P1 1.586802 1_555
O6 P0 1.586802 1_555
O7 P5 1.541101 1_555
O8 P0 1.570645 1_555
O9 P1 1.570645 1_555
O10 P2 1.546073 1_555
O12 P3 1.546073 1_555
O13 P4 1.562842 1_555
O14 P3 1.524102 1_555
O15 P5 1.541101 1_555
O16 P1 1.534706 1_555
O17 P0 1.534706 1_555
O18 P2 1.546073 1_555
O19 P5 1.596562 1_555
O20 P3 1.618403 1_555
O21 P2 1.618403 1_555
O22 P3 1.546073 1_555
O23 P4 1.541101 1_555
O24 P0 1.534706 1_555
O25 P5 1.562842 1_555
