# generated using pymatgen
data_LuGaCoO4
_symmetry_space_group_name_H-M   'P 1'
_cell_length_a   8.66734966
_cell_length_b   8.66734966
_cell_length_c   8.66734971
_cell_angle_alpha   22.78709086
_cell_angle_beta   22.78709086
_cell_angle_gamma   22.78708914
_symmetry_Int_Tables_number   1
_chemical_formula_structural   LuGaCoO4
_chemical_formula_sum   'Lu1 Ga1 Co1 O4'
_cell_volume   85.70114625
_cell_formula_units_Z   1
loop_
 _symmetry_equiv_pos_site_id
 _symmetry_equiv_pos_as_xyz
  1  'x, y, z'
loop_
 _atom_site_type_symbol
 _atom_site_label
 _atom_site_symmetry_multiplicity
 _atom_site_fract_x
 _atom_site_fract_y
 _atom_site_fract_z
 _atom_site_occupancy
  Lu  Lu0  1  0.99851600  0.99851600  0.99851600  1
  Ga  Ga0  1  0.21371900  0.21371900  0.21371900  1
  Co  Co0  1  0.78423400  0.78423400  0.78423400  1
  O  O0  1  0.70523600  0.70523600  0.70523600  1
  O  O1  1  0.28998200  0.28998200  0.28998200  1
  O  O2  1  0.87825800  0.87825800  0.87825800  1
  O  O3  1  0.13645400  0.13645400  0.13645400  1
loop_
_geom_bond_atom_site_label_1
_geom_bond_atom_site_label_2
_geom_bond_distance
_geom_bond_site_symmetry_2
Lu0 O0 2.221957 1_655
Lu0 O0 2.221957 1_565
Lu0 O0 2.221957 1_556
Lu0 O1 2.243287 1_656
Lu0 O1 2.243287 1_566
Lu0 O1 2.243288 1_665
Ga0 O1 1.930715 1_555
Ga0 O3 1.956082 1_555
Ga0 O2 1.977821 1_544
Ga0 O2 1.977821 1_454
Ga0 O2 1.977821 1_445
Co0 O0 1.999955 1_555
Co0 O3 2.034084 1_566
Co0 O3 2.034084 1_656
Co0 O3 2.034084 1_665
Co0 O2 2.380361 1_555
