# generated using pymatgen
data_Zn(SnO2)4
_symmetry_space_group_name_H-M   'P 1'
_cell_length_a   6.41936922
_cell_length_b   6.41936922
_cell_length_c   6.41936858
_cell_angle_alpha   62.14615797
_cell_angle_beta   62.14615797
_cell_angle_gamma   62.14615569
_symmetry_Int_Tables_number   1
_chemical_formula_structural   Zn(SnO2)4
_chemical_formula_sum   'Zn1 Sn4 O8'
_cell_volume   196.02159781
_cell_formula_units_Z   1
loop_
 _symmetry_equiv_pos_site_id
 _symmetry_equiv_pos_as_xyz
  1  'x, y, z'
loop_
 _atom_site_type_symbol
 _atom_site_label
 _atom_site_symmetry_multiplicity
 _atom_site_fract_x
 _atom_site_fract_y
 _atom_site_fract_z
 _atom_site_occupancy
  Zn  Zn0  1  0.50000000  0.50000000  0.50000000  1
  Sn  Sn0  1  0.00000000  0.50000000  0.50000000  1
  Sn  Sn1  1  0.50000000  0.00000000  0.50000000  1
  Sn  Sn2  1  0.50000000  0.50000000  0.00000000  1
  Sn  Sn3  1  0.00000000  0.00000000  0.00000000  1
  O  O0  1  0.30252900  0.73870700  0.73870700  1
  O  O1  1  0.26129300  0.26129300  0.69747100  1
  O  O2  1  0.69747100  0.26129300  0.26129300  1
  O  O3  1  0.26129300  0.69747100  0.26129300  1
  O  O4  1  0.26553100  0.26553100  0.26553100  1
  O  O5  1  0.73446900  0.73446900  0.73446900  1
  O  O6  1  0.73870700  0.30252900  0.73870700  1
  O  O7  1  0.73870700  0.73870700  0.30252900  1
loop_
_geom_bond_atom_site_label_1
_geom_bond_atom_site_label_2
_geom_bond_distance
_geom_bond_site_symmetry_2
O0 Sn2 2.130365 1_556
O0 Sn1 2.130365 1_565
O0 Zn0 2.206131 1_555
O0 Sn3 2.437144 1_566
O1 Sn0 2.130365 1_555
O1 Sn1 2.130365 1_555
O1 Zn0 2.206132 1_555
O1 Sn3 2.437144 1_556
O2 Sn2 2.130365 1_555
O2 Sn1 2.130365 1_555
O2 Zn0 2.206131 1_555
O2 Sn3 2.437144 1_655
O3 Sn2 2.130365 1_555
O3 Sn0 2.130365 1_555
O3 Zn0 2.206131 1_555
O3 Sn3 2.437144 1_565
O4 Sn0 2.181412 1_555
O4 Sn1 2.181412 1_555
O4 Sn2 2.181412 1_555
O5 Sn1 2.181412 1_565
O5 Sn0 2.181412 1_655
O5 Sn2 2.181412 1_556
O6 Sn2 2.130365 1_556
O6 Sn0 2.130365 1_655
O6 Zn0 2.206131 1_555
O6 Sn3 2.437144 1_656
O7 Sn0 2.130365 1_655
O7 Sn1 2.130365 1_565
O7 Zn0 2.206132 1_555
O7 Sn3 2.437144 1_665
