# generated using pymatgen
data_CaAl2H4Pb2(O2F3)2
_symmetry_space_group_name_H-M   'P 1'
_cell_length_a   8.68281428
_cell_length_b   7.96121673
_cell_length_c   5.13835970
_cell_angle_alpha   83.61895116
_cell_angle_beta   118.04856860
_cell_angle_gamma   118.85597482
_symmetry_Int_Tables_number   1
_chemical_formula_structural   CaAl2H4Pb2(O2F3)2
_chemical_formula_sum   'Ca1 Al2 H4 Pb2 O4 F6'
_cell_volume   271.45484503
_cell_formula_units_Z   1
loop_
 _symmetry_equiv_pos_site_id
 _symmetry_equiv_pos_as_xyz
  1  'x, y, z'
loop_
 _atom_site_type_symbol
 _atom_site_label
 _atom_site_symmetry_multiplicity
 _atom_site_fract_x
 _atom_site_fract_y
 _atom_site_fract_z
 _atom_site_occupancy
  Ca  Ca0  1  0.49604900  0.99749900  0.99322300  1
  Al  Al0  1  0.19712200  0.64131100  0.21633400  1
  Al  Al1  1  0.79519300  0.35384100  0.77036900  1
  H  H0  1  0.13129400  0.45634600  0.76250700  1
  H  H1  1  0.86112500  0.53865000  0.22456100  1
  H  H2  1  0.12948800  0.74764000  0.74714900  1
  H  H3  1  0.86215600  0.24698300  0.23931200  1
  Pb  Pb0  1  0.88788100  0.87650800  0.68470700  1
  Pb  Pb1  1  0.10516000  0.11946000  0.30324600  1
  O  O0  1  0.07101800  0.45008200  0.88601100  1
  O  O1  1  0.92134300  0.54485400  0.10100000  1
  O  O2  1  0.17104100  0.82556900  0.92638200  1
  O  O3  1  0.82110900  0.16931900  0.06017300  1
  F  F0  1  0.28993800  0.82466700  0.51414300  1
  F  F1  1  0.70227000  0.17056000  0.47235300  1
  F  F2  1  0.22147900  0.46935500  0.48142900  1
  F  F3  1  0.77113500  0.52589100  0.50550700  1
  F  F4  1  0.44855300  0.73793100  0.25484500  1
  F  F5  1  0.54372800  0.25723600  0.73175100  1
loop_
_geom_bond_atom_site_label_1
_geom_bond_atom_site_label_2
_geom_bond_distance
_geom_bond_site_symmetry_2
Ca0 F4 2.308435 1_556
Ca0 F5 2.309032 1_565
Ca0 F0 2.321401 1_555
Ca0 F1 2.322202 1_566
Ca0 O2 2.328044 1_555
Ca0 O3 2.328215 1_566
Al0 F0 1.822971 1_555
Al0 F2 1.835300 1_555
Al0 F4 1.844878 1_555
Al0 O0 1.901359 1_554
Al0 O1 1.914804 1_455
Al0 O2 1.985046 1_554
Al1 F1 1.823017 1_555
Al1 F3 1.834787 1_555
Al1 F5 1.844948 1_555
Al1 O1 1.901324 1_556
Al1 O0 1.915088 1_655
Al1 O3 1.985904 1_556
H0 O0 0.979413 1_555
H1 O1 0.979397 1_555
H2 O2 0.980671 1_555
H3 O3 0.980758 1_555
O2 Pb0 2.393854 1_455
O3 Pb1 2.395461 1_655
F2 Pb1 2.568964 1_555
F3 Pb0 2.574758 1_555
