# generated using pymatgen
data_Dy2VFeO6
_symmetry_space_group_name_H-M   'P 1'
_cell_length_a   5.68218900
_cell_length_b   5.25089600
_cell_length_c   9.19555886
_cell_angle_alpha   55.28486667
_cell_angle_beta   90.00000000
_cell_angle_gamma   90.00000000
_symmetry_Int_Tables_number   1
_chemical_formula_structural   Dy2VFeO6
_chemical_formula_sum   'Dy4 V2 Fe2 O12'
_cell_volume   225.52551511
_cell_formula_units_Z   2
loop_
 _symmetry_equiv_pos_site_id
 _symmetry_equiv_pos_as_xyz
  1  'x, y, z'
loop_
 _atom_site_type_symbol
 _atom_site_label
 _atom_site_symmetry_multiplicity
 _atom_site_fract_x
 _atom_site_fract_y
 _atom_site_fract_z
 _atom_site_occupancy
  Dy  Dy0  1  0.57318800  0.72713400  0.75076800  1
  Dy  Dy1  1  0.07318800  0.27286600  0.74923200  1
  Dy  Dy2  1  0.42681200  0.27286600  0.24923200  1
  Dy  Dy3  1  0.92681200  0.72713400  0.25076800  1
  V  V0  1  0.00000000  0.00000000  0.50000000  1
  V  V1  1  0.50000000  0.00000000  0.00000000  1
  Fe  Fe0  1  0.00000000  0.50000000  0.00000000  1
  Fe  Fe1  1  0.50000000  0.50000000  0.50000000  1
  O  O0  1  0.96054300  0.85827200  0.75199200  1
  O  O1  1  0.46054300  0.14172800  0.74800800  1
  O  O2  1  0.03945700  0.14172800  0.24800800  1
  O  O3  1  0.53945700  0.85827200  0.25199200  1
  O  O4  1  0.81104200  0.24922300  0.94466400  1
  O  O5  1  0.31104200  0.75077700  0.55533600  1
  O  O6  1  0.19514700  0.36598200  0.44441200  1
  O  O7  1  0.69514700  0.63401800  0.05558800  1
  O  O8  1  0.18895800  0.75077700  0.05533600  1
  O  O9  1  0.68895800  0.24922300  0.44466400  1
  O  O10  1  0.80485300  0.63401800  0.55558800  1
  O  O11  1  0.30485300  0.36598200  0.94441200  1
loop_
_geom_bond_atom_site_label_1
_geom_bond_atom_site_label_2
_geom_bond_distance
_geom_bond_site_symmetry_2
Dy0 O1 2.255369 1_565
Dy0 O5 2.282474 1_555
Dy0 O11 2.290336 1_555
Dy0 O0 2.308164 1_555
Dy0 O10 2.488508 1_555
Dy0 O4 2.491351 1_555
Dy0 O7 2.648597 1_556
Dy0 O9 2.661231 1_565
Dy1 O0 2.255369 1_445
Dy1 O4 2.282474 1_455
Dy1 O10 2.290336 1_455
Dy1 O1 2.308164 1_555
Dy1 O11 2.488508 1_555
Dy1 O5 2.491351 1_555
Dy1 O6 2.648597 1_555
Dy1 O8 2.661231 1_546
Dy2 O3 2.255369 1_545
Dy2 O9 2.282474 1_555
Dy2 O7 2.290336 1_555
Dy2 O2 2.308164 1_555
Dy2 O6 2.488508 1_555
Dy2 O8 2.491351 1_555
Dy2 O11 2.648597 1_554
Dy2 O5 2.661231 1_545
Dy3 O2 2.255369 1_665
Dy3 O8 2.282474 1_655
Dy3 O6 2.290336 1_655
Dy3 O3 2.308164 1_555
Dy3 O7 2.488508 1_555
Dy3 O9 2.491351 1_555
Dy3 O10 2.648597 1_555
Dy3 O4 2.661231 1_564
Fe0 O2 1.975784 1_555
Fe0 O0 1.975784 1_454
Fe0 O8 1.977094 1_555
Fe0 O4 1.977094 1_454
Fe0 O11 2.041284 1_554
Fe0 O7 2.041284 1_455
Fe1 O1 1.975784 1_555
Fe1 O3 1.975784 1_555
Fe1 O9 1.977094 1_555
Fe1 O5 1.977094 1_555
Fe1 O10 2.041284 1_555
Fe1 O6 2.041284 1_555
O0 V0 2.002348 1_665
O1 V1 2.002348 1_556
O2 V0 2.002348 1_555
O3 V1 2.002348 1_565
O4 V1 2.082479 1_556
O5 V0 2.082479 1_565
O6 V0 2.016201 1_555
O7 V1 2.016201 1_565
O8 V1 2.082479 1_565
O9 V0 2.082479 1_655
O10 V0 2.016201 1_665
O11 V1 2.016201 1_556
