# generated using pymatgen
data_Mg6NbSi
_symmetry_space_group_name_H-M   'P 1'
_cell_length_a   4.81729300
_cell_length_b   6.25093500
_cell_length_c   10.61375800
_cell_angle_alpha   90.00000000
_cell_angle_beta   90.00000000
_cell_angle_gamma   90.00000000
_symmetry_Int_Tables_number   1
_chemical_formula_structural   Mg6NbSi
_chemical_formula_sum   'Mg12 Nb2 Si2'
_cell_volume   319.60769439
_cell_formula_units_Z   2
loop_
 _symmetry_equiv_pos_site_id
 _symmetry_equiv_pos_as_xyz
  1  'x, y, z'
loop_
 _atom_site_type_symbol
 _atom_site_label
 _atom_site_symmetry_multiplicity
 _atom_site_fract_x
 _atom_site_fract_y
 _atom_site_fract_z
 _atom_site_occupancy
  Mg  Mg0  1  0.00000000  0.25436500  0.08631800  1
  Mg  Mg1  1  0.00000000  0.74563500  0.08631800  1
  Mg  Mg2  1  0.00000000  0.50000000  0.83375100  1
  Mg  Mg3  1  0.50000000  0.24704300  0.91925800  1
  Mg  Mg4  1  0.50000000  0.75295700  0.91925800  1
  Mg  Mg5  1  0.50000000  0.50000000  0.66780600  1
  Mg  Mg6  1  0.00000000  0.75436500  0.58631800  1
  Mg  Mg7  1  0.00000000  0.24563500  0.58631800  1
  Mg  Mg8  1  0.00000000  0.00000000  0.33375100  1
  Mg  Mg9  1  0.50000000  0.74704300  0.41925800  1
  Mg  Mg10  1  0.50000000  0.25295700  0.41925800  1
  Mg  Mg11  1  0.50000000  0.00000000  0.16780600  1
  Nb  Nb0  1  0.50000000  0.50000000  0.17925500  1
  Nb  Nb1  1  0.50000000  0.00000000  0.67925500  1
  Si  Si0  1  0.00000000  0.50000000  0.30803600  1
  Si  Si1  1  0.00000000  0.00000000  0.80803600  1
loop_
_geom_bond_atom_site_label_1
_geom_bond_atom_site_label_2
_geom_bond_distance
_geom_bond_site_symmetry_2
Mg0 Si0 2.809883 1_555
Mg0 Mg3 2.991267 1_554
Mg0 Mg3 2.991267 1_454
Mg0 Mg11 3.012935 1_555
Mg0 Mg11 3.012935 1_455
Mg0 Nb0 3.021951 1_455
Mg0 Nb0 3.021951 1_555
Mg0 Mg8 3.070025 1_555
Mg0 Mg2 3.089284 1_554
Mg1 Si0 2.809883 1_555
Mg1 Mg4 2.991267 1_454
Mg1 Mg4 2.991267 1_554
Mg1 Mg11 3.012935 1_465
Mg1 Mg11 3.012935 1_565
Mg1 Nb0 3.021951 1_455
Mg1 Nb0 3.021951 1_555
Mg1 Mg8 3.070025 1_565
Mg1 Mg2 3.089284 1_554
Mg2 Mg5 2.983916 1_555
Mg2 Mg5 2.983916 1_455
Mg2 Mg3 3.020840 1_455
Mg2 Mg4 3.020840 1_455
Mg2 Mg3 3.020840 1_555
Mg2 Mg4 3.020840 1_555
Mg2 Mg6 3.070025 1_555
Mg2 Mg7 3.070025 1_555
Mg2 Si1 3.137362 1_565
Mg2 Si1 3.137362 1_555
Mg3 Nb1 2.978862 1_555
Mg3 Mg4 3.088499 1_545
Mg3 Si1 3.095129 1_655
Mg3 Si1 3.095129 1_555
Mg3 Mg5 3.102098 1_555
Mg3 Mg4 3.162436 1_555
Mg3 Nb0 3.180462 1_556
Mg4 Nb1 2.978862 1_565
Mg4 Si1 3.095129 1_565
Mg4 Si1 3.095129 1_665
Mg4 Mg5 3.102098 1_555
Mg4 Nb0 3.180462 1_556
Mg5 Mg7 3.012935 1_655
Mg5 Mg6 3.012935 1_555
Mg5 Mg7 3.012935 1_555
Mg5 Mg6 3.012935 1_655
Mg5 Mg9 3.056779 1_555
Mg5 Nb1 3.127829 1_555
Mg5 Nb1 3.127829 1_565
Mg6 Si1 2.809883 1_565
Mg6 Mg9 2.991267 1_455
Mg6 Mg9 2.991267 1_555
Mg6 Nb1 3.021951 1_465
Mg6 Nb1 3.021951 1_565
Mg6 Mg8 3.089284 1_565
Mg7 Si1 2.809883 1_555
Mg7 Nb1 3.021951 1_455
Mg7 Nb1 3.021951 1_555
Mg7 Mg8 3.089284 1_555
Mg8 Mg9 3.020840 1_545
Mg8 Mg9 3.020840 1_445
Mg8 Si0 3.137362 1_555
Mg8 Si0 3.137362 1_545
Mg9 Nb0 2.978862 1_555
Mg9 Si0 3.095129 1_555
Mg9 Si0 3.095129 1_655
Mg9 Nb1 3.180462 1_565
Mg10 Nb0 2.978862 1_555
Mg10 Mg7 2.991267 1_555
Mg10 Mg7 2.991267 1_655
Mg10 Mg8 3.020840 1_655
Mg10 Mg8 3.020840 1_555
Mg10 Mg5 3.056779 1_555
Mg10 Mg9 3.088499 1_555
Mg10 Si0 3.095129 1_555
Mg10 Si0 3.095129 1_655
Mg10 Mg11 3.102098 1_555
Mg10 Mg9 3.162436 1_545
Mg10 Nb1 3.180462 1_555
Mg11 Mg8 2.983916 1_655
Mg11 Mg8 2.983916 1_555
Mg11 Mg4 3.056779 1_544
Mg11 Mg3 3.056779 1_554
Mg11 Mg9 3.102098 1_545
Mg11 Nb0 3.127829 1_555
Mg11 Nb0 3.127829 1_545
Nb0 Si0 2.769451 1_555
Nb0 Si0 2.769451 1_655
Nb1 Si1 2.769451 1_555
Nb1 Si1 2.769451 1_655
