# generated using pymatgen
data_Y2ZnPd
_symmetry_space_group_name_H-M   'P 1'
_cell_length_a   11.64488393
_cell_length_b   11.64488393
_cell_length_c   11.64488393
_cell_angle_alpha   125.16408593
_cell_angle_beta   118.35420058
_cell_angle_gamma   87.08577402
_symmetry_Int_Tables_number   1
_chemical_formula_structural   Y2ZnPd
_chemical_formula_sum   'Y2 Zn1 Pd1'
_cell_volume   1080.25238345
_cell_formula_units_Z   1
loop_
 _symmetry_equiv_pos_site_id
 _symmetry_equiv_pos_as_xyz
  1  'x, y, z'
loop_
 _atom_site_type_symbol
 _atom_site_label
 _atom_site_symmetry_multiplicity
 _atom_site_fract_x
 _atom_site_fract_y
 _atom_site_fract_z
 _atom_site_occupancy
  Y  Y0  1  0.00000000  0.26224900  0.26224900  1
  Y  Y1  1  0.00000000  0.73775100  0.73775100  1
  Zn  Zn0  1  0.00000000  0.00000000  0.00000000  1
  Pd  Pd0  1  0.00000000  0.50000000  0.50000000  1
loop_
_geom_bond_atom_site_label_1
_geom_bond_atom_site_label_2
_geom_bond_distance
_geom_bond_site_symmetry_2
Y0 Zn0 2.812470 1_555
Y1 Zn0 2.812470 1_566
Pd0 Y1 2.549743 1_555
Pd0 Y0 2.549743 1_555
