# generated using pymatgen
data_BaAl9Fe2
_symmetry_space_group_name_H-M   'P 1'
_cell_length_a   15.88252218
_cell_length_b   15.88251617
_cell_length_c   7.90097476
_cell_angle_alpha   90.00000000
_cell_angle_beta   90.00000000
_cell_angle_gamma   119.99998548
_symmetry_Int_Tables_number   1
_chemical_formula_structural   BaAl9Fe2
_chemical_formula_sum   'Ba8 Al72 Fe16'
_cell_volume   1726.03717921
_cell_formula_units_Z   8
loop_
 _symmetry_equiv_pos_site_id
 _symmetry_equiv_pos_as_xyz
  1  'x, y, z'
loop_
 _atom_site_type_symbol
 _atom_site_label
 _atom_site_symmetry_multiplicity
 _atom_site_fract_x
 _atom_site_fract_y
 _atom_site_fract_z
 _atom_site_occupancy
  Ba  Ba0_0  1  0.00000000  0.00000000  0.00000000  1
  Ba  Ba0_1  1  0.00000000  0.00000000  0.50000000  1
  Ba  Ba0_2  1  0.00000000  0.50000000  0.00000000  1
  Ba  Ba0_3  1  0.00000000  0.50000000  0.50000000  1
  Ba  Ba0_4  1  0.50000000  0.00000000  0.00000000  1
  Ba  Ba0_5  1  0.50000000  0.00000000  0.50000000  1
  Ba  Ba0_6  1  0.50000000  0.50000000  0.00000000  1
  Ba  Ba0_7  1  0.50000000  0.50000000  0.50000000  1
  Al  Al0_0  1  0.25000000  0.00000000  0.00000000  1
  Al  Al0_1  1  0.25000000  0.00000000  0.50000000  1
  Al  Al0_2  1  0.25000000  0.50000000  0.00000000  1
  Al  Al0_3  1  0.25000000  0.50000000  0.50000000  1
  Al  Al0_4  1  0.75000000  0.00000000  0.00000000  1
  Al  Al0_5  1  0.75000000  0.00000000  0.50000000  1
  Al  Al0_6  1  0.75000000  0.50000000  0.00000000  1
  Al  Al0_7  1  0.75000000  0.50000000  0.50000000  1
  Al  Al1_0  1  0.25000000  0.25000000  0.00000000  1
  Al  Al1_1  1  0.25000000  0.25000000  0.50000000  1
  Al  Al1_2  1  0.25000000  0.75000000  0.00000000  1
  Al  Al1_3  1  0.25000000  0.75000000  0.50000000  1
  Al  Al1_4  1  0.75000000  0.25000000  0.00000000  1
  Al  Al1_5  1  0.75000000  0.25000000  0.50000000  1
  Al  Al1_6  1  0.75000000  0.75000000  0.00000000  1
  Al  Al1_7  1  0.75000000  0.75000000  0.50000000  1
  Al  Al2_0  1  0.00000000  0.25000000  0.00000000  1
  Al  Al2_1  1  0.00000000  0.25000000  0.50000000  1
  Al  Al2_2  1  0.00000000  0.75000000  0.00000000  1
  Al  Al2_3  1  0.00000000  0.75000000  0.50000000  1
  Al  Al2_4  1  0.50000000  0.25000000  0.00000000  1
  Al  Al2_5  1  0.50000000  0.25000000  0.50000000  1
  Al  Al2_6  1  0.50000000  0.75000000  0.00000000  1
  Al  Al2_7  1  0.50000000  0.75000000  0.50000000  1
  Al  Al3_0  1  0.10917314  0.21834527  0.25000000  1
  Al  Al3_1  1  0.10917314  0.21834527  0.75000000  1
  Al  Al3_2  1  0.10917314  0.71834527  0.25000000  1
  Al  Al3_3  1  0.10917314  0.71834527  0.75000000  1
  Al  Al3_4  1  0.60917314  0.21834527  0.25000000  1
  Al  Al3_5  1  0.60917314  0.21834527  0.75000000  1
  Al  Al3_6  1  0.60917314  0.71834527  0.25000000  1
  Al  Al3_7  1  0.60917314  0.71834527  0.75000000  1
  Al  Al4_0  1  0.39082687  0.10917314  0.25000000  1
  Al  Al4_1  1  0.39082687  0.10917314  0.75000000  1
  Al  Al4_2  1  0.39082687  0.60917314  0.25000000  1
  Al  Al4_3  1  0.39082687  0.60917314  0.75000000  1
  Al  Al4_4  1  0.89082687  0.10917314  0.25000000  1
  Al  Al4_5  1  0.89082687  0.10917314  0.75000000  1
  Al  Al4_6  1  0.89082687  0.60917314  0.25000000  1
  Al  Al4_7  1  0.89082687  0.60917314  0.75000000  1
  Al  Al5_0  1  0.21834527  0.10917314  0.25000000  1
  Al  Al5_1  1  0.21834527  0.10917314  0.75000000  1
  Al  Al5_2  1  0.21834527  0.60917314  0.25000000  1
  Al  Al5_3  1  0.21834527  0.60917314  0.75000000  1
  Al  Al5_4  1  0.71834527  0.10917314  0.25000000  1
  Al  Al5_5  1  0.71834527  0.10917314  0.75000000  1
  Al  Al5_6  1  0.71834527  0.60917314  0.25000000  1
  Al  Al5_7  1  0.71834527  0.60917314  0.75000000  1
  Al  Al6_0  1  0.28165473  0.39082687  0.25000000  1
  Al  Al6_1  1  0.28165473  0.39082687  0.75000000  1
  Al  Al6_2  1  0.28165473  0.89082687  0.25000000  1
  Al  Al6_3  1  0.28165473  0.89082687  0.75000000  1
  Al  Al6_4  1  0.78165473  0.39082687  0.25000000  1
  Al  Al6_5  1  0.78165473  0.39082687  0.75000000  1
  Al  Al6_6  1  0.78165473  0.89082687  0.25000000  1
  Al  Al6_7  1  0.78165473  0.89082687  0.75000000  1
  Al  Al7_0  1  0.10917314  0.39082687  0.25000000  1
  Al  Al7_1  1  0.10917314  0.39082687  0.75000000  1
  Al  Al7_2  1  0.10917314  0.89082687  0.25000000  1
  Al  Al7_3  1  0.10917314  0.89082687  0.75000000  1
  Al  Al7_4  1  0.60917314  0.39082687  0.25000000  1
  Al  Al7_5  1  0.60917314  0.39082687  0.75000000  1
  Al  Al7_6  1  0.60917314  0.89082687  0.25000000  1
  Al  Al7_7  1  0.60917314  0.89082687  0.75000000  1
  Al  Al8_0  1  0.39082687  0.28165473  0.25000000  1
  Al  Al8_1  1  0.39082687  0.28165473  0.75000000  1
  Al  Al8_2  1  0.39082687  0.78165473  0.25000000  1
  Al  Al8_3  1  0.39082687  0.78165473  0.75000000  1
  Al  Al8_4  1  0.89082687  0.28165473  0.25000000  1
  Al  Al8_5  1  0.89082687  0.28165473  0.75000000  1
  Al  Al8_6  1  0.89082687  0.78165473  0.25000000  1
  Al  Al8_7  1  0.89082687  0.78165473  0.75000000  1
  Fe  Fe0_0  1  0.33333350  0.16666650  0.00000000  1
  Fe  Fe0_1  1  0.33333350  0.16666650  0.50000000  1
  Fe  Fe0_2  1  0.33333350  0.66666650  0.00000000  1
  Fe  Fe0_3  1  0.33333350  0.66666650  0.50000000  1
  Fe  Fe0_4  1  0.83333350  0.16666650  0.00000000  1
  Fe  Fe0_5  1  0.83333350  0.16666650  0.50000000  1
  Fe  Fe0_6  1  0.83333350  0.66666650  0.00000000  1
  Fe  Fe0_7  1  0.83333350  0.66666650  0.50000000  1
  Fe  Fe1_0  1  0.16666650  0.33333350  0.00000000  1
  Fe  Fe1_1  1  0.16666650  0.33333350  0.50000000  1
  Fe  Fe1_2  1  0.16666650  0.83333350  0.00000000  1
  Fe  Fe1_3  1  0.16666650  0.83333350  0.50000000  1
  Fe  Fe1_4  1  0.66666650  0.33333350  0.00000000  1
  Fe  Fe1_5  1  0.66666650  0.33333350  0.50000000  1
  Fe  Fe1_6  1  0.66666650  0.83333350  0.00000000  1
  Fe  Fe1_7  1  0.66666650  0.83333350  0.50000000  1
loop_
_geom_bond_atom_site_label_1
_geom_bond_atom_site_label_2
_geom_bond_distance
_geom_bond_site_symmetry_2
Ba0_0 Ba0_1 3.950487 1_555
Ba0_0 Ba0_1 3.950487 1_554
Ba0_2 Ba0_3 3.950487 1_554
Ba0_2 Ba0_3 3.950487 1_555
Ba0_4 Ba0_5 3.950487 1_554
Ba0_4 Ba0_5 3.950487 1_555
Ba0_6 Ba0_7 3.950487 1_555
Ba0_6 Ba0_7 3.950487 1_554
Al0_0 Fe1_2 2.292442 1_545
Al0_0 Fe0_0 2.292442 1_555
Al0_0 Al7_3 2.834189 1_544
Al0_0 Al7_2 2.834189 1_545
Al0_0 Al4_1 2.834189 1_554
Al0_0 Al4_0 2.834189 1_555
Al0_0 Al6_3 2.834196 1_544
Al0_0 Al6_2 2.834196 1_545
Al0_0 Al5_1 2.834196 1_554
Al0_0 Al5_0 2.834196 1_555
Al0_1 Fe1_3 2.292442 1_545
Al0_1 Fe0_1 2.292442 1_555
Al0_1 Al7_3 2.834189 1_545
Al0_1 Al7_2 2.834189 1_545
Al0_1 Al4_1 2.834189 1_555
Al0_1 Al4_0 2.834189 1_555
Al0_1 Al6_3 2.834196 1_545
Al0_1 Al6_2 2.834196 1_545
Al0_1 Al5_0 2.834196 1_555
Al0_1 Al5_1 2.834196 1_555
Al0_2 Fe1_0 2.292442 1_555
Al0_2 Fe0_2 2.292442 1_555
Al0_2 Al7_0 2.834189 1_555
Al0_2 Al7_1 2.834189 1_554
Al0_2 Al4_2 2.834189 1_555
Al0_2 Al4_3 2.834189 1_554
Al0_2 Al6_1 2.834196 1_554
Al0_2 Al6_0 2.834196 1_555
Al0_2 Al5_3 2.834196 1_554
Al0_2 Al5_2 2.834196 1_555
Al0_3 Fe1_1 2.292442 1_555
Al0_3 Fe0_3 2.292442 1_555
Al0_3 Al7_0 2.834189 1_555
Al0_3 Al7_1 2.834189 1_555
Al0_3 Al4_2 2.834189 1_555
Al0_3 Al4_3 2.834189 1_555
Al0_3 Al6_1 2.834196 1_555
Al0_3 Al6_0 2.834196 1_555
Al0_3 Al5_2 2.834196 1_555
Al0_3 Al5_3 2.834196 1_555
Al0_4 Fe1_6 2.292442 1_545
Al0_4 Fe0_4 2.292442 1_555
Al0_4 Al7_7 2.834189 1_544
Al0_4 Al7_6 2.834189 1_545
Al0_4 Al4_4 2.834189 1_555
Al0_4 Al4_5 2.834189 1_554
Al0_4 Al6_6 2.834196 1_545
Al0_4 Al6_7 2.834196 1_544
Al0_4 Al5_4 2.834196 1_555
Al0_4 Al5_5 2.834196 1_554
Al0_5 Fe1_7 2.292442 1_545
Al0_5 Fe0_5 2.292442 1_555
Al0_5 Al7_6 2.834189 1_545
Al0_5 Al7_7 2.834189 1_545
Al0_5 Al4_5 2.834189 1_555
Al0_5 Al4_4 2.834189 1_555
Al0_5 Al6_6 2.834196 1_545
Al0_5 Al6_7 2.834196 1_545
Al0_5 Al5_4 2.834196 1_555
Al0_5 Al5_5 2.834196 1_555
Al0_6 Fe1_4 2.292442 1_555
Al0_6 Fe0_6 2.292442 1_555
Al0_6 Al7_5 2.834189 1_554
Al0_6 Al7_4 2.834189 1_555
Al0_6 Al4_6 2.834189 1_555
Al0_6 Al4_7 2.834189 1_554
Al0_6 Al5_6 2.834196 1_555
Al0_6 Al5_7 2.834196 1_554
Al0_6 Al6_4 2.834196 1_555
Al0_6 Al6_5 2.834196 1_554
Al0_7 Fe0_7 2.292442 1_555
Al0_7 Fe1_5 2.292442 1_555
Al0_7 Al7_4 2.834189 1_555
Al0_7 Al7_5 2.834189 1_555
Al0_7 Al4_6 2.834189 1_555
Al0_7 Al4_7 2.834189 1_555
Al0_7 Al5_6 2.834196 1_555
Al0_7 Al5_7 2.834196 1_555
Al0_7 Al6_4 2.834196 1_555
Al0_7 Al6_5 2.834196 1_555
Al1_0 Fe1_0 2.292449 1_555
Al1_0 Fe0_0 2.292449 1_555
Al1_0 Al5_0 2.834185 1_555
Al1_0 Al6_0 2.834185 1_555
Al1_0 Al6_1 2.834185 1_554
Al1_0 Al5_1 2.834185 1_554
Al1_0 Al3_1 2.834185 1_554
Al1_0 Al3_0 2.834185 1_555
Al1_0 Al8_1 2.834185 1_554
Al1_0 Al8_0 2.834185 1_555
Al1_1 Fe1_1 2.292449 1_555
Al1_1 Fe0_1 2.292449 1_555
Al1_1 Al5_0 2.834185 1_555
Al1_1 Al5_1 2.834185 1_555
Al1_1 Al6_0 2.834185 1_555
Al1_1 Al6_1 2.834185 1_555
Al1_1 Al3_1 2.834185 1_555
Al1_1 Al3_0 2.834185 1_555
Al1_1 Al8_1 2.834185 1_555
Al1_1 Al8_0 2.834185 1_555
Al1_2 Fe1_2 2.292449 1_555
Al1_2 Fe0_2 2.292449 1_555
Al1_2 Al5_3 2.834185 1_554
Al1_2 Al5_2 2.834185 1_555
Al1_2 Al6_2 2.834185 1_555
Al1_2 Al6_3 2.834185 1_554
Al1_2 Al3_3 2.834185 1_554
Al1_2 Al3_2 2.834185 1_555
Al1_2 Al8_2 2.834185 1_555
Al1_2 Al8_3 2.834185 1_554
Al1_3 Fe1_3 2.292449 1_555
Al1_3 Fe0_3 2.292449 1_555
Al1_3 Al5_3 2.834185 1_555
Al1_3 Al5_2 2.834185 1_555
Al1_3 Al6_2 2.834185 1_555
Al1_3 Al6_3 2.834185 1_555
Al1_3 Al3_3 2.834185 1_555
Al1_3 Al3_2 2.834185 1_555
Al1_3 Al8_2 2.834185 1_555
Al1_3 Al8_3 2.834185 1_555
Al1_4 Fe1_4 2.292449 1_555
Al1_4 Fe0_4 2.292449 1_555
Al1_4 Al5_4 2.834185 1_555
Al1_4 Al5_5 2.834185 1_554
Al1_4 Al6_5 2.834185 1_554
Al1_4 Al6_4 2.834185 1_555
Al1_4 Al3_5 2.834185 1_554
Al1_4 Al3_4 2.834185 1_555
Al1_4 Al8_5 2.834185 1_554
Al1_4 Al8_4 2.834185 1_555
Al1_5 Fe1_5 2.292449 1_555
Al1_5 Fe0_5 2.292449 1_555
Al1_5 Al5_5 2.834185 1_555
Al1_5 Al5_4 2.834185 1_555
Al1_5 Al6_4 2.834185 1_555
Al1_5 Al6_5 2.834185 1_555
Al1_5 Al3_5 2.834185 1_555
Al1_5 Al3_4 2.834185 1_555
Al1_5 Al8_5 2.834185 1_555
Al1_5 Al8_4 2.834185 1_555
Al1_6 Fe1_6 2.292449 1_555
Al1_6 Fe0_6 2.292449 1_555
Al1_6 Al6_6 2.834185 1_555
Al1_6 Al6_7 2.834185 1_554
Al1_6 Al5_6 2.834185 1_555
Al1_6 Al5_7 2.834185 1_554
Al1_6 Al3_6 2.834185 1_555
Al1_6 Al3_7 2.834185 1_554
Al1_6 Al8_6 2.834185 1_555
Al1_6 Al8_7 2.834185 1_554
Al1_7 Fe1_7 2.292449 1_555
Al1_7 Fe0_7 2.292449 1_555
Al1_7 Al6_7 2.834185 1_555
Al1_7 Al6_6 2.834185 1_555
Al1_7 Al5_6 2.834185 1_555
Al1_7 Al5_7 2.834185 1_555
Al1_7 Al3_7 2.834185 1_555
Al1_7 Al3_6 2.834185 1_555
Al1_7 Al8_6 2.834185 1_555
Al1_7 Al8_7 2.834185 1_555
Al2_0 Fe0_4 2.292443 1_455
Al2_0 Fe1_0 2.292443 1_555
Al2_0 Al4_5 2.834189 1_454
Al2_0 Al4_4 2.834189 1_455
Al2_0 Al7_0 2.834189 1_555
Al2_0 Al7_1 2.834189 1_554
Al2_0 Al8_4 2.834196 1_455
Al2_0 Al8_5 2.834196 1_454
Al2_0 Al3_0 2.834196 1_555
Al2_0 Al3_1 2.834196 1_554
Al2_1 Fe0_5 2.292443 1_455
Al2_1 Fe1_1 2.292443 1_555
Al2_1 Al4_5 2.834189 1_455
Al2_1 Al4_4 2.834189 1_455
Al2_1 Al7_0 2.834189 1_555
Al2_1 Al7_1 2.834189 1_555
Al2_1 Al8_4 2.834196 1_455
Al2_1 Al8_5 2.834196 1_455
Al2_1 Al3_1 2.834196 1_555
Al2_1 Al3_0 2.834196 1_555
Al2_2 Fe1_2 2.292443 1_555
Al2_2 Fe0_6 2.292443 1_455
Al2_2 Al4_7 2.834189 1_454
Al2_2 Al4_6 2.834189 1_455
Al2_2 Al7_3 2.834189 1_554
Al2_2 Al7_2 2.834189 1_555
Al2_2 Al3_3 2.834196 1_554
Al2_2 Al3_2 2.834196 1_555
Al2_2 Al8_7 2.834196 1_454
Al2_2 Al8_6 2.834196 1_455
Al2_3 Fe0_7 2.292443 1_455
Al2_3 Fe1_3 2.292443 1_555
Al2_3 Al4_6 2.834189 1_455
Al2_3 Al4_7 2.834189 1_455
Al2_3 Al7_2 2.834189 1_555
Al2_3 Al7_3 2.834189 1_555
Al2_3 Al3_3 2.834196 1_555
Al2_3 Al3_2 2.834196 1_555
Al2_3 Al8_7 2.834196 1_455
Al2_3 Al8_6 2.834196 1_455
Al2_4 Fe0_0 2.292443 1_555
Al2_4 Fe1_4 2.292443 1_555
Al2_4 Al4_0 2.834189 1_555
Al2_4 Al4_1 2.834189 1_554
Al2_4 Al7_5 2.834189 1_554
Al2_4 Al7_4 2.834189 1_555
Al2_4 Al8_0 2.834196 1_555
Al2_4 Al8_1 2.834196 1_554
Al2_4 Al3_5 2.834196 1_554
Al2_4 Al3_4 2.834196 1_555
Al2_5 Fe1_5 2.292443 1_555
Al2_5 Fe0_1 2.292443 1_555
Al2_5 Al4_0 2.834189 1_555
Al2_5 Al4_1 2.834189 1_555
Al2_5 Al7_5 2.834189 1_555
Al2_5 Al7_4 2.834189 1_555
Al2_5 Al8_0 2.834196 1_555
Al2_5 Al8_1 2.834196 1_555
Al2_5 Al3_5 2.834196 1_555
Al2_5 Al3_4 2.834196 1_555
Al2_6 Fe1_6 2.292443 1_555
Al2_6 Fe0_2 2.292443 1_555
Al2_6 Al7_6 2.834189 1_555
Al2_6 Al7_7 2.834189 1_554
Al2_6 Al4_3 2.834189 1_554
Al2_6 Al4_2 2.834189 1_555
Al2_6 Al3_7 2.834196 1_554
Al2_6 Al3_6 2.834196 1_555
Al2_6 Al8_2 2.834196 1_555
Al2_6 Al8_3 2.834196 1_554
Al2_7 Fe1_7 2.292443 1_555
Al2_7 Fe0_3 2.292443 1_555
Al2_7 Al7_6 2.834189 1_555
Al2_7 Al7_7 2.834189 1_555
Al2_7 Al4_3 2.834189 1_555
Al2_7 Al4_2 2.834189 1_555
Al2_7 Al3_6 2.834196 1_555
Al2_7 Al3_7 2.834196 1_555
Al2_7 Al8_2 2.834196 1_555
Al2_7 Al8_3 2.834196 1_555
Al3_0 Fe1_0 2.530439 1_555
Al3_0 Fe1_1 2.530439 1_555
Al3_0 Al7_0 2.739442 1_555
Al3_0 Al6_0 2.739443 1_555
Al3_0 Al5_0 3.003252 1_555
Al3_0 Al4_4 3.003281 1_455
Al3_0 Ba0_1 3.594606 1_555
Al3_0 Ba0_0 3.594606 1_555
Al3_1 Fe1_0 2.530439 1_556
Al3_1 Fe1_1 2.530439 1_555
Al3_1 Al7_1 2.739442 1_555
Al3_1 Al6_1 2.739443 1_555
Al3_1 Al5_1 3.003252 1_555
Al3_1 Al4_5 3.003281 1_455
Al3_1 Ba0_0 3.594606 1_556
Al3_1 Ba0_1 3.594606 1_555
Al3_2 Fe1_3 2.530439 1_555
Al3_2 Fe1_2 2.530439 1_555
Al3_2 Al7_2 2.739442 1_555
Al3_2 Al6_2 2.739443 1_555
Al3_2 Al5_2 3.003252 1_555
Al3_2 Al4_6 3.003281 1_455
Al3_2 Ba0_2 3.594606 1_555
Al3_2 Ba0_3 3.594606 1_555
Al3_3 Fe1_3 2.530439 1_555
Al3_3 Fe1_2 2.530439 1_556
Al3_3 Al7_3 2.739442 1_555
Al3_3 Al6_3 2.739443 1_555
Al3_3 Al5_3 3.003252 1_555
Al3_3 Al4_7 3.003281 1_455
Al3_3 Ba0_2 3.594606 1_556
Al3_3 Ba0_3 3.594606 1_555
Al3_4 Fe1_4 2.530439 1_555
Al3_4 Fe1_5 2.530439 1_555
Al3_4 Al7_4 2.739442 1_555
Al3_4 Al6_4 2.739443 1_555
Al3_4 Al5_4 3.003252 1_555
Al3_4 Al4_0 3.003281 1_555
Al3_4 Ba0_4 3.594606 1_555
Al3_4 Ba0_5 3.594606 1_555
Al3_5 Fe1_4 2.530439 1_556
Al3_5 Fe1_5 2.530439 1_555
Al3_5 Al7_5 2.739442 1_555
Al3_5 Al6_5 2.739443 1_555
Al3_5 Al5_5 3.003252 1_555
Al3_5 Al4_1 3.003281 1_555
Al3_5 Ba0_4 3.594606 1_556
Al3_5 Ba0_5 3.594606 1_555
Al3_6 Fe1_6 2.530439 1_555
Al3_6 Fe1_7 2.530439 1_555
Al3_6 Al7_6 2.739442 1_555
Al3_6 Al6_6 2.739443 1_555
Al3_6 Al5_6 3.003252 1_555
Al3_6 Al4_2 3.003281 1_555
Al3_6 Ba0_7 3.594606 1_555
Al3_6 Ba0_6 3.594606 1_555
Al3_7 Fe1_6 2.530439 1_556
Al3_7 Fe1_7 2.530439 1_555
Al3_7 Al7_7 2.739442 1_555
Al3_7 Al6_7 2.739443 1_555
Al3_7 Al5_7 3.003252 1_555
Al3_7 Al4_3 3.003281 1_555
Al3_7 Ba0_7 3.594606 1_555
Al3_7 Ba0_6 3.594606 1_556
Al4_0 Fe0_0 2.530427 1_555
Al4_0 Fe0_1 2.530427 1_555
Al4_0 Al8_0 2.739442 1_555
Al4_0 Al5_0 2.739443 1_555
Al4_0 Al6_2 3.003280 1_545
Al4_0 Ba0_4 3.594618 1_555
Al4_0 Ba0_5 3.594618 1_555
Al4_1 Fe0_0 2.530427 1_556
Al4_1 Fe0_1 2.530427 1_555
Al4_1 Al8_1 2.739442 1_555
Al4_1 Al5_1 2.739443 1_555
Al4_1 Al6_3 3.003280 1_545
Al4_1 Ba0_4 3.594618 1_556
Al4_1 Ba0_5 3.594618 1_555
Al4_2 Fe0_3 2.530427 1_555
Al4_2 Fe0_2 2.530427 1_555
Al4_2 Al8_2 2.739442 1_555
Al4_2 Al5_2 2.739443 1_555
Al4_2 Al6_0 3.003280 1_555
Al4_2 Ba0_7 3.594618 1_555
Al4_2 Ba0_6 3.594618 1_555
Al4_3 Fe0_3 2.530427 1_555
Al4_3 Fe0_2 2.530427 1_556
Al4_3 Al8_3 2.739442 1_555
Al4_3 Al5_3 2.739443 1_555
Al4_3 Al6_1 3.003280 1_555
Al4_3 Ba0_7 3.594618 1_555
Al4_3 Ba0_6 3.594618 1_556
Al4_4 Fe0_5 2.530427 1_555
Al4_4 Fe0_4 2.530427 1_555
Al4_4 Al8_4 2.739442 1_555
Al4_4 Al5_4 2.739443 1_555
Al4_4 Al6_6 3.003280 1_545
Al4_4 Ba0_0 3.594618 1_655
Al4_4 Ba0_1 3.594618 1_655
Al4_5 Fe0_4 2.530427 1_556
Al4_5 Fe0_5 2.530427 1_555
Al4_5 Al8_5 2.739442 1_555
Al4_5 Al5_5 2.739443 1_555
Al4_5 Al6_7 3.003280 1_545
Al4_5 Ba0_0 3.594618 1_656
Al4_5 Ba0_1 3.594618 1_655
Al4_6 Fe0_6 2.530427 1_555
Al4_6 Fe0_7 2.530427 1_555
Al4_6 Al8_6 2.739442 1_555
Al4_6 Al5_6 2.739443 1_555
Al4_6 Al6_4 3.003280 1_555
Al4_6 Ba0_2 3.594618 1_655
Al4_6 Ba0_3 3.594618 1_655
Al4_7 Fe0_7 2.530427 1_555
Al4_7 Fe0_6 2.530427 1_556
Al4_7 Al8_7 2.739442 1_555
Al4_7 Al5_7 2.739443 1_555
Al4_7 Al6_5 3.003280 1_555
Al4_7 Ba0_3 3.594618 1_655
Al4_7 Ba0_2 3.594618 1_656
Al5_0 Fe0_1 2.530440 1_555
Al5_0 Fe0_0 2.530440 1_555
Al5_0 Al8_0 2.739443 1_555
Al5_0 Al7_2 3.003280 1_545
Al5_0 Ba0_1 3.594607 1_555
Al5_0 Ba0_0 3.594607 1_555
Al5_1 Fe0_0 2.530440 1_556
Al5_1 Fe0_1 2.530440 1_555
Al5_1 Al8_1 2.739443 1_555
Al5_1 Al7_3 3.003280 1_545
Al5_1 Ba0_0 3.594607 1_556
Al5_1 Ba0_1 3.594607 1_555
Al5_2 Fe0_3 2.530440 1_555
Al5_2 Fe0_2 2.530440 1_555
Al5_2 Al8_2 2.739443 1_555
Al5_2 Al7_0 3.003280 1_555
Al5_2 Ba0_3 3.594607 1_555
Al5_2 Ba0_2 3.594607 1_555
Al5_3 Fe0_3 2.530440 1_555
Al5_3 Fe0_2 2.530440 1_556
Al5_3 Al8_3 2.739443 1_555
Al5_3 Al7_1 3.003280 1_555
Al5_3 Ba0_2 3.594607 1_556
Al5_3 Ba0_3 3.594607 1_555
Al5_4 Fe0_5 2.530440 1_555
Al5_4 Fe0_4 2.530440 1_555
Al5_4 Al8_4 2.739443 1_555
Al5_4 Al7_6 3.003280 1_545
Al5_4 Ba0_5 3.594607 1_555
Al5_4 Ba0_4 3.594607 1_555
Al5_5 Fe0_4 2.530440 1_556
Al5_5 Fe0_5 2.530440 1_555
Al5_5 Al8_5 2.739443 1_555
Al5_5 Al7_7 3.003280 1_545
Al5_5 Ba0_5 3.594607 1_555
Al5_5 Ba0_4 3.594607 1_556
Al5_6 Fe0_6 2.530440 1_555
Al5_6 Fe0_7 2.530440 1_555
Al5_6 Al8_6 2.739443 1_555
Al5_6 Al7_4 3.003280 1_555
Al5_6 Ba0_6 3.594607 1_555
Al5_6 Ba0_7 3.594607 1_555
Al5_7 Fe0_6 2.530440 1_556
Al5_7 Fe0_7 2.530440 1_555
Al5_7 Al8_7 2.739443 1_555
Al5_7 Al7_5 3.003280 1_555
Al5_7 Ba0_6 3.594607 1_556
Al5_7 Ba0_7 3.594607 1_555
Al6_0 Fe1_0 2.530440 1_555
Al6_0 Fe1_1 2.530440 1_555
Al6_0 Al7_0 2.739443 1_555
Al6_0 Al8_0 3.003252 1_555
Al6_0 Ba0_7 3.594607 1_555
Al6_0 Ba0_6 3.594607 1_555
Al6_1 Fe1_0 2.530440 1_556
Al6_1 Fe1_1 2.530440 1_555
Al6_1 Al7_1 2.739443 1_555
Al6_1 Al8_1 3.003252 1_555
Al6_1 Ba0_7 3.594607 1_555
Al6_1 Ba0_6 3.594607 1_556
Al6_2 Fe1_3 2.530440 1_555
Al6_2 Fe1_2 2.530440 1_555
Al6_2 Al7_2 2.739443 1_555
Al6_2 Al8_2 3.003252 1_555
Al6_2 Ba0_4 3.594607 1_565
Al6_2 Ba0_5 3.594607 1_565
Al6_3 Fe1_3 2.530440 1_555
Al6_3 Fe1_2 2.530440 1_556
Al6_3 Al7_3 2.739443 1_555
Al6_3 Al8_3 3.003252 1_555
Al6_3 Ba0_4 3.594607 1_566
Al6_3 Ba0_5 3.594607 1_565
Al6_4 Fe1_4 2.530440 1_555
Al6_4 Fe1_5 2.530440 1_555
Al6_4 Al7_4 2.739443 1_555
Al6_4 Al8_4 3.003252 1_555
Al6_4 Ba0_2 3.594607 1_655
Al6_4 Ba0_3 3.594607 1_655
Al6_5 Fe1_4 2.530440 1_556
Al6_5 Fe1_5 2.530440 1_555
Al6_5 Al7_5 2.739443 1_555
Al6_5 Al8_5 3.003252 1_555
Al6_5 Ba0_2 3.594607 1_656
Al6_5 Ba0_3 3.594607 1_655
Al6_6 Fe1_6 2.530440 1_555
Al6_6 Fe1_7 2.530440 1_555
Al6_6 Al7_6 2.739443 1_555
Al6_6 Al8_6 3.003252 1_555
Al6_6 Ba0_0 3.594607 1_665
Al6_6 Ba0_1 3.594607 1_665
Al6_7 Fe1_7 2.530440 1_555
Al6_7 Fe1_6 2.530440 1_556
Al6_7 Al7_7 2.739443 1_555
Al6_7 Al8_7 3.003252 1_555
Al6_7 Ba0_0 3.594607 1_666
Al6_7 Ba0_1 3.594607 1_665
Al7_0 Fe1_0 2.530427 1_555
Al7_0 Fe1_1 2.530427 1_555
Al7_0 Al8_4 3.003281 1_455
Al7_0 Ba0_2 3.594618 1_555
Al7_0 Ba0_3 3.594618 1_555
Al7_1 Fe1_0 2.530427 1_556
Al7_1 Fe1_1 2.530427 1_555
Al7_1 Al8_5 3.003281 1_455
Al7_1 Ba0_2 3.594618 1_556
Al7_1 Ba0_3 3.594618 1_555
Al7_2 Fe1_2 2.530427 1_555
Al7_2 Fe1_3 2.530427 1_555
Al7_2 Al8_6 3.003281 1_455
Al7_2 Ba0_0 3.594618 1_565
Al7_2 Ba0_1 3.594618 1_565
Al7_3 Fe1_3 2.530427 1_555
Al7_3 Fe1_2 2.530427 1_556
Al7_3 Al8_7 3.003281 1_455
Al7_3 Ba0_0 3.594618 1_566
Al7_3 Ba0_1 3.594618 1_565
Al7_4 Fe1_4 2.530427 1_555
Al7_4 Fe1_5 2.530427 1_555
Al7_4 Al8_0 3.003281 1_555
Al7_4 Ba0_7 3.594618 1_555
Al7_4 Ba0_6 3.594618 1_555
Al7_5 Fe1_4 2.530427 1_556
Al7_5 Fe1_5 2.530427 1_555
Al7_5 Al8_1 3.003281 1_555
Al7_5 Ba0_6 3.594618 1_556
Al7_5 Ba0_7 3.594618 1_555
Al7_6 Fe1_6 2.530427 1_555
Al7_6 Fe1_7 2.530427 1_555
Al7_6 Al8_2 3.003281 1_555
Al7_6 Ba0_4 3.594618 1_565
Al7_6 Ba0_5 3.594618 1_565
Al7_7 Fe1_7 2.530427 1_555
Al7_7 Fe1_6 2.530427 1_556
Al7_7 Al8_3 3.003281 1_555
Al7_7 Ba0_4 3.594618 1_566
Al7_7 Ba0_5 3.594618 1_565
Al8_0 Fe0_1 2.530439 1_555
Al8_0 Fe0_0 2.530439 1_555
Al8_0 Ba0_7 3.594606 1_555
Al8_0 Ba0_6 3.594606 1_555
Al8_1 Fe0_1 2.530439 1_555
Al8_1 Fe0_0 2.530439 1_556
Al8_1 Ba0_7 3.594606 1_555
Al8_1 Ba0_6 3.594606 1_556
Al8_2 Fe0_2 2.530439 1_555
Al8_2 Fe0_3 2.530439 1_555
Al8_2 Ba0_4 3.594606 1_565
Al8_2 Ba0_5 3.594606 1_565
Al8_3 Fe0_2 2.530439 1_556
Al8_3 Fe0_3 2.530439 1_555
Al8_3 Ba0_4 3.594606 1_566
Al8_3 Ba0_5 3.594606 1_565
Al8_4 Fe0_4 2.530439 1_555
Al8_4 Fe0_5 2.530439 1_555
Al8_4 Ba0_3 3.594606 1_655
Al8_4 Ba0_2 3.594606 1_655
Al8_5 Fe0_4 2.530439 1_556
Al8_5 Fe0_5 2.530439 1_555
Al8_5 Ba0_3 3.594606 1_655
Al8_5 Ba0_2 3.594606 1_656
Al8_6 Fe0_7 2.530439 1_555
Al8_6 Fe0_6 2.530439 1_555
Al8_6 Ba0_1 3.594606 1_665
Al8_6 Ba0_0 3.594606 1_665
Al8_7 Fe0_7 2.530439 1_555
Al8_7 Fe0_6 2.530439 1_556
Al8_7 Ba0_1 3.594606 1_665
Al8_7 Ba0_0 3.594606 1_666
