# generated using pymatgen
data_NaB10H3Pb4O21
_symmetry_space_group_name_H-M   'P 1'
_cell_length_a   6.70539949
_cell_length_b   11.46228306
_cell_length_c   11.56327525
_cell_angle_alpha   90.00000000
_cell_angle_beta   90.00000000
_cell_angle_gamma   90.00000000
_symmetry_Int_Tables_number   1
_chemical_formula_structural   NaB10H3Pb4O21
_chemical_formula_sum   'Na2 B20 H6 Pb8 O42'
_cell_volume   888.74393460
_cell_formula_units_Z   2
loop_
 _symmetry_equiv_pos_site_id
 _symmetry_equiv_pos_as_xyz
  1  'x, y, z'
loop_
 _atom_site_type_symbol
 _atom_site_label
 _atom_site_symmetry_multiplicity
 _atom_site_fract_x
 _atom_site_fract_y
 _atom_site_fract_z
 _atom_site_occupancy
  Na  Na0  1  0.38007744  0.00000000  0.00000000  1
  Na  Na1  1  0.88007744  0.50000000  0.50000000  1
  B  B0  1  0.13034680  0.75976169  0.01335661  1
  B  B1  1  0.13034680  0.24023831  0.98664339  1
  B  B2  1  0.63034680  0.25976169  0.48664339  1
  B  B3  1  0.63034680  0.74023831  0.51335661  1
  B  B4  1  0.35406616  0.20672910  0.15827716  1
  B  B5  1  0.35406616  0.79327090  0.84172284  1
  B  B6  1  0.85406616  0.70672910  0.34172284  1
  B  B7  1  0.85406616  0.29327090  0.65827716  1
  B  B8  1  0.00405317  0.29511505  0.18948595  1
  B  B9  1  0.00405317  0.70488495  0.81051405  1
  B  B10  1  0.50405317  0.79511505  0.31051405  1
  B  B11  1  0.50405317  0.20488495  0.68948595  1
  B  B12  1  0.46241165  0.01947904  0.25860295  1
  B  B13  1  0.46241165  0.98052096  0.74139705  1
  B  B14  1  0.96241165  0.51947904  0.24139705  1
  B  B15  1  0.96241165  0.48052096  0.75860295  1
  B  B16  1  0.18046714  0.69769028  0.23216813  1
  B  B17  1  0.18046714  0.30230972  0.76783187  1
  B  B18  1  0.68046714  0.19769028  0.26783187  1
  B  B19  1  0.68046714  0.80230972  0.73216813  1
  H  H0  1  0.08780309  0.00000000  0.50000000  1
  H  H1  1  0.58780309  0.50000000  0.00000000  1
  H  H2  1  0.16984785  0.50120866  0.03241746  1
  H  H3  1  0.16984785  0.49879134  0.96758254  1
  H  H4  1  0.66984785  0.00120866  0.46758254  1
  H  H5  1  0.66984785  0.99879134  0.53241746  1
  Pb  Pb0  1  0.45019982  0.46641900  0.28501866  1
  Pb  Pb1  1  0.45019982  0.53358100  0.71498134  1
  Pb  Pb2  1  0.95019982  0.96641900  0.21498134  1
  Pb  Pb3  1  0.95019982  0.03358100  0.78501866  1
  Pb  Pb4  1  0.15856752  0.22559514  0.45764864  1
  Pb  Pb5  1  0.15856752  0.77440486  0.54235136  1
  Pb  Pb6  1  0.65856752  0.72559514  0.04235136  1
  Pb  Pb7  1  0.65856752  0.27440486  0.95764864  1
  O  O0  1  0.31382502  0.20645786  0.02933038  1
  O  O1  1  0.31382502  0.79354214  0.97066962  1
  O  O2  1  0.81382502  0.70645786  0.47066962  1
  O  O3  1  0.81382502  0.29354214  0.52933038  1
  O  O4  1  0.22005735  0.28950976  0.21639096  1
  O  O5  1  0.22005735  0.71049024  0.78360904  1
  O  O6  1  0.72005735  0.78950976  0.28360904  1
  O  O7  1  0.72005735  0.21049024  0.71639096  1
  O  O8  1  0.20684086  0.42383374  0.42967720  1
  O  O9  1  0.20684086  0.57616626  0.57032280  1
  O  O10  1  0.70684086  0.92383374  0.07032280  1
  O  O11  1  0.70684086  0.07616626  0.92967720  1
  O  O12  1  0.48008779  0.22677123  0.56045064  1
  O  O13  1  0.48008779  0.77322877  0.43954936  1
  O  O14  1  0.98008779  0.72677123  0.93954936  1
  O  O15  1  0.98008779  0.27322877  0.06045064  1
  O  O16  1  0.59234017  0.26341827  0.36978639  1
  O  O17  1  0.59234017  0.73658173  0.63021361  1
  O  O18  1  0.09234017  0.76341827  0.13021361  1
  O  O19  1  0.09234017  0.23658173  0.86978639  1
  O  O20  1  0.32077552  0.08477552  0.19927991  1
  O  O21  1  0.32077552  0.91522448  0.80072009  1
  O  O22  1  0.82077552  0.58477552  0.30072009  1
  O  O23  1  0.82077552  0.41522448  0.69927991  1
  O  O24  1  0.41282498  0.09218491  0.71599355  1
  O  O25  1  0.41282498  0.90781509  0.28400645  1
  O  O26  1  0.91282498  0.59218491  0.78400645  1
  O  O27  1  0.91282498  0.40781509  0.21599355  1
  O  O28  1  0.14082064  0.57051837  0.21067784  1
  O  O29  1  0.14082064  0.42948163  0.78932216  1
  O  O30  1  0.64082064  0.07051837  0.28932216  1
  O  O31  1  0.64082064  0.92948163  0.71067784  1
  O  O32  1  0.98907194  0.00000000  0.00000000  1
  O  O33  1  0.48907194  0.50000000  0.50000000  1
  O  O34  1  0.39543221  0.70562332  0.24450136  1
  O  O35  1  0.39543221  0.29437668  0.75549864  1
  O  O36  1  0.89543221  0.20562332  0.25549864  1
  O  O37  1  0.89543221  0.79437668  0.74450136  1
  O  O38  1  0.56545910  0.23924883  0.16690381  1
  O  O39  1  0.56545910  0.76075117  0.83309619  1
  O  O40  1  0.06545910  0.73924883  0.33309619  1
  O  O41  1  0.06545910  0.26075117  0.66690381  1
loop_
_geom_bond_atom_site_label_1
_geom_bond_atom_site_label_2
_geom_bond_distance
_geom_bond_site_symmetry_2
Na0 O1 2.431585 1_544
Na0 O0 2.431585 1_555
Na0 O11 2.494846 1_554
Na0 O10 2.494846 1_545
Na0 O20 2.532250 1_555
Na0 O21 2.532250 1_544
Na0 O32 2.621848 1_455
Na1 O2 2.431585 1_555
Na1 O3 2.431585 1_555
Na1 O8 2.494846 1_655
Na1 O9 2.494846 1_655
Na1 O23 2.532250 1_555
Na1 O22 2.532250 1_555
Na1 O33 2.621848 1_555
B0 O14 1.373509 1_454
B0 O18 1.375711 1_555
B0 O1 1.381011 1_554
B1 O15 1.373509 1_456
B1 O19 1.375711 1_555
B1 O0 1.381011 1_556
B2 O12 1.373509 1_555
B2 O16 1.375711 1_555
B2 O3 1.381011 1_555
B3 O13 1.373509 1_555
B3 O17 1.375711 1_555
B3 O2 1.381011 1_555
B4 O38 1.469056 1_555
B4 O4 1.469470 1_555
B4 O20 1.492869 1_555
B4 O0 1.515269 1_555
B5 O39 1.469056 1_555
B5 O5 1.469470 1_555
B5 O21 1.492869 1_555
B5 O1 1.515269 1_555
B6 O40 1.469056 1_655
B6 O6 1.469470 1_555
B6 O22 1.492869 1_555
B6 O2 1.515269 1_555
B7 O41 1.469056 1_655
B7 O7 1.469470 1_555
B7 O23 1.492869 1_555
B7 O3 1.515269 1_555
B8 O27 1.461814 1_455
B8 O36 1.471521 1_455
B8 O4 1.482823 1_555
B8 O15 1.521523 1_455
B9 O26 1.461814 1_455
B9 O37 1.471521 1_455
B9 O5 1.482823 1_555
B9 O14 1.521523 1_455
B10 O25 1.461814 1_555
B10 O34 1.471521 1_555
B10 O6 1.482823 1_555
B10 O13 1.521523 1_555
B11 O24 1.461814 1_555
B11 O35 1.471521 1_555
B11 O7 1.482823 1_555
B11 O12 1.521523 1_555
B12 O25 1.354639 1_545
B12 O30 1.378251 1_555
B12 O20 1.390218 1_555
B13 O24 1.354639 1_565
B13 O31 1.378251 1_555
B13 O21 1.390218 1_555
B14 O27 1.354639 1_555
B14 O28 1.378251 1_655
B14 O22 1.390218 1_555
B15 O26 1.354639 1_555
B15 O29 1.378251 1_655
B15 O23 1.390218 1_555
B16 O34 1.451316 1_555
B16 O40 1.477719 1_555
B16 O28 1.502417 1_555
B16 O18 1.518771 1_555
B17 O35 1.451316 1_555
B17 O41 1.477719 1_555
B17 O29 1.502417 1_555
B17 O19 1.518771 1_555
B18 O36 1.451316 1_555
B18 O38 1.477719 1_555
B18 O30 1.502417 1_555
B18 O16 1.518771 1_555
B19 O37 1.451316 1_555
B19 O39 1.477719 1_555
B19 O31 1.502417 1_555
B19 O17 1.518771 1_555
H2 H3 0.750216 1_554
H4 H5 0.750216 1_545
O0 Pb7 2.576290 1_554
O1 Pb6 2.576290 1_556
O2 Pb5 2.576290 1_655
O3 Pb4 2.576290 1_655
O4 Pb0 2.668914 1_555
O5 Pb1 2.668914 1_555
O6 Pb2 2.668914 1_555
O7 Pb3 2.668914 1_555
O8 Pb4 2.317884 1_555
O8 Pb0 2.387281 1_555
O9 Pb5 2.317884 1_555
O9 Pb1 2.387281 1_555
O10 Pb6 2.317884 1_555
O10 Pb2 2.387281 1_555
O11 Pb7 2.317884 1_555
O11 Pb3 2.387281 1_555
O12 Pb4 2.461962 1_555
O13 Pb5 2.461962 1_555
O14 Pb6 2.461962 1_556
O15 Pb7 2.461962 1_554
O16 Pb0 2.698783 1_555
O17 Pb1 2.698783 1_555
O18 Pb2 2.698783 1_455
O19 Pb3 2.698783 1_455
O20 Pb2 2.836890 1_445
O21 Pb3 2.836890 1_465
O22 Pb0 2.836890 1_555
O23 Pb1 2.836890 1_555
O28 Pb0 2.542895 1_555
O29 Pb1 2.542895 1_555
O30 Pb2 2.542895 1_545
O31 Pb3 2.542895 1_565
O32 Pb2 2.528980 1_545
O32 Pb3 2.528980 1_554
O33 Pb0 2.528980 1_555
O33 Pb1 2.528980 1_555
O34 Pb0 2.805706 1_555
O35 Pb1 2.805706 1_555
O36 Pb2 2.805706 1_545
O37 Pb3 2.805706 1_565
O38 Pb7 2.531205 1_554
O39 Pb6 2.531205 1_556
O40 Pb5 2.531205 1_555
O41 Pb4 2.531205 1_555
