# generated using pymatgen
data_Tm2PbSe4
_symmetry_space_group_name_H-M   'P 1'
_cell_length_a   4.09974600
_cell_length_b   12.56585700
_cell_length_c   14.96122200
_cell_angle_alpha   90.00000000
_cell_angle_beta   90.00000000
_cell_angle_gamma   90.00000000
_symmetry_Int_Tables_number   1
_chemical_formula_structural   Tm2PbSe4
_chemical_formula_sum   'Tm8 Pb4 Se16'
_cell_volume   770.75461026
_cell_formula_units_Z   4
loop_
 _symmetry_equiv_pos_site_id
 _symmetry_equiv_pos_as_xyz
  1  'x, y, z'
loop_
 _atom_site_type_symbol
 _atom_site_label
 _atom_site_symmetry_multiplicity
 _atom_site_fract_x
 _atom_site_fract_y
 _atom_site_fract_z
 _atom_site_occupancy
  Tm  Tm0  1  0.25000000  0.57254000  0.10025700  1
  Tm  Tm1  1  0.25000000  0.07254000  0.39974300  1
  Tm  Tm2  1  0.75000000  0.42746000  0.89974300  1
  Tm  Tm3  1  0.75000000  0.92746000  0.60025700  1
  Tm  Tm4  1  0.25000000  0.57154700  0.60688800  1
  Tm  Tm5  1  0.25000000  0.07154700  0.89311200  1
  Tm  Tm6  1  0.75000000  0.42845300  0.39311200  1
  Tm  Tm7  1  0.75000000  0.92845300  0.10688800  1
  Pb  Pb0  1  0.25000000  0.72860000  0.83677700  1
  Pb  Pb1  1  0.25000000  0.22860000  0.66322300  1
  Pb  Pb2  1  0.75000000  0.27140000  0.16322300  1
  Pb  Pb3  1  0.75000000  0.77140000  0.33677700  1
  Se  Se0  1  0.25000000  0.86592200  0.47870900  1
  Se  Se1  1  0.25000000  0.36592200  0.02129100  1
  Se  Se2  1  0.75000000  0.13407800  0.52129100  1
  Se  Se3  1  0.75000000  0.63407800  0.97870900  1
  Se  Se4  1  0.25000000  0.78302500  0.17317100  1
  Se  Se5  1  0.25000000  0.28302500  0.32682900  1
  Se  Se6  1  0.75000000  0.21697500  0.82682900  1
  Se  Se7  1  0.75000000  0.71697500  0.67317100  1
  Se  Se8  1  0.25000000  0.58099700  0.41870400  1
  Se  Se9  1  0.25000000  0.08099800  0.08129600  1
  Se  Se10  1  0.75000000  0.41900200  0.58129600  1
  Se  Se11  1  0.75000000  0.91900300  0.91870400  1
  Se  Se12  1  0.25000000  0.49433300  0.78707400  1
  Se  Se13  1  0.25000000  0.99433300  0.71292600  1
  Se  Se14  1  0.75000000  0.50566700  0.21292600  1
  Se  Se15  1  0.75000000  0.00566700  0.28707400  1
loop_
_geom_bond_atom_site_label_1
_geom_bond_atom_site_label_2
_geom_bond_distance
_geom_bond_site_symmetry_2
Pb0 Se12 3.036235 1_555
Pb0 Se3 3.181490 1_455
Pb0 Se3 3.181490 1_555
Pb0 Se7 3.196056 1_455
Pb0 Se7 3.196056 1_555
Pb0 Se11 3.380653 1_555
Pb0 Se11 3.380653 1_455
Pb1 Se13 3.036235 1_545
Pb1 Se2 3.181490 1_555
Pb1 Se2 3.181490 1_455
Pb1 Se6 3.196056 1_455
Pb1 Se6 3.196056 1_555
Pb1 Se10 3.380644 1_455
Pb1 Se10 3.380644 1_555
Pb2 Se14 3.036235 1_555
Pb2 Se1 3.181490 1_655
Pb2 Se1 3.181490 1_555
Pb2 Se5 3.196056 1_655
Pb2 Se5 3.196056 1_555
Pb2 Se9 3.380644 1_655
Pb2 Se9 3.380644 1_555
Pb3 Se15 3.036235 1_565
Pb3 Se0 3.181490 1_555
Pb3 Se0 3.181490 1_655
Pb3 Se4 3.196056 1_555
Pb3 Se4 3.196056 1_655
Pb3 Se8 3.380653 1_655
Pb3 Se8 3.380653 1_555
Se0 Tm3 2.847263 1_455
Se0 Tm3 2.847263 1_555
Se0 Tm1 2.852492 1_565
Se1 Tm2 2.847263 1_454
Se1 Tm2 2.847263 1_554
Se1 Tm0 2.852492 1_555
Se2 Tm1 2.847263 1_655
Se2 Tm1 2.847263 1_555
Se2 Tm3 2.852492 1_545
Se3 Tm0 2.847263 1_556
Se3 Tm0 2.847263 1_656
Se3 Tm2 2.852492 1_555
Se4 Tm0 2.861057 1_555
Se4 Tm7 2.919741 1_455
Se4 Tm7 2.919741 1_555
Se5 Tm1 2.861057 1_555
Se5 Tm6 2.919741 1_455
Se5 Tm6 2.919741 1_555
Se6 Tm2 2.861057 1_555
Se6 Tm5 2.919741 1_555
Se6 Tm5 2.919741 1_655
Se7 Tm3 2.861057 1_555
Se7 Tm4 2.919741 1_655
Se7 Tm4 2.919741 1_555
Se8 Tm4 2.817966 1_555
Se8 Tm6 2.832469 1_455
Se8 Tm6 2.832469 1_555
Se9 Tm5 2.817966 1_554
Se9 Tm7 2.832478 1_445
Se9 Tm7 2.832478 1_545
Se10 Tm6 2.817966 1_555
Se10 Tm4 2.832478 1_655
Se10 Tm4 2.832478 1_555
Se11 Tm7 2.817966 1_556
Se11 Tm5 2.832469 1_565
Se11 Tm5 2.832469 1_665
Se12 Tm2 2.783807 1_455
Se12 Tm2 2.783807 1_555
Se12 Tm4 2.865093 1_555
Se13 Tm3 2.783807 1_455
Se13 Tm3 2.783807 1_555
Se13 Tm5 2.865093 1_565
Se14 Tm0 2.783807 1_555
Se14 Tm0 2.783807 1_655
Se14 Tm6 2.865093 1_555
Se15 Tm1 2.783807 1_655
Se15 Tm1 2.783807 1_555
Se15 Tm7 2.865093 1_545
