# generated using pymatgen
data_Ti2O3
_symmetry_space_group_name_H-M   'P 1'
_cell_length_a   5.11336999
_cell_length_b   5.11336999
_cell_length_c   16.08926500
_cell_angle_alpha   90.00000000
_cell_angle_beta   90.00000000
_cell_angle_gamma   146.90150759
_symmetry_Int_Tables_number   1
_chemical_formula_structural   Ti2O3
_chemical_formula_sum   'Ti8 O12'
_cell_volume   229.72425230
_cell_formula_units_Z   4
loop_
 _symmetry_equiv_pos_site_id
 _symmetry_equiv_pos_as_xyz
  1  'x, y, z'
loop_
 _atom_site_type_symbol
 _atom_site_label
 _atom_site_symmetry_multiplicity
 _atom_site_fract_x
 _atom_site_fract_y
 _atom_site_fract_z
 _atom_site_occupancy
  Ti  Ti0  1  0.64422600  0.35577400  0.04058400  1
  Ti  Ti1  1  0.35577400  0.64422600  0.95941600  1
  Ti  Ti2  1  0.64422600  0.35577400  0.45941600  1
  Ti  Ti3  1  0.35577400  0.64422600  0.54058400  1
  Ti  Ti4  1  0.10436200  0.89563800  0.64276100  1
  Ti  Ti5  1  0.89563800  0.10436200  0.35723900  1
  Ti  Ti6  1  0.89563800  0.10436200  0.14276100  1
  Ti  Ti7  1  0.10436200  0.89563800  0.85723900  1
  O  O0  1  0.00000000  0.00000000  0.50000000  1
  O  O1  1  0.00000000  0.00000000  0.00000000  1
  O  O2  1  0.47020300  0.52979700  0.85657900  1
  O  O3  1  0.52979700  0.47020300  0.14342100  1
  O  O4  1  0.52979700  0.47020300  0.35657900  1
  O  O5  1  0.47020300  0.52979700  0.64342100  1
  O  O6  1  0.72257800  0.27742200  0.91340400  1
  O  O7  1  0.27742200  0.72257800  0.08659600  1
  O  O8  1  0.27742200  0.72257800  0.41340400  1
  O  O9  1  0.72257800  0.27742200  0.58659600  1
  O  O10  1  0.16099700  0.83900300  0.75000000  1
  O  O11  1  0.83900300  0.16099700  0.25000000  1
loop_
_geom_bond_atom_site_label_1
_geom_bond_atom_site_label_2
_geom_bond_distance
_geom_bond_site_symmetry_2
O0 Ti3 2.132307 1_445
O0 Ti3 2.132307 1_555
O0 Ti2 2.132307 1_555
O0 Ti2 2.132307 1_445
O0 Ti4 2.514461 1_545
O0 Ti5 2.514461 1_455
O1 Ti0 2.132307 1_555
O1 Ti0 2.132307 1_445
O1 Ti1 2.132307 1_554
O1 Ti1 2.132307 1_444
O1 Ti6 2.514461 1_455
O1 Ti7 2.514461 1_544
O2 Ti7 1.962436 1_655
O2 Ti7 1.962436 1_545
O2 Ti1 1.998987 1_555
O3 Ti6 1.962436 1_565
O3 Ti6 1.962436 1_455
O3 Ti0 1.998987 1_555
O4 Ti5 1.962436 1_565
O4 Ti5 1.962436 1_455
O4 Ti2 1.998987 1_555
O5 Ti4 1.962436 1_655
O5 Ti4 1.962436 1_545
O5 Ti3 1.998987 1_555
O6 Ti7 2.069048 1_655
O6 Ti7 2.069048 1_545
O6 Ti1 2.091493 1_545
O6 Ti1 2.091493 1_655
O6 Ti0 2.185643 1_556
O7 Ti6 2.069048 1_565
O7 Ti6 2.069048 1_455
O7 Ti0 2.091493 1_455
O7 Ti0 2.091493 1_565
O7 Ti1 2.185643 1_554
O8 Ti5 2.069048 1_565
O8 Ti5 2.069048 1_455
O8 Ti2 2.091493 1_455
O8 Ti2 2.091493 1_565
O8 Ti3 2.185643 1_555
O9 Ti4 2.069048 1_655
O9 Ti4 2.069048 1_545
O9 Ti3 2.091493 1_545
O9 Ti3 2.091493 1_655
O9 Ti2 2.185643 1_555
O10 Ti7 1.812523 1_555
O10 Ti4 1.812523 1_555
O11 Ti5 1.812523 1_555
O11 Ti6 1.812523 1_555
