# generated using pymatgen
data_LiSi2B
_symmetry_space_group_name_H-M   'P 1'
_cell_length_a   6.81721516
_cell_length_b   6.81721516
_cell_length_c   8.81767714
_cell_angle_alpha   90.00000000
_cell_angle_beta   90.00000000
_cell_angle_gamma   90.00000000
_symmetry_Int_Tables_number   1
_chemical_formula_structural   LiSi2B
_chemical_formula_sum   'Li8 Si16 B8'
_cell_volume   409.79645321
_cell_formula_units_Z   8
loop_
 _symmetry_equiv_pos_site_id
 _symmetry_equiv_pos_as_xyz
  1  'x, y, z'
loop_
 _atom_site_type_symbol
 _atom_site_label
 _atom_site_symmetry_multiplicity
 _atom_site_fract_x
 _atom_site_fract_y
 _atom_site_fract_z
 _atom_site_occupancy
  Li  Li0  1  0.25406951  0.50000000  0.17305885  1
  Li  Li1  1  0.74593049  0.50000000  0.17305885  1
  Li  Li2  1  0.00000000  0.75406951  0.67305885  1
  Li  Li3  1  0.00000000  0.24593049  0.67305885  1
  Li  Li4  1  0.24593049  0.00000000  0.32694115  1
  Li  Li5  1  0.75406951  0.00000000  0.32694115  1
  Li  Li6  1  0.50000000  0.74593049  0.82694115  1
  Li  Li7  1  0.50000000  0.25406951  0.82694115  1
  Si  Si0  1  0.81926386  0.50000000  0.88606559  1
  Si  Si1  1  0.18073614  0.50000000  0.88606559  1
  Si  Si2  1  0.00000000  0.31926386  0.38606559  1
  Si  Si3  1  0.00000000  0.68073614  0.38606559  1
  Si  Si4  1  0.68073614  0.00000000  0.61393441  1
  Si  Si5  1  0.31926386  0.00000000  0.61393441  1
  Si  Si6  1  0.50000000  0.18073614  0.11393441  1
  Si  Si7  1  0.50000000  0.81926386  0.11393441  1
  Si  Si8  1  0.31667653  0.50000000  0.62984883  1
  Si  Si9  1  0.68332347  0.50000000  0.62984883  1
  Si  Si10  1  0.00000000  0.81667653  0.12984883  1
  Si  Si11  1  0.00000000  0.18332347  0.12984883  1
  Si  Si12  1  0.18332347  0.00000000  0.87015117  1
  Si  Si13  1  0.81667653  0.00000000  0.87015117  1
  Si  Si14  1  0.50000000  0.68332347  0.37015117  1
  Si  Si15  1  0.50000000  0.31667653  0.37015117  1
  B  B0  1  0.24171969  0.75828031  0.00000000  1
  B  B1  1  0.75828031  0.75828031  0.00000000  1
  B  B2  1  0.24171969  0.24171969  0.00000000  1
  B  B3  1  0.75828031  0.24171969  0.00000000  1
  B  B4  1  0.25828031  0.74171969  0.50000000  1
  B  B5  1  0.74171969  0.74171969  0.50000000  1
  B  B6  1  0.25828031  0.25828031  0.50000000  1
  B  B7  1  0.74171969  0.25828031  0.50000000  1
loop_
_geom_bond_atom_site_label_1
_geom_bond_atom_site_label_2
_geom_bond_distance
_geom_bond_site_symmetry_2
Li0 Si1 2.579522 1_554
Li0 Si15 2.719013 1_555
Li0 Si14 2.719013 1_555
Li0 Si10 2.793886 1_555
Li0 Si11 2.793886 1_555
Li0 Si7 2.796384 1_555
Li0 Si6 2.796384 1_555
Li0 Si2 2.836516 1_555
Li0 Si3 2.836516 1_555
Li1 Si0 2.579522 1_554
Li1 Si15 2.719013 1_555
Li1 Si14 2.719013 1_555
Li1 Si10 2.793886 1_655
Li1 Si11 2.793886 1_655
Li1 Si7 2.796384 1_555
Li1 Si6 2.796384 1_555
Li1 Si2 2.836516 1_655
Li1 Si3 2.836516 1_655
Li2 Si3 2.579522 1_555
Li2 Si12 2.719013 1_565
Li2 Si13 2.719013 1_465
Li2 Si9 2.793886 1_455
Li2 Si8 2.793886 1_555
Li2 Si5 2.796384 1_565
Li2 Si4 2.796384 1_465
Li2 Si1 2.836516 1_555
Li2 Si0 2.836516 1_455
Li3 Si2 2.579522 1_555
Li3 Si12 2.719013 1_555
Li3 Si13 2.719013 1_455
Li3 Si9 2.793886 1_455
Li3 Si8 2.793886 1_555
Li3 Si5 2.796384 1_555
Li3 Si4 2.796384 1_455
Li3 Si1 2.836516 1_555
Li3 Si0 2.836516 1_455
Li4 Si5 2.579522 1_555
Li4 Si10 2.719013 1_545
Li4 Si11 2.719013 1_555
Li4 Si14 2.793886 1_545
Li4 Si15 2.793886 1_555
Li4 Si2 2.796384 1_555
Li4 Si3 2.796384 1_545
Li4 Si6 2.836516 1_555
Li4 Si7 2.836516 1_545
Li5 Si4 2.579522 1_555
Li5 Si10 2.719013 1_645
Li5 Si11 2.719013 1_655
Li5 Si14 2.793886 1_545
Li5 Si15 2.793886 1_555
Li5 Si3 2.796384 1_645
Li5 Si2 2.796384 1_655
Li5 Si6 2.836516 1_555
Li5 Si7 2.836516 1_545
Li6 Si7 2.579522 1_556
Li6 Si8 2.719013 1_555
Li6 Si9 2.719013 1_555
Li6 Si13 2.793886 1_565
Li6 Si12 2.793886 1_565
Li6 Si0 2.796384 1_555
Li6 Si1 2.796384 1_555
Li6 Si5 2.836516 1_565
Li6 Si4 2.836516 1_565
Li7 Si6 2.579522 1_556
Li7 Si8 2.719013 1_555
Li7 Si9 2.719013 1_555
Li7 Si12 2.793886 1_555
Li7 Si13 2.793886 1_555
Li7 Si0 2.796384 1_555
Li7 Si1 2.796384 1_555
Li7 Si5 2.836516 1_555
Li7 Si4 2.836516 1_555
Si0 Si9 2.441923 1_555
Si0 Si1 2.464234 1_655
Si1 Si8 2.441923 1_555
Si2 Si3 2.464234 1_555
Si4 Si5 2.464234 1_555
Si6 Si7 2.464234 1_545
Si8 Si9 2.499511 1_555
Si10 Si3 2.441923 1_555
Si10 Si11 2.499511 1_565
Si11 Si2 2.441923 1_555
Si12 Si5 2.441923 1_555
Si12 Si13 2.499511 1_455
Si13 Si4 2.441923 1_555
Si14 Si7 2.441923 1_555
Si14 Si15 2.499511 1_555
Si15 Si6 2.441923 1_555
B0 Si10 2.045692 1_555
B0 Si12 2.045692 1_564
B0 Si1 2.069392 1_554
B0 Si7 2.069392 1_555
B0 Li0 2.331511 1_555
B0 Li6 2.331511 1_554
B1 Si10 2.045692 1_655
B1 Si13 2.045692 1_564
B1 Si7 2.069392 1_555
B1 Si0 2.069392 1_554
B1 Li6 2.331511 1_554
B1 Li1 2.331511 1_555
B2 Si12 2.045692 1_554
B2 Si11 2.045692 1_555
B2 Si1 2.069392 1_554
B2 Si6 2.069392 1_555
B2 Li0 2.331511 1_555
B2 Li7 2.331511 1_554
B3 Si13 2.045692 1_554
B3 Si11 2.045692 1_655
B3 Si6 2.069392 1_555
B3 Si0 2.069392 1_554
B3 Li7 2.331511 1_554
B3 Li1 2.331511 1_555
B4 Si14 2.045692 1_555
B4 Si8 2.045692 1_555
B4 Si5 2.069392 1_565
B4 Si3 2.069392 1_555
B4 Li4 2.331511 1_565
B4 Li2 2.331511 1_555
B5 Si9 2.045692 1_555
B5 Si14 2.045692 1_555
B5 Si3 2.069392 1_655
B5 Si4 2.069392 1_565
B5 Li5 2.331511 1_565
B5 Li2 2.331511 1_655
B6 Si8 2.045692 1_555
B6 Si15 2.045692 1_555
B6 Si2 2.069392 1_555
B6 Si5 2.069392 1_555
B6 Li4 2.331511 1_555
B6 Li3 2.331511 1_555
B7 Si9 2.045692 1_555
B7 Si15 2.045692 1_555
B7 Si2 2.069392 1_655
B7 Si4 2.069392 1_555
B7 Li3 2.331511 1_655
B7 Li5 2.331511 1_555
