# generated using pymatgen
data_LiHo(WO4)2
_symmetry_space_group_name_H-M   'P 1'
_cell_length_a   5.92692700
_cell_length_b   5.08909100
_cell_length_c   10.98462104
_cell_angle_alpha   66.26512188
_cell_angle_beta   90.00000000
_cell_angle_gamma   90.00000000
_symmetry_Int_Tables_number   1
_chemical_formula_structural   LiHo(WO4)2
_chemical_formula_sum   'Li2 Ho2 W4 O16'
_cell_volume   303.30124953
_cell_formula_units_Z   2
loop_
 _symmetry_equiv_pos_site_id
 _symmetry_equiv_pos_as_xyz
  1  'x, y, z'
loop_
 _atom_site_type_symbol
 _atom_site_label
 _atom_site_symmetry_multiplicity
 _atom_site_fract_x
 _atom_site_fract_y
 _atom_site_fract_z
 _atom_site_occupancy
  Li  Li0  1  0.24196900  0.50000000  0.75000000  1
  Li  Li1  1  0.75803100  0.50000000  0.25000000  1
  Ho  Ho0  1  0.67869300  0.00000000  0.75000000  1
  Ho  Ho1  1  0.32130700  0.00000000  0.25000000  1
  W  W0  1  0.17463100  0.23626300  0.51295700  1
  W  W1  1  0.82536900  0.76373700  0.48704300  1
  W  W2  1  0.17463100  0.76373700  0.98704300  1
  W  W3  1  0.82536900  0.23626300  0.01295700  1
  O  O0  1  0.62823900  0.79047500  0.60878700  1
  O  O1  1  0.37176100  0.20952500  0.39121300  1
  O  O2  1  0.62823900  0.20952500  0.89121300  1
  O  O3  1  0.37176100  0.79047500  0.10878700  1
  O  O4  1  0.36780900  0.26880800  0.63538200  1
  O  O5  1  0.63219100  0.73119200  0.36461800  1
  O  O6  1  0.36780900  0.73119200  0.86461800  1
  O  O7  1  0.63219100  0.26880800  0.13538200  1
  O  O8  1  0.08284500  0.84845300  0.61212700  1
  O  O9  1  0.91715500  0.15154700  0.38787300  1
  O  O10  1  0.08284500  0.15154700  0.88787300  1
  O  O11  1  0.91715500  0.84845300  0.11212700  1
  O  O12  1  0.88959500  0.34992300  0.59799900  1
  O  O13  1  0.11040500  0.65007700  0.40200100  1
  O  O14  1  0.88959500  0.65007700  0.90200100  1
  O  O15  1  0.11040500  0.34992300  0.09799900  1
loop_
_geom_bond_atom_site_label_1
_geom_bond_atom_site_label_2
_geom_bond_distance
_geom_bond_site_symmetry_2
Li0 O10 2.041024 1_555
Li0 O8 2.041024 1_555
Li0 O6 2.172147 1_555
Li0 O4 2.172147 1_555
Li1 O9 2.041024 1_555
Li1 O11 2.041024 1_555
Li1 O5 2.172147 1_555
Li1 O7 2.172147 1_555
Ho0 O2 2.228008 1_555
Ho0 O0 2.228008 1_545
Ho0 O14 2.264499 1_545
Ho0 O12 2.264499 1_555
Ho0 O4 2.337773 1_555
Ho0 O6 2.337773 1_545
Ho1 O1 2.228008 1_555
Ho1 O3 2.228008 1_545
Ho1 O13 2.264499 1_545
Ho1 O15 2.264499 1_555
Ho1 O7 2.337773 1_555
Ho1 O5 2.337773 1_545
O0 W1 1.821677 1_555
O1 W0 1.821677 1_555
O2 W3 1.821677 1_556
O3 W2 1.821677 1_554
O4 W0 1.823763 1_555
O5 W1 1.823763 1_555
O6 W2 1.823763 1_555
O7 W3 1.823763 1_555
O8 W0 1.909712 1_565
O8 W1 2.208939 1_455
O9 W1 1.909712 1_545
O9 W0 2.208939 1_655
O10 W2 1.909712 1_545
O10 W3 2.208939 1_456
O11 W3 1.909712 1_565
O11 W2 2.208939 1_654
O12 W1 1.999781 1_555
O12 W0 2.120431 1_655
O13 W0 1.999781 1_555
O13 W1 2.120431 1_455
O14 W3 1.999781 1_556
O14 W2 2.120431 1_655
O15 W2 1.999781 1_554
O15 W3 2.120431 1_455
