# generated using pymatgen
data_Ca2Ti2O5
_symmetry_space_group_name_H-M   'P 1'
_cell_length_a   7.75438300
_cell_length_b   7.60878800
_cell_length_c   10.82059255
_cell_angle_alpha   45.87286551
_cell_angle_beta   90.00000000
_cell_angle_gamma   90.00000000
_symmetry_Int_Tables_number   1
_chemical_formula_structural   Ca2Ti2O5
_chemical_formula_sum   'Ca8 Ti8 O20'
_cell_volume   458.26342620
_cell_formula_units_Z   4
loop_
 _symmetry_equiv_pos_site_id
 _symmetry_equiv_pos_as_xyz
  1  'x, y, z'
loop_
 _atom_site_type_symbol
 _atom_site_label
 _atom_site_symmetry_multiplicity
 _atom_site_fract_x
 _atom_site_fract_y
 _atom_site_fract_z
 _atom_site_occupancy
  Ca  Ca0  1  0.75760000  0.46602800  0.26575200  1
  Ca  Ca1  1  0.74240000  0.46602800  0.76575200  1
  Ca  Ca2  1  0.24505100  0.04210800  0.73592800  1
  Ca  Ca3  1  0.25494900  0.04210800  0.23592800  1
  Ca  Ca4  1  0.74505100  0.95789200  0.76407200  1
  Ca  Ca5  1  0.75494900  0.95789200  0.26407200  1
  Ca  Ca6  1  0.25760000  0.53397200  0.23424800  1
  Ca  Ca7  1  0.24240000  0.53397200  0.73424800  1
  Ti  Ti0  1  0.50000000  0.50000000  0.50000000  1
  Ti  Ti1  1  0.50000000  0.50000000  0.00000000  1
  Ti  Ti2  1  0.50000000  0.00000000  0.00000000  1
  Ti  Ti3  1  0.50000000  0.00000000  0.50000000  1
  Ti  Ti4  1  0.00000000  0.00000000  0.00000000  1
  Ti  Ti5  1  0.00000000  0.00000000  0.50000000  1
  Ti  Ti6  1  0.00000000  0.50000000  0.50000000  1
  Ti  Ti7  1  0.00000000  0.50000000  0.00000000  1
  O  O0  1  0.25454000  0.98043200  0.54403800  1
  O  O1  1  0.24546000  0.98043200  0.04403800  1
  O  O2  1  0.75492900  0.51826200  0.02595800  1
  O  O3  1  0.74507100  0.51826200  0.52595800  1
  O  O4  1  0.25492900  0.48173800  0.47404200  1
  O  O5  1  0.24507100  0.48173800  0.97404200  1
  O  O6  1  0.75454000  0.01956800  0.95596200  1
  O  O7  1  0.74546000  0.01956800  0.45596200  1
  O  O8  1  0.96196900  0.20951500  0.54131900  1
  O  O9  1  0.03830900  0.28139700  0.75490600  1
  O  O10  1  0.03703700  0.29296600  0.24574900  1
  O  O11  1  0.53830900  0.71860300  0.74509400  1
  O  O12  1  0.53703700  0.70703400  0.25425100  1
  O  O13  1  0.46196900  0.79048500  0.95868100  1
  O  O14  1  0.53803100  0.20951500  0.04131900  1
  O  O15  1  0.46296300  0.29296600  0.74574900  1
  O  O16  1  0.46169100  0.28139700  0.25490600  1
  O  O17  1  0.03803100  0.79048500  0.45868100  1
  O  O18  1  0.96296300  0.70703400  0.75425100  1
  O  O19  1  0.96169100  0.71860300  0.24509400  1
loop_
_geom_bond_atom_site_label_1
_geom_bond_atom_site_label_2
_geom_bond_distance
_geom_bond_site_symmetry_2
Ca0 O2 2.335577 1_555
Ca0 O19 2.376903 1_555
Ca0 O12 2.446554 1_555
Ca0 O7 2.459422 1_555
Ca0 O10 2.621633 1_655
Ca0 O8 2.666064 1_555
Ca0 O16 2.735328 1_555
Ca1 O3 2.335577 1_555
Ca1 O11 2.376903 1_555
Ca1 O18 2.446554 1_555
Ca1 O6 2.459422 1_555
Ca1 O15 2.621633 1_555
Ca1 O14 2.666064 1_556
Ca1 O9 2.735328 1_655
Ca2 O13 2.424566 1_545
Ca2 O0 2.427710 1_545
Ca2 O4 2.454745 1_555
Ca2 O9 2.539265 1_555
Ca2 O15 2.606206 1_555
Ca2 O8 2.672135 1_455
Ca3 O17 2.424566 1_545
Ca3 O1 2.427710 1_545
Ca3 O5 2.454745 1_554
Ca3 O16 2.539265 1_555
Ca3 O10 2.606206 1_555
Ca3 O14 2.672135 1_555
Ca4 O8 2.424566 1_565
Ca4 O6 2.427710 1_565
Ca4 O2 2.454745 1_556
Ca4 O11 2.539265 1_555
Ca4 O18 2.606206 1_555
Ca4 O13 2.672135 1_555
Ca5 O14 2.424566 1_565
Ca5 O7 2.427710 1_565
Ca5 O3 2.454745 1_555
Ca5 O19 2.539265 1_555
Ca5 O12 2.606206 1_555
Ca5 O17 2.672135 1_655
Ca6 O4 2.335577 1_555
Ca6 O16 2.376903 1_555
Ca6 O10 2.446554 1_555
Ca6 O1 2.459422 1_555
Ca6 O12 2.621633 1_555
Ca6 O13 2.666064 1_554
Ca6 O19 2.735328 1_455
Ca7 O5 2.335577 1_555
Ca7 O9 2.376903 1_555
Ca7 O15 2.446554 1_555
Ca7 O0 2.459422 1_555
Ca7 O18 2.621633 1_455
Ca7 O17 2.666064 1_555
Ca7 O11 2.735328 1_555
O0 Ti3 1.942508 1_565
O0 Ti5 2.011549 1_565
O1 Ti4 1.942508 1_565
O1 Ti2 2.011549 1_565
O2 Ti7 1.940096 1_655
O2 Ti1 2.015032 1_555
O3 Ti0 1.940096 1_555
O3 Ti6 2.015032 1_655
O4 Ti0 1.940096 1_555
O4 Ti6 2.015032 1_555
O5 Ti7 1.940096 1_556
O5 Ti1 2.015032 1_556
O6 Ti4 1.942508 1_656
O6 Ti2 2.011549 1_556
O7 Ti3 1.942508 1_555
O7 Ti5 2.011549 1_655
O8 Ti6 1.948323 1_655
O8 Ti5 1.954659 1_655
O9 Ti4 1.949071 1_556
O9 Ti6 2.018457 1_555
O10 Ti7 1.949870 1_555
O10 Ti5 2.020033 1_555
O11 Ti3 1.949071 1_565
O11 Ti1 2.018457 1_556
O12 Ti0 1.949870 1_555
O12 Ti2 2.020033 1_565
O13 Ti1 1.948323 1_556
O13 Ti2 1.954659 1_566
O14 Ti1 1.948323 1_555
O14 Ti2 1.954659 1_555
O15 Ti0 1.949870 1_555
O15 Ti2 2.020033 1_556
O16 Ti3 1.949071 1_555
O16 Ti1 2.018457 1_555
O17 Ti6 1.948323 1_555
O17 Ti5 1.954659 1_565
O18 Ti7 1.949870 1_656
O18 Ti5 2.020033 1_665
O19 Ti4 1.949071 1_665
O19 Ti6 2.018457 1_655
