# generated using pymatgen
data_Ta3Al4O14
_symmetry_space_group_name_H-M   'P 1'
_cell_length_a   7.45248943
_cell_length_b   7.45248943
_cell_length_c   4.60267100
_cell_angle_alpha   90.00000000
_cell_angle_beta   90.00000000
_cell_angle_gamma   119.99999491
_symmetry_Int_Tables_number   1
_chemical_formula_structural   Ta3Al4O14
_chemical_formula_sum   'Ta3 Al4 O14'
_cell_volume   221.38251842
_cell_formula_units_Z   1
loop_
 _symmetry_equiv_pos_site_id
 _symmetry_equiv_pos_as_xyz
  1  'x, y, z'
loop_
 _atom_site_type_symbol
 _atom_site_label
 _atom_site_symmetry_multiplicity
 _atom_site_fract_x
 _atom_site_fract_y
 _atom_site_fract_z
 _atom_site_occupancy
  Ta  Ta0  1  0.39003300  0.11047500  0.99753300  1
  Ta  Ta1  1  0.88952500  0.27955800  0.99753300  1
  Ta  Ta2  1  0.72044200  0.60996700  0.99753300  1
  Al  Al0  1  0.30252000  0.42652900  0.50009500  1
  Al  Al1  1  0.57347100  0.87599200  0.50009500  1
  Al  Al2  1  0.12400800  0.69748000  0.50009500  1
  Al  Al3  1  0.00000000  0.00000000  0.50429900  1
  O  O0  1  0.05926400  0.23652200  0.27334400  1
  O  O1  1  0.76347800  0.82274200  0.27334400  1
  O  O2  1  0.17725800  0.94073600  0.27334400  1
  O  O3  1  0.47035000  0.38468700  0.22551400  1
  O  O4  1  0.61531300  0.08566300  0.22551400  1
  O  O5  1  0.91433700  0.52965000  0.22551400  1
  O  O6  1  0.23668300  0.18987500  0.72243000  1
  O  O7  1  0.81012500  0.04680800  0.72243000  1
  O  O8  1  0.95319200  0.76331700  0.72243000  1
  O  O9  1  0.09717400  0.47389600  0.73128500  1
  O  O10  1  0.52610400  0.62327800  0.73128500  1
  O  O11  1  0.37672200  0.90282600  0.73128500  1
  O  O12  1  0.66666700  0.33333300  0.81194800  1
  O  O13  1  0.33333300  0.66666700  0.32291100  1
loop_
_geom_bond_atom_site_label_1
_geom_bond_atom_site_label_2
_geom_bond_distance
_geom_bond_site_symmetry_2
Al0 O13 1.873394 1_555
Al0 O6 1.879658 1_555
Al0 O10 1.901439 1_555
Al0 O3 1.910193 1_555
Al0 O0 1.952887 1_555
Al0 O9 2.034466 1_555
Al1 O13 1.873395 1_555
Al1 O7 1.879656 1_565
Al1 O11 1.901435 1_555
Al1 O4 1.910188 1_565
Al1 O1 1.952891 1_555
Al1 O10 2.034472 1_555
Al2 O13 1.873394 1_555
Al2 O8 1.879652 1_455
Al2 O9 1.901441 1_555
Al2 O5 1.910190 1_455
Al2 O2 1.952885 1_555
Al2 O11 2.034470 1_555
Al3 O7 1.904109 1_455
Al3 O8 1.904109 1_445
Al3 O6 1.904110 1_555
Al3 O2 1.911434 1_545
Al3 O0 1.911434 1_555
Al3 O1 1.911434 1_445
O0 Ta1 1.928806 1_454
O1 Ta2 1.928806 1_554
O2 Ta0 1.928806 1_564
O3 Ta2 2.065045 1_554
O3 Ta0 2.100548 1_554
O4 Ta0 2.065045 1_554
O4 Ta1 2.100548 1_554
O5 Ta1 2.065045 1_554
O5 Ta2 2.100547 1_554
O6 Ta0 1.983874 1_555
O7 Ta1 1.983874 1_555
O8 Ta2 1.983874 1_555
O9 Ta1 1.937221 1_455
O10 Ta2 1.937220 1_555
O11 Ta0 1.937220 1_565
O12 Ta1 2.077077 1_555
O12 Ta0 2.077082 1_555
O12 Ta2 2.077084 1_555
