# generated using pymatgen
data_Nb2Cu3O8
_symmetry_space_group_name_H-M   'P 1'
_cell_length_a   5.25898785
_cell_length_b   5.52568529
_cell_length_c   6.21423293
_cell_angle_alpha   73.52601491
_cell_angle_beta   81.79129698
_cell_angle_gamma   66.66135993
_symmetry_Int_Tables_number   1
_chemical_formula_structural   Nb2Cu3O8
_chemical_formula_sum   'Nb2 Cu3 O8'
_cell_volume   158.90556879
_cell_formula_units_Z   1
loop_
 _symmetry_equiv_pos_site_id
 _symmetry_equiv_pos_as_xyz
  1  'x, y, z'
loop_
 _atom_site_type_symbol
 _atom_site_label
 _atom_site_symmetry_multiplicity
 _atom_site_fract_x
 _atom_site_fract_y
 _atom_site_fract_z
 _atom_site_occupancy
  Nb  Nb0  1  0.78178400  0.45797700  0.34607400  1
  Nb  Nb1  1  0.21812100  0.54201500  0.65399500  1
  Cu  Cu0  1  0.00006000  0.99999300  0.00000600  1
  Cu  Cu1  1  0.53631100  0.93311600  0.75355900  1
  Cu  Cu2  1  0.46367800  0.06687300  0.24633500  1
  O  O0  1  0.76125000  0.79960600  0.10715600  1
  O  O1  1  0.23883600  0.20035800  0.89284200  1
  O  O2  1  0.73721600  0.25431300  0.16708300  1
  O  O3  1  0.26284900  0.74572900  0.83286900  1
  O  O4  1  0.63104100  0.26256900  0.62411300  1
  O  O5  1  0.36892700  0.73735700  0.37589700  1
  O  O6  1  0.83003300  0.68577300  0.60115300  1
  O  O7  1  0.16989300  0.31431900  0.39891800  1
loop_
_geom_bond_atom_site_label_1
_geom_bond_atom_site_label_2
_geom_bond_distance
_geom_bond_site_symmetry_2
Nb0 O2 1.884675 1_555
Nb0 O7 1.914081 1_655
Nb0 O4 2.002156 1_555
Nb0 O0 2.018464 1_555
Nb0 O5 2.126808 1_555
Nb0 O6 2.379270 1_555
Nb1 O3 1.884709 1_555
Nb1 O6 1.913945 1_455
Nb1 O5 2.002392 1_555
Nb1 O1 2.018160 1_555
Nb1 O4 2.127227 1_555
Nb1 O7 2.378794 1_555
Cu0 O1 1.921118 1_564
Cu0 O0 1.921349 1_455
Cu0 O3 1.960088 1_554
Cu0 O2 1.960134 1_465
Cu1 O6 1.947980 1_555
Cu1 O1 1.971044 1_565
Cu1 O4 1.995724 1_565
Cu1 O3 2.017746 1_555
Cu1 O0 2.429672 1_556
Cu2 O7 1.949056 1_555
Cu2 O0 1.970995 1_545
Cu2 O5 1.996176 1_545
Cu2 O2 2.018312 1_555
Cu2 O1 2.428865 1_554
