# generated using pymatgen
data_Cd5Si(PO6)2
_symmetry_space_group_name_H-M   'P 1'
_cell_length_a   6.83631300
_cell_length_b   10.32214100
_cell_length_c   15.17565800
_cell_angle_alpha   90.00000000
_cell_angle_beta   90.00000000
_cell_angle_gamma   90.00000000
_symmetry_Int_Tables_number   1
_chemical_formula_structural   Cd5Si(PO6)2
_chemical_formula_sum   'Cd20 Si4 P8 O48'
_cell_volume   1070.87617529
_cell_formula_units_Z   4
loop_
 _symmetry_equiv_pos_site_id
 _symmetry_equiv_pos_as_xyz
  1  'x, y, z'
loop_
 _atom_site_type_symbol
 _atom_site_label
 _atom_site_symmetry_multiplicity
 _atom_site_fract_x
 _atom_site_fract_y
 _atom_site_fract_z
 _atom_site_occupancy
  Cd  Cd0  1  0.19820800  0.71729500  0.49755900  1
  Cd  Cd1  1  0.69820800  0.78270500  0.50244100  1
  Cd  Cd2  1  0.30179200  0.28270500  0.99755900  1
  Cd  Cd3  1  0.80179200  0.21729500  0.00244100  1
  Cd  Cd4  1  0.89408200  0.56040900  0.66171800  1
  Cd  Cd5  1  0.39408200  0.93959100  0.33828200  1
  Cd  Cd6  1  0.60591800  0.43959100  0.16171800  1
  Cd  Cd7  1  0.10591800  0.06040900  0.83828200  1
  Cd  Cd8  1  0.60469900  0.44818200  0.84143000  1
  Cd  Cd9  1  0.10469900  0.05181800  0.15857000  1
  Cd  Cd10  1  0.89530100  0.55181800  0.34143000  1
  Cd  Cd11  1  0.39530100  0.94818200  0.65857000  1
  Cd  Cd12  1  0.08523200  0.66033200  0.85796600  1
  Cd  Cd13  1  0.58523200  0.83966800  0.14203400  1
  Cd  Cd14  1  0.41476800  0.33966800  0.35796600  1
  Cd  Cd15  1  0.91476800  0.16033200  0.64203400  1
  Cd  Cd16  1  0.39908600  0.33606300  0.64145800  1
  Cd  Cd17  1  0.89908600  0.16393700  0.35854200  1
  Cd  Cd18  1  0.10091400  0.66393700  0.14145800  1
  Cd  Cd19  1  0.60091400  0.83606300  0.85854200  1
  Si  Si0  1  0.89780600  0.86701700  0.67850400  1
  Si  Si1  1  0.39780600  0.63298300  0.32149600  1
  Si  Si2  1  0.60219400  0.13298300  0.17850400  1
  Si  Si3  1  0.10219400  0.36701700  0.82149600  1
  P  P0  1  0.24340900  0.08719000  0.49777300  1
  P  P1  1  0.74340900  0.41281000  0.50222700  1
  P  P2  1  0.25659100  0.91281000  0.99777300  1
  P  P3  1  0.75659100  0.58719000  0.00222700  1
  P  P4  1  0.60390400  0.13195900  0.82159500  1
  P  P5  1  0.10390400  0.36804100  0.17840500  1
  P  P6  1  0.89609600  0.86804100  0.32159500  1
  P  P7  1  0.39609600  0.63195900  0.67840500  1
  O  O0  1  0.95844400  0.76257200  0.59875500  1
  O  O1  1  0.45844400  0.73742800  0.40124500  1
  O  O2  1  0.54155600  0.23742800  0.09875500  1
  O  O3  1  0.04155600  0.26257200  0.90124500  1
  O  O4  1  0.54423400  0.22952500  0.89632000  1
  O  O5  1  0.04423400  0.27047500  0.10368000  1
  O  O6  1  0.95576600  0.77047500  0.39632000  1
  O  O7  1  0.45576600  0.72952500  0.60368000  1
  O  O8  1  0.07571100  0.97293700  0.69946300  1
  O  O9  1  0.57571100  0.52706300  0.30053700  1
  O  O10  1  0.42428900  0.02706300  0.19946300  1
  O  O11  1  0.92428900  0.47293700  0.80053700  1
  O  O12  1  0.43447200  0.03241400  0.80306700  1
  O  O13  1  0.93447200  0.46758600  0.19693300  1
  O  O14  1  0.06552800  0.96758600  0.30306700  1
  O  O15  1  0.56552800  0.53241400  0.69693300  1
  O  O16  1  0.84574400  0.77736200  0.76518600  1
  O  O17  1  0.34574400  0.72263800  0.23481400  1
  O  O18  1  0.65425600  0.22263800  0.26518600  1
  O  O19  1  0.15425600  0.27736200  0.73481400  1
  O  O20  1  0.65426000  0.21461700  0.73954600  1
  O  O21  1  0.15426000  0.28538300  0.26045400  1
  O  O22  1  0.84574000  0.78538300  0.23954600  1
  O  O23  1  0.34574000  0.71461700  0.76045400  1
  O  O24  1  0.01779700  0.10996500  0.49777500  1
  O  O25  1  0.51779700  0.39003500  0.50222500  1
  O  O26  1  0.48220300  0.89003500  0.99777500  1
  O  O27  1  0.98220300  0.60996500  0.00222500  1
  O  O28  1  0.71787200  0.95529300  0.63708200  1
  O  O29  1  0.21787200  0.54470700  0.36291800  1
  O  O30  1  0.78212800  0.04470700  0.13708200  1
  O  O31  1  0.28212800  0.45529300  0.86291800  1
  O  O32  1  0.77416800  0.04758000  0.85796500  1
  O  O33  1  0.27416800  0.45242000  0.14203500  1
  O  O34  1  0.72583200  0.95242000  0.35796500  1
  O  O35  1  0.22583200  0.54758000  0.64203500  1
  O  O36  1  0.33328000  0.14410200  0.58316900  1
  O  O37  1  0.83328000  0.35589800  0.41683100  1
  O  O38  1  0.16672000  0.85589800  0.08316900  1
  O  O39  1  0.66672000  0.64410200  0.91683100  1
  O  O40  1  0.16788200  0.85724600  0.91120700  1
  O  O41  1  0.66788200  0.64275400  0.08879300  1
  O  O42  1  0.33211800  0.14275400  0.41120700  1
  O  O43  1  0.83211800  0.35724600  0.58879300  1
  O  O44  1  0.29720100  0.94010000  0.49964900  1
  O  O45  1  0.79720100  0.55990000  0.50035100  1
  O  O46  1  0.20279900  0.05990000  0.99964900  1
  O  O47  1  0.70279900  0.44010000  0.00035100  1
loop_
_geom_bond_atom_site_label_1
_geom_bond_atom_site_label_2
_geom_bond_distance
_geom_bond_site_symmetry_2
Cd0 O0 2.294232 1_455
Cd0 O1 2.311835 1_555
Cd0 O6 2.325674 1_455
Cd0 O7 2.389505 1_555
Cd0 O44 2.397537 1_555
Cd0 O29 2.714161 1_555
Cd0 O35 2.812771 1_555
Cd1 O1 2.294232 1_555
Cd1 O0 2.311835 1_555
Cd1 O7 2.325674 1_555
Cd1 O6 2.389505 1_555
Cd1 O45 2.397537 1_555
Cd1 O28 2.714161 1_555
Cd1 O34 2.812771 1_555
Cd2 O2 2.294232 1_556
Cd2 O3 2.311835 1_555
Cd2 O4 2.325674 1_555
Cd2 O5 2.389505 1_556
Cd2 O46 2.397537 1_555
Cd2 O31 2.714161 1_555
Cd2 O33 2.812771 1_556
Cd3 O3 2.294232 1_654
Cd3 O2 2.311835 1_555
Cd3 O5 2.325674 1_655
Cd3 O4 2.389505 1_554
Cd3 O47 2.397537 1_555
Cd3 O30 2.714161 1_555
Cd3 O32 2.812771 1_554
Cd4 O35 2.291362 1_655
Cd4 O11 2.301288 1_555
Cd4 O15 2.326812 1_555
Cd4 O0 2.336907 1_555
Cd4 O43 2.408719 1_555
Cd4 O45 2.536838 1_555
Cd4 O16 2.754943 1_555
Cd5 O34 2.291362 1_555
Cd5 O10 2.301288 1_565
Cd5 O14 2.326812 1_555
Cd5 O1 2.336907 1_555
Cd5 O42 2.408719 1_565
Cd5 O44 2.536838 1_555
Cd5 O17 2.754943 1_555
Cd6 O33 2.291362 1_555
Cd6 O9 2.301288 1_555
Cd6 O13 2.326812 1_555
Cd6 O2 2.336907 1_555
Cd6 O41 2.408719 1_555
Cd6 O47 2.536838 1_555
Cd6 O18 2.754943 1_555
Cd7 O32 2.291362 1_455
Cd7 O8 2.301288 1_545
Cd7 O12 2.326812 1_555
Cd7 O3 2.336907 1_555
Cd7 O40 2.408719 1_545
Cd7 O46 2.536838 1_555
Cd7 O19 2.754943 1_555
Cd8 O31 2.230385 1_555
Cd8 O11 2.285571 1_555
Cd8 O39 2.361960 1_555
Cd8 O15 2.374067 1_555
Cd8 O4 2.441071 1_555
Cd8 O47 2.504629 1_556
Cd9 O30 2.230385 1_455
Cd9 O10 2.285571 1_555
Cd9 O38 2.361960 1_545
Cd9 O14 2.374067 1_545
Cd9 O5 2.441071 1_555
Cd9 O46 2.504629 1_554
Cd10 O29 2.230385 1_655
Cd10 O9 2.285571 1_555
Cd10 O37 2.361960 1_555
Cd10 O13 2.374067 1_555
Cd10 O6 2.441071 1_555
Cd10 O45 2.504629 1_555
Cd11 O28 2.230385 1_555
Cd11 O8 2.285571 1_555
Cd11 O36 2.361960 1_565
Cd11 O12 2.374067 1_565
Cd11 O7 2.441071 1_555
Cd11 O44 2.504629 1_555
Cd12 O40 2.259074 1_555
Cd12 O27 2.357772 1_456
Cd12 O23 2.382324 1_555
Cd12 O11 2.389917 1_455
Cd12 O16 2.474307 1_455
Cd12 O31 2.509343 1_555
Cd13 O41 2.259074 1_555
Cd13 O26 2.357772 1_554
Cd13 O22 2.382324 1_555
Cd13 O10 2.389917 1_565
Cd13 O17 2.474307 1_555
Cd13 O30 2.509343 1_565
Cd14 O42 2.259074 1_555
Cd14 O25 2.357772 1_555
Cd14 O21 2.382324 1_555
Cd14 O9 2.389917 1_555
Cd14 O18 2.474307 1_555
Cd14 O29 2.509343 1_555
Cd15 O43 2.259074 1_555
Cd15 O24 2.357772 1_655
Cd15 O20 2.382324 1_555
Cd15 O8 2.389917 1_645
Cd15 O19 2.474307 1_655
Cd15 O28 2.509343 1_545
Cd16 O36 2.216076 1_555
Cd16 O19 2.275011 1_555
Cd16 O25 2.330996 1_555
Cd16 O15 2.472087 1_555
Cd16 O35 2.483900 1_555
Cd16 O20 2.613495 1_555
Cd17 O37 2.216076 1_555
Cd17 O18 2.275011 1_555
Cd17 O24 2.330996 1_655
Cd17 O14 2.472087 1_645
Cd17 O34 2.483900 1_545
Cd17 O21 2.613495 1_655
Cd18 O38 2.216076 1_555
Cd18 O17 2.275011 1_555
Cd18 O27 2.330996 1_455
Cd18 O13 2.472087 1_455
Cd18 O33 2.483900 1_555
Cd18 O22 2.613495 1_455
Cd19 O39 2.216076 1_555
Cd19 O16 2.275011 1_555
Cd19 O26 2.330996 1_555
Cd19 O12 2.472087 1_565
Cd19 O32 2.483900 1_565
Cd19 O23 2.613495 1_555
O0 Si0 1.672969 1_555
O1 Si1 1.672969 1_555
O2 Si2 1.672969 1_555
O3 Si3 1.672969 1_555
O4 P4 1.570538 1_555
O5 P5 1.570538 1_555
O6 P6 1.570538 1_555
O7 P7 1.570538 1_555
O8 Si0 1.666042 1_455
O9 Si1 1.666042 1_555
O10 Si2 1.666042 1_555
O11 Si3 1.666042 1_655
O12 P4 1.573686 1_555
O13 P5 1.573686 1_655
O14 P6 1.573686 1_455
O15 P7 1.573686 1_555
O16 Si0 1.647277 1_555
O17 Si1 1.647277 1_555
O18 Si2 1.647277 1_555
O19 Si3 1.647277 1_555
O20 P4 1.548181 1_555
O21 P5 1.548181 1_555
O22 P6 1.548181 1_555
O23 P7 1.548181 1_555
O24 P0 1.560167 1_555
O25 P1 1.560167 1_555
O26 P2 1.560167 1_555
O27 P3 1.560167 1_555
O28 Si0 1.654852 1_555
O29 Si1 1.654852 1_555
O30 Si2 1.654852 1_555
O31 Si3 1.654852 1_555
O32 P4 1.555015 1_555
O33 P5 1.555015 1_555
O34 P6 1.555015 1_555
O35 P7 1.555015 1_555
O36 P0 1.549850 1_555
O37 P1 1.549850 1_555
O38 P2 1.549850 1_554
O39 P3 1.549850 1_556
O40 P2 1.556444 1_555
O41 P3 1.556444 1_555
O42 P0 1.556444 1_555
O43 P1 1.556444 1_555
O44 P0 1.562443 1_565
O45 P1 1.562443 1_555
O46 P2 1.562443 1_545
O47 P3 1.562443 1_555
