# generated using pymatgen
data_Ca5(GeN3)2
_symmetry_space_group_name_H-M   'P 1'
_cell_length_a   5.95981548
_cell_length_b   6.02350800
_cell_length_c   13.10917399
_cell_angle_alpha   90.00000149
_cell_angle_beta   97.74533361
_cell_angle_gamma   120.35416379
_symmetry_Int_Tables_number   1
_chemical_formula_structural   Ca5(GeN3)2
_chemical_formula_sum   'Ca10 Ge4 N12'
_cell_volume   401.11133012
_cell_formula_units_Z   2
loop_
 _symmetry_equiv_pos_site_id
 _symmetry_equiv_pos_as_xyz
  1  'x, y, z'
loop_
 _atom_site_type_symbol
 _atom_site_label
 _atom_site_symmetry_multiplicity
 _atom_site_fract_x
 _atom_site_fract_y
 _atom_site_fract_z
 _atom_site_occupancy
  Ca  Ca0  1  0.15693700  0.82749200  0.00730800  1
  Ca  Ca1  1  0.84306300  0.67055500  0.49269200  1
  Ca  Ca2  1  0.84306300  0.17250800  0.99269200  1
  Ca  Ca3  1  0.15693700  0.32944500  0.50730800  1
  Ca  Ca4  1  0.30091400  0.05986200  0.71501200  1
  Ca  Ca5  1  0.69908600  0.75894800  0.78498800  1
  Ca  Ca6  1  0.69908600  0.94013800  0.28498800  1
  Ca  Ca7  1  0.30091400  0.24105200  0.21501200  1
  Ca  Ca8  1  0.00000000  0.37925500  0.75000000  1
  Ca  Ca9  1  0.00000000  0.62074500  0.25000000  1
  Ge  Ge0  1  0.56189800  0.90927500  0.58079500  1
  Ge  Ge1  1  0.43810200  0.34737800  0.91920500  1
  Ge  Ge2  1  0.43810200  0.09072500  0.41920500  1
  Ge  Ge3  1  0.56189800  0.65262200  0.08079500  1
  N  N0  1  0.90239700  0.99521200  0.62953600  1
  N  N1  1  0.09760300  0.09281400  0.87046400  1
  N  N2  1  0.09760300  0.00478800  0.37046400  1
  N  N3  1  0.90239700  0.90718600  0.12953600  1
  N  N4  1  0.30815600  0.68216100  0.65745400  1
  N  N5  1  0.69184400  0.37400500  0.84254600  1
  N  N6  1  0.69184400  0.31783900  0.34254600  1
  N  N7  1  0.30815600  0.62599500  0.15745400  1
  N  N8  1  0.53839900  0.22459300  0.56241900  1
  N  N9  1  0.46160100  0.68619400  0.93758100  1
  N  N10  1  0.46160100  0.77540700  0.43758100  1
  N  N11  1  0.53839900  0.31380600  0.06241900  1
loop_
_geom_bond_atom_site_label_1
_geom_bond_atom_site_label_2
_geom_bond_distance
_geom_bond_site_symmetry_2
Ca0 N1 2.509484 1_564
Ca0 N3 2.547613 1_455
Ca0 N7 2.605170 1_555
Ca0 N9 2.620321 1_554
Ca0 N11 2.664182 1_565
Ca1 N0 2.509488 1_555
Ca1 N2 2.547610 1_665
Ca1 N6 2.605170 1_555
Ca1 N8 2.620321 1_555
Ca1 N10 2.664182 1_555
Ca2 N3 2.509484 1_546
Ca2 N1 2.547613 1_655
Ca2 N5 2.605170 1_555
Ca2 N11 2.620321 1_556
Ca2 N9 2.664182 1_545
Ca3 N2 2.509488 1_555
Ca3 N0 2.547610 1_445
Ca3 N4 2.605170 1_555
Ca3 N10 2.620321 1_555
Ca3 N8 2.664182 1_555
Ca4 N0 2.322956 1_445
Ca4 N4 2.419757 1_545
Ca4 N5 2.509640 1_555
Ca4 N8 2.516552 1_555
Ca4 N1 2.563019 1_555
Ca5 N1 2.322954 1_665
Ca5 N5 2.419757 1_555
Ca5 N4 2.509640 1_555
Ca5 N9 2.516552 1_555
Ca5 N0 2.563021 1_555
Ca6 N2 2.322956 1_665
Ca6 N6 2.419757 1_565
Ca6 N7 2.509640 1_555
Ca6 N10 2.516552 1_555
Ca6 N3 2.563019 1_555
Ca7 N3 2.322954 1_445
Ca7 N7 2.419757 1_555
Ca7 N6 2.509640 1_555
Ca7 N11 2.516552 1_555
Ca7 N2 2.563021 1_555
Ca8 N4 2.321131 1_555
Ca8 N5 2.321132 1_455
Ca8 N0 2.564346 1_445
Ca8 N1 2.564351 1_555
Ca9 N6 2.321131 1_455
Ca9 N7 2.321132 1_555
Ca9 N2 2.564346 1_565
Ca9 N3 2.564351 1_455
Ge0 N0 1.839331 1_555
Ge0 N4 1.867355 1_555
Ge0 N10 1.934573 1_555
Ge0 N8 1.986155 1_565
Ge1 N1 1.839335 1_555
Ge1 N5 1.867358 1_555
Ge1 N11 1.934575 1_556
Ge1 N9 1.986149 1_555
Ge2 N2 1.839331 1_555
Ge2 N6 1.867355 1_555
Ge2 N8 1.934573 1_555
Ge2 N10 1.986155 1_545
Ge3 N3 1.839335 1_555
Ge3 N7 1.867358 1_555
Ge3 N9 1.934575 1_554
Ge3 N11 1.986149 1_555
