# generated using pymatgen
data_K2PH3SeO8
_symmetry_space_group_name_H-M   'P 1'
_cell_length_a   7.60282500
_cell_length_b   7.39572400
_cell_length_c   9.70472644
_cell_angle_alpha   51.12925917
_cell_angle_beta   90.00000000
_cell_angle_gamma   90.00000000
_symmetry_Int_Tables_number   1
_chemical_formula_structural   K2PH3SeO8
_chemical_formula_sum   'K4 P2 H6 Se2 O16'
_cell_volume   424.84758548
_cell_formula_units_Z   2
loop_
 _symmetry_equiv_pos_site_id
 _symmetry_equiv_pos_as_xyz
  1  'x, y, z'
loop_
 _atom_site_type_symbol
 _atom_site_label
 _atom_site_symmetry_multiplicity
 _atom_site_fract_x
 _atom_site_fract_y
 _atom_site_fract_z
 _atom_site_occupancy
  K  K0  1  0.94438100  0.99912100  0.00118000  1
  K  K1  1  0.05561900  0.99912100  0.50118000  1
  K  K2  1  0.45140800  0.78629400  0.91759000  1
  K  K3  1  0.54859200  0.78629400  0.41759000  1
  P  P0  1  0.46161500  0.23426000  0.95934100  1
  P  P1  1  0.53838500  0.23426000  0.45934100  1
  H  H0  1  0.73652300  0.35391500  0.24511400  1
  H  H1  1  0.26347700  0.35391500  0.74511400  1
  H  H2  1  0.75014200  0.26759700  0.60426700  1
  H  H3  1  0.24985800  0.26759700  0.10426700  1
  H  H4  1  0.67699700  0.50252200  0.81629400  1
  H  H5  1  0.32300300  0.50252200  0.31629400  1
  Se  Se0  1  0.95241300  0.53660100  0.96715300  1
  Se  Se1  1  0.04758700  0.53660100  0.46715300  1
  O  O0  1  0.53865700  0.48427000  0.81143100  1
  O  O1  1  0.46134300  0.48427000  0.31143100  1
  O  O2  1  0.86271700  0.54125600  0.80555500  1
  O  O3  1  0.13728300  0.54125600  0.30555500  1
  O  O4  1  0.94989800  0.27783600  0.61484500  1
  O  O5  1  0.05010200  0.27783600  0.11484500  1
  O  O6  1  0.61721500  0.23476300  0.61076500  1
  O  O7  1  0.38278500  0.23476300  0.11076500  1
  O  O8  1  0.69968700  0.20616200  0.37118200  1
  O  O9  1  0.30031300  0.20616200  0.87118200  1
  O  O10  1  0.21235700  0.57020500  0.56577800  1
  O  O11  1  0.78764300  0.57020500  0.06577800  1
  O  O12  1  0.90490600  0.75286800  0.37707400  1
  O  O13  1  0.09509400  0.75286800  0.87707400  1
  O  O14  1  0.40839200  0.03969000  0.54041200  1
  O  O15  1  0.59160800  0.03969000  0.04041200  1
loop_
_geom_bond_atom_site_label_1
_geom_bond_atom_site_label_2
_geom_bond_distance
_geom_bond_site_symmetry_2
K0 O15 2.751703 1_565
K0 O12 2.894082 1_555
K0 O4 2.933880 1_564
K0 O13 2.972129 1_654
K0 O9 2.972294 1_664
K0 O5 2.994282 1_665
K0 O11 3.062604 1_555
K0 O3 3.128648 1_655
K0 O2 3.242173 1_564
K1 O14 2.751703 1_565
K1 O13 2.894082 1_555
K1 O5 2.933880 1_565
K1 O12 2.972129 1_455
K1 O8 2.972294 1_465
K1 O4 2.994282 1_465
K1 O10 3.062604 1_555
K1 O2 3.128648 1_455
K1 O3 3.242173 1_565
K2 O13 2.770625 1_555
K2 O11 2.876178 1_556
K2 O14 2.899601 1_565
K2 O15 2.978702 1_566
K2 O1 2.981288 1_556
K2 O6 3.010072 1_565
K2 O0 3.062537 1_555
K2 O9 3.067503 1_565
K2 O7 3.290425 1_556
K3 O12 2.770625 1_555
K3 O10 2.876178 1_555
K3 O15 2.899601 1_565
K3 O14 2.978702 1_565
K3 O0 2.981288 1_555
K3 O7 3.010072 1_565
K3 O1 3.062537 1_555
K3 O8 3.067503 1_565
K3 O6 3.290425 1_555
H0 O8 1.044676 1_555
H0 O11 1.498193 1_555
H1 O9 1.044676 1_555
H1 O10 1.498193 1_555
H2 O6 1.032026 1_555
H2 O4 1.527256 1_555
H3 O7 1.032026 1_555
H3 O5 1.527256 1_555
H4 O0 1.065211 1_555
H4 O2 1.431498 1_555
H5 O1 1.065211 1_555
H5 O3 1.431498 1_555
O0 P0 1.578322 1_555
O1 P1 1.578322 1_555
O2 Se0 1.690538 1_555
O3 Se1 1.690538 1_555
O4 Se1 1.680960 1_655
O5 Se0 1.680960 1_454
O6 P1 1.589209 1_555
O7 P0 1.589209 1_554
O8 P1 1.581850 1_555
O9 P0 1.581850 1_555
O10 Se1 1.686927 1_555
O11 Se0 1.686927 1_554
O12 Se1 1.656575 1_655
O13 Se0 1.656575 1_455
O14 P1 1.498484 1_555
O15 P0 1.498484 1_554
