# generated using pymatgen
data_AlV6Ge
_symmetry_space_group_name_H-M   'P 1'
_cell_length_a   4.76261688
_cell_length_b   4.76260668
_cell_length_c   4.76258018
_cell_angle_alpha   90.00000000
_cell_angle_beta   90.00000000
_cell_angle_gamma   90.00000000
_symmetry_Int_Tables_number   1
_chemical_formula_structural   AlV6Ge
_chemical_formula_sum   'Al1 V6 Ge1'
_cell_volume   108.02708666
_cell_formula_units_Z   1
loop_
 _symmetry_equiv_pos_site_id
 _symmetry_equiv_pos_as_xyz
  1  'x, y, z'
loop_
 _atom_site_type_symbol
 _atom_site_label
 _atom_site_symmetry_multiplicity
 _atom_site_fract_x
 _atom_site_fract_y
 _atom_site_fract_z
 _atom_site_occupancy
  Al  Al0  1  0.50000000  0.50000000  0.50000000  1
  V  V0  1  -0.00000000  0.50000000  0.75012771  1
  V  V1  1  0.50000000  0.24987529  -0.00000000  1
  V  V2  1  0.75012771  -0.00000000  0.50000000  1
  V  V3  1  0.00000000  0.50000000  0.24987229  1
  V  V4  1  0.50000000  0.75012471  0.00000000  1
  V  V5  1  0.24987229  0.00000000  0.50000000  1
  Ge  Ge0  1  -0.00000000  -0.00000000  -0.00000000  1
loop_
_geom_bond_atom_site_label_1
_geom_bond_atom_site_label_2
_geom_bond_distance
_geom_bond_site_symmetry_2
Al0 V4 2.662632 1_556
Al0 V1 2.662632 1_556
Al0 V4 2.662632 1_555
Al0 V1 2.662632 1_555
Al0 V5 2.662651 1_565
Al0 V2 2.662651 1_565
Al0 V5 2.662651 1_555
Al0 V2 2.662651 1_555
Al0 V3 2.662652 1_655
Al0 V0 2.662652 1_655
Al0 V3 2.662652 1_555
Al0 V0 2.662652 1_555
V0 V3 2.380074 1_556
V0 V3 2.382507 1_555
V0 V4 2.916485 1_456
V0 V1 2.916485 1_456
V0 V4 2.916485 1_556
V0 V1 2.916485 1_556
V0 V2 2.916488 1_455
V0 V2 2.916488 1_465
V0 V5 2.916488 1_555
V0 V5 2.916488 1_565
V1 V4 2.380115 1_545
V1 V4 2.382491 1_555
V1 V3 2.916485 1_655
V1 V3 2.916485 1_555
V1 V5 2.916485 1_555
V1 V5 2.916485 1_554
V1 V2 2.916485 1_555
V1 V2 2.916485 1_554
V2 V5 2.380092 1_655
V2 V5 2.382525 1_555
V2 V4 2.916485 1_545
V2 V4 2.916485 1_546
V2 V3 2.916488 1_655
V2 V3 2.916488 1_645
V3 V4 2.916485 1_555
V3 V4 2.916485 1_455
V3 V5 2.916488 1_555
V3 V5 2.916488 1_565
V4 V5 2.916485 1_565
V4 V5 2.916485 1_564
Ge0 V2 2.662095 1_455
Ge0 V5 2.662095 1_554
Ge0 V2 2.662095 1_454
Ge0 V5 2.662095 1_555
Ge0 V0 2.662103 1_554
Ge0 V3 2.662103 1_545
Ge0 V0 2.662103 1_544
Ge0 V3 2.662103 1_555
Ge0 V1 2.662117 1_455
Ge0 V4 2.662117 1_445
Ge0 V4 2.662117 1_545
Ge0 V1 2.662117 1_555
