# generated using pymatgen
data_Co(BrO3)2
_symmetry_space_group_name_H-M   'P 1'
_cell_length_a   5.45212300
_cell_length_b   8.32993800
_cell_length_c   11.26614183
_cell_angle_alpha   74.63240683
_cell_angle_beta   90.00000000
_cell_angle_gamma   90.00000000
_symmetry_Int_Tables_number   1
_chemical_formula_structural   Co(BrO3)2
_chemical_formula_sum   'Co2 Br4 O12'
_cell_volume   493.36714673
_cell_formula_units_Z   2
loop_
 _symmetry_equiv_pos_site_id
 _symmetry_equiv_pos_as_xyz
  1  'x, y, z'
loop_
 _atom_site_type_symbol
 _atom_site_label
 _atom_site_symmetry_multiplicity
 _atom_site_fract_x
 _atom_site_fract_y
 _atom_site_fract_z
 _atom_site_occupancy
  Co  Co0  1  0.00000000  0.50000000  0.00000000  1
  Co  Co1  1  0.50000000  0.50000000  0.00000000  1
  Br  Br0  1  0.75000000  0.73424800  0.89520800  1
  Br  Br1  1  0.25000000  0.26575200  0.10479200  1
  Br  Br2  1  0.75000000  0.62421200  0.44577100  1
  Br  Br3  1  0.25000000  0.37578800  0.55422900  1
  O  O0  1  0.75000000  0.33060600  0.84712500  1
  O  O1  1  0.25000000  0.66939400  0.15287500  1
  O  O2  1  0.75000000  0.44275300  0.10141300  1
  O  O3  1  0.25000000  0.55724700  0.89858700  1
  O  O4  1  0.75000000  0.17656700  0.87648800  1
  O  O5  1  0.25000000  0.82343300  0.12351200  1
  O  O6  1  0.75000000  0.23250500  0.36477800  1
  O  O7  1  0.25000000  0.76749500  0.63522200  1
  O  O8  1  0.75000000  0.45781000  0.57586900  1
  O  O9  1  0.25000000  0.54219000  0.42413100  1
  O  O10  1  0.75000000  0.10305600  0.44911500  1
  O  O11  1  0.25000000  0.89694400  0.55088500  1
loop_
_geom_bond_atom_site_label_1
_geom_bond_atom_site_label_2
_geom_bond_distance
_geom_bond_site_symmetry_2
Co0 O2 1.761210 1_455
Co0 O3 1.761210 1_554
Co1 O2 1.761210 1_555
Co1 O3 1.761210 1_554
Br0 Co1 2.416223 1_556
Br0 Co0 2.416223 1_656
Br1 Co1 2.416223 1_555
Br1 Co0 2.416223 1_555
Br2 O8 1.729970 1_555
Br3 O9 1.729970 1_555
O0 O4 1.237292 1_555
O1 O5 1.237292 1_555
O10 O6 1.233893 1_555
O11 O7 1.233893 1_555
