# generated using pymatgen
data_RbCuSe4
_symmetry_space_group_name_H-M   'P 1'
_cell_length_a   5.54283621
_cell_length_b   8.92138564
_cell_length_c   13.50217064
_cell_angle_alpha   90.00000000
_cell_angle_beta   90.00000000
_cell_angle_gamma   90.00000000
_symmetry_Int_Tables_number   1
_chemical_formula_structural   RbCuSe4
_chemical_formula_sum   'Rb4 Cu4 Se16'
_cell_volume   667.67935915
_cell_formula_units_Z   4
loop_
 _symmetry_equiv_pos_site_id
 _symmetry_equiv_pos_as_xyz
  1  'x, y, z'
loop_
 _atom_site_type_symbol
 _atom_site_label
 _atom_site_symmetry_multiplicity
 _atom_site_fract_x
 _atom_site_fract_y
 _atom_site_fract_z
 _atom_site_occupancy
  Rb  Rb0  1  0.68076993  0.05962155  0.33537158  1
  Rb  Rb1  1  0.18076993  0.44037845  0.66462842  1
  Rb  Rb2  1  0.31923007  0.55962155  0.16462842  1
  Rb  Rb3  1  0.81923007  0.94037845  0.83537158  1
  Cu  Cu0  1  0.96705933  0.86096502  0.56603253  1
  Cu  Cu1  1  0.53294067  0.13903498  0.06603253  1
  Cu  Cu2  1  0.03294067  0.36096502  0.93396747  1
  Cu  Cu3  1  0.46705933  0.63903498  0.43396747  1
  Se  Se0  1  0.66031745  0.88548327  0.09885702  1
  Se  Se1  1  0.83968255  0.11451673  0.59885702  1
  Se  Se2  1  0.33968255  0.38548327  0.40114298  1
  Se  Se3  1  0.16031745  0.61451673  0.90114298  1
  Se  Se4  1  0.63470810  0.69584594  0.59682044  1
  Se  Se5  1  0.13470810  0.80415406  0.40317956  1
  Se  Se6  1  0.36529190  0.19584594  0.90317956  1
  Se  Se7  1  0.86529190  0.30415406  0.09682044  1
  Se  Se8  1  0.33961321  0.86463873  0.66527482  1
  Se  Se9  1  0.83961321  0.63536127  0.33472518  1
  Se  Se10  1  0.66038679  0.36463873  0.83472518  1
  Se  Se11  1  0.16038679  0.13536127  0.16527482  1
  Se  Se12  1  0.42106556  0.08686648  0.56940949  1
  Se  Se13  1  0.92106556  0.41313352  0.43059051  1
  Se  Se14  1  0.57893444  0.58686648  0.93059051  1
  Se  Se15  1  0.07893444  0.91313352  0.06940949  1
loop_
_geom_bond_atom_site_label_1
_geom_bond_atom_site_label_2
_geom_bond_distance
_geom_bond_site_symmetry_2
Rb0 Se12 3.480943 1_555
Rb0 Se5 3.516167 1_645
Rb0 Se0 3.553107 1_545
Rb0 Se11 3.577511 1_655
Rb0 Se2 3.579725 1_555
Rb0 Se13 3.656979 1_555
Rb0 Se1 3.697621 1_555
Rb0 Se11 3.748473 1_555
Rb0 Se9 3.886052 1_545
Rb0 Se5 3.897916 1_545
Rb0 Se7 4.022423 1_555
Rb1 Se13 3.480943 1_455
Rb1 Se4 3.516167 1_555
Rb1 Se3 3.553107 1_555
Rb1 Se10 3.577511 1_555
Rb1 Se1 3.579725 1_455
Rb1 Se12 3.656979 1_555
Rb1 Se2 3.697621 1_555
Rb1 Se10 3.748473 1_455
Rb1 Se8 3.886052 1_555
Rb1 Se4 3.897916 1_455
Rb1 Se6 4.022423 1_555
Rb2 Se14 3.480943 1_554
Rb2 Se7 3.516167 1_455
Rb2 Se2 3.553107 1_555
Rb2 Se9 3.577511 1_455
Rb2 Se0 3.579725 1_555
Rb2 Se15 3.656979 1_555
Rb2 Se3 3.697621 1_554
Rb2 Se9 3.748473 1_555
Rb2 Se11 3.886052 1_555
Rb2 Se7 3.897916 1_555
Rb2 Se5 4.022423 1_555
Rb3 Se15 3.480943 1_656
Rb3 Se6 3.516167 1_565
Rb3 Se1 3.553107 1_565
Rb3 Se8 3.577511 1_555
Rb3 Se3 3.579725 1_655
Rb3 Se14 3.656979 1_555
Rb3 Se0 3.697621 1_556
Rb3 Se8 3.748473 1_655
Rb3 Se10 3.886052 1_565
Rb3 Se6 3.897916 1_665
Rb3 Se4 4.022423 1_555
Cu0 Se4 2.395076 1_555
Cu0 Se1 2.410746 1_565
Cu0 Se5 2.440370 1_655
Cu0 Se8 2.461886 1_655
Cu0 Rb3 3.794556 1_555
Cu0 Rb0 3.919025 1_565
Cu0 Rb1 4.153860 1_655
Cu1 Se7 2.395076 1_555
Cu1 Se0 2.410746 1_545
Cu1 Se6 2.440370 1_554
Cu1 Se11 2.461886 1_555
Cu1 Rb0 3.794556 1_555
Cu1 Rb3 3.919025 1_544
Cu1 Rb2 4.153860 1_555
Cu2 Se6 2.395076 1_555
Cu2 Se3 2.410746 1_555
Cu2 Se7 2.440370 1_456
Cu2 Se10 2.461886 1_455
Cu2 Rb1 3.794556 1_555
Cu2 Rb2 3.919025 1_556
Cu2 Rb3 4.153860 1_445
Cu3 Se5 2.395076 1_555
Cu3 Se2 2.410746 1_555
Cu3 Se4 2.440370 1_555
Cu3 Se9 2.461886 1_555
Cu3 Rb2 3.794556 1_555
Cu3 Rb1 3.919025 1_555
Cu3 Rb0 4.153860 1_565
Se0 Se15 2.367034 1_655
Se1 Se12 2.367034 1_555
Se10 Se14 2.410373 1_555
Se11 Se15 2.410373 1_545
Se12 Se8 2.410373 1_545
Se13 Se2 2.367034 1_655
Se13 Se9 2.410373 1_555
Se14 Se3 2.367034 1_555
