# generated using pymatgen
data_Li2CoNiO4
_symmetry_space_group_name_H-M   'P 1'
_cell_length_a   4.05832032
_cell_length_b   7.82402892
_cell_length_c   5.07902114
_cell_angle_alpha   101.43660220
_cell_angle_beta   66.45238590
_cell_angle_gamma   105.03170516
_symmetry_Int_Tables_number   1
_chemical_formula_structural   Li2CoNiO4
_chemical_formula_sum   'Li4 Co2 Ni2 O8'
_cell_volume   141.96449848
_cell_formula_units_Z   2
loop_
 _symmetry_equiv_pos_site_id
 _symmetry_equiv_pos_as_xyz
  1  'x, y, z'
loop_
 _atom_site_type_symbol
 _atom_site_label
 _atom_site_symmetry_multiplicity
 _atom_site_fract_x
 _atom_site_fract_y
 _atom_site_fract_z
 _atom_site_occupancy
  Li  Li0  1  0.75245900  0.12585900  0.62088800  1
  Li  Li1  1  0.75239600  0.62572600  0.12089000  1
  Li  Li2  1  0.49422300  0.24706300  0.25864700  1
  Li  Li3  1  0.49421900  0.74700200  0.75859400  1
  Co  Co0  1  0.24865800  0.87307300  0.37566900  1
  Co  Co1  1  0.24836800  0.37303100  0.87622800  1
  Ni  Ni0  1  0.00224400  0.50074100  0.49634200  1
  Ni  Ni1  1  0.00258100  0.00066400  0.99557800  1
  O  O0  1  0.02750900  0.26512800  0.21024700  1
  O  O1  1  0.02792300  0.76520700  0.70949400  1
  O  O2  1  0.47297300  0.48678300  0.54080400  1
  O  O3  1  0.47291800  0.98688400  0.04099700  1
  O  O4  1  0.76152400  0.38097000  0.85797200  1
  O  O5  1  0.76179500  0.88102600  0.35752300  1
  O  O6  1  0.24032000  0.12073500  0.63994700  1
  O  O7  1  0.23989000  0.62010700  0.14017900  1
loop_
_geom_bond_atom_site_label_1
_geom_bond_atom_site_label_2
_geom_bond_distance
_geom_bond_site_symmetry_2
Li0 O6 2.031456 1_655
Li0 O6 2.031843 1_555
Li0 O5 2.107407 1_545
Li0 O4 2.116484 1_555
Li0 O0 2.278907 1_655
Li0 O3 2.316950 1_546
Li1 O7 2.031580 1_655
Li1 O7 2.032002 1_555
Li1 O4 2.105917 1_554
Li1 O5 2.116816 1_555
Li1 O1 2.282913 1_654
Li1 O2 2.316008 1_555
Li2 O0 2.047584 1_555
Li2 O0 2.048017 1_655
Li2 O6 2.103699 1_555
Li2 O3 2.113299 1_545
Li2 O2 2.120892 1_555
Li2 O4 2.215375 1_554
Li3 O1 2.048060 1_555
Li3 O1 2.048477 1_655
Li3 O7 2.107217 1_556
Li3 O2 2.113813 1_555
Li3 O3 2.122461 1_556
Li3 O5 2.217501 1_555
Co0 O1 1.830619 1_555
Co0 O3 1.858587 1_555
Co0 O5 2.031719 1_455
Co0 O5 2.032429 1_555
Co0 O7 2.099478 1_555
Co0 O6 2.126935 1_565
Co1 O0 1.831579 1_556
Co1 O2 1.861450 1_555
Co1 O4 2.031856 1_455
Co1 O4 2.032331 1_555
Co1 O6 2.096725 1_555
Co1 O7 2.122576 1_556
Ni0 O7 1.970649 1_555
Ni0 O4 1.995011 1_455
Ni0 O2 2.043314 1_555
Ni0 O2 2.043808 1_455
Ni0 O0 2.106411 1_555
Ni0 O1 2.134099 1_555
Ni1 O6 1.971369 1_555
Ni1 O5 1.995774 1_446
Ni1 O3 2.043701 1_546
Ni1 O3 2.044215 1_446
Ni1 O1 2.105467 1_545
Ni1 O0 2.136673 1_556
