# generated using pymatgen
data_GdYCo4
_symmetry_space_group_name_H-M   'P 1'
_cell_length_a   5.08433073
_cell_length_b   5.08344125
_cell_length_c   5.08363777
_cell_angle_alpha   60.03407943
_cell_angle_beta   60.02157589
_cell_angle_gamma   60.00552997
_symmetry_Int_Tables_number   1
_chemical_formula_structural   GdYCo4
_chemical_formula_sum   'Gd1 Y1 Co4'
_cell_volume   92.95053563
_cell_formula_units_Z   1
loop_
 _symmetry_equiv_pos_site_id
 _symmetry_equiv_pos_as_xyz
  1  'x, y, z'
loop_
 _atom_site_type_symbol
 _atom_site_label
 _atom_site_symmetry_multiplicity
 _atom_site_fract_x
 _atom_site_fract_y
 _atom_site_fract_z
 _atom_site_occupancy
  Gd  Gd0  1  0.50010380  0.50011247  0.49987776  1
  Y  Y0  1  0.24998412  0.24992746  0.25008523  1
  Co  Co0  1  0.87505624  0.87507037  0.37481305  1
  Co  Co1  1  0.87503182  0.37485055  0.87509593  1
  Co  Co2  1  0.37479483  0.87505548  0.87508330  1
  Co  Co3  1  0.87502819  0.87498368  0.87504473  1
loop_
_geom_bond_atom_site_label_1
_geom_bond_atom_site_label_2
_geom_bond_distance
_geom_bond_site_symmetry_2
Gd0 Y0 3.112954 1_565
Gd0 Y0 3.113105 1_555
Gd0 Y0 3.113377 1_655
Gd0 Y0 3.115208 1_556
Co0 Co3 2.540933 1_554
Co0 Co2 2.541469 1_654
Co0 Co1 2.541801 1_564
Co0 Co3 2.542705 1_555
Co0 Co2 2.544173 1_555
Co0 Co1 2.544357 1_555
Co0 Gd0 2.980417 1_555
Co0 Y0 2.980426 1_655
Co0 Y0 2.980603 1_665
Co0 Gd0 2.980718 1_565
Co0 Y0 2.980797 1_565
Co0 Gd0 2.981421 1_655
Co1 Co2 2.541032 1_645
Co1 Co3 2.541183 1_545
Co1 Co3 2.542258 1_555
Co1 Co2 2.543279 1_555
Co1 Gd0 2.980506 1_556
Co1 Y0 2.980538 1_656
Co1 Gd0 2.980691 1_555
Co1 Y0 2.980764 1_655
Co1 Y0 2.981761 1_556
Co1 Gd0 2.982602 1_655
Co2 Co3 2.541259 1_455
Co2 Co3 2.543071 1_555
Co2 Y0 2.979849 1_566
Co2 Gd0 2.979960 1_555
Co2 Y0 2.981025 1_565
Co2 Gd0 2.981222 1_556
Co2 Y0 2.981746 1_556
Co2 Gd0 2.982519 1_565
Co3 Y0 2.980966 1_566
Co3 Gd0 2.981152 1_655
Co3 Gd0 2.981428 1_556
Co3 Y0 2.981539 1_656
Co3 Gd0 2.981902 1_565
Co3 Y0 2.981928 1_665
