# generated using pymatgen
data_SrLa3Cr4O12
_symmetry_space_group_name_H-M   'P 1'
_cell_length_a   5.51242143
_cell_length_b   7.87141194
_cell_length_c   5.57796957
_cell_angle_alpha   89.99907697
_cell_angle_beta   90.00301215
_cell_angle_gamma   90.97125873
_symmetry_Int_Tables_number   1
_chemical_formula_structural   SrLa3Cr4O12
_chemical_formula_sum   'Sr1 La3 Cr4 O12'
_cell_volume   241.99633657
_cell_formula_units_Z   1
loop_
 _symmetry_equiv_pos_site_id
 _symmetry_equiv_pos_as_xyz
  1  'x, y, z'
loop_
 _atom_site_type_symbol
 _atom_site_label
 _atom_site_symmetry_multiplicity
 _atom_site_fract_x
 _atom_site_fract_y
 _atom_site_fract_z
 _atom_site_occupancy
  Sr  Sr0  1  0.50006500  0.25001700  0.00197000  1
  La  La0  1  0.00003400  0.74995500  0.49611900  1
  La  La1  1  0.50002100  0.74997900  0.00092000  1
  La  La2  1  0.99985100  0.25005600  0.50068000  1
  Cr  Cr0  1  0.99971100  0.00071700  0.99948000  1
  Cr  Cr1  1  0.50021800  0.00134700  0.49961000  1
  Cr  Cr2  1  0.00033300  0.49927400  0.99949700  1
  Cr  Cr3  1  0.49972100  0.49867000  0.49957500  1
  O  O0  1  0.99997300  0.74994700  0.06106800  1
  O  O1  1  0.50011200  0.24980900  0.55296800  1
  O  O2  1  0.00001000  0.25010900  0.93333700  1
  O  O3  1  0.49989700  0.75011700  0.43635000  1
  O  O4  1  0.21770700  0.53520500  0.71828900  1
  O  O5  1  0.78211700  0.96490700  0.71806400  1
  O  O6  1  0.72246900  0.02363600  0.22332800  1
  O  O7  1  0.27722700  0.47643600  0.22278400  1
  O  O8  1  0.72028600  0.53660900  0.77953700  1
  O  O9  1  0.27999500  0.96328300  0.77899800  1
  O  O10  1  0.21134400  0.02705500  0.28879100  1
  O  O11  1  0.78890800  0.47287300  0.28863400  1
loop_
_geom_bond_atom_site_label_1
_geom_bond_atom_site_label_2
_geom_bond_distance
_geom_bond_site_symmetry_2
La0 O0 2.426701 1_455
La0 O4 2.429295 1_555
La0 O5 2.430548 1_455
La0 O11 2.713794 1_455
La0 O10 2.713977 1_565
La0 O9 2.757365 1_555
La0 O8 2.758589 1_455
La0 O3 2.775547 1_555
La0 O3 2.777055 1_455
La1 O8 2.426792 1_554
La1 O9 2.427193 1_554
La1 O3 2.428816 1_555
La1 O7 2.754344 1_555
La1 O6 2.755552 1_565
La1 O4 2.770544 1_554
La1 O5 2.771387 1_554
La1 O0 2.776280 1_555
La1 O0 2.776831 1_455
La2 O2 2.413348 1_655
La2 O11 2.428197 1_555
La2 O10 2.430406 1_655
La2 O1 2.770152 1_555
La2 O1 2.773048 1_655
La2 O6 2.795574 1_555
La2 O7 2.797096 1_655
La2 O5 2.803126 1_545
La2 O4 2.803924 1_655
Cr0 O6 1.984129 1_556
Cr0 O5 1.992633 1_545
Cr0 O2 1.997404 1_655
Cr0 O10 1.999955 1_656
Cr0 O9 2.000535 1_645
Cr0 O0 2.003604 1_546
Cr1 O6 1.974746 1_555
Cr1 O1 1.978279 1_555
Cr1 O10 1.992544 1_555
Cr1 O9 1.994992 1_545
Cr1 O5 1.999184 1_545
Cr1 O3 2.008747 1_545
Cr2 O7 1.980509 1_556
Cr2 O4 1.991210 1_555
Cr2 O2 1.995675 1_555
Cr2 O8 1.997503 1_455
Cr2 O11 1.998645 1_456
Cr2 O0 2.002856 1_456
Cr3 O7 1.977661 1_555
Cr3 O1 1.981431 1_555
Cr3 O11 1.994511 1_555
Cr3 O8 1.998406 1_555
Cr3 O4 2.000785 1_555
Cr3 O3 2.010395 1_555
O1 Sr0 2.504520 1_556
O1 Sr0 3.073450 1_555
O2 Sr0 2.782379 1_456
O2 Sr0 2.782964 1_556
O4 Sr0 3.175507 1_556
O5 Sr0 3.174965 1_566
O6 Sr0 2.505340 1_555
O7 Sr0 2.505354 1_555
O8 Sr0 2.830073 1_556
O9 Sr0 2.831905 1_566
O10 Sr0 2.842226 1_555
O11 Sr0 2.841533 1_555
