# generated using pymatgen
data_Mg6NbGa
_symmetry_space_group_name_H-M   'P 1'
_cell_length_a   4.86403600
_cell_length_b   6.26896100
_cell_length_c   10.77259700
_cell_angle_alpha   90.00000000
_cell_angle_beta   90.00000000
_cell_angle_gamma   90.00000000
_symmetry_Int_Tables_number   1
_chemical_formula_structural   Mg6NbGa
_chemical_formula_sum   'Mg12 Nb2 Ga2'
_cell_volume   328.48289679
_cell_formula_units_Z   2
loop_
 _symmetry_equiv_pos_site_id
 _symmetry_equiv_pos_as_xyz
  1  'x, y, z'
loop_
 _atom_site_type_symbol
 _atom_site_label
 _atom_site_symmetry_multiplicity
 _atom_site_fract_x
 _atom_site_fract_y
 _atom_site_fract_z
 _atom_site_occupancy
  Mg  Mg0  1  0.00000000  0.25298700  0.08155900  1
  Mg  Mg1  1  0.00000000  0.74701300  0.08155900  1
  Mg  Mg2  1  0.00000000  0.50000000  0.83324000  1
  Mg  Mg3  1  0.50000000  0.24334900  0.91350000  1
  Mg  Mg4  1  0.50000000  0.75665100  0.91350000  1
  Mg  Mg5  1  0.50000000  0.50000000  0.66659000  1
  Mg  Mg6  1  0.00000000  0.75298700  0.58155900  1
  Mg  Mg7  1  0.00000000  0.24701300  0.58155900  1
  Mg  Mg8  1  0.00000000  0.00000000  0.33324000  1
  Mg  Mg9  1  0.50000000  0.74334900  0.41350000  1
  Mg  Mg10  1  0.50000000  0.25665100  0.41350000  1
  Mg  Mg11  1  0.50000000  0.00000000  0.16659000  1
  Nb  Nb0  1  0.00000000  0.50000000  0.32606100  1
  Nb  Nb1  1  0.00000000  0.00000000  0.82606100  1
  Ga  Ga0  1  0.50000000  0.50000000  0.18399300  1
  Ga  Ga1  1  0.50000000  0.00000000  0.68399300  1
loop_
_geom_bond_atom_site_label_1
_geom_bond_atom_site_label_2
_geom_bond_distance
_geom_bond_site_symmetry_2
Mg0 Mg3 3.032495 1_554
Mg0 Mg3 3.032495 1_454
Mg0 Mg11 3.044514 1_455
Mg0 Mg11 3.044514 1_555
Mg0 Nb0 3.055395 1_555
Mg0 Mg2 3.090912 1_554
Mg0 Mg1 3.097030 1_555
Mg0 Mg8 3.141052 1_555
Mg0 Mg1 3.171931 1_545
Mg0 Nb1 3.176612 1_554
Mg1 Mg4 3.032495 1_454
Mg1 Mg4 3.032495 1_554
Mg1 Mg11 3.044514 1_565
Mg1 Mg11 3.044514 1_465
Mg1 Nb0 3.055395 1_555
Mg1 Mg2 3.090912 1_554
Mg1 Mg8 3.141052 1_565
Mg1 Nb1 3.176612 1_564
Mg2 Mg5 3.022854 1_455
Mg2 Mg5 3.022854 1_555
Mg2 Mg4 3.041534 1_555
Mg2 Mg3 3.041534 1_455
Mg2 Mg4 3.041534 1_455
Mg2 Mg3 3.041534 1_555
Mg2 Nb1 3.135434 1_555
Mg2 Nb1 3.135434 1_565
Mg2 Mg6 3.141052 1_555
Mg2 Mg7 3.141052 1_555
Mg3 Nb1 3.021467 1_655
Mg3 Nb1 3.021467 1_555
Mg3 Mg4 3.051091 1_545
Mg3 Mg5 3.108623 1_555
Mg3 Mg4 3.217870 1_555
Mg4 Nb1 3.021467 1_565
Mg4 Nb1 3.021467 1_665
Mg4 Mg5 3.108623 1_555
Mg5 Mg7 3.044514 1_655
Mg5 Mg6 3.044514 1_555
Mg5 Mg7 3.044514 1_555
Mg5 Mg6 3.044514 1_655
Mg5 Mg9 3.124219 1_555
Mg6 Mg9 3.032495 1_455
Mg6 Mg9 3.032495 1_555
Mg6 Nb1 3.055395 1_565
Mg6 Mg8 3.090912 1_565
Mg6 Mg7 3.097030 1_565
Mg6 Mg7 3.171931 1_555
Mg6 Nb0 3.176612 1_555
Mg7 Nb1 3.055395 1_555
Mg7 Mg8 3.090912 1_555
Mg7 Nb0 3.176612 1_555
Mg8 Mg9 3.041534 1_545
Mg8 Mg9 3.041534 1_445
Mg8 Nb0 3.135434 1_545
Mg8 Nb0 3.135434 1_555
Mg9 Nb0 3.021467 1_555
Mg9 Nb0 3.021467 1_655
Mg10 Nb0 3.021467 1_555
Mg10 Nb0 3.021467 1_655
Mg10 Mg7 3.032495 1_655
Mg10 Mg7 3.032495 1_555
Mg10 Mg8 3.041534 1_655
Mg10 Mg8 3.041534 1_555
Mg10 Mg9 3.051091 1_555
Mg10 Mg11 3.108623 1_555
Mg10 Mg5 3.124219 1_555
Mg10 Mg9 3.217870 1_545
Mg11 Mg8 3.022854 1_655
Mg11 Mg8 3.022854 1_555
Mg11 Mg9 3.108623 1_545
Mg11 Mg4 3.124219 1_544
Mg11 Mg3 3.124219 1_554
Ga0 Nb0 2.873493 1_555
Ga0 Nb0 2.873493 1_655
Ga0 Mg10 2.905165 1_555
Ga0 Mg9 2.905165 1_555
Ga0 Mg0 3.087115 1_555
Ga0 Mg0 3.087115 1_655
Ga0 Mg1 3.087115 1_655
Ga0 Mg1 3.087115 1_555
Ga0 Mg11 3.140082 1_555
Ga0 Mg11 3.140082 1_565
Ga0 Mg4 3.328597 1_554
Ga0 Mg3 3.328597 1_554
Ga1 Nb1 2.873493 1_655
Ga1 Nb1 2.873493 1_555
Ga1 Mg4 2.905165 1_545
Ga1 Mg3 2.905165 1_555
Ga1 Mg7 3.087115 1_655
Ga1 Mg6 3.087115 1_645
Ga1 Mg6 3.087115 1_545
Ga1 Mg7 3.087115 1_555
Ga1 Mg5 3.140082 1_555
Ga1 Mg5 3.140082 1_545
Ga1 Mg9 3.328597 1_545
Ga1 Mg10 3.328597 1_555
