# generated using pymatgen
data_La2Th8O19
_symmetry_space_group_name_H-M   'P 1'
_cell_length_a   3.80960700
_cell_length_b   4.08125200
_cell_length_c   27.82495000
_cell_angle_alpha   90.00000000
_cell_angle_beta   90.00000000
_cell_angle_gamma   90.00000000
_symmetry_Int_Tables_number   1
_chemical_formula_structural   La2Th8O19
_chemical_formula_sum   'La2 Th8 O19'
_cell_volume   432.62138178
_cell_formula_units_Z   1
loop_
 _symmetry_equiv_pos_site_id
 _symmetry_equiv_pos_as_xyz
  1  'x, y, z'
loop_
 _atom_site_type_symbol
 _atom_site_label
 _atom_site_symmetry_multiplicity
 _atom_site_fract_x
 _atom_site_fract_y
 _atom_site_fract_z
 _atom_site_occupancy
  La  La0  1  0.00000000  0.00000000  0.00487400  1
  La  La1  1  0.50000000  0.50000000  0.89449700  1
  Th  Th0  1  0.00000000  0.00000000  0.79859200  1
  Th  Th1  1  0.50000000  0.50000000  0.69954400  1
  Th  Th2  1  0.00000000  0.00000000  0.59950200  1
  Th  Th3  1  0.50000000  0.50000000  0.49949900  1
  Th  Th4  1  0.00000000  0.00000000  0.39946200  1
  Th  Th5  1  0.50000000  0.50000000  0.29939200  1
  Th  Th6  1  0.00000000  0.00000000  0.19954300  1
  Th  Th7  1  0.50000000  0.50000000  0.09911400  1
  O  O0  1  0.00000000  0.50000000  0.74958500  1
  O  O1  1  0.50000000  0.00000000  0.64889100  1
  O  O2  1  0.00000000  0.50000000  0.54906400  1
  O  O3  1  0.50000000  0.00000000  0.44901000  1
  O  O4  1  0.00000000  0.50000000  0.34890200  1
  O  O5  1  0.50000000  0.00000000  0.24917300  1
  O  O6  1  0.00000000  0.50000000  0.14818100  1
  O  O7  1  0.50000000  0.00000000  0.05177300  1
  O  O8  1  0.50000000  0.00000000  0.15193100  1
  O  O9  1  0.00000000  0.50000000  0.04956200  1
  O  O10  1  0.50000000  0.00000000  0.95299800  1
  O  O11  1  0.50000000  0.00000000  0.84613700  1
  O  O12  1  0.00000000  0.50000000  0.85339700  1
  O  O13  1  0.50000000  0.00000000  0.75023600  1
  O  O14  1  0.00000000  0.50000000  0.65171100  1
  O  O15  1  0.50000000  0.00000000  0.55139700  1
  O  O16  1  0.00000000  0.50000000  0.45142400  1
  O  O17  1  0.50000000  0.00000000  0.35141700  1
  O  O18  1  0.00000000  0.50000000  0.25119200  1
loop_
_geom_bond_atom_site_label_1
_geom_bond_atom_site_label_2
_geom_bond_distance
_geom_bond_site_symmetry_2
La0 O7 2.308940 1_455
La0 O7 2.308940 1_555
La0 O9 2.389624 1_555
La0 O9 2.389624 1_545
La0 O10 2.389941 1_554
La0 O10 2.389941 1_454
La1 O12 2.221736 1_655
La1 O12 2.221736 1_555
La1 O11 2.444347 1_555
La1 O11 2.444347 1_565
La1 O10 2.610335 1_555
La1 O10 2.610335 1_565
O0 Th1 2.359454 1_555
O0 Th1 2.359454 1_455
O0 Th0 2.454304 1_555
O0 Th0 2.454304 1_565
O1 Th2 2.348793 1_655
O1 Th2 2.348793 1_555
O1 Th1 2.480043 1_545
O1 Th1 2.480043 1_555
O2 Th3 2.351662 1_455
O2 Th3 2.351662 1_555
O2 Th2 2.476648 1_555
O2 Th2 2.476648 1_565
O3 Th4 2.351384 1_555
O3 Th4 2.351384 1_655
O3 Th3 2.477452 1_555
O3 Th3 2.477452 1_545
O4 Th5 2.350765 1_555
O4 Th5 2.350765 1_455
O4 Th4 2.478573 1_565
O4 Th4 2.478573 1_555
O5 Th6 2.352723 1_655
O5 Th6 2.352723 1_555
O5 Th5 2.473200 1_545
O5 Th5 2.473200 1_555
O6 Th7 2.343562 1_555
O6 Th7 2.343562 1_455
O6 Th6 2.491307 1_555
O6 Th6 2.491307 1_565
O7 Th7 2.428854 1_545
O7 Th7 2.428854 1_555
O8 Th6 2.320210 1_655
O8 Th6 2.320210 1_555
O8 Th7 2.514750 1_545
O8 Th7 2.514750 1_555
O9 Th7 2.351450 1_455
O9 Th7 2.351450 1_555
O11 Th0 2.319146 1_655
O11 Th0 2.319146 1_555
O12 Th0 2.547472 1_555
O12 Th0 2.547472 1_565
O13 Th0 2.332093 1_555
O13 Th0 2.332093 1_655
O13 Th1 2.480659 1_555
O13 Th1 2.480659 1_545
O14 Th1 2.323727 1_555
O14 Th1 2.323727 1_455
O14 Th2 2.504901 1_565
O14 Th2 2.504901 1_555
O15 Th2 2.328070 1_555
O15 Th2 2.328070 1_655
O15 Th3 2.499892 1_555
O15 Th3 2.499892 1_545
O16 Th3 2.327590 1_555
O16 Th3 2.327590 1_455
O16 Th4 2.500921 1_565
O16 Th4 2.500921 1_555
O17 Th4 2.327111 1_655
O17 Th4 2.327111 1_555
O17 Th5 2.501935 1_555
O17 Th5 2.501935 1_545
O18 Th5 2.329591 1_455
O18 Th5 2.329591 1_555
O18 Th6 2.495897 1_555
O18 Th6 2.495897 1_565
