# generated using pymatgen
data_CeUC4
_symmetry_space_group_name_H-M   'P 1'
_cell_length_a   5.88967300
_cell_length_b   4.96503633
_cell_length_c   5.87963556
_cell_angle_alpha   90.00514456
_cell_angle_beta   90.00000000
_cell_angle_gamma   90.00000000
_symmetry_Int_Tables_number   1
_chemical_formula_structural   CeUC4
_chemical_formula_sum   'Ce2 U2 C8'
_cell_volume   171.93489179
_cell_formula_units_Z   2
loop_
 _symmetry_equiv_pos_site_id
 _symmetry_equiv_pos_as_xyz
  1  'x, y, z'
loop_
 _atom_site_type_symbol
 _atom_site_label
 _atom_site_symmetry_multiplicity
 _atom_site_fract_x
 _atom_site_fract_y
 _atom_site_fract_z
 _atom_site_occupancy
  Ce  Ce0  1  0.50000000  0.50000000  0.00000000  1
  Ce  Ce1  1  0.00000000  0.00000000  0.00000000  1
  U  U0  1  0.50000000  0.00000000  0.50000000  1
  U  U1  1  0.00000000  0.50000000  0.50000000  1
  C  C0  1  0.99482100  0.50025300  0.11521800  1
  C  C1  1  0.49482100  0.99974700  0.88478200  1
  C  C2  1  0.11291100  0.00001500  0.49290500  1
  C  C3  1  0.61291100  0.49998500  0.50709500  1
  C  C4  1  0.00517900  0.49974700  0.88478200  1
  C  C5  1  0.50517900  0.00025300  0.11521800  1
  C  C6  1  0.88708900  0.99998500  0.50709500  1
  C  C7  1  0.38708900  0.50001500  0.49290500  1
loop_
_geom_bond_atom_site_label_1
_geom_bond_atom_site_label_2
_geom_bond_distance
_geom_bond_site_symmetry_2
C0 C4 1.356255 1_654
C0 U1 2.262584 1_655
C0 Ce1 2.572318 1_665
C0 Ce1 2.574624 1_655
C0 Ce0 2.992034 1_555
C0 Ce0 3.051486 1_655
C1 C5 1.356255 1_566
C1 U0 2.262584 1_565
C1 Ce0 2.572318 1_556
C1 Ce0 2.574624 1_566
C1 Ce1 2.992034 1_566
C1 Ce1 3.051486 1_666
C2 C6 1.332632 1_445
C2 U0 2.280209 1_555
C2 U1 2.570308 1_555
C2 U1 2.570459 1_545
C2 Ce1 2.973421 1_555
C2 Ce1 3.054796 1_556
C3 C7 1.332632 1_555
C3 U1 2.280209 1_655
C3 U0 2.570308 1_555
C3 U0 2.570459 1_565
C3 Ce0 2.973421 1_556
C3 Ce0 3.054796 1_555
C4 U1 2.262584 1_555
C4 Ce1 2.572318 1_556
C4 Ce1 2.574624 1_566
C4 Ce0 2.992034 1_556
C4 Ce0 3.051486 1_456
C5 U0 2.262584 1_555
C5 Ce0 2.572318 1_555
C5 Ce0 2.574624 1_545
C5 Ce1 2.992034 1_655
C5 Ce1 3.051486 1_555
C6 U0 2.280209 1_565
C6 U1 2.570308 1_655
C6 U1 2.570459 1_665
C6 Ce1 2.973421 1_666
C6 Ce1 3.054796 1_665
C7 U1 2.280209 1_555
C7 U0 2.570308 1_565
C7 U0 2.570459 1_555
C7 Ce0 2.973421 1_555
C7 Ce0 3.054796 1_556
