# generated using pymatgen
data_Nd2InNi2
_symmetry_space_group_name_H-M   'P 1'
_cell_length_a   3.79017187
_cell_length_b   7.52036372
_cell_length_c   7.51999292
_cell_angle_alpha   90.00000000
_cell_angle_beta   90.00000000
_cell_angle_gamma   90.00000000
_symmetry_Int_Tables_number   1
_chemical_formula_structural   Nd2InNi2
_chemical_formula_sum   'Nd4 In2 Ni4'
_cell_volume   214.34590029
_cell_formula_units_Z   2
loop_
 _symmetry_equiv_pos_site_id
 _symmetry_equiv_pos_as_xyz
  1  'x, y, z'
loop_
 _atom_site_type_symbol
 _atom_site_label
 _atom_site_symmetry_multiplicity
 _atom_site_fract_x
 _atom_site_fract_y
 _atom_site_fract_z
 _atom_site_occupancy
  Nd  Nd0  1  0.50000000  0.67708883  0.82281933  1
  Nd  Nd1  1  0.50000000  0.32291117  0.17718067  1
  Nd  Nd2  1  0.50000000  0.82291117  0.32281933  1
  Nd  Nd3  1  0.50000000  0.17708883  0.67718067  1
  In  In0  1  0.00000000  0.50000000  0.50000000  1
  In  In1  1  0.00000000  -0.00000000  -0.00000000  1
  Ni  Ni0  1  -0.00000000  0.11857292  0.38375591  1
  Ni  Ni1  1  0.00000000  0.88142708  0.61624409  1
  Ni  Ni2  1  -0.00000000  0.38142708  0.88375591  1
  Ni  Ni3  1  0.00000000  0.61857292  0.11624409  1
loop_
_geom_bond_atom_site_label_1
_geom_bond_atom_site_label_2
_geom_bond_distance
_geom_bond_site_symmetry_2
Nd0 Ni1 2.892400 1_555
Nd0 Ni1 2.892400 1_655
Nd0 Ni3 2.941747 1_656
Nd0 Ni3 2.941747 1_556
Nd0 Ni2 2.957231 1_555
Nd0 Ni2 2.957231 1_655
Nd1 Ni0 2.892400 1_555
Nd1 Ni0 2.892400 1_655
Nd1 Ni2 2.941747 1_654
Nd1 Ni2 2.941747 1_554
Nd1 Ni3 2.957231 1_555
Nd1 Ni3 2.957231 1_655
Nd2 Ni3 2.892400 1_555
Nd2 Ni3 2.892400 1_655
Nd2 Ni1 2.941747 1_655
Nd2 Ni1 2.941747 1_555
Nd2 Ni0 2.957231 1_665
Nd2 Ni0 2.957231 1_565
Nd3 Ni2 2.892400 1_555
Nd3 Ni2 2.892400 1_655
Nd3 Ni0 2.941747 1_555
Nd3 Ni0 2.941747 1_655
Nd3 Ni1 2.957231 1_545
Nd3 Ni1 2.957231 1_645
In0 Ni0 2.998711 1_555
In0 Ni1 2.998711 1_555
In0 Ni3 3.020469 1_555
In0 Ni2 3.020469 1_555
In0 Nd1 3.355325 1_455
In0 Nd0 3.355325 1_555
In0 Nd1 3.355325 1_555
In0 Nd0 3.355325 1_455
In0 Nd2 3.356159 1_555
In0 Nd3 3.356159 1_455
In0 Nd3 3.356159 1_555
In0 Nd2 3.356159 1_455
In1 Ni2 2.998711 1_554
In1 Ni3 2.998711 1_545
In1 Ni1 3.020469 1_544
In1 Ni0 3.020469 1_555
In1 Nd2 3.355325 1_445
In1 Nd3 3.355325 1_454
In1 Nd2 3.355325 1_545
In1 Nd3 3.355325 1_554
In1 Nd1 3.356159 1_555
In1 Nd1 3.356159 1_455
In1 Nd0 3.356159 1_544
In1 Nd0 3.356159 1_444
Ni0 Ni1 2.497435 1_545
Ni2 Ni3 2.497435 1_556
