# generated using pymatgen
data_BaYMn4O7
_symmetry_space_group_name_H-M   'P 1'
_cell_length_a   6.54999160
_cell_length_b   6.54999160
_cell_length_c   10.84282000
_cell_angle_alpha   90.00000000
_cell_angle_beta   90.00000000
_cell_angle_gamma   119.99999592
_symmetry_Int_Tables_number   1
_chemical_formula_structural   BaYMn4O7
_chemical_formula_sum   'Ba2 Y2 Mn8 O14'
_cell_volume   402.86021786
_cell_formula_units_Z   2
loop_
 _symmetry_equiv_pos_site_id
 _symmetry_equiv_pos_as_xyz
  1  'x, y, z'
loop_
 _atom_site_type_symbol
 _atom_site_label
 _atom_site_symmetry_multiplicity
 _atom_site_fract_x
 _atom_site_fract_y
 _atom_site_fract_z
 _atom_site_occupancy
  Ba  Ba0  1  0.66666700  0.33333300  0.47515500  1
  Ba  Ba1  1  0.33333300  0.66666700  0.97515500  1
  Y  Y0  1  0.66666700  0.33333300  0.87992500  1
  Y  Y1  1  0.33333300  0.66666700  0.37992500  1
  Mn  Mn0  1  0.82978800  0.17021200  0.18963900  1
  Mn  Mn1  1  0.65957700  0.82978800  0.68963900  1
  Mn  Mn2  1  0.17021200  0.34042300  0.68963900  1
  Mn  Mn3  1  0.82978800  0.65957700  0.18963900  1
  Mn  Mn4  1  0.34042300  0.17021200  0.18963900  1
  Mn  Mn5  1  0.17021200  0.82978800  0.68963900  1
  Mn  Mn6  1  0.00000000  0.00000000  0.44227200  1
  Mn  Mn7  1  0.00000000  0.00000000  0.94227200  1
  O  O0  1  0.83137500  0.16862500  0.00377800  1
  O  O1  1  0.66275100  0.83137500  0.50377800  1
  O  O2  1  0.16862500  0.33724900  0.50377800  1
  O  O3  1  0.83137500  0.66275100  0.00377800  1
  O  O4  1  0.33724900  0.16862500  0.00377800  1
  O  O5  1  0.16862500  0.83137500  0.50377800  1
  O  O6  1  0.00000000  0.00000000  0.75093100  1
  O  O7  1  0.00000000  0.00000000  0.25093100  1
  O  O8  1  0.50483200  0.49516800  0.26848800  1
  O  O9  1  0.00966400  0.50483200  0.76848800  1
  O  O10  1  0.49516800  0.99033600  0.76848800  1
  O  O11  1  0.50483200  0.00966400  0.26848800  1
  O  O12  1  0.49516800  0.50483200  0.76848800  1
  O  O13  1  0.99033600  0.49516800  0.26848800  1
loop_
_geom_bond_atom_site_label_1
_geom_bond_atom_site_label_2
_geom_bond_distance
_geom_bond_site_symmetry_2
Ba0 O13 2.896949 1_555
Ba0 O11 2.896949 1_555
Ba0 O8 2.896953 1_555
Ba0 O2 3.289743 1_555
Ba0 O1 3.289743 1_555
Ba0 O1 3.289743 1_545
Ba0 O2 3.289743 1_655
Ba0 O5 3.289743 1_655
Ba0 O5 3.289743 1_545
Ba1 O10 2.896949 1_555
Ba1 O9 2.896949 1_555
Ba1 O12 2.896953 1_555
Ba1 O4 3.289743 1_556
Ba1 O3 3.289743 1_556
Ba1 O3 3.289743 1_456
Ba1 O4 3.289743 1_566
Ba1 O0 3.289743 1_566
Ba1 O0 3.289743 1_456
Mn0 O0 2.015338 1_555
Mn0 O11 2.031956 1_555
Mn0 O13 2.031956 1_555
Mn0 O7 2.042201 1_655
Mn1 O1 2.015338 1_555
Mn1 O12 2.031956 1_555
Mn1 O10 2.031961 1_555
Mn1 O6 2.042196 1_665
Mn2 O2 2.015338 1_555
Mn2 O12 2.031956 1_555
Mn2 O9 2.031961 1_555
Mn2 O6 2.042196 1_555
Mn3 O3 2.015338 1_555
Mn3 O8 2.031956 1_555
Mn3 O13 2.031961 1_555
Mn3 O7 2.042196 1_665
Mn4 O4 2.015338 1_555
Mn4 O8 2.031956 1_555
Mn4 O11 2.031961 1_555
Mn4 O7 2.042196 1_555
Mn5 O5 2.015338 1_555
Mn5 O9 2.031956 1_555
Mn5 O10 2.031956 1_555
Mn5 O6 2.042201 1_565
Mn6 O2 2.025942 1_555
Mn6 O1 2.025942 1_445
Mn6 O5 2.025948 1_545
Mn6 O7 2.074676 1_555
Mn7 O4 2.025942 1_556
Mn7 O3 2.025942 1_446
Mn7 O0 2.025948 1_456
Mn7 O6 2.074676 1_555
O0 Y0 2.301105 1_554
O1 Y1 2.301114 1_555
O2 Y1 2.301114 1_555
O3 Y0 2.301114 1_554
O4 Y0 2.301114 1_554
O5 Y1 2.301105 1_555
O8 Y1 2.290304 1_555
O9 Y0 2.290299 1_455
O10 Y0 2.290299 1_565
O11 Y1 2.290299 1_545
O12 Y0 2.290304 1_555
O13 Y1 2.290299 1_655
