# generated using pymatgen
data_Ba6Na2Mn2Nb2O17
_symmetry_space_group_name_H-M   'P 1'
_cell_length_a   5.98615226
_cell_length_b   5.98615226
_cell_length_c   30.42192200
_cell_angle_alpha   90.00000000
_cell_angle_beta   90.00000000
_cell_angle_gamma   120.00000284
_symmetry_Int_Tables_number   1
_chemical_formula_structural   Ba6Na2Mn2Nb2O17
_chemical_formula_sum   'Ba12 Na4 Mn4 Nb4 O34'
_cell_volume   944.08866962
_cell_formula_units_Z   2
loop_
 _symmetry_equiv_pos_site_id
 _symmetry_equiv_pos_as_xyz
  1  'x, y, z'
loop_
 _atom_site_type_symbol
 _atom_site_label
 _atom_site_symmetry_multiplicity
 _atom_site_fract_x
 _atom_site_fract_y
 _atom_site_fract_z
 _atom_site_occupancy
  Ba  Ba0  1  0.33333300  0.66666700  0.18089300  1
  Ba  Ba1  1  0.66666700  0.33333300  0.81910700  1
  Ba  Ba2  1  0.66666700  0.33333300  0.68089300  1
  Ba  Ba3  1  0.33333300  0.66666700  0.31910700  1
  Ba  Ba4  1  0.00000000  0.00000000  0.00000000  1
  Ba  Ba5  1  0.00000000  0.00000000  0.50000000  1
  Ba  Ba6  1  0.33333300  0.66666700  0.59006200  1
  Ba  Ba7  1  0.66666700  0.33333300  0.40993800  1
  Ba  Ba8  1  0.66666700  0.33333300  0.09006200  1
  Ba  Ba9  1  0.33333300  0.66666700  0.90993800  1
  Ba  Ba10  1  0.00000000  0.00000000  0.25000000  1
  Ba  Ba11  1  0.00000000  0.00000000  0.75000000  1
  Na  Na0  1  0.00000000  0.00000000  0.12466000  1
  Na  Na1  1  0.00000000  0.00000000  0.87534000  1
  Na  Na2  1  0.00000000  0.00000000  0.62466000  1
  Na  Na3  1  0.00000000  0.00000000  0.37534000  1
  Mn  Mn0  1  0.33333300  0.66666700  0.05203000  1
  Mn  Mn1  1  0.66666700  0.33333300  0.94797000  1
  Mn  Mn2  1  0.66666700  0.33333300  0.55203000  1
  Mn  Mn3  1  0.33333300  0.66666700  0.44797000  1
  Nb  Nb0  1  0.33333300  0.66666700  0.70136500  1
  Nb  Nb1  1  0.66666700  0.33333300  0.29863500  1
  Nb  Nb2  1  0.66666700  0.33333300  0.20136500  1
  Nb  Nb3  1  0.33333300  0.66666700  0.79863500  1
  O  O0  1  0.33333300  0.66666700  0.50388800  1
  O  O1  1  0.66666700  0.33333300  0.49611200  1
  O  O2  1  0.66666700  0.33333300  0.00388800  1
  O  O3  1  0.33333300  0.66666700  0.99611200  1
  O  O4  1  0.17441400  0.34882700  0.66954800  1
  O  O5  1  0.82558600  0.65117300  0.33045200  1
  O  O6  1  0.65117300  0.82558600  0.66954800  1
  O  O7  1  0.82558600  0.65117300  0.16954800  1
  O  O8  1  0.34882700  0.17441400  0.33045200  1
  O  O9  1  0.17441400  0.34882700  0.83045200  1
  O  O10  1  0.17441400  0.82558600  0.66954800  1
  O  O11  1  0.34882700  0.17441400  0.16954800  1
  O  O12  1  0.82558600  0.17441400  0.33045200  1
  O  O13  1  0.65117300  0.82558600  0.83045200  1
  O  O14  1  0.82558600  0.17441400  0.16954800  1
  O  O15  1  0.17441400  0.82558600  0.83045200  1
  O  O16  1  0.51349400  0.02698700  0.25000000  1
  O  O17  1  0.48650600  0.97301300  0.75000000  1
  O  O18  1  0.97301300  0.48650600  0.25000000  1
  O  O19  1  0.02698700  0.51349400  0.75000000  1
  O  O20  1  0.51349400  0.48650600  0.25000000  1
  O  O21  1  0.48650600  0.51349400  0.75000000  1
  O  O22  1  0.17772300  0.35544600  0.07237100  1
  O  O23  1  0.82227700  0.64455400  0.92762900  1
  O  O24  1  0.64455400  0.82227700  0.07237100  1
  O  O25  1  0.82227700  0.64455400  0.57237100  1
  O  O26  1  0.35544600  0.17772300  0.92762900  1
  O  O27  1  0.17772300  0.35544600  0.42762900  1
  O  O28  1  0.17772300  0.82227700  0.07237100  1
  O  O29  1  0.35544600  0.17772300  0.57237100  1
  O  O30  1  0.82227700  0.17772300  0.92762900  1
  O  O31  1  0.64455400  0.82227700  0.42762900  1
  O  O32  1  0.82227700  0.17772300  0.57237100  1
  O  O33  1  0.17772300  0.82227700  0.42762900  1
loop_
_geom_bond_atom_site_label_1
_geom_bond_atom_site_label_2
_geom_bond_distance
_geom_bond_site_symmetry_2
Ba0 O16 2.812332 1_565
Ba0 O18 2.812332 1_455
Ba0 O20 2.812339 1_555
Ba0 O14 3.013980 1_565
Ba0 O14 3.013980 1_455
Ba0 O11 3.013980 1_565
Ba0 O7 3.013980 1_455
Ba0 O7 3.013980 1_555
Ba0 O11 3.013980 1_555
Ba1 O19 2.812332 1_655
Ba1 O17 2.812332 1_545
Ba1 O21 2.812339 1_555
Ba1 O15 3.013980 1_655
Ba1 O15 3.013980 1_545
Ba1 O9 3.013980 1_655
Ba1 O13 3.013980 1_545
Ba1 O13 3.013980 1_555
Ba1 O9 3.013980 1_555
Ba2 O19 2.812332 1_655
Ba2 O17 2.812332 1_545
Ba2 O21 2.812339 1_555
Ba2 O10 3.013980 1_655
Ba2 O10 3.013980 1_545
Ba2 O4 3.013980 1_655
Ba2 O6 3.013980 1_545
Ba2 O6 3.013980 1_555
Ba2 O4 3.013980 1_555
Ba3 O16 2.812332 1_565
Ba3 O18 2.812332 1_455
Ba3 O20 2.812339 1_555
Ba3 O12 3.013980 1_565
Ba3 O12 3.013980 1_455
Ba3 O8 3.013980 1_565
Ba3 O5 3.013980 1_455
Ba3 O5 3.013980 1_555
Ba3 O8 3.013980 1_555
Ba4 O22 2.871033 1_555
Ba4 O24 2.871033 1_445
Ba4 O26 2.871033 1_554
Ba4 O23 2.871033 1_444
Ba4 O28 2.871033 1_545
Ba4 O30 2.871033 1_454
Ba5 O29 2.871033 1_555
Ba5 O25 2.871033 1_445
Ba5 O27 2.871033 1_555
Ba5 O31 2.871033 1_445
Ba5 O32 2.871033 1_455
Ba5 O33 2.871033 1_545
Ba6 O0 2.621579 1_555
Ba6 O10 2.926137 1_555
Ba6 O6 2.926143 1_555
Ba6 O4 2.926143 1_555
Ba6 O29 3.043235 1_565
Ba6 O25 3.043235 1_455
Ba6 O32 3.043238 1_565
Ba6 O32 3.043238 1_455
Ba6 O25 3.043241 1_555
Ba6 O29 3.043241 1_555
Ba7 O1 2.621579 1_555
Ba7 O12 2.926137 1_555
Ba7 O8 2.926143 1_555
Ba7 O5 2.926143 1_555
Ba7 O27 3.043235 1_655
Ba7 O31 3.043235 1_545
Ba7 O33 3.043238 1_655
Ba7 O33 3.043238 1_545
Ba7 O31 3.043241 1_555
Ba7 O27 3.043241 1_555
Ba8 O2 2.621579 1_555
Ba8 O14 2.926137 1_555
Ba8 O7 2.926143 1_555
Ba8 O11 2.926143 1_555
Ba8 O22 3.043235 1_655
Ba8 O24 3.043235 1_545
Ba8 O28 3.043238 1_655
Ba8 O28 3.043238 1_545
Ba8 O24 3.043241 1_555
Ba8 O22 3.043241 1_555
Ba9 O3 2.621579 1_555
Ba9 O15 2.926137 1_555
Ba9 O13 2.926143 1_555
Ba9 O9 2.926143 1_555
Ba9 O26 3.043235 1_565
Ba9 O23 3.043235 1_455
Ba9 O30 3.043238 1_565
Ba9 O30 3.043238 1_455
Ba9 O23 3.043241 1_555
Ba9 O26 3.043241 1_555
Ba10 O16 2.996341 1_455
Ba10 O18 2.996341 1_455
Ba10 O20 2.996344 1_445
Ba10 O20 2.996344 1_555
Ba10 O18 2.996347 1_445
Ba10 O16 2.996347 1_555
Ba10 O5 3.043107 1_445
Ba10 O8 3.043107 1_555
Ba10 O7 3.043107 1_445
Ba10 O11 3.043107 1_555
Ba10 O12 3.043110 1_455
Ba10 O14 3.043110 1_455
Ba11 O19 2.996341 1_545
Ba11 O17 2.996341 1_545
Ba11 O21 2.996344 1_445
Ba11 O21 2.996344 1_555
Ba11 O17 2.996347 1_445
Ba11 O19 2.996347 1_555
Ba11 O9 3.043107 1_555
Ba11 O13 3.043107 1_445
Ba11 O6 3.043107 1_445
Ba11 O4 3.043107 1_555
Ba11 O15 3.043110 1_545
Ba11 O10 3.043110 1_545
Na0 O7 2.266060 1_445
Na0 O11 2.266060 1_555
Na0 O14 2.266064 1_455
Na0 O22 2.434323 1_555
Na0 O24 2.434323 1_445
Na0 O28 2.434323 1_545
Na1 O13 2.266060 1_445
Na1 O9 2.266060 1_555
Na1 O15 2.266064 1_545
Na1 O26 2.434323 1_555
Na1 O23 2.434323 1_445
Na1 O30 2.434323 1_455
Na2 O6 2.266060 1_445
Na2 O4 2.266060 1_555
Na2 O10 2.266064 1_545
Na2 O29 2.434323 1_555
Na2 O25 2.434323 1_445
Na2 O32 2.434323 1_455
Na3 O5 2.266060 1_445
Na3 O8 2.266060 1_555
Na3 O12 2.266064 1_455
Na3 O31 2.434323 1_445
Na3 O27 2.434323 1_555
Na3 O33 2.434323 1_545
Mn0 O3 1.701133 1_554
Mn0 O28 1.728015 1_555
Mn0 O24 1.728019 1_555
Mn0 O22 1.728019 1_555
Mn1 O2 1.701133 1_556
Mn1 O30 1.728015 1_555
Mn1 O23 1.728019 1_555
Mn1 O26 1.728019 1_555
Mn2 O1 1.701133 1_555
Mn2 O32 1.728015 1_555
Mn2 O25 1.728019 1_555
Mn2 O29 1.728019 1_555
Mn3 O0 1.701133 1_555
Mn3 O33 1.728015 1_555
Mn3 O31 1.728019 1_555
Mn3 O27 1.728019 1_555
Nb0 O10 1.910991 1_555
Nb0 O6 1.911000 1_555
Nb0 O4 1.911000 1_555
Nb0 O17 2.170562 1_555
Nb0 O19 2.170562 1_555
Nb0 O21 2.170562 1_555
Nb1 O12 1.910991 1_555
Nb1 O8 1.911000 1_555
Nb1 O5 1.911000 1_555
Nb1 O18 2.170562 1_555
Nb1 O16 2.170562 1_555
Nb1 O20 2.170562 1_555
Nb2 O14 1.910991 1_555
Nb2 O7 1.911000 1_555
Nb2 O11 1.911000 1_555
Nb2 O18 2.170562 1_555
Nb2 O16 2.170562 1_555
Nb2 O20 2.170562 1_555
Nb3 O15 1.910991 1_555
Nb3 O13 1.911000 1_555
Nb3 O9 1.911000 1_555
Nb3 O17 2.170562 1_555
Nb3 O19 2.170562 1_555
Nb3 O21 2.170562 1_555
