# generated using pymatgen
data_Na3TlO6
_symmetry_space_group_name_H-M   'P 1'
_cell_length_a   9.01761390
_cell_length_b   8.44069246
_cell_length_c   39.84537446
_cell_angle_alpha   90.00000000
_cell_angle_beta   90.00000000
_cell_angle_gamma   122.28797524
_symmetry_Int_Tables_number   1
_chemical_formula_structural   Na3TlO6
_chemical_formula_sum   'Na3 Tl1 O6'
_cell_volume   2563.87290326
_cell_formula_units_Z   1
loop_
 _symmetry_equiv_pos_site_id
 _symmetry_equiv_pos_as_xyz
  1  'x, y, z'
loop_
 _atom_site_type_symbol
 _atom_site_label
 _atom_site_symmetry_multiplicity
 _atom_site_fract_x
 _atom_site_fract_y
 _atom_site_fract_z
 _atom_site_occupancy
  Na  Na0  1  0.00000000  -0.00000000  0.50000000  1
  Na  Na1  1  0.50000000  0.50000000  0.00000000  1
  Na  Na2  1  0.00000000  0.50000000  0.00000000  1
  Tl  Tl0  1  0.00000000  -0.00000000  0.00000000  1
  O  O0  1  0.00000000  -0.00000000  0.74965993  1
  O  O1  1  0.00000000  -0.00000000  0.25034007  1
  O  O2  1  0.74744200  0.76218605  0.00000000  1
  O  O3  1  0.25255800  0.23781395  0.00000000  1
  O  O4  1  -0.01474405  0.23781395  0.00000000  1
  O  O5  1  0.01474405  0.76218605  0.00000000  1
loop_
_geom_bond_atom_site_label_1
_geom_bond_atom_site_label_2
_geom_bond_distance
_geom_bond_site_symmetry_2
Na1 O3 2.144957 1_555
Na1 O2 2.144957 1_555
Na2 O5 2.144957 1_555
Na2 O4 2.144957 1_555
O2 Tl0 2.081373 1_665
O3 Tl0 2.081373 1_555
O4 Tl0 2.081373 1_555
O5 Tl0 2.081373 1_565
