# generated using pymatgen
data_GaFe3As
_symmetry_space_group_name_H-M   'P 1'
_cell_length_a   4.05570778
_cell_length_b   4.05853900
_cell_length_c   4.86766600
_cell_angle_alpha   90.00000000
_cell_angle_beta   90.00000000
_cell_angle_gamma   59.97689679
_symmetry_Int_Tables_number   1
_chemical_formula_structural   GaFe3As
_chemical_formula_sum   'Ga1 Fe3 As1'
_cell_volume   69.37238575
_cell_formula_units_Z   1
loop_
 _symmetry_equiv_pos_site_id
 _symmetry_equiv_pos_as_xyz
  1  'x, y, z'
loop_
 _atom_site_type_symbol
 _atom_site_label
 _atom_site_symmetry_multiplicity
 _atom_site_fract_x
 _atom_site_fract_y
 _atom_site_fract_z
 _atom_site_occupancy
  Ga  Ga0  1  0.33320000  0.33340000  0.75000000  1
  Fe  Fe0  1  0.00000500  0.99999800  0.50108100  1
  Fe  Fe1  1  0.00000500  0.99999800  0.99891900  1
  Fe  Fe2  1  0.66687100  0.66656400  0.75000000  1
  As  As0  1  0.66651900  0.66674000  0.25000000  1
loop_
_geom_bond_atom_site_label_1
_geom_bond_atom_site_label_2
_geom_bond_distance
_geom_bond_site_symmetry_2
Fe0 Fe1 2.423309 1_555
Fe0 Fe1 2.444357 1_554
Fe0 Ga0 2.636427 1_465
Fe0 Fe2 2.636618 1_555
Fe0 Fe2 2.637134 1_465
Fe0 Fe2 2.637141 1_455
Fe0 Ga0 2.637231 1_565
Fe0 Ga0 2.637234 1_555
Fe1 Ga0 2.636427 1_465
Fe1 Fe2 2.636618 1_555
Fe1 Fe2 2.637134 1_465
Fe1 Fe2 2.637141 1_455
Fe1 Ga0 2.637231 1_565
Fe1 Ga0 2.637234 1_555
Fe2 Ga0 2.339833 1_655
Fe2 Ga0 2.343245 1_555
Fe2 Ga0 2.343248 1_565
As0 Fe2 2.433833 1_555
As0 Fe2 2.433833 1_554
As0 Fe0 2.640375 1_555
As0 Fe1 2.640375 1_554
As0 Fe1 2.642534 1_644
As0 Fe0 2.642534 1_645
As0 Fe0 2.642540 1_655
As0 Fe1 2.642540 1_654
