# generated using pymatgen
data_HoCrO4
_symmetry_space_group_name_H-M   'P 1'
_cell_length_a   5.88631908
_cell_length_b   5.88632788
_cell_length_c   5.88852960
_cell_angle_alpha   106.22974665
_cell_angle_beta   106.23132993
_cell_angle_gamma   116.15261755
_symmetry_Int_Tables_number   1
_chemical_formula_structural   HoCrO4
_chemical_formula_sum   'Ho2 Cr2 O8'
_cell_volume   155.46764170
_cell_formula_units_Z   2
loop_
 _symmetry_equiv_pos_site_id
 _symmetry_equiv_pos_as_xyz
  1  'x, y, z'
loop_
 _atom_site_type_symbol
 _atom_site_label
 _atom_site_symmetry_multiplicity
 _atom_site_fract_x
 _atom_site_fract_y
 _atom_site_fract_z
 _atom_site_occupancy
  Ho  Ho0  1  0.12500226  0.87499467  0.24999714  1
  Ho  Ho1  1  0.87498611  0.12500312  0.75000318  1
  Cr  Cr0  1  0.37504394  0.62497262  0.74999284  1
  Cr  Cr1  1  0.62497875  0.37504636  0.25000722  1
  O  O0  1  0.80476104  0.73413098  0.43845061  1
  O  O1  1  0.36628111  0.80498608  0.57089272  1
  O  O2  1  0.73415946  0.79536888  0.92902115  1
  O  O3  1  0.79555991  0.36627965  0.06148655  1
  O  O4  1  0.63372705  0.20454495  0.43861627  1
  O  O5  1  0.20455867  0.26582842  0.57089468  1
  O  O6  1  0.26586681  0.19512662  0.06145541  1
  O  O7  1  0.19507188  0.63371867  0.92917825  1
loop_
_geom_bond_atom_site_label_1
_geom_bond_atom_site_label_2
_geom_bond_distance
_geom_bond_site_symmetry_2
Ho0 O5 2.282148 1_565
Ho0 O7 2.282164 1_554
Ho0 O2 2.282175 1_454
Ho0 O1 2.282203 1_555
Ho0 O6 2.403710 1_565
Ho0 O0 2.403806 1_455
Ho0 O3 2.403993 1_455
Ho0 O4 2.404031 1_565
Ho1 O4 2.282202 1_555
Ho1 O3 2.282204 1_556
Ho1 O0 2.282205 1_545
Ho1 O6 2.282211 1_656
Ho1 O2 2.403593 1_545
Ho1 O5 2.403726 1_655
Ho1 O1 2.403911 1_545
Ho1 O7 2.403971 1_655
Cr0 O2 1.697042 1_555
Cr0 O1 1.697099 1_555
Cr0 O5 1.697175 1_555
Cr0 O7 1.697301 1_555
Cr1 O0 1.696928 1_555
Cr1 O6 1.697030 1_555
Cr1 O3 1.697055 1_555
Cr1 O4 1.697079 1_555
