# generated using pymatgen
data_Y4MgIr
_symmetry_space_group_name_H-M   'P 1'
_cell_length_a   9.74673866
_cell_length_b   9.74673866
_cell_length_c   9.74673866
_cell_angle_alpha   60.00000000
_cell_angle_beta   60.00000000
_cell_angle_gamma   60.00000000
_symmetry_Int_Tables_number   1
_chemical_formula_structural   Y4MgIr
_chemical_formula_sum   'Y16 Mg4 Ir4'
_cell_volume   654.73109362
_cell_formula_units_Z   4
loop_
 _symmetry_equiv_pos_site_id
 _symmetry_equiv_pos_as_xyz
  1  'x, y, z'
loop_
 _atom_site_type_symbol
 _atom_site_label
 _atom_site_symmetry_multiplicity
 _atom_site_fract_x
 _atom_site_fract_y
 _atom_site_fract_z
 _atom_site_occupancy
  Y  Y0  1  0.59736900  0.59736900  0.59736900  1
  Y  Y1  1  0.59736900  0.59736900  0.20789300  1
  Y  Y2  1  0.59736900  0.20789300  0.59736900  1
  Y  Y3  1  0.20789300  0.59736900  0.59736900  1
  Y  Y4  1  0.06277900  0.43722100  0.43722100  1
  Y  Y5  1  0.43722100  0.06277900  0.06277900  1
  Y  Y6  1  0.43722100  0.06277900  0.43722100  1
  Y  Y7  1  0.06277900  0.43722100  0.06277900  1
  Y  Y8  1  0.43722100  0.43722100  0.06277900  1
  Y  Y9  1  0.06277900  0.06277900  0.43722100  1
  Y  Y10  1  0.18659300  0.81340700  0.81340700  1
  Y  Y11  1  0.81340700  0.18659300  0.18659300  1
  Y  Y12  1  0.81340700  0.18659300  0.81340700  1
  Y  Y13  1  0.18659300  0.81340700  0.18659300  1
  Y  Y14  1  0.81340700  0.81340700  0.18659300  1
  Y  Y15  1  0.18659300  0.18659300  0.81340700  1
  Mg  Mg0  1  0.82930400  0.82930400  0.82930400  1
  Mg  Mg1  1  0.82930400  0.82930400  0.51208900  1
  Mg  Mg2  1  0.82930400  0.51208900  0.82930400  1
  Mg  Mg3  1  0.51208900  0.82930400  0.82930400  1
  Ir  Ir0  1  0.39151600  0.39151600  0.39151600  1
  Ir  Ir1  1  0.39151600  0.39151600  0.82545200  1
  Ir  Ir2  1  0.39151600  0.82545200  0.39151600  1
  Ir  Ir3  1  0.82545200  0.39151600  0.39151600  1
loop_
_geom_bond_atom_site_label_1
_geom_bond_atom_site_label_2
_geom_bond_distance
_geom_bond_site_symmetry_2
Y0 Y10 3.531330 1_555
Y0 Y14 3.531330 1_555
Y0 Y12 3.531330 1_555
Y1 Y14 3.531330 1_555
Y1 Y13 3.531330 1_555
Y1 Y11 3.531330 1_555
Y10 Y3 3.531330 1_555
Y10 Y15 3.637346 1_565
Y10 Y13 3.637346 1_556
Y10 Y14 3.637346 1_456
Y10 Y12 3.637346 1_465
Y10 Y8 3.658902 1_556
Y10 Y6 3.658902 1_565
Y10 Y7 3.658902 1_556
Y10 Y9 3.658902 1_565
Y11 Y2 3.531330 1_555
Y11 Y12 3.637346 1_554
Y11 Y14 3.637346 1_545
Y11 Y13 3.637346 1_645
Y11 Y15 3.637346 1_654
Y11 Y9 3.658902 1_655
Y11 Y7 3.658902 1_655
Y11 Y8 3.658902 1_555
Y11 Y6 3.658902 1_555
Y12 Y2 3.531330 1_555
Y12 Y14 3.637346 1_546
Y12 Y15 3.637346 1_655
Y12 Y4 3.658902 1_655
Y12 Y8 3.658902 1_556
Y12 Y9 3.658902 1_655
Y12 Y5 3.658902 1_556
Y13 Y3 3.531330 1_555
Y13 Y14 3.637346 1_455
Y13 Y15 3.637346 1_564
Y13 Y9 3.658902 1_565
Y13 Y8 3.658902 1_555
Y13 Y5 3.658902 1_565
Y13 Y4 3.658902 1_555
Y14 Y6 3.658902 1_565
Y14 Y4 3.658902 1_655
Y14 Y5 3.658902 1_565
Y14 Y7 3.658902 1_655
Y15 Y2 3.531330 1_555
Y15 Y3 3.531330 1_555
Y15 Y5 3.658902 1_556
Y15 Y6 3.658902 1_555
Y15 Y4 3.658902 1_555
Y15 Y7 3.658902 1_556
Mg0 Mg2 3.091812 1_555
Mg0 Mg3 3.091812 1_555
Mg0 Mg1 3.091812 1_555
Mg0 Y10 3.334666 1_655
Mg0 Y12 3.334666 1_565
Mg0 Y14 3.334666 1_556
Mg0 Y3 3.501984 1_655
Mg0 Y2 3.501984 1_565
Mg0 Y1 3.501984 1_556
Mg0 Y9 3.570256 1_665
Mg0 Y5 3.570256 1_566
Mg0 Y7 3.570256 1_656
Mg1 Mg2 3.091812 1_555
Mg1 Mg3 3.091812 1_555
Mg1 Y13 3.334670 1_655
Mg1 Y11 3.334670 1_565
Mg1 Y14 3.334676 1_555
Mg1 Y3 3.501980 1_655
Mg1 Y2 3.501980 1_565
Mg1 Y0 3.501988 1_555
Mg1 Y9 3.570252 1_665
Mg1 Y6 3.570261 1_565
Mg1 Y4 3.570261 1_655
Mg2 Mg3 3.091812 1_555
Mg2 Y15 3.334670 1_655
Mg2 Y11 3.334670 1_556
Mg2 Y12 3.334676 1_555
Mg2 Y3 3.501980 1_655
Mg2 Y1 3.501980 1_556
Mg2 Y0 3.501988 1_555
Mg2 Y7 3.570252 1_656
Mg2 Y8 3.570261 1_556
Mg2 Y4 3.570261 1_655
Mg3 Y13 3.334670 1_556
Mg3 Y15 3.334670 1_565
Mg3 Y10 3.334676 1_555
Mg3 Y2 3.501980 1_565
Mg3 Y1 3.501980 1_556
Mg3 Y0 3.501988 1_555
Mg3 Y5 3.570252 1_566
Mg3 Y8 3.570261 1_556
Mg3 Y6 3.570261 1_565
Ir0 Y6 2.829661 1_555
Ir0 Y4 2.829661 1_555
Ir0 Y8 2.829661 1_555
Ir0 Y1 2.845732 1_555
Ir0 Y2 2.845732 1_555
Ir0 Y3 2.845732 1_555
Ir0 Y15 3.528562 1_555
Ir0 Y13 3.528562 1_555
Ir0 Y11 3.528562 1_555
Ir1 Y5 2.829661 1_556
Ir1 Y7 2.829661 1_556
Ir1 Y8 2.829661 1_556
Ir1 Y2 2.845732 1_555
Ir1 Y3 2.845732 1_555
Ir1 Y0 2.845732 1_555
Ir1 Y15 3.528562 1_555
Ir1 Y10 3.528562 1_555
Ir1 Y12 3.528562 1_555
Ir2 Y5 2.829661 1_565
Ir2 Y9 2.829661 1_565
Ir2 Y6 2.829661 1_565
Ir2 Y3 2.845732 1_555
Ir2 Y1 2.845732 1_555
Ir2 Y0 2.845732 1_555
Ir2 Y13 3.528562 1_555
Ir2 Y10 3.528562 1_555
Ir2 Y14 3.528562 1_555
Ir3 Y7 2.829661 1_655
Ir3 Y9 2.829661 1_655
Ir3 Y4 2.829661 1_655
Ir3 Y1 2.845732 1_555
Ir3 Y2 2.845732 1_555
Ir3 Y0 2.845732 1_555
Ir3 Y11 3.528562 1_555
Ir3 Y14 3.528562 1_555
Ir3 Y12 3.528562 1_555
