# generated using pymatgen
data_Ti5P3
_symmetry_space_group_name_H-M   'P 1'
_cell_length_a   4.98230100
_cell_length_b   9.70022500
_cell_length_c   10.26499800
_cell_angle_alpha   90.00000000
_cell_angle_beta   90.00000000
_cell_angle_gamma   90.00000000
_symmetry_Int_Tables_number   1
_chemical_formula_structural   Ti5P3
_chemical_formula_sum   'Ti20 P12'
_cell_volume   496.10161231
_cell_formula_units_Z   4
loop_
 _symmetry_equiv_pos_site_id
 _symmetry_equiv_pos_as_xyz
  1  'x, y, z'
loop_
 _atom_site_type_symbol
 _atom_site_label
 _atom_site_symmetry_multiplicity
 _atom_site_fract_x
 _atom_site_fract_y
 _atom_site_fract_z
 _atom_site_occupancy
  Ti  Ti0  1  0.88336300  0.25000000  0.28165400  1
  Ti  Ti1  1  0.82582200  0.98402200  0.88163800  1
  Ti  Ti2  1  0.12889500  0.25000000  0.84636200  1
  Ti  Ti3  1  0.11663700  0.75000000  0.71834600  1
  Ti  Ti4  1  0.37110500  0.25000000  0.34636200  1
  Ti  Ti5  1  0.67417800  0.98402200  0.38163800  1
  Ti  Ti6  1  0.83449600  0.25000000  0.54449600  1
  Ti  Ti7  1  0.16550400  0.75000000  0.45550400  1
  Ti  Ti8  1  0.17417800  0.01597800  0.11836200  1
  Ti  Ti9  1  0.62889500  0.75000000  0.65363800  1
  Ti  Ti10  1  0.33449600  0.75000000  0.95550400  1
  Ti  Ti11  1  0.67417800  0.51597800  0.38163800  1
  Ti  Ti12  1  0.38336300  0.75000000  0.21834600  1
  Ti  Ti13  1  0.61663700  0.25000000  0.78165400  1
  Ti  Ti14  1  0.32582200  0.01597800  0.61836200  1
  Ti  Ti15  1  0.32582200  0.48402200  0.61836200  1
  Ti  Ti16  1  0.87110500  0.75000000  0.15363800  1
  Ti  Ti17  1  0.17417800  0.48402200  0.11836200  1
  Ti  Ti18  1  0.82582200  0.51597800  0.88163800  1
  Ti  Ti19  1  0.66550400  0.25000000  0.04449600  1
  P  P0  1  0.68086200  0.75000000  0.40682100  1
  P  P1  1  0.82512400  0.99486700  0.63240700  1
  P  P2  1  0.18086200  0.25000000  0.09317900  1
  P  P3  1  0.32512400  0.49486700  0.86759300  1
  P  P4  1  0.81913800  0.75000000  0.90682100  1
  P  P5  1  0.17487600  0.49486700  0.36759300  1
  P  P6  1  0.31913800  0.25000000  0.59317900  1
  P  P7  1  0.67487600  0.50513300  0.13240700  1
  P  P8  1  0.67487600  0.99486700  0.13240700  1
  P  P9  1  0.82512400  0.50513300  0.63240700  1
  P  P10  1  0.17487600  0.00513300  0.36759300  1
  P  P11  1  0.32512400  0.00513300  0.86759300  1
loop_
_geom_bond_atom_site_label_1
_geom_bond_atom_site_label_2
_geom_bond_distance
_geom_bond_site_symmetry_2
P0 Ti5 2.284980 1_555
P0 Ti11 2.284980 1_555
P0 Ti12 2.437222 1_555
P0 Ti7 2.465802 1_655
P0 Ti9 2.546771 1_555
P0 Ti7 2.615847 1_555
P0 Ti16 2.766372 1_555
P1 Ti14 2.500247 1_565
P1 Ti14 2.507168 1_665
P1 Ti1 2.560520 1_555
P1 Ti9 2.577833 1_555
P1 Ti6 2.634651 1_565
P1 Ti5 2.683817 1_555
P1 Ti3 2.920544 1_655
P1 Ti13 3.090461 1_565
P2 Ti17 2.284980 1_555
P2 Ti8 2.284980 1_555
P2 Ti0 2.437222 1_455
P2 Ti19 2.465802 1_555
P2 Ti2 2.546771 1_554
P2 Ti19 2.615847 1_455
P2 Ti4 2.766372 1_555
P3 Ti18 2.500247 1_455
P3 Ti18 2.507168 1_555
P3 Ti15 2.560520 1_555
P3 Ti2 2.577833 1_555
P3 Ti10 2.634651 1_555
P3 Ti17 2.683817 1_556
P3 Ti13 2.920544 1_555
P3 Ti3 3.090461 1_555
P4 Ti1 2.284980 1_555
P4 Ti18 2.284980 1_555
P4 Ti3 2.437222 1_655
P4 Ti10 2.465802 1_555
P4 Ti16 2.546771 1_556
P4 Ti10 2.615847 1_655
P4 Ti9 2.766372 1_555
P5 Ti11 2.500247 1_555
P5 Ti11 2.507168 1_455
P5 Ti17 2.560520 1_555
P5 Ti4 2.577833 1_555
P5 Ti7 2.634651 1_555
P5 Ti15 2.683817 1_555
P5 Ti0 2.920544 1_455
P5 Ti12 3.090461 1_555
P6 Ti15 2.284980 1_555
P6 Ti14 2.284980 1_555
P6 Ti13 2.437222 1_555
P6 Ti6 2.465802 1_455
P6 Ti4 2.546771 1_555
P6 Ti6 2.615847 1_555
P6 Ti2 2.766372 1_555
P7 Ti17 2.500247 1_655
P7 Ti17 2.507168 1_555
P7 Ti11 2.560520 1_555
P7 Ti16 2.577833 1_555
P7 Ti19 2.634651 1_555
P7 Ti18 2.683817 1_554
P7 Ti12 2.920544 1_555
P7 Ti0 3.090461 1_555
P8 Ti8 2.500247 1_665
P8 Ti8 2.507168 1_565
P8 Ti5 2.560520 1_555
P8 Ti16 2.577833 1_555
P8 Ti19 2.634651 1_565
P8 Ti1 2.683817 1_554
P8 Ti12 2.920544 1_555
P8 Ti0 3.090461 1_565
P9 Ti15 2.500247 1_555
P9 Ti15 2.507168 1_655
P9 Ti18 2.560520 1_555
P9 Ti9 2.577833 1_555
P9 Ti6 2.634651 1_555
P9 Ti11 2.683817 1_555
P9 Ti3 2.920544 1_655
P9 Ti13 3.090461 1_555
P10 Ti5 2.500247 1_545
P10 Ti5 2.507168 1_445
P10 Ti8 2.560520 1_555
P10 Ti4 2.577833 1_555
P10 Ti7 2.634651 1_545
P10 Ti14 2.683817 1_555
P10 Ti0 2.920544 1_455
P10 Ti12 3.090461 1_545
P11 Ti1 2.500247 1_445
P11 Ti1 2.507168 1_545
P11 Ti14 2.560520 1_555
P11 Ti2 2.577833 1_555
P11 Ti10 2.634651 1_545
P11 Ti8 2.683817 1_556
P11 Ti13 2.920544 1_555
P11 Ti3 3.090461 1_545
