# generated using pymatgen
data_HfAu3
_symmetry_space_group_name_H-M   'P 1'
_cell_length_a   4.83517877
_cell_length_b   4.91211534
_cell_length_c   6.02945514
_cell_angle_alpha   90.00000000
_cell_angle_beta   90.00000000
_cell_angle_gamma   90.00000000
_symmetry_Int_Tables_number   1
_chemical_formula_structural   HfAu3
_chemical_formula_sum   'Hf2 Au6'
_cell_volume   143.20532258
_cell_formula_units_Z   2
loop_
 _symmetry_equiv_pos_site_id
 _symmetry_equiv_pos_as_xyz
  1  'x, y, z'
loop_
 _atom_site_type_symbol
 _atom_site_label
 _atom_site_symmetry_multiplicity
 _atom_site_fract_x
 _atom_site_fract_y
 _atom_site_fract_z
 _atom_site_occupancy
  Hf  Hf0  1  0.75000000  0.34028004  0.75000000  1
  Hf  Hf1  1  0.25000000  0.65971996  0.25000000  1
  Au  Au0  1  0.75000000  0.83682834  0.00188967  1
  Au  Au1  1  0.75000000  0.83682834  0.49811033  1
  Au  Au2  1  0.25000000  0.16317166  0.99811033  1
  Au  Au3  1  0.25000000  0.16317166  0.50188967  1
  Au  Au4  1  0.25000000  0.65405947  0.75000000  1
  Au  Au5  1  0.75000000  0.34594053  0.25000000  1
loop_
_geom_bond_atom_site_label_1
_geom_bond_atom_site_label_2
_geom_bond_distance
_geom_bond_site_symmetry_2
Au0 Au5 2.837654 1_555
Au0 Hf0 2.873299 1_554
Au0 Au2 2.900859 1_664
Au0 Au2 2.900859 1_564
Au0 Hf0 2.902140 1_564
Au0 Au5 2.914106 1_565
Au0 Hf1 2.973134 1_655
Au0 Hf1 2.973134 1_555
Au0 Au1 2.991940 1_555
Au0 Au4 2.992887 1_654
Au0 Au4 2.992887 1_554
Au0 Au1 3.037515 1_554
Au1 Au5 2.837654 1_555
Au1 Hf0 2.873299 1_555
Au1 Au3 2.900859 1_565
Au1 Au3 2.900859 1_665
Au1 Hf0 2.902140 1_565
Au1 Au5 2.914106 1_565
Au1 Hf1 2.973134 1_655
Au1 Hf1 2.973134 1_555
Au1 Au4 2.992887 1_655
Au1 Au4 2.992887 1_555
Au2 Au4 2.837654 1_555
Au2 Hf1 2.873299 1_556
Au2 Hf1 2.902140 1_546
Au2 Au4 2.914106 1_545
Au2 Hf0 2.973134 1_455
Au2 Hf0 2.973134 1_555
Au2 Au3 2.991940 1_555
Au2 Au5 2.992887 1_556
Au2 Au5 2.992887 1_456
Au2 Au3 3.037515 1_556
Au3 Au4 2.837654 1_555
Au3 Hf1 2.873299 1_555
Au3 Hf1 2.902140 1_545
Au3 Au4 2.914106 1_545
Au3 Hf0 2.973134 1_455
Au3 Hf0 2.973134 1_555
Au3 Au5 2.992887 1_455
Au3 Au5 2.992887 1_555
Au4 Hf0 2.867125 1_455
Au4 Hf0 2.867125 1_555
Au4 Hf1 3.014856 1_556
Au4 Hf1 3.014856 1_555
Au5 Hf1 2.867125 1_655
Au5 Hf1 2.867125 1_555
Au5 Hf0 3.014856 1_555
Au5 Hf0 3.014856 1_554
