# generated using pymatgen
data_Tl2Pt
_symmetry_space_group_name_H-M   'P 1'
_cell_length_a   5.92514205
_cell_length_b   5.92514205
_cell_length_c   5.92514205
_cell_angle_alpha   103.12443714
_cell_angle_beta   103.12443714
_cell_angle_gamma   123.08390452
_symmetry_Int_Tables_number   1
_chemical_formula_structural   Tl2Pt
_chemical_formula_sum   'Tl4 Pt2'
_cell_volume   153.23043558
_cell_formula_units_Z   2
loop_
 _symmetry_equiv_pos_site_id
 _symmetry_equiv_pos_as_xyz
  1  'x, y, z'
loop_
 _atom_site_type_symbol
 _atom_site_label
 _atom_site_symmetry_multiplicity
 _atom_site_fract_x
 _atom_site_fract_y
 _atom_site_fract_z
 _atom_site_occupancy
  Tl  Tl0  1  0.15750000  0.34250000  0.50000000  1
  Tl  Tl1  1  0.65750000  0.15750000  0.81500100  1
  Tl  Tl2  1  0.84250000  0.65750000  0.50000000  1
  Tl  Tl3  1  0.34250000  0.84250000  0.18499900  1
  Pt  Pt0  1  0.50000000  0.50000000  0.00000000  1
  Pt  Pt1  1  0.00000000  0.00000000  0.00000000  1
loop_
_geom_bond_atom_site_label_1
_geom_bond_atom_site_label_2
_geom_bond_distance
_geom_bond_site_symmetry_2
Pt0 Tl3 2.777158 1_555
Pt0 Tl1 2.777158 1_554
Pt0 Tl2 2.777160 1_555
Pt0 Tl0 2.777160 1_554
Pt0 Pt1 2.823420 1_555
Pt0 Pt1 2.823420 1_665
Pt1 Tl3 2.777158 1_545
Pt1 Tl1 2.777158 1_454
Pt1 Tl2 2.777160 1_444
Pt1 Tl0 2.777160 1_555
