# generated using pymatgen
data_ZrCrCuS4
_symmetry_space_group_name_H-M   'P 1'
_cell_length_a   6.53972366
_cell_length_b   7.52396988
_cell_length_c   12.45250143
_cell_angle_alpha   81.32629066
_cell_angle_beta   85.00134174
_cell_angle_gamma   90.02074827
_symmetry_Int_Tables_number   1
_chemical_formula_structural   ZrCrCuS4
_chemical_formula_sum   'Zr4 Cr4 Cu4 S16'
_cell_volume   603.35341199
_cell_formula_units_Z   4
loop_
 _symmetry_equiv_pos_site_id
 _symmetry_equiv_pos_as_xyz
  1  'x, y, z'
loop_
 _atom_site_type_symbol
 _atom_site_label
 _atom_site_symmetry_multiplicity
 _atom_site_fract_x
 _atom_site_fract_y
 _atom_site_fract_z
 _atom_site_occupancy
  Zr  Zr0  1  0.13929700  0.70217500  0.69986700  1
  Zr  Zr1  1  0.85829900  0.28901200  0.30258400  1
  Zr  Zr2  1  0.76833100  0.11088500  0.99763000  1
  Zr  Zr3  1  0.36587600  0.56478800  0.29646300  1
  Cr  Cr0  1  0.24252400  0.88128900  0.99924700  1
  Cr  Cr1  1  0.63375400  0.43927300  0.70395900  1
  Cr  Cr2  1  0.37493400  0.04477400  0.29307500  1
  Cr  Cr3  1  0.63532100  0.95946200  0.70110200  1
  Cu  Cu0  1  0.12564400  0.19921900  0.70254400  1
  Cu  Cu1  1  0.87225100  0.80364000  0.29466200  1
  Cu  Cu2  1  0.25664500  0.37185000  0.99322900  1
  Cu  Cu3  1  0.74647700  0.63181400  0.00005900  1
  S  S0  1  0.10142000  0.65548700  0.89777500  1
  S  S1  1  0.89366400  0.36001300  0.10517700  1
  S  S2  1  0.11409900  0.14541100  0.89170500  1
  S  S3  1  0.91117300  0.84235200  0.10721400  1
  S  S4  1  0.17614900  0.79563600  0.37412300  1
  S  S5  1  0.80884300  0.21901900  0.63814900  1
  S  S6  1  0.19957000  0.27106100  0.37656700  1
  S  S7  1  0.78845000  0.71365800  0.63501700  1
  S  S8  1  0.32225200  0.98292000  0.63079200  1
  S  S9  1  0.67736000  0.01263500  0.37521500  1
  S  S10  1  0.32419500  0.45117800  0.63182000  1
  S  S11  1  0.69637800  0.54408200  0.37731000  1
  S  S12  1  0.38637900  0.09336600  0.10565100  1
  S  S13  1  0.58180100  0.89749300  0.88728000  1
  S  S14  1  0.39671400  0.60846200  0.09728100  1
  S  S15  1  0.60219900  0.40904700  0.88450400  1
loop_
_geom_bond_atom_site_label_1
_geom_bond_atom_site_label_2
_geom_bond_distance
_geom_bond_site_symmetry_2
Cr0 S2 2.417110 1_565
Cr0 S3 2.441739 1_456
Cr0 S12 2.457768 1_566
Cr0 S14 2.486163 1_556
Cr0 S0 2.486777 1_555
Cr0 S13 2.508238 1_555
Cr1 S15 2.216704 1_555
Cr1 S5 2.230786 1_555
Cr1 S10 2.281683 1_555
Cr1 S7 2.309780 1_555
Cr2 S9 2.300999 1_555
Cr2 S12 2.301852 1_555
Cr2 S4 2.328379 1_545
Cr2 S6 2.371174 1_555
Cr3 S5 2.257811 1_565
Cr3 S13 2.290684 1_555
Cr3 S8 2.292494 1_555
Cr3 S7 2.327483 1_555
Cu0 S5 2.282811 1_455
Cu0 S8 2.310827 1_545
Cu0 S10 2.313182 1_555
Cu0 S2 2.323676 1_555
Cu1 S4 2.292884 1_655
Cu1 S3 2.299880 1_555
Cu1 S9 2.314668 1_565
Cu1 S11 2.319870 1_555
Cu2 S2 2.494759 1_555
Cu2 S15 2.523939 1_555
Cu2 S12 2.528536 1_556
Cu2 S0 2.538579 1_555
Cu2 S14 2.566837 1_556
Cu2 S1 2.640435 1_456
Cu3 S14 2.486267 1_555
Cu3 S1 2.497135 1_555
Cu3 S3 2.517263 1_555
Cu3 S0 2.541294 1_654
Cu3 S13 2.558577 1_554
Cu3 S15 2.594805 1_554
S0 Zr0 2.427079 1_555
S1 Zr1 2.426196 1_555
S1 Zr2 2.631760 1_554
S2 Zr2 2.509369 1_455
S3 Zr2 2.491754 1_564
S4 Zr3 2.406361 1_555
S6 Zr1 2.483746 1_455
S6 Zr3 2.491232 1_555
S7 Zr0 2.495205 1_655
S8 Zr0 2.429839 1_555
S9 Zr1 2.405570 1_555
S10 Zr0 2.460141 1_555
S11 Zr1 2.457370 1_555
S11 Zr3 2.457958 1_555
S12 Zr2 2.725220 1_554
S13 Zr2 2.628730 1_565
S14 Zr3 2.442860 1_555
S15 Zr2 2.740950 1_555
