# generated using pymatgen
data_TeP2C6(NCl)2
_symmetry_space_group_name_H-M   'P 1'
_cell_length_a   9.80600700
_cell_length_b   11.18814500
_cell_length_c   13.36746239
_cell_angle_alpha   79.04712785
_cell_angle_beta   90.00000000
_cell_angle_gamma   90.00000000
_symmetry_Int_Tables_number   1
_chemical_formula_structural   TeP2C6(NCl)2
_chemical_formula_sum   'Te4 P8 C24 N8 Cl8'
_cell_volume   1439.84292606
_cell_formula_units_Z   4
loop_
 _symmetry_equiv_pos_site_id
 _symmetry_equiv_pos_as_xyz
  1  'x, y, z'
loop_
 _atom_site_type_symbol
 _atom_site_label
 _atom_site_symmetry_multiplicity
 _atom_site_fract_x
 _atom_site_fract_y
 _atom_site_fract_z
 _atom_site_occupancy
  Te  Te0  1  0.48333500  0.47045800  0.22119100  1
  Te  Te1  1  0.98333500  0.02954200  0.77880900  1
  Te  Te2  1  0.51666500  0.52954200  0.77880900  1
  Te  Te3  1  0.01666500  0.97045800  0.22119100  1
  P  P0  1  0.19372400  0.42497700  0.34402200  1
  P  P1  1  0.69372400  0.07502300  0.65597800  1
  P  P2  1  0.80627600  0.57502300  0.65597800  1
  P  P3  1  0.30627600  0.92497700  0.34402200  1
  P  P4  1  0.46793500  0.22058800  0.12853700  1
  P  P5  1  0.96793500  0.27941200  0.87146300  1
  P  P6  1  0.53206500  0.77941200  0.87146300  1
  P  P7  1  0.03206500  0.72058800  0.12853700  1
  C  C0  1  0.21847500  0.25334300  0.37458000  1
  C  C1  1  0.71847500  0.24665700  0.62542000  1
  C  C2  1  0.78152500  0.74665700  0.62542000  1
  C  C3  1  0.28152500  0.75334300  0.37458000  1
  C  C4  1  0.20249100  0.36236600  0.49924200  1
  C  C5  1  0.70249100  0.13763400  0.50075800  1
  C  C6  1  0.79750900  0.63763400  0.50075800  1
  C  C7  1  0.29750900  0.86236600  0.49924200  1
  C  C8  1  0.26227300  0.26754800  0.46787100  1
  C  C9  1  0.76227300  0.23245200  0.53212900  1
  C  C10  1  0.73772700  0.73245200  0.53212900  1
  C  C11  1  0.23772700  0.76754800  0.46787100  1
  C  C12  1  0.62082900  0.27535100  0.04724900  1
  C  C13  1  0.12082900  0.22464900  0.95275100  1
  C  C14  1  0.37917100  0.72464900  0.95275100  1
  C  C15  1  0.87917100  0.77535100  0.04724900  1
  C  C16  1  0.59932200  0.08382500  0.17454100  1
  C  C17  1  0.09932200  0.41617500  0.82545900  1
  C  C18  1  0.40067800  0.91617500  0.82545900  1
  C  C19  1  0.90067800  0.58382500  0.17454100  1
  C  C20  1  0.66484700  0.17269300  0.11390200  1
  C  C21  1  0.16484700  0.32730700  0.88609800  1
  C  C22  1  0.33515300  0.82730700  0.88609800  1
  C  C23  1  0.83515300  0.67269300  0.11390200  1
  N  N0  1  0.31467400  0.50446900  0.29084800  1
  N  N1  1  0.81467400  0.99553100  0.70915200  1
  N  N2  1  0.68532600  0.49553100  0.70915200  1
  N  N3  1  0.18532600  0.00446900  0.29084800  1
  N  N4  1  0.44622700  0.30283800  0.21637000  1
  N  N5  1  0.94622700  0.19716200  0.78363000  1
  N  N6  1  0.55377300  0.69716200  0.78363000  1
  N  N7  1  0.05377300  0.80283800  0.21637000  1
  Cl  Cl0  1  0.30633400  0.58455400  0.99090000  1
  Cl  Cl1  1  0.80633400  0.91544600  0.00910000  1
  Cl  Cl2  1  0.69366600  0.41544600  0.00910000  1
  Cl  Cl3  1  0.19366600  0.08455400  0.99090000  1
  Cl  Cl4  1  0.63286600  0.46132500  0.36460000  1
  Cl  Cl5  1  0.13286600  0.03867500  0.63540000  1
  Cl  Cl6  1  0.36713400  0.53867500  0.63540000  1
  Cl  Cl7  1  0.86713400  0.96132500  0.36460000  1
loop_
_geom_bond_atom_site_label_1
_geom_bond_atom_site_label_2
_geom_bond_distance
_geom_bond_site_symmetry_2
C0 C8 1.356538 1_555
C0 P0 1.901346 1_555
C1 C9 1.356538 1_555
C1 P1 1.901346 1_555
C2 P2 1.901346 1_555
C3 P3 1.901346 1_555
C4 C8 1.346825 1_555
C4 P0 2.061788 1_555
C5 C9 1.346825 1_555
C5 P1 2.061788 1_555
C6 P2 2.061788 1_555
C7 P3 2.061788 1_555
C10 C6 1.346825 1_555
C10 C2 1.356538 1_555
C11 C7 1.346825 1_555
C11 C3 1.356538 1_555
C12 C20 1.382195 1_555
C12 Cl2 1.709739 1_555
C12 P4 1.884403 1_555
C13 C21 1.382195 1_555
C13 Cl3 1.709739 1_555
C13 P5 1.884403 1_455
C14 C22 1.382195 1_555
C14 Cl0 1.709739 1_555
C14 P6 1.884403 1_555
C15 C23 1.382195 1_555
C15 Cl1 1.709739 1_555
C15 P7 1.884403 1_655
C16 C20 1.323714 1_555
C16 P4 2.005446 1_555
C17 C21 1.323714 1_555
C17 P5 2.005446 1_455
C18 C22 1.323714 1_555
C18 P6 2.005446 1_555
C19 C23 1.323714 1_555
C19 P7 2.005446 1_655
C20 P4 2.023290 1_555
C21 P5 2.023290 1_455
C22 P6 2.023290 1_555
C23 P7 2.023290 1_655
N0 P0 1.569290 1_555
N0 Te0 1.970231 1_555
N1 P1 1.569290 1_565
N1 Te1 1.970231 1_565
N2 P2 1.569290 1_555
N2 Te2 1.970231 1_555
N3 P3 1.569290 1_545
N3 Te3 1.970231 1_545
N4 P4 1.637443 1_555
N4 Te0 1.923396 1_555
N5 P5 1.637443 1_555
N5 Te1 1.923396 1_555
N6 P6 1.637443 1_555
N6 Te2 1.923396 1_555
N7 P7 1.637443 1_555
N7 Te3 1.923396 1_555
Cl4 Te0 2.400206 1_555
Cl5 Te1 2.400206 1_455
Cl6 Te2 2.400206 1_555
Cl7 Te3 2.400206 1_655
