# generated using pymatgen
data_Co2BO4
_symmetry_space_group_name_H-M   'P 1'
_cell_length_a   3.16627100
_cell_length_b   9.22185900
_cell_length_c   9.36615100
_cell_angle_alpha   90.00000000
_cell_angle_beta   90.00000000
_cell_angle_gamma   90.00000000
_symmetry_Int_Tables_number   1
_chemical_formula_structural   Co2BO4
_chemical_formula_sum   'Co8 B4 O16'
_cell_volume   273.48135062
_cell_formula_units_Z   4
loop_
 _symmetry_equiv_pos_site_id
 _symmetry_equiv_pos_as_xyz
  1  'x, y, z'
loop_
 _atom_site_type_symbol
 _atom_site_label
 _atom_site_symmetry_multiplicity
 _atom_site_fract_x
 _atom_site_fract_y
 _atom_site_fract_z
 _atom_site_occupancy
  Co  Co0  1  0.25000000  0.61892300  0.57057400  1
  Co  Co1  1  0.75000000  0.38107700  0.42942600  1
  Co  Co2  1  0.75000000  0.88107700  0.07057400  1
  Co  Co3  1  0.25000000  0.11892300  0.92942600  1
  Co  Co4  1  0.25000000  0.60312100  0.20026100  1
  Co  Co5  1  0.75000000  0.39687900  0.79973900  1
  Co  Co6  1  0.75000000  0.89687900  0.70026100  1
  Co  Co7  1  0.25000000  0.10312100  0.29973900  1
  B  B0  1  0.25000000  0.66304600  0.88166100  1
  B  B1  1  0.75000000  0.33695400  0.11833900  1
  B  B2  1  0.75000000  0.83695400  0.38166100  1
  B  B3  1  0.25000000  0.16304600  0.61833900  1
  O  O0  1  0.25000000  0.01665400  0.12366400  1
  O  O1  1  0.75000000  0.98334600  0.87633600  1
  O  O2  1  0.75000000  0.48334600  0.62366400  1
  O  O3  1  0.25000000  0.51665400  0.37633600  1
  O  O4  1  0.25000000  0.74618700  0.75737800  1
  O  O5  1  0.75000000  0.25381300  0.24262200  1
  O  O6  1  0.75000000  0.75381300  0.25737800  1
  O  O7  1  0.25000000  0.24618700  0.74262200  1
  O  O8  1  0.25000000  0.51368800  0.86980100  1
  O  O9  1  0.75000000  0.48631200  0.13019900  1
  O  O10  1  0.75000000  0.98631200  0.36980100  1
  O  O11  1  0.25000000  0.01368800  0.63019900  1
  O  O12  1  0.25000000  0.72713100  0.01568800  1
  O  O13  1  0.75000000  0.27286900  0.98431200  1
  O  O14  1  0.75000000  0.77286900  0.51568800  1
  O  O15  1  0.25000000  0.22713100  0.48431200  1
loop_
_geom_bond_atom_site_label_1
_geom_bond_atom_site_label_2
_geom_bond_distance
_geom_bond_site_symmetry_2
Co0 O3 2.049188 1_555
Co0 O2 2.077680 1_555
Co0 O2 2.077680 1_455
Co0 O4 2.106794 1_555
Co0 O14 2.187703 1_455
Co0 O14 2.187703 1_555
Co1 O2 2.049188 1_555
Co1 O3 2.077680 1_555
Co1 O3 2.077680 1_655
Co1 O5 2.106794 1_555
Co1 O15 2.187703 1_555
Co1 O15 2.187703 1_655
Co2 O1 2.049188 1_554
Co2 O0 2.077680 1_565
Co2 O0 2.077680 1_665
Co2 O6 2.106794 1_555
Co2 O12 2.187703 1_555
Co2 O12 2.187703 1_655
Co3 O0 2.049188 1_556
Co3 O1 2.077680 1_545
Co3 O1 2.077680 1_445
Co3 O7 2.106794 1_555
Co3 O13 2.187703 1_455
Co3 O13 2.187703 1_555
Co4 O3 1.831804 1_555
Co4 O9 2.024175 1_455
Co4 O9 2.024175 1_555
Co4 O12 2.072767 1_555
Co4 O6 2.173399 1_555
Co4 O6 2.173399 1_455
Co5 O2 1.831804 1_555
Co5 O8 2.024175 1_655
Co5 O8 2.024175 1_555
Co5 O13 2.072767 1_555
Co5 O7 2.173399 1_555
Co5 O7 2.173399 1_655
Co6 O1 1.831804 1_555
Co6 O11 2.024175 1_565
Co6 O11 2.024175 1_665
Co6 O14 2.072767 1_555
Co6 O4 2.173399 1_555
Co6 O4 2.173399 1_655
Co7 O0 1.831804 1_555
Co7 O10 2.024175 1_445
Co7 O10 2.024175 1_545
Co7 O15 2.072767 1_555
Co7 O5 2.173399 1_555
Co7 O5 2.173399 1_455
B0 O8 1.381831 1_555
B0 O12 1.387473 1_556
B0 O4 1.393869 1_555
B1 O9 1.381831 1_555
B1 O13 1.387473 1_554
B1 O5 1.393869 1_555
B2 O10 1.381831 1_555
B2 O14 1.387473 1_555
B2 O6 1.393869 1_555
B3 O11 1.381831 1_555
B3 O15 1.387473 1_555
B3 O7 1.393869 1_555
