# generated using pymatgen
data_K(MoS)9
_symmetry_space_group_name_H-M   'P 1'
_cell_length_a   8.89718145
_cell_length_b   8.89718145
_cell_length_c   13.17826500
_cell_angle_alpha   90.00000000
_cell_angle_beta   90.00000000
_cell_angle_gamma   119.99999592
_symmetry_Int_Tables_number   1
_chemical_formula_structural   K(MoS)9
_chemical_formula_sum   'K2 Mo18 S18'
_cell_volume   903.42848880
_cell_formula_units_Z   2
loop_
 _symmetry_equiv_pos_site_id
 _symmetry_equiv_pos_as_xyz
  1  'x, y, z'
loop_
 _atom_site_type_symbol
 _atom_site_label
 _atom_site_symmetry_multiplicity
 _atom_site_fract_x
 _atom_site_fract_y
 _atom_site_fract_z
 _atom_site_occupancy
  K  K0  1  0.66666700  0.33333300  0.25000000  1
  K  K1  1  0.33333300  0.66666700  0.75000000  1
  Mo  Mo0  1  0.96844800  0.80978400  0.25000000  1
  Mo  Mo1  1  0.96727100  0.80719500  0.91674500  1
  Mo  Mo2  1  0.96727100  0.80719500  0.58325500  1
  Mo  Mo3  1  0.84133500  0.03155200  0.25000000  1
  Mo  Mo4  1  0.83992400  0.03272900  0.91674500  1
  Mo  Mo5  1  0.83992400  0.03272900  0.58325500  1
  Mo  Mo6  1  0.19021600  0.15866500  0.25000000  1
  Mo  Mo7  1  0.19280500  0.16007600  0.91674500  1
  Mo  Mo8  1  0.19280500  0.16007600  0.58325500  1
  Mo  Mo9  1  0.03272900  0.19280500  0.41674500  1
  Mo  Mo10  1  0.03272900  0.19280500  0.08325500  1
  Mo  Mo11  1  0.03155200  0.19021600  0.75000000  1
  Mo  Mo12  1  0.16007600  0.96727100  0.41674500  1
  Mo  Mo13  1  0.16007600  0.96727100  0.08325500  1
  Mo  Mo14  1  0.15866500  0.96844800  0.75000000  1
  Mo  Mo15  1  0.80719500  0.83992400  0.41674500  1
  Mo  Mo16  1  0.80719500  0.83992400  0.08325500  1
  Mo  Mo17  1  0.80978400  0.84133500  0.75000000  1
  S  S0  1  0.29033700  0.94141700  0.25000000  1
  S  S1  1  0.28917600  0.94006800  0.91612400  1
  S  S2  1  0.28917600  0.94006800  0.58387600  1
  S  S3  1  0.65108000  0.70966300  0.25000000  1
  S  S4  1  0.65089200  0.71082400  0.91612400  1
  S  S5  1  0.65089200  0.71082400  0.58387600  1
  S  S6  1  0.05858300  0.34892000  0.25000000  1
  S  S7  1  0.05993200  0.34910800  0.91612400  1
  S  S8  1  0.05993200  0.34910800  0.58387600  1
  S  S9  1  0.71082400  0.05993200  0.41612400  1
  S  S10  1  0.71082400  0.05993200  0.08387600  1
  S  S11  1  0.70966300  0.05858300  0.75000000  1
  S  S12  1  0.34910800  0.28917600  0.41612400  1
  S  S13  1  0.34910800  0.28917600  0.08387600  1
  S  S14  1  0.34892000  0.29033700  0.75000000  1
  S  S15  1  0.94006800  0.65089200  0.41612400  1
  S  S16  1  0.94006800  0.65089200  0.08387600  1
  S  S17  1  0.94141700  0.65108000  0.75000000  1
loop_
_geom_bond_atom_site_label_1
_geom_bond_atom_site_label_2
_geom_bond_distance
_geom_bond_site_symmetry_2
K0 S6 3.419717 1_655
K0 S0 3.419722 1_545
K0 S3 3.419726 1_555
K0 S9 3.437989 1_555
K0 S10 3.437989 1_555
K0 S15 3.437994 1_555
K0 S16 3.437994 1_555
K0 S13 3.437996 1_555
K0 S12 3.437996 1_555
K1 S17 3.419717 1_455
K1 S11 3.419722 1_565
K1 S14 3.419726 1_555
K1 S1 3.437989 1_555
K1 S2 3.437989 1_555
K1 S8 3.437994 1_555
K1 S7 3.437994 1_555
K1 S4 3.437996 1_555
K1 S5 3.437996 1_555
Mo0 S0 2.493888 1_655
Mo0 S3 2.500274 1_555
Mo0 S16 2.549123 1_555
Mo0 S15 2.549123 1_555
Mo1 S1 2.492901 1_655
Mo1 S4 2.499049 1_555
Mo1 S17 2.547802 1_555
Mo1 S16 2.550865 1_556
Mo2 S2 2.492901 1_655
Mo2 S5 2.499049 1_555
Mo2 S17 2.547802 1_555
Mo2 S15 2.550865 1_555
Mo3 S3 2.493887 1_545
Mo3 S6 2.500276 1_655
Mo3 S9 2.549119 1_555
Mo3 S10 2.549119 1_555
Mo4 S4 2.492901 1_545
Mo4 S7 2.499049 1_655
Mo4 S11 2.547802 1_555
Mo4 S10 2.550865 1_556
Mo5 S5 2.492901 1_545
Mo5 S8 2.499049 1_655
Mo5 S11 2.547802 1_555
Mo5 S9 2.550865 1_555
Mo6 S6 2.493879 1_555
Mo6 S0 2.500282 1_545
Mo6 S12 2.549122 1_555
Mo6 S13 2.549122 1_555
Mo7 S7 2.492901 1_555
Mo7 S1 2.499049 1_545
Mo7 S14 2.547802 1_555
Mo7 S13 2.550865 1_556
Mo8 S8 2.492901 1_555
Mo8 S2 2.499049 1_545
Mo8 S14 2.547802 1_555
Mo8 S12 2.550865 1_555
Mo9 S9 2.492901 1_455
Mo9 S12 2.499049 1_555
Mo9 S6 2.547802 1_555
Mo9 S8 2.550865 1_555
Mo10 S10 2.492901 1_455
Mo10 S13 2.499049 1_555
Mo10 S6 2.547802 1_555
Mo10 S7 2.550865 1_554
Mo11 S11 2.493888 1_455
Mo11 S14 2.500274 1_555
Mo11 S8 2.549123 1_555
Mo11 S7 2.549123 1_555
Mo12 S12 2.492901 1_565
Mo12 S15 2.499049 1_455
Mo12 S0 2.547802 1_555
Mo12 S2 2.550865 1_555
Mo13 S13 2.492901 1_565
Mo13 S16 2.499049 1_455
Mo13 S0 2.547802 1_555
Mo13 S1 2.550865 1_554
Mo14 S14 2.493887 1_565
Mo14 S17 2.500276 1_455
Mo14 S2 2.549119 1_555
Mo14 S1 2.549119 1_555
Mo15 S15 2.492901 1_555
Mo15 S9 2.499049 1_565
Mo15 S3 2.547802 1_555
Mo15 S5 2.550865 1_555
Mo16 S16 2.492901 1_555
Mo16 S10 2.499049 1_565
Mo16 S3 2.547802 1_555
Mo16 S4 2.550865 1_554
Mo17 S17 2.493879 1_555
Mo17 S11 2.500282 1_565
Mo17 S5 2.549122 1_555
Mo17 S4 2.549122 1_555
