# generated using pymatgen
data_NdCrO3
_symmetry_space_group_name_H-M   'P 1'
_cell_length_a   5.42096311
_cell_length_b   5.53422111
_cell_length_c   7.71471539
_cell_angle_alpha   90.00000000
_cell_angle_beta   90.00000000
_cell_angle_gamma   89.99997866
_symmetry_Int_Tables_number   1
_chemical_formula_structural   NdCrO3
_chemical_formula_sum   'Nd4 Cr4 O12'
_cell_volume   231.44769889
_cell_formula_units_Z   4
loop_
 _symmetry_equiv_pos_site_id
 _symmetry_equiv_pos_as_xyz
  1  'x, y, z'
loop_
 _atom_site_type_symbol
 _atom_site_label
 _atom_site_symmetry_multiplicity
 _atom_site_fract_x
 _atom_site_fract_y
 _atom_site_fract_z
 _atom_site_occupancy
  Nd  Nd0  1  0.48878495  0.45146574  0.74999900  1
  Nd  Nd1  1  0.98878395  0.04853226  0.24999900  1
  Nd  Nd2  1  0.01121505  0.95146674  0.74999900  1
  Nd  Nd3  1  0.51121705  0.54853226  0.24999900  1
  Cr  Cr0  1  0.50000000  -0.00000000  0.50000000  1
  Cr  Cr1  1  0.00000000  0.50000000  0.50000000  1
  Cr  Cr2  1  0.00000000  0.50000000  -0.00000000  1
  Cr  Cr3  1  0.50000000  -0.00000000  -0.00000000  1
  O  O0  1  0.70834180  0.29092246  0.45564430  1
  O  O1  1  0.20834180  0.20907854  0.54435570  1
  O  O2  1  0.79165720  0.79092246  0.04435570  1
  O  O3  1  0.29165820  0.70907754  0.95564430  1
  O  O4  1  0.29165820  0.70907754  0.54435570  1
  O  O5  1  0.79165720  0.79092246  0.45564430  1
  O  O6  1  0.20834180  0.20907854  0.95564430  1
  O  O7  1  0.70834180  0.29092246  0.04435570  1
  O  O8  1  0.41674309  0.97996908  0.24999900  1
  O  O9  1  0.91674209  0.52003192  0.74999900  1
  O  O10  1  0.58325891  0.02003192  0.74999900  1
  O  O11  1  0.08325791  0.47996908  0.24999900  1
loop_
_geom_bond_atom_site_label_1
_geom_bond_atom_site_label_2
_geom_bond_distance
_geom_bond_site_symmetry_2
Nd0 O9 2.350768 1_555
Nd0 O4 2.385670 1_555
Nd0 O3 2.385681 1_555
Nd0 O10 2.441958 1_555
Nd0 O1 2.574406 1_555
Nd0 O6 2.574415 1_555
Nd0 O0 2.713451 1_555
Nd0 O7 2.713464 1_556
Nd1 O8 2.350776 1_645
Nd1 O2 2.385664 1_545
Nd1 O5 2.385675 1_545
Nd1 O11 2.441975 1_655
Nd1 O7 2.574411 1_555
Nd1 O0 2.574420 1_555
Nd1 O6 2.713459 1_654
Nd1 O1 2.713472 1_655
Nd2 O10 2.350762 1_465
Nd2 O1 2.385671 1_565
Nd2 O6 2.385681 1_565
Nd2 O9 2.441963 1_455
Nd2 O4 2.574411 1_555
Nd2 O3 2.574420 1_555
Nd2 O5 2.713455 1_455
Nd2 O2 2.713468 1_456
Nd3 O11 2.350776 1_555
Nd3 O7 2.385659 1_555
Nd3 O0 2.385669 1_555
Nd3 O8 2.441974 1_555
Nd3 O2 2.574405 1_555
Nd3 O5 2.574414 1_555
Nd3 O3 2.713459 1_554
Nd3 O4 2.713472 1_555
Cr0 O10 1.983878 1_555
Cr0 O8 1.983891 1_545
Cr0 O5 1.988892 1_545
Cr0 O1 1.988899 1_555
Cr0 O0 1.996213 1_555
Cr0 O4 1.996213 1_545
Cr1 O9 1.983877 1_455
Cr1 O11 1.983892 1_555
Cr1 O4 1.988897 1_555
Cr1 O0 1.988897 1_455
Cr1 O1 1.996207 1_555
Cr1 O5 1.996215 1_455
Cr2 O11 1.983877 1_555
Cr2 O9 1.983892 1_454
Cr2 O3 1.988897 1_554
Cr2 O7 1.988897 1_455
Cr2 O6 1.996207 1_554
Cr2 O2 1.996215 1_455
Cr3 O8 1.983876 1_545
Cr3 O10 1.983893 1_554
Cr3 O2 1.988892 1_545
Cr3 O6 1.988899 1_554
Cr3 O7 1.996213 1_555
Cr3 O3 1.996213 1_544
