# generated using pymatgen
data_Li2BeH4
_symmetry_space_group_name_H-M   'P 1'
_cell_length_a   5.13951461
_cell_length_b   6.63200601
_cell_length_c   12.17970828
_cell_angle_alpha   86.68486818
_cell_angle_beta   111.10680742
_cell_angle_gamma   83.38318547
_symmetry_Int_Tables_number   1
_chemical_formula_structural   Li2BeH4
_chemical_formula_sum   'Li12 Be6 H24'
_cell_volume   382.50102697
_cell_formula_units_Z   6
loop_
 _symmetry_equiv_pos_site_id
 _symmetry_equiv_pos_as_xyz
  1  'x, y, z'
loop_
 _atom_site_type_symbol
 _atom_site_label
 _atom_site_symmetry_multiplicity
 _atom_site_fract_x
 _atom_site_fract_y
 _atom_site_fract_z
 _atom_site_occupancy
  Li  Li0  1  0.90421300  0.71787200  0.78084800  1
  Li  Li1  1  0.91647500  0.28980600  0.84581900  1
  Li  Li2  1  0.26933100  0.27277600  0.15432500  1
  Li  Li3  1  0.27166400  0.82820000  0.14162000  1
  Li  Li4  1  0.69780300  0.43256900  0.60634800  1
  Li  Li5  1  0.88865800  0.05964600  0.57724100  1
  Li  Li6  1  0.31384200  0.01579500  0.82495100  1
  Li  Li7  1  0.43578800  0.57639900  0.81936500  1
  Li  Li8  1  0.14684000  0.23461500  0.39352800  1
  Li  Li9  1  0.05732300  0.75647700  0.41423500  1
  Li  Li10  1  0.82094900  0.00785000  0.19334100  1
  Li  Li11  1  0.70859600  0.57394500  0.25270800  1
  Be  Be0  1  0.91765200  0.94366200  0.95378300  1
  Be  Be1  1  0.08035700  0.56125600  0.98678500  1
  Be  Be2  1  0.60733000  0.30850800  0.39267500  1
  Be  Be3  1  0.56143400  0.71155000  0.43585000  1
  Be  Be4  1  0.53913500  0.98386100  0.32787700  1
  Be  Be5  1  0.24589100  0.55167500  0.28798000  1
  H  H0  1  0.01499800  0.19665100  0.71662500  1
  H  H1  1  0.18171400  0.81118000  0.74025400  1
  H  H2  1  0.25317700  0.91021400  0.59876000  1
  H  H3  1  0.12476800  0.55795600  0.65075700  1
  H  H4  1  0.50473400  0.20048900  0.06429400  1
  H  H5  1  0.53079600  0.66948000  0.07994200  1
  H  H6  1  0.18816500  0.97319900  0.95180000  1
  H  H7  1  0.20065400  0.51807100  0.89839300  1
  H  H8  1  0.90099200  0.29364100  0.46571700  1
  H  H9  1  0.82524800  0.77627200  0.49805800  1
  H  H10  1  0.95337900  0.38769200  0.00460900  1
  H  H11  1  0.93249400  0.98860100  0.06760400  1
  H  H12  1  0.44782700  0.65574500  0.52147600  1
  H  H13  1  0.51774500  0.24771600  0.49257700  1
  H  H14  1  0.52609400  0.31432200  0.07687400  1
  H  H15  1  0.63703200  0.75248900  0.09673600  1
  H  H16  1  0.06558700  0.49600200  0.34724400  1
  H  H17  1  0.36599300  0.90973400  0.39020300  1
  H  H18  1  0.24397000  0.99110600  0.55006500  1
  H  H19  1  0.13700200  0.44147800  0.66759500  1
  H  H20  1  0.83953300  0.72939800  0.93050700  1
  H  H21  1  0.69201400  0.06466900  0.85808500  1
  H  H22  1  0.06123800  0.73537500  0.22450300  1
  H  H23  1  0.68156600  0.51205900  0.74804000  1
loop_
_geom_bond_atom_site_label_1
_geom_bond_atom_site_label_2
_geom_bond_distance
_geom_bond_site_symmetry_2
Be0 H11 1.411861 1_556
Be0 H21 1.432226 1_565
Be0 H6 1.434680 1_655
Be0 H20 1.535221 1_555
Be1 H10 1.429775 1_456
Be1 H7 1.448299 1_555
Be1 H20 1.492572 1_455
Be2 H8 1.437921 1_555
Be2 H13 1.498204 1_555
Be3 H12 1.417483 1_555
Be3 H9 1.424277 1_555
Be3 H17 1.501539 1_555
Be4 H17 1.467638 1_555
Be4 Li10 2.557430 1_565
Be5 H16 1.430331 1_555
Be5 H22 1.441807 1_555
H0 Li6 1.863164 1_555
H0 Li5 1.910419 1_455
H0 Li1 1.930886 1_455
H0 Li4 2.121746 1_455
H1 Li6 1.799034 1_565
H1 Li0 1.826847 1_455
H1 Li7 1.873437 1_555
H2 Li5 1.936259 1_465
H3 Li7 2.120680 1_555
H4 Li2 1.943870 1_555
H4 Li10 2.047783 1_555
H5 Li3 1.983691 1_555
H5 Li11 1.997948 1_555
H6 Li6 1.895862 1_565
H7 Li7 1.854442 1_555
H7 Li0 1.967518 1_455
H7 Li1 2.187022 1_455
H8 Li8 1.802438 1_655
H8 Li5 2.024408 1_555
H9 Li9 1.827198 1_655
H9 Li5 2.166251 1_565
H10 Li2 1.991052 1_655
H10 Li1 2.026628 1_554
H11 Li3 1.820140 1_655
H11 Li10 1.824370 1_565
H12 Li4 1.827072 1_555
H12 Li9 1.970400 1_555
H13 Li8 1.868369 1_555
H13 Li4 1.952909 1_555
H13 Li5 2.034845 1_555
H14 H4 0.791093 1_555
H14 Li2 1.912467 1_555
H15 H5 0.803047 1_555
H15 Li10 2.223605 1_565
H16 Li8 1.745814 1_555
H16 Li11 1.774936 1_455
H16 Li9 1.955191 1_555
H17 Li9 2.075349 1_555
H18 H2 0.760881 1_555
H18 Li5 1.977970 1_465
H19 H3 0.777135 1_555
H19 Li4 2.116205 1_455
H20 Li0 1.971200 1_555
H21 Li6 1.908136 1_555
H21 Li1 2.019362 1_555
H22 Li3 1.853517 1_555
H22 Li10 2.000861 1_465
H23 Li7 1.800375 1_555
H23 Li1 1.843871 1_555
H23 Li0 1.850919 1_555
H23 Li4 1.860634 1_555
