# generated using pymatgen
data_ZnPPt5
_symmetry_space_group_name_H-M   'P 1'
_cell_length_a   3.89226233
_cell_length_b   3.89226233
_cell_length_c   6.94375693
_cell_angle_alpha   90.00000000
_cell_angle_beta   90.00000000
_cell_angle_gamma   90.00000000
_symmetry_Int_Tables_number   1
_chemical_formula_structural   ZnPPt5
_chemical_formula_sum   'Zn1 P1 Pt5'
_cell_volume   105.19587634
_cell_formula_units_Z   1
loop_
 _symmetry_equiv_pos_site_id
 _symmetry_equiv_pos_as_xyz
  1  'x, y, z'
loop_
 _atom_site_type_symbol
 _atom_site_label
 _atom_site_symmetry_multiplicity
 _atom_site_fract_x
 _atom_site_fract_y
 _atom_site_fract_z
 _atom_site_occupancy
  Zn  Zn0  1  0.50000000  0.50000000  -0.00000000  1
  P  P0  1  -0.00000000  0.00000000  0.50000000  1
  Pt  Pt0  1  0.00000000  0.50000000  0.29079576  1
  Pt  Pt1  1  -0.00000000  0.50000000  0.70920424  1
  Pt  Pt2  1  0.50000000  -0.00000000  0.29079576  1
  Pt  Pt3  1  0.50000000  0.00000000  0.70920424  1
  Pt  Pt4  1  -0.00000000  0.00000000  -0.00000000  1
loop_
_geom_bond_atom_site_label_1
_geom_bond_atom_site_label_2
_geom_bond_distance
_geom_bond_site_symmetry_2
P0 Pt0 2.428509 1_555
P0 Pt2 2.428509 1_455
P0 Pt2 2.428509 1_555
P0 Pt0 2.428509 1_545
P0 Pt1 2.428509 1_555
P0 Pt3 2.428509 1_555
P0 Pt3 2.428509 1_455
P0 Pt1 2.428509 1_545
Pt0 Zn0 2.804399 1_455
Pt0 Zn0 2.804399 1_555
Pt1 Zn0 2.804399 1_556
Pt1 Zn0 2.804399 1_456
Pt2 Zn0 2.804399 1_555
Pt2 Zn0 2.804399 1_545
Pt3 Zn0 2.804399 1_546
Pt3 Zn0 2.804399 1_556
Pt4 Zn0 2.752245 1_455
Pt4 Zn0 2.752245 1_555
Pt4 Zn0 2.752245 1_445
Pt4 Zn0 2.752245 1_545
