# generated using pymatgen
data_LuZnRh
_symmetry_space_group_name_H-M   'P 1'
_cell_length_a   3.92901531
_cell_length_b   6.78209436
_cell_length_c   7.98166393
_cell_angle_alpha   89.99998276
_cell_angle_beta   90.00000463
_cell_angle_gamma   90.00000203
_symmetry_Int_Tables_number   1
_chemical_formula_structural   LuZnRh
_chemical_formula_sum   'Lu4 Zn4 Rh4'
_cell_volume   212.68702021
_cell_formula_units_Z   4
loop_
 _symmetry_equiv_pos_site_id
 _symmetry_equiv_pos_as_xyz
  1  'x, y, z'
loop_
 _atom_site_type_symbol
 _atom_site_label
 _atom_site_symmetry_multiplicity
 _atom_site_fract_x
 _atom_site_fract_y
 _atom_site_fract_z
 _atom_site_occupancy
  Lu  Lu0  1  0.25000024  0.54195342  0.18178822  1
  Lu  Lu1  1  0.74999973  0.45804691  0.81821130  1
  Lu  Lu2  1  0.75000020  0.95803517  0.68177964  1
  Lu  Lu3  1  0.24999969  0.04196387  0.31822019  1
  Zn  Zn0  1  0.24999984  0.63422313  0.56272700  1
  Zn  Zn1  1  0.75000021  0.36577919  0.43727113  1
  Zn  Zn2  1  0.75000018  0.86573617  0.06280666  1
  Zn  Zn3  1  0.25000000  0.13426248  0.93719623  1
  Rh  Rh0  1  0.25000013  0.75074111  0.87429112  1
  Rh  Rh1  1  0.74999991  0.24925866  0.12570882  1
  Rh  Rh2  1  0.74999985  0.74928071  0.37432191  1
  Rh  Rh3  1  0.25000001  0.25071917  0.62567776  1
loop_
_geom_bond_atom_site_label_1
_geom_bond_atom_site_label_2
_geom_bond_distance
_geom_bond_site_symmetry_2
Lu0 Rh1 2.828462 1_555
Lu0 Rh1 2.828463 1_455
Lu0 Rh0 2.833528 1_554
Lu0 Rh2 2.863216 1_555
Lu0 Rh2 2.863219 1_455
Lu0 Zn1 3.073297 1_555
Lu0 Zn1 3.073298 1_455
Lu0 Zn2 3.095682 1_555
Lu0 Zn2 3.095683 1_455
Lu0 Zn0 3.104255 1_555
Lu0 Zn3 3.384746 1_554
Lu1 Rh0 2.828459 1_555
Lu1 Rh0 2.828461 1_655
Lu1 Rh1 2.833533 1_556
Lu1 Rh3 2.863217 1_555
Lu1 Rh3 2.863219 1_655
Lu1 Zn0 3.073310 1_555
Lu1 Zn0 3.073311 1_655
Lu1 Zn3 3.095698 1_555
Lu1 Zn3 3.095700 1_655
Lu1 Zn1 3.104263 1_555
Lu1 Zn2 3.384752 1_556
Lu2 Rh3 2.828439 1_665
Lu2 Rh3 2.828440 1_565
Lu2 Rh2 2.833144 1_555
Lu2 Rh0 2.863011 1_655
Lu2 Rh0 2.863011 1_555
Lu2 Zn3 3.073086 1_665
Lu2 Zn3 3.073087 1_565
Lu2 Zn0 3.095997 1_655
Lu2 Zn0 3.095999 1_555
Lu2 Zn2 3.104984 1_556
Lu2 Zn1 3.384655 1_565
Lu3 Rh2 2.828435 1_445
Lu3 Rh2 2.828436 1_545
Lu3 Rh3 2.833146 1_555
Lu3 Rh1 2.863012 1_455
Lu3 Rh1 2.863014 1_555
Lu3 Zn2 3.073070 1_445
Lu3 Zn2 3.073073 1_545
Lu3 Zn1 3.096008 1_455
Lu3 Zn1 3.096011 1_555
Lu3 Zn3 3.104960 1_554
Lu3 Zn0 3.384629 1_545
Zn0 Zn1 2.859477 1_455
Zn0 Zn1 2.859479 1_555
Zn2 Zn3 2.860265 1_664
Zn2 Zn3 2.860266 1_564
Rh0 Zn2 2.594527 1_456
Rh0 Zn2 2.594527 1_556
Rh0 Zn0 2.609339 1_555
Rh0 Zn3 2.649094 1_565
Rh1 Zn3 2.594515 1_554
Rh1 Zn3 2.594516 1_654
Rh1 Zn1 2.609330 1_555
Rh1 Zn2 2.649097 1_545
Rh2 Zn0 2.594143 1_655
Rh2 Zn0 2.594143 1_555
Rh2 Zn2 2.608838 1_555
Rh2 Zn1 2.649028 1_555
Rh3 Zn1 2.594155 1_455
Rh3 Zn1 2.594156 1_555
Rh3 Zn3 2.608865 1_555
Rh3 Zn0 2.649047 1_555
