# generated using pymatgen
data_CsMo2P3O13
_symmetry_space_group_name_H-M   'P 1'
_cell_length_a   6.38207627
_cell_length_b   9.84392037
_cell_length_c   19.62163003
_cell_angle_alpha   90.00000000
_cell_angle_beta   90.00000000
_cell_angle_gamma   106.86487021
_symmetry_Int_Tables_number   1
_chemical_formula_structural   CsMo2P3O13
_chemical_formula_sum   'Cs4 Mo8 P12 O52'
_cell_volume   1179.70470061
_cell_formula_units_Z   4
loop_
 _symmetry_equiv_pos_site_id
 _symmetry_equiv_pos_as_xyz
  1  'x, y, z'
loop_
 _atom_site_type_symbol
 _atom_site_label
 _atom_site_symmetry_multiplicity
 _atom_site_fract_x
 _atom_site_fract_y
 _atom_site_fract_z
 _atom_site_occupancy
  Cs  Cs0  1  0.73163857  0.00310084  0.58575542  1
  Cs  Cs1  1  0.26836143  0.99689916  0.08575542  1
  Cs  Cs2  1  0.71707915  0.63115094  0.75750236  1
  Cs  Cs3  1  0.28292085  0.36884906  0.25750236  1
  Mo  Mo0  1  0.43759831  0.60842376  0.46523095  1
  Mo  Mo1  1  0.56240169  0.39157624  0.96523095  1
  Mo  Mo2  1  0.35442869  0.92701153  0.75489732  1
  Mo  Mo3  1  0.64557131  0.07298847  0.25489732  1
  Mo  Mo4  1  0.06049493  0.37112291  0.71014238  1
  Mo  Mo5  1  0.93950507  0.62887709  0.21014238  1
  Mo  Mo6  1  0.14300338  0.05527802  0.42720018  1
  Mo  Mo7  1  0.85699662  0.94472198  0.92720018  1
  P  P0  1  0.23818701  0.69273450  0.62270887  1
  P  P1  1  0.76181299  0.30726550  0.12270887  1
  P  P2  1  0.90073725  0.03204213  0.76764926  1
  P  P3  1  0.09926275  0.96795787  0.26764926  1
  P  P4  1  0.51081876  0.27777372  0.67669200  1
  P  P5  1  0.48918124  0.72222628  0.17669200  1
  P  P6  1  0.25873768  0.29231907  0.55485032  1
  P  P7  1  0.74126232  0.70768093  0.05485032  1
  P  P8  1  0.59734789  0.95611236  0.41092916  1
  P  P9  1  0.40265211  0.04388764  0.91092916  1
  P  P10  1  0.98296684  0.70110308  0.50027421  1
  P  P11  1  0.01703316  0.29889692  0.00027421  1
  O  O0  1  0.33558746  0.40956961  0.50411100  1
  O  O1  1  0.66441254  0.59043039  0.00411100  1
  O  O2  1  0.43312842  0.55384593  0.38512124  1
  O  O3  1  0.56687158  0.44615407  0.88512124  1
  O  O4  1  0.74392889  0.61790449  0.49320062  1
  O  O5  1  0.25607111  0.38209551  0.99320062  1
  O  O6  1  0.54792152  0.81438341  0.44728215  1
  O  O7  1  0.45207848  0.18561659  0.94728215  1
  O  O8  1  0.40862286  0.67574007  0.57330794  1
  O  O9  1  0.59137714  0.32425993  0.07330794  1
  O  O10  1  0.16257048  0.57475422  0.67431429  1
  O  O11  1  0.83742952  0.42524578  0.17431429  1
  O  O12  1  0.02402168  0.69604455  0.58129655  1
  O  O13  1  0.97597832  0.30395545  0.08129655  1
  O  O14  1  0.31337536  0.83437323  0.65996232  1
  O  O15  1  0.68662464  0.16562677  0.15996232  1
  O  O16  1  0.42075376  0.06413775  0.83379721  1
  O  O17  1  0.57924624  0.93586225  0.33379721  1
  O  O18  1  0.28867317  0.77631195  0.79897130  1
  O  O19  1  0.71132683  0.22368805  0.29897130  1
  O  O20  1  0.67314290  0.93864419  0.74646675  1
  O  O21  1  0.32685710  0.06135581  0.24646675  1
  O  O22  1  0.45496139  0.12416277  0.69556031  1
  O  O23  1  0.54503861  0.87583723  0.19556031  1
  O  O24  1  0.05070911  0.94228120  0.74762397  1
  O  O25  1  0.94929089  0.05771880  0.24762397  1
  O  O26  1  0.95703286  0.16362789  0.72312809  1
  O  O27  1  0.04296714  0.83637211  0.22312809  1
  O  O28  1  0.37525192  0.36103521  0.71201564  1
  O  O29  1  0.62474808  0.63896479  0.21201564  1
  O  O30  1  0.75030723  0.36117807  0.68483380  1
  O  O31  1  0.24969277  0.63882193  0.18483380  1
  O  O32  1  0.47183932  0.28633311  0.59677783  1
  O  O33  1  0.52816068  0.71366689  0.09677783  1
  O  O34  1  0.05897288  0.42322408  0.79052964  1
  O  O35  1  0.94102712  0.57677592  0.29052964  1
  O  O36  1  0.09351544  0.31339034  0.60538908  1
  O  O37  1  0.90648456  0.68660966  0.10538908  1
  O  O38  1  0.17692086  0.14784186  0.52106516  1
  O  O39  1  0.82307914  0.85215814  0.02106416  1
  O  O40  1  0.08556618  0.92878308  0.34266623  1
  O  O41  1  0.91443382  0.07121692  0.84266623  1
  O  O42  1  0.21899749  0.20664860  0.38357168  1
  O  O43  1  0.78100251  0.79335140  0.88357168  1
  O  O44  1  0.82561165  0.04581345  0.43219702  1
  O  O45  1  0.17438835  0.95418655  0.93219702  1
  O  O46  1  0.03515124  0.85550490  0.48172763  1
  O  O47  1  0.96484876  0.14449510  0.98172763  1
  O  O48  1  0.44226785  0.03521887  0.43866316  1
  O  O49  1  0.55773215  0.96478113  0.93866316  1
  O  O50  1  0.12599691  0.62221648  0.46649196  1
  O  O51  1  0.87400309  0.37778352  0.96649196  1
loop_
_geom_bond_atom_site_label_1
_geom_bond_atom_site_label_2
_geom_bond_distance
_geom_bond_site_symmetry_2
Cs0 O38 3.060698 1_655
Cs0 O14 3.071140 1_545
Cs0 O44 3.077130 1_555
Cs0 O20 3.216920 1_545
Cs0 O22 3.225096 1_555
Cs0 O26 3.242372 1_555
Cs0 O36 3.273976 1_655
Cs0 O8 3.292333 1_545
Cs0 O6 3.308248 1_545
Cs0 O46 3.415051 1_645
Cs0 O48 3.489909 1_555
Cs0 O32 3.640309 1_555
Cs1 O39 3.060706 1_455
Cs1 O15 3.071140 1_565
Cs1 O45 3.077130 1_554
Cs1 O21 3.216920 1_565
Cs1 O23 3.225096 1_555
Cs1 O27 3.242372 1_555
Cs1 O37 3.273976 1_455
Cs1 O9 3.292333 1_565
Cs1 O7 3.308248 1_564
Cs1 O47 3.415051 1_464
Cs1 O49 3.489909 1_554
Cs1 O33 3.640309 1_555
Cs2 O43 2.908094 1_555
Cs2 O28 3.043076 1_555
Cs2 O30 3.076994 1_555
Cs2 O3 3.081053 1_555
Cs2 O20 3.127356 1_555
Cs2 O24 3.188696 1_655
Cs2 O34 3.458598 1_655
Cs2 O10 3.460054 1_655
Cs2 O18 3.527935 1_555
Cs2 O18 3.603745 1_655
Cs3 O42 2.908094 1_555
Cs3 O29 3.043076 1_555
Cs3 O31 3.076994 1_555
Cs3 O2 3.081053 1_555
Cs3 O21 3.127356 1_555
Cs3 O25 3.188696 1_455
Cs3 O35 3.458598 1_455
Cs3 O11 3.460054 1_455
Cs3 O19 3.527935 1_555
Cs3 O19 3.603745 1_455
Mo0 O2 1.658730 1_555
Mo0 O6 1.975360 1_555
Mo0 O4 2.006529 1_555
Mo0 O0 2.024407 1_555
Mo0 O50 2.032363 1_555
Mo0 O8 2.245341 1_555
Mo1 O3 1.658730 1_555
Mo1 O7 1.975360 1_555
Mo1 O5 2.006529 1_555
Mo1 O1 2.024407 1_556
Mo1 O51 2.032363 1_555
Mo1 O9 2.245341 1_556
Mo2 O18 1.662369 1_555
Mo2 O24 1.992301 1_555
Mo2 O20 2.010652 1_555
Mo2 O16 2.016560 1_565
Mo2 O14 2.057077 1_555
Mo2 O22 2.193446 1_565
Mo3 O19 1.662369 1_555
Mo3 O25 1.992301 1_555
Mo3 O21 2.010652 1_555
Mo3 O17 2.016560 1_545
Mo3 O15 2.057077 1_555
Mo3 O23 2.193446 1_545
Mo4 O34 1.659517 1_555
Mo4 O26 1.972417 1_455
Mo4 O30 2.015620 1_455
Mo4 O28 2.040158 1_555
Mo4 O10 2.044273 1_555
Mo4 O36 2.159092 1_555
Mo5 O35 1.659517 1_555
Mo5 O27 1.972417 1_655
Mo5 O31 2.015620 1_655
Mo5 O29 2.040158 1_555
Mo5 O11 2.044273 1_555
Mo5 O37 2.159092 1_555
Mo6 O42 1.664055 1_555
Mo6 O48 1.989028 1_555
Mo6 O44 2.002978 1_455
Mo6 O38 2.038345 1_555
Mo6 O40 2.042383 1_545
Mo6 O46 2.168045 1_545
Mo7 O43 1.664055 1_555
Mo7 O49 1.989028 1_555
Mo7 O45 2.002978 1_655
Mo7 O39 2.038327 1_556
Mo7 O41 2.042383 1_565
Mo7 O47 2.168045 1_565
O0 P6 1.495150 1_555
O1 P7 1.495150 1_555
O4 P10 1.514066 1_555
O5 P11 1.514066 1_556
O6 P8 1.516392 1_555
O7 P9 1.516392 1_555
O8 P0 1.502109 1_555
O9 P1 1.502109 1_555
O10 P0 1.510574 1_555
O11 P1 1.510574 1_555
O12 P0 1.598556 1_555
O12 P10 1.614353 1_455
O13 P1 1.598556 1_555
O13 P11 1.614353 1_655
O14 P0 1.523285 1_555
O15 P1 1.523285 1_555
O16 P9 1.526521 1_555
O17 P8 1.526521 1_555
O20 P2 1.533952 1_565
O21 P3 1.533952 1_545
O22 P4 1.495969 1_555
O23 P5 1.495969 1_555
O24 P2 1.530345 1_465
O25 P3 1.530345 1_645
O26 P2 1.516590 1_555
O27 P3 1.516590 1_555
O28 P4 1.520593 1_555
O29 P5 1.520593 1_555
O30 P4 1.519076 1_555
O31 P5 1.519076 1_555
O32 P4 1.593712 1_555
O32 P6 1.605138 1_555
O33 P5 1.593712 1_555
O33 P7 1.605138 1_555
O36 P6 1.505057 1_555
O37 P7 1.505057 1_555
O38 P6 1.517872 1_555
O39 P7 1.517880 1_555
O40 P3 1.517711 1_555
O41 P2 1.517711 1_555
O44 P8 1.526343 1_545
O45 P9 1.526343 1_565
O46 P10 1.503261 1_455
O47 P11 1.503261 1_656
O48 P8 1.526207 1_545
O49 P9 1.526207 1_565
O50 P10 1.512277 1_455
O51 P11 1.512277 1_656
