# generated using pymatgen
data_MgTi3V5O16
_symmetry_space_group_name_H-M   'P 1'
_cell_length_a   5.99906562
_cell_length_b   5.91749945
_cell_length_c   9.63106799
_cell_angle_alpha   89.49591623
_cell_angle_beta   91.03247889
_cell_angle_gamma   119.80315518
_symmetry_Int_Tables_number   1
_chemical_formula_structural   MgTi3V5O16
_chemical_formula_sum   'Mg1 Ti3 V5 O16'
_cell_volume   296.62955580
_cell_formula_units_Z   1
loop_
 _symmetry_equiv_pos_site_id
 _symmetry_equiv_pos_as_xyz
  1  'x, y, z'
loop_
 _atom_site_type_symbol
 _atom_site_label
 _atom_site_symmetry_multiplicity
 _atom_site_fract_x
 _atom_site_fract_y
 _atom_site_fract_z
 _atom_site_occupancy
  Mg  Mg0  1  0.98174500  0.97217800  0.48971200  1
  Ti  Ti0  1  0.12813800  0.79348900  0.18672800  1
  Ti  Ti1  1  0.23091600  0.35258800  0.19927000  1
  Ti  Ti2  1  0.32189700  0.11993200  0.72445600  1
  V  V0  1  0.33121600  0.65041500  0.48616800  1
  V  V1  1  0.66211300  0.86552500  0.21012600  1
  V  V2  1  0.67682700  0.31926800  0.98974000  1
  V  V3  1  0.83658100  0.18870000  0.71758600  1
  V  V4  1  0.76578100  0.64775500  0.74770800  1
  O  O0  1  0.17211900  0.83801800  0.60175400  1
  O  O1  1  0.07189300  0.55340400  0.32727200  1
  O  O2  1  0.33990900  0.67591100  0.09865300  1
  O  O3  1  0.01704500  0.01069700  0.29425100  1
  O  O4  1  0.99811400  0.00277900  0.81266200  1
  O  O5  1  0.15166600  0.31515000  0.59173700  1
  O  O6  1  0.52635700  0.96298800  0.33699700  1
  O  O7  1  0.48820700  0.51774800  0.32607300  1
  O  O8  1  0.34379900  0.15757800  0.09965500  1
  O  O9  1  0.66811600  0.83275800  0.60176800  1
  O  O10  1  0.50024400  0.47340800  0.85562700  1
  O  O11  1  0.52203500  0.04402000  0.84738800  1
  O  O12  1  0.64480200  0.34684900  0.62611400  1
  O  O13  1  0.81427600  0.65944000  0.09949100  1
  O  O14  1  0.93679400  0.48843600  0.85103600  1
  O  O15  1  0.83816200  0.19032900  0.10089500  1
loop_
_geom_bond_atom_site_label_1
_geom_bond_atom_site_label_2
_geom_bond_distance
_geom_bond_site_symmetry_2
Mg0 O3 1.897218 1_665
Mg0 O9 1.974801 1_555
Mg0 O0 1.985143 1_655
Mg0 O5 2.016463 1_665
O0 Ti2 1.869029 1_565
O0 V0 2.120350 1_555
O0 V4 2.559921 1_455
O1 Ti0 1.862943 1_555
O1 V0 2.033122 1_555
O1 Ti1 2.244341 1_555
O2 Ti0 1.935329 1_555
O2 Ti1 1.942634 1_555
O2 V1 1.984516 1_555
O3 Ti1 2.001376 1_555
O3 V1 2.014942 1_445
O3 Ti0 2.017032 1_545
O4 Ti2 1.919827 1_655
O4 V4 1.956674 1_545
O4 V3 1.999505 1_555
O5 V0 2.002425 1_555
O5 V3 2.064596 1_455
O5 Ti2 2.260737 1_555
O6 V1 1.733234 1_555
O6 V0 2.171896 1_555
O6 Ti0 2.515291 1_555
O7 Ti1 1.811787 1_555
O7 V1 2.106651 1_555
O7 V0 2.165481 1_555
O8 Ti1 1.878932 1_555
O8 V2 2.045914 1_554
O8 Ti0 2.062872 1_545
O9 V4 2.024402 1_555
O9 V0 2.064186 1_555
O9 V3 2.141673 1_565
O10 V4 1.757666 1_555
O10 V2 2.124374 1_555
O10 Ti2 2.211120 1_555
O11 Ti2 1.876338 1_555
O11 V2 1.970991 1_555
O11 V3 2.077688 1_555
O12 V4 1.946842 1_555
O12 Ti2 1.977548 1_555
O12 V3 1.998700 1_555
O13 Ti0 1.830413 1_655
O13 V2 2.050690 1_554
O13 V1 2.149494 1_555
O14 V2 1.928347 1_555
O14 V4 1.959543 1_555
O14 V3 2.027709 1_555
O15 V2 1.829572 1_554
O15 V1 1.975594 1_545
O15 Ti1 2.248955 1_655
