# generated using pymatgen
data_Mn3H6(SO6)2
_symmetry_space_group_name_H-M   'P 1'
_cell_length_a   7.40510400
_cell_length_b   10.15798200
_cell_length_c   13.36050200
_cell_angle_alpha   90.00000000
_cell_angle_beta   90.00000000
_cell_angle_gamma   90.00000000
_symmetry_Int_Tables_number   1
_chemical_formula_structural   Mn3H6(SO6)2
_chemical_formula_sum   'Mn12 H24 S8 O48'
_cell_volume   1004.98916045
_cell_formula_units_Z   4
loop_
 _symmetry_equiv_pos_site_id
 _symmetry_equiv_pos_as_xyz
  1  'x, y, z'
loop_
 _atom_site_type_symbol
 _atom_site_label
 _atom_site_symmetry_multiplicity
 _atom_site_fract_x
 _atom_site_fract_y
 _atom_site_fract_z
 _atom_site_occupancy
  Mn  Mn0  1  0.06110100  0.53153700  0.62781600  1
  Mn  Mn1  1  0.93889900  0.46846300  0.37218400  1
  Mn  Mn2  1  0.93889900  0.46846300  0.12781600  1
  Mn  Mn3  1  0.93889900  0.03153700  0.87218400  1
  Mn  Mn4  1  0.06110100  0.53153700  0.87218400  1
  Mn  Mn5  1  0.06110100  0.96846300  0.12781600  1
  Mn  Mn6  1  0.06110100  0.96846300  0.37218400  1
  Mn  Mn7  1  0.93889900  0.03153700  0.62781600  1
  Mn  Mn8  1  0.29829600  0.25912400  0.25000000  1
  Mn  Mn9  1  0.70170400  0.74087600  0.75000000  1
  Mn  Mn10  1  0.70170400  0.75912400  0.25000000  1
  Mn  Mn11  1  0.29829600  0.24087600  0.75000000  1
  H  H0  1  0.05047900  0.75767900  0.25000000  1
  H  H1  1  0.94952100  0.24232100  0.75000000  1
  H  H2  1  0.94952100  0.25768000  0.25000000  1
  H  H3  1  0.05047900  0.74232100  0.75000000  1
  H  H4  1  0.59817300  0.33392500  0.07781900  1
  H  H5  1  0.40182700  0.66607500  0.92218100  1
  H  H6  1  0.40182700  0.66607500  0.57781900  1
  H  H7  1  0.40182700  0.83392500  0.42218100  1
  H  H8  1  0.59817300  0.33392500  0.42218100  1
  H  H9  1  0.59817300  0.16607500  0.57781900  1
  H  H10  1  0.59817300  0.16607500  0.92218100  1
  H  H11  1  0.40182700  0.83392500  0.07781900  1
  H  H12  1  0.70034900  0.38741700  0.98049600  1
  H  H13  1  0.29965100  0.61258300  0.01950400  1
  H  H14  1  0.29965100  0.61258300  0.48049600  1
  H  H15  1  0.29965100  0.88741700  0.51950400  1
  H  H16  1  0.70034900  0.38741700  0.51950400  1
  H  H17  1  0.70034900  0.11258300  0.48049600  1
  H  H18  1  0.70034900  0.11258300  0.01950400  1
  H  H19  1  0.29965100  0.88741700  0.98049600  1
  H  H20  1  0.33412000  0.01035000  0.25000000  1
  H  H21  1  0.66588000  0.98965000  0.75000000  1
  H  H22  1  0.66588000  0.51035000  0.25000000  1
  H  H23  1  0.33412000  0.48965000  0.75000000  1
  S  S0  1  0.30458700  0.58476400  0.25000000  1
  S  S1  1  0.69541300  0.41523600  0.75000000  1
  S  S2  1  0.69541300  0.08476400  0.25000000  1
  S  S3  1  0.30458700  0.91523600  0.75000000  1
  S  S4  1  0.21078800  0.25000000  0.00000000  1
  S  S5  1  0.78921200  0.75000000  0.00000000  1
  S  S6  1  0.78921200  0.75000000  0.50000000  1
  S  S7  1  0.21078800  0.25000000  0.50000000  1
  O  O0  1  0.58513100  0.20623000  0.25000000  1
  O  O1  1  0.41486900  0.79377000  0.75000000  1
  O  O2  1  0.41486900  0.70623000  0.25000000  1
  O  O3  1  0.58513100  0.29377000  0.75000000  1
  O  O4  1  0.32851900  0.25300000  0.08931500  1
  O  O5  1  0.67148100  0.74700000  0.91068500  1
  O  O6  1  0.67148100  0.74700000  0.58931500  1
  O  O7  1  0.67148100  0.75300000  0.41068500  1
  O  O8  1  0.32851900  0.25300000  0.41068500  1
  O  O9  1  0.32851900  0.24700000  0.58931500  1
  O  O10  1  0.32851900  0.24700000  0.91068500  1
  O  O11  1  0.67148100  0.75300000  0.08931500  1
  O  O12  1  0.09186100  0.12974600  0.00260800  1
  O  O13  1  0.90813900  0.87025400  0.99739200  1
  O  O14  1  0.90813900  0.87025400  0.50260800  1
  O  O15  1  0.90813900  0.62974600  0.49739200  1
  O  O16  1  0.09186100  0.12974600  0.49739200  1
  O  O17  1  0.09186100  0.37025400  0.50260800  1
  O  O18  1  0.09186100  0.37025400  0.99739200  1
  O  O19  1  0.90813900  0.62974600  0.00260800  1
  O  O20  1  0.69765800  0.38896800  0.05418100  1
  O  O21  1  0.30234200  0.61103200  0.94581900  1
  O  O22  1  0.30234200  0.61103200  0.55418100  1
  O  O23  1  0.30234200  0.88896800  0.44581900  1
  O  O24  1  0.69765800  0.38896800  0.44581900  1
  O  O25  1  0.69765800  0.11103200  0.55418100  1
  O  O26  1  0.69765800  0.11103200  0.94581900  1
  O  O27  1  0.30234200  0.88896800  0.05418100  1
  O  O28  1  0.21397200  0.05242900  0.25000000  1
  O  O29  1  0.78602800  0.94757100  0.75000000  1
  O  O30  1  0.78602800  0.55242900  0.25000000  1
  O  O31  1  0.21397200  0.44757100  0.75000000  1
  O  O32  1  0.18668900  0.58561000  0.15849700  1
  O  O33  1  0.81331100  0.41439000  0.84150300  1
  O  O34  1  0.81331100  0.41439000  0.65849700  1
  O  O35  1  0.81331100  0.08561000  0.34150300  1
  O  O36  1  0.18668900  0.58561000  0.34150300  1
  O  O37  1  0.18668900  0.91439000  0.65849700  1
  O  O38  1  0.18668900  0.91439000  0.84150300  1
  O  O39  1  0.81331100  0.08561000  0.15849700  1
  O  O40  1  0.02638400  0.33588400  0.25000000  1
  O  O41  1  0.97361600  0.66411600  0.75000000  1
  O  O42  1  0.97361600  0.83588400  0.25000000  1
  O  O43  1  0.02638400  0.16411600  0.75000000  1
  O  O44  1  0.42045500  0.46497900  0.25000000  1
  O  O45  1  0.57954500  0.53502100  0.75000000  1
  O  O46  1  0.57954500  0.96497900  0.25000000  1
  O  O47  1  0.42045500  0.03502100  0.75000000  1
loop_
_geom_bond_atom_site_label_1
_geom_bond_atom_site_label_2
_geom_bond_distance
_geom_bond_site_symmetry_2
Mn0 O31 2.161902 1_555
Mn0 O22 2.193447 1_555
Mn0 O41 2.213198 1_455
Mn0 O34 2.225078 1_455
Mn0 O15 2.305349 1_455
Mn0 O17 2.352518 1_555
Mn1 O30 2.161902 1_555
Mn1 O24 2.193447 1_555
Mn1 O40 2.213198 1_655
Mn1 O36 2.225078 1_655
Mn1 O17 2.305349 1_655
Mn1 O15 2.352518 1_555
Mn2 O30 2.161902 1_555
Mn2 O20 2.193447 1_555
Mn2 O40 2.213198 1_655
Mn2 O32 2.225078 1_655
Mn2 O18 2.305349 1_654
Mn2 O19 2.352518 1_555
Mn3 O29 2.161902 1_545
Mn3 O26 2.193447 1_555
Mn3 O43 2.213198 1_655
Mn3 O38 2.225078 1_645
Mn3 O12 2.305349 1_656
Mn3 O13 2.352518 1_545
Mn4 O31 2.161902 1_555
Mn4 O21 2.193447 1_555
Mn4 O41 2.213198 1_455
Mn4 O33 2.225078 1_455
Mn4 O19 2.305349 1_456
Mn4 O18 2.352518 1_555
Mn5 O28 2.161902 1_565
Mn5 O27 2.193447 1_555
Mn5 O42 2.213198 1_455
Mn5 O39 2.225078 1_465
Mn5 O13 2.305349 1_454
Mn5 O12 2.352518 1_565
Mn6 O28 2.161902 1_565
Mn6 O23 2.193447 1_555
Mn6 O42 2.213198 1_455
Mn6 O35 2.225078 1_465
Mn6 O14 2.305349 1_455
Mn6 O16 2.352518 1_565
Mn7 O29 2.161902 1_545
Mn7 O25 2.193447 1_555
Mn7 O43 2.213198 1_655
Mn7 O37 2.225078 1_645
Mn7 O16 2.305349 1_655
Mn7 O14 2.352518 1_545
Mn8 O40 2.159237 1_555
Mn8 O4 2.159363 1_555
Mn8 O8 2.159363 1_555
Mn8 O28 2.190490 1_555
Mn8 O0 2.190946 1_555
Mn8 O44 2.278350 1_555
Mn9 O41 2.159237 1_555
Mn9 O6 2.159363 1_555
Mn9 O5 2.159363 1_555
Mn9 O29 2.190490 1_555
Mn9 O1 2.190946 1_555
Mn9 O45 2.278350 1_555
Mn10 O42 2.159237 1_555
Mn10 O11 2.159363 1_555
Mn10 O7 2.159363 1_555
Mn10 O30 2.190490 1_555
Mn10 O2 2.190946 1_555
Mn10 O46 2.278350 1_555
Mn11 O43 2.159237 1_555
Mn11 O10 2.159363 1_555
Mn11 O9 2.159363 1_555
Mn11 O31 2.190490 1_555
Mn11 O3 2.190946 1_555
Mn11 O47 2.278350 1_555
H0 O42 0.977263 1_455
H1 O43 0.977263 1_655
H2 O40 0.977255 1_655
H3 O41 0.977263 1_455
H4 O20 0.977284 1_555
H5 O21 0.977284 1_555
H6 O22 0.977284 1_555
H7 O23 0.977284 1_555
H8 O24 0.977284 1_555
H9 O25 0.977284 1_555
H10 O26 0.977284 1_555
H11 O27 0.977284 1_555
H12 O20 0.984796 1_556
H13 O21 0.984796 1_554
H14 O22 0.984796 1_555
H15 O23 0.984796 1_555
H16 O24 0.984796 1_555
H17 O25 0.984796 1_555
H18 O26 0.984796 1_554
H19 O27 0.984796 1_556
H20 O28 0.987058 1_555
H21 O29 0.987058 1_555
H22 O30 0.987058 1_555
H23 O31 0.987058 1_555
O0 S2 1.479629 1_555
O1 S3 1.479629 1_555
O2 S0 1.479629 1_555
O3 S1 1.479629 1_555
O4 S4 1.478151 1_555
O5 S5 1.478151 1_556
O6 S6 1.478151 1_555
O7 S6 1.478151 1_555
O8 S7 1.478151 1_555
O9 S7 1.478151 1_555
O10 S4 1.478151 1_556
O11 S5 1.478151 1_555
O12 S4 1.506301 1_555
O13 S5 1.506301 1_556
O14 S6 1.506301 1_555
O15 S6 1.506301 1_555
O16 S7 1.506301 1_555
O17 S7 1.506301 1_555
O18 S4 1.506301 1_556
O19 S5 1.506301 1_555
O32 S0 1.502283 1_555
O33 S1 1.502283 1_555
O34 S1 1.502283 1_555
O35 S2 1.502283 1_555
O36 S0 1.502283 1_555
O37 S3 1.502283 1_555
O38 S3 1.502283 1_555
O39 S2 1.502283 1_555
O44 S0 1.488868 1_555
O45 S1 1.488868 1_555
O46 S2 1.488868 1_565
O47 S3 1.488868 1_545
