# generated using pymatgen
data_SrReN2
_symmetry_space_group_name_H-M   'P 1'
_cell_length_a   6.92622416
_cell_length_b   7.41009000
_cell_length_c   5.13795924
_cell_angle_alpha   90.00000000
_cell_angle_beta   111.78027324
_cell_angle_gamma   90.00000000
_symmetry_Int_Tables_number   1
_chemical_formula_structural   SrReN2
_chemical_formula_sum   'Sr4 Re4 N8'
_cell_volume   244.87572523
_cell_formula_units_Z   4
loop_
 _symmetry_equiv_pos_site_id
 _symmetry_equiv_pos_as_xyz
  1  'x, y, z'
loop_
 _atom_site_type_symbol
 _atom_site_label
 _atom_site_symmetry_multiplicity
 _atom_site_fract_x
 _atom_site_fract_y
 _atom_site_fract_z
 _atom_site_occupancy
  Sr  Sr0  1  0.33039600  0.91124000  0.66521600  1
  Sr  Sr1  1  0.66960400  0.41124000  0.83478400  1
  Sr  Sr2  1  0.66960400  0.08876000  0.33478400  1
  Sr  Sr3  1  0.33039600  0.58876000  0.16521600  1
  Re  Re0  1  0.14046500  0.34347400  0.57026700  1
  Re  Re1  1  0.85953500  0.84347400  0.92973300  1
  Re  Re2  1  0.85953500  0.65652600  0.42973300  1
  Re  Re3  1  0.14046500  0.15652600  0.07026700  1
  N  N0  1  0.17993100  0.90416800  0.08998000  1
  N  N1  1  0.82006900  0.40416800  0.41002000  1
  N  N2  1  0.82006900  0.09583200  0.91002000  1
  N  N3  1  0.17993100  0.59583200  0.58998000  1
  N  N4  1  0.34606500  0.24990900  0.92295800  1
  N  N5  1  0.65393500  0.74990900  0.57704200  1
  N  N6  1  0.65393500  0.75009100  0.07704200  1
  N  N7  1  0.34606500  0.25009100  0.42295800  1
loop_
_geom_bond_atom_site_label_1
_geom_bond_atom_site_label_2
_geom_bond_distance
_geom_bond_site_symmetry_2
N0 Re3 1.887145 1_565
N0 Re1 2.109226 1_454
N0 Sr3 2.529638 1_555
N0 Sr0 2.745595 1_555
N0 Sr0 2.745838 1_554
N1 Re2 1.887145 1_555
N1 Re0 2.109226 1_655
N1 Sr2 2.529638 1_555
N1 Sr1 2.745595 1_554
N1 Sr1 2.745838 1_555
N2 Re1 1.887145 1_545
N2 Re3 2.109226 1_656
N2 Sr1 2.529638 1_555
N2 Sr2 2.745595 1_555
N2 Sr2 2.745838 1_556
N3 Re0 1.887145 1_555
N3 Re2 2.109226 1_455
N3 Sr0 2.529638 1_555
N3 Sr3 2.745595 1_556
N3 Sr3 2.745838 1_555
N4 Re0 1.969094 1_555
N4 Re3 1.969614 1_556
N4 Sr2 2.721410 1_556
N4 Sr1 2.722028 1_555
N4 Sr0 2.820770 1_545
N4 Sr3 2.822416 1_556
N5 Re1 1.969094 1_555
N5 Re2 1.969614 1_555
N5 Sr3 2.721410 1_555
N5 Sr0 2.722028 1_555
N5 Sr1 2.820770 1_555
N5 Sr2 2.822416 1_565
N6 Re2 1.969094 1_555
N6 Re1 1.969614 1_554
N6 Sr0 2.721410 1_554
N6 Sr3 2.722028 1_555
N6 Sr2 2.820770 1_565
N6 Sr1 2.822416 1_554
N7 Re3 1.969094 1_555
N7 Re0 1.969614 1_555
N7 Sr1 2.721410 1_555
N7 Sr2 2.722028 1_555
N7 Sr3 2.820770 1_555
N7 Sr0 2.822416 1_545
