# generated using pymatgen
data_RbLiMg14
_symmetry_space_group_name_H-M   'P 1'
_cell_length_a   6.57427995
_cell_length_b   6.38912026
_cell_length_c   10.80467568
_cell_angle_alpha   90.00000000
_cell_angle_beta   90.00000000
_cell_angle_gamma   119.07263206
_symmetry_Int_Tables_number   1
_chemical_formula_structural   RbLiMg14
_chemical_formula_sum   'Rb1 Li1 Mg14'
_cell_volume   396.65654436
_cell_formula_units_Z   1
loop_
 _symmetry_equiv_pos_site_id
 _symmetry_equiv_pos_as_xyz
  1  'x, y, z'
loop_
 _atom_site_type_symbol
 _atom_site_label
 _atom_site_symmetry_multiplicity
 _atom_site_fract_x
 _atom_site_fract_y
 _atom_site_fract_z
 _atom_site_occupancy
  Rb  Rb0  1  0.16352223  0.83176062  0.12500000  1
  Li  Li0  1  0.16776680  0.33388290  0.12500000  1
  Mg  Mg0  1  0.16296799  0.33148350  0.62500000  1
  Mg  Mg1  1  0.16520990  0.83260445  0.62500000  1
  Mg  Mg2  1  0.66408429  0.33469762  0.12500000  1
  Mg  Mg3  1  0.66691937  0.33146888  0.62500000  1
  Mg  Mg4  1  0.66408429  0.82938568  0.12500000  1
  Mg  Mg5  1  0.66691937  0.83544949  0.62500000  1
  Mg  Mg6  1  0.34161007  0.17707861  0.39283646  1
  Mg  Mg7  1  0.34161007  0.17707861  0.85716354  1
  Mg  Mg8  1  0.34161007  0.66453246  0.39283646  1
  Mg  Mg9  1  0.34161007  0.66453246  0.85716354  1
  Mg  Mg10  1  0.83351390  0.16675745  0.37133717  1
  Mg  Mg11  1  0.83351390  0.16675745  0.87866283  1
  Mg  Mg12  1  0.82252885  0.66126492  0.39161114  1
  Mg  Mg13  1  0.82252885  0.66126492  0.85838886  1
loop_
_geom_bond_atom_site_label_1
_geom_bond_atom_site_label_2
_geom_bond_distance
_geom_bond_site_symmetry_2
Li0 Rb0 3.194653 1_545
Li0 Rb0 3.194653 1_555
Li0 Mg4 3.260404 1_555
Li0 Mg2 3.260404 1_555
Li0 Mg11 3.282192 1_454
Li0 Mg10 3.282192 1_455
Li0 Mg4 3.313882 1_445
Li0 Mg2 3.313882 1_455
Li0 Mg6 3.434708 1_555
Li0 Mg7 3.434708 1_554
Li0 Mg8 3.434714 1_555
Li0 Mg9 3.434714 1_554
Mg0 Mg7 3.125831 1_555
Mg0 Mg6 3.125831 1_555
Mg0 Mg8 3.125838 1_555
Mg0 Mg9 3.125838 1_555
Mg0 Mg1 3.194586 1_555
Mg0 Mg1 3.194586 1_545
Mg0 Mg5 3.261117 1_445
Mg0 Mg3 3.261117 1_455
Mg0 Mg5 3.313163 1_555
Mg0 Mg3 3.313163 1_555
Mg0 Mg11 3.330950 1_455
Mg0 Mg10 3.330950 1_455
Mg1 Mg8 3.162375 1_555
Mg1 Mg9 3.162375 1_555
Mg1 Mg7 3.162381 1_565
Mg1 Mg6 3.162381 1_565
Mg1 Mg12 3.199374 1_455
Mg1 Mg13 3.199374 1_455
Mg1 Mg3 3.284772 1_455
Mg1 Mg5 3.284773 1_455
Mg1 Mg3 3.289584 1_565
Mg1 Mg5 3.289584 1_555
Mg2 Mg4 3.160622 1_555
Mg2 Mg4 3.228499 1_545
Mg2 Rb0 3.276098 1_655
Mg2 Rb0 3.298235 1_545
Mg2 Mg6 3.436339 1_555
Mg2 Mg7 3.436339 1_554
Mg3 Mg7 3.128749 1_555
Mg3 Mg6 3.128749 1_555
Mg3 Mg5 3.169128 1_545
Mg3 Mg5 3.219993 1_555
Mg4 Rb0 3.276098 1_655
Mg4 Rb0 3.298235 1_555
Mg4 Mg8 3.436339 1_555
Mg4 Mg9 3.436339 1_554
Mg5 Mg9 3.128748 1_555
Mg5 Mg8 3.128748 1_555
Mg6 Mg8 3.114401 1_555
Mg6 Mg8 3.274719 1_545
Mg6 Rb0 3.478887 1_545
Mg7 Mg9 3.114401 1_555
Mg7 Mg9 3.274719 1_545
Mg7 Rb0 3.478887 1_546
Mg8 Rb0 3.478881 1_555
Mg9 Rb0 3.478881 1_556
Mg10 Mg12 3.202684 1_555
Mg10 Mg12 3.202684 1_545
Mg10 Mg2 3.261538 1_555
Mg10 Mg4 3.261544 1_545
Mg10 Mg8 3.274714 1_545
Mg10 Mg6 3.274714 1_555
Mg10 Mg3 3.307389 1_555
Mg10 Mg5 3.307395 1_545
Mg10 Mg8 3.316969 1_655
Mg10 Mg6 3.316969 1_655
Mg11 Mg13 3.202684 1_555
Mg11 Mg13 3.202684 1_545
Mg11 Mg2 3.261538 1_556
Mg11 Mg4 3.261544 1_546
Mg11 Mg9 3.274714 1_545
Mg11 Mg7 3.274714 1_555
Mg11 Mg3 3.307389 1_555
Mg11 Mg5 3.307395 1_545
Mg11 Mg9 3.316969 1_655
Mg11 Mg7 3.316969 1_655
Mg12 Mg5 3.122571 1_555
Mg12 Mg3 3.122578 1_555
Mg12 Mg6 3.171919 1_555
Mg12 Mg8 3.171919 1_555
Mg12 Mg6 3.402515 1_665
Mg12 Mg8 3.402516 1_655
Mg12 Mg4 3.409449 1_555
Mg12 Mg2 3.409455 1_555
Mg12 Rb0 3.483835 1_655
Mg13 Mg5 3.122571 1_555
Mg13 Mg3 3.122578 1_555
Mg13 Mg7 3.171919 1_555
Mg13 Mg9 3.171919 1_555
Mg13 Mg7 3.402515 1_665
Mg13 Mg9 3.402516 1_655
Mg13 Mg4 3.409449 1_556
Mg13 Mg2 3.409455 1_556
Mg13 Rb0 3.483835 1_656
