# generated using pymatgen
data_CsLa2Br7
_symmetry_space_group_name_H-M   'P 1'
_cell_length_a   7.70745881
_cell_length_b   14.00506886
_cell_length_c   14.15818141
_cell_angle_alpha   90.00000000
_cell_angle_beta   90.00000000
_cell_angle_gamma   90.00000000
_symmetry_Int_Tables_number   1
_chemical_formula_structural   CsLa2Br7
_chemical_formula_sum   'Cs4 La8 Br28'
_cell_volume   1528.28353284
_cell_formula_units_Z   4
loop_
 _symmetry_equiv_pos_site_id
 _symmetry_equiv_pos_as_xyz
  1  'x, y, z'
loop_
 _atom_site_type_symbol
 _atom_site_label
 _atom_site_symmetry_multiplicity
 _atom_site_fract_x
 _atom_site_fract_y
 _atom_site_fract_z
 _atom_site_occupancy
  Cs  Cs0  1  0.25000000  0.80486514  0.04495755  1
  Cs  Cs1  1  0.75000000  0.19513486  0.95504245  1
  Cs  Cs2  1  0.75000000  0.30486514  0.45504245  1
  Cs  Cs3  1  0.25000000  0.69513486  0.54495755  1
  La  La0  1  0.25000000  0.46038903  0.23572173  1
  La  La1  1  0.75000000  0.53961097  0.76427827  1
  La  La2  1  0.75000000  0.96038903  0.26427827  1
  La  La3  1  0.25000000  0.03961097  0.73572173  1
  La  La4  1  0.25000000  0.15715999  0.24825831  1
  La  La5  1  0.75000000  0.84284001  0.75174169  1
  La  La6  1  0.75000000  0.65715999  0.25174169  1
  La  La7  1  0.25000000  0.34284001  0.74825831  1
  Br  Br0  1  0.00421349  0.30684664  0.17207845  1
  Br  Br1  1  -0.00421349  0.69315336  0.82792155  1
  Br  Br2  1  -0.00421349  0.80684664  0.32792155  1
  Br  Br3  1  0.50421349  0.69315336  0.82792155  1
  Br  Br4  1  0.00421349  0.19315336  0.67207845  1
  Br  Br5  1  0.49578651  0.30684664  0.17207845  1
  Br  Br6  1  0.49578651  0.19315336  0.67207845  1
  Br  Br7  1  0.50421349  0.80684664  0.32792155  1
  Br  Br8  1  0.00995954  0.57915043  0.11604155  1
  Br  Br9  1  0.99004046  0.42084957  0.88395845  1
  Br  Br10  1  0.99004046  0.07915043  0.38395845  1
  Br  Br11  1  0.50995954  0.42084957  0.88395845  1
  Br  Br12  1  0.00995954  0.92084957  0.61604155  1
  Br  Br13  1  0.49004046  0.57915043  0.11604155  1
  Br  Br14  1  0.49004046  0.92084957  0.61604155  1
  Br  Br15  1  0.50995954  0.07915043  0.38395845  1
  Br  Br16  1  0.00926201  0.03932394  0.12688968  1
  Br  Br17  1  0.99073799  0.96067606  0.87311032  1
  Br  Br18  1  0.99073799  0.53932394  0.37311032  1
  Br  Br19  1  0.50926201  0.96067606  0.87311032  1
  Br  Br20  1  0.00926201  0.46067606  0.62688968  1
  Br  Br21  1  0.49073799  0.03932394  0.12688968  1
  Br  Br22  1  0.49073799  0.46067606  0.62688968  1
  Br  Br23  1  0.50926201  0.53932394  0.37311032  1
  Br  Br24  1  0.25000000  0.31246676  0.39681517  1
  Br  Br25  1  0.75000000  0.68753324  0.60318483  1
  Br  Br26  1  0.75000000  0.81246676  0.10318483  1
  Br  Br27  1  0.25000000  0.18753324  0.89681517  1
loop_
_geom_bond_atom_site_label_1
_geom_bond_atom_site_label_2
_geom_bond_distance
_geom_bond_site_symmetry_2
Br0 La0 3.004121 1_555
Br0 La4 3.024367 1_555
Br0 Cs1 3.965991 1_454
Br1 La1 3.004121 1_455
Br1 La5 3.024367 1_455
Br1 Cs0 3.965991 1_556
Br2 La2 3.004121 1_455
Br2 La6 3.024367 1_455
Br2 Cs3 3.965991 1_555
Br3 La1 3.004121 1_555
Br3 La5 3.024367 1_555
Br3 Cs0 3.965991 1_556
Br4 La3 3.004121 1_555
Br4 La7 3.024367 1_555
Br4 Cs2 3.965991 1_455
Br5 La0 3.004121 1_555
Br5 La4 3.024367 1_555
Br5 Cs1 3.965991 1_554
Br6 La3 3.004121 1_555
Br6 La7 3.024367 1_555
Br6 Cs2 3.965991 1_555
Br7 La2 3.004121 1_555
Br7 La6 3.024367 1_555
Br7 Cs3 3.965991 1_555
Br8 La6 2.983188 1_455
Br8 La0 3.010065 1_555
Br8 Cs0 3.798503 1_555
Br9 La7 2.983188 1_655
Br9 La1 3.010065 1_555
Br9 Cs1 3.798503 1_555
Br10 La4 2.983188 1_655
Br10 La2 3.010065 1_545
Br10 Cs2 3.798503 1_555
Br11 La7 2.983188 1_555
Br11 La1 3.010065 1_555
Br11 Cs1 3.798503 1_555
Br12 La5 2.983188 1_455
Br12 La3 3.010065 1_565
Br12 Cs3 3.798503 1_555
Br13 La6 2.983188 1_555
Br13 La0 3.010065 1_555
Br13 Cs0 3.798503 1_555
Br14 La5 2.983188 1_555
Br14 La3 3.010065 1_565
Br14 Cs3 3.798503 1_555
Br15 La4 2.983188 1_555
Br15 La2 3.010065 1_545
Br15 Cs2 3.798503 1_555
Br16 La2 2.999802 1_445
Br16 La4 3.019777 1_555
Br16 Cs1 3.830726 1_454
Br16 Cs0 3.945951 1_545
Br17 La3 2.999802 1_665
Br17 La5 3.019777 1_555
Br17 Cs0 3.830726 1_656
Br17 Cs1 3.945951 1_565
Br18 La0 2.999802 1_655
Br18 La6 3.019777 1_555
Br18 Cs3 3.830726 1_655
Br18 Cs2 3.945951 1_555
Br19 La3 2.999802 1_565
Br19 La5 3.019777 1_555
Br19 Cs0 3.830726 1_556
Br19 Cs1 3.945951 1_565
Br20 La1 2.999802 1_455
Br20 La7 3.019777 1_555
Br20 Cs2 3.830726 1_455
Br20 Cs3 3.945951 1_555
Br21 La2 2.999802 1_545
Br21 La4 3.019777 1_555
Br21 Cs1 3.830726 1_554
Br21 Cs0 3.945951 1_545
Br22 La1 2.999802 1_555
Br22 La7 3.019777 1_555
Br22 Cs2 3.830726 1_555
Br22 Cs3 3.945951 1_555
Br23 La0 2.999802 1_555
Br23 La6 3.019777 1_555
Br23 Cs3 3.830726 1_555
Br23 Cs2 3.945951 1_555
Br24 La4 3.025695 1_555
Br24 La0 3.081199 1_555
Br24 Cs2 3.942358 1_455
Br24 Cs2 3.942358 1_555
Br25 La5 3.025695 1_555
Br25 La1 3.081199 1_555
Br25 Cs3 3.942358 1_555
Br25 Cs3 3.942358 1_655
Br26 La6 3.025695 1_555
Br26 La2 3.081199 1_555
Br26 Cs0 3.942358 1_655
Br26 Cs0 3.942358 1_555
Br27 La7 3.025695 1_555
Br27 La3 3.081199 1_555
Br27 Cs1 3.942358 1_555
Br27 Cs1 3.942358 1_455
