# generated using pymatgen
data_Si3As(H3C)9
_symmetry_space_group_name_H-M   'P 1'
_cell_length_a   16.29789300
_cell_length_b   10.60881700
_cell_length_c   13.31873032
_cell_angle_alpha   65.03880057
_cell_angle_beta   90.00000000
_cell_angle_gamma   90.00000000
_symmetry_Int_Tables_number   1
_chemical_formula_structural   Si3As(H3C)9
_chemical_formula_sum   'Si12 As4 H108 C36'
_cell_volume   2087.72829996
_cell_formula_units_Z   4
loop_
 _symmetry_equiv_pos_site_id
 _symmetry_equiv_pos_as_xyz
  1  'x, y, z'
loop_
 _atom_site_type_symbol
 _atom_site_label
 _atom_site_symmetry_multiplicity
 _atom_site_fract_x
 _atom_site_fract_y
 _atom_site_fract_z
 _atom_site_occupancy
  Si  Si0  1  0.65881300  0.40950100  0.89909700  1
  Si  Si1  1  0.84118700  0.40950100  0.39909700  1
  Si  Si2  1  0.34118700  0.59049900  0.10090300  1
  Si  Si3  1  0.15881300  0.59049900  0.60090300  1
  Si  Si4  1  0.88369900  0.28960900  0.93702500  1
  Si  Si5  1  0.61630100  0.28960900  0.43702500  1
  Si  Si6  1  0.11630100  0.71039100  0.06297500  1
  Si  Si7  1  0.38369900  0.71039100  0.56297500  1
  Si  Si8  1  0.70791800  0.01920300  0.02633400  1
  Si  Si9  1  0.79208200  0.01920300  0.52633400  1
  Si  Si10  1  0.29208200  0.98079700  0.97366600  1
  Si  Si11  1  0.20791800  0.98079700  0.47366600  1
  As  As0  1  0.75080400  0.23789900  0.02376000  1
  As  As1  1  0.74919600  0.23789900  0.52376000  1
  As  As2  1  0.24919600  0.76210100  0.97624000  1
  As  As3  1  0.25080400  0.76210100  0.47624000  1
  H  H0  1  0.50724800  0.42349500  0.88235200  1
  H  H1  1  0.99275200  0.42349500  0.38235200  1
  H  H2  1  0.49275200  0.57650500  0.11764800  1
  H  H3  1  0.00724800  0.57650500  0.61764800  1
  H  H4  1  0.53961400  0.24701000  0.93696300  1
  H  H5  1  0.96038600  0.24701000  0.43696300  1
  H  H6  1  0.46038600  0.75299000  0.06303700  1
  H  H7  1  0.03961400  0.75299000  0.56303700  1
  H  H8  1  0.53645800  0.33687000  0.02404200  1
  H  H9  1  0.96354200  0.33687000  0.52404200  1
  H  H10  1  0.46354200  0.66313000  0.97595800  1
  H  H11  1  0.03645800  0.66313000  0.47595800  1
  H  H12  1  0.63048300  0.65507800  0.86192900  1
  H  H13  1  0.86951700  0.65507800  0.36192900  1
  H  H14  1  0.36951700  0.34492200  0.13807100  1
  H  H15  1  0.13048300  0.34492200  0.63807100  1
  H  H16  1  0.65552200  0.55852200  0.00407500  1
  H  H17  1  0.84447800  0.55852200  0.50407500  1
  H  H18  1  0.34447800  0.44147800  0.99592500  1
  H  H19  1  0.15552200  0.44147800  0.49592500  1
  H  H20  1  0.73462500  0.61399100  0.90238200  1
  H  H21  1  0.76537500  0.61399100  0.40238200  1
  H  H22  1  0.26537500  0.38600900  0.09761800  1
  H  H23  1  0.23462500  0.38600900  0.59761800  1
  H  H24  1  0.96402900  0.50708900  0.84602700  1
  H  H25  1  0.53597100  0.50708900  0.34602700  1
  H  H26  1  0.03597100  0.49291100  0.15397300  1
  H  H27  1  0.46402900  0.49291100  0.65397300  1
  H  H28  1  0.85740000  0.54407000  0.82774600  1
  H  H29  1  0.64260000  0.54407000  0.32774600  1
  H  H30  1  0.14260000  0.45593000  0.17225400  1
  H  H31  1  0.35740000  0.45593000  0.67225400  1
  H  H32  1  0.90519400  0.51160500  0.95701800  1
  H  H33  1  0.59480600  0.51160500  0.45701800  1
  H  H34  1  0.09480600  0.48839500  0.04298200  1
  H  H35  1  0.40519400  0.48839500  0.54298200  1
  H  H36  1  0.60345300  0.84758100  0.13908800  1
  H  H37  1  0.89654700  0.84758100  0.63908800  1
  H  H38  1  0.39654700  0.15241900  0.86091200  1
  H  H39  1  0.10345300  0.15241900  0.36091200  1
  H  H40  1  0.64858200  0.92890100  0.21826500  1
  H  H41  1  0.85141800  0.92890100  0.71826500  1
  H  H42  1  0.35141800  0.07109900  0.78173500  1
  H  H43  1  0.14858200  0.07109900  0.28173500  1
  H  H44  1  0.57262300  0.01809100  0.11741800  1
  H  H45  1  0.92737700  0.01809100  0.61741800  1
  H  H46  1  0.42737700  0.98190900  0.88258200  1
  H  H47  1  0.07262300  0.98190900  0.38258200  1
  H  H48  1  0.02361900  0.21478400  0.01103900  1
  H  H49  1  0.47638100  0.21478400  0.51103900  1
  H  H50  1  0.97638100  0.78521600  0.98896100  1
  H  H51  1  0.52361900  0.78521600  0.48896100  1
  H  H52  1  0.96096400  0.22957000  0.11484600  1
  H  H53  1  0.53903600  0.22957000  0.61484600  1
  H  H54  1  0.03903600  0.77043000  0.88515400  1
  H  H55  1  0.46096400  0.77043000  0.38515400  1
  H  H56  1  0.95160500  0.08177000  0.08500700  1
  H  H57  1  0.54839500  0.08177000  0.58500700  1
  H  H58  1  0.04839500  0.91823000  0.91499300  1
  H  H59  1  0.45160500  0.91823000  0.41499300  1
  H  H60  1  0.78015700  0.79486300  0.07477700  1
  H  H61  1  0.71984300  0.79486300  0.57477700  1
  H  H62  1  0.21984300  0.20513700  0.92522300  1
  H  H63  1  0.28015700  0.20513700  0.42522300  1
  H  H64  1  0.85038500  0.93593600  0.01900000  1
  H  H65  1  0.64961500  0.93593600  0.51900000  1
  H  H66  1  0.14961500  0.06406400  0.98100000  1
  H  H67  1  0.35038500  0.06406400  0.48100000  1
  H  H68  1  0.81566200  0.87749100  0.15866800  1
  H  H69  1  0.68433800  0.87749100  0.65866800  1
  H  H70  1  0.18433800  0.12250900  0.84133200  1
  H  H71  1  0.31566200  0.12250900  0.34133200  1
  H  H72  1  0.96225200  0.26997500  0.78287300  1
  H  H73  1  0.53774800  0.26997500  0.28287300  1
  H  H74  1  0.03774800  0.73002500  0.21712700  1
  H  H75  1  0.46225200  0.73002500  0.71712700  1
  H  H76  1  0.89266200  0.12911200  0.84411200  1
  H  H77  1  0.60733800  0.12911200  0.34411200  1
  H  H78  1  0.10733800  0.87088800  0.15588800  1
  H  H79  1  0.39266200  0.87088800  0.65588800  1
  H  H80  1  0.85560300  0.29433100  0.75044300  1
  H  H81  1  0.64439700  0.29433100  0.25044300  1
  H  H82  1  0.14439700  0.70566900  0.24955700  1
  H  H83  1  0.35560300  0.70566900  0.74955700  1
  H  H84  1  0.62930500  0.52927200  0.69534000  1
  H  H85  1  0.87069500  0.52927200  0.19534000  1
  H  H86  1  0.37069500  0.47072800  0.30466000  1
  H  H87  1  0.12930500  0.47072800  0.80466000  1
  H  H88  1  0.73553200  0.49202800  0.72113900  1
  H  H89  1  0.76446800  0.49202800  0.22113900  1
  H  H90  1  0.26446800  0.50797200  0.27886100  1
  H  H91  1  0.23553200  0.50797200  0.77886100  1
  H  H92  1  0.66665000  0.35697500  0.73319700  1
  H  H93  1  0.83335000  0.35697500  0.23319700  1
  H  H94  1  0.33335000  0.64302500  0.26680300  1
  H  H95  1  0.16665000  0.64302500  0.76680300  1
  H  H96  1  0.64980900  0.92014600  0.90101900  1
  H  H97  1  0.85019100  0.92014600  0.40101900  1
  H  H98  1  0.35019100  0.07985400  0.09898100  1
  H  H99  1  0.14980900  0.07985400  0.59898100  1
  H  H100  1  0.61256900  0.09114300  0.86539400  1
  H  H101  1  0.88743100  0.09114300  0.36539400  1
  H  H102  1  0.38743100  0.90885700  0.13460600  1
  H  H103  1  0.11256900  0.90885700  0.63460600  1
  H  H104  1  0.71303800  0.06692500  0.82513300  1
  H  H105  1  0.78696200  0.06692500  0.32513300  1
  H  H106  1  0.28696200  0.93307500  0.17486700  1
  H  H107  1  0.21303800  0.93307500  0.67486700  1
  C  C0  1  0.55036900  0.34765100  0.94024900  1
  C  C1  1  0.94963100  0.34765100  0.44024900  1
  C  C2  1  0.44963100  0.65234900  0.05975100  1
  C  C3  1  0.05036900  0.65234900  0.55975100  1
  C  C4  1  0.67158500  0.57435200  0.91942900  1
  C  C5  1  0.82841500  0.57435200  0.41942900  1
  C  C6  1  0.32841500  0.42564800  0.08057100  1
  C  C7  1  0.17158500  0.42564800  0.58057100  1
  C  C8  1  0.90391700  0.48151200  0.88757700  1
  C  C9  1  0.59608300  0.48151200  0.38757700  1
  C  C10  1  0.09608300  0.51848800  0.11242300  1
  C  C11  1  0.40391700  0.51848800  0.61242300  1
  C  C12  1  0.62544900  0.94769600  0.13564900  1
  C  C13  1  0.87455100  0.94769600  0.63564900  1
  C  C14  1  0.37455100  0.05230400  0.86435100  1
  C  C15  1  0.12544900  0.05230400  0.36435100  1
  C  C16  1  0.96182400  0.19474300  0.04802600  1
  C  C17  1  0.53817600  0.19474300  0.54802600  1
  C  C18  1  0.03817600  0.80525700  0.95197400  1
  C  C19  1  0.46182400  0.80525700  0.45197400  1
  C  C20  1  0.79748300  0.89563800  0.07421700  1
  C  C21  1  0.70251700  0.89563800  0.57421700  1
  C  C22  1  0.20251700  0.10436200  0.92578300  1
  C  C23  1  0.29748300  0.10436200  0.42578300  1
  C  C24  1  0.89989700  0.24178500  0.81716500  1
  C  C25  1  0.60010300  0.24178500  0.31716500  1
  C  C26  1  0.10010300  0.75821500  0.18283500  1
  C  C27  1  0.39989700  0.75821500  0.68283500  1
  C  C28  1  0.67373200  0.45101600  0.74800700  1
  C  C29  1  0.82626800  0.45101600  0.24800700  1
  C  C30  1  0.32626800  0.54898400  0.25199300  1
  C  C31  1  0.17373200  0.54898400  0.75199300  1
  C  C32  1  0.66739000  0.02513800  0.89169700  1
  C  C33  1  0.83261000  0.02513800  0.39169700  1
  C  C34  1  0.33261000  0.97486200  0.10830300  1
  C  C35  1  0.16739000  0.97486200  0.60830300  1
loop_
_geom_bond_atom_site_label_1
_geom_bond_atom_site_label_2
_geom_bond_distance
_geom_bond_site_symmetry_2
As0 Si0 2.401582 1_554
As0 Si4 2.406600 1_554
As0 Si8 2.409454 1_555
As1 Si1 2.401582 1_555
As1 Si5 2.406600 1_555
As1 Si9 2.409454 1_555
As2 Si2 2.401582 1_556
As2 Si6 2.406600 1_556
As2 Si10 2.409454 1_555
As3 Si3 2.401582 1_555
As3 Si7 2.406600 1_555
As3 Si11 2.409454 1_555
C0 H8 1.096469 1_556
C0 H4 1.100919 1_555
C0 H0 1.101026 1_555
C0 Si0 1.884448 1_555
C1 H9 1.096469 1_555
C1 H5 1.100919 1_555
C1 H1 1.101026 1_555
C1 Si1 1.884448 1_555
C2 H10 1.096469 1_554
C2 H6 1.100919 1_555
C2 H2 1.101026 1_555
C2 Si2 1.884448 1_555
C3 H11 1.096469 1_555
C3 H7 1.100919 1_555
C3 H3 1.101026 1_555
C3 Si3 1.884448 1_555
C4 H20 1.096994 1_555
C4 H16 1.099055 1_556
C4 H12 1.102319 1_555
C4 Si0 1.890749 1_555
C5 H21 1.096994 1_555
C5 H17 1.099055 1_555
C5 H13 1.102319 1_555
C5 Si1 1.890749 1_555
C6 H22 1.096994 1_555
C6 H18 1.099055 1_554
C6 H14 1.102319 1_555
C6 Si2 1.890749 1_555
C7 H23 1.096994 1_555
C7 H19 1.099055 1_555
C7 H15 1.102319 1_555
C7 Si3 1.890749 1_555
C8 H28 1.097205 1_555
C8 H32 1.098607 1_555
C8 H24 1.101338 1_555
C8 Si4 1.885581 1_555
C9 H29 1.097205 1_555
C9 H33 1.098607 1_555
C9 H25 1.101338 1_555
C9 Si5 1.885581 1_555
C10 H30 1.097205 1_555
C10 H34 1.098607 1_555
C10 H26 1.101338 1_555
C10 Si6 1.885581 1_555
C11 H31 1.097205 1_555
C11 H35 1.098607 1_555
C11 H27 1.101338 1_555
C11 Si7 1.885581 1_555
C12 H44 1.097666 1_565
C12 H40 1.098851 1_555
C12 H36 1.103455 1_555
C12 Si8 1.889330 1_565
C13 H45 1.097666 1_565
C13 H41 1.098851 1_555
C13 H37 1.103455 1_555
C13 Si9 1.889330 1_565
C14 H46 1.097666 1_545
C14 H42 1.098851 1_555
C14 H38 1.103455 1_555
C14 Si10 1.889330 1_545
C15 H47 1.097666 1_545
C15 H43 1.098851 1_555
C15 H39 1.103455 1_555
C15 Si11 1.889330 1_545
C16 H52 1.098296 1_555
C16 H56 1.099331 1_555
C16 H48 1.101720 1_655
C16 Si4 1.887845 1_554
C17 H53 1.098296 1_555
C17 H57 1.099331 1_555
C17 H49 1.101720 1_555
C17 Si5 1.887845 1_555
C18 H54 1.098296 1_555
C18 H58 1.099331 1_555
C18 H50 1.101720 1_455
C18 Si6 1.887845 1_556
C19 H55 1.098296 1_555
C19 H59 1.099331 1_555
C19 H51 1.101720 1_555
C19 Si7 1.887845 1_555
C20 H64 1.096187 1_555
C20 H68 1.098732 1_555
C20 H60 1.102744 1_555
C20 Si8 1.884226 1_565
C21 H65 1.096187 1_555
C21 H69 1.098732 1_555
C21 H61 1.102744 1_555
C21 Si9 1.884226 1_565
C22 H66 1.096187 1_555
C22 H70 1.098732 1_555
C22 H62 1.102744 1_555
C22 Si10 1.884226 1_545
C23 H67 1.096187 1_555
C23 H71 1.098732 1_555
C23 H63 1.102744 1_555
C23 Si11 1.884226 1_545
C24 H80 1.097036 1_555
C24 H76 1.099745 1_555
C24 H72 1.102510 1_555
C24 Si4 1.886567 1_555
C25 H81 1.097036 1_555
C25 H77 1.099745 1_555
C25 H73 1.102510 1_555
C25 Si5 1.886567 1_555
C26 H82 1.097036 1_555
C26 H78 1.099745 1_555
C26 H74 1.102510 1_555
C26 Si6 1.886567 1_555
C27 H83 1.097036 1_555
C27 H79 1.099745 1_555
C27 H75 1.102510 1_555
C27 Si7 1.886567 1_555
C28 H88 1.095637 1_555
C28 H92 1.101660 1_555
C28 H84 1.101836 1_555
C28 Si0 1.885345 1_555
C29 H89 1.095637 1_555
C29 H93 1.101660 1_555
C29 H85 1.101836 1_555
C29 Si1 1.885345 1_555
C30 H90 1.095637 1_555
C30 H94 1.101660 1_555
C30 H86 1.101836 1_555
C30 Si2 1.885345 1_555
C31 H91 1.095637 1_555
C31 H95 1.101660 1_555
C31 H87 1.101836 1_555
C31 Si3 1.885345 1_555
C32 H104 1.097392 1_555
C32 H100 1.097404 1_555
C32 H96 1.105187 1_545
C32 Si8 1.886930 1_556
C33 H105 1.097392 1_555
C33 H101 1.097404 1_555
C33 H97 1.105187 1_545
C33 Si9 1.886930 1_555
C34 H106 1.097392 1_555
C34 H102 1.097404 1_555
C34 H98 1.105187 1_565
C34 Si10 1.886930 1_554
C35 H107 1.097392 1_555
C35 H103 1.097404 1_555
C35 H99 1.105187 1_565
C35 Si11 1.886930 1_555
