# generated using pymatgen
data_Sr3Yb
_symmetry_space_group_name_H-M   'P 1'
_cell_length_a   8.37088246
_cell_length_b   8.37088246
_cell_length_c   6.81917900
_cell_angle_alpha   90.00000000
_cell_angle_beta   90.00000000
_cell_angle_gamma   120.00000367
_symmetry_Int_Tables_number   1
_chemical_formula_structural   Sr3Yb
_chemical_formula_sum   'Sr6 Yb2'
_cell_volume   413.81401413
_cell_formula_units_Z   2
loop_
 _symmetry_equiv_pos_site_id
 _symmetry_equiv_pos_as_xyz
  1  'x, y, z'
loop_
 _atom_site_type_symbol
 _atom_site_label
 _atom_site_symmetry_multiplicity
 _atom_site_fract_x
 _atom_site_fract_y
 _atom_site_fract_z
 _atom_site_occupancy
  Sr  Sr0  1  0.16827400  0.33654800  0.25000000  1
  Sr  Sr1  1  0.66345200  0.83172600  0.25000000  1
  Sr  Sr2  1  0.16827400  0.83172600  0.25000000  1
  Sr  Sr3  1  0.83172600  0.66345200  0.75000000  1
  Sr  Sr4  1  0.33654800  0.16827400  0.75000000  1
  Sr  Sr5  1  0.83172600  0.16827400  0.75000000  1
  Yb  Yb0  1  0.33333300  0.66666700  0.75000000  1
  Yb  Yb1  1  0.66666700  0.33333300  0.25000000  1
loop_
_geom_bond_atom_site_label_1
_geom_bond_atom_site_label_2
_geom_bond_distance
_geom_bond_site_symmetry_2
Sr0 Sr1 4.145077 1_555
Sr0 Sr2 4.145077 1_555
Sr0 Yb0 4.165637 1_555
Sr0 Yb0 4.165637 1_554
Sr0 Yb1 4.185502 1_455
Sr0 Yb1 4.185510 1_555
Sr0 Sr5 4.192586 1_455
Sr0 Sr5 4.192586 1_454
Sr0 Sr4 4.192586 1_555
Sr0 Sr4 4.192586 1_554
Sr0 Sr1 4.225805 1_445
Sr0 Sr2 4.225806 1_545
Sr1 Sr2 4.145077 1_555
Sr1 Yb0 4.165637 1_555
Sr1 Yb0 4.165637 1_554
Sr1 Yb1 4.185502 1_565
Sr1 Yb1 4.185510 1_555
Sr1 Sr5 4.192586 1_564
Sr1 Sr5 4.192586 1_565
Sr1 Sr3 4.192586 1_554
Sr1 Sr3 4.192586 1_555
Sr1 Sr2 4.225806 1_655
Sr2 Yb0 4.165633 1_555
Sr2 Yb0 4.165633 1_554
Sr2 Yb1 4.185506 1_455
Sr2 Yb1 4.185506 1_565
Sr2 Sr4 4.192586 1_564
Sr2 Sr4 4.192586 1_565
Sr2 Sr3 4.192586 1_455
Sr2 Sr3 4.192586 1_454
Sr3 Sr4 4.145077 1_555
Sr3 Sr5 4.145077 1_555
Sr3 Yb1 4.165637 1_555
Sr3 Yb1 4.165637 1_556
Sr3 Yb0 4.185502 1_655
Sr3 Yb0 4.185510 1_555
Sr3 Sr4 4.225805 1_665
Sr3 Sr5 4.225806 1_565
Sr4 Sr5 4.145077 1_555
Sr4 Yb1 4.165637 1_555
Sr4 Yb1 4.165637 1_556
Sr4 Yb0 4.185502 1_545
Sr4 Yb0 4.185510 1_555
Sr4 Sr5 4.225806 1_455
Sr5 Yb1 4.165633 1_555
Sr5 Yb1 4.165633 1_556
Sr5 Yb0 4.185506 1_545
Sr5 Yb0 4.185506 1_655
