# generated using pymatgen
data_Rb2UMo2O11
_symmetry_space_group_name_H-M   'P 1'
_cell_length_a   8.18704148
_cell_length_b   11.15066000
_cell_length_c   13.81123134
_cell_angle_alpha   90.00000000
_cell_angle_beta   97.01613501
_cell_angle_gamma   90.00000000
_symmetry_Int_Tables_number   1
_chemical_formula_structural   Rb2UMo2O11
_chemical_formula_sum   'Rb8 U4 Mo8 O44'
_cell_volume   1251.39852925
_cell_formula_units_Z   4
loop_
 _symmetry_equiv_pos_site_id
 _symmetry_equiv_pos_as_xyz
  1  'x, y, z'
loop_
 _atom_site_type_symbol
 _atom_site_label
 _atom_site_symmetry_multiplicity
 _atom_site_fract_x
 _atom_site_fract_y
 _atom_site_fract_z
 _atom_site_occupancy
  Rb  Rb0  1  0.76385100  0.07456200  0.62459400  1
  Rb  Rb1  1  0.23614900  0.57456200  0.87540600  1
  Rb  Rb2  1  0.23614900  0.92543800  0.37540600  1
  Rb  Rb3  1  0.76385100  0.42543800  0.12459400  1
  Rb  Rb4  1  0.05619300  0.33511200  0.41628500  1
  Rb  Rb5  1  0.94380700  0.83511200  0.08371500  1
  Rb  Rb6  1  0.94380700  0.66488800  0.58371500  1
  Rb  Rb7  1  0.05619300  0.16488800  0.91628500  1
  U  U0  1  0.52381400  0.26394500  0.35098200  1
  U  U1  1  0.47618600  0.76394500  0.14901800  1
  U  U2  1  0.47618600  0.73605500  0.64901800  1
  U  U3  1  0.52381400  0.23605500  0.85098200  1
  Mo  Mo0  1  0.49292800  0.39573400  0.59349500  1
  Mo  Mo1  1  0.50707200  0.89573400  0.90650500  1
  Mo  Mo2  1  0.50707200  0.60426600  0.40650500  1
  Mo  Mo3  1  0.49292800  0.10426600  0.09349500  1
  Mo  Mo4  1  0.24041000  0.46103400  0.14883300  1
  Mo  Mo5  1  0.75959000  0.96103400  0.35116700  1
  Mo  Mo6  1  0.75959000  0.53896600  0.85116700  1
  Mo  Mo7  1  0.24041000  0.03896600  0.64883300  1
  O  O0  1  0.09079800  0.50167800  0.22564100  1
  O  O1  1  0.90920200  0.00167800  0.27435900  1
  O  O2  1  0.90920200  0.49832200  0.77435900  1
  O  O3  1  0.09079800  0.99832200  0.72564100  1
  O  O4  1  0.40250000  0.36811800  0.21469000  1
  O  O5  1  0.59750000  0.86811800  0.28531000  1
  O  O6  1  0.59750000  0.63188200  0.78531000  1
  O  O7  1  0.40250000  0.13188200  0.71469000  1
  O  O8  1  0.33074300  0.59072500  0.09254800  1
  O  O9  1  0.66925700  0.09072500  0.40745200  1
  O  O10  1  0.66925700  0.40927500  0.90745200  1
  O  O11  1  0.33074300  0.90927500  0.59254800  1
  O  O12  1  0.13446100  0.37903300  0.05135500  1
  O  O13  1  0.86553900  0.87903300  0.44864500  1
  O  O14  1  0.86553900  0.62096700  0.94864500  1
  O  O15  1  0.13446100  0.12096700  0.55135500  1
  O  O16  1  0.27904400  0.39159400  0.58663200  1
  O  O17  1  0.72095600  0.89159400  0.91336800  1
  O  O18  1  0.72095600  0.60840600  0.41336800  1
  O  O19  1  0.27904400  0.10840600  0.08663200  1
  O  O20  1  0.57880000  0.27698300  0.52302500  1
  O  O21  1  0.42120000  0.77698300  0.97697500  1
  O  O22  1  0.42120000  0.72301700  0.47697500  1
  O  O23  1  0.57880000  0.22301700  0.02302500  1
  O  O24  1  0.56840300  0.35622100  0.71764300  1
  O  O25  1  0.43159700  0.85622100  0.78235700  1
  O  O26  1  0.43159700  0.64377900  0.28235700  1
  O  O27  1  0.56840300  0.14377900  0.21764300  1
  O  O28  1  0.57296500  0.55085500  0.58378400  1
  O  O29  1  0.42703500  0.05085500  0.91621600  1
  O  O30  1  0.42703500  0.44914500  0.41621600  1
  O  O31  1  0.57296500  0.94914500  0.08378400  1
  O  O32  1  0.71820700  0.33962000  0.33595300  1
  O  O33  1  0.28179300  0.83962000  0.16404700  1
  O  O34  1  0.28179300  0.66038000  0.66404700  1
  O  O35  1  0.71820700  0.16038000  0.83595300  1
  O  O36  1  0.32668400  0.19082500  0.36187800  1
  O  O37  1  0.67331600  0.69082500  0.13812200  1
  O  O38  1  0.67331600  0.80917500  0.63812200  1
  O  O39  1  0.32668400  0.30917500  0.86187800  1
  O  O40  1  0.96812700  0.31395100  0.65822300  1
  O  O41  1  0.03187300  0.81395100  0.84177700  1
  O  O42  1  0.03187300  0.68604900  0.34177700  1
  O  O43  1  0.96812700  0.18604900  0.15822300  1
loop_
_geom_bond_atom_site_label_1
_geom_bond_atom_site_label_2
_geom_bond_distance
_geom_bond_site_symmetry_2
Mo0 O16 1.742653 1_555
Mo0 O24 1.804741 1_555
Mo0 O20 1.833595 1_555
Mo0 O28 1.860296 1_555
Mo0 O30 2.513545 1_555
Mo1 O17 1.742653 1_555
Mo1 O25 1.804741 1_555
Mo1 O21 1.833595 1_555
Mo1 O29 1.860296 1_565
Mo1 O31 2.513545 1_556
Mo2 O18 1.742653 1_555
Mo2 O26 1.804741 1_555
Mo2 O22 1.833595 1_555
Mo2 O30 1.860296 1_555
Mo2 O28 2.513545 1_555
Mo3 O19 1.742653 1_555
Mo3 O27 1.804741 1_555
Mo3 O23 1.833595 1_555
Mo3 O31 1.860296 1_545
Mo3 O29 2.513545 1_554
Mo4 O12 1.765127 1_555
Mo4 O0 1.774397 1_555
Mo4 O4 1.834916 1_555
Mo4 O8 1.839298 1_555
Mo5 O13 1.765127 1_555
Mo5 O1 1.774397 1_565
Mo5 O5 1.834916 1_555
Mo5 O9 1.839298 1_565
Mo6 O14 1.765127 1_555
Mo6 O2 1.774397 1_555
Mo6 O6 1.834916 1_555
Mo6 O10 1.839298 1_555
Mo7 O15 1.765127 1_555
Mo7 O3 1.774397 1_545
Mo7 O7 1.834916 1_555
Mo7 O11 1.839298 1_545
O0 Rb3 2.987080 1_455
O0 Rb4 3.262665 1_555
O1 Rb2 2.987080 1_645
O1 Rb5 3.262665 1_545
O2 Rb1 2.987080 1_655
O2 Rb6 3.262665 1_555
O3 Rb0 2.987080 1_465
O3 Rb7 3.262665 1_565
O4 U0 2.328586 1_555
O4 Rb3 3.407098 1_555
O5 U1 2.328586 1_555
O5 Rb2 3.407098 1_555
O6 U2 2.328586 1_555
O6 Rb1 3.407098 1_555
O7 U3 2.328586 1_555
O7 Rb0 3.407098 1_555
O8 U1 2.351603 1_555
O8 Rb1 3.009791 1_554
O9 U0 2.351603 1_555
O9 Rb0 3.009791 1_555
O10 U3 2.351603 1_555
O10 Rb3 3.009791 1_556
O11 U2 2.351603 1_555
O11 Rb2 3.009791 1_555
O12 Rb7 3.049667 1_554
O12 Rb3 3.353666 1_455
O12 Rb1 3.441830 1_554
O13 Rb6 3.049667 1_555
O13 Rb2 3.353666 1_655
O13 Rb0 3.441830 1_565
O14 Rb5 3.049667 1_556
O14 Rb1 3.353666 1_655
O14 Rb3 3.441830 1_556
O15 Rb4 3.049667 1_555
O15 Rb0 3.353666 1_455
O15 Rb2 3.441830 1_545
O16 Rb4 2.865657 1_555
O17 Rb5 2.865657 1_556
O18 Rb6 2.865657 1_555
O19 Rb7 2.865657 1_554
O20 U0 2.368216 1_555
O20 Rb0 2.972969 1_555
O21 U1 2.368216 1_556
O21 Rb1 2.972969 1_555
O22 U2 2.368216 1_555
O22 Rb2 2.972969 1_555
O23 U3 2.368216 1_554
O23 Rb3 2.972969 1_555
O24 U3 2.341861 1_555
O25 U2 2.341861 1_555
O26 U1 2.341861 1_555
O27 U0 2.341861 1_555
O28 U2 2.424576 1_555
O28 Rb6 3.291721 1_555
O29 U3 2.424576 1_555
O29 Rb7 3.291721 1_555
O30 U0 2.424576 1_555
O30 Rb4 3.291721 1_555
O31 U1 2.424576 1_555
O31 Rb5 3.291721 1_555
O32 U0 1.835406 1_555
O32 Rb4 2.853129 1_655
O32 Rb3 3.137380 1_555
O33 U1 1.835406 1_555
O33 Rb5 2.853129 1_455
O33 Rb2 3.137380 1_555
O34 U2 1.835406 1_555
O34 Rb6 2.853129 1_455
O34 Rb1 3.137380 1_555
O35 U3 1.835406 1_555
O35 Rb7 2.853129 1_655
O35 Rb0 3.137380 1_555
O36 U0 1.830700 1_555
O36 Rb4 2.909264 1_555
O36 Rb2 3.061902 1_545
O37 U1 1.830700 1_555
O37 Rb5 2.909264 1_555
O37 Rb3 3.061902 1_555
O38 U2 1.830700 1_555
O38 Rb6 2.909264 1_555
O38 Rb0 3.061902 1_565
O39 U3 1.830700 1_555
O39 Rb7 2.909264 1_555
O39 Rb1 3.061902 1_555
O40 Rb0 3.154099 1_555
O40 Rb4 3.511331 1_655
O41 Rb1 3.154099 1_555
O41 Rb5 3.511331 1_456
O42 Rb2 3.154099 1_555
O42 Rb6 3.511331 1_455
O43 Rb3 3.154099 1_555
O43 Rb7 3.511331 1_654
