# generated using pymatgen
data_Li2V3CoO8
_symmetry_space_group_name_H-M   'P 1'
_cell_length_a   5.81665726
_cell_length_b   10.25411822
_cell_length_c   5.97903851
_cell_angle_alpha   89.44193116
_cell_angle_beta   120.09318434
_cell_angle_gamma   107.03650307
_symmetry_Int_Tables_number   1
_chemical_formula_structural   Li2V3CoO8
_chemical_formula_sum   'Li4 V6 Co2 O16'
_cell_volume   290.92660238
_cell_formula_units_Z   2
loop_
 _symmetry_equiv_pos_site_id
 _symmetry_equiv_pos_as_xyz
  1  'x, y, z'
loop_
 _atom_site_type_symbol
 _atom_site_label
 _atom_site_symmetry_multiplicity
 _atom_site_fract_x
 _atom_site_fract_y
 _atom_site_fract_z
 _atom_site_occupancy
  Li  Li0  1  0.62903100  0.43798300  0.31730600  1
  Li  Li1  1  0.62778100  0.94006100  0.81157600  1
  Li  Li2  1  0.37075200  0.06197200  0.18271500  1
  Li  Li3  1  0.37194200  0.56013600  0.68810300  1
  V  V0  1  0.99880800  0.49992100  0.00056800  1
  V  V1  1  0.00063600  0.25038900  0.25014500  1
  V  V2  1  0.99991300  0.24977500  0.75002700  1
  V  V3  1  0.00002300  0.99997300  0.49906400  1
  V  V4  1  0.00030000  0.75007300  0.75028900  1
  V  V5  1  0.99965500  0.75002400  0.25006500  1
  Co  Co0  1  0.50029700  0.75006900  0.25006300  1
  Co  Co1  1  0.49995100  0.24998600  0.75011500  1
  O  O0  1  0.78480300  0.12650400  0.37671300  1
  O  O1  1  0.78538300  0.62434400  0.90261900  1
  O  O2  1  0.21510600  0.37299000  0.12200000  1
  O  O3  1  0.21419100  0.87545700  0.59807200  1
  O  O4  1  0.75923400  0.86910600  0.15552500  1
  O  O5  1  0.76352100  0.37432200  0.66449100  1
  O  O6  1  0.76586200  0.64606900  0.37265000  1
  O  O7  1  0.76157900  0.14474200  0.88845700  1
  O  O8  1  0.75222200  0.86997200  0.59276900  1
  O  O9  1  0.74968400  0.36357000  0.09787200  1
  O  O10  1  0.24849600  0.63038700  0.90856200  1
  O  O11  1  0.24929500  0.13608700  0.40157500  1
  O  O12  1  0.23444800  0.85373300  0.12791600  1
  O  O13  1  0.23846800  0.35524700  0.61122500  1
  O  O14  1  0.24097700  0.63104300  0.34382300  1
  O  O15  1  0.23764000  0.12606200  0.83569600  1
loop_
_geom_bond_atom_site_label_1
_geom_bond_atom_site_label_2
_geom_bond_distance
_geom_bond_site_symmetry_2
Li0 O2 1.964713 1_555
Li0 O5 1.997887 1_555
Li0 O6 2.012544 1_555
Li0 O9 2.013142 1_555
Li1 O3 1.964397 1_555
Li1 O7 1.981151 1_565
Li1 O8 2.006180 1_555
Li1 O4 2.015720 1_556
Li2 O0 1.965541 1_555
Li2 O15 1.999234 1_554
Li2 O11 2.012486 1_555
Li2 O12 2.014101 1_545
Li3 O1 1.964016 1_555
Li3 O13 1.983235 1_555
Li3 O10 2.010649 1_555
Li3 O14 2.017207 1_555
Co0 O10 1.953713 1_554
Co0 O14 1.958314 1_555
Co0 O8 1.959562 1_555
Co0 O4 1.959833 1_555
Co0 O12 1.967243 1_555
Co0 O6 1.968564 1_555
Co1 O9 1.953680 1_556
Co1 O11 1.958390 1_555
Co1 O15 1.959270 1_555
Co1 O13 1.961077 1_555
Co1 O7 1.961461 1_555
Co1 O5 1.966472 1_555
O0 V1 1.939592 1_655
O0 V3 1.949515 1_645
O0 V2 2.114941 1_555
O1 V0 1.922587 1_556
O1 V5 2.011049 1_556
O1 V4 2.056439 1_655
O2 V1 1.935077 1_555
O2 V0 1.956835 1_455
O2 V2 2.108513 1_454
O3 V3 1.926212 1_555
O3 V5 2.012175 1_455
O3 V4 2.050510 1_555
O4 V5 1.990139 1_555
O4 V3 2.012187 1_655
O5 V0 1.956854 1_556
O5 V2 2.023440 1_555
O6 V5 1.912510 1_555
O6 V4 2.049918 1_655
O7 V1 1.982714 1_656
O7 V2 2.006307 1_555
O8 V3 1.959047 1_655
O8 V4 2.033453 1_655
O9 V1 1.986437 1_655
O9 V0 2.008861 1_555
O10 V0 1.962151 1_456
O10 V4 2.032599 1_555
O11 V1 1.986179 1_555
O11 V3 2.008976 1_545
O12 V5 1.914038 1_455
O12 V4 2.048746 1_554
O13 V1 1.977215 1_555
O13 V2 2.010424 1_455
O14 V5 1.993534 1_455
O14 V0 2.012201 1_455
O15 V3 1.961363 1_545
O15 V2 2.022036 1_455
