# generated using pymatgen
data_Cs2Al7Tl
_symmetry_space_group_name_H-M   'P 1'
_cell_length_a   4.78238000
_cell_length_b   4.78238000
_cell_length_c   11.73532400
_cell_angle_alpha   90.00000000
_cell_angle_beta   90.00000000
_cell_angle_gamma   90.00000000
_symmetry_Int_Tables_number   1
_chemical_formula_structural   Cs2Al7Tl
_chemical_formula_sum   'Cs2 Al7 Tl1'
_cell_volume   268.40045484
_cell_formula_units_Z   1
loop_
 _symmetry_equiv_pos_site_id
 _symmetry_equiv_pos_as_xyz
  1  'x, y, z'
loop_
 _atom_site_type_symbol
 _atom_site_label
 _atom_site_symmetry_multiplicity
 _atom_site_fract_x
 _atom_site_fract_y
 _atom_site_fract_z
 _atom_site_occupancy
  Cs  Cs0  1  0.00000000  0.00000000  0.99332000  1
  Cs  Cs1  1  0.50000000  0.50000000  0.50359800  1
  Al  Al0  1  0.00000000  0.50000000  0.26260200  1
  Al  Al1  1  0.50000000  0.00000000  0.74457200  1
  Al  Al2  1  0.50000000  0.00000000  0.26260200  1
  Al  Al3  1  0.00000000  0.50000000  0.74457200  1
  Al  Al4  1  0.00000000  0.00000000  0.62128000  1
  Al  Al5  1  0.00000000  0.00000000  0.38504900  1
  Al  Al6  1  0.50000000  0.50000000  0.86442100  1
  Tl  Tl0  1  0.50000000  0.50000000  0.11798400  1
loop_
_geom_bond_atom_site_label_1
_geom_bond_atom_site_label_2
_geom_bond_distance
_geom_bond_site_symmetry_2
Cs0 Tl0 3.684544 1_546
Cs0 Tl0 3.684544 1_456
Cs0 Tl0 3.684544 1_446
Cs0 Tl0 3.684544 1_556
Al0 Al5 2.789737 1_565
Al0 Al5 2.789737 1_555
Al0 Tl0 2.932247 1_555
Al0 Tl0 2.932247 1_455
Al0 Cs1 3.703554 1_455
Al0 Cs1 3.703554 1_555
Al0 Cs0 3.962839 1_554
Al0 Cs0 3.962839 1_564
Al1 Al6 2.774155 1_555
Al1 Al6 2.774155 1_545
Al1 Al4 2.794857 1_655
Al1 Al4 2.794857 1_555
Al1 Cs1 3.703357 1_555
Al1 Cs1 3.703357 1_545
Al1 Cs0 3.773481 1_555
Al1 Cs0 3.773481 1_655
Al2 Al5 2.789737 1_555
Al2 Al5 2.789737 1_655
Al2 Tl0 2.932247 1_555
Al2 Tl0 2.932247 1_545
Al2 Cs1 3.703554 1_545
Al2 Cs1 3.703554 1_555
Al2 Cs0 3.962839 1_554
Al2 Cs0 3.962839 1_654
Al3 Al6 2.774155 1_555
Al3 Al6 2.774155 1_455
Al3 Al4 2.794857 1_565
Al3 Al4 2.794857 1_555
Al3 Cs1 3.703357 1_555
Al3 Cs1 3.703357 1_455
Al3 Cs0 3.773481 1_555
Al3 Cs0 3.773481 1_565
Al4 Al5 2.772247 1_555
Al4 Cs1 3.652785 1_455
Al4 Cs1 3.652785 1_555
Al4 Cs1 3.652785 1_545
Al4 Cs1 3.652785 1_445
Al5 Cs1 3.656644 1_455
Al5 Cs1 3.656644 1_555
Al5 Cs1 3.656644 1_545
Al5 Cs1 3.656644 1_445
Al6 Tl0 2.975644 1_556
Al6 Cs0 3.704559 1_565
Al6 Cs0 3.704559 1_555
Al6 Cs0 3.704559 1_655
Al6 Cs0 3.704559 1_665
