# generated using pymatgen
data_SrHfMg14
_symmetry_space_group_name_H-M   'P 1'
_cell_length_a   6.54776326
_cell_length_b   6.59529825
_cell_length_c   10.44613613
_cell_angle_alpha   90.00000000
_cell_angle_beta   90.00000000
_cell_angle_gamma   120.24044766
_symmetry_Int_Tables_number   1
_chemical_formula_structural   SrHfMg14
_chemical_formula_sum   'Sr1 Hf1 Mg14'
_cell_volume   389.72328769
_cell_formula_units_Z   1
loop_
 _symmetry_equiv_pos_site_id
 _symmetry_equiv_pos_as_xyz
  1  'x, y, z'
loop_
 _atom_site_type_symbol
 _atom_site_label
 _atom_site_symmetry_multiplicity
 _atom_site_fract_x
 _atom_site_fract_y
 _atom_site_fract_z
 _atom_site_occupancy
  Sr  Sr0  1  0.16432798  0.33216349  0.12500000  1
  Hf  Hf0  1  0.18928091  0.84463996  0.12500000  1
  Mg  Mg0  1  0.16732892  0.33366396  0.62500000  1
  Mg  Mg1  1  0.16426853  0.83213377  0.62500000  1
  Mg  Mg2  1  0.66520149  0.33255425  0.12500000  1
  Mg  Mg3  1  0.66720566  0.33696827  0.62500000  1
  Mg  Mg4  1  0.66520149  0.83264624  0.12500000  1
  Mg  Mg5  1  0.66720566  0.83023639  0.62500000  1
  Mg  Mg6  1  0.33373029  0.15700068  0.38293643  1
  Mg  Mg7  1  0.33373029  0.15700068  0.86706357  1
  Mg  Mg8  1  0.33373029  0.67673061  0.38293643  1
  Mg  Mg9  1  0.33373029  0.67673061  0.86706357  1
  Mg  Mg10  1  0.82010467  0.16005283  0.38621685  1
  Mg  Mg11  1  0.82010467  0.16005283  0.86378315  1
  Mg  Mg12  1  0.83742444  0.66871272  0.36903352  1
  Mg  Mg13  1  0.83742444  0.66871272  0.88096648  1
loop_
_geom_bond_atom_site_label_1
_geom_bond_atom_site_label_2
_geom_bond_distance
_geom_bond_site_symmetry_2
Hf0 Mg2 3.156793 1_565
Hf0 Mg4 3.156793 1_555
Hf0 Mg8 3.230473 1_555
Hf0 Mg9 3.230473 1_554
Hf0 Mg7 3.230480 1_564
Hf0 Mg6 3.230480 1_565
Hf0 Mg13 3.234191 1_454
Hf0 Mg12 3.234191 1_455
Hf0 Sr0 3.300669 1_565
Hf0 Sr0 3.300669 1_555
Hf0 Mg2 3.392398 1_455
Hf0 Mg4 3.392398 1_455
Mg0 Mg10 3.174863 1_455
Mg0 Mg11 3.174863 1_455
Mg0 Mg6 3.196463 1_555
Mg0 Mg7 3.196463 1_555
Mg0 Mg9 3.196470 1_555
Mg0 Mg8 3.196470 1_555
Mg0 Mg5 3.262153 1_555
Mg0 Mg3 3.262153 1_555
Mg0 Mg5 3.285718 1_445
Mg0 Mg3 3.285718 1_455
Mg0 Mg1 3.297695 1_545
Mg0 Mg1 3.297695 1_555
Mg1 Mg8 3.133873 1_555
Mg1 Mg9 3.133873 1_555
Mg1 Mg7 3.133880 1_565
Mg1 Mg6 3.133880 1_565
Mg1 Mg3 3.248365 1_455
Mg1 Mg5 3.248366 1_455
Mg1 Mg12 3.250824 1_455
Mg1 Mg13 3.250824 1_455
Mg1 Mg3 3.299433 1_565
Mg1 Mg5 3.299433 1_555
Mg2 Sr0 3.269461 1_655
Mg2 Sr0 3.278304 1_555
Mg2 Mg6 3.283290 1_555
Mg2 Mg7 3.283290 1_554
Mg2 Mg4 3.297042 1_545
Mg2 Mg4 3.298256 1_555
Mg3 Mg6 3.155950 1_555
Mg3 Mg7 3.155950 1_555
Mg3 Mg5 3.253250 1_555
Mg3 Mg5 3.342048 1_545
Mg4 Sr0 3.269461 1_665
Mg4 Sr0 3.278304 1_555
Mg4 Mg8 3.283290 1_555
Mg4 Mg9 3.283290 1_554
Mg5 Mg9 3.155950 1_555
Mg5 Mg8 3.155950 1_555
Mg6 Mg8 3.167524 1_545
Mg6 Sr0 3.334016 1_555
Mg6 Mg8 3.427774 1_555
Mg7 Mg9 3.167524 1_545
Mg7 Sr0 3.334016 1_556
Mg7 Mg9 3.427774 1_555
Mg8 Sr0 3.334022 1_555
Mg9 Sr0 3.334022 1_556
Mg10 Mg3 3.124453 1_555
Mg10 Mg5 3.124460 1_545
Mg10 Mg8 3.174759 1_545
Mg10 Mg6 3.174759 1_555
Mg10 Mg12 3.303984 1_545
Mg10 Mg12 3.303984 1_555
Mg10 Mg2 3.306244 1_555
Mg10 Mg4 3.306251 1_545
Mg10 Sr0 3.352217 1_655
Mg10 Mg8 3.373456 1_655
Mg10 Mg6 3.373456 1_655
Mg11 Mg3 3.124453 1_555
Mg11 Mg5 3.124460 1_545
Mg11 Mg9 3.174759 1_545
Mg11 Mg7 3.174759 1_555
Mg11 Mg13 3.303984 1_545
Mg11 Mg13 3.303984 1_555
Mg11 Mg2 3.306244 1_556
Mg11 Mg4 3.306251 1_546
Mg11 Sr0 3.352217 1_656
Mg11 Mg9 3.373456 1_655
Mg11 Mg7 3.373456 1_655
Mg12 Mg4 3.188599 1_555
Mg12 Mg2 3.188606 1_555
Mg12 Mg6 3.226655 1_665
Mg12 Mg8 3.226655 1_655
Mg12 Mg5 3.274533 1_555
Mg12 Mg3 3.274539 1_555
Mg12 Mg6 3.328186 1_555
Mg12 Mg8 3.328186 1_555
Mg13 Mg4 3.188599 1_556
Mg13 Mg2 3.188606 1_556
Mg13 Mg7 3.226655 1_665
Mg13 Mg9 3.226655 1_655
Mg13 Mg5 3.274533 1_555
Mg13 Mg3 3.274539 1_555
Mg13 Mg7 3.328186 1_555
Mg13 Mg9 3.328186 1_555
