# generated using pymatgen
data_K2Mn(SeO3)2
_symmetry_space_group_name_H-M   'P 1'
_cell_length_a   7.16206915
_cell_length_b   9.16233158
_cell_length_c   11.42857764
_cell_angle_alpha   90.00000227
_cell_angle_beta   89.99999437
_cell_angle_gamma   73.49571802
_symmetry_Int_Tables_number   1
_chemical_formula_structural   K2Mn(SeO3)2
_chemical_formula_sum   'K8 Mn4 Se8 O24'
_cell_volume   719.05820492
_cell_formula_units_Z   4
loop_
 _symmetry_equiv_pos_site_id
 _symmetry_equiv_pos_as_xyz
  1  'x, y, z'
loop_
 _atom_site_type_symbol
 _atom_site_label
 _atom_site_symmetry_multiplicity
 _atom_site_fract_x
 _atom_site_fract_y
 _atom_site_fract_z
 _atom_site_occupancy
  K  K0  1  0.39115700  0.19557800  0.50000000  1
  K  K1  1  0.89115700  0.69557800  0.75000000  1
  K  K2  1  0.39115700  0.19557800  0.00000000  1
  K  K3  1  0.89115700  0.69557800  0.25000000  1
  K  K4  1  0.60884300  0.80442200  0.50000000  1
  K  K5  1  0.10884300  0.30442200  0.75000000  1
  K  K6  1  0.60884300  0.80442200  0.00000000  1
  K  K7  1  0.10884300  0.30442200  0.25000000  1
  Mn  Mn0  1  0.00000000  0.00000000  0.50000000  1
  Mn  Mn1  1  0.50000000  0.50000000  0.75000000  1
  Mn  Mn2  1  0.00000000  0.00000000  0.00000000  1
  Mn  Mn3  1  0.50000000  0.50000000  0.25000000  1
  Se  Se0  1  0.25671100  0.62835600  0.50000000  1
  Se  Se1  1  0.75671100  0.12835600  0.75000000  1
  Se  Se2  1  0.25671100  0.62835600  0.00000000  1
  Se  Se3  1  0.75671100  0.12835600  0.25000000  1
  Se  Se4  1  0.74328900  0.37164400  0.50000000  1
  Se  Se5  1  0.24328900  0.87164400  0.75000000  1
  Se  Se6  1  0.74328900  0.37164400  0.00000000  1
  Se  Se7  1  0.24328900  0.87164400  0.25000000  1
  O  O0  1  0.73906000  0.48879300  0.61926300  1
  O  O1  1  0.23906000  0.98879300  0.86926300  1
  O  O2  1  0.73906000  0.48879300  0.11926300  1
  O  O3  1  0.23906000  0.98879300  0.36926300  1
  O  O4  1  0.73906000  0.48879300  0.38073700  1
  O  O5  1  0.23906000  0.98879300  0.63073700  1
  O  O6  1  0.73906000  0.48879300  0.88073700  1
  O  O7  1  0.23906000  0.98879300  0.13073700  1
  O  O8  1  0.97758700  0.25026700  0.50000000  1
  O  O9  1  0.47758700  0.75026700  0.75000000  1
  O  O10  1  0.97758700  0.25026700  0.00000000  1
  O  O11  1  0.47758700  0.75026700  0.25000000  1
  O  O12  1  0.02241300  0.74973300  0.50000000  1
  O  O13  1  0.52241300  0.24973300  0.75000000  1
  O  O14  1  0.02241300  0.74973300  0.00000000  1
  O  O15  1  0.52241300  0.24973300  0.25000000  1
  O  O16  1  0.26094000  0.51120700  0.38073700  1
  O  O17  1  0.76094000  0.01120700  0.63073700  1
  O  O18  1  0.26094000  0.51120700  0.88073700  1
  O  O19  1  0.76094000  0.01120700  0.13073700  1
  O  O20  1  0.26094000  0.51120700  0.61926300  1
  O  O21  1  0.76094000  0.01120700  0.86926300  1
  O  O22  1  0.26094000  0.51120700  0.11926300  1
  O  O23  1  0.76094000  0.01120700  0.36926300  1
loop_
_geom_bond_atom_site_label_1
_geom_bond_atom_site_label_2
_geom_bond_distance
_geom_bond_site_symmetry_2
K0 O8 2.860304 1_455
K0 O5 2.860308 1_545
K0 O3 2.860308 1_545
K0 O23 3.091637 1_555
K0 O17 3.091637 1_555
K0 O15 3.091637 1_555
K0 O13 3.091637 1_555
K0 O20 3.091642 1_555
K0 O16 3.091642 1_555
K0 Se4 3.357731 1_555
K1 O9 2.860304 1_555
K1 O6 2.860308 1_555
K1 O0 2.860308 1_555
K1 O20 3.091637 1_655
K1 O18 3.091637 1_655
K1 O12 3.091637 1_655
K1 O14 3.091637 1_656
K1 O21 3.091642 1_565
K1 O17 3.091642 1_565
K1 Se5 3.357731 1_655
K2 O10 2.860304 1_455
K2 O7 2.860308 1_545
K2 O1 2.860308 1_544
K2 O21 3.091637 1_554
K2 O19 3.091637 1_555
K2 O13 3.091637 1_554
K2 O15 3.091637 1_555
K2 O22 3.091642 1_555
K2 O18 3.091642 1_554
K2 Se6 3.357731 1_555
K3 O11 2.860304 1_555
K3 O4 2.860308 1_555
K3 O2 2.860308 1_555
K3 O22 3.091637 1_655
K3 O16 3.091637 1_655
K3 O14 3.091637 1_655
K3 O12 3.091637 1_655
K3 O23 3.091642 1_565
K3 O19 3.091642 1_565
K3 Se7 3.357731 1_655
K4 O12 2.860304 1_655
K4 O23 2.860308 1_565
K4 O17 2.860308 1_565
K4 O5 3.091637 1_555
K4 O3 3.091637 1_555
K4 O9 3.091637 1_555
K4 O11 3.091637 1_555
K4 O4 3.091642 1_555
K4 O0 3.091642 1_555
K4 Se0 3.357731 1_555
K5 O13 2.860304 1_555
K5 O20 2.860308 1_555
K5 O18 2.860308 1_555
K5 O6 3.091637 1_455
K5 O0 3.091637 1_455
K5 O10 3.091637 1_456
K5 O8 3.091637 1_455
K5 O5 3.091642 1_545
K5 O1 3.091642 1_545
K5 Se1 3.357731 1_455
K6 O14 2.860304 1_655
K6 O21 2.860308 1_564
K6 O19 2.860308 1_565
K6 O7 3.091637 1_555
K6 O1 3.091637 1_554
K6 O11 3.091637 1_555
K6 O9 3.091637 1_554
K6 O6 3.091642 1_554
K6 O2 3.091642 1_555
K6 Se2 3.357731 1_555
K7 O15 2.860304 1_555
K7 O22 2.860308 1_555
K7 O16 2.860308 1_555
K7 O4 3.091637 1_455
K7 O2 3.091637 1_455
K7 O8 3.091637 1_455
K7 O10 3.091637 1_455
K7 O7 3.091642 1_545
K7 O3 3.091642 1_545
K7 Se3 3.357731 1_455
Mn0 O3 2.252689 1_545
Mn0 O17 2.252689 1_455
Mn0 O5 2.252689 1_545
Mn0 O23 2.252689 1_455
Mn0 O8 2.252691 1_455
Mn0 O12 2.252691 1_545
Mn1 O18 2.252689 1_555
Mn1 O0 2.252689 1_555
Mn1 O20 2.252689 1_555
Mn1 O6 2.252689 1_555
Mn1 O13 2.252691 1_555
Mn1 O9 2.252691 1_555
Mn2 O1 2.252689 1_544
Mn2 O19 2.252689 1_455
Mn2 O7 2.252689 1_545
Mn2 O21 2.252689 1_454
Mn2 O10 2.252691 1_455
Mn2 O14 2.252691 1_545
Mn3 O16 2.252689 1_555
Mn3 O2 2.252689 1_555
Mn3 O22 2.252689 1_555
Mn3 O4 2.252689 1_555
Mn3 O11 2.252691 1_555
Mn3 O15 2.252691 1_555
O0 Se4 1.729835 1_555
O1 Se5 1.729835 1_555
O2 Se6 1.729835 1_555
O3 Se7 1.729835 1_555
O4 Se4 1.729835 1_555
O5 Se5 1.729835 1_555
O6 Se6 1.729835 1_556
O7 Se7 1.729835 1_555
O8 Se4 1.729836 1_555
O9 Se5 1.729836 1_555
O10 Se6 1.729836 1_555
O11 Se7 1.729836 1_555
O12 Se0 1.729836 1_555
O13 Se1 1.729836 1_555
O14 Se2 1.729836 1_555
O15 Se3 1.729836 1_555
O16 Se0 1.729835 1_555
O17 Se1 1.729835 1_555
O18 Se2 1.729835 1_556
O19 Se3 1.729835 1_555
O20 Se0 1.729835 1_555
O21 Se1 1.729835 1_555
O22 Se2 1.729835 1_555
O23 Se3 1.729835 1_555
