# generated using pymatgen
data_Hg5NCl11
_symmetry_space_group_name_H-M   'P 1'
_cell_length_a   6.20120946
_cell_length_b   9.32835425
_cell_length_c   9.32835425
_cell_angle_alpha   102.83397406
_cell_angle_beta   105.13860921
_cell_angle_gamma   105.13860921
_symmetry_Int_Tables_number   1
_chemical_formula_structural   Hg5NCl11
_chemical_formula_sum   'Hg5 N1 Cl11'
_cell_volume   477.78504170
_cell_formula_units_Z   1
loop_
 _symmetry_equiv_pos_site_id
 _symmetry_equiv_pos_as_xyz
  1  'x, y, z'
loop_
 _atom_site_type_symbol
 _atom_site_label
 _atom_site_symmetry_multiplicity
 _atom_site_fract_x
 _atom_site_fract_y
 _atom_site_fract_z
 _atom_site_occupancy
  Hg  Hg0  1  0.50000000  -0.00000000  0.00000000  1
  Hg  Hg1  1  0.80486437  0.13963415  0.48156012  1
  Hg  Hg2  1  0.80486437  0.48156012  0.13963415  1
  Hg  Hg3  1  0.19513563  0.86036585  0.51843988  1
  Hg  Hg4  1  0.19513563  0.51843988  0.86036585  1
  N  N0  1  0.50000000  0.50000000  0.50000000  1
  Cl  Cl0  1  0.89288572  0.14956390  0.14956390  1
  Cl  Cl1  1  0.10711428  0.85043610  0.85043610  1
  Cl  Cl2  1  0.41222930  0.07218037  0.32421678  1
  Cl  Cl3  1  0.41222930  0.32421678  0.07218037  1
  Cl  Cl4  1  0.58777070  0.92781963  0.67578322  1
  Cl  Cl5  1  0.58777070  0.67578322  0.92781963  1
  Cl  Cl6  1  0.19811062  0.20201493  0.63867711  1
  Cl  Cl7  1  0.19811062  0.63867711  0.20201493  1
  Cl  Cl8  1  0.80188938  0.79798507  0.36132289  1
  Cl  Cl9  1  0.80188938  0.36132289  0.79798507  1
  Cl  Cl10  1  -0.00000000  0.50000000  0.50000000  1
loop_
_geom_bond_atom_site_label_1
_geom_bond_atom_site_label_2
_geom_bond_distance
_geom_bond_site_symmetry_2
Cl0 Hg0 2.326661 1_555
Cl1 Hg0 2.326661 1_566
Cl2 Hg1 2.324104 1_555
Cl3 Hg2 2.324104 1_555
Cl4 Hg3 2.324104 1_555
Cl5 Hg4 2.324104 1_555
Cl6 Hg1 2.333803 1_455
Cl7 Hg2 2.333803 1_455
Cl8 Hg3 2.333803 1_655
Cl9 Hg4 2.333803 1_655
