# generated using pymatgen
data_YbPaO4
_symmetry_space_group_name_H-M   'P 1'
_cell_length_a   3.76724700
_cell_length_b   3.76724700
_cell_length_c   5.54592800
_cell_angle_alpha   90.00000000
_cell_angle_beta   90.00000000
_cell_angle_gamma   90.00000000
_symmetry_Int_Tables_number   1
_chemical_formula_structural   YbPaO4
_chemical_formula_sum   'Yb1 Pa1 O4'
_cell_volume   78.70864184
_cell_formula_units_Z   1
loop_
 _symmetry_equiv_pos_site_id
 _symmetry_equiv_pos_as_xyz
  1  'x, y, z'
loop_
 _atom_site_type_symbol
 _atom_site_label
 _atom_site_symmetry_multiplicity
 _atom_site_fract_x
 _atom_site_fract_y
 _atom_site_fract_z
 _atom_site_occupancy
  Yb  Yb0  1  0.00000000  0.00000000  0.00000000  1
  Pa  Pa0  1  0.50000000  0.50000000  0.50000000  1
  O  O0  1  0.50000000  0.00000000  0.73377000  1
  O  O1  1  0.00000000  0.50000000  0.26623000  1
  O  O2  1  0.50000000  0.00000000  0.26623000  1
  O  O3  1  0.00000000  0.50000000  0.73377000  1
loop_
_geom_bond_atom_site_label_1
_geom_bond_atom_site_label_2
_geom_bond_distance
_geom_bond_site_symmetry_2
O0 Pa0 2.286674 1_555
O0 Pa0 2.286674 1_545
O0 Yb0 2.393338 1_656
O0 Yb0 2.393338 1_556
O1 Pa0 2.286674 1_555
O1 Pa0 2.286674 1_455
O1 Yb0 2.393338 1_555
O1 Yb0 2.393338 1_565
O2 Pa0 2.286674 1_545
O2 Pa0 2.286674 1_555
O2 Yb0 2.393338 1_555
O2 Yb0 2.393338 1_655
O3 Pa0 2.286674 1_455
O3 Pa0 2.286674 1_555
O3 Yb0 2.393338 1_566
O3 Yb0 2.393338 1_556
