# generated using pymatgen
data_Sr6La3Ti3Cu3O20
_symmetry_space_group_name_H-M   'P 1'
_cell_length_a   3.92100704
_cell_length_b   11.71902973
_cell_length_c   10.54221483
_cell_angle_alpha   100.59069361
_cell_angle_beta   100.50614608
_cell_angle_gamma   90.00449877
_symmetry_Int_Tables_number   1
_chemical_formula_structural   Sr6La3Ti3Cu3O20
_chemical_formula_sum   'Sr6 La3 Ti3 Cu3 O20'
_cell_volume   467.90135834
_cell_formula_units_Z   1
loop_
 _symmetry_equiv_pos_site_id
 _symmetry_equiv_pos_as_xyz
  1  'x, y, z'
loop_
 _atom_site_type_symbol
 _atom_site_label
 _atom_site_symmetry_multiplicity
 _atom_site_fract_x
 _atom_site_fract_y
 _atom_site_fract_z
 _atom_site_occupancy
  Sr  Sr0  1  0.00352400  0.99362900  0.99113800  1
  Sr  Sr1  1  0.99857000  0.33574700  0.99891700  1
  Sr  Sr2  1  0.99624100  0.66786800  0.99353300  1
  Sr  Sr3  1  0.19636600  0.07316300  0.35982400  1
  Sr  Sr4  1  0.20886300  0.37782200  0.36802800  1
  Sr  Sr5  1  0.79864100  0.61502100  0.63341900  1
  La  La0  1  0.19450100  0.73287700  0.36324800  1
  La  La1  1  0.80728100  0.26150100  0.64302800  1
  La  La2  1  0.78918500  0.94101200  0.64030400  1
  Ti  Ti0  1  0.38972300  0.46930000  0.80229000  1
  Ti  Ti1  1  0.61096300  0.52513900  0.19433600  1
  Ti  Ti2  1  0.59792600  0.87020400  0.18354200  1
  Cu  Cu0  1  0.38929300  0.13360500  0.80950800  1
  Cu  Cu1  1  0.38745400  0.80136100  0.80158600  1
  Cu  Cu2  1  0.61194700  0.19817900  0.18505200  1
  O  O0  1  0.10696100  0.19726300  0.17426100  1
  O  O1  1  0.10183600  0.54528300  0.19870700  1
  O  O2  1  0.10569200  0.86773700  0.20635500  1
  O  O3  1  0.33063800  0.10195400  0.59817400  1
  O  O4  1  0.32558300  0.41908700  0.61555300  1
  O  O5  1  0.30093200  0.77600900  0.59459100  1
  O  O6  1  0.39848300  0.29856200  0.82171700  1
  O  O7  1  0.38364800  0.62666300  0.79789200  1
  O  O8  1  0.37909300  0.97217700  0.80453600  1
  O  O9  1  0.50136900  0.50577400  0.00484300  1
  O  O10  1  0.49437200  0.82933900  0.00279700  1
  O  O11  1  0.60530000  0.03325400  0.17923400  1
  O  O12  1  0.61152700  0.36310800  0.18685100  1
  O  O13  1  0.60975900  0.70503400  0.20088900  1
  O  O14  1  0.71871400  0.23622500  0.42100000  1
  O  O15  1  0.67666100  0.56905400  0.39053700  1
  O  O16  1  0.68301100  0.89448100  0.40249200  1
  O  O17  1  0.89677900  0.13301900  0.81825200  1
  O  O18  1  0.90210300  0.45898000  0.81298200  1
  O  O19  1  0.88706000  0.80390200  0.80058300  1
loop_
_geom_bond_atom_site_label_1
_geom_bond_atom_site_label_2
_geom_bond_distance
_geom_bond_site_symmetry_2
La0 O5 2.356561 1_555
La0 O2 2.470960 1_555
La0 O1 2.518386 1_555
La0 O13 2.549193 1_555
La0 O13 2.579999 1_455
La0 O16 2.617094 1_555
La0 O15 2.710721 1_555
La0 O16 2.791995 1_455
La0 O15 2.882144 1_455
La1 O14 2.266221 1_555
La1 O3 2.562138 1_555
La1 O17 2.566832 1_555
La1 O18 2.633813 1_555
La1 O4 2.656955 1_555
La1 O6 2.665908 1_555
La1 O6 2.686537 1_655
La1 O3 2.821356 1_655
La1 O4 2.834644 1_655
La2 O16 2.423398 1_555
La2 O19 2.519077 1_555
La2 O8 2.549419 1_555
La2 O8 2.605405 1_655
La2 O17 2.630577 1_565
La2 O5 2.637586 1_555
La2 O3 2.646600 1_565
La2 O5 2.829904 1_655
La2 O3 2.985472 1_665
Cu0 O8 1.883070 1_545
Cu0 O6 1.913561 1_555
Cu0 O17 1.950138 1_455
Cu0 O17 1.975200 1_555
Cu0 O3 2.159514 1_555
Cu1 O19 1.960406 1_455
Cu1 O19 1.961168 1_555
Cu1 O8 1.996681 1_555
Cu1 O7 2.040494 1_555
Cu1 O10 2.050076 1_556
Cu1 O5 2.111158 1_555
Cu2 O11 1.922457 1_555
Cu2 O12 1.929416 1_555
Cu2 O0 1.962415 1_555
Cu2 O0 1.964799 1_655
Cu2 O14 2.402880 1_555
O0 Sr3 2.619282 1_555
O0 Sr4 2.631187 1_555
O0 Sr1 2.654763 1_454
O0 Sr0 2.758104 1_544
O1 Ti1 1.930277 1_455
O1 Ti1 2.018081 1_555
O1 Sr2 2.780178 1_454
O1 Sr4 2.868510 1_555
O1 Sr1 2.901314 1_454
O2 Ti2 1.962274 1_455
O2 Ti2 1.988870 1_555
O2 Sr3 2.626393 1_565
O2 Sr0 2.895493 1_554
O2 Sr2 2.901933 1_454
O3 Sr3 2.431206 1_555
O4 Ti0 1.917966 1_555
O4 Sr4 2.520554 1_555
O4 Sr5 2.908829 1_555
O4 Sr5 3.091997 1_455
O5 Sr5 2.743805 1_555
O5 Sr5 2.860605 1_455
O6 Ti0 2.048106 1_555
O6 Sr1 2.628224 1_455
O6 Sr1 2.704371 1_555
O7 Ti0 1.853270 1_555
O7 Sr5 2.571925 1_555
O7 Sr5 2.597924 1_455
O7 Sr2 2.751552 1_455
O7 Sr2 2.843171 1_555
O8 Sr0 2.641282 1_555
O8 Sr0 2.826545 1_655
O9 Ti1 1.935756 1_555
O9 Ti0 2.063409 1_554
O9 Sr2 2.746485 1_454
O9 Sr2 2.748604 1_554
O9 Sr1 2.787400 1_454
O9 Sr1 2.788206 1_554
O10 Ti2 1.845902 1_555
O10 Sr2 2.695754 1_454
O10 Sr0 2.725329 1_554
O10 Sr2 2.732284 1_554
O10 Sr0 2.807739 1_654
O11 Ti2 1.919994 1_545
O11 Sr3 2.683342 1_555
O11 Sr3 2.697754 1_655
O11 Sr0 2.715989 1_644
O11 Sr0 2.769535 1_544
O12 Ti1 1.885957 1_555
O12 Sr4 2.673825 1_555
O12 Sr1 2.682218 1_554
O12 Sr4 2.722319 1_655
O12 Sr1 2.798990 1_454
O13 Ti2 1.977196 1_555
O13 Ti1 2.096632 1_555
O13 Sr2 2.850067 1_554
O13 Sr2 2.913304 1_454
O14 Sr4 2.644983 1_555
O14 Sr3 2.706858 1_555
O14 Sr4 2.736884 1_655
O14 Sr3 2.750143 1_655
O15 Ti1 2.005953 1_555
O15 Sr5 2.474168 1_555
O15 Sr4 2.843978 1_555
O15 Sr4 3.069050 1_655
O16 Ti2 2.235594 1_555
O16 Sr3 2.874356 1_565
O16 Sr3 3.051963 1_665
O17 Sr0 2.642296 1_645
O17 Sr1 2.736875 1_555
O18 Ti0 1.940746 1_655
O18 Ti0 1.996512 1_555
O18 Sr1 2.615572 1_555
O18 Sr2 2.789737 1_555
O18 Sr5 2.843316 1_555
O19 Sr5 2.543347 1_555
O19 Sr0 2.685357 1_655
O19 Sr2 2.781523 1_555
