# generated using pymatgen
data_U(MoO5)12
_symmetry_space_group_name_H-M   'P 1'
_cell_length_a   10.64207469
_cell_length_b   10.64207469
_cell_length_c   10.64207417
_cell_angle_alpha   78.43507146
_cell_angle_beta   78.43507146
_cell_angle_gamma   78.43507449
_symmetry_Int_Tables_number   1
_chemical_formula_structural   U(MoO5)12
_chemical_formula_sum   'U1 Mo12 O60'
_cell_volume   1140.56881537
_cell_formula_units_Z   1
loop_
 _symmetry_equiv_pos_site_id
 _symmetry_equiv_pos_as_xyz
  1  'x, y, z'
loop_
 _atom_site_type_symbol
 _atom_site_label
 _atom_site_symmetry_multiplicity
 _atom_site_fract_x
 _atom_site_fract_y
 _atom_site_fract_z
 _atom_site_occupancy
  U  U0  1  0.00000000  0.00000000  0.00000000  1
  Mo  Mo0  1  0.14835900  0.66733800  0.06088100  1
  Mo  Mo1  1  0.66733800  0.06088100  0.14835900  1
  Mo  Mo2  1  0.06088100  0.14835900  0.66733800  1
  Mo  Mo3  1  0.85164100  0.33266200  0.93911900  1
  Mo  Mo4  1  0.33266200  0.93911900  0.85164100  1
  Mo  Mo5  1  0.93911900  0.85164100  0.33266200  1
  Mo  Mo6  1  0.83411200  0.72436300  0.05490500  1
  Mo  Mo7  1  0.72436300  0.05490500  0.83411200  1
  Mo  Mo8  1  0.05490500  0.83411200  0.72436300  1
  Mo  Mo9  1  0.16588800  0.27563700  0.94509500  1
  Mo  Mo10  1  0.27563700  0.94509500  0.16588800  1
  Mo  Mo11  1  0.94509500  0.16588800  0.27563700  1
  O  O0  1  0.79016400  0.67438100  0.92770700  1
  O  O1  1  0.67438100  0.92770700  0.79016400  1
  O  O2  1  0.92770700  0.79016400  0.67438100  1
  O  O3  1  0.20983600  0.32561900  0.07229300  1
  O  O4  1  0.32561900  0.07229300  0.20983600  1
  O  O5  1  0.07229300  0.20983600  0.32561900  1
  O  O6  1  0.71612000  0.68331000  0.18603400  1
  O  O7  1  0.68331000  0.18603400  0.71612000  1
  O  O8  1  0.18603400  0.71612000  0.68331000  1
  O  O9  1  0.28388000  0.31669000  0.81396600  1
  O  O10  1  0.31669000  0.81396600  0.28388000  1
  O  O11  1  0.81396600  0.28388000  0.31669000  1
  O  O12  1  0.01686100  0.79161400  0.91670500  1
  O  O13  1  0.79161400  0.91670500  0.01686100  1
  O  O14  1  0.91670500  0.01686100  0.79161400  1
  O  O15  1  0.98313900  0.20838600  0.08329500  1
  O  O16  1  0.20838600  0.08329500  0.98313900  1
  O  O17  1  0.08329500  0.98313900  0.20838600  1
  O  O18  1  0.98662000  0.58345700  0.09611200  1
  O  O19  1  0.58345700  0.09611200  0.98662000  1
  O  O20  1  0.09611200  0.98662000  0.58345700  1
  O  O21  1  0.01338000  0.41654300  0.90388800  1
  O  O22  1  0.41654300  0.90388800  0.01338000  1
  O  O23  1  0.90388800  0.01338000  0.41654300  1
  O  O24  1  0.97236200  0.80540500  0.15376000  1
  O  O25  1  0.80540500  0.15376000  0.97236200  1
  O  O26  1  0.15376000  0.97236200  0.80540500  1
  O  O27  1  0.02763800  0.19459500  0.84624000  1
  O  O28  1  0.19459500  0.84624000  0.02763800  1
  O  O29  1  0.84624000  0.02763800  0.19459500  1
  O  O30  1  0.24606100  0.59507400  0.93680700  1
  O  O31  1  0.59507400  0.93680700  0.24606100  1
  O  O32  1  0.93680700  0.24606100  0.59507400  1
  O  O33  1  0.75393900  0.40492600  0.06319300  1
  O  O34  1  0.40492600  0.06319300  0.75393900  1
  O  O35  1  0.06319300  0.75393900  0.40492600  1
  O  O36  1  0.21825500  0.59842700  0.19671100  1
  O  O37  1  0.59842700  0.19671100  0.21825500  1
  O  O38  1  0.19671100  0.21825500  0.59842700  1
  O  O39  1  0.78174500  0.40157300  0.80328900  1
  O  O40  1  0.40157300  0.80328900  0.78174500  1
  O  O41  1  0.80328900  0.78174500  0.40157300  1
  O  O42  1  0.04224800  0.52484000  0.72260200  1
  O  O43  1  0.52484000  0.72260200  0.04224800  1
  O  O44  1  0.72260200  0.04224800  0.52484000  1
  O  O45  1  0.95775200  0.47516000  0.27739800  1
  O  O46  1  0.47516000  0.27739800  0.95775200  1
  O  O47  1  0.27739800  0.95775200  0.47516000  1
  O  O48  1  0.35667800  0.26372600  0.38127800  1
  O  O49  1  0.26372600  0.38127800  0.35667800  1
  O  O50  1  0.38127800  0.35667800  0.26372600  1
  O  O51  1  0.64332200  0.73627400  0.61872200  1
  O  O52  1  0.73627400  0.61872200  0.64332200  1
  O  O53  1  0.61872200  0.64332200  0.73627400  1
  O  O54  1  0.52202100  0.60674800  0.40960200  1
  O  O55  1  0.60674800  0.40960200  0.52202100  1
  O  O56  1  0.40960200  0.52202100  0.60674800  1
  O  O57  1  0.47797900  0.39325200  0.59039800  1
  O  O58  1  0.39325200  0.59039800  0.47797900  1
  O  O59  1  0.59039800  0.47797900  0.39325200  1
loop_
_geom_bond_atom_site_label_1
_geom_bond_atom_site_label_2
_geom_bond_distance
_geom_bond_site_symmetry_2
Mo0 O30 1.718151 1_554
Mo0 O36 1.722779 1_555
Mo0 O28 2.006942 1_555
Mo0 O18 2.030568 1_455
Mo0 O12 2.316651 1_554
Mo0 O24 2.319592 1_455
Mo1 O31 1.718151 1_545
Mo1 O37 1.722779 1_555
Mo1 O29 2.006942 1_555
Mo1 O19 2.030568 1_554
Mo1 O13 2.316651 1_545
Mo1 O25 2.319592 1_554
Mo2 O32 1.718151 1_455
Mo2 O38 1.722779 1_555
Mo2 O27 2.006942 1_555
Mo2 O20 2.030568 1_545
Mo2 O14 2.316651 1_455
Mo2 O26 2.319592 1_545
Mo3 O33 1.718151 1_556
Mo3 O39 1.722779 1_555
Mo3 O25 2.006942 1_555
Mo3 O21 2.030568 1_655
Mo3 O15 2.316651 1_556
Mo3 O27 2.319592 1_655
Mo4 O34 1.718151 1_565
Mo4 O40 1.722779 1_555
Mo4 O26 2.006942 1_555
Mo4 O22 2.030568 1_556
Mo4 O16 2.316651 1_565
Mo4 O28 2.319592 1_556
Mo5 O35 1.718151 1_655
Mo5 O41 1.722779 1_555
Mo5 O24 2.006942 1_555
Mo5 O23 2.030568 1_565
Mo5 O17 2.316651 1_655
Mo5 O29 2.319592 1_565
Mo6 O0 1.725205 1_554
Mo6 O6 1.728555 1_555
Mo6 O13 1.981990 1_555
Mo6 O18 2.030005 1_555
Mo6 O12 2.333840 1_654
Mo6 O24 2.346994 1_555
Mo7 O1 1.725205 1_545
Mo7 O7 1.728555 1_555
Mo7 O14 1.981990 1_555
Mo7 O19 2.030005 1_555
Mo7 O13 2.333840 1_546
Mo7 O25 2.346994 1_555
Mo8 O2 1.725205 1_455
Mo8 O8 1.728555 1_555
Mo8 O12 1.981989 1_555
Mo8 O20 2.030005 1_555
Mo8 O14 2.333840 1_465
Mo8 O26 2.346994 1_555
Mo9 O3 1.725205 1_556
Mo9 O9 1.728555 1_555
Mo9 O16 1.981990 1_555
Mo9 O21 2.030005 1_555
Mo9 O15 2.333840 1_456
Mo9 O27 2.346994 1_555
Mo10 O4 1.725205 1_565
Mo10 O10 1.728555 1_555
Mo10 O17 1.981990 1_555
Mo10 O22 2.030005 1_555
Mo10 O16 2.333840 1_564
Mo10 O28 2.346994 1_555
Mo11 O5 1.725205 1_655
Mo11 O11 1.728555 1_555
Mo11 O15 1.981989 1_555
Mo11 O23 2.030005 1_555
Mo11 O17 2.333840 1_645
Mo11 O29 2.346994 1_555
O12 U0 2.510149 1_566
O13 U0 2.510149 1_665
O14 U0 2.510149 1_656
O15 U0 2.510149 1_655
O16 U0 2.510149 1_556
O17 U0 2.510149 1_565
O18 O45 2.038992 1_555
O19 O46 2.038992 1_555
O20 O47 2.038992 1_555
O21 O42 2.038992 1_555
O22 O43 2.038992 1_555
O23 O44 2.038992 1_555
O24 U0 2.396919 1_665
O25 U0 2.396919 1_656
O26 U0 2.396919 1_566
O27 U0 2.396919 1_556
O28 U0 2.396919 1_565
O29 U0 2.396919 1_655
O48 O50 1.445127 1_555
O48 O49 1.445127 1_555
O49 O50 1.445127 1_555
O51 O53 1.445127 1_555
O51 O52 1.445127 1_555
O52 O53 1.445127 1_555
O54 O58 1.443159 1_555
O54 O59 1.443159 1_555
O55 O59 1.443159 1_555
O55 O57 1.443159 1_555
O56 O58 1.443159 1_555
O56 O57 1.443159 1_555
