# generated using pymatgen
data_Cr3Si2Mo3
_symmetry_space_group_name_H-M   'P 1'
_cell_length_a   4.74311914
_cell_length_b   4.74311914
_cell_length_c   4.74311914
_cell_angle_alpha   90.09324198
_cell_angle_beta   89.90675802
_cell_angle_gamma   89.90675802
_symmetry_Int_Tables_number   1
_chemical_formula_structural   Cr3Si2Mo3
_chemical_formula_sum   'Cr3 Si2 Mo3'
_cell_volume   106.70637699
_cell_formula_units_Z   1
loop_
 _symmetry_equiv_pos_site_id
 _symmetry_equiv_pos_as_xyz
  1  'x, y, z'
loop_
 _atom_site_type_symbol
 _atom_site_label
 _atom_site_symmetry_multiplicity
 _atom_site_fract_x
 _atom_site_fract_y
 _atom_site_fract_z
 _atom_site_occupancy
  Cr  Cr0  1  0.50136600  0.75000000  0.00136600  1
  Cr  Cr1  1  0.25000000  0.00136600  0.49863400  1
  Cr  Cr2  1  0.99863400  0.49863400  0.75000000  1
  Si  Si0  1  0.49182500  0.50817500  0.50817500  1
  Si  Si1  1  0.00817500  0.99182500  0.99182500  1
  Mo  Mo0  1  0.49990700  0.25000000  0.99990700  1
  Mo  Mo1  1  0.75000000  0.99990700  0.50009300  1
  Mo  Mo2  1  0.00009300  0.50009300  0.25000000  1
loop_
_geom_bond_atom_site_label_1
_geom_bond_atom_site_label_2
_geom_bond_distance
_geom_bond_site_symmetry_2
Cr0 Mo0 2.371580 1_564
Cr0 Mo0 2.371580 1_554
Cr0 Si0 2.604151 1_554
Cr0 Si1 2.604151 1_554
Cr0 Si0 2.665516 1_555
Cr0 Si1 2.665516 1_654
Cr1 Mo1 2.371580 1_445
Cr1 Mo1 2.371580 1_545
Cr1 Si0 2.604151 1_545
Cr1 Si1 2.604151 1_545
Cr1 Si0 2.665516 1_555
Cr1 Si1 2.665516 1_544
Cr2 Mo2 2.371580 1_655
Cr2 Mo2 2.371580 1_656
Cr2 Si0 2.604151 1_655
Cr2 Si1 2.604151 1_655
Cr2 Si1 2.665516 1_645
Cr2 Si0 2.665516 1_555
Mo0 Si0 2.636335 1_555
Mo0 Si1 2.636335 1_545
Mo0 Si0 2.702366 1_556
Mo0 Si1 2.702366 1_645
Mo1 Si0 2.636335 1_555
Mo1 Si1 2.636335 1_655
Mo1 Si0 2.702366 1_565
Mo1 Si1 2.702366 1_654
Mo2 Si1 2.636335 1_554
Mo2 Si0 2.636335 1_555
Mo2 Si0 2.702366 1_455
Mo2 Si1 2.702366 1_544
