# generated using pymatgen
data_LiAg3
_symmetry_space_group_name_H-M   'P 1'
_cell_length_a   5.74088574
_cell_length_b   5.74088574
_cell_length_c   4.65837176
_cell_angle_alpha   90.00000000
_cell_angle_beta   90.00000000
_cell_angle_gamma   120.00000598
_symmetry_Int_Tables_number   1
_chemical_formula_structural   LiAg3
_chemical_formula_sum   'Li2 Ag6'
_cell_volume   132.96047446
_cell_formula_units_Z   2
loop_
 _symmetry_equiv_pos_site_id
 _symmetry_equiv_pos_as_xyz
  1  'x, y, z'
loop_
 _atom_site_type_symbol
 _atom_site_label
 _atom_site_symmetry_multiplicity
 _atom_site_fract_x
 _atom_site_fract_y
 _atom_site_fract_z
 _atom_site_occupancy
  Li  Li0  1  0.66666700  0.33333300  0.25000000  1
  Li  Li1  1  0.33333300  0.66666700  0.75000000  1
  Ag  Ag0  1  0.83192670  0.16807330  0.75000000  1
  Ag  Ag1  1  0.33614659  0.16807330  0.75000000  1
  Ag  Ag2  1  0.83192670  0.66385341  0.75000000  1
  Ag  Ag3  1  0.16807330  0.83192670  0.25000000  1
  Ag  Ag4  1  0.66385341  0.83192670  0.25000000  1
  Ag  Ag5  1  0.16807330  0.33614659  0.25000000  1
loop_
_geom_bond_atom_site_label_1
_geom_bond_atom_site_label_2
_geom_bond_distance
_geom_bond_site_symmetry_2
Ag0 Ag1 2.846217 1_555
Ag0 Ag2 2.846217 1_555
Ag0 Li0 2.850511 1_556
Ag0 Li0 2.850511 1_555
Ag0 Ag4 2.866730 1_545
Ag0 Ag4 2.866730 1_546
Ag0 Ag5 2.866730 1_655
Ag0 Ag5 2.866730 1_656
Ag0 Li1 2.870477 1_545
Ag0 Li1 2.870477 1_655
Ag0 Ag2 2.894669 1_545
Ag0 Ag1 2.894669 1_655
Ag1 Ag2 2.846217 1_555
Ag1 Li0 2.850514 1_556
Ag1 Li0 2.850514 1_555
Ag1 Ag3 2.866730 1_546
Ag1 Ag3 2.866730 1_545
Ag1 Ag5 2.866730 1_556
Ag1 Ag5 2.866730 1_555
Ag1 Li1 2.870474 1_545
Ag1 Li1 2.870480 1_555
Ag1 Ag2 2.894669 1_445
Ag2 Li0 2.850514 1_556
Ag2 Li0 2.850514 1_555
Ag2 Ag3 2.866730 1_655
Ag2 Ag3 2.866730 1_656
Ag2 Ag4 2.866730 1_555
Ag2 Ag4 2.866730 1_556
Ag2 Li1 2.870474 1_655
Ag2 Li1 2.870480 1_555
Ag3 Ag5 2.846217 1_555
Ag3 Ag4 2.846217 1_555
Ag3 Li1 2.850511 1_555
Ag3 Li1 2.850511 1_554
Ag3 Li0 2.870477 1_455
Ag3 Li0 2.870477 1_565
Ag3 Ag4 2.894669 1_455
Ag3 Ag5 2.894669 1_565
Ag4 Ag5 2.846217 1_555
Ag4 Li1 2.850514 1_554
Ag4 Li1 2.850514 1_555
Ag4 Li0 2.870474 1_565
Ag4 Li0 2.870480 1_555
Ag4 Ag5 2.894669 1_665
Ag5 Li1 2.850514 1_554
Ag5 Li1 2.850514 1_555
Ag5 Li0 2.870474 1_455
Ag5 Li0 2.870480 1_555
