# generated using pymatgen
data_BaV4O8
_symmetry_space_group_name_H-M   'P 1'
_cell_length_a   5.71436949
_cell_length_b   5.71436949
_cell_length_c   7.94999000
_cell_angle_alpha   90.00000000
_cell_angle_beta   90.00000000
_cell_angle_gamma   119.99999412
_symmetry_Int_Tables_number   1
_chemical_formula_structural   BaV4O8
_chemical_formula_sum   'Ba1 V4 O8'
_cell_volume   224.81944782
_cell_formula_units_Z   1
loop_
 _symmetry_equiv_pos_site_id
 _symmetry_equiv_pos_as_xyz
  1  'x, y, z'
loop_
 _atom_site_type_symbol
 _atom_site_label
 _atom_site_symmetry_multiplicity
 _atom_site_fract_x
 _atom_site_fract_y
 _atom_site_fract_z
 _atom_site_occupancy
  Ba  Ba0  1  0.00000000  0.00000000  0.00000000  1
  V  V0  1  0.33333300  0.66666700  0.76518700  1
  V  V1  1  0.66666700  0.33333300  0.76518700  1
  V  V2  1  0.33333300  0.66666700  0.23481300  1
  V  V3  1  0.66666700  0.33333300  0.23481300  1
  O  O0  1  0.36894100  0.36894100  0.71436200  1
  O  O1  1  0.63105900  0.00000000  0.71436200  1
  O  O2  1  0.00000000  0.63105900  0.71436200  1
  O  O3  1  0.63105900  0.63105900  0.28563800  1
  O  O4  1  0.00000000  0.36894100  0.28563800  1
  O  O5  1  0.36894100  0.00000000  0.28563800  1
  O  O6  1  0.33333300  0.66666700  0.00000000  1
  O  O7  1  0.66666700  0.33333300  0.00000000  1
loop_
_geom_bond_atom_site_label_1
_geom_bond_atom_site_label_2
_geom_bond_distance
_geom_bond_site_symmetry_2
Ba0 O5 3.098613 1_555
Ba0 O4 3.098613 1_555
Ba0 O2 3.098613 1_544
Ba0 O1 3.098613 1_454
Ba0 O0 3.098613 1_554
Ba0 O3 3.098613 1_445
Ba0 O7 3.299189 1_455
Ba0 O6 3.299189 1_545
Ba0 O7 3.299195 1_445
Ba0 O6 3.299195 1_555
Ba0 O6 3.299195 1_445
Ba0 O7 3.299195 1_555
O0 V1 1.856158 1_555
O0 V0 1.856158 1_555
O1 V1 1.856153 1_555
O1 V0 1.856155 1_545
O2 V0 1.856153 1_555
O2 V1 1.856155 1_455
O3 V3 1.856158 1_555
O3 V2 1.856158 1_555
O4 V3 1.856153 1_455
O4 V2 1.856155 1_555
O5 V2 1.856153 1_545
O5 V3 1.856155 1_555
O6 V2 1.866761 1_555
O6 V0 1.866761 1_554
O7 V3 1.866761 1_555
O7 V1 1.866761 1_554
