# generated using pymatgen
data_CsLu4F13
_symmetry_space_group_name_H-M   'P 1'
_cell_length_a   7.98681480
_cell_length_b   7.98681480
_cell_length_c   17.26068751
_cell_angle_alpha   89.61874144
_cell_angle_beta   89.61874144
_cell_angle_gamma   60.19299542
_symmetry_Int_Tables_number   1
_chemical_formula_structural   CsLu4F13
_chemical_formula_sum   'Cs3 Lu12 F39'
_cell_volume   955.35420264
_cell_formula_units_Z   3
loop_
 _symmetry_equiv_pos_site_id
 _symmetry_equiv_pos_as_xyz
  1  'x, y, z'
loop_
 _atom_site_type_symbol
 _atom_site_label
 _atom_site_symmetry_multiplicity
 _atom_site_fract_x
 _atom_site_fract_y
 _atom_site_fract_z
 _atom_site_occupancy
  Cs  Cs0  1  0.50084200  0.50084200  0.11568500  1
  Cs  Cs1  1  0.50000700  0.50000700  0.37511800  1
  Cs  Cs2  1  0.49952500  0.49952500  0.63263300  1
  Lu  Lu0  1  0.01390100  0.48550100  0.25434500  1
  Lu  Lu1  1  0.01369500  0.48545200  0.50506100  1
  Lu  Lu2  1  0.01155600  0.48390100  0.75651800  1
  Lu  Lu3  1  0.01556300  0.48667100  0.00378500  1
  Lu  Lu4  1  0.48550100  0.01390100  0.25434500  1
  Lu  Lu5  1  0.48545200  0.01369500  0.50506100  1
  Lu  Lu6  1  0.48390100  0.01155600  0.75651800  1
  Lu  Lu7  1  0.48667100  0.01556300  0.00378500  1
  Lu  Lu8  1  0.01424300  0.01424300  0.25806200  1
  Lu  Lu9  1  0.01437500  0.01437500  0.50229100  1
  Lu  Lu10  1  0.01467000  0.01467000  0.74444800  1
  Lu  Lu11  1  0.01623200  0.01623200  0.01589700  1
  F  F0  1  0.17288300  0.17288300  0.03381500  1
  F  F1  1  0.17134900  0.17134900  0.27800600  1
  F  F2  1  0.17052800  0.17052800  0.52796200  1
  F  F3  1  0.15936800  0.15936800  0.79840600  1
  F  F4  1  0.06494100  0.72946800  0.00419100  1
  F  F5  1  0.06895100  0.72274400  0.25750800  1
  F  F6  1  0.06905600  0.72278000  0.50630100  1
  F  F7  1  0.06655500  0.72695500  0.75998400  1
  F  F8  1  0.72946800  0.06494100  0.00419100  1
  F  F9  1  0.72274400  0.06895100  0.25750800  1
  F  F10  1  0.72278000  0.06905600  0.50630100  1
  F  F11  1  0.72695500  0.06655500  0.75998400  1
  F  F12  1  0.84747300  0.32566600  0.99249900  1
  F  F13  1  0.83569500  0.33758900  0.24609300  1
  F  F14  1  0.83541700  0.33842100  0.49510800  1
  F  F15  1  0.84907200  0.32998600  0.73490100  1
  F  F16  1  0.32566600  0.84747300  0.99249900  1
  F  F17  1  0.33758900  0.83569500  0.24609300  1
  F  F18  1  0.33842100  0.83541700  0.49510800  1
  F  F19  1  0.32998600  0.84907200  0.73490100  1
  F  F20  1  0.72157300  0.72157300  0.25593800  1
  F  F21  1  0.72170200  0.72170200  0.50517200  1
  F  F22  1  0.72165100  0.72165100  0.75207200  1
  F  F23  1  0.72066800  0.72066800  0.01057000  1
  F  F24  1  0.33868400  0.33868400  0.99840800  1
  F  F25  1  0.33955100  0.33955100  0.24496700  1
  F  F26  1  0.33907700  0.33907700  0.49599600  1
  F  F27  1  0.32564100  0.32564100  0.73948600  1
  F  F28  1  0.01556300  0.49146000  0.12980300  1
  F  F29  1  0.01689500  0.48834800  0.37989800  1
  F  F30  1  0.01580800  0.49049500  0.63028000  1
  F  F31  1  0.01064100  0.49544700  0.88033200  1
  F  F32  1  0.49146000  0.01556300  0.12980300  1
  F  F33  1  0.48834800  0.01689500  0.37989800  1
  F  F34  1  0.49049500  0.01580800  0.63028000  1
  F  F35  1  0.49544700  0.01064100  0.88033200  1
  F  F36  1  0.01195400  0.01195400  0.13406000  1
  F  F37  1  0.01310200  0.01310200  0.38030900  1
  F  F38  1  0.01148700  0.01148700  0.62643500  1
loop_
_geom_bond_atom_site_label_1
_geom_bond_atom_site_label_2
_geom_bond_distance
_geom_bond_site_symmetry_2
Cs0 F24 3.031461 1_554
Cs0 F25 3.141936 1_555
Cs0 F12 3.202107 1_554
Cs0 F16 3.202107 1_554
Cs0 F13 3.239378 1_555
Cs0 F17 3.239378 1_555
Cs1 F26 3.037815 1_555
Cs1 F14 3.119703 1_555
Cs1 F18 3.119703 1_555
Cs1 F25 3.168715 1_555
Cs1 F13 3.214359 1_555
Cs1 F17 3.214359 1_555
Cs2 F19 3.003175 1_555
Cs2 F15 3.003175 1_555
Cs2 F27 3.018002 1_555
Cs2 F26 3.249556 1_555
Cs2 F18 3.318365 1_555
Cs2 F14 3.318365 1_555
F0 Lu11 2.189265 1_555
F0 Lu7 2.233631 1_555
F0 Lu3 2.233631 1_555
F1 Lu8 2.200955 1_555
F1 Lu4 2.213598 1_555
F1 Lu0 2.213598 1_555
F2 Lu9 2.206405 1_555
F2 Lu1 2.216497 1_555
F2 Lu5 2.216497 1_555
F3 Lu10 2.212471 1_555
F3 Lu2 2.362024 1_555
F3 Lu6 2.362024 1_555
F4 Lu11 2.134735 1_565
F4 Lu3 2.162519 1_555
F5 Lu8 2.144808 1_565
F5 Lu0 2.148617 1_555
F6 Lu9 2.146267 1_565
F6 Lu1 2.150056 1_555
F7 Lu10 2.137917 1_565
F7 Lu2 2.194204 1_555
F8 Lu11 2.134735 1_655
F8 Lu7 2.162519 1_555
F9 Lu8 2.144808 1_655
F9 Lu4 2.148617 1_555
F10 Lu9 2.146267 1_655
F10 Lu5 2.150056 1_555
F11 Lu10 2.137917 1_655
F11 Lu6 2.194204 1_555
F12 Lu11 2.184018 1_656
F12 Lu3 2.284060 1_656
F13 Lu8 2.254145 1_655
F13 Lu0 2.262337 1_655
F14 Lu9 2.253228 1_655
F14 Lu1 2.259242 1_655
F15 Lu10 2.191951 1_655
F15 Lu2 2.221035 1_655
F16 Lu11 2.184018 1_566
F16 Lu7 2.284060 1_566
F17 Lu8 2.254145 1_565
F17 Lu4 2.262337 1_565
F18 Lu9 2.253228 1_565
F18 Lu5 2.259242 1_565
F19 Lu10 2.191951 1_565
F19 Lu6 2.221035 1_565
F20 Lu0 2.151813 1_655
F20 Lu4 2.151813 1_565
F21 Lu1 2.150417 1_655
F21 Lu5 2.150417 1_565
F22 Lu2 2.145267 1_655
F22 Lu6 2.145267 1_565
F23 Lu3 2.162632 1_655
F23 Lu7 2.162632 1_565
F24 Lu3 2.243098 1_556
F24 Lu7 2.243098 1_556
F25 Lu4 2.265506 1_555
F25 Lu0 2.265506 1_555
F26 Lu1 2.263055 1_555
F26 Lu5 2.263055 1_555
F27 Lu2 2.195392 1_555
F27 Lu6 2.195392 1_555
F28 Lu0 2.149989 1_555
F28 Lu3 2.175748 1_555
F29 Lu1 2.160486 1_555
F29 Lu0 2.167817 1_555
F30 Lu1 2.162344 1_555
F30 Lu2 2.179687 1_555
F31 Lu3 2.131551 1_556
F31 Lu2 2.139524 1_555
F32 Lu4 2.149989 1_555
F32 Lu7 2.175748 1_555
F33 Lu5 2.160486 1_555
F33 Lu4 2.167817 1_555
F34 Lu5 2.162344 1_555
F34 Lu6 2.179687 1_555
F35 Lu7 2.131551 1_556
F35 Lu6 2.139524 1_555
F36 Lu11 2.039977 1_555
F36 Lu8 2.140837 1_555
F37 Lu9 2.105702 1_555
F37 Lu8 2.110005 1_555
F38 Lu10 2.037799 1_555
F38 Lu9 2.142876 1_555
