# generated using pymatgen
data_KLiTmF5
_symmetry_space_group_name_H-M   'P 1'
_cell_length_a   6.28548006
_cell_length_b   6.45938628
_cell_length_c   11.85447600
_cell_angle_alpha   90.00000000
_cell_angle_beta   90.00000000
_cell_angle_gamma   114.02306457
_symmetry_Int_Tables_number   1
_chemical_formula_structural   KLiTmF5
_chemical_formula_sum   'K4 Li4 Tm4 F20'
_cell_volume   439.60675214
_cell_formula_units_Z   4
loop_
 _symmetry_equiv_pos_site_id
 _symmetry_equiv_pos_as_xyz
  1  'x, y, z'
loop_
 _atom_site_type_symbol
 _atom_site_label
 _atom_site_symmetry_multiplicity
 _atom_site_fract_x
 _atom_site_fract_y
 _atom_site_fract_z
 _atom_site_occupancy
  K  K0  1  0.54324800  0.05947400  0.35000700  1
  K  K1  1  0.95675200  0.94052600  0.85000700  1
  K  K2  1  0.45675200  0.94052600  0.64999300  1
  K  K3  1  0.04324800  0.05947400  0.14999300  1
  Li  Li0  1  0.96388900  0.56366400  0.24671400  1
  Li  Li1  1  0.53611100  0.43633600  0.74671400  1
  Li  Li2  1  0.03611100  0.43633600  0.75328600  1
  Li  Li3  1  0.46388900  0.56366400  0.25328600  1
  Tm  Tm0  1  0.82014800  0.68210300  0.49806100  1
  Tm  Tm1  1  0.67985200  0.31789700  0.99806100  1
  Tm  Tm2  1  0.17985200  0.31789700  0.50193900  1
  Tm  Tm3  1  0.32014800  0.68210300  0.00193900  1
  F  F0  1  0.45326000  0.66412200  0.47103500  1
  F  F1  1  0.04674000  0.33587800  0.97103500  1
  F  F2  1  0.54674000  0.33587800  0.52896500  1
  F  F3  1  0.95326000  0.66412200  0.02896500  1
  F  F4  1  0.82938400  0.04487700  0.50976700  1
  F  F5  1  0.67061600  0.95512300  0.00976700  1
  F  F6  1  0.17061600  0.95512300  0.49023300  1
  F  F7  1  0.32938400  0.04487700  0.99023300  1
  F  F8  1  0.28072100  0.72669700  0.19162900  1
  F  F9  1  0.21927900  0.27330300  0.69162900  1
  F  F10  1  0.71927900  0.27330300  0.80837100  1
  F  F11  1  0.78072100  0.72669700  0.30837100  1
  F  F12  1  0.96424700  0.46482400  0.39713200  1
  F  F13  1  0.53575300  0.53517600  0.89713200  1
  F  F14  1  0.03575300  0.53517600  0.60286800  1
  F  F15  1  0.46424700  0.46482400  0.10286800  1
  F  F16  1  0.77634600  0.29383900  0.17212300  1
  F  F17  1  0.72365400  0.70616100  0.67212300  1
  F  F18  1  0.22365400  0.70616100  0.82787700  1
  F  F19  1  0.27634600  0.29383900  0.32787700  1
loop_
_geom_bond_atom_site_label_1
_geom_bond_atom_site_label_2
_geom_bond_distance
_geom_bond_site_symmetry_2
F0 Tm2 2.227046 1_555
F0 Tm0 2.283856 1_555
F0 K2 2.767091 1_555
F0 K0 2.779177 1_565
F1 Tm3 2.227046 1_556
F1 Tm1 2.283856 1_455
F1 K3 2.767091 1_556
F1 K1 2.779177 1_445
F2 Tm0 2.227046 1_555
F2 Tm2 2.283856 1_555
F2 K0 2.767091 1_555
F2 K2 2.779177 1_545
F3 Tm1 2.227046 1_554
F3 Tm3 2.283856 1_655
F3 K1 2.767091 1_554
F3 K3 2.779177 1_665
F4 Tm2 2.192764 1_655
F4 Tm0 2.324416 1_545
F4 K0 2.639757 1_555
F4 K2 2.723591 1_545
F5 Tm3 2.192764 1_555
F5 Tm1 2.324416 1_564
F5 K1 2.639757 1_554
F5 K3 2.723591 1_665
F6 Tm0 2.192764 1_455
F6 Tm2 2.324416 1_565
F6 K2 2.639757 1_555
F6 K0 2.723591 1_565
F7 Tm1 2.192764 1_555
F7 Tm3 2.324416 1_546
F7 K3 2.639757 1_556
F7 K1 2.723591 1_445
F8 Li0 1.947748 1_455
F8 Li3 1.988943 1_555
F8 Tm3 2.293262 1_555
F8 K0 2.824951 1_565
F8 K3 3.115193 1_565
F9 Li1 1.947748 1_555
F9 Li2 1.988943 1_555
F9 Tm2 2.293262 1_555
F9 K1 2.824951 1_445
F9 K2 3.115193 1_545
F10 Li2 1.947748 1_655
F10 Li1 1.988943 1_555
F10 Tm1 2.293262 1_555
F10 K2 2.824951 1_545
F10 K1 3.115193 1_545
F11 Li3 1.947748 1_555
F11 Li0 1.988943 1_555
F11 Tm0 2.293262 1_555
F11 K3 2.824951 1_665
F11 K0 3.115193 1_565
F12 Li0 1.894288 1_555
F12 Tm0 2.292740 1_555
F12 Tm2 2.308258 1_655
F12 K0 2.920384 1_555
F13 Li1 1.894288 1_555
F13 Tm1 2.292740 1_555
F13 Tm3 2.308258 1_556
F13 K1 2.920384 1_555
F14 Li2 1.894288 1_555
F14 Tm2 2.292740 1_555
F14 Tm0 2.308258 1_455
F14 K2 2.920384 1_555
F15 Li3 1.894288 1_555
F15 Tm3 2.292740 1_555
F15 Tm1 2.308258 1_554
F15 K3 2.920384 1_555
F16 Li0 1.880515 1_555
F16 Tm1 2.174034 1_554
F16 K0 2.660670 1_555
F16 K3 2.691236 1_655
F17 Li1 1.880515 1_555
F17 Tm0 2.174034 1_555
F17 K1 2.660670 1_555
F17 K2 2.691236 1_555
F18 Li2 1.880515 1_555
F18 Tm3 2.174034 1_556
F18 K2 2.660670 1_555
F18 K1 2.691236 1_455
F19 Li3 1.880515 1_555
F19 Tm2 2.174034 1_555
F19 K3 2.660670 1_555
F19 K0 2.691236 1_555
