# generated using pymatgen
data_Ca2GdTaO6
_symmetry_space_group_name_H-M   'P 1'
_cell_length_a   5.90989500
_cell_length_b   5.64723600
_cell_length_c   9.93888642
_cell_angle_alpha   55.32677087
_cell_angle_beta   90.00000000
_cell_angle_gamma   90.00000000
_symmetry_Int_Tables_number   1
_chemical_formula_structural   Ca2GdTaO6
_chemical_formula_sum   'Ca4 Gd2 Ta2 O12'
_cell_volume   272.79837659
_cell_formula_units_Z   2
loop_
 _symmetry_equiv_pos_site_id
 _symmetry_equiv_pos_as_xyz
  1  'x, y, z'
loop_
 _atom_site_type_symbol
 _atom_site_label
 _atom_site_symmetry_multiplicity
 _atom_site_fract_x
 _atom_site_fract_y
 _atom_site_fract_z
 _atom_site_occupancy
  Ca  Ca0  1  0.94597200  0.72884800  0.75634200  1
  Ca  Ca1  1  0.55402800  0.72884800  0.25634200  1
  Ca  Ca2  1  0.05402800  0.27115200  0.24365800  1
  Ca  Ca3  1  0.44597200  0.27115200  0.74365800  1
  Gd  Gd0  1  0.00000000  0.50000000  0.50000000  1
  Gd  Gd1  1  0.50000000  0.50000000  0.00000000  1
  Ta  Ta0  1  0.50000000  0.00000000  0.50000000  1
  Ta  Ta1  1  0.00000000  0.00000000  0.00000000  1
  O  O0  1  0.67933800  0.65604700  0.55332500  1
  O  O1  1  0.82066200  0.65604700  0.05332500  1
  O  O2  1  0.32066200  0.34395300  0.44667500  1
  O  O3  1  0.17933800  0.34395300  0.94667500  1
  O  O4  1  0.55511800  0.88569800  0.73071200  1
  O  O5  1  0.94488200  0.88569800  0.23071200  1
  O  O6  1  0.44488200  0.11430200  0.26928800  1
  O  O7  1  0.05511800  0.11430200  0.76928800  1
  O  O8  1  0.71629800  0.24532300  0.92920300  1
  O  O9  1  0.78370200  0.24532300  0.42920300  1
  O  O10  1  0.28370200  0.75467700  0.07079700  1
  O  O11  1  0.21629800  0.75467700  0.57079700  1
loop_
_geom_bond_atom_site_label_1
_geom_bond_atom_site_label_2
_geom_bond_distance
_geom_bond_site_symmetry_2
Ca0 O7 2.342978 1_665
Ca0 O3 2.350912 1_655
Ca0 O11 2.380817 1_655
Ca0 O4 2.434834 1_555
Ca0 O8 2.629158 1_555
Ca0 O0 2.768994 1_555
Ca0 O1 2.837105 1_556
Ca0 O9 3.034508 1_565
Ca1 O6 2.342978 1_565
Ca1 O2 2.350912 1_555
Ca1 O10 2.380817 1_555
Ca1 O5 2.434834 1_555
Ca1 O9 2.629158 1_555
Ca1 O1 2.768994 1_555
Ca1 O0 2.837105 1_555
Ca1 O8 3.034508 1_564
Ca2 O5 2.342978 1_445
Ca2 O1 2.350912 1_455
Ca2 O9 2.380817 1_455
Ca2 O6 2.434834 1_555
Ca2 O10 2.629158 1_555
Ca2 O2 2.768994 1_555
Ca2 O3 2.837105 1_554
Ca2 O11 3.034508 1_545
Ca3 O4 2.342978 1_545
Ca3 O0 2.350912 1_555
Ca3 O8 2.380817 1_555
Ca3 O7 2.434834 1_555
Ca3 O11 2.629158 1_555
Ca3 O3 2.768994 1_555
Ca3 O2 2.837105 1_555
Ca3 O10 3.034508 1_546
Gd0 O0 2.276003 1_455
Gd0 O2 2.276003 1_555
Gd0 O11 2.312808 1_555
Gd0 O9 2.312808 1_455
Gd0 O7 2.319641 1_555
Gd0 O5 2.319641 1_455
Gd1 O1 2.276003 1_555
Gd1 O3 2.276003 1_554
Gd1 O10 2.312808 1_555
Gd1 O8 2.312808 1_554
Gd1 O6 2.319641 1_555
Gd1 O4 2.319641 1_554
O0 Ta0 2.001443 1_565
O1 Ta1 2.001443 1_665
O2 Ta0 2.001443 1_555
O3 Ta1 2.001443 1_556
O4 Ta0 2.024015 1_565
O5 Ta1 2.024015 1_665
O6 Ta0 2.024015 1_555
O7 Ta1 2.024015 1_556
O8 Ta1 2.028902 1_656
O9 Ta0 2.028902 1_555
O10 Ta1 2.028902 1_565
O11 Ta0 2.028902 1_565
