# generated using pymatgen
data_NpCrO11
_symmetry_space_group_name_H-M   'P 1'
_cell_length_a   9.00192984
_cell_length_b   9.20754546
_cell_length_c   11.30736800
_cell_angle_alpha   90.00000000
_cell_angle_beta   90.00000000
_cell_angle_gamma   93.89749610
_symmetry_Int_Tables_number   1
_chemical_formula_structural   NpCrO11
_chemical_formula_sum   'Np4 Cr4 O44'
_cell_volume   935.05131272
_cell_formula_units_Z   4
loop_
 _symmetry_equiv_pos_site_id
 _symmetry_equiv_pos_as_xyz
  1  'x, y, z'
loop_
 _atom_site_type_symbol
 _atom_site_label
 _atom_site_symmetry_multiplicity
 _atom_site_fract_x
 _atom_site_fract_y
 _atom_site_fract_z
 _atom_site_occupancy
  Np  Np0  1  0.96232400  0.66473100  0.56607900  1
  Np  Np1  1  0.03767600  0.33526900  0.43392100  1
  Np  Np2  1  0.03767600  0.83526900  0.06607900  1
  Np  Np3  1  0.96232400  0.16473100  0.93392100  1
  Cr  Cr0  1  0.81756100  0.54009000  0.86420400  1
  Cr  Cr1  1  0.18243900  0.45991000  0.13579600  1
  Cr  Cr2  1  0.18243900  0.95991000  0.36420400  1
  Cr  Cr3  1  0.81756100  0.04009000  0.63579600  1
  O  O0  1  0.88522900  0.83972600  0.16754700  1
  O  O1  1  0.11477100  0.16027400  0.83245300  1
  O  O2  1  0.11477100  0.66027400  0.66754700  1
  O  O3  1  0.88522900  0.33972600  0.33245300  1
  O  O4  1  0.80456600  0.68576900  0.47237600  1
  O  O5  1  0.19543400  0.31423100  0.52762400  1
  O  O6  1  0.19543400  0.81423100  0.97237600  1
  O  O7  1  0.80456600  0.18576900  0.02762400  1
  O  O8  1  0.65209400  0.99668700  0.58983200  1
  O  O9  1  0.34790600  0.00331300  0.41016800  1
  O  O10  1  0.34790600  0.50331300  0.08983200  1
  O  O11  1  0.65209400  0.49668700  0.91016800  1
  O  O12  1  0.91132100  0.64836900  0.96455500  1
  O  O13  1  0.08867900  0.35163100  0.03544500  1
  O  O14  1  0.08867900  0.85163100  0.46455500  1
  O  O15  1  0.91132100  0.14836900  0.53544500  1
  O  O16  1  0.55369600  0.90950500  0.99543400  1
  O  O17  1  0.44630400  0.09049500  0.00456600  1
  O  O18  1  0.44630400  0.59049500  0.49543400  1
  O  O19  1  0.55369600  0.40950500  0.50456600  1
  O  O20  1  0.80746500  0.62685900  0.73380500  1
  O  O21  1  0.19253500  0.37314100  0.26619500  1
  O  O22  1  0.19253500  0.87314100  0.23380500  1
  O  O23  1  0.80746500  0.12685900  0.76619500  1
  O  O24  1  0.91104400  0.88777300  0.65281200  1
  O  O25  1  0.08895600  0.11222700  0.34718800  1
  O  O26  1  0.08895600  0.61222700  0.15281200  1
  O  O27  1  0.91104400  0.38777300  0.84718800  1
  O  O28  1  0.45537800  0.72389000  0.76981200  1
  O  O29  1  0.54462200  0.27611000  0.23018800  1
  O  O30  1  0.54462200  0.77611000  0.26981200  1
  O  O31  1  0.45537800  0.22389000  0.73018800  1
  O  O32  1  0.32797200  0.02175700  0.67587600  1
  O  O33  1  0.67202800  0.97824300  0.32412400  1
  O  O34  1  0.67202800  0.47824300  0.17587600  1
  O  O35  1  0.32797200  0.52175700  0.82412400  1
  O  O36  1  0.40545900  0.63837800  0.85256500  1
  O  O37  1  0.59454100  0.36162200  0.14743500  1
  O  O38  1  0.59454100  0.86162200  0.35256500  1
  O  O39  1  0.40545900  0.13837800  0.64743500  1
  O  O40  1  0.91394400  0.93654000  0.93097200  1
  O  O41  1  0.08605600  0.06346000  0.06902800  1
  O  O42  1  0.08605600  0.56346000  0.43097200  1
  O  O43  1  0.91394400  0.43654000  0.56902800  1
loop_
_geom_bond_atom_site_label_1
_geom_bond_atom_site_label_2
_geom_bond_distance
_geom_bond_site_symmetry_2
Np0 O2 1.791361 1_655
Np0 O4 1.792845 1_555
Np0 O43 2.116819 1_555
Np0 O42 2.141298 1_655
Np0 O14 2.303686 1_655
Np0 O24 2.349753 1_555
Np0 O20 2.365522 1_555
Np1 O3 1.791361 1_455
Np1 O5 1.792845 1_555
Np1 O42 2.116819 1_555
Np1 O43 2.141298 1_455
Np1 O15 2.303686 1_455
Np1 O25 2.349753 1_555
Np1 O21 2.365522 1_555
Np2 O0 1.791361 1_455
Np2 O6 1.792845 1_554
Np2 O41 2.116819 1_565
Np2 O40 2.141298 1_454
Np2 O12 2.303686 1_454
Np2 O26 2.349753 1_555
Np2 O22 2.365522 1_555
Np3 O1 1.791361 1_655
Np3 O7 1.792845 1_556
Np3 O40 2.116819 1_545
Np3 O41 2.141298 1_656
Np3 O13 2.303686 1_656
Np3 O27 2.349753 1_555
Np3 O23 2.365522 1_555
Cr0 O11 1.602368 1_555
Cr0 O20 1.682403 1_555
Cr0 O27 1.694857 1_555
Cr0 O12 1.696913 1_555
Cr1 O10 1.602368 1_555
Cr1 O21 1.682403 1_555
Cr1 O26 1.694857 1_555
Cr1 O13 1.696913 1_555
Cr2 O9 1.602368 1_565
Cr2 O22 1.682403 1_555
Cr2 O25 1.694857 1_565
Cr2 O14 1.696913 1_555
Cr3 O8 1.602368 1_545
Cr3 O23 1.682403 1_555
Cr3 O24 1.694857 1_545
Cr3 O15 1.696913 1_555
O16 O17 1.985292 1_566
O18 O19 1.985292 1_555
O28 O36 1.284263 1_555
O29 O37 1.284263 1_555
O30 O38 1.284263 1_555
O31 O39 1.284263 1_555
O32 O39 1.281087 1_555
O33 O38 1.281087 1_555
O34 O37 1.281087 1_555
O35 O36 1.281087 1_555
