# generated using pymatgen
data_Nd2Ti3(BiO6)2
_symmetry_space_group_name_H-M   'P 1'
_cell_length_a   16.90037245
_cell_length_b   16.90037245
_cell_length_c   5.46636900
_cell_angle_alpha   90.00000000
_cell_angle_beta   90.00000000
_cell_angle_gamma   161.52354379
_symmetry_Int_Tables_number   1
_chemical_formula_structural   Nd2Ti3(BiO6)2
_chemical_formula_sum   'Nd4 Ti6 Bi4 O24'
_cell_volume   494.80515980
_cell_formula_units_Z   2
loop_
 _symmetry_equiv_pos_site_id
 _symmetry_equiv_pos_as_xyz
  1  'x, y, z'
loop_
 _atom_site_type_symbol
 _atom_site_label
 _atom_site_symmetry_multiplicity
 _atom_site_fract_x
 _atom_site_fract_y
 _atom_site_fract_z
 _atom_site_occupancy
  Nd  Nd0  1  0.58194200  0.45099600  0.99675500  1
  Nd  Nd1  1  0.45099600  0.58194200  0.00324500  1
  Nd  Nd2  1  0.95099600  0.08194200  0.49675500  1
  Nd  Nd3  1  0.08194200  0.95099600  0.50324500  1
  Ti  Ti0  1  0.00643700  0.00643700  0.00000000  1
  Ti  Ti1  1  0.50643700  0.50643700  0.50000000  1
  Ti  Ti2  1  0.88409100  0.13933400  0.99930500  1
  Ti  Ti3  1  0.13933400  0.88409100  0.00069500  1
  Ti  Ti4  1  0.63933400  0.38409100  0.49930500  1
  Ti  Ti5  1  0.38409100  0.63933400  0.50069500  1
  Bi  Bi0  1  0.79662200  0.21927500  0.47343200  1
  Bi  Bi1  1  0.21927500  0.79662200  0.52656800  1
  Bi  Bi2  1  0.71927500  0.29662200  0.97343200  1
  Bi  Bi3  1  0.29662200  0.71927500  0.02656800  1
  O  O0  1  0.05248400  0.93939400  0.08027800  1
  O  O1  1  0.93939400  0.05248400  0.91972200  1
  O  O2  1  0.43939400  0.55248400  0.58027800  1
  O  O3  1  0.55248400  0.43939400  0.41972200  1
  O  O4  1  0.15391300  0.37077000  0.24436100  1
  O  O5  1  0.37077000  0.15391300  0.75563900  1
  O  O6  1  0.87077000  0.65391300  0.74436100  1
  O  O7  1  0.65391300  0.87077000  0.25563900  1
  O  O8  1  0.00816700  0.50988500  0.24783300  1
  O  O9  1  0.50988500  0.00816700  0.75216700  1
  O  O10  1  0.00988500  0.50816700  0.74783300  1
  O  O11  1  0.50816700  0.00988500  0.25216700  1
  O  O12  1  0.83466700  0.19474700  0.06437600  1
  O  O13  1  0.19474700  0.83466700  0.93562400  1
  O  O14  1  0.69474700  0.33466700  0.56437600  1
  O  O15  1  0.33466700  0.69474700  0.43562400  1
  O  O16  1  0.87137100  0.62778600  0.24272700  1
  O  O17  1  0.62778600  0.87137100  0.75727300  1
  O  O18  1  0.12778600  0.37137100  0.74272700  1
  O  O19  1  0.37137100  0.12778600  0.25727300  1
  O  O20  1  0.23082200  0.25609500  0.25314300  1
  O  O21  1  0.25609500  0.23082200  0.74685700  1
  O  O22  1  0.75609500  0.73082200  0.75314300  1
  O  O23  1  0.73082200  0.75609500  0.24685700  1
loop_
_geom_bond_atom_site_label_1
_geom_bond_atom_site_label_2
_geom_bond_distance
_geom_bond_site_symmetry_2
Nd0 O3 2.333861 1_556
Nd0 O5 2.385911 1_555
Nd0 O6 2.395276 1_555
Nd0 O22 2.529385 1_555
Nd0 O16 2.634083 1_556
Nd0 O0 2.658275 1_656
Nd0 O21 2.677320 1_555
Nd0 O19 2.766928 1_556
Nd0 O0 2.876709 1_546
Nd1 O2 2.333861 1_554
Nd1 O4 2.385911 1_555
Nd1 O7 2.395276 1_555
Nd1 O23 2.529385 1_555
Nd1 O17 2.634083 1_554
Nd1 O1 2.658275 1_564
Nd1 O20 2.677320 1_555
Nd1 O18 2.766928 1_554
Nd1 O1 2.876709 1_454
Nd2 O1 2.333861 1_555
Nd2 O7 2.385911 1_545
Nd2 O4 2.395276 1_655
Nd2 O20 2.529385 1_655
Nd2 O18 2.634083 1_655
Nd2 O2 2.658275 1_655
Nd2 O23 2.677320 1_545
Nd2 O17 2.766928 1_545
Nd2 O2 2.876709 1_545
Nd3 O0 2.333861 1_555
Nd3 O6 2.385911 1_455
Nd3 O5 2.395276 1_565
Nd3 O21 2.529385 1_565
Nd3 O19 2.634083 1_565
Nd3 O3 2.658275 1_565
Nd3 O22 2.677320 1_455
Nd3 O16 2.766928 1_455
Nd3 O3 2.876709 1_455
Bi0 O11 2.242081 1_555
Bi0 O8 2.261974 1_655
Bi0 O10 2.386996 1_655
Bi0 O9 2.395341 1_555
Bi0 O12 2.467948 1_555
Bi1 O10 2.242081 1_555
Bi1 O9 2.261974 1_565
Bi1 O11 2.386996 1_565
Bi1 O8 2.395341 1_555
Bi1 O13 2.467948 1_555
Bi2 O9 2.242081 1_555
Bi2 O10 2.261974 1_655
Bi2 O8 2.386996 1_656
Bi2 O11 2.395341 1_556
Bi2 O14 2.467948 1_555
Bi3 O8 2.242081 1_555
Bi3 O11 2.261974 1_565
Bi3 O9 2.386996 1_564
Bi3 O10 2.395341 1_554
Bi3 O15 2.467948 1_555
O0 Ti0 1.937678 1_565
O0 Ti3 2.412371 1_555
O1 Ti0 1.937678 1_656
O1 Ti2 2.412371 1_555
O2 Ti1 1.937678 1_555
O2 Ti5 2.412371 1_555
O3 Ti1 1.937678 1_555
O3 Ti4 2.412371 1_555
O4 Ti2 2.013471 1_454
O4 Ti5 2.050490 1_555
O5 Ti3 2.013471 1_546
O5 Ti4 2.050490 1_555
O6 Ti4 2.013471 1_555
O6 Ti3 2.050490 1_656
O7 Ti5 2.013471 1_555
O7 Ti2 2.050490 1_564
O12 Ti2 1.784685 1_554
O13 Ti3 1.784685 1_556
O14 Ti4 1.784685 1_555
O15 Ti5 1.784685 1_555
O16 Ti4 1.915984 1_555
O16 Ti3 1.952322 1_655
O17 Ti5 1.915984 1_555
O17 Ti2 1.952322 1_565
O18 Ti2 1.915984 1_455
O18 Ti5 1.952322 1_555
O19 Ti3 1.915984 1_545
O19 Ti4 1.952322 1_555
O20 Ti0 1.935660 1_555
O20 Ti1 2.008736 1_555
O21 Ti0 1.935660 1_556
O21 Ti1 2.008736 1_555
O22 Ti1 1.935660 1_555
O22 Ti0 2.008736 1_666
O23 Ti1 1.935660 1_555
O23 Ti0 2.008736 1_665
