# generated using pymatgen
data_ZnSi4WO10
_symmetry_space_group_name_H-M   'P 1'
_cell_length_a   7.42830500
_cell_length_b   7.42830500
_cell_length_c   15.13223000
_cell_angle_alpha   90.00000000
_cell_angle_beta   90.00000000
_cell_angle_gamma   90.00000000
_symmetry_Int_Tables_number   1
_chemical_formula_structural   ZnSi4WO10
_chemical_formula_sum   'Zn4 Si16 W4 O40'
_cell_volume   834.99214133
_cell_formula_units_Z   4
loop_
 _symmetry_equiv_pos_site_id
 _symmetry_equiv_pos_as_xyz
  1  'x, y, z'
loop_
 _atom_site_type_symbol
 _atom_site_label
 _atom_site_symmetry_multiplicity
 _atom_site_fract_x
 _atom_site_fract_y
 _atom_site_fract_z
 _atom_site_occupancy
  Zn  Zn0  1  0.50000000  0.50000000  0.50000000  1
  Zn  Zn1  1  0.00000000  0.00000000  0.50000000  1
  Zn  Zn2  1  0.00000000  0.00000000  0.00000000  1
  Zn  Zn3  1  0.50000000  0.50000000  0.00000000  1
  Si  Si0  1  0.14535900  0.23642000  0.64805400  1
  Si  Si1  1  0.85464100  0.76358000  0.64805400  1
  Si  Si2  1  0.23642000  0.14535900  0.85194600  1
  Si  Si3  1  0.73642000  0.35464100  0.64805400  1
  Si  Si4  1  0.26358000  0.64535900  0.64805400  1
  Si  Si5  1  0.35464100  0.73642000  0.85194600  1
  Si  Si6  1  0.64535900  0.26358000  0.85194600  1
  Si  Si7  1  0.76358000  0.85464100  0.85194600  1
  Si  Si8  1  0.35464100  0.26358000  0.35194600  1
  Si  Si9  1  0.64535900  0.73642000  0.35194600  1
  Si  Si10  1  0.26358000  0.35464100  0.14805400  1
  Si  Si11  1  0.76358000  0.14535900  0.35194600  1
  Si  Si12  1  0.23642000  0.85464100  0.35194600  1
  Si  Si13  1  0.14535900  0.76358000  0.14805400  1
  Si  Si14  1  0.85464100  0.23642000  0.14805400  1
  Si  Si15  1  0.73642000  0.64535900  0.14805400  1
  W  W0  1  0.50000000  0.00000000  0.57230400  1
  W  W1  1  0.00000000  0.50000000  0.92769600  1
  W  W2  1  0.00000000  0.50000000  0.42769600  1
  W  W3  1  0.50000000  0.00000000  0.07230400  1
  O  O0  1  0.21474200  0.08937300  0.57572100  1
  O  O1  1  0.78525800  0.91062700  0.57572100  1
  O  O2  1  0.08937300  0.21474200  0.92427900  1
  O  O3  1  0.58937300  0.28525800  0.57572100  1
  O  O4  1  0.41062700  0.71474200  0.57572100  1
  O  O5  1  0.28525800  0.58937300  0.92427900  1
  O  O6  1  0.71474200  0.41062700  0.92427900  1
  O  O7  1  0.91062700  0.78525800  0.92427900  1
  O  O8  1  0.28525800  0.41062700  0.42427900  1
  O  O9  1  0.71474200  0.58937300  0.42427900  1
  O  O10  1  0.41062700  0.28525800  0.07572100  1
  O  O11  1  0.91062700  0.21474200  0.42427900  1
  O  O12  1  0.08937300  0.78525800  0.42427900  1
  O  O13  1  0.21474200  0.91062700  0.07572100  1
  O  O14  1  0.78525800  0.08937300  0.07572100  1
  O  O15  1  0.25754100  0.07018600  0.36829200  1
  O  O16  1  0.58937300  0.71474200  0.07572100  1
  O  O17  1  0.75754100  0.57018600  0.63170800  1
  O  O18  1  0.42981400  0.24245900  0.86829200  1
  O  O19  1  0.92981400  0.25754100  0.63170800  1
  O  O20  1  0.07018600  0.74245900  0.63170800  1
  O  O21  1  0.25754100  0.92981400  0.86829200  1
  O  O22  1  0.74245900  0.07018600  0.86829200  1
  O  O23  1  0.57018600  0.75754100  0.86829200  1
  O  O24  1  0.67616400  0.67616400  0.25000000  1
  O  O25  1  0.82383600  0.17616400  0.25000000  1
  O  O26  1  0.17616400  0.82383600  0.25000000  1
  O  O27  1  0.32383600  0.32383600  0.25000000  1
  O  O28  1  0.82383600  0.82383600  0.75000000  1
  O  O29  1  0.67616400  0.32383600  0.75000000  1
  O  O30  1  0.32383600  0.67616400  0.75000000  1
  O  O31  1  0.17616400  0.17616400  0.75000000  1
  O  O32  1  0.92981400  0.74245900  0.13170800  1
  O  O33  1  0.75754100  0.42981400  0.13170800  1
  O  O34  1  0.24245900  0.57018600  0.13170800  1
  O  O35  1  0.42981400  0.75754100  0.36829200  1
  O  O36  1  0.57018600  0.24245900  0.36829200  1
  O  O37  1  0.07018600  0.25754100  0.13170800  1
  O  O38  1  0.74245900  0.92981400  0.36829200  1
  O  O39  1  0.24245900  0.42981400  0.63170800  1
loop_
_geom_bond_atom_site_label_1
_geom_bond_atom_site_label_2
_geom_bond_distance
_geom_bond_site_symmetry_2
O0 Si0 1.629981 1_555
O0 Zn1 2.073219 1_555
O0 W0 2.221152 1_555
O1 Si1 1.629981 1_555
O1 Zn1 2.073219 1_665
O1 W0 2.221152 1_565
O2 Si2 1.629981 1_555
O2 Zn2 2.073219 1_556
O2 W1 2.221152 1_555
O3 Si3 1.629981 1_555
O3 Zn0 2.073219 1_555
O3 W0 2.221152 1_555
O4 Si4 1.629981 1_555
O4 Zn0 2.073219 1_555
O4 W0 2.221152 1_565
O5 Si5 1.629981 1_555
O5 Zn3 2.073219 1_556
O5 W1 2.221152 1_555
O6 Si6 1.629981 1_555
O6 Zn3 2.073219 1_556
O6 W1 2.221152 1_655
O7 Si7 1.629981 1_555
O7 Zn2 2.073219 1_666
O7 W1 2.221152 1_655
O8 Si8 1.629981 1_555
O8 Zn0 2.073219 1_555
O8 W2 2.221152 1_555
O9 Si9 1.629981 1_555
O9 Zn0 2.073219 1_555
O9 W2 2.221152 1_655
O10 Si10 1.629981 1_555
O10 Zn3 2.073219 1_555
O10 W3 2.221152 1_555
O11 Si11 1.629981 1_555
O11 Zn1 2.073219 1_655
O11 W2 2.221152 1_655
O12 Si12 1.629981 1_555
O12 Zn1 2.073219 1_565
O12 W2 2.221152 1_555
O13 Si13 1.629981 1_555
O13 Zn2 2.073219 1_565
O13 W3 2.221152 1_565
O14 Si14 1.629981 1_555
O14 Zn2 2.073219 1_655
O14 W3 2.221152 1_555
O15 Si8 1.626416 1_555
O15 Si12 1.627706 1_545
O16 Si15 1.629981 1_555
O16 Zn3 2.073219 1_555
O16 W3 2.221152 1_565
O17 Si1 1.626416 1_555
O17 Si3 1.627706 1_555
O18 Si2 1.626416 1_555
O18 Si6 1.627706 1_555
O19 Si3 1.626416 1_555
O19 Si0 1.627706 1_655
O20 Si4 1.626416 1_555
O20 Si1 1.627706 1_455
O21 Si5 1.626416 1_555
O21 Si2 1.627706 1_565
O22 Si6 1.626416 1_555
O22 Si7 1.627706 1_545
O23 Si7 1.626416 1_555
O23 Si5 1.627706 1_555
O24 Si9 1.622510 1_555
O24 Si15 1.622510 1_555
O25 Si11 1.622510 1_555
O25 Si14 1.622510 1_555
O26 Si12 1.622510 1_555
O26 Si13 1.622510 1_555
O27 Si8 1.622510 1_555
O27 Si10 1.622510 1_555
O28 Si7 1.622510 1_555
O28 Si1 1.622510 1_555
O29 Si3 1.622510 1_555
O29 Si6 1.622510 1_555
O30 Si5 1.622510 1_555
O30 Si4 1.622510 1_555
O31 Si2 1.622510 1_555
O31 Si0 1.622510 1_555
O32 Si15 1.626416 1_555
O32 Si13 1.627706 1_655
O33 Si14 1.626416 1_555
O33 Si15 1.627706 1_555
O34 Si13 1.626416 1_555
O34 Si10 1.627706 1_555
O35 Si12 1.626416 1_555
O35 Si9 1.627706 1_555
O36 Si11 1.626416 1_555
O36 Si8 1.627706 1_555
O37 Si10 1.626416 1_555
O37 Si14 1.627706 1_455
O38 Si9 1.626416 1_555
O38 Si11 1.627706 1_565
O39 Si0 1.626416 1_555
O39 Si4 1.627706 1_555
