# generated using pymatgen
data_ThP2H2CO8
_symmetry_space_group_name_H-M   'P 1'
_cell_length_a   8.63702600
_cell_length_b   9.07375400
_cell_length_c   10.81948900
_cell_angle_alpha   90.00000000
_cell_angle_beta   90.00000000
_cell_angle_gamma   90.00000000
_symmetry_Int_Tables_number   1
_chemical_formula_structural   ThP2H2CO8
_chemical_formula_sum   'Th4 P8 H8 C4 O32'
_cell_volume   847.92604932
_cell_formula_units_Z   4
loop_
 _symmetry_equiv_pos_site_id
 _symmetry_equiv_pos_as_xyz
  1  'x, y, z'
loop_
 _atom_site_type_symbol
 _atom_site_label
 _atom_site_symmetry_multiplicity
 _atom_site_fract_x
 _atom_site_fract_y
 _atom_site_fract_z
 _atom_site_occupancy
  Th  Th0  1  0.71160300  0.73412600  0.89408300  1
  Th  Th1  1  0.21160300  0.26587400  0.10591700  1
  Th  Th2  1  0.21160300  0.76587400  0.39408300  1
  Th  Th3  1  0.71160300  0.23412600  0.60591700  1
  P  P0  1  0.85567700  0.83736700  0.59128800  1
  P  P1  1  0.35567700  0.16263300  0.40871200  1
  P  P2  1  0.35567700  0.66263300  0.09128800  1
  P  P3  1  0.85567700  0.33736700  0.90871200  1
  P  P4  1  0.56659300  0.62765500  0.58556200  1
  P  P5  1  0.06659300  0.37234500  0.41443800  1
  P  P6  1  0.06659300  0.87234500  0.08556200  1
  P  P7  1  0.56659300  0.12765500  0.91443800  1
  H  H0  1  0.69697200  0.75861000  0.42075400  1
  H  H1  1  0.19697200  0.24139000  0.57924600  1
  H  H2  1  0.19697200  0.74139000  0.92075400  1
  H  H3  1  0.69697200  0.25861000  0.07924600  1
  H  H4  1  0.81196600  0.61667200  0.48248300  1
  H  H5  1  0.31196600  0.38332800  0.51751700  1
  H  H6  1  0.31196600  0.88332800  0.98248300  1
  H  H7  1  0.81196600  0.11667200  0.01751700  1
  C  C0  1  0.73411100  0.70785600  0.50787100  1
  C  C1  1  0.23411100  0.29214400  0.49212900  1
  C  C2  1  0.23411100  0.79214400  0.00787100  1
  C  C3  1  0.73411100  0.20785600  0.99212900  1
  O  O0  1  0.71876000  0.76284600  0.21803100  1
  O  O1  1  0.21876000  0.23715400  0.78196900  1
  O  O2  1  0.21876000  0.73715400  0.71803100  1
  O  O3  1  0.71876000  0.26284600  0.28196900  1
  O  O4  1  0.77156700  0.63886000  0.19901100  1
  O  O5  1  0.27156700  0.36114000  0.80098900  1
  O  O6  1  0.27156700  0.86114000  0.69901100  1
  O  O7  1  0.77156700  0.13886000  0.30098900  1
  O  O8  1  0.87227100  0.78419500  0.72624900  1
  O  O9  1  0.37227100  0.21580500  0.27375100  1
  O  O10  1  0.37227100  0.71580500  0.22624900  1
  O  O11  1  0.87227100  0.28419500  0.77375100  1
  O  O12  1  0.78189600  0.99241900  0.58880200  1
  O  O13  1  0.28189600  0.00758100  0.41119800  1
  O  O14  1  0.28189600  0.50758100  0.08880200  1
  O  O15  1  0.78189600  0.49241900  0.91119800  1
  O  O16  1  0.01086200  0.83829000  0.52158200  1
  O  O17  1  0.51086200  0.16171000  0.47841800  1
  O  O18  1  0.51086200  0.66171000  0.02158200  1
  O  O19  1  0.01086200  0.33829000  0.97841800  1
  O  O20  1  0.56263800  0.68191700  0.72089700  1
  O  O21  1  0.06263800  0.31808300  0.27910300  1
  O  O22  1  0.06263800  0.81808300  0.22089700  1
  O  O23  1  0.56263800  0.18191700  0.77910300  1
  O  O24  1  0.59217800  0.45866900  0.58428700  1
  O  O25  1  0.09217800  0.54133100  0.41571300  1
  O  O26  1  0.09217800  0.04133100  0.08428700  1
  O  O27  1  0.59217800  0.95866900  0.91571300  1
  O  O28  1  0.42002400  0.67028000  0.51224600  1
  O  O29  1  0.92002400  0.32972000  0.48775400  1
  O  O30  1  0.92002400  0.82972000  0.01224600  1
  O  O31  1  0.42002400  0.17028000  0.98775400  1
loop_
_geom_bond_atom_site_label_1
_geom_bond_atom_site_label_2
_geom_bond_distance
_geom_bond_site_symmetry_2
C0 H0 1.096997 1_555
C0 H4 1.100991 1_555
C0 P0 1.816032 1_555
C0 P4 1.824705 1_555
C1 H1 1.096997 1_555
C1 H5 1.100991 1_555
C1 P1 1.816032 1_555
C1 P5 1.824705 1_555
C2 H2 1.096997 1_554
C2 H6 1.100991 1_554
C2 P2 1.816032 1_555
C2 P6 1.824705 1_555
C3 H3 1.096997 1_556
C3 H7 1.100991 1_556
C3 P3 1.816032 1_555
C3 P7 1.824705 1_555
O0 O4 1.231275 1_555
O1 O5 1.231275 1_555
O2 O6 1.231275 1_555
O3 O7 1.231275 1_555
O8 P0 1.544516 1_555
O8 Th0 2.330130 1_555
O9 P1 1.544516 1_555
O9 Th1 2.330130 1_555
O10 P2 1.544516 1_555
O10 Th2 2.330130 1_555
O11 P3 1.544516 1_555
O11 Th3 2.330130 1_555
O12 P0 1.544729 1_555
O12 Th3 2.283193 1_565
O13 P1 1.544729 1_555
O13 Th2 2.283193 1_545
O14 P2 1.544729 1_555
O14 Th1 2.283193 1_555
O15 P3 1.544729 1_555
O15 Th0 2.283193 1_555
O16 P0 1.537974 1_455
O16 Th2 2.311015 1_555
O17 P1 1.537974 1_555
O17 Th3 2.311015 1_555
O18 P2 1.537974 1_555
O18 Th0 2.311015 1_554
O19 P3 1.537974 1_455
O19 Th1 2.311015 1_556
O20 P4 1.545196 1_555
O20 Th0 2.321824 1_555
O21 P5 1.545196 1_555
O21 Th1 2.321824 1_555
O22 P6 1.545196 1_555
O22 Th2 2.321824 1_555
O23 P7 1.545196 1_555
O23 Th3 2.321824 1_555
O24 P4 1.549240 1_555
O24 Th3 2.295628 1_555
O25 P5 1.549240 1_555
O25 Th2 2.295628 1_555
O26 P6 1.549240 1_545
O26 Th1 2.295628 1_555
O27 P7 1.549240 1_565
O27 Th0 2.295628 1_555
O28 P4 1.543171 1_555
O28 Th2 2.372202 1_555
O29 P5 1.543171 1_655
O29 Th3 2.372202 1_555
O30 P6 1.543171 1_655
O30 Th0 2.372202 1_554
O31 P7 1.543171 1_555
O31 Th1 2.372202 1_556
