# generated using pymatgen
data_Ba3Te3(BrO4)2
_symmetry_space_group_name_H-M   'P 1'
_cell_length_a   6.05720000
_cell_length_b   12.85045500
_cell_length_c   18.47771300
_cell_angle_alpha   90.00000000
_cell_angle_beta   90.00000000
_cell_angle_gamma   90.00000000
_symmetry_Int_Tables_number   1
_chemical_formula_structural   Ba3Te3(BrO4)2
_chemical_formula_sum   'Ba12 Te12 Br8 O32'
_cell_volume   1438.26408597
_cell_formula_units_Z   4
loop_
 _symmetry_equiv_pos_site_id
 _symmetry_equiv_pos_as_xyz
  1  'x, y, z'
loop_
 _atom_site_type_symbol
 _atom_site_label
 _atom_site_symmetry_multiplicity
 _atom_site_fract_x
 _atom_site_fract_y
 _atom_site_fract_z
 _atom_site_occupancy
  Ba  Ba0  1  0.25000000  0.87224100  0.48446400  1
  Ba  Ba1  1  0.25000000  0.37224100  0.01553600  1
  Ba  Ba2  1  0.75000000  0.12775900  0.51553600  1
  Ba  Ba3  1  0.75000000  0.62775900  0.98446400  1
  Ba  Ba4  1  0.25000000  0.04155400  0.69700800  1
  Ba  Ba5  1  0.25000000  0.54155400  0.80299200  1
  Ba  Ba6  1  0.75000000  0.95844600  0.30299200  1
  Ba  Ba7  1  0.75000000  0.45844600  0.19700800  1
  Ba  Ba8  1  0.25000000  0.35751800  0.58209700  1
  Ba  Ba9  1  0.25000000  0.85751800  0.91790300  1
  Ba  Ba10  1  0.75000000  0.64248200  0.41790300  1
  Ba  Ba11  1  0.75000000  0.14248200  0.08209700  1
  Te  Te0  1  0.75000000  0.87063800  0.60728100  1
  Te  Te1  1  0.75000000  0.37063800  0.89271900  1
  Te  Te2  1  0.25000000  0.12936200  0.39271900  1
  Te  Te3  1  0.25000000  0.62936200  0.10728100  1
  Te  Te4  1  0.75000000  0.24660900  0.70167600  1
  Te  Te5  1  0.75000000  0.74660900  0.79832400  1
  Te  Te6  1  0.25000000  0.75339100  0.29832400  1
  Te  Te7  1  0.25000000  0.25339100  0.20167600  1
  Te  Te8  1  0.75000000  0.54313700  0.65730000  1
  Te  Te9  1  0.75000000  0.04313700  0.84270000  1
  Te  Te10  1  0.25000000  0.45686300  0.34270000  1
  Te  Te11  1  0.25000000  0.95686300  0.15730000  1
  Br  Br0  1  0.25000000  0.59796300  0.49803900  1
  Br  Br1  1  0.25000000  0.09796300  0.00196100  1
  Br  Br2  1  0.75000000  0.40203700  0.50196100  1
  Br  Br3  1  0.75000000  0.90203700  0.99803900  1
  Br  Br4  1  0.25000000  0.75264900  0.68471700  1
  Br  Br5  1  0.25000000  0.25264900  0.81528300  1
  Br  Br6  1  0.75000000  0.24735100  0.31528300  1
  Br  Br7  1  0.75000000  0.74735100  0.18471700  1
  O  O0  1  0.75000000  0.80105700  0.51786100  1
  O  O1  1  0.75000000  0.30105700  0.98213900  1
  O  O2  1  0.25000000  0.19894300  0.48213900  1
  O  O3  1  0.25000000  0.69894300  0.01786100  1
  O  O4  1  0.98247000  0.96597800  0.58827900  1
  O  O5  1  0.51753000  0.46597800  0.91172100  1
  O  O6  1  0.48247000  0.03402200  0.41172100  1
  O  O7  1  0.01753000  0.53402200  0.08827900  1
  O  O8  1  0.01753000  0.03402200  0.41172100  1
  O  O9  1  0.48247000  0.53402200  0.08827900  1
  O  O10  1  0.51753000  0.96597800  0.58827900  1
  O  O11  1  0.98247000  0.46597800  0.91172100  1
  O  O12  1  0.97974300  0.21135600  0.63834800  1
  O  O13  1  0.52025700  0.71135600  0.86165200  1
  O  O14  1  0.47974300  0.78864400  0.36165200  1
  O  O15  1  0.02025700  0.28864400  0.13834800  1
  O  O16  1  0.02025700  0.78864400  0.36165200  1
  O  O17  1  0.47974300  0.28864400  0.13834800  1
  O  O18  1  0.52025700  0.21135600  0.63834800  1
  O  O19  1  0.97974300  0.71135600  0.86165200  1
  O  O20  1  0.75000000  0.60264400  0.75688300  1
  O  O21  1  0.75000000  0.10264400  0.74311700  1
  O  O22  1  0.25000000  0.39735600  0.24311700  1
  O  O23  1  0.25000000  0.89735600  0.25688300  1
  O  O24  1  0.98709800  0.45694100  0.68045800  1
  O  O25  1  0.51290200  0.95694100  0.81954200  1
  O  O26  1  0.48709800  0.54305900  0.31954200  1
  O  O27  1  0.01290200  0.04305900  0.18045800  1
  O  O28  1  0.01290200  0.54305900  0.31954200  1
  O  O29  1  0.48709800  0.04305900  0.18045800  1
  O  O30  1  0.51290200  0.45694100  0.68045800  1
  O  O31  1  0.98709800  0.95694100  0.81954200  1
loop_
_geom_bond_atom_site_label_1
_geom_bond_atom_site_label_2
_geom_bond_distance
_geom_bond_site_symmetry_2
Ba0 O10 2.785080 1_555
Ba0 O4 2.785080 1_455
Ba0 O8 2.848076 1_565
Ba0 O6 2.848076 1_565
Ba0 O14 2.870581 1_555
Ba0 O16 2.870581 1_555
Ba0 O0 3.223351 1_455
Ba0 O0 3.223351 1_555
Ba0 Br0 3.533511 1_555
Ba0 Br4 4.006669 1_555
Ba1 O5 2.785080 1_554
Ba1 O11 2.785080 1_454
Ba1 O9 2.848076 1_555
Ba1 O7 2.848076 1_555
Ba1 O17 2.870581 1_555
Ba1 O15 2.870581 1_555
Ba1 O1 3.223351 1_454
Ba1 O1 3.223351 1_554
Ba1 Br1 3.533511 1_555
Ba1 Br5 4.006669 1_554
Ba2 O6 2.785080 1_555
Ba2 O8 2.785080 1_655
Ba2 O4 2.848076 1_545
Ba2 O10 2.848076 1_545
Ba2 O18 2.870581 1_555
Ba2 O12 2.870581 1_555
Ba2 O2 3.223351 1_555
Ba2 O2 3.223351 1_655
Ba2 Br2 3.533511 1_555
Ba2 Br6 4.006669 1_555
Ba3 O7 2.785080 1_656
Ba3 O9 2.785080 1_556
Ba3 O11 2.848076 1_555
Ba3 O5 2.848076 1_555
Ba3 O19 2.870581 1_555
Ba3 O13 2.870581 1_555
Ba3 O3 3.223351 1_556
Ba3 O3 3.223351 1_656
Ba3 Br3 3.533511 1_555
Ba3 Br7 4.006669 1_556
Ba4 O4 2.757807 1_445
Ba4 O10 2.757807 1_545
Ba4 O18 2.935283 1_555
Ba4 O12 2.935283 1_455
Ba4 O25 2.973974 1_545
Ba4 O31 2.973974 1_445
Ba4 O21 3.242620 1_555
Ba4 O21 3.242620 1_455
Ba4 Br5 3.483498 1_555
Ba4 Br4 3.719501 1_545
Ba5 O11 2.757807 1_455
Ba5 O5 2.757807 1_555
Ba5 O13 2.935283 1_555
Ba5 O19 2.935283 1_455
Ba5 O24 2.973974 1_455
Ba5 O30 2.973974 1_555
Ba5 O20 3.242620 1_455
Ba5 O20 3.242620 1_555
Ba5 Br4 3.483498 1_555
Ba5 Br5 3.719501 1_555
Ba6 O8 2.757807 1_665
Ba6 O6 2.757807 1_565
Ba6 O16 2.935283 1_655
Ba6 O14 2.935283 1_555
Ba6 O29 2.973974 1_565
Ba6 O27 2.973974 1_665
Ba6 O23 3.242620 1_655
Ba6 O23 3.242620 1_555
Ba6 Br7 3.483498 1_555
Ba6 Br6 3.719501 1_565
Ba7 O9 2.757807 1_555
Ba7 O7 2.757807 1_655
Ba7 O15 2.935283 1_655
Ba7 O17 2.935283 1_555
Ba7 O26 2.973974 1_555
Ba7 O28 2.973974 1_655
Ba7 O22 3.242620 1_655
Ba7 O22 3.242620 1_555
Ba7 Br6 3.483498 1_555
Ba7 Br7 3.719501 1_555
Ba8 O12 2.699615 1_455
Ba8 O18 2.699615 1_555
Ba8 O24 2.733403 1_455
Ba8 O30 2.733403 1_555
Ba8 O2 2.750247 1_555
Ba8 Br2 3.419396 1_555
Ba8 Br2 3.419396 1_455
Ba8 Br0 3.458246 1_555
Ba9 O19 2.699615 1_455
Ba9 O13 2.699615 1_555
Ba9 O31 2.733403 1_455
Ba9 O25 2.733403 1_555
Ba9 O3 2.750247 1_556
Ba9 Br3 3.419396 1_555
Ba9 Br3 3.419396 1_455
Ba9 Br1 3.458246 1_566
Ba10 O16 2.699615 1_655
Ba10 O14 2.699615 1_555
Ba10 O28 2.733403 1_655
Ba10 O26 2.733403 1_555
Ba10 O0 2.750247 1_555
Ba10 Br0 3.419396 1_555
Ba10 Br0 3.419396 1_655
Ba10 Br2 3.458246 1_555
Ba11 O15 2.699615 1_655
Ba11 O17 2.699615 1_555
Ba11 O27 2.733403 1_655
Ba11 O29 2.733403 1_555
Ba11 O1 2.750247 1_554
Ba11 Br1 3.419396 1_555
Ba11 Br1 3.419396 1_655
Ba11 Br3 3.458246 1_544
O0 Te0 1.878702 1_555
O1 Te1 1.878702 1_555
O2 Te2 1.878702 1_555
O3 Te3 1.878702 1_555
O4 Te0 1.899236 1_555
O5 Te1 1.899236 1_555
O6 Te2 1.899236 1_555
O7 Te3 1.899236 1_555
O8 Te2 1.899236 1_555
O9 Te3 1.899236 1_555
O10 Te0 1.899236 1_555
O11 Te1 1.899236 1_555
O12 Te4 1.873777 1_555
O13 Te5 1.873777 1_555
O14 Te6 1.873777 1_555
O15 Te7 1.873777 1_555
O16 Te6 1.873777 1_555
O17 Te7 1.873777 1_555
O18 Te4 1.873777 1_555
O19 Te5 1.873777 1_555
O20 Te8 1.992636 1_555
O20 Te5 2.002226 1_555
O21 Te9 1.992636 1_555
O21 Te4 2.002226 1_555
O22 Te10 1.992636 1_555
O22 Te7 2.002226 1_555
O23 Te11 1.992636 1_555
O23 Te6 2.002226 1_555
O24 Te8 1.863474 1_555
O25 Te9 1.863474 1_565
O26 Te10 1.863474 1_555
O27 Te11 1.863474 1_545
O28 Te10 1.863474 1_555
O29 Te11 1.863474 1_545
O30 Te8 1.863474 1_555
O31 Te9 1.863474 1_565
