# generated using pymatgen
data_AgO
_symmetry_space_group_name_H-M   'P 1'
_cell_length_a   6.80213732
_cell_length_b   6.80213732
_cell_length_c   6.80213732
_cell_angle_alpha   118.52261557
_cell_angle_beta   118.52261557
_cell_angle_gamma   92.57853795
_symmetry_Int_Tables_number   1
_chemical_formula_structural   AgO
_chemical_formula_sum   'Ag8 O8'
_cell_volume   227.26735308
_cell_formula_units_Z   8
loop_
 _symmetry_equiv_pos_site_id
 _symmetry_equiv_pos_as_xyz
  1  'x, y, z'
loop_
 _atom_site_type_symbol
 _atom_site_label
 _atom_site_symmetry_multiplicity
 _atom_site_fract_x
 _atom_site_fract_y
 _atom_site_fract_z
 _atom_site_occupancy
  Ag  Ag0  1  0.37500000  0.62500000  0.75000000  1
  Ag  Ag1  1  0.37500000  0.12500000  0.75000000  1
  Ag  Ag2  1  0.37500000  0.62500000  0.25000000  1
  Ag  Ag3  1  0.87500000  0.62500000  0.25000000  1
  Ag  Ag4  1  0.87500000  0.12500000  0.75000000  1
  Ag  Ag5  1  0.87500000  0.62500000  0.75000000  1
  Ag  Ag6  1  0.87500000  0.12500000  0.25000000  1
  Ag  Ag7  1  0.37500000  0.12500000  0.25000000  1
  O  O0  1  0.67022300  0.99839900  0.84170500  1
  O  O1  1  0.74839900  0.40669400  0.82817600  1
  O  O2  1  0.57851800  0.92022300  0.17182400  1
  O  O3  1  0.15669400  0.82851800  0.15829500  1
  O  O4  1  0.07977700  0.25160100  0.65829500  1
  O  O5  1  0.00160100  0.84330600  0.67182400  1
  O  O6  1  0.17148200  0.32977700  0.32817600  1
  O  O7  1  0.59330600  0.42148200  0.34170500  1
loop_
_geom_bond_atom_site_label_1
_geom_bond_atom_site_label_2
_geom_bond_distance
_geom_bond_site_symmetry_2
Ag0 O2 2.153061 1_556
Ag0 O6 2.153061 1_555
Ag1 O4 2.153061 1_555
Ag1 O0 2.153061 1_545
Ag2 O3 2.153061 1_555
Ag2 O7 2.153061 1_555
Ag3 O5 2.153061 1_655
Ag3 O1 2.153061 1_554
Ag4 O4 2.075047 1_655
Ag4 O0 2.075047 1_545
Ag4 O5 2.075717 1_645
Ag4 O1 2.075717 1_555
Ag5 O1 2.075047 1_555
Ag5 O5 2.075047 1_655
Ag5 O7 2.075717 1_555
Ag5 O3 2.075717 1_656
Ag6 O2 2.075047 1_545
Ag6 O6 2.075047 1_655
Ag6 O4 2.075717 1_655
Ag6 O0 2.075717 1_544
Ag7 O7 2.075047 1_555
Ag7 O3 2.075047 1_545
Ag7 O6 2.075717 1_555
Ag7 O2 2.075717 1_545
