# generated using pymatgen
data_Rb2MgCu4H5(SO5)4
_symmetry_space_group_name_H-M   'P 1'
_cell_length_a   12.10177319
_cell_length_b   6.46259618
_cell_length_c   8.32599693
_cell_angle_alpha   91.65650258
_cell_angle_beta   66.91498209
_cell_angle_gamma   53.77600233
_symmetry_Int_Tables_number   1
_chemical_formula_structural   Rb2MgCu4H5(SO5)4
_chemical_formula_sum   'Rb2 Mg1 Cu4 H5 S4 O20'
_cell_volume   452.46219018
_cell_formula_units_Z   1
loop_
 _symmetry_equiv_pos_site_id
 _symmetry_equiv_pos_as_xyz
  1  'x, y, z'
loop_
 _atom_site_type_symbol
 _atom_site_label
 _atom_site_symmetry_multiplicity
 _atom_site_fract_x
 _atom_site_fract_y
 _atom_site_fract_z
 _atom_site_occupancy
  Rb  Rb0  1  0.93596243  0.56388171  0.51554161  1
  Rb  Rb1  1  0.53837475  0.46217530  0.49641160  1
  Mg  Mg0  1  0.28211566  0.51863712  0.20830474  1
  Cu  Cu0  1  0.24507165  0.01079907  0.01492993  1
  Cu  Cu1  1  0.19623791  0.50035061  0.85433873  1
  Cu  Cu2  1  0.74607017  0.99652336  0.98841564  1
  Cu  Cu3  1  0.74918031  0.50118946  0.99409407  1
  H  H0  1  0.13955150  0.21265671  0.82396434  1
  H  H1  1  0.38565052  0.78324675  0.18828882  1
  H  H2  1  0.50116202  0.53836202  0.00216181  1
  H  H3  1  0.73416742  0.26276471  0.78631113  1
  H  H4  1  0.92169140  0.55716061  0.02735211  1
  S  S0  1  0.40663884  0.09584092  0.33431840  1
  S  S1  1  0.08415596  0.89025384  0.68519034  1
  S  S2  1  0.95324682  0.04478992  0.27324238  1
  S  S3  1  0.52545388  0.99878142  0.79130736  1
  O  O0  1  0.04575128  0.14217293  0.23125844  1
  O  O1  1  0.07579869  0.73409224  0.20544562  1
  O  O2  1  0.27528276  0.22512342  0.28754365  1
  O  O3  1  0.34176012  0.16042771  0.53478182  1
  O  O4  1  0.12625049  0.30595859  0.93367132  1
  O  O5  1  0.37860876  0.69274975  0.09863181  1
  O  O6  1  0.17817480  0.78488059  0.47939540  1
  O  O7  1  0.48272410  0.21558445  0.25438136  1
  O  O8  1  0.19726452  0.77583804  0.76095380  1
  O  O9  1  0.38970634  0.30161591  0.91417399  1
  O  O10  1  0.51847562  0.78982227  0.23857154  1
  O  O11  1  0.86463938  0.12815318  0.17392020  1
  O  O12  1  0.45274191  0.86842753  0.80569278  1
  O  O13  1  0.84737820  0.15578514  0.47716648  1
  O  O14  1  0.67770877  0.32452869  0.92320036  1
  O  O15  1  0.80895216  0.68780827  0.05871373  1
  O  O16  1  0.60792865  0.97119529  0.59834541  1
  O  O17  1  0.63479213  0.86843610  0.86616671  1
  O  O18  1  0.97901312  0.19566419  0.75535587  1
  O  O19  1  0.99255596  0.79682221  0.75439472  1
loop_
_geom_bond_atom_site_label_1
_geom_bond_atom_site_label_2
_geom_bond_distance
_geom_bond_site_symmetry_2
Mg0 O1 2.028054 1_555
Mg0 O5 2.059058 1_555
Mg0 O2 2.062797 1_555
Mg0 O6 2.151357 1_555
Mg0 O9 2.191413 1_554
Mg0 O7 2.242993 1_555
Cu0 O4 1.938998 1_554
Cu0 O0 1.966593 1_555
Cu0 O12 1.984587 1_544
Cu0 O5 2.088587 1_545
Cu1 O4 1.897027 1_555
Cu1 O8 1.967991 1_555
Cu1 O9 2.185672 1_555
Cu1 O3 2.534071 1_555
Cu1 O19 2.560889 1_455
Cu1 O1 2.598697 1_556
Cu2 O15 1.877368 1_556
Cu2 O14 1.954181 1_565
Cu2 O19 2.259818 1_555
Cu2 O17 2.424538 1_555
Cu2 O7 2.452886 1_566
Cu3 O15 1.888378 1_556
Cu3 O14 1.982033 1_555
Cu3 O18 2.129001 1_555
Cu3 O10 2.141599 1_556
Cu3 O17 2.470428 1_555
H0 O4 0.980800 1_555
H1 O5 0.995035 1_555
H2 O5 1.053964 1_555
H2 O14 1.504366 1_554
H3 O14 0.982781 1_555
H4 O15 0.994440 1_555
O0 S2 1.519870 1_455
O0 Rb0 2.770641 1_455
O1 S2 1.519314 1_465
O1 Rb0 3.110908 1_455
O2 S0 1.520283 1_555
O2 Rb0 2.877586 1_455
O3 S0 1.456426 1_555
O6 S1 1.477222 1_555
O7 S0 1.510289 1_555
O7 Rb1 3.033322 1_555
O8 S1 1.525179 1_555
O8 Rb1 2.953467 1_555
O9 S3 1.530352 1_545
O10 S0 1.509220 1_565
O10 Rb1 3.035752 1_555
O11 S2 1.470480 1_555
O11 Rb1 2.955803 1_555
O12 S3 1.515793 1_555
O12 Rb1 2.983070 1_555
O13 S2 1.475235 1_555
O13 Rb1 2.947995 1_555
O13 Rb0 3.372889 1_545
O13 Rb0 3.430521 1_555
O16 S3 1.457667 1_555
O16 Rb0 2.926098 1_555
O16 Rb1 3.009331 1_565
O17 S3 1.486146 1_555
O17 Rb0 2.919880 1_555
O18 S1 1.496057 1_645
O18 Rb0 3.089677 1_555
O19 S1 1.495233 1_655
O19 Rb0 2.967109 1_555
