# generated using pymatgen
data_YMg6Sn
_symmetry_space_group_name_H-M   'P 1'
_cell_length_a   5.12678600
_cell_length_b   6.65295300
_cell_length_c   11.41965400
_cell_angle_alpha   90.00000000
_cell_angle_beta   90.00000000
_cell_angle_gamma   90.00000000
_symmetry_Int_Tables_number   1
_chemical_formula_structural   YMg6Sn
_chemical_formula_sum   'Y2 Mg12 Sn2'
_cell_volume   389.50459968
_cell_formula_units_Z   2
loop_
 _symmetry_equiv_pos_site_id
 _symmetry_equiv_pos_as_xyz
  1  'x, y, z'
loop_
 _atom_site_type_symbol
 _atom_site_label
 _atom_site_symmetry_multiplicity
 _atom_site_fract_x
 _atom_site_fract_y
 _atom_site_fract_z
 _atom_site_occupancy
  Y  Y0  1  0.00000000  0.50000000  0.32871300  1
  Y  Y1  1  0.00000000  0.00000000  0.82871300  1
  Mg  Mg0  1  0.00000000  0.24583600  0.07962400  1
  Mg  Mg1  1  0.00000000  0.75416400  0.07962400  1
  Mg  Mg2  1  0.00000000  0.50000000  0.83572700  1
  Mg  Mg3  1  0.50000000  0.26099000  0.92015000  1
  Mg  Mg4  1  0.50000000  0.73901000  0.92015000  1
  Mg  Mg5  1  0.50000000  0.50000000  0.66802800  1
  Mg  Mg6  1  0.00000000  0.74583600  0.57962400  1
  Mg  Mg7  1  0.00000000  0.25416400  0.57962400  1
  Mg  Mg8  1  0.00000000  0.00000000  0.33572700  1
  Mg  Mg9  1  0.50000000  0.76099000  0.42015000  1
  Mg  Mg10  1  0.50000000  0.23901000  0.42015000  1
  Mg  Mg11  1  0.50000000  0.00000000  0.16802800  1
  Sn  Sn0  1  0.50000000  0.50000000  0.16798300  1
  Sn  Sn1  1  0.50000000  0.00000000  0.66798300  1
loop_
_geom_bond_atom_site_label_1
_geom_bond_atom_site_label_2
_geom_bond_distance
_geom_bond_site_symmetry_2
Mg0 Mg3 3.146060 1_554
Mg0 Mg3 3.146060 1_454
Mg0 Mg11 3.203925 1_455
Mg0 Mg11 3.203925 1_555
Mg0 Sn0 3.232399 1_555
Mg0 Sn0 3.232399 1_455
Mg0 Mg2 3.258332 1_554
Mg0 Mg1 3.271071 1_545
Mg0 Y1 3.299245 1_554
Mg0 Y0 3.309157 1_555
Mg0 Mg8 3.350866 1_555
Mg0 Mg1 3.381882 1_555
Mg1 Mg4 3.146060 1_554
Mg1 Mg4 3.146060 1_454
Mg1 Mg11 3.203925 1_465
Mg1 Mg11 3.203925 1_565
Mg1 Sn0 3.232399 1_455
Mg1 Sn0 3.232399 1_555
Mg1 Mg2 3.258332 1_554
Mg1 Y1 3.299245 1_564
Mg1 Y0 3.309157 1_555
Mg1 Mg8 3.350866 1_565
Mg2 Mg3 3.166848 1_455
Mg2 Mg3 3.166848 1_555
Mg2 Mg4 3.166848 1_555
Mg2 Mg4 3.166848 1_455
Mg2 Mg5 3.199759 1_555
Mg2 Mg5 3.199759 1_455
Mg2 Y1 3.327441 1_565
Mg2 Y1 3.327441 1_555
Mg2 Mg6 3.350866 1_555
Mg2 Mg7 3.350866 1_555
Mg3 Mg4 3.180245 1_555
Mg3 Sn0 3.246280 1_556
Mg3 Y1 3.267448 1_555
Mg3 Y1 3.267448 1_655
Mg3 Mg5 3.289068 1_555
Mg3 Sn1 3.362643 1_555
Mg3 Mg4 3.472708 1_545
Mg4 Sn0 3.246280 1_556
Mg4 Y1 3.267448 1_565
Mg4 Y1 3.267448 1_665
Mg4 Mg5 3.289068 1_555
Mg4 Sn1 3.362643 1_565
Mg5 Mg6 3.203925 1_655
Mg5 Mg6 3.203925 1_555
Mg5 Mg7 3.203925 1_555
Mg5 Mg7 3.203925 1_655
Mg5 Mg9 3.320795 1_555
Mg5 Sn1 3.326477 1_555
Mg5 Sn1 3.326477 1_565
Mg6 Mg9 3.146060 1_455
Mg6 Mg9 3.146060 1_555
Mg6 Sn1 3.232399 1_565
Mg6 Sn1 3.232399 1_465
Mg6 Mg8 3.258332 1_565
Mg6 Mg7 3.271071 1_555
Mg6 Y0 3.299245 1_555
Mg6 Y1 3.309157 1_565
Mg6 Mg7 3.381882 1_565
Mg7 Sn1 3.232399 1_555
Mg7 Sn1 3.232399 1_455
Mg7 Mg8 3.258332 1_555
Mg7 Y0 3.299245 1_555
Mg7 Y1 3.309157 1_555
Mg8 Mg9 3.166848 1_545
Mg8 Mg9 3.166848 1_445
Mg8 Y0 3.327441 1_555
Mg8 Y0 3.327441 1_545
Mg9 Sn1 3.246280 1_565
Mg9 Y0 3.267448 1_555
Mg9 Y0 3.267448 1_655
Mg9 Sn0 3.362643 1_555
Mg10 Mg7 3.146060 1_555
Mg10 Mg7 3.146060 1_655
Mg10 Mg8 3.166848 1_555
Mg10 Mg8 3.166848 1_655
Mg10 Mg9 3.180245 1_545
Mg10 Sn1 3.246280 1_555
Mg10 Y0 3.267448 1_555
Mg10 Y0 3.267448 1_655
Mg10 Mg11 3.289068 1_555
Mg10 Mg5 3.320795 1_555
Mg10 Sn0 3.362643 1_555
Mg10 Mg9 3.472708 1_555
Mg11 Mg8 3.199759 1_555
Mg11 Mg8 3.199759 1_655
Mg11 Mg9 3.289068 1_545
Mg11 Mg4 3.320795 1_544
Mg11 Mg3 3.320795 1_554
Mg11 Sn0 3.326477 1_555
Mg11 Sn0 3.326477 1_545
Sn0 Y0 3.152772 1_655
Sn0 Y0 3.152772 1_555
Sn1 Y1 3.152772 1_555
Sn1 Y1 3.152772 1_655
