# generated using pymatgen
data_MgFe3P3O13
_symmetry_space_group_name_H-M   'P 1'
_cell_length_a   6.34089600
_cell_length_b   7.64587200
_cell_length_c   10.12453249
_cell_angle_alpha   79.78670122
_cell_angle_beta   90.00000000
_cell_angle_gamma   90.00000000
_symmetry_Int_Tables_number   1
_chemical_formula_structural   MgFe3P3O13
_chemical_formula_sum   'Mg2 Fe6 P6 O26'
_cell_volume   483.07649346
_cell_formula_units_Z   2
loop_
 _symmetry_equiv_pos_site_id
 _symmetry_equiv_pos_as_xyz
  1  'x, y, z'
loop_
 _atom_site_type_symbol
 _atom_site_label
 _atom_site_symmetry_multiplicity
 _atom_site_fract_x
 _atom_site_fract_y
 _atom_site_fract_z
 _atom_site_occupancy
  Mg  Mg0  1  0.75000000  0.37375000  0.17763100  1
  Mg  Mg1  1  0.25000000  0.62625000  0.82236900  1
  Fe  Fe0  1  0.25000000  0.64651200  0.20804400  1
  Fe  Fe1  1  0.75000000  0.35348800  0.79195600  1
  Fe  Fe2  1  0.25000000  0.21704700  0.43258200  1
  Fe  Fe3  1  0.50000000  0.00000000  0.00000000  1
  Fe  Fe4  1  0.75000000  0.78295300  0.56741800  1
  Fe  Fe5  1  0.00000000  0.00000000  0.00000000  1
  P  P0  1  0.25000000  0.78393900  0.49873700  1
  P  P1  1  0.75000000  0.21606100  0.50126300  1
  P  P2  1  0.25000000  0.27338500  0.75973200  1
  P  P3  1  0.75000000  0.72661500  0.24026800  1
  P  P4  1  0.75000000  0.68030100  0.89004700  1
  P  P5  1  0.25000000  0.31969900  0.10995300  1
  O  O0  1  0.75000000  0.62885200  0.74775400  1
  O  O1  1  0.56039000  0.25157400  0.40296700  1
  O  O2  1  0.25000000  0.22172200  0.62198900  1
  O  O3  1  0.54218000  0.78525200  0.90167000  1
  O  O4  1  0.75000000  0.34618100  0.60087900  1
  O  O5  1  0.75000000  0.12182500  0.90382200  1
  O  O6  1  0.25000000  0.65381900  0.39912100  1
  O  O7  1  0.04218000  0.21474800  0.09833000  1
  O  O8  1  0.25000000  0.97445900  0.41620800  1
  O  O9  1  0.75000000  0.02554100  0.58379200  1
  O  O10  1  0.06283800  0.39281200  0.78593900  1
  O  O11  1  0.25000000  0.87817500  0.09617800  1
  O  O12  1  0.56283800  0.60718800  0.21406100  1
  O  O13  1  0.75000000  0.49362700  0.97878600  1
  O  O14  1  0.75000000  0.77827800  0.37801100  1
  O  O15  1  0.45782000  0.21474800  0.09833000  1
  O  O16  1  0.93961000  0.25157400  0.40296700  1
  O  O17  1  0.43961000  0.74842600  0.59703300  1
  O  O18  1  0.43716200  0.39281200  0.78593900  1
  O  O19  1  0.25000000  0.37114800  0.25224600  1
  O  O20  1  0.75000000  0.90108500  0.13116900  1
  O  O21  1  0.25000000  0.09891500  0.86883100  1
  O  O22  1  0.93716200  0.60718800  0.21406100  1
  O  O23  1  0.95782000  0.78525200  0.90167000  1
  O  O24  1  0.06039000  0.74842600  0.59703300  1
  O  O25  1  0.25000000  0.50637300  0.02121400  1
loop_
_geom_bond_atom_site_label_1
_geom_bond_atom_site_label_2
_geom_bond_distance
_geom_bond_site_symmetry_2
Mg0 O13 2.058821 1_554
Mg0 O22 2.227908 1_555
Mg0 O12 2.227908 1_555
Mg0 O15 2.429228 1_555
Mg0 O7 2.429228 1_655
Mg0 O1 2.601395 1_555
Mg0 O16 2.601395 1_555
Mg1 O25 2.058821 1_556
Mg1 O18 2.227908 1_555
Mg1 O10 2.227908 1_555
Mg1 O23 2.429228 1_455
Mg1 O3 2.429228 1_555
Mg1 O17 2.601395 1_555
Mg1 O24 2.601395 1_555
Fe0 O11 1.925804 1_555
Fe0 O6 1.945249 1_555
Fe0 O12 2.005636 1_555
Fe0 O22 2.005636 1_455
Fe0 O19 2.073365 1_555
Fe0 O25 2.333421 1_555
Fe1 O5 1.925804 1_555
Fe1 O4 1.945249 1_555
Fe1 O10 2.005636 1_655
Fe1 O18 2.005636 1_555
Fe1 O0 2.073365 1_555
Fe1 O13 2.333421 1_555
Fe2 O8 1.891242 1_545
Fe2 O2 1.924317 1_555
Fe2 O19 1.989714 1_555
Fe2 O16 2.001285 1_455
Fe2 O1 2.001285 1_555
Fe3 O5 2.001775 1_554
Fe3 O11 2.001775 1_545
Fe3 O3 2.082853 1_544
Fe3 O15 2.082853 1_555
Fe3 O20 2.119525 1_545
Fe3 O21 2.119525 1_554
Fe4 O9 1.891242 1_565
Fe4 O14 1.924317 1_555
Fe4 O0 1.989714 1_555
Fe4 O24 2.001285 1_655
Fe4 O17 2.001285 1_555
Fe5 O5 2.001775 1_454
Fe5 O11 2.001775 1_545
Fe5 O23 2.082853 1_444
Fe5 O7 2.082853 1_555
Fe5 O20 2.119525 1_445
Fe5 O21 2.119525 1_554
O0 P4 1.559226 1_555
O1 P1 1.553655 1_555
O2 P2 1.515338 1_555
O3 P4 1.558125 1_555
O4 P1 1.537148 1_555
O6 P0 1.537148 1_555
O7 P5 1.558125 1_555
O8 P0 1.545472 1_555
O9 P1 1.545472 1_555
O10 P2 1.548725 1_555
O12 P3 1.548725 1_555
O13 P4 1.545830 1_555
O14 P3 1.515338 1_555
O15 P5 1.558125 1_555
O16 P1 1.553655 1_555
O17 P0 1.553655 1_555
O18 P2 1.548725 1_555
O19 P5 1.559226 1_555
O20 P3 1.573863 1_555
O21 P2 1.573863 1_555
O22 P3 1.548725 1_555
O23 P4 1.558125 1_555
O24 P0 1.553655 1_555
O25 P5 1.545830 1_555
