# generated using pymatgen
data_SrCa7Mn6Cr2O22
_symmetry_space_group_name_H-M   'P 1'
_cell_length_a   7.72347509
_cell_length_b   7.71419681
_cell_length_c   7.66607173
_cell_angle_alpha   89.95054550
_cell_angle_beta   89.91761693
_cell_angle_gamma   90.61064021
_symmetry_Int_Tables_number   1
_chemical_formula_structural   SrCa7Mn6Cr2O22
_chemical_formula_sum   'Sr1 Ca7 Mn6 Cr2 O22'
_cell_volume   456.72108520
_cell_formula_units_Z   1
loop_
 _symmetry_equiv_pos_site_id
 _symmetry_equiv_pos_as_xyz
  1  'x, y, z'
loop_
 _atom_site_type_symbol
 _atom_site_label
 _atom_site_symmetry_multiplicity
 _atom_site_fract_x
 _atom_site_fract_y
 _atom_site_fract_z
 _atom_site_occupancy
  Sr  Sr0  1  0.25057600  0.25221500  0.23431200  1
  Ca  Ca0  1  0.24857900  0.25131200  0.74088600  1
  Ca  Ca1  1  0.25158900  0.74810200  0.24833600  1
  Ca  Ca2  1  0.24975200  0.75080100  0.73498100  1
  Ca  Ca3  1  0.74642600  0.24839200  0.23410000  1
  Ca  Ca4  1  0.74805400  0.24386700  0.73342300  1
  Ca  Ca5  1  0.74922100  0.74931900  0.24963100  1
  Ca  Ca6  1  0.75191900  0.75078000  0.71281000  1
  Mn  Mn0  1  0.99865200  0.99996200  0.50555100  1
  Mn  Mn1  1  0.99535600  0.50558400  0.00428400  1
  Mn  Mn2  1  0.99786400  0.50104700  0.49501200  1
  Mn  Mn3  1  0.50164800  0.99882300  0.49473300  1
  Mn  Mn4  1  0.50679400  0.50714000  0.98640400  1
  Mn  Mn5  1  0.50273100  0.50203300  0.50979600  1
  Cr  Cr0  1  0.99316500  0.99192900  0.98809100  1
  Cr  Cr1  1  0.50429000  0.99243900  0.00336500  1
  O  O0  1  0.95829200  0.96151700  0.75688400  1
  O  O1  1  0.02899500  0.47187500  0.25181200  1
  O  O2  1  0.96777800  0.53397800  0.75177500  1
  O  O3  1  0.46777900  0.03263900  0.25629500  1
  O  O4  1  0.53869500  0.96331000  0.74530500  1
  O  O5  1  0.53667100  0.54444900  0.75238500  1
  O  O6  1  0.24047600  0.99944900  0.98175100  1
  O  O7  1  0.24885700  0.99565900  0.53148600  1
  O  O8  1  0.25438300  0.49834700  0.98197200  1
  O  O9  1  0.25310400  0.50491800  0.52099200  1
  O  O10  1  0.76006200  0.99519000  0.05423300  1
  O  O11  1  0.75530000  0.00799100  0.44999500  1
  O  O12  1  0.74476800  0.50416600  0.05383300  1
  O  O13  1  0.74447100  0.49354700  0.45316000  1
  O  O14  1  0.99176900  0.24010800  0.99581700  1
  O  O15  1  0.00229200  0.24923900  0.53289000  1
  O  O16  1  0.00606500  0.75985800  0.05941100  1
  O  O17  1  0.00007200  0.75501800  0.45499800  1
  O  O18  1  0.51074800  0.25823600  0.99132800  1
  O  O19  1  0.49849600  0.25246900  0.53532900  1
  O  O20  1  0.49408200  0.73908100  0.06113000  1
  O  O21  1  0.50022800  0.74521100  0.45150300  1
loop_
_geom_bond_atom_site_label_1
_geom_bond_atom_site_label_2
_geom_bond_distance
_geom_bond_site_symmetry_2
Ca0 O15 2.483782 1_555
Ca0 O19 2.489962 1_555
Ca0 O7 2.543986 1_545
Ca0 O9 2.581266 1_555
Ca0 O8 2.655916 1_555
Ca0 O6 2.679414 1_545
Ca0 O14 2.783142 1_455
Ca0 O18 2.792487 1_555
Ca1 O20 2.359531 1_555
Ca1 O16 2.390213 1_555
Ca1 O21 2.474572 1_555
Ca1 O17 2.505983 1_555
Ca1 O1 2.723719 1_555
Ca1 O3 2.744461 1_565
Ca1 O9 2.807509 1_555
Ca1 O8 2.808853 1_554
Ca1 O6 2.817909 1_554
Ca1 O7 2.892578 1_555
Ca2 O7 2.448831 1_555
Ca2 O9 2.509157 1_555
Ca2 O6 2.696639 1_555
Ca2 O8 2.715590 1_555
Ca2 O2 2.734647 1_455
Ca2 O5 2.745567 1_555
Ca2 O4 2.756207 1_555
Ca2 O0 2.795571 1_455
Ca2 O17 2.887871 1_555
Ca2 O21 2.908060 1_555
Ca3 O10 2.395034 1_545
Ca3 O12 2.408089 1_555
Ca3 O11 2.486132 1_555
Ca3 O13 2.530402 1_555
Ca3 O18 2.606771 1_554
Ca3 O14 2.631420 1_554
Ca3 O3 2.711603 1_555
Ca3 O1 2.770303 1_655
Ca3 O19 2.998175 1_555
Ca3 O15 3.027322 1_655
Ca4 O19 2.456951 1_555
Ca4 O15 2.492030 1_655
Ca4 O4 2.689170 1_545
Ca4 O18 2.697189 1_555
Ca4 O0 2.736540 1_545
Ca4 O14 2.757209 1_555
Ca4 O2 2.797949 1_555
Ca4 O11 2.836136 1_555
Ca4 O5 2.853723 1_555
Ca4 O13 2.884586 1_555
Ca5 O12 2.415436 1_555
Ca5 O10 2.416533 1_555
Ca5 O20 2.445939 1_555
Ca5 O16 2.460953 1_655
Ca5 O21 2.466637 1_555
Ca5 O17 2.498258 1_655
Ca5 O13 2.514316 1_555
Ca5 O11 2.519290 1_565
Ca6 O0 2.290150 1_555
Ca6 O5 2.308804 1_555
Ca6 O4 2.349284 1_555
Ca6 O2 2.392869 1_555
Ca6 O17 2.751050 1_655
Ca6 O21 2.793399 1_555
Ca6 O13 2.812068 1_555
Ca6 O11 2.826435 1_565
Mn0 O17 1.929349 1_655
Mn0 O11 1.929396 1_565
Mn0 O15 1.934450 1_665
Mn0 O7 1.943570 1_655
Mn0 O0 1.973007 1_555
Mn1 O1 1.933362 1_655
Mn1 O2 1.960084 1_554
Mn1 O12 1.971711 1_555
Mn1 O16 2.007753 1_655
Mn1 O8 2.009015 1_654
Mn1 O14 2.048912 1_554
Mn2 O1 1.893406 1_655
Mn2 O15 1.964498 1_655
Mn2 O9 1.981571 1_655
Mn2 O17 1.982679 1_655
Mn2 O13 1.983898 1_555
Mn2 O2 1.998447 1_555
Mn3 O3 1.865379 1_565
Mn3 O4 1.961921 1_555
Mn3 O7 1.972139 1_555
Mn3 O19 1.981935 1_565
Mn3 O21 1.984483 1_555
Mn3 O11 1.988888 1_565
Mn4 O5 1.830585 1_555
Mn4 O20 1.882692 1_556
Mn4 O12 1.910375 1_556
Mn4 O18 1.921002 1_555
Mn4 O8 1.950293 1_555
Mn5 O5 1.906542 1_555
Mn5 O13 1.918092 1_555
Mn5 O21 1.928344 1_555
Mn5 O9 1.930140 1_555
Mn5 O19 1.934868 1_555
Cr0 O0 1.808288 1_555
Cr0 O10 1.870136 1_556
Cr0 O16 1.875124 1_656
Cr0 O6 1.910910 1_655
Cr0 O14 1.915613 1_565
Cr1 O3 1.984102 1_565
Cr1 O20 2.004326 1_555
Cr1 O4 2.008813 1_554
Cr1 O10 2.014014 1_555
Cr1 O6 2.045810 1_554
Cr1 O18 2.052478 1_564
O1 Sr0 2.424805 1_555
O3 Sr0 2.402631 1_555
O6 Sr0 2.749642 1_566
O7 Sr0 3.016401 1_565
O8 Sr0 2.709316 1_556
O9 Sr0 2.938908 1_555
O14 Sr0 2.711800 1_656
O15 Sr0 2.983837 1_555
O18 Sr0 2.738037 1_556
O19 Sr0 3.000702 1_555
