# generated using pymatgen
data_Na4V20(CuO4)15
_symmetry_space_group_name_H-M   'P 1'
_cell_length_a   10.39526917
_cell_length_b   10.39526917
_cell_length_c   12.18955374
_cell_angle_alpha   90.00000003
_cell_angle_beta   64.76064288
_cell_angle_gamma   60.00000000
_symmetry_Int_Tables_number   1
_chemical_formula_structural   Na4V20(CuO4)15
_chemical_formula_sum   'Na4 V20 Cu15 O60'
_cell_volume   992.89467283
_cell_formula_units_Z   1
loop_
 _symmetry_equiv_pos_site_id
 _symmetry_equiv_pos_as_xyz
  1  'x, y, z'
loop_
 _atom_site_type_symbol
 _atom_site_label
 _atom_site_symmetry_multiplicity
 _atom_site_fract_x
 _atom_site_fract_y
 _atom_site_fract_z
 _atom_site_occupancy
  Na  Na0  1  0.00036232  0.99981884  0.99945652  1
  Na  Na1  1  0.60105029  0.19947485  0.59842456  1
  Na  Na2  1  0.19894971  0.40052515  0.20157544  1
  Na  Na3  1  0.79963768  0.60018116  0.80054348  1
  V  V0  1  0.20198465  0.89900768  0.69702303  1
  V  V1  1  0.59801535  0.70099232  0.10297697  1
  V  V2  1  0.00021484  0.49989258  0.49967774  1
  V  V3  1  0.40000000  0.30000000  0.90000000  1
  V  V4  1  0.79978516  0.10010742  0.30032226  1
  V  V5  1  0.09980396  0.20039286  0.10135954  1
  V  V6  1  0.50138821  0.99331621  0.49732611  1
  V  V7  1  0.90000000  0.80000000  0.90000000  1
  V  V8  1  0.29861179  0.60668379  0.30267389  1
  V  V9  1  0.70019604  0.39960714  0.69864046  1
  V  V10  1  0.40000000  0.80000000  0.90000000  1
  V  V11  1  0.79203052  0.60128569  0.30267389  1
  V  V12  1  0.20155636  0.39883650  0.69864046  1
  V  V13  1  0.59844364  0.20116350  0.10135954  1
  V  V14  1  0.00796948  0.99871431  0.49732611  1
  V  V15  1  0.49599010  0.50529559  0.49732611  1
  V  V16  1  0.90000000  0.30000000  0.90000000  1
  V  V17  1  0.30400990  0.09470441  0.30267389  1
  V  V18  1  0.70096668  0.90019682  0.69864046  1
  V  V19  1  0.09903332  0.69980318  0.10135954  1
  Cu  Cu0  1  0.90000000  0.30000000  0.40000000  1
  Cu  Cu1  1  0.29915756  0.10020390  0.79995292  1
  Cu  Cu2  1  0.69958017  0.90099656  0.19952948  1
  Cu  Cu3  1  0.10041983  0.69900344  0.60047052  1
  Cu  Cu4  1  0.50084244  0.49979610  0.00004708  1
  Cu  Cu5  1  0.60010621  0.70089035  0.60047052  1
  Cu  Cu6  1  0.99931437  0.50088952  0.00004708  1
  Cu  Cu7  1  0.40000000  0.30000000  0.40000000  1
  Cu  Cu8  1  0.80068563  0.09911048  0.79995292  1
  Cu  Cu9  1  0.19989379  0.89910965  0.19952948  1
  Cu  Cu10  1  0.70146708  0.39942327  0.19952948  1
  Cu  Cu11  1  0.09853292  0.20057673  0.60047052  1
  Cu  Cu12  1  0.49974902  0.99936145  0.00004708  1
  Cu  Cu13  1  0.90000000  0.80000000  0.40000000  1
  Cu  Cu14  1  0.30025098  0.60063855  0.79995292  1
  O  O0  1  0.96978016  0.60476801  0.14928749  1
  O  O1  1  0.57115490  0.80415880  0.74956374  1
  O  O2  1  0.16302210  0.00633762  0.35133067  1
  O  O3  1  0.76904333  0.20519849  0.94827761  1
  O  O4  1  0.36755601  0.40419775  0.54887290  1
  O  O5  1  0.22884510  0.79584120  0.05043626  1
  O  O6  1  0.83021984  0.99523199  0.65071251  1
  O  O7  1  0.43244399  0.19580225  0.25112710  1
  O  O8  1  0.03095667  0.39480151  0.85172239  1
  O  O9  1  0.63697790  0.59366238  0.44866933  1
  O  O10  1  0.38357486  0.71670079  0.20412234  1
  O  O11  1  0.98458109  0.91716329  0.80428900  1
  O  O12  1  0.58617041  0.11896752  0.40354250  1
  O  O13  1  0.18722518  0.31814284  0.00375882  1
  O  O14  1  0.78966229  0.51628394  0.60384411  1
  O  O15  1  0.81541891  0.68283671  0.99571100  1
  O  O16  1  0.41642514  0.88329921  0.59587766  1
  O  O17  1  0.01033771  0.08371606  0.19615589  1
  O  O18  1  0.61277482  0.28185716  0.79624118  1
  O  O19  1  0.21382959  0.48103248  0.39645750  1
  O  O20  1  0.12062666  0.68357109  0.25112710  1
  O  O21  1  0.72251944  0.88267905  0.85172239  1
  O  O22  1  0.32069039  0.08564722  0.44866933  1
  O  O23  1  0.92487744  0.27928135  0.05043626  1
  O  O24  1  0.52383566  0.48093235  0.65071251  1
  O  O25  1  0.07748056  0.71732095  0.94827761  1
  O  O26  1  0.67937334  0.91642891  0.54887290  1
  O  O27  1  0.27616434  0.11906765  0.14928749  1
  O  O28  1  0.87512256  0.32071865  0.74956374  1
  O  O29  1  0.47930961  0.51435278  0.35133067  1
  O  O30  1  0.30912684  0.40901600  0.79624118  1
  O  O31  1  0.90868043  0.61028709  0.39645750  1
  O  O32  1  0.50603337  0.81112992  0.99571100  1
  O  O33  1  0.10439800  0.01230280  0.59587766  1
  O  O34  1  0.70979034  0.20649360  0.19615589  1
  O  O35  1  0.89131957  0.98971291  0.40354250  1
  O  O36  1  0.49087316  0.19098400  0.00375882  1
  O  O37  1  0.09020966  0.39350640  0.60384411  1
  O  O38  1  0.69560200  0.58769720  0.20412234  1
  O  O39  1  0.29396663  0.78887008  0.80428900  1
  O  O40  1  0.31438402  0.49463198  0.00375882  1
  O  O41  1  0.91243983  0.69405377  0.60384411  1
  O  O42  1  0.51257845  0.89972435  0.20412234  1
  O  O43  1  0.11287430  0.09825562  0.80428900  1
  O  O44  1  0.71542503  0.29486206  0.40354250  1
  O  O45  1  0.88756017  0.90594623  0.19615589  1
  O  O46  1  0.48561598  0.10536802  0.79624118  1
  O  O47  1  0.08457497  0.30513794  0.39645750  1
  O  O48  1  0.68712570  0.50174438  0.99571100  1
  O  O49  1  0.28742155  0.70027565  0.59587766  1
  O  O50  1  0.65500694  0.83064028  0.35133067  1
  O  O51  1  0.25692088  0.02575818  0.94827761  1
  O  O52  1  0.85532485  0.22824624  0.54887290  1
  O  O53  1  0.45548052  0.42545183  0.14928749  1
  O  O54  1  0.05459506  0.62468630  0.74956374  1
  O  O55  1  0.54307912  0.57424182  0.85172239  1
  O  O56  1  0.14499306  0.76935972  0.44866933  1
  O  O57  1  0.74540494  0.97531370  0.05043626  1
  O  O58  1  0.34451948  0.17454817  0.65071251  1
  O  O59  1  0.94467515  0.37175376  0.25112710  1
loop_
_geom_bond_atom_site_label_1
_geom_bond_atom_site_label_2
_geom_bond_distance
_geom_bond_site_symmetry_2
Na0 O23 2.597308 1_466
Na0 O5 2.597308 1_556
Na0 O57 2.597308 1_456
Na0 O17 2.612030 1_566
Na0 O34 2.612030 1_466
Na0 O45 2.612030 1_456
Na0 O25 2.622025 1_555
Na0 O3 2.622025 1_465
Na0 O51 2.622025 1_565
Na0 O11 2.626525 1_455
Na0 O43 2.626525 1_565
Na0 O39 2.626525 1_555
Na1 O12 2.609646 1_555
Na1 O44 2.609646 1_555
Na1 O35 2.609646 1_545
Na1 O58 2.612703 1_555
Na1 O6 2.612703 1_545
Na1 O24 2.612704 1_555
Na1 O26 2.621084 1_545
Na1 O4 2.621084 1_555
Na1 O52 2.621084 1_555
Na1 O46 2.630134 1_555
Na1 O30 2.630134 1_555
Na1 O18 2.630134 1_555
Na2 O19 2.609646 1_555
Na2 O47 2.609646 1_555
Na2 O31 2.609646 1_455
Na2 O53 2.612703 1_555
Na2 O0 2.612703 1_455
Na2 O27 2.612704 1_555
Na2 O20 2.621084 1_555
Na2 O7 2.621084 1_555
Na2 O59 2.621084 1_455
Na2 O40 2.630134 1_555
Na2 O36 2.630134 1_555
Na2 O13 2.630134 1_555
Na3 O28 2.597308 1_555
Na3 O1 2.597308 1_555
Na3 O54 2.597308 1_655
Na3 O14 2.612030 1_555
Na3 O37 2.612030 1_655
Na3 O41 2.612030 1_555
Na3 O21 2.622025 1_555
Na3 O8 2.622025 1_655
Na3 O55 2.622025 1_555
Na3 O15 2.626525 1_555
Na3 O48 2.626525 1_555
Na3 O32 2.626525 1_555
Cu0 O59 1.921680 1_555
Cu0 O52 1.921680 1_555
Cu0 O47 1.928205 1_655
Cu0 O44 1.928205 1_555
Cu1 O43 1.924846 1_555
Cu1 O51 1.929607 1_555
Cu1 O58 1.939558 1_555
Cu1 O46 1.947086 1_555
Cu2 O42 1.927455 1_555
Cu2 O57 1.938126 1_555
Cu2 O50 1.944543 1_555
Cu2 O45 1.963383 1_555
Cu3 O49 1.927455 1_555
Cu3 O54 1.938126 1_555
Cu3 O56 1.944543 1_555
Cu3 O41 1.963383 1_455
Cu4 O48 1.924846 1_554
Cu4 O55 1.929607 1_554
Cu4 O53 1.939558 1_555
Cu4 O40 1.947086 1_555
Cu5 O16 1.927455 1_555
Cu5 O1 1.938126 1_555
Cu5 O9 1.944543 1_555
Cu5 O14 1.963383 1_555
Cu6 O15 1.924846 1_554
Cu6 O8 1.929606 1_654
Cu6 O0 1.939558 1_555
Cu6 O13 1.947086 1_655
Cu7 O4 1.921680 1_555
Cu7 O7 1.921680 1_555
Cu7 O12 1.928205 1_555
Cu7 O19 1.928205 1_555
Cu8 O11 1.924846 1_545
Cu8 O3 1.929606 1_555
Cu8 O6 1.939558 1_545
Cu8 O18 1.947086 1_555
Cu9 O10 1.927455 1_555
Cu9 O5 1.938126 1_555
Cu9 O2 1.944543 1_565
Cu9 O17 1.963383 1_565
Cu10 O38 1.927455 1_555
Cu10 O23 1.938126 1_555
Cu10 O29 1.944543 1_555
Cu10 O34 1.963383 1_555
Cu11 O33 1.927455 1_555
Cu11 O28 1.938126 1_455
Cu11 O22 1.944543 1_555
Cu11 O37 1.963383 1_555
Cu12 O32 1.924846 1_554
Cu12 O21 1.929607 1_554
Cu12 O27 1.939558 1_565
Cu12 O36 1.947086 1_565
Cu13 O26 1.921680 1_555
Cu13 O20 1.921680 1_655
Cu13 O35 1.928205 1_555
Cu13 O31 1.928205 1_555
Cu14 O39 1.924846 1_555
Cu14 O25 1.929607 1_555
Cu14 O24 1.939558 1_555
Cu14 O30 1.947086 1_555
O0 V19 1.944369 1_655
O0 V11 2.007981 1_555
O1 V10 1.955665 1_555
O1 V18 1.958521 1_555
O2 V14 1.858174 1_545
O2 V17 1.987106 1_555
O3 V16 1.956807 1_555
O3 V13 1.970038 1_556
O4 V12 1.929577 1_555
O4 V15 1.992359 1_555
O5 V10 1.955665 1_554
O5 V19 1.958521 1_555
O6 V18 1.944369 1_555
O6 V14 2.007981 1_655
O7 V13 1.929577 1_555
O7 V17 1.992359 1_555
O8 V16 1.956807 1_455
O8 V12 1.970038 1_555
O9 V11 1.858174 1_555
O9 V15 1.987106 1_555
O10 V8 1.906936 1_555
O10 V1 1.951436 1_555
O11 V7 1.952859 1_555
O11 V0 1.976403 1_655
O12 V4 1.932477 1_555
O12 V6 2.020316 1_545
O13 V3 1.929935 1_554
O13 V5 1.982396 1_555
O14 V2 1.920650 1_655
O14 V9 1.970487 1_555
O15 V7 1.952859 1_555
O15 V1 1.976403 1_556
O16 V6 1.906936 1_555
O16 V0 1.951436 1_555
O17 V4 1.920650 1_455
O17 V5 1.970487 1_555
O18 V3 1.929935 1_555
O18 V9 1.982396 1_555
O19 V2 1.932477 1_555
O19 V8 2.020316 1_555
O20 V19 1.929577 1_555
O20 V8 1.992359 1_555
O21 V7 1.956807 1_555
O21 V18 1.970038 1_555
O22 V17 1.858174 1_555
O22 V6 1.987106 1_545
O23 V16 1.955665 1_554
O23 V5 1.958521 1_655
O24 V9 1.944369 1_555
O24 V15 2.007981 1_555
O25 V7 1.956807 1_455
O25 V19 1.970038 1_556
O26 V18 1.929577 1_555
O26 V6 1.992359 1_555
O27 V5 1.944369 1_555
O27 V17 2.007981 1_555
O28 V16 1.955665 1_555
O28 V9 1.958521 1_555
O29 V15 1.858174 1_555
O29 V8 1.987106 1_555
O30 V3 1.929935 1_555
O30 V12 1.982396 1_555
O31 V2 1.932477 1_655
O31 V11 2.020316 1_555
O32 V10 1.952859 1_555
O32 V1 1.976404 1_556
O33 V14 1.906936 1_545
O33 V0 1.951436 1_545
O34 V4 1.920650 1_555
O34 V13 1.970487 1_555
O35 V4 1.932477 1_565
O35 V14 2.020316 1_655
O36 V3 1.929935 1_554
O36 V13 1.982396 1_555
O37 V2 1.920650 1_555
O37 V12 1.970487 1_555
O38 V11 1.906936 1_555
O38 V1 1.951436 1_555
O39 V10 1.952859 1_555
O39 V0 1.976404 1_555
O40 V3 1.929935 1_554
O40 V19 1.982396 1_555
O41 V2 1.920650 1_655
O41 V18 1.970487 1_555
O42 V17 1.906936 1_565
O42 V1 1.951436 1_555
O43 V16 1.952859 1_455
O43 V0 1.976403 1_545
O44 V4 1.932477 1_555
O44 V15 2.020316 1_555
O45 V4 1.920650 1_565
O45 V19 1.970487 1_655
O46 V3 1.929935 1_555
O46 V18 1.982396 1_545
O47 V2 1.932477 1_555
O47 V17 2.020316 1_555
O48 V16 1.952859 1_555
O48 V1 1.976403 1_556
O49 V15 1.906936 1_555
O49 V0 1.951436 1_555
O50 V6 1.858174 1_555
O50 V11 1.987106 1_555
O51 V10 1.956807 1_545
O51 V5 1.970038 1_556
O52 V9 1.929577 1_555
O52 V14 1.992359 1_645
O53 V13 1.944369 1_555
O53 V8 2.007981 1_555
O54 V7 1.955665 1_455
O54 V12 1.958521 1_555
O55 V10 1.956807 1_555
O55 V9 1.970038 1_555
O56 V8 1.858174 1_555
O56 V14 1.987106 1_555
O57 V7 1.955665 1_554
O57 V13 1.958521 1_565
O58 V12 1.944369 1_555
O58 V6 2.007981 1_545
O59 V5 1.929577 1_655
O59 V11 1.992359 1_555
