# generated using pymatgen
data_AlS2NO8
_symmetry_space_group_name_H-M   'P 1'
_cell_length_a   5.00705763
_cell_length_b   5.00705763
_cell_length_c   8.36299100
_cell_angle_alpha   90.00000000
_cell_angle_beta   90.00000000
_cell_angle_gamma   119.99999512
_symmetry_Int_Tables_number   1
_chemical_formula_structural   AlS2NO8
_chemical_formula_sum   'Al1 S2 N1 O8'
_cell_volume   181.57558946
_cell_formula_units_Z   1
loop_
 _symmetry_equiv_pos_site_id
 _symmetry_equiv_pos_as_xyz
  1  'x, y, z'
loop_
 _atom_site_type_symbol
 _atom_site_label
 _atom_site_symmetry_multiplicity
 _atom_site_fract_x
 _atom_site_fract_y
 _atom_site_fract_z
 _atom_site_occupancy
  Al  Al0  1  0.00000000  0.00000000  0.00000000  1
  S  S0  1  0.33333300  0.66666700  0.19670500  1
  S  S1  1  0.66666700  0.33333300  0.80329500  1
  N  N0  1  0.00000000  0.00000000  0.50000000  1
  O  O0  1  0.15540100  0.34664800  0.13472000  1
  O  O1  1  0.65335200  0.80875300  0.13472000  1
  O  O2  1  0.34664800  0.15540100  0.86528000  1
  O  O3  1  0.19124700  0.84459900  0.13472000  1
  O  O4  1  0.80875300  0.65335200  0.86528000  1
  O  O5  1  0.84459900  0.19124700  0.86528000  1
  O  O6  1  0.33333300  0.66666700  0.37011200  1
  O  O7  1  0.66666700  0.33333300  0.62988800  1
loop_
_geom_bond_atom_site_label_1
_geom_bond_atom_site_label_2
_geom_bond_distance
_geom_bond_site_symmetry_2
Al0 O5 1.880659 1_454
Al0 O3 1.880659 1_545
Al0 O2 1.880659 1_554
Al0 O0 1.880659 1_555
Al0 O4 1.880659 1_444
Al0 O1 1.880659 1_445
O0 S0 1.484057 1_555
O1 S0 1.484057 1_555
O2 S1 1.484057 1_555
O3 S0 1.484053 1_555
O4 S1 1.484057 1_555
O5 S1 1.484053 1_555
O6 S0 1.450201 1_555
O7 S1 1.450201 1_555
