# generated using pymatgen
data_CuPb3(ClO2)2
_symmetry_space_group_name_H-M   'P 1'
_cell_length_a   5.56674300
_cell_length_b   7.01357900
_cell_length_c   10.39222956
_cell_angle_alpha   77.14313780
_cell_angle_beta   90.00000000
_cell_angle_gamma   90.00000000
_symmetry_Int_Tables_number   1
_chemical_formula_structural   CuPb3(ClO2)2
_chemical_formula_sum   'Cu2 Pb6 Cl4 O8'
_cell_volume   395.56930711
_cell_formula_units_Z   2
loop_
 _symmetry_equiv_pos_site_id
 _symmetry_equiv_pos_as_xyz
  1  'x, y, z'
loop_
 _atom_site_type_symbol
 _atom_site_label
 _atom_site_symmetry_multiplicity
 _atom_site_fract_x
 _atom_site_fract_y
 _atom_site_fract_z
 _atom_site_occupancy
  Cu  Cu0  1  0.00000000  0.00000000  0.50000000  1
  Cu  Cu1  1  0.50000000  0.00000000  0.50000000  1
  Pb  Pb0  1  0.25000000  0.35986800  0.95607700  1
  Pb  Pb1  1  0.75000000  0.64013200  0.04392300  1
  Pb  Pb2  1  0.25000000  0.89166400  0.81181600  1
  Pb  Pb3  1  0.75000000  0.10833600  0.18818400  1
  Pb  Pb4  1  0.25000000  0.44762400  0.30796800  1
  Pb  Pb5  1  0.75000000  0.55237600  0.69203200  1
  Cl  Cl0  1  0.25000000  0.87620500  0.11080200  1
  Cl  Cl1  1  0.75000000  0.12379500  0.88919800  1
  Cl  Cl2  1  0.25000000  0.34252100  0.63880100  1
  Cl  Cl3  1  0.75000000  0.65747900  0.36119900  1
  O  O0  1  0.00133800  0.38238500  0.13280700  1
  O  O1  1  0.50133800  0.61761500  0.86719300  1
  O  O2  1  0.99866200  0.61761500  0.86719300  1
  O  O3  1  0.49866200  0.38238500  0.13280700  1
  O  O4  1  0.25000000  0.09976800  0.38581500  1
  O  O5  1  0.75000000  0.90023200  0.61418500  1
  O  O6  1  0.25000000  0.85428800  0.59100900  1
  O  O7  1  0.75000000  0.14571200  0.40899100  1
loop_
_geom_bond_atom_site_label_1
_geom_bond_atom_site_label_2
_geom_bond_distance
_geom_bond_site_symmetry_2
Cu0 O7 1.856222 1_455
Cu0 O6 1.856222 1_545
Cu0 O5 1.861450 1_445
Cu0 O4 1.861450 1_555
Cu1 O7 1.856222 1_555
Cu1 O6 1.856222 1_545
Cu1 O5 1.861450 1_545
Cu1 O4 1.861450 1_555
Cl0 Pb2 3.084817 1_554
Cl1 Pb3 3.084817 1_556
O0 Pb1 2.309885 1_455
O0 Pb0 2.333089 1_554
O0 Pb3 2.343253 1_455
O0 Pb4 2.410328 1_555
O1 Pb0 2.309885 1_555
O1 Pb1 2.333089 1_556
O1 Pb2 2.343253 1_555
O1 Pb5 2.410328 1_555
O2 Pb0 2.309885 1_655
O2 Pb1 2.333089 1_556
O2 Pb2 2.343253 1_655
O2 Pb5 2.410328 1_555
O3 Pb1 2.309885 1_555
O3 Pb0 2.333089 1_554
O3 Pb3 2.343253 1_555
O3 Pb4 2.410328 1_555
O4 Pb4 2.393391 1_555
O5 Pb5 2.393391 1_555
O6 Pb2 2.366846 1_555
O7 Pb3 2.366846 1_555
