# generated using pymatgen
data_ZnGe2WO6
_symmetry_space_group_name_H-M   'P 1'
_cell_length_a   8.75956000
_cell_length_b   5.53595900
_cell_length_c   12.57236963
_cell_angle_alpha   77.77118115
_cell_angle_beta   90.00000000
_cell_angle_gamma   90.00000000
_symmetry_Int_Tables_number   1
_chemical_formula_structural   ZnGe2WO6
_chemical_formula_sum   'Zn4 Ge8 W4 O24'
_cell_volume   595.83280166
_cell_formula_units_Z   4
loop_
 _symmetry_equiv_pos_site_id
 _symmetry_equiv_pos_as_xyz
  1  'x, y, z'
loop_
 _atom_site_type_symbol
 _atom_site_label
 _atom_site_symmetry_multiplicity
 _atom_site_fract_x
 _atom_site_fract_y
 _atom_site_fract_z
 _atom_site_occupancy
  Zn  Zn0  1  0.44973500  0.55280800  0.22286500  1
  Zn  Zn1  1  0.94973500  0.94719200  0.77713500  1
  Zn  Zn2  1  0.55026500  0.44719200  0.77713500  1
  Zn  Zn3  1  0.05026500  0.05280800  0.22286500  1
  Ge  Ge0  1  0.36589600  0.14846200  0.08453700  1
  Ge  Ge1  1  0.86589600  0.35153800  0.91546300  1
  Ge  Ge2  1  0.63410400  0.85153800  0.91546300  1
  Ge  Ge3  1  0.13410400  0.64846200  0.08453700  1
  Ge  Ge4  1  0.33964100  0.78565200  0.46136300  1
  Ge  Ge5  1  0.83964100  0.71434800  0.53863700  1
  Ge  Ge6  1  0.66035900  0.21434800  0.53863700  1
  Ge  Ge7  1  0.16035900  0.28565200  0.46136300  1
  W  W0  1  0.65751500  0.01814000  0.29741800  1
  W  W1  1  0.15751500  0.48186000  0.70258200  1
  W  W2  1  0.34248500  0.98186000  0.70258200  1
  W  W3  1  0.84248500  0.51814000  0.29741800  1
  O  O0  1  0.28467700  0.53381800  0.40050000  1
  O  O1  1  0.78467700  0.96618200  0.59950000  1
  O  O2  1  0.71532300  0.46618200  0.59950000  1
  O  O3  1  0.21532300  0.03381800  0.40050000  1
  O  O4  1  0.30676700  0.80376000  0.14911300  1
  O  O5  1  0.80676700  0.69624000  0.85088700  1
  O  O6  1  0.69323300  0.19624000  0.85088700  1
  O  O7  1  0.19323300  0.30376000  0.14911300  1
  O  O8  1  0.97273900  0.33587700  0.42056800  1
  O  O9  1  0.47273900  0.16412300  0.57943200  1
  O  O10  1  0.02726100  0.66412300  0.57943200  1
  O  O11  1  0.52726100  0.83587700  0.42056800  1
  O  O12  1  0.00595400  0.71639300  0.20143000  1
  O  O13  1  0.50595400  0.78360700  0.79857000  1
  O  O14  1  0.99404600  0.28360700  0.79857000  1
  O  O15  1  0.49404600  0.21639300  0.20143000  1
  O  O16  1  0.34487300  0.29093200  0.77330700  1
  O  O17  1  0.84487300  0.20906800  0.22669300  1
  O  O18  1  0.65512700  0.70906800  0.22669300  1
  O  O19  1  0.15512700  0.79093200  0.77330700  1
  O  O20  1  0.33073700  0.70291400  0.60568600  1
  O  O21  1  0.83073700  0.79708600  0.39431400  1
  O  O22  1  0.66926300  0.29708600  0.39431400  1
  O  O23  1  0.16926300  0.20291400  0.60568600  1
loop_
_geom_bond_atom_site_label_1
_geom_bond_atom_site_label_2
_geom_bond_distance
_geom_bond_site_symmetry_2
Ge0 O15 1.948187 1_555
Ge0 O4 1.978011 1_545
Ge0 O7 1.995360 1_555
Ge1 O14 1.948187 1_555
Ge1 O5 1.978011 1_555
Ge1 O6 1.995360 1_555
Ge2 O13 1.948187 1_555
Ge2 O6 1.978011 1_565
Ge2 O5 1.995360 1_555
Ge3 O12 1.948187 1_555
Ge3 O7 1.978011 1_555
Ge3 O4 1.995360 1_555
Ge4 O11 1.726540 1_555
Ge4 O20 1.776554 1_555
Ge4 O0 1.792452 1_555
Ge4 O3 1.792613 1_565
Ge5 O10 1.726540 1_655
Ge5 O21 1.776554 1_555
Ge5 O1 1.792452 1_555
Ge5 O2 1.792613 1_555
Ge6 O9 1.726540 1_555
Ge6 O22 1.776554 1_555
Ge6 O2 1.792452 1_555
Ge6 O1 1.792613 1_545
Ge7 O8 1.726540 1_455
Ge7 O23 1.776554 1_555
Ge7 O3 1.792452 1_555
Ge7 O0 1.792613 1_555
O4 Zn0 1.952549 1_555
O5 Zn1 1.952549 1_555
O6 Zn2 1.952549 1_555
O7 Zn3 1.952549 1_555
O8 W3 2.013771 1_555
O9 W2 2.013771 1_545
O10 W1 2.013771 1_555
O11 W0 2.013771 1_565
O12 Zn3 1.975944 1_565
O12 W3 2.037204 1_455
O13 Zn2 1.975944 1_555
O13 W2 2.037204 1_555
O14 Zn1 1.975944 1_545
O14 W1 2.037204 1_655
O15 Zn0 1.975944 1_555
O15 W0 2.037204 1_555
O16 Zn2 2.001295 1_555
O16 W1 2.050154 1_555
O16 W2 2.088815 1_545
O17 Zn3 2.001295 1_655
O17 W0 2.050154 1_555
O17 W3 2.088815 1_555
O18 Zn0 2.001295 1_555
O18 W3 2.050154 1_555
O18 W0 2.088815 1_565
O19 Zn1 2.001295 1_455
O19 W2 2.050154 1_555
O19 W1 2.088815 1_555
O20 W1 2.156942 1_555
O20 W2 2.162459 1_555
O21 W0 2.156942 1_565
O21 W3 2.162459 1_555
O22 W3 2.156942 1_555
O22 W0 2.162459 1_555
O23 W2 2.156942 1_545
O23 W1 2.162459 1_555
