# generated using pymatgen
data_ErNiPb
_symmetry_space_group_name_H-M   'P 1'
_cell_length_a   4.47273078
_cell_length_b   7.08186997
_cell_length_c   7.76037164
_cell_angle_alpha   90.00161215
_cell_angle_beta   90.00000000
_cell_angle_gamma   90.00000000
_symmetry_Int_Tables_number   1
_chemical_formula_structural   ErNiPb
_chemical_formula_sum   'Er4 Ni4 Pb4'
_cell_volume   245.81208265
_cell_formula_units_Z   4
loop_
 _symmetry_equiv_pos_site_id
 _symmetry_equiv_pos_as_xyz
  1  'x, y, z'
loop_
 _atom_site_type_symbol
 _atom_site_label
 _atom_site_symmetry_multiplicity
 _atom_site_fract_x
 _atom_site_fract_y
 _atom_site_fract_z
 _atom_site_occupancy
  Er  Er0  1  0.25000000  0.51083475  0.20145779  1
  Er  Er1  1  0.75000000  0.48921911  0.79854107  1
  Er  Er2  1  0.75000000  0.98915189  0.70142510  1
  Er  Er3  1  0.25000000  0.01083192  0.29858073  1
  Ni  Ni0  1  0.25000000  0.78801778  0.91296003  1
  Ni  Ni1  1  0.75000000  0.21196334  0.08700970  1
  Ni  Ni2  1  0.75000000  0.71192579  0.41303730  1
  Ni  Ni3  1  0.25000000  0.28806043  0.58699886  1
  Pb  Pb0  1  0.25000000  0.68942340  0.58470022  1
  Pb  Pb1  1  0.75000000  0.31058914  0.41536970  1
  Pb  Pb2  1  0.75000000  0.81056307  0.08461594  1
  Pb  Pb3  1  0.25000000  0.18942137  0.91530256  1
loop_
_geom_bond_atom_site_label_1
_geom_bond_atom_site_label_2
_geom_bond_distance
_geom_bond_site_symmetry_2
Er0 Ni0 2.977577 1_554
Er0 Ni2 3.118527 1_555
Er0 Ni2 3.118527 1_455
Er0 Pb1 3.125416 1_555
Er0 Pb1 3.125416 1_455
Er0 Pb3 3.179971 1_554
Er0 Ni1 3.204671 1_555
Er0 Ni1 3.204671 1_455
Er0 Pb2 3.213907 1_555
Er0 Pb2 3.213907 1_455
Er0 Pb0 3.231819 1_555
Er0 Ni3 3.382453 1_555
Er1 Ni1 2.977746 1_556
Er1 Ni3 3.118594 1_655
Er1 Ni3 3.118594 1_555
Er1 Pb0 3.124991 1_655
Er1 Pb0 3.124991 1_555
Er1 Pb2 3.179184 1_556
Er1 Ni0 3.204268 1_655
Er1 Ni0 3.204268 1_555
Er1 Pb3 3.214056 1_555
Er1 Pb3 3.214056 1_655
Er1 Pb1 3.231426 1_555
Er1 Ni2 3.381974 1_555
Er2 Ni2 2.977053 1_555
Er2 Ni0 3.118527 1_555
Er2 Ni0 3.118527 1_655
Er2 Pb3 3.125309 1_565
Er2 Pb3 3.125309 1_665
Er2 Pb1 3.179641 1_565
Er2 Ni3 3.204830 1_665
Er2 Ni3 3.204830 1_565
Er2 Pb0 3.213618 1_555
Er2 Pb0 3.213618 1_655
Er2 Pb2 3.231516 1_556
Er2 Ni1 3.382796 1_566
Er3 Ni3 2.977241 1_555
Er3 Ni1 3.118666 1_555
Er3 Ni1 3.118666 1_455
Er3 Pb2 3.125667 1_445
Er3 Pb2 3.125667 1_545
Er3 Pb0 3.179842 1_545
Er3 Ni2 3.204884 1_445
Er3 Ni2 3.204884 1_545
Er3 Pb1 3.213893 1_455
Er3 Pb1 3.213893 1_555
Er3 Pb3 3.232142 1_554
Er3 Ni0 3.383053 1_544
Ni0 Pb2 2.607937 1_456
Ni0 Pb2 2.607937 1_556
Ni0 Pb0 2.641357 1_555
Ni0 Pb3 2.842746 1_565
Ni1 Pb3 2.608139 1_554
Ni1 Pb3 2.608139 1_654
Ni1 Pb1 2.642166 1_555
Ni1 Pb2 2.842725 1_545
Ni2 Pb0 2.607951 1_655
Ni2 Pb0 2.607951 1_555
Ni2 Pb2 2.642684 1_555
Ni2 Pb1 2.842272 1_555
Ni3 Pb1 2.607829 1_555
Ni3 Pb1 2.607829 1_455
Ni3 Pb3 2.641807 1_555
Ni3 Pb0 2.842457 1_555
