# generated using pymatgen
data_CaZn2(BrO)6
_symmetry_space_group_name_H-M   'P 1'
_cell_length_a   8.36017293
_cell_length_b   8.36017293
_cell_length_c   11.48323882
_cell_angle_alpha   79.81279673
_cell_angle_beta   79.81279673
_cell_angle_gamma   78.31678248
_symmetry_Int_Tables_number   1
_chemical_formula_structural   CaZn2(BrO)6
_chemical_formula_sum   'Ca2 Zn4 Br12 O12'
_cell_volume   765.24546762
_cell_formula_units_Z   2
loop_
 _symmetry_equiv_pos_site_id
 _symmetry_equiv_pos_as_xyz
  1  'x, y, z'
loop_
 _atom_site_type_symbol
 _atom_site_label
 _atom_site_symmetry_multiplicity
 _atom_site_fract_x
 _atom_site_fract_y
 _atom_site_fract_z
 _atom_site_occupancy
  Ca  Ca0  1  0.65198000  0.65198000  0.70639500  1
  Ca  Ca1  1  0.34802000  0.34802000  0.29360500  1
  Zn  Zn0  1  0.23993700  0.23993700  0.66878700  1
  Zn  Zn1  1  0.76006300  0.76006300  0.33121300  1
  Zn  Zn2  1  0.03247500  0.03247500  0.24147000  1
  Zn  Zn3  1  0.96752500  0.96752500  0.75853000  1
  Br  Br0  1  0.12528300  0.12528300  0.86489800  1
  Br  Br1  1  0.87471700  0.87471700  0.13510200  1
  Br  Br2  1  0.66309900  0.05964000  0.82889500  1
  Br  Br3  1  0.33690000  0.94036000  0.17110500  1
  Br  Br4  1  0.94036000  0.33690000  0.17110500  1
  Br  Br5  1  0.05964000  0.66309900  0.82889500  1
  Br  Br6  1  0.10149900  0.10149900  0.56083500  1
  Br  Br7  1  0.89850100  0.89850100  0.43916500  1
  Br  Br8  1  0.54246900  0.17566500  0.57724800  1
  Br  Br9  1  0.45753100  0.82433500  0.42275200  1
  Br  Br10  1  0.82433500  0.45753100  0.42275200  1
  Br  Br11  1  0.17566500  0.54246900  0.57724800  1
  O  O0  1  0.16979600  0.16979600  0.29719200  1
  O  O1  1  0.83020400  0.83020400  0.70280800  1
  O  O2  1  0.50561900  0.71774200  0.90899500  1
  O  O3  1  0.49438100  0.28225800  0.09100500  1
  O  O4  1  0.28225800  0.49438100  0.09100500  1
  O  O5  1  0.71774200  0.50561900  0.90899500  1
  O  O6  1  0.47829300  0.78148400  0.57798500  1
  O  O7  1  0.52170700  0.21851600  0.42201500  1
  O  O8  1  0.21851600  0.52170700  0.42201500  1
  O  O9  1  0.78148400  0.47829300  0.57798500  1
  O  O10  1  0.38796800  0.38796800  0.02826700  1
  O  O11  1  0.61203200  0.61203200  0.97173300  1
loop_
_geom_bond_atom_site_label_1
_geom_bond_atom_site_label_2
_geom_bond_distance
_geom_bond_site_symmetry_2
Ca0 O9 2.238514 1_555
Ca0 O6 2.238514 1_555
Ca0 O1 2.301630 1_555
Ca0 O5 2.526878 1_555
Ca0 O2 2.526878 1_555
Ca1 O7 2.238514 1_555
Ca1 O8 2.238514 1_555
Ca1 O0 2.301630 1_555
Ca1 O3 2.526878 1_555
Ca1 O4 2.526878 1_555
Br0 Zn0 2.398748 1_555
Br0 Zn3 2.610558 1_445
Br1 Zn1 2.398748 1_555
Br1 Zn2 2.610558 1_665
Br2 Zn3 2.534196 1_545
Br3 Zn2 2.534188 1_565
Br4 Zn2 2.534188 1_655
Br5 Zn3 2.534196 1_455
Br6 Zn0 2.402747 1_555
Br6 Zn3 2.524268 1_445
Br7 Zn1 2.402747 1_555
Br7 Zn2 2.524268 1_665
Br8 O7 1.787295 1_555
Br8 Zn0 2.549426 1_555
Br9 O6 1.787295 1_555
Br9 Zn1 2.549426 1_555
Br10 O9 1.787295 1_555
Br10 Zn1 2.549426 1_555
Br11 O8 1.787295 1_555
Br11 Zn0 2.549426 1_555
O0 Zn2 2.024558 1_555
O1 Zn3 2.024558 1_555
O10 O4 1.332130 1_555
O10 O3 1.332130 1_555
O11 O5 1.332130 1_555
O11 O2 1.332130 1_555
