# generated using pymatgen
data_ScPPt
_symmetry_space_group_name_H-M   'P 1'
_cell_length_a   3.83549843
_cell_length_b   6.68734675
_cell_length_c   7.41015415
_cell_angle_alpha   90.00000000
_cell_angle_beta   90.00000000
_cell_angle_gamma   90.00000000
_symmetry_Int_Tables_number   1
_chemical_formula_structural   ScPPt
_chemical_formula_sum   'Sc4 P4 Pt4'
_cell_volume   190.06532583
_cell_formula_units_Z   4
loop_
 _symmetry_equiv_pos_site_id
 _symmetry_equiv_pos_as_xyz
  1  'x, y, z'
loop_
 _atom_site_type_symbol
 _atom_site_label
 _atom_site_symmetry_multiplicity
 _atom_site_fract_x
 _atom_site_fract_y
 _atom_site_fract_z
 _atom_site_occupancy
  Sc  Sc0  1  0.75000000  0.53149439  0.18187914  1
  Sc  Sc1  1  0.25000000  0.96850561  0.68187914  1
  Sc  Sc2  1  0.75000000  0.03149439  0.31812086  1
  Sc  Sc3  1  0.25000000  0.46850561  0.81812086  1
  P  P0  1  0.25000000  0.75699746  0.37454078  1
  P  P1  1  0.25000000  0.25699746  0.12545922  1
  P  P2  1  0.75000000  0.24300254  0.62545922  1
  P  P3  1  0.75000000  0.74300254  0.87454078  1
  Pt  Pt0  1  0.25000000  0.84375375  0.05984268  1
  Pt  Pt1  1  0.25000000  0.34375375  0.44015732  1
  Pt  Pt2  1  0.75000000  0.65624625  0.55984268  1
  Pt  Pt3  1  0.75000000  0.15624625  0.94015732  1
loop_
_geom_bond_atom_site_label_1
_geom_bond_atom_site_label_2
_geom_bond_distance
_geom_bond_site_symmetry_2
P0 Pt0 2.403048 1_555
P0 Pt2 2.452990 1_455
P0 Pt2 2.452990 1_555
P0 Sc1 2.680909 1_555
P0 Sc2 2.687413 1_465
P0 Sc2 2.687413 1_565
P0 Pt1 2.805953 1_555
P0 Sc0 2.826671 1_455
P0 Sc0 2.826671 1_555
P1 Pt1 2.403048 1_555
P1 Pt3 2.452990 1_554
P1 Pt3 2.452990 1_454
P1 Sc3 2.680909 1_554
P1 Sc0 2.687413 1_455
P1 Sc0 2.687413 1_555
P1 Pt0 2.805953 1_545
P1 Sc2 2.826671 1_555
P1 Sc2 2.826671 1_455
P2 Pt3 2.403048 1_555
P2 Pt1 2.452990 1_555
P2 Pt1 2.452990 1_655
P2 Sc2 2.680909 1_555
P2 Sc1 2.687413 1_545
P2 Sc1 2.687413 1_645
P2 Pt2 2.805953 1_555
P2 Sc3 2.826671 1_555
P2 Sc3 2.826671 1_655
P3 Pt2 2.403048 1_555
P3 Pt0 2.452990 1_556
P3 Pt0 2.452990 1_656
P3 Sc0 2.680909 1_556
P3 Sc3 2.687413 1_555
P3 Sc3 2.687413 1_655
P3 Pt3 2.805953 1_565
P3 Sc1 2.826671 1_655
P3 Sc1 2.826671 1_555
Pt0 Sc1 2.922377 1_554
Pt0 Pt3 2.971762 1_464
Pt0 Pt3 2.971762 1_564
Pt0 Sc0 2.975913 1_455
Pt0 Sc0 2.975913 1_555
Pt0 Sc2 2.986126 1_465
Pt0 Sc2 2.986126 1_565
Pt0 Sc3 3.083106 1_554
Pt1 Sc3 2.922377 1_555
Pt1 Pt2 2.971762 1_455
Pt1 Pt2 2.971762 1_555
Pt1 Sc2 2.975913 1_555
Pt1 Sc2 2.975913 1_455
Pt1 Sc0 2.986126 1_455
Pt1 Sc0 2.986126 1_555
Pt1 Sc1 3.083106 1_545
Pt2 Sc0 2.922377 1_555
Pt2 Sc1 2.975913 1_555
Pt2 Sc1 2.975913 1_655
Pt2 Sc3 2.986126 1_655
Pt2 Sc3 2.986126 1_555
Pt2 Sc2 3.083106 1_565
Pt3 Sc2 2.922377 1_556
Pt3 Sc3 2.975913 1_555
Pt3 Sc3 2.975913 1_655
Pt3 Sc1 2.986126 1_645
Pt3 Sc1 2.986126 1_545
Pt3 Sc0 3.083106 1_556
