# generated using pymatgen
data_Li2Ni2SbO6
_symmetry_space_group_name_H-M   'P 1'
_cell_length_a   5.18103368
_cell_length_b   5.18103623
_cell_length_c   10.08950205
_cell_angle_alpha   89.99874564
_cell_angle_beta   90.01148082
_cell_angle_gamma   118.67442138
_symmetry_Int_Tables_number   1
_chemical_formula_structural   Li2Ni2SbO6
_chemical_formula_sum   'Li4 Ni4 Sb2 O12'
_cell_volume   237.61881580
_cell_formula_units_Z   2
loop_
 _symmetry_equiv_pos_site_id
 _symmetry_equiv_pos_as_xyz
  1  'x, y, z'
loop_
 _atom_site_type_symbol
 _atom_site_label
 _atom_site_symmetry_multiplicity
 _atom_site_fract_x
 _atom_site_fract_y
 _atom_site_fract_z
 _atom_site_occupancy
  Li  Li0  1  0.13421400  0.63261600  0.74991400  1
  Li  Li1  1  0.36750500  0.86599800  0.25011400  1
  Li  Li2  1  0.63422800  0.13645900  0.74992000  1
  Li  Li3  1  0.86419700  0.36565900  0.25008000  1
  Ni  Ni0  1  0.16899100  0.83138100  0.49999900  1
  Ni  Ni1  1  0.33097100  0.66854600  0.99997400  1
  Ni  Ni2  1  0.66088700  0.33850700  0.00001800  1
  Ni  Ni3  1  0.83899100  0.16111200  0.50004700  1
  Sb  Sb0  1  0.99255100  0.00714000  0.00004200  1
  Sb  Sb1  1  0.50745400  0.49288700  0.49998800  1
  O  O0  1  0.02972700  0.68753600  0.10656000  1
  O  O1  1  0.97969700  0.31874600  0.88587900  1
  O  O2  1  0.18798200  0.53016600  0.39342800  1
  O  O3  1  0.47026900  0.81227100  0.60659900  1
  O  O4  1  0.18215100  0.15571900  0.59854600  1
  O  O5  1  0.31791200  0.34426700  0.09849000  1
  O  O6  1  0.65532400  0.68169000  0.90143700  1
  O  O7  1  0.31207700  0.97009500  0.89334100  1
  O  O8  1  0.84456700  0.81824000  0.40150900  1
  O  O9  1  0.52037100  0.18132200  0.38590300  1
  O  O10  1  0.81905500  0.47985900  0.61411200  1
  O  O11  1  0.68087500  0.01978300  0.11409900  1
loop_
_geom_bond_atom_site_label_1
_geom_bond_atom_site_label_2
_geom_bond_distance
_geom_bond_site_symmetry_2
Li0 O1 1.979451 1_455
Li0 O10 1.982152 1_455
Li0 O3 2.105802 1_555
Li0 O7 2.110412 1_555
Li1 O11 1.978265 1_565
Li1 O9 1.982734 1_565
Li1 O2 2.104931 1_555
Li1 O0 2.112245 1_555
Li2 O7 2.059853 1_545
Li2 O3 2.064982 1_545
Li2 O10 2.079757 1_555
Li2 O1 2.086672 1_555
Li3 O0 2.059439 1_655
Li3 O2 2.063821 1_655
Li3 O9 2.081254 1_555
Li3 O11 2.088517 1_555
Ni0 O8 1.925325 1_455
Ni0 O4 1.925389 1_565
Ni0 O2 1.936183 1_555
Ni0 O3 1.936681 1_555
Ni0 O9 2.181703 1_565
Ni0 O10 2.182102 1_455
Ni1 O5 1.925143 1_556
Ni1 O6 1.925596 1_555
Ni1 O0 1.936534 1_556
Ni1 O7 1.937688 1_555
Ni1 O1 2.180801 1_455
Ni1 O11 2.181110 1_566
Ni2 O5 2.048708 1_555
Ni2 O6 2.049550 1_554
Ni2 O11 2.055824 1_555
Ni2 O1 2.056226 1_554
Ni2 O7 2.180991 1_544
Ni2 O0 2.181831 1_655
Ni3 O8 2.048003 1_545
Ni3 O4 2.048513 1_655
Ni3 O10 2.055778 1_555
Ni3 O9 2.056080 1_555
Ni3 O3 2.181529 1_545
Ni3 O2 2.182991 1_655
O0 Sb0 2.059116 1_465
O1 Sb0 2.010144 1_556
O2 Sb1 2.058876 1_555
O3 Sb1 2.058739 1_555
O4 Sb1 2.013993 1_555
O5 Sb0 2.013177 1_455
O6 Sb0 2.014387 1_566
O7 Sb0 2.059626 1_466
O8 Sb1 2.013582 1_555
O9 Sb1 2.009712 1_555
O10 Sb1 2.010116 1_555
O11 Sb0 2.009585 1_555
