# generated using pymatgen
data_Cs3GeTe3
_symmetry_space_group_name_H-M   'P 1'
_cell_length_a   11.29156550
_cell_length_b   11.29125502
_cell_length_c   10.32095740
_cell_angle_alpha   84.93446083
_cell_angle_beta   84.93561419
_cell_angle_gamma   80.14734363
_symmetry_Int_Tables_number   1
_chemical_formula_structural   Cs3GeTe3
_chemical_formula_sum   'Cs12 Ge4 Te12'
_cell_volume   1287.81489136
_cell_formula_units_Z   4
loop_
 _symmetry_equiv_pos_site_id
 _symmetry_equiv_pos_as_xyz
  1  'x, y, z'
loop_
 _atom_site_type_symbol
 _atom_site_label
 _atom_site_symmetry_multiplicity
 _atom_site_fract_x
 _atom_site_fract_y
 _atom_site_fract_z
 _atom_site_occupancy
  Cs  Cs0  1  0.39720618  0.60278927  0.75000055  1
  Cs  Cs1  1  0.60279062  0.39720898  0.25000237  1
  Cs  Cs2  1  0.75681017  0.80998805  0.68726326  1
  Cs  Cs3  1  0.19001683  0.24319200  0.81274298  1
  Cs  Cs4  1  0.24319328  0.19001629  0.31274525  1
  Cs  Cs5  1  0.80998297  0.75681214  0.18726485  1
  Cs  Cs6  1  0.08285632  0.91714807  0.75000755  1
  Cs  Cs7  1  0.91715022  0.08285189  0.25000293  1
  Cs  Cs8  1  0.40082755  0.78374533  0.37145195  1
  Cs  Cs9  1  0.21625285  0.59917513  0.12855596  1
  Cs  Cs10  1  0.59917845  0.21625644  0.62855487  1
  Cs  Cs11  1  0.78374161  0.40082536  0.87145311  1
  Ge  Ge0  1  0.43951230  0.92475420  0.96073221  1
  Ge  Ge1  1  0.07524601  0.56049828  0.53925366  1
  Ge  Ge2  1  0.56049346  0.07524965  0.03927478  1
  Ge  Ge3  1  0.92474820  0.43950550  0.46073724  1
  Te  Te0  1  0.42237394  0.95444118  0.70796584  1
  Te  Te1  1  0.04553869  0.57761198  0.79201709  1
  Te  Te2  1  0.57761560  0.04557811  0.29202912  1
  Te  Te3  1  0.95441637  0.42234826  0.20798356  1
  Te  Te4  1  0.70407984  0.54566196  0.52203005  1
  Te  Te5  1  0.45433287  0.29591130  0.97797525  1
  Te  Te6  1  0.29589883  0.45431955  0.47798605  1
  Te  Te7  1  0.54567573  0.70407135  0.02198919  1
  Te  Te8  1  0.22372027  0.95092476  0.07477207  1
  Te  Te9  1  0.04916267  0.77629463  0.42521965  1
  Te  Te10  1  0.77628574  0.04911581  0.92521812  1
  Te  Te11  1  0.95089241  0.22370751  0.57476948  1
loop_
_geom_bond_atom_site_label_1
_geom_bond_atom_site_label_2
_geom_bond_distance
_geom_bond_site_symmetry_2
Cs0 Te7 3.748666 1_556
Cs0 Te6 3.749008 1_555
Cs0 Te5 4.002761 1_555
Cs0 Te4 4.002822 1_555
Cs0 Te0 4.011829 1_555
Cs0 Te1 4.012141 1_555
Cs1 Te4 3.748921 1_555
Cs1 Te5 3.748993 1_554
Cs1 Te7 4.002822 1_555
Cs1 Te6 4.003043 1_555
Cs1 Te3 4.011574 1_555
Cs1 Te2 4.011611 1_555
Cs2 Te4 3.722457 1_555
Cs2 Te0 3.844174 1_555
Cs2 Te10 3.852239 1_565
Cs2 Te1 3.984479 1_655
Cs2 Te9 4.065994 1_655
Cs2 Te7 4.223843 1_556
Cs3 Te5 3.722355 1_555
Cs3 Te1 3.843995 1_555
Cs3 Te11 3.852393 1_455
Cs3 Te0 3.984628 1_545
Cs3 Te8 4.065080 1_546
Cs3 Te6 4.223874 1_555
Cs4 Te6 3.722181 1_555
Cs4 Te2 3.843989 1_555
Cs4 Te8 3.852052 1_545
Cs4 Te3 3.984655 1_455
Cs4 Te11 4.065444 1_455
Cs4 Te5 4.224138 1_554
Cs5 Te7 3.722594 1_555
Cs5 Te3 3.844311 1_555
Cs5 Te9 3.852730 1_655
Cs5 Te2 3.984772 1_565
Cs5 Te10 4.065492 1_564
Cs5 Te4 4.224149 1_555
Cs6 Te11 3.883058 1_465
Cs6 Te10 3.883158 1_465
Cs6 Te9 3.909548 1_555
Cs6 Te8 3.909615 1_556
Cs6 Te0 3.910147 1_555
Cs6 Te1 3.910313 1_555
Cs7 Te9 3.883095 1_645
Cs7 Te8 3.883117 1_645
Cs7 Te11 3.909494 1_555
Cs7 Te10 3.909696 1_554
Cs7 Te3 3.909717 1_555
Cs7 Te2 3.910276 1_555
Cs8 Te2 3.834071 1_565
Cs8 Te7 3.939703 1_555
Cs8 Te8 3.963207 1_555
Cs8 Te9 3.974883 1_555
Cs8 Te6 4.123639 1_555
Cs8 Te0 4.162746 1_555
Cs8 Te4 4.291688 1_555
Cs9 Te3 3.834427 1_455
Cs9 Te6 3.939295 1_555
Cs9 Te9 3.962871 1_555
Cs9 Te8 3.975755 1_555
Cs9 Te7 4.123604 1_555
Cs9 Te1 4.163125 1_554
Cs9 Te5 4.291785 1_554
Cs10 Te0 3.834011 1_545
Cs10 Te5 3.939250 1_555
Cs10 Te10 3.962933 1_555
Cs10 Te11 3.975442 1_555
Cs10 Te4 4.123282 1_555
Cs10 Te2 4.162784 1_555
Cs10 Te6 4.291770 1_555
Cs11 Te1 3.833773 1_655
Cs11 Te4 3.939209 1_555
Cs11 Te11 3.963241 1_555
Cs11 Te10 3.975273 1_555
Cs11 Te5 4.123466 1_555
Cs11 Te3 4.162709 1_556
Cs11 Te7 4.291393 1_556
Ge0 Ge2 2.577599 1_566
Ge0 Te8 2.592005 1_556
Ge0 Te0 2.620708 1_555
Ge0 Te7 2.622799 1_556
Ge1 Ge3 2.577604 1_455
Ge1 Te9 2.591948 1_555
Ge1 Te1 2.620655 1_555
Ge1 Te6 2.622653 1_555
Ge2 Te10 2.592076 1_554
Ge2 Te2 2.620554 1_555
Ge2 Te5 2.622672 1_554
Ge3 Te11 2.591952 1_555
Ge3 Te3 2.620612 1_555
Ge3 Te4 2.622774 1_555
