# generated using pymatgen
data_La2Sn3
_symmetry_space_group_name_H-M   'P 1'
_cell_length_a   6.57130857
_cell_length_b   8.74038983
_cell_length_c   11.38530542
_cell_angle_alpha   107.49334054
_cell_angle_beta   96.83456524
_cell_angle_gamma   99.91085482
_symmetry_Int_Tables_number   1
_chemical_formula_structural   La2Sn3
_chemical_formula_sum   'La8 Sn12'
_cell_volume   604.14356555
_cell_formula_units_Z   4
loop_
 _symmetry_equiv_pos_site_id
 _symmetry_equiv_pos_as_xyz
  1  'x, y, z'
loop_
 _atom_site_type_symbol
 _atom_site_label
 _atom_site_symmetry_multiplicity
 _atom_site_fract_x
 _atom_site_fract_y
 _atom_site_fract_z
 _atom_site_occupancy
  La  La0  1  0.32744223  0.03571478  0.74490977  1
  La  La1  1  0.67255777  0.96428522  0.25509023  1
  La  La2  1  0.95820658  0.25419344  0.05242859  1
  La  La3  1  0.04179342  0.74580656  0.94757141  1
  La  La4  1  0.55790667  0.43039075  0.33520735  1
  La  La5  1  0.44209333  0.56960925  0.66479265  1
  La  La6  1  0.13041848  0.74909440  0.37889230  1
  La  La7  1  0.86958152  0.25090560  0.62110770  1
  Sn  Sn0  1  0.05172328  0.34936429  0.38043730  1
  Sn  Sn1  1  0.94827672  0.65063571  0.61956270  1
  Sn  Sn2  1  0.34913559  0.16491264  0.49478307  1
  Sn  Sn3  1  0.65086441  0.83508736  0.50521693  1
  Sn  Sn4  1  0.43707048  0.16212319  0.05299988  1
  Sn  Sn5  1  0.56292952  0.83787681  0.94700012  1
  Sn  Sn6  1  0.33182190  0.59918225  0.13421128  1
  Sn  Sn7  1  0.66817810  0.40081775  0.86578872  1
  Sn  Sn8  1  0.22506278  0.40703426  0.86562902  1
  Sn  Sn9  1  0.77493722  0.59296574  0.13437098  1
  Sn  Sn10  1  0.18179756  0.04444930  0.22377180  1
  Sn  Sn11  1  0.81820244  0.95555070  0.77622820  1
loop_
_geom_bond_atom_site_label_1
_geom_bond_atom_site_label_2
_geom_bond_distance
_geom_bond_site_symmetry_2
La0 Sn4 3.292159 1_556
La0 Sn8 3.341371 1_555
La0 Sn7 3.355233 1_555
La0 Sn2 3.373398 1_555
La0 Sn11 3.382803 1_445
La0 Sn11 3.416523 1_545
La0 Sn1 3.598922 1_445
La0 Sn5 3.625499 1_545
La0 Sn3 3.850400 1_545
La1 Sn5 3.292159 1_554
La1 Sn9 3.341371 1_555
La1 Sn6 3.355233 1_555
La1 Sn3 3.373398 1_555
La1 Sn10 3.382803 1_665
La1 Sn10 3.416523 1_565
La1 Sn0 3.598922 1_665
La1 Sn4 3.625499 1_565
La1 Sn2 3.850400 1_565
La2 Sn9 3.304918 1_555
La2 Sn11 3.331449 1_544
La2 Sn8 3.342475 1_654
La2 Sn6 3.347622 1_655
La2 Sn7 3.362171 1_554
La2 Sn4 3.379307 1_655
La2 Sn4 3.381561 1_555
La2 Sn10 3.423483 1_655
La2 Sn0 3.525079 1_655
La2 Sn5 3.847976 1_544
La3 Sn8 3.304918 1_555
La3 Sn10 3.331449 1_566
La3 Sn9 3.342475 1_456
La3 Sn7 3.347622 1_455
La3 Sn6 3.362171 1_556
La3 Sn5 3.379307 1_455
La3 Sn5 3.381561 1_555
La3 Sn11 3.423483 1_455
La3 Sn1 3.525079 1_455
La3 Sn4 3.847976 1_566
La4 Sn4 3.267194 1_555
La4 Sn9 3.363556 1_555
La4 Sn3 3.389723 1_555
La4 Sn6 3.405218 1_555
La4 Sn0 3.412762 1_555
La4 Sn0 3.451017 1_655
La4 Sn2 3.549504 1_555
La4 Sn10 3.592764 1_555
La4 Sn1 3.652970 1_555
La4 La5 3.793940 1_555
La5 Sn5 3.267194 1_555
La5 Sn8 3.363556 1_555
La5 Sn2 3.389723 1_555
La5 Sn7 3.405218 1_555
La5 Sn1 3.412762 1_555
La5 Sn1 3.451017 1_455
La5 Sn3 3.549504 1_555
La5 Sn11 3.592764 1_555
La5 Sn0 3.652970 1_555
La6 Sn9 3.184382 1_455
La6 Sn6 3.241757 1_555
La6 Sn1 3.394848 1_455
La6 Sn3 3.409471 1_555
La6 Sn2 3.447199 1_565
La6 Sn0 3.448409 1_555
La6 Sn10 3.532725 1_565
La6 Sn3 3.715954 1_455
La7 Sn8 3.184382 1_655
La7 Sn7 3.241757 1_555
La7 Sn0 3.394848 1_655
La7 Sn2 3.409471 1_555
La7 Sn3 3.447199 1_545
La7 Sn1 3.448409 1_555
La7 Sn11 3.532725 1_545
La7 Sn2 3.715954 1_655
Sn0 Sn10 3.050237 1_555
Sn0 Sn2 3.139178 1_555
Sn0 Sn1 3.399237 1_455
Sn1 Sn11 3.050237 1_555
Sn1 Sn3 3.139178 1_555
Sn4 Sn5 3.026627 1_544
Sn6 Sn9 2.921485 1_555
Sn6 Sn8 2.942754 1_554
Sn7 Sn8 2.921485 1_555
Sn7 Sn9 2.942754 1_556
Sn10 Sn2 2.946041 1_555
Sn10 Sn4 3.006095 1_555
Sn11 Sn3 2.946041 1_555
Sn11 Sn5 3.006095 1_555
