# generated using pymatgen
data_LiSc(WO4)2
_symmetry_space_group_name_H-M   'P 1'
_cell_length_a   7.55293847
_cell_length_b   7.55293847
_cell_length_c   5.07471051
_cell_angle_alpha   89.16680683
_cell_angle_beta   89.16680683
_cell_angle_gamma   100.43242528
_symmetry_Int_Tables_number   1
_chemical_formula_structural   LiSc(WO4)2
_chemical_formula_sum   'Li2 Sc2 W4 O16'
_cell_volume   284.63725389
_cell_formula_units_Z   2
loop_
 _symmetry_equiv_pos_site_id
 _symmetry_equiv_pos_as_xyz
  1  'x, y, z'
loop_
 _atom_site_type_symbol
 _atom_site_label
 _atom_site_symmetry_multiplicity
 _atom_site_fract_x
 _atom_site_fract_y
 _atom_site_fract_z
 _atom_site_occupancy
  Li  Li0  1  0.33288100  0.66711900  0.75000000  1
  Li  Li1  1  0.66711900  0.33288100  0.25000000  1
  Sc  Sc0  1  0.83184500  0.16815500  0.75000000  1
  Sc  Sc1  1  0.16815500  0.83184500  0.25000000  1
  W  W0  1  0.33944500  0.16696900  0.75265400  1
  W  W1  1  0.66055500  0.83303100  0.24734600  1
  W  W2  1  0.83303100  0.66055500  0.74734600  1
  W  W3  1  0.16696900  0.33944500  0.25265400  1
  O  O0  1  0.69565900  0.06119900  0.09669800  1
  O  O1  1  0.30434100  0.93880100  0.90330200  1
  O  O2  1  0.93880100  0.30434100  0.40330200  1
  O  O3  1  0.06119900  0.69565900  0.59669800  1
  O  O4  1  0.80258000  0.91611900  0.56492400  1
  O  O5  1  0.19742000  0.08388100  0.43507600  1
  O  O6  1  0.08388100  0.19742000  0.93507600  1
  O  O7  1  0.91611900  0.80258000  0.06492400  1
  O  O8  1  0.56696200  0.18713000  0.61319600  1
  O  O9  1  0.43303800  0.81287000  0.38680400  1
  O  O10  1  0.81287000  0.43303800  0.88680400  1
  O  O11  1  0.18713000  0.56696200  0.11319600  1
  O  O12  1  0.59590900  0.69843100  0.93544100  1
  O  O13  1  0.40409100  0.30156900  0.06455900  1
  O  O14  1  0.30156900  0.40409100  0.56455900  1
  O  O15  1  0.69843100  0.59590900  0.43544100  1
loop_
_geom_bond_atom_site_label_1
_geom_bond_atom_site_label_2
_geom_bond_distance
_geom_bond_site_symmetry_2
Li0 O14 2.186077 1_555
Li0 O12 2.186077 1_555
Li0 O9 2.186333 1_555
Li0 O11 2.186333 1_556
Li0 O3 2.250362 1_555
Li0 O1 2.250362 1_555
Li1 O13 2.186077 1_555
Li1 O15 2.186077 1_555
Li1 O8 2.186333 1_555
Li1 O10 2.186333 1_554
Li1 O0 2.250362 1_555
Li1 O2 2.250362 1_555
O0 W1 1.847961 1_545
O0 Sc0 2.100283 1_554
O1 W0 1.847961 1_565
O1 Sc1 2.100283 1_556
O2 W3 1.847961 1_655
O2 Sc0 2.100283 1_555
O3 W2 1.847961 1_455
O3 Sc1 2.100283 1_555
O4 W1 1.994425 1_555
O4 Sc0 2.111956 1_565
O4 W2 2.179631 1_555
O5 W0 1.994425 1_555
O5 Sc1 2.111956 1_545
O5 W3 2.179631 1_555
O6 W3 1.994425 1_556
O6 Sc0 2.111956 1_455
O6 W0 2.179631 1_555
O7 W2 1.994425 1_554
O7 Sc1 2.111956 1_655
O7 W1 2.179631 1_555
O8 W0 1.828591 1_555
O8 Sc0 2.155558 1_555
O9 W1 1.828591 1_555
O9 Sc1 2.155558 1_555
O10 W2 1.828591 1_555
O10 Sc0 2.155558 1_555
O11 W3 1.828591 1_555
O11 Sc1 2.155558 1_555
O12 W1 1.914885 1_556
O12 W2 2.084299 1_555
O13 W0 1.914885 1_554
O13 W3 2.084299 1_555
O14 W3 1.914885 1_555
O14 W0 2.084299 1_555
O15 W2 1.914885 1_555
O15 W1 2.084299 1_555
