# generated using pymatgen
data_ErSnAu
_symmetry_space_group_name_H-M   'P 1'
_cell_length_a   4.58803616
_cell_length_b   4.58803591
_cell_length_c   7.36788232
_cell_angle_alpha   90.00000000
_cell_angle_beta   90.00000000
_cell_angle_gamma   120.00000180
_symmetry_Int_Tables_number   1
_chemical_formula_structural   ErSnAu
_chemical_formula_sum   'Er2 Sn2 Au2'
_cell_volume   134.31575111
_cell_formula_units_Z   2
loop_
 _symmetry_equiv_pos_site_id
 _symmetry_equiv_pos_as_xyz
  1  'x, y, z'
loop_
 _atom_site_type_symbol
 _atom_site_label
 _atom_site_symmetry_multiplicity
 _atom_site_fract_x
 _atom_site_fract_y
 _atom_site_fract_z
 _atom_site_occupancy
  Er  Er0  1  -0.00000000  -0.00000000  0.47819445  1
  Er  Er1  1  0.00000000  -0.00000000  0.97819445  1
  Sn  Sn0  1  0.33333300  0.66666700  0.70676460  1
  Sn  Sn1  1  0.66666700  0.33333300  0.20676460  1
  Au  Au0  1  0.66666700  0.33333300  0.81504095  1
  Au  Au1  1  0.33333300  0.66666700  0.31504095  1
loop_
_geom_bond_atom_site_label_1
_geom_bond_atom_site_label_2
_geom_bond_distance
_geom_bond_site_symmetry_2
Er0 Sn0 3.138916 1_545
Er0 Sn0 3.138920 1_555
Er0 Sn0 3.138920 1_445
Er0 Sn1 3.319056 1_455
Er0 Sn1 3.319059 1_445
Er0 Sn1 3.319059 1_555
Er1 Sn1 3.138916 1_456
Er1 Sn1 3.138920 1_446
Er1 Sn1 3.138920 1_556
Er1 Sn0 3.319056 1_545
Er1 Sn0 3.319059 1_555
Er1 Sn0 3.319059 1_445
Au0 Sn0 2.766425 1_545
Au0 Sn0 2.766426 1_655
Au0 Sn0 2.766433 1_555
Au0 Sn1 2.886174 1_556
Au0 Er1 2.908902 1_655
Au0 Er1 2.908906 1_665
Au0 Er1 2.908906 1_555
Au0 Er0 3.629908 1_655
Au0 Er0 3.629911 1_665
Au0 Er0 3.629911 1_555
Au1 Sn1 2.766425 1_565
Au1 Sn1 2.766426 1_455
Au1 Sn1 2.766433 1_555
Au1 Sn0 2.886174 1_555
Au1 Er0 2.908902 1_565
Au1 Er0 2.908906 1_555
Au1 Er0 2.908906 1_665
Au1 Er1 3.629908 1_564
Au1 Er1 3.629911 1_554
Au1 Er1 3.629911 1_664
