# generated using pymatgen
data_TbCu4Pd
_symmetry_space_group_name_H-M   'P 1'
_cell_length_a   4.95343775
_cell_length_b   4.95343775
_cell_length_c   4.95343775
_cell_angle_alpha   60.00000000
_cell_angle_beta   60.00000000
_cell_angle_gamma   60.00000000
_symmetry_Int_Tables_number   1
_chemical_formula_structural   TbCu4Pd
_chemical_formula_sum   'Tb1 Cu4 Pd1'
_cell_volume   85.94193540
_cell_formula_units_Z   1
loop_
 _symmetry_equiv_pos_site_id
 _symmetry_equiv_pos_as_xyz
  1  'x, y, z'
loop_
 _atom_site_type_symbol
 _atom_site_label
 _atom_site_symmetry_multiplicity
 _atom_site_fract_x
 _atom_site_fract_y
 _atom_site_fract_z
 _atom_site_occupancy
  Tb  Tb0  1  0.25000000  0.25000000  0.25000000  1
  Cu  Cu0  1  0.62608551  0.62608551  0.62608551  1
  Cu  Cu1  1  0.62608551  0.62608551  0.12174448  1
  Cu  Cu2  1  0.62608551  0.12174448  0.62608551  1
  Cu  Cu3  1  0.12174448  0.62608551  0.62608551  1
  Pd  Pd0  1  -0.00000000  0.00000000  -0.00000000  1
loop_
_geom_bond_atom_site_label_1
_geom_bond_atom_site_label_2
_geom_bond_distance
_geom_bond_site_symmetry_2
Cu0 Cu1 2.455216 1_556
Cu0 Cu3 2.455216 1_655
Cu0 Cu2 2.455216 1_565
Cu0 Cu1 2.498222 1_555
Cu0 Cu2 2.498222 1_555
Cu0 Cu3 2.498222 1_555
Cu0 Pd0 2.901947 1_566
Cu0 Pd0 2.901947 1_656
Cu0 Pd0 2.901947 1_665
Cu0 Tb0 2.906532 1_655
Cu0 Tb0 2.906532 1_556
Cu0 Tb0 2.906532 1_565
Cu1 Cu2 2.455216 1_564
Cu1 Cu3 2.455216 1_654
Cu1 Cu2 2.498222 1_555
Cu1 Cu3 2.498222 1_555
Cu1 Pd0 2.901944 1_665
Cu1 Pd0 2.901949 1_565
Cu1 Pd0 2.901949 1_655
Cu1 Tb0 2.906530 1_565
Cu1 Tb0 2.906530 1_655
Cu1 Tb0 2.906534 1_555
Cu2 Cu3 2.455216 1_645
Cu2 Cu3 2.498222 1_555
Cu2 Pd0 2.901944 1_656
Cu2 Pd0 2.901949 1_556
Cu2 Pd0 2.901949 1_655
Cu2 Tb0 2.906530 1_556
Cu2 Tb0 2.906530 1_655
Cu2 Tb0 2.906534 1_555
Cu3 Pd0 2.901944 1_566
Cu3 Pd0 2.901949 1_556
Cu3 Pd0 2.901949 1_565
Cu3 Tb0 2.906530 1_556
Cu3 Tb0 2.906530 1_565
Cu3 Tb0 2.906534 1_555
Pd0 Tb0 3.033349 1_555
Pd0 Tb0 3.033349 1_545
Pd0 Tb0 3.033349 1_554
Pd0 Tb0 3.033349 1_455
