# generated using pymatgen
data_Rb2Ag2Sn(PSe3)3
_symmetry_space_group_name_H-M   'P 1'
_cell_length_a   7.85750900
_cell_length_b   11.43784400
_cell_length_c   24.22467739
_cell_angle_alpha   66.50072099
_cell_angle_beta   90.00000000
_cell_angle_gamma   90.00000000
_symmetry_Int_Tables_number   1
_chemical_formula_structural   Rb2Ag2Sn(PSe3)3
_chemical_formula_sum   'Rb8 Ag8 Sn4 P12 Se36'
_cell_volume   1996.58231763
_cell_formula_units_Z   4
loop_
 _symmetry_equiv_pos_site_id
 _symmetry_equiv_pos_as_xyz
  1  'x, y, z'
loop_
 _atom_site_type_symbol
 _atom_site_label
 _atom_site_symmetry_multiplicity
 _atom_site_fract_x
 _atom_site_fract_y
 _atom_site_fract_z
 _atom_site_occupancy
  Rb  Rb0  1  0.06548100  0.07811100  0.17683000  1
  Rb  Rb1  1  0.43451900  0.07811100  0.67683000  1
  Rb  Rb2  1  0.93451900  0.92188900  0.82317000  1
  Rb  Rb3  1  0.56548100  0.92188900  0.32317000  1
  Rb  Rb4  1  0.93225600  0.25882900  0.49576900  1
  Rb  Rb5  1  0.56774400  0.25882900  0.99576900  1
  Rb  Rb6  1  0.06774400  0.74117100  0.50423100  1
  Rb  Rb7  1  0.43225600  0.74117100  0.00423100  1
  Ag  Ag0  1  0.71693100  0.55649900  0.24827900  1
  Ag  Ag1  1  0.78306900  0.55649900  0.74827900  1
  Ag  Ag2  1  0.28306900  0.44350100  0.75172100  1
  Ag  Ag3  1  0.21693100  0.44350100  0.25172100  1
  Ag  Ag4  1  0.42647300  0.57140800  0.34741300  1
  Ag  Ag5  1  0.07352700  0.57140800  0.84741300  1
  Ag  Ag6  1  0.57352700  0.42859200  0.65258700  1
  Ag  Ag7  1  0.92647300  0.42859200  0.15258700  1
  Sn  Sn0  1  0.44210000  0.29403400  0.38655000  1
  Sn  Sn1  1  0.05790000  0.29403400  0.88655000  1
  Sn  Sn2  1  0.55790000  0.70596600  0.61345000  1
  Sn  Sn3  1  0.94210000  0.70596600  0.11345000  1
  P  P0  1  0.11422400  0.10237300  0.34333300  1
  P  P1  1  0.38577600  0.10237300  0.84333300  1
  P  P2  1  0.88577600  0.89762700  0.65666700  1
  P  P3  1  0.61422400  0.89762700  0.15666700  1
  P  P4  1  0.87481300  0.23025100  0.32333400  1
  P  P5  1  0.62518700  0.23025100  0.82333400  1
  P  P6  1  0.12518700  0.76974900  0.67666600  1
  P  P7  1  0.37481300  0.76974900  0.17666600  1
  P  P8  1  0.61880700  0.56472600  0.49079800  1
  P  P9  1  0.88119300  0.56472600  0.99079800  1
  P  P10  1  0.38119300  0.43527400  0.50920200  1
  P  P11  1  0.11880700  0.43527400  0.00920200  1
  Se  Se0  1  0.03348700  0.91895000  0.34819600  1
  Se  Se1  1  0.46651300  0.91895000  0.84819600  1
  Se  Se2  1  0.96651300  0.08105000  0.65180400  1
  Se  Se3  1  0.53348700  0.08105000  0.15180400  1
  Se  Se4  1  0.21197400  0.09736200  0.43211700  1
  Se  Se5  1  0.28802600  0.09736200  0.93211700  1
  Se  Se6  1  0.78802600  0.90263800  0.56788300  1
  Se  Se7  1  0.71197400  0.90263800  0.06788300  1
  Se  Se8  1  0.80398500  0.79798900  0.22687500  1
  Se  Se9  1  0.69601500  0.79798900  0.72687500  1
  Se  Se10  1  0.19601500  0.20201100  0.77312500  1
  Se  Se11  1  0.30398500  0.20201100  0.27312500  1
  Se  Se12  1  0.26248300  0.75867400  0.26118500  1
  Se  Se13  1  0.23751700  0.75867400  0.76118500  1
  Se  Se14  1  0.73751700  0.24132600  0.73881500  1
  Se  Se15  1  0.76248300  0.24132600  0.23881500  1
  Se  Se16  1  0.95350400  0.41940900  0.32318000  1
  Se  Se17  1  0.54649600  0.41940900  0.82318000  1
  Se  Se18  1  0.04649600  0.58059100  0.67682000  1
  Se  Se19  1  0.45350400  0.58059100  0.17682000  1
  Se  Se20  1  0.70887100  0.12146000  0.40293600  1
  Se  Se21  1  0.79112900  0.12146000  0.90293600  1
  Se  Se22  1  0.29112900  0.87854000  0.59706400  1
  Se  Se23  1  0.20887100  0.87854000  0.09706400  1
  Se  Se24  1  0.71704000  0.58947000  0.40170000  1
  Se  Se25  1  0.78296000  0.58947000  0.90170000  1
  Se  Se26  1  0.28296000  0.41053000  0.59830000  1
  Se  Se27  1  0.21704000  0.41053000  0.09830000  1
  Se  Se28  1  0.19689600  0.52783700  0.43736400  1
  Se  Se29  1  0.30310400  0.52783700  0.93736400  1
  Se  Se30  1  0.80310400  0.47216300  0.56263600  1
  Se  Se31  1  0.69689600  0.47216300  0.06263600  1
  Se  Se32  1  0.47583600  0.24808000  0.51014400  1
  Se  Se33  1  0.02416400  0.24808000  0.01014400  1
  Se  Se34  1  0.52416400  0.75192000  0.48985600  1
  Se  Se35  1  0.97583600  0.75192000  0.98985600  1
loop_
_geom_bond_atom_site_label_1
_geom_bond_atom_site_label_2
_geom_bond_distance
_geom_bond_site_symmetry_2
Rb0 Se8 3.586015 1_445
Rb0 Se11 3.687577 1_555
Rb0 Se15 3.693705 1_455
Rb0 Se27 3.704776 1_555
Rb0 Se23 3.705574 1_545
Rb0 Se3 3.724970 1_555
Rb0 Se33 3.732210 1_555
Rb0 Se12 3.737263 1_545
Rb0 Se0 3.818865 1_545
Rb1 Se9 3.586015 1_545
Rb1 Se10 3.687577 1_555
Rb1 Se14 3.693705 1_555
Rb1 Se26 3.704776 1_555
Rb1 Se22 3.705574 1_545
Rb1 Se2 3.724970 1_455
Rb1 Se32 3.732210 1_555
Rb1 Se13 3.737263 1_545
Rb1 Se1 3.818865 1_545
Rb2 Se10 3.586015 1_665
Rb2 Se9 3.687577 1_555
Rb2 Se13 3.693705 1_655
Rb2 Se25 3.704776 1_555
Rb2 Se21 3.705574 1_565
Rb2 Se1 3.724970 1_555
Rb2 Se35 3.732210 1_555
Rb2 Se14 3.737263 1_565
Rb2 Se2 3.818865 1_565
Rb3 Se11 3.586015 1_565
Rb3 Se8 3.687577 1_555
Rb3 Se12 3.693705 1_555
Rb3 Se24 3.704776 1_555
Rb3 Se20 3.705574 1_565
Rb3 Se0 3.724970 1_655
Rb3 Se34 3.732210 1_555
Rb3 Se15 3.737263 1_565
Rb3 Se3 3.818865 1_565
Rb4 Se28 3.510161 1_655
Rb4 Se2 3.516444 1_555
Rb4 Se30 3.572077 1_555
Rb4 Se4 3.590279 1_655
Rb4 Se32 3.600550 1_555
Rb4 Se20 3.663975 1_555
Rb4 Se16 3.841548 1_555
Rb4 Se6 3.906193 1_545
Rb4 Se24 3.934732 1_555
Rb5 Se29 3.510161 1_555
Rb5 Se3 3.516444 1_556
Rb5 Se31 3.572077 1_556
Rb5 Se5 3.590279 1_555
Rb5 Se33 3.600550 1_656
Rb5 Se21 3.663975 1_555
Rb5 Se17 3.841548 1_555
Rb5 Se7 3.906193 1_546
Rb5 Se25 3.934732 1_555
Rb6 Se30 3.510161 1_455
Rb6 Se0 3.516444 1_555
Rb6 Se28 3.572077 1_555
Rb6 Se6 3.590279 1_455
Rb6 Se34 3.600550 1_555
Rb6 Se22 3.663975 1_555
Rb6 Se18 3.841548 1_555
Rb6 Se4 3.906193 1_565
Rb6 Se26 3.934732 1_555
Rb7 Se31 3.510161 1_555
Rb7 Se1 3.516444 1_554
Rb7 Se29 3.572077 1_554
Rb7 Se7 3.590279 1_555
Rb7 Se35 3.600550 1_454
Rb7 Se23 3.663975 1_555
Rb7 Se19 3.841548 1_555
Rb7 Se5 3.906193 1_564
Rb7 Se27 3.934732 1_555
Ag0 Se16 2.633901 1_555
Ag0 Se19 2.641313 1_555
Ag0 Se8 2.687741 1_555
Ag1 Se17 2.633901 1_555
Ag1 Se18 2.641313 1_655
Ag1 Se9 2.687741 1_555
Ag2 Se18 2.633901 1_555
Ag2 Se17 2.641313 1_555
Ag2 Se10 2.687741 1_555
Ag3 Se19 2.633901 1_555
Ag3 Se16 2.641313 1_455
Ag3 Se11 2.687741 1_555
Ag4 Se12 2.653950 1_555
Ag4 Se24 2.683558 1_555
Ag4 Se28 2.717463 1_555
Ag4 Sn0 2.929231 1_555
Ag5 Se13 2.653950 1_555
Ag5 Se25 2.683558 1_455
Ag5 Se29 2.717463 1_555
Ag5 Sn1 2.929231 1_555
Ag6 Se14 2.653950 1_555
Ag6 Se26 2.683558 1_555
Ag6 Se30 2.717463 1_555
Ag6 Sn2 2.929231 1_555
Ag7 Se15 2.653950 1_555
Ag7 Se27 2.683558 1_655
Ag7 Se31 2.717463 1_555
Ag7 Sn3 2.929231 1_555
P0 Se0 2.149578 1_545
P0 Se11 2.206558 1_555
P0 Se4 2.262896 1_555
P0 P4 2.312525 1_455
P1 Se1 2.149578 1_545
P1 Se10 2.206558 1_555
P1 Se5 2.262896 1_555
P1 P5 2.312525 1_555
P2 Se2 2.149578 1_565
P2 Se9 2.206558 1_555
P2 Se6 2.262896 1_555
P2 P6 2.312525 1_655
P3 Se3 2.149578 1_565
P3 Se8 2.206558 1_555
P3 Se7 2.262896 1_555
P3 P7 2.312525 1_555
P4 Se15 2.186388 1_555
P4 Se20 2.247984 1_555
P4 Se16 2.248751 1_555
P5 Se14 2.186388 1_555
P5 Se21 2.247984 1_555
P5 Se17 2.248751 1_555
P6 Se13 2.186388 1_555
P6 Se22 2.247984 1_555
P6 Se18 2.248751 1_555
P7 Se12 2.186388 1_555
P7 Se23 2.247984 1_555
P7 Se19 2.248751 1_555
P8 Se30 2.185659 1_555
P8 Se24 2.201658 1_555
P8 Se34 2.258069 1_555
P9 Se31 2.185659 1_556
P9 Se25 2.201658 1_555
P9 Se35 2.258069 1_555
P10 Se28 2.185659 1_555
P10 Se26 2.201658 1_555
P10 Se32 2.258069 1_555
P10 P8 2.313127 1_555
P11 Se29 2.185659 1_554
P11 Se27 2.201658 1_555
P11 Se33 2.258069 1_555
P11 P9 2.313127 1_454
Se4 Sn0 2.751032 1_555
Se5 Sn1 2.751032 1_555
Se6 Sn2 2.751032 1_555
Se7 Sn3 2.751032 1_555
Se20 Sn0 2.796923 1_555
Se21 Sn1 2.796923 1_655
Se22 Sn2 2.796923 1_555
Se23 Sn3 2.796923 1_455
Se32 Sn0 2.838262 1_555
Se33 Sn1 2.838262 1_554
Se34 Sn2 2.838262 1_555
Se35 Sn3 2.838262 1_556
