# generated using pymatgen
data_Li(Mo3Se4)2
_symmetry_space_group_name_H-M   'P 1'
_cell_length_a   6.79197726
_cell_length_b   6.79197726
_cell_length_c   6.79197693
_cell_angle_alpha   91.35687059
_cell_angle_beta   91.35687059
_cell_angle_gamma   91.35686941
_symmetry_Int_Tables_number   1
_chemical_formula_structural   Li(Mo3Se4)2
_chemical_formula_sum   'Li1 Mo6 Se8'
_cell_volume   313.05257817
_cell_formula_units_Z   1
loop_
 _symmetry_equiv_pos_site_id
 _symmetry_equiv_pos_as_xyz
  1  'x, y, z'
loop_
 _atom_site_type_symbol
 _atom_site_label
 _atom_site_symmetry_multiplicity
 _atom_site_fract_x
 _atom_site_fract_y
 _atom_site_fract_z
 _atom_site_occupancy
  Li  Li0  1  0.00000000  0.00000000  0.00000000  1
  Mo  Mo0  1  0.76838300  0.58332700  0.44920000  1
  Mo  Mo1  1  0.44920000  0.76838300  0.58332700  1
  Mo  Mo2  1  0.58332700  0.44920000  0.76838300  1
  Mo  Mo3  1  0.23161700  0.41667300  0.55080000  1
  Mo  Mo4  1  0.55080000  0.23161700  0.41667300  1
  Mo  Mo5  1  0.41667300  0.55080000  0.23161700  1
  Se  Se0  1  0.77642900  0.77642900  0.77642900  1
  Se  Se1  1  0.22357100  0.22357100  0.22357100  1
  Se  Se2  1  0.25616100  0.61905200  0.87394900  1
  Se  Se3  1  0.87394900  0.25616100  0.61905200  1
  Se  Se4  1  0.61905200  0.87394900  0.25616100  1
  Se  Se5  1  0.74383900  0.38094800  0.12605100  1
  Se  Se6  1  0.12605100  0.74383900  0.38094800  1
  Se  Se7  1  0.38094800  0.12605100  0.74383900  1
loop_
_geom_bond_atom_site_label_1
_geom_bond_atom_site_label_2
_geom_bond_distance
_geom_bond_site_symmetry_2
Li0 Se0 2.567065 1_444
Li0 Se1 2.567065 1_555
Mo0 Se0 2.552565 1_555
Mo0 Se5 2.561907 1_555
Mo0 Se4 2.607376 1_555
Mo0 Se3 2.634462 1_555
Mo0 Se6 2.693812 1_655
Mo1 Se0 2.552565 1_555
Mo1 Se6 2.561907 1_555
Mo1 Se2 2.607376 1_555
Mo1 Se4 2.634462 1_555
Mo1 Se7 2.693812 1_565
Mo2 Se0 2.552565 1_555
Mo2 Se7 2.561907 1_555
Mo2 Se3 2.607376 1_555
Mo2 Se2 2.634462 1_555
Mo2 Se5 2.693812 1_556
Mo3 Se1 2.552565 1_555
Mo3 Se2 2.561907 1_555
Mo3 Se7 2.607376 1_555
Mo3 Se6 2.634462 1_555
Mo3 Se3 2.693812 1_455
Mo4 Se1 2.552565 1_555
Mo4 Se3 2.561907 1_555
Mo4 Se5 2.607376 1_555
Mo4 Se7 2.634462 1_555
Mo4 Se4 2.693812 1_545
Mo5 Se1 2.552565 1_555
Mo5 Se4 2.561907 1_555
Mo5 Se6 2.607376 1_555
Mo5 Se5 2.634462 1_555
Mo5 Se2 2.693812 1_554
