# generated using pymatgen
data_CaCuP2O7
_symmetry_space_group_name_H-M   'P 1'
_cell_length_a   8.91759800
_cell_length_b   7.43209400
_cell_length_c   9.17603883
_cell_angle_alpha   60.94490587
_cell_angle_beta   90.00000000
_cell_angle_gamma   90.00000000
_symmetry_Int_Tables_number   1
_chemical_formula_structural   CaCuP2O7
_chemical_formula_sum   'Ca4 Cu4 P8 O28'
_cell_volume   531.62064838
_cell_formula_units_Z   4
loop_
 _symmetry_equiv_pos_site_id
 _symmetry_equiv_pos_as_xyz
  1  'x, y, z'
loop_
 _atom_site_type_symbol
 _atom_site_label
 _atom_site_symmetry_multiplicity
 _atom_site_fract_x
 _atom_site_fract_y
 _atom_site_fract_z
 _atom_site_occupancy
  Ca  Ca0  1  0.95566900  0.27262100  0.87114500  1
  Ca  Ca1  1  0.45566900  0.72737900  0.62885500  1
  Ca  Ca2  1  0.54433100  0.27262100  0.37114500  1
  Ca  Ca3  1  0.04433100  0.72737900  0.12885500  1
  Cu  Cu0  1  0.08347500  0.78008200  0.60888200  1
  Cu  Cu1  1  0.91652500  0.21991800  0.39111800  1
  Cu  Cu2  1  0.58347500  0.21991800  0.89111800  1
  Cu  Cu3  1  0.41652500  0.78008200  0.10888200  1
  P  P0  1  0.71856500  0.94738800  0.23459100  1
  P  P1  1  0.24119100  0.48625400  0.96176900  1
  P  P2  1  0.78143500  0.94738800  0.73459100  1
  P  P3  1  0.25880900  0.48625400  0.46176900  1
  P  P4  1  0.21856500  0.05261200  0.26540900  1
  P  P5  1  0.74119100  0.51374600  0.53823100  1
  P  P6  1  0.75880900  0.51374600  0.03823100  1
  P  P7  1  0.28143500  0.05261200  0.76540900  1
  O  O0  1  0.17232500  0.26761400  0.10373700  1
  O  O1  1  0.63757000  0.92842300  0.65457600  1
  O  O2  1  0.86243000  0.92842300  0.15457600  1
  O  O3  1  0.38461000  0.45125700  0.89106600  1
  O  O4  1  0.82767500  0.73238600  0.89626300  1
  O  O5  1  0.07763200  0.01296100  0.37948300  1
  O  O6  1  0.61539000  0.54874300  0.10893400  1
  O  O7  1  0.10309900  0.55241900  0.84242400  1
  O  O8  1  0.24192400  0.61905100  0.54736100  1
  O  O9  1  0.92236800  0.98703900  0.62051700  1
  O  O10  1  0.42236800  0.01296100  0.87948300  1
  O  O11  1  0.77663500  0.10091400  0.79964600  1
  O  O12  1  0.27663500  0.89908600  0.70035400  1
  O  O13  1  0.32767500  0.26761400  0.60373700  1
  O  O14  1  0.57763200  0.98703900  0.12051700  1
  O  O15  1  0.13757000  0.07157700  0.84542400  1
  O  O16  1  0.22336500  0.89908600  0.20035400  1
  O  O17  1  0.89690100  0.44758100  0.15757600  1
  O  O18  1  0.25807600  0.61905100  0.04736100  1
  O  O19  1  0.74192400  0.38094900  0.95263900  1
  O  O20  1  0.88461000  0.54874300  0.60893400  1
  O  O21  1  0.39690100  0.55241900  0.34242400  1
  O  O22  1  0.60309900  0.44758100  0.65757600  1
  O  O23  1  0.36243000  0.07157700  0.34542400  1
  O  O24  1  0.72336500  0.10091400  0.29964600  1
  O  O25  1  0.11539000  0.45125700  0.39106600  1
  O  O26  1  0.75807600  0.38094900  0.45263900  1
  O  O27  1  0.67232500  0.73238600  0.39626300  1
loop_
_geom_bond_atom_site_label_1
_geom_bond_atom_site_label_2
_geom_bond_distance
_geom_bond_site_symmetry_2
Ca0 O15 2.293921 1_655
Ca0 O11 2.328343 1_555
Ca0 O19 2.329237 1_555
Ca0 O7 2.364296 1_655
Ca0 O20 2.367724 1_555
Ca0 O2 2.745390 1_546
Ca0 O0 2.865691 1_656
Ca1 O1 2.293921 1_555
Ca1 O12 2.328343 1_555
Ca1 O8 2.329237 1_555
Ca1 O22 2.364296 1_555
Ca1 O3 2.367724 1_555
Ca1 O23 2.745390 1_565
Ca1 O27 2.865691 1_555
Ca2 O23 2.293921 1_555
Ca2 O24 2.328343 1_555
Ca2 O26 2.329237 1_555
Ca2 O21 2.364296 1_555
Ca2 O6 2.367724 1_555
Ca2 O1 2.745390 1_545
Ca2 O13 2.865691 1_555
Ca3 O2 2.293921 1_455
Ca3 O16 2.328343 1_555
Ca3 O18 2.329237 1_555
Ca3 O17 2.364296 1_455
Ca3 O25 2.367724 1_555
Ca3 O15 2.745390 1_564
Ca3 O4 2.865691 1_454
Cu0 O5 1.972445 1_565
Cu0 O7 1.990988 1_555
Cu0 O8 2.098513 1_555
Cu0 O9 2.144947 1_455
Cu0 O12 2.274841 1_555
Cu0 O20 2.469869 1_455
Cu1 O9 1.972445 1_545
Cu1 O17 1.990988 1_555
Cu1 O26 2.098513 1_555
Cu1 O5 2.144947 1_655
Cu1 O24 2.274841 1_555
Cu1 O25 2.469869 1_655
Cu2 O14 1.972445 1_546
Cu2 O22 1.990988 1_555
Cu2 O19 2.098513 1_555
Cu2 O10 2.144947 1_555
Cu2 O11 2.274841 1_555
Cu2 O3 2.469869 1_555
Cu3 O10 1.972445 1_564
Cu3 O21 1.990988 1_555
Cu3 O18 2.098513 1_555
Cu3 O14 2.144947 1_555
Cu3 O16 2.274841 1_555
Cu3 O6 2.469869 1_555
O0 P4 1.619158 1_555
O0 P1 1.630513 1_554
O1 P2 1.518346 1_555
O2 P0 1.518346 1_555
O3 P1 1.512674 1_555
O4 P2 1.619158 1_555
O4 P6 1.630513 1_556
O5 P4 1.569208 1_555
O6 P6 1.512674 1_555
O7 P1 1.560286 1_555
O8 P3 1.538348 1_555
O9 P2 1.569208 1_555
O10 P7 1.569208 1_555
O11 P2 1.523708 1_545
O12 P7 1.523708 1_565
O13 P7 1.619158 1_555
O13 P3 1.630513 1_555
O14 P0 1.569208 1_555
O15 P7 1.518346 1_555
O16 P4 1.523708 1_565
O17 P6 1.560286 1_555
O18 P1 1.538348 1_554
O19 P6 1.538348 1_556
O20 P5 1.512674 1_555
O21 P3 1.560286 1_555
O22 P5 1.560286 1_555
O23 P4 1.518346 1_555
O24 P0 1.523708 1_545
O25 P3 1.512674 1_555
O26 P5 1.538348 1_555
O27 P0 1.619158 1_555
O27 P5 1.630513 1_555
