# generated using pymatgen
data_LaYb(Mo3S4)4
_symmetry_space_group_name_H-M   'P 1'
_cell_length_a   6.52869600
_cell_length_b   6.53687043
_cell_length_c   13.16261879
_cell_angle_alpha   89.21962136
_cell_angle_beta   88.88833469
_cell_angle_gamma   88.94628040
_symmetry_Int_Tables_number   1
_chemical_formula_structural   LaYb(Mo3S4)4
_chemical_formula_sum   'La1 Yb1 Mo12 S16'
_cell_volume   561.49410480
_cell_formula_units_Z   1
loop_
 _symmetry_equiv_pos_site_id
 _symmetry_equiv_pos_as_xyz
  1  'x, y, z'
loop_
 _atom_site_type_symbol
 _atom_site_label
 _atom_site_symmetry_multiplicity
 _atom_site_fract_x
 _atom_site_fract_y
 _atom_site_fract_z
 _atom_site_occupancy
  La  La0  1  0.00000000  0.00000000  0.00000000  1
  Yb  Yb0  1  0.00000000  0.00000000  0.50000000  1
  Mo  Mo0  1  0.22620100  0.41929700  0.77989400  1
  Mo  Mo1  1  0.22694600  0.41974800  0.28120900  1
  Mo  Mo2  1  0.56023500  0.22754900  0.70953200  1
  Mo  Mo3  1  0.56251900  0.22865400  0.21072500  1
  Mo  Mo4  1  0.41801300  0.56138700  0.61108000  1
  Mo  Mo5  1  0.41814400  0.56287000  0.11225200  1
  Mo  Mo6  1  0.77305400  0.58025200  0.71879100  1
  Mo  Mo7  1  0.77379900  0.58070300  0.22010600  1
  Mo  Mo8  1  0.43748100  0.77134600  0.78927500  1
  Mo  Mo9  1  0.43976500  0.77245100  0.29046800  1
  Mo  Mo10  1  0.58185600  0.43713000  0.88774800  1
  Mo  Mo11  1  0.58198700  0.43861300  0.38892000  1
  S  S0  1  0.74523500  0.37549600  0.56319500  1
  S  S1  1  0.74683900  0.37685100  0.06339500  1
  S  S2  1  0.12659900  0.74673300  0.68729400  1
  S  S3  1  0.12697700  0.74876900  0.18825500  1
  S  S4  1  0.37616800  0.12752200  0.87464000  1
  S  S5  1  0.37605800  0.12767600  0.37410300  1
  S  S6  1  0.25316100  0.62314900  0.93660500  1
  S  S7  1  0.25476500  0.62450400  0.43680500  1
  S  S8  1  0.87302300  0.25123100  0.81174500  1
  S  S9  1  0.87340100  0.25326700  0.31270600  1
  S  S10  1  0.62394200  0.87232400  0.62589700  1
  S  S11  1  0.62383200  0.87247800  0.12536000  1
  S  S12  1  0.24043600  0.24299300  0.62020900  1
  S  S13  1  0.24250900  0.24558000  0.12167800  1
  S  S14  1  0.75749100  0.75442000  0.87832200  1
  S  S15  1  0.75956400  0.75700700  0.37979100  1
loop_
_geom_bond_atom_site_label_1
_geom_bond_atom_site_label_2
_geom_bond_distance
_geom_bond_site_symmetry_2
La0 S14 2.812621 1_444
La0 S13 2.812621 1_555
La0 S11 3.054434 1_445
La0 S4 3.054434 1_554
La0 S1 3.057659 1_455
La0 S6 3.057659 1_544
La0 S8 3.072976 1_454
La0 S3 3.072976 1_545
Mo0 S12 2.410223 1_555
Mo0 S4 2.462837 1_555
Mo0 S6 2.481756 1_555
Mo0 S2 2.529488 1_555
Mo0 S8 2.596639 1_455
Mo1 S13 2.401765 1_555
Mo1 S5 2.449939 1_555
Mo1 S7 2.473262 1_555
Mo1 S3 2.540954 1_555
Mo1 S9 2.593626 1_455
Mo2 S12 2.415779 1_555
Mo2 S0 2.450758 1_555
Mo2 S8 2.475502 1_555
Mo2 S4 2.546282 1_555
Mo2 S10 2.606373 1_545
Mo3 S13 2.415364 1_555
Mo3 S1 2.459350 1_555
Mo3 S9 2.463911 1_555
Mo3 S5 2.536045 1_555
Mo3 S11 2.619766 1_545
Mo4 S12 2.401429 1_555
Mo4 S2 2.443005 1_555
Mo4 S10 2.469481 1_555
Mo4 S0 2.512151 1_555
Mo4 S7 2.573152 1_555
Mo5 S13 2.388934 1_555
Mo5 S3 2.442425 1_555
Mo5 S11 2.459183 1_555
Mo5 S1 2.523698 1_555
Mo5 S6 2.591696 1_554
Mo6 S14 2.401765 1_555
Mo6 S10 2.449939 1_555
Mo6 S0 2.473262 1_555
Mo6 S8 2.540954 1_555
Mo6 S2 2.593626 1_655
Mo7 S15 2.410223 1_555
Mo7 S11 2.462837 1_555
Mo7 S1 2.481756 1_555
Mo7 S9 2.529488 1_555
Mo7 S3 2.596639 1_655
Mo8 S14 2.415364 1_555
Mo8 S6 2.459350 1_555
Mo8 S2 2.463911 1_555
Mo8 S10 2.536045 1_555
Mo8 S4 2.619766 1_565
Mo9 S15 2.415779 1_555
Mo9 S7 2.450758 1_555
Mo9 S3 2.475502 1_555
Mo9 S11 2.546282 1_555
Mo9 S5 2.606373 1_565
Mo10 S14 2.388934 1_555
Mo10 S8 2.442425 1_555
Mo10 S4 2.459183 1_555
Mo10 S6 2.523698 1_555
Mo10 S1 2.591696 1_556
Mo11 S15 2.401429 1_555
Mo11 S9 2.443005 1_555
Mo11 S5 2.469481 1_555
Mo11 S7 2.512151 1_555
Mo11 S0 2.573152 1_555
S0 Yb0 3.055340 1_655
S2 Yb0 3.069077 1_565
S5 Yb0 3.057831 1_555
S7 Yb0 3.055340 1_565
S9 Yb0 3.069077 1_655
S10 Yb0 3.057831 1_665
S12 Yb0 2.783384 1_555
S15 Yb0 2.783384 1_665
