# generated using pymatgen
data_Sc3Si6N11
_symmetry_space_group_name_H-M   'P 1'
_cell_length_a   9.77288989
_cell_length_b   9.77288989
_cell_length_c   4.85348155
_cell_angle_alpha   90.00000000
_cell_angle_beta   90.00000000
_cell_angle_gamma   90.00000000
_symmetry_Int_Tables_number   1
_chemical_formula_structural   Sc3Si6N11
_chemical_formula_sum   'Sc6 Si12 N22'
_cell_volume   463.55299816
_cell_formula_units_Z   2
loop_
 _symmetry_equiv_pos_site_id
 _symmetry_equiv_pos_as_xyz
  1  'x, y, z'
loop_
 _atom_site_type_symbol
 _atom_site_label
 _atom_site_symmetry_multiplicity
 _atom_site_fract_x
 _atom_site_fract_y
 _atom_site_fract_z
 _atom_site_occupancy
  Sc  Sc0  1  0.31081032  0.81081032  0.95692996  1
  Sc  Sc1  1  0.68918968  0.18918968  0.95692996  1
  Sc  Sc2  1  0.18918968  0.31081032  0.95692996  1
  Sc  Sc3  1  0.81081032  0.68918968  0.95692996  1
  Sc  Sc4  1  0.50000000  0.50000000  0.96149317  1
  Sc  Sc5  1  -0.00000000  0.00000000  0.96149317  1
  Si  Si0  1  0.41838709  0.29387770  0.53248131  1
  Si  Si1  1  0.58161291  0.70612230  0.53248131  1
  Si  Si2  1  0.08161291  0.79387770  0.53248131  1
  Si  Si3  1  0.91838709  0.20612230  0.53248131  1
  Si  Si4  1  0.29387770  0.58161291  0.53248131  1
  Si  Si5  1  0.70612230  0.41838709  0.53248131  1
  Si  Si6  1  0.79387770  0.91838709  0.53248131  1
  Si  Si7  1  0.20612230  0.08161291  0.53248131  1
  Si  Si8  1  0.87963443  0.37963443  0.04874028  1
  Si  Si9  1  0.12036557  0.62036557  0.04874028  1
  Si  Si10  1  0.62036557  0.87963443  0.04874028  1
  Si  Si11  1  0.37963443  0.12036557  0.04874028  1
  N  N0  1  0.31763333  0.42245637  0.66966793  1
  N  N1  1  0.68236667  0.57754363  0.66966793  1
  N  N2  1  0.18236667  0.92245637  0.66966793  1
  N  N3  1  0.81763333  0.07754363  0.66966793  1
  N  N4  1  0.42245637  0.68236667  0.66966793  1
  N  N5  1  0.57754363  0.31763333  0.66966793  1
  N  N6  1  0.92245637  0.81763333  0.66966793  1
  N  N7  1  0.07754363  0.18236667  0.66966793  1
  N  N8  1  0.41444999  0.28439644  0.17713929  1
  N  N9  1  0.58555001  0.71560356  0.17713929  1
  N  N10  1  0.08555001  0.78439644  0.17713929  1
  N  N11  1  0.91444999  0.21560356  0.17713929  1
  N  N12  1  0.28439644  0.58555001  0.17713929  1
  N  N13  1  0.71560356  0.41444999  0.17713929  1
  N  N14  1  0.78439644  0.91444999  0.17713929  1
  N  N15  1  0.21560356  0.08555001  0.17713929  1
  N  N16  1  0.84589838  0.34589838  0.69933255  1
  N  N17  1  0.15410162  0.65410162  0.69933255  1
  N  N18  1  0.65410162  0.84589838  0.69933255  1
  N  N19  1  0.34589838  0.15410162  0.69933255  1
  N  N20  1  0.50000000  0.00000000  0.07988412  1
  N  N21  1  -0.00000000  0.50000000  0.07988412  1
loop_
_geom_bond_atom_site_label_1
_geom_bond_atom_site_label_2
_geom_bond_distance
_geom_bond_site_symmetry_2
N0 Si4 1.707794 1_555
N0 Si0 1.729707 1_555
N0 Sc2 2.170266 1_555
N0 Sc4 2.399336 1_555
N1 Si5 1.707794 1_555
N1 Si1 1.729707 1_555
N1 Sc3 2.170266 1_555
N1 Sc4 2.399336 1_555
N2 Si7 1.707794 1_565
N2 Si2 1.729707 1_555
N2 Sc0 2.170266 1_555
N2 Sc5 2.399336 1_565
N3 Si6 1.707794 1_545
N3 Si3 1.729707 1_555
N3 Sc1 2.170266 1_555
N3 Sc5 2.399336 1_655
N4 Si1 1.707794 1_555
N4 Si4 1.729707 1_555
N4 Sc0 2.170266 1_555
N4 Sc4 2.399336 1_555
N5 Si0 1.707794 1_555
N5 Si5 1.729707 1_555
N5 Sc1 2.170266 1_555
N5 Sc4 2.399336 1_555
N6 Si2 1.707794 1_655
N6 Si6 1.729707 1_555
N6 Sc3 2.170266 1_555
N6 Sc5 2.399336 1_665
N7 Si3 1.707794 1_455
N7 Si7 1.729707 1_555
N7 Sc2 2.170266 1_555
N7 Sc5 2.399336 1_555
N8 Si0 1.727562 1_555
N8 Si11 1.753258 1_555
N8 Sc2 2.460749 1_554
N8 Sc4 2.496838 1_554
N9 Si1 1.727562 1_555
N9 Si10 1.753258 1_555
N9 Sc3 2.460749 1_554
N9 Sc4 2.496838 1_554
N10 Si2 1.727562 1_555
N10 Si9 1.753258 1_555
N10 Sc0 2.460749 1_554
N10 Sc5 2.496838 1_564
N11 Si3 1.727562 1_555
N11 Si8 1.753258 1_555
N11 Sc1 2.460749 1_554
N11 Sc5 2.496838 1_654
N12 Si4 1.727562 1_555
N12 Si9 1.753258 1_555
N12 Sc0 2.460749 1_554
N12 Sc4 2.496838 1_554
N13 Si5 1.727562 1_555
N13 Si8 1.753258 1_555
N13 Sc1 2.460749 1_554
N13 Sc4 2.496838 1_554
N14 Si6 1.727562 1_555
N14 Si10 1.753258 1_555
N14 Sc3 2.460749 1_554
N14 Sc5 2.496838 1_664
N15 Si7 1.727562 1_555
N15 Si11 1.753258 1_555
N15 Sc2 2.460749 1_554
N15 Sc5 2.496838 1_554
N16 Si5 1.738866 1_555
N16 Si3 1.738866 1_555
N16 Si8 1.758775 1_556
N16 Sc1 2.500815 1_555
N17 Si2 1.738866 1_555
N17 Si4 1.738866 1_555
N17 Si9 1.758775 1_556
N17 Sc0 2.500815 1_555
N18 Si6 1.738866 1_555
N18 Si1 1.738866 1_555
N18 Si10 1.758775 1_556
N18 Sc3 2.500815 1_555
N19 Si7 1.738866 1_555
N19 Si0 1.738866 1_555
N19 Si11 1.758775 1_556
N19 Sc2 2.500815 1_555
N20 Si11 1.670420 1_555
N20 Si10 1.670420 1_545
N20 Sc0 2.682014 1_544
N20 Sc1 2.682014 1_554
N21 Si8 1.670420 1_455
N21 Si9 1.670420 1_555
N21 Sc2 2.682014 1_554
N21 Sc3 2.682014 1_454
