# generated using pymatgen
data_Sr2CaSbO6
_symmetry_space_group_name_H-M   'P 1'
_cell_length_a   5.99538500
_cell_length_b   5.89186600
_cell_length_c   10.22862191
_cell_angle_alpha   54.91938936
_cell_angle_beta   90.00000000
_cell_angle_gamma   90.00000000
_symmetry_Int_Tables_number   1
_chemical_formula_structural   Sr2CaSbO6
_chemical_formula_sum   'Sr4 Ca2 Sb2 O12'
_cell_volume   295.68078519
_cell_formula_units_Z   2
loop_
 _symmetry_equiv_pos_site_id
 _symmetry_equiv_pos_as_xyz
  1  'x, y, z'
loop_
 _atom_site_type_symbol
 _atom_site_label
 _atom_site_symmetry_multiplicity
 _atom_site_fract_x
 _atom_site_fract_y
 _atom_site_fract_z
 _atom_site_occupancy
  Sr  Sr0  1  0.45774800  0.23912800  0.74987700  1
  Sr  Sr1  1  0.54225200  0.76087200  0.25012300  1
  Sr  Sr2  1  0.95774800  0.76087200  0.75012300  1
  Sr  Sr3  1  0.04225200  0.23912800  0.24987700  1
  Ca  Ca0  1  0.00000000  0.50000000  0.50000000  1
  Ca  Ca1  1  0.50000000  0.50000000  0.00000000  1
  Sb  Sb0  1  0.00000000  0.00000000  0.00000000  1
  Sb  Sb1  1  0.50000000  0.00000000  0.50000000  1
  O  O0  1  0.72936900  0.86194500  0.94990000  1
  O  O1  1  0.27063100  0.13805500  0.05010000  1
  O  O2  1  0.22936900  0.13805500  0.55010000  1
  O  O3  1  0.77063100  0.86194500  0.44990000  1
  O  O4  1  0.03130800  0.31740200  0.76935300  1
  O  O5  1  0.96869200  0.68259800  0.23064700  1
  O  O6  1  0.53130800  0.68259800  0.73064700  1
  O  O7  1  0.46869200  0.31740200  0.26935300  1
  O  O8  1  0.19319900  0.77004800  0.95808600  1
  O  O9  1  0.80680100  0.22995200  0.04191400  1
  O  O10  1  0.69319900  0.22995200  0.54191400  1
  O  O11  1  0.30680100  0.77004800  0.45808600  1
loop_
_geom_bond_atom_site_label_1
_geom_bond_atom_site_label_2
_geom_bond_distance
_geom_bond_site_symmetry_2
Ca0 O11 2.305348 1_555
Ca0 O10 2.305348 1_455
Ca0 O4 2.318671 1_555
Ca0 O5 2.318671 1_455
Ca0 O3 2.333495 1_455
Ca0 O2 2.333495 1_555
Ca1 O9 2.305348 1_555
Ca1 O8 2.305348 1_554
Ca1 O7 2.318671 1_555
Ca1 O6 2.318671 1_554
Ca1 O0 2.333495 1_554
Ca1 O1 2.333495 1_555
O0 Sb0 2.008977 1_666
O0 Sr0 2.559343 1_565
O0 Sr2 2.793531 1_555
O0 Sr1 2.990207 1_556
O1 Sb0 2.008977 1_555
O1 Sr1 2.559343 1_545
O1 Sr3 2.793531 1_555
O1 Sr0 2.990207 1_554
O2 Sb1 2.008977 1_555
O2 Sr2 2.559343 1_445
O2 Sr0 2.793531 1_555
O2 Sr3 2.990207 1_555
O3 Sb1 2.008977 1_565
O3 Sr3 2.559343 1_665
O3 Sr1 2.793531 1_555
O3 Sr2 2.990207 1_555
O4 Sb0 2.006736 1_556
O4 Sr2 2.543522 1_455
O4 Sr0 2.625747 1_555
O5 Sb0 2.006736 1_665
O5 Sr3 2.543522 1_655
O5 Sr1 2.625747 1_555
O6 Sb1 2.006736 1_565
O6 Sr0 2.543522 1_555
O6 Sr2 2.625747 1_555
O7 Sb1 2.006736 1_555
O7 Sr1 2.543522 1_555
O7 Sr3 2.625747 1_555
O8 Sb0 2.007173 1_566
O8 Sr2 2.579274 1_455
O8 Sr0 2.814946 1_565
O8 Sr3 2.963182 1_556
O9 Sb0 2.007173 1_655
O9 Sr3 2.579274 1_655
O9 Sr1 2.814946 1_545
O9 Sr2 2.963182 1_554
O10 Sb1 2.007173 1_555
O10 Sr0 2.579274 1_555
O10 Sr2 2.814946 1_545
O10 Sr1 2.963182 1_555
O11 Sb1 2.007173 1_565
O11 Sr1 2.579274 1_555
O11 Sr3 2.814946 1_565
O11 Sr0 2.963182 1_555
