# generated using pymatgen
data_YRhO3
_symmetry_space_group_name_H-M   'P 1'
_cell_length_a   5.22677739
_cell_length_b   5.75872435
_cell_length_c   7.58046239
_cell_angle_alpha   90.00000000
_cell_angle_beta   90.00000000
_cell_angle_gamma   90.00000000
_symmetry_Int_Tables_number   1
_chemical_formula_structural   YRhO3
_chemical_formula_sum   'Y4 Rh4 O12'
_cell_volume   228.16866007
_cell_formula_units_Z   4
loop_
 _symmetry_equiv_pos_site_id
 _symmetry_equiv_pos_as_xyz
  1  'x, y, z'
loop_
 _atom_site_type_symbol
 _atom_site_label
 _atom_site_symmetry_multiplicity
 _atom_site_fract_x
 _atom_site_fract_y
 _atom_site_fract_z
 _atom_site_occupancy
  Y  Y0  1  0.02965172  0.41627963  0.25000000  1
  Y  Y1  1  0.97034828  0.58372037  0.75000000  1
  Y  Y2  1  0.52965172  0.08372037  0.75000000  1
  Y  Y3  1  0.47034828  0.91627963  0.25000000  1
  Rh  Rh0  1  0.00000000  -0.00000000  -0.00000000  1
  Rh  Rh1  1  0.50000000  0.50000000  -0.00000000  1
  Rh  Rh2  1  0.00000000  -0.00000000  0.50000000  1
  Rh  Rh3  1  0.50000000  0.50000000  0.50000000  1
  O  O0  1  0.32341220  0.19036868  0.06132476  1
  O  O1  1  0.67658780  0.80963132  0.93867524  1
  O  O2  1  0.82341220  0.30963132  0.93867524  1
  O  O3  1  0.67658780  0.80963132  0.56132476  1
  O  O4  1  0.17658780  0.69036868  0.06132476  1
  O  O5  1  0.32341220  0.19036868  0.43867524  1
  O  O6  1  0.17658780  0.69036868  0.43867524  1
  O  O7  1  0.82341220  0.30963132  0.56132476  1
  O  O8  1  0.63223244  0.55146355  0.25000000  1
  O  O9  1  0.36776756  0.44853645  0.75000000  1
  O  O10  1  0.13223244  0.94853645  0.75000000  1
  O  O11  1  0.86776756  0.05146355  0.25000000  1
loop_
_geom_bond_atom_site_label_1
_geom_bond_atom_site_label_2
_geom_bond_distance
_geom_bond_site_symmetry_2
O0 Rh1 2.060918 1_555
O0 Rh0 2.067704 1_555
O0 Y3 2.264241 1_545
O0 Y0 2.468930 1_555
O0 Y2 2.666222 1_554
O1 Rh1 2.060918 1_556
O1 Rh0 2.067704 1_666
O1 Y2 2.264241 1_565
O1 Y1 2.468930 1_555
O1 Y3 2.666222 1_556
O2 Rh0 2.060918 1_656
O2 Rh1 2.067704 1_556
O2 Y1 2.264241 1_555
O2 Y2 2.468930 1_555
O2 Y0 2.666222 1_656
O3 Rh3 2.060918 1_555
O3 Rh2 2.067704 1_665
O3 Y2 2.264241 1_565
O3 Y1 2.468930 1_555
O3 Y3 2.666222 1_555
O4 Rh0 2.060918 1_565
O4 Rh1 2.067704 1_555
O4 Y0 2.264241 1_555
O4 Y3 2.468930 1_555
O4 Y1 2.666222 1_454
O5 Rh3 2.060918 1_555
O5 Rh2 2.067704 1_555
O5 Y3 2.264241 1_545
O5 Y0 2.468930 1_555
O5 Y2 2.666222 1_555
O6 Rh2 2.060918 1_565
O6 Rh3 2.067704 1_555
O6 Y0 2.264241 1_555
O6 Y3 2.468930 1_555
O6 Y1 2.666222 1_455
O7 Rh2 2.060918 1_655
O7 Rh3 2.067704 1_555
O7 Y1 2.264241 1_555
O7 Y2 2.468930 1_555
O7 Y0 2.666222 1_655
O8 Rh1 2.038868 1_555
O8 Rh3 2.038868 1_555
O8 Y0 2.218309 1_655
O8 Y3 2.264866 1_555
O9 Rh1 2.038868 1_556
O9 Rh3 2.038868 1_555
O9 Y1 2.218309 1_455
O9 Y2 2.264866 1_555
O10 Rh0 2.038868 1_566
O10 Rh2 2.038868 1_565
O10 Y2 2.218309 1_565
O10 Y1 2.264866 1_455
O11 Rh0 2.038868 1_655
O11 Rh2 2.038868 1_655
O11 Y3 2.218309 1_545
O11 Y0 2.264866 1_655
