# generated using pymatgen
data_Ca11(TeN5)2
_symmetry_space_group_name_H-M   'P 1'
_cell_length_a   15.08362800
_cell_length_b   15.08362800
_cell_length_c   3.78488100
_cell_angle_alpha   90.00000000
_cell_angle_beta   90.00000000
_cell_angle_gamma   90.00000000
_symmetry_Int_Tables_number   1
_chemical_formula_structural   Ca11(TeN5)2
_chemical_formula_sum   'Ca22 Te4 N20'
_cell_volume   861.12035595
_cell_formula_units_Z   2
loop_
 _symmetry_equiv_pos_site_id
 _symmetry_equiv_pos_as_xyz
  1  'x, y, z'
loop_
 _atom_site_type_symbol
 _atom_site_label
 _atom_site_symmetry_multiplicity
 _atom_site_fract_x
 _atom_site_fract_y
 _atom_site_fract_z
 _atom_site_occupancy
  Ca  Ca0  1  0.50000000  0.50000000  0.50000000  1
  Ca  Ca1  1  0.00000000  0.00000000  0.00000000  1
  Ca  Ca2  1  0.97778200  0.79348300  0.50000000  1
  Ca  Ca3  1  0.02221800  0.20651700  0.50000000  1
  Ca  Ca4  1  0.52221800  0.29348300  0.00000000  1
  Ca  Ca5  1  0.47778200  0.70651700  0.00000000  1
  Ca  Ca6  1  0.79348300  0.97778200  0.50000000  1
  Ca  Ca7  1  0.20651700  0.02221800  0.50000000  1
  Ca  Ca8  1  0.29348300  0.52221800  0.00000000  1
  Ca  Ca9  1  0.70651700  0.47778200  0.00000000  1
  Ca  Ca10  1  0.69018700  0.69018700  0.50000000  1
  Ca  Ca11  1  0.30981300  0.30981300  0.50000000  1
  Ca  Ca12  1  0.80981300  0.19018700  0.00000000  1
  Ca  Ca13  1  0.19018700  0.80981300  0.00000000  1
  Ca  Ca14  1  0.38823200  0.89931900  0.50000000  1
  Ca  Ca15  1  0.61176800  0.10068100  0.50000000  1
  Ca  Ca16  1  0.11176800  0.39931900  0.00000000  1
  Ca  Ca17  1  0.88823200  0.60068100  0.00000000  1
  Ca  Ca18  1  0.89931900  0.38823200  0.50000000  1
  Ca  Ca19  1  0.10068100  0.61176800  0.50000000  1
  Ca  Ca20  1  0.39931900  0.11176800  0.00000000  1
  Ca  Ca21  1  0.60068100  0.88823200  0.00000000  1
  Te  Te0  1  0.29819400  0.70180600  0.50000000  1
  Te  Te1  1  0.70180600  0.29819400  0.50000000  1
  Te  Te2  1  0.20180600  0.20180600  0.00000000  1
  Te  Te3  1  0.79819400  0.79819400  0.00000000  1
  N  N0  1  0.07115800  0.92884200  0.50000000  1
  N  N1  1  0.92884200  0.07115800  0.50000000  1
  N  N2  1  0.42884200  0.42884200  0.00000000  1
  N  N3  1  0.57115800  0.57115800  0.00000000  1
  N  N4  1  0.46877200  0.18536900  0.50000000  1
  N  N5  1  0.53122800  0.81463100  0.50000000  1
  N  N6  1  0.03122800  0.68536900  0.00000000  1
  N  N7  1  0.96877200  0.31463100  0.00000000  1
  N  N8  1  0.18536900  0.46877200  0.50000000  1
  N  N9  1  0.81463100  0.53122800  0.50000000  1
  N  N10  1  0.68536900  0.03122800  0.00000000  1
  N  N11  1  0.31463100  0.96877200  0.00000000  1
  N  N12  1  0.86868000  0.13132000  0.50000000  1
  N  N13  1  0.13132000  0.86868000  0.50000000  1
  N  N14  1  0.63132000  0.63132000  0.00000000  1
  N  N15  1  0.36868000  0.36868000  0.00000000  1
  N  N16  1  0.60692100  0.39307900  0.50000000  1
  N  N17  1  0.39307900  0.60692100  0.50000000  1
  N  N18  1  0.89307900  0.89307900  0.00000000  1
  N  N19  1  0.10692100  0.10692100  0.00000000  1
loop_
_geom_bond_atom_site_label_1
_geom_bond_atom_site_label_2
_geom_bond_distance
_geom_bond_site_symmetry_2
Ca0 N16 2.280782 1_555
Ca0 N17 2.280782 1_555
Ca0 N3 2.425977 1_556
Ca0 N3 2.425977 1_555
Ca0 N2 2.425977 1_556
Ca0 N2 2.425977 1_555
Ca1 N19 2.280782 1_555
Ca1 N18 2.280782 1_445
Ca1 N1 2.425977 1_454
Ca1 N0 2.425977 1_545
Ca1 N1 2.425977 1_455
Ca1 N0 2.425977 1_544
Ca2 N0 2.480380 1_655
Ca2 N13 2.578749 1_655
Ca2 N6 2.624990 1_655
Ca2 N6 2.624990 1_656
Ca2 N18 2.733218 1_556
Ca2 N18 2.733218 1_555
Ca3 N1 2.480380 1_455
Ca3 N12 2.578749 1_455
Ca3 N7 2.624990 1_455
Ca3 N7 2.624990 1_456
Ca3 N19 2.733218 1_555
Ca3 N19 2.733218 1_556
Ca4 N2 2.480380 1_555
Ca4 N15 2.578749 1_555
Ca4 N4 2.624990 1_554
Ca4 N4 2.624990 1_555
Ca4 N16 2.733218 1_554
Ca4 N16 2.733218 1_555
Ca5 N3 2.480380 1_555
Ca5 N14 2.578749 1_555
Ca5 N5 2.624990 1_554
Ca5 N5 2.624990 1_555
Ca5 N17 2.733218 1_555
Ca5 N17 2.733218 1_554
Ca6 N1 2.480380 1_565
Ca6 N12 2.578749 1_565
Ca6 N10 2.624990 1_566
Ca6 N10 2.624990 1_565
Ca6 N18 2.733218 1_556
Ca6 N18 2.733218 1_555
Ca7 N0 2.480380 1_545
Ca7 N13 2.578749 1_545
Ca7 N11 2.624990 1_545
Ca7 N11 2.624990 1_546
Ca7 N19 2.733218 1_555
Ca7 N19 2.733218 1_556
Ca8 N2 2.480380 1_555
Ca8 N15 2.578749 1_555
Ca8 N8 2.624990 1_555
Ca8 N8 2.624990 1_554
Ca8 N17 2.733218 1_555
Ca8 N17 2.733218 1_554
Ca9 N3 2.480380 1_555
Ca9 N14 2.578749 1_555
Ca9 N9 2.624990 1_554
Ca9 N9 2.624990 1_555
Ca9 N16 2.733218 1_554
Ca9 N16 2.733218 1_555
Ca10 N14 2.271159 1_556
Ca10 N14 2.271159 1_555
Ca10 Te3 2.981528 1_556
Ca10 Te3 2.981528 1_555
Ca10 N5 3.045036 1_555
Ca10 N9 3.045036 1_555
Ca11 N15 2.271159 1_555
Ca11 N15 2.271159 1_556
Ca11 Te2 2.981528 1_555
Ca11 Te2 2.981528 1_556
Ca11 N8 3.045036 1_555
Ca11 N4 3.045036 1_555
Ca12 N12 2.271159 1_555
Ca12 N12 2.271159 1_554
Ca12 Te1 2.981528 1_555
Ca12 Te1 2.981528 1_554
Ca12 N7 3.045036 1_555
Ca12 N10 3.045036 1_555
Ca13 N13 2.271159 1_555
Ca13 N13 2.271159 1_554
Ca13 Te0 2.981528 1_554
Ca13 Te0 2.981528 1_555
Ca13 N11 3.045036 1_555
Ca13 N6 3.045036 1_555
Ca14 N11 2.431313 1_556
Ca14 N11 2.431313 1_555
Ca14 N5 2.506784 1_555
Ca15 N10 2.431313 1_556
Ca15 N10 2.431313 1_555
Ca15 N4 2.506784 1_555
Ca16 N8 2.431313 1_555
Ca16 N8 2.431313 1_554
Ca16 N7 2.506784 1_455
Ca17 N9 2.431313 1_555
Ca17 N9 2.431313 1_554
Ca17 N6 2.506784 1_655
Ca18 N7 2.431313 1_555
Ca18 N7 2.431313 1_556
Ca18 N9 2.506784 1_555
Ca19 N6 2.431313 1_556
Ca19 N6 2.431313 1_555
Ca19 N8 2.506784 1_555
Ca20 N4 2.431313 1_555
Ca20 N4 2.431313 1_554
Ca20 N11 2.506784 1_545
Ca21 N5 2.431313 1_554
Ca21 N5 2.431313 1_555
Ca21 N10 2.506784 1_565
N0 N13 1.283344 1_555
N1 N12 1.283344 1_555
N14 N3 1.283344 1_555
N15 N2 1.283344 1_555
N16 Te1 2.024037 1_555
N17 Te0 2.024037 1_555
N18 Te3 2.024037 1_555
N19 Te2 2.024037 1_555
