# generated using pymatgen
data_Fe
_symmetry_space_group_name_H-M   'P 1'
_cell_length_a   4.83074699
_cell_length_b   8.54618584
_cell_length_c   9.43473112
_cell_angle_alpha   90.00242345
_cell_angle_beta   90.15621074
_cell_angle_gamma   89.90268506
_symmetry_Int_Tables_number   1
_chemical_formula_structural   Fe
_chemical_formula_sum   Fe32
_cell_volume   389.50578407
_cell_formula_units_Z   32
loop_
 _symmetry_equiv_pos_site_id
 _symmetry_equiv_pos_as_xyz
  1  'x, y, z'
loop_
 _atom_site_type_symbol
 _atom_site_label
 _atom_site_symmetry_multiplicity
 _atom_site_fract_x
 _atom_site_fract_y
 _atom_site_fract_z
 _atom_site_occupancy
  Fe  Fe0_0  1  0.18836411  0.99999963  0.24486807  1
  Fe  Fe0_1  1  0.18836412  0.99999963  0.74486807  1
  Fe  Fe0_2  1  0.18836412  0.49999963  0.24486807  1
  Fe  Fe0_3  1  0.18836411  0.49999963  0.74486807  1
  Fe  Fe0_4  1  0.68836412  0.99999963  0.24486807  1
  Fe  Fe0_5  1  0.68836412  0.99999963  0.74486807  1
  Fe  Fe0_6  1  0.68836412  0.49999963  0.24486807  1
  Fe  Fe0_7  1  0.68836412  0.49999963  0.74486807  1
  Fe  Fe1_0  1  0.18663419  0.25000008  0.38014126  1
  Fe  Fe1_1  1  0.18663419  0.25000008  0.88014127  1
  Fe  Fe1_2  1  0.18663419  0.75000008  0.38014126  1
  Fe  Fe1_3  1  0.18663419  0.75000008  0.88014126  1
  Fe  Fe1_4  1  0.68663419  0.25000008  0.38014127  1
  Fe  Fe1_5  1  0.68663419  0.25000008  0.88014126  1
  Fe  Fe1_6  1  0.68663419  0.75000008  0.38014126  1
  Fe  Fe1_7  1  0.68663419  0.75000008  0.88014126  1
  Fe  Fe2_0  1  0.43837334  0.99999947  0.49487425  1
  Fe  Fe2_1  1  0.43837334  0.99999946  0.99487425  1
  Fe  Fe2_2  1  0.43837333  0.49999946  0.49487425  1
  Fe  Fe2_3  1  0.43837334  0.49999946  0.99487425  1
  Fe  Fe2_4  1  0.93837334  0.99999947  0.49487425  1
  Fe  Fe2_5  1  0.93837334  0.99999947  0.99487425  1
  Fe  Fe2_6  1  0.93837334  0.49999946  0.49487425  1
  Fe  Fe2_7  1  0.93837334  0.49999946  0.99487425  1
  Fe  Fe3_0  1  0.43662786  0.25000082  0.13011640  1
  Fe  Fe3_1  1  0.43662786  0.25000082  0.63011640  1
  Fe  Fe3_2  1  0.43662786  0.75000082  0.13011640  1
  Fe  Fe3_3  1  0.43662786  0.75000082  0.63011640  1
  Fe  Fe3_4  1  0.93662786  0.25000082  0.13011640  1
  Fe  Fe3_5  1  0.93662786  0.25000082  0.63011640  1
  Fe  Fe3_6  1  0.93662786  0.75000082  0.13011640  1
  Fe  Fe3_7  1  0.93662786  0.75000082  0.63011640  1
loop_
_geom_bond_atom_site_label_1
_geom_bond_atom_site_label_2
_geom_bond_distance
_geom_bond_site_symmetry_2
Fe0_0 Fe0_4 2.415373 1_455
Fe0_0 Fe0_4 2.415373 1_555
Fe0_0 Fe1_0 2.488682 1_565
Fe0_0 Fe1_2 2.488793 1_555
Fe0_0 Fe2_5 2.646881 1_454
Fe0_0 Fe2_0 2.647025 1_555
Fe0_0 Fe2_1 2.652783 1_554
Fe0_0 Fe2_4 2.652846 1_455
Fe0_0 Fe3_2 2.678324 1_555
Fe0_0 Fe3_0 2.681661 1_565
Fe0_0 Fe3_4 2.683288 1_465
Fe0_0 Fe3_6 2.686486 1_455
Fe0_1 Fe0_5 2.415373 1_455
Fe0_1 Fe0_5 2.415373 1_555
Fe0_1 Fe1_1 2.488682 1_565
Fe0_1 Fe1_3 2.488793 1_555
Fe0_1 Fe2_4 2.646881 1_455
Fe0_1 Fe2_1 2.647025 1_555
Fe0_1 Fe2_0 2.652783 1_555
Fe0_1 Fe2_5 2.652846 1_455
Fe0_1 Fe3_3 2.678324 1_555
Fe0_1 Fe3_1 2.681661 1_565
Fe0_1 Fe3_5 2.683288 1_465
Fe0_1 Fe3_7 2.686486 1_455
Fe0_2 Fe0_6 2.415373 1_555
Fe0_2 Fe0_6 2.415373 1_455
Fe0_2 Fe1_2 2.488682 1_555
Fe0_2 Fe1_0 2.488793 1_555
Fe0_2 Fe2_7 2.646881 1_454
Fe0_2 Fe2_2 2.647025 1_555
Fe0_2 Fe2_3 2.652783 1_554
Fe0_2 Fe2_6 2.652846 1_455
Fe0_2 Fe3_0 2.678324 1_555
Fe0_2 Fe3_2 2.681661 1_555
Fe0_2 Fe3_6 2.683288 1_455
Fe0_2 Fe3_4 2.686486 1_455
Fe0_3 Fe0_7 2.415373 1_455
Fe0_3 Fe0_7 2.415373 1_555
Fe0_3 Fe1_3 2.488682 1_555
Fe0_3 Fe1_1 2.488793 1_555
Fe0_3 Fe2_6 2.646881 1_455
Fe0_3 Fe2_3 2.647025 1_555
Fe0_3 Fe2_2 2.652783 1_555
Fe0_3 Fe2_7 2.652846 1_455
Fe0_3 Fe3_1 2.678324 1_555
Fe0_3 Fe3_3 2.681661 1_555
Fe0_3 Fe3_7 2.683288 1_455
Fe0_3 Fe3_5 2.686486 1_455
Fe0_4 Fe1_4 2.488682 1_565
Fe0_4 Fe1_6 2.488793 1_555
Fe0_4 Fe2_1 2.646881 1_554
Fe0_4 Fe2_4 2.647025 1_555
Fe0_4 Fe2_5 2.652783 1_554
Fe0_4 Fe2_0 2.652846 1_555
Fe0_4 Fe3_6 2.678324 1_555
Fe0_4 Fe3_4 2.681661 1_565
Fe0_4 Fe3_0 2.683288 1_565
Fe0_4 Fe3_2 2.686486 1_555
Fe0_5 Fe1_5 2.488682 1_565
Fe0_5 Fe1_7 2.488793 1_555
Fe0_5 Fe2_0 2.646881 1_555
Fe0_5 Fe2_5 2.647025 1_555
Fe0_5 Fe2_4 2.652783 1_555
Fe0_5 Fe2_1 2.652846 1_555
Fe0_5 Fe3_7 2.678324 1_555
Fe0_5 Fe3_5 2.681661 1_565
Fe0_5 Fe3_1 2.683288 1_565
Fe0_5 Fe3_3 2.686486 1_555
Fe0_6 Fe1_6 2.488682 1_555
Fe0_6 Fe1_4 2.488793 1_555
Fe0_6 Fe2_3 2.646881 1_554
Fe0_6 Fe2_6 2.647025 1_555
Fe0_6 Fe2_7 2.652783 1_554
Fe0_6 Fe2_2 2.652846 1_555
Fe0_6 Fe3_4 2.678324 1_555
Fe0_6 Fe3_6 2.681661 1_555
Fe0_6 Fe3_2 2.683288 1_555
Fe0_6 Fe3_0 2.686486 1_555
Fe0_7 Fe1_7 2.488682 1_555
Fe0_7 Fe1_5 2.488793 1_555
Fe0_7 Fe2_2 2.646881 1_555
Fe0_7 Fe2_7 2.647025 1_555
Fe0_7 Fe2_6 2.652783 1_555
Fe0_7 Fe2_3 2.652846 1_555
Fe0_7 Fe3_5 2.678324 1_555
Fe0_7 Fe3_7 2.681661 1_555
Fe0_7 Fe3_3 2.683288 1_555
Fe0_7 Fe3_1 2.686486 1_555
Fe1_0 Fe1_4 2.415373 1_455
Fe1_0 Fe1_4 2.415373 1_555
Fe1_0 Fe3_1 2.646730 1_555
Fe1_0 Fe3_4 2.647175 1_455
Fe1_0 Fe3_5 2.652620 1_455
Fe1_0 Fe3_0 2.653009 1_555
Fe1_0 Fe2_6 2.678250 1_455
Fe1_0 Fe2_4 2.681580 1_445
Fe1_0 Fe2_0 2.683220 1_545
Fe1_0 Fe2_2 2.686426 1_555
Fe1_1 Fe1_5 2.415373 1_455
Fe1_1 Fe1_5 2.415373 1_555
Fe1_1 Fe3_0 2.646730 1_556
Fe1_1 Fe3_5 2.647175 1_455
Fe1_1 Fe3_4 2.652620 1_456
Fe1_1 Fe3_1 2.653009 1_555
Fe1_1 Fe2_7 2.678250 1_455
Fe1_1 Fe2_5 2.681580 1_445
Fe1_1 Fe2_1 2.683220 1_545
Fe1_1 Fe2_3 2.686426 1_555
Fe1_2 Fe1_6 2.415373 1_455
Fe1_2 Fe1_6 2.415373 1_555
Fe1_2 Fe3_3 2.646730 1_555
Fe1_2 Fe3_6 2.647175 1_455
Fe1_2 Fe3_7 2.652620 1_455
Fe1_2 Fe3_2 2.653009 1_555
Fe1_2 Fe2_4 2.678250 1_455
Fe1_2 Fe2_6 2.681580 1_455
Fe1_2 Fe2_2 2.683220 1_555
Fe1_2 Fe2_0 2.686426 1_555
Fe1_3 Fe1_7 2.415373 1_455
Fe1_3 Fe1_7 2.415373 1_555
Fe1_3 Fe3_2 2.646730 1_556
Fe1_3 Fe3_7 2.647175 1_455
Fe1_3 Fe3_6 2.652620 1_456
Fe1_3 Fe3_3 2.653009 1_555
Fe1_3 Fe2_5 2.678250 1_455
Fe1_3 Fe2_7 2.681580 1_455
Fe1_3 Fe2_3 2.683220 1_555
Fe1_3 Fe2_1 2.686426 1_555
Fe1_4 Fe3_5 2.646730 1_555
Fe1_4 Fe3_0 2.647175 1_555
Fe1_4 Fe3_1 2.652620 1_555
Fe1_4 Fe3_4 2.653009 1_555
Fe1_4 Fe2_2 2.678250 1_555
Fe1_4 Fe2_0 2.681580 1_545
Fe1_4 Fe2_4 2.683220 1_545
Fe1_4 Fe2_6 2.686426 1_555
Fe1_5 Fe3_4 2.646730 1_556
Fe1_5 Fe3_1 2.647175 1_555
Fe1_5 Fe3_0 2.652620 1_556
Fe1_5 Fe3_5 2.653009 1_555
Fe1_5 Fe2_3 2.678250 1_555
Fe1_5 Fe2_1 2.681580 1_545
Fe1_5 Fe2_5 2.683220 1_545
Fe1_5 Fe2_7 2.686426 1_555
Fe1_6 Fe3_7 2.646730 1_555
Fe1_6 Fe3_2 2.647175 1_555
Fe1_6 Fe3_3 2.652620 1_555
Fe1_6 Fe3_6 2.653009 1_555
Fe1_6 Fe2_0 2.678250 1_555
Fe1_6 Fe2_2 2.681580 1_555
Fe1_6 Fe2_6 2.683220 1_555
Fe1_6 Fe2_4 2.686426 1_555
Fe1_7 Fe3_6 2.646730 1_556
Fe1_7 Fe3_3 2.647175 1_555
Fe1_7 Fe3_2 2.652620 1_556
Fe1_7 Fe3_7 2.653009 1_555
Fe1_7 Fe2_1 2.678250 1_555
Fe1_7 Fe2_3 2.681580 1_555
Fe1_7 Fe2_7 2.683220 1_555
Fe1_7 Fe2_5 2.686426 1_555
Fe2_0 Fe2_4 2.415373 1_455
Fe2_0 Fe2_4 2.415373 1_555
Fe2_0 Fe3_1 2.488539 1_565
Fe2_0 Fe3_3 2.488636 1_555
Fe2_1 Fe2_5 2.415373 1_555
Fe2_1 Fe2_5 2.415373 1_455
Fe2_1 Fe3_0 2.488539 1_566
Fe2_1 Fe3_2 2.488636 1_556
Fe2_2 Fe2_6 2.415373 1_455
Fe2_2 Fe2_6 2.415373 1_555
Fe2_2 Fe3_3 2.488539 1_555
Fe2_2 Fe3_1 2.488636 1_555
Fe2_3 Fe2_7 2.415373 1_455
Fe2_3 Fe2_7 2.415373 1_555
Fe2_3 Fe3_2 2.488539 1_556
Fe2_3 Fe3_0 2.488636 1_556
Fe2_4 Fe3_5 2.488539 1_565
Fe2_4 Fe3_7 2.488636 1_555
Fe2_5 Fe3_4 2.488539 1_566
Fe2_5 Fe3_6 2.488636 1_556
Fe2_6 Fe3_7 2.488539 1_555
Fe2_6 Fe3_5 2.488636 1_555
Fe2_7 Fe3_6 2.488539 1_556
Fe2_7 Fe3_4 2.488636 1_556
Fe3_0 Fe3_4 2.415373 1_455
Fe3_0 Fe3_4 2.415373 1_555
Fe3_1 Fe3_5 2.415373 1_555
Fe3_1 Fe3_5 2.415373 1_455
Fe3_2 Fe3_6 2.415373 1_455
Fe3_2 Fe3_6 2.415373 1_555
Fe3_3 Fe3_7 2.415373 1_455
Fe3_3 Fe3_7 2.415373 1_555
