# generated using pymatgen
data_Li2Si2NiO6
_symmetry_space_group_name_H-M   'P 1'
_cell_length_a   5.12509554
_cell_length_b   19.48500003
_cell_length_c   5.12886893
_cell_angle_alpha   90.20089979
_cell_angle_beta   91.15264304
_cell_angle_gamma   90.22095123
_symmetry_Int_Tables_number   1
_chemical_formula_structural   Li2Si2NiO6
_chemical_formula_sum   'Li8 Si8 Ni4 O24'
_cell_volume   512.07086925
_cell_formula_units_Z   4
loop_
 _symmetry_equiv_pos_site_id
 _symmetry_equiv_pos_as_xyz
  1  'x, y, z'
loop_
 _atom_site_type_symbol
 _atom_site_label
 _atom_site_symmetry_multiplicity
 _atom_site_fract_x
 _atom_site_fract_y
 _atom_site_fract_z
 _atom_site_occupancy
  Li  Li0  1  0.93894200  0.41905300  0.49230500  1
  Li  Li1  1  0.45503700  0.91661800  0.98775100  1
  Li  Li2  1  0.44979300  0.33444800  0.48802900  1
  Li  Li3  1  0.94589100  0.83091000  0.99112100  1
  Li  Li4  1  0.99381100  0.16853900  0.94561700  1
  Li  Li5  1  0.48581100  0.66692800  0.44653900  1
  Li  Li6  1  0.99385700  0.08192300  0.44468000  1
  Li  Li7  1  0.48489400  0.58371000  0.94683400  1
  Si  Si0  1  0.59763900  0.42080600  0.97273200  1
  Si  Si1  1  0.10263200  0.91650500  0.47246600  1
  Si  Si2  1  0.09494900  0.33461100  0.97339300  1
  Si  Si3  1  0.60272600  0.83044200  0.47193300  1
  Si  Si4  1  0.47853700  0.16851600  0.58882500  1
  Si  Si5  1  0.96854100  0.66855300  0.11058500  1
  Si  Si6  1  0.47941300  0.08312400  0.08721300  1
  Si  Si7  1  0.96640800  0.58170300  0.60973100  1
  Ni  Ni0  1  0.45914600  0.74942400  0.96143100  1
  Ni  Ni1  1  0.45354500  0.50099000  0.46217000  1
  Ni  Ni2  1  0.97419500  0.25099800  0.46885500  1
  Ni  Ni3  1  0.97682500  0.99935500  0.96647700  1
  O  O0  1  0.55763900  0.49585600  0.09955500  1
  O  O1  1  0.04960900  0.99187000  0.59340700  1
  O  O2  1  0.04358000  0.25949700  0.09607900  1
  O  O3  1  0.55947800  0.75556100  0.59793200  1
  O  O4  1  0.59918500  0.24387600  0.53488600  1
  O  O5  1  0.09829700  0.74336700  0.07267600  1
  O  O6  1  0.60314600  0.00839800  0.03146000  1
  O  O7  1  0.09272900  0.50669900  0.57175500  1
  O  O8  1  0.59329000  0.41922200  0.65459300  1
  O  O9  1  0.10309600  0.91405100  0.15398600  1
  O  O10  1  0.09449700  0.33642500  0.65443700  1
  O  O11  1  0.59909500  0.83175000  0.15367600  1
  O  O12  1  0.15989400  0.16544900  0.59132100  1
  O  O13  1  0.65015300  0.66769300  0.10304200  1
  O  O14  1  0.16016900  0.08473200  0.08890900  1
  O  O15  1  0.64810100  0.58300400  0.60233400  1
  O  O16  1  0.37768300  0.36569900  0.09275200  1
  O  O17  1  0.88519700  0.86117900  0.59222100  1
  O  O18  1  0.87810800  0.38983500  0.09290000  1
  O  O19  1  0.38541200  0.88608400  0.59207300  1
  O  O20  1  0.59809600  0.11254100  0.37280100  1
  O  O21  1  0.08704900  0.61416200  0.88899600  1
  O  O22  1  0.59817700  0.13957300  0.87343400  1
  O  O23  1  0.08721100  0.63597800  0.38922000  1
loop_
_geom_bond_atom_site_label_1
_geom_bond_atom_site_label_2
_geom_bond_distance
_geom_bond_site_symmetry_2
Li0 O7 1.917186 1_655
Li0 O8 1.972405 1_555
Li0 O10 1.977828 1_655
Li0 O18 2.140658 1_555
Li1 O6 1.950501 1_566
Li1 O11 1.999473 1_556
Li1 O9 2.011056 1_556
Li1 O19 2.135521 1_555
Li2 O4 1.940224 1_555
Li2 O8 1.988628 1_555
Li2 O10 2.026950 1_555
Li2 O16 2.144217 1_555
Li3 O5 1.922726 1_656
Li3 O11 1.978415 1_556
Li3 O9 1.981076 1_656
Li3 O17 2.148166 1_555
Li4 O2 1.944400 1_656
Li4 O14 1.981820 1_656
Li4 O12 2.022869 1_655
Li4 O22 2.127565 1_555
Li5 O3 1.924008 1_555
Li5 O13 1.968043 1_555
Li5 O15 1.999320 1_555
Li5 O23 2.142076 1_555
Li6 O1 1.935693 1_645
Li6 O12 1.973205 1_655
Li6 O14 2.030265 1_655
Li6 O20 2.141652 1_555
Li7 O0 1.919763 1_556
Li7 O15 1.970060 1_555
Li7 O13 1.997468 1_556
Li7 O21 2.140980 1_555
Ni0 O3 1.947853 1_555
Ni0 O5 1.949599 1_556
Ni0 O11 2.002857 1_556
Ni0 O13 2.003371 1_556
Ni1 O7 1.947007 1_555
Ni1 O0 1.947439 1_555
Ni1 O15 2.003894 1_555
Ni1 O8 2.004191 1_555
Ni2 O2 1.959192 1_655
Ni2 O4 1.962740 1_555
Ni2 O10 2.003545 1_655
Ni2 O12 2.018530 1_655
Ni3 O6 1.959021 1_566
Ni3 O1 1.961836 1_655
Ni3 O14 2.000401 1_666
Ni3 O9 2.025066 1_656
O0 Si0 1.613876 1_554
O1 Si1 1.618188 1_555
O2 Si2 1.617875 1_554
O3 Si3 1.614147 1_555
O4 Si4 1.617951 1_555
O5 Si5 1.613937 1_455
O6 Si6 1.617233 1_555
O7 Si7 1.613472 1_455
O8 Si0 1.631579 1_555
O9 Si1 1.634024 1_555
O10 Si2 1.636344 1_555
O11 Si3 1.632320 1_555
O12 Si4 1.634248 1_555
O13 Si5 1.631469 1_555
O14 Si6 1.636774 1_555
O15 Si7 1.631329 1_555
O16 Si2 1.672228 1_554
O16 Si0 1.681040 1_554
O17 Si3 1.670302 1_555
O17 Si1 1.674557 1_655
O18 Si0 1.668501 1_554
O18 Si2 1.673503 1_654
O19 Si1 1.673762 1_555
O19 Si3 1.681614 1_555
O20 Si6 1.673195 1_555
O20 Si4 1.678272 1_555
O21 Si7 1.669978 1_455
O21 Si5 1.675712 1_456
O22 Si4 1.672494 1_555
O22 Si6 1.677087 1_556
O23 Si5 1.670156 1_455
O23 Si7 1.677001 1_455
