# generated using pymatgen
data_Sr2CoSbO6
_symmetry_space_group_name_H-M   'P 1'
_cell_length_a   6.68918421
_cell_length_b   6.68918421
_cell_length_c   6.68918421
_cell_angle_alpha   134.07096096
_cell_angle_beta   130.45898908
_cell_angle_gamma   69.85163163
_symmetry_Int_Tables_number   1
_chemical_formula_structural   Sr2CoSbO6
_chemical_formula_sum   'Sr2 Co1 Sb1 O6'
_cell_volume   160.46460280
_cell_formula_units_Z   1
loop_
 _symmetry_equiv_pos_site_id
 _symmetry_equiv_pos_as_xyz
  1  'x, y, z'
loop_
 _atom_site_type_symbol
 _atom_site_label
 _atom_site_symmetry_multiplicity
 _atom_site_fract_x
 _atom_site_fract_y
 _atom_site_fract_z
 _atom_site_occupancy
  Sr  Sr0  1  0.66825900  0.16825900  0.50000000  1
  Sr  Sr1  1  0.33174100  0.83174100  0.50000000  1
  Co  Co0  1  0.50000000  0.50000000  0.00000000  1
  Sb  Sb0  1  0.00000000  0.50000000  0.50000000  1
  O  O0  1  0.31813200  0.31813200  0.00000000  1
  O  O1  1  0.25731900  0.25085700  0.50817600  1
  O  O2  1  0.74268100  0.25085700  0.99353800  1
  O  O3  1  0.68186800  0.68186800  0.00000000  1
  O  O4  1  0.74268100  0.74914300  0.49182400  1
  O  O5  1  0.25731900  0.74914300  0.00646200  1
loop_
_geom_bond_atom_site_label_1
_geom_bond_atom_site_label_2
_geom_bond_distance
_geom_bond_site_symmetry_2
Co0 O2 1.881920 1_554
Co0 O4 1.881920 1_555
Co0 O1 1.881920 1_554
Co0 O5 1.881920 1_555
Co0 O3 1.994882 1_555
Co0 O0 1.994882 1_555
Sb0 Sr1 3.638815 1_555
Sb0 Sr0 3.638815 1_455
O0 Sr1 2.614125 1_555
O0 Sr1 2.614125 1_544
O0 Sr0 3.249224 1_555
O0 Sr0 3.249224 1_454
O1 Sb0 1.942057 1_555
O1 Sr1 2.640310 1_545
O1 Sr0 2.640310 1_555
O2 Sb0 1.942057 1_656
O2 Sr0 2.640310 1_555
O2 Sr1 2.640310 1_545
O3 Sr0 2.614125 1_554
O3 Sr0 2.614125 1_565
O3 Sr1 3.249224 1_554
O3 Sr1 3.249224 1_655
O4 Sb0 1.942057 1_655
O4 Sr1 2.640310 1_555
O4 Sr0 2.640310 1_565
O5 Sb0 1.942057 1_554
O5 Sr1 2.640310 1_555
O5 Sr0 2.640310 1_565
