# generated using pymatgen
data_CaMg30VO32
_symmetry_space_group_name_H-M   'P 1'
_cell_length_a   8.57429700
_cell_length_b   8.57429700
_cell_length_c   8.57147500
_cell_angle_alpha   90.00000000
_cell_angle_beta   90.00000000
_cell_angle_gamma   90.00000000
_symmetry_Int_Tables_number   1
_chemical_formula_structural   CaMg30VO32
_chemical_formula_sum   'Ca1 Mg30 V1 O32'
_cell_volume   630.16257660
_cell_formula_units_Z   1
loop_
 _symmetry_equiv_pos_site_id
 _symmetry_equiv_pos_as_xyz
  1  'x, y, z'
loop_
 _atom_site_type_symbol
 _atom_site_label
 _atom_site_symmetry_multiplicity
 _atom_site_fract_x
 _atom_site_fract_y
 _atom_site_fract_z
 _atom_site_occupancy
  Ca  Ca0  1  0.00000000  0.00000000  0.00000000  1
  Mg  Mg0  1  0.50000000  0.00000000  0.00000000  1
  Mg  Mg1  1  0.00000000  0.50000000  0.00000000  1
  Mg  Mg2  1  0.00000000  0.00000000  0.50000000  1
  Mg  Mg3  1  0.50000000  0.00000000  0.50000000  1
  Mg  Mg4  1  0.00000000  0.50000000  0.50000000  1
  Mg  Mg5  1  0.50000000  0.50000000  0.50000000  1
  Mg  Mg6  1  0.25266300  0.25266300  0.00000000  1
  Mg  Mg7  1  0.74733700  0.25266300  0.00000000  1
  Mg  Mg8  1  0.25266300  0.74733700  0.00000000  1
  Mg  Mg9  1  0.74733700  0.74733700  0.00000000  1
  Mg  Mg10  1  0.25032000  0.25032000  0.50000000  1
  Mg  Mg11  1  0.74968000  0.25032000  0.50000000  1
  Mg  Mg12  1  0.25032000  0.74968000  0.50000000  1
  Mg  Mg13  1  0.74968000  0.74968000  0.50000000  1
  Mg  Mg14  1  0.25309800  0.00000000  0.25293800  1
  Mg  Mg15  1  0.74690200  0.00000000  0.25293800  1
  Mg  Mg16  1  0.24988000  0.50000000  0.25054900  1
  Mg  Mg17  1  0.75012000  0.50000000  0.25054900  1
  Mg  Mg18  1  0.25309800  0.00000000  0.74706200  1
  Mg  Mg19  1  0.74690200  0.00000000  0.74706200  1
  Mg  Mg20  1  0.24988000  0.50000000  0.74945100  1
  Mg  Mg21  1  0.75012000  0.50000000  0.74945100  1
  Mg  Mg22  1  0.00000000  0.25309800  0.25293800  1
  Mg  Mg23  1  0.50000000  0.24988000  0.25054900  1
  Mg  Mg24  1  0.00000000  0.74690200  0.25293800  1
  Mg  Mg25  1  0.50000000  0.75012000  0.25054900  1
  Mg  Mg26  1  0.00000000  0.25309800  0.74706200  1
  Mg  Mg27  1  0.50000000  0.24988000  0.74945100  1
  Mg  Mg28  1  0.00000000  0.74690200  0.74706200  1
  Mg  Mg29  1  0.50000000  0.75012000  0.74945100  1
  V  V0  1  0.50000000  0.50000000  0.00000000  1
  O  O0  1  0.00000000  0.00000000  0.26241100  1
  O  O1  1  0.50000000  0.00000000  0.25247500  1
  O  O2  1  0.00000000  0.50000000  0.25247500  1
  O  O3  1  0.50000000  0.50000000  0.25486400  1
  O  O4  1  0.00000000  0.00000000  0.73758900  1
  O  O5  1  0.50000000  0.00000000  0.74752500  1
  O  O6  1  0.00000000  0.50000000  0.74752500  1
  O  O7  1  0.50000000  0.50000000  0.74513600  1
  O  O8  1  0.25007400  0.25007400  0.24965700  1
  O  O9  1  0.74992600  0.25007400  0.24965700  1
  O  O10  1  0.25007400  0.74992600  0.24965700  1
  O  O11  1  0.74992600  0.74992600  0.24965700  1
  O  O12  1  0.25007400  0.25007400  0.75034300  1
  O  O13  1  0.74992600  0.25007400  0.75034300  1
  O  O14  1  0.25007400  0.74992600  0.75034300  1
  O  O15  1  0.74992600  0.74992600  0.75034300  1
  O  O16  1  0.26211900  0.00000000  0.00000000  1
  O  O17  1  0.73788100  0.00000000  0.00000000  1
  O  O18  1  0.24708900  0.50000000  0.00000000  1
  O  O19  1  0.75291100  0.50000000  0.00000000  1
  O  O20  1  0.25207800  0.00000000  0.50000000  1
  O  O21  1  0.74792200  0.00000000  0.50000000  1
  O  O22  1  0.25028500  0.50000000  0.50000000  1
  O  O23  1  0.74971500  0.50000000  0.50000000  1
  O  O24  1  0.00000000  0.26211900  0.00000000  1
  O  O25  1  0.50000000  0.24708900  0.00000000  1
  O  O26  1  0.00000000  0.73788100  0.00000000  1
  O  O27  1  0.50000000  0.75291100  0.00000000  1
  O  O28  1  0.00000000  0.25207800  0.50000000  1
  O  O29  1  0.50000000  0.25028500  0.50000000  1
  O  O30  1  0.00000000  0.74792200  0.50000000  1
  O  O31  1  0.50000000  0.74971500  0.50000000  1
loop_
_geom_bond_atom_site_label_1
_geom_bond_atom_site_label_2
_geom_bond_distance
_geom_bond_site_symmetry_2
Ca0 O26 2.247486 1_545
Ca0 O24 2.247486 1_555
Ca0 O16 2.247486 1_555
Ca0 O17 2.247486 1_455
Ca0 O0 2.249249 1_555
Ca0 O4 2.249249 1_554
Mg0 O16 2.039662 1_555
Mg0 O17 2.039662 1_555
Mg0 O25 2.118614 1_555
Mg0 O27 2.118614 1_545
Mg0 O1 2.164083 1_555
Mg0 O5 2.164083 1_554
Mg1 O24 2.039662 1_555
Mg1 O26 2.039662 1_555
Mg1 O18 2.118614 1_555
Mg1 O19 2.118614 1_455
Mg1 O2 2.164083 1_555
Mg1 O6 2.164083 1_554
Mg2 O4 2.036488 1_555
Mg2 O0 2.036488 1_555
Mg2 O20 2.161392 1_555
Mg2 O28 2.161392 1_555
Mg2 O21 2.161392 1_455
Mg2 O30 2.161392 1_545
Mg3 O1 2.121654 1_555
Mg3 O5 2.121654 1_555
Mg3 O21 2.125757 1_555
Mg3 O20 2.125757 1_555
Mg3 O29 2.146018 1_555
Mg3 O31 2.146018 1_545
Mg4 O6 2.121654 1_555
Mg4 O2 2.121654 1_555
Mg4 O30 2.125757 1_555
Mg4 O28 2.125757 1_555
Mg4 O23 2.146018 1_455
Mg4 O22 2.146018 1_555
Mg5 O7 2.101177 1_555
Mg5 O3 2.101177 1_555
Mg5 O31 2.141131 1_555
Mg5 O23 2.141131 1_555
Mg5 O22 2.141131 1_555
Mg5 O29 2.141131 1_555
Mg6 O25 2.121279 1_555
Mg6 O18 2.121279 1_555
Mg6 O8 2.140159 1_555
Mg6 O12 2.140159 1_554
Mg6 O24 2.167924 1_555
Mg6 O16 2.167924 1_555
Mg7 O25 2.121279 1_555
Mg7 O19 2.121279 1_555
Mg7 O9 2.140159 1_555
Mg7 O13 2.140159 1_554
Mg7 O17 2.167924 1_555
Mg7 O24 2.167924 1_655
Mg8 O18 2.121279 1_555
Mg8 O27 2.121279 1_555
Mg8 O10 2.140159 1_555
Mg8 O14 2.140159 1_554
Mg8 O26 2.167924 1_555
Mg8 O16 2.167924 1_565
Mg9 O19 2.121279 1_555
Mg9 O27 2.121279 1_555
Mg9 O11 2.140159 1_555
Mg9 O15 2.140159 1_554
Mg9 O17 2.167924 1_565
Mg9 O26 2.167924 1_655
Mg10 O29 2.140830 1_555
Mg10 O22 2.140830 1_555
Mg10 O8 2.145811 1_555
Mg10 O12 2.145811 1_555
Mg10 O20 2.146371 1_555
Mg10 O28 2.146371 1_555
Mg11 O23 2.140830 1_555
Mg11 O29 2.140830 1_555
Mg11 O9 2.145811 1_555
Mg11 O13 2.145811 1_555
Mg11 O28 2.146371 1_655
Mg11 O21 2.146371 1_555
Mg12 O31 2.140830 1_555
Mg12 O22 2.140830 1_555
Mg12 O14 2.145811 1_555
Mg12 O10 2.145811 1_555
Mg12 O20 2.146371 1_565
Mg12 O30 2.146371 1_555
Mg13 O23 2.140830 1_555
Mg13 O31 2.140830 1_555
Mg13 O11 2.145811 1_555
Mg13 O15 2.145811 1_555
Mg13 O21 2.146371 1_565
Mg13 O30 2.146371 1_655
Mg14 O1 2.117015 1_555
Mg14 O20 2.117704 1_555
Mg14 O8 2.144550 1_555
Mg14 O10 2.144550 1_545
Mg14 O16 2.169431 1_555
Mg14 O0 2.171656 1_555
Mg15 O1 2.117015 1_555
Mg15 O21 2.117704 1_555
Mg15 O9 2.144550 1_555
Mg15 O11 2.144550 1_545
Mg15 O17 2.169431 1_555
Mg15 O0 2.171656 1_655
Mg16 O22 2.138166 1_555
Mg16 O2 2.142609 1_555
Mg16 O10 2.142954 1_555
Mg16 O8 2.142954 1_555
Mg16 O3 2.144922 1_555
Mg16 O18 2.147708 1_555
Mg17 O23 2.138166 1_555
Mg17 O2 2.142609 1_655
Mg17 O11 2.142954 1_555
Mg17 O9 2.142954 1_555
Mg17 O3 2.144922 1_555
Mg17 O19 2.147708 1_555
Mg18 O5 2.117015 1_555
Mg18 O20 2.117704 1_555
Mg18 O12 2.144550 1_555
Mg18 O14 2.144550 1_545
Mg18 O16 2.169431 1_556
Mg18 O4 2.171656 1_555
Mg19 O5 2.117015 1_555
Mg19 O21 2.117704 1_555
Mg19 O13 2.144550 1_555
Mg19 O15 2.144550 1_545
Mg19 O17 2.169431 1_556
Mg19 O4 2.171656 1_655
Mg20 O22 2.138166 1_555
Mg20 O6 2.142609 1_555
Mg20 O14 2.142954 1_555
Mg20 O12 2.142954 1_555
Mg20 O7 2.144922 1_555
Mg20 O18 2.147708 1_556
Mg21 O23 2.138166 1_555
Mg21 O6 2.142609 1_655
Mg21 O15 2.142954 1_555
Mg21 O13 2.142954 1_555
Mg21 O7 2.144922 1_555
Mg21 O19 2.147708 1_556
Mg22 O2 2.117015 1_555
Mg22 O28 2.117704 1_555
Mg22 O8 2.144550 1_555
Mg22 O9 2.144550 1_455
Mg22 O24 2.169431 1_555
Mg22 O0 2.171656 1_555
Mg23 O29 2.138166 1_555
Mg23 O1 2.142609 1_555
Mg23 O9 2.142954 1_555
Mg23 O8 2.142954 1_555
Mg23 O3 2.144922 1_555
Mg23 O25 2.147708 1_555
Mg24 O2 2.117015 1_555
Mg24 O30 2.117704 1_555
Mg24 O10 2.144550 1_555
Mg24 O11 2.144550 1_455
Mg24 O26 2.169431 1_555
Mg24 O0 2.171656 1_565
Mg25 O31 2.138166 1_555
Mg25 O1 2.142609 1_565
Mg25 O11 2.142954 1_555
Mg25 O10 2.142954 1_555
Mg25 O3 2.144922 1_555
Mg25 O27 2.147708 1_555
Mg26 O6 2.117015 1_555
Mg26 O28 2.117704 1_555
Mg26 O12 2.144550 1_555
Mg26 O13 2.144550 1_455
Mg26 O24 2.169431 1_556
Mg26 O4 2.171656 1_555
Mg27 O29 2.138166 1_555
Mg27 O5 2.142609 1_555
Mg27 O13 2.142954 1_555
Mg27 O12 2.142954 1_555
Mg27 O7 2.144922 1_555
Mg27 O25 2.147708 1_556
Mg28 O6 2.117015 1_555
Mg28 O30 2.117704 1_555
Mg28 O14 2.144550 1_555
Mg28 O15 2.144550 1_455
Mg28 O26 2.169431 1_556
Mg28 O4 2.171656 1_565
Mg29 O31 2.138166 1_555
Mg29 O5 2.142609 1_565
Mg29 O15 2.142954 1_555
Mg29 O14 2.142954 1_555
Mg29 O7 2.144922 1_555
Mg29 O27 2.147708 1_556
O3 V0 2.184560 1_555
O7 V0 2.184560 1_556
O18 V0 2.168534 1_555
O19 V0 2.168534 1_555
O25 V0 2.168534 1_555
O27 V0 2.168534 1_555
