# generated using pymatgen
data_CoCuP2O7
_symmetry_space_group_name_H-M   'P 1'
_cell_length_a   4.59307298
_cell_length_b   5.36394199
_cell_length_c   5.39286453
_cell_angle_alpha   101.43439814
_cell_angle_beta   100.93720399
_cell_angle_gamma   100.89037008
_symmetry_Int_Tables_number   1
_chemical_formula_structural   CoCuP2O7
_chemical_formula_sum   'Co1 Cu1 P2 O7'
_cell_volume   124.26804231
_cell_formula_units_Z   1
loop_
 _symmetry_equiv_pos_site_id
 _symmetry_equiv_pos_as_xyz
  1  'x, y, z'
loop_
 _atom_site_type_symbol
 _atom_site_label
 _atom_site_symmetry_multiplicity
 _atom_site_fract_x
 _atom_site_fract_y
 _atom_site_fract_z
 _atom_site_occupancy
  Co  Co0  1  0.71881100  0.10325000  0.28429900  1
  Cu  Cu0  1  0.72590100  0.48137500  0.90876000  1
  P  P0  1  0.31598800  0.58138800  0.40096600  1
  P  P1  1  0.13071800  0.99376000  0.80827000  1
  O  O0  1  0.22162900  0.76188100  0.62867400  1
  O  O1  1  0.50505500  0.41572300  0.53639600  1
  O  O2  1  0.94247100  0.85734400  0.97373500  1
  O  O3  1  0.95686300  0.14320100  0.64798900  1
  O  O4  1  0.49255500  0.74290200  0.25341200  1
  O  O5  1  0.00916800  0.41346200  0.21921100  1
  O  O6  1  0.44094200  0.17281200  0.97449000  1
loop_
_geom_bond_atom_site_label_1
_geom_bond_atom_site_label_2
_geom_bond_distance
_geom_bond_site_symmetry_2
Co0 O4 1.972666 1_545
Co0 O3 2.004818 1_555
Co0 O6 2.043891 1_554
Co0 O5 2.059427 1_655
Co0 O1 2.417917 1_555
Co0 O2 2.426764 1_544
Cu0 O1 1.999282 1_555
Cu0 O2 2.002196 1_555
Cu0 O6 2.041624 1_555
Cu0 O5 2.054948 1_656
Cu0 O3 2.583644 1_555
Cu0 O4 2.619438 1_556
O0 P0 1.588161 1_555
O0 P1 1.591068 1_555
O1 P0 1.544479 1_555
O2 P1 1.546565 1_655
O3 P1 1.510632 1_645
O4 P0 1.514661 1_555
O5 P0 1.550549 1_555
O6 P1 1.553419 1_545
