# generated using pymatgen
data_LiCo(CO3)2
_symmetry_space_group_name_H-M   'P 1'
_cell_length_a   4.67328537
_cell_length_b   5.76765579
_cell_length_c   15.77890709
_cell_angle_alpha   97.10772131
_cell_angle_beta   81.54643827
_cell_angle_gamma   113.77163352
_symmetry_Int_Tables_number   1
_chemical_formula_structural   LiCo(CO3)2
_chemical_formula_sum   'Li4 Co4 C8 O24'
_cell_volume   384.01348953
_cell_formula_units_Z   4
loop_
 _symmetry_equiv_pos_site_id
 _symmetry_equiv_pos_as_xyz
  1  'x, y, z'
loop_
 _atom_site_type_symbol
 _atom_site_label
 _atom_site_symmetry_multiplicity
 _atom_site_fract_x
 _atom_site_fract_y
 _atom_site_fract_z
 _atom_site_occupancy
  Li  Li0  1  0.99550400  0.99977000  0.99988700  1
  Li  Li1  1  0.50198500  0.25072300  0.25011300  1
  Li  Li2  1  0.00074000  0.49838400  0.49908400  1
  Li  Li3  1  0.50177500  0.75278200  0.75075800  1
  Co  Co0  1  0.24988400  0.12267400  0.62452200  1
  Co  Co1  1  0.74808800  0.37450700  0.87511000  1
  Co  Co2  1  0.25308900  0.62529800  0.12469200  1
  Co  Co3  1  0.75188700  0.87673500  0.37524800  1
  C  C0  1  0.86630000  0.92451200  0.18884600  1
  C  C1  1  0.36820400  0.17305400  0.43923700  1
  C  C2  1  0.86178800  0.41665800  0.69020100  1
  C  C3  1  0.36857100  0.67322200  0.93804300  1
  C  C4  1  0.64144900  0.32864400  0.05918400  1
  C  C5  1  0.13219200  0.57757200  0.31209400  1
  C  C6  1  0.63170400  0.82876100  0.56136700  1
  C  C7  1  0.13024100  0.07743700  0.81092600  1
  O  O0  1  0.91337500  0.32608300  0.06181800  1
  O  O1  1  0.40708800  0.57742800  0.31408500  1
  O  O2  1  0.90946500  0.83419200  0.56684700  1
  O  O3  1  0.40536700  0.07751200  0.81339800  1
  O  O4  1  0.50184400  0.75135200  0.00797900  1
  O  O5  1  0.00118100  0.99533400  0.25893600  1
  O  O6  1  0.50065200  0.24353400  0.51034800  1
  O  O7  1  0.98829900  0.48536400  0.76191900  1
  O  O8  1  0.00913800  0.85739100  0.12026200  1
  O  O9  1  0.51346400  0.10559600  0.37094700  1
  O  O10  1  0.01952300  0.35746400  0.62268200  1
  O  O11  1  0.51134600  0.60112800  0.86968100  1
  O  O12  1  0.48536400  0.38589200  0.12679300  1
  O  O13  1  0.99011500  0.64591300  0.38095900  1
  O  O14  1  0.47919200  0.89521700  0.62924000  1
  O  O15  1  0.98606700  0.14651900  0.87935900  1
  O  O16  1  0.99803700  0.50623200  0.24207600  1
  O  O17  1  0.50405700  0.75141900  0.49090300  1
  O  O18  1  0.99694900  0.00358900  0.74040300  1
  O  O19  1  0.51093400  0.26598600  0.98731300  1
  O  O20  1  0.58970500  0.92281000  0.18794400  1
  O  O21  1  0.09536100  0.17532700  0.43630300  1
  O  O22  1  0.58742700  0.41586800  0.68519500  1
  O  O23  1  0.09265100  0.67211800  0.93530000  1
loop_
_geom_bond_atom_site_label_1
_geom_bond_atom_site_label_2
_geom_bond_distance
_geom_bond_site_symmetry_2
Li0 O0 2.159013 1_566
Li0 O4 2.164568 1_556
Li0 O8 2.179414 1_656
Li0 O15 2.188214 1_565
Li0 O23 2.212469 1_655
Li0 O19 2.269854 1_665
Li1 O20 2.180595 1_545
Li1 O16 2.183462 1_555
Li1 O9 2.190883 1_555
Li1 O1 2.199461 1_555
Li1 O5 2.200518 1_545
Li1 O12 2.206546 1_555
Li2 O13 2.157384 1_455
Li2 O21 2.174244 1_555
Li2 O6 2.197065 1_455
Li2 O17 2.206594 1_555
Li2 O10 2.229770 1_555
Li2 O2 2.257419 1_455
Li3 O18 2.173223 1_565
Li3 O11 2.179595 1_555
Li3 O3 2.186096 1_565
Li3 O14 2.209465 1_555
Li3 O22 2.239266 1_555
Li3 O7 2.264354 1_455
Co0 O2 2.011093 1_445
Co0 O14 2.013947 1_545
Co0 O6 2.033789 1_555
Co0 O22 2.038951 1_555
Co0 O10 2.046416 1_555
Co0 O18 2.057449 1_455
Co1 O19 1.972971 1_555
Co1 O7 1.993329 1_555
Co1 O11 2.039904 1_555
Co1 O15 2.047728 1_555
Co1 O23 2.063784 1_655
Co1 O3 2.069209 1_555
Co2 O20 2.068052 1_555
Co2 O4 2.071719 1_555
Co2 O0 2.076901 1_455
Co2 O12 2.077567 1_555
Co2 O16 2.080553 1_455
Co2 O8 2.091281 1_555
Co3 O9 2.053916 1_565
Co3 O17 2.055289 1_555
Co3 O5 2.057423 1_655
Co3 O13 2.067368 1_555
Co3 O21 2.070266 1_665
Co3 O1 2.076132 1_555
C0 O8 1.287959 1_655
C0 O20 1.290844 1_555
C0 O5 1.293400 1_655
C1 O21 1.288064 1_555
C1 O9 1.291283 1_555
C1 O6 1.302247 1_555
C2 O22 1.294292 1_555
C2 O10 1.294968 1_655
C2 O7 1.297700 1_555
C3 O4 1.288978 1_556
C3 O23 1.293957 1_555
C3 O11 1.297190 1_555
C4 O0 1.283612 1_555
C4 O12 1.287383 1_555
C4 O19 1.308788 1_554
C5 O1 1.289996 1_555
C5 O16 1.290794 1_455
C5 O13 1.292216 1_455
C6 O17 1.284047 1_555
C6 O2 1.301138 1_555
C6 O14 1.302340 1_555
C7 O3 1.291878 1_555
C7 O15 1.294113 1_455
C7 O18 1.296271 1_455
