# generated using pymatgen
data_Na6MnTe4
_symmetry_space_group_name_H-M   'P 1'
_cell_length_a   10.03276867
_cell_length_b   10.03267787
_cell_length_c   7.68020482
_cell_angle_alpha   90.00001454
_cell_angle_beta   89.99998701
_cell_angle_gamma   119.99978996
_symmetry_Int_Tables_number   1
_chemical_formula_structural   Na6MnTe4
_chemical_formula_sum   'Na12 Mn2 Te8'
_cell_volume   669.48680165
_cell_formula_units_Z   2
loop_
 _symmetry_equiv_pos_site_id
 _symmetry_equiv_pos_as_xyz
  1  'x, y, z'
loop_
 _atom_site_type_symbol
 _atom_site_label
 _atom_site_symmetry_multiplicity
 _atom_site_fract_x
 _atom_site_fract_y
 _atom_site_fract_z
 _atom_site_occupancy
  Na  Na0  1  0.15020357  0.84979820  0.54324250  1
  Na  Na1  1  0.30041103  0.15019803  0.04323401  1
  Na  Na2  1  0.84980084  0.69958955  0.04323283  1
  Na  Na3  1  0.15019921  0.30041058  0.54323264  1
  Na  Na4  1  0.69958900  0.84980191  0.54323376  1
  Na  Na5  1  0.84979666  0.15020175  0.04324224  1
  Na  Na6  1  0.52780344  0.47219649  0.37176734  1
  Na  Na7  1  0.05563076  0.52782376  0.87174336  1
  Na  Na8  1  0.47217613  0.94436912  0.87174357  1
  Na  Na9  1  0.52782378  0.05563091  0.37174344  1
  Na  Na10  1  0.94436920  0.47217630  0.37174316  1
  Na  Na11  1  0.47219658  0.52780356  0.87176724  1
  Mn  Mn0  1  0.33333320  0.66665763  0.25004845  1
  Mn  Mn1  1  0.66666656  0.33334280  0.75004805  1
  Te  Te0  1  0.33333310  0.66666343  0.60727513  1
  Te  Te1  1  0.66666697  0.33333602  0.10727273  1
  Te  Te2  1  0.18418413  0.81581346  0.14147595  1
  Te  Te3  1  0.36836576  0.18417364  0.64147969  1
  Te  Te4  1  0.81581467  0.63165896  0.64146178  1
  Te  Te5  1  0.18418712  0.36834225  0.14146075  1
  Te  Te6  1  0.63163310  0.81582569  0.14148030  1
  Te  Te7  1  0.81581520  0.18418598  0.64147410  1
loop_
_geom_bond_atom_site_label_1
_geom_bond_atom_site_label_2
_geom_bond_distance
_geom_bond_site_symmetry_2
Na0 Te3 3.044875 1_565
Na0 Te4 3.044922 1_455
Na0 Te2 3.141647 1_555
Na0 Te0 3.220093 1_555
Na1 Te5 3.044764 1_555
Na1 Te2 3.044936 1_545
Na1 Te3 3.141539 1_554
Na1 Te1 3.220053 1_555
Na2 Te2 3.044961 1_655
Na2 Te6 3.045120 1_555
Na2 Te4 3.141624 1_554
Na2 Te1 3.220005 1_555
Na3 Te7 3.044963 1_455
Na3 Te3 3.045115 1_555
Na3 Te5 3.141633 1_555
Na3 Te0 3.220002 1_555
Na4 Te4 3.044769 1_555
Na4 Te7 3.044929 1_565
Na4 Te6 3.141534 1_555
Na4 Te0 3.220055 1_555
Na5 Te6 3.044884 1_545
Na5 Te5 3.044934 1_655
Na5 Te7 3.141660 1_554
Na5 Te1 3.220088 1_555
Na6 Te1 3.154232 1_555
Na6 Te4 3.252156 1_555
Na6 Te3 3.252291 1_555
Na6 Te5 3.536530 1_555
Na6 Te6 3.536582 1_555
Na7 Te0 3.153972 1_555
Na7 Te2 3.252173 1_556
Na7 Te5 3.252433 1_556
Na7 Te7 3.536609 1_455
Na7 Te4 3.536748 1_455
Na8 Te0 3.153978 1_555
Na8 Te2 3.252205 1_556
Na8 Te6 3.252277 1_556
Na8 Te3 3.536414 1_565
Na8 Te7 3.536636 1_565
Na9 Te1 3.153986 1_555
Na9 Te7 3.252193 1_555
Na9 Te3 3.252277 1_555
Na9 Te6 3.536410 1_545
Na9 Te2 3.536634 1_545
Na10 Te1 3.153982 1_555
Na10 Te7 3.252169 1_555
Na10 Te4 3.252435 1_555
Na10 Te2 3.536596 1_655
Na10 Te5 3.536758 1_655
Na11 Te0 3.154216 1_555
Na11 Te5 3.252139 1_556
Na11 Te6 3.252288 1_556
Na11 Te4 3.536538 1_555
Na11 Te3 3.536587 1_555
Mn0 Te6 2.722648 1_555
Mn0 Te2 2.722681 1_555
Mn0 Te5 2.722800 1_555
Mn0 Te0 2.743574 1_555
Mn1 Te3 2.722657 1_555
Mn1 Te7 2.722689 1_555
Mn1 Te4 2.722803 1_555
Mn1 Te1 2.743559 1_556
