# generated using pymatgen
data_La3Eu
_symmetry_space_group_name_H-M   'P 1'
_cell_length_a   6.54976678
_cell_length_b   6.54976678
_cell_length_c   6.54976678
_cell_angle_alpha   132.14086000
_cell_angle_beta   132.14086000
_cell_angle_gamma   70.00664461
_symmetry_Int_Tables_number   1
_chemical_formula_structural   La3Eu
_chemical_formula_sum   'La3 Eu1'
_cell_volume   151.46382384
_cell_formula_units_Z   1
loop_
 _symmetry_equiv_pos_site_id
 _symmetry_equiv_pos_as_xyz
  1  'x, y, z'
loop_
 _atom_site_type_symbol
 _atom_site_label
 _atom_site_symmetry_multiplicity
 _atom_site_fract_x
 _atom_site_fract_y
 _atom_site_fract_z
 _atom_site_occupancy
  La  La0  1  0.75000000  0.25000000  0.50000000  1
  La  La1  1  0.25000000  0.75000000  0.50000000  1
  La  La2  1  0.50000000  0.50000000  0.00000000  1
  Eu  Eu0  1  0.00000000  0.00000000  0.00000000  1
loop_
_geom_bond_atom_site_label_1
_geom_bond_atom_site_label_2
_geom_bond_distance
_geom_bond_site_symmetry_2
La0 La1 3.757103 1_555
La0 La1 3.757103 1_544
La0 La1 3.757103 1_656
La0 La1 3.757103 1_645
La0 La2 3.775423 1_555
La0 La2 3.775423 1_545
La0 La2 3.775423 1_556
La0 La2 3.775423 1_656
La1 La2 3.775423 1_555
La1 La2 3.775423 1_556
La1 La2 3.775423 1_566
La1 La2 3.775423 1_455
Eu0 La2 3.757103 1_455
Eu0 La2 3.757103 1_556
Eu0 La2 3.757103 1_545
Eu0 La2 3.757103 1_444
Eu0 La0 3.775423 1_455
Eu0 La0 3.775423 1_454
Eu0 La1 3.775423 1_555
Eu0 La1 3.775423 1_544
Eu0 La0 3.775423 1_444
Eu0 La1 3.775423 1_545
Eu0 La1 3.775423 1_444
Eu0 La0 3.775423 1_555
