# generated using pymatgen
data_Ta(Mo2S5)2
_symmetry_space_group_name_H-M   'P 1'
_cell_length_a   5.59849900
_cell_length_b   6.63770046
_cell_length_c   8.55529200
_cell_angle_alpha   74.03387842
_cell_angle_beta   70.89597206
_cell_angle_gamma   81.93896418
_symmetry_Int_Tables_number   1
_chemical_formula_structural   Ta(Mo2S5)2
_chemical_formula_sum   'Ta1 Mo4 S10'
_cell_volume   288.38517519
_cell_formula_units_Z   1
loop_
 _symmetry_equiv_pos_site_id
 _symmetry_equiv_pos_as_xyz
  1  'x, y, z'
loop_
 _atom_site_type_symbol
 _atom_site_label
 _atom_site_symmetry_multiplicity
 _atom_site_fract_x
 _atom_site_fract_y
 _atom_site_fract_z
 _atom_site_occupancy
  Ta  Ta0  1  0.13169500  0.50016500  0.09995100  1
  Mo  Mo0  1  0.73321500  0.50033100  0.30186700  1
  Mo  Mo1  1  0.33656000  0.50036500  0.50269100  1
  Mo  Mo2  1  0.93380800  0.50014500  0.69724400  1
  Mo  Mo3  1  0.53106700  0.50020700  0.89806500  1
  S  S0  1  0.13442300  0.74438500  0.84726300  1
  S  S1  1  0.93728000  0.74205000  0.45116200  1
  S  S2  1  0.53799500  0.74199200  0.65256500  1
  S  S3  1  0.33844000  0.74443800  0.25521700  1
  S  S4  1  0.72842100  0.74422300  0.05133000  1
  S  S5  1  0.85831800  0.25543100  0.14878800  1
  S  S6  1  0.46855500  0.25534900  0.35269900  1
  S  S7  1  0.06605900  0.25760700  0.54751900  1
  S  S8  1  0.66660900  0.25757100  0.74901200  1
  S  S9  1  0.26435500  0.25524200  0.94472600  1
loop_
_geom_bond_atom_site_label_1
_geom_bond_atom_site_label_2
_geom_bond_distance
_geom_bond_site_symmetry_2
Mo0 S6 2.212176 1_555
Mo0 S5 2.258242 1_555
Mo0 S4 2.309169 1_555
Mo0 Mo1 2.320763 1_555
Mo0 Ta0 2.332117 1_655
Mo0 S3 2.624255 1_555
Mo0 S1 2.847375 1_555
Mo0 S7 3.216148 1_655
Mo1 S7 2.236333 1_555
Mo1 S6 2.242341 1_555
Mo1 S3 2.282665 1_555
Mo1 Mo2 2.323262 1_455
Mo1 S1 2.648590 1_455
Mo1 S2 2.841356 1_555
Mo1 S8 3.209009 1_555
Mo2 S8 2.208160 1_555
Mo2 S7 2.227141 1_655
Mo2 S1 2.265650 1_555
Mo2 Mo3 2.345233 1_555
Mo2 S2 2.617785 1_555
Mo2 S0 2.852348 1_655
Mo2 S9 3.221423 1_655
Mo3 S8 2.224745 1_555
Mo3 S9 2.228568 1_555
Mo3 S2 2.257939 1_555
Mo3 Ta0 2.335480 1_556
Mo3 S0 2.642302 1_555
Mo3 S4 2.860442 1_556
Mo3 S5 3.227658 1_556
S0 Ta0 2.314938 1_556
S0 S2 2.328244 1_555
S0 S4 2.369947 1_456
S1 S3 2.320657 1_655
S1 S2 2.333366 1_555
S3 S4 2.305888 1_555
S3 Ta0 2.907030 1_555
S4 Ta0 2.667015 1_655
S5 Ta0 2.249717 1_655
S5 S6 2.304977 1_555
S6 S7 2.324176 1_555
S6 Ta0 3.278680 1_555
S9 Ta0 2.271926 1_556
