# generated using pymatgen
data_NaCdIn4(PO4)6
_symmetry_space_group_name_H-M   'P 1'
_cell_length_a   6.71848490
_cell_length_b   9.14557770
_cell_length_c   18.15609904
_cell_angle_alpha   92.14735339
_cell_angle_beta   106.86150674
_cell_angle_gamma   106.64409342
_symmetry_Int_Tables_number   1
_chemical_formula_structural   NaCdIn4(PO4)6
_chemical_formula_sum   'Na2 Cd2 In8 P12 O48'
_cell_volume   1014.02007334
_cell_formula_units_Z   2
loop_
 _symmetry_equiv_pos_site_id
 _symmetry_equiv_pos_as_xyz
  1  'x, y, z'
loop_
 _atom_site_type_symbol
 _atom_site_label
 _atom_site_symmetry_multiplicity
 _atom_site_fract_x
 _atom_site_fract_y
 _atom_site_fract_z
 _atom_site_occupancy
  Na  Na0  1  0.00000000  0.50000000  0.75000000  1
  Na  Na1  1  0.50000000  0.50000000  0.75000000  1
  Cd  Cd0  1  0.24809800  0.27130400  0.36300400  1
  Cd  Cd1  1  0.75190200  0.72869600  0.13699600  1
  In  In0  1  0.36440900  0.93883900  0.81486800  1
  In  In1  1  0.13163000  0.37537000  0.53355600  1
  In  In2  1  0.36889000  0.93083000  0.31455800  1
  In  In3  1  0.13583900  0.36765400  0.03347500  1
  In  In4  1  0.86837000  0.62463000  0.96644400  1
  In  In5  1  0.63559100  0.06116100  0.68513200  1
  In  In6  1  0.86416100  0.63234600  0.46652500  1
  In  In7  1  0.63111000  0.06917000  0.18544200  1
  P  P0  1  0.37160900  0.65578600  0.93348400  1
  P  P1  1  0.24814800  0.71549400  0.64305100  1
  P  P2  1  0.13727800  0.13718400  0.67421900  1
  P  P3  1  0.36070600  0.64971600  0.43325200  1
  P  P4  1  0.25258000  0.71111200  0.14389800  1
  P  P5  1  0.12944300  0.12798500  0.17424500  1
  P  P6  1  0.86272200  0.86281600  0.82578100  1
  P  P7  1  0.75185200  0.28450600  0.85694900  1
  P  P8  1  0.62839100  0.34421400  0.56651600  1
  P  P9  1  0.87055700  0.87201500  0.32575500  1
  P  P10  1  0.74742000  0.28888800  0.35610200  1
  P  P11  1  0.63929400  0.35028400  0.06674800  1
  O  O0  1  0.08035800  0.98015500  0.82763900  1
  O  O1  1  0.18777200  0.59110700  0.97184600  1
  O  O2  1  0.04448000  0.73789100  0.58414000  1
  O  O3  1  0.37036800  0.81764600  0.91316600  1
  O  O4  1  0.23574400  0.73694600  0.72712000  1
  O  O5  1  0.09586500  0.99548600  0.33352500  1
  O  O6  1  0.33296400  0.55421000  0.85813400  1
  O  O7  1  0.18453500  0.28991300  0.72479200  1
  O  O8  1  0.25872100  0.54744700  0.63404100  1
  O  O9  1  0.18015700  0.59184300  0.47382000  1
  O  O10  1  0.13664300  0.17983700  0.59267900  1
  O  O11  1  0.04051400  0.73333200  0.08604500  1
  O  O12  1  0.59329800  0.66363100  0.99554500  1
  O  O13  1  0.45262900  0.82966800  0.63144300  1
  O  O14  1  0.35759900  0.80752600  0.40938700  1
  O  O15  1  0.31996800  0.05856300  0.70479600  1
  O  O16  1  0.23900700  0.73652100  0.22651000  1
  O  O17  1  0.68003200  0.94143700  0.79520400  1
  O  O18  1  0.32333400  0.53134000  0.36353900  1
  O  O19  1  0.16385600  0.26426200  0.23343100  1
  O  O20  1  0.54737100  0.17033200  0.86855700  1
  O  O21  1  0.40670200  0.33636900  0.50445500  1
  O  O22  1  0.26872500  0.54829300  0.12942800  1
  O  O23  1  0.13591600  0.17801900  0.09521800  1
  O  O24  1  0.86335700  0.82016300  0.90732100  1
  O  O25  1  0.74127900  0.45255300  0.86595900  1
  O  O26  1  0.58212000  0.65458200  0.49195700  1
  O  O27  1  0.46059400  0.82811300  0.13206600  1
  O  O28  1  0.81546500  0.71008600  0.77520800  1
  O  O29  1  0.66703600  0.44579000  0.64186600  1
  O  O30  1  0.31062200  0.04648100  0.20316900  1
  O  O31  1  0.76425600  0.26305400  0.77288000  1
  O  O32  1  0.68937800  0.95351900  0.29683100  1
  O  O33  1  0.62963200  0.18235400  0.58683400  1
  O  O34  1  0.53940600  0.17188700  0.36793400  1
  O  O35  1  0.41788000  0.34541800  0.00804300  1
  O  O36  1  0.95552000  0.26210900  0.91586000  1
  O  O37  1  0.86408400  0.82198100  0.40478200  1
  O  O38  1  0.81222800  0.40889300  0.52815400  1
  O  O39  1  0.73127500  0.45170700  0.37057200  1
  O  O40  1  0.83614400  0.73573800  0.26656900  1
  O  O41  1  0.67666600  0.46866000  0.13646100  1
  O  O42  1  0.91964200  0.01984500  0.67236100  1
  O  O43  1  0.76099300  0.26347900  0.27349000  1
  O  O44  1  0.64240100  0.19247400  0.09061300  1
  O  O45  1  0.95948600  0.26666800  0.41395500  1
  O  O46  1  0.81984300  0.40815700  0.02618000  1
  O  O47  1  0.90413500  0.00451400  0.16647500  1
loop_
_geom_bond_atom_site_label_1
_geom_bond_atom_site_label_2
_geom_bond_distance
_geom_bond_site_symmetry_2
Na0 O6 2.418355 1_555
Na0 O29 2.418355 1_455
Na0 O4 2.420755 1_555
Na0 O31 2.420755 1_455
Na0 O28 2.658202 1_455
Na0 O7 2.658210 1_555
Na1 O28 2.330609 1_555
Na1 O7 2.330614 1_555
Na1 O25 2.395859 1_555
Na1 O8 2.395859 1_555
Na1 O29 2.623670 1_555
Na1 O6 2.623670 1_555
Cd0 O19 2.248170 1_555
Cd0 O18 2.284322 1_555
Cd0 O34 2.364104 1_555
Cd0 O45 2.369355 1_455
Cd0 O5 2.408098 1_545
Cd0 O21 2.453543 1_555
Cd1 O40 2.248170 1_555
Cd1 O41 2.284322 1_555
Cd1 O27 2.364104 1_555
Cd1 O11 2.369355 1_655
Cd1 O47 2.408098 1_565
Cd1 O12 2.453543 1_554
In0 O0 2.121727 1_555
In0 O3 2.132487 1_555
In0 O20 2.145434 1_565
In0 O4 2.181970 1_555
In0 O17 2.244002 1_555
In0 O15 2.299364 1_565
In1 O10 2.123365 1_555
In1 O8 2.155365 1_555
In1 O21 2.179836 1_555
In1 O45 2.182642 1_455
In1 O38 2.228347 1_455
In1 O9 2.279994 1_555
In2 O14 2.100959 1_555
In2 O16 2.136474 1_555
In2 O5 2.192143 1_555
In2 O34 2.204744 1_565
In2 O32 2.221256 1_555
In2 O30 2.302225 1_565
In3 O23 2.100099 1_555
In3 O35 2.136926 1_555
In3 O22 2.144404 1_555
In3 O36 2.152750 1_454
In3 O46 2.225533 1_455
In3 O1 2.353610 1_554
In4 O24 2.123365 1_555
In4 O25 2.155365 1_555
In4 O12 2.179836 1_555
In4 O11 2.182642 1_656
In4 O1 2.228347 1_655
In4 O46 2.279994 1_556
In5 O42 2.121727 1_555
In5 O33 2.132487 1_555
In5 O13 2.145434 1_545
In5 O31 2.181970 1_555
In5 O15 2.244002 1_555
In5 O17 2.299364 1_545
In6 O37 2.100099 1_555
In6 O26 2.136926 1_555
In6 O39 2.144404 1_555
In6 O2 2.152750 1_655
In6 O9 2.225533 1_655
In6 O38 2.353610 1_555
In7 O44 2.100959 1_555
In7 O43 2.136474 1_555
In7 O47 2.192143 1_555
In7 O27 2.204744 1_545
In7 O30 2.221256 1_555
In7 O32 2.302225 1_545
O0 P6 1.536403 1_455
O1 P0 1.572231 1_555
O2 P1 1.544758 1_555
O3 P0 1.540669 1_555
O4 P1 1.560751 1_555
O5 P9 1.572066 1_455
O6 P0 1.537051 1_555
O7 P2 1.541320 1_555
O8 P1 1.563415 1_555
O9 P3 1.572832 1_555
O10 P2 1.544176 1_555
O11 P4 1.577413 1_555
O12 P0 1.565979 1_555
O13 P1 1.544272 1_555
O14 P3 1.526455 1_555
O15 P2 1.572231 1_555
O16 P4 1.541887 1_555
O17 P6 1.572231 1_555
O18 P3 1.547376 1_555
O19 P5 1.533613 1_555
O20 P7 1.544272 1_555
O21 P8 1.565979 1_555
O22 P4 1.542034 1_555
O23 P5 1.531011 1_555
O24 P6 1.544176 1_555
O25 P7 1.563415 1_555
O26 P3 1.545835 1_555
O27 P4 1.574480 1_555
O28 P6 1.541327 1_555
O29 P8 1.537051 1_555
O30 P5 1.578407 1_555
O31 P7 1.560751 1_555
O32 P9 1.578407 1_555
O33 P8 1.540669 1_555
O34 P10 1.574480 1_555
O35 P11 1.545835 1_555
O36 P7 1.544758 1_555
O37 P9 1.531011 1_555
O38 P8 1.572231 1_555
O39 P10 1.542034 1_555
O40 P9 1.533613 1_555
O41 P11 1.547376 1_555
O42 P2 1.536403 1_655
O43 P10 1.541887 1_555
O44 P11 1.526455 1_555
O45 P10 1.577413 1_555
O46 P11 1.572832 1_555
O47 P5 1.572066 1_655
