# generated using pymatgen
data_SrCuSF
_symmetry_space_group_name_H-M   'P 1'
_cell_length_a   3.93943137
_cell_length_b   3.93943137
_cell_length_c   8.64701502
_cell_angle_alpha   90.00000000
_cell_angle_beta   90.00000000
_cell_angle_gamma   90.00000000
_symmetry_Int_Tables_number   1
_chemical_formula_structural   SrCuSF
_chemical_formula_sum   'Sr2 Cu2 S2 F2'
_cell_volume   134.19405958
_cell_formula_units_Z   2
loop_
 _symmetry_equiv_pos_site_id
 _symmetry_equiv_pos_as_xyz
  1  'x, y, z'
loop_
 _atom_site_type_symbol
 _atom_site_label
 _atom_site_symmetry_multiplicity
 _atom_site_fract_x
 _atom_site_fract_y
 _atom_site_fract_z
 _atom_site_occupancy
  Sr  Sr0  1  0.00000000  0.50000000  0.83012694  1
  Sr  Sr1  1  0.50000000  -0.00000000  0.16987306  1
  Cu  Cu0  1  0.50000000  0.50000000  0.50000000  1
  Cu  Cu1  1  -0.00000000  -0.00000000  0.50000000  1
  S  S0  1  0.50000000  0.00000000  0.66018195  1
  S  S1  1  -0.00000000  0.50000000  0.33981805  1
  F  F0  1  0.50000000  0.50000000  0.00000000  1
  F  F1  1  -0.00000000  0.00000000  -0.00000000  1
loop_
_geom_bond_atom_site_label_1
_geom_bond_atom_site_label_2
_geom_bond_distance
_geom_bond_site_symmetry_2
Cu0 S0 2.407960 1_565
Cu0 S1 2.407960 1_655
Cu0 S1 2.407960 1_555
Cu0 S0 2.407960 1_555
Cu1 S1 2.407960 1_555
Cu1 S0 2.407960 1_455
Cu1 S1 2.407960 1_545
Cu1 S0 2.407960 1_555
S0 Sr0 3.149451 1_555
S0 Sr0 3.149451 1_645
S0 Sr0 3.149451 1_655
S0 Sr0 3.149451 1_545
S1 Sr1 3.149451 1_555
S1 Sr1 3.149451 1_455
S1 Sr1 3.149451 1_565
S1 Sr1 3.149451 1_465
F0 Sr1 2.457119 1_555
F0 Sr0 2.457119 1_654
F0 Sr1 2.457119 1_565
F0 Sr0 2.457119 1_554
F1 Sr1 2.457119 1_555
F1 Sr1 2.457119 1_455
F1 Sr0 2.457119 1_544
F1 Sr0 2.457119 1_554
