# generated using pymatgen
data_CsSbWO6
_symmetry_space_group_name_H-M   'P 1'
_cell_length_a   7.40350036
_cell_length_b   7.43387299
_cell_length_c   7.32741665
_cell_angle_alpha   90.00000000
_cell_angle_beta   60.33936662
_cell_angle_gamma   120.13579528
_symmetry_Int_Tables_number   1
_chemical_formula_structural   CsSbWO6
_chemical_formula_sum   'Cs2 Sb2 W2 O12'
_cell_volume   286.02995346
_cell_formula_units_Z   2
loop_
 _symmetry_equiv_pos_site_id
 _symmetry_equiv_pos_as_xyz
  1  'x, y, z'
loop_
 _atom_site_type_symbol
 _atom_site_label
 _atom_site_symmetry_multiplicity
 _atom_site_fract_x
 _atom_site_fract_y
 _atom_site_fract_z
 _atom_site_occupancy
  Cs  Cs0  1  0.74564400  0.37508300  0.87717800  1
  Cs  Cs1  1  0.25435600  0.62944000  0.12282200  1
  Sb  Sb0  1  0.00000000  0.00220800  0.50000000  1
  Sb  Sb1  1  0.00000000  0.00220800  0.00000000  1
  W  W0  1  0.50003300  0.00227300  0.49998400  1
  W  W1  1  0.49996700  0.50224100  0.50001600  1
  O  O0  1  0.85301300  0.92869200  0.82349400  1
  O  O1  1  0.61656700  0.31051600  0.44171600  1
  O  O2  1  0.25412800  0.32159000  0.81065200  1
  O  O3  1  0.25414400  0.93697300  0.43521300  1
  O  O4  1  0.25414400  0.93697300  0.81064400  1
  O  O5  1  0.25412800  0.32159000  0.43522000  1
  O  O6  1  0.14698700  0.07568000  0.17650600  1
  O  O7  1  0.38343300  0.69394800  0.55828400  1
  O  O8  1  0.74585600  0.68283100  0.18935600  1
  O  O9  1  0.74587200  0.06746200  0.56478000  1
  O  O10  1  0.74587200  0.06746200  0.18934800  1
  O  O11  1  0.74585600  0.68283100  0.56478700  1
loop_
_geom_bond_atom_site_label_1
_geom_bond_atom_site_label_2
_geom_bond_distance
_geom_bond_site_symmetry_2
Cs0 O6 3.143573 1_556
Cs0 O8 3.235160 1_556
Cs0 O11 3.235165 1_555
Cs0 O9 3.235649 1_555
Cs0 O10 3.235649 1_556
Cs0 O7 3.349057 1_655
Cs1 O0 3.143573 1_554
Cs1 O4 3.235144 1_554
Cs1 O3 3.235149 1_555
Cs1 O5 3.235654 1_555
Cs1 O2 3.235654 1_554
Cs1 O1 3.349057 1_455
O0 Sb1 1.987814 1_666
O0 Sb0 1.987821 1_665
O1 W0 1.956449 1_555
O1 W1 1.956903 1_555
O2 W1 1.934573 1_555
O2 Sb1 2.008222 1_556
O3 W0 1.934600 1_565
O3 Sb0 2.008221 1_565
O4 W0 1.934600 1_565
O4 Sb1 2.008219 1_566
O5 W1 1.934568 1_555
O5 Sb0 2.008222 1_555
O6 Sb1 1.987814 1_555
O6 Sb0 1.987821 1_555
O7 W1 1.956435 1_555
O7 W0 1.956904 1_565
O8 W1 1.934601 1_555
O8 Sb1 2.008209 1_665
O9 W0 1.934566 1_555
O9 Sb0 2.008222 1_655
O10 W0 1.934571 1_555
O10 Sb1 2.008222 1_655
O11 W1 1.934602 1_555
O11 Sb0 2.008211 1_665
