# generated using pymatgen
data_RbTi3FeO8
_symmetry_space_group_name_H-M   'P 1'
_cell_length_a   7.39639494
_cell_length_b   7.39639494
_cell_length_c   10.27587441
_cell_angle_alpha   46.45436380
_cell_angle_beta   46.45436380
_cell_angle_gamma   23.55698981
_symmetry_Int_Tables_number   1
_chemical_formula_structural   RbTi3FeO8
_chemical_formula_sum   'Rb1 Ti3 Fe1 O8'
_cell_volume   159.61832719
_cell_formula_units_Z   1
loop_
 _symmetry_equiv_pos_site_id
 _symmetry_equiv_pos_as_xyz
  1  'x, y, z'
loop_
 _atom_site_type_symbol
 _atom_site_label
 _atom_site_symmetry_multiplicity
 _atom_site_fract_x
 _atom_site_fract_y
 _atom_site_fract_z
 _atom_site_occupancy
  Rb  Rb0  1  0.00093700  0.00093700  0.99990900  1
  Ti  Ti0  1  0.84447100  0.84447100  0.82486800  1
  Ti  Ti1  1  0.66397000  0.66397000  0.48138200  1
  Ti  Ti2  1  0.33354800  0.33354800  0.51644700  1
  Fe  Fe0  1  0.14894100  0.14894100  0.18575000  1
  O  O0  1  0.33450900  0.33450900  0.70561700  1
  O  O1  1  0.66689900  0.66689900  0.29689500  1
  O  O2  1  0.95536500  0.95536500  0.37871800  1
  O  O3  1  0.04144800  0.04144800  0.62517800  1
  O  O4  1  0.35068300  0.35068300  0.94192300  1
  O  O5  1  0.65976400  0.65976400  0.04057000  1
  O  O6  1  0.70589800  0.70589800  0.63949000  1
  O  O7  1  0.29356600  0.29356600  0.36325500  1
loop_
_geom_bond_atom_site_label_1
_geom_bond_atom_site_label_2
_geom_bond_distance
_geom_bond_site_symmetry_2
Fe0 O2 1.991577 1_445
Fe0 O1 2.017334 1_455
Fe0 O1 2.017334 1_545
Fe0 O5 2.049543 1_545
Fe0 O5 2.049543 1_455
Fe0 O4 2.123688 1_554
O0 Ti2 1.953706 1_555
O0 Ti0 2.012660 1_455
O0 Ti0 2.012660 1_545
O1 Ti1 1.866158 1_555
O2 Ti2 1.969890 1_655
O2 Ti2 1.969890 1_565
O3 Ti1 1.980131 1_545
O3 Ti1 1.980131 1_455
O3 Ti0 2.027031 1_445
O4 Ti0 1.971488 1_545
O4 Ti0 1.971488 1_455
O4 Rb0 3.032138 1_565
O4 Rb0 3.032138 1_655
O5 Ti0 1.929457 1_554
O5 Rb0 3.016100 1_654
O5 Rb0 3.016100 1_564
O6 Ti2 2.001402 1_655
O6 Ti2 2.001402 1_565
O6 Ti1 2.096846 1_555
O6 Rb0 3.055113 1_565
O6 Rb0 3.055113 1_655
O7 Ti1 2.017099 1_455
O7 Ti1 2.017099 1_545
O7 Ti2 2.023890 1_555
O7 Rb0 3.075182 1_654
O7 Rb0 3.075182 1_564
