# generated using pymatgen
data_Tm7Mg3Ge8
_symmetry_space_group_name_H-M   'P 1'
_cell_length_a   7.08888600
_cell_length_b   7.70261100
_cell_length_c   14.32700303
_cell_angle_alpha   89.99647275
_cell_angle_beta   90.00000000
_cell_angle_gamma   90.00000000
_symmetry_Int_Tables_number   1
_chemical_formula_structural   Tm7Mg3Ge8
_chemical_formula_sum   'Tm14 Mg6 Ge16'
_cell_volume   782.29636028
_cell_formula_units_Z   2
loop_
 _symmetry_equiv_pos_site_id
 _symmetry_equiv_pos_as_xyz
  1  'x, y, z'
loop_
 _atom_site_type_symbol
 _atom_site_label
 _atom_site_symmetry_multiplicity
 _atom_site_fract_x
 _atom_site_fract_y
 _atom_site_fract_z
 _atom_site_occupancy
  Tm  Tm0  1  0.50729400  0.93362300  0.84443700  1
  Tm  Tm1  1  0.00729400  0.06637700  0.15556300  1
  Tm  Tm2  1  0.49101300  0.56746100  0.34414700  1
  Tm  Tm3  1  0.99101300  0.43253900  0.65585300  1
  Tm  Tm4  1  0.49253700  0.56667700  0.65639000  1
  Tm  Tm5  1  0.99253700  0.43332300  0.34361000  1
  Tm  Tm6  1  0.50805600  0.93351100  0.15514400  1
  Tm  Tm7  1  0.00805600  0.06648900  0.84485600  1
  Tm  Tm8  1  0.33048700  0.07346300  0.37595100  1
  Tm  Tm9  1  0.83048700  0.92653700  0.62404900  1
  Tm  Tm10  1  0.33180400  0.07435300  0.62381100  1
  Tm  Tm11  1  0.83180400  0.92564700  0.37618900  1
  Tm  Tm12  1  0.66871800  0.42866500  0.12203800  1
  Tm  Tm13  1  0.16871800  0.57133500  0.87796200  1
  Mg  Mg0  1  0.83986200  0.76390900  0.00029900  1
  Mg  Mg1  1  0.33986200  0.23609100  0.99970100  1
  Mg  Mg2  1  0.16168000  0.73496500  0.49988400  1
  Mg  Mg3  1  0.66168000  0.26503500  0.50011600  1
  Mg  Mg4  1  0.66975900  0.42650800  0.87502000  1
  Mg  Mg5  1  0.16975900  0.57349200  0.12498000  1
  Ge  Ge0  1  0.71146800  0.11044400  0.00026200  1
  Ge  Ge1  1  0.21146800  0.88955600  0.99973800  1
  Ge  Ge2  1  0.28980800  0.38952400  0.50013500  1
  Ge  Ge3  1  0.78980800  0.61047600  0.49986500  1
  Ge  Ge4  1  0.67110800  0.21728100  0.71419000  1
  Ge  Ge5  1  0.17110800  0.78271900  0.28581000  1
  Ge  Ge6  1  0.32729400  0.28588900  0.21210700  1
  Ge  Ge7  1  0.82729400  0.71411100  0.78789300  1
  Ge  Ge8  1  0.32940400  0.28507300  0.78671500  1
  Ge  Ge9  1  0.82940400  0.71492700  0.21328500  1
  Ge  Ge10  1  0.67248400  0.21568900  0.28621000  1
  Ge  Ge11  1  0.17248400  0.78431100  0.71379000  1
  Ge  Ge12  1  0.47247300  0.65553200  0.00028400  1
  Ge  Ge13  1  0.97247300  0.34446800  0.99971600  1
  Ge  Ge14  1  0.52475200  0.84272800  0.50037300  1
  Ge  Ge15  1  0.02475200  0.15727200  0.49962700  1
loop_
_geom_bond_atom_site_label_1
_geom_bond_atom_site_label_2
_geom_bond_distance
_geom_bond_site_symmetry_2
Ge0 Ge13 2.583172 1_554
Ge0 Mg1 2.806441 1_554
Ge0 Mg0 2.820136 1_545
Ge0 Tm6 2.976605 1_545
Ge0 Tm0 2.989034 1_544
Ge0 Tm12 3.023961 1_555
Ge0 Mg4 3.038655 1_554
Ge0 Tm1 3.076275 1_655
Ge0 Tm7 3.080982 1_654
Ge1 Ge12 2.583172 1_556
Ge1 Mg0 2.806441 1_456
Ge1 Mg1 2.820136 1_565
Ge1 Tm7 2.976605 1_565
Ge1 Tm1 2.989034 1_566
Ge1 Tm13 3.023961 1_555
Ge1 Mg5 3.038655 1_556
Ge1 Tm0 3.076275 1_555
Ge1 Tm6 3.080982 1_556
Ge2 Mg3 2.805138 1_555
Ge2 Mg2 2.811554 1_555
Ge2 Tm2 2.984461 1_555
Ge2 Tm4 2.989865 1_555
Ge2 Tm10 3.020130 1_555
Ge2 Tm8 3.029184 1_555
Ge2 Tm3 3.094116 1_455
Ge2 Tm5 3.095720 1_455
Ge3 Mg2 2.805138 1_655
Ge3 Mg3 2.811554 1_555
Ge3 Tm3 2.984461 1_555
Ge3 Tm5 2.989865 1_555
Ge3 Tm11 3.020130 1_555
Ge3 Tm9 3.029184 1_555
Ge3 Tm2 3.094116 1_555
Ge3 Tm4 3.095720 1_555
Ge4 Ge8 2.686993 1_555
Ge4 Mg4 2.811970 1_555
Ge4 Tm9 2.821347 1_545
Ge4 Tm3 2.930919 1_555
Ge4 Tm10 2.945211 1_555
Ge4 Tm4 3.087198 1_555
Ge4 Mg3 3.089718 1_555
Ge4 Tm0 3.099029 1_545
Ge4 Tm7 3.249418 1_655
Ge5 Ge9 2.686993 1_455
Ge5 Mg5 2.811970 1_555
Ge5 Tm8 2.821347 1_565
Ge5 Tm2 2.930919 1_555
Ge5 Tm11 2.945211 1_455
Ge5 Tm5 3.087198 1_455
Ge5 Mg2 3.089718 1_555
Ge5 Tm1 3.099029 1_565
Ge5 Tm6 3.249418 1_555
Ge6 Mg5 2.777137 1_555
Ge6 Tm8 2.861391 1_555
Ge6 Tm1 2.942980 1_555
Ge6 Tm12 2.955060 1_555
Ge6 Mg1 3.068537 1_554
Ge6 Tm2 3.103224 1_555
Ge6 Tm6 3.110521 1_545
Ge6 Tm5 3.235880 1_455
Ge7 Mg4 2.777137 1_555
Ge7 Tm9 2.861391 1_555
Ge7 Tm0 2.942980 1_555
Ge7 Tm13 2.955060 1_655
Ge7 Mg0 3.068537 1_556
Ge7 Tm3 3.103224 1_555
Ge7 Tm7 3.110521 1_665
Ge7 Tm4 3.235880 1_555
Ge8 Tm13 2.805131 1_555
Ge8 Tm10 2.842957 1_555
Ge8 Mg4 2.934093 1_555
Ge8 Tm7 2.952577 1_555
Ge8 Mg1 3.075558 1_555
Ge8 Tm4 3.086759 1_555
Ge8 Tm0 3.098733 1_545
Ge8 Tm3 3.249517 1_455
Ge9 Tm12 2.805131 1_555
Ge9 Tm11 2.842957 1_555
Ge9 Mg5 2.934093 1_655
Ge9 Tm6 2.952577 1_555
Ge9 Mg0 3.075558 1_555
Ge9 Tm5 3.086759 1_555
Ge9 Tm1 3.098733 1_665
Ge9 Tm2 3.249517 1_555
Ge10 Ge6 2.721642 1_555
Ge10 Tm11 2.815700 1_545
Ge10 Tm12 2.867704 1_555
Ge10 Tm5 2.938393 1_555
Ge10 Tm8 2.954768 1_555
Ge10 Mg3 3.089085 1_555
Ge10 Tm6 3.099896 1_545
Ge10 Tm2 3.112219 1_555
Ge10 Tm1 3.234147 1_655
Ge11 Ge7 2.721642 1_455
Ge11 Tm10 2.815700 1_565
Ge11 Tm13 2.867704 1_555
Ge11 Tm4 2.938393 1_555
Ge11 Tm9 2.954768 1_455
Ge11 Mg2 3.089085 1_555
Ge11 Tm7 3.099896 1_565
Ge11 Tm3 3.112219 1_455
Ge11 Tm0 3.234147 1_555
Ge12 Mg0 2.734896 1_555
Ge12 Tm12 2.833976 1_555
Ge12 Tm13 2.851080 1_554
Ge12 Mg5 2.862822 1_555
Ge12 Mg4 2.879077 1_554
Ge12 Tm6 3.093757 1_555
Ge12 Tm0 3.103886 1_554
Ge13 Mg1 2.734896 1_655
Ge13 Tm13 2.833976 1_655
Ge13 Tm12 2.851080 1_556
Ge13 Mg4 2.862822 1_555
Ge13 Mg5 2.879077 1_656
Ge13 Tm7 3.093757 1_655
Ge13 Tm1 3.103886 1_656
Ge14 Ge3 2.594387 1_555
Ge14 Mg2 2.704324 1_555
Ge14 Tm10 2.860399 1_565
Ge14 Tm8 2.869212 1_565
Ge14 Tm9 2.872943 1_555
Ge14 Tm11 2.882901 1_555
Ge14 Tm2 3.092429 1_555
Ge14 Tm4 3.093404 1_555
Ge15 Ge2 2.594387 1_555
Ge15 Mg3 2.704324 1_455
Ge15 Tm11 2.860399 1_445
Ge15 Tm9 2.869212 1_445
Ge15 Tm8 2.872943 1_555
Ge15 Tm10 2.882901 1_555
Ge15 Tm3 3.092429 1_455
Ge15 Tm5 3.093404 1_455
