# generated using pymatgen
data_Li6Ni3Sn(PO4)6
_symmetry_space_group_name_H-M   'P 1'
_cell_length_a   8.57546400
_cell_length_b   8.64027816
_cell_length_c   8.63988182
_cell_angle_alpha   61.92445628
_cell_angle_beta   62.12556445
_cell_angle_gamma   62.04946600
_symmetry_Int_Tables_number   1
_chemical_formula_structural   Li6Ni3Sn(PO4)6
_chemical_formula_sum   'Li6 Ni3 Sn1 P6 O24'
_cell_volume   473.24439805
_cell_formula_units_Z   1
loop_
 _symmetry_equiv_pos_site_id
 _symmetry_equiv_pos_as_xyz
  1  'x, y, z'
loop_
 _atom_site_type_symbol
 _atom_site_label
 _atom_site_symmetry_multiplicity
 _atom_site_fract_x
 _atom_site_fract_y
 _atom_site_fract_z
 _atom_site_occupancy
  Li  Li0  1  0.97897900  0.99840100  0.98522000  1
  Li  Li1  1  0.25699200  0.65212800  0.84832700  1
  Li  Li2  1  0.52070000  0.51387400  0.49808200  1
  Li  Li3  1  0.69702600  0.35778200  0.16469000  1
  Li  Li4  1  0.35482500  0.16423700  0.69738600  1
  Li  Li5  1  0.16610700  0.69262500  0.35781500  1
  Ni  Ni0  1  0.85927000  0.85330600  0.85547100  1
  Ni  Ni1  1  0.64242600  0.64443700  0.64596100  1
  Ni  Ni2  1  0.35381700  0.35013700  0.35292900  1
  Sn  Sn0  1  0.14494200  0.14438600  0.14859200  1
  P  P0  1  0.25160800  0.95133900  0.55485500  1
  P  P1  1  0.94709400  0.55461400  0.25374600  1
  P  P2  1  0.55638800  0.24906800  0.95014500  1
  P  P3  1  0.74859100  0.04531600  0.45924400  1
  P  P4  1  0.45276500  0.74544000  0.04238700  1
  P  P5  1  0.05071200  0.46135900  0.75152200  1
  O  O0  1  0.87754100  0.50620900  0.71358100  1
  O  O1  1  0.69797400  0.88394300  0.49291700  1
  O  O2  1  0.94380400  0.73672400  0.08724100  1
  O  O3  1  0.45483200  0.69965500  0.89038500  1
  O  O4  1  0.98239600  0.39194200  0.19480800  1
  O  O5  1  0.75805900  0.57231200  0.40659800  1
  O  O6  1  0.74546700  0.09472900  0.92406600  1
  O  O7  1  0.55147500  0.41410700  0.76867200  1
  O  O8  1  0.81416100  0.01039700  0.61209800  1
  O  O9  1  0.40266300  0.75830700  0.57031400  1
  O  O10  1  0.89735900  0.08279500  0.25754700  1
  O  O11  1  0.61591700  0.80283500  0.99252700  1
  O  O12  1  0.39557600  0.18251400  0.99265600  1
  O  O13  1  0.09855400  0.92729300  0.74697800  1
  O  O14  1  0.58550000  0.23307800  0.44680100  1
  O  O15  1  0.18405000  0.99058900  0.39763200  1
  O  O16  1  0.44737500  0.58019600  0.22987900  1
  O  O17  1  0.25307800  0.89654600  0.09180400  1
  O  O18  1  0.23404100  0.44247000  0.58284500  1
  O  O19  1  0.04523900  0.60524300  0.81231700  1
  O  O20  1  0.52684000  0.30239400  0.11102000  1
  O  O21  1  0.08493200  0.25745200  0.90044400  1
  O  O22  1  0.31269200  0.10772400  0.52134000  1
  O  O23  1  0.10823400  0.51909000  0.31216000  1
loop_
_geom_bond_atom_site_label_1
_geom_bond_atom_site_label_2
_geom_bond_distance
_geom_bond_site_symmetry_2
Li0 O6 1.998710 1_565
Li0 O13 2.071726 1_655
Li0 O2 2.120073 1_556
Li0 O21 2.472422 1_665
Li0 O10 2.480765 1_566
Li0 O17 2.543524 1_656
Li1 O9 2.089521 1_555
Li1 O13 2.095248 1_555
Li1 O3 2.132846 1_555
Li1 O19 2.212422 1_555
Li1 O7 2.432902 1_555
Li1 O2 2.530678 1_456
Li2 O5 2.026373 1_555
Li2 O9 2.126127 1_555
Li2 O7 2.178321 1_555
Li2 O16 2.422431 1_555
Li2 O14 2.430863 1_555
Li2 O18 2.504576 1_555
Li3 O20 2.017515 1_555
Li3 O14 2.081062 1_555
Li3 O16 2.151318 1_555
Li3 O10 2.215493 1_555
Li4 O22 2.015142 1_555
Li4 O18 2.053387 1_555
Li4 O14 2.200083 1_555
Li4 O21 2.206595 1_555
Li5 O23 2.021728 1_555
Li5 O16 2.074724 1_555
Li5 O18 2.171259 1_555
Li5 O17 2.181798 1_555
Ni0 O8 1.998826 1_565
Ni0 O11 2.000927 1_555
Ni0 O19 2.065956 1_655
Ni0 O2 2.079487 1_556
Ni0 O13 2.089253 1_655
Ni0 O6 2.090307 1_565
Ni1 O1 2.004300 1_555
Ni1 O0 2.005050 1_555
Ni1 O3 2.080250 1_555
Ni1 O5 2.089209 1_555
Ni1 O9 2.092272 1_555
Ni1 O7 2.094929 1_555
Ni2 O22 1.993116 1_555
Ni2 O23 2.004494 1_555
Ni2 O20 2.019420 1_555
Ni2 O16 2.105575 1_555
Ni2 O18 2.110236 1_555
Ni2 O14 2.116362 1_555
O0 P5 1.503024 1_655
O1 P3 1.511484 1_565
O2 P1 1.553014 1_555
O3 P4 1.530421 1_556
O4 P1 1.567526 1_555
O4 Sn0 2.041102 1_655
O5 P1 1.533353 1_555
O6 P2 1.540267 1_555
O7 P2 1.547411 1_555
O8 P3 1.520389 1_555
O9 P0 1.550602 1_555
O10 P3 1.595766 1_555
O10 Sn0 2.096621 1_655
O11 P4 1.508223 1_556
O12 P2 1.561499 1_555
O12 Sn0 2.020263 1_556
O13 P0 1.554023 1_555
O14 P3 1.564921 1_555
O15 P0 1.553687 1_555
O15 Sn0 2.018336 1_565
O16 P4 1.574666 1_555
O17 P4 1.601394 1_555
O17 Sn0 2.094826 1_565
O18 P5 1.569418 1_555
O19 P5 1.536408 1_555
O20 P2 1.540283 1_554
O21 P5 1.606327 1_555
O21 Sn0 2.098745 1_556
O22 P0 1.528853 1_545
O23 P1 1.538554 1_455
