# generated using pymatgen
data_K2PtI5O2
_symmetry_space_group_name_H-M   'P 1'
_cell_length_a   8.12887758
_cell_length_b   8.12887758
_cell_length_c   11.67197500
_cell_angle_alpha   90.00000000
_cell_angle_beta   90.00000000
_cell_angle_gamma   108.29758301
_symmetry_Int_Tables_number   1
_chemical_formula_structural   K2PtI5O2
_chemical_formula_sum   'K4 Pt2 I10 O4'
_cell_volume   732.27204469
_cell_formula_units_Z   2
loop_
 _symmetry_equiv_pos_site_id
 _symmetry_equiv_pos_as_xyz
  1  'x, y, z'
loop_
 _atom_site_type_symbol
 _atom_site_label
 _atom_site_symmetry_multiplicity
 _atom_site_fract_x
 _atom_site_fract_y
 _atom_site_fract_z
 _atom_site_occupancy
  K  K0  1  0.53183400  0.93417900  0.25968000  1
  K  K1  1  0.06582100  0.46816600  0.75968000  1
  K  K2  1  0.46816600  0.06582100  0.75968000  1
  K  K3  1  0.93417900  0.53183400  0.25968000  1
  Pt  Pt0  1  0.99876100  0.99876100  0.53306500  1
  Pt  Pt1  1  0.00123900  0.00123900  0.03306500  1
  I  I0  1  0.20261400  0.79793900  0.51715700  1
  I  I1  1  0.20206100  0.79738600  0.01715700  1
  I  I2  1  0.79793900  0.20261400  0.51715700  1
  I  I3  1  0.79738600  0.20206100  0.01715700  1
  I  I4  1  0.28244600  0.28244600  0.53869300  1
  I  I5  1  0.71632700  0.71632700  0.52690300  1
  I  I6  1  0.28367300  0.28367300  0.02690300  1
  I  I7  1  0.71755400  0.71755400  0.03869300  1
  I  I8  1  0.01131800  0.01131800  0.28299700  1
  I  I9  1  0.98868200  0.98868200  0.78299700  1
  O  O0  1  0.72605900  0.23844500  0.16773400  1
  O  O1  1  0.76155500  0.27394100  0.66773400  1
  O  O2  1  0.27394100  0.76155500  0.66773400  1
  O  O3  1  0.23844500  0.72605900  0.16773400  1
loop_
_geom_bond_atom_site_label_1
_geom_bond_atom_site_label_2
_geom_bond_distance
_geom_bond_site_symmetry_2
K0 O3 2.677363 1_555
K0 O0 2.703683 1_565
K1 O2 2.677363 1_555
K1 O1 2.703683 1_455
K2 O1 2.677363 1_555
K2 O2 2.703683 1_545
K3 O0 2.677363 1_555
K3 O3 2.703683 1_655
I0 O2 1.902694 1_555
I0 Pt0 2.672813 1_455
I1 O3 1.902694 1_555
I1 Pt1 2.672813 1_565
I2 O1 1.902694 1_555
I2 Pt0 2.672813 1_545
I3 O0 1.902694 1_555
I3 Pt1 2.672813 1_655
I4 Pt0 2.702013 1_445
I4 K1 3.701667 1_555
I4 K2 3.701667 1_555
I5 Pt0 2.690264 1_555
I6 Pt1 2.690264 1_555
I7 Pt1 2.702013 1_665
I7 K3 3.701667 1_555
I7 K0 3.701667 1_555
I8 Pt1 2.918778 1_555
I8 Pt0 2.921235 1_445
I8 K3 3.758250 1_445
I8 K0 3.758250 1_445
I9 Pt0 2.918778 1_555
I9 Pt1 2.921235 1_666
I9 K2 3.758250 1_665
I9 K1 3.758250 1_665
