# generated using pymatgen
data_Ba6Nb3HO14
_symmetry_space_group_name_H-M   'P 1'
_cell_length_a   6.14856500
_cell_length_b   10.67553100
_cell_length_c   12.75860800
_cell_angle_alpha   90.00000000
_cell_angle_beta   90.00000000
_cell_angle_gamma   90.00000000
_symmetry_Int_Tables_number   1
_chemical_formula_structural   Ba6Nb3HO14
_chemical_formula_sum   'Ba12 Nb6 H2 O28'
_cell_volume   837.46477455
_cell_formula_units_Z   2
loop_
 _symmetry_equiv_pos_site_id
 _symmetry_equiv_pos_as_xyz
  1  'x, y, z'
loop_
 _atom_site_type_symbol
 _atom_site_label
 _atom_site_symmetry_multiplicity
 _atom_site_fract_x
 _atom_site_fract_y
 _atom_site_fract_z
 _atom_site_occupancy
  Ba  Ba0  1  0.00000000  0.49962000  0.49524400  1
  Ba  Ba1  1  0.50000000  0.99962000  0.50475600  1
  Ba  Ba2  1  0.00000000  0.17571600  0.64337500  1
  Ba  Ba3  1  0.50000000  0.67571600  0.35662500  1
  Ba  Ba4  1  0.00000000  0.45909700  0.83450600  1
  Ba  Ba5  1  0.50000000  0.95909700  0.16549400  1
  Ba  Ba6  1  0.00000000  0.17774800  0.32801000  1
  Ba  Ba7  1  0.50000000  0.67774700  0.67199000  1
  Ba  Ba8  1  0.50000000  0.05795100  0.83208900  1
  Ba  Ba9  1  0.00000000  0.55795100  0.16791100  1
  Ba  Ba10  1  0.00000000  0.83362700  0.91278000  1
  Ba  Ba11  1  0.50000000  0.33362700  0.08722000  1
  Nb  Nb0  1  0.00000000  0.83813400  0.64106700  1
  Nb  Nb1  1  0.50000000  0.33813400  0.35893300  1
  Nb  Nb2  1  0.00000000  0.84563000  0.40314000  1
  Nb  Nb3  1  0.50000000  0.34563000  0.59686000  1
  Nb  Nb4  1  0.50000000  0.65450500  0.00714000  1
  Nb  Nb5  1  0.00000000  0.15450500  0.99286000  1
  H  H0  1  0.50000000  0.33677900  0.82436000  1
  H  H1  1  0.00000000  0.83677900  0.17564000  1
  O  O0  1  0.75932200  0.91957900  0.33150400  1
  O  O1  1  0.24067800  0.91957900  0.33150400  1
  O  O2  1  0.74067800  0.41957900  0.66849600  1
  O  O3  1  0.25932200  0.41957900  0.66849600  1
  O  O4  1  0.77360600  0.76839000  0.52663900  1
  O  O5  1  0.22639400  0.76839000  0.52663900  1
  O  O6  1  0.72639400  0.26839000  0.47336100  1
  O  O7  1  0.27360600  0.26839000  0.47336100  1
  O  O8  1  0.77125700  0.92664200  0.71170000  1
  O  O9  1  0.22874300  0.92664200  0.71170000  1
  O  O10  1  0.72874300  0.42664200  0.28830000  1
  O  O11  1  0.27125700  0.42664200  0.28830000  1
  O  O12  1  0.00000000  0.68885600  0.72790400  1
  O  O13  1  0.50000000  0.18885600  0.27209600  1
  O  O14  1  0.00000000  0.98673100  0.51595900  1
  O  O15  1  0.50000000  0.48673100  0.48404100  1
  O  O16  1  0.00000000  0.67886900  0.34660700  1
  O  O17  1  0.50000000  0.17886900  0.65339300  1
  O  O18  1  0.25683900  0.55015800  0.99260400  1
  O  O19  1  0.74316100  0.55015800  0.99260400  1
  O  O20  1  0.24316100  0.05015800  0.00739600  1
  O  O21  1  0.75683900  0.05015800  0.00739600  1
  O  O22  1  0.00000000  0.20980300  0.85344900  1
  O  O23  1  0.50000000  0.70980300  0.14655100  1
  O  O24  1  0.50000000  0.78060200  0.90354500  1
  O  O25  1  0.00000000  0.28060200  0.09645500  1
  O  O26  1  0.50000000  0.30298400  0.89556300  1
  O  O27  1  0.00000000  0.80298400  0.10443700  1
loop_
_geom_bond_atom_site_label_1
_geom_bond_atom_site_label_2
_geom_bond_distance
_geom_bond_site_symmetry_2
Ba0 O16 2.694090 1_555
Ba0 O3 2.856316 1_555
Ba0 O2 2.856316 1_455
Ba0 O6 3.000256 1_455
Ba0 O7 3.000256 1_555
Ba0 O15 3.080678 1_555
Ba0 O15 3.080678 1_455
Ba0 O5 3.214152 1_555
Ba0 O4 3.214152 1_455
Ba0 O11 3.218685 1_555
Ba0 O10 3.218685 1_455
Ba1 O17 2.694090 1_565
Ba1 O1 2.856316 1_555
Ba1 O0 2.856316 1_555
Ba1 O4 3.000256 1_555
Ba1 O5 3.000256 1_555
Ba1 O14 3.080678 1_555
Ba1 O14 3.080678 1_655
Ba1 O6 3.214152 1_565
Ba1 O7 3.214152 1_565
Ba1 O9 3.218685 1_555
Ba1 O8 3.218685 1_555
Ba2 O14 2.590967 1_545
Ba2 O22 2.704842 1_555
Ba2 O6 2.917886 1_455
Ba2 O7 2.917886 1_555
Ba2 O3 3.069616 1_555
Ba2 O2 3.069616 1_455
Ba2 O17 3.077122 1_455
Ba2 O17 3.077122 1_555
Ba2 O9 3.131814 1_545
Ba2 O8 3.131814 1_445
Ba3 O15 2.590967 1_555
Ba3 O23 2.704842 1_555
Ba3 O4 2.917886 1_555
Ba3 O5 2.917886 1_555
Ba3 O0 3.069616 1_555
Ba3 O1 3.069616 1_555
Ba3 O16 3.077122 1_655
Ba3 O16 3.077122 1_555
Ba3 O10 3.131814 1_555
Ba3 O11 3.131814 1_555
Ba4 O22 2.672297 1_555
Ba4 O2 2.684481 1_455
Ba4 O3 2.684481 1_555
Ba4 O18 2.740001 1_555
Ba4 O19 2.740001 1_455
Ba4 O12 2.804653 1_555
Ba5 O23 2.672297 1_555
Ba5 O1 2.684481 1_555
Ba5 O0 2.684481 1_555
Ba5 O21 2.740001 1_565
Ba5 O20 2.740001 1_565
Ba5 O13 2.804653 1_565
Ba6 O6 2.684309 1_455
Ba6 O7 2.684309 1_555
Ba6 O0 3.128563 1_445
Ba6 O1 3.128563 1_545
Ba6 O14 3.147796 1_545
Ba6 O25 3.151770 1_555
Ba6 O13 3.158195 1_555
Ba6 O13 3.158195 1_455
Ba6 O10 3.177803 1_455
Ba6 O11 3.177803 1_555
Ba7 O4 2.684312 1_555
Ba7 O5 2.684312 1_555
Ba7 O2 3.128553 1_555
Ba7 O3 3.128553 1_555
Ba7 O15 3.147789 1_555
Ba7 O24 3.151774 1_555
Ba7 O12 3.158195 1_655
Ba7 O12 3.158195 1_555
Ba7 O8 3.177812 1_555
Ba7 O9 3.177812 1_555
Ba8 O17 2.619986 1_555
Ba8 O8 2.665709 1_545
Ba8 O9 2.665709 1_545
Ba8 O26 2.738348 1_555
Ba8 O20 2.739247 1_556
Ba8 O21 2.739247 1_556
Ba8 O24 3.098028 1_545
Ba9 O16 2.619986 1_555
Ba9 O11 2.665709 1_555
Ba9 O10 2.665709 1_455
Ba9 O27 2.738348 1_555
Ba9 O18 2.739247 1_554
Ba9 O19 2.739247 1_454
Ba9 O25 3.098028 1_555
Ba10 O27 2.467061 1_556
Ba10 O12 2.819990 1_555
Ba10 O20 3.005989 1_566
Ba10 O21 3.005989 1_466
Ba10 O9 3.089642 1_555
Ba10 O8 3.089642 1_455
Ba10 O24 3.128183 1_455
Ba10 O24 3.128183 1_555
Ba11 O26 2.467061 1_554
Ba11 O13 2.819990 1_555
Ba11 O18 3.005989 1_554
Ba11 O19 3.005989 1_554
Ba11 O10 3.089642 1_555
Ba11 O11 3.089642 1_555
Ba11 O25 3.128183 1_555
Ba11 O25 3.128183 1_655
Nb0 O9 1.919109 1_555
Nb0 O8 1.919109 1_455
Nb0 O12 1.940906 1_555
Nb0 O4 2.150221 1_455
Nb0 O5 2.150221 1_555
Nb0 O14 2.250418 1_555
Nb1 O11 1.919109 1_555
Nb1 O10 1.919109 1_555
Nb1 O13 1.940906 1_555
Nb1 O7 2.150221 1_555
Nb1 O6 2.150221 1_555
Nb1 O15 2.250418 1_555
Nb2 O0 1.910093 1_455
Nb2 O1 1.910093 1_555
Nb2 O16 1.920828 1_555
Nb2 O14 2.083491 1_555
Nb2 O5 2.258393 1_555
Nb2 O4 2.258393 1_455
Nb3 O2 1.910093 1_555
Nb3 O3 1.910093 1_555
Nb3 O17 1.920828 1_555
Nb3 O15 2.083491 1_555
Nb3 O6 2.258393 1_555
Nb3 O7 2.258393 1_555
Nb4 O19 1.873659 1_554
Nb4 O18 1.873659 1_554
Nb4 O23 1.874096 1_555
Nb4 O24 1.886555 1_554
Nb5 O21 1.873659 1_456
Nb5 O20 1.873659 1_556
Nb5 O22 1.874096 1_555
Nb5 O25 1.886555 1_556
H0 O26 0.977469 1_555
H1 O27 0.977469 1_555
