# generated using pymatgen
data_Y3Ga8Rh3
_symmetry_space_group_name_H-M   'P 1'
_cell_length_a   8.17850664
_cell_length_b   8.17850664
_cell_length_c   8.17850664
_cell_angle_alpha   150.07435315
_cell_angle_beta   105.89536918
_cell_angle_gamma   81.92003617
_symmetry_Int_Tables_number   1
_chemical_formula_structural   Y3Ga8Rh3
_chemical_formula_sum   'Y3 Ga8 Rh3'
_cell_volume   257.07337384
_cell_formula_units_Z   1
loop_
 _symmetry_equiv_pos_site_id
 _symmetry_equiv_pos_as_xyz
  1  'x, y, z'
loop_
 _atom_site_type_symbol
 _atom_site_label
 _atom_site_symmetry_multiplicity
 _atom_site_fract_x
 _atom_site_fract_y
 _atom_site_fract_z
 _atom_site_occupancy
  Y  Y0  1  0.50000000  0.50000000  0.00000000  1
  Y  Y1  1  0.17336000  0.17336000  0.00000000  1
  Y  Y2  1  0.82664000  0.82664000  0.00000000  1
  Ga  Ga0  1  0.09276700  0.37693500  0.71583300  1
  Ga  Ga1  1  0.90723300  0.62306500  0.28416700  1
  Ga  Ga2  1  0.66110200  0.37693500  0.28416700  1
  Ga  Ga3  1  0.33889800  0.62306500  0.71583300  1
  Ga  Ga4  1  0.79746700  0.16735700  0.63011000  1
  Ga  Ga5  1  0.20253300  0.83264300  0.36989000  1
  Ga  Ga6  1  0.53724600  0.16735700  0.36989000  1
  Ga  Ga7  1  0.46275400  0.83264300  0.63011000  1
  Rh  Rh0  1  0.00000000  0.50000000  0.50000000  1
  Rh  Rh1  1  0.78048600  0.00000000  0.78048600  1
  Rh  Rh2  1  0.21951400  0.00000000  0.21951400  1
loop_
_geom_bond_atom_site_label_1
_geom_bond_atom_site_label_2
_geom_bond_distance
_geom_bond_site_symmetry_2
Ga0 Rh2 2.602134 1_566
Ga0 Rh2 2.602137 1_555
Ga0 Rh0 2.614542 1_555
Ga0 Ga5 2.657763 1_556
Ga0 Ga5 2.657767 1_545
Ga0 Ga4 2.723137 1_455
Ga0 Y2 3.061032 1_456
Ga0 Y2 3.061035 1_445
Ga0 Y0 3.186654 1_556
Ga1 Rh1 2.602134 1_554
Ga1 Rh1 2.602137 1_565
Ga1 Rh0 2.614542 1_655
Ga1 Ga4 2.657763 1_554
Ga1 Ga4 2.657767 1_565
Ga1 Ga5 2.723137 1_655
Ga1 Y1 3.061032 1_655
Ga1 Y1 3.061035 1_666
Ga1 Y0 3.186654 1_555
Ga2 Rh1 2.602132 1_565
Ga2 Rh1 2.602132 1_554
Ga2 Rh0 2.614543 1_655
Ga2 Ga7 2.657758 1_555
Ga2 Ga7 2.657761 1_544
Ga2 Ga6 2.723149 1_555
Ga2 Y2 3.061039 1_556
Ga2 Y2 3.061039 1_545
Ga2 Y0 3.186647 1_555
Ga3 Rh2 2.602132 1_566
Ga3 Rh2 2.602132 1_555
Ga3 Rh0 2.614543 1_555
Ga3 Ga6 2.657758 1_555
Ga3 Ga6 2.657761 1_566
Ga3 Ga7 2.723149 1_555
Ga3 Y1 3.061039 1_555
Ga3 Y1 3.061039 1_566
Ga3 Y0 3.186647 1_556
Ga4 Rh1 2.543628 1_555
Ga4 Ga6 2.564686 1_555
Ga4 Y2 3.158236 1_545
Ga4 Y2 3.158236 1_556
Ga4 Y0 3.221312 1_545
Ga4 Y0 3.221312 1_556
Ga5 Rh2 2.543628 1_565
Ga5 Ga7 2.564686 1_555
Ga5 Y1 3.158236 1_566
Ga5 Y1 3.158236 1_555
Ga5 Y0 3.221312 1_555
Ga5 Y0 3.221312 1_566
Ga6 Rh2 2.543620 1_555
Ga6 Y2 3.158240 1_556
Ga6 Y2 3.158243 1_545
Ga6 Y0 3.221308 1_556
Ga6 Y0 3.221311 1_545
Ga7 Rh1 2.543620 1_565
Ga7 Y1 3.158240 1_555
Ga7 Y1 3.158243 1_566
Ga7 Y0 3.221308 1_555
Ga7 Y0 3.221311 1_566
Rh0 Y2 3.007412 1_456
Rh0 Y1 3.007412 1_566
Rh0 Y1 3.007412 1_555
Rh0 Y2 3.007412 1_445
Rh1 Y1 3.044051 1_656
Rh1 Y2 3.044051 1_546
Rh1 Y0 3.478647 1_545
Rh1 Y0 3.478647 1_556
Rh2 Y1 3.044051 1_555
Rh2 Y2 3.044051 1_445
Rh2 Y0 3.478647 1_556
Rh2 Y0 3.478647 1_545
