# generated using pymatgen
data_CaAl2Si2(H2O5)2
_symmetry_space_group_name_H-M   'P 1'
_cell_length_a   6.05315136
_cell_length_b   6.05315136
_cell_length_c   13.88323600
_cell_angle_alpha   90.00000000
_cell_angle_beta   90.00000000
_cell_angle_gamma   58.29232380
_symmetry_Int_Tables_number   1
_chemical_formula_structural   CaAl2Si2(H2O5)2
_chemical_formula_sum   'Ca2 Al4 Si4 H8 O20'
_cell_volume   432.76385864
_cell_formula_units_Z   2
loop_
 _symmetry_equiv_pos_site_id
 _symmetry_equiv_pos_as_xyz
  1  'x, y, z'
loop_
 _atom_site_type_symbol
 _atom_site_label
 _atom_site_symmetry_multiplicity
 _atom_site_fract_x
 _atom_site_fract_y
 _atom_site_fract_z
 _atom_site_occupancy
  Ca  Ca0  1  0.13332500  0.13332500  0.25000000  1
  Ca  Ca1  1  0.86667500  0.86667500  0.75000000  1
  Al  Al0  1  0.00000000  0.50000000  0.50000000  1
  Al  Al1  1  0.50000000  0.00000000  0.50000000  1
  Al  Al2  1  0.00000000  0.50000000  0.00000000  1
  Al  Al3  1  0.50000000  0.00000000  0.00000000  1
  Si  Si0  1  0.78693500  0.78693500  0.35033800  1
  Si  Si1  1  0.21306500  0.21306500  0.64966200  1
  Si  Si2  1  0.78693500  0.78693500  0.14966200  1
  Si  Si3  1  0.21306500  0.21306500  0.85033800  1
  H  H0  1  0.54765600  0.54765600  0.30483600  1
  H  H1  1  0.45234400  0.45234400  0.69516400  1
  H  H2  1  0.54765600  0.54765600  0.19516400  1
  H  H3  1  0.45234400  0.45234400  0.80483600  1
  H  H4  1  0.41376600  0.41376600  0.42031100  1
  H  H5  1  0.58623400  0.58623400  0.57968900  1
  H  H6  1  0.41376600  0.41376600  0.07968900  1
  H  H7  1  0.58623400  0.58623400  0.92031100  1
  O  O0  1  0.87497900  0.87497900  0.25000000  1
  O  O1  1  0.12502100  0.12502100  0.75000000  1
  O  O2  1  0.93756300  0.47073400  0.36113200  1
  O  O3  1  0.52926600  0.06243700  0.63886800  1
  O  O4  1  0.93756300  0.47073400  0.13886800  1
  O  O5  1  0.52926600  0.06243700  0.86113200  1
  O  O6  1  0.06243700  0.52926600  0.63886800  1
  O  O7  1  0.47073400  0.93756300  0.36113200  1
  O  O8  1  0.06243700  0.52926600  0.86113200  1
  O  O9  1  0.47073400  0.93756300  0.13886800  1
  O  O10  1  0.85947500  0.85947500  0.45631300  1
  O  O11  1  0.14052500  0.14052500  0.54368700  1
  O  O12  1  0.85947500  0.85947500  0.04368700  1
  O  O13  1  0.14052500  0.14052500  0.95631300  1
  O  O14  1  0.35730100  0.35730100  0.47507300  1
  O  O15  1  0.64269900  0.64269900  0.52492700  1
  O  O16  1  0.35730100  0.35730100  0.02492700  1
  O  O17  1  0.64269900  0.64269900  0.97507300  1
  O  O18  1  0.48911700  0.48911700  0.25000000  1
  O  O19  1  0.51088300  0.51088300  0.75000000  1
loop_
_geom_bond_atom_site_label_1
_geom_bond_atom_site_label_2
_geom_bond_distance
_geom_bond_site_symmetry_2
Ca0 O4 2.326359 1_455
Ca0 O2 2.326359 1_455
Ca0 O9 2.326359 1_545
Ca0 O7 2.326359 1_545
Ca0 O0 2.731597 1_445
Ca1 O8 2.326359 1_655
Ca1 O5 2.326359 1_565
Ca1 O6 2.326359 1_655
Ca1 O3 2.326359 1_565
Ca1 O1 2.731597 1_665
Al0 O14 1.892034 1_555
Al0 O15 1.892034 1_455
Al0 O10 1.969919 1_455
Al0 O11 1.969919 1_555
Al0 O6 1.990362 1_555
Al0 O2 1.990362 1_455
Al1 O14 1.892034 1_555
Al1 O15 1.892034 1_545
Al1 O10 1.969919 1_545
Al1 O11 1.969919 1_555
Al1 O7 1.990362 1_545
Al1 O3 1.990362 1_555
Al2 O17 1.892034 1_454
Al2 O16 1.892034 1_555
Al2 O12 1.969919 1_455
Al2 O13 1.969919 1_554
Al2 O4 1.990362 1_455
Al2 O8 1.990362 1_554
Al3 O17 1.892034 1_544
Al3 O16 1.892034 1_555
Al3 O12 1.969919 1_545
Al3 O13 1.969919 1_554
Al3 O5 1.990362 1_554
Al3 O9 1.990362 1_545
H0 O18 0.981166 1_555
H1 O19 0.981166 1_555
H2 O18 0.981166 1_555
H3 O19 0.981166 1_555
H4 O14 0.966674 1_555
H5 O15 0.966674 1_555
H6 O16 0.966674 1_555
H7 O17 0.966674 1_555
O0 Si0 1.675445 1_555
O0 Si2 1.675445 1_555
O1 Si3 1.675445 1_555
O1 Si1 1.675445 1_555
O2 Si0 1.637921 1_555
O3 Si1 1.637921 1_555
O4 Si2 1.637921 1_555
O5 Si3 1.637921 1_555
O6 Si1 1.637921 1_555
O7 Si0 1.637921 1_555
O8 Si3 1.637921 1_555
O9 Si2 1.637921 1_555
O10 Si0 1.659197 1_555
O11 Si1 1.659197 1_555
O12 Si2 1.659197 1_555
O13 Si3 1.659197 1_555
