# generated using pymatgen
data_La6Ni20As13
_symmetry_space_group_name_H-M   'P 1'
_cell_length_a   13.25817804
_cell_length_b   13.25817804
_cell_length_c   4.02755000
_cell_angle_alpha   90.00000000
_cell_angle_beta   90.00000000
_cell_angle_gamma   120.00000019
_symmetry_Int_Tables_number   1
_chemical_formula_structural   La6Ni20As13
_chemical_formula_sum   'La6 Ni20 As13'
_cell_volume   613.11122146
_cell_formula_units_Z   1
loop_
 _symmetry_equiv_pos_site_id
 _symmetry_equiv_pos_as_xyz
  1  'x, y, z'
loop_
 _atom_site_type_symbol
 _atom_site_label
 _atom_site_symmetry_multiplicity
 _atom_site_fract_x
 _atom_site_fract_y
 _atom_site_fract_z
 _atom_site_occupancy
  La  La0  1  0.53396600  0.81680100  0.00000000  1
  La  La1  1  0.28283500  0.46603400  0.00000000  1
  La  La2  1  0.18319900  0.71716500  0.00000000  1
  La  La3  1  0.81491600  0.27917700  0.50000000  1
  La  La4  1  0.46426100  0.18508400  0.50000000  1
  La  La5  1  0.72082300  0.53573900  0.50000000  1
  Ni  Ni0  1  0.80389700  0.91527300  0.00000000  1
  Ni  Ni1  1  0.11137600  0.19610300  0.00000000  1
  Ni  Ni2  1  0.08472700  0.88862400  0.00000000  1
  Ni  Ni3  1  0.33333300  0.66666700  0.50000000  1
  Ni  Ni4  1  0.93962300  0.07600800  0.50000000  1
  Ni  Ni5  1  0.13638600  0.06037700  0.50000000  1
  Ni  Ni6  1  0.92399200  0.86361400  0.50000000  1
  Ni  Ni7  1  0.66666700  0.33333300  0.00000000  1
  Ni  Ni8  1  0.56142400  0.58610600  0.00000000  1
  Ni  Ni9  1  0.02468200  0.43857600  0.00000000  1
  Ni  Ni10  1  0.41389400  0.97531800  0.00000000  1
  Ni  Ni11  1  0.69380800  0.76471000  0.50000000  1
  Ni  Ni12  1  0.07090300  0.30619200  0.50000000  1
  Ni  Ni13  1  0.23529000  0.92909700  0.50000000  1
  Ni  Ni14  1  0.97442800  0.56352000  0.50000000  1
  Ni  Ni15  1  0.58909200  0.02557200  0.50000000  1
  Ni  Ni16  1  0.43648000  0.41090800  0.50000000  1
  Ni  Ni17  1  0.75819800  0.07752200  0.00000000  1
  Ni  Ni18  1  0.31932400  0.24180200  0.00000000  1
  Ni  Ni19  1  0.92247800  0.68067600  0.00000000  1
  As  As0  1  0.48275600  0.61572200  0.50000000  1
  As  As1  1  0.13296500  0.51724400  0.50000000  1
  As  As2  1  0.38427800  0.86703500  0.50000000  1
  As  As3  1  0.73013200  0.96316800  0.50000000  1
  As  As4  1  0.23303700  0.26986800  0.50000000  1
  As  As5  1  0.03683200  0.76696300  0.50000000  1
  As  As6  1  0.86589400  0.47855500  0.00000000  1
  As  As7  1  0.61266200  0.13410600  0.00000000  1
  As  As8  1  0.52144500  0.38733800  0.00000000  1
  As  As9  1  0.95804600  0.23364300  0.00000000  1
  As  As10  1  0.27559700  0.04195400  0.00000000  1
  As  As11  1  0.76635700  0.72440300  0.00000000  1
  As  As12  1  0.00000000  0.00000000  0.00000000  1
loop_
_geom_bond_atom_site_label_1
_geom_bond_atom_site_label_2
_geom_bond_distance
_geom_bond_site_symmetry_2
La0 Ni3 3.130231 1_555
La0 Ni3 3.130231 1_554
La0 Ni0 3.136865 1_555
La0 Ni15 3.198104 1_565
La0 Ni15 3.198104 1_564
La0 Ni10 3.208873 1_555
La0 Ni11 3.238352 1_554
La0 Ni11 3.238352 1_555
La0 Ni17 3.241982 1_565
La0 Ni8 3.255917 1_555
La1 Ni3 3.130234 1_554
La1 Ni3 3.130234 1_555
La1 Ni1 3.136865 1_555
La1 Ni16 3.198104 1_554
La1 Ni16 3.198104 1_555
La1 Ni8 3.208873 1_555
La1 Ni12 3.238345 1_555
La1 Ni12 3.238345 1_554
La1 Ni18 3.241982 1_555
La1 Ni9 3.255917 1_555
La2 Ni3 3.130224 1_554
La2 Ni3 3.130224 1_555
La2 Ni2 3.136865 1_555
La2 Ni14 3.198104 1_455
La2 Ni14 3.198104 1_454
La2 Ni9 3.208873 1_555
La2 Ni13 3.238342 1_555
La2 Ni13 3.238342 1_554
La2 Ni19 3.241982 1_455
La2 Ni10 3.255917 1_555
La3 Ni17 3.123829 1_556
La3 Ni17 3.123829 1_555
La3 Ni7 3.137725 1_556
La3 Ni7 3.137725 1_555
La3 Ni15 3.194145 1_555
La3 Ni9 3.221592 1_655
La3 Ni9 3.221592 1_656
La3 Ni12 3.229766 1_655
La3 Ni14 3.272888 1_555
La4 Ni18 3.123829 1_556
La4 Ni18 3.123829 1_555
La4 Ni7 3.137733 1_555
La4 Ni7 3.137733 1_556
La4 Ni16 3.194145 1_555
La4 Ni10 3.221592 1_545
La4 Ni10 3.221592 1_546
La4 Ni13 3.229760 1_545
La4 Ni15 3.272888 1_555
La5 Ni19 3.123829 1_555
La5 Ni19 3.123829 1_556
La5 Ni7 3.137735 1_555
La5 Ni7 3.137735 1_556
La5 Ni14 3.194145 1_555
La5 Ni8 3.221592 1_556
La5 Ni8 3.221592 1_555
La5 Ni11 3.229753 1_555
La5 Ni16 3.272888 1_555
As0 Ni8 2.388899 1_556
As0 Ni8 2.388899 1_555
As0 Ni3 2.391438 1_555
As0 Ni16 2.466601 1_555
As0 Ni11 2.490850 1_555
As0 La1 3.123968 1_555
As0 La1 3.123968 1_556
As0 La0 3.132645 1_555
As0 La0 3.132645 1_556
As1 Ni9 2.388894 1_556
As1 Ni9 2.388894 1_555
As1 Ni3 2.391438 1_555
As1 Ni14 2.466588 1_455
As1 Ni12 2.490856 1_555
As1 La2 3.123965 1_555
As1 La2 3.123965 1_556
As1 La1 3.132655 1_556
As1 La1 3.132655 1_555
As2 Ni10 2.388893 1_555
As2 Ni10 2.388893 1_556
As2 Ni3 2.391438 1_555
As2 Ni15 2.466597 1_565
As2 Ni13 2.490831 1_555
As2 La0 3.123975 1_556
As2 La0 3.123975 1_555
As2 La2 3.132647 1_556
As2 La2 3.132647 1_555
As3 Ni15 2.393386 1_565
As3 Ni4 2.407752 1_565
As3 Ni11 2.426508 1_555
As3 Ni17 2.434796 1_566
As3 Ni17 2.434796 1_565
As3 Ni0 2.456828 1_556
As3 Ni0 2.456828 1_555
As3 La0 3.088402 1_555
As3 La0 3.088402 1_556
As4 Ni16 2.393376 1_555
As4 Ni5 2.407752 1_555
As4 Ni12 2.426508 1_555
As4 Ni18 2.434789 1_555
As4 Ni18 2.434789 1_556
As4 Ni1 2.456834 1_556
As4 Ni1 2.456834 1_555
As4 La1 3.088405 1_556
As4 La1 3.088405 1_555
As5 Ni14 2.393373 1_455
As5 Ni6 2.407752 1_455
As5 Ni13 2.426508 1_555
As5 Ni19 2.434794 1_456
As5 Ni19 2.434794 1_455
As5 Ni2 2.456835 1_555
As5 Ni2 2.456835 1_556
As5 La2 3.088395 1_556
As5 La2 3.088395 1_555
As6 Ni7 2.366081 1_555
As6 Ni19 2.394481 1_555
As6 Ni14 2.402894 1_554
As6 Ni14 2.402894 1_555
As6 Ni9 2.414304 1_655
As6 La3 3.116569 1_554
As6 La3 3.116569 1_555
As6 La5 3.128528 1_555
As6 La5 3.128528 1_554
As7 Ni7 2.366081 1_555
As7 Ni17 2.394468 1_555
As7 Ni15 2.402892 1_555
As7 Ni15 2.402892 1_554
As7 Ni10 2.414313 1_545
As7 La4 3.116579 1_555
As7 La4 3.116579 1_554
As7 La3 3.128521 1_554
As7 La3 3.128521 1_555
As8 Ni7 2.366081 1_555
As8 Ni18 2.394478 1_555
As8 Ni16 2.402899 1_554
As8 Ni16 2.402899 1_555
As8 Ni8 2.414317 1_555
As8 La5 3.116572 1_554
As8 La5 3.116572 1_555
As8 La4 3.128518 1_555
As8 La4 3.128518 1_554
As9 Ni1 2.322088 1_655
As9 Ni9 2.400498 1_655
As9 Ni12 2.404185 1_654
As9 Ni12 2.404185 1_655
As9 Ni17 2.412570 1_555
As9 Ni4 2.823539 1_555
As9 Ni4 2.823539 1_554
As9 La3 3.027605 1_555
As9 La3 3.027605 1_554
As10 Ni2 2.322088 1_545
As10 Ni10 2.400498 1_545
As10 Ni13 2.404186 1_544
As10 Ni13 2.404186 1_545
As10 Ni18 2.412570 1_555
As10 Ni5 2.823530 1_554
As10 Ni5 2.823530 1_555
As10 La4 3.027605 1_554
As10 La4 3.027605 1_555
As11 Ni0 2.322088 1_555
As11 Ni8 2.400498 1_555
As11 Ni11 2.404179 1_555
As11 Ni11 2.404179 1_554
As11 Ni19 2.412570 1_555
As11 Ni6 2.823535 1_555
As11 Ni6 2.823535 1_554
As11 La5 3.027605 1_554
As11 La5 3.027605 1_555
As12 Ni1 2.258558 1_555
As12 Ni0 2.258558 1_445
As12 Ni2 2.258558 1_545
As12 Ni4 2.553089 1_455
As12 Ni4 2.553089 1_454
As12 Ni6 2.553096 1_444
As12 Ni6 2.553096 1_445
As12 Ni5 2.553096 1_554
As12 Ni5 2.553096 1_555
