# generated using pymatgen
data_SrTi4SnO12
_symmetry_space_group_name_H-M   'P 1'
_cell_length_a   5.51126603
_cell_length_b   5.51126603
_cell_length_c   7.77771792
_cell_angle_alpha   90.00000000
_cell_angle_beta   90.00000000
_cell_angle_gamma   90.00000000
_symmetry_Int_Tables_number   1
_chemical_formula_structural   SrTi4SnO12
_chemical_formula_sum   'Sr1 Ti4 Sn1 O12'
_cell_volume   236.24081829
_cell_formula_units_Z   1
loop_
 _symmetry_equiv_pos_site_id
 _symmetry_equiv_pos_as_xyz
  1  'x, y, z'
loop_
 _atom_site_type_symbol
 _atom_site_label
 _atom_site_symmetry_multiplicity
 _atom_site_fract_x
 _atom_site_fract_y
 _atom_site_fract_z
 _atom_site_occupancy
  Sr  Sr0  1  0.00000000  0.00000000  0.50000000  1
  Ti  Ti0  1  0.00000000  0.50000000  0.75011223  1
  Ti  Ti1  1  0.00000000  0.50000000  0.24988777  1
  Ti  Ti2  1  0.50000000  0.00000000  0.75011223  1
  Ti  Ti3  1  0.50000000  -0.00000000  0.24988777  1
  Sn  Sn0  1  0.50000000  0.50000000  0.00000000  1
  O  O0  1  0.25334713  0.25334713  0.75380451  1
  O  O1  1  0.25334713  0.25334713  0.24619549  1
  O  O2  1  0.74665287  0.74665287  0.75380451  1
  O  O3  1  0.74665287  0.74665287  0.24619549  1
  O  O4  1  0.74665287  0.25334713  0.75380451  1
  O  O5  1  0.74665287  0.25334713  0.24619549  1
  O  O6  1  0.25334713  0.74665287  0.75380451  1
  O  O7  1  0.25334713  0.74665287  0.24619549  1
  O  O8  1  0.00000000  0.50000000  0.50000000  1
  O  O9  1  0.00000000  0.50000000  0.00000000  1
  O  O10  1  0.50000000  -0.00000000  0.50000000  1
  O  O11  1  0.50000000  0.00000000  0.00000000  1
loop_
_geom_bond_atom_site_label_1
_geom_bond_atom_site_label_2
_geom_bond_distance
_geom_bond_site_symmetry_2
O0 Ti0 1.948913 1_555
O0 Ti2 1.948913 1_555
O0 Sn0 2.713371 1_556
O0 Sr0 2.792106 1_555
O1 Ti3 1.948913 1_555
O1 Ti1 1.948913 1_555
O1 Sn0 2.713371 1_555
O1 Sr0 2.792106 1_555
O2 Ti0 1.948913 1_655
O2 Ti2 1.948913 1_565
O2 Sn0 2.713371 1_556
O2 Sr0 2.792106 1_665
O3 Ti1 1.948913 1_655
O3 Ti3 1.948913 1_565
O3 Sn0 2.713371 1_555
O3 Sr0 2.792106 1_665
O4 Ti0 1.948913 1_655
O4 Ti2 1.948913 1_555
O4 Sn0 2.713371 1_556
O4 Sr0 2.792106 1_655
O5 Ti1 1.948913 1_655
O5 Ti3 1.948913 1_555
O5 Sn0 2.713371 1_555
O5 Sr0 2.792106 1_655
O6 Ti2 1.948913 1_565
O6 Ti0 1.948913 1_555
O6 Sn0 2.713371 1_556
O6 Sr0 2.792106 1_565
O7 Ti3 1.948913 1_565
O7 Ti1 1.948913 1_555
O7 Sn0 2.713371 1_555
O7 Sr0 2.792106 1_565
O8 Ti1 1.945302 1_555
O8 Ti0 1.945302 1_555
O8 Sr0 2.755633 1_565
O8 Sr0 2.755633 1_555
O9 Ti0 1.943557 1_554
O9 Ti1 1.943557 1_555
O9 Sn0 2.755633 1_455
O9 Sn0 2.755633 1_555
O10 Ti3 1.945302 1_555
O10 Ti2 1.945302 1_555
O10 Sr0 2.755633 1_555
O10 Sr0 2.755633 1_655
O11 Ti2 1.943557 1_554
O11 Ti3 1.943557 1_555
O11 Sn0 2.755633 1_545
O11 Sn0 2.755633 1_555
