# generated using pymatgen
data_MnCrPt6
_symmetry_space_group_name_H-M   'P 1'
_cell_length_a   3.91053142
_cell_length_b   3.91053142
_cell_length_c   7.77722235
_cell_angle_alpha   90.00000000
_cell_angle_beta   90.00000000
_cell_angle_gamma   90.00000000
_symmetry_Int_Tables_number   1
_chemical_formula_structural   MnCrPt6
_chemical_formula_sum   'Mn1 Cr1 Pt6'
_cell_volume   118.93127504
_cell_formula_units_Z   1
loop_
 _symmetry_equiv_pos_site_id
 _symmetry_equiv_pos_as_xyz
  1  'x, y, z'
loop_
 _atom_site_type_symbol
 _atom_site_label
 _atom_site_symmetry_multiplicity
 _atom_site_fract_x
 _atom_site_fract_y
 _atom_site_fract_z
 _atom_site_occupancy
  Mn  Mn0  1  0.00000000  0.00000000  0.50000000  1
  Cr  Cr0  1  0.00000000  0.00000000  -0.00000000  1
  Pt  Pt0  1  0.50000000  0.50000000  -0.00000000  1
  Pt  Pt1  1  0.50000000  0.50000000  0.50000000  1
  Pt  Pt2  1  0.50000000  0.00000000  0.24770582  1
  Pt  Pt3  1  0.50000000  -0.00000000  0.75229418  1
  Pt  Pt4  1  -0.00000000  0.50000000  0.24770582  1
  Pt  Pt5  1  0.00000000  0.50000000  0.75229418  1
loop_
_geom_bond_atom_site_label_1
_geom_bond_atom_site_label_2
_geom_bond_distance
_geom_bond_site_symmetry_2
Mn0 Pt1 2.765163 1_545
Mn0 Pt1 2.765163 1_455
Mn0 Pt1 2.765163 1_555
Mn0 Pt1 2.765163 1_445
Mn0 Pt2 2.770034 1_455
Mn0 Pt4 2.770034 1_555
Mn0 Pt2 2.770034 1_555
Mn0 Pt4 2.770034 1_545
Mn0 Pt3 2.770034 1_455
Mn0 Pt5 2.770034 1_555
Mn0 Pt5 2.770034 1_545
Mn0 Pt3 2.770034 1_555
Cr0 Pt4 2.744872 1_555
Cr0 Pt2 2.744872 1_555
Cr0 Pt5 2.744872 1_554
Cr0 Pt3 2.744872 1_554
Cr0 Pt4 2.744872 1_545
Cr0 Pt3 2.744872 1_454
Cr0 Pt5 2.744872 1_544
Cr0 Pt2 2.744872 1_455
Cr0 Pt0 2.765163 1_555
Cr0 Pt0 2.765163 1_445
Cr0 Pt0 2.765163 1_545
Cr0 Pt0 2.765163 1_455
Pt0 Pt4 2.744872 1_555
Pt0 Pt2 2.744872 1_555
Pt0 Pt5 2.744872 1_554
Pt0 Pt4 2.744872 1_655
Pt0 Pt2 2.744872 1_565
Pt0 Pt3 2.744872 1_554
Pt0 Pt5 2.744872 1_654
Pt0 Pt3 2.744872 1_564
Pt1 Pt3 2.770034 1_565
Pt1 Pt4 2.770034 1_555
Pt1 Pt2 2.770034 1_555
Pt1 Pt4 2.770034 1_655
Pt1 Pt5 2.770034 1_555
Pt1 Pt5 2.770034 1_655
Pt1 Pt2 2.770034 1_565
Pt1 Pt3 2.770034 1_555
Pt2 Pt4 2.765163 1_545
Pt2 Pt4 2.765163 1_645
Pt2 Pt4 2.765163 1_555
Pt2 Pt4 2.765163 1_655
Pt3 Pt5 2.765163 1_655
Pt3 Pt5 2.765163 1_545
Pt3 Pt5 2.765163 1_645
Pt3 Pt5 2.765163 1_555
