# generated using pymatgen
data_Nd2Mn17C2
_symmetry_space_group_name_H-M   'P 1'
_cell_length_a   6.46768648
_cell_length_b   6.46768648
_cell_length_c   6.45884249
_cell_angle_alpha   83.60742646
_cell_angle_beta   83.60742646
_cell_angle_gamma   83.87377577
_symmetry_Int_Tables_number   1
_chemical_formula_structural   Nd2Mn17C2
_chemical_formula_sum   'Nd2 Mn17 C2'
_cell_volume   265.61058759
_cell_formula_units_Z   1
loop_
 _symmetry_equiv_pos_site_id
 _symmetry_equiv_pos_as_xyz
  1  'x, y, z'
loop_
 _atom_site_type_symbol
 _atom_site_label
 _atom_site_symmetry_multiplicity
 _atom_site_fract_x
 _atom_site_fract_y
 _atom_site_fract_z
 _atom_site_occupancy
  Nd  Nd0  1  0.64535600  0.64535600  0.66155500  1
  Nd  Nd1  1  0.35464400  0.35464400  0.33844500  1
  Mn  Mn0  1  0.90848900  0.90848900  0.90745800  1
  Mn  Mn1  1  0.09151100  0.09151100  0.09254200  1
  Mn  Mn2  1  0.26824800  0.73175200  0.00000000  1
  Mn  Mn3  1  0.72044300  0.99658600  0.28218300  1
  Mn  Mn4  1  0.00341400  0.27955700  0.71781700  1
  Mn  Mn5  1  0.27955700  0.00341400  0.71781700  1
  Mn  Mn6  1  0.99658600  0.72044300  0.28218300  1
  Mn  Mn7  1  0.73175200  0.26824800  0.00000000  1
  Mn  Mn8  1  0.00000000  0.00000000  0.50000000  1
  Mn  Mn9  1  0.00000000  0.50000000  0.00000000  1
  Mn  Mn10  1  0.50000000  0.00000000  0.00000000  1
  Mn  Mn11  1  0.86931500  0.33382100  0.33582700  1
  Mn  Mn12  1  0.34375400  0.34375400  0.86534900  1
  Mn  Mn13  1  0.33382100  0.86931500  0.33582700  1
  Mn  Mn14  1  0.13068500  0.66617900  0.66417300  1
  Mn  Mn15  1  0.65624600  0.65624600  0.13465100  1
  Mn  Mn16  1  0.66617900  0.13068500  0.66417300  1
  C  C0  1  0.50000000  0.00000000  0.50000000  1
  C  C1  1  0.00000000  0.50000000  0.50000000  1
loop_
_geom_bond_atom_site_label_1
_geom_bond_atom_site_label_2
_geom_bond_distance
_geom_bond_site_symmetry_2
Mn0 Mn1 2.271731 1_666
Mn0 Mn14 2.560319 1_655
Mn0 Mn16 2.560319 1_565
Mn0 Mn7 2.582208 1_566
Mn0 Mn2 2.582208 1_656
Mn0 Mn15 2.641646 1_556
Mn0 Mn8 2.647179 1_665
Mn0 Mn9 2.661014 1_656
Mn0 Mn10 2.661014 1_566
Mn0 Mn5 2.670098 1_665
Mn0 Mn4 2.670098 1_665
Mn0 Mn6 2.676816 1_556
Mn0 Mn3 2.676816 1_556
Mn0 Nd0 3.183895 1_555
Mn1 Mn11 2.560319 1_455
Mn1 Mn13 2.560319 1_545
Mn1 Mn2 2.582208 1_545
Mn1 Mn7 2.582208 1_455
Mn1 Mn12 2.641646 1_554
Mn1 Mn8 2.647179 1_555
Mn1 Mn9 2.661014 1_555
Mn1 Mn10 2.661014 1_555
Mn1 Mn6 2.670098 1_445
Mn1 Mn3 2.670098 1_445
Mn1 Mn5 2.676816 1_554
Mn1 Mn4 2.676816 1_554
Mn1 Nd1 3.183895 1_555
Mn2 Mn5 2.387241 1_564
Mn2 Mn6 2.387241 1_455
Mn2 Mn9 2.410763 1_555
Mn2 Nd1 3.135815 1_555
Mn2 Nd0 3.135815 1_554
Mn3 Mn7 2.387241 1_565
Mn3 Mn8 2.414695 1_665
Mn4 Mn7 2.387241 1_456
Mn4 Mn8 2.414695 1_555
Mn4 Mn9 2.432697 1_556
Mn5 Mn8 2.414695 1_555
Mn6 Mn8 2.414695 1_665
Mn6 Mn9 2.432697 1_655
Mn7 Mn9 2.410763 1_655
Mn7 Nd1 3.135815 1_555
Mn7 Nd0 3.135815 1_554
Mn8 Nd0 3.415871 1_445
Mn8 Nd1 3.415871 1_555
Mn9 Nd1 3.334978 1_555
Mn9 Nd0 3.334978 1_454
Mn10 Mn7 2.410763 1_555
Mn10 Mn2 2.410763 1_545
Mn10 Mn16 2.416796 1_554
Mn10 Mn13 2.416796 1_545
Mn10 Mn5 2.432697 1_554
Mn10 Mn3 2.432697 1_545
Mn10 Mn12 2.450755 1_554
Mn10 Mn15 2.450755 1_545
Mn10 Nd1 3.334978 1_555
Mn10 Nd0 3.334978 1_544
Mn11 Mn8 2.408436 1_655
Mn11 Mn9 2.416796 1_655
Mn11 Mn7 2.528116 1_555
Mn11 Mn15 2.667968 1_555
Mn12 Mn9 2.450755 1_556
Mn12 Mn4 2.583790 1_555
Mn12 Mn5 2.583790 1_555
Mn12 Mn16 2.667968 1_555
Mn12 Mn14 2.667968 1_555
Mn12 Mn7 2.724340 1_556
Mn12 Mn2 2.724340 1_556
Mn12 Nd0 3.001903 1_555
Mn12 Nd1 3.073084 1_556
Mn12 Nd1 3.389090 1_555
Mn13 Mn8 2.408436 1_565
Mn13 Mn2 2.528116 1_555
Mn13 Mn15 2.667968 1_555
Mn14 Mn8 2.408436 1_565
Mn14 Mn9 2.416796 1_556
Mn14 Mn2 2.528116 1_556
Mn15 Mn9 2.450755 1_655
Mn15 Mn6 2.583790 1_555
Mn15 Mn3 2.583790 1_555
Mn15 Mn2 2.724340 1_555
Mn15 Mn7 2.724340 1_555
Mn15 Nd1 3.001903 1_555
Mn15 Nd0 3.073084 1_554
Mn15 Nd0 3.389090 1_555
Mn16 Mn8 2.408436 1_655
Mn16 Mn7 2.528116 1_556
C0 Mn3 1.888392 1_545
C0 Mn5 1.888392 1_555
C0 Mn16 1.908201 1_555
C0 Mn13 1.908201 1_545
C0 Nd1 2.541462 1_555
C0 Nd0 2.541462 1_545
C1 Mn6 1.888392 1_455
C1 Mn4 1.888392 1_555
C1 Mn14 1.908201 1_555
C1 Mn11 1.908201 1_455
C1 Nd0 2.541462 1_455
C1 Nd1 2.541462 1_555
