# generated using pymatgen
data_FeBi(SeO3)3
_symmetry_space_group_name_H-M   'P 1'
_cell_length_a   7.74751800
_cell_length_b   8.88265200
_cell_length_c   12.93207900
_cell_angle_alpha   90.00000000
_cell_angle_beta   90.00000000
_cell_angle_gamma   90.00000000
_symmetry_Int_Tables_number   1
_chemical_formula_structural   FeBi(SeO3)3
_chemical_formula_sum   'Fe4 Bi4 Se12 O36'
_cell_volume   889.96635959
_cell_formula_units_Z   4
loop_
 _symmetry_equiv_pos_site_id
 _symmetry_equiv_pos_as_xyz
  1  'x, y, z'
loop_
 _atom_site_type_symbol
 _atom_site_label
 _atom_site_symmetry_multiplicity
 _atom_site_fract_x
 _atom_site_fract_y
 _atom_site_fract_z
 _atom_site_occupancy
  Fe  Fe0  1  0.75209400  0.27813300  0.32946100  1
  Fe  Fe1  1  0.74790600  0.72186700  0.82946100  1
  Fe  Fe2  1  0.25209400  0.22186700  0.67053900  1
  Fe  Fe3  1  0.24790600  0.77813300  0.17053900  1
  Bi  Bi0  1  0.78395200  0.70923800  0.52775700  1
  Bi  Bi1  1  0.71604800  0.29076200  0.02775700  1
  Bi  Bi2  1  0.28395200  0.79076200  0.47224300  1
  Bi  Bi3  1  0.21604800  0.20923800  0.97224300  1
  Se  Se0  1  0.43646200  0.54966100  0.67613100  1
  Se  Se1  1  0.06353800  0.45033900  0.17613100  1
  Se  Se2  1  0.93646200  0.95033900  0.32386900  1
  Se  Se3  1  0.56353800  0.04966100  0.82386900  1
  Se  Se4  1  0.57367300  0.59954900  0.27666900  1
  Se  Se5  1  0.92632700  0.40045100  0.77666900  1
  Se  Se6  1  0.07367300  0.90045100  0.72333100  1
  Se  Se7  1  0.42632700  0.09954900  0.22333100  1
  Se  Se8  1  0.59067900  0.09112800  0.54379300  1
  Se  Se9  1  0.90932100  0.90887200  0.04379300  1
  Se  Se10  1  0.09067900  0.40887200  0.45620700  1
  Se  Se11  1  0.40932100  0.59112800  0.95620700  1
  O  O0  1  0.46293000  0.35846600  0.66971000  1
  O  O1  1  0.03707000  0.64153400  0.16971000  1
  O  O2  1  0.96293000  0.14153400  0.33029000  1
  O  O3  1  0.53707000  0.85846600  0.83029000  1
  O  O4  1  0.64624300  0.59900100  0.71010400  1
  O  O5  1  0.85375700  0.40099900  0.21010400  1
  O  O6  1  0.14624300  0.90099900  0.28989600  1
  O  O7  1  0.35375700  0.09900100  0.78989600  1
  O  O8  1  0.45556400  0.60405800  0.54528500  1
  O  O9  1  0.04443600  0.39594200  0.04528500  1
  O  O10  1  0.95556400  0.89594200  0.45471500  1
  O  O11  1  0.54443600  0.10405800  0.95471500  1
  O  O12  1  0.67860300  0.71065100  0.36699200  1
  O  O13  1  0.82139700  0.28934900  0.86699200  1
  O  O14  1  0.17860300  0.78934900  0.63300800  1
  O  O15  1  0.32139700  0.21065100  0.13300800  1
  O  O16  1  0.36224800  0.66508300  0.29631000  1
  O  O17  1  0.13775200  0.33491700  0.79631000  1
  O  O18  1  0.86224800  0.83491700  0.70369000  1
  O  O19  1  0.63775200  0.16508300  0.20369000  1
  O  O20  1  0.55659600  0.42571900  0.33453200  1
  O  O21  1  0.94340400  0.57428100  0.83453200  1
  O  O22  1  0.05659600  0.07428100  0.66546800  1
  O  O23  1  0.44340400  0.92571900  0.16546800  1
  O  O24  1  0.58348600  0.89335300  0.54212700  1
  O  O25  1  0.91651400  0.10664700  0.04212700  1
  O  O26  1  0.08348600  0.60664700  0.45787300  1
  O  O27  1  0.41651400  0.39335300  0.95787300  1
  O  O28  1  0.36887700  0.10809200  0.55294600  1
  O  O29  1  0.13112300  0.89190800  0.05294600  1
  O  O30  1  0.86887700  0.39190800  0.44705400  1
  O  O31  1  0.63112300  0.60809200  0.94705400  1
  O  O32  1  0.62264100  0.12667500  0.41517100  1
  O  O33  1  0.87735900  0.87332500  0.91517100  1
  O  O34  1  0.12264100  0.37332500  0.58482900  1
  O  O35  1  0.37735900  0.62667500  0.08482900  1
loop_
_geom_bond_atom_site_label_1
_geom_bond_atom_site_label_2
_geom_bond_distance
_geom_bond_site_symmetry_2
Fe0 O20 2.004243 1_555
Fe0 O32 2.011074 1_555
Fe0 O2 2.034831 1_555
Fe0 O30 2.037788 1_555
Fe0 O5 2.047918 1_555
Fe0 O19 2.106795 1_555
Fe1 O21 2.004243 1_555
Fe1 O33 2.011074 1_555
Fe1 O3 2.034831 1_555
Fe1 O31 2.037788 1_555
Fe1 O4 2.047918 1_555
Fe1 O18 2.106795 1_555
Fe2 O22 2.004243 1_555
Fe2 O34 2.011074 1_555
Fe2 O0 2.034831 1_555
Fe2 O28 2.037788 1_555
Fe2 O7 2.047918 1_555
Fe2 O17 2.106795 1_555
Fe3 O23 2.004243 1_555
Fe3 O35 2.011074 1_555
Fe3 O1 2.034831 1_555
Fe3 O29 2.037788 1_555
Fe3 O6 2.047918 1_555
Fe3 O16 2.106795 1_555
Bi0 O12 2.233535 1_555
Bi0 O24 2.263035 1_555
Bi0 O10 2.326020 1_555
Bi0 O18 2.605892 1_555
Bi0 O26 2.651901 1_655
Bi0 O8 2.719773 1_555
Bi0 O4 2.767285 1_555
Bi1 O13 2.233535 1_554
Bi1 O25 2.263035 1_555
Bi1 O11 2.326020 1_554
Bi1 O19 2.605892 1_555
Bi1 O27 2.651901 1_554
Bi1 O9 2.719773 1_655
Bi1 O5 2.767285 1_555
Bi2 O14 2.233535 1_555
Bi2 O26 2.263035 1_555
Bi2 O8 2.326020 1_555
Bi2 O16 2.605892 1_555
Bi2 O24 2.651901 1_555
Bi2 O10 2.719773 1_455
Bi2 O6 2.767285 1_555
Bi3 O15 2.233535 1_556
Bi3 O27 2.263035 1_555
Bi3 O9 2.326020 1_556
Bi3 O17 2.605892 1_555
Bi3 O25 2.651901 1_456
Bi3 O11 2.719773 1_555
Bi3 O7 2.767285 1_555
O0 Se0 1.712668 1_555
O1 Se1 1.712668 1_555
O2 Se2 1.712668 1_545
O3 Se3 1.712668 1_565
O4 Se0 1.739725 1_555
O5 Se1 1.739725 1_655
O6 Se2 1.739725 1_455
O7 Se3 1.739725 1_555
O8 Se0 1.765960 1_555
O9 Se1 1.765960 1_555
O10 Se2 1.765960 1_555
O11 Se3 1.765960 1_555
O12 Se4 1.731817 1_555
O13 Se5 1.731817 1_555
O14 Se6 1.731817 1_555
O15 Se7 1.731817 1_555
O16 Se4 1.756838 1_555
O17 Se5 1.756838 1_455
O18 Se6 1.756838 1_655
O19 Se7 1.756838 1_555
O20 Se4 1.720929 1_555
O21 Se5 1.720929 1_555
O22 Se6 1.720929 1_545
O23 Se7 1.720929 1_565
O24 Se8 1.757782 1_565
O25 Se9 1.757782 1_545
O26 Se10 1.757782 1_555
O27 Se11 1.757782 1_555
O28 Se8 1.729065 1_555
O29 Se9 1.729065 1_455
O30 Se10 1.729065 1_655
O31 Se11 1.729065 1_555
O32 Se8 1.711067 1_555
O33 Se9 1.711067 1_556
O34 Se10 1.711067 1_555
O35 Se11 1.711067 1_554
