# generated using pymatgen
data_RbCaMg6
_symmetry_space_group_name_H-M   'P 1'
_cell_length_a   6.95241621
_cell_length_b   6.95241621
_cell_length_c   5.50918700
_cell_angle_alpha   90.00000000
_cell_angle_beta   90.00000000
_cell_angle_gamma   113.44391410
_symmetry_Int_Tables_number   1
_chemical_formula_structural   RbCaMg6
_chemical_formula_sum   'Rb1 Ca1 Mg6'
_cell_volume   244.31010452
_cell_formula_units_Z   1
loop_
 _symmetry_equiv_pos_site_id
 _symmetry_equiv_pos_as_xyz
  1  'x, y, z'
loop_
 _atom_site_type_symbol
 _atom_site_label
 _atom_site_symmetry_multiplicity
 _atom_site_fract_x
 _atom_site_fract_y
 _atom_site_fract_z
 _atom_site_occupancy
  Rb  Rb0  1  0.16237700  0.83762300  0.00000000  1
  Ca  Ca0  1  0.65890100  0.34109900  0.00000000  1
  Mg  Mg0  1  0.66751000  0.83712300  0.00000000  1
  Mg  Mg1  1  0.16287700  0.33249000  0.00000000  1
  Mg  Mg2  1  0.80866600  0.66305400  0.50000000  1
  Mg  Mg3  1  0.33694600  0.19133400  0.50000000  1
  Mg  Mg4  1  0.84674900  0.15325100  0.50000000  1
  Mg  Mg5  1  0.35597700  0.64402300  0.50000000  1
loop_
_geom_bond_atom_site_label_1
_geom_bond_atom_site_label_2
_geom_bond_distance
_geom_bond_site_symmetry_2
Ca0 Mg0 3.425193 1_555
Ca0 Mg1 3.425193 1_555
Ca0 Mg2 3.439145 1_555
Ca0 Mg2 3.439145 1_554
Ca0 Mg3 3.439145 1_555
Ca0 Mg3 3.439145 1_554
Ca0 Mg4 3.515141 1_554
Ca0 Mg4 3.515141 1_555
Ca0 Mg1 3.528091 1_655
Ca0 Mg0 3.528091 1_545
Ca0 Rb0 3.815022 1_545
Ca0 Rb0 3.815022 1_655
Mg0 Mg2 3.310663 1_555
Mg0 Mg2 3.310663 1_554
Mg0 Mg5 3.430389 1_554
Mg0 Mg5 3.430389 1_555
Mg0 Mg4 3.433936 1_564
Mg0 Mg4 3.433936 1_565
Mg0 Rb0 3.439140 1_655
Mg0 Rb0 3.513279 1_555
Mg1 Mg3 3.310663 1_554
Mg1 Mg3 3.310663 1_555
Mg1 Mg5 3.430389 1_554
Mg1 Mg5 3.430389 1_555
Mg1 Mg4 3.433936 1_455
Mg1 Mg4 3.433936 1_454
Mg1 Rb0 3.439140 1_545
Mg1 Rb0 3.513279 1_555
Mg2 Mg5 3.097022 1_555
Mg2 Mg4 3.311636 1_565
Mg2 Rb0 3.568380 1_656
Mg2 Rb0 3.568380 1_655
Mg3 Mg5 3.097022 1_555
Mg3 Mg4 3.311636 1_455
Mg3 Rb0 3.568380 1_545
Mg3 Rb0 3.568380 1_546
Mg5 Rb0 3.557065 1_555
Mg5 Rb0 3.557065 1_556
