# generated using pymatgen
data_UCuSb2
_symmetry_space_group_name_H-M   'P 1'
_cell_length_a   4.33485000
_cell_length_b   4.33485000
_cell_length_c   9.51196900
_cell_angle_alpha   90.00000000
_cell_angle_beta   90.00000000
_cell_angle_gamma   90.00000000
_symmetry_Int_Tables_number   1
_chemical_formula_structural   UCuSb2
_chemical_formula_sum   'U2 Cu2 Sb4'
_cell_volume   178.73869154
_cell_formula_units_Z   2
loop_
 _symmetry_equiv_pos_site_id
 _symmetry_equiv_pos_as_xyz
  1  'x, y, z'
loop_
 _atom_site_type_symbol
 _atom_site_label
 _atom_site_symmetry_multiplicity
 _atom_site_fract_x
 _atom_site_fract_y
 _atom_site_fract_z
 _atom_site_occupancy
  U  U0  1  0.00000000  0.50000000  0.74763300  1
  U  U1  1  0.50000000  0.00000000  0.25236700  1
  Cu  Cu0  1  0.50000000  0.50000000  0.50000000  1
  Cu  Cu1  1  0.00000000  0.00000000  0.50000000  1
  Sb  Sb0  1  0.50000000  0.50000000  0.00000000  1
  Sb  Sb1  1  0.00000000  0.00000000  0.00000000  1
  Sb  Sb2  1  0.00000000  0.50000000  0.33163600  1
  Sb  Sb3  1  0.50000000  0.00000000  0.66836400  1
loop_
_geom_bond_atom_site_label_1
_geom_bond_atom_site_label_2
_geom_bond_distance
_geom_bond_site_symmetry_2
Cu0 Sb3 2.694893 1_555
Cu0 Sb3 2.694893 1_565
Cu0 Sb2 2.694893 1_555
Cu0 Sb2 2.694893 1_655
Cu0 U1 3.200938 1_565
Cu0 U1 3.200938 1_555
Cu0 U0 3.200938 1_655
Cu0 U0 3.200938 1_555
Cu1 Sb3 2.694893 1_555
Cu1 Sb3 2.694893 1_455
Cu1 Sb2 2.694893 1_545
Cu1 Sb2 2.694893 1_555
Cu1 U0 3.200938 1_545
Cu1 U1 3.200938 1_555
Cu1 U1 3.200938 1_455
Cu1 U0 3.200938 1_555
Sb0 Sb1 3.065202 1_565
Sb0 Sb1 3.065202 1_655
Sb0 Sb1 3.065202 1_555
Sb0 Sb1 3.065202 1_665
Sb0 U1 3.234218 1_555
Sb0 U0 3.234218 1_654
Sb0 U0 3.234218 1_554
Sb0 U1 3.234218 1_565
Sb1 U0 3.234218 1_544
Sb1 U1 3.234218 1_455
Sb1 U1 3.234218 1_555
Sb1 U0 3.234218 1_554
Sb2 U1 3.156578 1_465
Sb2 U1 3.156578 1_555
Sb2 U1 3.156578 1_455
Sb2 U1 3.156578 1_565
Sb3 U0 3.156578 1_655
Sb3 U0 3.156578 1_545
Sb3 U0 3.156578 1_555
Sb3 U0 3.156578 1_645
