# generated using pymatgen
data_Tb3NdFe34
_symmetry_space_group_name_H-M   'P 1'
_cell_length_a   6.43478493
_cell_length_b   6.43478493
_cell_length_c   12.86466899
_cell_angle_alpha   82.96877415
_cell_angle_beta   82.96877415
_cell_angle_gamma   82.97887563
_symmetry_Int_Tables_number   1
_chemical_formula_structural   Tb3NdFe34
_chemical_formula_sum   'Tb3 Nd1 Fe34'
_cell_volume   521.57900690
_cell_formula_units_Z   1
loop_
 _symmetry_equiv_pos_site_id
 _symmetry_equiv_pos_as_xyz
  1  'x, y, z'
loop_
 _atom_site_type_symbol
 _atom_site_label
 _atom_site_symmetry_multiplicity
 _atom_site_fract_x
 _atom_site_fract_y
 _atom_site_fract_z
 _atom_site_occupancy
  Tb  Tb0  1  0.65837500  0.65837500  0.82909500  1
  Tb  Tb1  1  0.34101800  0.34101800  0.17058800  1
  Tb  Tb2  1  0.34168800  0.34168800  0.67073800  1
  Nd  Nd0  1  0.65777000  0.65777000  0.32895400  1
  Fe  Fe0  1  0.90374900  0.90374900  0.45205000  1
  Fe  Fe1  1  0.90322200  0.90322200  0.95149700  1
  Fe  Fe2  1  0.09698600  0.09698600  0.04822700  1
  Fe  Fe3  1  0.09687000  0.09687000  0.54862900  1
  Fe  Fe4  1  0.00062200  0.00062200  0.24978300  1
  Fe  Fe5  1  0.00007400  0.00007400  0.74998700  1
  Fe  Fe6  1  0.00061600  0.49956900  0.50049600  1
  Fe  Fe7  1  0.00003300  0.49998800  0.99985900  1
  Fe  Fe8  1  0.49998800  0.00003300  0.99985900  1
  Fe  Fe9  1  0.49956900  0.00061600  0.50049600  1
  Fe  Fe10  1  0.84558200  0.34234600  0.17107800  1
  Fe  Fe11  1  0.84499800  0.34328300  0.67178900  1
  Fe  Fe12  1  0.34225700  0.34225700  0.42281900  1
  Fe  Fe13  1  0.34340300  0.34340300  0.92244800  1
  Fe  Fe14  1  0.34234600  0.84558200  0.17107800  1
  Fe  Fe15  1  0.34328300  0.84499800  0.67178900  1
  Fe  Fe16  1  0.15513700  0.65678800  0.32843600  1
  Fe  Fe17  1  0.15504300  0.65672200  0.82823700  1
  Fe  Fe18  1  0.65660300  0.65660300  0.07677900  1
  Fe  Fe19  1  0.65684800  0.65684800  0.57838000  1
  Fe  Fe20  1  0.65678800  0.15513700  0.32843600  1
  Fe  Fe21  1  0.65672200  0.15504300  0.82823700  1
  Fe  Fe22  1  0.29214500  0.70707100  0.50065500  1
  Fe  Fe23  1  0.29367900  0.70636300  0.99984100  1
  Fe  Fe24  1  0.70703900  0.00104500  0.14600700  1
  Fe  Fe25  1  0.70643600  0.99992900  0.64694300  1
  Fe  Fe26  1  0.00086400  0.29217000  0.35354100  1
  Fe  Fe27  1  0.00005200  0.29361600  0.85313100  1
  Fe  Fe28  1  0.29217000  0.00086400  0.35354100  1
  Fe  Fe29  1  0.29361600  0.00005200  0.85313100  1
  Fe  Fe30  1  0.00104500  0.70703900  0.14600700  1
  Fe  Fe31  1  0.99992900  0.70643600  0.64694300  1
  Fe  Fe32  1  0.70707100  0.29214500  0.50065500  1
  Fe  Fe33  1  0.70636300  0.29367900  0.99984100  1
loop_
_geom_bond_atom_site_label_1
_geom_bond_atom_site_label_2
_geom_bond_distance
_geom_bond_site_symmetry_2
Fe0 Fe3 2.401208 1_665
Fe0 Fe6 2.615937 1_655
Fe0 Fe9 2.615937 1_565
Fe0 Fe4 2.617029 1_665
Fe0 Fe20 2.651690 1_565
Fe0 Fe16 2.651690 1_655
Fe0 Fe19 2.653742 1_555
Fe0 Fe32 2.766676 1_565
Fe0 Fe22 2.766676 1_655
Fe0 Fe28 2.766958 1_665
Fe0 Fe26 2.766958 1_665
Fe0 Fe31 2.773040 1_555
Fe0 Fe25 2.773040 1_555
Fe0 Nd0 3.059116 1_555
Fe1 Fe2 2.407790 1_666
Fe1 Fe5 2.607877 1_665
Fe1 Fe8 2.610030 1_565
Fe1 Fe7 2.610030 1_655
Fe1 Fe18 2.645315 1_556
Fe1 Fe17 2.648488 1_655
Fe1 Fe21 2.648488 1_565
Fe1 Fe24 2.769369 1_566
Fe1 Fe30 2.769369 1_656
Fe1 Fe29 2.776975 1_665
Fe1 Fe27 2.776975 1_665
Fe1 Fe33 2.777721 1_565
Fe1 Fe23 2.777721 1_655
Fe1 Tb0 3.043981 1_555
Fe2 Fe4 2.607515 1_555
Fe2 Fe7 2.608778 1_554
Fe2 Fe8 2.608778 1_554
Fe2 Fe24 2.770472 1_455
Fe2 Fe30 2.770472 1_545
Fe2 Fe29 2.775278 1_554
Fe2 Fe27 2.775278 1_554
Fe2 Fe23 2.778468 1_544
Fe2 Fe33 2.778468 1_454
Fe2 Tb1 3.036887 1_555
Fe3 Fe6 2.605856 1_555
Fe3 Fe9 2.605856 1_555
Fe3 Fe5 2.605942 1_555
Fe3 Fe32 2.769453 1_455
Fe3 Fe31 2.777188 1_445
Fe3 Tb2 3.041314 1_555
Fe4 Tb1 3.273179 1_555
Fe4 Nd0 3.295675 1_445
Fe5 Tb2 3.284458 1_555
Fe5 Tb0 3.284972 1_445
Fe6 Tb2 3.276043 1_555
Fe6 Nd0 3.296415 1_455
Fe7 Tb1 3.281141 1_556
Fe7 Tb0 3.283997 1_455
Fe8 Tb1 3.281141 1_556
Fe8 Tb0 3.283997 1_545
Fe9 Tb2 3.276043 1_555
Fe9 Nd0 3.296415 1_545
Fe10 Fe4 2.453906 1_655
Fe10 Fe7 2.456018 1_654
Fe10 Fe20 2.486710 1_555
Fe10 Fe18 2.489786 1_555
Fe10 Fe24 2.538609 1_555
Fe10 Fe33 2.544412 1_554
Fe10 Fe30 2.630873 1_655
Fe10 Fe26 2.631046 1_655
Fe10 Fe2 2.639717 1_655
Fe10 Nd0 3.084454 1_555
Fe10 Tb1 3.186227 1_655
Fe10 Tb1 3.248596 1_555
Fe11 Fe6 2.456316 1_655
Fe11 Fe5 2.459316 1_655
Fe11 Fe19 2.479195 1_555
Fe11 Fe21 2.480060 1_555
Fe11 Fe32 2.543637 1_555
Fe11 Fe25 2.550078 1_545
Fe11 Fe27 2.617142 1_655
Fe11 Fe31 2.620195 1_555
Fe11 Fe3 2.647538 1_655
Fe11 Tb0 3.076151 1_555
Fe11 Tb2 3.193233 1_655
Fe11 Tb2 3.241650 1_555
Fe12 Fe9 2.453967 1_555
Fe12 Fe6 2.453967 1_555
Fe12 Fe16 2.486150 1_555
Fe12 Fe20 2.486150 1_555
Fe12 Fe26 2.539057 1_555
Fe12 Fe28 2.539057 1_555
Fe12 Fe22 2.632258 1_555
Fe12 Fe32 2.632258 1_555
Fe12 Fe3 2.638997 1_555
Fe12 Nd0 3.083721 1_555
Fe12 Tb2 3.188504 1_555
Fe12 Tb1 3.246842 1_555
Fe13 Fe7 2.460007 1_555
Fe13 Fe8 2.460007 1_555
Fe13 Fe21 2.483311 1_555
Fe13 Fe17 2.483311 1_555
Fe13 Fe29 2.550406 1_555
Fe13 Fe27 2.550406 1_555
Fe13 Fe23 2.618619 1_555
Fe13 Fe33 2.618619 1_555
Fe13 Fe2 2.646724 1_556
Fe13 Tb0 3.077396 1_555
Fe13 Tb1 3.188562 1_556
Fe13 Tb2 3.240909 1_555
Fe14 Fe4 2.453906 1_565
Fe14 Fe8 2.456018 1_564
Fe14 Fe16 2.486710 1_555
Fe14 Fe18 2.489786 1_555
Fe14 Fe30 2.538609 1_555
Fe14 Fe23 2.544412 1_554
Fe14 Fe24 2.630873 1_565
Fe14 Fe28 2.631046 1_565
Fe14 Fe2 2.639717 1_565
Fe14 Nd0 3.084454 1_555
Fe14 Tb1 3.186227 1_565
Fe14 Tb1 3.248596 1_555
Fe15 Fe9 2.456316 1_565
Fe15 Fe5 2.459316 1_565
Fe15 Fe19 2.479195 1_555
Fe15 Fe17 2.480060 1_555
Fe15 Fe22 2.543637 1_555
Fe15 Fe31 2.550078 1_455
Fe15 Fe29 2.617142 1_565
Fe15 Fe25 2.620195 1_555
Fe15 Fe3 2.647538 1_565
Fe15 Tb0 3.076151 1_555
Fe15 Tb2 3.193233 1_565
Fe15 Tb2 3.241650 1_555
Fe16 Fe4 2.463327 1_565
Fe16 Fe6 2.463848 1_555
Fe16 Fe28 2.550676 1_565
Fe16 Fe22 2.552253 1_555
Fe16 Fe26 2.626789 1_555
Fe16 Fe30 2.627005 1_555
Fe16 Tb1 3.082902 1_555
Fe16 Nd0 3.198876 1_455
Fe16 Nd0 3.235938 1_555
Fe17 Fe7 2.459343 1_555
Fe17 Fe5 2.460046 1_565
Fe17 Fe23 2.548715 1_555
Fe17 Fe29 2.550137 1_565
Fe17 Fe31 2.616745 1_455
Fe17 Fe27 2.620078 1_555
Fe17 Tb2 3.077641 1_555
Fe17 Tb0 3.193341 1_455
Fe17 Tb0 3.241524 1_555
Fe18 Fe7 2.458211 1_654
Fe18 Fe8 2.458211 1_564
Fe18 Fe30 2.557506 1_655
Fe18 Fe24 2.557506 1_565
Fe18 Fe33 2.615626 1_554
Fe18 Fe23 2.615626 1_554
Fe18 Tb1 3.084195 1_555
Fe18 Tb0 3.183626 1_554
Fe18 Nd0 3.246005 1_555
Fe19 Fe6 2.465718 1_655
Fe19 Fe9 2.465718 1_565
Fe19 Fe25 2.543891 1_555
Fe19 Fe31 2.543891 1_555
Fe19 Fe22 2.630897 1_555
Fe19 Fe32 2.630897 1_555
Fe19 Tb2 3.076166 1_555
Fe19 Nd0 3.207342 1_555
Fe19 Tb0 3.227804 1_555
Fe20 Fe4 2.463327 1_655
Fe20 Fe9 2.463848 1_555
Fe20 Fe26 2.550676 1_655
Fe20 Fe32 2.552253 1_555
Fe20 Fe28 2.626789 1_555
Fe20 Fe24 2.627005 1_555
Fe20 Tb1 3.082902 1_555
Fe20 Nd0 3.198876 1_545
Fe20 Nd0 3.235938 1_555
Fe21 Fe8 2.459343 1_555
Fe21 Fe5 2.460046 1_655
Fe21 Fe33 2.548715 1_555
Fe21 Fe27 2.550137 1_655
Fe21 Fe25 2.616745 1_545
Fe21 Fe29 2.620078 1_555
Fe21 Tb2 3.077641 1_555
Fe21 Tb0 3.193341 1_545
Fe21 Tb0 3.241524 1_555
Fe22 Fe6 2.432263 1_555
Fe22 Fe9 2.442167 1_565
Fe22 Fe31 2.492206 1_455
Fe22 Fe28 2.505965 1_565
Fe22 Fe3 2.769453 1_565
Fe22 Tb2 3.024113 1_555
Fe22 Nd0 3.038396 1_555
Fe23 Fe8 2.438618 1_565
Fe23 Fe7 2.438685 1_555
Fe23 Fe30 2.492950 1_556
Fe23 Fe29 2.502079 1_565
Fe23 Tb0 3.025632 1_555
Fe23 Tb1 3.028060 1_556
Fe24 Fe8 2.434846 1_554
Fe24 Fe4 2.442647 1_655
Fe24 Fe33 2.492950 1_554
Fe24 Fe30 2.506653 1_645
Fe24 Tb1 3.026631 1_555
Fe24 Nd0 3.038869 1_545
Fe25 Fe9 2.435548 1_565
Fe25 Fe5 2.437507 1_665
Fe25 Fe32 2.492206 1_565
Fe25 Fe31 2.502280 1_555
Fe25 Fe3 2.777188 1_665
Fe25 Tb0 3.024090 1_555
Fe25 Tb2 3.027503 1_565
Fe26 Fe4 2.432197 1_555
Fe26 Fe6 2.443686 1_555
Fe26 Fe28 2.483634 1_555
Fe26 Fe32 2.505965 1_455
Fe26 Fe3 2.770812 1_555
Fe26 Tb1 3.025746 1_555
Fe26 Nd0 3.037716 1_455
Fe27 Fe7 2.437237 1_555
Fe27 Fe5 2.437636 1_555
Fe27 Fe33 2.502079 1_455
Fe27 Fe29 2.502885 1_555
Fe27 Tb2 3.026526 1_555
Fe27 Tb0 3.027507 1_455
Fe28 Fe4 2.432197 1_555
Fe28 Fe9 2.443686 1_555
Fe28 Fe3 2.770812 1_555
Fe28 Tb1 3.025746 1_555
Fe28 Nd0 3.037716 1_545
Fe29 Fe8 2.437237 1_555
Fe29 Fe5 2.437636 1_555
Fe29 Tb2 3.026526 1_555
Fe29 Tb0 3.027507 1_545
Fe30 Fe7 2.434846 1_554
Fe30 Fe4 2.442647 1_565
Fe30 Tb1 3.026631 1_555
Fe30 Nd0 3.038869 1_455
Fe31 Fe6 2.435548 1_655
Fe31 Fe5 2.437507 1_665
Fe31 Tb0 3.024090 1_555
Fe31 Tb2 3.027503 1_655
Fe32 Fe9 2.432263 1_555
Fe32 Fe6 2.442167 1_655
Fe32 Tb2 3.024113 1_555
Fe32 Nd0 3.038396 1_555
Fe33 Fe7 2.438618 1_655
Fe33 Fe8 2.438685 1_555
Fe33 Tb0 3.025632 1_555
Fe33 Tb1 3.028060 1_556
