# generated using pymatgen
data_K3Rb3Zn4Sn3Se13
_symmetry_space_group_name_H-M   'P 1'
_cell_length_a   10.01469954
_cell_length_b   10.01469954
_cell_length_c   10.01469945
_cell_angle_alpha   95.39490086
_cell_angle_beta   95.39490086
_cell_angle_gamma   95.39489641
_symmetry_Int_Tables_number   1
_chemical_formula_structural   K3Rb3Zn4Sn3Se13
_chemical_formula_sum   'K3 Rb3 Zn4 Sn3 Se13'
_cell_volume   990.16230988
_cell_formula_units_Z   1
loop_
 _symmetry_equiv_pos_site_id
 _symmetry_equiv_pos_as_xyz
  1  'x, y, z'
loop_
 _atom_site_type_symbol
 _atom_site_label
 _atom_site_symmetry_multiplicity
 _atom_site_fract_x
 _atom_site_fract_y
 _atom_site_fract_z
 _atom_site_occupancy
  K  K0  1  0.07820000  0.51636100  0.51636100  1
  K  K1  1  0.51636100  0.51636100  0.07820000  1
  K  K2  1  0.51636100  0.07820000  0.51636100  1
  Rb  Rb0  1  0.30423000  0.85173200  0.85173200  1
  Rb  Rb1  1  0.85173200  0.85173200  0.30423000  1
  Rb  Rb2  1  0.85173200  0.30423000  0.85173200  1
  Zn  Zn0  1  0.33766100  0.33766100  0.33766100  1
  Zn  Zn1  1  0.23138100  0.94379400  0.23138100  1
  Zn  Zn2  1  0.94379400  0.23138100  0.23138100  1
  Zn  Zn3  1  0.23138100  0.23138100  0.94379400  1
  Sn  Sn0  1  0.12193000  0.57360700  0.12193000  1
  Sn  Sn1  1  0.57360700  0.12193000  0.12193000  1
  Sn  Sn2  1  0.12193000  0.12193000  0.57360700  1
  Se  Se0  1  0.31320600  0.58190100  0.31320600  1
  Se  Se1  1  0.58190100  0.31320600  0.31320600  1
  Se  Se2  1  0.31320600  0.31320600  0.58190100  1
  Se  Se3  1  0.18074400  0.18074400  0.18074400  1
  Se  Se4  1  0.19533300  0.46959500  0.89811000  1
  Se  Se5  1  0.46959500  0.89811000  0.19533300  1
  Se  Se6  1  0.89811000  0.19533300  0.46959500  1
  Se  Se7  1  0.46959500  0.19533300  0.89811000  1
  Se  Se8  1  0.19533300  0.89811000  0.46959500  1
  Se  Se9  1  0.89811000  0.46959500  0.19533300  1
  Se  Se10  1  0.06441400  0.80558300  0.06441400  1
  Se  Se11  1  0.80558300  0.06441400  0.06441400  1
  Se  Se12  1  0.06441400  0.06441400  0.80558300  1
loop_
_geom_bond_atom_site_label_1
_geom_bond_atom_site_label_2
_geom_bond_distance
_geom_bond_site_symmetry_2
K0 Se2 3.312130 1_555
K0 Se0 3.312130 1_555
K0 Se9 3.503719 1_455
K0 Se6 3.503720 1_455
K1 Se1 3.312130 1_555
K1 Se0 3.312130 1_555
K1 Se7 3.503719 1_554
K1 Se4 3.503719 1_554
K2 Se2 3.312130 1_555
K2 Se1 3.312130 1_555
K2 Se5 3.503719 1_545
K2 Se8 3.503720 1_545
Rb0 Se12 3.384768 1_565
Rb0 Se10 3.384768 1_556
Rb0 Se5 3.644514 1_556
Rb0 Se7 3.644514 1_565
Rb0 Se8 3.961765 1_555
Rb0 Se4 3.961765 1_555
Rb1 Se10 3.384768 1_655
Rb1 Se11 3.384768 1_565
Rb1 Se8 3.644514 1_655
Rb1 Se6 3.644514 1_565
Rb1 Se5 3.961765 1_555
Rb1 Se9 3.961765 1_555
Rb2 Se12 3.384768 1_655
Rb2 Se11 3.384768 1_556
Rb2 Se9 3.644514 1_556
Rb2 Se4 3.644514 1_655
Rb2 Se6 3.961765 1_555
Rb2 Se7 3.961765 1_555
Se0 Zn0 2.513332 1_555
Se0 Sn0 2.568248 1_555
Se1 Zn0 2.513332 1_555
Se1 Sn1 2.568248 1_555
Se2 Zn0 2.513332 1_555
Se2 Sn2 2.568248 1_555
Se3 Zn0 2.452653 1_555
Se3 Zn1 2.559216 1_545
Se3 Zn2 2.559216 1_455
Se3 Zn3 2.559216 1_554
Se4 Zn3 2.523303 1_555
Se4 Sn0 2.581565 1_556
Se5 Zn1 2.523303 1_555
Se5 Sn1 2.581565 1_565
Se6 Zn2 2.523303 1_555
Se6 Sn2 2.581565 1_655
Se7 Zn3 2.523303 1_555
Se7 Sn1 2.581565 1_556
Se8 Zn1 2.523303 1_555
Se8 Sn2 2.581565 1_565
Se9 Zn2 2.523303 1_555
Se9 Sn0 2.581565 1_655
Se10 Zn1 2.472180 1_555
Se10 Sn0 2.549813 1_555
Se11 Zn2 2.472180 1_555
Se11 Sn1 2.549813 1_555
Se12 Zn3 2.472180 1_555
Se12 Sn2 2.549813 1_555
