# generated using pymatgen
data_Sm6H44N8O51
_symmetry_space_group_name_H-M   'P 1'
_cell_length_a   11.74501400
_cell_length_b   11.89261748
_cell_length_c   16.89877368
_cell_angle_alpha   91.21165257
_cell_angle_beta   90.68446234
_cell_angle_gamma   112.34460190
_symmetry_Int_Tables_number   1
_chemical_formula_structural   Sm6H44N8O51
_chemical_formula_sum   'Sm12 H88 N16 O102'
_cell_volume   2182.17204343
_cell_formula_units_Z   2
loop_
 _symmetry_equiv_pos_site_id
 _symmetry_equiv_pos_as_xyz
  1  'x, y, z'
loop_
 _atom_site_type_symbol
 _atom_site_label
 _atom_site_symmetry_multiplicity
 _atom_site_fract_x
 _atom_site_fract_y
 _atom_site_fract_z
 _atom_site_occupancy
  Sm  Sm0  1  0.79961500  0.97740000  0.06922300  1
  Sm  Sm1  1  0.20038500  0.02260000  0.93077700  1
  Sm  Sm2  1  0.87529000  0.89493400  0.87561000  1
  Sm  Sm3  1  0.12471000  0.10506600  0.12439000  1
  Sm  Sm4  1  0.98213500  0.79131300  0.04980900  1
  Sm  Sm5  1  0.01786500  0.20868700  0.95019100  1
  Sm  Sm6  1  0.29075000  0.98556600  0.55108700  1
  Sm  Sm7  1  0.70925000  0.01443400  0.44891300  1
  Sm  Sm8  1  0.39190800  0.87216500  0.37613700  1
  Sm  Sm9  1  0.60809200  0.12783500  0.62386300  1
  Sm  Sm10  1  0.47615000  0.80348200  0.57004900  1
  Sm  Sm11  1  0.52385000  0.19651800  0.42995100  1
  H  H0  1  0.72340900  0.72425600  0.99630800  1
  H  H1  1  0.27659100  0.27574400  0.00369200  1
  H  H2  1  0.74378500  0.06433700  0.91646500  1
  H  H3  1  0.25621500  0.93566300  0.08353500  1
  H  H4  1  0.04402700  0.76459100  0.87551500  1
  H  H5  1  0.95597300  0.23540900  0.12448500  1
  H  H6  1  0.92389400  0.89108800  0.20090400  1
  H  H7  1  0.07610600  0.10891200  0.79909600  1
  H  H8  1  0.67537000  0.82927000  0.21222200  1
  H  H9  1  0.32463000  0.17073000  0.78777800  1
  H  H10  1  0.59244700  0.74448000  0.14218000  1
  H  H11  1  0.40755300  0.25552000  0.85782000  1
  H  H12  1  0.50991700  0.87420100  0.04094100  1
  H  H13  1  0.49008300  0.12579900  0.95905900  1
  H  H14  1  0.57294300  0.86601300  0.95756000  1
  H  H15  1  0.42705700  0.13398700  0.04244000  1
  H  H16  1  0.62031300  0.87323100  0.81384900  1
  H  H17  1  0.37968700  0.12676900  0.18615100  1
  H  H18  1  0.58749300  0.74099400  0.84774600  1
  H  H19  1  0.41250700  0.25900600  0.15225400  1
  H  H20  1  0.79942000  0.61665500  0.87252600  1
  H  H21  1  0.20058000  0.38334500  0.12747400  1
  H  H22  1  0.74169600  0.64143300  0.78952700  1
  H  H23  1  0.25830400  0.35856700  0.21047300  1
  H  H24  1  0.82106300  0.52384700  0.00009200  1
  H  H25  1  0.17893700  0.47615300  0.99990800  1
  H  H26  1  0.94140000  0.56670800  0.94642900  1
  H  H27  1  0.05860000  0.43329200  0.05357100  1
  H  H28  1  0.76056100  0.68486400  0.15555800  1
  H  H29  1  0.23943900  0.31513600  0.84444200  1
  H  H30  1  0.81840400  0.58215000  0.15871500  1
  H  H31  1  0.18159600  0.41785000  0.84128500  1
  H  H32  1  0.51290600  0.52125700  0.86882500  1
  H  H33  1  0.48709400  0.47874300  0.13117500  1
  H  H34  1  0.43220100  0.55083000  0.80600600  1
  H  H35  1  0.56779900  0.44917000  0.19399400  1
  H  H36  1  0.40862700  0.61867900  0.05957300  1
  H  H37  1  0.59137300  0.38132100  0.94042700  1
  H  H38  1  0.39654100  0.63332500  0.15035900  1
  H  H39  1  0.60345900  0.36667500  0.84964100  1
  H  H40  1  0.70056800  0.32663600  0.03478700  1
  H  H41  1  0.29943200  0.67336400  0.96521300  1
  H  H42  1  0.62659700  0.40136900  0.07245100  1
  H  H43  1  0.37340300  0.59863100  0.92754900  1
  H  H44  1  0.22221000  0.72410300  0.50063000  1
  H  H45  1  0.77779000  0.27589700  0.49937000  1
  H  H46  1  0.25981300  0.04063900  0.37851800  1
  H  H47  1  0.74018700  0.95936100  0.62148200  1
  H  H48  1  0.56500200  0.74319300  0.41973700  1
  H  H49  1  0.43499800  0.25680700  0.58026300  1
  H  H50  1  0.39122700  0.93338300  0.70111500  1
  H  H51  1  0.60877300  0.06661700  0.29888500  1
  H  H52  1  0.08878100  0.83975500  0.67257700  1
  H  H53  1  0.91121900  0.16024500  0.32742300  1
  H  H54  1  0.17469300  0.76615100  0.65345300  1
  H  H55  1  0.82530700  0.23384900  0.34654700  1
  H  H56  1  0.04430000  0.92651600  0.45127700  1
  H  H57  1  0.95570000  0.07348400  0.54872300  1
  H  H58  1  0.01617300  0.81173700  0.50337500  1
  H  H59  1  0.98382700  0.18826300  0.49662500  1
  H  H60  1  0.13316500  0.76478800  0.28397900  1
  H  H61  1  0.86683500  0.23521200  0.71602100  1
  H  H62  1  0.11134700  0.79875300  0.37331200  1
  H  H63  1  0.88865300  0.20124700  0.62668800  1
  H  H64  1  0.23977900  0.58845600  0.34861300  1
  H  H65  1  0.76022100  0.41154400  0.65138700  1
  H  H66  1  0.38393600  0.61960800  0.32978900  1
  H  H67  1  0.61606400  0.38039200  0.67021100  1
  H  H68  1  0.37766700  0.51510000  0.54156800  1
  H  H69  1  0.62233300  0.48490000  0.45843200  1
  H  H70  1  0.35976300  0.58274700  0.46286700  1
  H  H71  1  0.64023700  0.41725300  0.53713300  1
  H  H72  1  0.29789000  0.68823300  0.71301800  1
  H  H73  1  0.70211000  0.31176700  0.28698200  1
  H  H74  1  0.24310100  0.59921500  0.64033900  1
  H  H75  1  0.75689900  0.40078500  0.35966100  1
  H  H76  1  0.81592900  0.69111800  0.53848400  1
  H  H77  1  0.18407100  0.30888200  0.46151600  1
  H  H78  1  0.89940600  0.62604700  0.57277300  1
  H  H79  1  0.10059400  0.37395300  0.42722700  1
  H  H80  1  0.88236400  0.59393100  0.43403700  1
  H  H81  1  0.11763600  0.40606900  0.56596300  1
  H  H82  1  0.86407600  0.59210100  0.34158900  1
  H  H83  1  0.13592400  0.40789900  0.65841100  1
  H  H84  1  0.05136800  0.42810300  0.30059800  1
  H  H85  1  0.94863200  0.57189700  0.69940200  1
  H  H86  1  0.01862100  0.50912500  0.36270600  1
  H  H87  1  0.98137900  0.49087500  0.63729400  1
  N  N0  1  0.67882300  0.13463000  0.14672800  1
  N  N1  1  0.32117700  0.86537000  0.85327200  1
  N  N2  1  0.90979700  0.90689100  0.69774000  1
  N  N3  1  0.09020300  0.09310900  0.30226000  1
  N  N4  1  0.13980800  0.68353300  0.13624100  1
  N  N5  1  0.86019200  0.31646700  0.86375900  1
  N  N6  1  0.17565600  0.12969100  0.64542000  1
  N  N7  1  0.82434400  0.87030900  0.35458000  1
  N  N8  1  0.40460300  0.89726800  0.19890100  1
  N  N9  1  0.59539700  0.10273200  0.80109900  1
  N  N10  1  0.63835100  0.68698600  0.64434000  1
  N  N11  1  0.36164900  0.31301400  0.35566000  1
  N  N12  1  0.90299500  0.41789800  0.17315700  1
  N  N13  1  0.09700500  0.58210200  0.82684300  1
  N  N14  1  0.40969800  0.41277100  0.67987000  1
  N  N15  1  0.59030200  0.58722900  0.32013000  1
  O  O0  1  0.00000000  0.00000000  0.00000000  1
  O  O1  1  0.79460100  0.80043100  0.99685100  1
  O  O2  1  0.20539900  0.19956900  0.00314900  1
  O  O3  1  0.81495100  0.04826000  0.93609900  1
  O  O4  1  0.18504900  0.95174000  0.06390100  1
  O  O5  1  0.03608800  0.82749600  0.91166100  1
  O  O6  1  0.96391200  0.17250400  0.08833900  1
  O  O7  1  0.94595100  0.92441300  0.14820300  1
  O  O8  1  0.05404900  0.07558700  0.85179700  1
  O  O9  1  0.67775400  0.80080500  0.15757000  1
  O  O10  1  0.32224600  0.19919500  0.84243000  1
  O  O11  1  0.58677800  0.88389000  0.01473100  1
  O  O12  1  0.41322200  0.11611000  0.98526900  1
  O  O13  1  0.63918600  0.82903300  0.85701800  1
  O  O14  1  0.36081400  0.17096700  0.14298200  1
  O  O15  1  0.77885900  0.67552200  0.84134300  1
  O  O16  1  0.22114100  0.32447800  0.15865700  1
  O  O17  1  0.87957600  0.59352500  0.97140300  1
  O  O18  1  0.12042400  0.40647500  0.02859700  1
  O  O19  1  0.81356600  0.65055200  0.12792600  1
  O  O20  1  0.18643400  0.34944800  0.87207400  1
  O  O21  1  0.47883000  0.58348900  0.85590300  1
  O  O22  1  0.52117000  0.41651100  0.14409700  1
  O  O23  1  0.45051500  0.61835600  0.11159100  1
  O  O24  1  0.54948500  0.38164400  0.88840900  1
  O  O25  1  0.67570100  0.39547900  0.02605000  1
  O  O26  1  0.32429900  0.60452100  0.97395000  1
  O  O27  1  0.70456800  0.14797500  0.07354200  1
  O  O28  1  0.29543200  0.85202500  0.92645800  1
  O  O29  1  0.70621500  0.05420200  0.18340800  1
  O  O30  1  0.29378500  0.94579800  0.81659200  1
  O  O31  1  0.62853800  0.19597100  0.18185500  1
  O  O32  1  0.37146200  0.80402900  0.81814500  1
  O  O33  1  0.97597200  0.86615200  0.74000600  1
  O  O34  1  0.02402800  0.13384800  0.25999400  1
  O  O35  1  0.82865500  0.93599300  0.73329200  1
  O  O36  1  0.17134500  0.06400700  0.26670800  1
  O  O37  1  0.92309100  0.91782900  0.62499100  1
  O  O38  1  0.07690900  0.08217100  0.37500900  1
  O  O39  1  0.08232200  0.73952000  0.17538300  1
  O  O40  1  0.91767800  0.26048000  0.82461700  1
  O  O41  1  0.13090000  0.68314200  0.06085900  1
  O  O42  1  0.86910000  0.31685800  0.93914100  1
  O  O43  1  0.19997200  0.63261000  0.17096900  1
  O  O44  1  0.80002800  0.36739000  0.82903100  1
  O  O45  1  0.50000000  0.00000000  0.50000000  1
  O  O46  1  0.29557200  0.79808500  0.49893400  1
  O  O47  1  0.70442800  0.20191500  0.50106600  1
  O  O48  1  0.32464700  0.03379900  0.41263300  1
  O  O49  1  0.67535300  0.96620100  0.58736700  1
  O  O50  1  0.54802800  0.81509400  0.43725900  1
  O  O51  1  0.45197200  0.18490600  0.56274100  1
  O  O52  1  0.42520100  0.95077800  0.64815100  1
  O  O53  1  0.57479900  0.04922200  0.35184900  1
  O  O54  1  0.14522200  0.82767900  0.63354800  1
  O  O55  1  0.85477800  0.17232100  0.36645200  1
  O  O56  1  0.08336800  0.87575800  0.47520100  1
  O  O57  1  0.91663200  0.12424200  0.52479900  1
  O  O58  1  0.16874600  0.78073900  0.33824700  1
  O  O59  1  0.83125400  0.21926100  0.66175300  1
  O  O60  1  0.32607300  0.64114800  0.36378300  1
  O  O61  1  0.67392700  0.35885200  0.63621700  1
  O  O62  1  0.37471800  0.59067300  0.52065600  1
  O  O63  1  0.62528200  0.40932700  0.47934400  1
  O  O64  1  0.28990600  0.68613100  0.65522700  1
  O  O65  1  0.71009400  0.31386900  0.34477300  1
  O  O66  1  0.88783000  0.67124200  0.52650800  1
  O  O67  1  0.11217000  0.32875800  0.47349200  1
  O  O68  1  0.88992200  0.55179300  0.38381300  1
  O  O69  1  0.11007800  0.44820700  0.61618700  1
  O  O70  1  0.08153900  0.47437000  0.35056600  1
  O  O71  1  0.91846100  0.52563000  0.64943400  1
  O  O72  1  0.16153600  0.11322700  0.57023000  1
  O  O73  1  0.83846400  0.88677300  0.42977000  1
  O  O74  1  0.25363500  0.09363200  0.67914800  1
  O  O75  1  0.74636500  0.90636800  0.32085200  1
  O  O76  1  0.11492500  0.17693200  0.68427200  1
  O  O77  1  0.88507500  0.82306800  0.31572800  1
  O  O78  1  0.44639500  0.82744100  0.23511100  1
  O  O79  1  0.55360500  0.17255900  0.76488900  1
  O  O80  1  0.36264500  0.96289200  0.24094900  1
  O  O81  1  0.63735500  0.03710800  0.75905100  1
  O  O82  1  0.40301600  0.90109100  0.12490000  1
  O  O83  1  0.59698400  0.09890900  0.87510000  1
  O  O84  1  0.55795100  0.71512500  0.68161900  1
  O  O85  1  0.44204900  0.28487500  0.31838100  1
  O  O86  1  0.64788300  0.70690900  0.57021000  1
  O  O87  1  0.35211700  0.29309100  0.42979000  1
  O  O88  1  0.70493400  0.64186700  0.67857700  1
  O  O89  1  0.29506600  0.35813300  0.32142300  1
  O  O90  1  0.83575600  0.46160400  0.21075200  1
  O  O91  1  0.16424400  0.53839600  0.78924800  1
  O  O92  1  0.93587300  0.45250900  0.10402800  1
  O  O93  1  0.06412700  0.54749100  0.89597200  1
  O  O94  1  0.93620800  0.33877800  0.20529200  1
  O  O95  1  0.06379200  0.66122200  0.79470800  1
  O  O96  1  0.33989800  0.45492300  0.71517600  1
  O  O97  1  0.66010200  0.54507700  0.28482400  1
  O  O98  1  0.39825900  0.39239300  0.60490400  1
  O  O99  1  0.60174100  0.60760700  0.39509600  1
  O  O100  1  0.49092900  0.38966600  0.71855500  1
  O  O101  1  0.50907100  0.61033400  0.28144500  1
loop_
_geom_bond_atom_site_label_1
_geom_bond_atom_site_label_2
_geom_bond_distance
_geom_bond_site_symmetry_2
H0 O1 0.971305 1_555
H1 O2 0.971305 1_555
H2 O3 0.981249 1_555
H3 O4 0.981249 1_555
H4 O5 0.988198 1_555
H5 O6 0.988198 1_555
H6 O7 0.979639 1_555
H7 O8 0.979639 1_555
H8 O9 0.981291 1_555
H9 O10 0.981291 1_555
H10 O9 0.998151 1_555
H11 O10 0.998151 1_555
H12 O11 0.978264 1_555
H13 O12 0.978264 1_555
H14 O11 0.982999 1_556
H15 O12 0.982999 1_554
H16 O13 0.979051 1_555
H17 O14 0.979051 1_555
H18 O13 0.998424 1_555
H19 O14 0.998424 1_555
H20 O15 0.983475 1_555
H21 O16 0.983475 1_555
H22 O15 0.981276 1_555
H23 O16 0.981276 1_555
H24 O17 0.992947 1_554
H25 O18 0.992947 1_556
H26 O17 0.992365 1_555
H27 O18 0.992365 1_555
H28 O19 0.981915 1_555
H29 O20 0.981915 1_555
H30 O19 0.993994 1_555
H31 O20 0.993994 1_555
H32 O21 0.992764 1_555
H33 O22 0.992764 1_555
H34 O21 0.987497 1_555
H35 O22 0.987497 1_555
H36 O23 1.003002 1_555
H37 O24 1.003002 1_555
H38 O23 0.976497 1_555
H39 O24 0.976497 1_555
H40 O25 0.981481 1_555
H41 O26 0.981481 1_555
H42 O25 0.995773 1_555
H43 O26 0.995773 1_555
H44 O46 0.970871 1_555
H45 O47 0.970871 1_555
H46 O48 0.978474 1_555
H47 O49 0.978474 1_555
H48 O50 0.989404 1_555
H49 O51 0.989404 1_555
H50 O52 0.978104 1_555
H51 O53 0.978104 1_555
H52 O54 0.986856 1_555
H53 O55 0.986856 1_555
H54 O54 0.984171 1_555
H55 O55 0.984171 1_555
H56 O56 0.977179 1_555
H57 O57 0.977179 1_555
H58 O56 0.998320 1_555
H59 O57 0.998320 1_555
H60 O58 0.987339 1_555
H61 O59 0.987339 1_555
H62 O58 0.982593 1_555
H63 O59 0.982593 1_555
H64 O60 0.994845 1_555
H65 O61 0.994845 1_555
H66 O60 0.996472 1_555
H66 O101 1.728514 1_555
H67 O61 0.996472 1_555
H67 O100 1.728514 1_555
H68 O62 0.985222 1_555
H69 O63 0.985222 1_555
H70 O62 0.986323 1_555
H71 O63 0.986323 1_555
H72 O64 0.978855 1_555
H73 O65 0.978855 1_555
H74 O64 0.993775 1_555
H75 O65 0.993775 1_555
H76 O66 0.981740 1_555
H77 O67 0.981740 1_555
H78 O66 0.994695 1_555
H79 O67 0.994695 1_555
H80 O68 0.998490 1_555
H81 O69 0.998490 1_555
H82 O68 0.975197 1_555
H83 O69 0.975197 1_555
H84 O70 0.982998 1_555
H85 O71 0.982998 1_555
H86 O70 0.995633 1_555
H87 O71 0.995633 1_555
N0 O31 1.245393 1_555
N0 O27 1.275510 1_555
N0 O29 1.287204 1_555
N1 O32 1.245393 1_555
N1 O28 1.275510 1_555
N1 O30 1.287204 1_555
N2 O37 1.244409 1_555
N2 O33 1.279316 1_555
N2 O35 1.282436 1_555
N3 O38 1.244409 1_555
N3 O34 1.279316 1_555
N3 O36 1.282436 1_555
N4 O43 1.241368 1_555
N4 O41 1.276672 1_555
N4 O39 1.292506 1_555
N5 O44 1.241368 1_555
N5 O42 1.276672 1_555
N5 O40 1.292506 1_555
N6 O76 1.247305 1_555
N6 O72 1.280651 1_555
N6 O74 1.282210 1_555
N7 O77 1.247305 1_555
N7 O73 1.280651 1_555
N7 O75 1.282210 1_555
N8 O82 1.252486 1_555
N8 O78 1.276405 1_555
N8 O80 1.278349 1_555
N9 O83 1.252486 1_555
N9 O79 1.276405 1_555
N9 O81 1.278349 1_555
N10 O88 1.247231 1_555
N10 O86 1.278155 1_555
N10 O84 1.283013 1_555
N11 O89 1.247231 1_555
N11 O87 1.278155 1_555
N11 O85 1.283013 1_555
N12 O92 1.262331 1_555
N12 O90 1.267905 1_555
N12 O94 1.275960 1_555
N13 O93 1.262331 1_555
N13 O91 1.267905 1_555
N13 O95 1.275960 1_555
N14 O96 1.261291 1_555
N14 O100 1.266933 1_555
N14 O98 1.280563 1_555
N15 O97 1.261291 1_555
N15 O101 1.266933 1_555
N15 O99 1.280563 1_555
O0 Sm3 2.559106 1_555
O0 Sm2 2.559106 1_444
O0 Sm1 2.564725 1_554
O0 Sm0 2.564725 1_445
O0 Sm5 2.570724 1_554
O0 Sm4 2.570724 1_445
O1 Sm2 2.385969 1_555
O1 Sm0 2.392451 1_556
O1 Sm4 2.408872 1_556
O2 Sm3 2.385969 1_555
O2 Sm1 2.392451 1_554
O2 Sm5 2.408872 1_554
O3 Sm0 2.403725 1_546
O3 Sm2 2.406887 1_545
O3 Sm5 2.426210 1_655
O4 Sm1 2.403725 1_564
O4 Sm3 2.406887 1_565
O4 Sm4 2.426210 1_455
O5 Sm2 2.392894 1_455
O5 Sm1 2.400158 1_565
O5 Sm4 2.430484 1_456
O6 Sm3 2.392894 1_655
O6 Sm0 2.400158 1_545
O6 Sm5 2.430484 1_654
O7 Sm3 2.410965 1_665
O7 Sm4 2.422389 1_555
O7 Sm0 2.436532 1_555
O8 Sm2 2.410965 1_445
O8 Sm5 2.422389 1_555
O8 Sm1 2.436532 1_555
O9 Sm0 2.566374 1_555
O10 Sm1 2.566374 1_555
O11 Sm0 2.474167 1_555
O12 Sm1 2.474167 1_555
O13 Sm2 2.592103 1_555
O14 Sm3 2.592103 1_555
O15 Sm2 2.469873 1_555
O16 Sm3 2.469873 1_555
O17 Sm4 2.532807 1_556
O18 Sm5 2.532807 1_554
O19 Sm4 2.469940 1_555
O20 Sm5 2.469940 1_555
O27 Sm0 2.661620 1_545
O28 Sm1 2.661620 1_565
O29 Sm0 2.549277 1_545
O30 Sm1 2.549277 1_565
O33 Sm2 2.665707 1_555
O34 Sm3 2.665707 1_555
O35 Sm2 2.558128 1_555
O36 Sm3 2.558128 1_555
O39 Sm4 2.610329 1_455
O40 Sm5 2.610329 1_655
O41 Sm4 2.540489 1_455
O42 Sm5 2.540489 1_655
O45 Sm6 2.559486 1_545
O45 Sm7 2.559486 1_555
O45 Sm11 2.562997 1_555
O45 Sm10 2.562997 1_545
O45 Sm9 2.576553 1_555
O45 Sm8 2.576553 1_545
O46 Sm8 2.395408 1_555
O46 Sm6 2.401110 1_555
O46 Sm10 2.403925 1_555
O47 Sm9 2.395408 1_555
O47 Sm7 2.401110 1_555
O47 Sm11 2.403925 1_555
O48 Sm8 2.411559 1_545
O48 Sm11 2.412786 1_555
O48 Sm6 2.422214 1_545
O49 Sm9 2.411559 1_565
O49 Sm10 2.412786 1_555
O49 Sm7 2.422214 1_565
O50 Sm10 2.395196 1_555
O50 Sm7 2.408849 1_565
O50 Sm8 2.412552 1_555
O51 Sm11 2.395196 1_555
O51 Sm6 2.408849 1_545
O51 Sm9 2.412552 1_555
O52 Sm6 2.412227 1_555
O52 Sm9 2.415558 1_565
O52 Sm10 2.426256 1_555
O53 Sm7 2.412227 1_555
O53 Sm8 2.415558 1_545
O53 Sm11 2.426256 1_555
O54 Sm6 2.473112 1_555
O55 Sm7 2.473112 1_555
O56 Sm6 2.592019 1_555
O57 Sm7 2.592019 1_555
O58 Sm8 2.495119 1_555
O59 Sm9 2.495119 1_555
O60 Sm8 2.558568 1_555
O61 Sm9 2.558568 1_555
O62 Sm10 2.472967 1_555
O63 Sm11 2.472967 1_555
O64 Sm10 2.577493 1_555
O65 Sm11 2.577493 1_555
O72 Sm6 2.540807 1_545
O73 Sm7 2.540807 1_565
O74 Sm6 2.618365 1_545
O75 Sm7 2.618365 1_565
O78 Sm8 2.571684 1_555
O79 Sm9 2.571684 1_555
O80 Sm8 2.620835 1_555
O81 Sm9 2.620835 1_555
O84 Sm10 2.527858 1_555
O85 Sm11 2.527858 1_555
O86 Sm10 2.673720 1_555
O87 Sm11 2.673720 1_555
