# generated using pymatgen
data_Ba2YbReO6
_symmetry_space_group_name_H-M   'P 1'
_cell_length_a   5.89388225
_cell_length_b   5.89388225
_cell_length_c   5.89388225
_cell_angle_alpha   60.00000000
_cell_angle_beta   60.00000000
_cell_angle_gamma   60.00000000
_symmetry_Int_Tables_number   1
_chemical_formula_structural   Ba2YbReO6
_chemical_formula_sum   'Ba2 Yb1 Re1 O6'
_cell_volume   144.77359808
_cell_formula_units_Z   1
loop_
 _symmetry_equiv_pos_site_id
 _symmetry_equiv_pos_as_xyz
  1  'x, y, z'
loop_
 _atom_site_type_symbol
 _atom_site_label
 _atom_site_symmetry_multiplicity
 _atom_site_fract_x
 _atom_site_fract_y
 _atom_site_fract_z
 _atom_site_occupancy
  Ba  Ba0  1  0.75000000  0.75000000  0.75000000  1
  Ba  Ba1  1  0.25000000  0.25000000  0.25000000  1
  Yb  Yb0  1  0.50000000  0.50000000  0.50000000  1
  Re  Re0  1  0.00000000  0.00000000  0.00000000  1
  O  O0  1  0.23781044  0.76218956  0.23781044  1
  O  O1  1  0.23781044  0.76218956  0.76218956  1
  O  O2  1  0.76218956  0.23781044  0.23781044  1
  O  O3  1  0.76218956  0.76218956  0.23781044  1
  O  O4  1  0.76218956  0.23781044  0.76218956  1
  O  O5  1  0.23781044  0.23781044  0.76218956  1
loop_
_geom_bond_atom_site_label_1
_geom_bond_atom_site_label_2
_geom_bond_distance
_geom_bond_site_symmetry_2
Ba0 O1 2.948692 1_655
Ba0 O4 2.948692 1_565
Ba0 O3 2.948692 1_556
Ba0 O5 2.948692 1_655
Ba0 O0 2.948692 1_655
Ba0 O2 2.948692 1_556
Ba0 O5 2.948692 1_565
Ba0 O2 2.948692 1_565
Ba0 O0 2.948692 1_556
Ba0 O4 2.948692 1_555
Ba0 O1 2.948692 1_555
Ba0 O3 2.948692 1_555
Ba1 O2 2.948692 1_555
Ba1 O0 2.948692 1_555
Ba1 O5 2.948692 1_555
Ba1 O3 2.948692 1_455
Ba1 O1 2.948692 1_545
Ba1 O1 2.948692 1_554
Ba1 O4 2.948692 1_455
Ba1 O4 2.948692 1_554
Ba1 O3 2.948692 1_545
Ba1 O2 2.948692 1_455
Ba1 O0 2.948692 1_545
Ba1 O5 2.948692 1_554
O0 Re0 1.982200 1_565
O0 Yb0 2.185405 1_555
O1 Re0 1.982200 1_566
O1 Yb0 2.185405 1_555
O2 Re0 1.982200 1_655
O2 Yb0 2.185405 1_555
O3 Re0 1.982200 1_665
O3 Yb0 2.185405 1_555
O4 Re0 1.982200 1_656
O4 Yb0 2.185405 1_555
O5 Re0 1.982200 1_556
O5 Yb0 2.185405 1_555
