# generated using pymatgen
data_Lu4Ga12Pd
_symmetry_space_group_name_H-M   'P 1'
_cell_length_a   7.32107053
_cell_length_b   7.32107053
_cell_length_c   7.32107053
_cell_angle_alpha   109.47122063
_cell_angle_beta   109.47122063
_cell_angle_gamma   109.47122063
_symmetry_Int_Tables_number   1
_chemical_formula_structural   Lu4Ga12Pd
_chemical_formula_sum   'Lu4 Ga12 Pd1'
_cell_volume   302.06602547
_cell_formula_units_Z   1
loop_
 _symmetry_equiv_pos_site_id
 _symmetry_equiv_pos_as_xyz
  1  'x, y, z'
loop_
 _atom_site_type_symbol
 _atom_site_label
 _atom_site_symmetry_multiplicity
 _atom_site_fract_x
 _atom_site_fract_y
 _atom_site_fract_z
 _atom_site_occupancy
  Lu  Lu0  1  0.00000000  0.00000000  0.50000000  1
  Lu  Lu1  1  0.00000000  0.50000000  0.00000000  1
  Lu  Lu2  1  0.50000000  0.00000000  0.00000000  1
  Lu  Lu3  1  0.50000000  0.50000000  0.50000000  1
  Ga  Ga0  1  0.75000000  0.25000000  0.50000000  1
  Ga  Ga1  1  0.75000000  0.50000000  0.25000000  1
  Ga  Ga2  1  0.50000000  0.25000000  0.75000000  1
  Ga  Ga3  1  0.25000000  0.50000000  0.75000000  1
  Ga  Ga4  1  0.25000000  0.75000000  0.50000000  1
  Ga  Ga5  1  0.50000000  0.75000000  0.25000000  1
  Ga  Ga6  1  0.70302344  0.70302344  0.00000000  1
  Ga  Ga7  1  0.29697656  -0.00000000  0.29697656  1
  Ga  Ga8  1  -0.00000000  0.29697656  0.29697656  1
  Ga  Ga9  1  0.29697656  0.29697656  -0.00000000  1
  Ga  Ga10  1  0.70302344  0.00000000  0.70302344  1
  Ga  Ga11  1  0.00000000  0.70302344  0.70302344  1
  Pd  Pd0  1  0.00000000  0.00000000  0.00000000  1
loop_
_geom_bond_atom_site_label_1
_geom_bond_atom_site_label_2
_geom_bond_distance
_geom_bond_site_symmetry_2
Ga0 Ga8 2.722526 1_655
Ga0 Ga10 2.722526 1_555
Ga0 Ga11 2.722526 1_655
Ga0 Ga7 2.722526 1_555
Ga0 Lu1 2.988815 1_656
Ga0 Lu2 2.988815 1_555
Ga0 Ga2 2.988815 1_555
Ga0 Ga1 2.988815 1_555
Ga0 Ga5 2.988815 1_545
Ga0 Ga3 2.988815 1_655
Ga0 Lu3 2.988815 1_555
Ga0 Lu0 2.988815 1_655
Ga1 Ga6 2.722526 1_555
Ga1 Ga9 2.722526 1_555
Ga1 Ga11 2.722526 1_655
Ga1 Ga8 2.722526 1_655
Ga1 Lu2 2.988815 1_555
Ga1 Ga5 2.988815 1_555
Ga1 Lu0 2.988815 1_665
Ga1 Lu3 2.988815 1_555
Ga1 Ga2 2.988815 1_554
Ga1 Ga4 2.988815 1_655
Ga1 Lu1 2.988815 1_655
Ga2 Ga7 2.722526 1_555
Ga2 Ga9 2.722526 1_556
Ga2 Ga6 2.722526 1_556
Ga2 Lu1 2.988815 1_656
Ga2 Ga4 2.988815 1_545
Ga2 Lu3 2.988815 1_555
Ga2 Lu0 2.988815 1_555
Ga2 Lu2 2.988815 1_556
Ga2 Ga3 2.988815 1_555
Ga3 Ga8 2.722526 1_555
Ga3 Ga9 2.722526 1_556
Ga3 Ga6 2.722526 1_556
Ga3 Ga5 2.988815 1_556
Ga3 Lu2 2.988815 1_566
Ga3 Lu3 2.988815 1_555
Ga3 Lu0 2.988815 1_555
Ga3 Lu1 2.988815 1_556
Ga3 Ga4 2.988815 1_555
Ga4 Ga7 2.722526 1_565
Ga4 Ga8 2.722526 1_555
Ga4 Ga5 2.988815 1_555
Ga4 Lu2 2.988815 1_566
Ga4 Lu1 2.988815 1_555
Ga4 Lu3 2.988815 1_555
Ga4 Lu0 2.988815 1_565
Ga5 Ga6 2.722526 1_555
Ga5 Ga9 2.722526 1_555
Ga5 Ga7 2.722526 1_565
Ga5 Lu2 2.988815 1_565
Ga5 Lu1 2.988815 1_555
Ga5 Lu3 2.988815 1_555
Ga5 Lu0 2.988815 1_665
Ga6 Pd0 2.510534 1_665
Ga6 Lu3 3.015082 1_554
Ga6 Lu0 3.015082 1_665
Ga6 Lu1 3.015082 1_655
Ga6 Lu2 3.015082 1_565
Ga7 Pd0 2.510534 1_555
Ga7 Lu0 3.015082 1_555
Ga7 Lu1 3.015082 1_545
Ga7 Lu2 3.015082 1_555
Ga7 Lu3 3.015082 1_555
Ga8 Pd0 2.510534 1_555
Ga8 Lu0 3.015082 1_555
Ga8 Lu2 3.015082 1_455
Ga8 Lu1 3.015082 1_555
Ga8 Lu3 3.015082 1_555
Ga9 Pd0 2.510534 1_555
Ga9 Lu1 3.015082 1_555
Ga9 Lu0 3.015082 1_554
Ga9 Lu2 3.015082 1_555
Ga9 Lu3 3.015082 1_555
Ga10 Pd0 2.510534 1_656
Ga10 Ga2 2.722526 1_555
Ga10 Ga5 2.722526 1_545
Ga10 Ga4 2.722526 1_545
Ga10 Lu0 3.015082 1_655
Ga10 Lu2 3.015082 1_556
Ga10 Lu1 3.015082 1_656
Ga10 Lu3 3.015082 1_545
Ga11 Pd0 2.510534 1_566
Ga11 Ga4 2.722526 1_555
Ga11 Ga3 2.722526 1_555
Ga11 Lu0 3.015082 1_565
Ga11 Lu1 3.015082 1_556
Ga11 Lu2 3.015082 1_566
Ga11 Lu3 3.015082 1_455
