# generated using pymatgen
data_K2TeOF4
_symmetry_space_group_name_H-M   'P 1'
_cell_length_a   7.83890020
_cell_length_b   7.83890020
_cell_length_c   6.72101500
_cell_angle_alpha   90.00000000
_cell_angle_beta   90.00000000
_cell_angle_gamma   131.51154506
_symmetry_Int_Tables_number   1
_chemical_formula_structural   K2TeOF4
_chemical_formula_sum   'K4 Te2 O2 F8'
_cell_volume   309.26006263
_cell_formula_units_Z   2
loop_
 _symmetry_equiv_pos_site_id
 _symmetry_equiv_pos_as_xyz
  1  'x, y, z'
loop_
 _atom_site_type_symbol
 _atom_site_label
 _atom_site_symmetry_multiplicity
 _atom_site_fract_x
 _atom_site_fract_y
 _atom_site_fract_z
 _atom_site_occupancy
  K  K0  1  0.42695700  0.57304300  0.25000000  1
  K  K1  1  0.57304300  0.42695700  0.75000000  1
  K  K2  1  0.75047200  0.24952800  0.25000000  1
  K  K3  1  0.24952800  0.75047200  0.75000000  1
  Te  Te0  1  0.11002300  0.88997700  0.25000000  1
  Te  Te1  1  0.88997700  0.11002300  0.75000000  1
  O  O0  1  0.76284500  0.23715500  0.75000000  1
  O  O1  1  0.23715500  0.76284500  0.25000000  1
  F  F0  1  0.12298300  0.34759600  0.53258400  1
  F  F1  1  0.34759600  0.12298300  0.46741600  1
  F  F2  1  0.12298300  0.34759600  0.96741600  1
  F  F3  1  0.34759600  0.12298300  0.03258400  1
  F  F4  1  0.87701700  0.65240400  0.03258400  1
  F  F5  1  0.65240400  0.87701700  0.96741600  1
  F  F6  1  0.65240400  0.87701700  0.53258400  1
  F  F7  1  0.87701700  0.65240400  0.46741600  1
loop_
_geom_bond_atom_site_label_1
_geom_bond_atom_site_label_2
_geom_bond_distance
_geom_bond_site_symmetry_2
K0 O1 2.713233 1_555
K1 O0 2.713233 1_555
K2 O1 3.224488 1_655
K2 O1 3.224488 1_545
K2 O0 3.365159 1_554
K2 O0 3.365159 1_555
K3 O0 3.224488 1_565
K3 O0 3.224488 1_455
K3 O1 3.365159 1_556
K3 O1 3.365159 1_555
O0 Te1 1.817361 1_555
O1 Te0 1.817361 1_555
F0 Te1 2.104933 1_455
F0 K0 2.612711 1_555
F0 K3 2.990035 1_555
F0 K2 3.122403 1_455
F1 Te0 2.104933 1_545
F1 K1 2.612711 1_555
F1 K2 2.990035 1_555
F1 K3 3.122403 1_545
F2 Te1 2.104933 1_455
F2 K0 2.612711 1_556
F2 K3 2.990035 1_555
F2 K2 3.122403 1_456
F3 Te0 2.104933 1_545
F3 K1 2.612711 1_554
F3 K2 2.990035 1_555
F3 K3 3.122403 1_544
F4 Te0 2.104933 1_655
F4 K1 2.612711 1_554
F4 K2 2.990035 1_555
F4 K3 3.122403 1_654
F5 Te1 2.104933 1_565
F5 K0 2.612711 1_556
F5 K3 2.990035 1_555
F5 K2 3.122403 1_566
F6 Te1 2.104933 1_565
F6 K0 2.612711 1_555
F6 K3 2.990035 1_555
F6 K2 3.122403 1_565
F7 Te0 2.104933 1_655
F7 K1 2.612711 1_555
F7 K2 2.990035 1_555
F7 K3 3.122403 1_655
