# generated using pymatgen
data_Pr2Co14B
_symmetry_space_group_name_H-M   'P 1'
_cell_length_a   8.61858300
_cell_length_b   8.61858300
_cell_length_c   11.82871300
_cell_angle_alpha   90.00000000
_cell_angle_beta   90.00000000
_cell_angle_gamma   90.00000000
_symmetry_Int_Tables_number   1
_chemical_formula_structural   Pr2Co14B
_chemical_formula_sum   'Pr8 Co56 B4'
_cell_volume   878.63648141
_cell_formula_units_Z   4
loop_
 _symmetry_equiv_pos_site_id
 _symmetry_equiv_pos_as_xyz
  1  'x, y, z'
loop_
 _atom_site_type_symbol
 _atom_site_label
 _atom_site_symmetry_multiplicity
 _atom_site_fract_x
 _atom_site_fract_y
 _atom_site_fract_z
 _atom_site_occupancy
  Pr  Pr0  1  0.22528700  0.77471300  0.50000000  1
  Pr  Pr1  1  0.77471300  0.22528700  0.50000000  1
  Pr  Pr2  1  0.27471300  0.27471300  0.00000000  1
  Pr  Pr3  1  0.72528700  0.72528700  0.00000000  1
  Pr  Pr4  1  0.64455400  0.64455400  0.50000000  1
  Pr  Pr5  1  0.35544600  0.35544600  0.50000000  1
  Pr  Pr6  1  0.85544600  0.14455400  0.00000000  1
  Pr  Pr7  1  0.14455400  0.85544600  0.00000000  1
  Co  Co0  1  0.00000000  0.50000000  0.50000000  1
  Co  Co1  1  0.50000000  0.00000000  0.00000000  1
  Co  Co2  1  0.50000000  0.00000000  0.50000000  1
  Co  Co3  1  0.00000000  0.50000000  0.00000000  1
  Co  Co4  1  0.50000000  0.50000000  0.11604700  1
  Co  Co5  1  0.00000000  0.00000000  0.61604700  1
  Co  Co6  1  0.50000000  0.50000000  0.88395300  1
  Co  Co7  1  0.00000000  0.00000000  0.38395300  1
  Co  Co8  1  0.18204100  0.81795900  0.25314000  1
  Co  Co9  1  0.81795900  0.18204100  0.25314000  1
  Co  Co10  1  0.31795900  0.31795900  0.75314000  1
  Co  Co11  1  0.68204100  0.68204100  0.75314000  1
  Co  Co12  1  0.81795900  0.18204100  0.74686000  1
  Co  Co13  1  0.18204100  0.81795900  0.74686000  1
  Co  Co14  1  0.68204100  0.68204100  0.24686000  1
  Co  Co15  1  0.31795900  0.31795900  0.24686000  1
  Co  Co16  1  0.40120100  0.59879900  0.29337500  1
  Co  Co17  1  0.59879900  0.40120100  0.29337500  1
  Co  Co18  1  0.09879900  0.09879900  0.79337500  1
  Co  Co19  1  0.90120100  0.90120100  0.79337500  1
  Co  Co20  1  0.59879900  0.40120100  0.70662500  1
  Co  Co21  1  0.40120100  0.59879900  0.70662500  1
  Co  Co22  1  0.90120100  0.90120100  0.20662500  1
  Co  Co23  1  0.09879900  0.09879900  0.20662500  1
  Co  Co24  1  0.13936600  0.53630900  0.32051400  1
  Co  Co25  1  0.86063400  0.46369100  0.32051400  1
  Co  Co26  1  0.36063400  0.03630900  0.82051400  1
  Co  Co27  1  0.63936600  0.96369100  0.82051400  1
  Co  Co28  1  0.86063400  0.46369100  0.67948600  1
  Co  Co29  1  0.13936600  0.53630900  0.67948600  1
  Co  Co30  1  0.63936600  0.96369100  0.17948600  1
  Co  Co31  1  0.36063400  0.03630900  0.17948600  1
  Co  Co32  1  0.53630900  0.13936600  0.32051400  1
  Co  Co33  1  0.46369100  0.86063400  0.32051400  1
  Co  Co34  1  0.03630900  0.36063400  0.82051400  1
  Co  Co35  1  0.96369100  0.63936600  0.82051400  1
  Co  Co36  1  0.46369100  0.86063400  0.67948600  1
  Co  Co37  1  0.53630900  0.13936600  0.67948600  1
  Co  Co38  1  0.96369100  0.63936600  0.17948600  1
  Co  Co39  1  0.03630900  0.36063400  0.17948600  1
  Co  Co40  1  0.93049300  0.72447000  0.37284000  1
  Co  Co41  1  0.06950700  0.27553000  0.37284000  1
  Co  Co42  1  0.56950700  0.22447000  0.87284000  1
  Co  Co43  1  0.43049300  0.77553000  0.87284000  1
  Co  Co44  1  0.06950700  0.27553000  0.62716000  1
  Co  Co45  1  0.93049300  0.72447000  0.62716000  1
  Co  Co46  1  0.43049300  0.77553000  0.12716000  1
  Co  Co47  1  0.56950700  0.22447000  0.12716000  1
  Co  Co48  1  0.72447000  0.93049300  0.37284000  1
  Co  Co49  1  0.27553000  0.06950700  0.37284000  1
  Co  Co50  1  0.22447000  0.56950700  0.87284000  1
  Co  Co51  1  0.77553000  0.43049300  0.87284000  1
  Co  Co52  1  0.27553000  0.06950700  0.62716000  1
  Co  Co53  1  0.72447000  0.93049300  0.62716000  1
  Co  Co54  1  0.77553000  0.43049300  0.12716000  1
  Co  Co55  1  0.22447000  0.56950700  0.12716000  1
  B  B0  1  0.87795200  0.87795200  0.50000000  1
  B  B1  1  0.12204800  0.12204800  0.50000000  1
  B  B2  1  0.62204800  0.37795200  0.00000000  1
  B  B3  1  0.37795200  0.62204800  0.00000000  1
loop_
_geom_bond_atom_site_label_1
_geom_bond_atom_site_label_2
_geom_bond_distance
_geom_bond_site_symmetry_2
Co0 Co29 2.459301 1_555
Co0 Co28 2.459301 1_455
Co0 Co24 2.459301 1_555
Co0 Co25 2.459301 1_455
Co0 Co41 2.522702 1_555
Co0 Co44 2.522702 1_555
Co0 Co40 2.522702 1_455
Co0 Co45 2.522702 1_455
Co0 Pr1 3.061981 1_455
Co0 Pr0 3.061981 1_555
Co0 Pr5 3.307085 1_555
Co0 Pr4 3.307085 1_455
Co1 Co31 2.459301 1_555
Co1 Co30 2.459301 1_545
Co1 Co26 2.459301 1_554
Co1 Co27 2.459301 1_544
Co1 Co42 2.522702 1_554
Co1 Co47 2.522702 1_555
Co1 Co43 2.522702 1_544
Co1 Co46 2.522702 1_545
Co1 Pr3 3.061981 1_545
Co1 Pr2 3.061981 1_555
Co1 Pr6 3.307085 1_555
Co1 Pr7 3.307085 1_545
Co2 Co37 2.459301 1_555
Co2 Co36 2.459301 1_545
Co2 Co32 2.459301 1_555
Co2 Co33 2.459301 1_545
Co2 Co49 2.522702 1_555
Co2 Co52 2.522702 1_555
Co2 Co48 2.522702 1_545
Co2 Co53 2.522702 1_545
Co2 Pr0 3.061981 1_545
Co2 Pr1 3.061981 1_555
Co2 Pr5 3.307085 1_555
Co2 Pr4 3.307085 1_545
Co3 Co39 2.459301 1_555
Co3 Co38 2.459301 1_455
Co3 Co34 2.459301 1_554
Co3 Co35 2.459301 1_454
Co3 Co50 2.522702 1_554
Co3 Co55 2.522702 1_555
Co3 Co51 2.522702 1_454
Co3 Co54 2.522702 1_455
Co3 Pr2 3.061981 1_555
Co3 Pr3 3.061981 1_455
Co3 Pr7 3.307085 1_555
Co3 Pr6 3.307085 1_455
Co4 Pr3 3.069905 1_555
Co4 Pr2 3.069905 1_555
Co5 Pr1 3.069905 1_455
Co5 Pr0 3.069905 1_545
Co6 Pr2 3.069905 1_556
Co6 Pr3 3.069905 1_556
Co7 Co8 2.705071 1_545
Co7 Co9 2.705071 1_455
Co7 Pr1 3.069905 1_455
Co7 Pr0 3.069905 1_545
Co8 Pr0 2.967229 1_555
Co8 Pr7 3.028980 1_555
Co9 Pr1 2.967229 1_555
Co9 Pr6 3.028980 1_555
Co10 Co26 2.581238 1_555
Co10 Co34 2.581238 1_555
Co10 Co37 2.582569 1_555
Co10 Co29 2.582569 1_555
Co10 Co21 2.583792 1_555
Co10 Co20 2.583792 1_555
Co10 Co52 2.634301 1_555
Co10 Co44 2.634301 1_555
Co10 Co6 2.705071 1_555
Co10 Co42 2.711854 1_555
Co10 Co50 2.711854 1_555
Co10 Co18 2.713302 1_555
Co10 Pr2 2.967229 1_556
Co10 Pr5 3.028980 1_555
Co11 Co27 2.581238 1_555
Co11 Co35 2.581238 1_555
Co11 Co36 2.582569 1_555
Co11 Co28 2.582569 1_555
Co11 Co21 2.583792 1_555
Co11 Co20 2.583792 1_555
Co11 Co45 2.634301 1_555
Co11 Co53 2.634301 1_555
Co11 Co6 2.705071 1_555
Co11 Co43 2.711854 1_555
Co11 Co51 2.711854 1_555
Co11 Co19 2.713302 1_555
Co11 Pr3 2.967229 1_556
Co11 Pr4 3.028980 1_555
Co12 Co28 2.581238 1_555
Co12 Co37 2.581238 1_555
Co12 Co27 2.582569 1_545
Co12 Co34 2.582569 1_655
Co12 Co19 2.583792 1_545
Co12 Co18 2.583792 1_655
Co12 Co51 2.634301 1_555
Co12 Co42 2.634301 1_555
Co12 Co5 2.705071 1_655
Co12 Co53 2.711854 1_545
Co12 Co44 2.711854 1_655
Co12 Co20 2.713302 1_555
Co12 Pr1 2.967229 1_555
Co12 Pr6 3.028980 1_556
Co13 Co36 2.581238 1_555
Co13 Co29 2.581238 1_555
Co13 Co35 2.582569 1_455
Co13 Co26 2.582569 1_565
Co13 Co19 2.583792 1_455
Co13 Co18 2.583792 1_565
Co13 Co43 2.634301 1_555
Co13 Co50 2.634301 1_555
Co13 Co5 2.705071 1_565
Co13 Co45 2.711854 1_455
Co13 Co52 2.711854 1_565
Co13 Co21 2.713302 1_555
Co13 Pr0 2.967229 1_555
Co13 Pr7 3.028980 1_556
Co14 Co30 2.581238 1_555
Co14 Co38 2.581238 1_555
Co14 Co33 2.582569 1_555
Co14 Co25 2.582569 1_555
Co14 Co17 2.583792 1_555
Co14 Co16 2.583792 1_555
Co14 Co48 2.634301 1_555
Co14 Co40 2.634301 1_555
Co14 Co4 2.705071 1_555
Co14 Co46 2.711854 1_555
Co14 Co54 2.711854 1_555
Co14 Co22 2.713302 1_555
Co14 Pr3 2.967229 1_555
Co14 Pr4 3.028980 1_555
Co15 Co39 2.581238 1_555
Co15 Co31 2.581238 1_555
Co15 Co24 2.582569 1_555
Co15 Co32 2.582569 1_555
Co15 Co16 2.583792 1_555
Co15 Co17 2.583792 1_555
Co15 Co49 2.634301 1_555
Co15 Co41 2.634301 1_555
Co15 Co4 2.705071 1_555
Co15 Co55 2.711854 1_555
Co15 Co47 2.711854 1_555
Co15 Co23 2.713302 1_555
Co15 Pr2 2.967229 1_555
Co15 Pr5 3.028980 1_555
Co16 Co33 2.342130 1_555
Co16 Co24 2.342130 1_555
Co16 Co17 2.408427 1_555
Co16 Co4 2.418656 1_555
Co16 Co55 2.499874 1_555
Co16 Co46 2.499874 1_555
Co16 Co8 2.713302 1_555
Co16 Pr4 3.244700 1_555
Co16 Pr5 3.244700 1_555
Co16 Pr0 3.251301 1_555
Co17 Co25 2.342130 1_555
Co17 Co32 2.342130 1_555
Co17 Co4 2.418656 1_555
Co17 Co54 2.499874 1_555
Co17 Co47 2.499874 1_555
Co17 Co9 2.713302 1_555
Co17 Pr4 3.244700 1_555
Co17 Pr5 3.244700 1_555
Co17 Pr1 3.251301 1_555
Co18 Co26 2.342130 1_555
Co18 Co34 2.342130 1_555
Co18 Co19 2.408427 1_445
Co18 Co5 2.418656 1_555
Co18 Co44 2.499874 1_555
Co18 Co52 2.499874 1_555
Co18 Pr6 3.244700 1_456
Co18 Pr7 3.244700 1_546
Co18 Pr2 3.251301 1_556
Co19 Co35 2.342130 1_555
Co19 Co27 2.342130 1_555
Co19 Co5 2.418656 1_665
Co19 Co53 2.499874 1_555
Co19 Co45 2.499874 1_555
Co19 Pr6 3.244700 1_566
Co19 Pr7 3.244700 1_656
Co19 Pr3 3.251301 1_556
Co20 Co28 2.342130 1_555
Co20 Co37 2.342130 1_555
Co20 Co21 2.408427 1_555
Co20 Co6 2.418656 1_555
Co20 Co42 2.499874 1_555
Co20 Co51 2.499874 1_555
Co20 Pr4 3.244700 1_555
Co20 Pr5 3.244700 1_555
Co20 Pr1 3.251301 1_555
Co21 Co36 2.342130 1_555
Co21 Co29 2.342130 1_555
Co21 Co6 2.418656 1_555
Co21 Co43 2.499874 1_555
Co21 Co50 2.499874 1_555
Co21 Pr5 3.244700 1_555
Co21 Pr4 3.244700 1_555
Co21 Pr0 3.251301 1_555
Co22 Co38 2.342130 1_555
Co22 Co30 2.342130 1_555
Co22 Co23 2.408427 1_665
Co22 Co7 2.418656 1_665
Co22 Co48 2.499874 1_555
Co22 Co40 2.499874 1_555
Co22 Co8 2.583792 1_655
Co22 Co9 2.583792 1_565
Co22 Pr6 3.244700 1_565
Co22 Pr7 3.244700 1_655
Co22 Pr3 3.251301 1_555
Co23 Co31 2.342130 1_555
Co23 Co39 2.342130 1_555
Co23 Co7 2.418656 1_555
Co23 Co41 2.499874 1_555
Co23 Co49 2.499874 1_555
Co23 Co8 2.583792 1_545
Co23 Co9 2.583792 1_455
Co23 Pr7 3.244700 1_545
Co23 Pr6 3.244700 1_455
Co23 Pr2 3.251301 1_555
Co24 Co41 2.407710 1_555
Co24 Co55 2.418845 1_555
Co24 Co39 2.421598 1_555
Co24 Co38 2.421598 1_455
Co24 Co25 2.482465 1_455
Co24 Co40 2.500726 1_455
Co24 Co8 2.581238 1_555
Co24 Pr0 3.045929 1_555
Co24 Pr5 3.225753 1_555
Co25 Co40 2.407710 1_555
Co25 Co54 2.418845 1_555
Co25 Co39 2.421598 1_655
Co25 Co38 2.421598 1_555
Co25 Co41 2.500726 1_655
Co25 Co9 2.581238 1_555
Co25 Pr1 3.045929 1_555
Co25 Pr4 3.225753 1_555
Co26 Co43 2.407710 1_545
Co26 Co52 2.418845 1_555
Co26 Co37 2.421598 1_555
Co26 Co36 2.421598 1_545
Co26 Co27 2.482465 1_545
Co26 Co42 2.500726 1_555
Co26 Pr2 3.045929 1_556
Co26 Pr7 3.225753 1_546
Co27 Co42 2.407710 1_565
Co27 Co53 2.418845 1_555
Co27 Co37 2.421598 1_565
Co27 Co36 2.421598 1_555
Co27 Co43 2.500726 1_555
Co27 Pr3 3.045929 1_556
Co27 Pr6 3.225753 1_566
Co28 Co45 2.407710 1_555
Co28 Co51 2.418845 1_555
Co28 Co34 2.421598 1_655
Co28 Co35 2.421598 1_555
Co28 Co29 2.482465 1_655
Co28 Co44 2.500726 1_655
Co28 Pr1 3.045929 1_555
Co28 Pr4 3.225753 1_555
Co29 Co44 2.407710 1_555
Co29 Co50 2.418845 1_555
Co29 Co34 2.421598 1_555
Co29 Co35 2.421598 1_455
Co29 Co45 2.500726 1_455
Co29 Pr0 3.045929 1_555
Co29 Pr5 3.225753 1_555
Co30 Co47 2.407710 1_565
Co30 Co48 2.418845 1_555
Co30 Co32 2.421598 1_565
Co30 Co33 2.421598 1_555
Co30 Co31 2.482465 1_565
Co30 Co46 2.500726 1_555
Co30 Co9 2.582569 1_565
Co30 Pr3 3.045929 1_555
Co30 Pr6 3.225753 1_565
Co31 Co46 2.407710 1_545
Co31 Co49 2.418845 1_555
Co31 Co32 2.421598 1_555
Co31 Co33 2.421598 1_545
Co31 Co47 2.500726 1_555
Co31 Co8 2.582569 1_545
Co31 Pr2 3.045929 1_555
Co31 Pr7 3.225753 1_545
Co32 Co49 2.407710 1_555
Co32 Co47 2.418845 1_555
Co32 Co33 2.482465 1_545
Co32 Co48 2.500726 1_545
Co32 Co9 2.581238 1_555
Co32 Pr1 3.045929 1_555
Co32 Pr5 3.225753 1_555
Co33 Co48 2.407710 1_555
Co33 Co46 2.418845 1_555
Co33 Co49 2.500726 1_565
Co33 Co8 2.581238 1_555
Co33 Pr0 3.045929 1_555
Co33 Pr4 3.225753 1_555
Co34 Co51 2.407710 1_455
Co34 Co44 2.418845 1_555
Co34 Co35 2.482465 1_455
Co34 Co50 2.500726 1_555
Co34 Pr2 3.045929 1_556
Co34 Pr6 3.225753 1_456
Co35 Co50 2.407710 1_655
Co35 Co45 2.418845 1_555
Co35 Co51 2.500726 1_555
Co35 Pr3 3.045929 1_556
Co35 Pr7 3.225753 1_656
Co36 Co53 2.407710 1_555
Co36 Co43 2.418845 1_555
Co36 Co37 2.482465 1_565
Co36 Co52 2.500726 1_565
Co36 Pr0 3.045929 1_555
Co36 Pr4 3.225753 1_555
Co37 Co52 2.407710 1_555
Co37 Co42 2.418845 1_555
Co37 Co53 2.500726 1_545
Co37 Pr1 3.045929 1_555
Co37 Pr5 3.225753 1_555
Co38 Co55 2.407710 1_655
Co38 Co40 2.418845 1_555
Co38 Co39 2.482465 1_655
Co38 Co54 2.500726 1_555
Co38 Co8 2.582569 1_655
Co38 Pr3 3.045929 1_555
Co38 Pr7 3.225753 1_655
Co39 Co54 2.407710 1_455
Co39 Co41 2.418845 1_555
Co39 Co55 2.500726 1_555
Co39 Co9 2.582569 1_455
Co39 Pr2 3.045929 1_555
Co39 Pr6 3.225753 1_455
Co40 Co8 2.711854 1_655
Co40 Pr4 2.968171 1_555
Co40 Pr0 2.984147 1_655
Co41 Co9 2.711854 1_455
Co41 Pr5 2.968171 1_555
Co41 Pr1 2.984147 1_455
Co42 Pr6 2.968171 1_556
Co42 Pr2 2.984147 1_556
Co43 Pr7 2.968171 1_556
Co43 Pr3 2.984147 1_556
Co44 Pr5 2.968171 1_555
Co44 Pr1 2.984147 1_455
Co45 Pr4 2.968171 1_555
Co45 Pr0 2.984147 1_655
Co46 Co8 2.634301 1_555
Co46 Pr7 2.968171 1_555
Co46 Pr3 2.984147 1_555
Co47 Co9 2.634301 1_555
Co47 Pr6 2.968171 1_555
Co47 Pr2 2.984147 1_555
Co48 Co9 2.711854 1_565
Co48 Pr4 2.968171 1_555
Co48 Pr1 2.984147 1_565
Co49 Co8 2.711854 1_545
Co49 Pr5 2.968171 1_555
Co49 Pr0 2.984147 1_545
Co50 Pr7 2.968171 1_556
Co50 Pr2 2.984147 1_556
Co51 Pr6 2.968171 1_556
Co51 Pr3 2.984147 1_556
Co52 Pr5 2.968171 1_555
Co52 Pr0 2.984147 1_545
Co53 Pr4 2.968171 1_555
Co53 Pr1 2.984147 1_565
Co54 Co9 2.634301 1_555
Co54 Pr6 2.968171 1_555
Co54 Pr3 2.984147 1_555
Co55 Co8 2.634301 1_555
Co55 Pr7 2.968171 1_555
Co55 Pr2 2.984147 1_555
B0 Co5 2.024148 1_665
B0 Co7 2.024148 1_665
B0 Co48 2.053602 1_555
B0 Co40 2.053602 1_555
B0 Co53 2.053602 1_555
B0 Co45 2.053602 1_555
B0 Pr4 2.844775 1_555
B0 Pr1 3.122972 1_565
B0 Pr0 3.122972 1_655
B1 Co7 2.024148 1_555
B1 Co5 2.024148 1_555
B1 Co41 2.053602 1_555
B1 Co49 2.053602 1_555
B1 Co52 2.053602 1_555
B1 Co44 2.053602 1_555
B1 Pr5 2.844775 1_555
B1 Pr0 3.122972 1_545
B1 Pr1 3.122972 1_455
B2 Co6 2.024148 1_554
B2 Co4 2.024148 1_555
B2 Co42 2.053602 1_554
B2 Co47 2.053602 1_555
B2 Co51 2.053602 1_554
B2 Co54 2.053602 1_555
B2 Pr6 2.844775 1_555
B2 Pr2 3.122972 1_555
B2 Pr3 3.122972 1_555
B3 Co6 2.024148 1_554
B3 Co4 2.024148 1_555
B3 Co50 2.053602 1_554
B3 Co55 2.053602 1_555
B3 Co43 2.053602 1_554
B3 Co46 2.053602 1_555
B3 Pr7 2.844775 1_555
B3 Pr2 3.122972 1_555
B3 Pr3 3.122972 1_555
