# generated using pymatgen
data_CaCu(SiO3)2
_symmetry_space_group_name_H-M   'P 1'
_cell_length_a   6.71079406
_cell_length_b   6.71079406
_cell_length_c   5.28413833
_cell_angle_alpha   77.91029669
_cell_angle_beta   77.91029669
_cell_angle_gamma   84.74330332
_symmetry_Int_Tables_number   1
_chemical_formula_structural   CaCu(SiO3)2
_chemical_formula_sum   'Ca2 Cu2 Si4 O12'
_cell_volume   227.24708883
_cell_formula_units_Z   2
loop_
 _symmetry_equiv_pos_site_id
 _symmetry_equiv_pos_as_xyz
  1  'x, y, z'
loop_
 _atom_site_type_symbol
 _atom_site_label
 _atom_site_symmetry_multiplicity
 _atom_site_fract_x
 _atom_site_fract_y
 _atom_site_fract_z
 _atom_site_occupancy
  Ca  Ca0  1  0.70398500  0.29601500  0.75000000  1
  Ca  Ca1  1  0.29601500  0.70398500  0.25000000  1
  Cu  Cu0  1  0.90574700  0.09425300  0.25000000  1
  Cu  Cu1  1  0.09425300  0.90574700  0.75000000  1
  Si  Si0  1  0.37971900  0.19445500  0.27349300  1
  Si  Si1  1  0.80554500  0.62028100  0.22650700  1
  Si  Si2  1  0.19445500  0.37971900  0.77349300  1
  Si  Si3  1  0.62028100  0.80554500  0.72650700  1
  O  O0  1  0.36931100  0.33218500  0.50708900  1
  O  O1  1  0.66781500  0.63068900  0.99291100  1
  O  O2  1  0.63068900  0.66781500  0.49291100  1
  O  O3  1  0.33218500  0.36931100  0.00708900  1
  O  O4  1  0.60899000  0.11057500  0.17904500  1
  O  O5  1  0.88942500  0.39101000  0.32095500  1
  O  O6  1  0.39101000  0.88942500  0.82095500  1
  O  O7  1  0.11057500  0.60899000  0.67904500  1
  O  O8  1  0.02716300  0.20415700  0.86047000  1
  O  O9  1  0.79584300  0.97283700  0.63953000  1
  O  O10  1  0.20415700  0.02716300  0.36047000  1
  O  O11  1  0.97283700  0.79584300  0.13953000  1
loop_
_geom_bond_atom_site_label_1
_geom_bond_atom_site_label_2
_geom_bond_distance
_geom_bond_site_symmetry_2
Ca0 O5 2.335185 1_555
Ca0 O4 2.335185 1_556
Ca0 O9 2.357746 1_545
Ca0 O8 2.357746 1_655
Ca0 O2 2.635912 1_555
Ca0 O3 2.635912 1_556
Ca0 O1 2.779901 1_555
Ca0 O0 2.779901 1_555
Ca1 O6 2.335185 1_554
Ca1 O7 2.335185 1_555
Ca1 O11 2.357746 1_455
Ca1 O10 2.357746 1_565
Ca1 O1 2.635912 1_554
Ca1 O0 2.635912 1_555
Ca1 O2 2.779901 1_555
Ca1 O3 2.779901 1_555
Cu0 O9 2.053355 1_545
Cu0 O8 2.053355 1_654
Cu0 O4 2.091446 1_555
Cu0 O5 2.091446 1_555
Cu0 O10 2.183599 1_655
Cu0 O11 2.183599 1_545
Cu1 O11 2.053355 1_456
Cu1 O10 2.053355 1_565
Cu1 O7 2.091446 1_555
Cu1 O6 2.091446 1_555
Cu1 O9 2.183599 1_455
Cu1 O8 2.183599 1_565
O0 Si0 1.677127 1_555
O0 Si2 1.699387 1_555
O1 Si1 1.677127 1_556
O1 Si3 1.699387 1_555
O2 Si3 1.677127 1_555
O2 Si1 1.699387 1_555
O3 Si2 1.677127 1_554
O3 Si0 1.699387 1_555
O4 Si0 1.603286 1_555
O5 Si1 1.603286 1_555
O6 Si3 1.603286 1_555
O7 Si2 1.603286 1_555
O8 Si2 1.630666 1_555
O9 Si3 1.630666 1_555
O10 Si0 1.630666 1_555
O11 Si1 1.630666 1_555
