# generated using pymatgen
data_HoVO4
_symmetry_space_group_name_H-M   'P 1'
_cell_length_a   5.91582302
_cell_length_b   5.91582339
_cell_length_c   5.91582417
_cell_angle_alpha   106.29806356
_cell_angle_beta   106.29806387
_cell_angle_gamma   116.02296135
_symmetry_Int_Tables_number   1
_chemical_formula_structural   HoVO4
_chemical_formula_sum   'Ho2 V2 O8'
_cell_volume   157.79592428
_cell_formula_units_Z   2
loop_
 _symmetry_equiv_pos_site_id
 _symmetry_equiv_pos_as_xyz
  1  'x, y, z'
loop_
 _atom_site_type_symbol
 _atom_site_label
 _atom_site_symmetry_multiplicity
 _atom_site_fract_x
 _atom_site_fract_y
 _atom_site_fract_z
 _atom_site_occupancy
  Ho  Ho0  1  0.12500000  0.87500100  0.25000000  1
  Ho  Ho1  1  0.87500000  0.12500000  0.75000000  1
  V  V0  1  0.37499900  0.62499900  0.74999900  1
  V  V1  1  0.62500000  0.37499900  0.24999900  1
  O  O0  1  0.80050433  0.73588867  0.43538433  1
  O  O1  1  0.36511900  0.80050433  0.56461567  1
  O  O2  1  0.73588967  0.80050433  0.93538533  1
  O  O3  1  0.80050433  0.36511900  0.06461567  1
  O  O4  1  0.63488200  0.19949667  0.43538533  1
  O  O5  1  0.19949567  0.26411233  0.56461467  1
  O  O6  1  0.26411133  0.19949667  0.06461467  1
  O  O7  1  0.19949667  0.63488200  0.93538533  1
loop_
_geom_bond_atom_site_label_1
_geom_bond_atom_site_label_2
_geom_bond_distance
_geom_bond_site_symmetry_2
Ho0 O2 2.280766 1_454
Ho0 O7 2.280773 1_554
Ho0 O5 2.280773 1_565
Ho0 O1 2.280777 1_555
Ho0 O0 2.422208 1_455
Ho0 O6 2.422212 1_565
Ho0 O4 2.422216 1_565
Ho0 O3 2.422217 1_455
Ho1 O6 2.280770 1_656
Ho1 O4 2.280770 1_555
Ho1 O3 2.280773 1_556
Ho1 O0 2.280775 1_545
Ho1 O2 2.422212 1_545
Ho1 O1 2.422212 1_545
Ho1 O5 2.422213 1_655
Ho1 O7 2.422217 1_655
O0 V1 1.714794 1_555
O1 V0 1.714788 1_555
O2 V0 1.714798 1_555
O3 V1 1.714783 1_555
O4 V1 1.714790 1_555
O5 V0 1.714780 1_555
O6 V1 1.714790 1_555
O7 V0 1.714790 1_555
