# generated using pymatgen
data_Li4Ti3Mn2(Fe2O9)2
_symmetry_space_group_name_H-M   'P 1'
_cell_length_a   2.93969500
_cell_length_b   9.06535400
_cell_length_c   25.33079300
_cell_angle_alpha   90.00000000
_cell_angle_beta   90.00000000
_cell_angle_gamma   90.00000000
_symmetry_Int_Tables_number   1
_chemical_formula_structural   Li4Ti3Mn2(Fe2O9)2
_chemical_formula_sum   'Li8 Ti6 Mn4 Fe8 O36'
_cell_volume   675.04982265
_cell_formula_units_Z   2
loop_
 _symmetry_equiv_pos_site_id
 _symmetry_equiv_pos_as_xyz
  1  'x, y, z'
loop_
 _atom_site_type_symbol
 _atom_site_label
 _atom_site_symmetry_multiplicity
 _atom_site_fract_x
 _atom_site_fract_y
 _atom_site_fract_z
 _atom_site_occupancy
  Li  Li0  1  0.00000000  0.94592600  0.99108200  1
  Li  Li1  1  0.00000000  0.94477000  0.20342000  1
  Li  Li2  1  0.00000000  0.05523000  0.70342000  1
  Li  Li3  1  0.00000000  0.05407400  0.49108200  1
  Li  Li4  1  0.00000000  0.44263000  0.51246400  1
  Li  Li5  1  0.00000000  0.44863100  0.30376500  1
  Li  Li6  1  0.00000000  0.55136900  0.80376500  1
  Li  Li7  1  0.00000000  0.55737000  0.01246400  1
  Ti  Ti0  1  0.00000000  0.75639900  0.10035400  1
  Ti  Ti1  1  0.00000000  0.24360100  0.60035400  1
  Ti  Ti2  1  0.00000000  0.25105900  0.39909000  1
  Ti  Ti3  1  0.50000000  0.39908100  0.69160800  1
  Ti  Ti4  1  0.50000000  0.60091900  0.19160800  1
  Ti  Ti5  1  0.00000000  0.74894100  0.89909000  1
  Mn  Mn0  1  0.00000000  0.74797100  0.50015600  1
  Mn  Mn1  1  0.50000000  0.89669700  0.80772600  1
  Mn  Mn2  1  0.50000000  0.10330300  0.30772600  1
  Mn  Mn3  1  0.00000000  0.25202900  0.00015600  1
  Fe  Fe0  1  0.00000000  0.76919500  0.30597500  1
  Fe  Fe1  1  0.50000000  0.89105200  0.58866600  1
  Fe  Fe2  1  0.50000000  0.10894800  0.08866600  1
  Fe  Fe3  1  0.00000000  0.23080500  0.80597500  1
  Fe  Fe4  1  0.00000000  0.26215600  0.19521300  1
  Fe  Fe5  1  0.50000000  0.39240500  0.91130000  1
  Fe  Fe6  1  0.50000000  0.60759500  0.41130000  1
  Fe  Fe7  1  0.00000000  0.73784400  0.69521300  1
  O  O0  1  0.00000000  0.75041100  0.42425200  1
  O  O1  1  0.00000000  0.74699400  0.57609200  1
  O  O2  1  0.50000000  0.81450800  0.94162500  1
  O  O3  1  0.50000000  0.80149800  0.15627400  1
  O  O4  1  0.50000000  0.86283800  0.66639100  1
  O  O5  1  0.00000000  0.85015800  0.76068300  1
  O  O6  1  0.50000000  0.89085300  0.50397300  1
  O  O7  1  0.50000000  0.90349700  0.28124000  1
  O  O8  1  0.00000000  0.94063000  0.85458800  1
  O  O9  1  0.00000000  0.95457600  0.08002600  1
  O  O10  1  0.00000000  0.04542400  0.58002600  1
  O  O11  1  0.00000000  0.05937000  0.35458800  1
  O  O12  1  0.50000000  0.09650300  0.78124000  1
  O  O13  1  0.50000000  0.10914700  0.00397300  1
  O  O14  1  0.00000000  0.14984200  0.26068300  1
  O  O15  1  0.50000000  0.13716200  0.16639100  1
  O  O16  1  0.50000000  0.19850200  0.65627400  1
  O  O17  1  0.50000000  0.18549200  0.44162500  1
  O  O18  1  0.00000000  0.25300600  0.07609200  1
  O  O19  1  0.00000000  0.24958900  0.92425200  1
  O  O20  1  0.50000000  0.31004000  0.55682100  1
  O  O21  1  0.50000000  0.29720700  0.34126400  1
  O  O22  1  0.50000000  0.36051900  0.83377300  1
  O  O23  1  0.00000000  0.34095700  0.73960500  1
  O  O24  1  0.50000000  0.39587500  0.99581600  1
  O  O25  1  0.50000000  0.39925900  0.21737200  1
  O  O26  1  0.00000000  0.43820700  0.64328700  1
  O  O27  1  0.00000000  0.45108100  0.41609800  1
  O  O28  1  0.00000000  0.54891900  0.91609800  1
  O  O29  1  0.00000000  0.56179300  0.14328700  1
  O  O30  1  0.50000000  0.60074100  0.71737200  1
  O  O31  1  0.50000000  0.60412500  0.49581600  1
  O  O32  1  0.00000000  0.65904300  0.23960500  1
  O  O33  1  0.50000000  0.63948100  0.33377300  1
  O  O34  1  0.50000000  0.70279300  0.84126400  1
  O  O35  1  0.50000000  0.68996000  0.05682100  1
loop_
_geom_bond_atom_site_label_1
_geom_bond_atom_site_label_2
_geom_bond_distance
_geom_bond_site_symmetry_2
Li0 O13 2.111033 1_466
Li0 O13 2.111033 1_566
Li0 O9 2.254386 1_556
Li0 O2 2.269193 1_455
Li0 O2 2.269193 1_555
Li1 O3 2.296429 1_455
Li1 O3 2.296429 1_555
Li1 O14 2.357980 1_565
Li1 O15 2.466199 1_565
Li1 O15 2.466199 1_465
Li1 O7 2.487215 1_555
Li1 O7 2.487215 1_455
Li2 O16 2.296429 1_455
Li2 O16 2.296429 1_555
Li2 O5 2.357980 1_545
Li2 O4 2.466199 1_445
Li2 O4 2.466199 1_545
Li2 O12 2.487215 1_555
Li2 O12 2.487215 1_455
Li3 O6 2.111033 1_545
Li3 O6 2.111033 1_445
Li3 O10 2.254386 1_555
Li3 O17 2.269193 1_555
Li3 O17 2.269193 1_455
Li4 O31 2.116982 1_455
Li4 O31 2.116982 1_555
Li4 O20 2.206279 1_455
Li4 O20 2.206279 1_555
Li4 O27 2.442229 1_555
Li5 O21 2.224199 1_455
Li5 O21 2.224199 1_555
Li5 O33 2.394070 1_455
Li5 O33 2.394070 1_555
Li5 O32 2.505944 1_555
Li6 O34 2.224199 1_455
Li6 O34 2.224199 1_555
Li6 O22 2.394070 1_455
Li6 O22 2.394070 1_555
Li6 O23 2.505944 1_555
Li7 O24 2.116982 1_454
Li7 O24 2.116982 1_554
Li7 O35 2.206279 1_455
Li7 O35 2.206279 1_555
Li7 O28 2.442229 1_554
Mn0 O0 1.922836 1_555
Mn0 O1 1.923539 1_555
Mn0 O6 1.961515 1_455
Mn0 O6 1.961515 1_555
Mn0 O31 1.967992 1_455
Mn0 O31 1.967992 1_555
Mn1 O8 1.930845 1_655
Mn1 O8 1.930845 1_555
Mn1 O12 1.931573 1_565
Mn1 O5 1.938670 1_555
Mn1 O5 1.938670 1_655
Mn1 O34 1.952336 1_555
Mn2 O11 1.930845 1_555
Mn2 O11 1.930845 1_655
Mn2 O7 1.931573 1_545
Mn2 O14 1.938670 1_555
Mn2 O14 1.938670 1_655
Mn2 O21 1.952336 1_555
Mn3 O19 1.922836 1_554
Mn3 O18 1.923539 1_555
Mn3 O13 1.961515 1_555
Mn3 O13 1.961515 1_455
Mn3 O24 1.967992 1_554
Mn3 O24 1.967992 1_454
Fe0 O32 1.955399 1_555
Fe0 O7 2.008811 1_555
Fe0 O7 2.008811 1_455
Fe0 O33 2.009732 1_455
Fe0 O33 2.009732 1_555
Fe1 O4 1.985380 1_555
Fe1 O1 1.991826 1_555
Fe1 O1 1.991826 1_655
Fe1 O10 2.041268 1_565
Fe1 O10 2.041268 1_665
Fe1 O6 2.145342 1_555
Fe2 O15 1.985380 1_555
Fe2 O18 1.991826 1_655
Fe2 O18 1.991826 1_555
Fe2 O9 2.041268 1_545
Fe2 O9 2.041268 1_645
Fe2 O13 2.145342 1_555
Fe3 O23 1.955399 1_555
Fe3 O12 2.008811 1_455
Fe3 O12 2.008811 1_555
Fe3 O22 2.009732 1_455
Fe3 O22 2.009732 1_555
Fe4 O14 1.946015 1_555
Fe4 O15 1.994348 1_455
Fe4 O15 1.994348 1_555
Fe4 O25 2.005065 1_455
Fe4 O25 2.005065 1_555
Fe5 O22 1.984980 1_555
Fe5 O19 1.986021 1_555
Fe5 O19 1.986021 1_655
Fe5 O28 2.046551 1_555
Fe5 O28 2.046551 1_655
Fe5 O24 2.141088 1_555
Fe6 O33 1.984980 1_555
Fe6 O0 1.986021 1_555
Fe6 O0 1.986021 1_655
Fe6 O27 2.046551 1_655
Fe6 O27 2.046551 1_555
Fe6 O31 2.141088 1_555
Fe7 O5 1.946015 1_555
Fe7 O4 1.994348 1_555
Fe7 O4 1.994348 1_455
Fe7 O30 2.005065 1_555
Fe7 O30 2.005065 1_455
O2 Ti5 1.916934 1_655
O2 Ti5 1.916934 1_555
O3 Ti4 2.026667 1_555
O3 Ti0 2.081842 1_655
O3 Ti0 2.081842 1_555
O8 Ti5 2.071338 1_555
O9 Ti0 1.868882 1_555
O10 Ti1 1.868882 1_555
O11 Ti2 2.071338 1_555
O16 Ti3 2.026667 1_555
O16 Ti1 2.081842 1_655
O16 Ti1 2.081842 1_555
O17 Ti2 1.916934 1_555
O17 Ti2 1.916934 1_655
O20 Ti1 1.933704 1_555
O20 Ti1 1.933704 1_655
O21 Ti2 2.116847 1_555
O21 Ti2 2.116847 1_655
O23 Ti3 1.978956 1_555
O23 Ti3 1.978956 1_455
O25 Ti4 1.941117 1_555
O26 Ti3 1.945368 1_455
O26 Ti3 1.945368 1_555
O26 Ti1 2.072443 1_555
O27 Ti2 1.863749 1_555
O28 Ti5 1.863749 1_555
O29 Ti4 1.945368 1_555
O29 Ti4 1.945368 1_455
O29 Ti0 2.072443 1_555
O30 Ti3 1.941117 1_555
O32 Ti4 1.978956 1_555
O32 Ti4 1.978956 1_455
O34 Ti5 2.116847 1_555
O34 Ti5 2.116847 1_655
O35 Ti0 1.933704 1_555
O35 Ti0 1.933704 1_655
