# generated using pymatgen
data_SbPO6
_symmetry_space_group_name_H-M   'P 1'
_cell_length_a   6.03485773
_cell_length_b   8.32042053
_cell_length_c   11.79825400
_cell_angle_alpha   90.00000000
_cell_angle_beta   90.00000000
_cell_angle_gamma   96.15811433
_symmetry_Int_Tables_number   1
_chemical_formula_structural   SbPO6
_chemical_formula_sum   'Sb4 P4 O24'
_cell_volume   589.00199482
_cell_formula_units_Z   4
loop_
 _symmetry_equiv_pos_site_id
 _symmetry_equiv_pos_as_xyz
  1  'x, y, z'
loop_
 _atom_site_type_symbol
 _atom_site_label
 _atom_site_symmetry_multiplicity
 _atom_site_fract_x
 _atom_site_fract_y
 _atom_site_fract_z
 _atom_site_occupancy
  Sb  Sb0  1  0.75247500  0.44653700  0.32070700  1
  Sb  Sb1  1  0.74752500  0.55346300  0.82070700  1
  Sb  Sb2  1  0.24752500  0.55346300  0.67929300  1
  Sb  Sb3  1  0.25247500  0.44653700  0.17929300  1
  P  P0  1  0.83643000  0.73018600  0.07987400  1
  P  P1  1  0.66357000  0.26981400  0.57987400  1
  P  P2  1  0.16357000  0.26981400  0.92012600  1
  P  P3  1  0.33643000  0.73018600  0.42012600  1
  O  O0  1  0.70313900  0.60005300  0.14855600  1
  O  O1  1  0.79686100  0.39994700  0.64855600  1
  O  O2  1  0.29686100  0.39994700  0.85144400  1
  O  O3  1  0.20313900  0.60005300  0.35144400  1
  O  O4  1  0.61407800  0.93801300  0.13227700  1
  O  O5  1  0.88592200  0.06198700  0.63227700  1
  O  O6  1  0.38592200  0.06198700  0.86772300  1
  O  O7  1  0.11407800  0.93801300  0.36772300  1
  O  O8  1  0.04739000  0.81545800  0.12133900  1
  O  O9  1  0.45261000  0.18454200  0.62133900  1
  O  O10  1  0.95261000  0.18454200  0.87866100  1
  O  O11  1  0.54739000  0.81545800  0.37866100  1
  O  O12  1  0.76496200  0.74078900  0.95706500  1
  O  O13  1  0.73503800  0.25921100  0.45706500  1
  O  O14  1  0.23503800  0.25921100  0.04293500  1
  O  O15  1  0.26496200  0.74078900  0.54293500  1
  O  O16  1  0.97111100  0.32853400  0.23952600  1
  O  O17  1  0.52888900  0.67146600  0.73952600  1
  O  O18  1  0.02888900  0.67146600  0.76047400  1
  O  O19  1  0.47111100  0.32853400  0.26047400  1
  O  O20  1  0.67407200  0.07913500  0.10613300  1
  O  O21  1  0.82592800  0.92086500  0.60613300  1
  O  O22  1  0.32592800  0.92086500  0.89386700  1
  O  O23  1  0.17407200  0.07913500  0.39386700  1
loop_
_geom_bond_atom_site_label_1
_geom_bond_atom_site_label_2
_geom_bond_distance
_geom_bond_site_symmetry_2
O0 P0 1.513006 1_555
O0 Sb0 2.434557 1_555
O1 P1 1.513006 1_555
O1 Sb1 2.434557 1_555
O2 P2 1.513006 1_555
O2 Sb2 2.434557 1_555
O3 P3 1.513006 1_555
O3 Sb3 2.434557 1_555
O4 P0 2.381350 1_555
O5 P1 2.381350 1_555
O6 P2 2.381350 1_555
O7 P3 2.381350 1_555
O8 P0 1.473005 1_455
O9 P1 1.473005 1_555
O10 P2 1.473005 1_655
O11 P3 1.473005 1_555
O12 P0 1.517026 1_556
O12 Sb1 2.234594 1_555
O13 P1 1.517026 1_555
O13 Sb0 2.234594 1_555
O14 P2 1.517026 1_554
O14 Sb3 2.234594 1_555
O15 P3 1.517026 1_555
O15 Sb2 2.234594 1_555
O16 Sb0 1.974897 1_555
O16 Sb3 1.998628 1_655
O17 Sb1 1.974897 1_555
O17 Sb2 1.998628 1_555
O18 Sb2 1.974897 1_555
O18 Sb1 1.998628 1_455
O19 Sb3 1.974897 1_555
O19 Sb0 1.998628 1_555
O20 O4 1.230346 1_545
O21 O5 1.230346 1_565
O22 O6 1.230346 1_565
O23 O7 1.230346 1_545
