# generated using pymatgen
data_Dy3NbO7
_symmetry_space_group_name_H-M   'P 1'
_cell_length_a   8.17033609
_cell_length_b   8.17033609
_cell_length_c   5.37094700
_cell_angle_alpha   90.00000000
_cell_angle_beta   90.00000000
_cell_angle_gamma   125.35572356
_symmetry_Int_Tables_number   1
_chemical_formula_structural   Dy3NbO7
_chemical_formula_sum   'Dy6 Nb2 O14'
_cell_volume   292.41168528
_cell_formula_units_Z   2
loop_
 _symmetry_equiv_pos_site_id
 _symmetry_equiv_pos_as_xyz
  1  'x, y, z'
loop_
 _atom_site_type_symbol
 _atom_site_label
 _atom_site_symmetry_multiplicity
 _atom_site_fract_x
 _atom_site_fract_y
 _atom_site_fract_z
 _atom_site_occupancy
  Dy  Dy0  1  0.00000000  0.50000000  0.00000000  1
  Dy  Dy1  1  0.50000000  0.00000000  0.00000000  1
  Dy  Dy2  1  0.62023800  0.37976200  0.47021600  1
  Dy  Dy3  1  0.12023800  0.87976200  0.52978400  1
  Dy  Dy4  1  0.87976200  0.12023800  0.47021600  1
  Dy  Dy5  1  0.37976200  0.62023800  0.52978400  1
  Nb  Nb0  1  0.75000000  0.75000000  0.00000000  1
  Nb  Nb1  1  0.25000000  0.25000000  0.00000000  1
  O  O0  1  0.75000000  0.25000000  0.23944300  1
  O  O1  1  0.83807400  0.59681800  0.76239400  1
  O  O2  1  0.98783000  0.01217000  0.21329800  1
  O  O3  1  0.25000000  0.75000000  0.76055700  1
  O  O4  1  0.40318200  0.16192600  0.76239400  1
  O  O5  1  0.09681800  0.33807400  0.76239400  1
  O  O6  1  0.33807400  0.09681800  0.23760600  1
  O  O7  1  0.51217000  0.48783000  0.21329800  1
  O  O8  1  0.48783000  0.51217000  0.78670200  1
  O  O9  1  0.66192600  0.90318200  0.76239400  1
  O  O10  1  0.59681800  0.83807400  0.23760600  1
  O  O11  1  0.90318200  0.66192600  0.23760600  1
  O  O12  1  0.01217000  0.98783000  0.78670200  1
  O  O13  1  0.16192600  0.40318200  0.23760600  1
loop_
_geom_bond_atom_site_label_1
_geom_bond_atom_site_label_2
_geom_bond_distance
_geom_bond_site_symmetry_2
Dy0 O0 2.273708 1_455
Dy0 O3 2.273708 1_554
Dy0 O13 2.283813 1_555
Dy0 O11 2.283813 1_455
Dy0 O5 2.283813 1_554
Dy0 O1 2.283813 1_454
Dy1 O0 2.273708 1_555
Dy1 O3 2.273708 1_544
Dy1 O4 2.283813 1_554
Dy1 O9 2.283813 1_544
Dy1 O10 2.283813 1_545
Dy1 O6 2.283813 1_555
Dy2 O7 2.089390 1_555
Dy2 O0 2.255031 1_555
Dy2 O4 2.263290 1_555
Dy2 O1 2.263290 1_555
Dy2 O6 2.460080 1_555
Dy2 O11 2.460080 1_555
Dy2 O8 2.566029 1_555
Dy3 O12 2.089390 1_555
Dy3 O3 2.255031 1_555
Dy3 O11 2.263290 1_455
Dy3 O6 2.263290 1_565
Dy3 O4 2.460080 1_565
Dy3 O1 2.460080 1_455
Dy3 O2 2.566029 1_465
Dy4 O2 2.089390 1_555
Dy4 O0 2.255031 1_555
Dy4 O9 2.263290 1_545
Dy4 O5 2.263290 1_655
Dy4 O13 2.460080 1_655
Dy4 O10 2.460080 1_545
Dy4 O12 2.566029 1_645
Dy5 O8 2.089390 1_555
Dy5 O3 2.255031 1_555
Dy5 O10 2.263290 1_555
Dy5 O13 2.263290 1_555
Dy5 O5 2.460080 1_555
Dy5 O9 2.460080 1_555
Dy5 O7 2.566029 1_555
Nb0 O1 2.180613 1_554
Nb0 O9 2.180613 1_554
Nb0 O10 2.180613 1_555
Nb0 O11 2.180613 1_555
Nb0 O2 2.204428 1_565
Nb0 O7 2.204428 1_555
Nb0 O8 2.204428 1_554
Nb0 O12 2.204428 1_654
Nb1 O5 2.180613 1_554
Nb1 O6 2.180613 1_555
Nb1 O13 2.180613 1_555
Nb1 O4 2.180613 1_554
Nb1 O7 2.204428 1_555
Nb1 O2 2.204428 1_455
Nb1 O8 2.204428 1_554
Nb1 O12 2.204428 1_544
