# generated using pymatgen
data_Sn(C4N3)2
_symmetry_space_group_name_H-M   'P 1'
_cell_length_a   5.72733300
_cell_length_b   8.42246700
_cell_length_c   11.45896500
_cell_angle_alpha   90.00000000
_cell_angle_beta   90.00000000
_cell_angle_gamma   90.00000000
_symmetry_Int_Tables_number   1
_chemical_formula_structural   Sn(C4N3)2
_chemical_formula_sum   'Sn2 C16 N12'
_cell_volume   552.76068415
_cell_formula_units_Z   2
loop_
 _symmetry_equiv_pos_site_id
 _symmetry_equiv_pos_as_xyz
  1  'x, y, z'
loop_
 _atom_site_type_symbol
 _atom_site_label
 _atom_site_symmetry_multiplicity
 _atom_site_fract_x
 _atom_site_fract_y
 _atom_site_fract_z
 _atom_site_occupancy
  Sn  Sn0  1  0.00000000  0.50000000  0.50000000  1
  Sn  Sn1  1  0.00000000  0.00000000  0.00000000  1
  C  C0  1  0.40153400  0.00000000  0.73931800  1
  C  C1  1  0.40153400  0.50000000  0.76068200  1
  C  C2  1  0.59846600  0.00000000  0.26068200  1
  C  C3  1  0.59846600  0.50000000  0.23931800  1
  C  C4  1  0.58985600  0.00000000  0.66085000  1
  C  C5  1  0.58985600  0.50000000  0.83915000  1
  C  C6  1  0.41014400  0.00000000  0.33915000  1
  C  C7  1  0.41014400  0.50000000  0.16085000  1
  C  C8  1  0.68519000  0.14352200  0.62118100  1
  C  C9  1  0.68519000  0.35647800  0.87881900  1
  C  C10  1  0.31481000  0.14352200  0.37881900  1
  C  C11  1  0.68519000  0.64352200  0.87881900  1
  C  C12  1  0.31481000  0.85647800  0.37881900  1
  C  C13  1  0.31481000  0.64352200  0.12118100  1
  C  C14  1  0.68519000  0.85647800  0.62118100  1
  C  C15  1  0.31481000  0.35647800  0.12118100  1
  N  N0  1  0.76417000  0.26324800  0.58714100  1
  N  N1  1  0.76417000  0.23675200  0.91285900  1
  N  N2  1  0.23583000  0.26324800  0.41285900  1
  N  N3  1  0.76417000  0.76324800  0.91285900  1
  N  N4  1  0.23583000  0.73675200  0.41285900  1
  N  N5  1  0.23583000  0.76324800  0.08714100  1
  N  N6  1  0.76417000  0.73675200  0.58714100  1
  N  N7  1  0.23583000  0.23675200  0.08714100  1
  N  N8  1  0.24228800  0.00000000  0.80371600  1
  N  N9  1  0.24228800  0.50000000  0.69628400  1
  N  N10  1  0.75771200  0.00000000  0.19628400  1
  N  N11  1  0.75771200  0.50000000  0.30371600  1
loop_
_geom_bond_atom_site_label_1
_geom_bond_atom_site_label_2
_geom_bond_distance
_geom_bond_site_symmetry_2
C0 N8 1.173197 1_555
C0 C4 1.404220 1_555
C1 N9 1.173197 1_555
C1 C5 1.404220 1_555
C2 N10 1.173197 1_555
C2 C6 1.404220 1_555
C3 N11 1.173197 1_555
C3 C7 1.404220 1_555
C4 C8 1.402133 1_555
C5 C9 1.402133 1_555
C8 N0 1.172012 1_555
C9 N1 1.172012 1_555
C10 N2 1.172012 1_555
C10 C6 1.402133 1_555
C11 N3 1.172012 1_555
C11 C5 1.402133 1_555
C12 N4 1.172012 1_555
C12 C6 1.402133 1_565
C13 N5 1.172012 1_555
C13 C7 1.402133 1_555
C14 N6 1.172012 1_555
C14 C4 1.402133 1_565
C15 N7 1.172012 1_555
C15 C7 1.402133 1_555
N0 Sn0 2.607221 1_655
N1 Sn1 2.607221 1_656
N2 Sn0 2.607221 1_555
N3 Sn1 2.607221 1_666
N4 Sn0 2.607221 1_555
N5 Sn1 2.607221 1_565
N6 Sn0 2.607221 1_655
N7 Sn1 2.607221 1_555
N8 Sn1 2.642833 1_556
N9 Sn0 2.642833 1_555
N10 Sn1 2.642833 1_655
N11 Sn0 2.642833 1_655
