# generated using pymatgen
data_NdVO4
_symmetry_space_group_name_H-M   'P 1'
_cell_length_a   6.12338227
_cell_length_b   6.12338264
_cell_length_c   6.12338263
_cell_angle_alpha   106.10399101
_cell_angle_beta   106.10398692
_cell_angle_gamma   116.43849132
_symmetry_Int_Tables_number   1
_chemical_formula_structural   NdVO4
_chemical_formula_sum   'Nd2 V2 O8'
_cell_volume   174.76402249
_cell_formula_units_Z   2
loop_
 _symmetry_equiv_pos_site_id
 _symmetry_equiv_pos_as_xyz
  1  'x, y, z'
loop_
 _atom_site_type_symbol
 _atom_site_label
 _atom_site_symmetry_multiplicity
 _atom_site_fract_x
 _atom_site_fract_y
 _atom_site_fract_z
 _atom_site_occupancy
  Nd  Nd0  1  0.87500000  0.12500000  0.75000000  1
  Nd  Nd1  1  0.12500000  0.87500000  0.25000000  1
  V  V0  1  0.62500000  0.37500000  0.25000000  1
  V  V1  1  0.37500000  0.62500000  0.75000000  1
  O  O0  1  0.79453167  0.36445559  0.06992392  1
  O  O1  1  0.79453167  0.72460875  0.43007608  1
  O  O2  1  0.63554441  0.20546833  0.43007608  1
  O  O3  1  0.20546833  0.27539125  0.56992392  1
  O  O4  1  0.20546833  0.63554441  0.93007608  1
  O  O5  1  0.27539125  0.20546833  0.06992392  1
  O  O6  1  0.72460875  0.79453167  0.93007608  1
  O  O7  1  0.36445559  0.79453167  0.56992392  1
loop_
_geom_bond_atom_site_label_1
_geom_bond_atom_site_label_2
_geom_bond_distance
_geom_bond_site_symmetry_2
Nd0 O5 2.411600 1_656
Nd0 O1 2.411600 1_545
Nd0 O0 2.411604 1_556
Nd0 O2 2.411604 1_555
Nd0 O3 2.510107 1_655
Nd0 O6 2.510107 1_545
Nd0 O7 2.510108 1_545
Nd0 O4 2.510108 1_655
Nd1 O6 2.411600 1_454
Nd1 O3 2.411600 1_565
Nd1 O4 2.411604 1_554
Nd1 O7 2.411604 1_555
Nd1 O1 2.510107 1_455
Nd1 O5 2.510107 1_565
Nd1 O2 2.510108 1_565
Nd1 O0 2.510108 1_455
O0 V0 1.718415 1_555
O1 V0 1.718420 1_555
O2 V0 1.718415 1_555
O3 V1 1.718420 1_555
O4 V1 1.718415 1_555
O5 V0 1.718420 1_555
O6 V1 1.718420 1_555
O7 V1 1.718415 1_555
