# generated using pymatgen
data_PdRhPb4
_symmetry_space_group_name_H-M   'P 1'
_cell_length_a   5.65877824
_cell_length_b   5.65877824
_cell_length_c   5.65877824
_cell_angle_alpha   105.69429182
_cell_angle_beta   105.69429182
_cell_angle_gamma   117.32201321
_symmetry_Int_Tables_number   1
_chemical_formula_structural   PdRhPb4
_chemical_formula_sum   'Pd1 Rh1 Pb4'
_cell_volume   137.50164454
_cell_formula_units_Z   1
loop_
 _symmetry_equiv_pos_site_id
 _symmetry_equiv_pos_as_xyz
  1  'x, y, z'
loop_
 _atom_site_type_symbol
 _atom_site_label
 _atom_site_symmetry_multiplicity
 _atom_site_fract_x
 _atom_site_fract_y
 _atom_site_fract_z
 _atom_site_occupancy
  Pd  Pd0  1  -0.00000000  -0.00000000  -0.00000000  1
  Rh  Rh0  1  0.50000000  0.50000000  -0.00000000  1
  Pb  Pb0  1  0.91367010  0.41367010  0.82734020  1
  Pb  Pb1  1  0.58632990  0.08632990  0.17265980  1
  Pb  Pb2  1  0.08632990  0.91367010  0.50000000  1
  Pb  Pb3  1  0.41367010  0.58632990  0.50000000  1
loop_
_geom_bond_atom_site_label_1
_geom_bond_atom_site_label_2
_geom_bond_distance
_geom_bond_site_symmetry_2
Pd0 Rh0 2.943133 1_555
Pd0 Rh0 2.943133 1_445
Pb0 Rh0 2.949886 1_556
Pb0 Pd0 2.949886 1_666
Pb0 Pd0 2.949886 1_656
Pb0 Rh0 2.949886 1_656
Pb0 Pb1 3.164196 1_555
Pb1 Rh0 2.949886 1_555
Pb1 Rh0 2.949886 1_545
Pb1 Pd0 2.949886 1_555
Pb1 Pd0 2.949886 1_655
Pb2 Pd0 2.949886 1_566
Pb2 Rh0 2.949886 1_455
Pb2 Rh0 2.949886 1_566
Pb2 Pd0 2.949886 1_565
Pb2 Pb3 3.164196 1_555
Pb3 Pd0 2.949886 1_555
Pb3 Rh0 2.949886 1_556
Pb3 Pd0 2.949886 1_666
Pb3 Rh0 2.949886 1_555
