# generated using pymatgen
data_Sr4FeRuO8
_symmetry_space_group_name_H-M   'P 1'
_cell_length_a   6.92998551
_cell_length_b   6.92998551
_cell_length_c   5.59753500
_cell_angle_alpha   90.00000000
_cell_angle_beta   90.00000000
_cell_angle_gamma   132.35575573
_symmetry_Int_Tables_number   1
_chemical_formula_structural   Sr4FeRuO8
_chemical_formula_sum   'Sr4 Fe1 Ru1 O8'
_cell_volume   198.65143188
_cell_formula_units_Z   1
loop_
 _symmetry_equiv_pos_site_id
 _symmetry_equiv_pos_as_xyz
  1  'x, y, z'
loop_
 _atom_site_type_symbol
 _atom_site_label
 _atom_site_symmetry_multiplicity
 _atom_site_fract_x
 _atom_site_fract_y
 _atom_site_fract_z
 _atom_site_occupancy
  Sr  Sr0  1  0.64571900  0.35428100  0.00000000  1
  Sr  Sr1  1  0.14450500  0.85549500  0.50000000  1
  Sr  Sr2  1  0.85549500  0.14450500  0.50000000  1
  Sr  Sr3  1  0.35428100  0.64571900  0.00000000  1
  Fe  Fe0  1  0.00000000  0.00000000  0.00000000  1
  Ru  Ru0  1  0.50000000  0.50000000  0.50000000  1
  O  O0  1  0.74760400  0.74760400  0.25339700  1
  O  O1  1  0.25239600  0.25239600  0.74660300  1
  O  O2  1  0.25239600  0.25239600  0.25339700  1
  O  O3  1  0.74760400  0.74760400  0.74660300  1
  O  O4  1  0.83866600  0.16133400  0.00000000  1
  O  O5  1  0.33996000  0.66004000  0.50000000  1
  O  O6  1  0.66004000  0.33996000  0.50000000  1
  O  O7  1  0.16133400  0.83866600  0.00000000  1
loop_
_geom_bond_atom_site_label_1
_geom_bond_atom_site_label_2
_geom_bond_distance
_geom_bond_site_symmetry_2
Fe0 O1 2.002047 1_554
Fe0 O2 2.002047 1_555
Fe0 O3 2.002047 1_444
Fe0 O0 2.002047 1_445
Fe0 O4 2.045579 1_455
Fe0 O7 2.045579 1_545
O0 Ru0 1.956188 1_555
O0 Sr1 2.694201 1_655
O0 Sr2 2.694201 1_565
O0 Sr3 2.710481 1_555
O0 Sr0 2.710481 1_555
O1 Ru0 1.956188 1_555
O1 Sr2 2.694201 1_455
O1 Sr1 2.694201 1_545
O1 Sr0 2.710481 1_556
O1 Sr3 2.710481 1_556
O2 Ru0 1.956188 1_555
O2 Sr2 2.694201 1_455
O2 Sr1 2.694201 1_545
O2 Sr0 2.710481 1_555
O2 Sr3 2.710481 1_555
O3 Ru0 1.956188 1_555
O3 Sr1 2.694201 1_655
O3 Sr2 2.694201 1_565
O3 Sr3 2.710481 1_556
O3 Sr0 2.710481 1_556
O4 Sr0 2.446405 1_555
O4 Sr3 2.806004 1_655
O4 Sr3 2.806004 1_545
O4 Sr2 2.806890 1_554
O4 Sr2 2.806890 1_555
O5 Ru0 2.029172 1_555
O5 Sr1 2.478204 1_555
O5 Sr3 2.804652 1_555
O5 Sr3 2.804652 1_556
O5 Sr2 2.805933 1_455
O5 Sr2 2.805933 1_565
O6 Ru0 2.029172 1_555
O6 Sr2 2.478204 1_555
O6 Sr0 2.804652 1_555
O6 Sr0 2.804652 1_556
O6 Sr1 2.805933 1_655
O6 Sr1 2.805933 1_545
O7 Sr3 2.446405 1_555
O7 Sr0 2.806004 1_565
O7 Sr0 2.806004 1_455
O7 Sr1 2.806890 1_554
O7 Sr1 2.806890 1_555
