# generated using pymatgen
data_Sr2YCrCu2O7
_symmetry_space_group_name_H-M   'P 1'
_cell_length_a   5.48444182
_cell_length_b   5.57340847
_cell_length_c   12.27132217
_cell_angle_alpha   103.29025626
_cell_angle_beta   103.08870900
_cell_angle_gamma   89.37739861
_symmetry_Int_Tables_number   1
_chemical_formula_structural   Sr2YCrCu2O7
_chemical_formula_sum   'Sr4 Y2 Cr2 Cu4 O14'
_cell_volume   355.23233317
_cell_formula_units_Z   2
loop_
 _symmetry_equiv_pos_site_id
 _symmetry_equiv_pos_as_xyz
  1  'x, y, z'
loop_
 _atom_site_type_symbol
 _atom_site_label
 _atom_site_symmetry_multiplicity
 _atom_site_fract_x
 _atom_site_fract_y
 _atom_site_fract_z
 _atom_site_occupancy
  Sr  Sr0  1  0.34432800  0.33278000  0.70725800  1
  Sr  Sr1  1  0.64000700  0.66600800  0.29450600  1
  Sr  Sr2  1  0.84713900  0.87146500  0.70698200  1
  Sr  Sr3  1  0.13744100  0.12720100  0.29413300  1
  Y  Y0  1  0.98829400  0.99938200  0.00082400  1
  Y  Y1  1  0.48799900  0.49943500  0.00044100  1
  Cr  Cr0  1  0.28128900  0.68548500  0.50078600  1
  Cr  Cr1  1  0.77713900  0.32501600  0.50060100  1
  Cu  Cu0  1  0.92239200  0.43636300  0.87120200  1
  Cu  Cu1  1  0.05326200  0.56419000  0.13326100  1
  Cu  Cu2  1  0.42096000  0.93157000  0.86804800  1
  Cu  Cu3  1  0.55159100  0.06613600  0.13022100  1
  O  O0  1  0.10934600  0.36874100  0.50088800  1
  O  O1  1  0.65312500  0.63455400  0.50049800  1
  O  O2  1  0.18569300  0.19962900  0.87523300  1
  O  O3  1  0.31133100  0.80102600  0.12580000  1
  O  O4  1  0.68637200  0.17591300  0.87544000  1
  O  O5  1  0.81119800  0.82541900  0.12605000  1
  O  O6  1  0.65965500  0.67127200  0.87174300  1
  O  O7  1  0.78863900  0.32667100  0.13087000  1
  O  O8  1  0.15903000  0.69605200  0.87072600  1
  O  O9  1  0.28799800  0.30024500  0.12946900  1
  O  O10  1  0.28930700  0.86788600  0.64683400  1
  O  O11  1  0.63165000  0.13135700  0.36442400  1
  O  O12  1  0.76567500  0.26557400  0.63604700  1
  O  O13  1  0.14719400  0.72326900  0.35461000  1
loop_
_geom_bond_atom_site_label_1
_geom_bond_atom_site_label_2
_geom_bond_distance
_geom_bond_site_symmetry_2
Cr0 O10 1.837115 1_555
Cr0 O13 1.837294 1_555
Cr0 O0 2.010831 1_555
Cr0 O1 2.056601 1_555
Cr1 O12 1.782482 1_555
Cr1 O11 1.783165 1_555
Cr1 O0 1.839925 1_655
Cr1 O1 1.847692 1_555
Cu0 O6 1.936461 1_555
Cu0 O2 1.945471 1_655
Cu0 O8 1.956365 1_655
Cu0 O4 1.972672 1_555
Cu1 O9 1.943737 1_555
Cu1 O5 1.963182 1_455
Cu1 O7 1.965754 1_455
Cu1 O3 1.977082 1_555
Cu1 O13 2.588122 1_555
Cu2 O6 1.944884 1_555
Cu2 O2 1.963105 1_565
Cu2 O8 1.967216 1_555
Cu2 O4 1.976904 1_565
Cu2 O10 2.586726 1_555
Cu3 O9 1.936746 1_555
Cu3 O5 1.946709 1_545
Cu3 O7 1.956983 1_555
Cu3 O3 1.973712 1_545
O0 Sr0 2.619890 1_555
O0 Sr3 2.622093 1_555
O1 Sr1 2.558662 1_555
O1 Sr2 2.562645 1_555
O2 Y1 2.372281 1_556
O2 Y0 2.523020 1_446
O2 Sr0 2.661972 1_555
O2 Sr2 2.767121 1_445
O3 Y1 2.362516 1_555
O3 Y0 2.493860 1_455
O3 Sr1 2.664233 1_555
O3 Sr3 2.758505 1_565
O4 Y0 2.363044 1_546
O4 Y1 2.495880 1_556
O4 Sr2 2.666502 1_545
O4 Sr0 2.753767 1_555
O5 Y0 2.371988 1_555
O5 Y1 2.522645 1_555
O5 Sr3 2.661505 1_665
O5 Sr1 2.772307 1_555
O6 Y1 2.384555 1_556
O6 Y0 2.559017 1_556
O6 Sr0 2.713516 1_555
O6 Sr2 2.897193 1_555
O7 Y1 2.384604 1_555
O7 Y0 2.546127 1_545
O7 Sr1 2.689861 1_555
O7 Sr3 2.855039 1_655
O8 Y0 2.384408 1_456
O8 Y1 2.539298 1_556
O8 Sr2 2.688754 1_455
O8 Sr0 2.857837 1_555
O9 Y0 2.381859 1_445
O9 Y1 2.562006 1_555
O9 Sr3 2.713663 1_555
O9 Sr1 2.898420 1_555
O10 Sr0 2.527193 1_565
O10 Sr2 2.688659 1_455
O10 Sr2 2.979413 1_555
O10 Sr0 3.229732 1_555
O11 Sr1 2.541067 1_545
O11 Sr3 2.650364 1_555
O11 Sr3 3.084260 1_655
O12 Sr2 2.542377 1_545
O12 Sr0 2.643721 1_555
O12 Sr0 3.097559 1_655
O13 Sr3 2.523774 1_565
O13 Sr1 2.713891 1_455
O13 Sr1 2.954133 1_555
O13 Sr3 3.231488 1_555
