# generated using pymatgen
data_Li9Mn2Co5O16
_symmetry_space_group_name_H-M   'P 1'
_cell_length_a   5.90153400
_cell_length_b   5.90963006
_cell_length_c   8.64968292
_cell_angle_alpha   88.20760643
_cell_angle_beta   70.56214619
_cell_angle_gamma   87.01390403
_symmetry_Int_Tables_number   1
_chemical_formula_structural   Li9Mn2Co5O16
_chemical_formula_sum   'Li9 Mn2 Co5 O16'
_cell_volume   284.05392036
_cell_formula_units_Z   1
loop_
 _symmetry_equiv_pos_site_id
 _symmetry_equiv_pos_as_xyz
  1  'x, y, z'
loop_
 _atom_site_type_symbol
 _atom_site_label
 _atom_site_symmetry_multiplicity
 _atom_site_fract_x
 _atom_site_fract_y
 _atom_site_fract_z
 _atom_site_occupancy
  Li  Li0  1  0.12283800  0.24883000  0.25385700  1
  Li  Li1  1  0.25167000  0.00677800  0.50918400  1
  Li  Li2  1  0.62223200  0.25258600  0.25223900  1
  Li  Li3  1  0.73712700  0.00822900  0.51090700  1
  Li  Li4  1  0.87777800  0.75028000  0.74580100  1
  Li  Li5  1  0.37633900  0.74646000  0.74785300  1
  Li  Li6  1  0.50034300  0.49342900  0.99255300  1
  Li  Li7  1  0.01167100  0.49450600  0.98606400  1
  Li  Li8  1  0.37459600  0.25014100  0.74617100  1
  Mn  Mn0  1  0.00435400  0.00693200  0.99874400  1
  Mn  Mn1  1  0.12596500  0.74757300  0.25133800  1
  Co  Co0  1  0.25090800  0.49464100  0.50008800  1
  Co  Co1  1  0.50053700  0.00228100  0.99572300  1
  Co  Co2  1  0.62790800  0.75097400  0.25241700  1
  Co  Co3  1  0.74080800  0.49137400  0.50432800  1
  Co  Co4  1  0.87319900  0.25729800  0.74765500  1
  O  O0  1  0.89583700  0.98932200  0.24003500  1
  O  O1  1  0.02226300  0.73765000  0.48503700  1
  O  O2  1  0.37209200  0.96684200  0.23753600  1
  O  O3  1  0.52562200  0.74049300  0.48502100  1
  O  O4  1  0.63880600  0.49472000  0.74110000  1
  O  O5  1  0.12522600  0.49208700  0.73075200  1
  O  O6  1  0.24190300  0.21538500  0.00191500  1
  O  O7  1  0.76779600  0.24434600  0.00391600  1
  O  O8  1  0.36290800  0.51207600  0.25553600  1
  O  O9  1  0.48945300  0.26694200  0.49394600  1
  O  O10  1  0.88165100  0.53182700  0.26069100  1
  O  O11  1  0.97734600  0.25730700  0.50255500  1
  O  O12  1  0.10324600  0.00674300  0.76757200  1
  O  O13  1  0.62239200  0.00747600  0.77071000  1
  O  O14  1  0.74983600  0.78206500  0.01682200  1
  O  O15  1  0.22534500  0.75240900  0.01193400  1
loop_
_geom_bond_atom_site_label_1
_geom_bond_atom_site_label_2
_geom_bond_distance
_geom_bond_site_symmetry_2
Li0 O11 2.034738 1_455
Li0 O6 2.067634 1_555
Li0 O0 2.119671 1_445
Li0 O10 2.128052 1_455
Li0 O2 2.140528 1_545
Li0 O8 2.161570 1_555
Li1 O9 2.106990 1_555
Li1 O12 2.111725 1_555
Li1 O11 2.150106 1_455
Li1 O3 2.159743 1_545
Li1 O1 2.199861 1_545
Li1 O2 2.233275 1_545
Li2 O9 1.976360 1_555
Li2 O7 2.031743 1_555
Li2 O8 2.103267 1_555
Li2 O0 2.161933 1_545
Li2 O10 2.327589 1_555
Li2 O2 2.333449 1_545
Li3 O11 2.079480 1_555
Li3 O9 2.095555 1_555
Li3 O13 2.120240 1_555
Li3 O3 2.127324 1_545
Li3 O0 2.219032 1_545
Li3 O1 2.220357 1_645
Li4 O5 2.032581 1_655
Li4 O13 2.047892 1_565
Li4 O12 2.120793 1_665
Li4 O4 2.129654 1_555
Li4 O1 2.131639 1_655
Li4 O14 2.221614 1_556
Li5 O4 2.078710 1_555
Li5 O12 2.137223 1_565
Li5 O3 2.148148 1_555
Li5 O15 2.158694 1_556
Li5 O5 2.206747 1_555
Li5 O13 2.229462 1_565
Li6 O4 2.053063 1_555
Li6 O7 2.125991 1_556
Li6 O15 2.140207 1_556
Li6 O8 2.150058 1_556
Li6 O6 2.281063 1_556
Li6 O14 2.368820 1_556
Li7 O7 2.083328 1_456
Li7 O5 2.083788 1_555
Li7 O15 2.091052 1_556
Li7 O6 2.112372 1_556
Li7 O14 2.197143 1_456
Li7 O10 2.254356 1_456
Li8 O5 2.031606 1_555
Li8 O13 2.051629 1_555
Li8 O9 2.058689 1_555
Li8 O6 2.093850 1_556
Li8 O12 2.166493 1_555
Li8 O4 2.169697 1_555
Mn0 O12 1.887389 1_555
Mn0 O7 1.917746 1_456
Mn0 O6 1.921262 1_556
Mn0 O15 1.964755 1_546
Mn0 O0 1.969940 1_446
Mn0 O14 2.021177 1_446
Mn1 O1 1.907111 1_555
Mn1 O8 1.929079 1_555
Mn1 O0 1.942301 1_455
Mn1 O10 1.954078 1_455
Mn1 O15 1.955145 1_555
Mn1 O2 1.968296 1_555
Co0 O5 1.882928 1_555
Co0 O9 1.884857 1_555
Co0 O1 1.950232 1_555
Co0 O8 1.996216 1_555
Co0 O11 2.187495 1_455
Co0 O3 2.202096 1_555
Co1 O13 1.836613 1_555
Co1 O6 1.915233 1_556
Co1 O14 1.963636 1_546
Co1 O2 1.981707 1_546
Co1 O7 2.203380 1_556
Co1 O15 2.218795 1_546
Co2 O3 1.898403 1_555
Co2 O14 1.928380 1_555
Co2 O10 1.946343 1_555
Co2 O2 1.960000 1_555
Co2 O0 2.146053 1_555
Co2 O8 2.153899 1_555
Co3 O11 1.910014 1_555
Co3 O4 1.933347 1_555
Co3 O3 1.933640 1_555
Co3 O10 2.003108 1_555
Co3 O9 2.066076 1_555
Co3 O1 2.226480 1_655
Co4 O4 1.931401 1_555
Co4 O12 1.998886 1_655
Co4 O11 2.001266 1_555
Co4 O5 2.053379 1_655
Co4 O7 2.093482 1_556
Co4 O13 2.103099 1_555
