# generated using pymatgen
data_YSn3
_symmetry_space_group_name_H-M   'P 1'
_cell_length_a   6.18078575
_cell_length_b   6.18078575
_cell_length_c   6.18078575
_cell_angle_alpha   137.94384590
_cell_angle_beta   137.94384590
_cell_angle_gamma   60.98901204
_symmetry_Int_Tables_number   1
_chemical_formula_structural   YSn3
_chemical_formula_sum   'Y1 Sn3'
_cell_volume   104.78577252
_cell_formula_units_Z   1
loop_
 _symmetry_equiv_pos_site_id
 _symmetry_equiv_pos_as_xyz
  1  'x, y, z'
loop_
 _atom_site_type_symbol
 _atom_site_label
 _atom_site_symmetry_multiplicity
 _atom_site_fract_x
 _atom_site_fract_y
 _atom_site_fract_z
 _atom_site_occupancy
  Y  Y0  1  -0.00000000  -0.00000000  -0.00000000  1
  Sn  Sn0  1  0.50000000  0.50000000  -0.00000000  1
  Sn  Sn1  1  0.25000000  0.75000000  0.50000000  1
  Sn  Sn2  1  0.75000000  0.25000000  0.50000000  1
loop_
_geom_bond_atom_site_label_1
_geom_bond_atom_site_label_2
_geom_bond_distance
_geom_bond_site_symmetry_2
Sn0 Y0 3.136475 1_554
Sn0 Y0 3.136475 1_655
Sn0 Y0 3.136475 1_565
Sn0 Y0 3.136475 1_666
Sn1 Sn2 3.136475 1_454
Sn1 Sn2 3.136475 1_465
Sn1 Sn2 3.136475 1_555
Sn1 Sn2 3.136475 1_566
Sn1 Y0 3.465530 1_566
Sn1 Y0 3.465530 1_666
Sn1 Y0 3.465530 1_555
Sn1 Y0 3.465530 1_565
Sn2 Y0 3.465530 1_656
Sn2 Y0 3.465530 1_655
Sn2 Y0 3.465530 1_666
Sn2 Y0 3.465530 1_555
