# generated using pymatgen
data_Re2(CN2)3
_symmetry_space_group_name_H-M   'P 1'
_cell_length_a   9.63919240
_cell_length_b   2.90806781
_cell_length_c   5.57466387
_cell_angle_alpha   89.99999746
_cell_angle_beta   60.89360503
_cell_angle_gamma   81.32403887
_symmetry_Int_Tables_number   1
_chemical_formula_structural   Re2(CN2)3
_chemical_formula_sum   'Re2 C3 N6'
_cell_volume   134.48197377
_cell_formula_units_Z   1
loop_
 _symmetry_equiv_pos_site_id
 _symmetry_equiv_pos_as_xyz
  1  'x, y, z'
loop_
 _atom_site_type_symbol
 _atom_site_label
 _atom_site_symmetry_multiplicity
 _atom_site_fract_x
 _atom_site_fract_y
 _atom_site_fract_z
 _atom_site_occupancy
  Re  Re0  1  0.36364564  0.81817718  0.04115234  1
  Re  Re1  1  0.63635436  0.18182282  0.95884766  1
  C  C0  1  0.64641184  0.67679358  0.44366245  1
  C  C1  1  0.35358816  0.32320642  0.55633755  1
  C  C2  1  -0.00000000  -0.00000000  0.50000000  1
  N  N0  1  0.33031988  0.33483956  0.79331972  1
  N  N1  1  0.66968012  0.66516044  0.20668028  1
  N  N2  1  0.39047080  0.30476510  0.30701723  1
  N  N3  1  0.60952920  0.69523490  0.69298277  1
  N  N4  1  0.13637685  0.93181157  0.30389791  1
  N  N5  1  0.86362315  0.06818843  0.69610209  1
loop_
_geom_bond_atom_site_label_1
_geom_bond_atom_site_label_2
_geom_bond_distance
_geom_bond_site_symmetry_2
C0 N1 1.227269 1_555
C0 N3 1.254813 1_555
C1 N0 1.227269 1_555
C1 N2 1.254813 1_555
C2 N4 1.218916 1_545
C2 N5 1.218916 1_455
N0 Re0 2.134384 1_546
N0 Re0 2.134386 1_556
N1 Re1 2.134384 1_564
N1 Re1 2.134386 1_554
N2 Re0 2.179226 1_555
N2 Re0 2.179228 1_545
N2 Re1 2.186650 1_554
N3 Re1 2.179226 1_555
N3 Re1 2.179228 1_565
N3 Re0 2.186650 1_556
N4 Re0 1.927080 1_555
N5 Re1 1.927080 1_555
