# generated using pymatgen
data_Mg2Si3
_symmetry_space_group_name_H-M   'P 1'
_cell_length_a   5.32799526
_cell_length_b   5.32799526
_cell_length_c   17.92475049
_cell_angle_alpha   89.94280902
_cell_angle_beta   89.94280902
_cell_angle_gamma   45.32534773
_symmetry_Int_Tables_number   1
_chemical_formula_structural   Mg2Si3
_chemical_formula_sum   'Mg8 Si12'
_cell_volume   361.84091121
_cell_formula_units_Z   4
loop_
 _symmetry_equiv_pos_site_id
 _symmetry_equiv_pos_as_xyz
  1  'x, y, z'
loop_
 _atom_site_type_symbol
 _atom_site_label
 _atom_site_symmetry_multiplicity
 _atom_site_fract_x
 _atom_site_fract_y
 _atom_site_fract_z
 _atom_site_occupancy
  Mg  Mg0  1  0.11343100  0.11343100  0.79746400  1
  Mg  Mg1  1  0.47170700  0.47170700  0.19981600  1
  Mg  Mg2  1  0.83971900  0.83971900  0.90560500  1
  Mg  Mg3  1  0.74560000  0.74560000  0.08478600  1
  Mg  Mg4  1  0.75602200  0.75602200  0.28949000  1
  Mg  Mg5  1  0.81678900  0.81678900  0.70511900  1
  Mg  Mg6  1  0.20339900  0.20339900  0.42255400  1
  Mg  Mg7  1  0.08815200  0.08815200  0.59618600  1
  Si  Si0  1  0.17679400  0.17679400  0.97013000  1
  Si  Si1  1  0.03125000  0.03125000  0.07841300  1
  Si  Si2  1  0.55415000  0.55415000  0.90970900  1
  Si  Si3  1  0.41292700  0.41292700  0.01989900  1
  Si  Si4  1  0.04835800  0.04835800  0.29636300  1
  Si  Si5  1  0.53755700  0.53755700  0.69759500  1
  Si  Si6  1  0.51934900  0.51934900  0.48118900  1
  Si  Si7  1  0.75519300  0.75519300  0.53786400  1
  Si  Si8  1  0.90329100  0.90329100  0.42661200  1
  Si  Si9  1  0.37802700  0.37802700  0.59320900  1
  Si  Si10  1  0.39156600  0.39156600  0.80537100  1
  Si  Si11  1  0.19138000  0.19138000  0.18281700  1
loop_
_geom_bond_atom_site_label_1
_geom_bond_atom_site_label_2
_geom_bond_distance
_geom_bond_site_symmetry_2
Mg0 Si10 2.738790 1_555
Mg0 Si5 2.824624 1_545
Mg0 Si5 2.824624 1_455
Mg0 Si2 2.932520 1_545
Mg0 Si2 2.932520 1_455
Mg0 Si10 2.998905 1_455
Mg0 Si10 2.998905 1_545
Mg0 Si0 3.157748 1_555
Mg1 Si11 2.773638 1_555
Mg1 Si4 2.789310 1_565
Mg1 Si4 2.789310 1_655
Mg1 Si11 2.995304 1_565
Mg1 Si11 2.995304 1_655
Mg1 Si1 3.047943 1_655
Mg1 Si1 3.047943 1_565
Mg2 Si10 2.774954 1_565
Mg2 Si10 2.774954 1_655
Mg2 Si2 2.808951 1_555
Mg2 Si0 2.848644 1_655
Mg2 Si0 2.848644 1_565
Mg2 Si2 2.943831 1_565
Mg2 Si2 2.943831 1_655
Mg2 Si3 2.988805 1_656
Mg2 Si3 2.988805 1_566
Mg3 Si11 2.753966 1_655
Mg3 Si11 2.753966 1_565
Mg3 Si1 2.811062 1_665
Mg3 Si3 2.875806 1_655
Mg3 Si3 2.875806 1_565
Mg3 Si1 2.944589 1_655
Mg3 Si1 2.944589 1_565
Mg3 Si0 2.983111 1_564
Mg3 Si0 2.983111 1_654
Mg4 Si8 2.854110 1_555
Mg4 Si11 2.877004 1_655
Mg4 Si11 2.877004 1_565
Mg4 Si4 2.877380 1_665
Mg4 Si4 2.898076 1_565
Mg4 Si4 2.898076 1_655
Mg5 Si5 2.749209 1_555
Mg5 Si10 2.826149 1_655
Mg5 Si10 2.826149 1_565
Mg5 Si9 2.932281 1_565
Mg5 Si9 2.932281 1_655
Mg5 Si5 2.990755 1_565
Mg5 Si5 2.990755 1_655
Mg5 Si7 3.059218 1_555
Mg6 Si4 2.729122 1_555
Mg6 Si8 2.843156 1_545
Mg6 Si8 2.843156 1_455
Mg6 Si6 2.930927 1_545
Mg6 Si6 2.930927 1_455
Mg6 Si8 2.951850 1_445
Mg6 Si7 2.957730 1_455
Mg6 Si7 2.957730 1_545
Mg7 Si5 2.786417 1_545
Mg7 Si5 2.786417 1_455
Mg7 Si7 2.828702 1_455
Mg7 Si7 2.828702 1_545
Mg7 Si9 2.850850 1_555
Mg7 Si9 2.913196 1_545
Mg7 Si9 2.913196 1_455
Mg7 Si6 2.987320 1_545
Mg7 Si6 2.987320 1_455
Si0 Si1 2.410291 1_556
Si0 Si3 2.488328 1_556
Si0 Si2 2.616218 1_455
Si0 Si2 2.616218 1_545
Si1 Si11 2.447023 1_555
Si1 Si3 2.582801 1_455
Si1 Si3 2.582801 1_545
Si2 Si3 2.413219 1_556
Si4 Si8 2.734661 1_445
Si5 Si9 2.442979 1_555
Si6 Si9 2.440672 1_555
Si6 Si7 2.532861 1_555
Si6 Si8 2.544848 1_455
Si6 Si8 2.544848 1_545
Si7 Si8 2.468029 1_555
Si7 Si9 2.580711 1_565
Si7 Si9 2.580711 1_655
Si10 Si5 2.405601 1_555
Si10 Si2 2.461740 1_555
Si11 Si4 2.472663 1_555
