# generated using pymatgen
data_Sr4MgMn2(GaO5)2
_symmetry_space_group_name_H-M   'P 1'
_cell_length_a   5.78068311
_cell_length_b   5.76872108
_cell_length_c   9.38160883
_cell_angle_alpha   71.91379799
_cell_angle_beta   71.92117984
_cell_angle_gamma   89.52877746
_symmetry_Int_Tables_number   1
_chemical_formula_structural   Sr4MgMn2(GaO5)2
_chemical_formula_sum   'Sr4 Mg1 Mn2 Ga2 O10'
_cell_volume   281.36282931
_cell_formula_units_Z   1
loop_
 _symmetry_equiv_pos_site_id
 _symmetry_equiv_pos_as_xyz
  1  'x, y, z'
loop_
 _atom_site_type_symbol
 _atom_site_label
 _atom_site_symmetry_multiplicity
 _atom_site_fract_x
 _atom_site_fract_y
 _atom_site_fract_z
 _atom_site_occupancy
  Sr  Sr0  1  0.08499100  0.61654500  0.81678100  1
  Sr  Sr1  1  0.90143300  0.37477900  0.21121000  1
  Sr  Sr2  1  0.59741400  0.06716100  0.81692300  1
  Sr  Sr3  1  0.38710300  0.91369200  0.21124400  1
  Mg  Mg0  1  0.96939800  0.46893800  0.56150200  1
  Mn  Mn0  1  0.48940200  0.48438400  0.02552400  1
  Mn  Mn1  1  0.98465000  0.99005800  0.02547100  1
  Ga  Ga0  1  0.62351300  0.73046700  0.49452900  1
  Ga  Ga1  1  0.38191200  0.27414600  0.49459700  1
  O  O0  1  0.24980100  0.25015500  0.99980500  1
  O  O1  1  0.24612500  0.74632500  0.00742000  1
  O  O2  1  0.75252900  0.25276400  0.99427400  1
  O  O3  1  0.74222200  0.74233200  0.01517000  1
  O  O4  1  0.72488600  0.66294000  0.67323600  1
  O  O5  1  0.36198600  0.31152700  0.29623400  1
  O  O6  1  0.10213000  0.16299000  0.67343500  1
  O  O7  1  0.84138900  0.89204800  0.29613800  1
  O  O8  1  0.30188400  0.64405400  0.50041400  1
  O  O9  1  0.69770800  0.35517200  0.50038000  1
loop_
_geom_bond_atom_site_label_1
_geom_bond_atom_site_label_2
_geom_bond_distance
_geom_bond_site_symmetry_2
Mg0 O8 2.007943 1_655
Mg0 O9 2.008912 1_555
Mg0 O4 2.032714 1_555
Mg0 O6 2.033097 1_655
Mn0 O2 2.029256 1_554
Mn0 O3 2.053652 1_555
Mn0 O0 2.059849 1_554
Mn0 O1 2.060050 1_555
Mn0 O5 2.294682 1_555
Mn1 O2 2.029213 1_564
Mn1 O3 2.053831 1_555
Mn1 O0 2.059864 1_664
Mn1 O1 2.060158 1_655
Mn1 O7 2.294475 1_555
Ga0 O7 1.845671 1_555
Ga0 O4 1.872568 1_555
Ga0 O8 1.908598 1_555
Ga0 O9 2.190804 1_555
Ga1 O5 1.845650 1_555
Ga1 O6 1.872651 1_555
Ga1 O9 1.909236 1_555
Ga1 O8 2.193377 1_555
O0 Sr1 2.624579 1_456
O0 Sr3 2.625525 1_546
O0 Sr2 2.654399 1_555
O0 Sr0 2.655581 1_555
O1 Sr2 2.549276 1_564
O1 Sr0 2.550227 1_554
O1 Sr3 2.716478 1_555
O1 Sr1 2.716806 1_455
O2 Sr2 2.601269 1_555
O2 Sr0 2.603975 1_655
O2 Sr3 2.712708 1_546
O2 Sr1 2.713875 1_556
O3 Sr0 2.538259 1_654
O3 Sr2 2.539241 1_564
O3 Sr1 2.706015 1_555
O3 Sr3 2.706843 1_555
O4 Sr0 2.779460 1_655
O4 Sr2 3.017371 1_565
O5 Sr3 2.642480 1_545
O5 Sr1 2.964430 1_555
O5 Sr1 2.996438 1_455
O6 Sr2 2.785136 1_455
O6 Sr0 3.007588 1_545
O7 Sr1 2.641347 1_565
O7 Sr3 2.962633 1_555
O7 Sr3 2.997797 1_655
O8 Sr3 2.566120 1_555
O8 Sr0 2.794207 1_555
O9 Sr1 2.566746 1_555
O9 Sr2 2.792730 1_555
