# generated using pymatgen
data_Al(NCl)4
_symmetry_space_group_name_H-M   'P 1'
_cell_length_a   9.69665784
_cell_length_b   9.69665784
_cell_length_c   4.07384405
_cell_angle_alpha   83.34149431
_cell_angle_beta   83.34149431
_cell_angle_gamma   62.09078063
_symmetry_Int_Tables_number   1
_chemical_formula_structural   Al(NCl)4
_chemical_formula_sum   'Al2 N8 Cl8'
_cell_volume   335.37791367
_cell_formula_units_Z   2
loop_
 _symmetry_equiv_pos_site_id
 _symmetry_equiv_pos_as_xyz
  1  'x, y, z'
loop_
 _atom_site_type_symbol
 _atom_site_label
 _atom_site_symmetry_multiplicity
 _atom_site_fract_x
 _atom_site_fract_y
 _atom_site_fract_z
 _atom_site_occupancy
  Al  Al0  1  0.50000000  0.50000000  0.00000000  1
  Al  Al1  1  0.00000000  0.00000000  0.50000000  1
  N  N0  1  0.60423300  0.60423300  0.14935700  1
  N  N1  1  0.39576700  0.39576700  0.85064300  1
  N  N2  1  0.09602200  0.09602200  0.20882600  1
  N  N3  1  0.90397800  0.90397800  0.79117400  1
  N  N4  1  0.50000000  0.00000000  0.50000000  1
  N  N5  1  0.00000000  0.50000000  0.50000000  1
  N  N6  1  0.29964300  0.70035700  0.00000000  1
  N  N7  1  0.70035700  0.29964300  0.00000000  1
  Cl  Cl0  1  0.74440800  0.25559200  0.50000000  1
  Cl  Cl1  1  0.25559200  0.74440800  0.50000000  1
  Cl  Cl2  1  0.62527200  0.62527200  0.52673200  1
  Cl  Cl3  1  0.37472800  0.37472800  0.47326800  1
  Cl  Cl4  1  0.11558100  0.11558100  0.80349500  1
  Cl  Cl5  1  0.88441900  0.88441900  0.19650500  1
  Cl  Cl6  1  0.00000000  0.50000000  0.00000000  1
  Cl  Cl7  1  0.50000000  0.00000000  0.00000000  1
loop_
_geom_bond_atom_site_label_1
_geom_bond_atom_site_label_2
_geom_bond_distance
_geom_bond_site_symmetry_2
Al0 N1 1.911762 1_554
Al0 N0 1.911762 1_555
Al0 N7 2.003863 1_555
Al0 N6 2.003863 1_555
Al0 Cl3 2.638832 1_555
Al0 Cl2 2.638832 1_554
Al1 N2 1.854791 1_555
Al1 N3 1.854791 1_445
Al1 Cl4 2.420616 1_555
Al1 Cl5 2.420616 1_445
Al1 Cl1 2.556294 1_545
Al1 Cl0 2.556294 1_455
Cl0 N7 2.084024 1_555
Cl0 N7 2.084024 1_556
Cl1 N6 2.084024 1_555
Cl1 N6 2.084024 1_556
Cl2 N0 1.622086 1_555
Cl3 N1 1.622086 1_555
Cl4 N2 1.639209 1_556
Cl5 N3 1.639209 1_554
Cl6 N5 2.036922 1_555
Cl6 N5 2.036922 1_554
Cl7 N4 2.036922 1_554
Cl7 N4 2.036922 1_555
