# generated using pymatgen
data_FeSbTe
_symmetry_space_group_name_H-M   'P 1'
_cell_length_a   6.38135100
_cell_length_b   6.54230504
_cell_length_c   6.56439225
_cell_angle_alpha   65.11636926
_cell_angle_beta   89.99970523
_cell_angle_gamma   89.99914364
_symmetry_Int_Tables_number   1
_chemical_formula_structural   FeSbTe
_chemical_formula_sum   'Fe4 Sb4 Te4'
_cell_volume   248.61302721
_cell_formula_units_Z   4
loop_
 _symmetry_equiv_pos_site_id
 _symmetry_equiv_pos_as_xyz
  1  'x, y, z'
loop_
 _atom_site_type_symbol
 _atom_site_label
 _atom_site_symmetry_multiplicity
 _atom_site_fract_x
 _atom_site_fract_y
 _atom_site_fract_z
 _atom_site_occupancy
  Fe  Fe0  1  0.49999800  0.72296100  0.78756700  1
  Fe  Fe1  1  0.00000700  0.27703300  0.71244000  1
  Fe  Fe2  1  0.50000200  0.27703900  0.21243300  1
  Fe  Fe3  1  0.99999300  0.72296700  0.28755900  1
  Sb  Sb0  1  0.85610900  0.86170400  0.87603900  1
  Sb  Sb1  1  0.35611300  0.13829300  0.62395900  1
  Sb  Sb2  1  0.14389100  0.13829600  0.12396100  1
  Sb  Sb3  1  0.64388700  0.86170700  0.37604100  1
  Te  Te0  1  0.14276000  0.65077600  0.66747200  1
  Te  Te1  1  0.64275400  0.34922800  0.83253300  1
  Te  Te2  1  0.85724000  0.34922400  0.33252800  1
  Te  Te3  1  0.35724600  0.65077200  0.16746700  1
loop_
_geom_bond_atom_site_label_1
_geom_bond_atom_site_label_2
_geom_bond_distance
_geom_bond_site_symmetry_2
Fe0 Te3 2.506153 1_556
Fe0 Te1 2.507582 1_555
Fe0 Te0 2.520861 1_555
Fe0 Sb0 2.601736 1_555
Fe0 Sb3 2.626998 1_555
Fe0 Sb1 2.631329 1_565
Fe1 Te2 2.506261 1_455
Fe1 Te0 2.507657 1_555
Fe1 Te1 2.520943 1_455
Fe1 Sb1 2.601692 1_555
Fe1 Sb2 2.626963 1_556
Fe1 Sb0 2.631367 1_445
Fe2 Te1 2.506153 1_554
Fe2 Te3 2.507582 1_555
Fe2 Te2 2.520861 1_555
Fe2 Sb2 2.601736 1_555
Fe2 Sb1 2.626998 1_555
Fe2 Sb3 2.631329 1_545
Fe3 Te0 2.506267 1_655
Fe3 Te2 2.507655 1_555
Fe3 Te3 2.520941 1_655
Fe3 Sb3 2.601695 1_555
Fe3 Sb0 2.626957 1_554
Fe3 Sb2 2.631367 1_665
Sb0 Te0 2.952061 1_655
Sb1 Te1 2.952116 1_555
Sb2 Te2 2.952061 1_455
Sb3 Te3 2.952116 1_555
