# generated using pymatgen
data_BaSiO3
_symmetry_space_group_name_H-M   'P 1'
_cell_length_a   7.47929083
_cell_length_b   7.47929083
_cell_length_c   7.47929099
_cell_angle_alpha   44.14675396
_cell_angle_beta   44.14675396
_cell_angle_gamma   44.14674750
_symmetry_Int_Tables_number   1
_chemical_formula_structural   BaSiO3
_chemical_formula_sum   'Ba3 Si3 O9'
_cell_volume   184.40389415
_cell_formula_units_Z   3
loop_
 _symmetry_equiv_pos_site_id
 _symmetry_equiv_pos_as_xyz
  1  'x, y, z'
loop_
 _atom_site_type_symbol
 _atom_site_label
 _atom_site_symmetry_multiplicity
 _atom_site_fract_x
 _atom_site_fract_y
 _atom_site_fract_z
 _atom_site_occupancy
  Ba  Ba0  1  0.78599700  0.78599700  0.78599700  1
  Ba  Ba1  1  0.21400300  0.21400300  0.21400300  1
  Ba  Ba2  1  0.00000000  0.00000000  0.00000000  1
  Si  Si0  1  0.61915200  0.61915200  0.61915200  1
  Si  Si1  1  0.38084800  0.38084800  0.38084800  1
  Si  Si2  1  0.50000000  0.50000000  0.50000000  1
  O  O0  1  0.30051600  0.30051600  0.72417200  1
  O  O1  1  0.72417200  0.30051600  0.30051600  1
  O  O2  1  0.30051600  0.72417200  0.30051600  1
  O  O3  1  0.69948400  0.27582800  0.69948400  1
  O  O4  1  0.69948400  0.69948400  0.27582800  1
  O  O5  1  0.27582800  0.69948400  0.69948400  1
  O  O6  1  0.50000000  0.50000000  0.00000000  1
  O  O7  1  0.50000000  0.00000000  0.50000000  1
  O  O8  1  0.00000000  0.50000000  0.50000000  1
loop_
_geom_bond_atom_site_label_1
_geom_bond_atom_site_label_2
_geom_bond_distance
_geom_bond_site_symmetry_2
Ba0 O0 2.830207 1_655
Ba0 O0 2.830207 1_565
Ba0 O2 2.830207 1_655
Ba0 O1 2.830207 1_565
Ba0 O2 2.830207 1_556
Ba0 O1 2.830207 1_556
Ba0 O3 2.838323 1_565
Ba0 O5 2.838323 1_655
Ba0 O4 2.838323 1_556
Ba0 O8 2.907317 1_655
Ba0 O7 2.907317 1_565
Ba0 O6 2.907317 1_556
Ba1 O4 2.830207 1_545
Ba1 O4 2.830207 1_455
Ba1 O5 2.830207 1_545
Ba1 O3 2.830207 1_455
Ba1 O5 2.830207 1_554
Ba1 O3 2.830207 1_554
Ba1 O1 2.838323 1_455
Ba1 O2 2.838323 1_545
Ba1 O0 2.838323 1_554
Ba1 O7 2.907317 1_555
Ba1 O8 2.907317 1_555
Ba1 O6 2.907317 1_555
Ba2 O6 2.810670 1_545
Ba2 O6 2.810670 1_455
Ba2 O7 2.810670 1_455
Ba2 O8 2.810670 1_545
Ba2 O7 2.810670 1_554
Ba2 O8 2.810670 1_554
Ba2 O1 2.881132 1_455
Ba2 O2 2.881132 1_545
Ba2 O3 2.881132 1_454
Ba2 O5 2.881132 1_544
Ba2 O0 2.881132 1_554
Ba2 O4 2.881132 1_445
O0 Si2 1.810490 1_555
O0 Si1 1.845404 1_555
O1 Si2 1.810490 1_555
O1 Si1 1.845404 1_555
O2 Si2 1.810490 1_555
O2 Si1 1.845404 1_555
O3 Si2 1.810490 1_555
O3 Si0 1.845404 1_555
O4 Si2 1.810490 1_555
O4 Si0 1.845404 1_555
O5 Si2 1.810490 1_555
O5 Si0 1.845404 1_555
O6 Si1 1.885709 1_555
O6 Si0 1.885709 1_554
O7 Si1 1.885709 1_555
O7 Si0 1.885709 1_545
O8 Si1 1.885709 1_555
O8 Si0 1.885709 1_455
