# generated using pymatgen
data_Dy6MnBi2
_symmetry_space_group_name_H-M   'P 1'
_cell_length_a   4.40338532
_cell_length_b   8.23809539
_cell_length_c   8.23808590
_cell_angle_alpha   119.99980403
_cell_angle_beta   90.00000000
_cell_angle_gamma   90.00000000
_symmetry_Int_Tables_number   1
_chemical_formula_structural   Dy6MnBi2
_chemical_formula_sum   'Dy6 Mn1 Bi2'
_cell_volume   258.80419544
_cell_formula_units_Z   1
loop_
 _symmetry_equiv_pos_site_id
 _symmetry_equiv_pos_as_xyz
  1  'x, y, z'
loop_
 _atom_site_type_symbol
 _atom_site_label
 _atom_site_symmetry_multiplicity
 _atom_site_fract_x
 _atom_site_fract_y
 _atom_site_fract_z
 _atom_site_occupancy
  Dy  Dy0  1  0.50000000  0.76338090  0.76337875  1
  Dy  Dy1  1  0.50000000  0.00000155  0.23662183  1
  Dy  Dy2  1  0.50000000  0.23662025  -0.00000060  1
  Dy  Dy3  1  0.00000000  0.39946745  0.39946695  1
  Dy  Dy4  1  -0.00000000  0.00000086  0.60053258  1
  Dy  Dy5  1  0.00000000  0.60053262  0.00000029  1
  Mn  Mn0  1  -0.00000000  0.99999545  -0.00000211  1
  Bi  Bi0  1  0.50000000  0.66666499  0.33333343  1
  Bi  Bi1  1  0.50000000  0.33333492  0.66666788  1
loop_
_geom_bond_atom_site_label_1
_geom_bond_atom_site_label_2
_geom_bond_distance
_geom_bond_site_symmetry_2
Dy0 Mn0 2.940600 1_656
Dy0 Mn0 2.940600 1_556
Dy1 Mn0 2.940618 1_645
Dy1 Mn0 2.940618 1_545
Dy2 Mn0 2.940637 1_645
Dy2 Mn0 2.940637 1_545
Dy3 Mn0 3.290884 1_545
Dy4 Mn0 3.290852 1_546
Dy5 Mn0 3.290823 1_555
Bi0 Dy0 3.219194 1_555
Bi0 Dy2 3.219212 1_555
Bi0 Dy1 3.219227 1_565
Bi0 Dy3 3.344964 1_555
Bi0 Dy3 3.344964 1_655
Bi0 Dy5 3.344979 1_555
Bi0 Dy5 3.344979 1_655
Bi0 Dy4 3.344993 1_665
Bi0 Dy4 3.344993 1_565
Bi1 Dy2 3.219201 1_556
Bi1 Dy1 3.219216 1_555
Bi1 Dy0 3.219216 1_555
Bi1 Dy5 3.344975 1_556
Bi1 Dy5 3.344975 1_656
Bi1 Dy3 3.344979 1_555
Bi1 Dy3 3.344979 1_655
Bi1 Dy4 3.344982 1_655
Bi1 Dy4 3.344982 1_555
