# generated using pymatgen
data_KMnF3
_symmetry_space_group_name_H-M   'P 1'
_cell_length_a   5.89745521
_cell_length_b   5.89745521
_cell_length_c   5.89745521
_cell_angle_alpha   120.05212142
_cell_angle_beta   119.63358751
_cell_angle_gamma   90.27278058
_symmetry_Int_Tables_number   1
_chemical_formula_structural   KMnF3
_chemical_formula_sum   'K2 Mn2 F6'
_cell_volume   145.37735486
_cell_formula_units_Z   2
loop_
 _symmetry_equiv_pos_site_id
 _symmetry_equiv_pos_as_xyz
  1  'x, y, z'
loop_
 _atom_site_type_symbol
 _atom_site_label
 _atom_site_symmetry_multiplicity
 _atom_site_fract_x
 _atom_site_fract_y
 _atom_site_fract_z
 _atom_site_occupancy
  K  K0  1  0.75313948  0.75000000  0.00313948  1
  K  K1  1  0.24686052  0.25000000  0.99686052  1
  Mn  Mn0  1  0.00000000  0.50000000  0.50000000  1
  Mn  Mn1  1  0.50000000  0.00000000  0.50000000  1
  F  F0  1  0.70180610  0.25000000  0.45180610  1
  F  F1  1  0.29819390  0.75000000  0.54819390  1
  F  F2  1  0.77503845  0.77503845  0.50000000  1
  F  F3  1  0.22496155  0.72496155  -0.00000000  1
  F  F4  1  0.22496155  0.22496155  0.50000000  1
  F  F5  1  0.77503845  0.27503845  0.00000000  1
loop_
_geom_bond_atom_site_label_1
_geom_bond_atom_site_label_2
_geom_bond_distance
_geom_bond_site_symmetry_2
F0 Mn1 2.099637 1_555
F0 Mn0 2.099637 1_655
F0 K1 2.697867 1_554
F0 K0 2.962088 1_556
F0 K0 2.962088 1_545
F0 K1 3.232220 1_655
F1 Mn1 2.099637 1_565
F1 Mn0 2.099637 1_555
F1 K0 2.697867 1_556
F1 K1 2.962088 1_565
F1 K1 2.962088 1_554
F1 K0 3.232220 1_455
F2 Mn1 2.100380 1_565
F2 Mn0 2.100380 1_655
F2 K1 2.795863 1_665
F2 K0 2.795863 1_555
F2 K1 3.108156 1_554
F2 K0 3.108156 1_556
F3 Mn1 2.100380 1_565
F3 Mn0 2.100380 1_554
F3 K0 2.795863 1_455
F3 K1 2.795863 1_554
F3 K1 3.108156 1_564
F3 K0 3.108156 1_555
F4 Mn0 2.100380 1_555
F4 Mn1 2.100380 1_555
F4 K1 2.795863 1_555
F4 K0 2.795863 1_445
F4 K1 3.108156 1_554
F4 K0 3.108156 1_556
F5 Mn1 2.100380 1_554
F5 Mn0 2.100380 1_655
F5 K1 2.795863 1_654
F5 K0 2.795863 1_555
F5 K1 3.108156 1_554
F5 K0 3.108156 1_545
