# generated using pymatgen
data_Pr2UP3
_symmetry_space_group_name_H-M   'P 1'
_cell_length_a   7.20914538
_cell_length_b   7.20914538
_cell_length_c   7.20914538
_cell_angle_alpha   146.76980696
_cell_angle_beta   131.91503411
_cell_angle_gamma   59.70160187
_symmetry_Int_Tables_number   1
_chemical_formula_structural   Pr2UP3
_chemical_formula_sum   'Pr2 U1 P3'
_cell_volume   151.42758605
_cell_formula_units_Z   1
loop_
 _symmetry_equiv_pos_site_id
 _symmetry_equiv_pos_as_xyz
  1  'x, y, z'
loop_
 _atom_site_type_symbol
 _atom_site_label
 _atom_site_symmetry_multiplicity
 _atom_site_fract_x
 _atom_site_fract_y
 _atom_site_fract_z
 _atom_site_occupancy
  Pr  Pr0  1  0.66691342  0.66691342  0.00000000  1
  Pr  Pr1  1  0.33308658  0.33308658  -0.00000000  1
  U  U0  1  0.00000000  0.00000000  -0.00000000  1
  P  P0  1  0.50000000  0.00000000  0.50000000  1
  P  P1  1  0.15798615  0.65798615  0.50000000  1
  P  P2  1  0.84201385  0.34201385  0.50000000  1
loop_
_geom_bond_atom_site_label_1
_geom_bond_atom_site_label_2
_geom_bond_distance
_geom_bond_site_symmetry_2
P0 Pr1 2.933630 1_545
P0 Pr0 2.933630 1_556
P0 Pr1 2.933630 1_556
P0 Pr0 2.933630 1_545
P0 U0 2.937106 1_555
P0 U0 2.937106 1_656
P1 U0 2.855275 1_566
P1 U0 2.855275 1_555
P1 Pr0 2.939227 1_556
P1 Pr0 2.939227 1_455
P1 Pr1 3.007336 1_566
P1 Pr1 3.007336 1_555
P2 U0 2.855275 1_655
P2 U0 2.855275 1_666
P2 Pr1 2.939227 1_656
P2 Pr1 2.939227 1_555
P2 Pr0 3.007336 1_556
P2 Pr0 3.007336 1_545
