# generated using pymatgen
data_Sr3Ca5Fe5Co3O20
_symmetry_space_group_name_H-M   'P 1'
_cell_length_a   10.80835148
_cell_length_b   11.27664476
_cell_length_c   17.31766494
_cell_angle_alpha   109.05150535
_cell_angle_beta   108.21799963
_cell_angle_gamma   89.94395461
_symmetry_Int_Tables_number   1
_chemical_formula_structural   Sr3Ca5Fe5Co3O20
_chemical_formula_sum   'Sr12 Ca20 Fe20 Co12 O80'
_cell_volume   1883.04533374
_cell_formula_units_Z   4
loop_
 _symmetry_equiv_pos_site_id
 _symmetry_equiv_pos_as_xyz
  1  'x, y, z'
loop_
 _atom_site_type_symbol
 _atom_site_label
 _atom_site_symmetry_multiplicity
 _atom_site_fract_x
 _atom_site_fract_y
 _atom_site_fract_z
 _atom_site_occupancy
  Sr  Sr0  1  0.30981900  0.56680100  0.60891700  1
  Sr  Sr1  1  0.80495800  0.06385900  0.60855100  1
  Sr  Sr2  1  0.80383400  0.56451300  0.61086200  1
  Sr  Sr3  1  0.19802900  0.43673600  0.38712400  1
  Sr  Sr4  1  0.19818500  0.44094900  0.89445900  1
  Sr  Sr5  1  0.69302300  0.93058500  0.38504000  1
  Sr  Sr6  1  0.05285300  0.29481300  0.60938400  1
  Sr  Sr7  1  0.05872900  0.79976300  0.60900300  1
  Sr  Sr8  1  0.55939200  0.29502400  0.61125300  1
  Sr  Sr9  1  0.45057800  0.20624400  0.89171000  1
  Sr  Sr10  1  0.93890900  0.20324300  0.38592700  1
  Sr  Sr11  1  0.94614700  0.20525700  0.89283400  1
  Ca  Ca0  1  0.30259000  0.06507500  0.10710400  1
  Ca  Ca1  1  0.30671200  0.06423500  0.60493000  1
  Ca  Ca2  1  0.30162800  0.57282900  0.10842800  1
  Ca  Ca3  1  0.80536200  0.06603200  0.10472400  1
  Ca  Ca4  1  0.79933100  0.56813300  0.10762500  1
  Ca  Ca5  1  0.20082900  0.92854500  0.39182200  1
  Ca  Ca6  1  0.19827700  0.93280200  0.89757500  1
  Ca  Ca7  1  0.69111500  0.42943300  0.38984400  1
  Ca  Ca8  1  0.69211400  0.43431000  0.89639500  1
  Ca  Ca9  1  0.70055100  0.93360200  0.89499200  1
  Ca  Ca10  1  0.05154100  0.28591900  0.10723000  1
  Ca  Ca11  1  0.05382700  0.78985900  0.10644200  1
  Ca  Ca12  1  0.55568200  0.28864900  0.10706400  1
  Ca  Ca13  1  0.55170900  0.78603900  0.10521000  1
  Ca  Ca14  1  0.55646200  0.78961400  0.60650800  1
  Ca  Ca15  1  0.44697000  0.20937100  0.38988300  1
  Ca  Ca16  1  0.44696200  0.70609600  0.39215000  1
  Ca  Ca17  1  0.44708000  0.71327900  0.89634300  1
  Ca  Ca18  1  0.94871700  0.70998800  0.39162600  1
  Ca  Ca19  1  0.95070100  0.71647600  0.89824000  1
  Fe  Fe0  1  0.00603800  0.99708300  0.49652800  1
  Fe  Fe1  1  0.00241900  0.50061400  0.49658300  1
  Fe  Fe2  1  0.25844000  0.25228400  0.00513100  1
  Fe  Fe3  1  0.25341000  0.24631100  0.49535100  1
  Fe  Fe4  1  0.10678400  0.08550600  0.24813900  1
  Fe  Fe5  1  0.11210200  0.08774700  0.75382400  1
  Fe  Fe6  1  0.10466800  0.59442200  0.24992200  1
  Fe  Fe7  1  0.10796100  0.59772800  0.75297700  1
  Fe  Fe8  1  0.59955200  0.08958800  0.24475000  1
  Fe  Fe9  1  0.60326800  0.08721400  0.74975100  1
  Fe  Fe10  1  0.60306100  0.58823300  0.24866500  1
  Fe  Fe11  1  0.60891100  0.59917000  0.75674500  1
  Fe  Fe12  1  0.35364800  0.40861300  0.24507400  1
  Fe  Fe13  1  0.35974600  0.41150300  0.75092200  1
  Fe  Fe14  1  0.35151100  0.90740100  0.24914300  1
  Fe  Fe15  1  0.36060700  0.90667700  0.74904000  1
  Fe  Fe16  1  0.85079800  0.41270700  0.24845500  1
  Fe  Fe17  1  0.85628300  0.41758300  0.75771400  1
  Fe  Fe18  1  0.85482100  0.90404600  0.24363500  1
  Fe  Fe19  1  0.85417900  0.90417300  0.75052100  1
  Co  Co0  1  0.00978400  0.00027900  0.00385300  1
  Co  Co1  1  0.00537900  0.50314800  0.00364200  1
  Co  Co2  1  0.50932600  0.99969700  0.00294700  1
  Co  Co3  1  0.50149600  0.99638300  0.49638000  1
  Co  Co4  1  0.50757900  0.50336400  0.00445200  1
  Co  Co5  1  0.50246300  0.49844000  0.49509300  1
  Co  Co6  1  0.25865900  0.75339800  0.00377100  1
  Co  Co7  1  0.25855600  0.75085300  0.49856700  1
  Co  Co8  1  0.75778700  0.25314400  0.00556500  1
  Co  Co9  1  0.74927500  0.24833600  0.49591500  1
  Co  Co10  1  0.75714100  0.74990500  0.00094400  1
  Co  Co11  1  0.75221700  0.74573400  0.49492000  1
  O  O0  1  0.12402700  0.11719000  0.48781900  1
  O  O1  1  0.12782400  0.11924000  0.99250000  1
  O  O2  1  0.12292700  0.62734700  0.48757600  1
  O  O3  1  0.12261600  0.62717700  0.99378700  1
  O  O4  1  0.61605000  0.11549900  0.48688400  1
  O  O5  1  0.63205200  0.12313100  0.99201300  1
  O  O6  1  0.61753900  0.61261300  0.48080700  1
  O  O7  1  0.62065700  0.61783400  0.98632500  1
  O  O8  1  0.13668200  0.38363500  0.02019200  1
  O  O9  1  0.13151300  0.37805700  0.50729700  1
  O  O10  1  0.13830200  0.88322200  0.01488000  1
  O  O11  1  0.14194200  0.87989300  0.50566800  1
  O  O12  1  0.63571300  0.38565700  0.01833600  1
  O  O13  1  0.62598100  0.37667100  0.50364200  1
  O  O14  1  0.64056700  0.87693300  0.01286200  1
  O  O15  1  0.63514600  0.86598500  0.50683400  1
  O  O16  1  0.36894900  0.11284900  0.48356600  1
  O  O17  1  0.37626300  0.11483100  0.98999200  1
  O  O18  1  0.37966100  0.62230800  0.48978400  1
  O  O19  1  0.37865400  0.62191500  0.99294600  1
  O  O20  1  0.87182800  0.11840300  0.49023800  1
  O  O21  1  0.87664000  0.11297000  0.99148700  1
  O  O22  1  0.86830400  0.62140000  0.48554100  1
  O  O23  1  0.87010200  0.61899400  0.98858000  1
  O  O24  1  0.38823200  0.38738900  0.01806700  1
  O  O25  1  0.38488000  0.37913200  0.50627400  1
  O  O26  1  0.39008600  0.88532600  0.01422800  1
  O  O27  1  0.38992200  0.88034400  0.50946300  1
  O  O28  1  0.88162400  0.38206700  0.01562300  1
  O  O29  1  0.87557800  0.38287500  0.50430300  1
  O  O30  1  0.89259900  0.88601400  0.01746200  1
  O  O31  1  0.88608600  0.87822500  0.50446100  1
  O  O32  1  0.09946500  0.10816200  0.14501700  1
  O  O33  1  0.09153500  0.08882100  0.64121200  1
  O  O34  1  0.08999100  0.61330100  0.14545100  1
  O  O35  1  0.07638600  0.59557400  0.63824800  1
  O  O36  1  0.59062500  0.10689500  0.13970600  1
  O  O37  1  0.58342500  0.09289400  0.63967400  1
  O  O38  1  0.59442800  0.61033200  0.14516800  1
  O  O39  1  0.58283600  0.60485600  0.64439500  1
  O  O40  1  0.43892800  0.39461500  0.35408500  1
  O  O41  1  0.44824400  0.39913900  0.85832100  1
  O  O42  1  0.43907700  0.89099300  0.35736900  1
  O  O43  1  0.45904600  0.89319800  0.85514500  1
  O  O44  1  0.94173300  0.40784600  0.35898500  1
  O  O45  1  0.94645900  0.40276700  0.86447900  1
  O  O46  1  0.94526600  0.89879100  0.35591000  1
  O  O47  1  0.94937100  0.89299500  0.85828900  1
  O  O48  1  0.34156200  0.28460600  0.13815300  1
  O  O49  1  0.33346800  0.28990200  0.63917700  1
  O  O50  1  0.34095900  0.78907600  0.14187200  1
  O  O51  1  0.33102500  0.79653100  0.63258000  1
  O  O52  1  0.84005100  0.28786600  0.14144700  1
  O  O53  1  0.83137600  0.30094800  0.64679400  1
  O  O54  1  0.83816900  0.78213100  0.13693600  1
  O  O55  1  0.82810900  0.79275700  0.63840000  1
  O  O56  1  0.19406700  0.20431800  0.35878500  1
  O  O57  1  0.19407900  0.20958800  0.86500000  1
  O  O58  1  0.19976900  0.70604600  0.36495800  1
  O  O59  1  0.20418300  0.71481100  0.86144800  1
  O  O60  1  0.68604800  0.20907000  0.35335200  1
  O  O61  1  0.68846500  0.21188100  0.85967200  1
  O  O62  1  0.69883400  0.70392100  0.35752900  1
  O  O63  1  0.70599100  0.71869100  0.86480100  1
  O  O64  1  0.42159400  0.06610100  0.24890400  1
  O  O65  1  0.42164500  0.06388000  0.74344700  1
  O  O66  1  0.42268000  0.56941000  0.24844200  1
  O  O67  1  0.43196000  0.57424400  0.75792900  1
  O  O68  1  0.92431100  0.05982100  0.23998800  1
  O  O69  1  0.93352900  0.05914200  0.75064000  1
  O  O70  1  0.92428600  0.57084600  0.24925900  1
  O  O71  1  0.93443400  0.57550300  0.76103500  1
  O  O72  1  0.17302100  0.43255700  0.24027600  1
  O  O73  1  0.18282800  0.44094400  0.75106200  1
  O  O74  1  0.17191500  0.92518200  0.24890200  1
  O  O75  1  0.18801600  0.93389000  0.76013500  1
  O  O76  1  0.67077800  0.42758200  0.24746000  1
  O  O77  1  0.67864500  0.44222100  0.76037200  1
  O  O78  1  0.67525800  0.93128700  0.24019900  1
  O  O79  1  0.67469200  0.92958900  0.75203800  1
loop_
_geom_bond_atom_site_label_1
_geom_bond_atom_site_label_2
_geom_bond_distance
_geom_bond_site_symmetry_2
Ca0 O48 2.363565 1_555
Ca0 O64 2.385641 1_555
Ca0 O10 2.450485 1_545
Ca0 O32 2.485575 1_555
Ca0 O1 2.514982 1_554
Ca0 O26 2.531562 1_545
Ca0 O17 2.610675 1_554
Ca0 O36 2.993845 1_555
Ca1 O65 2.332470 1_555
Ca1 O49 2.412492 1_555
Ca1 O11 2.491588 1_545
Ca1 O27 2.555421 1_545
Ca1 O0 2.579327 1_555
Ca1 O33 2.584431 1_555
Ca1 O16 2.609070 1_555
Ca1 O37 2.856779 1_555
Ca2 O50 2.321356 1_555
Ca2 O66 2.381152 1_555
Ca2 O8 2.498161 1_555
Ca2 O3 2.539848 1_554
Ca2 O24 2.544316 1_555
Ca2 O34 2.564318 1_555
Ca2 O19 2.600696 1_554
Ca3 O68 2.317064 1_555
Ca3 O52 2.370000 1_555
Ca3 O30 2.485572 1_545
Ca3 O5 2.503059 1_554
Ca3 O14 2.504303 1_545
Ca3 O21 2.518380 1_554
Ca3 O36 2.580887 1_555
Ca4 O54 2.307895 1_555
Ca4 O70 2.391830 1_555
Ca4 O12 2.443909 1_555
Ca4 O38 2.500031 1_555
Ca4 O28 2.536151 1_555
Ca4 O7 2.585763 1_554
Ca4 O23 2.631150 1_554
Ca4 O34 3.009398 1_655
Ca5 O74 2.383284 1_555
Ca5 O58 2.397196 1_555
Ca5 O11 2.466682 1_555
Ca5 O16 2.488399 1_565
Ca5 O0 2.555149 1_565
Ca5 O27 2.596199 1_555
Ca5 O46 2.630713 1_455
Ca5 O42 2.821323 1_555
Ca6 O59 2.336433 1_555
Ca6 O75 2.351920 1_555
Ca6 O1 2.495109 1_565
Ca6 O17 2.532509 1_565
Ca6 O10 2.534786 1_556
Ca6 O47 2.561337 1_455
Ca6 O26 2.598229 1_556
Ca7 O60 2.351764 1_555
Ca7 O76 2.399215 1_555
Ca7 O6 2.456941 1_555
Ca7 O13 2.523309 1_555
Ca7 O29 2.527044 1_555
Ca7 O40 2.599072 1_555
Ca7 O22 2.604196 1_555
Ca7 O44 2.915677 1_555
Ca8 O77 2.345368 1_555
Ca8 O61 2.374968 1_555
Ca8 O7 2.439206 1_555
Ca8 O41 2.506852 1_555
Ca8 O23 2.550246 1_555
Ca8 O12 2.587272 1_556
Ca8 O28 2.636877 1_556
Ca8 O45 2.968009 1_555
Ca9 O63 2.311232 1_555
Ca9 O79 2.388128 1_555
Ca9 O43 2.483567 1_555
Ca9 O21 2.513616 1_565
Ca9 O5 2.523759 1_565
Ca9 O14 2.583638 1_556
Ca9 O30 2.661384 1_556
Ca9 O47 2.953403 1_555
Ca10 O32 2.314501 1_555
Ca10 O72 2.322145 1_555
Ca10 O8 2.507296 1_555
Ca10 O28 2.522377 1_455
Ca10 O52 2.532803 1_455
Ca10 O21 2.545739 1_454
Ca10 O1 2.596819 1_554
Ca11 O34 2.298823 1_555
Ca11 O74 2.370937 1_555
Ca11 O30 2.448460 1_455
Ca11 O3 2.508404 1_554
Ca11 O10 2.540329 1_555
Ca11 O54 2.553368 1_455
Ca11 O23 2.593758 1_454
Ca11 O50 2.969959 1_555
Ca12 O36 2.298762 1_555
Ca12 O76 2.353579 1_555
Ca12 O12 2.497234 1_555
Ca12 O24 2.502598 1_555
Ca12 O48 2.538337 1_555
Ca12 O17 2.582199 1_554
Ca12 O5 2.594679 1_554
Ca12 O52 2.942867 1_555
Ca13 O38 2.304655 1_555
Ca13 O78 2.341686 1_555
Ca13 O19 2.467313 1_554
Ca13 O26 2.492890 1_555
Ca13 O50 2.546142 1_555
Ca13 O14 2.561835 1_555
Ca13 O7 2.607488 1_554
Ca13 O54 2.973536 1_555
Ca14 O39 2.372092 1_555
Ca14 O79 2.422661 1_555
Ca14 O15 2.516785 1_555
Ca14 O27 2.517677 1_555
Ca14 O18 2.529670 1_555
Ca14 O51 2.609883 1_555
Ca14 O6 2.686595 1_555
Ca14 O55 2.810734 1_555
Ca15 O40 2.359426 1_555
Ca15 O64 2.377628 1_555
Ca15 O13 2.526111 1_555
Ca15 O25 2.549904 1_555
Ca15 O4 2.553364 1_555
Ca15 O16 2.556944 1_555
Ca15 O56 2.612456 1_555
Ca15 O60 2.845738 1_555
Ca16 O42 2.346228 1_555
Ca16 O66 2.392985 1_555
Ca16 O18 2.468591 1_555
Ca16 O6 2.480024 1_555
Ca16 O15 2.544781 1_555
Ca16 O27 2.557945 1_555
Ca16 O58 2.563816 1_555
Ca16 O62 2.963430 1_555
Ca17 O67 2.352151 1_555
Ca17 O43 2.375985 1_555
Ca17 O59 2.504499 1_555
Ca17 O19 2.511473 1_555
Ca17 O7 2.523759 1_555
Ca17 O26 2.551369 1_556
Ca17 O14 2.605533 1_556
Ca17 O63 3.018445 1_555
Ca18 O70 2.382951 1_555
Ca18 O46 2.400414 1_555
Ca18 O2 2.495209 1_655
Ca18 O31 2.506017 1_555
Ca18 O22 2.518869 1_555
Ca18 O62 2.573833 1_555
Ca18 O11 2.625166 1_655
Ca18 O58 2.889296 1_655
Ca19 O47 2.309529 1_555
Ca19 O71 2.340340 1_555
Ca19 O3 2.523135 1_655
Ca19 O63 2.526491 1_555
Ca19 O23 2.528171 1_555
Ca19 O30 2.558055 1_556
Ca19 O10 2.587305 1_656
Ca19 O59 2.999327 1_655
Fe0 O31 1.931625 1_455
Fe0 O0 1.934026 1_565
Fe0 O11 1.979011 1_555
Fe0 O20 1.995578 1_465
Fe0 O46 2.197559 1_455
Fe0 O33 2.250348 1_565
Fe1 O9 1.973079 1_555
Fe1 O29 1.973370 1_455
Fe1 O22 1.996462 1_455
Fe1 O2 2.009828 1_555
Fe1 O44 2.144618 1_455
Fe1 O35 2.205631 1_555
Fe2 O1 1.971941 1_554
Fe2 O24 1.980947 1_555
Fe2 O8 1.988074 1_555
Fe2 O17 2.008133 1_554
Fe2 O48 2.098844 1_555
Fe2 O57 2.187955 1_554
Fe3 O16 1.954818 1_555
Fe3 O0 1.964335 1_555
Fe3 O25 1.987313 1_555
Fe3 O9 1.987896 1_555
Fe3 O56 2.133043 1_555
Fe3 O49 2.246788 1_555
Fe4 O32 1.862851 1_555
Fe4 O56 1.884894 1_555
Fe4 O74 1.942057 1_545
Fe4 O68 1.947787 1_455
Fe5 O57 1.894316 1_555
Fe5 O33 1.896603 1_555
Fe5 O69 1.937876 1_455
Fe5 O75 1.939150 1_545
Fe6 O34 1.848134 1_555
Fe6 O58 1.922180 1_555
Fe6 O72 1.944447 1_555
Fe6 O70 1.963900 1_455
Fe7 O59 1.874958 1_555
Fe7 O35 1.899771 1_555
Fe7 O73 1.938403 1_555
Fe7 O71 1.946108 1_455
Fe8 O60 1.864219 1_555
Fe8 O36 1.865094 1_555
Fe8 O78 1.951402 1_545
Fe8 O64 1.968468 1_555
Fe9 O37 1.872977 1_555
Fe9 O61 1.899302 1_555
Fe9 O79 1.944508 1_545
Fe9 O65 1.944983 1_555
Fe10 O38 1.862852 1_555
Fe10 O62 1.872022 1_555
Fe10 O76 1.949439 1_555
Fe10 O66 1.960015 1_555
Fe11 O63 1.883549 1_555
Fe11 O39 1.899369 1_555
Fe11 O77 1.935144 1_555
Fe11 O67 1.940774 1_555
Fe12 O40 1.882714 1_555
Fe12 O48 1.886741 1_555
Fe12 O66 1.937620 1_555
Fe12 O72 1.950229 1_555
Fe13 O41 1.857486 1_555
Fe13 O49 1.905410 1_555
Fe13 O73 1.941092 1_555
Fe13 O67 1.946789 1_555
Fe14 O50 1.869224 1_555
Fe14 O42 1.886696 1_555
Fe14 O64 1.945745 1_565
Fe14 O74 1.950116 1_555
Fe15 O43 1.868449 1_555
Fe15 O51 1.916958 1_555
Fe15 O65 1.934294 1_565
Fe15 O75 1.948176 1_555
Fe16 O44 1.877484 1_555
Fe16 O52 1.895270 1_555
Fe16 O70 1.946999 1_555
Fe16 O76 1.947959 1_555
Fe17 O45 1.863049 1_555
Fe17 O53 1.876202 1_555
Fe17 O71 1.947763 1_555
Fe17 O77 1.952300 1_555
Fe18 O54 1.863026 1_555
Fe18 O46 1.904272 1_555
Fe18 O68 1.938680 1_565
Fe18 O78 1.950151 1_555
Fe19 O55 1.869232 1_555
Fe19 O47 1.873554 1_555
Fe19 O69 1.946508 1_565
Fe19 O79 1.967774 1_555
Co0 O10 1.924453 1_545
Co0 O30 1.925654 1_445
Co0 O21 1.926924 1_454
Co0 O1 1.948924 1_554
Co0 O32 2.230450 1_555
Co0 O47 2.286035 1_444
Co1 O3 1.971155 1_554
Co1 O23 1.972980 1_454
Co1 O8 1.976511 1_555
Co1 O28 2.014576 1_455
Co1 O45 2.180764 1_454
Co1 O34 2.239807 1_555
Co2 O26 1.920336 1_555
Co2 O17 1.946570 1_564
Co2 O14 1.989256 1_555
Co2 O5 2.016317 1_564
Co2 O36 2.162010 1_565
Co2 O43 2.326769 1_554
Co3 O27 1.893496 1_555
Co3 O4 1.907634 1_565
Co3 O16 1.953026 1_565
Co3 O15 2.070702 1_555
Co3 O42 2.186589 1_555
Co3 O37 2.234125 1_565
Co4 O12 1.932404 1_555
Co4 O19 1.940435 1_554
Co4 O7 1.940635 1_554
Co4 O24 1.955681 1_555
Co4 O38 2.219788 1_555
Co4 O41 2.289496 1_554
Co5 O6 1.915543 1_555
Co5 O13 1.922313 1_555
Co5 O18 1.930064 1_555
Co5 O25 1.946789 1_555
Co5 O40 2.211778 1_555
Co5 O39 2.334927 1_555
Co6 O10 1.959942 1_555
Co6 O19 1.970376 1_554
Co6 O3 1.975441 1_554
Co6 O26 1.982755 1_555
Co6 O50 2.171445 1_555
Co6 O59 2.236904 1_554
Co7 O11 1.922934 1_555
Co7 O2 1.944568 1_555
Co7 O18 1.953080 1_555
Co7 O27 1.959717 1_555
Co7 O58 2.081064 1_555
Co7 O51 2.085346 1_555
Co8 O28 1.904773 1_555
Co8 O5 1.905585 1_554
Co8 O12 1.996388 1_555
Co8 O21 2.036788 1_554
Co8 O52 2.138264 1_555
Co8 O61 2.282716 1_554
Co9 O13 1.967078 1_555
Co9 O20 1.973485 1_555
Co9 O29 1.980556 1_555
Co9 O4 2.013016 1_555
Co9 O60 2.233903 1_555
Co9 O53 2.346444 1_555
Co10 O14 1.910000 1_555
Co10 O23 1.915555 1_554
Co10 O7 1.995724 1_554
Co10 O30 2.009236 1_555
Co10 O54 2.144215 1_555
Co10 O63 2.152161 1_554
Co11 O15 1.860029 1_555
Co11 O22 1.881965 1_555
Co11 O6 1.993596 1_555
Co11 O31 2.011620 1_555
Co11 O62 2.150820 1_555
Co11 O55 2.234783 1_555
O0 Sr10 2.639136 1_455
O0 Sr6 2.700458 1_555
O1 Sr11 2.597269 1_455
O2 Sr3 2.596860 1_555
O2 Sr7 2.631377 1_555
O2 Sr0 2.691102 1_555
O3 Sr4 2.559873 1_555
O4 Sr5 2.581477 1_545
O4 Sr1 2.656342 1_555
O4 Sr8 2.662311 1_555
O5 Sr9 2.582975 1_555
O6 Sr2 2.716797 1_555
O8 Sr11 2.724595 1_454
O8 Sr4 2.724934 1_554
O9 Sr6 2.598901 1_555
O9 Sr0 2.604475 1_555
O9 Sr3 2.668557 1_555
O9 Sr10 2.684152 1_455
O11 Sr7 2.625143 1_555
O12 Sr9 2.697012 1_554
O13 Sr8 2.607423 1_555
O13 Sr2 2.615019 1_555
O15 Sr1 2.621257 1_565
O15 Sr5 2.683209 1_555
O16 Sr8 2.746542 1_555
O17 Sr9 2.570302 1_555
O18 Sr3 2.605899 1_555
O18 Sr0 2.652507 1_555
O19 Sr4 2.556074 1_555
O20 Sr10 2.579276 1_555
O20 Sr5 2.612888 1_545
O20 Sr6 2.616609 1_655
O20 Sr1 2.616911 1_555
O21 Sr11 2.555570 1_555
O22 Sr7 2.702236 1_655
O22 Sr2 2.731751 1_555
O24 Sr4 2.694175 1_554
O24 Sr9 2.723268 1_554
O25 Sr0 2.595952 1_555
O25 Sr8 2.596238 1_555
O25 Sr3 2.650480 1_555
O28 Sr11 2.672081 1_554
O29 Sr2 2.574115 1_555
O29 Sr10 2.634010 1_555
O29 Sr6 2.639086 1_655
O31 Sr7 2.544132 1_655
O31 Sr1 2.630884 1_565
O31 Sr5 2.660143 1_555
O33 Sr6 2.562095 1_555
O33 Sr1 2.965726 1_455
O33 Sr7 3.123061 1_545
O35 Sr7 2.508932 1_555
O35 Sr0 2.724163 1_555
O35 Sr2 2.836474 1_455
O37 Sr8 2.481218 1_555
O37 Sr1 2.611717 1_555
O39 Sr2 2.634850 1_555
O39 Sr0 2.822406 1_555
O40 Sr3 2.843235 1_555
O41 Sr9 2.424537 1_555
O41 Sr4 2.963301 1_555
O42 Sr5 2.646295 1_555
O44 Sr10 2.500754 1_555
O44 Sr3 2.659199 1_655
O45 Sr11 2.432451 1_555
O45 Sr4 2.613524 1_655
O46 Sr5 2.925042 1_555
O49 Sr8 2.637563 1_555
O49 Sr6 2.916872 1_555
O51 Sr0 2.486156 1_555
O51 Sr7 2.843915 1_555
O53 Sr1 2.528917 1_555
O53 Sr6 2.663623 1_655
O53 Sr8 2.804877 1_555
O55 Sr2 2.458174 1_555
O55 Sr7 2.701603 1_655
O56 Sr3 2.501829 1_555
O56 Sr10 2.939567 1_455
O57 Sr4 2.487194 1_555
O57 Sr9 2.666565 1_555
O57 Sr11 2.870364 1_455
O60 Sr10 2.617583 1_555
O61 Sr11 2.668291 1_555
O61 Sr9 2.799657 1_555
O62 Sr5 2.446940 1_555
O65 Sr9 2.464845 1_555
O67 Sr0 2.477447 1_555
O68 Sr10 2.471980 1_555
O69 Sr1 2.436387 1_555
O69 Sr11 2.436981 1_555
O71 Sr2 2.503164 1_555
O72 Sr3 2.456512 1_555
O73 Sr6 2.432838 1_555
O73 Sr4 2.436497 1_555
O75 Sr7 2.494670 1_555
O77 Sr8 2.491971 1_555
O78 Sr5 2.457714 1_555
