# generated using pymatgen
data_NdEu3
_symmetry_space_group_name_H-M   'P 1'
_cell_length_a   7.66557416
_cell_length_b   7.66557416
_cell_length_c   6.18313000
_cell_angle_alpha   90.00000000
_cell_angle_beta   90.00000000
_cell_angle_gamma   120.00000136
_symmetry_Int_Tables_number   1
_chemical_formula_structural   NdEu3
_chemical_formula_sum   'Nd2 Eu6'
_cell_volume   314.65046808
_cell_formula_units_Z   2
loop_
 _symmetry_equiv_pos_site_id
 _symmetry_equiv_pos_as_xyz
  1  'x, y, z'
loop_
 _atom_site_type_symbol
 _atom_site_label
 _atom_site_symmetry_multiplicity
 _atom_site_fract_x
 _atom_site_fract_y
 _atom_site_fract_z
 _atom_site_occupancy
  Nd  Nd0  1  0.66666700  0.33333300  0.25000000  1
  Nd  Nd1  1  0.33333300  0.66666700  0.75000000  1
  Eu  Eu0  1  0.16936200  0.33872400  0.25000000  1
  Eu  Eu1  1  0.83063800  0.16936200  0.75000000  1
  Eu  Eu2  1  0.33872400  0.16936200  0.75000000  1
  Eu  Eu3  1  0.83063800  0.66127600  0.75000000  1
  Eu  Eu4  1  0.16936200  0.83063800  0.25000000  1
  Eu  Eu5  1  0.66127600  0.83063800  0.25000000  1
loop_
_geom_bond_atom_site_label_1
_geom_bond_atom_site_label_2
_geom_bond_distance
_geom_bond_site_symmetry_2
Eu0 Eu5 3.770803 1_555
Eu0 Eu4 3.770803 1_555
Eu0 Nd1 3.781195 1_555
Eu0 Nd1 3.781195 1_554
Eu0 Eu1 3.822851 1_455
Eu0 Eu1 3.822851 1_454
Eu0 Eu2 3.822851 1_555
Eu0 Eu2 3.822851 1_554
Eu0 Nd0 3.832950 1_455
Eu0 Nd0 3.832958 1_555
Eu0 Eu5 3.894771 1_445
Eu0 Eu4 3.894771 1_545
Eu1 Eu2 3.770803 1_555
Eu1 Eu3 3.770803 1_555
Eu1 Nd0 3.781191 1_556
Eu1 Nd0 3.781191 1_555
Eu1 Eu5 3.822851 1_546
Eu1 Eu5 3.822851 1_545
Eu1 Nd1 3.832954 1_545
Eu1 Nd1 3.832954 1_655
Eu1 Eu2 3.894771 1_655
Eu1 Eu3 3.894771 1_545
Eu2 Eu3 3.770803 1_555
Eu2 Nd0 3.781195 1_555
Eu2 Nd0 3.781195 1_556
Eu2 Eu4 3.822851 1_545
Eu2 Eu4 3.822851 1_546
Eu2 Nd1 3.832950 1_545
Eu2 Nd1 3.832958 1_555
Eu2 Eu3 3.894771 1_445
Eu3 Nd0 3.781195 1_555
Eu3 Nd0 3.781195 1_556
Eu3 Eu4 3.822851 1_655
Eu3 Eu4 3.822851 1_656
Eu3 Eu5 3.822851 1_556
Eu3 Eu5 3.822851 1_555
Eu3 Nd1 3.832950 1_655
Eu3 Nd1 3.832958 1_555
Eu4 Eu5 3.770803 1_555
Eu4 Nd1 3.781191 1_555
Eu4 Nd1 3.781191 1_554
Eu4 Nd0 3.832954 1_455
Eu4 Nd0 3.832954 1_565
Eu4 Eu5 3.894771 1_455
Eu5 Nd1 3.781195 1_555
Eu5 Nd1 3.781195 1_554
Eu5 Nd0 3.832950 1_565
Eu5 Nd0 3.832958 1_555
