# generated using pymatgen
data_Al6Cu2B4O17
_symmetry_space_group_name_H-M   'P 1'
_cell_length_a   7.97880896
_cell_length_b   7.97880896
_cell_length_c   10.66360318
_cell_angle_alpha   49.36718573
_cell_angle_beta   49.36718573
_cell_angle_gamma   42.13492456
_symmetry_Int_Tables_number   1
_chemical_formula_structural   Al6Cu2B4O17
_chemical_formula_sum   'Al6 Cu2 B4 O17'
_cell_volume   326.19859957
_cell_formula_units_Z   1
loop_
 _symmetry_equiv_pos_site_id
 _symmetry_equiv_pos_as_xyz
  1  'x, y, z'
loop_
 _atom_site_type_symbol
 _atom_site_label
 _atom_site_symmetry_multiplicity
 _atom_site_fract_x
 _atom_site_fract_y
 _atom_site_fract_z
 _atom_site_occupancy
  Al  Al0  1  0.99259100  0.49698900  0.50478900  1
  Al  Al1  1  0.49698900  0.99259100  0.50478900  1
  Al  Al2  1  0.00221700  0.50019000  0.99698800  1
  Al  Al3  1  0.50019000  0.00221700  0.99698800  1
  Al  Al4  1  0.97219200  0.97219200  0.21312500  1
  Al  Al5  1  0.81529100  0.81529100  0.15888100  1
  Cu  Cu0  1  0.02793700  0.02793700  0.78349000  1
  Cu  Cu1  1  0.18757800  0.18757800  0.83773800  1
  B  B0  1  0.24090000  0.24090000  0.25788800  1
  B  B1  1  0.76319300  0.76319300  0.74232100  1
  B  B2  1  0.50242600  0.50242600  0.73454400  1
  B  B3  1  0.49637100  0.49637100  0.26165200  1
  O  O0  1  0.24178900  0.24178900  0.38499200  1
  O  O1  1  0.76066400  0.76066400  0.61442600  1
  O  O2  1  0.37278800  0.37278800  0.87365400  1
  O  O3  1  0.62482700  0.62482700  0.13259000  1
  O  O4  1  0.21254800  0.21254800  0.63912700  1
  O  O5  1  0.78629700  0.78629700  0.35850300  1
  O  O6  1  0.14118900  0.14118900  0.07372100  1
  O  O7  1  0.84925600  0.84925600  0.94966800  1
  O  O8  1  0.21913000  0.64299700  0.32524000  1
  O  O9  1  0.36730400  0.77279000  0.66281700  1
  O  O10  1  0.03192800  0.45348100  0.19058400  1
  O  O11  1  0.56139300  0.96676900  0.80996100  1
  O  O12  1  0.77279000  0.36730400  0.66281700  1
  O  O13  1  0.64299700  0.21913000  0.32524000  1
  O  O14  1  0.96676900  0.56139300  0.80996100  1
  O  O15  1  0.45348100  0.03192800  0.19058400  1
  O  O16  1  0.97897300  0.97897300  0.03892200  1
loop_
_geom_bond_atom_site_label_1
_geom_bond_atom_site_label_2
_geom_bond_distance
_geom_bond_site_symmetry_2
Al0 O4 1.848126 1_655
Al0 O5 1.868217 1_555
Al0 O12 1.886094 1_555
Al0 O0 1.951015 1_655
Al0 O1 1.956770 1_555
Al0 O8 2.000192 1_655
Al1 O4 1.848126 1_565
Al1 O5 1.868217 1_555
Al1 O9 1.886094 1_555
Al1 O0 1.951015 1_565
Al1 O1 1.956770 1_555
Al1 O13 2.000192 1_565
Al2 O7 1.852411 1_455
Al2 O6 1.876773 1_556
Al2 O14 1.886107 1_455
Al2 O2 1.929804 1_555
Al2 O3 1.976765 1_456
Al2 O10 1.990295 1_556
Al3 O7 1.852411 1_545
Al3 O6 1.876773 1_556
Al3 O11 1.886107 1_545
Al3 O2 1.929804 1_555
Al3 O3 1.976765 1_546
Al3 O15 1.990295 1_556
Al4 O16 1.788628 1_555
Al4 O6 1.822492 1_665
Al4 O13 1.874290 1_565
Al4 O8 1.874290 1_655
Al4 O5 2.019036 1_555
Al5 O16 1.795971 1_555
Al5 O5 1.853372 1_555
Al5 O10 1.877512 1_655
Al5 O15 1.877512 1_565
Al5 O7 1.912628 1_554
Cu0 O7 1.907605 1_445
Cu0 O9 1.957132 1_545
Cu0 O12 1.957132 1_455
Cu0 O4 2.005113 1_555
Cu0 O16 2.275733 1_446
Cu1 O4 1.877412 1_555
Cu1 O11 1.955282 1_545
Cu1 O14 1.955282 1_455
Cu1 O6 2.093666 1_556
Cu1 O16 2.224989 1_446
B0 O0 1.364658 1_555
B0 O15 1.396688 1_555
B0 O10 1.396688 1_555
B1 O11 1.373147 1_555
B1 O14 1.373147 1_555
B1 O1 1.390364 1_555
B2 O9 1.369868 1_555
B2 O12 1.369868 1_555
B2 O2 1.389351 1_555
B3 O3 1.370672 1_555
B3 O8 1.401104 1_555
B3 O13 1.401104 1_555
