# generated using pymatgen
data_Sm2Ni12P7
_symmetry_space_group_name_H-M   'P 1'
_cell_length_a   9.06504676
_cell_length_b   9.06504676
_cell_length_c   3.71414600
_cell_angle_alpha   90.00000000
_cell_angle_beta   90.00000000
_cell_angle_gamma   120.00000555
_symmetry_Int_Tables_number   1
_chemical_formula_structural   Sm2Ni12P7
_chemical_formula_sum   'Sm2 Ni12 P7'
_cell_volume   264.31978733
_cell_formula_units_Z   1
loop_
 _symmetry_equiv_pos_site_id
 _symmetry_equiv_pos_as_xyz
  1  'x, y, z'
loop_
 _atom_site_type_symbol
 _atom_site_label
 _atom_site_symmetry_multiplicity
 _atom_site_fract_x
 _atom_site_fract_y
 _atom_site_fract_z
 _atom_site_occupancy
  Sm  Sm0  1  0.66666700  0.33333300  0.00000000  1
  Sm  Sm1  1  0.00000000  0.00000000  0.50000000  1
  Ni  Ni0  1  0.76608400  0.04062400  0.00000000  1
  Ni  Ni1  1  0.95937600  0.72546000  0.00000000  1
  Ni  Ni2  1  0.27454000  0.23391600  0.00000000  1
  Ni  Ni3  1  0.48485800  0.54516200  0.00000000  1
  Ni  Ni4  1  0.45483800  0.93969600  0.00000000  1
  Ni  Ni5  1  0.06030400  0.51514200  0.00000000  1
  Ni  Ni6  1  0.71535500  0.61919100  0.50000000  1
  Ni  Ni7  1  0.38080900  0.09616300  0.50000000  1
  Ni  Ni8  1  0.90383700  0.28464500  0.50000000  1
  Ni  Ni9  1  0.55048400  0.78974500  0.50000000  1
  Ni  Ni10  1  0.21025500  0.76073900  0.50000000  1
  Ni  Ni11  1  0.23926100  0.44951600  0.50000000  1
  P  P0  1  0.73765500  0.77665600  0.00000000  1
  P  P1  1  0.22334400  0.96099800  0.00000000  1
  P  P2  1  0.03900200  0.26234500  0.00000000  1
  P  P3  1  0.44166100  0.37296000  0.50000000  1
  P  P4  1  0.62704000  0.06870100  0.50000000  1
  P  P5  1  0.93129900  0.55833900  0.50000000  1
  P  P6  1  0.33333300  0.66666700  0.00000000  1
loop_
_geom_bond_atom_site_label_1
_geom_bond_atom_site_label_2
_geom_bond_distance
_geom_bond_site_symmetry_2
Ni0 P0 2.275001 1_545
Ni0 P2 2.277705 1_655
Ni0 P4 2.328737 1_555
Ni0 P4 2.328737 1_554
Ni0 Sm1 2.976837 1_655
Ni0 Sm1 2.976837 1_654
Ni0 Sm0 3.200649 1_555
Ni1 P1 2.274997 1_655
Ni1 P0 2.277699 1_555
Ni1 P5 2.328737 1_555
Ni1 P5 2.328737 1_554
Ni1 Sm1 2.976837 1_665
Ni1 Sm1 2.976837 1_664
Ni1 Sm0 3.200655 1_555
Ni2 P2 2.274992 1_555
Ni2 P1 2.277708 1_545
Ni2 P3 2.328737 1_555
Ni2 P3 2.328737 1_554
Ni2 Sm1 2.976837 1_554
Ni2 Sm1 2.976837 1_555
Ni2 Sm0 3.200658 1_555
Ni3 P6 2.147753 1_555
Ni3 P0 2.201422 1_555
Ni3 P3 2.329715 1_555
Ni3 P3 2.329715 1_554
Ni3 Sm0 3.093273 1_555
Ni4 P6 2.147745 1_555
Ni4 P1 2.201417 1_555
Ni4 P4 2.329714 1_565
Ni4 P4 2.329714 1_564
Ni4 Sm0 3.093265 1_565
Ni5 P6 2.147745 1_555
Ni5 P2 2.201426 1_555
Ni5 P5 2.329715 1_455
Ni5 P5 2.329715 1_454
Ni5 Sm0 3.093265 1_455
Ni6 P5 2.283877 1_555
Ni6 P0 2.288794 1_556
Ni6 P0 2.288794 1_555
Ni6 P3 2.366414 1_555
Ni6 Sm0 3.035578 1_556
Ni6 Sm0 3.035578 1_555
Ni6 Sm1 3.109230 1_665
Ni7 P3 2.283886 1_555
Ni7 P1 2.288794 1_546
Ni7 P1 2.288794 1_545
Ni7 P4 2.366409 1_555
Ni7 Sm0 3.035578 1_556
Ni7 Sm0 3.035578 1_555
Ni7 Sm1 3.109233 1_555
Ni8 P4 2.283883 1_555
Ni8 P2 2.288794 1_655
Ni8 P2 2.288794 1_656
Ni8 P5 2.366418 1_555
Ni8 Sm0 3.035578 1_556
Ni8 Sm0 3.035578 1_555
Ni8 Sm1 3.109224 1_655
Ni9 P4 2.263023 1_565
Ni9 P6 2.524322 1_555
Ni9 P6 2.524322 1_556
Ni9 P0 2.557920 1_556
Ni9 P0 2.557920 1_555
Ni10 P5 2.263023 1_455
Ni10 P6 2.524317 1_555
Ni10 P6 2.524317 1_556
Ni10 P1 2.557914 1_555
Ni10 P1 2.557914 1_556
Ni11 P3 2.263023 1_555
Ni11 P6 2.524322 1_555
Ni11 P6 2.524322 1_556
Ni11 P2 2.557917 1_556
Ni11 P2 2.557917 1_555
P0 Sm1 2.896310 1_664
P0 Sm1 2.896310 1_665
P1 Sm1 2.896315 1_565
P1 Sm1 2.896315 1_564
P2 Sm1 2.896308 1_554
P2 Sm1 2.896308 1_555
P3 Sm0 2.910463 1_556
P3 Sm0 2.910463 1_555
P4 Sm0 2.910456 1_556
P4 Sm0 2.910456 1_555
P5 Sm0 2.910458 1_556
P5 Sm0 2.910458 1_555
