# generated using pymatgen
data_NClO2
_symmetry_space_group_name_H-M   'P 1'
_cell_length_a   6.27166300
_cell_length_b   6.27166300
_cell_length_c   3.87210700
_cell_angle_alpha   90.00000000
_cell_angle_beta   90.00000000
_cell_angle_gamma   90.00000000
_symmetry_Int_Tables_number   1
_chemical_formula_structural   NClO2
_chemical_formula_sum   'N2 Cl2 O4'
_cell_volume   152.30451499
_cell_formula_units_Z   2
loop_
 _symmetry_equiv_pos_site_id
 _symmetry_equiv_pos_as_xyz
  1  'x, y, z'
loop_
 _atom_site_type_symbol
 _atom_site_label
 _atom_site_symmetry_multiplicity
 _atom_site_fract_x
 _atom_site_fract_y
 _atom_site_fract_z
 _atom_site_occupancy
  N  N0  1  0.00000000  0.00000000  0.00000000  1
  N  N1  1  0.50000000  0.50000000  0.00000000  1
  Cl  Cl0  1  0.00000000  0.50000000  0.41056100  1
  Cl  Cl1  1  0.50000000  0.00000000  0.58943900  1
  O  O0  1  0.64216500  0.85783500  0.38328100  1
  O  O1  1  0.35783500  0.14216500  0.38328100  1
  O  O2  1  0.14216500  0.64216500  0.61671900  1
  O  O3  1  0.85783500  0.35783500  0.61671900  1
loop_
_geom_bond_atom_site_label_1
_geom_bond_atom_site_label_2
_geom_bond_distance
_geom_bond_site_symmetry_2
Cl0 O3 1.492370 1_455
Cl0 O2 1.492370 1_555
Cl1 O0 1.492370 1_545
Cl1 O1 1.492370 1_555
