# generated using pymatgen
data_BaU3W3(SeO7)2
_symmetry_space_group_name_H-M   'P 1'
_cell_length_a   7.16978000
_cell_length_b   7.47342200
_cell_length_c   17.21890800
_cell_angle_alpha   90.00000000
_cell_angle_beta   90.00000000
_cell_angle_gamma   90.00000000
_symmetry_Int_Tables_number   1
_chemical_formula_structural   BaU3W3(SeO7)2
_chemical_formula_sum   'Ba2 U6 W6 Se4 O28'
_cell_volume   922.63715872
_cell_formula_units_Z   2
loop_
 _symmetry_equiv_pos_site_id
 _symmetry_equiv_pos_as_xyz
  1  'x, y, z'
loop_
 _atom_site_type_symbol
 _atom_site_label
 _atom_site_symmetry_multiplicity
 _atom_site_fract_x
 _atom_site_fract_y
 _atom_site_fract_z
 _atom_site_occupancy
  Ba  Ba0  1  0.32976400  0.42564400  0.00000000  1
  Ba  Ba1  1  0.82976400  0.57435600  0.50000000  1
  U  U0  1  0.97232000  0.89040600  0.00000000  1
  U  U1  1  0.47232000  0.10959400  0.50000000  1
  U  U2  1  0.47195600  0.89923600  0.89514100  1
  U  U3  1  0.97195600  0.10076400  0.60485900  1
  U  U4  1  0.97195600  0.10076400  0.39514100  1
  U  U5  1  0.47195600  0.89923600  0.10485900  1
  W  W0  1  0.56501100  0.63726700  0.70689600  1
  W  W1  1  0.06501100  0.36273300  0.79310400  1
  W  W2  1  0.06501100  0.36273300  0.20689600  1
  W  W3  1  0.56501100  0.63726700  0.29310400  1
  W  W4  1  0.83951100  0.37735200  0.00000000  1
  W  W5  1  0.33951100  0.62264800  0.50000000  1
  Se  Se0  1  0.96563300  0.87862000  0.79510100  1
  Se  Se1  1  0.46563300  0.12138000  0.70489900  1
  Se  Se2  1  0.46563300  0.12138000  0.29510100  1
  Se  Se3  1  0.96563300  0.87862000  0.20489900  1
  O  O0  1  0.14670200  0.86945000  0.86034000  1
  O  O1  1  0.64670200  0.13055000  0.63966000  1
  O  O2  1  0.64670200  0.13055000  0.36034000  1
  O  O3  1  0.14670200  0.86945000  0.13966000  1
  O  O4  1  0.95299900  0.61732300  0.00000000  1
  O  O5  1  0.45299900  0.38267700  0.50000000  1
  O  O6  1  0.49494800  0.64623900  0.88924000  1
  O  O7  1  0.99494800  0.35376100  0.61076000  1
  O  O8  1  0.99494800  0.35376100  0.38924000  1
  O  O9  1  0.49494800  0.64623900  0.11076000  1
  O  O10  1  0.28307300  0.85316700  0.00000000  1
  O  O11  1  0.78307300  0.14683300  0.50000000  1
  O  O12  1  0.94034200  0.84924700  0.60101300  1
  O  O13  1  0.44034200  0.15075300  0.89898700  1
  O  O14  1  0.44034200  0.15075300  0.10101300  1
  O  O15  1  0.94034200  0.84924700  0.39898700  1
  O  O16  1  0.66390800  0.90838800  0.00000000  1
  O  O17  1  0.16390800  0.09161200  0.50000000  1
  O  O18  1  0.49552000  0.90782800  0.75118700  1
  O  O19  1  0.99552000  0.09217200  0.74881300  1
  O  O20  1  0.99552000  0.09217200  0.25118700  1
  O  O21  1  0.49552000  0.90782800  0.24881300  1
  O  O22  1  0.00392900  0.16319700  0.00000000  1
  O  O23  1  0.50392900  0.83680300  0.50000000  1
  O  O24  1  0.80683500  0.92871300  0.86649200  1
  O  O25  1  0.30683500  0.07128700  0.63350800  1
  O  O26  1  0.30683500  0.07128700  0.36649200  1
  O  O27  1  0.80683500  0.92871300  0.13350800  1
loop_
_geom_bond_atom_site_label_1
_geom_bond_atom_site_label_2
_geom_bond_distance
_geom_bond_site_symmetry_2
Ba0 O6 2.785284 1_554
Ba0 O9 2.785284 1_555
Ba0 O14 2.806120 1_555
Ba0 O13 2.806120 1_554
Ba0 O22 3.050355 1_555
Ba0 O4 3.057645 1_455
Ba1 O8 2.785284 1_555
Ba1 O7 2.785284 1_555
Ba1 O12 2.806120 1_555
Ba1 O15 2.806120 1_555
Ba1 O23 3.050355 1_555
Ba1 O5 3.057645 1_555
O0 Se0 1.718135 1_455
O0 U2 2.418028 1_555
O0 U0 2.714914 1_456
O1 Se1 1.718135 1_555
O1 U3 2.418028 1_555
O1 U1 2.714914 1_555
O2 Se2 1.718135 1_555
O2 U4 2.418028 1_555
O2 U1 2.714914 1_555
O3 Se3 1.718135 1_455
O3 U5 2.418028 1_555
O3 U0 2.714914 1_455
O4 W4 1.969361 1_555
O4 U0 2.045560 1_555
O5 W5 1.969361 1_555
O5 U1 2.045560 1_555
O6 U2 1.900644 1_555
O7 U3 1.900644 1_555
O8 U4 1.900644 1_555
O9 U5 1.900644 1_555
O10 U0 2.245345 1_455
O10 U5 2.283105 1_555
O10 U2 2.283105 1_554
O11 U1 2.245345 1_555
O11 U3 2.283105 1_555
O11 U4 2.283105 1_555
O12 U3 1.894468 1_565
O13 U2 1.894468 1_545
O14 U5 1.894468 1_545
O15 U4 1.894468 1_565
O16 U0 2.215326 1_555
O16 U5 2.271297 1_555
O16 U2 2.271297 1_554
O17 U1 2.215326 1_555
O17 U3 2.271297 1_455
O17 U4 2.271297 1_455
O18 Se1 1.796740 1_565
O18 W0 2.217750 1_555
O18 U2 2.485311 1_555
O19 Se0 1.796740 1_545
O19 W1 2.217750 1_655
O19 U3 2.485311 1_555
O20 Se3 1.796740 1_545
O20 W2 2.217750 1_655
O20 U4 2.485311 1_555
O21 Se2 1.796740 1_565
O21 W3 2.217750 1_555
O21 U5 2.485311 1_555
O22 W4 1.987756 1_455
O22 U0 2.051240 1_445
O23 W5 1.987756 1_555
O23 U1 2.051240 1_565
O24 Se0 1.716845 1_555
O24 U2 2.461041 1_555
O24 U0 2.602784 1_556
O25 Se1 1.716845 1_555
O25 U3 2.461041 1_455
O25 U1 2.602784 1_555
O26 Se2 1.716845 1_555
O26 U4 2.461041 1_455
O26 U1 2.602784 1_555
O27 Se3 1.716845 1_555
O27 U5 2.461041 1_555
O27 U0 2.602784 1_555
