# generated using pymatgen
data_Li22Sn5
_symmetry_space_group_name_H-M   'P 1'
_cell_length_a   13.94793872
_cell_length_b   13.94793872
_cell_length_c   13.94793872
_cell_angle_alpha   60.00000000
_cell_angle_beta   60.00000000
_cell_angle_gamma   60.00000000
_symmetry_Int_Tables_number   1
_chemical_formula_structural   Li22Sn5
_chemical_formula_sum   'Li88 Sn20'
_cell_volume   1918.73542457
_cell_formula_units_Z   4
loop_
 _symmetry_equiv_pos_site_id
 _symmetry_equiv_pos_as_xyz
  1  'x, y, z'
loop_
 _atom_site_type_symbol
 _atom_site_label
 _atom_site_symmetry_multiplicity
 _atom_site_fract_x
 _atom_site_fract_y
 _atom_site_fract_z
 _atom_site_occupancy
  Li  Li0  1  0.92474406  0.92474406  0.92474406  1
  Li  Li1  1  0.22576782  0.92474406  0.92474406  1
  Li  Li2  1  0.92474406  0.22576782  0.92474406  1
  Li  Li3  1  0.92474406  0.92474406  0.22576782  1
  Li  Li4  1  0.16810068  0.16810068  0.16810068  1
  Li  Li5  1  0.49569796  0.16810068  0.16810068  1
  Li  Li6  1  0.16810068  0.49569796  0.16810068  1
  Li  Li7  1  0.16810068  0.16810068  0.49569796  1
  Li  Li8  1  0.58214080  0.58214080  0.58214080  1
  Li  Li9  1  0.25357759  0.58214080  0.58214080  1
  Li  Li10  1  0.58214080  0.25357759  0.58214080  1
  Li  Li11  1  0.58214080  0.58214080  0.25357759  1
  Li  Li12  1  0.67655044  0.67655044  0.67655044  1
  Li  Li13  1  0.97034868  0.67655044  0.67655044  1
  Li  Li14  1  0.67655044  0.97034868  0.67655044  1
  Li  Li15  1  0.67655044  0.67655044  0.97034868  1
  Li  Li16  1  0.83110258  0.83110258  0.16889742  1
  Li  Li17  1  0.16889742  0.16889742  0.83110258  1
  Li  Li18  1  0.83110258  0.16889742  0.83110258  1
  Li  Li19  1  0.16889742  0.83110258  0.16889742  1
  Li  Li20  1  0.16889742  0.83110258  0.83110258  1
  Li  Li21  1  0.83110258  0.16889742  0.16889742  1
  Li  Li22  1  -0.00000000  0.00000000  0.00000000  1
  Li  Li23  1  0.67383969  0.99732002  0.99732002  1
  Li  Li24  1  0.33152027  0.99732002  0.99732002  1
  Li  Li25  1  0.99732002  0.33152027  0.67383969  1
  Li  Li26  1  0.99732002  0.99732002  0.67383969  1
  Li  Li27  1  0.99732002  0.67383969  0.33152027  1
  Li  Li28  1  0.99732002  0.99732002  0.33152027  1
  Li  Li29  1  0.33152027  0.67383969  0.99732002  1
  Li  Li30  1  0.67383969  0.33152027  0.99732002  1
  Li  Li31  1  0.99732002  0.67383969  0.99732002  1
  Li  Li32  1  0.67383969  0.99732002  0.33152027  1
  Li  Li33  1  0.33152027  0.99732002  0.67383969  1
  Li  Li34  1  0.99732002  0.33152027  0.99732002  1
  Li  Li35  1  0.92164494  0.92164494  0.57835506  1
  Li  Li36  1  0.57835506  0.57835506  0.92164494  1
  Li  Li37  1  0.92164494  0.57835506  0.92164494  1
  Li  Li38  1  0.57835506  0.92164494  0.57835506  1
  Li  Li39  1  0.57835506  0.92164494  0.92164494  1
  Li  Li40  1  0.92164494  0.57835506  0.57835506  1
  Li  Li41  1  0.25000000  0.25000000  0.25000000  1
  Li  Li42  1  0.57715381  0.24284899  0.24284899  1
  Li  Li43  1  0.93714822  0.24284899  0.24284899  1
  Li  Li44  1  0.24284899  0.93714822  0.57715381  1
  Li  Li45  1  0.24284899  0.24284899  0.57715381  1
  Li  Li46  1  0.24284899  0.57715381  0.93714822  1
  Li  Li47  1  0.24284899  0.24284899  0.93714822  1
  Li  Li48  1  0.93714822  0.57715381  0.24284899  1
  Li  Li49  1  0.57715381  0.93714822  0.24284899  1
  Li  Li50  1  0.24284899  0.57715381  0.24284899  1
  Li  Li51  1  0.57715381  0.24284899  0.93714822  1
  Li  Li52  1  0.93714822  0.24284899  0.57715381  1
  Li  Li53  1  0.24284899  0.93714822  0.24284899  1
  Li  Li54  1  0.32722661  0.32722661  0.32722661  1
  Li  Li55  1  0.01832016  0.32722661  0.32722661  1
  Li  Li56  1  0.32722661  0.01832016  0.32722661  1
  Li  Li57  1  0.32722661  0.32722661  0.01832016  1
  Li  Li58  1  0.08123439  0.74487789  0.74487789  1
  Li  Li59  1  0.42900984  0.74487789  0.74487789  1
  Li  Li60  1  0.74487789  0.42900984  0.08123439  1
  Li  Li61  1  0.74487789  0.74487789  0.08123439  1
  Li  Li62  1  0.74487789  0.08123439  0.42900984  1
  Li  Li63  1  0.74487789  0.74487789  0.42900984  1
  Li  Li64  1  0.42900984  0.08123439  0.74487789  1
  Li  Li65  1  0.08123439  0.42900984  0.74487789  1
  Li  Li66  1  0.74487789  0.08123439  0.74487789  1
  Li  Li67  1  0.08123439  0.74487789  0.42900984  1
  Li  Li68  1  0.42900984  0.74487789  0.08123439  1
  Li  Li69  1  0.74487789  0.42900984  0.74487789  1
  Li  Li70  1  0.18729672  0.49542536  0.49542536  1
  Li  Li71  1  0.82185255  0.49542536  0.49542536  1
  Li  Li72  1  0.49542536  0.82185255  0.18729672  1
  Li  Li73  1  0.49542536  0.49542536  0.18729672  1
  Li  Li74  1  0.49542536  0.18729672  0.82185255  1
  Li  Li75  1  0.49542536  0.49542536  0.82185255  1
  Li  Li76  1  0.82185255  0.18729672  0.49542536  1
  Li  Li77  1  0.18729672  0.82185255  0.49542536  1
  Li  Li78  1  0.49542536  0.18729672  0.49542536  1
  Li  Li79  1  0.18729672  0.49542536  0.82185255  1
  Li  Li80  1  0.82185255  0.49542536  0.18729672  1
  Li  Li81  1  0.49542536  0.82185255  0.49542536  1
  Li  Li82  1  0.50000000  0.50000000  0.50000000  1
  Li  Li83  1  0.75000000  0.75000000  0.75000000  1
  Li  Li84  1  0.42314368  0.42314368  0.42314368  1
  Li  Li85  1  0.73056897  0.42314368  0.42314368  1
  Li  Li86  1  0.42314368  0.73056897  0.42314368  1
  Li  Li87  1  0.42314368  0.42314368  0.73056897  1
  Sn  Sn0  1  0.83832004  0.83832004  0.83832004  1
  Sn  Sn1  1  0.48503989  0.83832004  0.83832004  1
  Sn  Sn2  1  0.83832004  0.48503989  0.83832004  1
  Sn  Sn3  1  0.83832004  0.83832004  0.48503989  1
  Sn  Sn4  1  0.42545391  0.42545391  0.07454609  1
  Sn  Sn5  1  0.07454609  0.07454609  0.42545391  1
  Sn  Sn6  1  0.42545391  0.07454609  0.42545391  1
  Sn  Sn7  1  0.07454609  0.42545391  0.07454609  1
  Sn  Sn8  1  0.07454609  0.42545391  0.42545391  1
  Sn  Sn9  1  0.42545391  0.07454609  0.07454609  1
  Sn  Sn10  1  0.67622421  0.67622421  0.32377579  1
  Sn  Sn11  1  0.32377579  0.32377579  0.67622421  1
  Sn  Sn12  1  0.67622421  0.32377579  0.67622421  1
  Sn  Sn13  1  0.32377579  0.67622421  0.32377579  1
  Sn  Sn14  1  0.32377579  0.67622421  0.67622421  1
  Sn  Sn15  1  0.67622421  0.32377579  0.32377579  1
  Sn  Sn16  1  0.08342790  0.08342790  0.08342790  1
  Sn  Sn17  1  0.74971629  0.08342790  0.08342790  1
  Sn  Sn18  1  0.08342790  0.74971629  0.08342790  1
  Sn  Sn19  1  0.08342790  0.08342790  0.74971629  1
loop_
_geom_bond_atom_site_label_1
_geom_bond_atom_site_label_2
_geom_bond_distance
_geom_bond_site_symmetry_2
Li0 Li22 2.571144 1_666
Li0 Li16 2.796250 1_556
Li0 Li18 2.796250 1_565
Li0 Li20 2.796250 1_655
Li0 Li23 2.869873 1_555
Li0 Li31 2.869873 1_555
Li0 Li26 2.869873 1_555
Li0 Sn0 2.952705 1_555
Li0 Sn17 3.138387 1_566
Li0 Sn18 3.138387 1_656
Li0 Sn19 3.138387 1_665
Li1 Li22 2.571144 1_566
Li1 Li20 2.796250 1_555
Li1 Li19 2.796250 1_556
Li1 Li17 2.796250 1_565
Li1 Li24 2.869873 1_555
Li1 Li33 2.869873 1_555
Li1 Li29 2.869873 1_555
Li1 Sn1 2.952706 1_555
Li1 Sn16 3.138387 1_566
Li1 Sn18 3.138387 1_556
Li1 Sn19 3.138387 1_565
Li2 Li22 2.571144 1_656
Li2 Li21 2.796250 1_556
Li2 Li30 2.869873 1_555
Li2 Li25 2.869873 1_555
Li2 Li34 2.869873 1_555
Li2 Sn2 2.952706 1_555
Li2 Sn16 3.138387 1_656
Li2 Sn19 3.138387 1_655
Li2 Sn17 3.138387 1_556
Li3 Li32 2.869873 1_555
Li3 Sn3 2.952706 1_555
Li3 Sn16 3.138387 1_665
Li3 Sn18 3.138387 1_655
Li3 Sn17 3.138387 1_565
Li4 Li53 2.630744 1_545
Li4 Li47 2.630744 1_554
Li4 Li43 2.630744 1_455
Li4 Li41 2.798118 1_555
Li4 Sn16 2.892874 1_555
Li4 Sn5 2.936858 1_555
Li4 Sn7 2.936858 1_555
Li4 Sn9 2.936858 1_555
Li5 Li51 2.630744 1_554
Li5 Sn17 2.892874 1_555
Li5 Sn6 2.936858 1_555
Li5 Sn4 2.936858 1_555
Li5 Sn9 2.936858 1_555
Li6 Sn18 2.892874 1_555
Li6 Sn8 2.936858 1_555
Li6 Sn7 2.936858 1_555
Li6 Sn4 2.936858 1_555
Li7 Sn19 2.892874 1_555
Li7 Sn5 2.936858 1_555
Li7 Sn8 2.936858 1_555
Li7 Sn6 2.936858 1_555
Li8 Li82 2.806368 1_555
Li8 Sn10 2.948656 1_555
Li8 Sn12 2.948656 1_555
Li8 Sn14 2.948656 1_555
Li9 Sn13 2.948656 1_555
Li9 Sn11 2.948656 1_555
Li9 Sn14 2.948656 1_555
Li10 Li82 2.806368 1_555
Li10 Sn15 2.948656 1_555
Li10 Sn11 2.948656 1_555
Li10 Sn12 2.948656 1_555
Li11 Li82 2.806368 1_555
Li11 Sn15 2.948656 1_555
Li11 Sn13 2.948656 1_555
Li11 Sn10 2.948656 1_555
Li12 Li83 2.509429 1_555
Li12 Li40 2.819555 1_555
Li12 Li38 2.819555 1_555
Li12 Li36 2.819555 1_555
Li12 Li69 2.839858 1_555
Li12 Li59 2.839858 1_555
Li12 Li63 2.839858 1_555
Li12 Sn3 3.217815 1_555
Li12 Sn2 3.217815 1_555
Li12 Sn1 3.217815 1_555
Li13 Li83 2.509429 1_555
Li13 Li40 2.819555 1_555
Li13 Li37 2.819555 1_555
Li13 Li35 2.819555 1_555
Li13 Li67 2.839858 1_655
Li13 Li65 2.839858 1_655
Li13 Li58 2.839858 1_655
Li13 Sn3 3.217815 1_555
Li13 Sn2 3.217815 1_555
Li13 Sn0 3.217815 1_555
Li14 Li83 2.509429 1_555
Li14 Li38 2.819555 1_555
Li14 Li35 2.819555 1_555
Li14 Li39 2.819555 1_555
Li14 Li62 2.839858 1_565
Li14 Li64 2.839858 1_565
Li14 Li66 2.839858 1_565
Li14 Sn3 3.217815 1_555
Li14 Sn1 3.217815 1_555
Li14 Sn0 3.217815 1_555
Li15 Li83 2.509429 1_555
Li15 Li36 2.819555 1_555
Li15 Li39 2.819555 1_555
Li15 Li37 2.819555 1_555
Li15 Li60 2.839858 1_556
Li15 Li68 2.839858 1_556
Li15 Li61 2.839858 1_556
Li15 Sn2 3.217815 1_555
Li15 Sn1 3.217815 1_555
Li15 Sn0 3.217815 1_555
Li16 Li3 2.796250 1_555
Li16 Sn17 2.873781 1_565
Li16 Sn18 2.873781 1_655
Li16 Li48 2.903606 1_555
Li16 Li49 2.903606 1_555
Li16 Li61 2.962298 1_555
Li16 Li63 2.962298 1_555
Li16 Sn10 3.055032 1_555
Li17 Li2 2.796250 1_455
Li17 Sn16 2.873781 1_556
Li17 Sn19 2.873781 1_555
Li17 Li45 2.903606 1_555
Li17 Li47 2.903607 1_555
Li17 Li65 2.962298 1_555
Li17 Li64 2.962298 1_555
Li17 Sn11 3.055032 1_555
Li18 Li2 2.796250 1_555
Li18 Sn19 2.873781 1_655
Li18 Sn17 2.873781 1_556
Li18 Li52 2.903606 1_555
Li18 Li51 2.903606 1_555
Li18 Li66 2.962298 1_555
Li18 Li69 2.962298 1_555
Li18 Sn12 3.055032 1_555
Li19 Li3 2.796250 1_455
Li19 Sn16 2.873781 1_565
Li19 Sn18 2.873781 1_555
Li19 Li50 2.903606 1_555
Li19 Li53 2.903607 1_555
Li19 Li67 2.962298 1_555
Li19 Li68 2.962298 1_555
Li19 Sn13 3.055032 1_555
Li20 Sn19 2.873781 1_565
Li20 Sn18 2.873781 1_556
Li20 Li46 2.903606 1_555
Li20 Li44 2.903606 1_555
Li20 Li58 2.962298 1_555
Li20 Li59 2.962298 1_555
Li20 Sn14 3.055032 1_555
Li21 Li3 2.796250 1_545
Li21 Sn16 2.873781 1_655
Li21 Sn17 2.873781 1_555
Li21 Li42 2.903606 1_555
Li21 Li43 2.903607 1_555
Li21 Li60 2.962298 1_555
Li21 Li62 2.962298 1_555
Li21 Sn15 3.055032 1_555
Li22 Li3 2.571144 1_445
Li22 Sn16 2.850342 1_555
Li22 Sn19 2.850342 1_554
Li22 Sn18 2.850342 1_545
Li22 Sn17 2.850342 1_455
Li23 Li51 2.808976 1_565
Li23 Li49 2.808976 1_556
Li23 Sn17 2.826587 1_566
Li23 Sn9 2.831925 1_566
Li23 Sn0 3.137264 1_555
Li24 Li47 2.808976 1_565
Li24 Li53 2.808976 1_556
Li24 Sn16 2.826587 1_566
Li24 Sn9 2.831925 1_566
Li24 Sn1 3.137264 1_555
Li25 Li52 2.808975 1_555
Li25 Li45 2.808976 1_655
Li25 Sn19 2.826587 1_655
Li25 Sn8 2.831925 1_655
Li25 Sn2 3.137264 1_555
Li26 Li52 2.808976 1_565
Li26 Li44 2.808976 1_655
Li26 Sn19 2.826587 1_665
Li26 Sn5 2.831925 1_665
Li26 Sn0 3.137264 1_555
Li27 Li48 2.808975 1_555
Li27 Li50 2.808976 1_655
Li27 Sn18 2.826587 1_655
Li27 Sn8 2.831925 1_655
Li27 Li3 2.869873 1_555
Li27 Sn3 3.137264 1_555
Li28 Li43 2.808976 1_565
Li28 Li53 2.808976 1_655
Li28 Sn16 2.826587 1_665
Li28 Sn5 2.831925 1_665
Li28 Li3 2.869873 1_555
Li28 Sn3 3.137264 1_555
Li29 Li46 2.808975 1_555
Li29 Li50 2.808976 1_556
Li29 Sn18 2.826587 1_556
Li29 Sn4 2.831925 1_556
Li29 Sn1 3.137264 1_555
Li30 Li51 2.808975 1_555
Li30 Li42 2.808976 1_556
Li30 Sn17 2.826587 1_556
Li30 Sn4 2.831925 1_556
Li30 Sn2 3.137264 1_555
Li31 Li46 2.808976 1_655
Li31 Li48 2.808976 1_556
Li31 Sn18 2.826587 1_656
Li31 Sn7 2.831925 1_656
Li31 Sn0 3.137264 1_555
Li32 Li49 2.808975 1_555
Li32 Li42 2.808976 1_565
Li32 Sn17 2.826587 1_565
Li32 Sn6 2.831925 1_565
Li32 Sn3 3.137264 1_555
Li33 Li44 2.808975 1_555
Li33 Li45 2.808976 1_565
Li33 Sn19 2.826587 1_565
Li33 Sn6 2.831925 1_565
Li33 Sn1 3.137264 1_555
Li34 Li47 2.808976 1_655
Li34 Li43 2.808976 1_556
Li34 Sn16 2.826587 1_656
Li34 Sn7 2.831925 1_656
Li34 Sn2 3.137264 1_555
Li35 Sn3 2.961689 1_555
Li35 Sn0 2.961690 1_555
Li35 Sn5 3.016031 1_665
Li36 Sn2 2.961690 1_555
Li36 Sn1 2.961690 1_555
Li36 Sn4 3.016031 1_556
Li37 Sn2 2.961689 1_555
Li37 Sn0 2.961690 1_555
Li37 Sn7 3.016031 1_656
Li38 Sn3 2.961690 1_555
Li38 Sn1 2.961690 1_555
Li38 Sn6 3.016031 1_565
Li39 Sn1 2.961689 1_555
Li39 Sn0 2.961690 1_555
Li39 Sn9 3.016031 1_566
Li40 Sn3 2.961690 1_555
Li40 Sn2 2.961690 1_555
Li40 Sn8 3.016031 1_655
Li41 Li54 2.638473 1_555
Li41 Li56 2.638473 1_555
Li41 Li57 2.638473 1_555
Li41 Li55 2.638473 1_555
Li41 Li6 2.798118 1_555
Li41 Li5 2.798118 1_555
Li41 Li7 2.798118 1_555
Li42 Li5 2.630744 1_555
Li42 Li54 2.846399 1_555
Li42 Li78 2.906623 1_555
Li42 Li73 2.906623 1_555
Li42 Sn15 2.975108 1_555
Li42 Sn17 3.149976 1_555
Li42 Sn4 3.173906 1_555
Li42 Sn6 3.173906 1_555
Li43 Li55 2.846399 1_655
Li43 Li76 2.906623 1_555
Li43 Li80 2.906623 1_555
Li43 Sn15 2.975108 1_555
Li43 Sn16 3.149977 1_655
Li43 Sn7 3.173906 1_655
Li43 Sn5 3.173906 1_655
Li44 Li7 2.630744 1_565
Li44 Li56 2.846399 1_565
Li44 Li81 2.906623 1_555
Li44 Li77 2.906623 1_555
Li44 Sn14 2.975108 1_555
Li44 Sn19 3.149976 1_565
Li44 Sn6 3.173906 1_565
Li44 Sn5 3.173906 1_565
Li45 Li7 2.630744 1_555
Li45 Li54 2.846399 1_555
Li45 Li70 2.906623 1_555
Li45 Li78 2.906623 1_555
Li45 Sn11 2.975108 1_555
Li45 Sn19 3.149976 1_555
Li45 Sn6 3.173906 1_555
Li45 Sn8 3.173906 1_555
Li46 Li6 2.630744 1_556
Li46 Li57 2.846399 1_556
Li46 Li75 2.906623 1_555
Li46 Li79 2.906623 1_555
Li46 Sn14 2.975108 1_555
Li46 Sn18 3.149976 1_556
Li46 Sn4 3.173906 1_556
Li46 Sn7 3.173906 1_556
Li47 Li57 2.846399 1_556
Li47 Li79 2.906623 1_555
Li47 Li74 2.906623 1_555
Li47 Sn11 2.975108 1_555
Li47 Sn16 3.149977 1_556
Li47 Sn9 3.173906 1_556
Li47 Sn7 3.173906 1_556
Li48 Li6 2.630744 1_655
Li48 Li55 2.846399 1_655
Li48 Li71 2.906623 1_555
Li48 Li80 2.906623 1_555
Li48 Sn10 2.975108 1_555
Li48 Sn18 3.149976 1_655
Li48 Sn8 3.173906 1_655
Li48 Sn7 3.173906 1_655
Li49 Li5 2.630744 1_565
Li49 Li56 2.846399 1_565
Li49 Li81 2.906623 1_555
Li49 Li72 2.906623 1_555
Li49 Sn10 2.975108 1_555
Li49 Sn17 3.149976 1_565
Li49 Sn6 3.173906 1_565
Li49 Sn9 3.173906 1_565
Li50 Li6 2.630744 1_555
Li50 Li54 2.846399 1_555
Li50 Li70 2.906623 1_555
Li50 Li73 2.906623 1_555
Li50 Sn13 2.975108 1_555
Li50 Sn18 3.149976 1_555
Li50 Sn4 3.173906 1_555
Li50 Sn8 3.173906 1_555
Li51 Li57 2.846399 1_556
Li51 Li75 2.906623 1_555
Li51 Li74 2.906623 1_555
Li51 Sn12 2.975108 1_555
Li51 Sn17 3.149976 1_556
Li51 Sn4 3.173906 1_556
Li51 Sn9 3.173906 1_556
Li52 Li7 2.630744 1_655
Li52 Li55 2.846399 1_655
Li52 Li71 2.906623 1_555
Li52 Li76 2.906623 1_555
Li52 Sn12 2.975108 1_555
Li52 Sn19 3.149976 1_655
Li52 Sn8 3.173906 1_655
Li52 Sn5 3.173906 1_655
Li53 Li56 2.846399 1_565
Li53 Li77 2.906623 1_555
Li53 Li72 2.906623 1_555
Li53 Sn13 2.975108 1_555
Li53 Sn16 3.149977 1_565
Li53 Sn9 3.173906 1_565
Li53 Sn5 3.173906 1_565
Li54 Sn6 2.897447 1_555
Li54 Sn8 2.897447 1_555
Li54 Sn4 2.897447 1_555
Li55 Sn5 2.897447 1_555
Li55 Sn7 2.897447 1_555
Li55 Sn8 2.897447 1_555
Li56 Sn9 2.897447 1_555
Li56 Sn5 2.897447 1_555
Li56 Sn6 2.897447 1_555
Li57 Sn7 2.897447 1_555
Li57 Sn9 2.897447 1_555
Li57 Sn4 2.897447 1_555
Li58 Sn14 2.777833 1_555
Li58 Sn0 2.782773 1_455
Li59 Sn14 2.777833 1_555
Li59 Sn1 2.782773 1_555
Li60 Sn15 2.777833 1_555
Li60 Sn2 2.782773 1_554
Li61 Sn10 2.777833 1_555
Li61 Sn0 2.782773 1_554
Li62 Sn15 2.777833 1_555
Li62 Sn3 2.782773 1_545
Li63 Sn10 2.777833 1_555
Li63 Sn3 2.782773 1_555
Li64 Sn11 2.777833 1_555
Li64 Sn1 2.782773 1_545
Li65 Sn11 2.777833 1_555
Li65 Sn2 2.782773 1_455
Li66 Sn12 2.777833 1_555
Li66 Sn0 2.782773 1_545
Li67 Sn13 2.777833 1_555
Li67 Sn3 2.782773 1_455
Li68 Sn13 2.777833 1_555
Li68 Sn1 2.782773 1_554
Li69 Sn12 2.777833 1_555
Li69 Sn2 2.782773 1_555
Li70 Li84 2.690285 1_555
Li70 Sn8 2.898332 1_555
Li70 Sn11 3.149671 1_555
Li70 Sn13 3.149671 1_555
Li71 Li85 2.690285 1_555
Li71 Sn8 2.898332 1_655
Li71 Sn12 3.149671 1_555
Li71 Sn10 3.149671 1_555
Li72 Li86 2.690285 1_555
Li72 Sn9 2.898332 1_565
Li72 Sn13 3.149671 1_555
Li72 Sn10 3.149671 1_555
Li73 Li84 2.690285 1_555
Li73 Sn4 2.898332 1_555
Li73 Sn13 3.149671 1_555
Li73 Sn15 3.149671 1_555
Li74 Li87 2.690285 1_555
Li74 Sn9 2.898332 1_556
Li74 Sn11 3.149671 1_555
Li74 Sn12 3.149671 1_555
Li75 Li87 2.690285 1_555
Li75 Sn4 2.898332 1_556
Li75 Sn12 3.149671 1_555
Li75 Sn14 3.149671 1_555
Li76 Li85 2.690285 1_555
Li76 Sn5 2.898332 1_655
Li76 Sn15 3.149671 1_555
Li76 Sn12 3.149671 1_555
Li77 Li86 2.690285 1_555
Li77 Sn5 2.898332 1_565
Li77 Sn13 3.149671 1_555
Li77 Sn14 3.149671 1_555
Li78 Li84 2.690285 1_555
Li78 Sn6 2.898332 1_555
Li78 Sn11 3.149671 1_555
Li78 Sn15 3.149671 1_555
Li79 Li87 2.690285 1_555
Li79 Sn7 2.898332 1_556
Li79 Sn11 3.149671 1_555
Li79 Sn14 3.149671 1_555
Li80 Li85 2.690285 1_555
Li80 Sn7 2.898332 1_655
Li80 Sn15 3.149671 1_555
Li80 Sn10 3.149671 1_555
Li81 Li86 2.690285 1_555
Li81 Sn6 2.898332 1_565
Li81 Sn10 3.149671 1_555
Li81 Sn14 3.149671 1_555
Li82 Li84 2.625822 1_555
Li82 Li86 2.625822 1_555
Li82 Li85 2.625822 1_555
Li82 Li87 2.625822 1_555
Li82 Li9 2.806368 1_555
Li83 Sn2 3.017483 1_555
Li83 Sn1 3.017483 1_555
Li83 Sn3 3.017483 1_555
Li83 Sn0 3.017484 1_555
Li84 Sn15 2.904908 1_555
Li84 Sn11 2.904908 1_555
Li84 Sn13 2.904908 1_555
Li85 Sn12 2.904908 1_555
Li85 Sn10 2.904908 1_555
Li85 Sn15 2.904908 1_555
Li86 Sn10 2.904908 1_555
Li86 Sn14 2.904908 1_555
Li86 Sn13 2.904908 1_555
Li87 Sn12 2.904908 1_555
Li87 Sn14 2.904908 1_555
Li87 Sn11 2.904908 1_555
