# generated using pymatgen
data_Sr2Ti2As2OF2
_symmetry_space_group_name_H-M   'P 1'
_cell_length_a   10.15332911
_cell_length_b   10.15332911
_cell_length_c   10.15332911
_cell_angle_alpha   156.95046127
_cell_angle_beta   156.95046127
_cell_angle_gamma   32.82466209
_symmetry_Int_Tables_number   1
_chemical_formula_structural   Sr2Ti2As2OF2
_chemical_formula_sum   'Sr2 Ti2 As2 O1 F2'
_cell_volume   160.31451281
_cell_formula_units_Z   1
loop_
 _symmetry_equiv_pos_site_id
 _symmetry_equiv_pos_as_xyz
  1  'x, y, z'
loop_
 _atom_site_type_symbol
 _atom_site_label
 _atom_site_symmetry_multiplicity
 _atom_site_fract_x
 _atom_site_fract_y
 _atom_site_fract_z
 _atom_site_occupancy
  Sr  Sr0  1  0.32285406  0.32285406  0.00000000  1
  Sr  Sr1  1  0.67714594  0.67714594  -0.00000000  1
  Ti  Ti0  1  0.50000000  -0.00000000  0.50000000  1
  Ti  Ti1  1  -0.00000000  0.50000000  0.50000000  1
  As  As0  1  0.90820619  0.90820619  -0.00000000  1
  As  As1  1  0.09179381  0.09179381  0.00000000  1
  O  O0  1  0.50000000  0.50000000  0.00000000  1
  F  F0  1  0.25000000  0.75000000  0.50000000  1
  F  F1  1  0.75000000  0.25000000  0.50000000  1
loop_
_geom_bond_atom_site_label_1
_geom_bond_atom_site_label_2
_geom_bond_distance
_geom_bond_site_symmetry_2
As0 Ti0 2.704111 1_665
As0 Ti1 2.704111 1_665
As0 Ti1 2.704111 1_654
As0 Ti0 2.704111 1_564
As0 Sr0 3.315757 1_565
As0 Sr0 3.315757 1_666
As0 Sr0 3.315757 1_655
As0 Sr0 3.315757 1_554
As1 Ti1 2.704111 1_555
As1 Ti0 2.704111 1_555
As1 Ti0 2.704111 1_454
As1 Ti1 2.704111 1_544
As1 Sr1 3.315757 1_556
As1 Sr1 3.315757 1_444
As1 Sr1 3.315757 1_545
As1 Sr1 3.315757 1_455
O0 Ti1 2.028549 1_655
O0 Ti0 2.028549 1_554
O0 Ti1 2.028549 1_554
O0 Ti0 2.028549 1_565
F0 Sr0 2.475676 1_555
F0 Sr1 2.475676 1_556
F0 Sr0 2.475676 1_566
F0 Sr1 2.475676 1_455
F1 Sr0 2.475676 1_555
F1 Sr1 2.475676 1_556
F1 Sr1 2.475676 1_545
F1 Sr0 2.475676 1_656
