# generated using pymatgen
data_MgFe2O5
_symmetry_space_group_name_H-M   'P 1'
_cell_length_a   5.58254838
_cell_length_b   5.58254838
_cell_length_c   7.18258567
_cell_angle_alpha   71.68197038
_cell_angle_beta   71.68197038
_cell_angle_gamma   55.49653047
_symmetry_Int_Tables_number   1
_chemical_formula_structural   MgFe2O5
_chemical_formula_sum   'Mg2 Fe4 O10'
_cell_volume   172.44392734
_cell_formula_units_Z   2
loop_
 _symmetry_equiv_pos_site_id
 _symmetry_equiv_pos_as_xyz
  1  'x, y, z'
loop_
 _atom_site_type_symbol
 _atom_site_label
 _atom_site_symmetry_multiplicity
 _atom_site_fract_x
 _atom_site_fract_y
 _atom_site_fract_z
 _atom_site_occupancy
  Mg  Mg0  1  0.00345500  0.99699900  0.50197800  1
  Mg  Mg1  1  0.99699900  0.00345500  0.00197800  1
  Fe  Fe0  1  0.62738500  0.62160500  0.28658600  1
  Fe  Fe1  1  0.62160500  0.62738500  0.78658600  1
  Fe  Fe2  1  0.37075700  0.36865600  0.21289200  1
  Fe  Fe3  1  0.36865600  0.37075700  0.71289200  1
  O  O0  1  0.43185600  0.73504600  0.05655000  1
  O  O1  1  0.73504600  0.43185600  0.55655000  1
  O  O2  1  0.37432300  0.01345800  0.33109100  1
  O  O3  1  0.96645000  0.63538500  0.16695700  1
  O  O4  1  0.01345800  0.37432300  0.83109100  1
  O  O5  1  0.63538500  0.96645000  0.66695700  1
  O  O6  1  0.27320200  0.57079000  0.43735000  1
  O  O7  1  0.78659100  0.21857700  0.25265300  1
  O  O8  1  0.57079000  0.27320200  0.93735000  1
  O  O9  1  0.21857700  0.78659100  0.75265300  1
loop_
_geom_bond_atom_site_label_1
_geom_bond_atom_site_label_2
_geom_bond_distance
_geom_bond_site_symmetry_2
Mg0 O6 2.083272 1_555
Mg0 O2 2.085366 1_565
Mg0 O5 2.096376 1_455
Mg0 O1 2.097635 1_465
Mg0 O7 2.115781 1_465
Mg0 O9 2.120234 1_555
Mg1 O8 2.083272 1_554
Mg1 O4 2.085366 1_654
Mg1 O3 2.096376 1_545
Mg1 O0 2.097635 1_645
Mg1 O9 2.115781 1_644
Mg1 O7 2.120234 1_555
Fe0 O3 1.851531 1_555
Fe0 O2 1.880916 1_565
Fe0 O7 1.963301 1_555
Fe0 O1 1.990819 1_555
Fe0 O0 2.003814 1_555
Fe0 O6 2.063753 1_555
Fe1 O5 1.851531 1_555
Fe1 O4 1.880916 1_655
Fe1 O9 1.963301 1_555
Fe1 O0 1.990819 1_556
Fe1 O1 2.003814 1_555
Fe1 O8 2.063753 1_555
Fe2 O2 1.887010 1_555
Fe2 O3 1.942203 1_455
Fe2 O8 2.011810 1_554
Fe2 O6 2.016060 1_555
Fe2 O7 2.057998 1_555
Fe2 O0 2.160282 1_555
Fe3 O4 1.887010 1_555
Fe3 O5 1.942203 1_545
Fe3 O6 2.011810 1_555
Fe3 O8 2.016060 1_555
Fe3 O9 2.057998 1_555
Fe3 O1 2.160282 1_555
