# generated using pymatgen
data_Co3ReB4
_symmetry_space_group_name_H-M   'P 1'
_cell_length_a   3.03195400
_cell_length_b   4.12595100
_cell_length_c   5.41483763
_cell_angle_alpha   88.58867759
_cell_angle_beta   90.00000000
_cell_angle_gamma   90.00000000
_symmetry_Int_Tables_number   1
_chemical_formula_structural   Co3ReB4
_chemical_formula_sum   'Co3 Re1 B4'
_cell_volume   67.71741105
_cell_formula_units_Z   1
loop_
 _symmetry_equiv_pos_site_id
 _symmetry_equiv_pos_as_xyz
  1  'x, y, z'
loop_
 _atom_site_type_symbol
 _atom_site_label
 _atom_site_symmetry_multiplicity
 _atom_site_fract_x
 _atom_site_fract_y
 _atom_site_fract_z
 _atom_site_occupancy
  Co  Co0  1  0.00000000  0.86976900  0.82653800  1
  Co  Co1  1  0.50000000  0.37156400  0.67992200  1
  Co  Co2  1  0.50000000  0.12718100  0.17373700  1
  Re  Re0  1  0.00000000  0.63062600  0.32078400  1
  B  B0  1  0.00000000  0.12835600  0.47960800  1
  B  B1  1  0.00000000  0.36690100  0.95529400  1
  B  B2  1  0.50000000  0.90009300  0.54969100  1
  B  B3  1  0.50000000  0.60550900  0.01442600  1
loop_
_geom_bond_atom_site_label_1
_geom_bond_atom_site_label_2
_geom_bond_distance
_geom_bond_site_symmetry_2
B0 B2 1.819776 1_545
B0 B2 1.819776 1_445
B0 Co1 2.129612 1_555
B0 Co1 2.129612 1_455
B0 Co0 2.137430 1_545
B0 Re0 2.224054 1_555
B0 Co2 2.245382 1_555
B0 Co2 2.245382 1_455
B0 Re0 2.245868 1_545
B1 B3 1.839958 1_556
B1 B3 1.839958 1_456
B1 Co1 2.126148 1_455
B1 Co1 2.126148 1_555
B1 Co2 2.148934 1_556
B1 Co2 2.148934 1_456
B1 Co0 2.172476 1_555
B1 Co0 2.182591 1_545
B1 Re0 2.281839 1_556
B2 Co1 2.085404 1_565
B2 Co0 2.133506 1_555
B2 Co0 2.133506 1_655
B2 Co2 2.219937 1_565
B2 Re0 2.266833 1_555
B2 Re0 2.266833 1_655
B2 Co1 2.275283 1_555
B3 Co1 2.073300 1_554
B3 Co0 2.113627 1_554
B3 Co0 2.113627 1_654
B3 Co2 2.134296 1_555
B3 Re0 2.251505 1_555
B3 Re0 2.251505 1_655
B3 Co2 2.338464 1_565
