# generated using pymatgen
data_NaMg14SiO16
_symmetry_space_group_name_H-M   'P 1'
_cell_length_a   8.54310142
_cell_length_b   8.54310142
_cell_length_c   4.30125101
_cell_angle_alpha   90.00000000
_cell_angle_beta   90.00000000
_cell_angle_gamma   90.00000000
_symmetry_Int_Tables_number   1
_chemical_formula_structural   NaMg14SiO16
_chemical_formula_sum   'Na1 Mg14 Si1 O16'
_cell_volume   313.92500649
_cell_formula_units_Z   1
loop_
 _symmetry_equiv_pos_site_id
 _symmetry_equiv_pos_as_xyz
  1  'x, y, z'
loop_
 _atom_site_type_symbol
 _atom_site_label
 _atom_site_symmetry_multiplicity
 _atom_site_fract_x
 _atom_site_fract_y
 _atom_site_fract_z
 _atom_site_occupancy
  Na  Na0  1  0.50000000  0.50000000  0.00000000  1
  Mg  Mg0  1  0.00000000  0.50000000  0.00000000  1
  Mg  Mg1  1  0.50000000  -0.00000000  0.00000000  1
  Mg  Mg2  1  0.00000000  0.25321889  0.50000000  1
  Mg  Mg3  1  0.00000000  0.74678111  0.50000000  1
  Mg  Mg4  1  0.50000000  0.25480847  0.50000000  1
  Mg  Mg5  1  0.50000000  0.74519153  0.50000000  1
  Mg  Mg6  1  0.25321889  -0.00000000  0.50000000  1
  Mg  Mg7  1  0.25480847  0.50000000  0.50000000  1
  Mg  Mg8  1  0.74678111  -0.00000000  0.50000000  1
  Mg  Mg9  1  0.74519153  0.50000000  0.50000000  1
  Mg  Mg10  1  0.25546093  0.25546093  0.00000000  1
  Mg  Mg11  1  0.25546093  0.74453907  0.00000000  1
  Mg  Mg12  1  0.74453907  0.25546093  -0.00000000  1
  Mg  Mg13  1  0.74453907  0.74453907  0.00000000  1
  Si  Si0  1  0.00000000  -0.00000000  0.00000000  1
  O  O0  1  0.23375404  -0.00000000  0.00000000  1
  O  O1  1  0.23337204  0.50000000  0.00000000  1
  O  O2  1  0.76624596  -0.00000000  -0.00000000  1
  O  O3  1  0.76662796  0.50000000  -0.00000000  1
  O  O4  1  0.24842988  0.24842988  0.50000000  1
  O  O5  1  0.24842988  0.75157012  0.50000000  1
  O  O6  1  0.75157012  0.24842988  0.50000000  1
  O  O7  1  0.75157012  0.75157012  0.50000000  1
  O  O8  1  0.00000000  -0.00000000  0.50000000  1
  O  O9  1  0.00000000  0.50000000  0.50000000  1
  O  O10  1  0.50000000  -0.00000000  0.50000000  1
  O  O11  1  0.50000000  0.50000000  0.50000000  1
  O  O12  1  0.00000000  0.23375404  -0.00000000  1
  O  O13  1  0.00000000  0.76624596  0.00000000  1
  O  O14  1  0.50000000  0.23337204  -0.00000000  1
  O  O15  1  0.50000000  0.76662796  0.00000000  1
loop_
_geom_bond_atom_site_label_1
_geom_bond_atom_site_label_2
_geom_bond_distance
_geom_bond_site_symmetry_2
Na0 O11 2.150626 1_554
Na0 O11 2.150626 1_555
Na0 O14 2.277830 1_555
Na0 O15 2.277830 1_555
Na0 O3 2.277830 1_555
Na0 O1 2.277830 1_555
Mg0 O3 1.993721 1_455
Mg0 O1 1.993721 1_555
Mg0 O9 2.150626 1_555
Mg0 O9 2.150626 1_554
Mg0 O13 2.274566 1_555
Mg0 O12 2.274566 1_555
Mg1 O14 1.993721 1_555
Mg1 O15 1.993721 1_545
Mg1 O10 2.150626 1_555
Mg1 O10 2.150626 1_554
Mg1 O0 2.274566 1_555
Mg1 O2 2.274566 1_555
Mg2 O9 2.108276 1_555
Mg2 O4 2.122756 1_555
Mg2 O6 2.122756 1_455
Mg2 O12 2.157045 1_555
Mg2 O12 2.157045 1_556
Mg2 O8 2.163275 1_555
Mg3 O9 2.108276 1_555
Mg3 O7 2.122756 1_455
Mg3 O5 2.122756 1_555
Mg3 O13 2.157045 1_555
Mg3 O13 2.157045 1_556
Mg3 O8 2.163275 1_565
Mg4 O11 2.094696 1_555
Mg4 O4 2.149880 1_555
Mg4 O6 2.149880 1_555
Mg4 O14 2.158409 1_555
Mg4 O14 2.158409 1_556
Mg4 O10 2.176855 1_555
Mg5 O11 2.094696 1_555
Mg5 O5 2.149880 1_555
Mg5 O7 2.149880 1_555
Mg5 O15 2.158409 1_556
Mg5 O15 2.158409 1_555
Mg5 O10 2.176855 1_565
Mg6 O10 2.108276 1_555
Mg6 O5 2.122756 1_545
Mg6 O4 2.122756 1_555
Mg6 O0 2.157045 1_555
Mg6 O0 2.157045 1_556
Mg6 O8 2.163275 1_555
Mg7 O11 2.094696 1_555
Mg7 O4 2.149880 1_555
Mg7 O5 2.149880 1_555
Mg7 O1 2.158409 1_556
Mg7 O1 2.158409 1_555
Mg7 O9 2.176855 1_555
Mg8 O10 2.108276 1_555
Mg8 O6 2.122756 1_555
Mg8 O7 2.122756 1_545
Mg8 O2 2.157045 1_555
Mg8 O2 2.157045 1_556
Mg8 O8 2.163275 1_655
Mg9 O11 2.094696 1_555
Mg9 O6 2.149880 1_555
Mg9 O7 2.149880 1_555
Mg9 O3 2.158409 1_556
Mg9 O3 2.158409 1_555
Mg9 O9 2.176855 1_655
Mg10 O1 2.097628 1_555
Mg10 O14 2.097628 1_555
Mg10 O4 2.152303 1_554
Mg10 O4 2.152303 1_555
Mg10 O12 2.190293 1_555
Mg10 O0 2.190293 1_555
Mg11 O1 2.097628 1_555
Mg11 O15 2.097628 1_555
Mg11 O5 2.152303 1_555
Mg11 O5 2.152303 1_554
Mg11 O13 2.190293 1_555
Mg11 O0 2.190293 1_565
Mg12 O14 2.097628 1_555
Mg12 O3 2.097628 1_555
Mg12 O6 2.152303 1_555
Mg12 O6 2.152303 1_554
Mg12 O2 2.190293 1_555
Mg12 O12 2.190293 1_655
Mg13 O3 2.097628 1_555
Mg13 O15 2.097628 1_555
Mg13 O7 2.152303 1_555
Mg13 O7 2.152303 1_554
Mg13 O2 2.190293 1_565
Mg13 O13 2.190293 1_655
O0 Si0 1.996984 1_555
O2 Si0 1.996984 1_655
O8 Si0 2.150626 1_555
O8 Si0 2.150626 1_556
O12 Si0 1.996984 1_555
O13 Si0 1.996984 1_565
