# generated using pymatgen
data_RbNa8(GaAs2)3
_symmetry_space_group_name_H-M   'P 1'
_cell_length_a   23.10214900
_cell_length_b   4.85919700
_cell_length_c   17.05933300
_cell_angle_alpha   90.00000000
_cell_angle_beta   90.00000000
_cell_angle_gamma   90.00000000
_symmetry_Int_Tables_number   1
_chemical_formula_structural   RbNa8(GaAs2)3
_chemical_formula_sum   'Rb4 Na32 Ga12 As24'
_cell_volume   1915.04478052
_cell_formula_units_Z   4
loop_
 _symmetry_equiv_pos_site_id
 _symmetry_equiv_pos_as_xyz
  1  'x, y, z'
loop_
 _atom_site_type_symbol
 _atom_site_label
 _atom_site_symmetry_multiplicity
 _atom_site_fract_x
 _atom_site_fract_y
 _atom_site_fract_z
 _atom_site_occupancy
  Rb  Rb0  1  0.50246500  0.25000000  0.80873400  1
  Rb  Rb1  1  0.00246500  0.25000000  0.69126600  1
  Rb  Rb2  1  0.49753500  0.75000000  0.19126600  1
  Rb  Rb3  1  0.99753500  0.75000000  0.30873400  1
  Na  Na0  1  0.55212100  0.25000000  0.03257000  1
  Na  Na1  1  0.05212100  0.25000000  0.46743000  1
  Na  Na2  1  0.44787900  0.75000000  0.96743000  1
  Na  Na3  1  0.94787900  0.75000000  0.53257000  1
  Na  Na4  1  0.55720900  0.25000000  0.35120000  1
  Na  Na5  1  0.05720900  0.25000000  0.14880000  1
  Na  Na6  1  0.44279100  0.75000000  0.64880000  1
  Na  Na7  1  0.94279100  0.75000000  0.85120000  1
  Na  Na8  1  0.67925200  0.25000000  0.92074900  1
  Na  Na9  1  0.17925200  0.25000000  0.57925100  1
  Na  Na10  1  0.32074800  0.75000000  0.07925100  1
  Na  Na11  1  0.82074800  0.75000000  0.42074900  1
  Na  Na12  1  0.68153400  0.25000000  0.69225700  1
  Na  Na13  1  0.18153400  0.25000000  0.80774300  1
  Na  Na14  1  0.31846600  0.75000000  0.30774300  1
  Na  Na15  1  0.81846600  0.75000000  0.19225700  1
  Na  Na16  1  0.69063000  0.25000000  0.45796000  1
  Na  Na17  1  0.19063000  0.25000000  0.04204000  1
  Na  Na18  1  0.30937000  0.75000000  0.54204000  1
  Na  Na19  1  0.80937000  0.75000000  0.95796000  1
  Na  Na20  1  0.83732200  0.25000000  0.79862200  1
  Na  Na21  1  0.33732200  0.25000000  0.70137800  1
  Na  Na22  1  0.16267800  0.75000000  0.20137800  1
  Na  Na23  1  0.66267800  0.75000000  0.29862200  1
  Na  Na24  1  0.84103500  0.25000000  0.58166600  1
  Na  Na25  1  0.34103500  0.25000000  0.91833400  1
  Na  Na26  1  0.15896500  0.75000000  0.41833400  1
  Na  Na27  1  0.65896500  0.75000000  0.08166600  1
  Na  Na28  1  0.04077500  0.25000000  0.94478900  1
  Na  Na29  1  0.54077500  0.25000000  0.55521100  1
  Na  Na30  1  0.95922500  0.75000000  0.05521100  1
  Na  Na31  1  0.45922500  0.75000000  0.44478900  1
  Ga  Ga0  1  0.71546200  0.25000000  0.19084300  1
  Ga  Ga1  1  0.21546200  0.25000000  0.30915700  1
  Ga  Ga2  1  0.28453800  0.75000000  0.80915700  1
  Ga  Ga3  1  0.78453800  0.75000000  0.69084300  1
  Ga  Ga4  1  0.86405400  0.25000000  0.06935400  1
  Ga  Ga5  1  0.36405400  0.25000000  0.43064600  1
  Ga  Ga6  1  0.13594600  0.75000000  0.93064600  1
  Ga  Ga7  1  0.63594600  0.75000000  0.56935400  1
  Ga  Ga8  1  0.87234500  0.25000000  0.30926500  1
  Ga  Ga9  1  0.37234500  0.25000000  0.19073500  1
  Ga  Ga10  1  0.12765500  0.75000000  0.69073500  1
  Ga  Ga11  1  0.62765500  0.75000000  0.80926500  1
  As  As0  1  0.61298300  0.25000000  0.19191100  1
  As  As1  1  0.11298300  0.25000000  0.30809000  1
  As  As2  1  0.38701700  0.75000000  0.80809000  1
  As  As3  1  0.88701700  0.75000000  0.69191000  1
  As  As4  1  0.75965800  0.25000000  0.06210200  1
  As  As5  1  0.25965800  0.25000000  0.43789800  1
  As  As6  1  0.24034200  0.75000000  0.93789800  1
  As  As7  1  0.74034200  0.75000000  0.56210200  1
  As  As8  1  0.76661800  0.25000000  0.31537600  1
  As  As9  1  0.26661800  0.25000000  0.18462400  1
  As  As10  1  0.23338200  0.75000000  0.68462400  1
  As  As11  1  0.73338200  0.75000000  0.81537600  1
  As  As12  1  0.91060600  0.25000000  0.94437500  1
  As  As13  1  0.41060600  0.25000000  0.55562500  1
  As  As14  1  0.08939400  0.75000000  0.05562500  1
  As  As15  1  0.58939400  0.75000000  0.44437500  1
  As  As16  1  0.91707700  0.25000000  0.43564400  1
  As  As17  1  0.41707700  0.25000000  0.06435600  1
  As  As18  1  0.08292300  0.75000000  0.56435600  1
  As  As19  1  0.58292300  0.75000000  0.93564400  1
  As  As20  1  0.92531300  0.25000000  0.18453900  1
  As  As21  1  0.42531300  0.25000000  0.31546100  1
  As  As22  1  0.07468700  0.75000000  0.81546100  1
  As  As23  1  0.57468700  0.75000000  0.68453900  1
loop_
_geom_bond_atom_site_label_1
_geom_bond_atom_site_label_2
_geom_bond_distance
_geom_bond_site_symmetry_2
Ga0 Na23 3.281849 1_555
Ga0 Na23 3.281849 1_545
Ga0 Na27 3.327966 1_545
Ga0 Na27 3.327966 1_555
Ga0 Na15 3.400896 1_555
Ga0 Na15 3.400896 1_545
Ga1 Na22 3.281849 1_555
Ga1 Na22 3.281849 1_545
Ga1 Na26 3.327966 1_545
Ga1 Na26 3.327966 1_555
Ga1 Na14 3.400896 1_555
Ga1 Na14 3.400896 1_545
Ga2 Na21 3.281849 1_565
Ga2 Na21 3.281849 1_555
Ga2 Na25 3.327966 1_565
Ga2 Na25 3.327966 1_555
Ga2 Na13 3.400896 1_565
Ga2 Na13 3.400896 1_555
Ga3 Na20 3.281849 1_555
Ga3 Na20 3.281849 1_565
Ga3 Na24 3.327966 1_555
Ga3 Na24 3.327966 1_565
Ga3 Na12 3.400896 1_565
Ga3 Na12 3.400896 1_555
Ga4 Na30 3.285611 1_545
Ga4 Na30 3.285611 1_555
Ga4 Na19 3.333180 1_554
Ga4 Na19 3.333180 1_544
Ga4 Na15 3.377581 1_555
Ga4 Na15 3.377581 1_545
Ga5 Na31 3.285611 1_545
Ga5 Na31 3.285611 1_555
Ga5 Na18 3.333180 1_545
Ga5 Na18 3.333180 1_555
Ga5 Na14 3.377581 1_545
Ga5 Na14 3.377581 1_555
Ga6 Na28 3.285611 1_565
Ga6 Na28 3.285611 1_555
Ga6 Na17 3.333180 1_556
Ga6 Na17 3.333180 1_566
Ga6 Na13 3.377581 1_565
Ga6 Na13 3.377581 1_555
Ga7 Na29 3.285611 1_565
Ga7 Na29 3.285611 1_555
Ga7 Na16 3.333180 1_555
Ga7 Na16 3.333180 1_565
Ga7 Na12 3.377581 1_565
Ga7 Na12 3.377581 1_555
Ga8 Na11 3.307691 1_545
Ga8 Na11 3.307691 1_555
Ga8 Na15 3.381805 1_555
Ga8 Na15 3.381805 1_545
Ga8 Rb3 3.777249 1_545
Ga8 Rb3 3.777249 1_555
Ga9 Na10 3.307691 1_555
Ga9 Na10 3.307691 1_545
Ga9 Na14 3.381805 1_545
Ga9 Na14 3.381805 1_555
Ga9 Rb2 3.777249 1_545
Ga9 Rb2 3.777249 1_555
Ga10 Na9 3.307691 1_565
Ga10 Na9 3.307691 1_555
Ga10 Na13 3.381805 1_565
Ga10 Na13 3.381805 1_555
Ga10 Rb1 3.777249 1_555
Ga10 Rb1 3.777249 1_565
Ga11 Na8 3.307691 1_555
Ga11 Na8 3.307691 1_565
Ga11 Na12 3.381805 1_565
Ga11 Na12 3.381805 1_555
Ga11 Rb0 3.777249 1_555
Ga11 Rb0 3.777249 1_565
As0 Ga0 2.367555 1_555
As0 Na4 3.007374 1_555
As0 Na0 3.060367 1_555
As0 Na23 3.245754 1_545
As0 Na23 3.245754 1_555
As0 Na27 3.250915 1_555
As0 Na27 3.250915 1_545
As0 Rb2 3.607835 1_545
As0 Rb2 3.607835 1_555
As1 Ga1 2.367555 1_555
As1 Na5 3.007389 1_555
As1 Na1 3.060352 1_555
As1 Na22 3.245763 1_545
As1 Na22 3.245763 1_555
As1 Na26 3.250905 1_545
As1 Na26 3.250905 1_555
As1 Rb3 3.607835 1_445
As1 Rb3 3.607835 1_455
As2 Ga2 2.367555 1_555
As2 Na6 3.007389 1_555
As2 Na2 3.060352 1_555
As2 Na21 3.245763 1_555
As2 Na21 3.245763 1_565
As2 Na25 3.250905 1_555
As2 Na25 3.250905 1_565
As2 Rb0 3.607835 1_555
As2 Rb0 3.607835 1_565
As3 Ga3 2.367555 1_555
As3 Na7 3.007389 1_555
As3 Na3 3.060352 1_555
As3 Na20 3.245763 1_565
As3 Na20 3.245763 1_555
As3 Na24 3.250905 1_565
As3 Na24 3.250905 1_555
As3 Rb1 3.607835 1_655
As3 Rb1 3.607835 1_665
As4 Ga4 2.414943 1_555
As4 Ga0 2.421970 1_555
As4 Na8 3.043894 1_554
As4 Na19 3.221518 1_544
As4 Na19 3.221518 1_554
As4 Na27 3.380186 1_555
As4 Na27 3.380186 1_545
As4 Na15 3.560717 1_555
As4 Na15 3.560717 1_545
As5 Ga5 2.414943 1_555
As5 Ga1 2.421970 1_555
As5 Na9 3.043894 1_555
As5 Na18 3.221518 1_545
As5 Na18 3.221518 1_555
As5 Na26 3.380186 1_555
As5 Na26 3.380186 1_545
As5 Na14 3.560717 1_555
As5 Na14 3.560717 1_545
As6 Ga6 2.414943 1_555
As6 Ga2 2.421970 1_555
As6 Na10 3.043894 1_556
As6 Na17 3.221518 1_556
As6 Na17 3.221518 1_566
As6 Na25 3.380186 1_565
As6 Na25 3.380186 1_555
As6 Na13 3.560717 1_565
As6 Na13 3.560717 1_555
As7 Ga7 2.414943 1_555
As7 Ga3 2.421970 1_555
As7 Na11 3.043894 1_555
As7 Na16 3.221518 1_555
As7 Na16 3.221518 1_565
As7 Na24 3.380186 1_565
As7 Na24 3.380186 1_555
As7 Na12 3.560717 1_555
As7 Na12 3.560717 1_565
As8 Ga0 2.431043 1_555
As8 Ga8 2.444745 1_555
As8 Na16 2.999707 1_555
As8 Na11 3.270793 1_545
As8 Na11 3.270793 1_555
As8 Na15 3.427689 1_555
As8 Na15 3.427689 1_545
As8 Na23 3.427912 1_545
As8 Na23 3.427912 1_555
As9 Ga1 2.431043 1_555
As9 Ga9 2.444745 1_555
As9 Na17 2.999707 1_555
As9 Na10 3.270793 1_555
As9 Na10 3.270793 1_545
As9 Na14 3.427689 1_545
As9 Na14 3.427689 1_555
As9 Na22 3.427912 1_545
As9 Na22 3.427912 1_555
As10 Ga2 2.431043 1_555
As10 Ga10 2.444745 1_555
As10 Na18 2.999707 1_555
As10 Na9 3.270793 1_565
As10 Na9 3.270793 1_555
As10 Na13 3.427689 1_565
As10 Na13 3.427689 1_555
As10 Na21 3.427912 1_565
As10 Na21 3.427912 1_555
As11 Ga3 2.431043 1_555
As11 Ga11 2.444745 1_555
As11 Na19 2.999707 1_555
As11 Na8 3.270793 1_555
As11 Na8 3.270793 1_565
As11 Na12 3.427689 1_565
As11 Na12 3.427689 1_555
As11 Na20 3.427912 1_555
As11 Na20 3.427912 1_565
As12 Ga4 2.387942 1_556
As12 Na7 2.997053 1_545
As12 Na7 2.997053 1_555
As12 Na28 3.007192 1_655
As12 Na20 3.008112 1_555
As12 Na30 3.277135 1_546
As12 Na30 3.277135 1_556
As12 Na19 3.380310 1_555
As12 Na19 3.380310 1_545
As13 Ga5 2.387942 1_555
As13 Na6 2.997053 1_545
As13 Na6 2.997053 1_555
As13 Na29 3.007192 1_555
As13 Na21 3.008112 1_555
As13 Na31 3.277135 1_545
As13 Na31 3.277135 1_555
As13 Na18 3.380310 1_555
As13 Na18 3.380310 1_545
As14 Ga6 2.387942 1_554
As14 Na5 2.997053 1_555
As14 Na5 2.997053 1_565
As14 Na30 3.007192 1_455
As14 Na22 3.008112 1_555
As14 Na28 3.277135 1_554
As14 Na28 3.277135 1_564
As14 Na17 3.380310 1_555
As14 Na17 3.380310 1_565
As15 Ga7 2.387942 1_555
As15 Na4 2.997053 1_555
As15 Na4 2.997053 1_565
As15 Na31 3.007192 1_555
As15 Na23 3.008112 1_555
As15 Na29 3.277135 1_555
As15 Na29 3.277135 1_565
As15 Na16 3.380310 1_565
As15 Na16 3.380310 1_555
As16 Ga8 2.390818 1_555
As16 Na3 3.023798 1_545
As16 Na3 3.023798 1_555
As16 Na24 3.048177 1_555
As16 Na1 3.166580 1_655
As16 Na11 3.304535 1_555
As16 Na11 3.304535 1_545
As16 Rb3 3.747684 1_545
As16 Rb3 3.747684 1_555
As17 Ga9 2.390818 1_555
As17 Na2 3.023798 1_554
As17 Na2 3.023798 1_544
As17 Na25 3.048177 1_554
As17 Na0 3.166580 1_555
As17 Na10 3.304535 1_555
As17 Na10 3.304535 1_545
As17 Rb2 3.747684 1_545
As17 Rb2 3.747684 1_555
As18 Ga10 2.390818 1_555
As18 Na1 3.023798 1_555
As18 Na1 3.023798 1_565
As18 Na26 3.048177 1_555
As18 Na3 3.166580 1_455
As18 Na9 3.304535 1_565
As18 Na9 3.304535 1_555
As18 Rb1 3.747684 1_565
As18 Rb1 3.747684 1_555
As19 Ga11 2.390818 1_555
As19 Na0 3.023798 1_556
As19 Na0 3.023798 1_566
As19 Na27 3.048177 1_556
As19 Na2 3.166580 1_555
As19 Na8 3.304535 1_565
As19 Na8 3.304535 1_555
As19 Rb0 3.747684 1_565
As19 Rb0 3.747684 1_555
As20 Ga4 2.421565 1_555
As20 Ga8 2.454520 1_555
As20 Na5 3.107478 1_655
As20 Na30 3.374057 1_545
As20 Na30 3.374057 1_555
As20 Na15 3.466015 1_555
As20 Na15 3.466015 1_545
As20 Rb3 3.629822 1_545
As20 Rb3 3.629822 1_555
As21 Ga5 2.421565 1_555
As21 Ga9 2.454520 1_555
As21 Na4 3.107478 1_555
As21 Na31 3.374057 1_545
As21 Na31 3.374057 1_555
As21 Na14 3.466015 1_555
As21 Na14 3.466015 1_545
As21 Rb2 3.629822 1_545
As21 Rb2 3.629822 1_555
As22 Ga6 2.421565 1_555
As22 Ga10 2.454520 1_555
As22 Na7 3.107478 1_455
As22 Na28 3.374057 1_555
As22 Na28 3.374057 1_565
As22 Na13 3.466015 1_565
As22 Na13 3.466015 1_555
As22 Rb1 3.629822 1_555
As22 Rb1 3.629822 1_565
As23 Ga7 2.421565 1_555
As23 Ga11 2.454520 1_555
As23 Na6 3.107478 1_555
As23 Na29 3.374057 1_555
As23 Na29 3.374057 1_565
As23 Na12 3.466015 1_565
As23 Na12 3.466015 1_555
As23 Rb0 3.629822 1_555
As23 Rb0 3.629822 1_565
