# generated using pymatgen
data_TeMoWSe2S
_symmetry_space_group_name_H-M   'P 1'
_cell_length_a   3.34045535
_cell_length_b   3.34045535
_cell_length_c   39.74569800
_cell_angle_alpha   90.00000000
_cell_angle_beta   90.00000000
_cell_angle_gamma   119.99998703
_symmetry_Int_Tables_number   1
_chemical_formula_structural   TeMoWSe2S
_chemical_formula_sum   'Te2 Mo2 W2 Se4 S2'
_cell_volume   384.08925498
_cell_formula_units_Z   2
loop_
 _symmetry_equiv_pos_site_id
 _symmetry_equiv_pos_as_xyz
  1  'x, y, z'
loop_
 _atom_site_type_symbol
 _atom_site_label
 _atom_site_symmetry_multiplicity
 _atom_site_fract_x
 _atom_site_fract_y
 _atom_site_fract_z
 _atom_site_occupancy
  Te  Te0  1  0.33333300  0.66666700  0.32939000  1
  Te  Te1  1  0.33333300  0.66666700  0.23387300  1
  Mo  Mo0  1  0.33333300  0.66666700  0.09318600  1
  Mo  Mo1  1  0.66666700  0.33333300  0.28162700  1
  W  W0  1  0.33333300  0.66666700  0.47055900  1
  W  W1  1  0.66666700  0.33333300  0.65753700  1
  Se  Se0  1  0.66666700  0.33333300  0.05122300  1
  Se  Se1  1  0.66666700  0.33333300  0.42840600  1
  Se  Se2  1  0.66666700  0.33333300  0.13516000  1
  Se  Se3  1  0.66666700  0.33333300  0.51272200  1
  S  S0  1  0.33333300  0.66666700  0.69585200  1
  S  S1  1  0.33333300  0.66666700  0.61921300  1
loop_
_geom_bond_atom_site_label_1
_geom_bond_atom_site_label_2
_geom_bond_distance
_geom_bond_site_symmetry_2
Mo0 Se0 2.549757 1_455
Mo0 Se0 2.549757 1_565
Mo0 Se0 2.549761 1_555
Mo0 Se2 2.550043 1_455
Mo0 Se2 2.550043 1_565
Mo0 Se2 2.550047 1_555
Mo1 Te1 2.705921 1_545
Mo1 Te1 2.705921 1_655
Mo1 Te1 2.705924 1_555
Mo1 Te0 2.706171 1_655
Mo1 Te0 2.706171 1_545
Mo1 Te0 2.706175 1_555
Se1 W0 2.554703 1_545
Se1 W0 2.554703 1_655
Se1 W0 2.554707 1_555
Se3 W0 2.554964 1_545
Se3 W0 2.554964 1_655
Se3 W0 2.554968 1_555
S0 W1 2.457363 1_455
S0 W1 2.457363 1_565
S0 W1 2.457367 1_555
S1 W1 2.457585 1_455
S1 W1 2.457585 1_565
S1 W1 2.457589 1_555
