# generated using pymatgen
data_RbMg30FeO32
_symmetry_space_group_name_H-M   'P 1'
_cell_length_a   8.61608000
_cell_length_b   8.61608000
_cell_length_c   8.62024700
_cell_angle_alpha   90.00000000
_cell_angle_beta   90.00000000
_cell_angle_gamma   90.00000000
_symmetry_Int_Tables_number   1
_chemical_formula_structural   RbMg30FeO32
_chemical_formula_sum   'Rb1 Mg30 Fe1 O32'
_cell_volume   639.93985046
_cell_formula_units_Z   1
loop_
 _symmetry_equiv_pos_site_id
 _symmetry_equiv_pos_as_xyz
  1  'x, y, z'
loop_
 _atom_site_type_symbol
 _atom_site_label
 _atom_site_symmetry_multiplicity
 _atom_site_fract_x
 _atom_site_fract_y
 _atom_site_fract_z
 _atom_site_occupancy
  Rb  Rb0  1  0.50000000  0.50000000  0.00000000  1
  Mg  Mg0  1  0.00000000  0.50000000  0.00000000  1
  Mg  Mg1  1  0.50000000  0.00000000  0.00000000  1
  Mg  Mg2  1  0.00000000  0.00000000  0.50000000  1
  Mg  Mg3  1  0.00000000  0.50000000  0.50000000  1
  Mg  Mg4  1  0.50000000  0.00000000  0.50000000  1
  Mg  Mg5  1  0.50000000  0.50000000  0.50000000  1
  Mg  Mg6  1  0.24998200  0.24998200  0.00000000  1
  Mg  Mg7  1  0.24998200  0.75001800  0.00000000  1
  Mg  Mg8  1  0.75001800  0.24998200  0.00000000  1
  Mg  Mg9  1  0.75001800  0.75001800  0.00000000  1
  Mg  Mg10  1  0.25062300  0.25062300  0.50000000  1
  Mg  Mg11  1  0.25062300  0.74937700  0.50000000  1
  Mg  Mg12  1  0.74937700  0.25062300  0.50000000  1
  Mg  Mg13  1  0.74937700  0.74937700  0.50000000  1
  Mg  Mg14  1  0.00000000  0.25215000  0.25173600  1
  Mg  Mg15  1  0.00000000  0.74785000  0.25173600  1
  Mg  Mg16  1  0.50000000  0.24800200  0.25309400  1
  Mg  Mg17  1  0.50000000  0.75199800  0.25309400  1
  Mg  Mg18  1  0.00000000  0.25215000  0.74826400  1
  Mg  Mg19  1  0.00000000  0.74785000  0.74826400  1
  Mg  Mg20  1  0.50000000  0.24800200  0.74690600  1
  Mg  Mg21  1  0.50000000  0.75199800  0.74690600  1
  Mg  Mg22  1  0.25215000  0.00000000  0.25173600  1
  Mg  Mg23  1  0.24800200  0.50000000  0.25309400  1
  Mg  Mg24  1  0.74785000  0.00000000  0.25173600  1
  Mg  Mg25  1  0.75199800  0.50000000  0.25309400  1
  Mg  Mg26  1  0.25215000  0.00000000  0.74826400  1
  Mg  Mg27  1  0.24800200  0.50000000  0.74690600  1
  Mg  Mg28  1  0.74785000  0.00000000  0.74826400  1
  Mg  Mg29  1  0.75199800  0.50000000  0.74690600  1
  Fe  Fe0  1  0.00000000  0.00000000  0.00000000  1
  O  O0  1  0.00000000  0.00000000  0.24450200  1
  O  O1  1  0.00000000  0.50000000  0.25465500  1
  O  O2  1  0.50000000  0.00000000  0.25465500  1
  O  O3  1  0.50000000  0.50000000  0.27874600  1
  O  O4  1  0.00000000  0.00000000  0.75549800  1
  O  O5  1  0.00000000  0.50000000  0.74534500  1
  O  O6  1  0.50000000  0.00000000  0.74534500  1
  O  O7  1  0.50000000  0.50000000  0.72125400  1
  O  O8  1  0.24916100  0.24916100  0.24875100  1
  O  O9  1  0.24916100  0.75083900  0.24875100  1
  O  O10  1  0.75083900  0.24916100  0.24875100  1
  O  O11  1  0.75083900  0.75083900  0.24875100  1
  O  O12  1  0.24916100  0.24916100  0.75124900  1
  O  O13  1  0.24916100  0.75083900  0.75124900  1
  O  O14  1  0.75083900  0.24916100  0.75124900  1
  O  O15  1  0.75083900  0.75083900  0.75124900  1
  O  O16  1  0.00000000  0.23885900  0.00000000  1
  O  O17  1  0.00000000  0.76114100  0.00000000  1
  O  O18  1  0.50000000  0.22062200  0.00000000  1
  O  O19  1  0.50000000  0.77937800  0.00000000  1
  O  O20  1  0.00000000  0.24616500  0.50000000  1
  O  O21  1  0.00000000  0.75383500  0.50000000  1
  O  O22  1  0.50000000  0.24373300  0.50000000  1
  O  O23  1  0.50000000  0.75626700  0.50000000  1
  O  O24  1  0.23885900  0.00000000  0.00000000  1
  O  O25  1  0.22062200  0.50000000  0.00000000  1
  O  O26  1  0.76114100  0.00000000  0.00000000  1
  O  O27  1  0.77937800  0.50000000  0.00000000  1
  O  O28  1  0.24616500  0.00000000  0.50000000  1
  O  O29  1  0.24373300  0.50000000  0.50000000  1
  O  O30  1  0.75383500  0.00000000  0.50000000  1
  O  O31  1  0.75626700  0.50000000  0.50000000  1
loop_
_geom_bond_atom_site_label_1
_geom_bond_atom_site_label_2
_geom_bond_distance
_geom_bond_site_symmetry_2
Mg0 O27 1.900897 1_455
Mg0 O25 1.900897 1_555
Mg0 O5 2.195189 1_554
Mg0 O1 2.195189 1_555
Mg0 O17 2.250012 1_555
Mg0 O16 2.250012 1_555
Mg1 O19 1.900897 1_545
Mg1 O18 1.900897 1_555
Mg1 O6 2.195189 1_554
Mg1 O2 2.195189 1_555
Mg1 O26 2.250012 1_555
Mg1 O24 2.250012 1_555
Mg2 O20 2.120977 1_555
Mg2 O28 2.120977 1_555
Mg2 O30 2.120977 1_455
Mg2 O21 2.120977 1_545
Mg2 O4 2.202456 1_555
Mg2 O0 2.202456 1_555
Mg3 O31 2.100023 1_455
Mg3 O29 2.100023 1_555
Mg3 O1 2.114935 1_555
Mg3 O5 2.114935 1_555
Mg3 O21 2.187063 1_555
Mg3 O20 2.187063 1_555
Mg4 O23 2.100023 1_545
Mg4 O22 2.100023 1_555
Mg4 O2 2.114935 1_555
Mg4 O6 2.114935 1_555
Mg4 O28 2.187063 1_555
Mg4 O30 2.187063 1_555
Mg5 O7 1.907264 1_555
Mg5 O3 1.907264 1_555
Mg5 O23 2.208017 1_555
Mg5 O22 2.208017 1_555
Mg5 O29 2.208017 1_555
Mg5 O31 2.208017 1_555
Mg6 O8 2.144318 1_555
Mg6 O12 2.144318 1_554
Mg6 O24 2.155996 1_555
Mg6 O16 2.155996 1_555
Mg6 O25 2.168977 1_555
Mg6 O18 2.168977 1_555
Mg7 O9 2.144318 1_555
Mg7 O13 2.144318 1_554
Mg7 O24 2.155996 1_565
Mg7 O17 2.155996 1_555
Mg7 O25 2.168977 1_555
Mg7 O19 2.168977 1_555
Mg8 O10 2.144318 1_555
Mg8 O14 2.144318 1_554
Mg8 O26 2.155996 1_555
Mg8 O16 2.155996 1_655
Mg8 O18 2.168977 1_555
Mg8 O27 2.168977 1_555
Mg9 O11 2.144318 1_555
Mg9 O15 2.144318 1_554
Mg9 O17 2.155996 1_655
Mg9 O26 2.155996 1_565
Mg9 O19 2.168977 1_555
Mg9 O27 2.168977 1_555
Mg10 O29 2.149472 1_555
Mg10 O22 2.149472 1_555
Mg10 O20 2.159729 1_555
Mg10 O28 2.159729 1_555
Mg10 O12 2.165902 1_555
Mg10 O8 2.165902 1_555
Mg11 O29 2.149472 1_555
Mg11 O23 2.149472 1_555
Mg11 O21 2.159729 1_555
Mg11 O28 2.159729 1_565
Mg11 O13 2.165902 1_555
Mg11 O9 2.165902 1_555
Mg12 O22 2.149472 1_555
Mg12 O31 2.149472 1_555
Mg12 O30 2.159729 1_555
Mg12 O20 2.159729 1_655
Mg12 O14 2.165902 1_555
Mg12 O10 2.165902 1_555
Mg13 O31 2.149472 1_555
Mg13 O23 2.149472 1_555
Mg13 O30 2.159729 1_565
Mg13 O21 2.159729 1_655
Mg13 O15 2.165902 1_555
Mg13 O11 2.165902 1_555
Mg14 O1 2.135644 1_555
Mg14 O20 2.140718 1_555
Mg14 O10 2.147100 1_455
Mg14 O8 2.147100 1_555
Mg14 O16 2.173046 1_555
Mg14 O0 2.173439 1_555
Mg15 O1 2.135644 1_555
Mg15 O21 2.140718 1_555
Mg15 O11 2.147100 1_455
Mg15 O9 2.147100 1_555
Mg15 O17 2.173046 1_555
Mg15 O0 2.173439 1_565
Mg16 O22 2.128709 1_555
Mg16 O2 2.136847 1_555
Mg16 O10 2.161596 1_555
Mg16 O8 2.161596 1_555
Mg16 O3 2.182466 1_555
Mg16 O18 2.194450 1_555
Mg17 O23 2.128709 1_555
Mg17 O2 2.136847 1_565
Mg17 O9 2.161596 1_555
Mg17 O11 2.161596 1_555
Mg17 O3 2.182466 1_555
Mg17 O19 2.194450 1_555
Mg18 O5 2.135644 1_555
Mg18 O20 2.140718 1_555
Mg18 O14 2.147100 1_455
Mg18 O12 2.147100 1_555
Mg18 O16 2.173046 1_556
Mg18 O4 2.173439 1_555
Mg19 O5 2.135644 1_555
Mg19 O21 2.140718 1_555
Mg19 O15 2.147100 1_455
Mg19 O13 2.147100 1_555
Mg19 O17 2.173046 1_556
Mg19 O4 2.173439 1_565
Mg20 O22 2.128709 1_555
Mg20 O6 2.136847 1_555
Mg20 O12 2.161596 1_555
Mg20 O14 2.161596 1_555
Mg20 O7 2.182466 1_555
Mg20 O18 2.194450 1_556
Mg21 O23 2.128709 1_555
Mg21 O6 2.136847 1_565
Mg21 O15 2.161596 1_555
Mg21 O13 2.161596 1_555
Mg21 O7 2.182466 1_555
Mg21 O19 2.194450 1_556
Mg22 O2 2.135644 1_555
Mg22 O28 2.140718 1_555
Mg22 O9 2.147100 1_545
Mg22 O8 2.147100 1_555
Mg22 O24 2.173046 1_555
Mg22 O0 2.173439 1_555
Mg23 O29 2.128709 1_555
Mg23 O1 2.136847 1_555
Mg23 O9 2.161596 1_555
Mg23 O8 2.161596 1_555
Mg23 O3 2.182466 1_555
Mg23 O25 2.194450 1_555
Mg24 O2 2.135644 1_555
Mg24 O30 2.140718 1_555
Mg24 O11 2.147100 1_545
Mg24 O10 2.147100 1_555
Mg24 O26 2.173046 1_555
Mg24 O0 2.173439 1_655
Mg25 O31 2.128709 1_555
Mg25 O1 2.136847 1_655
Mg25 O10 2.161596 1_555
Mg25 O11 2.161596 1_555
Mg25 O3 2.182466 1_555
Mg25 O27 2.194450 1_555
Mg26 O6 2.135644 1_555
Mg26 O28 2.140718 1_555
Mg26 O13 2.147100 1_545
Mg26 O12 2.147100 1_555
Mg26 O24 2.173046 1_556
Mg26 O4 2.173439 1_555
Mg27 O29 2.128709 1_555
Mg27 O5 2.136847 1_555
Mg27 O13 2.161596 1_555
Mg27 O12 2.161596 1_555
Mg27 O7 2.182466 1_555
Mg27 O25 2.194450 1_556
Mg28 O6 2.135644 1_555
Mg28 O30 2.140718 1_555
Mg28 O15 2.147100 1_545
Mg28 O14 2.147100 1_555
Mg28 O26 2.173046 1_556
Mg28 O4 2.173439 1_655
Mg29 O31 2.128709 1_555
Mg29 O5 2.136847 1_655
Mg29 O15 2.161596 1_555
Mg29 O14 2.161596 1_555
Mg29 O7 2.182466 1_555
Mg29 O27 2.194450 1_556
Fe0 O24 2.058028 1_555
Fe0 O16 2.058028 1_555
Fe0 O17 2.058028 1_545
Fe0 O26 2.058028 1_455
Fe0 O0 2.107668 1_555
Fe0 O4 2.107668 1_554
O3 Rb0 2.402859 1_555
O7 Rb0 2.402859 1_556
O18 Rb0 2.407143 1_555
O19 Rb0 2.407143 1_555
O25 Rb0 2.407143 1_555
O27 Rb0 2.407143 1_555
