# generated using pymatgen
data_FeSO7
_symmetry_space_group_name_H-M   'P 1'
_cell_length_a   6.65679000
_cell_length_b   6.39491200
_cell_length_c   7.17132954
_cell_angle_alpha   69.13280933
_cell_angle_beta   90.00000000
_cell_angle_gamma   90.00000000
_symmetry_Int_Tables_number   1
_chemical_formula_structural   FeSO7
_chemical_formula_sum   'Fe2 S2 O14'
_cell_volume   285.25675414
_cell_formula_units_Z   2
loop_
 _symmetry_equiv_pos_site_id
 _symmetry_equiv_pos_as_xyz
  1  'x, y, z'
loop_
 _atom_site_type_symbol
 _atom_site_label
 _atom_site_symmetry_multiplicity
 _atom_site_fract_x
 _atom_site_fract_y
 _atom_site_fract_z
 _atom_site_occupancy
  Fe  Fe0  1  0.50000000  0.00000000  0.00000000  1
  Fe  Fe1  1  0.00000000  0.00000000  0.00000000  1
  S  S0  1  0.25000000  0.32298600  0.62503200  1
  S  S1  1  0.75000000  0.67701400  0.37496800  1
  O  O0  1  0.43699000  0.24286000  0.76104800  1
  O  O1  1  0.93699000  0.75714000  0.23895200  1
  O  O2  1  0.56301000  0.75714000  0.23895200  1
  O  O3  1  0.06301000  0.24286000  0.76104800  1
  O  O4  1  0.25000000  0.56464400  0.56006700  1
  O  O5  1  0.75000000  0.43535600  0.43993300  1
  O  O6  1  0.25000000  0.22049000  0.47582600  1
  O  O7  1  0.75000000  0.77951000  0.52417400  1
  O  O8  1  0.75000000  0.98372400  0.90160000  1
  O  O9  1  0.25000000  0.01627600  0.09840000  1
  O  O10  1  0.34361000  0.74521400  0.88614900  1
  O  O11  1  0.84361000  0.25478600  0.11385100  1
  O  O12  1  0.65639000  0.25478600  0.11385100  1
  O  O13  1  0.15639000  0.74521400  0.88614900  1
loop_
_geom_bond_atom_site_label_1
_geom_bond_atom_site_label_2
_geom_bond_distance
_geom_bond_site_symmetry_2
Fe0 O9 1.825011 1_555
Fe0 O8 1.825011 1_544
Fe0 O2 1.904845 1_545
Fe0 O0 1.904845 1_554
Fe0 O10 2.313622 1_544
Fe0 O12 2.313622 1_555
Fe1 O8 1.825011 1_444
Fe1 O9 1.825011 1_555
Fe1 O1 1.904845 1_445
Fe1 O3 1.904845 1_554
Fe1 O13 2.313622 1_544
Fe1 O11 2.313622 1_455
O0 S0 1.551559 1_555
O1 S1 1.551559 1_555
O2 S1 1.551559 1_555
O3 S0 1.551559 1_555
O4 S0 1.446493 1_555
O5 S1 1.446493 1_555
O6 S0 1.440197 1_555
O7 S1 1.440197 1_555
O10 O13 1.246284 1_555
O11 O12 1.246284 1_555
