# generated using pymatgen
data_Pu3Si2
_symmetry_space_group_name_H-M   'P 1'
_cell_length_a   7.23431800
_cell_length_b   7.23431800
_cell_length_c   4.06705900
_cell_angle_alpha   90.00000000
_cell_angle_beta   90.00000000
_cell_angle_gamma   90.00000000
_symmetry_Int_Tables_number   1
_chemical_formula_structural   Pu3Si2
_chemical_formula_sum   'Pu6 Si4'
_cell_volume   212.85098440
_cell_formula_units_Z   2
loop_
 _symmetry_equiv_pos_site_id
 _symmetry_equiv_pos_as_xyz
  1  'x, y, z'
loop_
 _atom_site_type_symbol
 _atom_site_label
 _atom_site_symmetry_multiplicity
 _atom_site_fract_x
 _atom_site_fract_y
 _atom_site_fract_z
 _atom_site_occupancy
  Pu  Pu0  1  0.50000000  0.50000000  0.00000000  1
  Pu  Pu1  1  0.00000000  0.00000000  0.00000000  1
  Pu  Pu2  1  0.68166800  0.18166800  0.50000000  1
  Pu  Pu3  1  0.31833200  0.81833200  0.50000000  1
  Pu  Pu4  1  0.18166800  0.31833200  0.50000000  1
  Pu  Pu5  1  0.81833200  0.68166800  0.50000000  1
  Si  Si0  1  0.11635100  0.61635100  0.00000000  1
  Si  Si1  1  0.88364900  0.38364900  0.00000000  1
  Si  Si2  1  0.61635100  0.88364900  0.00000000  1
  Si  Si3  1  0.38364900  0.11635100  0.00000000  1
loop_
_geom_bond_atom_site_label_1
_geom_bond_atom_site_label_2
_geom_bond_distance
_geom_bond_site_symmetry_2
Pu0 Si0 2.900268 1_555
Pu0 Si1 2.900268 1_555
Pu0 Si3 2.900268 1_555
Pu0 Si2 2.900268 1_555
Pu1 Si0 2.900268 1_545
Pu1 Si1 2.900268 1_455
Pu1 Si3 2.900268 1_555
Pu1 Si2 2.900268 1_445
Pu2 Si1 2.899211 1_555
Pu2 Si1 2.899211 1_556
Pu2 Si3 3.001117 1_555
Pu2 Si2 3.001117 1_546
Pu2 Si3 3.001117 1_556
Pu2 Si2 3.001117 1_545
Pu3 Si0 2.899211 1_556
Pu3 Si0 2.899211 1_555
Pu3 Si2 3.001117 1_555
Pu3 Si2 3.001117 1_556
Pu3 Si3 3.001117 1_566
Pu3 Si3 3.001117 1_565
Pu4 Si3 2.899211 1_555
Pu4 Si3 2.899211 1_556
Pu4 Si0 3.001117 1_555
Pu4 Si1 3.001117 1_455
Pu4 Si1 3.001117 1_456
Pu4 Si0 3.001117 1_556
Pu5 Si2 2.899211 1_555
Pu5 Si2 2.899211 1_556
Pu5 Si1 3.001117 1_555
Pu5 Si1 3.001117 1_556
Pu5 Si0 3.001117 1_655
Pu5 Si0 3.001117 1_656
Si0 Si1 2.380744 1_455
Si2 Si3 2.380744 1_565
