# generated using pymatgen
data_Y2MgGa2
_symmetry_space_group_name_H-M   'P 1'
_cell_length_a   7.41408300
_cell_length_b   7.41408300
_cell_length_c   4.23603541
_cell_angle_alpha   90.00000000
_cell_angle_beta   90.00000000
_cell_angle_gamma   90.00000000
_symmetry_Int_Tables_number   1
_chemical_formula_structural   Y2MgGa2
_chemical_formula_sum   'Y4 Mg2 Ga4'
_cell_volume   232.84904927
_cell_formula_units_Z   2
loop_
 _symmetry_equiv_pos_site_id
 _symmetry_equiv_pos_as_xyz
  1  'x, y, z'
loop_
 _atom_site_type_symbol
 _atom_site_label
 _atom_site_symmetry_multiplicity
 _atom_site_fract_x
 _atom_site_fract_y
 _atom_site_fract_z
 _atom_site_occupancy
  Y  Y0  1  0.67411351  0.17411351  0.50000000  1
  Y  Y1  1  0.32588649  0.82588649  0.50000000  1
  Y  Y2  1  0.17411351  0.32588649  0.50000000  1
  Y  Y3  1  0.82588649  0.67411351  0.50000000  1
  Mg  Mg0  1  0.00000000  -0.00000000  0.00000000  1
  Mg  Mg1  1  0.50000000  0.50000000  0.00000000  1
  Ga  Ga0  1  0.12262574  0.62262574  -0.00000000  1
  Ga  Ga1  1  0.87737426  0.37737426  0.00000000  1
  Ga  Ga2  1  0.62262574  0.87737426  0.00000000  1
  Ga  Ga3  1  0.37737426  0.12262574  -0.00000000  1
loop_
_geom_bond_atom_site_label_1
_geom_bond_atom_site_label_2
_geom_bond_distance
_geom_bond_site_symmetry_2
Mg0 Y2 3.462684 1_555
Mg0 Y0 3.462684 1_455
Mg0 Y3 3.462684 1_444
Mg0 Y0 3.462684 1_454
Mg0 Y2 3.462684 1_554
Mg0 Y3 3.462684 1_445
Mg0 Y1 3.462684 1_544
Mg0 Y1 3.462684 1_545
Mg1 Y2 3.462684 1_555
Mg1 Y3 3.462684 1_554
Mg1 Y0 3.462684 1_554
Mg1 Y1 3.462684 1_555
Mg1 Y1 3.462684 1_554
Mg1 Y0 3.462684 1_555
Mg1 Y2 3.462684 1_554
Mg1 Y3 3.462684 1_555
Ga0 Ga1 2.571485 1_455
Ga0 Mg0 2.941891 1_565
Ga0 Mg1 2.941891 1_555
Ga0 Y1 3.004671 1_555
Ga0 Y1 3.004671 1_554
Ga0 Y3 3.077651 1_455
Ga0 Y3 3.077651 1_454
Ga0 Y2 3.077651 1_555
Ga0 Y2 3.077651 1_554
Ga1 Mg0 2.941891 1_655
Ga1 Mg1 2.941891 1_555
Ga1 Y0 3.004671 1_554
Ga1 Y0 3.004671 1_555
Ga1 Y2 3.077651 1_655
Ga1 Y2 3.077651 1_654
Ga1 Y3 3.077651 1_555
Ga1 Y3 3.077651 1_554
Ga2 Ga3 2.571485 1_565
Ga2 Mg0 2.941891 1_665
Ga2 Mg1 2.941891 1_555
Ga2 Y3 3.004671 1_554
Ga2 Y3 3.004671 1_555
Ga2 Y0 3.077651 1_564
Ga2 Y0 3.077651 1_565
Ga2 Y1 3.077651 1_555
Ga2 Y1 3.077651 1_554
Ga3 Mg1 2.941891 1_555
Ga3 Mg0 2.941891 1_555
Ga3 Y2 3.004671 1_555
Ga3 Y2 3.004671 1_554
Ga3 Y1 3.077651 1_545
Ga3 Y0 3.077651 1_554
Ga3 Y0 3.077651 1_555
Ga3 Y1 3.077651 1_544
