# generated using pymatgen
data_Na2Cl
_symmetry_space_group_name_H-M   'P 1'
_cell_length_a   7.11217600
_cell_length_b   7.11217600
_cell_length_c   25.18514800
_cell_angle_alpha   90.00000000
_cell_angle_beta   90.00000000
_cell_angle_gamma   90.00000000
_symmetry_Int_Tables_number   1
_chemical_formula_structural   Na2Cl
_chemical_formula_sum   'Na32 Cl16'
_cell_volume   1273.94153644
_cell_formula_units_Z   16
loop_
 _symmetry_equiv_pos_site_id
 _symmetry_equiv_pos_as_xyz
  1  'x, y, z'
loop_
 _atom_site_type_symbol
 _atom_site_label
 _atom_site_symmetry_multiplicity
 _atom_site_fract_x
 _atom_site_fract_y
 _atom_site_fract_z
 _atom_site_occupancy
  Na  Na0_0  1  0.00000000  0.00000000  0.11345150  1
  Na  Na0_1  1  0.00000000  0.00000000  0.61345150  1
  Na  Na0_2  1  0.00000000  0.50000000  0.11345150  1
  Na  Na0_3  1  0.00000000  0.50000000  0.61345150  1
  Na  Na0_4  1  0.50000000  0.00000000  0.11345150  1
  Na  Na0_5  1  0.50000000  0.00000000  0.61345150  1
  Na  Na0_6  1  0.50000000  0.50000000  0.11345150  1
  Na  Na0_7  1  0.50000000  0.50000000  0.61345150  1
  Na  Na1_0  1  0.00000000  0.00000000  0.38654850  1
  Na  Na1_1  1  0.00000000  0.00000000  0.88654850  1
  Na  Na1_2  1  0.00000000  0.50000000  0.38654850  1
  Na  Na1_3  1  0.00000000  0.50000000  0.88654850  1
  Na  Na1_4  1  0.50000000  0.00000000  0.38654850  1
  Na  Na1_5  1  0.50000000  0.00000000  0.88654850  1
  Na  Na1_6  1  0.50000000  0.50000000  0.38654850  1
  Na  Na1_7  1  0.50000000  0.50000000  0.88654850  1
  Na  Na2_0  1  0.00000000  0.00000000  0.25000000  1
  Na  Na2_1  1  0.00000000  0.00000000  0.75000000  1
  Na  Na2_2  1  0.00000000  0.50000000  0.25000000  1
  Na  Na2_3  1  0.00000000  0.50000000  0.75000000  1
  Na  Na2_4  1  0.50000000  0.00000000  0.25000000  1
  Na  Na2_5  1  0.50000000  0.00000000  0.75000000  1
  Na  Na2_6  1  0.50000000  0.50000000  0.25000000  1
  Na  Na2_7  1  0.50000000  0.50000000  0.75000000  1
  Na  Na3_0  1  0.25000000  0.25000000  0.00000000  1
  Na  Na3_1  1  0.25000000  0.25000000  0.50000000  1
  Na  Na3_2  1  0.25000000  0.75000000  0.00000000  1
  Na  Na3_3  1  0.25000000  0.75000000  0.50000000  1
  Na  Na3_4  1  0.75000000  0.25000000  0.00000000  1
  Na  Na3_5  1  0.75000000  0.25000000  0.50000000  1
  Na  Na3_6  1  0.75000000  0.75000000  0.00000000  1
  Na  Na3_7  1  0.75000000  0.75000000  0.50000000  1
  Cl  Cl0_0  1  0.25000000  0.25000000  0.17958900  1
  Cl  Cl0_1  1  0.25000000  0.25000000  0.67958900  1
  Cl  Cl0_2  1  0.25000000  0.75000000  0.17958900  1
  Cl  Cl0_3  1  0.25000000  0.75000000  0.67958900  1
  Cl  Cl0_4  1  0.75000000  0.25000000  0.17958900  1
  Cl  Cl0_5  1  0.75000000  0.25000000  0.67958900  1
  Cl  Cl0_6  1  0.75000000  0.75000000  0.17958900  1
  Cl  Cl0_7  1  0.75000000  0.75000000  0.67958900  1
  Cl  Cl1_0  1  0.25000000  0.25000000  0.32041100  1
  Cl  Cl1_1  1  0.25000000  0.25000000  0.82041100  1
  Cl  Cl1_2  1  0.25000000  0.75000000  0.32041100  1
  Cl  Cl1_3  1  0.25000000  0.75000000  0.82041100  1
  Cl  Cl1_4  1  0.75000000  0.25000000  0.32041100  1
  Cl  Cl1_5  1  0.75000000  0.25000000  0.82041100  1
  Cl  Cl1_6  1  0.75000000  0.75000000  0.32041100  1
  Cl  Cl1_7  1  0.75000000  0.75000000  0.82041100  1
loop_
_geom_bond_atom_site_label_1
_geom_bond_atom_site_label_2
_geom_bond_distance
_geom_bond_site_symmetry_2
Na0_0 Na3_6 3.806180 1_445
Na0_0 Na3_2 3.806180 1_545
Na0_0 Na3_4 3.806180 1_455
Na0_0 Na3_0 3.806180 1_555
Na0_1 Na3_7 3.806180 1_445
Na0_1 Na3_3 3.806180 1_545
Na0_1 Na3_5 3.806180 1_455
Na0_1 Na3_1 3.806180 1_555
Na0_2 Na3_4 3.806180 1_455
Na0_2 Na3_0 3.806180 1_555
Na0_2 Na3_6 3.806180 1_455
Na0_2 Na3_2 3.806180 1_555
Na0_3 Na3_5 3.806180 1_455
Na0_3 Na3_1 3.806180 1_555
Na0_3 Na3_7 3.806180 1_455
Na0_3 Na3_3 3.806180 1_555
Na0_4 Na3_2 3.806180 1_545
Na0_4 Na3_0 3.806180 1_555
Na0_4 Na3_6 3.806180 1_545
Na0_4 Na3_4 3.806180 1_555
Na0_5 Na3_3 3.806180 1_545
Na0_5 Na3_7 3.806180 1_545
Na0_5 Na3_1 3.806180 1_555
Na0_5 Na3_5 3.806180 1_555
Na0_6 Na3_0 3.806180 1_555
Na0_6 Na3_2 3.806180 1_555
Na0_6 Na3_6 3.806180 1_555
Na0_6 Na3_4 3.806180 1_555
Na0_7 Na3_1 3.806180 1_555
Na0_7 Na3_5 3.806180 1_555
Na0_7 Na3_3 3.806180 1_555
Na0_7 Na3_7 3.806180 1_555
Na1_0 Na3_7 3.806180 1_445
Na1_0 Na3_5 3.806180 1_455
Na1_0 Na3_3 3.806180 1_545
Na1_0 Na3_1 3.806180 1_555
Na1_1 Na3_2 3.806180 1_546
Na1_1 Na3_6 3.806180 1_446
Na1_1 Na3_0 3.806180 1_556
Na1_1 Na3_4 3.806180 1_456
Na1_2 Na3_5 3.806180 1_455
Na1_2 Na3_1 3.806180 1_555
Na1_2 Na3_7 3.806180 1_455
Na1_2 Na3_3 3.806180 1_555
Na1_3 Na3_0 3.806180 1_556
Na1_3 Na3_4 3.806180 1_456
Na1_3 Na3_6 3.806180 1_456
Na1_3 Na3_2 3.806180 1_556
Na1_4 Na3_3 3.806180 1_545
Na1_4 Na3_7 3.806180 1_545
Na1_4 Na3_1 3.806180 1_555
Na1_4 Na3_5 3.806180 1_555
Na1_5 Na3_2 3.806180 1_546
Na1_5 Na3_0 3.806180 1_556
Na1_5 Na3_6 3.806180 1_546
Na1_5 Na3_4 3.806180 1_556
Na1_6 Na3_1 3.806180 1_555
Na1_6 Na3_5 3.806180 1_555
Na1_6 Na3_3 3.806180 1_555
Na1_6 Na3_7 3.806180 1_555
Na1_7 Na3_0 3.806180 1_556
Na1_7 Na3_2 3.806180 1_556
Na1_7 Na3_4 3.806180 1_556
Na1_7 Na3_6 3.806180 1_556
Na3_0 Na3_2 3.556088 1_545
Na3_0 Na3_4 3.556088 1_455
Na3_0 Na3_4 3.556088 1_555
Na3_0 Na3_2 3.556088 1_555
Na3_1 Na3_5 3.556088 1_455
Na3_1 Na3_3 3.556088 1_545
Na3_1 Na3_3 3.556088 1_555
Na3_1 Na3_5 3.556088 1_555
Na3_2 Na3_6 3.556088 1_455
Na3_2 Na3_6 3.556088 1_555
Na3_3 Na3_7 3.556088 1_455
Na3_3 Na3_7 3.556088 1_555
Na3_4 Na3_6 3.556088 1_545
Na3_4 Na3_6 3.556088 1_555
Na3_5 Na3_7 3.556088 1_545
Na3_5 Na3_7 3.556088 1_555
Cl0_0 Na0_6 3.016186 1_555
Cl0_0 Na0_0 3.016186 1_555
Cl0_0 Na0_4 3.016186 1_555
Cl0_0 Na0_2 3.016186 1_555
Cl0_0 Na2_6 3.076933 1_555
Cl0_0 Na2_2 3.076933 1_555
Cl0_0 Na2_0 3.076933 1_555
Cl0_0 Na2_4 3.076933 1_555
Cl0_1 Na0_3 3.016186 1_555
Cl0_1 Na0_1 3.016186 1_555
Cl0_1 Na0_7 3.016186 1_555
Cl0_1 Na0_5 3.016186 1_555
Cl0_1 Na2_5 3.076933 1_555
Cl0_1 Na2_3 3.076933 1_555
Cl0_1 Na2_7 3.076933 1_555
Cl0_1 Na2_1 3.076933 1_555
Cl0_2 Na0_4 3.016186 1_565
Cl0_2 Na0_0 3.016186 1_565
Cl0_2 Na0_6 3.016186 1_555
Cl0_2 Na0_2 3.016186 1_555
Cl0_2 Na2_4 3.076933 1_565
Cl0_2 Na2_0 3.076933 1_565
Cl0_2 Na2_2 3.076933 1_555
Cl0_2 Na2_6 3.076933 1_555
Cl0_3 Na0_1 3.016186 1_565
Cl0_3 Na0_5 3.016186 1_565
Cl0_3 Na0_3 3.016186 1_555
Cl0_3 Na0_7 3.016186 1_555
Cl0_3 Na2_1 3.076933 1_565
Cl0_3 Na2_5 3.076933 1_565
Cl0_3 Na2_3 3.076933 1_555
Cl0_3 Na2_7 3.076933 1_555
Cl0_4 Na0_0 3.016186 1_655
Cl0_4 Na0_2 3.016186 1_655
Cl0_4 Na0_4 3.016186 1_555
Cl0_4 Na0_6 3.016186 1_555
Cl0_4 Na2_2 3.076933 1_655
Cl0_4 Na2_0 3.076933 1_655
Cl0_4 Na2_4 3.076933 1_555
Cl0_4 Na2_6 3.076933 1_555
Cl0_5 Na0_1 3.016186 1_655
Cl0_5 Na0_3 3.016186 1_655
Cl0_5 Na0_7 3.016186 1_555
Cl0_5 Na0_5 3.016186 1_555
Cl0_5 Na2_1 3.076933 1_655
Cl0_5 Na2_3 3.076933 1_655
Cl0_5 Na2_7 3.076933 1_555
Cl0_5 Na2_5 3.076933 1_555
Cl0_6 Na0_0 3.016186 1_665
Cl0_6 Na0_4 3.016186 1_565
Cl0_6 Na0_2 3.016186 1_655
Cl0_6 Na0_6 3.016186 1_555
Cl0_6 Na2_0 3.076933 1_665
Cl0_6 Na2_2 3.076933 1_655
Cl0_6 Na2_4 3.076933 1_565
Cl0_6 Na2_6 3.076933 1_555
Cl0_7 Na0_1 3.016186 1_665
Cl0_7 Na0_3 3.016186 1_655
Cl0_7 Na0_5 3.016186 1_565
Cl0_7 Na0_7 3.016186 1_555
Cl0_7 Na2_1 3.076933 1_665
Cl0_7 Na2_5 3.076933 1_565
Cl0_7 Na2_3 3.076933 1_655
Cl0_7 Na2_7 3.076933 1_555
Cl1_0 Na1_4 3.016186 1_555
Cl1_0 Na1_2 3.016186 1_555
Cl1_0 Na1_6 3.016186 1_555
Cl1_0 Na1_0 3.016186 1_555
Cl1_0 Na2_6 3.076933 1_555
Cl1_0 Na2_0 3.076933 1_555
Cl1_0 Na2_4 3.076933 1_555
Cl1_0 Na2_2 3.076933 1_555
Cl1_1 Na1_3 3.016186 1_555
Cl1_1 Na1_7 3.016186 1_555
Cl1_1 Na1_1 3.016186 1_555
Cl1_1 Na1_5 3.016186 1_555
Cl1_1 Na2_3 3.076933 1_555
Cl1_1 Na2_7 3.076933 1_555
Cl1_1 Na2_1 3.076933 1_555
Cl1_1 Na2_5 3.076933 1_555
Cl1_2 Na1_0 3.016186 1_565
Cl1_2 Na1_4 3.016186 1_565
Cl1_2 Na1_6 3.016186 1_555
Cl1_2 Na1_2 3.016186 1_555
Cl1_2 Na2_0 3.076933 1_565
Cl1_2 Na2_4 3.076933 1_565
Cl1_2 Na2_6 3.076933 1_555
Cl1_2 Na2_2 3.076933 1_555
Cl1_3 Na1_1 3.016186 1_565
Cl1_3 Na1_5 3.016186 1_565
Cl1_3 Na1_3 3.016186 1_555
Cl1_3 Na1_7 3.016186 1_555
Cl1_3 Na2_1 3.076933 1_565
Cl1_3 Na2_5 3.076933 1_565
Cl1_3 Na2_3 3.076933 1_555
Cl1_3 Na2_7 3.076933 1_555
Cl1_4 Na1_2 3.016186 1_655
Cl1_4 Na1_0 3.016186 1_655
Cl1_4 Na1_4 3.016186 1_555
Cl1_4 Na1_6 3.016186 1_555
Cl1_4 Na2_0 3.076933 1_655
Cl1_4 Na2_2 3.076933 1_655
Cl1_4 Na2_6 3.076933 1_555
Cl1_4 Na2_4 3.076933 1_555
Cl1_5 Na1_1 3.016186 1_655
Cl1_5 Na1_3 3.016186 1_655
Cl1_5 Na1_5 3.016186 1_555
Cl1_5 Na1_7 3.016186 1_555
Cl1_5 Na2_3 3.076933 1_655
Cl1_5 Na2_1 3.076933 1_655
Cl1_5 Na2_5 3.076933 1_555
Cl1_5 Na2_7 3.076933 1_555
Cl1_6 Na1_0 3.016186 1_665
Cl1_6 Na1_4 3.016186 1_565
Cl1_6 Na1_2 3.016186 1_655
Cl1_6 Na1_6 3.016186 1_555
Cl1_6 Na2_0 3.076933 1_665
Cl1_6 Na2_2 3.076933 1_655
Cl1_6 Na2_4 3.076933 1_565
Cl1_6 Na2_6 3.076933 1_555
Cl1_7 Na1_1 3.016186 1_665
Cl1_7 Na1_5 3.016186 1_565
Cl1_7 Na1_3 3.016186 1_655
Cl1_7 Na1_7 3.016186 1_555
Cl1_7 Na2_1 3.076933 1_665
Cl1_7 Na2_3 3.076933 1_655
Cl1_7 Na2_5 3.076933 1_565
Cl1_7 Na2_7 3.076933 1_555
