# generated using pymatgen
data_SrRhN2
_symmetry_space_group_name_H-M   'P 1'
_cell_length_a   6.08802180
_cell_length_b   8.35707000
_cell_length_c   5.32945896
_cell_angle_alpha   90.00000000
_cell_angle_beta   110.66380197
_cell_angle_gamma   90.00000000
_symmetry_Int_Tables_number   1
_chemical_formula_structural   SrRhN2
_chemical_formula_sum   'Sr4 Rh4 N8'
_cell_volume   253.70834272
_cell_formula_units_Z   4
loop_
 _symmetry_equiv_pos_site_id
 _symmetry_equiv_pos_as_xyz
  1  'x, y, z'
loop_
 _atom_site_type_symbol
 _atom_site_label
 _atom_site_symmetry_multiplicity
 _atom_site_fract_x
 _atom_site_fract_y
 _atom_site_fract_z
 _atom_site_occupancy
  Sr  Sr0  1  0.33402100  0.89685800  0.65449900  1
  Sr  Sr1  1  0.66597900  0.39685800  0.84550100  1
  Sr  Sr2  1  0.66597900  0.10314200  0.34550100  1
  Sr  Sr3  1  0.33402100  0.60314200  0.15449900  1
  Rh  Rh0  1  0.10650600  0.35822600  0.57021200  1
  Rh  Rh1  1  0.89349400  0.85822600  0.92978800  1
  Rh  Rh2  1  0.89349400  0.64177400  0.42978800  1
  Rh  Rh3  1  0.10650600  0.14177400  0.07021200  1
  N  N0  1  0.24196000  0.91536900  0.09174300  1
  N  N1  1  0.75804000  0.41536900  0.40825700  1
  N  N2  1  0.75804000  0.08463100  0.90825700  1
  N  N3  1  0.24196000  0.58463100  0.59174300  1
  N  N4  1  0.23289600  0.32231700  0.95913700  1
  N  N5  1  0.76710400  0.82231700  0.54086300  1
  N  N6  1  0.76710400  0.67768300  0.04086300  1
  N  N7  1  0.23289600  0.17768300  0.45913700  1
loop_
_geom_bond_atom_site_label_1
_geom_bond_atom_site_label_2
_geom_bond_distance
_geom_bond_site_symmetry_2
N0 Rh1 2.044833 1_454
N0 Rh3 2.050951 1_565
N0 Sr0 2.586503 1_554
N0 Sr3 2.664986 1_555
N0 Sr0 2.854261 1_555
N0 Sr2 2.913993 1_565
N1 Rh0 2.044833 1_655
N1 Rh2 2.050951 1_555
N1 Sr1 2.586503 1_555
N1 Sr2 2.664986 1_555
N1 Sr1 2.854261 1_554
N1 Sr3 2.913993 1_555
N2 Rh3 2.044833 1_656
N2 Rh1 2.050951 1_545
N2 Sr2 2.586503 1_556
N2 Sr1 2.664986 1_555
N2 Sr2 2.854261 1_555
N2 Sr0 2.913993 1_545
N3 Rh2 2.044833 1_455
N3 Rh0 2.050951 1_555
N3 Sr3 2.586503 1_555
N3 Sr0 2.664986 1_555
N3 Sr3 2.854261 1_556
N3 Sr1 2.913993 1_555
N4 Rh3 1.881619 1_556
N4 Rh0 1.962862 1_555
N4 Sr3 2.553134 1_556
N4 Sr1 2.972129 1_555
N5 Rh2 1.881619 1_555
N5 Rh1 1.962862 1_555
N5 Sr2 2.553134 1_565
N5 Sr0 2.972129 1_555
N6 Rh1 1.881619 1_554
N6 Rh2 1.962862 1_555
N6 Sr1 2.553134 1_554
N6 Sr3 2.972129 1_555
N7 Rh0 1.881619 1_555
N7 Rh3 1.962862 1_555
N7 Sr0 2.553134 1_545
N7 Sr2 2.972129 1_555
