# generated using pymatgen
data_Mn4Cu
_symmetry_space_group_name_H-M   'P 1'
_cell_length_a   20.90532511
_cell_length_b   20.90532511
_cell_length_c   20.90532513
_cell_angle_alpha   13.68992265
_cell_angle_beta   13.68992265
_cell_angle_gamma   13.68992165
_symmetry_Int_Tables_number   1
_chemical_formula_structural   Mn4Cu
_chemical_formula_sum   'Mn32 Cu8'
_cell_volume   445.28584061
_cell_formula_units_Z   8
loop_
 _symmetry_equiv_pos_site_id
 _symmetry_equiv_pos_as_xyz
  1  'x, y, z'
loop_
 _atom_site_type_symbol
 _atom_site_label
 _atom_site_symmetry_multiplicity
 _atom_site_fract_x
 _atom_site_fract_y
 _atom_site_fract_z
 _atom_site_occupancy
  Mn  Mn0_0  1  0.29817350  0.29817350  0.29817350  1
  Mn  Mn0_1  1  0.29817350  0.29817350  0.79817350  1
  Mn  Mn0_2  1  0.29817350  0.79817350  0.29817350  1
  Mn  Mn0_3  1  0.29817350  0.79817350  0.79817350  1
  Mn  Mn0_4  1  0.79817350  0.29817350  0.29817350  1
  Mn  Mn0_5  1  0.79817350  0.29817350  0.79817350  1
  Mn  Mn0_6  1  0.79817350  0.79817350  0.29817350  1
  Mn  Mn0_7  1  0.79817350  0.79817350  0.79817350  1
  Mn  Mn1_0  1  0.10048850  0.10048850  0.10048850  1
  Mn  Mn1_1  1  0.10048850  0.10048850  0.60048850  1
  Mn  Mn1_2  1  0.10048850  0.60048850  0.10048850  1
  Mn  Mn1_3  1  0.10048850  0.60048850  0.60048850  1
  Mn  Mn1_4  1  0.60048850  0.10048850  0.10048850  1
  Mn  Mn1_5  1  0.60048850  0.10048850  0.60048850  1
  Mn  Mn1_6  1  0.60048850  0.60048850  0.10048850  1
  Mn  Mn1_7  1  0.60048850  0.60048850  0.60048850  1
  Mn  Mn2_0  1  0.39951150  0.39951150  0.39951150  1
  Mn  Mn2_1  1  0.39951150  0.39951150  0.89951150  1
  Mn  Mn2_2  1  0.39951150  0.89951150  0.39951150  1
  Mn  Mn2_3  1  0.39951150  0.89951150  0.89951150  1
  Mn  Mn2_4  1  0.89951150  0.39951150  0.39951150  1
  Mn  Mn2_5  1  0.89951150  0.39951150  0.89951150  1
  Mn  Mn2_6  1  0.89951150  0.89951150  0.39951150  1
  Mn  Mn2_7  1  0.89951150  0.89951150  0.89951150  1
  Mn  Mn3_0  1  0.20182650  0.20182650  0.20182650  1
  Mn  Mn3_1  1  0.20182650  0.20182650  0.70182650  1
  Mn  Mn3_2  1  0.20182650  0.70182650  0.20182650  1
  Mn  Mn3_3  1  0.20182650  0.70182650  0.70182650  1
  Mn  Mn3_4  1  0.70182650  0.20182650  0.20182650  1
  Mn  Mn3_5  1  0.70182650  0.20182650  0.70182650  1
  Mn  Mn3_6  1  0.70182650  0.70182650  0.20182650  1
  Mn  Mn3_7  1  0.70182650  0.70182650  0.70182650  1
  Cu  Cu0_0  1  0.00000000  0.00000000  0.00000000  1
  Cu  Cu0_1  1  0.00000000  0.00000000  0.50000000  1
  Cu  Cu0_2  1  0.00000000  0.50000000  0.00000000  1
  Cu  Cu0_3  1  0.00000000  0.50000000  0.50000000  1
  Cu  Cu0_4  1  0.50000000  0.00000000  0.00000000  1
  Cu  Cu0_5  1  0.50000000  0.00000000  0.50000000  1
  Cu  Cu0_6  1  0.50000000  0.50000000  0.00000000  1
  Cu  Cu0_7  1  0.50000000  0.50000000  0.50000000  1
loop_
_geom_bond_atom_site_label_1
_geom_bond_atom_site_label_2
_geom_bond_distance
_geom_bond_site_symmetry_2
Mn0_0 Mn1_4 2.404576 1_555
Mn0_0 Mn1_2 2.404576 1_555
Mn0_0 Mn1_1 2.404576 1_555
Mn0_0 Mn0_6 2.491562 1_545
Mn0_0 Mn0_6 2.491562 1_455
Mn0_0 Mn0_3 2.491562 1_545
Mn0_0 Mn0_5 2.491562 1_455
Mn0_0 Mn0_5 2.491562 1_554
Mn0_0 Mn0_3 2.491562 1_554
Mn0_1 Mn1_5 2.404576 1_555
Mn0_1 Mn1_3 2.404576 1_555
Mn0_1 Mn1_0 2.404576 1_556
Mn0_1 Mn0_7 2.491562 1_455
Mn0_1 Mn0_7 2.491562 1_545
Mn0_1 Mn0_4 2.491562 1_555
Mn0_1 Mn0_2 2.491562 1_555
Mn0_1 Mn0_2 2.491562 1_546
Mn0_1 Mn0_4 2.491562 1_456
Mn0_2 Mn1_6 2.404576 1_555
Mn0_2 Mn1_0 2.404576 1_565
Mn0_2 Mn1_3 2.404576 1_555
Mn0_2 Mn0_4 2.491562 1_555
Mn0_2 Mn0_4 2.491562 1_465
Mn0_2 Mn0_7 2.491562 1_554
Mn0_2 Mn0_7 2.491562 1_455
Mn0_3 Mn1_1 2.404576 1_565
Mn0_3 Mn1_7 2.404576 1_555
Mn0_3 Mn1_2 2.404576 1_556
Mn0_3 Mn0_5 2.491562 1_555
Mn0_3 Mn0_5 2.491562 1_465
Mn0_3 Mn0_6 2.491562 1_555
Mn0_3 Mn0_6 2.491562 1_456
Mn0_4 Mn1_6 2.404576 1_555
Mn0_4 Mn1_0 2.404576 1_655
Mn0_4 Mn1_5 2.404576 1_555
Mn0_4 Mn0_7 2.491562 1_554
Mn0_4 Mn0_7 2.491562 1_545
Mn0_5 Mn1_1 2.404576 1_655
Mn0_5 Mn1_7 2.404576 1_555
Mn0_5 Mn1_4 2.404576 1_556
Mn0_5 Mn0_6 2.491562 1_555
Mn0_5 Mn0_6 2.491562 1_546
Mn0_6 Mn1_4 2.404576 1_565
Mn0_6 Mn1_2 2.404576 1_655
Mn0_6 Mn1_7 2.404576 1_555
Mn0_7 Mn1_3 2.404576 1_655
Mn0_7 Mn1_5 2.404576 1_565
Mn0_7 Mn1_6 2.404576 1_556
Mn1_0 Mn1_6 2.491562 1_455
Mn1_0 Mn1_6 2.491562 1_545
Mn1_0 Mn1_3 2.491562 1_545
Mn1_0 Mn1_5 2.491562 1_455
Mn1_0 Mn1_5 2.491562 1_554
Mn1_0 Mn1_3 2.491562 1_554
Mn1_0 Mn2_5 2.571355 1_454
Mn1_0 Mn2_3 2.571355 1_544
Mn1_0 Mn2_6 2.571355 1_445
Mn1_1 Mn1_7 2.491562 1_545
Mn1_1 Mn1_7 2.491562 1_455
Mn1_1 Mn1_4 2.491562 1_555
Mn1_1 Mn1_2 2.491562 1_546
Mn1_1 Mn1_4 2.491562 1_456
Mn1_1 Mn1_2 2.491562 1_555
Mn1_1 Mn2_4 2.571355 1_455
Mn1_1 Mn2_2 2.571355 1_545
Mn1_1 Mn2_7 2.571355 1_445
Mn1_2 Mn1_4 2.491562 1_465
Mn1_2 Mn1_4 2.491562 1_555
Mn1_2 Mn1_7 2.491562 1_455
Mn1_2 Mn1_7 2.491562 1_554
Mn1_2 Mn2_7 2.571355 1_454
Mn1_2 Mn2_1 2.571355 1_554
Mn1_2 Mn2_4 2.571355 1_455
Mn1_3 Mn1_5 2.491562 1_465
Mn1_3 Mn1_5 2.491562 1_555
Mn1_3 Mn1_6 2.491562 1_456
Mn1_3 Mn1_6 2.491562 1_555
Mn1_3 Mn2_6 2.571355 1_455
Mn1_3 Mn2_0 2.571355 1_555
Mn1_3 Mn2_5 2.571355 1_455
Mn1_4 Mn1_7 2.491562 1_545
Mn1_4 Mn1_7 2.491562 1_554
Mn1_4 Mn2_7 2.571355 1_544
Mn1_4 Mn2_1 2.571355 1_554
Mn1_4 Mn2_2 2.571355 1_545
Mn1_5 Mn1_6 2.491562 1_546
Mn1_5 Mn1_6 2.491562 1_555
Mn1_5 Mn2_6 2.571355 1_545
Mn1_5 Mn2_0 2.571355 1_555
Mn1_5 Mn2_3 2.571355 1_545
Mn1_6 Mn2_5 2.571355 1_554
Mn1_6 Mn2_3 2.571355 1_554
Mn1_6 Mn2_0 2.571355 1_555
Mn1_7 Mn2_4 2.571355 1_555
Mn1_7 Mn2_2 2.571355 1_555
Mn1_7 Mn2_1 2.571355 1_555
Mn2_0 Mn3_2 2.404576 1_555
Mn2_0 Mn3_4 2.404576 1_555
Mn2_0 Mn3_1 2.404576 1_555
Mn2_0 Mn2_6 2.491562 1_455
Mn2_0 Mn2_6 2.491562 1_545
Mn2_0 Mn2_3 2.491562 1_554
Mn2_0 Mn2_5 2.491562 1_554
Mn2_0 Mn2_5 2.491562 1_455
Mn2_0 Mn2_3 2.491562 1_545
Mn2_1 Mn3_3 2.404576 1_555
Mn2_1 Mn3_5 2.404576 1_555
Mn2_1 Mn3_0 2.404576 1_556
Mn2_1 Mn2_7 2.491562 1_455
Mn2_1 Mn2_7 2.491562 1_545
Mn2_1 Mn2_4 2.491562 1_555
Mn2_1 Mn2_2 2.491562 1_555
Mn2_1 Mn2_4 2.491562 1_456
Mn2_1 Mn2_2 2.491562 1_546
Mn2_2 Mn3_6 2.404576 1_555
Mn2_2 Mn3_0 2.404576 1_565
Mn2_2 Mn3_3 2.404576 1_555
Mn2_2 Mn2_4 2.491562 1_555
Mn2_2 Mn2_4 2.491562 1_465
Mn2_2 Mn2_7 2.491562 1_455
Mn2_2 Mn2_7 2.491562 1_554
Mn2_3 Mn3_1 2.404576 1_565
Mn2_3 Mn3_7 2.404576 1_555
Mn2_3 Mn3_2 2.404576 1_556
Mn2_3 Mn2_5 2.491562 1_555
Mn2_3 Mn2_5 2.491562 1_465
Mn2_3 Mn2_6 2.491562 1_456
Mn2_3 Mn2_6 2.491562 1_555
Mn2_4 Mn3_6 2.404576 1_555
Mn2_4 Mn3_0 2.404576 1_655
Mn2_4 Mn3_5 2.404576 1_555
Mn2_4 Mn2_7 2.491562 1_545
Mn2_4 Mn2_7 2.491562 1_554
Mn2_5 Mn3_1 2.404576 1_655
Mn2_5 Mn3_7 2.404576 1_555
Mn2_5 Mn3_4 2.404576 1_556
Mn2_5 Mn2_6 2.491562 1_546
Mn2_5 Mn2_6 2.491562 1_555
Mn2_6 Mn3_4 2.404576 1_565
Mn2_6 Mn3_2 2.404576 1_655
Mn2_6 Mn3_7 2.404576 1_555
Mn2_7 Mn3_5 2.404576 1_565
Mn2_7 Mn3_3 2.404576 1_655
Mn2_7 Mn3_6 2.404576 1_556
Mn3_0 Mn3_6 2.491562 1_455
Mn3_0 Mn3_6 2.491562 1_545
Mn3_0 Mn3_3 2.491562 1_545
Mn3_0 Mn3_5 2.491562 1_455
Mn3_0 Mn3_5 2.491562 1_554
Mn3_0 Mn3_3 2.491562 1_554
Mn3_1 Mn3_7 2.491562 1_455
Mn3_1 Mn3_7 2.491562 1_545
Mn3_1 Mn3_4 2.491562 1_555
Mn3_1 Mn3_2 2.491562 1_555
Mn3_1 Mn3_4 2.491562 1_456
Mn3_1 Mn3_2 2.491562 1_546
Mn3_2 Mn3_4 2.491562 1_465
Mn3_2 Mn3_4 2.491562 1_555
Mn3_2 Mn3_7 2.491562 1_455
Mn3_2 Mn3_7 2.491562 1_554
Mn3_3 Mn3_5 2.491562 1_465
Mn3_3 Mn3_5 2.491562 1_555
Mn3_3 Mn3_6 2.491562 1_555
Mn3_3 Mn3_6 2.491562 1_456
Mn3_4 Mn3_7 2.491562 1_545
Mn3_4 Mn3_7 2.491562 1_554
Mn3_5 Mn3_6 2.491562 1_555
Mn3_5 Mn3_6 2.491562 1_546
Cu0_0 Cu0_6 2.491562 1_455
Cu0_0 Cu0_6 2.491562 1_545
Cu0_0 Cu0_5 2.491562 1_455
Cu0_0 Cu0_3 2.491562 1_545
Cu0_0 Cu0_5 2.491562 1_554
Cu0_0 Cu0_3 2.491562 1_554
Cu0_0 Mn3_4 2.615262 1_455
Cu0_0 Mn3_2 2.615262 1_545
Cu0_0 Mn0_5 2.615262 1_454
Cu0_0 Mn0_3 2.615262 1_544
Cu0_0 Mn3_1 2.615262 1_554
Cu0_0 Mn0_6 2.615262 1_445
Cu0_1 Cu0_7 2.491562 1_545
Cu0_1 Cu0_7 2.491562 1_455
Cu0_1 Cu0_4 2.491562 1_555
Cu0_1 Cu0_2 2.491562 1_555
Cu0_1 Cu0_4 2.491562 1_456
Cu0_1 Cu0_2 2.491562 1_546
Cu0_1 Mn3_3 2.615262 1_545
Cu0_1 Mn3_5 2.615262 1_455
Cu0_1 Mn0_2 2.615262 1_545
Cu0_1 Mn0_4 2.615262 1_455
Cu0_1 Mn3_0 2.615262 1_555
Cu0_1 Mn0_7 2.615262 1_445
Cu0_2 Cu0_4 2.491562 1_555
Cu0_2 Cu0_4 2.491562 1_465
Cu0_2 Cu0_7 2.491562 1_554
Cu0_2 Cu0_7 2.491562 1_455
Cu0_2 Mn3_0 2.615262 1_555
Cu0_2 Mn3_6 2.615262 1_455
Cu0_2 Mn0_1 2.615262 1_554
Cu0_2 Mn0_7 2.615262 1_454
Cu0_2 Mn0_4 2.615262 1_455
Cu0_2 Mn3_3 2.615262 1_554
Cu0_3 Cu0_5 2.491562 1_465
Cu0_3 Cu0_5 2.491562 1_555
Cu0_3 Cu0_6 2.491562 1_555
Cu0_3 Cu0_6 2.491562 1_456
Cu0_3 Mn3_7 2.615262 1_455
Cu0_3 Mn3_1 2.615262 1_555
Cu0_3 Mn0_0 2.615262 1_555
Cu0_3 Mn0_6 2.615262 1_455
Cu0_3 Mn3_2 2.615262 1_555
Cu0_3 Mn0_5 2.615262 1_455
Cu0_4 Cu0_7 2.491562 1_545
Cu0_4 Cu0_7 2.491562 1_554
Cu0_4 Mn3_0 2.615262 1_555
Cu0_4 Mn3_6 2.615262 1_545
Cu0_4 Mn0_1 2.615262 1_554
Cu0_4 Mn0_7 2.615262 1_544
Cu0_4 Mn3_5 2.615262 1_554
Cu0_4 Mn0_2 2.615262 1_545
Cu0_5 Cu0_6 2.491562 1_555
Cu0_5 Cu0_6 2.491562 1_546
Cu0_5 Mn3_7 2.615262 1_545
Cu0_5 Mn3_1 2.615262 1_555
Cu0_5 Mn0_0 2.615262 1_555
Cu0_5 Mn0_6 2.615262 1_545
Cu0_5 Mn3_4 2.615262 1_555
Cu0_5 Mn0_3 2.615262 1_545
Cu0_6 Mn3_4 2.615262 1_555
Cu0_6 Mn3_2 2.615262 1_555
Cu0_6 Mn0_5 2.615262 1_554
Cu0_6 Mn0_3 2.615262 1_554
Cu0_6 Mn3_7 2.615262 1_554
Cu0_6 Mn0_0 2.615262 1_555
Cu0_7 Mn0_2 2.615262 1_555
Cu0_7 Mn0_4 2.615262 1_555
Cu0_7 Mn3_3 2.615262 1_555
Cu0_7 Mn3_5 2.615262 1_555
Cu0_7 Mn3_6 2.615262 1_555
Cu0_7 Mn0_1 2.615262 1_555
