# generated using pymatgen
data_DyYFe4
_symmetry_space_group_name_H-M   'P 1'
_cell_length_a   5.17946692
_cell_length_b   5.18199578
_cell_length_c   5.18168773
_cell_angle_alpha   89.99416327
_cell_angle_beta   59.99288103
_cell_angle_gamma   120.00884239
_symmetry_Int_Tables_number   1
_chemical_formula_structural   DyYFe4
_chemical_formula_sum   'Dy1 Y1 Fe4'
_cell_volume   98.31310220
_cell_formula_units_Z   1
loop_
 _symmetry_equiv_pos_site_id
 _symmetry_equiv_pos_as_xyz
  1  'x, y, z'
loop_
 _atom_site_type_symbol
 _atom_site_label
 _atom_site_symmetry_multiplicity
 _atom_site_fract_x
 _atom_site_fract_y
 _atom_site_fract_z
 _atom_site_occupancy
  Dy  Dy0  1  0.49999384  0.74999485  0.75000107  1
  Y  Y0  1  0.00000336  0.00000462  0.00000088  1
  Fe  Fe0  1  0.75036854  0.37518473  0.87444626  1
  Fe  Fe1  1  0.24962975  0.37518210  0.37518853  1
  Fe  Fe2  1  0.24963213  0.87444669  0.37518408  1
  Fe  Fe3  1  0.75037238  0.37519001  0.37518018  1
loop_
_geom_bond_atom_site_label_1
_geom_bond_atom_site_label_2
_geom_bond_distance
_geom_bond_site_symmetry_2
Dy0 Fe0 3.035722 1_455
Dy0 Fe2 3.035792 1_655
Dy0 Fe3 3.035897 1_456
Dy0 Fe1 3.035986 1_665
Dy0 Fe2 3.037239 1_555
Dy0 Fe0 3.037348 1_555
Dy0 Fe1 3.037460 1_556
Dy0 Fe1 3.037514 1_555
Dy0 Fe3 3.037581 1_565
Dy0 Fe2 3.037607 1_556
Dy0 Fe3 3.037622 1_555
Dy0 Fe0 3.037727 1_565
Fe0 Fe1 2.586181 1_655
Fe0 Fe2 2.586210 1_655
Fe0 Fe3 2.587031 1_555
Fe0 Fe1 2.593839 1_556
Fe0 Fe2 2.593855 1_546
Fe0 Fe3 2.594657 1_556
Fe0 Y0 3.036538 1_556
Fe0 Y0 3.038166 1_656
Fe0 Y0 3.038545 1_666
Fe1 Fe3 2.585929 1_455
Fe1 Fe2 2.587181 1_555
Fe1 Fe3 2.593538 1_555
Fe1 Fe2 2.594815 1_545
Fe1 Y0 3.036806 1_665
Fe1 Y0 3.038239 1_556
Fe1 Y0 3.038349 1_555
Fe2 Fe3 2.586187 1_455
Fe2 Fe3 2.593852 1_565
Fe2 Y0 3.036584 1_665
Fe2 Y0 3.038064 1_565
Fe2 Y0 3.038434 1_566
Fe3 Y0 3.036753 1_556
Fe3 Y0 3.038344 1_665
Fe3 Y0 3.038445 1_655
