# generated using pymatgen
data_Ho2InNi2
_symmetry_space_group_name_H-M   'P 1'
_cell_length_a   7.04120116
_cell_length_b   14.66091238
_cell_length_c   14.66091238
_cell_angle_alpha   89.99990886
_cell_angle_beta   90.00000000
_cell_angle_gamma   90.00000000
_symmetry_Int_Tables_number   1
_chemical_formula_structural   Ho2InNi2
_chemical_formula_sum   'Ho32 In16 Ni32'
_cell_volume   1513.45233693
_cell_formula_units_Z   16
loop_
 _symmetry_equiv_pos_site_id
 _symmetry_equiv_pos_as_xyz
  1  'x, y, z'
loop_
 _atom_site_type_symbol
 _atom_site_label
 _atom_site_symmetry_multiplicity
 _atom_site_fract_x
 _atom_site_fract_y
 _atom_site_fract_z
 _atom_site_occupancy
  Ho  Ho0_0  1  0.25000000  0.08721254  0.33721253  1
  Ho  Ho0_1  1  0.25000000  0.08721254  0.83721254  1
  Ho  Ho0_2  1  0.25000000  0.58721254  0.33721253  1
  Ho  Ho0_3  1  0.25000000  0.58721254  0.83721254  1
  Ho  Ho0_4  1  0.75000000  0.08721254  0.33721253  1
  Ho  Ho0_5  1  0.75000000  0.08721254  0.83721254  1
  Ho  Ho0_6  1  0.75000000  0.58721254  0.33721253  1
  Ho  Ho0_7  1  0.75000000  0.58721254  0.83721254  1
  Ho  Ho1_0  1  0.25000000  0.41278747  0.16278746  1
  Ho  Ho1_1  1  0.25000000  0.41278747  0.66278746  1
  Ho  Ho1_2  1  0.25000000  0.91278747  0.16278746  1
  Ho  Ho1_3  1  0.25000000  0.91278746  0.66278746  1
  Ho  Ho1_4  1  0.75000000  0.41278747  0.16278746  1
  Ho  Ho1_5  1  0.75000000  0.41278747  0.66278746  1
  Ho  Ho1_6  1  0.75000000  0.91278747  0.16278746  1
  Ho  Ho1_7  1  0.75000000  0.91278746  0.66278746  1
  Ho  Ho2_0  1  0.25000000  0.16278546  0.08721453  1
  Ho  Ho2_1  1  0.25000000  0.16278547  0.58721453  1
  Ho  Ho2_2  1  0.25000000  0.66278547  0.08721453  1
  Ho  Ho2_3  1  0.25000000  0.66278547  0.58721453  1
  Ho  Ho2_4  1  0.75000000  0.16278546  0.08721453  1
  Ho  Ho2_5  1  0.75000000  0.16278547  0.58721453  1
  Ho  Ho2_6  1  0.75000000  0.66278547  0.08721453  1
  Ho  Ho2_7  1  0.75000000  0.66278547  0.58721453  1
  Ho  Ho3_0  1  0.25000000  0.33721453  0.41278547  1
  Ho  Ho3_1  1  0.25000000  0.33721453  0.91278547  1
  Ho  Ho3_2  1  0.25000000  0.83721453  0.41278547  1
  Ho  Ho3_3  1  0.25000000  0.83721453  0.91278547  1
  Ho  Ho3_4  1  0.75000000  0.33721453  0.41278547  1
  Ho  Ho3_5  1  0.75000000  0.33721453  0.91278547  1
  Ho  Ho3_6  1  0.75000000  0.83721453  0.41278547  1
  Ho  Ho3_7  1  0.75000000  0.83721453  0.91278547  1
  In  In0_0  1  0.00000000  0.25000000  0.25000000  1
  In  In0_1  1  0.00000000  0.25000000  0.75000000  1
  In  In0_2  1  0.00000000  0.75000000  0.25000000  1
  In  In0_3  1  0.00000000  0.75000000  0.75000000  1
  In  In0_4  1  0.50000000  0.25000000  0.25000000  1
  In  In0_5  1  0.50000000  0.25000000  0.75000000  1
  In  In0_6  1  0.50000000  0.75000000  0.25000000  1
  In  In0_7  1  0.50000000  0.75000000  0.75000000  1
  In  In1_0  1  0.00000000  0.00000000  0.00000000  1
  In  In1_1  1  0.00000000  0.00000000  0.50000000  1
  In  In1_2  1  0.00000000  0.50000000  0.00000000  1
  In  In1_3  1  0.00000000  0.50000000  0.50000000  1
  In  In1_4  1  0.50000000  0.00000000  0.00000000  1
  In  In1_5  1  0.50000000  0.00000000  0.50000000  1
  In  In1_6  1  0.50000000  0.50000000  0.00000000  1
  In  In1_7  1  0.50000000  0.50000000  0.50000000  1
  Ni  Ni0_0  1  0.00000000  0.30924493  0.05924493  1
  Ni  Ni0_1  1  0.00000000  0.30924493  0.55924493  1
  Ni  Ni0_2  1  0.00000000  0.80924493  0.05924493  1
  Ni  Ni0_3  1  0.00000000  0.80924493  0.55924493  1
  Ni  Ni0_4  1  0.50000000  0.30924493  0.05924493  1
  Ni  Ni0_5  1  0.50000000  0.30924493  0.55924493  1
  Ni  Ni0_6  1  0.50000000  0.80924493  0.05924493  1
  Ni  Ni0_7  1  0.50000000  0.80924493  0.55924493  1
  Ni  Ni1_0  1  0.00000000  0.19075507  0.44075507  1
  Ni  Ni1_1  1  0.00000000  0.19075507  0.94075507  1
  Ni  Ni1_2  1  0.00000000  0.69075507  0.44075507  1
  Ni  Ni1_3  1  0.00000000  0.69075507  0.94075507  1
  Ni  Ni1_4  1  0.50000000  0.19075507  0.44075507  1
  Ni  Ni1_5  1  0.50000000  0.19075507  0.94075507  1
  Ni  Ni1_6  1  0.50000000  0.69075507  0.44075507  1
  Ni  Ni1_7  1  0.50000000  0.69075507  0.94075507  1
  Ni  Ni2_0  1  0.00000000  0.44075407  0.30924593  1
  Ni  Ni2_1  1  0.00000000  0.44075407  0.80924593  1
  Ni  Ni2_2  1  0.00000000  0.94075407  0.30924593  1
  Ni  Ni2_3  1  0.00000000  0.94075407  0.80924593  1
  Ni  Ni2_4  1  0.50000000  0.44075407  0.30924593  1
  Ni  Ni2_5  1  0.50000000  0.44075407  0.80924593  1
  Ni  Ni2_6  1  0.50000000  0.94075407  0.30924593  1
  Ni  Ni2_7  1  0.50000000  0.94075407  0.80924593  1
  Ni  Ni3_0  1  0.00000000  0.05924593  0.19075407  1
  Ni  Ni3_1  1  0.00000000  0.05924593  0.69075407  1
  Ni  Ni3_2  1  0.00000000  0.55924593  0.19075407  1
  Ni  Ni3_3  1  0.00000000  0.55924593  0.69075407  1
  Ni  Ni3_4  1  0.50000000  0.05924593  0.19075407  1
  Ni  Ni3_5  1  0.50000000  0.05924593  0.69075407  1
  Ni  Ni3_6  1  0.50000000  0.55924593  0.19075407  1
  Ni  Ni3_7  1  0.50000000  0.55924593  0.69075407  1
loop_
_geom_bond_atom_site_label_1
_geom_bond_atom_site_label_2
_geom_bond_distance
_geom_bond_site_symmetry_2
Ho0_0 Ni1_4 2.776235 1_555
Ho0_0 Ni1_0 2.776235 1_555
Ho0_0 Ni3_4 2.806654 1_555
Ho0_0 Ni3_0 2.806654 1_555
Ho0_0 Ni2_6 2.806654 1_545
Ho0_0 Ni2_2 2.806654 1_545
Ho0_0 In0_4 3.229462 1_555
Ho0_0 In0_0 3.229462 1_555
Ho0_0 In1_1 3.229462 1_555
Ho0_0 In1_5 3.229462 1_555
Ho0_1 Ni1_1 2.776235 1_555
Ho0_1 Ni1_5 2.776235 1_555
Ho0_1 Ni3_1 2.806654 1_555
Ho0_1 Ni3_5 2.806654 1_555
Ho0_1 Ni2_3 2.806654 1_545
Ho0_1 Ni2_7 2.806654 1_545
Ho0_1 In1_0 3.229462 1_556
Ho0_1 In0_1 3.229462 1_555
Ho0_1 In0_5 3.229462 1_555
Ho0_1 In1_4 3.229462 1_556
Ho0_2 Ni1_2 2.776235 1_555
Ho0_2 Ni1_6 2.776235 1_555
Ho0_2 Ni3_2 2.806654 1_555
Ho0_2 Ni3_6 2.806654 1_555
Ho0_2 Ni2_0 2.806654 1_555
Ho0_2 Ni2_4 2.806654 1_555
Ho0_2 In0_6 3.229462 1_555
Ho0_2 In0_2 3.229462 1_555
Ho0_2 In1_7 3.229462 1_555
Ho0_2 In1_3 3.229462 1_555
Ho0_3 Ni1_7 2.776235 1_555
Ho0_3 Ni1_3 2.776235 1_555
Ho0_3 Ni3_7 2.806654 1_555
Ho0_3 Ni3_3 2.806654 1_555
Ho0_3 Ni2_1 2.806654 1_555
Ho0_3 Ni2_5 2.806654 1_555
Ho0_3 In0_7 3.229462 1_555
Ho0_3 In1_6 3.229462 1_556
Ho0_3 In1_2 3.229462 1_556
Ho0_3 In0_3 3.229462 1_555
Ho0_4 Ni1_0 2.776235 1_655
Ho0_4 Ni1_4 2.776235 1_555
Ho0_4 Ni3_0 2.806654 1_655
Ho0_4 Ni3_4 2.806654 1_555
Ho0_4 Ni2_6 2.806654 1_545
Ho0_4 Ni2_2 2.806654 1_645
Ho0_4 In0_0 3.229462 1_655
Ho0_4 In0_4 3.229462 1_555
Ho0_4 In1_1 3.229462 1_655
Ho0_4 In1_5 3.229462 1_555
Ho0_5 Ni1_1 2.776235 1_655
Ho0_5 Ni1_5 2.776235 1_555
Ho0_5 Ni3_1 2.806654 1_655
Ho0_5 Ni2_3 2.806654 1_645
Ho0_5 Ni3_5 2.806654 1_555
Ho0_5 Ni2_7 2.806654 1_545
Ho0_5 In1_0 3.229462 1_656
Ho0_5 In0_1 3.229462 1_655
Ho0_5 In1_4 3.229462 1_556
Ho0_5 In0_5 3.229462 1_555
Ho0_6 Ni1_2 2.776235 1_655
Ho0_6 Ni1_6 2.776235 1_555
Ho0_6 Ni3_2 2.806654 1_655
Ho0_6 Ni3_6 2.806654 1_555
Ho0_6 Ni2_4 2.806654 1_555
Ho0_6 Ni2_0 2.806654 1_655
Ho0_6 In0_2 3.229462 1_655
Ho0_6 In0_6 3.229462 1_555
Ho0_6 In1_3 3.229462 1_655
Ho0_6 In1_7 3.229462 1_555
Ho0_7 Ni1_3 2.776235 1_655
Ho0_7 Ni1_7 2.776235 1_555
Ho0_7 Ni3_3 2.806654 1_655
Ho0_7 Ni2_1 2.806654 1_655
Ho0_7 Ni2_5 2.806654 1_555
Ho0_7 Ni3_7 2.806654 1_555
Ho0_7 In1_2 3.229462 1_656
Ho0_7 In0_3 3.229462 1_655
Ho0_7 In0_7 3.229462 1_555
Ho0_7 In1_6 3.229462 1_556
Ho1_0 Ni0_0 2.776235 1_555
Ho1_0 Ni0_4 2.776235 1_555
Ho1_0 Ni2_4 2.806654 1_555
Ho1_0 Ni3_6 2.806654 1_555
Ho1_0 Ni3_2 2.806654 1_555
Ho1_0 Ni2_0 2.806654 1_555
Ho1_0 In1_2 3.229462 1_555
Ho1_0 In1_6 3.229462 1_555
Ho1_0 In0_0 3.229462 1_555
Ho1_0 In0_4 3.229462 1_555
Ho1_1 Ni0_5 2.776235 1_555
Ho1_1 Ni0_1 2.776235 1_555
Ho1_1 Ni3_7 2.806654 1_555
Ho1_1 Ni3_3 2.806654 1_555
Ho1_1 Ni2_1 2.806654 1_555
Ho1_1 Ni2_5 2.806654 1_555
Ho1_1 In1_3 3.229462 1_555
Ho1_1 In1_7 3.229462 1_555
Ho1_1 In0_1 3.229462 1_555
Ho1_1 In0_5 3.229462 1_555
Ho1_2 Ni0_2 2.776235 1_555
Ho1_2 Ni0_6 2.776235 1_555
Ho1_2 Ni3_4 2.806654 1_565
Ho1_2 Ni3_0 2.806654 1_565
Ho1_2 Ni2_6 2.806654 1_555
Ho1_2 Ni2_2 2.806654 1_555
Ho1_2 In1_0 3.229462 1_565
Ho1_2 In1_4 3.229462 1_565
Ho1_2 In0_6 3.229462 1_555
Ho1_2 In0_2 3.229462 1_555
Ho1_3 Ni0_3 2.776235 1_555
Ho1_3 Ni0_7 2.776235 1_555
Ho1_3 Ni2_7 2.806654 1_555
Ho1_3 Ni3_1 2.806654 1_565
Ho1_3 Ni2_3 2.806654 1_555
Ho1_3 Ni3_5 2.806654 1_565
Ho1_3 In1_5 3.229462 1_565
Ho1_3 In0_7 3.229462 1_555
Ho1_3 In1_1 3.229462 1_565
Ho1_3 In0_3 3.229462 1_555
Ho1_4 Ni0_0 2.776235 1_655
Ho1_4 Ni0_4 2.776235 1_555
Ho1_4 Ni3_2 2.806654 1_655
Ho1_4 Ni2_0 2.806654 1_655
Ho1_4 Ni2_4 2.806654 1_555
Ho1_4 Ni3_6 2.806654 1_555
Ho1_4 In1_2 3.229462 1_655
Ho1_4 In0_4 3.229462 1_555
Ho1_4 In0_0 3.229462 1_655
Ho1_4 In1_6 3.229462 1_555
Ho1_5 Ni0_5 2.776235 1_555
Ho1_5 Ni0_1 2.776235 1_655
Ho1_5 Ni3_7 2.806654 1_555
Ho1_5 Ni3_3 2.806654 1_655
Ho1_5 Ni2_1 2.806654 1_655
Ho1_5 Ni2_5 2.806654 1_555
Ho1_5 In1_3 3.229462 1_655
Ho1_5 In1_7 3.229462 1_555
Ho1_5 In0_1 3.229462 1_655
Ho1_5 In0_5 3.229462 1_555
Ho1_6 Ni0_2 2.776235 1_655
Ho1_6 Ni0_6 2.776235 1_555
Ho1_6 Ni3_0 2.806654 1_665
Ho1_6 Ni3_4 2.806654 1_565
Ho1_6 Ni2_2 2.806654 1_655
Ho1_6 Ni2_6 2.806654 1_555
Ho1_6 In1_0 3.229462 1_665
Ho1_6 In1_4 3.229462 1_565
Ho1_6 In0_2 3.229462 1_655
Ho1_6 In0_6 3.229462 1_555
Ho1_7 Ni0_3 2.776235 1_655
Ho1_7 Ni0_7 2.776235 1_555
Ho1_7 Ni3_5 2.806654 1_565
Ho1_7 Ni3_1 2.806654 1_665
Ho1_7 Ni2_7 2.806654 1_555
Ho1_7 Ni2_3 2.806654 1_655
Ho1_7 In0_3 3.229462 1_655
Ho1_7 In1_1 3.229462 1_665
Ho1_7 In0_7 3.229462 1_555
Ho1_7 In1_5 3.229462 1_565
Ho2_0 Ni3_0 2.776185 1_555
Ho2_0 Ni3_4 2.776185 1_555
Ho2_0 Ni1_5 2.806670 1_554
Ho2_0 Ni1_1 2.806670 1_554
Ho2_0 Ni0_4 2.806670 1_555
Ho2_0 Ni0_0 2.806670 1_555
Ho2_0 In1_4 3.229455 1_555
Ho2_0 In1_0 3.229455 1_555
Ho2_0 In0_4 3.229455 1_555
Ho2_0 In0_0 3.229455 1_555
Ho2_1 Ni3_1 2.776185 1_555
Ho2_1 Ni3_5 2.776185 1_555
Ho2_1 Ni0_5 2.806670 1_555
Ho2_1 Ni1_0 2.806670 1_555
Ho2_1 Ni1_4 2.806670 1_555
Ho2_1 Ni0_1 2.806670 1_555
Ho2_1 In0_1 3.229455 1_555
Ho2_1 In0_5 3.229455 1_555
Ho2_1 In1_5 3.229455 1_555
Ho2_1 In1_1 3.229455 1_555
Ho2_2 Ni3_6 2.776185 1_555
Ho2_2 Ni3_2 2.776185 1_555
Ho2_2 Ni1_3 2.806670 1_554
Ho2_2 Ni1_7 2.806670 1_554
Ho2_2 Ni0_2 2.806670 1_555
Ho2_2 Ni0_6 2.806670 1_555
Ho2_2 In0_2 3.229455 1_555
Ho2_2 In0_6 3.229455 1_555
Ho2_2 In1_2 3.229455 1_555
Ho2_2 In1_6 3.229455 1_555
Ho2_3 Ni3_3 2.776185 1_555
Ho2_3 Ni3_7 2.776185 1_555
Ho2_3 Ni1_6 2.806670 1_555
Ho2_3 Ni0_3 2.806670 1_555
Ho2_3 Ni0_7 2.806670 1_555
Ho2_3 Ni1_2 2.806670 1_555
Ho2_3 In0_3 3.229455 1_555
Ho2_3 In0_7 3.229455 1_555
Ho2_3 In1_3 3.229455 1_555
Ho2_3 In1_7 3.229455 1_555
Ho2_4 Ni3_0 2.776185 1_655
Ho2_4 Ni3_4 2.776185 1_555
Ho2_4 Ni1_5 2.806670 1_554
Ho2_4 Ni1_1 2.806670 1_654
Ho2_4 Ni0_0 2.806670 1_655
Ho2_4 Ni0_4 2.806670 1_555
Ho2_4 In1_0 3.229455 1_655
Ho2_4 In0_4 3.229455 1_555
Ho2_4 In0_0 3.229455 1_655
Ho2_4 In1_4 3.229455 1_555
Ho2_5 Ni3_5 2.776185 1_555
Ho2_5 Ni3_1 2.776185 1_655
Ho2_5 Ni1_0 2.806670 1_655
Ho2_5 Ni1_4 2.806670 1_555
Ho2_5 Ni0_1 2.806670 1_655
Ho2_5 Ni0_5 2.806670 1_555
Ho2_5 In1_5 3.229455 1_555
Ho2_5 In0_1 3.229455 1_655
Ho2_5 In0_5 3.229455 1_555
Ho2_5 In1_1 3.229455 1_655
Ho2_6 Ni3_2 2.776185 1_655
Ho2_6 Ni3_6 2.776185 1_555
Ho2_6 Ni1_3 2.806670 1_654
Ho2_6 Ni1_7 2.806670 1_554
Ho2_6 Ni0_6 2.806670 1_555
Ho2_6 Ni0_2 2.806670 1_655
Ho2_6 In1_2 3.229455 1_655
Ho2_6 In0_2 3.229455 1_655
Ho2_6 In1_6 3.229455 1_555
Ho2_6 In0_6 3.229455 1_555
Ho2_7 Ni3_7 2.776185 1_555
Ho2_7 Ni3_3 2.776185 1_655
Ho2_7 Ni1_2 2.806670 1_655
Ho2_7 Ni1_6 2.806670 1_555
Ho2_7 Ni0_7 2.806670 1_555
Ho2_7 Ni0_3 2.806670 1_655
Ho2_7 In0_7 3.229455 1_555
Ho2_7 In1_7 3.229455 1_555
Ho2_7 In1_3 3.229455 1_655
Ho2_7 In0_3 3.229455 1_655
Ho3_0 Ni2_0 2.776185 1_555
Ho3_0 Ni2_4 2.776185 1_555
Ho3_0 Ni0_5 2.806670 1_555
Ho3_0 Ni1_0 2.806670 1_555
Ho3_0 Ni1_4 2.806670 1_555
Ho3_0 Ni0_1 2.806670 1_555
Ho3_0 In0_0 3.229455 1_555
Ho3_0 In0_4 3.229455 1_555
Ho3_0 In1_7 3.229455 1_555
Ho3_0 In1_3 3.229455 1_555
Ho3_1 Ni2_1 2.776185 1_555
Ho3_1 Ni2_5 2.776185 1_555
Ho3_1 Ni0_4 2.806670 1_556
Ho3_1 Ni0_0 2.806670 1_556
Ho3_1 Ni1_1 2.806670 1_555
Ho3_1 Ni1_5 2.806670 1_555
Ho3_1 In0_1 3.229455 1_555
Ho3_1 In0_5 3.229455 1_555
Ho3_1 In1_6 3.229455 1_556
Ho3_1 In1_2 3.229455 1_556
Ho3_2 Ni2_2 2.776185 1_555
Ho3_2 Ni2_6 2.776185 1_555
Ho3_2 Ni1_6 2.806670 1_555
Ho3_2 Ni1_2 2.806670 1_555
Ho3_2 Ni0_3 2.806670 1_555
Ho3_2 Ni0_7 2.806670 1_555
Ho3_2 In0_2 3.229455 1_555
Ho3_2 In0_6 3.229455 1_555
Ho3_2 In1_1 3.229455 1_565
Ho3_2 In1_5 3.229455 1_565
Ho3_3 Ni2_3 2.776185 1_555
Ho3_3 Ni2_7 2.776185 1_555
Ho3_3 Ni0_2 2.806670 1_556
Ho3_3 Ni0_6 2.806670 1_556
Ho3_3 Ni1_3 2.806670 1_555
Ho3_3 Ni1_7 2.806670 1_555
Ho3_3 In0_3 3.229455 1_555
Ho3_3 In0_7 3.229455 1_555
Ho3_3 In1_0 3.229455 1_566
Ho3_3 In1_4 3.229455 1_566
Ho3_4 Ni2_0 2.776185 1_655
Ho3_4 Ni2_4 2.776185 1_555
Ho3_4 Ni0_5 2.806670 1_555
Ho3_4 Ni0_1 2.806670 1_655
Ho3_4 Ni1_0 2.806670 1_655
Ho3_4 Ni1_4 2.806670 1_555
Ho3_4 In0_0 3.229455 1_655
Ho3_4 In0_4 3.229455 1_555
Ho3_4 In1_3 3.229455 1_655
Ho3_4 In1_7 3.229455 1_555
Ho3_5 Ni2_5 2.776185 1_555
Ho3_5 Ni2_1 2.776185 1_655
Ho3_5 Ni0_0 2.806670 1_656
Ho3_5 Ni0_4 2.806670 1_556
Ho3_5 Ni1_1 2.806670 1_655
Ho3_5 Ni1_5 2.806670 1_555
Ho3_5 In0_1 3.229455 1_655
Ho3_5 In1_6 3.229455 1_556
Ho3_5 In0_5 3.229455 1_555
Ho3_5 In1_2 3.229455 1_656
Ho3_6 Ni2_6 2.776185 1_555
Ho3_6 Ni2_2 2.776185 1_655
Ho3_6 Ni1_2 2.806670 1_655
Ho3_6 Ni1_6 2.806670 1_555
Ho3_6 Ni0_3 2.806670 1_655
Ho3_6 Ni0_7 2.806670 1_555
Ho3_6 In0_6 3.229455 1_555
Ho3_6 In0_2 3.229455 1_655
Ho3_6 In1_1 3.229455 1_665
Ho3_6 In1_5 3.229455 1_565
Ho3_7 Ni2_7 2.776185 1_555
Ho3_7 Ni2_3 2.776185 1_655
Ho3_7 Ni0_6 2.806670 1_556
Ho3_7 Ni0_2 2.806670 1_656
Ho3_7 Ni1_7 2.806670 1_555
Ho3_7 Ni1_3 2.806670 1_655
Ho3_7 In0_7 3.229455 1_555
Ho3_7 In1_4 3.229455 1_566
Ho3_7 In1_0 3.229455 1_666
Ho3_7 In0_3 3.229455 1_655
In0_0 Ni3_0 2.928413 1_555
In0_0 Ni2_0 2.928413 1_555
In0_0 Ni0_0 2.928420 1_555
In0_0 Ni1_0 2.928420 1_555
In0_0 In0_4 3.520601 1_555
In0_0 In0_4 3.520601 1_455
In0_1 Ni2_1 2.928413 1_555
In0_1 Ni3_1 2.928413 1_555
In0_1 Ni1_1 2.928420 1_555
In0_1 Ni0_1 2.928420 1_555
In0_1 In0_5 3.520601 1_555
In0_1 In0_5 3.520601 1_455
In0_2 Ni2_2 2.928413 1_555
In0_2 Ni3_2 2.928413 1_555
In0_2 Ni0_2 2.928420 1_555
In0_2 Ni1_2 2.928420 1_555
In0_2 In0_6 3.520601 1_555
In0_2 In0_6 3.520601 1_455
In0_3 Ni2_3 2.928413 1_555
In0_3 Ni3_3 2.928413 1_555
In0_3 Ni0_3 2.928420 1_555
In0_3 Ni1_3 2.928420 1_555
In0_3 In0_7 3.520601 1_555
In0_3 In0_7 3.520601 1_455
In0_4 Ni2_4 2.928413 1_555
In0_4 Ni3_4 2.928413 1_555
In0_4 Ni0_4 2.928420 1_555
In0_4 Ni1_4 2.928420 1_555
In0_5 Ni3_5 2.928413 1_555
In0_5 Ni2_5 2.928413 1_555
In0_5 Ni0_5 2.928420 1_555
In0_5 Ni1_5 2.928420 1_555
In0_6 Ni2_6 2.928413 1_555
In0_6 Ni3_6 2.928413 1_555
In0_6 Ni1_6 2.928420 1_555
In0_6 Ni0_6 2.928420 1_555
In0_7 Ni2_7 2.928413 1_555
In0_7 Ni3_7 2.928413 1_555
In0_7 Ni0_7 2.928420 1_555
In0_7 Ni1_7 2.928420 1_555
In1_0 Ni3_0 2.928413 1_555
In1_0 Ni2_3 2.928413 1_544
In1_0 Ni0_2 2.928420 1_545
In1_0 Ni1_1 2.928420 1_554
In1_0 In1_4 3.520601 1_555
In1_0 In1_4 3.520601 1_455
In1_1 Ni3_1 2.928413 1_555
In1_1 Ni2_2 2.928413 1_545
In1_1 Ni1_0 2.928420 1_555
In1_1 Ni0_3 2.928420 1_545
In1_1 In1_5 3.520601 1_555
In1_1 In1_5 3.520601 1_455
In1_2 Ni3_2 2.928413 1_555
In1_2 Ni2_1 2.928413 1_554
In1_2 Ni1_3 2.928420 1_554
In1_2 Ni0_0 2.928420 1_555
In1_2 In1_6 3.520601 1_555
In1_2 In1_6 3.520601 1_455
In1_3 Ni3_3 2.928413 1_555
In1_3 Ni2_0 2.928413 1_555
In1_3 Ni0_1 2.928420 1_555
In1_3 Ni1_2 2.928420 1_555
In1_3 In1_7 3.520601 1_555
In1_3 In1_7 3.520601 1_455
In1_4 Ni3_4 2.928413 1_555
In1_4 Ni2_7 2.928413 1_544
In1_4 Ni0_6 2.928420 1_545
In1_4 Ni1_5 2.928420 1_554
In1_5 Ni3_5 2.928413 1_555
In1_5 Ni2_6 2.928413 1_545
In1_5 Ni1_4 2.928420 1_555
In1_5 Ni0_7 2.928420 1_545
In1_6 Ni3_6 2.928413 1_555
In1_6 Ni2_5 2.928413 1_554
In1_6 Ni1_7 2.928420 1_554
In1_6 Ni0_4 2.928420 1_555
In1_7 Ni2_4 2.928413 1_555
In1_7 Ni3_7 2.928413 1_555
In1_7 Ni0_5 2.928420 1_555
In1_7 Ni1_6 2.928420 1_555
Ni0_0 Ni1_1 2.456731 1_554
Ni0_1 Ni1_0 2.456731 1_555
Ni0_2 Ni1_3 2.456731 1_554
Ni0_3 Ni1_2 2.456731 1_555
Ni0_4 Ni1_5 2.456731 1_554
Ni0_5 Ni1_4 2.456731 1_555
Ni0_6 Ni1_7 2.456731 1_554
Ni0_7 Ni1_6 2.456731 1_555
Ni2_0 Ni3_2 2.456768 1_555
Ni2_1 Ni3_3 2.456768 1_555
Ni2_2 Ni3_0 2.456768 1_565
Ni2_3 Ni3_1 2.456768 1_565
Ni2_4 Ni3_6 2.456768 1_555
Ni2_5 Ni3_7 2.456768 1_555
Ni2_6 Ni3_4 2.456768 1_565
Ni2_7 Ni3_5 2.456768 1_565
