# generated using pymatgen
data_Mg6NbCd
_symmetry_space_group_name_H-M   'P 1'
_cell_length_a   4.94435200
_cell_length_b   6.29669600
_cell_length_c   10.91346500
_cell_angle_alpha   90.00000000
_cell_angle_beta   90.00000000
_cell_angle_gamma   90.00000000
_symmetry_Int_Tables_number   1
_chemical_formula_structural   Mg6NbCd
_chemical_formula_sum   'Mg12 Nb2 Cd2'
_cell_volume   339.76979487
_cell_formula_units_Z   2
loop_
 _symmetry_equiv_pos_site_id
 _symmetry_equiv_pos_as_xyz
  1  'x, y, z'
loop_
 _atom_site_type_symbol
 _atom_site_label
 _atom_site_symmetry_multiplicity
 _atom_site_fract_x
 _atom_site_fract_y
 _atom_site_fract_z
 _atom_site_occupancy
  Mg  Mg0  1  0.00000000  0.25149800  0.08187400  1
  Mg  Mg1  1  0.00000000  0.74850200  0.08187400  1
  Mg  Mg2  1  0.00000000  0.00000000  0.33445900  1
  Mg  Mg3  1  0.50000000  0.74085500  0.41359900  1
  Mg  Mg4  1  0.50000000  0.25914500  0.41359900  1
  Mg  Mg5  1  0.50000000  0.00000000  0.16694000  1
  Mg  Mg6  1  0.00000000  0.75149800  0.58187400  1
  Mg  Mg7  1  0.00000000  0.24850200  0.58187400  1
  Mg  Mg8  1  0.00000000  0.50000000  0.83445900  1
  Mg  Mg9  1  0.50000000  0.24085500  0.91359900  1
  Mg  Mg10  1  0.50000000  0.75914500  0.91359900  1
  Mg  Mg11  1  0.50000000  0.50000000  0.66694000  1
  Nb  Nb0  1  0.00000000  0.50000000  0.33374100  1
  Nb  Nb1  1  0.00000000  0.00000000  0.83374100  1
  Cd  Cd0  1  0.50000000  0.50000000  0.17391400  1
  Cd  Cd1  1  0.50000000  0.00000000  0.67391400  1
loop_
_geom_bond_atom_site_label_1
_geom_bond_atom_site_label_2
_geom_bond_distance
_geom_bond_site_symmetry_2
Mg0 Mg5 3.079176 1_555
Mg0 Mg5 3.079176 1_455
Mg0 Mg9 3.080380 1_454
Mg0 Mg9 3.080380 1_554
Mg0 Mg8 3.120778 1_554
Mg0 Mg1 3.129483 1_555
Mg0 Nb1 3.137041 1_554
Mg0 Nb0 3.162910 1_555
Mg0 Mg1 3.167213 1_545
Mg0 Mg2 3.179077 1_555
Mg1 Mg5 3.079176 1_465
Mg1 Mg5 3.079176 1_565
Mg1 Mg10 3.080380 1_554
Mg1 Mg10 3.080380 1_454
Mg1 Mg8 3.120778 1_554
Mg1 Nb1 3.137041 1_564
Mg1 Nb0 3.162910 1_555
Mg1 Mg2 3.179077 1_565
Mg2 Mg5 3.074738 1_455
Mg2 Mg5 3.074738 1_555
Mg2 Mg4 3.085490 1_455
Mg2 Mg4 3.085490 1_555
Mg2 Mg3 3.085490 1_545
Mg2 Mg3 3.085490 1_445
Mg2 Mg7 3.120778 1_555
Mg2 Mg6 3.120778 1_545
Mg2 Nb0 3.148358 1_545
Mg2 Nb0 3.148358 1_555
Mg3 Nb0 3.028409 1_555
Mg3 Nb0 3.028409 1_655
Mg3 Mg4 3.033181 1_555
Mg3 Mg6 3.080380 1_655
Mg3 Mg6 3.080380 1_555
Mg3 Mg5 3.147853 1_565
Mg3 Mg4 3.263515 1_565
Mg4 Nb0 3.028409 1_555
Mg4 Nb0 3.028409 1_655
Mg4 Mg7 3.080380 1_555
Mg4 Mg7 3.080380 1_655
Mg4 Mg5 3.147853 1_555
Mg5 Mg9 3.153462 1_554
Mg6 Mg7 3.129483 1_565
Mg6 Nb0 3.137041 1_555
Mg6 Nb1 3.162910 1_565
Mg6 Mg7 3.167213 1_555
Mg6 Mg8 3.179077 1_555
Mg7 Nb0 3.137041 1_555
Mg7 Nb1 3.162910 1_555
Mg7 Mg8 3.179077 1_555
Mg8 Mg9 3.085490 1_455
Mg8 Mg9 3.085490 1_555
Mg8 Nb1 3.148358 1_555
Mg8 Nb1 3.148358 1_565
Mg9 Nb1 3.028409 1_655
Mg9 Nb1 3.028409 1_555
Mg10 Nb1 3.028409 1_665
Mg10 Nb1 3.028409 1_565
Mg10 Mg9 3.033181 1_565
Mg10 Mg8 3.085490 1_555
Mg10 Mg8 3.085490 1_655
Mg10 Mg11 3.147853 1_555
Mg10 Mg5 3.153462 1_566
Mg10 Mg9 3.263515 1_555
Mg11 Mg8 3.074738 1_555
Mg11 Mg8 3.074738 1_655
Mg11 Mg7 3.079176 1_555
Mg11 Mg6 3.079176 1_655
Mg11 Mg7 3.079176 1_655
Mg11 Mg6 3.079176 1_555
Mg11 Mg9 3.147853 1_555
Mg11 Mg3 3.153462 1_555
Mg11 Mg4 3.153462 1_555
Cd0 Mg3 3.023644 1_555
Cd0 Mg4 3.023644 1_555
Cd0 Nb0 3.025578 1_555
Cd0 Nb0 3.025578 1_655
Cd0 Mg1 3.093387 1_655
Cd0 Mg0 3.093387 1_555
Cd0 Mg1 3.093387 1_555
Cd0 Mg0 3.093387 1_655
Cd0 Mg5 3.149268 1_555
Cd0 Mg5 3.149268 1_565
Cd0 Mg10 3.276212 1_554
Cd0 Mg9 3.276212 1_554
Cd1 Mg9 3.023644 1_555
Cd1 Mg10 3.023644 1_545
Cd1 Nb1 3.025578 1_655
Cd1 Nb1 3.025578 1_555
Cd1 Mg6 3.093387 1_545
Cd1 Mg7 3.093387 1_555
Cd1 Mg7 3.093387 1_655
Cd1 Mg6 3.093387 1_645
Cd1 Mg11 3.149268 1_545
Cd1 Mg11 3.149268 1_555
Cd1 Mg4 3.276212 1_555
Cd1 Mg3 3.276212 1_545
