# generated using pymatgen
data_Mg6ZrTi
_symmetry_space_group_name_H-M   'P 1'
_cell_length_a   5.08170100
_cell_length_b   6.25300400
_cell_length_c   11.08273400
_cell_angle_alpha   90.00000000
_cell_angle_beta   90.00000000
_cell_angle_gamma   90.00000000
_symmetry_Int_Tables_number   1
_chemical_formula_structural   Mg6ZrTi
_chemical_formula_sum   'Mg12 Zr2 Ti2'
_cell_volume   352.16381051
_cell_formula_units_Z   2
loop_
 _symmetry_equiv_pos_site_id
 _symmetry_equiv_pos_as_xyz
  1  'x, y, z'
loop_
 _atom_site_type_symbol
 _atom_site_label
 _atom_site_symmetry_multiplicity
 _atom_site_fract_x
 _atom_site_fract_y
 _atom_site_fract_z
 _atom_site_occupancy
  Mg  Mg0  1  0.50000000  0.24840100  0.41794100  1
  Mg  Mg1  1  0.50000000  0.75159900  0.41794100  1
  Mg  Mg2  1  0.00000000  0.74617400  0.08771300  1
  Mg  Mg3  1  0.00000000  0.25382600  0.08771300  1
  Mg  Mg4  1  0.00000000  0.00000000  0.32966400  1
  Mg  Mg5  1  0.00000000  0.50000000  0.32662000  1
  Mg  Mg6  1  0.50000000  0.74840100  0.91794100  1
  Mg  Mg7  1  0.50000000  0.25159900  0.91794100  1
  Mg  Mg8  1  0.00000000  0.24617400  0.58771300  1
  Mg  Mg9  1  0.00000000  0.75382600  0.58771300  1
  Mg  Mg10  1  0.00000000  0.50000000  0.82966400  1
  Mg  Mg11  1  0.00000000  0.00000000  0.82662000  1
  Zr  Zr0  1  0.50000000  0.00000000  0.16655100  1
  Zr  Zr1  1  0.50000000  0.50000000  0.66655100  1
  Ti  Ti0  1  0.50000000  0.50000000  0.16585100  1
  Ti  Ti1  1  0.50000000  0.00000000  0.66585100  1
loop_
_geom_bond_atom_site_label_1
_geom_bond_atom_site_label_2
_geom_bond_distance
_geom_bond_site_symmetry_2
Mg0 Mg1 3.106505 1_545
Mg0 Mg4 3.134595 1_655
Mg0 Mg4 3.134595 1_555
Mg0 Mg1 3.146499 1_555
Mg0 Mg5 3.155211 1_655
Mg0 Mg5 3.155211 1_555
Mg0 Ti1 3.156178 1_555
Mg0 Mg8 3.161693 1_555
Mg0 Mg8 3.161693 1_655
Mg0 Zr1 3.172802 1_555
Mg0 Zr0 3.189809 1_555
Mg0 Ti0 3.206352 1_555
Mg1 Mg4 3.134595 1_565
Mg1 Mg4 3.134595 1_665
Mg1 Mg5 3.155211 1_655
Mg1 Mg5 3.155211 1_555
Mg1 Ti1 3.156178 1_565
Mg1 Mg9 3.161693 1_555
Mg1 Mg9 3.161693 1_655
Mg1 Zr1 3.172802 1_555
Mg1 Zr0 3.189809 1_565
Mg1 Ti0 3.206352 1_555
Mg2 Mg5 3.062690 1_555
Mg2 Mg3 3.078654 1_555
Mg2 Ti0 3.094410 1_455
Mg2 Ti0 3.094410 1_555
Mg2 Mg4 3.115999 1_565
Mg2 Zr0 3.120652 1_465
Mg2 Zr0 3.120652 1_565
Mg2 Mg6 3.161693 1_554
Mg2 Mg6 3.161693 1_454
Mg2 Mg3 3.174350 1_565
Mg3 Mg5 3.062690 1_555
Mg3 Ti0 3.094410 1_455
Mg3 Ti0 3.094410 1_555
Mg3 Mg4 3.115999 1_555
Mg3 Zr0 3.120652 1_455
Mg3 Zr0 3.120652 1_555
Mg3 Mg7 3.161693 1_454
Mg3 Mg7 3.161693 1_554
Mg4 Zr0 3.118307 1_555
Mg4 Zr0 3.118307 1_455
Mg4 Mg5 3.126684 1_545
Mg4 Mg5 3.126684 1_555
Mg4 Mg8 3.247844 1_555
Mg4 Mg9 3.247844 1_545
Mg5 Ti0 3.103319 1_555
Mg5 Ti0 3.103319 1_455
Mg5 Mg9 3.300331 1_555
Mg5 Mg8 3.300331 1_555
Mg6 Mg7 3.106505 1_555
Mg6 Mg7 3.146499 1_565
Mg6 Ti0 3.156178 1_556
Mg6 Zr0 3.172802 1_566
Mg6 Zr1 3.189809 1_555
Mg6 Ti1 3.206352 1_565
Mg7 Ti0 3.156178 1_556
Mg7 Zr0 3.172802 1_556
Mg7 Zr1 3.189809 1_555
Mg7 Ti1 3.206352 1_555
Mg8 Mg9 3.078654 1_545
Mg8 Ti1 3.094410 1_555
Mg8 Ti1 3.094410 1_455
Mg8 Zr1 3.120652 1_455
Mg8 Zr1 3.120652 1_555
Mg8 Mg9 3.174350 1_555
Mg9 Ti1 3.094410 1_565
Mg9 Ti1 3.094410 1_465
Mg9 Zr1 3.120652 1_455
Mg9 Zr1 3.120652 1_555
Mg10 Mg9 3.115999 1_555
Mg10 Mg8 3.115999 1_555
Mg10 Zr1 3.118307 1_455
Mg10 Zr1 3.118307 1_555
Mg10 Mg11 3.126684 1_555
Mg10 Mg11 3.126684 1_565
Mg10 Mg6 3.134595 1_455
Mg10 Mg6 3.134595 1_555
Mg10 Mg7 3.134595 1_455
Mg10 Mg7 3.134595 1_555
Mg10 Mg2 3.247844 1_556
Mg10 Mg3 3.247844 1_556
Mg11 Mg8 3.062690 1_555
Mg11 Mg9 3.062690 1_545
Mg11 Ti1 3.103319 1_455
Mg11 Ti1 3.103319 1_555
Mg11 Mg7 3.155211 1_555
Mg11 Mg7 3.155211 1_455
Mg11 Mg6 3.155211 1_545
Mg11 Mg6 3.155211 1_445
Mg11 Mg3 3.300331 1_556
Mg11 Mg2 3.300331 1_546
Ti0 Zr0 3.126512 1_555
Ti0 Zr0 3.126512 1_565
Ti1 Zr1 3.126512 1_545
Ti1 Zr1 3.126512 1_555
