# generated using pymatgen
data_CdSnSb2
_symmetry_space_group_name_H-M   'P 1'
_cell_length_a   6.57148283
_cell_length_b   6.57148229
_cell_length_c   7.97902655
_cell_angle_alpha   114.31778885
_cell_angle_beta   114.31778344
_cell_angle_gamma   89.99999825
_symmetry_Int_Tables_number   1
_chemical_formula_structural   CdSnSb2
_chemical_formula_sum   'Cd2 Sn2 Sb4'
_cell_volume   280.10881445
_cell_formula_units_Z   2
loop_
 _symmetry_equiv_pos_site_id
 _symmetry_equiv_pos_as_xyz
  1  'x, y, z'
loop_
 _atom_site_type_symbol
 _atom_site_label
 _atom_site_symmetry_multiplicity
 _atom_site_fract_x
 _atom_site_fract_y
 _atom_site_fract_z
 _atom_site_occupancy
  Cd  Cd0  1  0.00000000  0.00000000  0.00000000  1
  Cd  Cd1  1  0.25000000  0.75000000  0.50000000  1
  Sn  Sn0  1  0.50000000  0.50000000  0.00000000  1
  Sn  Sn1  1  0.75000000  0.25000000  0.50000000  1
  Sb  Sb0  1  0.37320529  0.37500000  0.25000000  1
  Sb  Sb1  1  0.12500000  0.62679471  0.75000000  1
  Sb  Sb2  1  0.62500000  0.12320529  0.75000000  1
  Sb  Sb3  1  0.87679471  0.87500000  0.25000000  1
loop_
_geom_bond_atom_site_label_1
_geom_bond_atom_site_label_2
_geom_bond_distance
_geom_bond_site_symmetry_2
Cd0 Sb1 2.826478 1_544
Cd0 Sb3 2.826478 1_445
Cd0 Sb0 2.826478 1_555
Cd0 Sb2 2.826478 1_454
Cd1 Sb0 2.826478 1_555
Cd1 Sb1 2.826478 1_555
Cd1 Sb2 2.826478 1_565
Cd1 Sb3 2.826478 1_455
Sb0 Sn0 2.840155 1_555
Sb0 Sn1 2.840155 1_555
Sb1 Sn1 2.840155 1_455
Sb1 Sn0 2.840155 1_556
Sb2 Sn0 2.840155 1_556
Sb2 Sn1 2.840155 1_555
Sb3 Sn1 2.840155 1_565
Sb3 Sn0 2.840155 1_555
