# generated using pymatgen
data_NaEuYSbO6
_symmetry_space_group_name_H-M   'P 1'
_cell_length_a   8.24205246
_cell_length_b   8.16728816
_cell_length_c   8.21110016
_cell_angle_alpha   90.00000000
_cell_angle_beta   90.00000000
_cell_angle_gamma   90.00000000
_symmetry_Int_Tables_number   1
_chemical_formula_structural   NaEuYSbO6
_chemical_formula_sum   'Na4 Eu4 Y4 Sb4 O24'
_cell_volume   552.73199294
_cell_formula_units_Z   4
loop_
 _symmetry_equiv_pos_site_id
 _symmetry_equiv_pos_as_xyz
  1  'x, y, z'
loop_
 _atom_site_type_symbol
 _atom_site_label
 _atom_site_symmetry_multiplicity
 _atom_site_fract_x
 _atom_site_fract_y
 _atom_site_fract_z
 _atom_site_occupancy
  Na  Na0  1  0.00000000  0.50000000  0.50000000  1
  Na  Na1  1  0.50000000  0.50000000  -0.00000000  1
  Na  Na2  1  0.50000000  0.00000000  -0.00000000  1
  Na  Na3  1  0.00000000  0.00000000  0.50000000  1
  Eu  Eu0  1  0.50000000  0.00000000  0.50000000  1
  Eu  Eu1  1  0.00000000  0.50000000  -0.00000000  1
  Eu  Eu2  1  0.00000000  0.00000000  -0.00000000  1
  Eu  Eu3  1  0.50000000  0.50000000  0.50000000  1
  Y  Y0  1  0.25000000  0.25000000  0.25000000  1
  Y  Y1  1  0.75000000  0.75000000  0.25000000  1
  Y  Y2  1  0.75000000  0.25000000  0.75000000  1
  Y  Y3  1  0.25000000  0.75000000  0.75000000  1
  Sb  Sb0  1  0.75000000  0.75000000  0.75000000  1
  Sb  Sb1  1  0.25000000  0.25000000  0.75000000  1
  Sb  Sb2  1  0.25000000  0.75000000  0.25000000  1
  Sb  Sb3  1  0.75000000  0.25000000  0.25000000  1
  O  O0  1  0.98485135  0.19299510  0.27767171  1
  O  O1  1  0.01514865  0.80700490  0.27767171  1
  O  O2  1  0.01514865  0.19299510  0.72232829  1
  O  O3  1  0.98485135  0.80700490  0.72232829  1
  O  O4  1  0.29621213  0.98557348  0.20702345  1
  O  O5  1  0.29621213  0.01442652  0.79297655  1
  O  O6  1  0.70378787  0.01442652  0.20702345  1
  O  O7  1  0.70378787  0.98557348  0.79297655  1
  O  O8  1  0.19080596  0.28369246  0.98639350  1
  O  O9  1  0.80919404  0.28369246  0.01360650  1
  O  O10  1  0.19080596  0.71630754  0.01360650  1
  O  O11  1  0.80919404  0.71630754  0.98639350  1
  O  O12  1  0.51514865  0.30700490  0.22232829  1
  O  O13  1  0.48485135  0.69299510  0.22232829  1
  O  O14  1  0.48485135  0.30700490  0.77767171  1
  O  O15  1  0.51514865  0.69299510  0.77767171  1
  O  O16  1  0.20378787  0.51442652  0.29297655  1
  O  O17  1  0.20378787  0.48557348  0.70702345  1
  O  O18  1  0.79621213  0.48557348  0.29297655  1
  O  O19  1  0.79621213  0.51442652  0.70702345  1
  O  O20  1  0.30919404  0.21630754  0.51360650  1
  O  O21  1  0.69080596  0.21630754  0.48639350  1
  O  O22  1  0.30919404  0.78369246  0.48639350  1
  O  O23  1  0.69080596  0.78369246  0.51360650  1
loop_
_geom_bond_atom_site_label_1
_geom_bond_atom_site_label_2
_geom_bond_distance
_geom_bond_site_symmetry_2
Na0 O19 2.392628 1_455
Na0 O17 2.392628 1_555
Na0 O16 2.392628 1_555
Na0 O18 2.392628 1_455
Na1 O13 2.415121 1_555
Na1 O15 2.415121 1_554
Na1 O14 2.415121 1_554
Na1 O12 2.415121 1_555
Na2 O4 2.392628 1_545
Na2 O6 2.392628 1_555
Na2 O7 2.392628 1_544
Na2 O5 2.392628 1_554
Na3 O2 2.415121 1_555
Na3 O0 2.415121 1_455
Na3 O3 2.415121 1_445
Na3 O1 2.415121 1_545
Eu0 O20 2.367846 1_555
Eu0 O22 2.367846 1_545
Eu0 O23 2.367846 1_545
Eu0 O21 2.367846 1_555
Eu0 O5 2.936365 1_555
Eu0 O6 2.936365 1_555
Eu0 O7 2.936365 1_545
Eu0 O4 2.936365 1_545
Eu1 O9 2.367846 1_455
Eu1 O10 2.367846 1_555
Eu1 O11 2.367846 1_454
Eu1 O8 2.367846 1_554
Eu1 O17 2.936365 1_554
Eu1 O18 2.936365 1_455
Eu1 O19 2.936365 1_454
Eu1 O16 2.936365 1_555
Eu2 O2 2.774617 1_554
Eu2 O0 2.774617 1_455
Eu2 O1 2.774617 1_545
Eu2 O3 2.774617 1_444
Eu2 O9 2.802523 1_455
Eu2 O10 2.802523 1_545
Eu2 O11 2.802523 1_444
Eu2 O8 2.802523 1_554
Eu2 O4 2.977234 1_545
Eu2 O5 2.977234 1_554
Eu2 O7 2.977234 1_444
Eu2 O6 2.977234 1_455
Eu3 O13 2.774617 1_555
Eu3 O15 2.774617 1_555
Eu3 O14 2.774617 1_555
Eu3 O12 2.774617 1_555
Eu3 O22 2.802523 1_555
Eu3 O20 2.802523 1_555
Eu3 O23 2.802523 1_555
Eu3 O21 2.802523 1_555
Eu3 O19 2.977234 1_555
Eu3 O16 2.977234 1_555
Eu3 O17 2.977234 1_555
Eu3 O18 2.977234 1_555
O0 Sb3 2.003785 1_555
O0 Y0 2.245935 1_655
O1 Sb2 2.003785 1_555
O1 Y1 2.245935 1_455
O2 Sb1 2.003785 1_555
O2 Y2 2.245935 1_455
O3 Sb0 2.003785 1_555
O3 Y3 2.245935 1_655
O4 Sb2 1.992828 1_555
O4 Y0 2.221188 1_565
O5 Sb1 1.992828 1_555
O5 Y3 2.221188 1_545
O6 Sb3 1.992828 1_555
O6 Y1 2.221188 1_545
O7 Sb0 1.992828 1_555
O7 Y2 2.221188 1_565
O8 Sb1 2.020254 1_555
O8 Y0 2.235801 1_556
O9 Sb3 2.020254 1_555
O9 Y2 2.235801 1_554
O10 Sb2 2.020254 1_555
O10 Y3 2.235801 1_554
O11 Sb0 2.020254 1_555
O11 Y1 2.235801 1_556
O12 Sb3 2.003785 1_555
O12 Y0 2.245935 1_555
O13 Sb2 2.003785 1_555
O13 Y1 2.245935 1_555
O14 Sb1 2.003785 1_555
O14 Y2 2.245935 1_555
O15 Sb0 2.003785 1_555
O15 Y3 2.245935 1_555
O16 Sb2 1.992828 1_555
O16 Y0 2.221188 1_555
O17 Sb1 1.992828 1_555
O17 Y3 2.221188 1_555
O18 Sb3 1.992828 1_555
O18 Y1 2.221188 1_555
O19 Sb0 1.992828 1_555
O19 Y2 2.221188 1_555
O20 Sb1 2.020254 1_555
O20 Y0 2.235801 1_555
O21 Sb3 2.020254 1_555
O21 Y2 2.235801 1_555
O22 Sb2 2.020254 1_555
O22 Y3 2.235801 1_555
O23 Sb0 2.020254 1_555
O23 Y1 2.235801 1_555
