# generated using pymatgen
data_SrCa2Sc6O12
_symmetry_space_group_name_H-M   'P 1'
_cell_length_a   3.19223400
_cell_length_b   9.70903268
_cell_length_c   9.70897833
_cell_angle_alpha   120.00052134
_cell_angle_beta   90.00017281
_cell_angle_gamma   89.99979154
_symmetry_Int_Tables_number   1
_chemical_formula_structural   SrCa2Sc6O12
_chemical_formula_sum   'Sr1 Ca2 Sc6 O12'
_cell_volume   260.59889142
_cell_formula_units_Z   1
loop_
 _symmetry_equiv_pos_site_id
 _symmetry_equiv_pos_as_xyz
  1  'x, y, z'
loop_
 _atom_site_type_symbol
 _atom_site_label
 _atom_site_symmetry_multiplicity
 _atom_site_fract_x
 _atom_site_fract_y
 _atom_site_fract_z
 _atom_site_occupancy
  Sr  Sr0  1  0.50000000  0.00000000  0.00000000  1
  Ca  Ca0  1  0.74903200  0.66665600  0.33332000  1
  Ca  Ca1  1  0.25096800  0.33334400  0.66668000  1
  Sc  Sc0  1  0.75524300  0.35019600  0.00181100  1
  Sc  Sc1  1  0.75526300  0.99819300  0.34839600  1
  Sc  Sc2  1  0.75525700  0.65161000  0.64979900  1
  Sc  Sc3  1  0.24475700  0.64980400  0.99818900  1
  Sc  Sc4  1  0.24473700  0.00180700  0.65160400  1
  Sc  Sc5  1  0.24474300  0.34839000  0.35020100  1
  O  O0  1  0.75005500  0.12774000  0.60223000  1
  O  O1  1  0.75005700  0.39777500  0.52550900  1
  O  O2  1  0.75005600  0.47448800  0.87226200  1
  O  O3  1  0.24994500  0.87226000  0.39777000  1
  O  O4  1  0.24994300  0.60222500  0.47449100  1
  O  O5  1  0.24994400  0.52551200  0.12773800  1
  O  O6  1  0.74644800  0.89272800  0.70167300  1
  O  O7  1  0.74645600  0.29831200  0.19104200  1
  O  O8  1  0.74645900  0.80894800  0.10726600  1
  O  O9  1  0.25355200  0.10727200  0.29832700  1
  O  O10  1  0.25354400  0.70168800  0.80895800  1
  O  O11  1  0.25354100  0.19105200  0.89273400  1
loop_
_geom_bond_atom_site_label_1
_geom_bond_atom_site_label_2
_geom_bond_distance
_geom_bond_site_symmetry_2
Ca0 O5 2.380107 1_555
Ca0 O3 2.380246 1_555
Ca0 O4 2.380274 1_555
Ca0 O5 2.384010 1_655
Ca0 O3 2.384159 1_655
Ca0 O4 2.384163 1_655
Ca1 O2 2.380107 1_555
Ca1 O0 2.380246 1_555
Ca1 O1 2.380274 1_555
Ca1 O2 2.384010 1_455
Ca1 O0 2.384159 1_455
Ca1 O1 2.384163 1_455
O0 Sc1 2.134499 1_545
O0 Sc4 2.191930 1_655
O0 Sc4 2.216525 1_555
O1 Sc2 2.134519 1_555
O1 Sc5 2.191925 1_655
O1 Sc5 2.216487 1_555
O2 Sc0 2.134580 1_556
O2 Sc3 2.192004 1_655
O2 Sc3 2.216498 1_555
O3 Sc4 2.134499 1_565
O3 Sc1 2.191930 1_455
O3 Sc1 2.216525 1_555
O4 Sc5 2.134519 1_555
O4 Sc2 2.191925 1_455
O4 Sc2 2.216487 1_555
O5 Sc3 2.134580 1_554
O5 Sc0 2.192004 1_455
O5 Sc0 2.216498 1_555
O6 Sc4 2.098317 1_665
O6 Sc4 2.106602 1_565
O6 Sc2 2.134426 1_555
O6 Sr0 2.660146 1_566
O7 Sc5 2.098352 1_655
O7 Sc5 2.106659 1_555
O7 Sc0 2.134363 1_555
O7 Sr0 2.660032 1_555
O8 Sc3 2.098304 1_654
O8 Sc3 2.106557 1_554
O8 Sc1 2.134485 1_555
O8 Sr0 2.660108 1_565
O9 Sc1 2.098317 1_445
O9 Sc1 2.106602 1_545
O9 Sc5 2.134426 1_555
O9 Sr0 2.660146 1_555
O10 Sc2 2.098352 1_455
O10 Sc2 2.106659 1_555
O10 Sc3 2.134363 1_555
O10 Sr0 2.660032 1_566
O11 Sc0 2.098304 1_456
O11 Sc0 2.106557 1_556
O11 Sc4 2.134485 1_555
O11 Sr0 2.660108 1_556
