# generated using pymatgen
data_MgMn8(OF)8
_symmetry_space_group_name_H-M   'P 1'
_cell_length_a   4.77655457
_cell_length_b   4.95314396
_cell_length_c   12.52386040
_cell_angle_alpha   88.36039098
_cell_angle_beta   91.00448255
_cell_angle_gamma   89.44561388
_symmetry_Int_Tables_number   1
_chemical_formula_structural   MgMn8(OF)8
_chemical_formula_sum   'Mg1 Mn8 O8 F8'
_cell_volume   296.11935957
_cell_formula_units_Z   1
loop_
 _symmetry_equiv_pos_site_id
 _symmetry_equiv_pos_as_xyz
  1  'x, y, z'
loop_
 _atom_site_type_symbol
 _atom_site_label
 _atom_site_symmetry_multiplicity
 _atom_site_fract_x
 _atom_site_fract_y
 _atom_site_fract_z
 _atom_site_occupancy
  Mg  Mg0  1  0.02297200  0.47368500  0.00449000  1
  Mn  Mn0  1  0.90819800  0.96712600  0.99975300  1
  Mn  Mn1  1  0.04370200  0.03015600  0.25510000  1
  Mn  Mn2  1  0.98998900  0.96252500  0.50134100  1
  Mn  Mn3  1  0.06628600  0.00970200  0.74881500  1
  Mn  Mn4  1  0.49126900  0.52456600  0.62278000  1
  Mn  Mn5  1  0.53138600  0.46177400  0.13926400  1
  Mn  Mn6  1  0.48327800  0.52634300  0.38065600  1
  Mn  Mn7  1  0.47976500  0.53341800  0.86643700  1
  O  O0  1  0.18964500  0.80870400  0.37227300  1
  O  O1  1  0.17999300  0.79707500  0.61922600  1
  O  O2  1  0.14669900  0.75150300  0.89141700  1
  O  O3  1  0.34678700  0.30372100  0.25916200  1
  O  O4  1  0.33538300  0.34103600  0.74882500  1
  O  O5  1  0.65216100  0.64972000  0.00770900  1
  O  O6  1  0.67085300  0.69409000  0.49990400  1
  O  O7  1  0.85657700  0.21911500  0.12627700  1
  F  F0  1  0.18381500  0.71521800  0.12018400  1
  F  F1  1  0.32615400  0.22156300  0.00309300  1
  F  F2  1  0.28697800  0.28059200  0.50090400  1
  F  F3  1  0.71777200  0.74299400  0.24813900  1
  F  F4  1  0.67838200  0.77314600  0.75211400  1
  F  F5  1  0.80627000  0.21021000  0.38569600  1
  F  F6  1  0.80159200  0.22829600  0.62399400  1
  F  F7  1  0.83187000  0.25983500  0.87973800  1
loop_
_geom_bond_atom_site_label_1
_geom_bond_atom_site_label_2
_geom_bond_distance
_geom_bond_site_symmetry_2
Mg0 O5 1.968161 1_455
Mg0 O2 2.044940 1_554
Mg0 O7 2.121280 1_455
Mn0 O5 2.002446 1_556
Mn0 O7 2.061656 1_566
Mn0 O2 2.095923 1_655
Mn1 O0 1.923478 1_545
Mn1 O3 1.993438 1_555
Mn1 O7 2.030926 1_455
Mn2 O1 1.882638 1_655
Mn2 O6 2.032606 1_555
Mn2 O0 2.052627 1_655
Mn3 O1 2.038575 1_545
Mn3 O4 2.094356 1_555
Mn3 O2 2.192803 1_545
Mn4 O6 1.948153 1_555
Mn4 O4 1.960835 1_555
Mn4 O1 1.997483 1_555
Mn5 O3 1.907254 1_555
Mn5 O7 1.966650 1_555
Mn5 O5 1.967199 1_555
Mn6 O6 1.939583 1_555
Mn6 O0 1.970448 1_555
Mn6 O3 2.007805 1_555
Mn7 O4 1.900170 1_555
Mn7 O2 1.949164 1_555
Mn7 O5 2.038792 1_556
F0 Mg0 2.049112 1_555
F0 Mn5 2.077937 1_555
F0 Mn0 2.314254 1_454
F0 Mn1 2.430341 1_565
F1 Mg0 1.903713 1_555
F1 Mn5 2.316253 1_555
F1 Mn0 2.371574 1_444
F1 Mn7 2.401691 1_554
F2 Mn2 2.130123 1_445
F2 Mn6 2.143706 1_555
F2 Mn4 2.195095 1_555
F3 Mn1 2.121221 1_665
F3 Mn5 2.163837 1_555
F3 Mn6 2.268698 1_555
F4 Mn7 2.081361 1_555
F4 Mn3 2.202166 1_665
F4 Mn4 2.241221 1_555
F5 Mn2 2.050788 1_545
F5 Mn6 2.186380 1_555
F5 Mn1 2.210334 1_655
F6 Mn4 2.075252 1_555
F6 Mn3 2.240958 1_655
F6 Mn2 2.245783 1_545
F7 Mn0 2.083254 1_545
F7 Mg0 2.111781 1_656
F7 Mn7 2.150769 1_555
F7 Mn3 2.372968 1_655
