# generated using pymatgen
data_LaHfMg6
_symmetry_space_group_name_H-M   'P 1'
_cell_length_a   5.23881000
_cell_length_b   6.61754000
_cell_length_c   11.46851400
_cell_angle_alpha   90.00000000
_cell_angle_beta   90.00000000
_cell_angle_gamma   90.00000000
_symmetry_Int_Tables_number   1
_chemical_formula_structural   LaHfMg6
_chemical_formula_sum   'La2 Hf2 Mg12'
_cell_volume   397.59084162
_cell_formula_units_Z   2
loop_
 _symmetry_equiv_pos_site_id
 _symmetry_equiv_pos_as_xyz
  1  'x, y, z'
loop_
 _atom_site_type_symbol
 _atom_site_label
 _atom_site_symmetry_multiplicity
 _atom_site_fract_x
 _atom_site_fract_y
 _atom_site_fract_z
 _atom_site_occupancy
  La  La0  1  0.50000000  0.50000000  0.66472900  1
  La  La1  1  0.50000000  0.00000000  0.16472900  1
  Hf  Hf0  1  0.50000000  0.00000000  0.66201800  1
  Hf  Hf1  1  0.50000000  0.50000000  0.16201800  1
  Mg  Mg0  1  0.50000000  0.74892700  0.91695800  1
  Mg  Mg1  1  0.50000000  0.25107300  0.91695800  1
  Mg  Mg2  1  0.00000000  0.23734400  0.58403700  1
  Mg  Mg3  1  0.00000000  0.76265600  0.58403700  1
  Mg  Mg4  1  0.00000000  0.50000000  0.84064900  1
  Mg  Mg5  1  0.00000000  0.00000000  0.83061200  1
  Mg  Mg6  1  0.50000000  0.24892700  0.41695800  1
  Mg  Mg7  1  0.50000000  0.75107300  0.41695800  1
  Mg  Mg8  1  0.00000000  0.73734400  0.08403700  1
  Mg  Mg9  1  0.00000000  0.26265600  0.08403700  1
  Mg  Mg10  1  0.00000000  0.00000000  0.34064900  1
  Mg  Mg11  1  0.00000000  0.50000000  0.33061200  1
loop_
_geom_bond_atom_site_label_1
_geom_bond_atom_site_label_2
_geom_bond_distance
_geom_bond_site_symmetry_2
La0 Mg3 3.277011 1_555
La0 Mg3 3.277011 1_655
La0 Mg2 3.277011 1_555
La0 Mg2 3.277011 1_655
La0 Mg7 3.291660 1_555
La0 Mg6 3.291660 1_555
La0 Mg4 3.306320 1_555
La0 Mg4 3.306320 1_655
La0 Mg1 3.328845 1_555
La0 Mg0 3.328845 1_555
La1 Mg9 3.277011 1_655
La1 Mg8 3.277011 1_645
La1 Mg8 3.277011 1_545
La1 Mg9 3.277011 1_555
La1 Mg0 3.291660 1_544
La1 Mg1 3.291660 1_554
La1 Mg10 3.306320 1_655
La1 Mg10 3.306320 1_555
La1 Mg6 3.328845 1_555
La1 Mg7 3.328845 1_545
Hf0 Mg2 3.182451 1_555
Hf0 Mg3 3.182451 1_645
Hf0 Mg3 3.182451 1_545
Hf0 Mg2 3.182451 1_655
Hf0 Mg5 3.255732 1_555
Hf0 Mg5 3.255732 1_655
Hf0 Mg6 3.257654 1_555
Hf0 Mg7 3.257654 1_545
Hf0 La0 3.308916 1_555
Hf0 La0 3.308916 1_545
Hf0 Mg1 3.362892 1_555
Hf0 Mg0 3.362892 1_545
Hf1 Mg9 3.182451 1_655
Hf1 Mg8 3.182451 1_655
Hf1 Mg9 3.182451 1_555
Hf1 Mg8 3.182451 1_555
Hf1 Mg11 3.255732 1_555
Hf1 Mg11 3.255732 1_655
Hf1 Mg1 3.257654 1_554
Hf1 Mg0 3.257654 1_554
Hf1 La1 3.308916 1_565
Hf1 La1 3.308916 1_555
Hf1 Mg7 3.362892 1_555
Hf1 Mg6 3.362892 1_555
Mg0 Mg4 3.215699 1_655
Mg0 Mg4 3.215699 1_555
Mg0 Mg8 3.246349 1_556
Mg0 Mg8 3.246349 1_656
Mg0 Mg5 3.256138 1_565
Mg0 Mg5 3.256138 1_665
Mg0 Mg1 3.294569 1_555
Mg0 Mg1 3.322971 1_565
Mg1 Mg4 3.215699 1_655
Mg1 Mg4 3.215699 1_555
Mg1 Mg9 3.246349 1_656
Mg1 Mg9 3.246349 1_556
Mg1 Mg5 3.256138 1_555
Mg1 Mg5 3.256138 1_655
Mg2 Mg3 3.141267 1_545
Mg2 Mg5 3.234752 1_555
Mg2 Mg6 3.246349 1_555
Mg2 Mg6 3.246349 1_455
Mg2 Mg4 3.417912 1_555
Mg2 Mg3 3.476273 1_555
Mg3 Mg5 3.234752 1_565
Mg3 Mg7 3.246349 1_455
Mg3 Mg7 3.246349 1_555
Mg3 Mg4 3.417912 1_555
Mg4 Mg9 3.202848 1_556
Mg4 Mg8 3.202848 1_556
Mg4 Mg5 3.310772 1_565
Mg4 Mg5 3.310772 1_555
Mg5 Mg8 3.386492 1_546
Mg5 Mg9 3.386492 1_556
Mg6 Mg7 3.294569 1_545
Mg6 Mg7 3.322971 1_555
Mg8 Mg9 3.141267 1_555
Mg8 Mg9 3.476273 1_565
Mg10 Mg2 3.202848 1_555
Mg10 Mg3 3.202848 1_545
Mg10 Mg6 3.215699 1_455
Mg10 Mg6 3.215699 1_555
Mg10 Mg7 3.215699 1_545
Mg10 Mg7 3.215699 1_445
Mg10 Mg11 3.310772 1_555
Mg10 Mg11 3.310772 1_545
Mg10 Mg8 3.417912 1_545
Mg10 Mg9 3.417912 1_555
Mg11 Mg9 3.234752 1_555
Mg11 Mg8 3.234752 1_555
Mg11 Mg7 3.256138 1_555
Mg11 Mg7 3.256138 1_455
Mg11 Mg6 3.256138 1_555
Mg11 Mg6 3.256138 1_455
Mg11 Mg2 3.386492 1_555
Mg11 Mg3 3.386492 1_555
