# generated using pymatgen
data_Zr8Co3Cu
_symmetry_space_group_name_H-M   'P 1'
_cell_length_a   5.30356208
_cell_length_b   5.30356208
_cell_length_c   9.11402400
_cell_angle_alpha   90.00000000
_cell_angle_beta   90.00000000
_cell_angle_gamma   118.32711722
_symmetry_Int_Tables_number   1
_chemical_formula_structural   Zr8Co3Cu
_chemical_formula_sum   'Zr8 Co3 Cu1'
_cell_volume   225.65914268
_cell_formula_units_Z   1
loop_
 _symmetry_equiv_pos_site_id
 _symmetry_equiv_pos_as_xyz
  1  'x, y, z'
loop_
 _atom_site_type_symbol
 _atom_site_label
 _atom_site_symmetry_multiplicity
 _atom_site_fract_x
 _atom_site_fract_y
 _atom_site_fract_z
 _atom_site_occupancy
  Zr  Zr0  1  0.00000000  0.50000000  0.91666700  1
  Zr  Zr1  1  0.50000000  0.00000000  0.41789700  1
  Zr  Zr2  1  0.00000000  0.50000000  0.58210300  1
  Zr  Zr3  1  0.50000000  0.00000000  0.08333300  1
  Zr  Zr4  1  0.32923600  0.16300300  0.74200900  1
  Zr  Zr5  1  0.83699700  0.67076400  0.25799100  1
  Zr  Zr6  1  0.67076400  0.83699700  0.74200900  1
  Zr  Zr7  1  0.16300300  0.32923600  0.25799100  1
  Co  Co0  1  0.00000000  0.00000000  0.50000000  1
  Co  Co1  1  0.00000000  0.00000000  0.00000000  1
  Co  Co2  1  0.50000000  0.50000000  0.50000000  1
  Cu  Cu0  1  0.50000000  0.50000000  0.00000000  1
loop_
_geom_bond_atom_site_label_1
_geom_bond_atom_site_label_2
_geom_bond_distance
_geom_bond_site_symmetry_2
Zr0 Zr2 3.049224 1_555
Zr0 Zr3 3.114138 1_456
Zr0 Zr3 3.114138 1_566
Zr0 Zr4 3.426218 1_555
Zr0 Zr6 3.426218 1_455
Zr0 Zr7 3.462352 1_556
Zr0 Zr5 3.462352 1_456
Zr0 Zr4 3.481425 1_565
Zr0 Zr6 3.481425 1_445
Zr0 Zr6 3.514221 1_555
Zr0 Zr4 3.514221 1_455
Zr1 Zr3 3.049224 1_555
Zr1 Zr2 3.103264 1_545
Zr1 Zr2 3.103264 1_655
Zr1 Zr6 3.322122 1_545
Zr1 Zr4 3.322122 1_555
Zr1 Zr5 3.365858 1_545
Zr1 Zr7 3.365858 1_555
Zr1 Zr7 3.422039 1_655
Zr1 Zr5 3.422039 1_445
Zr1 Zr5 3.455399 1_555
Zr1 Zr7 3.455399 1_545
Zr2 Zr5 3.322122 1_455
Zr2 Zr7 3.322122 1_555
Zr2 Zr6 3.365858 1_455
Zr2 Zr4 3.365858 1_555
Zr2 Zr4 3.422039 1_565
Zr2 Zr6 3.422039 1_445
Zr2 Zr6 3.455399 1_555
Zr2 Zr4 3.455399 1_455
Zr3 Zr5 3.426218 1_545
Zr3 Zr7 3.426218 1_555
Zr3 Zr6 3.462352 1_544
Zr3 Zr4 3.462352 1_554
Zr3 Zr7 3.481425 1_655
Zr3 Zr5 3.481425 1_445
Zr3 Zr5 3.514221 1_555
Zr3 Zr7 3.514221 1_545
Zr4 Zr6 3.040122 1_545
Zr4 Zr6 3.074901 1_445
Zr4 Zr6 3.148631 1_555
Zr5 Zr7 3.040122 1_655
Zr5 Zr7 3.074901 1_665
Zr5 Zr7 3.148631 1_555
Co0 Zr4 2.688635 1_555
Co0 Zr6 2.688635 1_445
Co0 Zr7 2.688635 1_555
Co0 Zr5 2.688635 1_445
Co0 Co2 2.718548 1_445
Co0 Co2 2.718548 1_555
Co0 Zr2 2.755336 1_555
Co0 Zr2 2.755336 1_545
Co0 Zr1 2.755336 1_555
Co0 Zr1 2.755336 1_455
Co1 Cu0 2.718548 1_445
Co1 Cu0 2.718548 1_555
Co1 Zr3 2.758402 1_555
Co1 Zr3 2.758402 1_455
Co1 Zr0 2.758402 1_544
Co1 Zr0 2.758402 1_554
Co1 Zr7 2.809366 1_555
Co1 Zr5 2.809366 1_445
Co1 Zr4 2.809366 1_554
Co1 Zr6 2.809366 1_444
Co2 Zr6 2.709885 1_555
Co2 Zr4 2.709885 1_555
Co2 Zr5 2.709885 1_555
Co2 Zr7 2.709885 1_555
Co2 Zr2 2.755336 1_555
Co2 Zr2 2.755336 1_655
Co2 Zr1 2.755336 1_565
Co2 Zr1 2.755336 1_555
Cu0 Zr3 2.758402 1_555
Cu0 Zr3 2.758402 1_565
Cu0 Zr0 2.758402 1_654
Cu0 Zr0 2.758402 1_554
Cu0 Zr5 2.829709 1_555
Cu0 Zr7 2.829709 1_555
Cu0 Zr6 2.829709 1_554
Cu0 Zr4 2.829709 1_554
