# generated using pymatgen
data_NdMg(NiH)4
_symmetry_space_group_name_H-M   'P 1'
_cell_length_a   5.05157800
_cell_length_b   5.47001000
_cell_length_c   7.32920500
_cell_angle_alpha   90.00000000
_cell_angle_beta   90.00000000
_cell_angle_gamma   90.00000000
_symmetry_Int_Tables_number   1
_chemical_formula_structural   NdMg(NiH)4
_chemical_formula_sum   'Nd2 Mg2 Ni8 H8'
_cell_volume   202.52192776
_cell_formula_units_Z   2
loop_
 _symmetry_equiv_pos_site_id
 _symmetry_equiv_pos_as_xyz
  1  'x, y, z'
loop_
 _atom_site_type_symbol
 _atom_site_label
 _atom_site_symmetry_multiplicity
 _atom_site_fract_x
 _atom_site_fract_y
 _atom_site_fract_z
 _atom_site_occupancy
  Nd  Nd0  1  0.50000000  0.70169900  0.50157400  1
  Nd  Nd1  1  0.00000000  0.29830100  0.00157400  1
  Mg  Mg0  1  0.50000000  0.18173900  0.72334500  1
  Mg  Mg1  1  0.00000000  0.81826100  0.22334500  1
  Ni  Ni0  1  0.50000000  0.55094100  0.12199900  1
  Ni  Ni1  1  0.00000000  0.44905900  0.62199900  1
  Ni  Ni2  1  0.50000000  0.00701900  0.10408800  1
  Ni  Ni3  1  0.00000000  0.99298100  0.60408800  1
  Ni  Ni4  1  0.25595700  0.77131200  0.87904400  1
  Ni  Ni5  1  0.74404300  0.77131200  0.87904400  1
  Ni  Ni6  1  0.24404300  0.22868800  0.37904400  1
  Ni  Ni7  1  0.75595700  0.22868800  0.37904400  1
  H  H0  1  0.24844600  0.49027400  0.25777300  1
  H  H1  1  0.75155400  0.49027400  0.25777300  1
  H  H2  1  0.25155400  0.50972600  0.75777300  1
  H  H3  1  0.74844600  0.50972600  0.75777300  1
  H  H4  1  0.50000000  0.27866200  0.01150000  1
  H  H5  1  0.00000000  0.72133800  0.51150000  1
  H  H6  1  0.50000000  0.06168400  0.32416200  1
  H  H7  1  0.00000000  0.93831600  0.82416200  1
loop_
_geom_bond_atom_site_label_1
_geom_bond_atom_site_label_2
_geom_bond_distance
_geom_bond_site_symmetry_2
H0 Ni0 1.647777 1_555
H0 Ni6 1.684609 1_555
H0 Mg1 2.203990 1_555
H0 Nd0 2.478946 1_555
H0 Nd1 2.490727 1_555
H1 Ni0 1.647777 1_555
H1 Ni7 1.684609 1_555
H1 Mg1 2.203990 1_655
H1 Nd0 2.478946 1_555
H1 Nd1 2.490727 1_655
H2 Ni1 1.647777 1_555
H2 Ni4 1.684609 1_555
H2 Mg0 2.203990 1_555
H2 Nd1 2.478946 1_556
H2 Nd0 2.490727 1_555
H3 Ni1 1.647777 1_655
H3 Ni5 1.684609 1_555
H3 Mg0 2.203990 1_555
H3 Nd1 2.478946 1_656
H3 Nd0 2.490727 1_555
H4 Ni2 1.633512 1_555
H4 Ni0 1.695320 1_555
H4 Mg0 2.177476 1_554
H4 Nd1 2.529119 1_655
H4 Nd1 2.529119 1_555
H5 Ni3 1.633512 1_555
H5 Ni1 1.695320 1_555
H5 Mg1 2.177476 1_555
H5 Nd0 2.529119 1_555
H5 Nd0 2.529119 1_455
H6 Ni6 1.633438 1_555
H6 Ni7 1.633438 1_555
H6 Ni2 1.640450 1_555
H6 Nd0 2.359701 1_545
H7 Ni4 1.633438 1_555
H7 Ni5 1.633438 1_455
H7 Ni3 1.640450 1_555
H7 Nd1 2.359701 1_566
