# generated using pymatgen
data_BaSrEuSbO6
_symmetry_space_group_name_H-M   'P 1'
_cell_length_a   6.01597845
_cell_length_b   6.06831331
_cell_length_c   8.56119355
_cell_angle_alpha   90.34894633
_cell_angle_beta   90.26323582
_cell_angle_gamma   90.67448141
_symmetry_Int_Tables_number   1
_chemical_formula_structural   BaSrEuSbO6
_chemical_formula_sum   'Ba2 Sr2 Eu2 Sb2 O12'
_cell_volume   312.51128682
_cell_formula_units_Z   2
loop_
 _symmetry_equiv_pos_site_id
 _symmetry_equiv_pos_as_xyz
  1  'x, y, z'
loop_
 _atom_site_type_symbol
 _atom_site_label
 _atom_site_symmetry_multiplicity
 _atom_site_fract_x
 _atom_site_fract_y
 _atom_site_fract_z
 _atom_site_occupancy
  Ba  Ba0  1  0.50640420  0.52896658  0.24938993  1
  Ba  Ba1  1  0.49359580  0.47103342  0.75061007  1
  Sr  Sr0  1  0.99209784  0.03852296  0.25115540  1
  Sr  Sr1  1  0.00790216  0.96147704  0.74884460  1
  Eu  Eu0  1  -0.00000000  0.50000000  -0.00000000  1
  Eu  Eu1  1  0.50000000  0.00000000  0.50000000  1
  Sb  Sb0  1  0.50000000  0.00000000  -0.00000000  1
  Sb  Sb1  1  -0.00000000  0.50000000  0.50000000  1
  O  O0  1  0.23101824  0.19652323  0.95929518  1
  O  O1  1  0.26326221  0.70390192  0.53253630  1
  O  O2  1  0.76898176  0.80347677  0.04070482  1
  O  O3  1  0.73673779  0.29609808  0.46746370  1
  O  O4  1  0.29882760  0.73693749  0.96313239  1
  O  O5  1  0.19391220  0.22744619  0.53868422  1
  O  O6  1  0.70117240  0.26306251  0.03686761  1
  O  O7  1  0.80608780  0.77255381  0.46131578  1
  O  O8  1  0.42082376  0.99322734  0.23303278  1
  O  O9  1  0.06064614  0.47300680  0.26700857  1
  O  O10  1  0.57917624  0.00677266  0.76696722  1
  O  O11  1  0.93935386  0.52699320  0.73299143  1
loop_
_geom_bond_atom_site_label_1
_geom_bond_atom_site_label_2
_geom_bond_distance
_geom_bond_site_symmetry_2
Ba0 O9 2.704131 1_555
Ba0 O6 2.704685 1_555
Ba0 O3 2.730763 1_555
Ba0 O8 2.874028 1_555
Ba0 O2 2.909022 1_555
Ba0 O7 2.932872 1_555
Ba0 O1 3.029922 1_555
Ba0 O4 3.033939 1_554
Ba0 O8 3.287596 1_545
Ba0 O9 3.358323 1_655
Ba1 O11 2.704131 1_555
Ba1 O4 2.704685 1_555
Ba1 O1 2.730763 1_555
Ba1 O10 2.874028 1_555
Ba1 O0 2.909022 1_555
Ba1 O5 2.932872 1_555
Ba1 O3 3.029922 1_555
Ba1 O6 3.033939 1_556
Ba1 O10 3.287596 1_565
Ba1 O11 3.358323 1_455
Eu0 O6 2.312721 1_455
Eu0 O4 2.312721 1_554
Eu0 O11 2.320268 1_454
Eu0 O9 2.320268 1_555
Eu0 O2 2.345493 1_455
Eu0 O0 2.345493 1_554
Eu1 O3 2.298696 1_555
Eu1 O1 2.298696 1_545
Eu1 O10 2.332539 1_555
Eu1 O8 2.332539 1_545
Eu1 O5 2.337812 1_555
Eu1 O7 2.337812 1_545
O0 Sb0 2.051219 1_556
O0 Sr1 2.642660 1_545
O0 Sr0 3.042751 1_456
O1 Sb1 2.015582 1_555
O1 Sr1 2.877489 1_555
O2 Sb0 2.051219 1_565
O2 Sr0 2.642660 1_565
O2 Sr1 3.042751 1_654
O3 Sb1 2.015582 1_655
O3 Sr0 2.877489 1_555
O4 Sb0 2.014327 1_566
O4 Sr1 2.888341 1_555
O5 Sb1 2.062679 1_555
O5 Sr1 2.665658 1_545
O5 Sr0 2.958584 1_455
O6 Sb0 2.014327 1_555
O6 Sr0 2.888341 1_555
O7 Sb1 2.062679 1_655
O7 Sr0 2.665658 1_565
O7 Sr1 2.958584 1_655
O8 Sb0 2.053782 1_565
O8 Sr0 2.602264 1_465
O9 Sb1 2.035393 1_555
O9 Sr0 2.666381 1_455
O10 Sb0 2.053782 1_556
O10 Sr1 2.602264 1_645
O11 Sb1 2.035393 1_655
O11 Sr1 2.666381 1_655
