# generated using pymatgen
data_Na(Nb3Se4)2
_symmetry_space_group_name_H-M   'P 1'
_cell_length_a   10.09415001
_cell_length_b   10.09416944
_cell_length_c   3.52593784
_cell_angle_alpha   89.99994414
_cell_angle_beta   89.99873650
_cell_angle_gamma   120.00094756
_symmetry_Int_Tables_number   1
_chemical_formula_structural   Na(Nb3Se4)2
_chemical_formula_sum   'Na1 Nb6 Se8'
_cell_volume   311.12970799
_cell_formula_units_Z   1
loop_
 _symmetry_equiv_pos_site_id
 _symmetry_equiv_pos_as_xyz
  1  'x, y, z'
loop_
 _atom_site_type_symbol
 _atom_site_label
 _atom_site_symmetry_multiplicity
 _atom_site_fract_x
 _atom_site_fract_y
 _atom_site_fract_z
 _atom_site_occupancy
  Na  Na0  1  -0.00001932  -0.00000948  0.49997723  1
  Nb  Nb0  1  0.10483220  0.61689307  0.25070913  1
  Nb  Nb1  1  0.51205006  0.89514801  0.25069559  1
  Nb  Nb2  1  0.38311048  0.48795520  0.25067435  1
  Nb  Nb3  1  0.89519470  0.38312902  0.74931414  1
  Nb  Nb4  1  0.48793035  0.10479121  0.74930685  1
  Nb  Nb5  1  0.61687128  0.51207924  0.74929928  1
  Se  Se0  1  0.27858262  0.94201947  0.24853277  1
  Se  Se1  1  0.66345658  0.72142963  0.24849149  1
  Se  Se2  1  0.05795889  0.33655359  0.24853344  1
  Se  Se3  1  0.72142217  0.05794417  0.75151568  1
  Se  Se4  1  0.33653117  0.27860009  0.75145067  1
  Se  Se5  1  0.94206457  0.66347370  0.75151266  1
  Se  Se6  1  0.66669791  0.33334432  0.24926912  1
  Se  Se7  1  0.33331635  0.66664676  0.75071760  1
loop_
_geom_bond_atom_site_label_1
_geom_bond_atom_site_label_2
_geom_bond_distance
_geom_bond_site_symmetry_2
Na0 Se3 3.268018 1_455
Na0 Se1 3.268039 1_445
Na0 Se5 3.268190 1_445
Na0 Se2 3.268333 1_555
Na0 Se4 3.268357 1_555
Na0 Se0 3.268451 1_545
Nb0 Se5 2.606010 1_454
Nb0 Se5 2.609792 1_455
Nb0 Se2 2.625398 1_555
Nb0 Se7 2.742432 1_554
Nb0 Se7 2.742536 1_555
Nb0 Se0 2.844416 1_555
Nb1 Se3 2.606075 1_564
Nb1 Se3 2.610049 1_565
Nb1 Se0 2.625408 1_555
Nb1 Se7 2.742544 1_554
Nb1 Se7 2.742590 1_555
Nb1 Se1 2.844431 1_555
Nb2 Se4 2.606104 1_554
Nb2 Se4 2.609788 1_555
Nb2 Se1 2.625437 1_555
Nb2 Se7 2.742320 1_554
Nb2 Se7 2.742504 1_555
Nb2 Se2 2.844629 1_555
Nb3 Se2 2.606013 1_656
Nb3 Se2 2.609686 1_655
Nb3 Se5 2.625463 1_555
Nb3 Se6 2.742370 1_556
Nb3 Se6 2.742640 1_555
Nb3 Se3 2.844924 1_555
Nb4 Se0 2.606007 1_546
Nb4 Se0 2.609762 1_545
Nb4 Se3 2.625496 1_555
Nb4 Se6 2.742857 1_556
Nb4 Se6 2.742974 1_555
Nb4 Se4 2.845176 1_555
Nb5 Se1 2.605981 1_556
Nb5 Se1 2.609815 1_555
Nb5 Se4 2.625416 1_555
Nb5 Se6 2.742846 1_556
Nb5 Se6 2.742971 1_555
Nb5 Se5 2.845005 1_555
