# generated using pymatgen
data_GdB4Ru
_symmetry_space_group_name_H-M   'P 1'
_cell_length_a   3.57813800
_cell_length_b   5.98370400
_cell_length_c   11.57141600
_cell_angle_alpha   90.00000000
_cell_angle_beta   90.00000000
_cell_angle_gamma   90.00000000
_symmetry_Int_Tables_number   1
_chemical_formula_structural   GdB4Ru
_chemical_formula_sum   'Gd4 B16 Ru4'
_cell_volume   247.75001823
_cell_formula_units_Z   4
loop_
 _symmetry_equiv_pos_site_id
 _symmetry_equiv_pos_as_xyz
  1  'x, y, z'
loop_
 _atom_site_type_symbol
 _atom_site_label
 _atom_site_symmetry_multiplicity
 _atom_site_fract_x
 _atom_site_fract_y
 _atom_site_fract_z
 _atom_site_occupancy
  Gd  Gd0  1  0.00000000  0.62971800  0.35036400  1
  Gd  Gd1  1  0.00000000  0.37028200  0.64963600  1
  Gd  Gd2  1  0.00000000  0.12971800  0.14963600  1
  Gd  Gd3  1  0.00000000  0.87028200  0.85036400  1
  B  B0  1  0.50000000  0.78908000  0.18510700  1
  B  B1  1  0.50000000  0.21092000  0.81489300  1
  B  B2  1  0.50000000  0.28908000  0.31489300  1
  B  B3  1  0.50000000  0.71092000  0.68510700  1
  B  B4  1  0.50000000  0.86296100  0.03067100  1
  B  B5  1  0.50000000  0.13703900  0.96932900  1
  B  B6  1  0.50000000  0.36296100  0.46932900  1
  B  B7  1  0.50000000  0.63703900  0.53067100  1
  B  B8  1  0.50000000  0.88888800  0.45349500  1
  B  B9  1  0.50000000  0.11111200  0.54650500  1
  B  B10  1  0.50000000  0.38888800  0.04650500  1
  B  B11  1  0.50000000  0.61111200  0.95349500  1
  B  B12  1  0.50000000  0.97812200  0.30884500  1
  B  B13  1  0.50000000  0.02187800  0.69115500  1
  B  B14  1  0.50000000  0.47812200  0.19115500  1
  B  B15  1  0.50000000  0.52187800  0.80884500  1
  Ru  Ru0  1  0.00000000  0.64031100  0.09228600  1
  Ru  Ru1  1  0.00000000  0.35968900  0.90771400  1
  Ru  Ru2  1  0.00000000  0.14031100  0.40771400  1
  Ru  Ru3  1  0.00000000  0.85968900  0.59228600  1
loop_
_geom_bond_atom_site_label_1
_geom_bond_atom_site_label_2
_geom_bond_distance
_geom_bond_site_symmetry_2
Gd0 Ru0 2.987001 1_555
Gd0 Ru2 3.002717 1_555
Gd0 Ru3 3.119314 1_555
Gd0 Ru2 3.126479 1_565
Gd1 Ru1 2.987001 1_555
Gd1 Ru3 3.002717 1_555
Gd1 Ru2 3.119314 1_555
Gd1 Ru3 3.126479 1_545
Gd2 Ru2 2.987001 1_555
Gd2 Ru0 3.002717 1_545
Gd2 Ru1 3.119314 1_554
Gd2 Ru0 3.126479 1_555
Gd3 Ru3 2.987001 1_555
Gd3 Ru1 3.002717 1_565
Gd3 Ru0 3.119314 1_556
Gd3 Ru1 3.126479 1_555
B0 B12 1.824738 1_555
B0 B4 1.840913 1_555
B0 B14 1.861996 1_555
B0 Ru0 2.268663 1_555
B0 Ru0 2.268663 1_655
B0 Gd2 2.742956 1_565
B0 Gd2 2.742956 1_665
B0 Gd0 2.786898 1_555
B0 Gd0 2.786898 1_655
B1 B13 1.824738 1_555
B1 B5 1.840913 1_555
B1 B15 1.861996 1_555
B1 Ru1 2.268663 1_655
B1 Ru1 2.268663 1_555
B1 Gd3 2.742956 1_645
B1 Gd3 2.742956 1_545
B1 Gd1 2.786898 1_655
B1 Gd1 2.786898 1_555
B2 B6 1.840913 1_555
B2 Ru2 2.268663 1_555
B2 Ru2 2.268663 1_655
B2 Gd0 2.742956 1_655
B2 Gd0 2.742956 1_555
B2 Gd2 2.786898 1_655
B2 Gd2 2.786898 1_555
B3 B7 1.840913 1_555
B3 Ru3 2.268663 1_555
B3 Ru3 2.268663 1_655
B3 Gd1 2.742956 1_655
B3 Gd1 2.742956 1_555
B3 Gd3 2.786898 1_555
B3 Gd3 2.786898 1_655
B4 B5 1.787020 1_564
B4 Ru0 2.341804 1_555
B4 Ru0 2.341804 1_655
B4 Gd3 2.748778 1_554
B4 Gd3 2.748778 1_654
B4 Gd2 2.764709 1_565
B4 Gd2 2.764709 1_665
B5 Ru1 2.341804 1_655
B5 Ru1 2.341804 1_555
B5 Gd2 2.748778 1_656
B5 Gd2 2.748778 1_556
B5 Gd3 2.764709 1_645
B5 Gd3 2.764709 1_545
B6 B9 1.751722 1_555
B6 B7 1.787020 1_555
B6 Ru2 2.341804 1_555
B6 Ru2 2.341804 1_655
B6 Gd1 2.748778 1_655
B6 Gd1 2.748778 1_555
B6 Gd0 2.764709 1_555
B6 Gd0 2.764709 1_655
B7 B8 1.751722 1_555
B7 Ru3 2.341804 1_655
B7 Ru3 2.341804 1_555
B7 Gd0 2.748778 1_655
B7 Gd0 2.748778 1_555
B7 Gd1 2.764709 1_655
B7 Gd1 2.764709 1_555
B8 B9 1.710699 1_565
B8 Ru2 2.396820 1_665
B8 Ru2 2.396820 1_565
B8 Ru3 2.410510 1_655
B8 Ru3 2.410510 1_555
B8 Gd0 2.651391 1_555
B8 Gd0 2.651391 1_655
B9 Ru3 2.396820 1_645
B9 Ru3 2.396820 1_545
B9 Ru2 2.410510 1_555
B9 Ru2 2.410510 1_655
B9 Gd1 2.651391 1_655
B9 Gd1 2.651391 1_555
B10 B11 1.710699 1_554
B10 B5 1.751722 1_554
B10 B14 1.756908 1_555
B10 Ru0 2.396820 1_555
B10 Ru0 2.396820 1_655
B10 Ru1 2.410510 1_654
B10 Ru1 2.410510 1_554
B10 Gd2 2.651391 1_655
B10 Gd2 2.651391 1_555
B11 B4 1.751722 1_556
B11 B15 1.756908 1_555
B11 Ru1 2.396820 1_555
B11 Ru1 2.396820 1_655
B11 Ru0 2.410510 1_656
B11 Ru0 2.410510 1_556
B11 Gd3 2.651391 1_655
B11 Gd3 2.651391 1_555
B12 B8 1.756908 1_555
B12 B2 1.861996 1_565
B12 Ru2 2.334841 1_665
B12 Ru2 2.334841 1_565
B12 Gd2 2.723524 1_565
B12 Gd2 2.723524 1_665
B12 Gd0 2.788862 1_655
B12 Gd0 2.788862 1_555
B13 B9 1.756908 1_555
B13 B3 1.861996 1_545
B13 Ru3 2.334841 1_545
B13 Ru3 2.334841 1_645
B13 Gd3 2.723524 1_545
B13 Gd3 2.723524 1_645
B13 Gd1 2.788862 1_655
B13 Gd1 2.788862 1_555
B14 B2 1.824738 1_555
B14 Ru0 2.334841 1_555
B14 Ru0 2.334841 1_655
B14 Gd0 2.723524 1_655
B14 Gd0 2.723524 1_555
B14 Gd2 2.788862 1_555
B14 Gd2 2.788862 1_655
B15 B3 1.824738 1_555
B15 Ru1 2.334841 1_655
B15 Ru1 2.334841 1_555
B15 Gd1 2.723524 1_655
B15 Gd1 2.723524 1_555
B15 Gd3 2.788862 1_555
B15 Gd3 2.788862 1_655
Ru0 Ru1 2.716808 1_554
Ru2 Ru3 2.716808 1_545
