# generated using pymatgen
data_PrSbTe
_symmetry_space_group_name_H-M   'P 1'
_cell_length_a   4.36819175
_cell_length_b   4.36819175
_cell_length_c   9.64987136
_cell_angle_alpha   90.00000000
_cell_angle_beta   90.00000000
_cell_angle_gamma   90.00000000
_symmetry_Int_Tables_number   1
_chemical_formula_structural   PrSbTe
_chemical_formula_sum   'Pr2 Sb2 Te2'
_cell_volume   184.13015235
_cell_formula_units_Z   2
loop_
 _symmetry_equiv_pos_site_id
 _symmetry_equiv_pos_as_xyz
  1  'x, y, z'
loop_
 _atom_site_type_symbol
 _atom_site_label
 _atom_site_symmetry_multiplicity
 _atom_site_fract_x
 _atom_site_fract_y
 _atom_site_fract_z
 _atom_site_occupancy
  Pr  Pr0  1  0.75000000  0.75000000  0.72475367  1
  Pr  Pr1  1  0.25000000  0.25000000  0.27524633  1
  Sb  Sb0  1  0.75000000  0.25000000  0.00000000  1
  Sb  Sb1  1  0.25000000  0.75000000  0.00000000  1
  Te  Te0  1  0.75000000  0.75000000  0.37552867  1
  Te  Te1  1  0.25000000  0.25000000  0.62447133  1
loop_
_geom_bond_atom_site_label_1
_geom_bond_atom_site_label_2
_geom_bond_distance
_geom_bond_site_symmetry_2
Pr0 Te1 3.236822 1_665
Pr0 Te1 3.236822 1_555
Pr0 Te1 3.236822 1_565
Pr0 Te1 3.236822 1_655
Pr0 Te0 3.369976 1_555
Pr0 Sb0 3.438764 1_566
Pr0 Sb1 3.438764 1_556
Pr0 Sb0 3.438764 1_556
Pr0 Sb1 3.438764 1_656
Pr1 Te0 3.236822 1_555
Pr1 Te0 3.236822 1_545
Pr1 Te0 3.236822 1_455
Pr1 Te0 3.236822 1_445
Pr1 Te1 3.369976 1_555
Pr1 Sb0 3.438764 1_455
Pr1 Sb0 3.438764 1_555
Pr1 Sb1 3.438764 1_545
Pr1 Sb1 3.438764 1_555
Sb0 Sb1 3.088778 1_555
Sb0 Sb1 3.088778 1_645
Sb0 Sb1 3.088778 1_655
Sb0 Sb1 3.088778 1_545
