# generated using pymatgen
data_Li7Mn4CoO12
_symmetry_space_group_name_H-M   'P 1'
_cell_length_a   6.80133493
_cell_length_b   8.65913172
_cell_length_c   7.72404617
_cell_angle_alpha   104.65646910
_cell_angle_beta   91.66417836
_cell_angle_gamma   99.85273937
_symmetry_Int_Tables_number   1
_chemical_formula_structural   Li7Mn4CoO12
_chemical_formula_sum   'Li14 Mn8 Co2 O24'
_cell_volume   432.35359599
_cell_formula_units_Z   2
loop_
 _symmetry_equiv_pos_site_id
 _symmetry_equiv_pos_as_xyz
  1  'x, y, z'
loop_
 _atom_site_type_symbol
 _atom_site_label
 _atom_site_symmetry_multiplicity
 _atom_site_fract_x
 _atom_site_fract_y
 _atom_site_fract_z
 _atom_site_occupancy
  Li  Li0  1  0.66662800  0.83332800  0.16667500  1
  Li  Li1  1  0.16661900  0.83331100  0.66667000  1
  Li  Li2  1  0.58941000  0.91098500  0.84208900  1
  Li  Li3  1  0.08727800  0.91092400  0.34220000  1
  Li  Li4  1  0.24610800  0.75578100  0.99112000  1
  Li  Li5  1  0.74390000  0.75569100  0.49121600  1
  Li  Li6  1  0.90591700  0.08184900  0.66754600  1
  Li  Li7  1  0.40755400  0.08273300  0.16678800  1
  Li  Li8  1  0.42750800  0.58485800  0.66577200  1
  Li  Li9  1  0.92588100  0.58396100  0.16654300  1
  Li  Li10  1  0.06756800  0.41901400  0.83753200  1
  Li  Li11  1  0.57877200  0.41716800  0.33278700  1
  Li  Li12  1  0.26583900  0.24771900  0.49583300  1
  Li  Li13  1  0.75454100  0.24950600  0.00054400  1
  Mn  Mn0  1  0.82873200  0.16400200  0.33246400  1
  Mn  Mn1  1  0.33699200  0.16227700  0.83061600  1
  Mn  Mn2  1  0.50451100  0.50261300  0.00090000  1
  Mn  Mn3  1  0.99637500  0.50435900  0.50270500  1
  Mn  Mn4  1  0.00089000  0.99927300  0.00116400  1
  Mn  Mn5  1  0.50074000  0.00007200  0.50063300  1
  Mn  Mn6  1  0.83258800  0.66657600  0.83270700  1
  Mn  Mn7  1  0.33245400  0.66744300  0.33215200  1
  Co  Co0  1  0.66667400  0.33333700  0.66667200  1
  Co  Co1  1  0.16667400  0.33335900  0.16667600  1
  O  O0  1  0.37271600  0.87107100  0.26929200  1
  O  O1  1  0.87408500  0.87194800  0.76986400  1
  O  O2  1  0.45924900  0.79469800  0.56344100  1
  O  O3  1  0.96063900  0.79560100  0.06401000  1
  O  O4  1  0.23942800  0.04349500  0.58676300  1
  O  O5  1  0.74158700  0.04294000  0.08431300  1
  O  O6  1  0.09389200  0.62312900  0.74656600  1
  O  O7  1  0.59171900  0.62367600  0.24902700  1
  O  O8  1  0.56455300  0.69660500  0.91291300  1
  O  O9  1  0.06472400  0.69691900  0.41096300  1
  O  O10  1  0.26856700  0.96972500  0.92235600  1
  O  O11  1  0.76874900  0.97003200  0.42044800  1
  O  O12  1  0.20708100  0.53803900  0.09848600  1
  O  O13  1  0.70606800  0.53946700  0.60128300  1
  O  O14  1  0.12624200  0.12868000  0.23483100  1
  O  O15  1  0.62727200  0.12720700  0.73204400  1
  O  O16  1  0.40373300  0.36851100  0.75383700  1
  O  O17  1  0.87786300  0.37152100  0.26546000  1
  O  O18  1  0.92960200  0.29813700  0.57951800  1
  O  O19  1  0.45543900  0.29506600  0.06789600  1
  O  O20  1  0.04462000  0.20793300  0.93593500  1
  O  O21  1  0.53928700  0.20329400  0.43284800  1
  O  O22  1  0.28872400  0.45881500  0.39741400  1
  O  O23  1  0.79401400  0.46335400  0.90049400  1
loop_
_geom_bond_atom_site_label_1
_geom_bond_atom_site_label_2
_geom_bond_distance
_geom_bond_site_symmetry_2
Li0 O8 2.047158 1_554
Li0 O11 2.047246 1_555
Li0 O5 2.060470 1_565
Li0 O7 2.060710 1_555
Li0 O0 2.217106 1_555
Li0 O3 2.217836 1_555
Li1 O6 2.053263 1_555
Li1 O4 2.053379 1_565
Li1 O10 2.058169 1_555
Li1 O9 2.058172 1_555
Li1 O1 2.211522 1_455
Li1 O2 2.212183 1_555
Li2 O8 2.045903 1_555
Li2 O5 2.068392 1_566
Li2 O1 2.089384 1_555
Li2 O2 2.217550 1_555
Li2 O15 2.224261 1_565
Li2 O10 2.388258 1_555
Li3 O9 2.035955 1_555
Li3 O4 2.083167 1_565
Li3 O0 2.097506 1_555
Li3 O3 2.206468 1_455
Li3 O14 2.224072 1_565
Li3 O11 2.370575 1_455
Li4 O10 2.035498 1_555
Li4 O6 2.083449 1_555
Li4 O3 2.097601 1_456
Li4 O0 2.206250 1_556
Li4 O12 2.223940 1_556
Li4 O8 2.370137 1_555
Li5 O11 2.045366 1_555
Li5 O7 2.068323 1_555
Li5 O2 2.089162 1_555
Li5 O1 2.217562 1_555
Li5 O13 2.224382 1_555
Li5 O9 2.388193 1_655
Li6 O11 2.025551 1_545
Li6 O15 2.050520 1_555
Li6 O18 2.131527 1_555
Li6 O1 2.139429 1_545
Li6 O20 2.183584 1_655
Li6 O4 2.424886 1_655
Li7 O10 2.015081 1_544
Li7 O14 2.075651 1_555
Li7 O19 2.142492 1_555
Li7 O21 2.145493 1_555
Li7 O0 2.153787 1_545
Li7 O5 2.434509 1_555
Li8 O8 2.025428 1_555
Li8 O13 2.050030 1_555
Li8 O16 2.132126 1_555
Li8 O2 2.139020 1_555
Li8 O22 2.183500 1_555
Li8 O6 2.425431 1_555
Li9 O9 2.014582 1_655
Li9 O12 2.074882 1_655
Li9 O17 2.143472 1_555
Li9 O23 2.145772 1_554
Li9 O3 2.153756 1_555
Li9 O7 2.435215 1_555
Li10 O23 2.011974 1_455
Li10 O6 2.043795 1_555
Li10 O18 2.108892 1_455
Li10 O12 2.127979 1_556
Li10 O20 2.134272 1_555
Li10 O16 2.474191 1_555
Li11 O7 2.039306 1_555
Li11 O22 2.116696 1_555
Li11 O19 2.123637 1_555
Li11 O13 2.154659 1_555
Li11 O21 2.159952 1_555
Li11 O17 2.190277 1_555
Li12 O21 2.011530 1_555
Li12 O4 2.044492 1_555
Li12 O16 2.108534 1_555
Li12 O14 2.128492 1_555
Li12 O22 2.134491 1_555
Li12 O18 2.474445 1_455
Li13 O5 2.039816 1_555
Li13 O20 2.116696 1_654
Li13 O17 2.123635 1_555
Li13 O15 2.154632 1_554
Li13 O23 2.159695 1_554
Li13 O19 2.190181 1_555
Mn0 O11 1.951564 1_545
Mn0 O5 1.956693 1_555
Mn0 O17 1.970698 1_555
Mn0 O18 1.997702 1_555
Mn0 O21 2.185584 1_555
Mn0 O14 2.222695 1_655
Mn1 O4 1.938914 1_555
Mn1 O10 1.962188 1_545
Mn1 O19 1.964925 1_556
Mn1 O16 2.005245 1_555
Mn1 O15 2.178354 1_555
Mn1 O20 2.229916 1_555
Mn2 O8 1.951780 1_554
Mn2 O7 1.956619 1_555
Mn2 O19 1.970889 1_555
Mn2 O16 1.997542 1_554
Mn2 O23 2.185949 1_554
Mn2 O12 2.222249 1_555
Mn3 O6 1.938870 1_655
Mn3 O9 1.962207 1_655
Mn3 O17 1.964959 1_555
Mn3 O18 2.005305 1_555
Mn3 O13 2.178610 1_555
Mn3 O22 2.229465 1_655
Mn4 O3 1.922671 1_455
Mn4 O1 1.933783 1_454
Mn4 O14 1.949418 1_565
Mn4 O5 1.958795 1_465
Mn4 O20 1.972903 1_564
Mn4 O10 1.973679 1_554
Mn5 O15 1.933417 1_555
Mn5 O2 1.936580 1_545
Mn5 O21 1.937996 1_555
Mn5 O0 1.940516 1_545
Mn5 O4 1.978244 1_555
Mn5 O11 1.979961 1_545
Mn6 O13 1.933410 1_555
Mn6 O1 1.936695 1_555
Mn6 O23 1.938001 1_555
Mn6 O3 1.940407 1_556
Mn6 O6 1.978273 1_655
Mn6 O8 1.980159 1_555
Mn7 O0 1.922358 1_555
Mn7 O2 1.933538 1_555
Mn7 O12 1.949450 1_555
Mn7 O7 1.958724 1_555
Mn7 O22 1.972764 1_555
Mn7 O9 1.973900 1_555
Co0 O15 1.952667 1_555
Co0 O13 1.952733 1_555
Co0 O23 1.955996 1_555
Co0 O21 1.956170 1_555
Co0 O18 1.973976 1_555
Co0 O16 1.974037 1_555
Co1 O20 1.916009 1_554
Co1 O22 1.916050 1_555
Co1 O14 1.951336 1_555
Co1 O12 1.951481 1_555
Co1 O19 2.175136 1_555
Co1 O17 2.175193 1_455
