# generated using pymatgen
data_SmAsSe
_symmetry_space_group_name_H-M   'P 1'
_cell_length_a   3.96647100
_cell_length_b   3.96647100
_cell_length_c   9.00667700
_cell_angle_alpha   90.00000000
_cell_angle_beta   90.00000000
_cell_angle_gamma   90.00000000
_symmetry_Int_Tables_number   1
_chemical_formula_structural   SmAsSe
_chemical_formula_sum   'Sm2 As2 Se2'
_cell_volume   141.70107827
_cell_formula_units_Z   2
loop_
 _symmetry_equiv_pos_site_id
 _symmetry_equiv_pos_as_xyz
  1  'x, y, z'
loop_
 _atom_site_type_symbol
 _atom_site_label
 _atom_site_symmetry_multiplicity
 _atom_site_fract_x
 _atom_site_fract_y
 _atom_site_fract_z
 _atom_site_occupancy
  Sm  Sm0  1  0.50000000  0.00000000  0.27700800  1
  Sm  Sm1  1  0.00000000  0.50000000  0.72299200  1
  As  As0  1  0.50000000  0.50000000  0.00000000  1
  As  As1  1  0.00000000  0.00000000  0.00000000  1
  Se  Se0  1  0.50000000  0.00000000  0.62473100  1
  Se  Se1  1  0.00000000  0.50000000  0.37526900  1
loop_
_geom_bond_atom_site_label_1
_geom_bond_atom_site_label_2
_geom_bond_distance
_geom_bond_site_symmetry_2
As0 As1 2.804719 1_665
As0 As1 2.804719 1_555
As0 As1 2.804719 1_565
As0 As1 2.804719 1_655
As0 Sm0 3.187139 1_565
As0 Sm0 3.187139 1_555
As0 Sm1 3.187139 1_554
As0 Sm1 3.187139 1_654
As1 Sm0 3.187139 1_455
As1 Sm0 3.187139 1_555
As1 Sm1 3.187139 1_554
As1 Sm1 3.187139 1_544
Se0 Sm1 2.941034 1_655
Se0 Sm1 2.941034 1_555
Se0 Sm1 2.941034 1_545
Se0 Sm1 2.941034 1_645
Se0 Sm0 3.131829 1_555
Se1 Sm0 2.941034 1_455
Se1 Sm0 2.941034 1_565
Se1 Sm0 2.941034 1_465
Se1 Sm0 2.941034 1_555
Se1 Sm1 3.131829 1_555
