# generated using pymatgen
data_DyThFe6
_symmetry_space_group_name_H-M   'P 1'
_cell_length_a   5.14562472
_cell_length_b   5.14562469
_cell_length_c   16.86431737
_cell_angle_alpha   98.71086189
_cell_angle_beta   98.71085887
_cell_angle_gamma   60.03239775
_symmetry_Int_Tables_number   1
_chemical_formula_structural   DyThFe6
_chemical_formula_sum   'Dy3 Th3 Fe18'
_cell_volume   380.86458220
_cell_formula_units_Z   3
loop_
 _symmetry_equiv_pos_site_id
 _symmetry_equiv_pos_as_xyz
  1  'x, y, z'
loop_
 _atom_site_type_symbol
 _atom_site_label
 _atom_site_symmetry_multiplicity
 _atom_site_fract_x
 _atom_site_fract_y
 _atom_site_fract_z
 _atom_site_occupancy
  Dy  Dy0  1  0.42832116  0.42832104  0.28507031  1
  Dy  Dy1  1  0.92963854  0.92963843  0.78897940  1
  Dy  Dy2  1  0.07130437  0.07130423  0.21391349  1
  Th  Th0  1  0.57065140  0.57065138  0.71174750  1
  Th  Th1  1  0.00062481  0.00062467  0.00177442  1
  Th  Th2  1  0.49798983  0.49799036  0.49404116  1
  Fe  Fe0  1  0.46128428  0.95758757  0.37626232  1
  Fe  Fe1  1  0.96184238  0.45813907  0.87805658  1
  Fe  Fe2  1  0.95769451  0.95769456  0.37627467  1
  Fe  Fe3  1  0.45838057  0.45838017  0.87812104  1
  Fe  Fe4  1  0.95758779  0.46128408  0.37626228  1
  Fe  Fe5  1  0.45813929  0.96184219  0.87805670  1
  Fe  Fe6  1  0.03847145  0.54241711  0.12343643  1
  Fe  Fe7  1  0.53757214  0.04250676  0.62286822  1
  Fe  Fe8  1  0.54226321  0.54226339  0.12342631  1
  Fe  Fe9  1  0.04241068  0.04241089  0.62285451  1
  Fe  Fe10  1  0.54241776  0.03847089  0.12343641  1
  Fe  Fe11  1  0.04250692  0.53757222  0.62286827  1
  Fe  Fe12  1  0.33385834  0.33385835  0.00145515  1
  Fe  Fe13  1  0.83373612  0.83373668  0.50124459  1
  Fe  Fe14  1  0.16622937  0.16622939  0.49870463  1
  Fe  Fe15  1  0.66636250  0.66636231  0.99918268  1
  Fe  Fe16  1  0.74992830  0.74992830  0.24986418  1
  Fe  Fe17  1  0.25078228  0.25078195  0.75209675  1
loop_
_geom_bond_atom_site_label_1
_geom_bond_atom_site_label_2
_geom_bond_distance
_geom_bond_site_symmetry_2
Dy0 Fe4 2.983267 1_455
Dy0 Fe0 2.983267 1_545
Dy0 Fe2 2.986515 1_545
Dy0 Fe2 2.986516 1_455
Dy0 Fe0 2.987419 1_555
Dy0 Fe4 2.987419 1_555
Dy0 Fe16 3.026686 1_555
Dy0 Fe16 3.029063 1_545
Dy0 Fe16 3.029064 1_455
Dy0 Fe8 3.070880 1_555
Dy0 Fe6 3.074236 1_555
Dy0 Fe10 3.074237 1_555
Dy0 Dy2 3.197519 1_655
Dy0 Dy2 3.197519 1_565
Dy0 Dy2 3.197776 1_555
Dy0 Th2 3.469829 1_555
Dy1 Fe1 2.966023 1_555
Dy1 Fe5 2.966024 1_555
Dy1 Fe3 2.969293 1_565
Dy1 Fe3 2.969295 1_655
Dy1 Fe1 2.969348 1_565
Dy1 Fe5 2.969349 1_655
Dy1 Fe17 3.032983 1_665
Dy1 Fe17 3.034160 1_565
Dy1 Fe17 3.034161 1_655
Dy1 Fe9 3.137446 1_665
Dy1 Fe11 3.140911 1_655
Dy1 Fe7 3.140912 1_565
Dy1 Th0 3.236072 1_555
Dy1 Th0 3.236316 1_655
Dy1 Th0 3.236316 1_565
Dy1 Th1 3.533328 1_666
Dy2 Fe6 2.977659 1_555
Dy2 Fe10 2.977661 1_555
Dy2 Fe8 2.980496 1_545
Dy2 Fe8 2.980498 1_455
Dy2 Fe10 2.981022 1_455
Dy2 Fe6 2.981023 1_545
Dy2 Fe16 3.029232 1_445
Dy2 Fe16 3.031407 1_545
Dy2 Fe16 3.031408 1_455
Dy2 Fe2 3.080883 1_445
Dy2 Fe4 3.084374 1_455
Dy2 Fe0 3.084375 1_545
Dy2 Th1 3.522435 1_555
Th0 Th2 3.614878 1_555
Fe0 Fe14 2.524129 1_565
Fe0 Fe13 2.546532 1_555
Fe0 Fe2 2.554584 1_555
Fe0 Fe4 2.555042 1_555
Fe0 Fe16 2.564198 1_555
Fe0 Fe2 2.591041 1_455
Fe0 Fe4 2.593102 1_465
Fe0 Th2 3.230583 1_555
Fe0 Th2 3.232854 1_565
Fe1 Fe15 2.506531 1_555
Fe1 Fe12 2.525378 1_656
Fe1 Fe5 2.555008 1_645
Fe1 Fe3 2.555455 1_655
Fe1 Fe17 2.558630 1_655
Fe1 Fe3 2.590171 1_555
Fe1 Fe5 2.593136 1_555
Fe1 Th0 3.141795 1_555
Fe1 Th1 3.290520 1_656
Fe1 Th1 3.294135 1_666
Fe2 Fe4 2.554585 1_555
Fe2 Fe4 2.591040 1_565
Fe2 Th2 3.232601 1_655
Fe2 Th2 3.232603 1_565
Fe3 Fe5 2.555454 1_545
Fe3 Fe5 2.590171 1_555
Fe3 Th0 3.139302 1_555
Fe3 Th1 3.292651 1_656
Fe3 Th1 3.292652 1_566
Fe4 Th2 3.230585 1_555
Fe4 Th2 3.232852 1_655
Fe5 Th0 3.141796 1_555
Fe5 Th1 3.290519 1_566
Fe5 Th1 3.294134 1_666
Fe6 Fe8 2.553671 1_455
Fe6 Fe8 2.591954 1_555
Fe6 Th1 3.269889 1_565
Fe6 Th1 3.272393 1_555
Fe7 Fe9 2.548126 1_555
Fe7 Fe9 2.597498 1_655
Fe7 Th0 2.963605 1_545
Fe7 Th0 2.968534 1_555
Fe7 Th2 3.344571 1_555
Fe7 Th2 3.347292 1_545
Fe8 Th1 3.272032 1_565
Fe8 Th1 3.272034 1_655
Fe9 Th0 2.967248 1_455
Fe9 Th0 2.967250 1_545
Fe9 Th2 3.346764 1_545
Fe9 Th2 3.346765 1_455
Fe10 Fe12 2.518443 1_555
Fe10 Fe15 2.536418 1_544
Fe10 Fe8 2.553669 1_545
Fe10 Fe6 2.553756 1_645
Fe10 Fe16 2.564365 1_545
Fe10 Fe8 2.591956 1_555
Fe10 Fe6 2.594388 1_555
Fe10 Th1 3.269888 1_655
Fe10 Th1 3.272394 1_555
Fe11 Fe13 2.515420 1_455
Fe11 Fe14 2.533294 1_555
Fe11 Fe9 2.548127 1_555
Fe11 Fe7 2.548668 1_555
Fe11 Fe9 2.597498 1_565
Fe11 Fe7 2.599476 1_465
Fe11 Fe17 2.600493 1_555
Fe11 Th0 2.963605 1_455
Fe11 Th0 2.968533 1_555
Fe11 Th2 3.344570 1_555
Fe11 Th2 3.347295 1_455
Fe12 Fe6 2.518442 1_555
Fe12 Fe8 2.518658 1_555
Fe12 Fe3 2.522851 1_554
Fe12 Fe5 2.525377 1_544
Fe12 Fe15 2.969896 1_554
Fe12 Th1 2.970401 1_555
Fe12 Th1 2.971776 1_565
Fe12 Th1 2.971776 1_655
Fe12 Fe15 2.972380 1_454
Fe12 Fe15 2.972381 1_544
Fe13 Fe7 2.515418 1_565
Fe13 Fe9 2.515904 1_665
Fe13 Fe2 2.544832 1_555
Fe13 Fe4 2.546534 1_555
Fe13 Fe14 2.970646 1_665
Fe13 Fe14 2.972094 1_565
Fe13 Fe14 2.972096 1_655
Fe13 Th2 2.973004 1_555
Fe13 Th2 2.974077 1_565
Fe13 Th2 2.974077 1_655
Fe14 Fe4 2.524129 1_455
Fe14 Fe2 2.524672 1_445
Fe14 Fe9 2.531614 1_555
Fe14 Fe7 2.533293 1_555
Fe14 Th2 2.971094 1_555
Fe14 Th2 2.972934 1_545
Fe14 Th2 2.972936 1_455
Fe15 Fe3 2.505882 1_555
Fe15 Fe5 2.506529 1_555
Fe15 Fe8 2.534494 1_556
Fe15 Fe6 2.536420 1_656
Fe15 Th1 2.971288 1_666
Fe15 Th1 2.971793 1_656
Fe15 Th1 2.971793 1_566
Fe16 Fe4 2.564198 1_555
Fe16 Fe6 2.564366 1_655
Fe16 Fe8 2.567244 1_555
Fe16 Fe2 2.567438 1_555
Fe17 Fe5 2.558631 1_545
Fe17 Fe3 2.561992 1_555
Fe17 Fe7 2.600493 1_555
Fe17 Fe9 2.604340 1_555
Fe17 Th0 3.044025 1_555
Fe17 Th0 3.046851 1_545
Fe17 Th0 3.046852 1_455
