# generated using pymatgen
data_Sr3PrMn2O8
_symmetry_space_group_name_H-M   'P 1'
_cell_length_a   6.78519361
_cell_length_b   6.78519361
_cell_length_c   5.54880800
_cell_angle_alpha   90.00000000
_cell_angle_beta   90.00000000
_cell_angle_gamma   131.81498978
_symmetry_Int_Tables_number   1
_chemical_formula_structural   Sr3PrMn2O8
_chemical_formula_sum   'Sr3 Pr1 Mn2 O8'
_cell_volume   190.39530626
_cell_formula_units_Z   1
loop_
 _symmetry_equiv_pos_site_id
 _symmetry_equiv_pos_as_xyz
  1  'x, y, z'
loop_
 _atom_site_type_symbol
 _atom_site_label
 _atom_site_symmetry_multiplicity
 _atom_site_fract_x
 _atom_site_fract_y
 _atom_site_fract_z
 _atom_site_occupancy
  Sr  Sr0  1  0.35650800  0.64349200  0.00000000  1
  Sr  Sr1  1  0.64184200  0.35815800  0.00000000  1
  Sr  Sr2  1  0.14385900  0.85614100  0.50000000  1
  Pr  Pr0  1  0.86202100  0.13797900  0.50000000  1
  Mn  Mn0  1  0.50101000  0.49899000  0.50000000  1
  Mn  Mn1  1  0.00194400  0.99805600  0.00000000  1
  O  O0  1  0.15828600  0.84171400  0.00000000  1
  O  O1  1  0.66833200  0.33166800  0.50000000  1
  O  O2  1  0.34062500  0.65937500  0.50000000  1
  O  O3  1  0.83983700  0.16016300  0.00000000  1
  O  O4  1  0.24380700  0.25093800  0.74211800  1
  O  O5  1  0.74906200  0.75619300  0.25788200  1
  O  O6  1  0.24380700  0.25093800  0.25788200  1
  O  O7  1  0.74906200  0.75619300  0.74211800  1
loop_
_geom_bond_atom_site_label_1
_geom_bond_atom_site_label_2
_geom_bond_distance
_geom_bond_site_symmetry_2
Mn0 O6 1.940767 1_555
Mn0 O4 1.940767 1_555
Mn0 O5 1.940767 1_555
Mn0 O7 1.940767 1_555
Mn0 O2 1.986888 1_555
Mn0 O1 2.072825 1_555
Mn1 O0 1.936802 1_555
Mn1 O4 1.982441 1_564
Mn1 O7 1.982441 1_454
Mn1 O6 1.982441 1_565
Mn1 O5 1.982441 1_455
Mn1 O3 2.008220 1_465
O0 Sr0 2.455621 1_555
O0 Sr1 2.777272 1_565
O0 Sr1 2.777272 1_455
O0 Sr2 2.780155 1_555
O0 Sr2 2.780155 1_554
O1 Pr0 2.399465 1_555
O1 Sr2 2.786334 1_545
O1 Sr2 2.786334 1_655
O1 Sr1 2.793745 1_555
O1 Sr1 2.793745 1_556
O2 Sr2 2.437584 1_555
O2 Sr0 2.781373 1_555
O2 Sr0 2.781373 1_556
O2 Pr0 2.782445 1_565
O2 Pr0 2.782445 1_455
O3 Sr1 2.452809 1_555
O3 Sr0 2.777480 1_655
O3 Sr0 2.777480 1_545
O3 Pr0 2.787982 1_554
O3 Pr0 2.787982 1_555
O4 Pr0 2.540757 1_455
O4 Sr0 2.647805 1_556
O4 Sr2 2.649191 1_545
O4 Sr1 2.692746 1_556
O5 Pr0 2.540757 1_565
O5 Sr0 2.647805 1_555
O5 Sr2 2.649191 1_655
O5 Sr1 2.692746 1_555
O6 Pr0 2.540757 1_455
O6 Sr0 2.647805 1_555
O6 Sr2 2.649191 1_545
O6 Sr1 2.692746 1_555
O7 Pr0 2.540757 1_565
O7 Sr0 2.647805 1_556
O7 Sr2 2.649191 1_655
O7 Sr1 2.692746 1_556
