# generated using pymatgen
data_KBaV5(H2O7)2
_symmetry_space_group_name_H-M   'P 1'
_cell_length_a   16.81087500
_cell_length_b   9.44142000
_cell_length_c   10.90259634
_cell_angle_alpha   60.22943715
_cell_angle_beta   90.00000000
_cell_angle_gamma   90.00000000
_symmetry_Int_Tables_number   1
_chemical_formula_structural   KBaV5(H2O7)2
_chemical_formula_sum   'K4 Ba4 V20 H16 O56'
_cell_volume   1502.06123292
_cell_formula_units_Z   4
loop_
 _symmetry_equiv_pos_site_id
 _symmetry_equiv_pos_as_xyz
  1  'x, y, z'
loop_
 _atom_site_type_symbol
 _atom_site_label
 _atom_site_symmetry_multiplicity
 _atom_site_fract_x
 _atom_site_fract_y
 _atom_site_fract_z
 _atom_site_occupancy
  K  K0  1  0.58568500  0.79262200  0.22349700  1
  K  K1  1  0.41431500  0.20737800  0.77650300  1
  K  K2  1  0.08568500  0.20737800  0.27650300  1
  K  K3  1  0.91431500  0.79262200  0.72349700  1
  Ba  Ba0  1  0.88134800  0.31477500  0.05322500  1
  Ba  Ba1  1  0.11865200  0.68522500  0.94677500  1
  Ba  Ba2  1  0.38134800  0.68522500  0.44677500  1
  Ba  Ba3  1  0.61865200  0.31477500  0.55322500  1
  V  V0  1  0.80628800  0.57759100  0.37273100  1
  V  V1  1  0.19371200  0.42240900  0.62726900  1
  V  V2  1  0.30628800  0.42240900  0.12726900  1
  V  V3  1  0.69371200  0.57759100  0.87273100  1
  V  V4  1  0.93871800  0.60122200  0.16689300  1
  V  V5  1  0.06128200  0.39877800  0.83310700  1
  V  V6  1  0.43871800  0.39877800  0.33310700  1
  V  V7  1  0.56128200  0.60122200  0.66689300  1
  V  V8  1  0.41722400  0.72451700  0.04141000  1
  V  V9  1  0.58277600  0.27548300  0.95859000  1
  V  V10  1  0.91722400  0.27548300  0.45859000  1
  V  V11  1  0.08277600  0.72451700  0.54141000  1
  V  V12  1  0.95258700  0.81734200  0.30985400  1
  V  V13  1  0.04741300  0.18265800  0.69014600  1
  V  V14  1  0.45258700  0.18265800  0.19014600  1
  V  V15  1  0.54741300  0.81734200  0.80985400  1
  V  V16  1  0.56919100  0.48796500  0.11049300  1
  V  V17  1  0.43080900  0.51203500  0.88950700  1
  V  V18  1  0.06919100  0.51203500  0.38950700  1
  V  V19  1  0.93080900  0.48796500  0.61049300  1
  H  H0  1  0.39333900  0.96271600  0.56006600  1
  H  H1  1  0.60666100  0.03728400  0.43993400  1
  H  H2  1  0.89333900  0.03728400  0.93993400  1
  H  H3  1  0.10666100  0.96271600  0.06006600  1
  H  H4  1  0.24492600  0.73449100  0.21771900  1
  H  H5  1  0.75507400  0.26550900  0.78228100  1
  H  H6  1  0.74492600  0.26550900  0.28228100  1
  H  H7  1  0.25507400  0.73449100  0.71771900  1
  H  H8  1  0.73246900  0.85603000  0.01394300  1
  H  H9  1  0.26753100  0.14397000  0.98605700  1
  H  H10  1  0.23246900  0.14397000  0.48605700  1
  H  H11  1  0.76753100  0.85603000  0.51394300  1
  H  H12  1  0.72741600  0.99874100  0.20389000  1
  H  H13  1  0.27258400  0.00125900  0.79611000  1
  H  H14  1  0.22741600  0.00125900  0.29611000  1
  H  H15  1  0.77258400  0.99874100  0.70389000  1
  O  O0  1  0.59533300  0.08169900  0.01067500  1
  O  O1  1  0.40466700  0.91830100  0.98932500  1
  O  O2  1  0.09533300  0.91830100  0.48932500  1
  O  O3  1  0.90466700  0.08169900  0.51067500  1
  O  O4  1  0.96103700  0.80131100  0.14777000  1
  O  O5  1  0.03896300  0.19868900  0.85223000  1
  O  O6  1  0.46103700  0.19868900  0.35223000  1
  O  O7  1  0.53896300  0.80131100  0.64777000  1
  O  O8  1  0.95048000  0.62844600  0.00305100  1
  O  O9  1  0.04952000  0.37155400  0.99694900  1
  O  O10  1  0.45048000  0.37155400  0.49694900  1
  O  O11  1  0.54952000  0.62844600  0.50305100  1
  O  O12  1  0.93094700  0.36467700  0.26462900  1
  O  O13  1  0.06905300  0.63532300  0.73537100  1
  O  O14  1  0.43094700  0.63532300  0.23537100  1
  O  O15  1  0.56905300  0.36467700  0.76462900  1
  O  O16  1  0.84605800  0.78531800  0.32449800  1
  O  O17  1  0.15394200  0.21468200  0.67550200  1
  O  O18  1  0.34605800  0.21468200  0.17550200  1
  O  O19  1  0.65394200  0.78531800  0.82449800  1
  O  O20  1  0.55929000  0.44709500  0.28508600  1
  O  O21  1  0.44071000  0.55290500  0.71491400  1
  O  O22  1  0.05929000  0.55290500  0.21491400  1
  O  O23  1  0.94071000  0.44709500  0.78508600  1
  O  O24  1  0.53812000  0.71755600  0.01968900  1
  O  O25  1  0.46188000  0.28244400  0.98031100  1
  O  O26  1  0.03812000  0.28244400  0.48031100  1
  O  O27  1  0.96188000  0.71755600  0.51968900  1
  O  O28  1  0.70802000  0.59320500  0.37382000  1
  O  O29  1  0.29198000  0.40679500  0.62618000  1
  O  O30  1  0.20802000  0.40679500  0.12618000  1
  O  O31  1  0.79198000  0.59320500  0.87382000  1
  O  O32  1  0.66866700  0.52391700  0.07079400  1
  O  O33  1  0.33133300  0.47608300  0.92920600  1
  O  O34  1  0.16866700  0.47608300  0.42920600  1
  O  O35  1  0.83133300  0.52391700  0.57079400  1
  O  O36  1  0.31519500  0.64988800  0.05253500  1
  O  O37  1  0.68480500  0.35011200  0.94746500  1
  O  O38  1  0.81519500  0.35011200  0.44746500  1
  O  O39  1  0.18480500  0.64988800  0.55253500  1
  O  O40  1  0.56645500  0.26885500  0.14472700  1
  O  O41  1  0.43354500  0.73114500  0.85527300  1
  O  O42  1  0.06645500  0.73114500  0.35527300  1
  O  O43  1  0.93354500  0.26885500  0.64472700  1
  O  O44  1  0.83319300  0.61410300  0.19375000  1
  O  O45  1  0.16680700  0.38589700  0.80625000  1
  O  O46  1  0.33319300  0.38589700  0.30625000  1
  O  O47  1  0.66680700  0.61410300  0.69375000  1
  O  O48  1  0.94638200  0.53616900  0.39722400  1
  O  O49  1  0.05361800  0.46383100  0.60277600  1
  O  O50  1  0.44638200  0.46383100  0.10277600  1
  O  O51  1  0.55361800  0.53616900  0.89722400  1
  O  O52  1  0.96132600  0.01795000  0.24546900  1
  O  O53  1  0.03867400  0.98205000  0.75453100  1
  O  O54  1  0.46132600  0.98205000  0.25453100  1
  O  O55  1  0.53867400  0.01795000  0.74546900  1
loop_
_geom_bond_atom_site_label_1
_geom_bond_atom_site_label_2
_geom_bond_distance
_geom_bond_site_symmetry_2
K0 O0 2.563274 1_565
K0 O11 2.714814 1_555
K0 O28 2.719566 1_555
K0 O24 2.764599 1_555
K0 O54 2.878293 1_555
K0 O14 2.966159 1_555
K0 O20 3.019075 1_555
K1 O1 2.563274 1_545
K1 O10 2.714814 1_555
K1 O29 2.719566 1_555
K1 O25 2.764599 1_555
K1 O55 2.878293 1_555
K1 O15 2.966159 1_555
K1 O21 3.019075 1_555
K2 O2 2.563274 1_545
K2 O9 2.714814 1_554
K2 O30 2.719566 1_555
K2 O26 2.764599 1_555
K2 O52 2.878293 1_455
K2 O12 2.966159 1_455
K2 O22 3.019075 1_555
K3 O3 2.563274 1_565
K3 O8 2.714814 1_556
K3 O31 2.719566 1_555
K3 O27 2.764599 1_555
K3 O53 2.878293 1_655
K3 O13 2.966159 1_655
K3 O23 3.019075 1_555
Ba0 O12 2.703319 1_555
Ba0 O23 2.734244 1_554
Ba0 O31 2.808426 1_554
Ba0 O52 2.867301 1_555
Ba0 O9 2.886139 1_654
Ba0 O8 2.968432 1_555
Ba1 O13 2.703319 1_555
Ba1 O22 2.734244 1_556
Ba1 O30 2.808426 1_556
Ba1 O53 2.867301 1_555
Ba1 O8 2.886139 1_456
Ba1 O9 2.968432 1_555
Ba2 O14 2.703319 1_555
Ba2 O21 2.734244 1_555
Ba2 O29 2.808426 1_555
Ba2 O54 2.867301 1_555
Ba2 O11 2.886139 1_555
Ba2 O10 2.968432 1_555
Ba3 O15 2.703319 1_555
Ba3 O20 2.734244 1_555
Ba3 O28 2.808426 1_555
Ba3 O55 2.867301 1_555
Ba3 O10 2.886139 1_555
Ba3 O11 2.968432 1_555
H12 K0 3.016058 1_555
H13 K1 3.016058 1_555
H14 K2 3.016058 1_555
H15 K3 3.016058 1_555
O0 V9 1.637897 1_554
O1 V8 1.637897 1_556
O2 V11 1.637897 1_555
O3 V10 1.637897 1_555
O4 V4 1.833550 1_555
O4 V12 1.852422 1_555
O5 V5 1.833550 1_555
O5 V13 1.852422 1_555
O6 V6 1.833550 1_555
O6 V14 1.852422 1_555
O7 V7 1.833550 1_555
O7 V15 1.852422 1_555
O8 V4 1.685257 1_555
O9 V5 1.685257 1_555
O10 V6 1.685257 1_555
O11 V7 1.685257 1_555
O12 V10 1.861667 1_555
O12 V4 1.943448 1_555
O13 V11 1.861667 1_555
O13 V5 1.943448 1_555
O14 V8 1.861667 1_555
O14 V6 1.943448 1_555
O15 V9 1.861667 1_555
O15 V7 1.943448 1_555
O16 V12 1.809999 1_555
O16 V0 1.883026 1_555
O17 V13 1.809999 1_555
O17 V1 1.883026 1_555
O18 V14 1.809999 1_555
O18 V2 1.883026 1_555
O19 V15 1.809999 1_555
O19 V3 1.883026 1_555
O20 V16 1.752303 1_555
O20 V6 2.086490 1_555
O21 V17 1.752303 1_555
O21 V7 2.086490 1_555
O22 V18 1.752303 1_555
O22 V4 2.086490 1_455
O23 V19 1.752303 1_555
O23 V5 2.086490 1_655
O24 V16 1.954639 1_555
O24 V15 2.001353 1_554
O24 V8 2.050945 1_555
O25 V17 1.954639 1_555
O25 V14 2.001353 1_556
O25 V9 2.050945 1_555
O26 V18 1.954639 1_555
O26 V13 2.001353 1_555
O26 V10 2.050945 1_455
O27 V19 1.954639 1_555
O27 V12 2.001353 1_555
O27 V11 2.050945 1_655
O28 V0 1.659102 1_555
O29 V1 1.659102 1_555
O30 V2 1.659102 1_555
O31 V3 1.659102 1_555
O32 V16 1.718480 1_555
O32 V3 2.002595 1_554
O33 V17 1.718480 1_555
O33 V2 2.002595 1_556
O34 V18 1.718480 1_555
O34 V1 2.002595 1_555
O35 V19 1.718480 1_555
O35 V0 2.002595 1_555
O36 V8 1.835268 1_555
O36 V2 1.887122 1_555
O37 V9 1.835268 1_555
O37 V3 1.887122 1_555
O38 V10 1.835268 1_555
O38 V0 1.887122 1_555
O39 V11 1.835268 1_555
O39 V1 1.887122 1_555
O40 V16 1.911601 1_555
O40 V9 2.017784 1_554
O40 V14 2.042440 1_555
O41 V17 1.911601 1_555
O41 V8 2.017784 1_556
O41 V15 2.042440 1_555
O42 V18 1.911601 1_555
O42 V11 2.017784 1_555
O42 V12 2.042440 1_455
O43 V19 1.911601 1_555
O43 V10 2.017784 1_555
O43 V13 2.042440 1_655
O44 V4 1.811864 1_555
O44 V0 1.860966 1_555
O45 V5 1.811864 1_555
O45 V1 1.860966 1_555
O46 V6 1.811864 1_555
O46 V2 1.860966 1_555
O47 V7 1.811864 1_555
O47 V3 1.860966 1_555
O48 V18 2.083340 1_655
O48 V19 2.152040 1_555
O48 V10 2.260612 1_555
O48 V4 2.273397 1_555
O48 V12 2.335457 1_555
O48 V0 2.380558 1_555
O49 V19 2.083340 1_455
O49 V18 2.152040 1_555
O49 V11 2.260612 1_555
O49 V5 2.273397 1_555
O49 V13 2.335457 1_555
O49 V1 2.380558 1_555
O50 V16 2.083340 1_555
O50 V17 2.152040 1_554
O50 V8 2.260612 1_555
O50 V6 2.273397 1_555
O50 V14 2.335457 1_555
O50 V2 2.380558 1_555
O51 V17 2.083340 1_555
O51 V16 2.152040 1_556
O51 V9 2.260612 1_555
O51 V7 2.273397 1_555
O51 V15 2.335457 1_555
O51 V3 2.380558 1_555
O52 V12 1.667741 1_545
O53 V13 1.667741 1_565
O54 V14 1.667741 1_565
O55 V15 1.667741 1_545
