# generated using pymatgen
data_H6C(NO)2
_symmetry_space_group_name_H-M   'P 1'
_cell_length_a   7.98243160
_cell_length_b   7.98243160
_cell_length_c   7.98243160
_cell_angle_alpha   121.63386401
_cell_angle_beta   105.36763844
_cell_angle_gamma   102.15161077
_symmetry_Int_Tables_number   1
_chemical_formula_structural   H6C(NO)2
_chemical_formula_sum   'H24 C4 N8 O8'
_cell_volume   377.84818095
_cell_formula_units_Z   4
loop_
 _symmetry_equiv_pos_site_id
 _symmetry_equiv_pos_as_xyz
  1  'x, y, z'
loop_
 _atom_site_type_symbol
 _atom_site_label
 _atom_site_symmetry_multiplicity
 _atom_site_fract_x
 _atom_site_fract_y
 _atom_site_fract_z
 _atom_site_occupancy
  H  H0  1  0.07664700  0.10808100  0.29705500  1
  H  H1  1  0.92335300  0.22040800  0.03143400  1
  H  H2  1  0.18897400  0.39191900  0.46856600  1
  H  H3  1  0.81102600  0.27959200  0.20294500  1
  H  H4  1  0.92335300  0.89191900  0.70294500  1
  H  H5  1  0.07664700  0.77959200  0.96856600  1
  H  H6  1  0.81102600  0.60808100  0.53143400  1
  H  H7  1  0.18897400  0.72040800  0.79705500  1
  H  H8  1  0.19130600  0.25921500  0.57769900  1
  H  H9  1  0.80869400  0.38639300  0.06790800  1
  H  H10  1  0.31848400  0.24078500  0.43209200  1
  H  H11  1  0.68151600  0.11360700  0.92230100  1
  H  H12  1  0.80869400  0.74078500  0.42230100  1
  H  H13  1  0.19130600  0.61360700  0.93209200  1
  H  H14  1  0.68151600  0.75921500  0.56790800  1
  H  H15  1  0.31848400  0.88639300  0.07769900  1
  H  H16  1  0.47863900  0.56862400  0.91001500  1
  H  H17  1  0.52136100  0.43137600  0.08998500  1
  H  H18  1  0.34139100  0.93137600  0.41001500  1
  H  H19  1  0.65860900  0.06862400  0.58998500  1
  H  H20  1  0.10711700  0.77090300  0.33621400  1
  H  H21  1  0.89288300  0.22909700  0.66378600  1
  H  H22  1  0.56531100  0.72909700  0.83621400  1
  H  H23  1  0.43468900  0.27090300  0.16378600  1
  C  C0  1  0.77567300  0.72590900  0.04976400  1
  C  C1  1  0.22432700  0.27409100  0.95023600  1
  C  C2  1  0.32385500  0.77409100  0.54976400  1
  C  C3  1  0.67614500  0.22590900  0.45023600  1
  N  N0  1  0.19318400  0.25000000  0.44318400  1
  N  N1  1  0.80681600  0.25000000  0.05681600  1
  N  N2  1  0.80681600  0.75000000  0.55681600  1
  N  N3  1  0.19318400  0.75000000  0.94318400  1
  N  N4  1  0.59133200  0.66956300  0.92176800  1
  N  N5  1  0.40866800  0.33043700  0.07823200  1
  N  N6  1  0.25220500  0.83043700  0.42176800  1
  N  N7  1  0.74779500  0.16956300  0.57823100  1
  O  O0  1  0.90982600  0.85389500  0.05593200  1
  O  O1  1  0.09017400  0.14610500  0.94406800  1
  O  O2  1  0.20203700  0.64610500  0.55593200  1
  O  O3  1  0.79796300  0.35389500  0.44406800  1
  O  O4  1  0.80579200  0.64876000  0.15703200  1
  O  O5  1  0.19420800  0.35124000  0.84296800  1
  O  O6  1  0.50827300  0.85124000  0.65703200  1
  O  O7  1  0.49172700  0.14876000  0.34296800  1
loop_
_geom_bond_atom_site_label_1
_geom_bond_atom_site_label_2
_geom_bond_distance
_geom_bond_site_symmetry_2
H0 N0 1.050912 1_555
H1 N1 1.050912 1_555
H2 N0 1.050912 1_555
H3 N1 1.050912 1_555
H4 N2 1.050912 1_555
H5 N3 1.050912 1_555
H6 N2 1.050912 1_555
H7 N3 1.050912 1_555
H8 N0 1.041505 1_555
H9 N1 1.041509 1_555
H10 N0 1.041503 1_555
H11 N1 1.041505 1_556
H12 N2 1.041505 1_555
H13 N3 1.041509 1_555
H14 N2 1.041503 1_555
H15 N3 1.041505 1_554
H16 N4 1.018853 1_555
H17 N5 1.018853 1_555
H18 N6 1.018847 1_555
H19 N7 1.018853 1_555
H20 N6 1.020876 1_555
H21 N7 1.020877 1_555
H22 N4 1.020877 1_555
H23 N5 1.020877 1_555
C0 O0 1.285157 1_555
C0 O4 1.294837 1_555
C0 N4 1.361594 1_554
C1 O1 1.285157 1_555
C1 O5 1.294837 1_555
C1 N5 1.361594 1_556
C2 O2 1.285162 1_555
C2 O6 1.294844 1_555
C2 N6 1.361601 1_555
C3 O3 1.285162 1_555
C3 O7 1.294844 1_555
C3 N7 1.361594 1_555
