# generated using pymatgen
data_Li7PN4
_symmetry_space_group_name_H-M   'P 1'
_cell_length_a   9.28790592
_cell_length_b   9.28790592
_cell_length_c   9.28790592
_cell_angle_alpha   90.00000000
_cell_angle_beta   90.00000000
_cell_angle_gamma   90.00000000
_symmetry_Int_Tables_number   1
_chemical_formula_structural   Li7PN4
_chemical_formula_sum   'Li56 P8 N32'
_cell_volume   801.22302814
_cell_formula_units_Z   8
loop_
 _symmetry_equiv_pos_site_id
 _symmetry_equiv_pos_as_xyz
  1  'x, y, z'
loop_
 _atom_site_type_symbol
 _atom_site_label
 _atom_site_symmetry_multiplicity
 _atom_site_fract_x
 _atom_site_fract_y
 _atom_site_fract_z
 _atom_site_occupancy
  Li  Li0  1  -0.00000000  0.50000000  0.50000000  1
  Li  Li1  1  0.50000000  -0.00000000  -0.00000000  1
  Li  Li2  1  -0.00000000  -0.00000000  0.50000000  1
  Li  Li3  1  -0.00000000  0.50000000  -0.00000000  1
  Li  Li4  1  0.50000000  -0.00000000  0.50000000  1
  Li  Li5  1  0.50000000  0.50000000  -0.00000000  1
  Li  Li6  1  0.25000000  -0.00000000  0.50000000  1
  Li  Li7  1  -0.00000000  0.50000000  0.75000000  1
  Li  Li8  1  -0.00000000  0.50000000  0.25000000  1
  Li  Li9  1  0.50000000  0.25000000  -0.00000000  1
  Li  Li10  1  0.50000000  0.75000000  -0.00000000  1
  Li  Li11  1  0.75000000  -0.00000000  0.50000000  1
  Li  Li12  1  0.22548491  0.22548491  0.22548491  1
  Li  Li13  1  0.27451509  0.72548491  0.27451509  1
  Li  Li14  1  0.27451509  0.27451509  0.72548491  1
  Li  Li15  1  0.72548491  0.27451509  0.27451509  1
  Li  Li16  1  0.77451509  0.77451509  0.22548491  1
  Li  Li17  1  0.22548491  0.77451509  0.77451509  1
  Li  Li18  1  0.77451509  0.22548491  0.77451509  1
  Li  Li19  1  0.72548491  0.72548491  0.72548491  1
  Li  Li20  1  0.25353393  0.23661250  0.97588170  1
  Li  Li21  1  0.24646607  0.47588170  0.26338750  1
  Li  Li22  1  0.24646607  0.52411830  0.73661250  1
  Li  Li23  1  0.52411830  0.26338750  0.75353393  1
  Li  Li24  1  0.47588170  0.26338750  0.24646607  1
  Li  Li25  1  0.73661250  0.24646607  0.52411830  1
  Li  Li26  1  0.26338750  0.75353393  0.52411830  1
  Li  Li27  1  0.97588170  0.25353393  0.23661250  1
  Li  Li28  1  0.23661250  0.97588170  0.25353393  1
  Li  Li29  1  0.76338750  0.02411830  0.25353393  1
  Li  Li30  1  0.97588170  0.74646607  0.76338750  1
  Li  Li31  1  0.76338750  0.97588170  0.74646607  1
  Li  Li32  1  0.02411830  0.74646607  0.23661250  1
  Li  Li33  1  0.02411830  0.25353393  0.76338750  1
  Li  Li34  1  0.23661250  0.02411830  0.74646607  1
  Li  Li35  1  0.25353393  0.76338750  0.02411830  1
  Li  Li36  1  0.74646607  0.23661250  0.02411830  1
  Li  Li37  1  0.74646607  0.76338750  0.97588170  1
  Li  Li38  1  0.26338750  0.24646607  0.47588170  1
  Li  Li39  1  0.73661250  0.75353393  0.47588170  1
  Li  Li40  1  0.52411830  0.73661250  0.24646607  1
  Li  Li41  1  0.47588170  0.73661250  0.75353393  1
  Li  Li42  1  0.75353393  0.52411830  0.26338750  1
  Li  Li43  1  0.75353393  0.47588170  0.73661250  1
  Li  Li44  1  0.26328985  -0.00000000  -0.00000000  1
  Li  Li45  1  0.23671015  0.50000000  0.50000000  1
  Li  Li46  1  0.50000000  0.50000000  0.76328985  1
  Li  Li47  1  0.50000000  0.50000000  0.23671015  1
  Li  Li48  1  0.50000000  0.23671015  0.50000000  1
  Li  Li49  1  0.50000000  0.76328985  0.50000000  1
  Li  Li50  1  -0.00000000  0.26328985  -0.00000000  1
  Li  Li51  1  -0.00000000  -0.00000000  0.26328985  1
  Li  Li52  1  -0.00000000  0.73671015  -0.00000000  1
  Li  Li53  1  -0.00000000  -0.00000000  0.73671015  1
  Li  Li54  1  0.73671015  -0.00000000  -0.00000000  1
  Li  Li55  1  0.76328985  0.50000000  0.50000000  1
  P  P0  1  0.50000000  0.50000000  0.50000000  1
  P  P1  1  -0.00000000  -0.00000000  -0.00000000  1
  P  P2  1  0.50000000  -0.00000000  0.75000000  1
  P  P3  1  0.75000000  0.50000000  -0.00000000  1
  P  P4  1  0.25000000  0.50000000  -0.00000000  1
  P  P5  1  -0.00000000  0.25000000  0.50000000  1
  P  P6  1  -0.00000000  0.75000000  0.50000000  1
  P  P7  1  0.50000000  -0.00000000  0.25000000  1
  N  N0  1  0.60380173  0.60380173  0.60380173  1
  N  N1  1  0.89619827  0.10380173  0.89619827  1
  N  N2  1  0.10380173  0.89619827  0.89619827  1
  N  N3  1  0.89619827  0.89619827  0.10380173  1
  N  N4  1  0.60380173  0.39619827  0.39619827  1
  N  N5  1  0.39619827  0.39619827  0.60380173  1
  N  N6  1  0.39619827  0.60380173  0.39619827  1
  N  N7  1  0.10380173  0.10380173  0.10380173  1
  N  N8  1  0.35085225  0.38716544  0.10005729  1
  N  N9  1  0.14914775  0.60005729  0.11283456  1
  N  N10  1  0.14914775  0.39994271  0.88716544  1
  N  N11  1  0.39994271  0.11283456  0.85085225  1
  N  N12  1  0.60005729  0.11283456  0.14914775  1
  N  N13  1  0.88716544  0.14914775  0.39994271  1
  N  N14  1  0.11283456  0.85085225  0.39994271  1
  N  N15  1  0.10005729  0.35085225  0.38716544  1
  N  N16  1  0.38716544  0.10005729  0.35085225  1
  N  N17  1  0.61283456  0.89994271  0.35085225  1
  N  N18  1  0.10005729  0.64914775  0.61283456  1
  N  N19  1  0.61283456  0.10005729  0.64914775  1
  N  N20  1  0.89994271  0.64914775  0.38716544  1
  N  N21  1  0.89994271  0.35085225  0.61283456  1
  N  N22  1  0.38716544  0.89994271  0.64914775  1
  N  N23  1  0.35085225  0.61283456  0.89994271  1
  N  N24  1  0.64914775  0.38716544  0.89994271  1
  N  N25  1  0.64914775  0.61283456  0.10005729  1
  N  N26  1  0.11283456  0.14914775  0.60005729  1
  N  N27  1  0.88716544  0.85085225  0.60005729  1
  N  N28  1  0.39994271  0.88716544  0.14914775  1
  N  N29  1  0.60005729  0.88716544  0.85085225  1
  N  N30  1  0.85085225  0.39994271  0.11283456  1
  N  N31  1  0.85085225  0.60005729  0.88716544  1
loop_
_geom_bond_atom_site_label_1
_geom_bond_atom_site_label_2
_geom_bond_distance
_geom_bond_site_symmetry_2
Li0 N20 1.970003 1_455
Li0 N15 1.970003 1_555
Li0 N21 1.970003 1_455
Li0 N18 1.970003 1_555
Li1 N12 1.970003 1_555
Li1 N29 1.970003 1_544
Li1 N28 1.970003 1_545
Li1 N11 1.970003 1_554
Li2 N26 1.970003 1_555
Li2 N27 1.970003 1_445
Li2 N14 1.970003 1_545
Li2 N13 1.970003 1_455
Li3 N9 1.970003 1_555
Li3 N30 1.970003 1_455
Li3 N31 1.970003 1_454
Li3 N10 1.970003 1_554
Li4 N22 1.970003 1_545
Li4 N16 1.970003 1_555
Li4 N17 1.970003 1_545
Li4 N19 1.970003 1_555
Li5 N24 1.970003 1_554
Li5 N8 1.970003 1_555
Li5 N25 1.970003 1_555
Li5 N23 1.970003 1_554
Li6 N26 2.098961 1_555
Li6 N16 2.098961 1_555
Li6 N14 2.098961 1_545
Li6 N22 2.098961 1_545
Li7 N10 2.098961 1_555
Li7 N18 2.098961 1_555
Li7 N31 2.098961 1_455
Li7 N21 2.098961 1_455
Li8 N9 2.098961 1_555
Li8 N30 2.098961 1_455
Li8 N15 2.098961 1_555
Li8 N20 2.098961 1_455
Li9 N12 2.098961 1_555
Li9 N24 2.098961 1_554
Li9 N11 2.098961 1_554
Li9 N8 2.098961 1_555
Li10 N28 2.098961 1_555
Li10 N25 2.098961 1_555
Li10 N23 2.098961 1_554
Li10 N29 2.098961 1_554
Li11 N19 2.098961 1_555
Li11 N27 2.098961 1_545
Li11 N13 2.098961 1_555
Li11 N17 2.098961 1_545
Li12 N7 1.957533 1_555
Li12 N15 2.228897 1_555
Li12 N16 2.228897 1_555
Li12 N8 2.228897 1_555
Li13 N6 1.957533 1_555
Li13 N28 2.228897 1_555
Li13 N14 2.228897 1_555
Li13 N9 2.228897 1_555
Li14 N5 1.957533 1_555
Li14 N10 2.228897 1_555
Li14 N11 2.228897 1_555
Li14 N26 2.228897 1_555
Li15 N4 1.957533 1_555
Li15 N13 2.228897 1_555
Li15 N30 2.228897 1_555
Li15 N12 2.228897 1_555
Li16 N3 1.957533 1_555
Li16 N25 2.228897 1_555
Li16 N17 2.228897 1_555
Li16 N20 2.228897 1_555
Li17 N2 1.957533 1_555
Li17 N18 2.228897 1_555
Li17 N23 2.228897 1_555
Li17 N22 2.228897 1_555
Li18 N1 1.957533 1_555
Li18 N19 2.228897 1_555
Li18 N21 2.228897 1_555
Li18 N24 2.228897 1_555
Li19 N0 1.957533 1_555
Li19 N27 2.228897 1_555
Li19 N29 2.228897 1_555
Li19 N31 2.228897 1_555
Li20 N10 1.979954 1_555
Li20 N8 2.025458 1_556
Li20 N11 2.125873 1_555
Li20 N7 2.206185 1_556
Li21 N8 1.979954 1_555
Li21 N9 2.025458 1_555
Li21 N15 2.125873 1_555
Li21 N6 2.206185 1_555
Li22 N23 1.979954 1_555
Li22 N10 2.025458 1_555
Li22 N18 2.125873 1_555
Li22 N5 2.206185 1_555
Li23 N19 1.979954 1_555
Li23 N11 2.025458 1_555
Li23 N24 2.125873 1_555
Li23 N5 2.206185 1_555
Li24 N16 1.979954 1_555
Li24 N12 2.025458 1_555
Li24 N8 2.125873 1_555
Li24 N4 2.206185 1_555
Li25 N21 1.979954 1_555
Li25 N13 2.025458 1_555
Li25 N19 2.125873 1_555
Li25 N4 2.206185 1_555
Li26 N18 1.979954 1_555
Li26 N14 2.025458 1_555
Li26 N22 2.125873 1_555
Li26 N6 2.206185 1_555
Li27 N13 1.979954 1_555
Li27 N15 2.025458 1_655
Li27 N30 2.125873 1_555
Li27 N7 2.206185 1_655
Li28 N28 1.979954 1_555
Li28 N16 2.025458 1_565
Li28 N14 2.125873 1_555
Li28 N7 2.206185 1_565
Li29 N12 1.979954 1_555
Li29 N17 2.025458 1_545
Li29 N13 2.125873 1_555
Li29 N3 2.206185 1_545
Li30 N27 1.979954 1_555
Li30 N18 2.025458 1_655
Li30 N31 2.125873 1_555
Li30 N2 2.206185 1_655
Li31 N29 1.979954 1_555
Li31 N19 2.025458 1_565
Li31 N27 2.125873 1_555
Li31 N1 2.206185 1_565
Li32 N14 1.979954 1_555
Li32 N20 2.025458 1_455
Li32 N9 2.125873 1_555
Li32 N3 2.206185 1_455
Li33 N26 1.979954 1_555
Li33 N21 2.025458 1_455
Li33 N10 2.125873 1_555
Li33 N1 2.206185 1_455
Li34 N11 1.979954 1_555
Li34 N22 2.025458 1_545
Li34 N26 2.125873 1_555
Li34 N2 2.206185 1_545
Li35 N9 1.979954 1_555
Li35 N23 2.025458 1_554
Li35 N28 2.125873 1_555
Li35 N2 2.206185 1_554
Li36 N30 1.979954 1_555
Li36 N24 2.025458 1_554
Li36 N12 2.125873 1_555
Li36 N1 2.206185 1_554
Li37 N31 1.979954 1_555
Li37 N25 2.025458 1_556
Li37 N29 2.125873 1_555
Li37 N3 2.206185 1_556
Li38 N15 1.979954 1_555
Li38 N26 2.025458 1_555
Li38 N16 2.125873 1_555
Li38 N5 2.206185 1_555
Li39 N20 1.979954 1_555
Li39 N27 2.025458 1_555
Li39 N17 2.125873 1_555
Li39 N0 2.206185 1_555
Li40 N17 1.979954 1_555
Li40 N28 2.025458 1_555
Li40 N25 2.125873 1_555
Li40 N6 2.206185 1_555
Li41 N22 1.979954 1_555
Li41 N29 2.025458 1_555
Li41 N23 2.125873 1_555
Li41 N0 2.206185 1_555
Li42 N25 1.979954 1_555
Li42 N30 2.025458 1_555
Li42 N20 2.125873 1_555
Li42 N4 2.206185 1_555
Li43 N24 1.979954 1_555
Li43 N31 2.025458 1_555
Li43 N21 2.125873 1_555
Li43 N0 2.206185 1_555
Li44 N7 2.013271 1_555
Li44 N2 2.013271 1_544
Li44 N28 2.151322 1_545
Li44 N11 2.151322 1_554
Li45 N5 2.013271 1_555
Li45 N6 2.013271 1_555
Li45 N15 2.151322 1_555
Li45 N18 2.151322 1_555
Li46 N5 2.013271 1_555
Li46 N0 2.013271 1_555
Li46 N24 2.151322 1_555
Li46 N23 2.151322 1_555
Li47 N6 2.013271 1_555
Li47 N4 2.013271 1_555
Li47 N8 2.151322 1_555
Li47 N25 2.151322 1_555
Li48 N5 2.013271 1_555
Li48 N4 2.013271 1_555
Li48 N16 2.151322 1_555
Li48 N19 2.151322 1_555
Li49 N6 2.013271 1_555
Li49 N0 2.013271 1_555
Li49 N22 2.151322 1_555
Li49 N17 2.151322 1_555
Li50 N7 2.013271 1_555
Li50 N1 2.013271 1_454
Li50 N10 2.151322 1_554
Li50 N30 2.151322 1_455
Li51 N7 2.013271 1_555
Li51 N3 2.013271 1_445
Li51 N14 2.151322 1_545
Li51 N13 2.151322 1_455
Li52 N3 2.013271 1_455
Li52 N2 2.013271 1_554
Li52 N9 2.151322 1_555
Li52 N31 2.151322 1_454
Li53 N1 2.013271 1_455
Li53 N2 2.013271 1_545
Li53 N26 2.151322 1_555
Li53 N27 2.151322 1_445
Li54 N3 2.013271 1_545
Li54 N1 2.013271 1_554
Li54 N12 2.151322 1_555
Li54 N29 2.151322 1_544
Li55 N4 2.013271 1_555
Li55 N0 2.013271 1_555
Li55 N20 2.151322 1_555
Li55 N21 2.151322 1_555
N0 P0 1.669871 1_555
N1 P1 1.669871 1_656
N2 P1 1.669871 1_566
N3 P1 1.669871 1_665
N4 P0 1.669871 1_555
N5 P0 1.669871 1_555
N6 P0 1.669871 1_555
N7 P1 1.669871 1_555
N8 P4 1.685039 1_555
N9 P4 1.685039 1_555
N10 P4 1.685039 1_556
N11 P2 1.685039 1_555
N12 P7 1.685039 1_555
N13 P5 1.685039 1_655
N14 P6 1.685039 1_555
N15 P5 1.685039 1_555
N16 P7 1.685039 1_555
N17 P7 1.685039 1_565
N18 P6 1.685039 1_555
N19 P2 1.685039 1_555
N20 P6 1.685039 1_655
N21 P5 1.685039 1_655
N22 P2 1.685039 1_565
N23 P4 1.685039 1_556
N24 P3 1.685039 1_556
N25 P3 1.685039 1_555
N26 P5 1.685039 1_555
N27 P6 1.685039 1_655
N28 P7 1.685039 1_565
N29 P2 1.685039 1_565
N30 P3 1.685039 1_555
N31 P3 1.685039 1_556
