# generated using pymatgen
data_CaYbPd2
_symmetry_space_group_name_H-M   'P 1'
_cell_length_a   4.95086187
_cell_length_b   4.95086187
_cell_length_c   4.95086187
_cell_angle_alpha   60.00000000
_cell_angle_beta   60.00000000
_cell_angle_gamma   60.00000000
_symmetry_Int_Tables_number   1
_chemical_formula_structural   CaYbPd2
_chemical_formula_sum   'Ca1 Yb1 Pd2'
_cell_volume   85.80793104
_cell_formula_units_Z   1
loop_
 _symmetry_equiv_pos_site_id
 _symmetry_equiv_pos_as_xyz
  1  'x, y, z'
loop_
 _atom_site_type_symbol
 _atom_site_label
 _atom_site_symmetry_multiplicity
 _atom_site_fract_x
 _atom_site_fract_y
 _atom_site_fract_z
 _atom_site_occupancy
  Ca  Ca0  1  0.50000000  0.50000000  0.50000000  1
  Yb  Yb0  1  0.00000000  0.00000000  0.00000000  1
  Pd  Pd0  1  0.25000000  0.25000000  0.25000000  1
  Pd  Pd1  1  0.75000000  0.75000000  0.75000000  1
loop_
_geom_bond_atom_site_label_1
_geom_bond_atom_site_label_2
_geom_bond_distance
_geom_bond_site_symmetry_2
Ca0 Pd0 3.031771 1_556
Ca0 Pd1 3.031771 1_554
Ca0 Pd1 3.031771 1_455
Ca0 Pd0 3.031771 1_555
Ca0 Pd0 3.031771 1_565
Ca0 Pd1 3.031771 1_555
Ca0 Pd0 3.031771 1_655
Ca0 Pd1 3.031771 1_545
Pd0 Yb0 3.031771 1_655
Pd0 Yb0 3.031771 1_556
Pd0 Yb0 3.031771 1_555
Pd0 Yb0 3.031771 1_565
Pd1 Yb0 3.031771 1_666
Pd1 Yb0 3.031771 1_566
Pd1 Yb0 3.031771 1_656
Pd1 Yb0 3.031771 1_665
