# generated using pymatgen
data_BaNbInWO6
_symmetry_space_group_name_H-M   'P 1'
_cell_length_a   5.83565171
_cell_length_b   5.83565171
_cell_length_c   5.83565171
_cell_angle_alpha   60.00000000
_cell_angle_beta   60.00000000
_cell_angle_gamma   60.00000000
_symmetry_Int_Tables_number   1
_chemical_formula_structural   BaNbInWO6
_chemical_formula_sum   'Ba1 Nb1 In1 W1 O6'
_cell_volume   140.52483855
_cell_formula_units_Z   1
loop_
 _symmetry_equiv_pos_site_id
 _symmetry_equiv_pos_as_xyz
  1  'x, y, z'
loop_
 _atom_site_type_symbol
 _atom_site_label
 _atom_site_symmetry_multiplicity
 _atom_site_fract_x
 _atom_site_fract_y
 _atom_site_fract_z
 _atom_site_occupancy
  Ba  Ba0  1  0.25000000  0.25000000  0.25000000  1
  Nb  Nb0  1  0.00000000  0.00000000  0.00000000  1
  In  In0  1  0.75000000  0.75000000  0.75000000  1
  W  W0  1  0.50000000  0.50000000  0.50000000  1
  O  O0  1  0.75238276  0.24761724  0.24761724  1
  O  O1  1  0.24761724  0.75238276  0.75238276  1
  O  O2  1  0.75238276  0.24761724  0.75238276  1
  O  O3  1  0.24761724  0.75238276  0.24761724  1
  O  O4  1  0.75238276  0.75238276  0.24761724  1
  O  O5  1  0.24761724  0.24761724  0.75238276  1
loop_
_geom_bond_atom_site_label_1
_geom_bond_atom_site_label_2
_geom_bond_distance
_geom_bond_site_symmetry_2
Ba0 O3 2.917892 1_545
Ba0 O2 2.917892 1_455
Ba0 O5 2.917892 1_555
Ba0 O5 2.917892 1_554
Ba0 O2 2.917892 1_554
Ba0 O0 2.917892 1_455
Ba0 O4 2.917892 1_545
Ba0 O3 2.917892 1_555
Ba0 O1 2.917892 1_545
Ba0 O0 2.917892 1_555
Ba0 O4 2.917892 1_455
Ba0 O1 2.917892 1_554
Nb0 O1 2.043550 1_544
Nb0 O0 2.043550 1_455
Nb0 O4 2.043550 1_445
Nb0 O3 2.043550 1_545
Nb0 O5 2.043550 1_554
Nb0 O2 2.043550 1_454
O0 W0 2.082879 1_555
O1 W0 2.082879 1_555
O2 W0 2.082879 1_555
O3 W0 2.082879 1_555
O4 W0 2.082879 1_555
O5 W0 2.082879 1_555
