# generated using pymatgen
data_KCa7Si3(O4F)3
_symmetry_space_group_name_H-M   'P 1'
_cell_length_a   10.92933273
_cell_length_b   10.92933273
_cell_length_c   6.70020100
_cell_angle_alpha   90.00000000
_cell_angle_beta   90.00000000
_cell_angle_gamma   120.00000441
_symmetry_Int_Tables_number   1
_chemical_formula_structural   KCa7Si3(O4F)3
_chemical_formula_sum   'K2 Ca14 Si6 O24 F6'
_cell_volume   693.11570442
_cell_formula_units_Z   2
loop_
 _symmetry_equiv_pos_site_id
 _symmetry_equiv_pos_as_xyz
  1  'x, y, z'
loop_
 _atom_site_type_symbol
 _atom_site_label
 _atom_site_symmetry_multiplicity
 _atom_site_fract_x
 _atom_site_fract_y
 _atom_site_fract_z
 _atom_site_occupancy
  K  K0  1  0.33333300  0.66666700  0.18933400  1
  K  K1  1  0.66666700  0.33333300  0.68933400  1
  Ca  Ca0  1  0.00000000  0.00000000  0.15253300  1
  Ca  Ca1  1  0.00000000  0.00000000  0.65253300  1
  Ca  Ca2  1  0.93853600  0.45740800  0.05479900  1
  Ca  Ca3  1  0.51887200  0.06146400  0.05479900  1
  Ca  Ca4  1  0.54259200  0.48112800  0.05479900  1
  Ca  Ca5  1  0.48112800  0.54259200  0.55479900  1
  Ca  Ca6  1  0.45740800  0.93853600  0.55479900  1
  Ca  Ca7  1  0.06146400  0.51887200  0.55479900  1
  Ca  Ca8  1  0.82501600  0.63173700  0.37236700  1
  Ca  Ca9  1  0.80672100  0.17498400  0.37236700  1
  Ca  Ca10  1  0.36826300  0.19327900  0.37236700  1
  Ca  Ca11  1  0.19327900  0.36826300  0.87236700  1
  Ca  Ca12  1  0.63173700  0.82501600  0.87236700  1
  Ca  Ca13  1  0.17498400  0.80672100  0.87236700  1
  Si  Si0  1  0.15403900  0.81619000  0.35075500  1
  Si  Si1  1  0.66215200  0.84596100  0.35075500  1
  Si  Si2  1  0.18381000  0.33784800  0.35075500  1
  Si  Si3  1  0.33784800  0.18381000  0.85075500  1
  Si  Si4  1  0.81619000  0.15403900  0.85075500  1
  Si  Si5  1  0.84596100  0.66215200  0.85075500  1
  O  O0  1  0.21807100  0.77086900  0.54257000  1
  O  O1  1  0.55279800  0.78192900  0.54257000  1
  O  O2  1  0.22913100  0.44720200  0.54257000  1
  O  O3  1  0.44720200  0.22913100  0.04257000  1
  O  O4  1  0.77086900  0.21807100  0.04257000  1
  O  O5  1  0.78192900  0.55279800  0.04257000  1
  O  O6  1  0.07324200  0.67084700  0.21527600  1
  O  O7  1  0.59760500  0.92675800  0.21527600  1
  O  O8  1  0.32915300  0.40239500  0.21527600  1
  O  O9  1  0.40239500  0.32915300  0.71527600  1
  O  O10  1  0.67084700  0.07324200  0.71527600  1
  O  O11  1  0.92675800  0.59760500  0.71527600  1
  O  O12  1  0.28676100  0.94362600  0.22547600  1
  O  O13  1  0.65686500  0.71323900  0.22547600  1
  O  O14  1  0.05637400  0.34313500  0.22547600  1
  O  O15  1  0.34313500  0.05637400  0.72547600  1
  O  O16  1  0.94362600  0.28676100  0.72547600  1
  O  O17  1  0.71323900  0.65686500  0.72547600  1
  O  O18  1  0.82657700  0.96571200  0.40964000  1
  O  O19  1  0.13913500  0.17342300  0.40964000  1
  O  O20  1  0.03428800  0.86086500  0.40964000  1
  O  O21  1  0.86086500  0.03428800  0.90964000  1
  O  O22  1  0.96571200  0.82657700  0.90964000  1
  O  O23  1  0.17342300  0.13913500  0.90964000  1
  F  F0  1  0.15160900  0.56319700  0.88325700  1
  F  F1  1  0.41158900  0.84839100  0.88325700  1
  F  F2  1  0.43680300  0.58841100  0.88325700  1
  F  F3  1  0.58841100  0.43680300  0.38325700  1
  F  F4  1  0.56319700  0.15160900  0.38325700  1
  F  F5  1  0.84839100  0.41158900  0.38325700  1
loop_
_geom_bond_atom_site_label_1
_geom_bond_atom_site_label_2
_geom_bond_distance
_geom_bond_site_symmetry_2
K0 O6 2.871003 1_555
K0 O7 2.871008 1_555
K0 O8 2.871014 1_555
K0 O0 3.149621 1_555
K0 O1 3.149627 1_555
K0 O2 3.149627 1_555
K1 O10 2.871003 1_555
K1 O11 2.871008 1_555
K1 O9 2.871014 1_555
K1 O4 3.149621 1_556
K1 O5 3.149627 1_556
K1 O3 3.149627 1_556
Ca0 O23 2.381430 1_554
Ca0 O22 2.381430 1_444
Ca0 O21 2.381430 1_454
Ca0 O19 2.447501 1_555
Ca0 O18 2.447501 1_445
Ca0 O20 2.447501 1_545
Ca1 O19 2.381430 1_555
Ca1 O18 2.381430 1_445
Ca1 O20 2.381430 1_545
Ca1 O23 2.447501 1_555
Ca1 O22 2.447501 1_445
Ca1 O21 2.447501 1_455
Ca2 O6 2.308885 1_655
Ca2 F0 2.321293 1_654
Ca2 O4 2.326734 1_555
Ca2 F5 2.360360 1_555
Ca2 O5 2.409910 1_555
Ca2 O14 2.476836 1_655
Ca2 O11 2.781488 1_554
Ca2 O16 2.907588 1_554
Ca3 O7 2.308885 1_545
Ca3 F1 2.321293 1_544
Ca3 O3 2.326734 1_555
Ca3 F4 2.360360 1_555
Ca3 O4 2.409910 1_555
Ca3 O12 2.476836 1_545
Ca3 O10 2.781488 1_554
Ca3 O15 2.907588 1_554
Ca4 O8 2.308885 1_555
Ca4 F2 2.321285 1_554
Ca4 O5 2.326734 1_555
Ca4 F3 2.360357 1_555
Ca4 O3 2.409910 1_555
Ca4 O13 2.476836 1_555
Ca4 O9 2.781488 1_554
Ca4 O17 2.907587 1_554
Ca5 O9 2.308885 1_555
Ca5 F3 2.321285 1_555
Ca5 O1 2.326734 1_555
Ca5 F2 2.360357 1_555
Ca5 O2 2.409910 1_555
Ca5 O17 2.476836 1_555
Ca5 O8 2.781488 1_555
Ca5 O13 2.907587 1_555
Ca6 O10 2.308885 1_565
Ca6 F4 2.321293 1_565
Ca6 O0 2.326734 1_555
Ca6 F1 2.360360 1_555
Ca6 O1 2.409910 1_555
Ca6 O15 2.476836 1_565
Ca6 O7 2.781488 1_555
Ca6 O12 2.907588 1_555
Ca7 O11 2.308885 1_455
Ca7 F5 2.321293 1_455
Ca7 O2 2.326734 1_555
Ca7 F0 2.360360 1_555
Ca7 O0 2.409910 1_555
Ca7 O16 2.476836 1_455
Ca7 O6 2.781488 1_555
Ca7 O14 2.907588 1_555
Ca8 O5 2.332942 1_555
Ca8 F3 2.392086 1_555
Ca8 O20 2.416012 1_655
Ca8 F5 2.544495 1_555
Ca8 O13 2.603182 1_555
Ca8 O11 2.658802 1_555
Ca8 O6 2.736966 1_655
Ca8 O17 2.738766 1_555
Ca9 O4 2.332942 1_555
Ca9 F5 2.392090 1_555
Ca9 O18 2.416012 1_545
Ca9 F4 2.544506 1_555
Ca9 O14 2.603182 1_655
Ca9 O10 2.658802 1_555
Ca9 O7 2.736966 1_545
Ca9 O16 2.738766 1_555
Ca10 O3 2.332942 1_555
Ca10 F4 2.392079 1_555
Ca10 O19 2.416012 1_555
Ca10 F3 2.544501 1_555
Ca10 O12 2.603182 1_545
Ca10 O9 2.658802 1_555
Ca10 O8 2.736966 1_555
Ca10 O15 2.738766 1_555
Ca11 O2 2.332942 1_555
Ca11 F0 2.392079 1_555
Ca11 O23 2.416012 1_555
Ca11 F2 2.544501 1_555
Ca11 O16 2.603182 1_455
Ca11 O8 2.658802 1_556
Ca11 O9 2.736966 1_555
Ca11 O14 2.738766 1_556
Ca12 O1 2.332942 1_555
Ca12 F2 2.392086 1_555
Ca12 O21 2.416012 1_565
Ca12 F1 2.544495 1_555
Ca12 O17 2.603182 1_555
Ca12 O7 2.658802 1_556
Ca12 O10 2.736966 1_565
Ca12 O13 2.738766 1_556
Ca13 O0 2.332942 1_555
Ca13 F1 2.392090 1_555
Ca13 O22 2.416012 1_455
Ca13 F0 2.544506 1_555
Ca13 O15 2.603182 1_565
Ca13 O6 2.658802 1_556
Ca13 O11 2.736966 1_455
Ca13 O12 2.738766 1_556
O0 Si0 1.653327 1_555
O1 Si1 1.653332 1_555
O2 Si2 1.653333 1_555
O3 Si3 1.653333 1_554
O4 Si4 1.653327 1_554
O5 Si5 1.653332 1_554
O6 Si0 1.650568 1_555
O7 Si1 1.650576 1_555
O8 Si2 1.650568 1_555
O9 Si3 1.650568 1_555
O10 Si4 1.650568 1_555
O11 Si5 1.650576 1_555
O12 Si0 1.651742 1_555
O13 Si1 1.651737 1_555
O14 Si2 1.651747 1_555
O15 Si3 1.651747 1_555
O16 Si4 1.651742 1_555
O17 Si5 1.651737 1_555
O18 Si1 1.657118 1_555
O19 Si2 1.657116 1_555
O20 Si0 1.657126 1_555
O21 Si4 1.657126 1_555
O22 Si5 1.657118 1_555
O23 Si3 1.657116 1_555
F0 K0 2.680147 1_556
F1 K0 2.680146 1_556
F2 K0 2.680158 1_556
F3 K1 2.680158 1_555
F4 K1 2.680147 1_555
F5 K1 2.680146 1_555
