# generated using pymatgen
data_CsEr(MoO4)2
_symmetry_space_group_name_H-M   'P 1'
_cell_length_a   5.06291100
_cell_length_b   8.25193500
_cell_length_c   9.72369763
_cell_angle_alpha   87.94270278
_cell_angle_beta   90.00000000
_cell_angle_gamma   90.00000000
_symmetry_Int_Tables_number   1
_chemical_formula_structural   CsEr(MoO4)2
_chemical_formula_sum   'Cs2 Er2 Mo4 O16'
_cell_volume   405.98268578
_cell_formula_units_Z   2
loop_
 _symmetry_equiv_pos_site_id
 _symmetry_equiv_pos_as_xyz
  1  'x, y, z'
loop_
 _atom_site_type_symbol
 _atom_site_label
 _atom_site_symmetry_multiplicity
 _atom_site_fract_x
 _atom_site_fract_y
 _atom_site_fract_z
 _atom_site_occupancy
  Cs  Cs0  1  0.46801800  0.75000000  0.50000000  1
  Cs  Cs1  1  0.53198200  0.25000000  0.50000000  1
  Er  Er0  1  0.50045800  0.75000000  0.00000000  1
  Er  Er1  1  0.49954200  0.25000000  0.00000000  1
  Mo  Mo0  1  0.97509100  0.49211900  0.19055500  1
  Mo  Mo1  1  0.02490900  0.50788100  0.80944500  1
  Mo  Mo2  1  0.97509100  0.00788100  0.80944500  1
  Mo  Mo3  1  0.02490900  0.99211900  0.19055500  1
  O  O0  1  0.88767700  0.98229400  0.35614200  1
  O  O1  1  0.11232300  0.01770600  0.64385800  1
  O  O2  1  0.88767700  0.51770600  0.64385800  1
  O  O3  1  0.11232300  0.48229400  0.35614200  1
  O  O4  1  0.75874100  0.31933200  0.17838300  1
  O  O5  1  0.24125900  0.68066800  0.82161700  1
  O  O6  1  0.75874100  0.18066800  0.82161700  1
  O  O7  1  0.24125900  0.81933200  0.17838300  1
  O  O8  1  0.74639200  0.99757000  0.06614400  1
  O  O9  1  0.25360800  0.00243000  0.93385600  1
  O  O10  1  0.74639200  0.50243000  0.93385600  1
  O  O11  1  0.25360800  0.49757000  0.06614400  1
  O  O12  1  0.75805000  0.66568700  0.18004500  1
  O  O13  1  0.24195000  0.33431300  0.81995500  1
  O  O14  1  0.75805000  0.83431300  0.81995500  1
  O  O15  1  0.24195000  0.16568700  0.18004500  1
loop_
_geom_bond_atom_site_label_1
_geom_bond_atom_site_label_2
_geom_bond_distance
_geom_bond_site_symmetry_2
Cs0 O2 3.154831 1_555
Cs0 O0 3.154831 1_555
Cs0 O1 3.209635 1_565
Cs0 O3 3.209635 1_555
Cs0 O5 3.361094 1_555
Cs0 O7 3.361094 1_555
Cs0 O14 3.531985 1_555
Cs0 O12 3.531985 1_555
Cs0 O2 3.751230 1_455
Cs0 O0 3.751230 1_455
Cs1 O1 3.154831 1_555
Cs1 O3 3.154831 1_555
Cs1 O2 3.209635 1_555
Cs1 O0 3.209635 1_545
Cs1 O6 3.361094 1_555
Cs1 O4 3.361094 1_555
Cs1 O13 3.531985 1_555
Cs1 O15 3.531985 1_555
Cs1 O1 3.751230 1_655
Cs1 O3 3.751230 1_655
Er0 O7 2.264806 1_555
Er0 O5 2.264806 1_554
Er0 O12 2.272095 1_555
Er0 O14 2.272095 1_554
Er0 O11 2.493684 1_555
Er0 O9 2.493684 1_564
Er0 O8 2.496387 1_555
Er0 O10 2.496387 1_554
Er1 O4 2.264806 1_555
Er1 O6 2.264806 1_554
Er1 O15 2.272095 1_555
Er1 O13 2.272095 1_554
Er1 O8 2.493684 1_545
Er1 O10 2.493684 1_554
Er1 O11 2.496387 1_555
Er1 O9 2.496387 1_554
Mo0 O3 1.752831 1_655
Mo0 O12 1.805223 1_555
Mo0 O4 1.805249 1_555
Mo0 O11 1.857411 1_655
Mo1 O2 1.752831 1_455
Mo1 O13 1.805223 1_555
Mo1 O5 1.805249 1_555
Mo1 O10 1.857411 1_455
Mo2 O1 1.752831 1_655
Mo2 O14 1.805223 1_545
Mo2 O6 1.805249 1_555
Mo2 O9 1.857411 1_655
Mo3 O0 1.752831 1_455
Mo3 O15 1.805223 1_565
Mo3 O7 1.805249 1_555
Mo3 O8 1.857411 1_455
