# generated using pymatgen
data_CrNiAg2F7
_symmetry_space_group_name_H-M   'P 1'
_cell_length_a   7.52394282
_cell_length_b   7.52394282
_cell_length_c   7.52394282
_cell_angle_alpha   120.65886382
_cell_angle_beta   118.30637919
_cell_angle_gamma   90.91037187
_symmetry_Int_Tables_number   1
_chemical_formula_structural   CrNiAg2F7
_chemical_formula_sum   'Cr2 Ni2 Ag4 F14'
_cell_volume   303.33372740
_cell_formula_units_Z   2
loop_
 _symmetry_equiv_pos_site_id
 _symmetry_equiv_pos_as_xyz
  1  'x, y, z'
loop_
 _atom_site_type_symbol
 _atom_site_label
 _atom_site_symmetry_multiplicity
 _atom_site_fract_x
 _atom_site_fract_y
 _atom_site_fract_z
 _atom_site_occupancy
  Cr  Cr0  1  0.50000000  0.50000000  0.50000000  1
  Cr  Cr1  1  0.50000000  0.00000000  0.00000000  1
  Ni  Ni0  1  0.00000000  0.50000000  0.50000000  1
  Ni  Ni1  1  0.50000000  0.00000000  0.50000000  1
  Ag  Ag0  1  0.50000000  0.50000000  0.00000000  1
  Ag  Ag1  1  0.00000000  0.00000000  0.00000000  1
  Ag  Ag2  1  0.00000000  0.50000000  0.00000000  1
  Ag  Ag3  1  0.00000000  0.00000000  0.50000000  1
  F  F0  1  0.86615300  0.59362400  0.27253000  1
  F  F1  1  0.17890600  0.90637600  0.27253000  1
  F  F2  1  0.20054200  0.81820700  0.77557500  1
  F  F3  1  0.45736800  0.68179300  0.38233500  1
  F  F4  1  0.45736800  0.07503300  0.77557500  1
  F  F5  1  0.20054200  0.42496700  0.38233500  1
  F  F6  1  0.79945800  0.57503300  0.61766500  1
  F  F7  1  0.54263200  0.92496700  0.22442500  1
  F  F8  1  0.54263200  0.31820700  0.61766500  1
  F  F9  1  0.79945800  0.18179300  0.22442500  1
  F  F10  1  0.41500200  0.25000000  0.16500200  1
  F  F11  1  0.13384700  0.40637600  0.72747000  1
  F  F12  1  0.82109400  0.09362400  0.72747000  1
  F  F13  1  0.58499800  0.75000000  0.83499800  1
loop_
_geom_bond_atom_site_label_1
_geom_bond_atom_site_label_2
_geom_bond_distance
_geom_bond_site_symmetry_2
Cr0 F3 1.933163 1_555
Cr0 F5 1.933163 1_555
Cr0 F8 1.933163 1_555
Cr0 F6 1.933163 1_555
Cr0 F10 1.974329 1_555
Cr0 F13 1.974329 1_555
Cr1 F4 1.933163 1_554
Cr1 F7 1.933163 1_545
Cr1 F2 1.933163 1_544
Cr1 F9 1.933163 1_555
Cr1 F10 1.974329 1_555
Cr1 F13 1.974329 1_544
Ag0 F0 2.323413 1_555
Ag0 F11 2.323413 1_554
Ag0 F7 2.669305 1_555
Ag0 F3 2.669305 1_555
Ag0 F4 2.669305 1_554
Ag0 F8 2.669305 1_554
Ag1 F1 2.323418 1_545
Ag1 F12 2.323418 1_454
Ag1 F6 2.669305 1_444
Ag1 F5 2.669305 1_555
Ag1 F9 2.669305 1_455
Ag1 F2 2.669305 1_544
Ag2 F1 2.494536 1_555
Ag2 F12 2.494536 1_454
Ag2 F0 2.494542 1_455
Ag2 F11 2.494542 1_554
Ag3 F12 2.494536 1_455
Ag3 F1 2.494536 1_545
Ag3 F0 2.494536 1_445
Ag3 F11 2.494536 1_555
F0 Ni0 2.014203 1_655
F1 Ni1 2.014202 1_565
F2 Ni0 2.040428 1_555
F3 Ni1 2.040428 1_565
F4 Ni1 2.040428 1_555
F5 Ni0 2.040428 1_555
F6 Ni0 2.040428 1_655
F7 Ni1 2.040428 1_565
F8 Ni1 2.040428 1_555
F9 Ni0 2.040428 1_655
F11 Ni0 2.014203 1_555
F12 Ni1 2.014202 1_555
