# generated using pymatgen
data_Fe11S12
_symmetry_space_group_name_H-M   'P 1'
_cell_length_a   6.62376780
_cell_length_b   6.57901442
_cell_length_c   16.23076955
_cell_angle_alpha   96.53520796
_cell_angle_beta   76.93304439
_cell_angle_gamma   120.22527430
_symmetry_Int_Tables_number   1
_chemical_formula_structural   Fe11S12
_chemical_formula_sum   'Fe22 S24'
_cell_volume   595.32181288
_cell_formula_units_Z   2
loop_
 _symmetry_equiv_pos_site_id
 _symmetry_equiv_pos_as_xyz
  1  'x, y, z'
loop_
 _atom_site_type_symbol
 _atom_site_label
 _atom_site_symmetry_multiplicity
 _atom_site_fract_x
 _atom_site_fract_y
 _atom_site_fract_z
 _atom_site_occupancy
  Fe  Fe0  1  0.24232700  0.55440200  0.83154900  1
  Fe  Fe1  1  0.93792500  0.94559800  0.33154900  1
  Fe  Fe2  1  0.82616100  0.55765000  0.67111500  1
  Fe  Fe3  1  0.51851100  0.94235000  0.17111500  1
  Fe  Fe4  1  0.66002600  0.96539300  0.83524400  1
  Fe  Fe5  1  0.94463300  0.53460700  0.33524400  1
  Fe  Fe6  1  0.84178000  0.99657500  0.66958100  1
  Fe  Fe7  1  0.09520500  0.50342500  0.16958100  1
  Fe  Fe8  1  0.30269000  0.50252600  0.65118700  1
  Fe  Fe9  1  0.05016400  0.99747400  0.15118700  1
  Fe  Fe10  1  0.66222100  0.52280900  0.84403300  1
  Fe  Fe11  1  0.38941200  0.97719100  0.34403300  1
  Fe  Fe12  1  0.29794900  0.45721200  0.48155500  1
  Fe  Fe13  1  0.09073700  0.04278800  0.98155500  1
  Fe  Fe14  1  0.43792400  0.03726500  0.51882000  1
  Fe  Fe15  1  0.65065900  0.46273500  0.01882000  1
  Fe  Fe16  1  0.86260000  0.03732800  0.50159300  1
  Fe  Fe17  1  0.07527200  0.46267200  0.00159300  1
  Fe  Fe18  1  0.86310700  0.45532200  0.50213000  1
  Fe  Fe19  1  0.65778600  0.04467800  0.00213000  1
  Fe  Fe20  1  0.28172600  0.02392100  0.81881200  1
  Fe  Fe21  1  0.50780500  0.47607900  0.31881200  1
  S  S0  1  0.75477400  0.82702700  0.07815600  1
  S  S1  1  0.17774700  0.67297300  0.57815600  1
  S  S2  1  0.98889900  0.68053400  0.92205300  1
  S  S3  1  0.55836500  0.81946600  0.42205300  1
  S  S4  1  0.43027100  0.36327200  0.74491500  1
  S  S5  1  0.31699900  0.13672800  0.24491500  1
  S  S6  1  0.18252100  0.17246900  0.57643900  1
  S  S7  1  0.26005200  0.32753100  0.07643900  1
  S  S8  1  0.56173900  0.32747500  0.42502400  1
  S  S9  1  0.48426400  0.17252500  0.92502400  1
  S  S10  1  0.67871300  0.67473500  0.58548400  1
  S  S11  1  0.25397900  0.82526500  0.08548400  1
  S  S12  1  0.04467600  0.82235900  0.43144200  1
  S  S13  1  0.47231700  0.67764100  0.93144200  1
  S  S14  1  0.75088400  0.31610400  0.10141100  1
  S  S15  1  0.68478000  0.18389600  0.60141100  1
  S  S16  1  0.99114700  0.18944600  0.89958400  1
  S  S17  1  0.05170100  0.31055400  0.39958400  1
  S  S18  1  0.82377300  0.14304600  0.24894600  1
  S  S19  1  0.93072700  0.35695400  0.74894600  1
  S  S20  1  0.93560800  0.85001900  0.75980800  1
  S  S21  1  0.33558900  0.64998100  0.25980800  1
  S  S22  1  0.85611600  0.66177900  0.23452100  1
  S  S23  1  0.44433700  0.83822100  0.73452100  1
loop_
_geom_bond_atom_site_label_1
_geom_bond_atom_site_label_2
_geom_bond_distance
_geom_bond_site_symmetry_2
Fe0 S23 2.226696 1_555
Fe0 S13 2.276168 1_555
Fe0 S4 2.343115 1_555
Fe0 S16 2.345924 1_455
Fe0 S2 2.382071 1_455
Fe0 S19 2.429066 1_455
Fe1 S22 2.226696 1_555
Fe1 S12 2.276168 1_655
Fe1 S5 2.343115 1_665
Fe1 S17 2.345924 1_665
Fe1 S3 2.382071 1_555
Fe1 S18 2.429066 1_565
Fe2 S20 2.176097 1_555
Fe2 S10 2.256962 1_555
Fe2 S1 2.273400 1_655
Fe2 S4 2.344925 1_555
Fe2 S19 2.348406 1_555
Fe2 S15 2.393894 1_555
Fe3 S21 2.176097 1_555
Fe3 S11 2.256958 1_555
Fe3 S0 2.273400 1_555
Fe3 S5 2.344925 1_565
Fe3 S18 2.348406 1_565
Fe3 S14 2.393894 1_565
Fe4 S23 2.225993 1_555
Fe4 S13 2.234478 1_555
Fe4 S16 2.346079 1_565
Fe4 S20 2.362233 1_555
Fe4 S9 2.390393 1_565
Fe4 S19 2.616943 1_565
Fe5 S22 2.225993 1_555
Fe5 S12 2.234478 1_655
Fe5 S17 2.346079 1_655
Fe5 S21 2.362233 1_655
Fe5 S8 2.390394 1_555
Fe5 S18 2.616943 1_555
Fe6 S20 2.190167 1_555
Fe6 S6 2.223592 1_665
Fe6 S10 2.284578 1_555
Fe6 S23 2.315323 1_555
Fe6 S19 2.422685 1_565
Fe6 S15 2.438333 1_565
Fe7 S21 2.190168 1_555
Fe7 S7 2.223592 1_555
Fe7 S11 2.284577 1_555
Fe7 S22 2.315323 1_455
Fe7 S18 2.422685 1_455
Fe7 S14 2.438333 1_455
Fe8 S10 2.203929 1_555
Fe8 S6 2.217540 1_555
Fe8 S1 2.242308 1_555
Fe8 S23 2.322721 1_555
Fe8 S4 2.354953 1_555
Fe8 S19 2.389073 1_455
Fe9 S11 2.203934 1_555
Fe9 S7 2.217540 1_565
Fe9 S0 2.242308 1_455
Fe9 S22 2.322721 1_455
Fe9 S5 2.354953 1_565
Fe9 S18 2.389073 1_465
Fe10 S13 2.187873 1_555
Fe10 S4 2.271556 1_555
Fe10 S20 2.325490 1_555
Fe10 S9 2.383756 1_555
Fe10 S2 2.458013 1_555
Fe10 S19 2.658010 1_555
Fe11 S12 2.187873 1_555
Fe11 S5 2.271556 1_565
Fe11 S21 2.325490 1_555
Fe11 S8 2.383756 1_565
Fe11 S3 2.458013 1_555
Fe11 S18 2.658010 1_565
Fe12 S17 2.113314 1_555
Fe12 S6 2.268898 1_555
Fe12 S1 2.274643 1_555
Fe12 S3 2.284686 1_555
Fe12 S8 2.285112 1_555
Fe13 S16 2.113314 1_455
Fe13 S7 2.268898 1_556
Fe13 S0 2.274643 1_446
Fe13 S2 2.284686 1_445
Fe13 S9 2.285112 1_555
Fe14 S15 2.123646 1_555
Fe14 S6 2.266731 1_555
Fe14 S8 2.270732 1_555
Fe14 S3 2.286591 1_545
Fe14 S1 2.293038 1_545
Fe15 S14 2.123646 1_555
Fe15 S7 2.266731 1_555
Fe15 S9 2.270732 1_554
Fe15 S2 2.286591 1_554
Fe15 S0 2.293038 1_555
Fe16 S15 2.206112 1_555
Fe16 S17 2.239254 1_655
Fe16 S12 2.341136 1_645
Fe16 S3 2.372586 1_545
Fe16 S6 2.403759 1_655
Fe16 S10 2.468254 1_545
Fe17 S14 2.206112 1_455
Fe17 S16 2.239254 1_454
Fe17 S13 2.341136 1_554
Fe17 S2 2.372586 1_454
Fe17 S7 2.403759 1_555
Fe17 S11 2.468255 1_555
Fe18 S15 2.202575 1_555
Fe18 S17 2.265995 1_655
Fe18 S8 2.336251 1_555
Fe18 S1 2.381730 1_655
Fe18 S12 2.382550 1_655
Fe18 S10 2.447289 1_555
Fe19 S14 2.202575 1_555
Fe19 S16 2.265991 1_554
Fe19 S9 2.336256 1_554
Fe19 S0 2.381726 1_545
Fe19 S13 2.382551 1_544
Fe19 S11 2.447290 1_545
Fe20 S23 2.191470 1_545
Fe20 S9 2.251459 1_555
Fe20 S4 2.292471 1_555
Fe20 S20 2.363204 1_445
Fe20 S2 2.579560 1_445
Fe20 S16 2.693230 1_455
Fe21 S22 2.191470 1_555
Fe21 S8 2.251459 1_555
Fe21 S5 2.292471 1_555
Fe21 S21 2.363204 1_555
Fe21 S3 2.579560 1_555
Fe21 S17 2.693230 1_555
