# generated using pymatgen
data_Li2IrO3
_symmetry_space_group_name_H-M   'P 1'
_cell_length_a   9.84527960
_cell_length_b   9.41638651
_cell_length_c   5.05230341
_cell_angle_alpha   79.54588715
_cell_angle_beta   70.14587317
_cell_angle_gamma   30.30823968
_symmetry_Int_Tables_number   1
_chemical_formula_structural   Li2IrO3
_chemical_formula_sum   'Li8 Ir4 O12'
_cell_volume   216.07043513
_cell_formula_units_Z   4
loop_
 _symmetry_equiv_pos_site_id
 _symmetry_equiv_pos_as_xyz
  1  'x, y, z'
loop_
 _atom_site_type_symbol
 _atom_site_label
 _atom_site_symmetry_multiplicity
 _atom_site_fract_x
 _atom_site_fract_y
 _atom_site_fract_z
 _atom_site_occupancy
  Li  Li0  1  0.07968529  0.07968529  0.92031471  1
  Li  Li1  1  0.92031471  0.92031471  0.07968529  1
  Li  Li2  1  0.17031471  0.17031471  0.32968529  1
  Li  Li3  1  0.32968529  0.32968529  0.17031471  1
  Li  Li4  1  0.24756142  0.24756142  0.75243858  1
  Li  Li5  1  0.75243858  0.75243858  0.24756142  1
  Li  Li6  1  0.00243858  0.00243858  0.49756142  1
  Li  Li7  1  0.49756142  0.49756142  0.00243858  1
  Ir  Ir0  1  0.41498552  0.41498552  0.58501448  1
  Ir  Ir1  1  0.58501448  0.58501448  0.41498552  1
  Ir  Ir2  1  0.83501448  0.83501448  0.66498552  1
  Ir  Ir3  1  0.66498552  0.66498552  0.83501448  1
  O  O0  1  0.26957461  0.73042539  0.73042539  1
  O  O1  1  0.73042539  0.26957461  0.26957461  1
  O  O2  1  0.98042539  0.51957461  0.51957461  1
  O  O3  1  0.51957461  0.98042539  0.98042539  1
  O  O4  1  0.82759741  0.34095786  0.66475827  1
  O  O5  1  0.16668646  0.66475827  0.34095786  1
  O  O6  1  0.66475827  0.16668646  0.82759741  1
  O  O7  1  0.34095786  0.82759741  0.16668646  1
  O  O8  1  0.42240259  0.90904214  0.58524173  1
  O  O9  1  0.08331354  0.58524173  0.90904214  1
  O  O10  1  0.58524173  0.08331354  0.42240259  1
  O  O11  1  0.90904214  0.42240259  0.08331354  1
loop_
_geom_bond_atom_site_label_1
_geom_bond_atom_site_label_2
_geom_bond_distance
_geom_bond_site_symmetry_2
Li0 O7 2.088188 1_546
Li0 O4 2.088188 1_455
Li0 O0 2.131216 1_545
Li0 O1 2.131216 1_456
Li0 O8 2.139746 1_545
Li0 O11 2.139746 1_456
Li1 O6 2.088188 1_564
Li1 O5 2.088188 1_655
Li1 O0 2.131216 1_654
Li1 O1 2.131216 1_565
Li1 O10 2.139746 1_565
Li1 O9 2.139746 1_654
Li2 O11 2.088188 1_455
Li2 O8 2.088188 1_545
Li2 O3 2.131216 1_544
Li2 O2 2.131216 1_455
Li2 O7 2.139746 1_545
Li2 O4 2.139746 1_455
Li3 O9 2.088188 1_554
Li3 O10 2.088188 1_555
Li3 O3 2.131216 1_544
Li3 O2 2.131216 1_455
Li3 O6 2.139746 1_554
Li3 O5 2.139746 1_555
Li4 O2 2.058763 1_455
Li4 O3 2.058763 1_545
Li4 O11 2.086359 1_456
Li4 O8 2.086359 1_545
Li4 O10 2.125414 1_555
Li4 O9 2.125414 1_555
Li5 O3 2.058763 1_554
Li5 O2 2.058763 1_555
Li5 O9 2.086359 1_654
Li5 O10 2.086359 1_565
Li5 O11 2.125414 1_555
Li5 O8 2.125414 1_555
Li6 O1 2.058763 1_455
Li6 O0 2.058763 1_545
Li6 O4 2.086359 1_455
Li6 O7 2.086359 1_545
Li6 O6 2.125414 1_455
Li6 O5 2.125414 1_545
Li7 O0 2.058763 1_554
Li7 O1 2.058763 1_555
Li7 O5 2.086359 1_555
Li7 O6 2.086359 1_554
Li7 O7 2.125414 1_555
Li7 O4 2.125414 1_554
Ir0 O5 2.023777 1_555
Ir0 O6 2.023777 1_555
Ir0 O0 2.036464 1_555
Ir0 O1 2.036464 1_555
Ir0 O10 2.048253 1_555
Ir0 O9 2.048253 1_555
Ir1 O4 2.023777 1_555
Ir1 O7 2.023777 1_555
Ir1 O1 2.036464 1_555
Ir1 O0 2.036464 1_555
Ir1 O11 2.048253 1_555
Ir1 O8 2.048253 1_555
Ir2 O10 2.023777 1_565
Ir2 O9 2.023777 1_655
Ir2 O2 2.036464 1_555
Ir2 O3 2.036464 1_555
Ir2 O5 2.048253 1_655
Ir2 O6 2.048253 1_565
Ir3 O8 2.023777 1_555
Ir3 O11 2.023777 1_556
Ir3 O2 2.036464 1_555
Ir3 O3 2.036464 1_555
Ir3 O4 2.048253 1_555
Ir3 O7 2.048253 1_556
