# generated using pymatgen
data_Eu2NiPtO6
_symmetry_space_group_name_H-M   'P 1'
_cell_length_a   5.78455200
_cell_length_b   5.50338900
_cell_length_c   9.51791455
_cell_angle_alpha   55.07903133
_cell_angle_beta   90.00000000
_cell_angle_gamma   90.00000000
_symmetry_Int_Tables_number   1
_chemical_formula_structural   Eu2NiPtO6
_chemical_formula_sum   'Eu4 Ni2 Pt2 O12'
_cell_volume   248.44204988
_cell_formula_units_Z   2
loop_
 _symmetry_equiv_pos_site_id
 _symmetry_equiv_pos_as_xyz
  1  'x, y, z'
loop_
 _atom_site_type_symbol
 _atom_site_label
 _atom_site_symmetry_multiplicity
 _atom_site_fract_x
 _atom_site_fract_y
 _atom_site_fract_z
 _atom_site_occupancy
  Eu  Eu0  1  0.06254200  0.72902400  0.75342300  1
  Eu  Eu1  1  0.93745800  0.27097600  0.24657700  1
  Eu  Eu2  1  0.56254200  0.27097600  0.74657700  1
  Eu  Eu3  1  0.43745800  0.72902400  0.25342300  1
  Ni  Ni0  1  0.50000000  0.50000000  0.00000000  1
  Ni  Ni1  1  0.00000000  0.50000000  0.50000000  1
  Pt  Pt0  1  0.50000000  0.00000000  0.50000000  1
  Pt  Pt1  1  0.00000000  0.00000000  0.00000000  1
  O  O0  1  0.46048600  0.85589800  0.74822000  1
  O  O1  1  0.53951400  0.14410200  0.25178000  1
  O  O2  1  0.96048600  0.14410200  0.75178000  1
  O  O3  1  0.03951400  0.85589800  0.24822000  1
  O  O4  1  0.79397700  0.75215000  0.55654600  1
  O  O5  1  0.20602300  0.24785000  0.44345400  1
  O  O6  1  0.29397700  0.24785000  0.94345400  1
  O  O7  1  0.70602300  0.75215000  0.05654600  1
  O  O8  1  0.30443600  0.64912600  0.54767500  1
  O  O9  1  0.69556400  0.35087400  0.45232500  1
  O  O10  1  0.80443600  0.35087400  0.95232500  1
  O  O11  1  0.19556400  0.64912600  0.04767500  1
loop_
_geom_bond_atom_site_label_1
_geom_bond_atom_site_label_2
_geom_bond_distance
_geom_bond_site_symmetry_2
Eu0 O2 2.350755 1_465
Eu0 O10 2.373485 1_455
Eu0 O4 2.380746 1_455
Eu0 O0 2.397764 1_555
Eu0 O6 2.567575 1_555
Eu0 O8 2.640453 1_555
Eu0 O11 2.686866 1_556
Eu0 O5 2.810907 1_565
Eu1 O3 2.350755 1_645
Eu1 O11 2.373485 1_655
Eu1 O5 2.380746 1_655
Eu1 O1 2.397764 1_555
Eu1 O7 2.567575 1_555
Eu1 O9 2.640453 1_555
Eu1 O10 2.686866 1_554
Eu1 O4 2.810907 1_545
Eu2 O0 2.350755 1_545
Eu2 O8 2.373485 1_555
Eu2 O6 2.380746 1_555
Eu2 O2 2.397764 1_555
Eu2 O4 2.567575 1_555
Eu2 O10 2.640453 1_555
Eu2 O9 2.686866 1_555
Eu2 O7 2.810907 1_546
Eu3 O1 2.350755 1_565
Eu3 O9 2.373485 1_555
Eu3 O7 2.380746 1_555
Eu3 O3 2.397764 1_555
Eu3 O5 2.567575 1_555
Eu3 O11 2.640453 1_555
Eu3 O8 2.686866 1_555
Eu3 O6 2.810907 1_564
Ni0 O0 2.063382 1_554
Ni0 O1 2.063382 1_555
Ni0 O11 2.099292 1_555
Ni0 O10 2.099292 1_554
Ni0 O7 2.119114 1_555
Ni0 O6 2.119114 1_554
Ni1 O3 2.063382 1_555
Ni1 O2 2.063382 1_455
Ni1 O8 2.099292 1_555
Ni1 O9 2.099292 1_455
Ni1 O5 2.119114 1_555
Ni1 O4 2.119114 1_455
O0 Pt0 2.029205 1_565
O1 Pt0 2.029205 1_555
O2 Pt1 2.029205 1_656
O3 Pt1 2.029205 1_565
O4 Pt0 2.049757 1_565
O5 Pt0 2.049757 1_555
O6 Pt1 2.049757 1_556
O7 Pt1 2.049757 1_665
O8 Pt0 2.052120 1_565
O9 Pt0 2.052120 1_555
O10 Pt1 2.052120 1_656
O11 Pt1 2.052120 1_565
