# generated using pymatgen
data_Mn3HO6
_symmetry_space_group_name_H-M   'P 1'
_cell_length_a   7.24224719
_cell_length_b   7.24224719
_cell_length_c   4.62560901
_cell_angle_alpha   87.95826959
_cell_angle_beta   87.95826959
_cell_angle_gamma   23.88448465
_symmetry_Int_Tables_number   1
_chemical_formula_structural   Mn3HO6
_chemical_formula_sum   'Mn3 H1 O6'
_cell_volume   98.16774122
_cell_formula_units_Z   1
loop_
 _symmetry_equiv_pos_site_id
 _symmetry_equiv_pos_as_xyz
  1  'x, y, z'
loop_
 _atom_site_type_symbol
 _atom_site_label
 _atom_site_symmetry_multiplicity
 _atom_site_fract_x
 _atom_site_fract_y
 _atom_site_fract_z
 _atom_site_occupancy
  Mn  Mn0  1  0.00167800  0.00167800  0.99440800  1
  Mn  Mn1  1  0.65488000  0.65488000  0.47593200  1
  Mn  Mn2  1  0.34761100  0.34761100  0.51867000  1
  H  H0  1  0.76858800  0.76858800  0.94239800  1
  O  O0  1  0.43800900  0.43800900  0.81300500  1
  O  O1  1  0.56482400  0.56482400  0.17995100  1
  O  O2  1  0.89927500  0.89927500  0.30508100  1
  O  O3  1  0.10047100  0.10047100  0.68278900  1
  O  O4  1  0.77433800  0.77433800  0.72910200  1
  O  O5  1  0.23054900  0.23054900  0.29482600  1
loop_
_geom_bond_atom_site_label_1
_geom_bond_atom_site_label_2
_geom_bond_distance
_geom_bond_site_symmetry_2
Mn0 O0 1.954254 1_545
Mn0 O0 1.954254 1_455
Mn0 O1 1.959359 1_456
Mn0 O1 1.959359 1_546
Mn0 O3 1.972493 1_555
Mn0 O2 2.004765 1_446
Mn1 O1 1.905337 1_555
Mn1 O3 1.924089 1_565
Mn1 O3 1.924089 1_655
Mn1 O5 2.007989 1_565
Mn1 O5 2.007989 1_655
Mn1 O4 2.093199 1_555
Mn2 O0 1.903073 1_555
Mn2 O2 1.924904 1_455
Mn2 O2 1.924904 1_545
Mn2 O5 1.987230 1_555
Mn2 O4 2.048864 1_545
Mn2 O4 2.048864 1_455
H0 O4 0.987021 1_555
