# generated using pymatgen
data_Ce5GeSb2
_symmetry_space_group_name_H-M   'P 1'
_cell_length_a   7.99668797
_cell_length_b   9.43252873
_cell_length_c   12.12153885
_cell_angle_alpha   90.00000000
_cell_angle_beta   90.00000000
_cell_angle_gamma   90.00000000
_symmetry_Int_Tables_number   1
_chemical_formula_structural   Ce5GeSb2
_chemical_formula_sum   'Ce20 Ge4 Sb8'
_cell_volume   914.31542084
_cell_formula_units_Z   4
loop_
 _symmetry_equiv_pos_site_id
 _symmetry_equiv_pos_as_xyz
  1  'x, y, z'
loop_
 _atom_site_type_symbol
 _atom_site_label
 _atom_site_symmetry_multiplicity
 _atom_site_fract_x
 _atom_site_fract_y
 _atom_site_fract_z
 _atom_site_occupancy
  Ce  Ce0  1  0.16483404  0.75000000  0.77774229  1
  Ce  Ce1  1  0.83516596  0.25000000  0.22225771  1
  Ce  Ce2  1  0.66483404  0.25000000  0.72225771  1
  Ce  Ce3  1  0.33516596  0.75000000  0.27774229  1
  Ce  Ce4  1  0.48623502  0.75000000  0.99622086  1
  Ce  Ce5  1  0.51376498  0.25000000  0.00377914  1
  Ce  Ce6  1  0.98623502  0.25000000  0.50377914  1
  Ce  Ce7  1  0.01376498  0.75000000  0.49622086  1
  Ce  Ce8  1  0.64640475  0.75000000  0.71297909  1
  Ce  Ce9  1  0.35359525  0.25000000  0.28702091  1
  Ce  Ce10  1  0.14640475  0.25000000  0.78702091  1
  Ce  Ce11  1  0.85359525  0.75000000  0.21297909  1
  Ce  Ce12  1  0.79763773  0.94958002  0.94440594  1
  Ce  Ce13  1  0.20236227  0.05041998  0.05559406  1
  Ce  Ce14  1  0.29763773  0.05041998  0.55559406  1
  Ce  Ce15  1  0.20236227  0.44958002  0.05559406  1
  Ce  Ce16  1  0.70236227  0.94958002  0.44440594  1
  Ce  Ce17  1  0.79763773  0.55041998  0.94440594  1
  Ce  Ce18  1  0.70236227  0.55041998  0.44440594  1
  Ce  Ce19  1  0.29763773  0.44958002  0.55559406  1
  Ge  Ge0  1  0.40630293  0.75000000  0.52515457  1
  Ge  Ge1  1  0.59369707  0.25000000  0.47484543  1
  Ge  Ge2  1  0.90630293  0.25000000  0.97484543  1
  Ge  Ge3  1  0.09369707  0.75000000  0.02515457  1
  Sb  Sb0  1  0.92573249  0.99377811  0.67833104  1
  Sb  Sb1  1  0.07426751  0.00622189  0.32166896  1
  Sb  Sb2  1  0.42573249  0.00622189  0.82166896  1
  Sb  Sb3  1  0.07426751  0.49377811  0.32166896  1
  Sb  Sb4  1  0.57426751  0.99377811  0.17833104  1
  Sb  Sb5  1  0.92573249  0.50622189  0.67833104  1
  Sb  Sb6  1  0.57426751  0.50622189  0.17833104  1
  Sb  Sb7  1  0.42573249  0.49377811  0.82166896  1
loop_
_geom_bond_atom_site_label_1
_geom_bond_atom_site_label_2
_geom_bond_distance
_geom_bond_site_symmetry_2
Ce0 Ge3 3.052492 1_556
Ce0 Sb0 3.224179 1_455
Ce0 Sb5 3.224179 1_455
Ce0 Sb2 3.236862 1_565
Ce0 Sb7 3.236862 1_555
Ce0 Ge0 3.619792 1_555
Ce1 Ge2 3.052492 1_554
Ce1 Sb3 3.224179 1_655
Ce1 Sb1 3.224179 1_655
Ce1 Sb6 3.236862 1_555
Ce1 Sb4 3.236862 1_545
Ce1 Ge1 3.619792 1_555
Ce2 Ge1 3.052492 1_555
Ce2 Sb2 3.224179 1_555
Ce2 Sb7 3.224179 1_555
Ce2 Sb5 3.236862 1_555
Ce2 Sb0 3.236862 1_545
Ce2 Ge2 3.619792 1_555
Ce3 Ge0 3.052492 1_555
Ce3 Sb6 3.224179 1_555
Ce3 Sb4 3.224179 1_555
Ce3 Sb1 3.236862 1_565
Ce3 Sb3 3.236862 1_555
Ce3 Ge3 3.619792 1_555
Ce4 Ge3 3.158536 1_556
Ce4 Sb7 3.248364 1_555
Ce4 Sb2 3.248364 1_565
Ce4 Sb4 3.264334 1_556
Ce4 Sb6 3.264334 1_556
Ce5 Ge2 3.158536 1_554
Ce5 Sb6 3.248364 1_555
Ce5 Sb4 3.248364 1_545
Ce5 Sb7 3.264334 1_554
Ce5 Sb2 3.264334 1_554
Ce6 Ge1 3.158536 1_555
Ce6 Sb5 3.248364 1_555
Ce6 Sb0 3.248364 1_545
Ce6 Sb3 3.264334 1_655
Ce6 Sb1 3.264334 1_655
Ce7 Ge0 3.158536 1_555
Ce7 Sb1 3.248364 1_565
Ce7 Sb3 3.248364 1_555
Ce7 Sb5 3.264334 1_455
Ce7 Sb0 3.264334 1_455
Ce8 Ge0 2.978244 1_555
Ce8 Sb0 3.233146 1_555
Ce8 Sb5 3.233146 1_555
Ce8 Sb7 3.269675 1_555
Ce8 Sb2 3.269675 1_565
Ce9 Ge1 2.978244 1_555
Ce9 Sb1 3.233146 1_555
Ce9 Sb3 3.233146 1_555
Ce9 Sb6 3.269675 1_555
Ce9 Sb4 3.269675 1_545
Ce10 Ge2 2.978244 1_455
Ce10 Sb2 3.233146 1_555
Ce10 Sb7 3.233146 1_555
Ce10 Sb0 3.269675 1_445
Ce10 Sb5 3.269675 1_455
Ce11 Ge3 2.978244 1_655
Ce11 Sb6 3.233146 1_555
Ce11 Sb4 3.233146 1_555
Ce11 Sb1 3.269675 1_665
Ce11 Sb3 3.269675 1_655
Ce12 Ge2 2.986839 1_565
Ce12 Ge3 3.179158 1_656
Ce12 Sb2 3.368029 1_565
Ce12 Sb4 3.377075 1_556
Ce12 Sb0 3.409578 1_555
Ce13 Ge3 2.986839 1_545
Ce13 Ge2 3.179158 1_454
Ce13 Sb4 3.368029 1_545
Ce13 Sb2 3.377075 1_554
Ce13 Sb1 3.409578 1_555
Ce14 Ge0 2.986839 1_545
Ce14 Ge1 3.179158 1_555
Ce14 Sb0 3.368029 1_445
Ce14 Sb1 3.377075 1_555
Ce14 Sb2 3.409578 1_555
Ce15 Ge3 2.986839 1_555
Ce15 Ge2 3.179158 1_454
Ce15 Sb6 3.368029 1_555
Ce15 Sb7 3.377075 1_554
Ce15 Sb3 3.409578 1_555
Ce16 Ge1 2.986839 1_565
Ce16 Ge0 3.179158 1_555
Ce16 Sb1 3.368029 1_665
Ce16 Sb0 3.377075 1_555
Ce16 Sb4 3.409578 1_555
Ce17 Ge2 2.986839 1_555
Ce17 Ge3 3.179158 1_656
Ce17 Sb7 3.368029 1_555
Ce17 Sb6 3.377075 1_556
Ce17 Sb5 3.409578 1_555
Ce18 Ge1 2.986839 1_555
Ce18 Ge0 3.179158 1_555
Ce18 Sb3 3.368029 1_655
Ce18 Sb5 3.377075 1_555
Ce18 Sb6 3.409578 1_555
Ce19 Ge0 2.986839 1_555
Ce19 Ge1 3.179158 1_555
Ce19 Sb5 3.368029 1_455
Ce19 Sb3 3.377075 1_555
Ce19 Sb7 3.409578 1_555
