# generated using pymatgen
data_ZrCr5P3
_symmetry_space_group_name_H-M   'P 1'
_cell_length_a   3.65400300
_cell_length_b   6.88822700
_cell_length_c   9.35477804
_cell_angle_alpha   79.78412096
_cell_angle_beta   90.00000000
_cell_angle_gamma   90.00000000
_symmetry_Int_Tables_number   1
_chemical_formula_structural   ZrCr5P3
_chemical_formula_sum   'Zr2 Cr10 P6'
_cell_volume   231.72323719
_cell_formula_units_Z   2
loop_
 _symmetry_equiv_pos_site_id
 _symmetry_equiv_pos_as_xyz
  1  'x, y, z'
loop_
 _atom_site_type_symbol
 _atom_site_label
 _atom_site_symmetry_multiplicity
 _atom_site_fract_x
 _atom_site_fract_y
 _atom_site_fract_z
 _atom_site_occupancy
  Zr  Zr0  1  0.75000000  0.80847800  0.77911100  1
  Zr  Zr1  1  0.25000000  0.19152200  0.22088900  1
  Cr  Cr0  1  0.75000000  0.31421900  0.72346600  1
  Cr  Cr1  1  0.25000000  0.45879200  0.92478200  1
  Cr  Cr2  1  0.25000000  0.08506400  0.91573800  1
  Cr  Cr3  1  0.75000000  0.91493600  0.08426200  1
  Cr  Cr4  1  0.25000000  0.37286900  0.49084000  1
  Cr  Cr5  1  0.75000000  0.62713100  0.50916000  1
  Cr  Cr6  1  0.75000000  0.13488100  0.49367900  1
  Cr  Cr7  1  0.25000000  0.86511900  0.50632100  1
  Cr  Cr8  1  0.75000000  0.54120800  0.07521800  1
  Cr  Cr9  1  0.25000000  0.68578100  0.27653400  1
  P  P0  1  0.75000000  0.90835900  0.33179000  1
  P  P1  1  0.25000000  0.09164100  0.66821000  1
  P  P2  1  0.75000000  0.43733700  0.32449400  1
  P  P3  1  0.25000000  0.56266300  0.67550600  1
  P  P4  1  0.75000000  0.24668600  0.98717200  1
  P  P5  1  0.25000000  0.75331400  0.01282800  1
loop_
_geom_bond_atom_site_label_1
_geom_bond_atom_site_label_2
_geom_bond_distance
_geom_bond_site_symmetry_2
Cr0 P4 2.427959 1_555
Cr0 P3 2.489087 1_555
Cr0 P3 2.489087 1_655
Cr0 P1 2.497368 1_555
Cr0 P1 2.497368 1_655
Cr1 P3 2.314725 1_555
Cr1 P5 2.320966 1_556
Cr1 P4 2.347493 1_455
Cr1 P4 2.347493 1_555
Cr2 P4 2.299521 1_455
Cr2 P4 2.299521 1_555
Cr2 P5 2.304498 1_546
Cr2 P1 2.307965 1_555
Cr3 P5 2.299521 1_555
Cr3 P5 2.299521 1_655
Cr3 P4 2.304498 1_564
Cr3 P0 2.307965 1_555
Cr4 P1 2.316374 1_555
Cr4 P3 2.344044 1_555
Cr4 P2 2.389886 1_455
Cr4 P2 2.389886 1_555
Cr5 P0 2.316374 1_555
Cr5 P2 2.344044 1_555
Cr5 P3 2.389886 1_655
Cr5 P3 2.389886 1_555
Cr6 P0 2.359314 1_545
Cr6 P2 2.382389 1_555
Cr6 P1 2.433076 1_655
Cr6 P1 2.433076 1_555
Cr7 P1 2.359314 1_565
Cr7 P3 2.382389 1_555
Cr7 P0 2.433076 1_555
Cr7 P0 2.433076 1_455
Cr8 P2 2.314725 1_555
Cr8 P4 2.320966 1_554
Cr8 P5 2.347493 1_655
Cr8 P5 2.347493 1_555
Cr9 P5 2.427959 1_555
Cr9 P2 2.489087 1_555
Cr9 P2 2.489087 1_455
Cr9 P0 2.497368 1_455
Cr9 P0 2.497368 1_555
P0 Zr1 2.738773 1_565
P0 Zr1 2.738773 1_665
P1 Zr0 2.738773 1_445
P1 Zr0 2.738773 1_545
P2 Zr1 2.779645 1_555
P2 Zr1 2.779645 1_655
P3 Zr0 2.779645 1_555
P3 Zr0 2.779645 1_455
P4 Zr1 2.822737 1_556
P4 Zr1 2.822737 1_656
P5 Zr0 2.822737 1_554
P5 Zr0 2.822737 1_454
