# generated using pymatgen
data_Sr3(TiN2)2
_symmetry_space_group_name_H-M   'P 1'
_cell_length_a   6.10993106
_cell_length_b   10.36418109
_cell_length_c   9.80480521
_cell_angle_alpha   90.00000000
_cell_angle_beta   90.00000000
_cell_angle_gamma   90.00000000
_symmetry_Int_Tables_number   1
_chemical_formula_structural   Sr3(TiN2)2
_chemical_formula_sum   'Sr12 Ti8 N16'
_cell_volume   620.88372034
_cell_formula_units_Z   4
loop_
 _symmetry_equiv_pos_site_id
 _symmetry_equiv_pos_as_xyz
  1  'x, y, z'
loop_
 _atom_site_type_symbol
 _atom_site_label
 _atom_site_symmetry_multiplicity
 _atom_site_fract_x
 _atom_site_fract_y
 _atom_site_fract_z
 _atom_site_occupancy
  Sr  Sr0  1  0.61375476  0.15778063  0.42089665  1
  Sr  Sr1  1  0.88624524  0.84221937  0.42089665  1
  Sr  Sr2  1  0.61375476  0.34221937  0.07910335  1
  Sr  Sr3  1  0.88624524  0.65778063  0.07910335  1
  Sr  Sr4  1  0.38624524  0.84221937  0.57910335  1
  Sr  Sr5  1  0.11375476  0.15778063  0.57910335  1
  Sr  Sr6  1  0.38624524  0.65778063  0.92089665  1
  Sr  Sr7  1  0.11375476  0.34221937  0.92089665  1
  Sr  Sr8  1  0.75000000  0.50000000  0.39811734  1
  Sr  Sr9  1  0.75000000  -0.00000000  0.10188266  1
  Sr  Sr10  1  0.25000000  0.50000000  0.60188266  1
  Sr  Sr11  1  0.25000000  0.00000000  0.89811734  1
  Ti  Ti0  1  0.75000000  0.50000000  0.73274733  1
  Ti  Ti1  1  0.75000000  0.00000000  0.76725267  1
  Ti  Ti2  1  0.25000000  0.50000000  0.26725267  1
  Ti  Ti3  1  0.25000000  -0.00000000  0.23274733  1
  Ti  Ti4  1  0.63127358  0.25000000  0.75000000  1
  Ti  Ti5  1  0.86872642  0.75000000  0.75000000  1
  Ti  Ti6  1  0.36872642  0.75000000  0.25000000  1
  Ti  Ti7  1  0.13127358  0.25000000  0.25000000  1
  N  N0  1  0.82823459  0.34852804  0.62416133  1
  N  N1  1  0.67176541  0.65147196  0.62416133  1
  N  N2  1  0.82823459  0.15147196  0.87583867  1
  N  N3  1  0.67176541  0.84852804  0.87583867  1
  N  N4  1  0.17176541  0.65147196  0.37583867  1
  N  N5  1  0.32823459  0.34852804  0.37583867  1
  N  N6  1  0.17176541  0.84852804  0.12416133  1
  N  N7  1  0.32823459  0.15147196  0.12416133  1
  N  N8  1  0.50546666  0.41703739  0.83123166  1
  N  N9  1  0.99453334  0.58296261  0.83123166  1
  N  N10  1  0.50546666  0.08296261  0.66876834  1
  N  N11  1  0.99453334  0.91703739  0.66876834  1
  N  N12  1  0.49453334  0.58296261  0.16876834  1
  N  N13  1  0.00546666  0.41703739  0.16876834  1
  N  N14  1  0.49453334  0.91703739  0.33123166  1
  N  N15  1  0.00546666  0.08296261  0.33123166  1
loop_
_geom_bond_atom_site_label_1
_geom_bond_atom_site_label_2
_geom_bond_distance
_geom_bond_site_symmetry_2
N0 Ti0 1.956153 1_555
N0 Ti4 2.003324 1_555
N0 Sr5 2.673346 1_655
N0 Sr8 2.757732 1_555
N0 Sr10 3.025386 1_655
N0 Sr0 3.097987 1_555
N1 Ti0 1.956153 1_555
N1 Ti5 2.003324 1_555
N1 Sr4 2.673346 1_555
N1 Sr8 2.757732 1_555
N1 Sr10 3.025386 1_555
N1 Sr1 3.097987 1_555
N2 Ti1 1.956153 1_555
N2 Ti4 2.003324 1_555
N2 Sr7 2.673346 1_655
N2 Sr9 2.757732 1_556
N2 Sr11 3.025386 1_655
N2 Sr2 3.097987 1_556
N3 Ti1 1.956153 1_565
N3 Ti5 2.003324 1_555
N3 Sr6 2.673346 1_555
N3 Sr9 2.757732 1_566
N3 Sr11 3.025386 1_565
N3 Sr3 3.097987 1_556
N4 Ti2 1.956153 1_555
N4 Ti6 2.003324 1_555
N4 Sr1 2.673346 1_455
N4 Sr10 2.757732 1_555
N4 Sr8 3.025386 1_455
N4 Sr4 3.097987 1_555
N5 Ti2 1.956153 1_555
N5 Ti7 2.003324 1_555
N5 Sr0 2.673346 1_555
N5 Sr10 2.757732 1_555
N5 Sr8 3.025386 1_555
N5 Sr5 3.097987 1_555
N6 Ti3 1.956153 1_565
N6 Ti6 2.003324 1_555
N6 Sr3 2.673346 1_455
N6 Sr11 2.757732 1_564
N6 Sr9 3.025386 1_465
N6 Sr6 3.097987 1_554
N7 Ti3 1.956153 1_555
N7 Ti7 2.003324 1_555
N7 Sr2 2.673346 1_555
N7 Sr11 2.757732 1_554
N7 Sr9 3.025386 1_555
N7 Sr7 3.097987 1_554
N8 Ti0 1.975861 1_555
N8 Ti4 2.054818 1_555
N8 Sr2 2.635444 1_556
N8 Sr7 2.665001 1_555
N8 Sr6 2.743916 1_555
N8 Sr10 2.869222 1_555
N9 Ti0 1.975861 1_555
N9 Ti5 2.054818 1_555
N9 Sr3 2.635444 1_556
N9 Sr6 2.665001 1_655
N9 Sr7 2.743916 1_655
N9 Sr10 2.869222 1_655
N10 Ti1 1.975861 1_555
N10 Ti4 2.054818 1_555
N10 Sr0 2.635444 1_555
N10 Sr5 2.665001 1_555
N10 Sr4 2.743916 1_545
N10 Sr11 2.869222 1_555
N11 Ti1 1.975861 1_565
N11 Ti5 2.054818 1_555
N11 Sr1 2.635444 1_555
N11 Sr4 2.665001 1_655
N11 Sr5 2.743916 1_665
N11 Sr11 2.869222 1_665
N12 Ti2 1.975861 1_555
N12 Ti6 2.054818 1_555
N12 Sr6 2.635444 1_554
N12 Sr3 2.665001 1_555
N12 Sr2 2.743916 1_555
N12 Sr8 2.869222 1_555
N13 Ti2 1.975861 1_555
N13 Ti7 2.054818 1_555
N13 Sr7 2.635444 1_554
N13 Sr2 2.665001 1_455
N13 Sr3 2.743916 1_455
N13 Sr8 2.869222 1_455
N14 Ti3 1.975861 1_565
N14 Ti6 2.054818 1_555
N14 Sr4 2.635444 1_555
N14 Sr1 2.665001 1_555
N14 Sr0 2.743916 1_565
N14 Sr9 2.869222 1_565
N15 Ti3 1.975861 1_555
N15 Ti7 2.054818 1_555
N15 Sr5 2.635444 1_555
N15 Sr0 2.665001 1_455
N15 Sr1 2.743916 1_445
N15 Sr9 2.869222 1_455
