# generated using pymatgen
data_La14Sb8CO7
_symmetry_space_group_name_H-M   'P 1'
_cell_length_a   13.27479300
_cell_length_b   13.27479300
_cell_length_c   9.38414100
_cell_angle_alpha   90.00000000
_cell_angle_beta   90.00000000
_cell_angle_gamma   90.00000000
_symmetry_Int_Tables_number   1
_chemical_formula_structural   La14Sb8CO7
_chemical_formula_sum   'La28 Sb16 C2 O14'
_cell_volume   1653.67453938
_cell_formula_units_Z   2
loop_
 _symmetry_equiv_pos_site_id
 _symmetry_equiv_pos_as_xyz
  1  'x, y, z'
loop_
 _atom_site_type_symbol
 _atom_site_label
 _atom_site_symmetry_multiplicity
 _atom_site_fract_x
 _atom_site_fract_y
 _atom_site_fract_z
 _atom_site_occupancy
  La  La0  1  0.50000000  0.50000000  0.03151300  1
  La  La1  1  0.00000000  0.00000000  0.03151300  1
  La  La2  1  0.50000000  0.00000000  0.00529500  1
  La  La3  1  0.00000000  0.50000000  0.00529500  1
  La  La4  1  0.25104900  0.24895100  0.01157700  1
  La  La5  1  0.74895100  0.75104900  0.01157700  1
  La  La6  1  0.75104900  0.25104900  0.01157700  1
  La  La7  1  0.24895100  0.74895100  0.01157700  1
  La  La8  1  0.39051100  0.89051100  0.34549200  1
  La  La9  1  0.60948900  0.10948900  0.34549200  1
  La  La10  1  0.89051100  0.60948900  0.34549200  1
  La  La11  1  0.10948900  0.39051100  0.34549200  1
  La  La12  1  0.50987400  0.24921900  0.68896700  1
  La  La13  1  0.49012600  0.75078100  0.68896700  1
  La  La14  1  0.00987400  0.25078100  0.68896700  1
  La  La15  1  0.99012600  0.74921900  0.68896700  1
  La  La16  1  0.75078100  0.50987400  0.68896700  1
  La  La17  1  0.24921900  0.49012600  0.68896700  1
  La  La18  1  0.74921900  0.00987400  0.68896700  1
  La  La19  1  0.25078100  0.99012600  0.68896700  1
  La  La20  1  0.34468900  0.61698100  0.35296600  1
  La  La21  1  0.65531100  0.38301900  0.35296600  1
  La  La22  1  0.84468900  0.88301900  0.35296600  1
  La  La23  1  0.15531100  0.11698100  0.35296600  1
  La  La24  1  0.38301900  0.34468900  0.35296600  1
  La  La25  1  0.61698100  0.65531100  0.35296600  1
  La  La26  1  0.11698100  0.84468900  0.35296600  1
  La  La27  1  0.88301900  0.15531100  0.35296600  1
  Sb  Sb0  1  0.50000000  0.50000000  0.64343100  1
  Sb  Sb1  1  0.00000000  0.00000000  0.64343100  1
  Sb  Sb2  1  0.50000000  0.00000000  0.64184900  1
  Sb  Sb3  1  0.00000000  0.50000000  0.64184900  1
  Sb  Sb4  1  0.25942500  0.24057500  0.65692700  1
  Sb  Sb5  1  0.74057500  0.75942500  0.65692700  1
  Sb  Sb6  1  0.75942500  0.25942500  0.65692700  1
  Sb  Sb7  1  0.24057500  0.74057500  0.65692700  1
  Sb  Sb8  1  0.49838600  0.74942700  0.04634500  1
  Sb  Sb9  1  0.50161400  0.25057300  0.04634500  1
  Sb  Sb10  1  0.99838600  0.75057300  0.04634500  1
  Sb  Sb11  1  0.00161400  0.24942700  0.04634500  1
  Sb  Sb12  1  0.25057300  0.49838600  0.04634500  1
  Sb  Sb13  1  0.74942700  0.50161400  0.04634500  1
  Sb  Sb14  1  0.24942700  0.99838600  0.04634500  1
  Sb  Sb15  1  0.75057300  0.00161400  0.04634500  1
  C  C0  1  0.50000000  0.50000000  0.28371500  1
  C  C1  1  0.00000000  0.00000000  0.28371500  1
  O  O0  1  0.50000000  0.00000000  0.24205300  1
  O  O1  1  0.00000000  0.50000000  0.24205300  1
  O  O2  1  0.26333400  0.76333400  0.25722100  1
  O  O3  1  0.73666600  0.23666600  0.25722100  1
  O  O4  1  0.76333400  0.73666600  0.25722100  1
  O  O5  1  0.23666600  0.26333400  0.25722100  1
  O  O6  1  0.26021900  0.47155900  0.44240000  1
  O  O7  1  0.73978100  0.52844100  0.44240000  1
  O  O8  1  0.76021900  0.02844100  0.44240000  1
  O  O9  1  0.23978100  0.97155900  0.44240000  1
  O  O10  1  0.52844100  0.26021900  0.44240000  1
  O  O11  1  0.47155900  0.73978100  0.44240000  1
  O  O12  1  0.97155900  0.76021900  0.44240000  1
  O  O13  1  0.02844100  0.23978100  0.44240000  1
loop_
_geom_bond_atom_site_label_1
_geom_bond_atom_site_label_2
_geom_bond_distance
_geom_bond_site_symmetry_2
La0 Sb8 3.314085 1_555
La0 Sb13 3.314085 1_555
La0 Sb12 3.314085 1_555
La0 Sb9 3.314085 1_555
La0 Sb0 3.641816 1_554
La1 Sb10 3.314085 1_445
La1 Sb15 3.314085 1_455
La1 Sb14 3.314085 1_545
La1 Sb11 3.314085 1_555
La1 Sb1 3.641816 1_554
La2 O0 2.221770 1_555
La2 Sb14 3.348605 1_545
La2 Sb9 3.348605 1_555
La2 Sb15 3.348605 1_555
La2 Sb8 3.348605 1_545
La2 Sb2 3.410629 1_554
La3 O1 2.221770 1_555
La3 Sb11 3.348605 1_555
La3 Sb12 3.348605 1_555
La3 Sb10 3.348605 1_455
La3 Sb13 3.348605 1_455
La3 Sb3 3.410629 1_554
La4 O5 2.320918 1_555
La4 Sb11 3.327240 1_555
La4 Sb12 3.327240 1_555
La4 Sb4 3.331798 1_554
La4 Sb9 3.342231 1_555
La4 Sb14 3.342231 1_545
La5 O4 2.320918 1_555
La5 Sb10 3.327240 1_555
La5 Sb13 3.327240 1_555
La5 Sb5 3.331798 1_554
La5 Sb15 3.342231 1_565
La5 Sb8 3.342231 1_555
La6 O3 2.320918 1_555
La6 Sb9 3.327240 1_555
La6 Sb15 3.327240 1_555
La6 Sb6 3.331798 1_554
La6 Sb13 3.342231 1_555
La6 Sb11 3.342231 1_655
La7 O2 2.320918 1_555
La7 Sb14 3.327240 1_555
La7 Sb8 3.327240 1_555
La7 Sb7 3.331798 1_554
La7 Sb12 3.342231 1_555
La7 Sb10 3.342231 1_455
La8 O0 2.273154 1_565
La8 O9 2.447079 1_555
La8 O11 2.447079 1_555
La8 O2 2.527157 1_555
La8 Sb2 3.458218 1_565
La8 Sb14 3.665906 1_555
La8 Sb8 3.665906 1_555
La9 O0 2.273154 1_555
La9 O10 2.447079 1_555
La9 O8 2.447079 1_555
La9 O3 2.527157 1_555
La9 Sb2 3.458218 1_555
La9 Sb9 3.665906 1_555
La9 Sb15 3.665906 1_555
La10 O1 2.273154 1_655
La10 O12 2.447079 1_555
La10 O7 2.447079 1_555
La10 O4 2.527157 1_555
La10 Sb3 3.458218 1_655
La10 Sb13 3.665906 1_555
La10 Sb10 3.665906 1_555
La11 O1 2.273154 1_555
La11 O13 2.447079 1_555
La11 O6 2.447079 1_555
La11 O5 2.527157 1_555
La11 Sb3 3.458218 1_555
La11 Sb11 3.665906 1_555
La11 Sb12 3.665906 1_555
La12 O10 2.331487 1_555
La12 Sb6 3.329112 1_555
La12 Sb4 3.340198 1_555
La12 Sb2 3.340320 1_555
La12 Sb9 3.355526 1_556
La12 Sb0 3.358937 1_555
La13 O11 2.331487 1_555
La13 Sb7 3.329112 1_555
La13 Sb5 3.340198 1_555
La13 Sb2 3.340320 1_565
La13 Sb8 3.355526 1_556
La13 Sb0 3.358937 1_555
La14 O13 2.331487 1_555
La14 Sb4 3.329112 1_555
La14 Sb6 3.340198 1_455
La14 Sb3 3.340320 1_555
La14 Sb11 3.355526 1_556
La14 Sb1 3.358937 1_555
La15 O12 2.331487 1_555
La15 Sb5 3.329112 1_555
La15 Sb7 3.340198 1_655
La15 Sb3 3.340320 1_655
La15 Sb10 3.355526 1_556
La15 Sb1 3.358937 1_665
La16 O7 2.331487 1_555
La16 Sb5 3.329112 1_555
La16 Sb6 3.340198 1_555
La16 Sb3 3.340320 1_655
La16 Sb13 3.355526 1_556
La16 Sb0 3.358937 1_555
La17 O6 2.331487 1_555
La17 Sb4 3.329112 1_555
La17 Sb7 3.340198 1_555
La17 Sb3 3.340320 1_555
La17 Sb12 3.355526 1_556
La17 Sb0 3.358937 1_555
La18 O8 2.331487 1_555
La18 Sb6 3.329112 1_555
La18 Sb5 3.340198 1_545
La18 Sb2 3.340320 1_555
La18 Sb15 3.355526 1_556
La18 Sb1 3.358937 1_655
La19 O9 2.331487 1_555
La19 Sb7 3.329112 1_555
La19 Sb4 3.340198 1_565
La19 Sb2 3.340320 1_565
La19 Sb14 3.355526 1_556
La19 Sb1 3.358937 1_565
La20 O6 2.385026 1_555
La20 O2 2.397521 1_555
La20 O11 2.489612 1_555
La20 Sb12 3.509802 1_555
La20 Sb7 3.569073 1_555
La20 Sb8 3.941235 1_555
La21 O7 2.385026 1_555
La21 O3 2.397521 1_555
La21 O10 2.489612 1_555
La21 Sb13 3.509802 1_555
La21 Sb6 3.569073 1_555
La21 Sb9 3.941235 1_555
La22 O8 2.385026 1_565
La22 O4 2.397521 1_555
La22 O12 2.489612 1_555
La22 Sb15 3.509802 1_565
La22 Sb5 3.569073 1_555
La22 Sb10 3.941235 1_555
La23 O9 2.385026 1_545
La23 O5 2.397521 1_555
La23 O13 2.489612 1_555
La23 Sb14 3.509802 1_545
La23 Sb4 3.569073 1_555
La23 Sb11 3.941235 1_555
La24 O10 2.385026 1_555
La24 O5 2.397521 1_555
La24 O6 2.489612 1_555
La24 Sb9 3.509802 1_555
La24 Sb4 3.569073 1_555
La24 Sb12 3.941235 1_555
La25 O11 2.385026 1_555
La25 O4 2.397521 1_555
La25 O7 2.489612 1_555
La25 Sb8 3.509802 1_555
La25 Sb5 3.569073 1_555
La25 Sb13 3.941235 1_555
La26 O12 2.385026 1_455
La26 O2 2.397521 1_555
La26 O9 2.489612 1_555
La26 Sb10 3.509802 1_455
La26 Sb7 3.569073 1_555
La26 Sb14 3.941235 1_555
La27 O13 2.385026 1_655
La27 O3 2.397521 1_555
La27 O8 2.489612 1_555
La27 Sb11 3.509802 1_655
La27 Sb6 3.569073 1_555
La27 Sb15 3.941235 1_555
C0 La0 2.366699 1_555
C0 La25 2.661674 1_555
C0 La24 2.661674 1_555
C0 La21 2.661674 1_555
C0 La20 2.661674 1_555
C1 La1 2.366699 1_555
C1 La26 2.661674 1_545
C1 La22 2.661674 1_445
C1 La23 2.661674 1_555
C1 La27 2.661674 1_455
