# generated using pymatgen
data_Y2Zn17
_symmetry_space_group_name_H-M   'P 1'
_cell_length_a   6.69716516
_cell_length_b   6.69716493
_cell_length_c   6.69716614
_cell_angle_alpha   82.94562429
_cell_angle_beta   82.94562728
_cell_angle_gamma   82.94562610
_symmetry_Int_Tables_number   1
_chemical_formula_structural   Y2Zn17
_chemical_formula_sum   'Y2 Zn17'
_cell_volume   294.07584683
_cell_formula_units_Z   1
loop_
 _symmetry_equiv_pos_site_id
 _symmetry_equiv_pos_as_xyz
  1  'x, y, z'
loop_
 _atom_site_type_symbol
 _atom_site_label
 _atom_site_symmetry_multiplicity
 _atom_site_fract_x
 _atom_site_fract_y
 _atom_site_fract_z
 _atom_site_occupancy
  Y  Y0  1  0.66423791  0.66423791  0.66423791  1
  Y  Y1  1  0.33576209  0.33576209  0.33576209  1
  Zn  Zn0  1  0.35035149  0.35035149  0.83894354  1
  Zn  Zn1  1  0.35035149  0.83894354  0.35035149  1
  Zn  Zn2  1  0.09938382  0.09938382  0.09938382  1
  Zn  Zn3  1  0.90061618  0.90061618  0.90061618  1
  Zn  Zn4  1  0.00000000  -0.00000000  0.50000000  1
  Zn  Zn5  1  0.50000000  -0.00000000  -0.00000000  1
  Zn  Zn6  1  0.00000000  0.50000000  -0.00000000  1
  Zn  Zn7  1  0.70428725  0.29571275  -0.00000000  1
  Zn  Zn8  1  0.00000000  0.70428725  0.29571275  1
  Zn  Zn9  1  0.29571275  0.00000000  0.70428725  1
  Zn  Zn10  1  0.29571275  0.70428725  0.00000000  1
  Zn  Zn11  1  -0.00000000  0.29571275  0.70428725  1
  Zn  Zn12  1  0.70428725  -0.00000000  0.29571275  1
  Zn  Zn13  1  0.64964851  0.16105646  0.64964851  1
  Zn  Zn14  1  0.64964851  0.64964851  0.16105646  1
  Zn  Zn15  1  0.16105646  0.64964851  0.64964851  1
  Zn  Zn16  1  0.83894354  0.35035149  0.35035149  1
loop_
_geom_bond_atom_site_label_1
_geom_bond_atom_site_label_2
_geom_bond_distance
_geom_bond_site_symmetry_2
Y0 Zn3 3.060218 1_555
Y0 Zn11 3.137220 1_655
Y0 Zn9 3.137221 1_565
Y0 Zn7 3.137221 1_556
Y0 Zn12 3.137221 1_565
Y0 Zn10 3.137221 1_556
Y0 Zn8 3.137221 1_655
Y0 Zn0 3.175562 1_555
Y0 Zn1 3.175562 1_555
Y0 Zn16 3.175562 1_555
Y0 Zn13 3.306433 1_565
Y0 Zn15 3.306433 1_655
Y0 Zn14 3.306434 1_556
Y0 Zn4 3.368929 1_665
Y0 Zn6 3.368930 1_656
Y0 Zn5 3.368930 1_566
Y0 Zn13 3.396960 1_555
Y0 Zn15 3.396961 1_555
Y0 Zn14 3.396961 1_555
Y1 Zn2 3.060218 1_555
Y1 Zn8 3.137220 1_555
Y1 Zn12 3.137221 1_555
Y1 Zn10 3.137221 1_555
Y1 Zn9 3.137221 1_555
Y1 Zn7 3.137221 1_555
Y1 Zn11 3.137221 1_555
Y1 Zn14 3.175562 1_555
Y1 Zn13 3.175562 1_555
Y1 Zn15 3.175562 1_555
Y1 Zn1 3.306433 1_545
Y1 Zn16 3.306433 1_455
Y1 Zn0 3.306434 1_554
Y1 Zn4 3.368929 1_555
Y1 Zn6 3.368930 1_555
Y1 Zn5 3.368930 1_555
Y1 Zn1 3.396960 1_555
Y1 Zn16 3.396961 1_555
Y1 Zn0 3.396961 1_555
Zn0 Zn15 2.525582 1_555
Zn0 Zn13 2.525582 1_555
Zn0 Zn5 2.596070 1_556
Zn0 Zn6 2.596070 1_556
Zn0 Zn10 2.689602 1_556
Zn0 Zn7 2.689602 1_556
Zn0 Zn9 2.695230 1_555
Zn0 Zn11 2.695230 1_555
Zn0 Zn2 2.818865 1_556
Zn1 Zn14 2.525582 1_555
Zn1 Zn15 2.525582 1_555
Zn1 Zn4 2.596070 1_565
Zn1 Zn5 2.596070 1_565
Zn1 Zn12 2.689602 1_565
Zn1 Zn9 2.689602 1_565
Zn1 Zn8 2.695230 1_555
Zn1 Zn10 2.695230 1_555
Zn1 Zn2 2.818865 1_565
Zn2 Zn3 2.573301 1_444
Zn2 Zn6 2.704816 1_555
Zn2 Zn5 2.704816 1_555
Zn2 Zn4 2.704817 1_555
Zn2 Zn8 2.921706 1_545
Zn2 Zn7 2.921706 1_455
Zn2 Zn9 2.921707 1_554
Zn3 Zn6 2.704816 1_656
Zn3 Zn5 2.704816 1_566
Zn3 Zn4 2.704817 1_665
Zn3 Zn7 2.921706 1_566
Zn3 Zn9 2.921706 1_665
Zn3 Zn8 2.921707 1_656
Zn4 Zn8 2.541550 1_545
Zn4 Zn9 2.541550 1_555
Zn5 Zn7 2.541549 1_555
Zn5 Zn9 2.541550 1_554
Zn6 Zn7 2.541549 1_455
Zn6 Zn8 2.541550 1_555
Zn10 Zn5 2.541549 1_565
Zn10 Zn6 2.541549 1_555
Zn10 Zn9 2.623147 1_564
Zn10 Zn8 2.623147 1_555
Zn10 Zn14 2.689602 1_555
Zn10 Zn15 2.695230 1_554
Zn10 Zn2 2.921706 1_565
Zn10 Zn3 2.921706 1_454
Zn11 Zn4 2.541550 1_555
Zn11 Zn6 2.541550 1_556
Zn11 Zn9 2.623147 1_555
Zn11 Zn7 2.623147 1_456
Zn11 Zn15 2.689602 1_555
Zn11 Zn16 2.689602 1_455
Zn11 Zn13 2.695230 1_455
Zn11 Zn3 2.921706 1_445
Zn11 Zn2 2.921707 1_556
Zn12 Zn4 2.541550 1_655
Zn12 Zn5 2.541550 1_555
Zn12 Zn8 2.623147 1_645
Zn12 Zn7 2.623147 1_555
Zn12 Zn13 2.689602 1_555
Zn12 Zn16 2.695230 1_555
Zn12 Zn14 2.695230 1_545
Zn12 Zn2 2.921706 1_655
Zn12 Zn3 2.921707 1_544
Zn13 Zn16 2.525582 1_555
Zn13 Zn4 2.596070 1_655
Zn13 Zn5 2.596070 1_556
Zn13 Zn9 2.689602 1_555
Zn13 Zn7 2.695230 1_556
Zn13 Zn3 2.818865 1_545
Zn14 Zn16 2.525582 1_555
Zn14 Zn5 2.596070 1_565
Zn14 Zn6 2.596070 1_655
Zn14 Zn7 2.689602 1_555
Zn14 Zn8 2.695230 1_655
Zn14 Zn3 2.818865 1_554
Zn15 Zn4 2.596070 1_565
Zn15 Zn6 2.596070 1_556
Zn15 Zn8 2.689602 1_555
Zn15 Zn9 2.695230 1_565
Zn15 Zn3 2.818865 1_455
Zn16 Zn4 2.596070 1_655
Zn16 Zn6 2.596070 1_655
Zn16 Zn8 2.689602 1_655
Zn16 Zn7 2.695230 1_555
Zn16 Zn2 2.818865 1_655
