# generated using pymatgen
data_Nd3Mn2Sb3O14
_symmetry_space_group_name_H-M   'P 1'
_cell_length_a   7.35967648
_cell_length_b   7.35967648
_cell_length_c   7.35967607
_cell_angle_alpha   62.03681471
_cell_angle_beta   62.03681471
_cell_angle_gamma   62.03681239
_symmetry_Int_Tables_number   1
_chemical_formula_structural   Nd3Mn2Sb3O14
_chemical_formula_sum   'Nd3 Mn2 Sb3 O14'
_cell_volume   294.71650652
_cell_formula_units_Z   1
loop_
 _symmetry_equiv_pos_site_id
 _symmetry_equiv_pos_as_xyz
  1  'x, y, z'
loop_
 _atom_site_type_symbol
 _atom_site_label
 _atom_site_symmetry_multiplicity
 _atom_site_fract_x
 _atom_site_fract_y
 _atom_site_fract_z
 _atom_site_occupancy
  Nd  Nd0  1  0.50000000  0.50000000  0.00000000  1
  Nd  Nd1  1  0.00000000  0.50000000  0.50000000  1
  Nd  Nd2  1  0.50000000  0.00000000  0.50000000  1
  Mn  Mn0  1  0.00000000  0.00000000  0.00000000  1
  Mn  Mn1  1  0.50000000  0.50000000  0.50000000  1
  Sb  Sb0  1  0.00000000  0.00000000  0.50000000  1
  Sb  Sb1  1  0.50000000  0.00000000  0.00000000  1
  Sb  Sb2  1  0.00000000  0.50000000  0.00000000  1
  O  O0  1  0.61562800  0.61562800  0.61562800  1
  O  O1  1  0.38437200  0.38437200  0.38437200  1
  O  O2  1  0.32006600  0.92113000  0.32006600  1
  O  O3  1  0.32006600  0.32006600  0.92113000  1
  O  O4  1  0.92113000  0.32006600  0.32006600  1
  O  O5  1  0.67993400  0.07887000  0.67993400  1
  O  O6  1  0.67993400  0.67993400  0.07887000  1
  O  O7  1  0.07887000  0.67993400  0.67993400  1
  O  O8  1  0.90808500  0.35384800  0.90808500  1
  O  O9  1  0.90808500  0.90808500  0.35384800  1
  O  O10  1  0.35384800  0.90808500  0.90808500  1
  O  O11  1  0.09191500  0.64615200  0.09191500  1
  O  O12  1  0.09191500  0.09191500  0.64615200  1
  O  O13  1  0.64615200  0.09191500  0.09191500  1
loop_
_geom_bond_atom_site_label_1
_geom_bond_atom_site_label_2
_geom_bond_distance
_geom_bond_site_symmetry_2
Nd0 O1 2.369537 1_555
Nd0 O0 2.369537 1_554
Nd0 O13 2.526318 1_555
Nd0 O8 2.526318 1_554
Nd0 O11 2.526318 1_555
Nd0 O10 2.526318 1_554
Nd0 O3 2.632597 1_554
Nd0 O6 2.632597 1_555
Nd1 O1 2.369537 1_555
Nd1 O0 2.369537 1_455
Nd1 O8 2.526317 1_455
Nd1 O11 2.526317 1_555
Nd1 O9 2.526318 1_455
Nd1 O12 2.526318 1_555
Nd1 O4 2.632597 1_455
Nd1 O7 2.632597 1_555
Nd2 O1 2.369537 1_555
Nd2 O0 2.369537 1_545
Nd2 O13 2.526317 1_555
Nd2 O10 2.526317 1_545
Nd2 O9 2.526318 1_545
Nd2 O12 2.526318 1_555
Nd2 O2 2.632597 1_545
Nd2 O5 2.632597 1_555
Mn0 O9 2.195919 1_445
Mn0 O12 2.195919 1_554
Mn0 O8 2.195919 1_454
Mn0 O11 2.195919 1_545
Mn0 O13 2.195919 1_455
Mn0 O10 2.195919 1_544
Mn1 O0 2.051813 1_555
Mn1 O1 2.051813 1_555
Mn1 O3 2.657034 1_555
Mn1 O6 2.657034 1_555
Mn1 O2 2.657034 1_555
Mn1 O5 2.657034 1_555
Mn1 O7 2.657034 1_555
Mn1 O4 2.657034 1_555
O2 Sb1 2.037780 1_565
O2 Sb0 2.037780 1_565
O3 Sb2 2.037780 1_556
O3 Sb1 2.037780 1_556
O4 Sb2 2.037780 1_655
O4 Sb0 2.037780 1_655
O5 Sb1 2.037780 1_556
O5 Sb0 2.037780 1_655
O6 Sb1 2.037780 1_565
O6 Sb2 2.037780 1_655
O7 Sb2 2.037780 1_556
O7 Sb0 2.037780 1_565
O8 Sb2 1.966236 1_656
O9 Sb0 1.966236 1_665
O10 Sb1 1.966236 1_566
O11 Sb2 1.966236 1_555
O12 Sb0 1.966236 1_555
O13 Sb1 1.966236 1_555
