# generated using pymatgen
data_LaAl3Cu
_symmetry_space_group_name_H-M   'P 1'
_cell_length_a   6.13287621
_cell_length_b   6.13287621
_cell_length_c   6.13287621
_cell_angle_alpha   139.15658361
_cell_angle_beta   139.15658361
_cell_angle_gamma   59.13617398
_symmetry_Int_Tables_number   1
_chemical_formula_structural   LaAl3Cu
_chemical_formula_sum   'La1 Al3 Cu1'
_cell_volume   97.70717735
_cell_formula_units_Z   1
loop_
 _symmetry_equiv_pos_site_id
 _symmetry_equiv_pos_as_xyz
  1  'x, y, z'
loop_
 _atom_site_type_symbol
 _atom_site_label
 _atom_site_symmetry_multiplicity
 _atom_site_fract_x
 _atom_site_fract_y
 _atom_site_fract_z
 _atom_site_occupancy
  La  La0  1  0.99719190  0.99719190  -0.00000000  1
  Al  Al0  1  0.40288863  0.40288863  -0.00000000  1
  Al  Al1  1  0.24654845  0.74654845  0.50000000  1
  Al  Al2  1  0.74654845  0.24654845  0.50000000  1
  Cu  Cu0  1  0.63082357  0.63082357  0.00000000  1
loop_
_geom_bond_atom_site_label_1
_geom_bond_atom_site_label_2
_geom_bond_distance
_geom_bond_site_symmetry_2
Al0 Cu0 2.431697 1_555
Al0 Al1 2.713147 1_544
Al0 Al2 2.713147 1_555
Al0 Al2 2.713147 1_454
Al0 Al1 2.713147 1_555
Al0 La0 3.189159 1_455
Al0 La0 3.189159 1_556
Al0 La0 3.189159 1_545
Al0 La0 3.189159 1_444
Al1 Cu0 2.470530 1_556
Al1 Cu0 2.470530 1_455
Al1 La0 3.414106 1_445
Al1 La0 3.414106 1_456
Al1 La0 3.424814 1_556
Al1 La0 3.424814 1_455
Al2 Cu0 2.470530 1_556
Al2 Cu0 2.470530 1_545
Al2 La0 3.414106 1_546
Al2 La0 3.414106 1_445
Al2 La0 3.424814 1_556
Al2 La0 3.424814 1_545
Cu0 La0 3.345296 1_444
Cu0 La0 3.345296 1_455
Cu0 La0 3.345296 1_545
Cu0 La0 3.345296 1_556
