# generated using pymatgen
data_Dy2NiSb4
_symmetry_space_group_name_H-M   'P 1'
_cell_length_a   4.30926734
_cell_length_b   4.30926734
_cell_length_c   9.33455719
_cell_angle_alpha   90.00000000
_cell_angle_beta   90.00000000
_cell_angle_gamma   90.00000000
_symmetry_Int_Tables_number   1
_chemical_formula_structural   Dy2NiSb4
_chemical_formula_sum   'Dy2 Ni1 Sb4'
_cell_volume   173.34072016
_cell_formula_units_Z   1
loop_
 _symmetry_equiv_pos_site_id
 _symmetry_equiv_pos_as_xyz
  1  'x, y, z'
loop_
 _atom_site_type_symbol
 _atom_site_label
 _atom_site_symmetry_multiplicity
 _atom_site_fract_x
 _atom_site_fract_y
 _atom_site_fract_z
 _atom_site_occupancy
  Dy  Dy0  1  0.50000000  0.00000000  0.23510097  1
  Dy  Dy1  1  0.00000000  0.50000000  0.76489903  1
  Ni  Ni0  1  0.50000000  0.50000000  0.00000000  1
  Sb  Sb0  1  0.50000000  0.50000000  0.50000000  1
  Sb  Sb1  1  -0.00000000  -0.00000000  0.50000000  1
  Sb  Sb2  1  0.50000000  0.00000000  0.87187650  1
  Sb  Sb3  1  -0.00000000  0.50000000  0.12812350  1
loop_
_geom_bond_atom_site_label_1
_geom_bond_atom_site_label_2
_geom_bond_distance
_geom_bond_site_symmetry_2
Dy0 Ni0 3.075476 1_555
Dy0 Ni0 3.075476 1_545
Dy0 Sb3 3.206567 1_555
Dy0 Sb3 3.206567 1_645
Dy0 Sb3 3.206567 1_655
Dy0 Sb3 3.206567 1_545
Dy0 Sb0 3.279751 1_545
Dy0 Sb1 3.279751 1_655
Dy0 Sb0 3.279751 1_555
Dy0 Sb1 3.279751 1_555
Dy0 Sb2 3.390540 1_554
Dy1 Ni0 3.075476 1_556
Dy1 Ni0 3.075476 1_456
Dy1 Sb2 3.206567 1_565
Dy1 Sb2 3.206567 1_465
Dy1 Sb2 3.206567 1_555
Dy1 Sb2 3.206567 1_455
Dy1 Sb1 3.279751 1_565
Dy1 Sb0 3.279751 1_555
Dy1 Sb0 3.279751 1_455
Dy1 Sb1 3.279751 1_555
Dy1 Sb3 3.390540 1_556
Ni0 Sb3 2.464306 1_655
Ni0 Sb2 2.464306 1_554
Ni0 Sb2 2.464306 1_564
Ni0 Sb3 2.464306 1_555
Sb0 Sb1 3.047112 1_565
Sb0 Sb1 3.047112 1_655
Sb0 Sb1 3.047112 1_665
Sb0 Sb1 3.047112 1_555
