# generated using pymatgen
data_K3Mo2HCO13
_symmetry_space_group_name_H-M   'P 1'
_cell_length_a   11.62553300
_cell_length_b   6.25257600
_cell_length_c   16.65063500
_cell_angle_alpha   90.00000000
_cell_angle_beta   90.00000000
_cell_angle_gamma   90.00000000
_symmetry_Int_Tables_number   1
_chemical_formula_structural   K3Mo2HCO13
_chemical_formula_sum   'K12 Mo8 H4 C4 O52'
_cell_volume   1210.32680942
_cell_formula_units_Z   4
loop_
 _symmetry_equiv_pos_site_id
 _symmetry_equiv_pos_as_xyz
  1  'x, y, z'
loop_
 _atom_site_type_symbol
 _atom_site_label
 _atom_site_symmetry_multiplicity
 _atom_site_fract_x
 _atom_site_fract_y
 _atom_site_fract_z
 _atom_site_occupancy
  K  K0  1  0.39600100  0.75312100  0.85051600  1
  K  K1  1  0.60399900  0.24687900  0.35051600  1
  K  K2  1  0.10399900  0.75312100  0.35051600  1
  K  K3  1  0.89600100  0.24687900  0.85051600  1
  K  K4  1  0.58975900  0.24567500  0.64952600  1
  K  K5  1  0.41024100  0.75432500  0.14952600  1
  K  K6  1  0.91024100  0.24567500  0.14952600  1
  K  K7  1  0.08975900  0.75432500  0.64952600  1
  K  K8  1  0.43192300  0.71972500  0.44858700  1
  K  K9  1  0.56807700  0.28027500  0.94858700  1
  K  K10  1  0.06807700  0.71972500  0.94858700  1
  K  K11  1  0.93192300  0.28027500  0.44858700  1
  Mo  Mo0  1  0.73629200  0.78758200  0.75906600  1
  Mo  Mo1  1  0.26370800  0.21241800  0.25906600  1
  Mo  Mo2  1  0.76370800  0.78758200  0.25906600  1
  Mo  Mo3  1  0.23629200  0.21241800  0.75906600  1
  Mo  Mo4  1  0.76401600  0.79744400  0.53463100  1
  Mo  Mo5  1  0.23598400  0.20255600  0.03463100  1
  Mo  Mo6  1  0.73598400  0.79744400  0.03463100  1
  Mo  Mo7  1  0.26401600  0.20255600  0.53463100  1
  H  H0  1  0.90985600  0.24979000  0.65448800  1
  H  H1  1  0.09014400  0.75021000  0.15448800  1
  H  H2  1  0.59014400  0.24979000  0.15448800  1
  H  H3  1  0.40985600  0.75021000  0.65448800  1
  C  C0  1  0.86353700  0.40458600  0.65238400  1
  C  C1  1  0.13646300  0.59541400  0.15238400  1
  C  C2  1  0.63646300  0.40458600  0.15238400  1
  C  C3  1  0.36353700  0.59541400  0.65238400  1
  O  O0  1  0.90345700  0.85829600  0.74999700  1
  O  O1  1  0.09654300  0.14170400  0.24999700  1
  O  O2  1  0.59654300  0.85829600  0.24999700  1
  O  O3  1  0.40345700  0.14170400  0.74999700  1
  O  O4  1  0.87621600  0.75635300  0.82798800  1
  O  O5  1  0.12378400  0.24364700  0.32798800  1
  O  O6  1  0.62378400  0.75635300  0.32798800  1
  O  O7  1  0.37621600  0.24364700  0.82798800  1
  O  O8  1  0.64957000  0.58092500  0.82739000  1
  O  O9  1  0.35043000  0.41907500  0.32739000  1
  O  O10  1  0.85043000  0.58092500  0.32739000  1
  O  O11  1  0.14957000  0.41907500  0.82739000  1
  O  O12  1  0.59122600  0.61607300  0.74980800  1
  O  O13  1  0.40877400  0.38392700  0.24980800  1
  O  O14  1  0.90877400  0.61607300  0.24980800  1
  O  O15  1  0.09122600  0.38392700  0.74980800  1
  O  O16  1  0.64413000  0.56787800  0.53484500  1
  O  O17  1  0.35587000  0.43212200  0.03484500  1
  O  O18  1  0.85587000  0.56787800  0.03484500  1
  O  O19  1  0.14413000  0.43212200  0.53484500  1
  O  O20  1  0.71861100  0.55585400  0.46331200  1
  O  O21  1  0.28138900  0.44414600  0.96331200  1
  O  O22  1  0.78138900  0.55585400  0.96331200  1
  O  O23  1  0.21861100  0.44414600  0.46331200  1
  O  O24  1  0.91271900  0.82236700  0.47505200  1
  O  O25  1  0.08728100  0.17763300  0.97505200  1
  O  O26  1  0.58728100  0.82236700  0.97505200  1
  O  O27  1  0.41271900  0.17763300  0.47505200  1
  O  O28  1  0.91790700  0.93311500  0.55367000  1
  O  O29  1  0.08209300  0.06688500  0.05367000  1
  O  O30  1  0.58209300  0.93311500  0.05367000  1
  O  O31  1  0.41790700  0.06688500  0.55367000  1
  O  O32  1  0.68358500  0.02708600  0.79763300  1
  O  O33  1  0.31641500  0.97291400  0.29763300  1
  O  O34  1  0.81641500  0.02708600  0.29763300  1
  O  O35  1  0.18358500  0.97291400  0.79763300  1
  O  O36  1  0.72122700  0.86133000  0.64547600  1
  O  O37  1  0.27877300  0.13867000  0.14547600  1
  O  O38  1  0.77877300  0.86133000  0.14547600  1
  O  O39  1  0.22122700  0.13867000  0.64547600  1
  O  O40  1  0.69160500  0.01028300  0.49048200  1
  O  O41  1  0.30839500  0.98971700  0.99048200  1
  O  O42  1  0.80839500  0.01028300  0.99048200  1
  O  O43  1  0.19160500  0.98971700  0.49048200  1
  O  O44  1  0.80664000  0.45436300  0.71450500  1
  O  O45  1  0.19336000  0.54563700  0.21450500  1
  O  O46  1  0.69336000  0.45436300  0.21450500  1
  O  O47  1  0.30664000  0.54563700  0.71450500  1
  O  O48  1  0.87315900  0.50995300  0.58762200  1
  O  O49  1  0.12684100  0.49004700  0.08762200  1
  O  O50  1  0.62684100  0.50995300  0.08762200  1
  O  O51  1  0.37315900  0.49004700  0.58762200  1
loop_
_geom_bond_atom_site_label_1
_geom_bond_atom_site_label_2
_geom_bond_distance
_geom_bond_site_symmetry_2
K0 O47 2.809090 1_555
K0 O41 2.942285 1_555
K0 O12 2.949097 1_555
K0 O3 2.951606 1_565
K0 O35 2.960092 1_555
K0 O21 3.005813 1_555
K0 O26 3.071201 1_555
K0 O7 3.098453 1_565
K0 O8 3.161875 1_555
K0 O7 3.215770 1_555
K1 O46 2.809090 1_555
K1 O40 2.942285 1_555
K1 O13 2.949097 1_555
K1 O2 2.951606 1_545
K1 O34 2.960092 1_555
K1 O20 3.005813 1_555
K1 O27 3.071201 1_555
K1 O6 3.098453 1_545
K1 O9 3.161875 1_555
K1 O6 3.215770 1_555
K2 O45 2.809090 1_555
K2 O43 2.942285 1_555
K2 O14 2.949097 1_455
K2 O1 2.951606 1_565
K2 O33 2.960092 1_555
K2 O23 3.005813 1_555
K2 O24 3.071201 1_455
K2 O5 3.098453 1_565
K2 O10 3.161875 1_455
K2 O5 3.215770 1_555
K3 O44 2.809090 1_555
K3 O42 2.942285 1_555
K3 O15 2.949097 1_655
K3 O0 2.951606 1_545
K3 O32 2.960092 1_555
K3 O22 3.005813 1_555
K3 O25 3.071201 1_655
K3 O4 3.098453 1_545
K3 O11 3.161875 1_655
K3 O4 3.215770 1_555
K4 O31 2.790807 1_555
K4 O3 2.812859 1_555
K4 O16 2.846820 1_555
K4 O36 2.848793 1_545
K4 O12 2.855166 1_555
K4 O32 3.023130 1_555
K4 O44 3.038164 1_555
K4 O51 3.120553 1_555
K4 O40 3.252842 1_555
K5 O30 2.790807 1_555
K5 O2 2.812859 1_555
K5 O17 2.846820 1_555
K5 O37 2.848793 1_565
K5 O13 2.855166 1_555
K5 O33 3.023130 1_555
K5 O45 3.038164 1_555
K5 O50 3.120553 1_555
K5 O41 3.252842 1_554
K6 O29 2.790807 1_655
K6 O1 2.812859 1_655
K6 O18 2.846820 1_555
K6 O38 2.848793 1_545
K6 O14 2.855166 1_555
K6 O34 3.023130 1_555
K6 O46 3.038164 1_555
K6 O49 3.120553 1_655
K6 O42 3.252842 1_554
K7 O28 2.790807 1_455
K7 O0 2.812859 1_455
K7 O19 2.846820 1_555
K7 O39 2.848793 1_565
K7 O15 2.855166 1_555
K7 O35 3.023130 1_555
K7 O47 3.038164 1_555
K7 O48 3.120553 1_455
K7 O43 3.252842 1_555
K8 O31 2.792793 1_565
K8 O51 2.808622 1_555
K8 O27 2.905407 1_565
K8 O9 2.916111 1_555
K8 O16 3.008393 1_555
K8 O6 3.009947 1_555
K8 O23 3.029661 1_555
K8 O33 3.259902 1_555
K9 O30 2.792793 1_546
K9 O50 2.808622 1_556
K9 O26 2.905407 1_545
K9 O8 2.916111 1_555
K9 O17 3.008393 1_556
K9 O7 3.009947 1_555
K9 O22 3.029661 1_555
K9 O32 3.259902 1_555
K10 O29 2.792793 1_566
K10 O49 2.808622 1_556
K10 O25 2.905407 1_565
K10 O11 2.916111 1_555
K10 O18 3.008393 1_456
K10 O4 3.009947 1_455
K10 O21 3.029661 1_555
K10 O35 3.259902 1_555
K11 O28 2.792793 1_545
K11 O48 2.808622 1_555
K11 O24 2.905407 1_545
K11 O10 2.916111 1_555
K11 O19 3.008393 1_655
K11 O5 3.009947 1_655
K11 O20 3.029661 1_555
K11 O34 3.259902 1_555
Mo0 O32 1.740802 1_565
Mo0 O36 1.954607 1_555
Mo0 O8 1.995066 1_555
Mo0 O0 1.998757 1_555
Mo0 O4 2.000306 1_555
Mo0 O12 2.004477 1_555
Mo0 O44 2.358017 1_555
Mo1 O33 1.740802 1_545
Mo1 O37 1.954607 1_555
Mo1 O9 1.995066 1_555
Mo1 O1 1.998757 1_555
Mo1 O5 2.000306 1_555
Mo1 O13 2.004477 1_555
Mo1 O45 2.358017 1_555
Mo2 O34 1.740802 1_565
Mo2 O38 1.954607 1_555
Mo2 O10 1.995066 1_555
Mo2 O2 1.998757 1_555
Mo2 O6 2.000306 1_555
Mo2 O14 2.004477 1_555
Mo2 O46 2.358017 1_555
Mo3 O35 1.740802 1_545
Mo3 O39 1.954607 1_555
Mo3 O11 1.995066 1_555
Mo3 O3 1.998757 1_555
Mo3 O7 2.000306 1_555
Mo3 O15 2.004477 1_555
Mo3 O47 2.358017 1_555
Mo4 O40 1.737828 1_565
Mo4 O36 1.952793 1_555
Mo4 O20 1.992636 1_555
Mo4 O24 1.999246 1_555
Mo4 O16 2.000708 1_555
Mo4 O28 2.005206 1_555
Mo4 O48 2.370591 1_555
Mo5 O41 1.737828 1_544
Mo5 O37 1.952793 1_555
Mo5 O21 1.992636 1_554
Mo5 O25 1.999246 1_554
Mo5 O17 2.000708 1_555
Mo5 O29 2.005206 1_555
Mo5 O49 2.370591 1_555
Mo6 O42 1.737828 1_564
Mo6 O38 1.952793 1_555
Mo6 O22 1.992636 1_554
Mo6 O26 1.999246 1_554
Mo6 O18 2.000708 1_555
Mo6 O30 2.005206 1_555
Mo6 O50 2.370591 1_555
Mo7 O43 1.737828 1_545
Mo7 O39 1.952793 1_555
Mo7 O23 1.992636 1_555
Mo7 O27 1.999246 1_555
Mo7 O19 2.000708 1_555
Mo7 O31 2.005206 1_555
Mo7 O51 2.370591 1_555
C0 H0 1.108138 1_555
C0 O44 1.266603 1_555
C0 O48 1.268599 1_555
C1 H1 1.108138 1_555
C1 O45 1.266603 1_555
C1 O49 1.268599 1_555
C2 H2 1.108138 1_555
C2 O46 1.266603 1_555
C2 O50 1.268599 1_555
C3 H3 1.108138 1_555
C3 O47 1.266603 1_555
C3 O51 1.268599 1_555
O0 O4 1.480858 1_555
O1 O5 1.480858 1_555
O2 O6 1.480858 1_555
O3 O7 1.480858 1_555
O10 O14 1.475493 1_555
O11 O15 1.475493 1_555
O12 O8 1.475493 1_555
O13 O9 1.475493 1_555
O16 O20 1.474466 1_555
O17 O21 1.474466 1_554
O18 O22 1.474466 1_554
O19 O23 1.474466 1_555
O24 O28 1.482135 1_555
O25 O29 1.482135 1_556
O26 O30 1.482135 1_556
O27 O31 1.482135 1_555
