# generated using pymatgen
data_YbNb5Ag2O15
_symmetry_space_group_name_H-M   'P 1'
_cell_length_a   12.67193700
_cell_length_b   12.67193700
_cell_length_c   3.94700500
_cell_angle_alpha   90.00000000
_cell_angle_beta   90.00000000
_cell_angle_gamma   90.00000000
_symmetry_Int_Tables_number   1
_chemical_formula_structural   YbNb5Ag2O15
_chemical_formula_sum   'Yb2 Nb10 Ag4 O30'
_cell_volume   633.80211889
_cell_formula_units_Z   2
loop_
 _symmetry_equiv_pos_site_id
 _symmetry_equiv_pos_as_xyz
  1  'x, y, z'
loop_
 _atom_site_type_symbol
 _atom_site_label
 _atom_site_symmetry_multiplicity
 _atom_site_fract_x
 _atom_site_fract_y
 _atom_site_fract_z
 _atom_site_occupancy
  Yb  Yb0  1  0.00000000  0.00000000  0.50000000  1
  Yb  Yb1  1  0.50000000  0.50000000  0.50000000  1
  Nb  Nb0  1  0.50000000  0.00000000  0.00000000  1
  Nb  Nb1  1  0.00000000  0.50000000  0.00000000  1
  Nb  Nb2  1  0.21058300  0.07888400  0.00000000  1
  Nb  Nb3  1  0.78941700  0.92111600  0.00000000  1
  Nb  Nb4  1  0.07888400  0.78941700  0.00000000  1
  Nb  Nb5  1  0.71058300  0.42111600  0.00000000  1
  Nb  Nb6  1  0.92111600  0.21058300  0.00000000  1
  Nb  Nb7  1  0.28941700  0.57888400  0.00000000  1
  Nb  Nb8  1  0.57888400  0.71058300  0.00000000  1
  Nb  Nb9  1  0.42111600  0.28941700  0.00000000  1
  Ag  Ag0  1  0.67586300  0.17586300  0.50000000  1
  Ag  Ag1  1  0.32413700  0.82413700  0.50000000  1
  Ag  Ag2  1  0.17586300  0.32413700  0.50000000  1
  Ag  Ag3  1  0.82413700  0.67586300  0.50000000  1
  O  O0  1  0.19211000  0.08364800  0.50000000  1
  O  O1  1  0.80789000  0.91635200  0.50000000  1
  O  O2  1  0.08364800  0.80789000  0.50000000  1
  O  O3  1  0.69211000  0.41635200  0.50000000  1
  O  O4  1  0.91635200  0.19211000  0.50000000  1
  O  O5  1  0.30789000  0.58364800  0.50000000  1
  O  O6  1  0.58364800  0.69211000  0.50000000  1
  O  O7  1  0.41635200  0.30789000  0.50000000  1
  O  O8  1  0.22758500  0.72758500  0.00000000  1
  O  O9  1  0.77241500  0.27241500  0.00000000  1
  O  O10  1  0.72758500  0.77241500  0.00000000  1
  O  O11  1  0.27241500  0.22758500  0.00000000  1
  O  O12  1  0.50000000  0.00000000  0.50000000  1
  O  O13  1  0.00000000  0.50000000  0.50000000  1
  O  O14  1  0.05558900  0.13100400  0.00000000  1
  O  O15  1  0.94441100  0.86899600  0.00000000  1
  O  O16  1  0.13100400  0.94441100  0.00000000  1
  O  O17  1  0.55558900  0.36899600  0.00000000  1
  O  O18  1  0.86899600  0.05558900  0.00000000  1
  O  O19  1  0.44441100  0.63100400  0.00000000  1
  O  O20  1  0.63100400  0.55558900  0.00000000  1
  O  O21  1  0.36899600  0.44441100  0.00000000  1
  O  O22  1  0.34091300  0.99910300  0.00000000  1
  O  O23  1  0.65908700  0.00089700  0.00000000  1
  O  O24  1  0.99910300  0.65908700  0.00000000  1
  O  O25  1  0.84091300  0.50089700  0.00000000  1
  O  O26  1  0.00089700  0.34091300  0.00000000  1
  O  O27  1  0.15908700  0.49910300  0.00000000  1
  O  O28  1  0.49910300  0.84091300  0.00000000  1
  O  O29  1  0.50089700  0.15908700  0.00000000  1
loop_
_geom_bond_atom_site_label_1
_geom_bond_atom_site_label_2
_geom_bond_distance
_geom_bond_site_symmetry_2
Nb0 O12 1.973502 1_555
Nb0 O12 1.973502 1_554
Nb0 O28 2.015972 1_545
Nb0 O23 2.015972 1_555
Nb0 O22 2.015972 1_545
Nb0 O29 2.015972 1_555
Nb1 O13 1.973502 1_555
Nb1 O13 1.973502 1_554
Nb1 O26 2.015972 1_555
Nb1 O24 2.015972 1_455
Nb1 O25 2.015972 1_455
Nb1 O27 2.015972 1_555
Nb2 O22 1.936400 1_545
Nb2 O16 1.980061 1_545
Nb2 O0 1.988254 1_555
Nb2 O0 1.988254 1_554
Nb2 O11 2.040740 1_555
Nb2 O14 2.072148 1_555
Nb3 O23 1.936400 1_565
Nb3 O18 1.980061 1_565
Nb3 O1 1.988254 1_554
Nb3 O1 1.988254 1_555
Nb3 O10 2.040740 1_555
Nb3 O15 2.072148 1_555
Nb4 O24 1.936400 1_455
Nb4 O15 1.980061 1_455
Nb4 O2 1.988254 1_554
Nb4 O2 1.988254 1_555
Nb4 O8 2.040740 1_555
Nb4 O16 2.072148 1_555
Nb5 O25 1.936400 1_555
Nb5 O20 1.980061 1_555
Nb5 O3 1.988254 1_554
Nb5 O3 1.988254 1_555
Nb5 O9 2.040740 1_555
Nb5 O17 2.072148 1_555
Nb6 O26 1.936400 1_655
Nb6 O14 1.980061 1_655
Nb6 O4 1.988254 1_554
Nb6 O4 1.988254 1_555
Nb6 O9 2.040740 1_555
Nb6 O18 2.072148 1_555
Nb7 O27 1.936400 1_555
Nb7 O21 1.980061 1_555
Nb7 O5 1.988254 1_555
Nb7 O5 1.988254 1_554
Nb7 O8 2.040740 1_555
Nb7 O19 2.072148 1_555
Nb8 O28 1.936400 1_555
Nb8 O19 1.980061 1_555
Nb8 O6 1.988254 1_555
Nb8 O6 1.988254 1_554
Nb8 O10 2.040740 1_555
Nb8 O20 2.072148 1_555
Nb9 O29 1.936400 1_555
Nb9 O17 1.980061 1_555
Nb9 O7 1.988254 1_555
Nb9 O7 1.988254 1_554
Nb9 O11 2.040740 1_555
Nb9 O21 2.072148 1_555
Ag0 O9 2.624618 1_556
Ag0 O9 2.624618 1_555
Ag1 O8 2.624618 1_555
Ag1 O8 2.624618 1_556
Ag2 O11 2.624618 1_556
Ag2 O11 2.624618 1_555
Ag3 O10 2.624618 1_555
Ag3 O10 2.624618 1_556
O0 Yb0 2.655164 1_555
O1 Yb0 2.655164 1_665
O2 Yb0 2.655164 1_565
O3 Yb1 2.655164 1_555
O4 Yb0 2.655164 1_655
O5 Yb1 2.655164 1_555
O6 Yb1 2.655164 1_555
O7 Yb1 2.655164 1_555
O14 Yb0 2.673344 1_554
O14 Yb0 2.673344 1_555
O15 Yb0 2.673344 1_664
O15 Yb0 2.673344 1_665
O16 Yb0 2.673344 1_564
O16 Yb0 2.673344 1_565
O17 Yb1 2.673344 1_554
O17 Yb1 2.673344 1_555
O18 Yb0 2.673344 1_655
O18 Yb0 2.673344 1_654
O19 Yb1 2.673344 1_554
O19 Yb1 2.673344 1_555
O20 Yb1 2.673344 1_554
O20 Yb1 2.673344 1_555
O21 Yb1 2.673344 1_554
O21 Yb1 2.673344 1_555
