# generated using pymatgen
data_Cs2SrP2O7
_symmetry_space_group_name_H-M   'P 1'
_cell_length_a   6.16241056
_cell_length_b   6.16241056
_cell_length_c   13.76524438
_cell_angle_alpha   76.31786185
_cell_angle_beta   76.31786185
_cell_angle_gamma   59.70330141
_symmetry_Int_Tables_number   1
_chemical_formula_structural   Cs2SrP2O7
_chemical_formula_sum   'Cs4 Sr2 P4 O14'
_cell_volume   434.23696384
_cell_formula_units_Z   2
loop_
 _symmetry_equiv_pos_site_id
 _symmetry_equiv_pos_as_xyz
  1  'x, y, z'
loop_
 _atom_site_type_symbol
 _atom_site_label
 _atom_site_symmetry_multiplicity
 _atom_site_fract_x
 _atom_site_fract_y
 _atom_site_fract_z
 _atom_site_occupancy
  Cs  Cs0  1  0.37049100  0.91289500  0.83574300  1
  Cs  Cs1  1  0.08710500  0.62950900  0.66425700  1
  Cs  Cs2  1  0.62950900  0.08710500  0.16425700  1
  Cs  Cs3  1  0.91289500  0.37049100  0.33574300  1
  Sr  Sr0  1  0.00000000  0.50000000  0.00000000  1
  Sr  Sr1  1  0.50000000  0.00000000  0.50000000  1
  P  P0  1  0.69799600  0.23028400  0.86711000  1
  P  P1  1  0.76971600  0.30200400  0.63289000  1
  P  P2  1  0.30200400  0.76971600  0.13289000  1
  P  P3  1  0.23028400  0.69799600  0.36711000  1
  O  O0  1  0.82587500  0.17412500  0.75000000  1
  O  O1  1  0.17412500  0.82587500  0.25000000  1
  O  O2  1  0.40804400  0.37709000  0.87095500  1
  O  O3  1  0.62291000  0.59195600  0.62904500  1
  O  O4  1  0.59195600  0.62291000  0.12904500  1
  O  O5  1  0.37709000  0.40804400  0.37095500  1
  O  O6  1  0.79807100  0.96054100  0.92477600  1
  O  O7  1  0.03945900  0.20192900  0.57522400  1
  O  O8  1  0.20192900  0.03945900  0.07522400  1
  O  O9  1  0.96054100  0.79807100  0.42477600  1
  O  O10  1  0.38371000  0.80816600  0.39099900  1
  O  O11  1  0.19183400  0.61629000  0.10900100  1
  O  O12  1  0.61629000  0.19183400  0.60900100  1
  O  O13  1  0.80816600  0.38371000  0.89099900  1
loop_
_geom_bond_atom_site_label_1
_geom_bond_atom_site_label_2
_geom_bond_distance
_geom_bond_site_symmetry_2
Cs0 O13 3.067630 1_555
Cs0 O2 3.117004 1_555
Cs0 O2 3.138183 1_565
Cs0 O13 3.264596 1_465
Cs0 O0 3.282101 1_465
Cs0 O6 3.318058 1_555
Cs0 O6 3.333385 1_455
Cs0 O8 3.366495 1_566
Cs0 O3 3.448326 1_555
Cs0 O12 3.583738 1_565
Cs1 O12 3.067630 1_555
Cs1 O3 3.117004 1_555
Cs1 O3 3.138183 1_455
Cs1 O12 3.264596 1_465
Cs1 O0 3.282101 1_465
Cs1 O7 3.318058 1_555
Cs1 O7 3.333385 1_565
Cs1 O9 3.366495 1_455
Cs1 O2 3.448326 1_555
Cs1 O13 3.583738 1_455
Cs2 O11 3.067630 1_555
Cs2 O4 3.117004 1_555
Cs2 O4 3.138183 1_545
Cs2 O11 3.264596 1_645
Cs2 O1 3.282101 1_645
Cs2 O8 3.318058 1_555
Cs2 O8 3.333385 1_655
Cs2 O6 3.366495 1_544
Cs2 O5 3.448326 1_555
Cs2 O10 3.583738 1_545
Cs3 O10 3.067630 1_555
Cs3 O5 3.117004 1_555
Cs3 O5 3.138183 1_655
Cs3 O10 3.264596 1_645
Cs3 O1 3.282101 1_645
Cs3 O9 3.318058 1_555
Cs3 O9 3.333385 1_545
Cs3 O7 3.366495 1_655
Cs3 O4 3.448326 1_555
Cs3 O11 3.583738 1_655
O0 P1 1.651443 1_555
O0 P0 1.651443 1_555
O1 P2 1.651443 1_555
O1 P3 1.651443 1_555
O2 P0 1.536510 1_555
O2 Sr0 2.579489 1_556
O3 P1 1.536510 1_555
O3 Sr1 2.579489 1_565
O4 P2 1.536510 1_555
O4 Sr0 2.579489 1_655
O5 P3 1.536510 1_555
O5 Sr1 2.579489 1_555
O6 P0 1.531868 1_565
O6 Sr0 2.516205 1_656
O7 P1 1.531868 1_455
O7 Sr1 2.516205 1_555
O8 P2 1.531868 1_545
O8 Sr0 2.516205 1_555
O9 P3 1.531868 1_655
O9 Sr1 2.516205 1_565
O10 P3 1.537308 1_555
O10 Sr1 2.522867 1_565
O11 P2 1.537308 1_555
O11 Sr0 2.522867 1_555
O12 P1 1.537308 1_555
O12 Sr1 2.522867 1_555
O13 P0 1.537308 1_555
O13 Sr0 2.522867 1_656
