# generated using pymatgen
data_Ba3B6O11F2
_symmetry_space_group_name_H-M   'P 1'
_cell_length_a   8.55248445
_cell_length_b   6.58800934
_cell_length_c   9.70208121
_cell_angle_alpha   78.81217777
_cell_angle_beta   90.00000000
_cell_angle_gamma   90.00000000
_symmetry_Int_Tables_number   1
_chemical_formula_structural   Ba3B6O11F2
_chemical_formula_sum   'Ba6 B12 O22 F4'
_cell_volume   536.26422551
_cell_formula_units_Z   2
loop_
 _symmetry_equiv_pos_site_id
 _symmetry_equiv_pos_as_xyz
  1  'x, y, z'
loop_
 _atom_site_type_symbol
 _atom_site_label
 _atom_site_symmetry_multiplicity
 _atom_site_fract_x
 _atom_site_fract_y
 _atom_site_fract_z
 _atom_site_occupancy
  Ba  Ba0  1  0.56480234  0.50536708  0.25929162  1
  Ba  Ba1  1  0.06480234  0.49463292  0.74070838  1
  Ba  Ba2  1  0.92007967  0.93738173  0.04184937  1
  Ba  Ba3  1  0.42007967  0.06261827  0.95815063  1
  Ba  Ba4  1  0.91205260  0.06429200  0.46445016  1
  Ba  Ba5  1  0.41205260  0.93570800  0.53554984  1
  B  B0  1  0.93888043  0.57891374  0.36432215  1
  B  B1  1  0.43888043  0.42108626  0.63567785  1
  B  B2  1  0.74598192  0.49487457  0.95218090  1
  B  B3  1  0.24598192  0.50512543  0.04781910  1
  B  B4  1  0.18396854  0.78887988  0.29742571  1
  B  B5  1  0.68396854  0.21112012  0.70257429  1
  B  B6  1  0.71335954  0.58189129  0.56600008  1
  B  B7  1  0.21335954  0.41810871  0.43399992  1
  B  B8  1  0.20617270  0.19082085  0.23349249  1
  B  B9  1  0.70617270  0.80917915  0.76650751  1
  B  B10  1  0.97035672  0.40819449  0.13465679  1
  B  B11  1  0.47035672  0.59180551  0.86534321  1
  O  O0  1  0.04221620  0.21253193  0.19508937  1
  O  O1  1  0.54221620  0.78746807  0.80491063  1
  O  O2  1  0.80439453  0.67659305  0.87615601  1
  O  O3  1  0.30439453  0.32340695  0.12384399  1
  O  O4  1  0.89062326  0.50586191  0.23522602  1
  O  O5  1  0.39062326  0.49413809  0.76477398  1
  O  O6  1  0.27393451  0.61684645  0.34197676  1
  O  O7  1  0.77393451  0.38315355  0.65802324  1
  O  O8  1  0.74379621  0.76138717  0.63136455  1
  O  O9  1  0.24379621  0.23861283  0.36863545  1
  O  O10  1  0.25822346  0.97040351  0.23633289  1
  O  O11  1  0.75822346  0.02959649  0.76366711  1
  O  O12  1  0.04459509  0.44301043  0.45876056  1
  O  O13  1  0.54459509  0.55698957  0.54123944  1
  O  O14  1  0.84605555  0.35922962  0.03407974  1
  O  O15  1  0.34605555  0.64077038  0.96592026  1
  O  O16  1  0.02468972  0.78351591  0.31349554  1
  O  O17  1  0.52468972  0.21648409  0.68650446  1
  O  O18  1  0.79384633  0.62076968  0.43107863  1
  O  O19  1  0.29384633  0.37923032  0.56892137  1
  O  O20  1  0.58994031  0.44659490  0.94848002  1
  O  O21  1  0.08994031  0.55340510  0.05151998  1
  F  F0  1  0.13352672  0.13119564  0.88460785  1
  F  F1  1  0.63352672  0.86880436  0.11539215  1
  F  F2  1  0.62944467  0.14121514  0.38693792  1
  F  F3  1  0.12944467  0.85878486  0.61306208  1
loop_
_geom_bond_atom_site_label_1
_geom_bond_atom_site_label_2
_geom_bond_distance
_geom_bond_site_symmetry_2
Ba0 F2 2.538074 1_555
Ba0 F1 2.594276 1_555
Ba0 O6 2.756797 1_555
Ba0 O18 2.772159 1_555
Ba0 O4 2.796292 1_555
Ba0 O13 2.826551 1_555
Ba0 O3 2.955565 1_555
Ba0 O20 3.121310 1_554
Ba1 F3 2.538074 1_555
Ba1 F0 2.594276 1_555
Ba1 O7 2.756797 1_455
Ba1 O19 2.772159 1_555
Ba1 O5 2.796292 1_555
Ba1 O12 2.826551 1_555
Ba1 O2 2.955565 1_455
Ba1 O21 3.121310 1_556
Ba2 F0 2.556222 1_664
Ba2 F1 2.567928 1_555
Ba2 O2 2.754406 1_554
Ba2 O0 2.762825 1_665
Ba2 O16 2.781601 1_655
Ba2 O14 2.837040 1_565
Ba2 O21 2.902794 1_655
Ba2 O11 2.988868 1_564
Ba2 O4 3.097666 1_555
Ba3 F1 2.556222 1_546
Ba3 F0 2.567928 1_555
Ba3 O3 2.754406 1_556
Ba3 O1 2.762825 1_545
Ba3 O17 2.781601 1_555
Ba3 O15 2.837040 1_545
Ba3 O20 2.902794 1_555
Ba3 O10 2.988868 1_546
Ba3 O5 3.097666 1_555
Ba4 F2 2.552717 1_555
Ba4 F3 2.571223 1_645
Ba4 O8 2.724226 1_545
Ba4 O12 2.731228 1_655
Ba4 O16 2.746970 1_645
Ba4 O0 2.834128 1_655
Ba5 F3 2.552717 1_555
Ba5 F2 2.571223 1_565
Ba5 O9 2.724226 1_565
Ba5 O13 2.731228 1_555
Ba5 O17 2.746970 1_565
Ba5 O1 2.834128 1_555
B0 O18 1.450318 1_555
B0 O12 1.462954 1_655
B0 O4 1.484798 1_555
B0 O16 1.529938 1_655
B1 O19 1.450318 1_555
B1 O13 1.462954 1_555
B1 O5 1.484798 1_555
B1 O17 1.529938 1_555
B2 O2 1.372649 1_555
B2 O14 1.373656 1_556
B2 O20 1.374006 1_555
B3 O3 1.372649 1_555
B3 O15 1.373656 1_554
B3 O21 1.374006 1_555
B4 O6 1.368670 1_555
B4 O16 1.370798 1_555
B4 O10 1.381918 1_555
B5 O7 1.368670 1_555
B5 O17 1.370798 1_555
B5 O11 1.381918 1_555
B6 O18 1.457007 1_555
B6 O8 1.469455 1_555
B6 O13 1.477563 1_555
B6 O7 1.525166 1_555
B7 O19 1.457007 1_555
B7 O9 1.469455 1_555
B7 O12 1.477563 1_555
B7 O6 1.525166 1_555
B8 O9 1.442925 1_555
B8 O0 1.450816 1_555
B8 O3 1.496582 1_555
B8 O10 1.513945 1_545
B9 O8 1.442925 1_555
B9 O1 1.450816 1_555
B9 O2 1.496582 1_555
B9 O11 1.513945 1_565
B10 O4 1.440381 1_555
B10 O0 1.445609 1_655
B10 O14 1.519393 1_555
B10 O21 1.520637 1_655
B11 O5 1.440381 1_555
B11 O1 1.445609 1_555
B11 O15 1.519393 1_555
B11 O20 1.520637 1_555
