# generated using pymatgen
data_BaV2H2Se2O11
_symmetry_space_group_name_H-M   'P 1'
_cell_length_a   5.13864700
_cell_length_b   11.08386300
_cell_length_c   18.27086463
_cell_angle_alpha   88.63304337
_cell_angle_beta   90.00000000
_cell_angle_gamma   90.00000000
_symmetry_Int_Tables_number   1
_chemical_formula_structural   BaV2H2Se2O11
_chemical_formula_sum   'Ba4 V8 H8 Se8 O44'
_cell_volume   1040.34029987
_cell_formula_units_Z   4
loop_
 _symmetry_equiv_pos_site_id
 _symmetry_equiv_pos_as_xyz
  1  'x, y, z'
loop_
 _atom_site_type_symbol
 _atom_site_label
 _atom_site_symmetry_multiplicity
 _atom_site_fract_x
 _atom_site_fract_y
 _atom_site_fract_z
 _atom_site_occupancy
  Ba  Ba0  1  0.71413100  0.67312000  0.54453600  1
  Ba  Ba1  1  0.21413100  0.32688000  0.95546400  1
  Ba  Ba2  1  0.28586900  0.32688000  0.45546400  1
  Ba  Ba3  1  0.78586900  0.67312000  0.04453600  1
  V  V0  1  0.76712300  0.95601400  0.68667600  1
  V  V1  1  0.26712300  0.04398600  0.81332400  1
  V  V2  1  0.23287700  0.04398600  0.31332400  1
  V  V3  1  0.73287700  0.95601400  0.18667600  1
  V  V4  1  0.23557200  0.45233600  0.69167600  1
  V  V5  1  0.73557200  0.54766400  0.80832400  1
  V  V6  1  0.76442800  0.54766400  0.30832400  1
  V  V7  1  0.26442800  0.45233600  0.19167600  1
  H  H0  1  0.55318100  0.93414000  0.44377900  1
  H  H1  1  0.05318100  0.06586000  0.05622100  1
  H  H2  1  0.44681900  0.06586000  0.55622100  1
  H  H3  1  0.94681900  0.93414000  0.94377900  1
  H  H4  1  0.84724400  0.90413900  0.42906200  1
  H  H5  1  0.34724400  0.09586100  0.07093800  1
  H  H6  1  0.15275600  0.09586100  0.57093800  1
  H  H7  1  0.65275600  0.90413900  0.92906200  1
  Se  Se0  1  0.25634100  0.76851400  0.69234700  1
  Se  Se1  1  0.75634100  0.23148600  0.80765300  1
  Se  Se2  1  0.74365900  0.23148600  0.30765300  1
  Se  Se3  1  0.24365900  0.76851400  0.19234700  1
  Se  Se4  1  0.74517500  0.34255000  0.60876000  1
  Se  Se5  1  0.24517500  0.65745000  0.89124000  1
  Se  Se6  1  0.25482500  0.65745000  0.39124000  1
  Se  Se7  1  0.75482500  0.34255000  0.10876000  1
  O  O0  1  0.79849900  0.30809300  0.52053800  1
  O  O1  1  0.29849900  0.69190700  0.97946200  1
  O  O2  1  0.20150100  0.69190700  0.47946200  1
  O  O3  1  0.70150100  0.30809300  0.02053800  1
  O  O4  1  0.17306800  0.30896000  0.71141800  1
  O  O5  1  0.67306800  0.69104000  0.78858200  1
  O  O6  1  0.82693200  0.69104000  0.28858200  1
  O  O7  1  0.32693200  0.30896000  0.21141800  1
  O  O8  1  0.30839900  0.64216200  0.64400300  1
  O  O9  1  0.80839900  0.35783800  0.85599700  1
  O  O10  1  0.69160100  0.35783800  0.35599700  1
  O  O11  1  0.19160100  0.64216200  0.14400300  1
  O  O12  1  0.45405300  0.42438000  0.59666200  1
  O  O13  1  0.95405300  0.57562000  0.90333800  1
  O  O14  1  0.54594700  0.57562000  0.40333800  1
  O  O15  1  0.04594700  0.42438000  0.09666200  1
  O  O16  1  0.55452800  0.46838700  0.73962500  1
  O  O17  1  0.05452800  0.53161300  0.76037500  1
  O  O18  1  0.44547200  0.53161300  0.26037500  1
  O  O19  1  0.94547200  0.46838700  0.23962500  1
  O  O20  1  0.83011800  0.05864800  0.62340500  1
  O  O21  1  0.33011800  0.94135200  0.87659500  1
  O  O22  1  0.16988200  0.94135200  0.37659500  1
  O  O23  1  0.66988200  0.05864800  0.12340500  1
  O  O24  1  0.95716100  0.46880600  0.61710400  1
  O  O25  1  0.45716100  0.53119400  0.88289600  1
  O  O26  1  0.04283900  0.53119400  0.38289600  1
  O  O27  1  0.54283900  0.46880600  0.11710400  1
  O  O28  1  0.48255800  0.86101700  0.64422500  1
  O  O29  1  0.98255800  0.13898300  0.85577500  1
  O  O30  1  0.51744200  0.13898300  0.35577500  1
  O  O31  1  0.01744200  0.86101700  0.14422500  1
  O  O32  1  0.96423500  0.81656600  0.64959100  1
  O  O33  1  0.46423500  0.18343400  0.85040900  1
  O  O34  1  0.03576500  0.18343400  0.35040900  1
  O  O35  1  0.53576500  0.81656600  0.14959100  1
  O  O36  1  0.00675900  0.97140500  0.75669000  1
  O  O37  1  0.50675900  0.02859500  0.74331000  1
  O  O38  1  0.99324100  0.02859500  0.24331000  1
  O  O39  1  0.49324100  0.97140500  0.25669000  1
  O  O40  1  0.69781900  0.88293700  0.46030200  1
  O  O41  1  0.19781900  0.11706300  0.03969800  1
  O  O42  1  0.30218100  0.11706300  0.53969800  1
  O  O43  1  0.80218100  0.88293700  0.96030200  1
loop_
_geom_bond_atom_site_label_1
_geom_bond_atom_site_label_2
_geom_bond_distance
_geom_bond_site_symmetry_2
Ba0 O40 2.759203 1_555
Ba0 O2 2.778003 1_655
Ba0 O8 2.781655 1_555
Ba0 O32 2.830106 1_555
Ba0 O24 2.881437 1_555
Ba0 O2 2.895567 1_555
Ba0 O14 2.950119 1_555
Ba0 O28 3.041686 1_555
Ba0 O12 3.188873 1_555
Ba1 O41 2.759203 1_556
Ba1 O3 2.778003 1_556
Ba1 O9 2.781655 1_455
Ba1 O33 2.830106 1_555
Ba1 O25 2.881437 1_555
Ba1 O3 2.895567 1_456
Ba1 O15 2.950119 1_556
Ba1 O29 3.041686 1_455
Ba1 O13 3.188873 1_455
Ba2 O42 2.759203 1_555
Ba2 O0 2.778003 1_455
Ba2 O10 2.781655 1_555
Ba2 O34 2.830106 1_555
Ba2 O26 2.881437 1_555
Ba2 O0 2.895567 1_555
Ba2 O12 2.950119 1_555
Ba2 O30 3.041686 1_555
Ba2 O14 3.188873 1_555
Ba3 O43 2.759203 1_554
Ba3 O1 2.778003 1_554
Ba3 O11 2.781655 1_655
Ba3 O35 2.830106 1_555
Ba3 O27 2.881437 1_555
Ba3 O1 2.895567 1_654
Ba3 O13 2.950119 1_554
Ba3 O31 3.041686 1_655
Ba3 O15 3.188873 1_655
H0 O40 0.978499 1_555
H1 O41 0.978499 1_555
H2 O42 0.978499 1_555
H3 O43 0.978499 1_555
H4 O40 0.981936 1_555
H5 O41 0.981936 1_555
H6 O42 0.981936 1_555
H7 O43 0.981936 1_555
O0 Se4 1.687753 1_555
O1 Se5 1.687753 1_555
O2 Se6 1.687753 1_555
O3 Se7 1.687753 1_555
O4 V4 1.652679 1_555
O5 V5 1.652679 1_555
O6 V6 1.652679 1_555
O7 V7 1.652679 1_555
O8 Se0 1.694723 1_555
O8 V4 2.288698 1_555
O9 Se1 1.694723 1_555
O9 V5 2.288698 1_555
O10 Se2 1.694723 1_555
O10 V6 2.288698 1_555
O11 Se3 1.694723 1_555
O11 V7 2.288698 1_555
O12 Se4 1.760643 1_555
O12 V4 2.096612 1_555
O13 Se5 1.760643 1_655
O13 V5 2.096612 1_555
O14 Se6 1.760643 1_555
O14 V6 2.096612 1_555
O15 Se7 1.760643 1_455
O15 V7 2.096612 1_555
O16 V5 1.807132 1_555
O16 V4 1.868934 1_555
O17 V4 1.807132 1_555
O17 V5 1.868934 1_455
O18 V7 1.807132 1_555
O18 V6 1.868934 1_555
O19 V6 1.807132 1_555
O19 V7 1.868934 1_655
O20 V0 1.634781 1_545
O21 V1 1.634781 1_565
O22 V2 1.634781 1_565
O23 V3 1.634781 1_545
O24 Se4 1.782799 1_555
O24 V4 1.981067 1_655
O25 Se5 1.782799 1_555
O25 V5 1.981067 1_555
O26 Se6 1.782799 1_555
O26 V6 1.981067 1_455
O27 Se7 1.782799 1_555
O27 V7 1.981067 1_555
O28 Se0 1.769900 1_555
O28 V0 1.971668 1_555
O29 Se1 1.769900 1_555
O29 V1 1.971668 1_655
O30 Se2 1.769900 1_555
O30 V2 1.971668 1_555
O31 Se3 1.769900 1_555
O31 V3 1.971668 1_455
O32 Se0 1.768378 1_655
O32 V0 1.980901 1_555
O33 Se1 1.768378 1_555
O33 V1 1.980901 1_555
O34 Se2 1.768378 1_455
O34 V2 1.980901 1_555
O35 Se3 1.768378 1_555
O35 V3 1.980901 1_555
O36 V0 1.786691 1_455
O36 V1 1.883518 1_565
O37 V1 1.786691 1_555
O37 V0 1.883518 1_545
O38 V2 1.786691 1_655
O38 V3 1.883518 1_545
O39 V3 1.786691 1_555
O39 V2 1.883518 1_565
