# generated using pymatgen
data_Ba2C4O9
_symmetry_space_group_name_H-M   'P 1'
_cell_length_a   6.50431324
_cell_length_b   9.34365286
_cell_length_c   9.18123635
_cell_angle_alpha   66.91657233
_cell_angle_beta   88.18308426
_cell_angle_gamma   81.04642817
_symmetry_Int_Tables_number   1
_chemical_formula_structural   Ba2C4O9
_chemical_formula_sum   'Ba4 C8 O18'
_cell_volume   506.78746673
_cell_formula_units_Z   2
loop_
 _symmetry_equiv_pos_site_id
 _symmetry_equiv_pos_as_xyz
  1  'x, y, z'
loop_
 _atom_site_type_symbol
 _atom_site_label
 _atom_site_symmetry_multiplicity
 _atom_site_fract_x
 _atom_site_fract_y
 _atom_site_fract_z
 _atom_site_occupancy
  Ba  Ba0  1  0.25886200  0.16587700  0.55551100  1
  Ba  Ba1  1  0.74113800  0.83412300  0.44448900  1
  Ba  Ba2  1  0.65423500  0.51246500  0.18712300  1
  Ba  Ba3  1  0.34576500  0.48753500  0.81287700  1
  C  C0  1  0.28548700  0.66943000  0.39787900  1
  C  C1  1  0.71451300  0.33057000  0.60212100  1
  C  C2  1  0.55823800  0.15245800  0.18048700  1
  C  C3  1  0.44176200  0.84754200  0.81951300  1
  C  C4  1  0.15405200  0.58256000  0.32936300  1
  C  C5  1  0.84594800  0.41744000  0.67063700  1
  C  C6  1  0.01510600  0.17695000  0.16770100  1
  C  C7  1  0.98489400  0.82305000  0.83229900  1
  O  O0  1  0.02255900  0.08710700  0.30063700  1
  O  O1  1  0.97744100  0.91289300  0.69936300  1
  O  O2  1  0.25446600  0.47028100  0.29777600  1
  O  O3  1  0.74553400  0.52971900  0.70222400  1
  O  O4  1  0.01507900  0.27544700  0.03942800  1
  O  O5  1  0.98492100  0.72455300  0.96057200  1
  O  O6  1  0.04124800  0.37493300  0.68479000  1
  O  O7  1  0.95875200  0.62506700  0.31521000  1
  O  O8  1  0.52778500  0.32286800  0.64728600  1
  O  O9  1  0.47221500  0.67713200  0.35271400  1
  O  O10  1  0.52394100  0.30318100  0.08501300  1
  O  O11  1  0.47605900  0.69681900  0.91498700  1
  O  O12  1  0.68650500  0.05331900  0.14449800  1
  O  O13  1  0.31349500  0.94668100  0.85550200  1
  O  O14  1  0.46632300  0.10681300  0.31654200  1
  O  O15  1  0.53367700  0.89318700  0.68345800  1
  O  O16  1  0.20175000  0.71972500  0.49892800  1
  O  O17  1  0.79825000  0.28027500  0.50107200  1
loop_
_geom_bond_atom_site_label_1
_geom_bond_atom_site_label_2
_geom_bond_distance
_geom_bond_site_symmetry_2
Ba0 O13 2.705404 1_545
Ba0 O15 2.726806 1_545
Ba0 O14 2.732969 1_555
Ba0 O8 2.789723 1_555
Ba0 O6 2.842312 1_555
Ba0 O2 2.896796 1_555
Ba0 O17 3.007888 1_455
Ba0 O1 3.070483 1_445
Ba0 O0 3.211012 1_555
Ba1 O12 2.705404 1_565
Ba1 O14 2.726806 1_565
Ba1 O15 2.732969 1_555
Ba1 O9 2.789723 1_555
Ba1 O7 2.842312 1_555
Ba1 O3 2.896796 1_555
Ba1 O16 3.007888 1_655
Ba1 O0 3.070483 1_665
Ba1 O1 3.211012 1_555
Ba2 O11 2.596221 1_554
Ba2 O9 2.689504 1_555
Ba2 O10 2.724839 1_555
Ba2 O2 2.790365 1_555
Ba2 O7 2.859990 1_555
Ba2 O17 2.920221 1_555
Ba2 O5 3.269662 1_554
Ba3 O10 2.596221 1_556
Ba3 O8 2.689504 1_555
Ba3 O11 2.724839 1_555
Ba3 O3 2.790365 1_555
Ba3 O6 2.859990 1_555
Ba3 O16 2.920221 1_555
Ba3 O4 3.269662 1_556
C0 O16 1.268220 1_555
C0 O9 1.274402 1_555
C1 O17 1.268220 1_555
C1 O8 1.274402 1_555
C2 O12 1.282677 1_555
C2 O14 1.309180 1_555
C2 O10 1.322143 1_555
C3 O13 1.282677 1_555
C3 O15 1.309180 1_555
C3 O11 1.322143 1_555
C4 O7 1.265397 1_455
C4 O2 1.274583 1_555
C5 O6 1.265397 1_655
C5 O3 1.274583 1_555
C6 O4 1.176451 1_555
C6 O0 1.176596 1_555
C7 O5 1.176451 1_555
C7 O1 1.176596 1_555
