# generated using pymatgen
data_Mg5Se
_symmetry_space_group_name_H-M   'P 1'
_cell_length_a   11.37394125
_cell_length_b   11.37394125
_cell_length_c   15.84152872
_cell_angle_alpha   73.28225831
_cell_angle_beta   73.28225831
_cell_angle_gamma   35.21994160
_symmetry_Int_Tables_number   1
_chemical_formula_structural   Mg5Se
_chemical_formula_sum   'Mg40 Se8'
_cell_volume   1126.79164216
_cell_formula_units_Z   8
loop_
 _symmetry_equiv_pos_site_id
 _symmetry_equiv_pos_as_xyz
  1  'x, y, z'
loop_
 _atom_site_type_symbol
 _atom_site_label
 _atom_site_symmetry_multiplicity
 _atom_site_fract_x
 _atom_site_fract_y
 _atom_site_fract_z
 _atom_site_occupancy
  Mg  Mg0_0  1  0.01193100  0.01193100  0.03029300  1
  Mg  Mg0_1  1  0.01193100  0.01193100  0.53029300  1
  Mg  Mg0_2  1  0.01193100  0.51193100  0.03029300  1
  Mg  Mg0_3  1  0.01193100  0.51193100  0.53029300  1
  Mg  Mg0_4  1  0.51193100  0.01193100  0.03029300  1
  Mg  Mg0_5  1  0.51193100  0.01193100  0.53029300  1
  Mg  Mg0_6  1  0.51193100  0.51193100  0.03029300  1
  Mg  Mg0_7  1  0.51193100  0.51193100  0.53029300  1
  Mg  Mg1_0  1  0.16982250  0.16982250  0.44766500  1
  Mg  Mg1_1  1  0.16982250  0.16982250  0.94766500  1
  Mg  Mg1_2  1  0.16982250  0.66982250  0.44766500  1
  Mg  Mg1_3  1  0.16982250  0.66982250  0.94766500  1
  Mg  Mg1_4  1  0.66982250  0.16982250  0.44766500  1
  Mg  Mg1_5  1  0.66982250  0.16982250  0.94766500  1
  Mg  Mg1_6  1  0.66982250  0.66982250  0.44766500  1
  Mg  Mg1_7  1  0.66982250  0.66982250  0.94766500  1
  Mg  Mg2_0  1  0.32843750  0.32843750  0.35416500  1
  Mg  Mg2_1  1  0.32843750  0.32843750  0.85416500  1
  Mg  Mg2_2  1  0.32843750  0.82843750  0.35416500  1
  Mg  Mg2_3  1  0.32843750  0.82843750  0.85416500  1
  Mg  Mg2_4  1  0.82843750  0.32843750  0.35416500  1
  Mg  Mg2_5  1  0.82843750  0.32843750  0.85416500  1
  Mg  Mg2_6  1  0.82843750  0.82843750  0.35416500  1
  Mg  Mg2_7  1  0.82843750  0.82843750  0.85416500  1
  Mg  Mg3_0  1  0.47506500  0.47506500  0.27280050  1
  Mg  Mg3_1  1  0.47506500  0.47506500  0.77280050  1
  Mg  Mg3_2  1  0.47506500  0.97506500  0.27280050  1
  Mg  Mg3_3  1  0.47506500  0.97506500  0.77280050  1
  Mg  Mg3_4  1  0.97506500  0.47506500  0.27280050  1
  Mg  Mg3_5  1  0.97506500  0.47506500  0.77280050  1
  Mg  Mg3_6  1  0.97506500  0.97506500  0.27280050  1
  Mg  Mg3_7  1  0.97506500  0.97506500  0.77280050  1
  Mg  Mg4_0  1  0.13979400  0.13979400  0.16350600  1
  Mg  Mg4_1  1  0.13979400  0.13979400  0.66350600  1
  Mg  Mg4_2  1  0.13979400  0.63979400  0.16350600  1
  Mg  Mg4_3  1  0.13979400  0.63979400  0.66350600  1
  Mg  Mg4_4  1  0.63979400  0.13979400  0.16350600  1
  Mg  Mg4_5  1  0.63979400  0.13979400  0.66350600  1
  Mg  Mg4_6  1  0.63979400  0.63979400  0.16350600  1
  Mg  Mg4_7  1  0.63979400  0.63979400  0.66350600  1
  Se  Se0_0  1  0.29161650  0.29161650  0.14823700  1
  Se  Se0_1  1  0.29161650  0.29161650  0.64823700  1
  Se  Se0_2  1  0.29161650  0.79161650  0.14823700  1
  Se  Se0_3  1  0.29161650  0.79161650  0.64823700  1
  Se  Se0_4  1  0.79161650  0.29161650  0.14823700  1
  Se  Se0_5  1  0.79161650  0.29161650  0.64823700  1
  Se  Se0_6  1  0.79161650  0.79161650  0.14823700  1
  Se  Se0_7  1  0.79161650  0.79161650  0.64823700  1
loop_
_geom_bond_atom_site_label_1
_geom_bond_atom_site_label_2
_geom_bond_distance
_geom_bond_site_symmetry_2
Mg0_0 Se0_4 2.755227 1_455
Mg0_0 Se0_2 2.755227 1_545
Mg0_0 Mg1_5 3.199959 1_454
Mg0_0 Mg1_3 3.199959 1_544
Mg0_0 Mg2_3 3.224261 1_544
Mg0_0 Mg2_5 3.224261 1_454
Mg0_0 Mg1_1 3.275386 1_554
Mg0_1 Se0_5 2.755227 1_455
Mg0_1 Se0_3 2.755227 1_545
Mg0_1 Mg1_2 3.199959 1_545
Mg0_1 Mg1_4 3.199959 1_455
Mg0_1 Mg2_4 3.224261 1_455
Mg0_1 Mg2_2 3.224261 1_545
Mg0_1 Mg1_0 3.275386 1_555
Mg0_2 Se0_0 2.755227 1_555
Mg0_2 Se0_6 2.755227 1_455
Mg0_2 Mg1_7 3.199959 1_454
Mg0_2 Mg1_1 3.199959 1_554
Mg0_2 Mg2_7 3.224261 1_454
Mg0_2 Mg2_1 3.224261 1_554
Mg0_2 Mg1_3 3.275386 1_554
Mg0_3 Se0_1 2.755227 1_555
Mg0_3 Se0_7 2.755227 1_455
Mg0_3 Mg1_6 3.199959 1_455
Mg0_3 Mg1_0 3.199959 1_555
Mg0_3 Mg2_6 3.224261 1_455
Mg0_3 Mg2_0 3.224261 1_555
Mg0_3 Mg1_2 3.275386 1_555
Mg0_4 Se0_0 2.755227 1_555
Mg0_4 Se0_6 2.755227 1_545
Mg0_4 Mg1_7 3.199959 1_544
Mg0_4 Mg1_1 3.199959 1_554
Mg0_4 Mg2_1 3.224261 1_554
Mg0_4 Mg2_7 3.224261 1_544
Mg0_4 Mg1_5 3.275386 1_554
Mg0_5 Se0_1 2.755227 1_555
Mg0_5 Se0_7 2.755227 1_545
Mg0_5 Mg1_6 3.199959 1_545
Mg0_5 Mg1_0 3.199959 1_555
Mg0_5 Mg2_0 3.224261 1_555
Mg0_5 Mg2_6 3.224261 1_545
Mg0_5 Mg1_4 3.275386 1_555
Mg0_6 Se0_2 2.755227 1_555
Mg0_6 Se0_4 2.755227 1_555
Mg0_6 Mg1_3 3.199959 1_554
Mg0_6 Mg1_5 3.199959 1_554
Mg0_6 Mg2_5 3.224261 1_554
Mg0_6 Mg2_3 3.224261 1_554
Mg0_6 Mg1_7 3.275386 1_554
Mg0_7 Se0_3 2.755227 1_555
Mg0_7 Se0_5 2.755227 1_555
Mg0_7 Mg1_2 3.199959 1_555
Mg0_7 Mg1_4 3.199959 1_555
Mg0_7 Mg2_4 3.224261 1_555
Mg0_7 Mg2_2 3.224261 1_555
Mg0_7 Mg1_6 3.275386 1_555
Mg1_0 Mg3_2 3.172641 1_545
Mg1_0 Mg3_4 3.172641 1_455
Mg1_0 Mg4_1 3.281989 1_555
Mg1_0 Mg2_2 3.294155 1_545
Mg1_0 Mg2_4 3.294155 1_455
Mg1_0 Mg2_0 3.308539 1_555
Mg1_0 Mg1_6 3.441024 1_455
Mg1_0 Mg1_6 3.441024 1_545
Mg1_1 Mg3_5 3.172641 1_455
Mg1_1 Mg3_3 3.172641 1_545
Mg1_1 Mg4_0 3.281989 1_556
Mg1_1 Mg2_5 3.294155 1_455
Mg1_1 Mg2_3 3.294155 1_545
Mg1_1 Mg2_1 3.308539 1_555
Mg1_1 Mg1_7 3.441024 1_455
Mg1_1 Mg1_7 3.441024 1_545
Mg1_2 Mg3_6 3.172641 1_455
Mg1_2 Mg3_0 3.172641 1_555
Mg1_2 Mg4_3 3.281989 1_555
Mg1_2 Mg2_6 3.294155 1_455
Mg1_2 Mg2_0 3.294155 1_555
Mg1_2 Mg2_2 3.308539 1_555
Mg1_2 Mg1_4 3.441024 1_465
Mg1_2 Mg1_4 3.441024 1_555
Mg1_3 Mg3_7 3.172641 1_455
Mg1_3 Mg3_1 3.172641 1_555
Mg1_3 Mg4_2 3.281989 1_556
Mg1_3 Mg2_7 3.294155 1_455
Mg1_3 Mg2_1 3.294155 1_555
Mg1_3 Mg2_3 3.308539 1_555
Mg1_3 Mg1_5 3.441024 1_465
Mg1_3 Mg1_5 3.441024 1_555
Mg1_4 Mg3_6 3.172641 1_545
Mg1_4 Mg3_0 3.172641 1_555
Mg1_4 Mg4_5 3.281989 1_555
Mg1_4 Mg2_6 3.294155 1_545
Mg1_4 Mg2_0 3.294155 1_555
Mg1_4 Mg2_4 3.308539 1_555
Mg1_5 Mg3_7 3.172641 1_545
Mg1_5 Mg3_1 3.172641 1_555
Mg1_5 Mg4_4 3.281989 1_556
Mg1_5 Mg2_1 3.294155 1_555
Mg1_5 Mg2_7 3.294155 1_545
Mg1_5 Mg2_5 3.308539 1_555
Mg1_6 Mg3_2 3.172641 1_555
Mg1_6 Mg3_4 3.172641 1_555
Mg1_6 Mg4_7 3.281989 1_555
Mg1_6 Mg2_2 3.294155 1_555
Mg1_6 Mg2_4 3.294155 1_555
Mg1_6 Mg2_6 3.308539 1_555
Mg1_7 Mg3_3 3.172641 1_555
Mg1_7 Mg3_5 3.172641 1_555
Mg1_7 Mg4_6 3.281989 1_556
Mg1_7 Mg2_3 3.294155 1_555
Mg1_7 Mg2_5 3.294155 1_555
Mg1_7 Mg2_7 3.308539 1_555
Mg2_0 Mg3_0 3.048773 1_555
Mg2_0 Mg3_2 3.374720 1_545
Mg2_0 Mg3_4 3.374720 1_455
Mg2_0 Mg4_4 3.380391 1_555
Mg2_0 Mg4_2 3.380391 1_555
Mg2_0 Mg2_6 3.441024 1_545
Mg2_0 Mg2_6 3.441024 1_455
Mg2_1 Mg3_1 3.048773 1_555
Mg2_1 Mg3_3 3.374720 1_545
Mg2_1 Mg3_5 3.374720 1_455
Mg2_1 Mg4_5 3.380391 1_555
Mg2_1 Mg4_3 3.380391 1_555
Mg2_1 Mg2_7 3.441024 1_455
Mg2_1 Mg2_7 3.441024 1_545
Mg2_2 Mg3_2 3.048773 1_555
Mg2_2 Mg3_6 3.374720 1_455
Mg2_2 Mg3_0 3.374720 1_555
Mg2_2 Mg4_0 3.380391 1_565
Mg2_2 Mg4_6 3.380391 1_555
Mg2_2 Mg2_4 3.441024 1_555
Mg2_2 Mg2_4 3.441024 1_465
Mg2_3 Mg3_3 3.048773 1_555
Mg2_3 Mg3_7 3.374720 1_455
Mg2_3 Mg3_1 3.374720 1_555
Mg2_3 Mg4_7 3.380391 1_555
Mg2_3 Mg4_1 3.380391 1_565
Mg2_3 Mg2_5 3.441024 1_555
Mg2_3 Mg2_5 3.441024 1_465
Mg2_4 Mg3_4 3.048773 1_555
Mg2_4 Mg3_6 3.374720 1_545
Mg2_4 Mg3_0 3.374720 1_555
Mg2_4 Mg4_6 3.380391 1_555
Mg2_4 Mg4_0 3.380391 1_655
Mg2_5 Mg3_5 3.048773 1_555
Mg2_5 Mg3_1 3.374720 1_555
Mg2_5 Mg3_7 3.374720 1_545
Mg2_5 Mg4_1 3.380391 1_655
Mg2_5 Mg4_7 3.380391 1_555
Mg2_6 Mg3_6 3.048773 1_555
Mg2_6 Mg3_4 3.374720 1_555
Mg2_6 Mg3_2 3.374720 1_555
Mg2_6 Mg4_2 3.380391 1_655
Mg2_6 Mg4_4 3.380391 1_565
Mg2_7 Mg3_7 3.048773 1_555
Mg2_7 Mg3_5 3.374720 1_555
Mg2_7 Mg3_3 3.374720 1_555
Mg2_7 Mg4_3 3.380391 1_655
Mg2_7 Mg4_5 3.380391 1_565
Mg3_0 Se0_2 2.686531 1_555
Mg3_0 Se0_4 2.686531 1_555
Mg3_1 Se0_5 2.686531 1_555
Mg3_1 Se0_3 2.686531 1_555
Mg3_2 Se0_0 2.686531 1_565
Mg3_2 Se0_6 2.686531 1_555
Mg3_3 Se0_1 2.686531 1_565
Mg3_3 Se0_7 2.686531 1_555
Mg3_4 Se0_0 2.686531 1_655
Mg3_4 Se0_6 2.686531 1_555
Mg3_5 Se0_1 2.686531 1_655
Mg3_5 Se0_7 2.686531 1_555
Mg3_6 Se0_4 2.686531 1_565
Mg3_6 Se0_2 2.686531 1_655
Mg3_7 Se0_3 2.686531 1_655
Mg3_7 Se0_5 2.686531 1_565
Mg4_0 Se0_4 2.803695 1_455
Mg4_0 Se0_2 2.803695 1_545
Mg4_1 Se0_3 2.803695 1_545
Mg4_1 Se0_5 2.803695 1_455
Mg4_2 Se0_6 2.803695 1_455
Mg4_2 Se0_0 2.803695 1_555
Mg4_3 Se0_7 2.803695 1_455
Mg4_3 Se0_1 2.803695 1_555
Mg4_4 Se0_6 2.803695 1_545
Mg4_4 Se0_0 2.803695 1_555
Mg4_5 Se0_7 2.803695 1_545
Mg4_5 Se0_1 2.803695 1_555
Mg4_6 Se0_4 2.803695 1_555
Mg4_6 Se0_2 2.803695 1_555
Mg4_7 Se0_3 2.803695 1_555
Mg4_7 Se0_5 2.803695 1_555
