# generated using pymatgen
data_Rb(CoAs)2
_symmetry_space_group_name_H-M   'P 1'
_cell_length_a   7.62063675
_cell_length_b   7.62063675
_cell_length_c   7.62063675
_cell_angle_alpha   151.46276912
_cell_angle_beta   151.46276912
_cell_angle_gamma   40.79836184
_symmetry_Int_Tables_number   1
_chemical_formula_structural   Rb(CoAs)2
_chemical_formula_sum   'Rb1 Co2 As2'
_cell_volume   100.79246918
_cell_formula_units_Z   1
loop_
 _symmetry_equiv_pos_site_id
 _symmetry_equiv_pos_as_xyz
  1  'x, y, z'
loop_
 _atom_site_type_symbol
 _atom_site_label
 _atom_site_symmetry_multiplicity
 _atom_site_fract_x
 _atom_site_fract_y
 _atom_site_fract_z
 _atom_site_occupancy
  Rb  Rb0  1  0.00000000  0.00000000  -0.00000000  1
  Co  Co0  1  0.75000000  0.25000000  0.50000000  1
  Co  Co1  1  0.25000000  0.75000000  0.50000000  1
  As  As0  1  0.34151948  0.34151948  -0.00000000  1
  As  As1  1  0.65848052  0.65848052  0.00000000  1
loop_
_geom_bond_atom_site_label_1
_geom_bond_atom_site_label_2
_geom_bond_distance
_geom_bond_site_symmetry_2
As0 Co0 2.288469 1_454
As0 Co1 2.288469 1_544
As0 Co0 2.288469 1_555
As0 Co1 2.288469 1_555
As0 Rb0 3.490149 1_655
As0 Rb0 3.490149 1_666
As0 Rb0 3.490149 1_554
As0 Rb0 3.490149 1_565
As1 Co0 2.288469 1_565
As1 Co1 2.288469 1_655
As1 Co1 2.288469 1_554
As1 Co0 2.288469 1_554
As1 Rb0 3.490149 1_565
As1 Rb0 3.490149 1_554
As1 Rb0 3.490149 1_666
As1 Rb0 3.490149 1_655
