# generated using pymatgen
data_KYbBr3
_symmetry_space_group_name_H-M   'P 1'
_cell_length_a   7.69781500
_cell_length_b   8.04372100
_cell_length_c   11.09011900
_cell_angle_alpha   90.00000000
_cell_angle_beta   90.00000000
_cell_angle_gamma   90.00000000
_symmetry_Int_Tables_number   1
_chemical_formula_structural   KYbBr3
_chemical_formula_sum   'K4 Yb4 Br12'
_cell_volume   686.68992309
_cell_formula_units_Z   4
loop_
 _symmetry_equiv_pos_site_id
 _symmetry_equiv_pos_as_xyz
  1  'x, y, z'
loop_
 _atom_site_type_symbol
 _atom_site_label
 _atom_site_symmetry_multiplicity
 _atom_site_fract_x
 _atom_site_fract_y
 _atom_site_fract_z
 _atom_site_occupancy
  K  K0  1  0.01662900  0.43605400  0.25000000  1
  K  K1  1  0.98337100  0.56394600  0.75000000  1
  K  K2  1  0.51662900  0.06394600  0.75000000  1
  K  K3  1  0.48337100  0.93605400  0.25000000  1
  Yb  Yb0  1  0.00000000  0.00000000  0.00000000  1
  Yb  Yb1  1  0.50000000  0.50000000  0.00000000  1
  Yb  Yb2  1  0.00000000  0.00000000  0.50000000  1
  Yb  Yb3  1  0.50000000  0.50000000  0.50000000  1
  Br  Br0  1  0.30460400  0.19929600  0.05061700  1
  Br  Br1  1  0.69539600  0.80070400  0.94938300  1
  Br  Br2  1  0.80460400  0.30070400  0.94938300  1
  Br  Br3  1  0.69539600  0.80070400  0.55061700  1
  Br  Br4  1  0.19539600  0.69929600  0.05061700  1
  Br  Br5  1  0.30460400  0.19929600  0.44938300  1
  Br  Br6  1  0.19539600  0.69929600  0.44938300  1
  Br  Br7  1  0.80460400  0.30070400  0.55061700  1
  Br  Br8  1  0.59950900  0.53241200  0.25000000  1
  Br  Br9  1  0.40049100  0.46758800  0.75000000  1
  Br  Br10  1  0.09950900  0.96758800  0.75000000  1
  Br  Br11  1  0.90049100  0.03241200  0.25000000  1
loop_
_geom_bond_atom_site_label_1
_geom_bond_atom_site_label_2
_geom_bond_distance
_geom_bond_site_symmetry_2
Br0 Yb0 2.895341 1_555
Br0 Yb1 2.903100 1_555
Br0 K3 3.356574 1_545
Br0 K0 3.664727 1_555
Br0 K2 3.868320 1_554
Br1 Yb0 2.895341 1_666
Br1 Yb1 2.903100 1_556
Br1 K2 3.356574 1_565
Br1 K1 3.664727 1_555
Br1 K3 3.868320 1_556
Br2 Yb1 2.895341 1_556
Br2 Yb0 2.903100 1_656
Br2 K1 3.356574 1_555
Br2 K2 3.664727 1_555
Br2 K0 3.868320 1_656
Br3 Yb2 2.895341 1_665
Br3 Yb3 2.903100 1_555
Br3 K2 3.356574 1_565
Br3 K1 3.664727 1_555
Br3 K3 3.868320 1_555
Br4 Yb1 2.895341 1_555
Br4 Yb0 2.903100 1_565
Br4 K0 3.356574 1_555
Br4 K3 3.664727 1_555
Br4 K1 3.868320 1_454
Br5 Yb2 2.895341 1_555
Br5 Yb3 2.903100 1_555
Br5 K3 3.356574 1_545
Br5 K0 3.664727 1_555
Br5 K2 3.868320 1_555
Br6 Yb3 2.895341 1_555
Br6 Yb2 2.903100 1_565
Br6 K0 3.356574 1_555
Br6 K3 3.664727 1_555
Br6 K1 3.868320 1_455
Br7 Yb3 2.895341 1_555
Br7 Yb2 2.903100 1_655
Br7 K1 3.356574 1_555
Br7 K2 3.664727 1_555
Br7 K0 3.868320 1_655
Br8 Yb1 2.888192 1_555
Br8 Yb3 2.888192 1_555
Br8 K0 3.303135 1_655
Br8 K3 3.367619 1_555
Br9 Yb1 2.888192 1_556
Br9 Yb3 2.888192 1_555
Br9 K1 3.303135 1_455
Br9 K2 3.367619 1_555
Br10 Yb2 2.888192 1_565
Br10 Yb0 2.888192 1_566
Br10 K2 3.303135 1_565
Br10 K1 3.367619 1_455
Br11 Yb2 2.888192 1_655
Br11 Yb0 2.888192 1_655
Br11 K3 3.303135 1_545
Br11 K0 3.367619 1_655
