# generated using pymatgen
data_Dy4In20Ni11
_symmetry_space_group_name_H-M   'P 1'
_cell_length_a   11.33117600
_cell_length_b   11.33117600
_cell_length_c   16.44199583
_cell_angle_alpha   56.35805893
_cell_angle_beta   56.35805893
_cell_angle_gamma   21.76531744
_symmetry_Int_Tables_number   1
_chemical_formula_structural   Dy4In20Ni11
_chemical_formula_sum   'Dy4 In20 Ni11'
_cell_volume   646.33820183
_cell_formula_units_Z   1
loop_
 _symmetry_equiv_pos_site_id
 _symmetry_equiv_pos_as_xyz
  1  'x, y, z'
loop_
 _atom_site_type_symbol
 _atom_site_label
 _atom_site_symmetry_multiplicity
 _atom_site_fract_x
 _atom_site_fract_y
 _atom_site_fract_z
 _atom_site_occupancy
  Dy  Dy0  1  0.22911100  0.22911100  0.17373600  1
  Dy  Dy1  1  0.77088900  0.77088900  0.82626400  1
  Dy  Dy2  1  0.88078300  0.88078300  0.33068600  1
  Dy  Dy3  1  0.11921700  0.11921700  0.66931400  1
  In  In0  1  0.61181200  0.61181200  0.30852400  1
  In  In1  1  0.38818800  0.38818800  0.69147600  1
  In  In2  1  0.79793800  0.79793800  0.00247000  1
  In  In3  1  0.20206200  0.20206200  0.99753000  1
  In  In4  1  0.88432200  0.88432200  0.55171100  1
  In  In5  1  0.11567800  0.11567800  0.44828900  1
  In  In6  1  0.45895500  0.45895500  0.37736400  1
  In  In7  1  0.54104500  0.54104500  0.62263600  1
  In  In8  1  0.93670500  0.93670500  0.79020500  1
  In  In9  1  0.06329500  0.06329500  0.20979500  1
  In  In10  1  0.70285400  0.70285400  0.49786700  1
  In  In11  1  0.29714600  0.29714600  0.50213200  1
  In  In12  1  0.37173800  0.37173800  0.19550800  1
  In  In13  1  0.62826200  0.62826200  0.80449200  1
  In  In14  1  0.98950200  0.98950200  0.09492300  1
  In  In15  1  0.01049800  0.01049800  0.90507700  1
  In  In16  1  0.60149400  0.60149400  0.00898200  1
  In  In17  1  0.39850600  0.39850600  0.99101800  1
  In  In18  1  0.75282400  0.75282400  0.29108900  1
  In  In19  1  0.24717600  0.24717600  0.70891100  1
  Ni  Ni0  1  0.86329600  0.86329600  0.10268200  1
  Ni  Ni1  1  0.13670400  0.13670400  0.89731800  1
  Ni  Ni2  1  0.74557300  0.74557300  0.61772200  1
  Ni  Ni3  1  0.25442700  0.25442700  0.38227800  1
  Ni  Ni4  1  0.49291800  0.49291800  0.19523400  1
  Ni  Ni5  1  0.50708200  0.50708200  0.80476600  1
  Ni  Ni6  1  0.65269100  0.65269100  0.12148000  1
  Ni  Ni7  1  0.34730900  0.34730900  0.87852000  1
  Ni  Ni8  1  0.50000000  0.50000000  0.50000000  1
  Ni  Ni9  1  0.97741000  0.97741000  0.60001200  1
  Ni  Ni10  1  0.02259000  0.02259000  0.39998800  1
loop_
_geom_bond_atom_site_label_1
_geom_bond_atom_site_label_2
_geom_bond_distance
_geom_bond_site_symmetry_2
Dy0 In18 3.118824 1_455
Dy0 In18 3.118824 1_545
Dy0 In0 3.126523 1_455
Dy0 In0 3.126523 1_545
Dy0 Ni6 3.139421 1_455
Dy0 Ni6 3.139421 1_545
Dy0 In2 3.160028 1_455
Dy0 In2 3.160028 1_545
Dy0 In17 3.233994 1_554
Dy0 In3 3.274717 1_554
Dy0 Ni0 3.304979 1_455
Dy0 Ni0 3.304979 1_545
Dy0 In12 3.388998 1_555
Dy0 In9 3.391246 1_555
Dy0 In5 3.727326 1_555
Dy1 In19 3.118824 1_655
Dy1 In19 3.118824 1_565
Dy1 In1 3.126523 1_565
Dy1 In1 3.126523 1_655
Dy1 Ni7 3.139421 1_565
Dy1 Ni7 3.139421 1_655
Dy1 In3 3.160028 1_655
Dy1 In3 3.160028 1_565
Dy1 In16 3.233994 1_556
Dy1 In2 3.274717 1_556
Dy1 Ni1 3.304979 1_655
Dy1 Ni1 3.304979 1_565
Dy1 In13 3.388998 1_555
Dy1 In8 3.391246 1_555
Dy1 In4 3.727326 1_555
Dy2 Ni4 3.081149 1_655
Dy2 Ni4 3.081149 1_565
Dy2 In6 3.114273 1_655
Dy2 In6 3.114273 1_565
Dy2 In12 3.172046 1_655
Dy2 In12 3.172046 1_565
Dy2 In11 3.172913 1_655
Dy2 In11 3.172913 1_565
Dy2 In14 3.209101 1_555
Dy2 Ni3 3.242267 1_565
Dy2 Ni3 3.242267 1_655
Dy2 In18 3.259622 1_555
Dy2 In10 3.309779 1_555
Dy2 In9 3.367424 1_665
Dy2 In4 3.679099 1_555
Dy3 Ni5 3.081149 1_455
Dy3 Ni5 3.081149 1_545
Dy3 In7 3.114273 1_455
Dy3 In7 3.114273 1_545
Dy3 In13 3.172046 1_545
Dy3 In13 3.172046 1_455
Dy3 In10 3.172922 1_545
Dy3 In10 3.172922 1_455
Dy3 In15 3.209101 1_555
Dy3 Ni2 3.242267 1_455
Dy3 Ni2 3.242267 1_545
Dy3 In19 3.259622 1_555
Dy3 In11 3.309782 1_555
Dy3 In8 3.367424 1_445
Dy3 In5 3.679099 1_555
In0 Ni6 2.669984 1_555
In0 Ni8 2.695249 1_555
In0 Ni10 2.722445 1_655
In0 Ni10 2.722445 1_565
In0 In6 2.917020 1_555
In0 In18 2.985867 1_555
In0 In5 3.176159 1_655
In0 In5 3.176159 1_565
In0 In9 3.217945 1_565
In0 In9 3.217945 1_655
In1 Ni7 2.669984 1_555
In1 Ni8 2.695249 1_555
In1 Ni9 2.722445 1_455
In1 Ni9 2.722445 1_545
In1 In7 2.917020 1_555
In1 In19 2.985867 1_555
In1 In4 3.176159 1_545
In1 In4 3.176159 1_455
In1 In8 3.217945 1_545
In1 In8 3.217945 1_455
In2 Ni6 2.672266 1_555
In2 Ni7 2.722269 1_564
In2 Ni7 2.722269 1_654
In2 Ni0 2.744922 1_555
In2 In3 3.054741 1_654
In2 In3 3.054741 1_564
In2 In8 3.091410 1_554
In3 Ni7 2.672266 1_555
In3 Ni6 2.722269 1_546
In3 Ni6 2.722269 1_456
In3 Ni1 2.744922 1_555
In3 In9 3.091410 1_556
In4 Ni9 2.603604 1_555
In4 Ni2 2.632744 1_555
In4 Ni10 2.651560 1_665
In4 Ni8 3.075283 1_565
In4 Ni8 3.075283 1_655
In4 In6 3.190722 1_565
In4 In6 3.190722 1_655
In5 Ni10 2.603604 1_555
In5 Ni3 2.632744 1_555
In5 Ni9 2.651560 1_445
In5 Ni8 3.075283 1_455
In5 Ni8 3.075283 1_545
In5 In7 3.190722 1_455
In5 In7 3.190722 1_545
In6 Ni8 2.641654 1_555
In6 Ni4 2.642915 1_555
In6 Ni10 2.704618 1_565
In6 Ni10 2.704618 1_655
In6 In9 3.215759 1_655
In6 In9 3.215759 1_565
In7 Ni8 2.641654 1_555
In7 Ni5 2.642915 1_555
In7 Ni9 2.704618 1_455
In7 Ni9 2.704618 1_545
In7 In8 3.215759 1_455
In7 In8 3.215759 1_545
In8 Ni7 2.717298 1_565
In8 Ni7 2.717298 1_655
In8 Ni9 2.720927 1_555
In8 Ni5 2.740454 1_565
In8 Ni5 2.740454 1_655
In9 Ni6 2.717298 1_455
In9 Ni6 2.717298 1_545
In9 Ni10 2.720927 1_555
In9 Ni4 2.740454 1_545
In9 Ni4 2.740454 1_455
In10 Ni2 2.627010 1_555
In10 Ni3 2.654195 1_655
In10 Ni3 2.654195 1_565
In10 In18 2.920566 1_555
In10 In7 2.973342 1_555
In10 In11 3.025073 1_565
In10 In11 3.025073 1_655
In10 In5 3.284725 1_565
In10 In5 3.284725 1_655
In11 Ni3 2.626995 1_555
In11 Ni2 2.654202 1_455
In11 Ni2 2.654202 1_545
In11 In19 2.920582 1_555
In11 In6 2.973342 1_555
In11 In4 3.284734 1_455
In11 In4 3.284734 1_545
In12 Ni3 2.683355 1_555
In12 Ni4 2.694296 1_555
In12 Ni0 2.695344 1_545
In12 Ni0 2.695344 1_455
In12 In14 3.047948 1_545
In12 In14 3.047948 1_455
In12 In18 3.058976 1_455
In12 In18 3.058976 1_545
In12 In17 3.065866 1_554
In13 Ni2 2.683355 1_555
In13 Ni5 2.694296 1_555
In13 Ni1 2.695344 1_655
In13 Ni1 2.695344 1_565
In13 In15 3.047948 1_655
In13 In15 3.047948 1_565
In13 In19 3.058976 1_565
In13 In19 3.058976 1_655
In13 In16 3.065866 1_556
In14 Ni4 2.728390 1_655
In14 Ni4 2.728390 1_565
In14 Ni0 2.738744 1_555
In14 In15 2.883767 1_664
In14 In16 2.968423 1_565
In14 In16 2.968423 1_655
In14 Ni1 3.046119 1_664
In14 In9 3.124732 1_665
In15 Ni5 2.728390 1_545
In15 Ni5 2.728390 1_455
In15 Ni1 2.738744 1_555
In15 In17 2.968423 1_545
In15 In17 2.968423 1_455
In15 Ni0 3.046119 1_446
In15 In8 3.124732 1_445
In16 Ni4 2.620627 1_555
In16 Ni1 2.634053 1_564
In16 Ni1 2.634053 1_654
In16 Ni6 2.664098 1_555
In16 In3 3.024198 1_654
In16 In3 3.024198 1_564
In17 Ni5 2.620627 1_555
In17 Ni0 2.634053 1_456
In17 Ni0 2.634053 1_546
In17 Ni7 2.664098 1_555
In17 In2 3.024198 1_546
In17 In2 3.024198 1_456
In18 Ni3 2.624165 1_655
In18 Ni3 2.624165 1_565
In18 Ni0 2.654726 1_555
In18 In5 3.416420 1_655
In18 In5 3.416420 1_565
In19 Ni2 2.624165 1_455
In19 Ni2 2.624165 1_545
In19 Ni1 2.654726 1_555
In19 In4 3.416420 1_455
In19 In4 3.416420 1_545
Ni4 Ni6 3.041149 1_555
Ni5 Ni7 3.041149 1_555
Ni8 Ni9 2.569174 1_545
Ni8 Ni9 2.569174 1_455
Ni10 Ni8 2.569174 1_455
Ni10 Ni8 2.569174 1_545
Ni10 Ni9 2.845366 1_445
