# generated using pymatgen
data_ZnAgBiO5
_symmetry_space_group_name_H-M   'P 1'
_cell_length_a   5.33596000
_cell_length_b   10.32952500
_cell_length_c   15.44322800
_cell_angle_alpha   90.00000000
_cell_angle_beta   90.00000000
_cell_angle_gamma   90.00000000
_symmetry_Int_Tables_number   1
_chemical_formula_structural   ZnAgBiO5
_chemical_formula_sum   'Zn8 Ag8 Bi8 O40'
_cell_volume   851.19879415
_cell_formula_units_Z   8
loop_
 _symmetry_equiv_pos_site_id
 _symmetry_equiv_pos_as_xyz
  1  'x, y, z'
loop_
 _atom_site_type_symbol
 _atom_site_label
 _atom_site_symmetry_multiplicity
 _atom_site_fract_x
 _atom_site_fract_y
 _atom_site_fract_z
 _atom_site_occupancy
  Zn  Zn0  1  0.54998200  0.37127100  0.55914700  1
  Zn  Zn1  1  0.04998200  0.12872900  0.55914700  1
  Zn  Zn2  1  0.04998200  0.62872900  0.94085300  1
  Zn  Zn3  1  0.95001800  0.37127100  0.05914700  1
  Zn  Zn4  1  0.45001800  0.12872900  0.05914700  1
  Zn  Zn5  1  0.95001800  0.87127100  0.44085300  1
  Zn  Zn6  1  0.45001800  0.62872900  0.44085300  1
  Zn  Zn7  1  0.54998200  0.87127100  0.94085300  1
  Ag  Ag0  1  0.02944100  0.38498700  0.41949700  1
  Ag  Ag1  1  0.47055900  0.88498700  0.58050300  1
  Ag  Ag2  1  0.97055900  0.61501300  0.58050300  1
  Ag  Ag3  1  0.52944100  0.11501300  0.41949700  1
  Ag  Ag4  1  0.97055900  0.11501300  0.91949700  1
  Ag  Ag5  1  0.02944100  0.88498700  0.08050300  1
  Ag  Ag6  1  0.47055900  0.38498700  0.91949700  1
  Ag  Ag7  1  0.52944100  0.61501300  0.08050300  1
  Bi  Bi0  1  0.03881600  0.85559800  0.75466500  1
  Bi  Bi1  1  0.96118400  0.14440200  0.24533500  1
  Bi  Bi2  1  0.46118400  0.35559800  0.24533500  1
  Bi  Bi3  1  0.96118400  0.64440200  0.25466500  1
  Bi  Bi4  1  0.53881600  0.14440200  0.74533500  1
  Bi  Bi5  1  0.53881600  0.64440200  0.75466500  1
  Bi  Bi6  1  0.46118400  0.85559800  0.25466500  1
  Bi  Bi7  1  0.03881600  0.35559800  0.74533500  1
  O  O0  1  0.78730100  0.30090400  0.32807100  1
  O  O1  1  0.26950400  0.97557200  0.99534500  1
  O  O2  1  0.23049600  0.47557200  0.00465500  1
  O  O3  1  0.37658700  0.80968200  0.82739200  1
  O  O4  1  0.12341300  0.30968200  0.17260800  1
  O  O5  1  0.78730100  0.80090400  0.17192900  1
  O  O6  1  0.12341300  0.80968200  0.32739200  1
  O  O7  1  0.71269900  0.80090400  0.67192900  1
  O  O8  1  0.26950400  0.47557200  0.50465500  1
  O  O9  1  0.21269900  0.69909600  0.67192900  1
  O  O10  1  0.71269900  0.30090400  0.82807100  1
  O  O11  1  0.85444000  0.28073000  0.51045300  1
  O  O12  1  0.76950400  0.02442800  0.50465500  1
  O  O13  1  0.62341300  0.69031800  0.32739200  1
  O  O14  1  0.21474900  0.00006300  0.17121800  1
  O  O15  1  0.76950400  0.52442800  0.99534500  1
  O  O16  1  0.21269900  0.19909600  0.82807100  1
  O  O17  1  0.87658700  0.19031800  0.67260800  1
  O  O18  1  0.35444000  0.71927000  0.98954700  1
  O  O19  1  0.23049600  0.97557200  0.49534500  1
  O  O20  1  0.14556000  0.71927000  0.48954700  1
  O  O21  1  0.78525100  0.99993700  0.82878200  1
  O  O22  1  0.62341300  0.19031800  0.17260800  1
  O  O23  1  0.71474900  0.99993700  0.32878200  1
  O  O24  1  0.14556000  0.21927000  0.01045300  1
  O  O25  1  0.35444000  0.21927000  0.51045300  1
  O  O26  1  0.73049600  0.52442800  0.49534500  1
  O  O27  1  0.73049600  0.02442800  0.00465500  1
  O  O28  1  0.71474900  0.49993700  0.17121800  1
  O  O29  1  0.64556000  0.78073000  0.48954700  1
  O  O30  1  0.64556000  0.28073000  0.01045300  1
  O  O31  1  0.85444000  0.78073000  0.98954700  1
  O  O32  1  0.78525100  0.49993700  0.67121800  1
  O  O33  1  0.87658700  0.69031800  0.82739200  1
  O  O34  1  0.37658700  0.30968200  0.67260800  1
  O  O35  1  0.21474900  0.50006300  0.32878200  1
  O  O36  1  0.28525100  0.50006300  0.82878200  1
  O  O37  1  0.28730100  0.19909600  0.32807100  1
  O  O38  1  0.28525100  0.00006300  0.67121800  1
  O  O39  1  0.28730100  0.69909600  0.17192900  1
loop_
_geom_bond_atom_site_label_1
_geom_bond_atom_site_label_2
_geom_bond_distance
_geom_bond_site_symmetry_2
Ag0 O11 2.001200 1_455
Ag0 O8 2.060567 1_555
Ag0 O35 2.086454 1_555
Ag0 O0 2.101725 1_455
Ag0 O26 2.447692 1_455
Ag1 O29 2.001200 1_555
Ag1 O19 2.060567 1_555
Ag1 O38 2.086454 1_565
Ag1 O7 2.101725 1_555
Ag1 O12 2.447692 1_565
Ag2 O20 2.001200 1_655
Ag2 O26 2.060567 1_555
Ag2 O32 2.086454 1_555
Ag2 O9 2.101725 1_655
Ag2 O8 2.447692 1_655
Ag3 O25 2.001200 1_555
Ag3 O12 2.060567 1_555
Ag3 O23 2.086454 1_545
Ag3 O37 2.101725 1_555
Ag3 O19 2.447692 1_545
Ag4 O24 2.001200 1_656
Ag4 O27 2.060567 1_556
Ag4 O21 2.086454 1_545
Ag4 O16 2.101725 1_655
Ag4 O1 2.447692 1_645
Ag5 O31 2.001200 1_454
Ag5 O1 2.060567 1_554
Ag5 O14 2.086454 1_565
Ag5 O5 2.101725 1_455
Ag5 O27 2.447692 1_465
Ag6 O30 2.001200 1_556
Ag6 O2 2.060567 1_556
Ag6 O36 2.086454 1_555
Ag6 O10 2.101725 1_555
Ag6 O15 2.447692 1_555
Ag7 O18 2.001200 1_554
Ag7 O15 2.060567 1_554
Ag7 O28 2.086454 1_555
Ag7 O39 2.101725 1_555
Ag7 O2 2.447692 1_555
Bi0 O3 2.175959 1_555
Bi0 O33 2.219355 1_455
Bi0 O7 2.231556 1_455
Bi0 O9 2.259820 1_555
Bi0 O21 2.315968 1_455
Bi0 O38 2.369955 1_565
Bi1 O22 2.175959 1_555
Bi1 O4 2.219355 1_655
Bi1 O37 2.231556 1_655
Bi1 O0 2.259820 1_555
Bi1 O14 2.315968 1_655
Bi1 O23 2.369955 1_545
Bi2 O4 2.175959 1_555
Bi2 O22 2.219355 1_555
Bi2 O0 2.231556 1_555
Bi2 O37 2.259820 1_555
Bi2 O28 2.315968 1_555
Bi2 O35 2.369955 1_555
Bi3 O13 2.175959 1_555
Bi3 O6 2.219355 1_655
Bi3 O39 2.231556 1_655
Bi3 O5 2.259820 1_555
Bi3 O35 2.315968 1_655
Bi3 O28 2.369955 1_555
Bi4 O17 2.175959 1_555
Bi4 O34 2.219355 1_555
Bi4 O16 2.231556 1_555
Bi4 O10 2.259820 1_555
Bi4 O38 2.315968 1_555
Bi4 O21 2.369955 1_545
Bi5 O33 2.175959 1_555
Bi5 O3 2.219355 1_555
Bi5 O9 2.231556 1_555
Bi5 O7 2.259820 1_555
Bi5 O36 2.315968 1_555
Bi5 O32 2.369955 1_555
Bi6 O6 2.175959 1_555
Bi6 O13 2.219355 1_555
Bi6 O5 2.231556 1_555
Bi6 O39 2.259820 1_555
Bi6 O23 2.315968 1_555
Bi6 O14 2.369955 1_565
Bi7 O34 2.175959 1_555
Bi7 O17 2.219355 1_455
Bi7 O10 2.231556 1_455
Bi7 O16 2.259820 1_555
Bi7 O32 2.315968 1_455
Bi7 O36 2.369955 1_555
O1 Zn7 2.027016 1_555
O1 Zn4 2.097967 1_566
O2 Zn3 2.027016 1_455
O2 Zn2 2.097967 1_554
O3 Zn7 2.081105 1_555
O4 Zn3 2.081105 1_455
O6 Zn5 2.081105 1_455
O8 Zn0 2.027016 1_555
O8 Zn6 2.097967 1_555
O11 Zn0 2.019758 1_555
O11 Zn1 2.029629 1_655
O12 Zn1 2.027016 1_655
O12 Zn5 2.097967 1_545
O13 Zn6 2.081105 1_555
O14 Zn4 2.517508 1_555
O15 Zn2 2.027016 1_655
O15 Zn3 2.097967 1_556
O17 Zn1 2.081105 1_655
O18 Zn2 2.019758 1_555
O18 Zn7 2.029629 1_555
O19 Zn5 2.027016 1_455
O19 Zn1 2.097967 1_565
O20 Zn6 2.019758 1_555
O20 Zn5 2.029629 1_455
O21 Zn7 2.517508 1_555
O22 Zn4 2.081105 1_555
O23 Zn5 2.517508 1_555
O24 Zn4 2.019758 1_555
O24 Zn3 2.029629 1_455
O25 Zn1 2.019758 1_555
O25 Zn0 2.029629 1_555
O26 Zn6 2.027016 1_555
O26 Zn0 2.097967 1_555
O27 Zn4 2.027016 1_555
O27 Zn7 2.097967 1_544
O28 Zn3 2.517508 1_555
O29 Zn5 2.019758 1_555
O29 Zn6 2.029629 1_555
O30 Zn3 2.019758 1_555
O30 Zn4 2.029629 1_555
O31 Zn7 2.019758 1_555
O31 Zn2 2.029629 1_655
O32 Zn0 2.517508 1_555
O33 Zn2 2.081105 1_655
O34 Zn0 2.081105 1_555
O35 Zn6 2.517508 1_555
O36 Zn2 2.517508 1_555
O38 Zn1 2.517508 1_555
