# generated using pymatgen
data_YbDyS3
_symmetry_space_group_name_H-M   'P 1'
_cell_length_a   3.93886200
_cell_length_b   10.34271700
_cell_length_c   10.74247700
_cell_angle_alpha   90.00000000
_cell_angle_beta   90.00000000
_cell_angle_gamma   90.00000000
_symmetry_Int_Tables_number   1
_chemical_formula_structural   YbDyS3
_chemical_formula_sum   'Yb4 Dy4 S12'
_cell_volume   437.63277491
_cell_formula_units_Z   4
loop_
 _symmetry_equiv_pos_site_id
 _symmetry_equiv_pos_as_xyz
  1  'x, y, z'
loop_
 _atom_site_type_symbol
 _atom_site_label
 _atom_site_symmetry_multiplicity
 _atom_site_fract_x
 _atom_site_fract_y
 _atom_site_fract_z
 _atom_site_occupancy
  Yb  Yb0  1  0.75000000  0.49948100  0.68795200  1
  Yb  Yb1  1  0.75000000  0.00051900  0.18795200  1
  Yb  Yb2  1  0.25000000  0.50051900  0.31204800  1
  Yb  Yb3  1  0.25000000  0.99948100  0.81204800  1
  Dy  Dy0  1  0.25000000  0.18863300  0.49565400  1
  Dy  Dy1  1  0.25000000  0.31136700  0.99565400  1
  Dy  Dy2  1  0.75000000  0.81136700  0.50434600  1
  Dy  Dy3  1  0.75000000  0.68863300  0.00434600  1
  S  S0  1  0.25000000  0.29776500  0.73446300  1
  S  S1  1  0.25000000  0.20223500  0.23446300  1
  S  S2  1  0.75000000  0.70223500  0.26553700  1
  S  S3  1  0.75000000  0.79776500  0.76553700  1
  S  S4  1  0.75000000  0.05748200  0.62107300  1
  S  S5  1  0.75000000  0.44251800  0.12107300  1
  S  S6  1  0.25000000  0.94251800  0.37892700  1
  S  S7  1  0.25000000  0.55748200  0.87892700  1
  S  S8  1  0.25000000  0.63272900  0.54554800  1
  S  S9  1  0.25000000  0.86727100  0.04554800  1
  S  S10  1  0.75000000  0.36727100  0.45445200  1
  S  S11  1  0.75000000  0.13272900  0.95445200  1
loop_
_geom_bond_atom_site_label_1
_geom_bond_atom_site_label_2
_geom_bond_distance
_geom_bond_site_symmetry_2
Dy0 S10 2.736457 1_555
Dy0 S10 2.736457 1_455
Dy0 S4 2.744792 1_455
Dy0 S4 2.744792 1_555
Dy0 S0 2.802729 1_555
Dy0 S1 2.809363 1_555
Dy0 S6 2.837590 1_545
Dy1 S11 2.736457 1_455
Dy1 S11 2.736457 1_555
Dy1 S5 2.744792 1_456
Dy1 S5 2.744792 1_556
Dy1 S1 2.802729 1_556
Dy1 S0 2.809363 1_555
Dy1 S7 2.837590 1_555
Dy2 S8 2.736457 1_655
Dy2 S8 2.736457 1_555
Dy2 S6 2.744792 1_555
Dy2 S6 2.744792 1_655
Dy2 S2 2.802729 1_555
Dy2 S3 2.809363 1_555
Dy2 S4 2.837590 1_565
Dy3 S9 2.736457 1_555
Dy3 S9 2.736457 1_655
Dy3 S7 2.744792 1_654
Dy3 S7 2.744792 1_554
Dy3 S3 2.802729 1_554
Dy3 S2 2.809363 1_555
Dy3 S5 2.837590 1_555
S0 Yb0 2.912201 1_455
S0 Yb0 2.912201 1_555
S0 Yb3 3.195667 1_545
S1 Yb1 2.912201 1_555
S1 Yb1 2.912201 1_455
S1 Yb2 3.195667 1_555
S2 Yb2 2.912201 1_655
S2 Yb2 2.912201 1_555
S2 Yb1 3.195667 1_565
S3 Yb3 2.912201 1_555
S3 Yb3 2.912201 1_655
S3 Yb0 3.195667 1_555
S4 Yb3 2.906434 1_545
S4 Yb3 2.906434 1_645
S5 Yb2 2.906434 1_655
S5 Yb2 2.906434 1_555
S6 Yb1 2.906434 1_565
S6 Yb1 2.906434 1_465
S7 Yb0 2.906434 1_555
S7 Yb0 2.906434 1_455
S8 Yb0 2.849236 1_455
S8 Yb0 2.849236 1_555
S8 Yb2 2.856873 1_555
S9 Yb1 2.849236 1_565
S9 Yb1 2.849236 1_465
S9 Yb3 2.856873 1_554
S10 Yb2 2.849236 1_555
S10 Yb2 2.849236 1_655
S10 Yb0 2.856873 1_555
S11 Yb3 2.849236 1_545
S11 Yb3 2.849236 1_645
S11 Yb1 2.856873 1_556
