# generated using pymatgen
data_Nd2Mo8O45
_symmetry_space_group_name_H-M   'P 1'
_cell_length_a   9.47338200
_cell_length_b   10.78809260
_cell_length_c   10.79555335
_cell_angle_alpha   98.21215118
_cell_angle_beta   107.17983331
_cell_angle_gamma   91.44918675
_symmetry_Int_Tables_number   1
_chemical_formula_structural   Nd2Mo8O45
_chemical_formula_sum   'Nd2 Mo8 O45'
_cell_volume   1040.60730013
_cell_formula_units_Z   1
loop_
 _symmetry_equiv_pos_site_id
 _symmetry_equiv_pos_as_xyz
  1  'x, y, z'
loop_
 _atom_site_type_symbol
 _atom_site_label
 _atom_site_symmetry_multiplicity
 _atom_site_fract_x
 _atom_site_fract_y
 _atom_site_fract_z
 _atom_site_occupancy
  Nd  Nd0  1  0.39937700  0.79273400  0.27221800  1
  Nd  Nd1  1  0.60062300  0.20726600  0.72778200  1
  Mo  Mo0  1  0.05707100  0.55293700  0.25351900  1
  Mo  Mo1  1  0.94292900  0.44706300  0.74648100  1
  Mo  Mo2  1  0.82708600  0.41417700  0.40664700  1
  Mo  Mo3  1  0.17291400  0.58582300  0.59335300  1
  Mo  Mo4  1  0.82724900  0.73496900  0.35224900  1
  Mo  Mo5  1  0.17275100  0.26503100  0.64775100  1
  Mo  Mo6  1  0.34336600  0.35680900  0.44317400  1
  Mo  Mo7  1  0.65663400  0.64319100  0.55682600  1
  O  O0  1  0.64469200  0.77827400  0.26501500  1
  O  O1  1  0.35530800  0.22172600  0.73498500  1
  O  O2  1  0.99520700  0.37865800  0.55302000  1
  O  O3  1  0.00479300  0.62134200  0.44698000  1
  O  O4  1  0.20664500  0.49459800  0.40441900  1
  O  O5  1  0.79335500  0.50540200  0.59558100  1
  O  O6  1  0.87822300  0.63694800  0.20535000  1
  O  O7  1  0.12177700  0.36305200  0.79465000  1
  O  O8  1  0.50000000  0.50000000  0.50000000  1
  O  O9  1  0.79624000  0.75656600  0.52887100  1
  O  O10  1  0.20376000  0.24343400  0.47112900  1
  O  O11  1  0.18539000  0.68635800  0.26340200  1
  O  O12  1  0.81461000  0.31364200  0.73659800  1
  O  O13  1  0.70955000  0.54861100  0.36145900  1
  O  O14  1  0.29045000  0.45138900  0.63854100  1
  O  O15  1  0.06831900  0.45614400  0.11759600  1
  O  O16  1  0.93168100  0.54385600  0.88240400  1
  O  O17  1  0.66542900  0.69924200  0.71579000  1
  O  O18  1  0.33457100  0.30075800  0.28421000  1
  O  O19  1  0.49649000  0.71685300  0.45428400  1
  O  O20  1  0.50351000  0.28314700  0.54571600  1
  O  O21  1  0.91761400  0.40087400  0.28012800  1
  O  O22  1  0.08238600  0.59912600  0.71987200  1
  O  O23  1  0.70603400  0.28339700  0.36595900  1
  O  O24  1  0.29396600  0.71660300  0.63404100  1
  O  O25  1  0.94005600  0.86788000  0.37444700  1
  O  O26  1  0.05994400  0.13212000  0.62555300  1
  O  O27  1  0.59520000  0.12739200  0.00972100  1
  O  O28  1  0.40480000  0.87260800  0.99027900  1
  O  O29  1  0.21764300  0.95763100  0.28247500  1
  O  O30  1  0.78235700  0.04236900  0.71752500  1
  O  O31  1  0.41001400  0.51972100  0.08036100  1
  O  O32  1  0.58998600  0.48027900  0.91963900  1
  O  O33  1  0.50212700  0.00667600  0.44327500  1
  O  O34  1  0.49787300  0.99332400  0.55672500  1
  O  O35  1  0.32509200  0.61814400  0.08341200  1
  O  O36  1  0.67490800  0.38185600  0.91658800  1
  O  O37  1  0.65848000  0.58546000  0.97124200  1
  O  O38  1  0.34152000  0.41454000  0.02875800  1
  O  O39  1  0.85230800  0.96395100  0.79888000  1
  O  O40  1  0.14769200  0.03604900  0.20112000  1
  O  O41  1  0.67397900  0.10410200  0.11548700  1
  O  O42  1  0.32602100  0.89589800  0.88451300  1
  O  O43  1  0.04748500  0.09451400  0.23389100  1
  O  O44  1  0.95251500  0.90548600  0.76610900  1
loop_
_geom_bond_atom_site_label_1
_geom_bond_atom_site_label_2
_geom_bond_distance
_geom_bond_site_symmetry_2
Nd0 O19 2.192999 1_555
Nd0 O11 2.274345 1_555
Nd0 O0 2.356440 1_555
Nd0 O35 2.487202 1_555
Nd0 O29 2.520341 1_555
Nd0 O33 2.700279 1_565
Nd0 O28 3.293716 1_554
Nd1 O20 2.192999 1_555
Nd1 O12 2.274345 1_555
Nd1 O1 2.356440 1_555
Nd1 O36 2.487202 1_555
Nd1 O30 2.520341 1_555
Nd1 O34 2.700279 1_545
Nd1 O27 3.293716 1_556
Mo0 O15 1.707384 1_555
Mo0 O11 1.830810 1_555
Mo0 O6 1.911621 1_455
Mo0 O4 2.008007 1_555
Mo0 O21 2.183628 1_455
Mo0 O3 2.311056 1_555
Mo1 O16 1.707384 1_555
Mo1 O12 1.830810 1_555
Mo1 O7 1.911621 1_655
Mo1 O5 2.008007 1_555
Mo1 O22 2.183628 1_655
Mo1 O2 2.311056 1_555
Mo2 O23 1.715262 1_555
Mo2 O21 1.806602 1_555
Mo2 O13 1.882558 1_555
Mo2 O2 1.974213 1_555
Mo2 O5 2.249066 1_555
Mo2 O3 2.667813 1_655
Mo3 O24 1.715262 1_555
Mo3 O22 1.806602 1_555
Mo3 O14 1.882558 1_555
Mo3 O3 1.974213 1_555
Mo3 O4 2.249066 1_555
Mo3 O2 2.667813 1_455
Mo4 O25 1.711274 1_555
Mo4 O0 1.816725 1_555
Mo4 O6 1.966086 1_555
Mo4 O9 1.995907 1_555
Mo4 O3 2.196295 1_655
Mo4 O13 2.303093 1_555
Mo5 O26 1.711274 1_555
Mo5 O1 1.816725 1_555
Mo5 O7 1.966086 1_555
Mo5 O10 1.995907 1_555
Mo5 O2 2.196295 1_455
Mo5 O14 2.303093 1_555
Mo6 O18 1.712932 1_555
Mo6 O20 1.865136 1_555
Mo6 O10 1.896201 1_555
Mo6 O4 2.004288 1_555
Mo6 O8 2.009981 1_555
Mo6 O14 2.403402 1_555
Mo7 O17 1.712932 1_555
Mo7 O19 1.865136 1_555
Mo7 O9 1.896201 1_555
Mo7 O5 2.004288 1_555
Mo7 O8 2.009981 1_555
Mo7 O13 2.403402 1_555
O27 O41 1.229577 1_555
O28 O42 1.229577 1_555
O29 O40 1.350177 1_565
O30 O39 1.350177 1_545
O31 O38 1.259984 1_555
O31 O35 1.350772 1_555
O32 O37 1.259984 1_555
O32 O36 1.350772 1_555
O33 O34 1.265567 1_545
O39 O44 1.260588 1_555
O40 O43 1.260588 1_555
