# generated using pymatgen
data_Li4TiNi3O8
_symmetry_space_group_name_H-M   'P 1'
_cell_length_a   5.91500998
_cell_length_b   5.96349149
_cell_length_c   8.17278116
_cell_angle_alpha   89.51066411
_cell_angle_beta   89.97887205
_cell_angle_gamma   89.99724794
_symmetry_Int_Tables_number   1
_chemical_formula_structural   Li4TiNi3O8
_chemical_formula_sum   'Li8 Ti2 Ni6 O16'
_cell_volume   288.27706120
_cell_formula_units_Z   2
loop_
 _symmetry_equiv_pos_site_id
 _symmetry_equiv_pos_as_xyz
  1  'x, y, z'
loop_
 _atom_site_type_symbol
 _atom_site_label
 _atom_site_symmetry_multiplicity
 _atom_site_fract_x
 _atom_site_fract_y
 _atom_site_fract_z
 _atom_site_occupancy
  Li  Li0  1  0.00001500  0.00008700  0.50002500  1
  Li  Li1  1  0.49997800  0.49995100  0.99999400  1
  Li  Li2  1  0.24843700  0.74773300  0.75071700  1
  Li  Li3  1  0.75158800  0.25227800  0.24929900  1
  Li  Li4  1  0.25174600  0.24754000  0.25062300  1
  Li  Li5  1  0.74828400  0.75243500  0.74938500  1
  Li  Li6  1  0.00005000  0.50007600  0.99994200  1
  Li  Li7  1  0.49996000  0.99991200  0.50003500  1
  Ti  Ti0  1  0.99999300  0.00003000  0.00001800  1
  Ti  Ti1  1  0.50009200  0.49992800  0.49998200  1
  Ni  Ni0  1  0.25123400  0.24951400  0.74970900  1
  Ni  Ni1  1  0.74872600  0.75052200  0.25027900  1
  Ni  Ni2  1  0.50004900  0.99993400  0.99996300  1
  Ni  Ni3  1  0.24882400  0.74970300  0.24967200  1
  Ni  Ni4  1  0.75115400  0.25033300  0.75035400  1
  Ni  Ni5  1  0.00004800  0.50004300  0.49998700  1
  O  O0  1  0.99811400  0.53870000  0.25172000  1
  O  O1  1  0.50176600  0.03835400  0.75174100  1
  O  O2  1  0.49819000  0.96162700  0.24827500  1
  O  O3  1  0.00184900  0.46137100  0.74826700  1
  O  O4  1  0.26040400  0.26152800  0.51351000  1
  O  O5  1  0.75803900  0.76300300  0.01376200  1
  O  O6  1  0.24185500  0.23698900  0.98624900  1
  O  O7  1  0.73966200  0.73845900  0.48646000  1
  O  O8  1  0.25815600  0.73695800  0.48623100  1
  O  O9  1  0.76019900  0.23838800  0.98661600  1
  O  O10  1  0.23966600  0.76156100  0.01335300  1
  O  O11  1  0.74196800  0.26304200  0.51382400  1
  O  O12  1  0.00088400  0.98738100  0.76278000  1
  O  O13  1  0.49919500  0.48731600  0.26274900  1
  O  O14  1  0.50081800  0.51265100  0.73723000  1
  O  O15  1  0.99905700  0.01265200  0.23725100  1
loop_
_geom_bond_atom_site_label_1
_geom_bond_atom_site_label_2
_geom_bond_distance
_geom_bond_site_symmetry_2
Li0 O12 2.148137 1_545
Li0 O15 2.148271 1_455
Li0 O11 2.191839 1_455
Li0 O8 2.192967 1_545
Li0 O4 2.195099 1_555
Li0 O7 2.195780 1_445
Li1 O13 2.148121 1_556
Li1 O14 2.148205 1_555
Li1 O6 2.192320 1_555
Li1 O5 2.192459 1_556
Li1 O9 2.194708 1_555
Li1 O10 2.195277 1_556
Li2 O12 2.048992 1_555
Li2 O14 2.051433 1_555
Li2 O10 2.149361 1_556
Li2 O8 2.163832 1_555
Li2 O3 2.246102 1_555
Li2 O1 2.291201 1_565
Li3 O15 2.048539 1_555
Li3 O13 2.051287 1_555
Li3 O9 2.149739 1_554
Li3 O11 2.164133 1_555
Li3 O0 2.246132 1_555
Li3 O2 2.291603 1_545
Li4 O13 2.049263 1_555
Li4 O15 2.052070 1_455
Li4 O4 2.151477 1_555
Li4 O6 2.162937 1_554
Li4 O2 2.243384 1_545
Li4 O0 2.294697 1_455
Li5 O14 2.049381 1_555
Li5 O12 2.051934 1_655
Li5 O7 2.151779 1_555
Li5 O5 2.162943 1_556
Li5 O1 2.243697 1_565
Li5 O3 2.294007 1_655
Li6 O3 2.071776 1_555
Li6 O0 2.072559 1_456
Li6 O10 2.110853 1_556
Li6 O9 2.112641 1_455
Li6 O6 2.126591 1_555
Li6 O5 2.126768 1_456
Li7 O1 2.071849 1_565
Li7 O2 2.072175 1_555
Li7 O7 2.110977 1_555
Li7 O4 2.111068 1_565
Li7 O8 2.126212 1_555
Li7 O11 2.127791 1_565
Ni0 O4 1.931862 1_555
Ni0 O6 1.934770 1_555
Ni0 O3 1.942133 1_555
Ni0 O1 1.944607 1_555
Ni0 O12 2.155269 1_545
Ni0 O14 2.156306 1_555
Ni1 O7 1.931706 1_555
Ni1 O5 1.934563 1_555
Ni1 O0 1.942011 1_555
Ni1 O2 1.944412 1_555
Ni1 O15 2.155163 1_565
Ni1 O13 2.156387 1_555
Ni2 O1 2.039638 1_565
Ni2 O2 2.040303 1_556
Ni2 O5 2.082071 1_556
Ni2 O6 2.083424 1_565
Ni2 O9 2.097462 1_565
Ni2 O10 2.098162 1_556
Ni3 O10 1.932853 1_555
Ni3 O8 1.934997 1_555
Ni3 O2 1.942393 1_555
Ni3 O0 1.944887 1_455
Ni3 O15 2.156161 1_465
Ni3 O13 2.156405 1_555
Ni4 O9 1.932383 1_555
Ni4 O11 1.934729 1_555
Ni4 O1 1.942705 1_555
Ni4 O3 1.944955 1_655
Ni4 O14 2.155981 1_555
Ni4 O12 2.156025 1_645
Ni5 O0 2.040165 1_455
Ni5 O3 2.040275 1_555
Ni5 O8 2.082540 1_555
Ni5 O11 2.082798 1_455
Ni5 O7 2.098360 1_455
Ni5 O4 2.098628 1_555
O4 Ti1 2.010192 1_555
O5 Ti0 2.014003 1_565
O6 Ti0 2.013342 1_456
O7 Ti1 2.010250 1_555
O8 Ti1 2.013905 1_555
O9 Ti0 2.010368 1_556
O10 Ti0 2.010305 1_465
O11 Ti1 2.013088 1_555
O12 Ti0 1.941010 1_466
O13 Ti1 1.940963 1_555
O14 Ti1 1.941114 1_555
O15 Ti0 1.940962 1_555
