# generated using pymatgen
data_DyGa2Pd
_symmetry_space_group_name_H-M   'P 1'
_cell_length_a   5.50621146
_cell_length_b   5.50621146
_cell_length_c   6.55051712
_cell_angle_alpha   90.00000000
_cell_angle_beta   90.00000000
_cell_angle_gamma   132.79612324
_symmetry_Int_Tables_number   1
_chemical_formula_structural   DyGa2Pd
_chemical_formula_sum   'Dy2 Ga4 Pd2'
_cell_volume   145.72859005
_cell_formula_units_Z   2
loop_
 _symmetry_equiv_pos_site_id
 _symmetry_equiv_pos_as_xyz
  1  'x, y, z'
loop_
 _atom_site_type_symbol
 _atom_site_label
 _atom_site_symmetry_multiplicity
 _atom_site_fract_x
 _atom_site_fract_y
 _atom_site_fract_z
 _atom_site_occupancy
  Dy  Dy0  1  0.58904714  0.41095286  0.25000000  1
  Dy  Dy1  1  0.41095286  0.58904714  0.75000000  1
  Ga  Ga0  1  0.87287294  0.12712706  0.44528044  1
  Ga  Ga1  1  0.12712706  0.87287294  0.55471956  1
  Ga  Ga2  1  0.87287294  0.12712706  0.05471956  1
  Ga  Ga3  1  0.12712706  0.87287294  0.94528044  1
  Pd  Pd0  1  0.29953174  0.70046826  0.25000000  1
  Pd  Pd1  1  0.70046826  0.29953174  0.75000000  1
loop_
_geom_bond_atom_site_label_1
_geom_bond_atom_site_label_2
_geom_bond_distance
_geom_bond_site_symmetry_2
Dy0 Pd0 2.921565 1_555
Dy0 Ga1 2.998687 1_655
Dy0 Ga3 2.998687 1_544
Dy0 Ga3 2.998687 1_654
Dy0 Ga1 2.998687 1_545
Dy0 Pd0 3.061329 1_655
Dy0 Pd0 3.061329 1_545
Dy0 Ga2 3.136826 1_555
Dy0 Ga0 3.136826 1_555
Dy0 Ga0 3.354886 1_565
Dy0 Ga2 3.354886 1_455
Dy0 Ga0 3.354886 1_455
Dy0 Ga2 3.354886 1_565
Dy0 Pd1 3.462880 1_555
Dy0 Pd1 3.462880 1_554
Dy1 Pd1 2.921565 1_555
Dy1 Ga0 2.998687 1_455
Dy1 Ga0 2.998687 1_565
Dy1 Ga2 2.998687 1_456
Dy1 Ga2 2.998687 1_566
Dy1 Pd1 3.061329 1_455
Dy1 Pd1 3.061329 1_565
Dy1 Ga3 3.136826 1_555
Dy1 Ga1 3.136826 1_555
Dy1 Ga3 3.354886 1_655
Dy1 Ga3 3.354886 1_545
Dy1 Ga1 3.354886 1_655
Dy1 Ga1 3.354886 1_545
Dy1 Pd0 3.462880 1_555
Dy1 Pd0 3.462880 1_556
Ga0 Ga2 2.558376 1_555
Ga0 Pd1 2.647851 1_555
Ga0 Pd0 2.654098 1_655
Ga0 Pd0 2.654098 1_545
Ga0 Ga1 2.664004 1_645
Ga1 Ga3 2.558376 1_555
Ga1 Pd0 2.647851 1_555
Ga1 Pd1 2.654098 1_455
Ga1 Pd1 2.654098 1_565
Ga2 Pd1 2.647851 1_554
Ga2 Pd0 2.654098 1_655
Ga2 Pd0 2.654098 1_545
Ga2 Ga3 2.664004 1_644
Ga3 Pd0 2.647851 1_556
Ga3 Pd1 2.654098 1_455
Ga3 Pd1 2.654098 1_565
