# generated using pymatgen
data_Ba3CrN3
_symmetry_space_group_name_H-M   'P 1'
_cell_length_a   8.33785700
_cell_length_b   8.33785732
_cell_length_c   5.49712178
_cell_angle_alpha   90.00000000
_cell_angle_beta   90.00000000
_cell_angle_gamma   120.00000471
_symmetry_Int_Tables_number   1
_chemical_formula_structural   Ba3CrN3
_chemical_formula_sum   'Ba6 Cr2 N6'
_cell_volume   330.95951447
_cell_formula_units_Z   2
loop_
 _symmetry_equiv_pos_site_id
 _symmetry_equiv_pos_as_xyz
  1  'x, y, z'
loop_
 _atom_site_type_symbol
 _atom_site_label
 _atom_site_symmetry_multiplicity
 _atom_site_fract_x
 _atom_site_fract_y
 _atom_site_fract_z
 _atom_site_occupancy
  Ba  Ba0  1  0.63887241  0.71993901  0.75000000  1
  Ba  Ba1  1  0.91893240  0.63887241  0.25000000  1
  Ba  Ba2  1  0.71993901  0.08106760  0.25000000  1
  Ba  Ba3  1  0.28006099  0.91893240  0.75000000  1
  Ba  Ba4  1  0.08106760  0.36112759  0.75000000  1
  Ba  Ba5  1  0.36112759  0.28006099  0.25000000  1
  Cr  Cr0  1  0.66666700  0.33333300  0.75000000  1
  Cr  Cr1  1  0.33333300  0.66666700  0.25000000  1
  N  N0  1  0.54636051  0.68149718  0.25000000  1
  N  N1  1  0.86486234  0.54636051  0.75000000  1
  N  N2  1  0.68149718  0.13513766  0.75000000  1
  N  N3  1  0.31850282  0.86486234  0.25000000  1
  N  N4  1  0.13513766  0.45363949  0.25000000  1
  N  N5  1  0.45363949  0.31850282  0.75000000  1
loop_
_geom_bond_atom_site_label_1
_geom_bond_atom_site_label_2
_geom_bond_distance
_geom_bond_site_symmetry_2
Ba0 N0 2.829323 1_556
Ba0 N0 2.829323 1_555
Ba0 N1 2.893464 1_555
Ba0 N5 2.901563 1_555
Ba0 N2 3.298558 1_565
Ba1 N1 2.829323 1_555
Ba1 N1 2.829323 1_554
Ba1 N3 2.893477 1_655
Ba1 N4 2.901578 1_655
Ba1 N0 3.298542 1_555
Ba2 N2 2.829323 1_555
Ba2 N2 2.829323 1_554
Ba2 N0 2.893479 1_545
Ba2 N3 2.901563 1_545
Ba2 N4 3.298551 1_655
Ba3 N3 2.829323 1_556
Ba3 N3 2.829323 1_555
Ba3 N5 2.893479 1_565
Ba3 N2 2.901563 1_565
Ba3 N1 3.298551 1_455
Ba4 N4 2.829323 1_555
Ba4 N4 2.829323 1_556
Ba4 N2 2.893477 1_455
Ba4 N1 2.901578 1_455
Ba4 N5 3.298542 1_555
Ba5 N5 2.829323 1_555
Ba5 N5 2.829323 1_554
Ba5 N4 2.893464 1_555
Ba5 N0 2.901563 1_555
Ba5 N3 3.298558 1_545
Cr0 N2 1.717692 1_555
Cr0 N1 1.717701 1_555
Cr0 N5 1.717708 1_555
Cr1 N3 1.717692 1_555
Cr1 N4 1.717701 1_555
Cr1 N0 1.717708 1_555
