# generated using pymatgen
data_CaMnV4(CuO6)2
_symmetry_space_group_name_H-M   'P 1'
_cell_length_a   6.43806000
_cell_length_b   6.43806000
_cell_length_c   6.43806000
_cell_angle_alpha   110.50823942
_cell_angle_beta   108.98245334
_cell_angle_gamma   108.92797718
_symmetry_Int_Tables_number   1
_chemical_formula_structural   CaMnV4(CuO6)2
_chemical_formula_sum   'Ca1 Mn1 V4 Cu2 O12'
_cell_volume   205.36959020
_cell_formula_units_Z   1
loop_
 _symmetry_equiv_pos_site_id
 _symmetry_equiv_pos_as_xyz
  1  'x, y, z'
loop_
 _atom_site_type_symbol
 _atom_site_label
 _atom_site_symmetry_multiplicity
 _atom_site_fract_x
 _atom_site_fract_y
 _atom_site_fract_z
 _atom_site_occupancy
  Ca  Ca0  1  0.00000000  0.00000000  0.00000000  1
  Mn  Mn0  1  0.50000000  0.00000000  0.50000000  1
  V  V0  1  0.00000000  0.50000000  0.00000000  1
  V  V1  1  0.50000000  0.00000000  0.00000000  1
  V  V2  1  0.00000000  0.00000000  0.50000000  1
  V  V3  1  0.50000000  0.50000000  0.50000000  1
  Cu  Cu0  1  0.50000000  0.50000000  0.00000000  1
  Cu  Cu1  1  0.00000000  0.50000000  0.50000000  1
  O  O0  1  0.69409800  0.17624000  0.87033800  1
  O  O1  1  0.30590200  0.82376000  0.12966200  1
  O  O2  1  0.30590200  0.17624000  0.48214200  1
  O  O3  1  0.69409800  0.82376000  0.51785800  1
  O  O4  1  0.88203500  0.70199500  0.18004000  1
  O  O5  1  0.11796500  0.29800500  0.81996000  1
  O  O6  1  0.47804500  0.29800500  0.18004000  1
  O  O7  1  0.52195500  0.70199500  0.81996000  1
  O  O8  1  0.18305900  0.87826200  0.69520300  1
  O  O9  1  0.81694100  0.12173800  0.30479700  1
  O  O10  1  0.18305900  0.48785600  0.30479700  1
  O  O11  1  0.81694100  0.51214400  0.69520300  1
loop_
_geom_bond_atom_site_label_1
_geom_bond_atom_site_label_2
_geom_bond_distance
_geom_bond_site_symmetry_2
Ca0 O4 2.605156 1_445
Ca0 O5 2.605156 1_554
Ca0 O6 2.605156 1_555
Ca0 O7 2.605156 1_444
Ca0 O9 2.622978 1_455
Ca0 O11 2.622978 1_444
Ca0 O10 2.622978 1_555
Ca0 O8 2.622978 1_544
Ca0 O1 2.628061 1_545
Ca0 O2 2.628061 1_555
Ca0 O0 2.628061 1_454
Ca0 O3 2.628061 1_444
Mn0 O0 1.944213 1_555
Mn0 O3 1.944213 1_545
Mn0 O2 1.944213 1_555
Mn0 O1 1.944213 1_545
Cu0 O5 2.024406 1_554
Cu0 O7 2.024406 1_554
Cu0 O6 2.024406 1_555
Cu0 O4 2.024406 1_555
Cu1 O9 1.982152 1_455
Cu1 O11 1.982152 1_455
Cu1 O8 1.982152 1_555
Cu1 O10 1.982152 1_555
O0 V0 1.992042 1_656
O0 V1 1.992042 1_556
O1 V1 1.992042 1_565
O1 V0 1.992042 1_555
O2 V2 1.992042 1_555
O2 V3 1.992042 1_555
O3 V3 1.992042 1_555
O3 V2 1.992042 1_665
O4 V0 1.941327 1_655
O4 V2 1.941327 1_665
O5 V0 1.941327 1_556
O5 V2 1.941327 1_555
O6 V1 1.941327 1_555
O6 V3 1.941327 1_555
O7 V1 1.941327 1_566
O7 V3 1.941327 1_555
O8 V1 1.976984 1_566
O8 V2 1.976984 1_565
O9 V1 1.976984 1_555
O9 V2 1.976984 1_655
O10 V3 1.976984 1_555
O10 V0 1.976984 1_555
O11 V0 1.976984 1_656
O11 V3 1.976984 1_555
