# generated using pymatgen
data_ReTc
_symmetry_space_group_name_H-M   'P 1'
_cell_length_a   5.49860038
_cell_length_b   5.49859678
_cell_length_c   8.88053442
_cell_angle_alpha   90.00045787
_cell_angle_beta   89.99952608
_cell_angle_gamma   119.99999367
_symmetry_Int_Tables_number   1
_chemical_formula_structural   ReTc
_chemical_formula_sum   'Re8 Tc8'
_cell_volume   232.52721626
_cell_formula_units_Z   8
loop_
 _symmetry_equiv_pos_site_id
 _symmetry_equiv_pos_as_xyz
  1  'x, y, z'
loop_
 _atom_site_type_symbol
 _atom_site_label
 _atom_site_symmetry_multiplicity
 _atom_site_fract_x
 _atom_site_fract_y
 _atom_site_fract_z
 _atom_site_occupancy
  Re  Re0_0  1  0.33333200  0.16666850  0.37500100  1
  Re  Re0_1  1  0.33333200  0.16666850  0.87500100  1
  Re  Re0_2  1  0.33333200  0.66666850  0.37500100  1
  Re  Re0_3  1  0.33333200  0.66666850  0.87500100  1
  Re  Re0_4  1  0.83333200  0.16666850  0.37500100  1
  Re  Re0_5  1  0.83333200  0.16666850  0.87500100  1
  Re  Re0_6  1  0.83333200  0.66666850  0.37500100  1
  Re  Re0_7  1  0.83333200  0.66666850  0.87500100  1
  Tc  Tc0_0  1  0.16666800  0.33333050  0.12500000  1
  Tc  Tc0_1  1  0.16666800  0.33333050  0.62500000  1
  Tc  Tc0_2  1  0.16666800  0.83333050  0.12500000  1
  Tc  Tc0_3  1  0.16666800  0.83333050  0.62500000  1
  Tc  Tc0_4  1  0.66666800  0.33333050  0.12500000  1
  Tc  Tc0_5  1  0.66666800  0.33333050  0.62500000  1
  Tc  Tc0_6  1  0.66666800  0.83333050  0.12500000  1
  Tc  Tc0_7  1  0.66666800  0.83333050  0.62500000  1
loop_
_geom_bond_atom_site_label_1
_geom_bond_atom_site_label_2
_geom_bond_distance
_geom_bond_site_symmetry_2
Re0_0 Tc0_1 2.729162 1_555
Re0_0 Tc0_0 2.729201 1_555
Re0_0 Tc0_5 2.729209 1_555
Re0_0 Tc0_4 2.729210 1_555
Re0_0 Tc0_3 2.729213 1_545
Re0_0 Tc0_2 2.729216 1_545
Re0_0 Re0_2 2.749298 1_555
Re0_0 Re0_2 2.749298 1_545
Re0_0 Re0_6 2.749300 1_555
Re0_0 Re0_6 2.749300 1_445
Re0_0 Re0_4 2.749300 1_455
Re0_0 Re0_4 2.749300 1_555
Re0_1 Tc0_0 2.729162 1_556
Re0_1 Tc0_1 2.729201 1_555
Re0_1 Tc0_4 2.729209 1_556
Re0_1 Tc0_5 2.729210 1_555
Re0_1 Tc0_2 2.729213 1_546
Re0_1 Tc0_3 2.729216 1_545
Re0_1 Re0_3 2.749298 1_555
Re0_1 Re0_3 2.749298 1_545
Re0_1 Re0_7 2.749300 1_555
Re0_1 Re0_7 2.749300 1_445
Re0_1 Re0_5 2.749300 1_455
Re0_1 Re0_5 2.749300 1_555
Re0_2 Tc0_3 2.729162 1_555
Re0_2 Tc0_2 2.729201 1_555
Re0_2 Tc0_7 2.729209 1_555
Re0_2 Tc0_6 2.729210 1_555
Re0_2 Tc0_1 2.729213 1_555
Re0_2 Tc0_0 2.729216 1_555
Re0_2 Re0_4 2.749300 1_565
Re0_2 Re0_4 2.749300 1_455
Re0_2 Re0_6 2.749300 1_555
Re0_2 Re0_6 2.749300 1_455
Re0_3 Tc0_2 2.729162 1_556
Re0_3 Tc0_3 2.729201 1_555
Re0_3 Tc0_6 2.729209 1_556
Re0_3 Tc0_7 2.729210 1_555
Re0_3 Tc0_0 2.729213 1_556
Re0_3 Tc0_1 2.729216 1_555
Re0_3 Re0_5 2.749300 1_565
Re0_3 Re0_5 2.749300 1_455
Re0_3 Re0_7 2.749300 1_455
Re0_3 Re0_7 2.749300 1_555
Re0_4 Tc0_5 2.729162 1_555
Re0_4 Tc0_4 2.729201 1_555
Re0_4 Tc0_1 2.729209 1_655
Re0_4 Tc0_0 2.729210 1_655
Re0_4 Tc0_7 2.729213 1_545
Re0_4 Tc0_6 2.729216 1_545
Re0_4 Re0_6 2.749298 1_555
Re0_4 Re0_6 2.749298 1_545
Re0_5 Tc0_4 2.729162 1_556
Re0_5 Tc0_5 2.729201 1_555
Re0_5 Tc0_0 2.729209 1_656
Re0_5 Tc0_1 2.729210 1_655
Re0_5 Tc0_6 2.729213 1_546
Re0_5 Tc0_7 2.729216 1_545
Re0_5 Re0_7 2.749298 1_555
Re0_5 Re0_7 2.749298 1_545
Re0_6 Tc0_7 2.729162 1_555
Re0_6 Tc0_6 2.729201 1_555
Re0_6 Tc0_3 2.729209 1_655
Re0_6 Tc0_2 2.729210 1_655
Re0_6 Tc0_5 2.729213 1_555
Re0_6 Tc0_4 2.729216 1_555
Re0_7 Tc0_6 2.729162 1_556
Re0_7 Tc0_7 2.729201 1_555
Re0_7 Tc0_2 2.729209 1_656
Re0_7 Tc0_3 2.729210 1_655
Re0_7 Tc0_4 2.729213 1_556
Re0_7 Tc0_5 2.729216 1_555
Tc0_0 Tc0_2 2.749298 1_555
Tc0_0 Tc0_2 2.749298 1_545
Tc0_0 Tc0_6 2.749300 1_555
Tc0_0 Tc0_6 2.749300 1_445
Tc0_0 Tc0_4 2.749300 1_455
Tc0_0 Tc0_4 2.749300 1_555
Tc0_1 Tc0_3 2.749298 1_555
Tc0_1 Tc0_3 2.749298 1_545
Tc0_1 Tc0_7 2.749300 1_445
Tc0_1 Tc0_7 2.749300 1_555
Tc0_1 Tc0_5 2.749300 1_555
Tc0_1 Tc0_5 2.749300 1_455
Tc0_2 Tc0_4 2.749300 1_455
Tc0_2 Tc0_4 2.749300 1_565
Tc0_2 Tc0_6 2.749300 1_455
Tc0_2 Tc0_6 2.749300 1_555
Tc0_3 Tc0_5 2.749300 1_565
Tc0_3 Tc0_5 2.749300 1_455
Tc0_3 Tc0_7 2.749300 1_555
Tc0_3 Tc0_7 2.749300 1_455
Tc0_4 Tc0_6 2.749298 1_555
Tc0_4 Tc0_6 2.749298 1_545
Tc0_5 Tc0_7 2.749298 1_545
Tc0_5 Tc0_7 2.749298 1_555
