# generated using pymatgen
data_Li3MnV(PO4)3
_symmetry_space_group_name_H-M   'P 1'
_cell_length_a   8.45788800
_cell_length_b   8.86759806
_cell_length_c   12.43399200
_cell_angle_alpha   90.69072081
_cell_angle_beta   91.68394408
_cell_angle_gamma   90.33883645
_symmetry_Int_Tables_number   1
_chemical_formula_structural   Li3MnV(PO4)3
_chemical_formula_sum   'Li12 Mn4 V4 P12 O48'
_cell_volume   932.07490834
_cell_formula_units_Z   4
loop_
 _symmetry_equiv_pos_site_id
 _symmetry_equiv_pos_as_xyz
  1  'x, y, z'
loop_
 _atom_site_type_symbol
 _atom_site_label
 _atom_site_symmetry_multiplicity
 _atom_site_fract_x
 _atom_site_fract_y
 _atom_site_fract_z
 _atom_site_occupancy
  Li  Li0  1  0.00372100  0.00223100  0.99904900  1
  Li  Li1  1  0.00013300  0.89706300  0.75062600  1
  Li  Li2  1  0.00079900  0.00004200  0.50044200  1
  Li  Li3  1  0.00691100  0.10380500  0.24923200  1
  Li  Li4  1  0.29018800  0.19447300  0.95283500  1
  Li  Li5  1  0.29422300  0.80723400  0.45050400  1
  Li  Li6  1  0.49824700  0.49856000  0.00067800  1
  Li  Li7  1  0.49738500  0.60226900  0.74730800  1
  Li  Li8  1  0.50304800  0.50364700  0.50051200  1
  Li  Li9  1  0.50282800  0.39838400  0.24958900  1
  Li  Li10  1  0.70898700  0.19437600  0.55262400  1
  Li  Li11  1  0.70746200  0.80426700  0.04904800  1
  Mn  Mn0  1  0.21012800  0.49817200  0.85271900  1
  Mn  Mn1  1  0.28868400  0.99252400  0.14277000  1
  Mn  Mn2  1  0.78927600  0.49943400  0.64542600  1
  Mn  Mn3  1  0.79080200  0.50242900  0.14727000  1
  V  V0  1  0.21438100  0.49960100  0.35603200  1
  V  V1  1  0.28411600  0.00354800  0.64097400  1
  V  V2  1  0.71528100  0.00269300  0.85800900  1
  V  V3  1  0.71650700  0.99829100  0.35923600  1
  P  P0  1  0.99917700  0.19985600  0.75097900  1
  P  P1  1  0.00485300  0.79913600  0.24994500  1
  P  P2  1  0.15526700  0.64608800  0.60324700  1
  P  P3  1  0.15228800  0.35552300  0.10634300  1
  P  P4  1  0.34797800  0.85199800  0.89487500  1
  P  P5  1  0.34893200  0.14880800  0.39700000  1
  P  P6  1  0.50015200  0.29393800  0.75060300  1
  P  P7  1  0.50506600  0.70459400  0.25055100  1
  P  P8  1  0.64705500  0.85390300  0.60210800  1
  P  P9  1  0.64684700  0.14517000  0.10502100  1
  P  P10  1  0.84653500  0.64397400  0.89318800  1
  P  P11  1  0.84284400  0.35490900  0.39726500  1
  O  O0  1  0.01771200  0.58867300  0.89397600  1
  O  O1  1  0.01266500  0.41089000  0.39518300  1
  O  O2  1  0.07076700  0.08819500  0.66660400  1
  O  O3  1  0.07852600  0.90744500  0.16456500  1
  O  O4  1  0.12562400  0.29565500  0.81276700  1
  O  O5  1  0.12716100  0.70288100  0.30995200  1
  O  O6  1  0.14372500  0.82178500  0.58818200  1
  O  O7  1  0.13580800  0.17969300  0.09327900  1
  O  O8  1  0.25297200  0.59931500  0.70261400  1
  O  O9  1  0.24914600  0.93857300  0.97943200  1
  O  O10  1  0.25011600  0.59169800  0.50409900  1
  O  O11  1  0.24269600  0.40417000  0.21128700  1
  O  O12  1  0.25103700  0.06463500  0.48278800  1
  O  O13  1  0.27602700  0.90258300  0.78564800  1
  O  O14  1  0.25460600  0.40810500  0.01260000  1
  O  O15  1  0.27202600  0.09697800  0.28869200  1
  O  O16  1  0.34700300  0.67688100  0.90610300  1
  O  O17  1  0.34801400  0.32356100  0.41076500  1
  O  O18  1  0.38141900  0.19824400  0.68552500  1
  O  O19  1  0.38786800  0.79570400  0.18276900  1
  O  O20  1  0.42334600  0.40294900  0.83559500  1
  O  O21  1  0.43169000  0.59703200  0.33440000  1
  O  O22  1  0.47114300  0.90123700  0.58914200  1
  O  O23  1  0.46740500  0.10369700  0.09259100  1
  O  O24  1  0.52629400  0.89246600  0.90844300  1
  O  O25  1  0.52649100  0.10817900  0.40862500  1
  O  O26  1  0.57654400  0.39993100  0.66573600  1
  O  O27  1  0.58257700  0.59665400  0.16489100  1
  O  O28  1  0.61513600  0.19781700  0.81616800  1
  O  O29  1  0.61981000  0.80499400  0.31524400  1
  O  O30  1  0.64175500  0.68133200  0.58871200  1
  O  O31  1  0.64653300  0.31884100  0.09283100  1
  O  O32  1  0.72267000  0.90463300  0.71202900  1
  O  O33  1  0.74627200  0.59089500  0.98823300  1
  O  O34  1  0.72144900  0.09363100  0.21286600  1
  O  O35  1  0.74786600  0.93950700  0.51840500  1
  O  O36  1  0.75494000  0.59542400  0.78872400  1
  O  O37  1  0.74747300  0.41032800  0.49605900  1
  O  O38  1  0.74373100  0.05984900  0.01838300  1
  O  O39  1  0.74696300  0.40141300  0.29633700  1
  O  O40  1  0.85800600  0.82059500  0.90608400  1
  O  O41  1  0.85409700  0.17933100  0.41126200  1
  O  O42  1  0.87340900  0.28723600  0.68872300  1
  O  O43  1  0.87644700  0.71076200  0.18539400  1
  O  O44  1  0.93295900  0.09052100  0.83757000  1
  O  O45  1  0.93540300  0.91096200  0.33465000  1
  O  O46  1  0.98348100  0.59033600  0.60498000  1
  O  O47  1  0.98109300  0.41284500  0.10508900  1
loop_
_geom_bond_atom_site_label_1
_geom_bond_atom_site_label_2
_geom_bond_distance
_geom_bond_site_symmetry_2
Li0 O9 2.174235 1_545
Li0 O7 2.226004 1_556
Li0 O44 2.230551 1_455
Li0 O38 2.279406 1_456
Li0 O40 2.301577 1_445
Li0 O3 2.305150 1_546
Li1 O2 2.094847 1_565
Li1 O44 2.106506 1_465
Li1 O13 2.361264 1_555
Li1 O32 2.382963 1_455
Li1 O40 2.408258 1_455
Li1 O6 2.474173 1_555
Li2 O12 2.207209 1_555
Li2 O35 2.220798 1_445
Li2 O45 2.251239 1_445
Li2 O2 2.261325 1_555
Li2 O6 2.266458 1_545
Li2 O41 2.298211 1_455
Li3 O45 2.118352 1_445
Li3 O3 2.124346 1_545
Li3 O15 2.282548 1_555
Li3 O7 2.355545 1_555
Li3 O34 2.444224 1_455
Li3 O41 2.511720 1_455
Li4 O14 2.053656 1_556
Li4 O7 2.215649 1_556
Li4 O9 2.322658 1_545
Li4 O4 2.384427 1_555
Li4 O23 2.410232 1_556
Li5 O10 2.067162 1_555
Li5 O6 2.166138 1_555
Li5 O12 2.345395 1_565
Li5 O22 2.388419 1_555
Li5 O5 2.389024 1_555
Li6 O14 2.216546 1_555
Li6 O33 2.257611 1_554
Li6 O20 2.282270 1_554
Li6 O27 2.301885 1_555
Li6 O31 2.325708 1_555
Li6 O16 2.345208 1_554
Li7 O8 2.124711 1_555
Li7 O26 2.169463 1_555
Li7 O20 2.189824 1_555
Li7 O36 2.224986 1_555
Li7 O30 2.456823 1_555
Li7 O16 2.465775 1_555
Li8 O30 2.218676 1_555
Li8 O37 2.233274 1_555
Li8 O10 2.283121 1_555
Li8 O21 2.299982 1_555
Li8 O17 2.315410 1_555
Li8 O26 2.330253 1_555
Li9 O39 2.128542 1_555
Li9 O21 2.140584 1_555
Li9 O27 2.174307 1_555
Li9 O11 2.238419 1_555
Li9 O31 2.426963 1_555
Li9 O17 2.519331 1_555
Li10 O37 2.075166 1_555
Li10 O41 2.176392 1_555
Li10 O42 2.300060 1_555
Li10 O35 2.321839 1_545
Li10 O25 2.441963 1_555
Li10 O26 2.571057 1_555
Li11 O33 2.060829 1_554
Li11 O40 2.222426 1_554
Li11 O38 2.322828 1_565
Li11 O43 2.347321 1_555
Li11 O24 2.430190 1_554
Li11 O27 2.590397 1_555
Mn0 O0 1.900088 1_555
Mn0 O4 1.981183 1_555
Mn0 O20 2.011652 1_555
Mn0 O16 2.049371 1_555
Mn0 O8 2.120251 1_555
Mn0 O14 2.174688 1_556
Mn1 O23 1.923209 1_565
Mn1 O3 1.954351 1_555
Mn1 O19 2.002737 1_555
Mn1 O15 2.036141 1_565
Mn1 O9 2.097667 1_554
Mn1 O7 2.192836 1_565
Mn2 O46 1.908759 1_555
Mn2 O36 1.995079 1_555
Mn2 O26 2.023109 1_555
Mn2 O37 2.030116 1_555
Mn2 O42 2.086785 1_555
Mn2 O30 2.157627 1_555
Mn3 O47 1.884460 1_555
Mn3 O27 1.970645 1_555
Mn3 O43 2.026139 1_555
Mn3 O39 2.109936 1_555
Mn3 O31 2.121044 1_555
Mn3 O33 2.159804 1_554
O0 P10 1.531133 1_455
O1 P11 1.517958 1_455
O1 V0 1.951594 1_555
O2 P0 1.570696 1_455
O2 V1 1.991278 1_555
O3 P1 1.579282 1_555
O4 P0 1.543019 1_455
O5 P1 1.528336 1_555
O5 V0 2.034122 1_555
O6 P2 1.574730 1_555
O6 V1 2.084413 1_565
O7 P3 1.570630 1_555
O8 P2 1.529007 1_555
O9 P4 1.559908 1_555
O10 P2 1.563444 1_555
O10 V0 2.018900 1_555
O11 P3 1.548346 1_555
O11 V0 2.000905 1_555
O12 P5 1.563428 1_555
O12 V1 2.058028 1_555
O13 P4 1.544475 1_555
O13 V1 2.021773 1_565
O14 P3 1.546790 1_555
O15 P5 1.542077 1_555
O16 P4 1.560801 1_555
O17 P5 1.557100 1_555
O17 V0 2.044206 1_555
O18 P6 1.519519 1_555
O18 V1 1.974398 1_555
O19 P7 1.523949 1_555
O20 P6 1.579998 1_555
O21 P7 1.561054 1_555
O21 V0 2.052519 1_555
O22 P8 1.552666 1_555
O22 V1 1.950260 1_565
O23 P9 1.562304 1_555
O24 P4 1.552102 1_555
O24 V2 1.989685 1_565
O25 P5 1.549490 1_555
O25 V3 1.992897 1_545
O26 P6 1.572007 1_555
O27 P7 1.582487 1_555
O28 P6 1.522133 1_555
O28 V2 1.998777 1_555
O29 P7 1.519270 1_555
O29 V3 1.959765 1_555
O30 P8 1.537578 1_555
O31 P9 1.549313 1_555
O32 P8 1.552356 1_555
O32 V2 2.005973 1_565
O33 P10 1.550769 1_555
O34 P9 1.540647 1_555
O34 V3 2.017406 1_545
O35 P8 1.565241 1_555
O35 V3 2.062666 1_555
O36 P10 1.547932 1_555
O37 P11 1.565093 1_555
O38 P9 1.563313 1_555
O38 V2 2.058437 1_554
O39 P11 1.535965 1_555
O40 P10 1.574596 1_555
O40 V2 2.103793 1_565
O41 P11 1.571868 1_555
O41 V3 2.063640 1_545
O42 P0 1.518865 1_555
O43 P1 1.536675 1_655
O44 P0 1.570696 1_555
O44 V2 2.018935 1_555
O45 P1 1.567070 1_655
O45 V3 2.040915 1_555
O46 P2 1.532820 1_655
O47 P3 1.537122 1_655
