# generated using pymatgen
data_Al2Ni2O7
_symmetry_space_group_name_H-M   'P 1'
_cell_length_a   6.48146945
_cell_length_b   6.48146945
_cell_length_c   6.48146945
_cell_angle_alpha   60.00000000
_cell_angle_beta   60.00000000
_cell_angle_gamma   60.00000000
_symmetry_Int_Tables_number   1
_chemical_formula_structural   Al2Ni2O7
_chemical_formula_sum   'Al4 Ni4 O14'
_cell_volume   192.53311493
_cell_formula_units_Z   2
loop_
 _symmetry_equiv_pos_site_id
 _symmetry_equiv_pos_as_xyz
  1  'x, y, z'
loop_
 _atom_site_type_symbol
 _atom_site_label
 _atom_site_symmetry_multiplicity
 _atom_site_fract_x
 _atom_site_fract_y
 _atom_site_fract_z
 _atom_site_occupancy
  Al  Al0  1  0.62500000  0.62500000  0.12500000  1
  Al  Al1  1  0.62500000  0.12500000  0.62500000  1
  Al  Al2  1  0.12500000  0.62500000  0.62500000  1
  Al  Al3  1  0.62500000  0.62500000  0.62500000  1
  Ni  Ni0  1  0.12500000  0.12500000  0.62500000  1
  Ni  Ni1  1  0.12500000  0.62500000  0.12500000  1
  Ni  Ni2  1  0.62500000  0.12500000  0.12500000  1
  Ni  Ni3  1  0.12500000  0.12500000  0.12500000  1
  O  O0  1  0.75000000  0.75000000  0.75000000  1
  O  O1  1  0.50000000  0.50000000  0.50000000  1
  O  O2  1  0.02995900  0.47004100  0.02995900  1
  O  O3  1  0.77995900  0.22004100  0.77995900  1
  O  O4  1  0.02995900  0.02995900  0.47004100  1
  O  O5  1  0.47004100  0.02995900  0.02995900  1
  O  O6  1  0.02995900  0.47004100  0.47004100  1
  O  O7  1  0.47004100  0.47004100  0.02995900  1
  O  O8  1  0.47004100  0.02995900  0.47004100  1
  O  O9  1  0.22004100  0.77995900  0.77995900  1
  O  O10  1  0.77995900  0.22004100  0.22004100  1
  O  O11  1  0.22004100  0.77995900  0.22004100  1
  O  O12  1  0.77995900  0.77995900  0.22004100  1
  O  O13  1  0.22004100  0.22004100  0.77995900  1
loop_
_geom_bond_atom_site_label_1
_geom_bond_atom_site_label_2
_geom_bond_distance
_geom_bond_site_symmetry_2
Al0 O0 1.984537 1_554
Al0 O1 1.984537 1_555
Al0 O10 2.154780 1_555
Al0 O12 2.154780 1_555
Al0 O11 2.154780 1_555
Al0 O7 2.154780 1_555
Al0 O2 2.154780 1_655
Al0 O5 2.154780 1_565
Al1 O0 1.984537 1_545
Al1 O1 1.984537 1_555
Al1 O3 2.154780 1_555
Al1 O13 2.154780 1_555
Al1 O8 2.154780 1_555
Al1 O10 2.154780 1_555
Al1 O5 2.154780 1_556
Al1 O4 2.154780 1_655
Al2 O0 1.984537 1_455
Al2 O1 1.984537 1_555
Al2 O9 2.154780 1_555
Al2 O11 2.154780 1_555
Al2 O6 2.154780 1_555
Al2 O13 2.154780 1_555
Al2 O4 2.154780 1_565
Al2 O2 2.154780 1_556
Al3 O0 1.984537 1_555
Al3 O1 1.984537 1_555
Al3 O3 2.154780 1_555
Al3 O12 2.154780 1_555
Al3 O9 2.154780 1_555
Al3 O7 2.154780 1_556
Al3 O8 2.154780 1_565
Al3 O6 2.154780 1_655
Ni0 O13 1.839705 1_555
Ni0 O8 1.839705 1_555
Ni0 O6 1.839705 1_555
Ni0 O4 1.839705 1_555
Ni0 O3 1.839705 1_455
Ni0 O9 1.839705 1_545
Ni1 O11 1.839705 1_555
Ni1 O2 1.839705 1_555
Ni1 O6 1.839705 1_555
Ni1 O7 1.839705 1_555
Ni1 O9 1.839705 1_554
Ni1 O12 1.839705 1_455
Ni2 O10 1.839705 1_555
Ni2 O8 1.839705 1_555
Ni2 O5 1.839705 1_555
Ni2 O7 1.839705 1_555
Ni2 O3 1.839705 1_554
Ni2 O12 1.839705 1_545
Ni3 O5 1.839705 1_555
Ni3 O2 1.839705 1_555
Ni3 O4 1.839705 1_555
Ni3 O13 1.839705 1_554
Ni3 O11 1.839705 1_545
Ni3 O10 1.839705 1_455
