# generated using pymatgen
data_Ca3(VN2)2
_symmetry_space_group_name_H-M   'P 1'
_cell_length_a   5.64932300
_cell_length_b   9.88805900
_cell_length_c   9.20100000
_cell_angle_alpha   90.00000000
_cell_angle_beta   90.00000000
_cell_angle_gamma   90.00000000
_symmetry_Int_Tables_number   1
_chemical_formula_structural   Ca3(VN2)2
_chemical_formula_sum   'Ca12 V8 N16'
_cell_volume   513.97558087
_cell_formula_units_Z   4
loop_
 _symmetry_equiv_pos_site_id
 _symmetry_equiv_pos_as_xyz
  1  'x, y, z'
loop_
 _atom_site_type_symbol
 _atom_site_label
 _atom_site_symmetry_multiplicity
 _atom_site_fract_x
 _atom_site_fract_y
 _atom_site_fract_z
 _atom_site_occupancy
  Ca  Ca0  1  0.61533000  0.15537300  0.41791600  1
  Ca  Ca1  1  0.88467000  0.84462700  0.41791600  1
  Ca  Ca2  1  0.61533000  0.34462700  0.08208400  1
  Ca  Ca3  1  0.88467000  0.65537300  0.08208400  1
  Ca  Ca4  1  0.38467000  0.84462700  0.58208400  1
  Ca  Ca5  1  0.11533000  0.15537300  0.58208400  1
  Ca  Ca6  1  0.38467000  0.65537300  0.91791600  1
  Ca  Ca7  1  0.11533000  0.34462700  0.91791600  1
  Ca  Ca8  1  0.75000000  0.50000000  0.40309900  1
  Ca  Ca9  1  0.75000000  0.00000000  0.09690100  1
  Ca  Ca10  1  0.25000000  0.50000000  0.59690100  1
  Ca  Ca11  1  0.25000000  0.00000000  0.90309900  1
  V  V0  1  0.75000000  0.50000000  0.73605800  1
  V  V1  1  0.75000000  0.00000000  0.76394200  1
  V  V2  1  0.25000000  0.50000000  0.26394100  1
  V  V3  1  0.25000000  0.00000000  0.23605900  1
  V  V4  1  0.65053200  0.25000000  0.75000000  1
  V  V5  1  0.84946800  0.75000000  0.75000000  1
  V  V6  1  0.34946800  0.75000000  0.25000000  1
  V  V7  1  0.15053200  0.25000000  0.25000000  1
  N  N0  1  0.86291700  0.35235000  0.62428700  1
  N  N1  1  0.63708300  0.64765000  0.62428700  1
  N  N2  1  0.86291700  0.14765000  0.87571300  1
  N  N3  1  0.63708300  0.85235000  0.87571300  1
  N  N4  1  0.13708300  0.64765000  0.37571300  1
  N  N5  1  0.36291700  0.35235000  0.37571300  1
  N  N6  1  0.13708300  0.85235000  0.12428700  1
  N  N7  1  0.36291700  0.14765000  0.12428700  1
  N  N8  1  0.50231600  0.41320000  0.83749100  1
  N  N9  1  0.99768400  0.58680000  0.83749100  1
  N  N10  1  0.50231600  0.08680000  0.66250900  1
  N  N11  1  0.99768400  0.91320000  0.66250900  1
  N  N12  1  0.49768400  0.58680000  0.16250900  1
  N  N13  1  0.00231600  0.41320000  0.16250900  1
  N  N14  1  0.49768400  0.91320000  0.33749100  1
  N  N15  1  0.00231600  0.08680000  0.33749100  1
loop_
_geom_bond_atom_site_label_1
_geom_bond_atom_site_label_2
_geom_bond_distance
_geom_bond_site_symmetry_2
Ca0 N15 2.405588 1_655
Ca0 N10 2.435596 1_555
Ca0 N5 2.444947 1_555
Ca0 N14 2.592974 1_545
Ca1 N14 2.405588 1_555
Ca1 N11 2.435596 1_555
Ca1 N4 2.444947 1_655
Ca1 N15 2.592974 1_665
Ca2 N13 2.405588 1_655
Ca2 N8 2.435596 1_554
Ca2 N7 2.444947 1_555
Ca2 N12 2.592974 1_555
Ca3 N12 2.405588 1_555
Ca3 N9 2.435596 1_554
Ca3 N6 2.444947 1_655
Ca3 N13 2.592974 1_655
Ca4 N11 2.405588 1_455
Ca4 N14 2.435596 1_555
Ca4 N1 2.444947 1_555
Ca4 N10 2.592974 1_565
Ca5 N10 2.405588 1_555
Ca5 N15 2.435596 1_555
Ca5 N0 2.444947 1_455
Ca5 N11 2.592974 1_445
Ca6 N9 2.405588 1_455
Ca6 N12 2.435596 1_556
Ca6 N3 2.444947 1_555
Ca6 N8 2.592974 1_555
Ca7 N8 2.405588 1_555
Ca7 N13 2.435596 1_556
Ca7 N2 2.444947 1_455
Ca7 N9 2.592974 1_455
Ca8 N0 2.584624 1_555
Ca8 N1 2.584624 1_555
Ca8 N5 2.641385 1_555
Ca8 N4 2.641385 1_655
Ca8 N12 2.769257 1_555
Ca8 N13 2.769257 1_655
Ca9 N3 2.584624 1_544
Ca9 N2 2.584624 1_554
Ca9 N7 2.641385 1_555
Ca9 N6 2.641385 1_645
Ca9 N14 2.769257 1_545
Ca9 N15 2.769257 1_655
Ca10 N5 2.584624 1_555
Ca10 N4 2.584624 1_555
Ca10 N1 2.641385 1_555
Ca10 N0 2.641385 1_455
Ca10 N8 2.769257 1_555
Ca10 N9 2.769257 1_455
Ca11 N6 2.584624 1_546
Ca11 N7 2.584624 1_556
Ca11 N3 2.641385 1_545
Ca11 N2 2.641385 1_455
Ca11 N11 2.769257 1_445
Ca11 N10 2.769257 1_555
N0 V0 1.896327 1_555
N0 V4 1.949807 1_555
N1 V0 1.896327 1_555
N1 V5 1.949807 1_555
N2 V1 1.896327 1_555
N2 V4 1.949807 1_555
N3 V1 1.896327 1_565
N3 V5 1.949807 1_555
N4 V2 1.896332 1_555
N4 V6 1.949807 1_555
N5 V2 1.896332 1_555
N5 V7 1.949807 1_555
N6 V3 1.896332 1_565
N6 V6 1.949807 1_555
N7 V3 1.896332 1_555
N7 V7 1.949807 1_555
N8 V0 1.888270 1_555
N8 V4 1.988282 1_555
N9 V0 1.888270 1_555
N9 V5 1.988282 1_555
N10 V1 1.888270 1_555
N10 V4 1.988282 1_555
N11 V1 1.888270 1_565
N11 V5 1.988282 1_555
N12 V2 1.888265 1_555
N12 V6 1.988282 1_555
N13 V2 1.888265 1_555
N13 V7 1.988282 1_555
N14 V3 1.888265 1_565
N14 V6 1.988282 1_555
N15 V3 1.888265 1_555
N15 V7 1.988282 1_555
