# generated using pymatgen
data_Sb2HCSCl6O5F3
_symmetry_space_group_name_H-M   'P 1'
_cell_length_a   10.02182600
_cell_length_b   9.62480900
_cell_length_c   18.22168187
_cell_angle_alpha   72.23961394
_cell_angle_beta   90.00000000
_cell_angle_gamma   90.00000000
_symmetry_Int_Tables_number   1
_chemical_formula_structural   Sb2HCSCl6O5F3
_chemical_formula_sum   'Sb8 H4 C4 S4 Cl24 O20 F12'
_cell_volume   1673.86219795
_cell_formula_units_Z   4
loop_
 _symmetry_equiv_pos_site_id
 _symmetry_equiv_pos_as_xyz
  1  'x, y, z'
loop_
 _atom_site_type_symbol
 _atom_site_label
 _atom_site_symmetry_multiplicity
 _atom_site_fract_x
 _atom_site_fract_y
 _atom_site_fract_z
 _atom_site_occupancy
  Sb  Sb0  1  0.71912600  0.22390000  0.53988700  1
  Sb  Sb1  1  0.78087400  0.22390000  0.03988700  1
  Sb  Sb2  1  0.28087400  0.77610000  0.46011300  1
  Sb  Sb3  1  0.21912600  0.77610000  0.96011300  1
  Sb  Sb4  1  0.95285300  0.14298400  0.66792600  1
  Sb  Sb5  1  0.54714700  0.14298400  0.16792600  1
  Sb  Sb6  1  0.04714700  0.85701600  0.33207400  1
  Sb  Sb7  1  0.45285300  0.85701600  0.83207400  1
  H  H0  1  0.99166000  0.26927000  0.50598400  1
  H  H1  1  0.50834000  0.26927000  0.00598400  1
  H  H2  1  0.00834000  0.73073000  0.49401600  1
  H  H3  1  0.49166000  0.73073000  0.99401600  1
  C  C0  1  0.71367700  0.53187600  0.67954700  1
  C  C1  1  0.78632300  0.53187600  0.17954700  1
  C  C2  1  0.28632300  0.46812400  0.32045300  1
  C  C3  1  0.21367700  0.46812400  0.82045300  1
  S  S0  1  0.83676400  0.50320900  0.60691100  1
  S  S1  1  0.66323600  0.50320900  0.10691100  1
  S  S2  1  0.16323600  0.49679100  0.39308900  1
  S  S3  1  0.33676400  0.49679100  0.89308900  1
  Cl  Cl0  1  0.93648000  0.11651400  0.79889000  1
  Cl  Cl1  1  0.56352000  0.11651400  0.29889000  1
  Cl  Cl2  1  0.06352000  0.88348600  0.20111000  1
  Cl  Cl3  1  0.43648000  0.88348600  0.70111000  1
  Cl  Cl4  1  0.73673700  0.35765400  0.40954700  1
  Cl  Cl5  1  0.76326300  0.35765400  0.90954700  1
  Cl  Cl6  1  0.26326300  0.64234600  0.59045300  1
  Cl  Cl7  1  0.23673700  0.64234600  0.09045300  1
  Cl  Cl8  1  0.17798100  0.20804000  0.65126300  1
  Cl  Cl9  1  0.32201900  0.20804000  0.15126300  1
  Cl  Cl10  1  0.82201900  0.79196000  0.34873700  1
  Cl  Cl11  1  0.67798100  0.79196000  0.84873700  1
  Cl  Cl12  1  0.69567800  0.99715000  0.51992000  1
  Cl  Cl13  1  0.80432200  0.99715000  0.01992000  1
  Cl  Cl14  1  0.30432200  0.00285000  0.48008000  1
  Cl  Cl15  1  0.19567800  0.00285000  0.98008000  1
  Cl  Cl16  1  0.49452800  0.27205200  0.55616700  1
  Cl  Cl17  1  0.00547200  0.27205200  0.05616700  1
  Cl  Cl18  1  0.50547200  0.72794800  0.44383300  1
  Cl  Cl19  1  0.99452800  0.72794800  0.94383300  1
  Cl  Cl20  1  0.98312000  0.89906000  0.67572500  1
  Cl  Cl21  1  0.51688000  0.89906000  0.17572500  1
  Cl  Cl22  1  0.01688000  0.10094000  0.32427500  1
  Cl  Cl23  1  0.48312000  0.10094000  0.82427500  1
  O  O0  1  0.75736500  0.15179600  0.65173600  1
  O  O1  1  0.74263500  0.15179600  0.15173600  1
  O  O2  1  0.24263500  0.84820400  0.34826400  1
  O  O3  1  0.25736500  0.84820400  0.84826400  1
  O  O4  1  0.92918500  0.21068000  0.54613700  1
  O  O5  1  0.57081500  0.21068000  0.04613700  1
  O  O6  1  0.07081500  0.78932000  0.45386300  1
  O  O7  1  0.42918500  0.78932000  0.95386300  1
  O  O8  1  0.75425400  0.45030700  0.55299600  1
  O  O9  1  0.74574600  0.45030700  0.05299600  1
  O  O10  1  0.24574600  0.54969300  0.44700400  1
  O  O11  1  0.25425400  0.54969300  0.94700400  1
  O  O12  1  0.93122900  0.39101200  0.65257100  1
  O  O13  1  0.56877100  0.39101200  0.15257100  1
  O  O14  1  0.06877100  0.60898800  0.34742900  1
  O  O15  1  0.43122900  0.60898800  0.84742900  1
  O  O16  1  0.89621500  0.64420300  0.57168500  1
  O  O17  1  0.60378500  0.64420300  0.07168500  1
  O  O18  1  0.10378500  0.35579700  0.42831500  1
  O  O19  1  0.39621500  0.35579700  0.92831500  1
  F  F0  1  0.65335200  0.40481900  0.71636100  1
  F  F1  1  0.84664800  0.40481900  0.21636100  1
  F  F2  1  0.34664800  0.59518100  0.28363900  1
  F  F3  1  0.15335200  0.59518100  0.78363900  1
  F  F4  1  0.62188400  0.63023800  0.64278500  1
  F  F5  1  0.87811600  0.63023800  0.14278500  1
  F  F6  1  0.37811600  0.36976200  0.35721500  1
  F  F7  1  0.12188400  0.36976200  0.85721500  1
  F  F8  1  0.77980400  0.58147500  0.73087200  1
  F  F9  1  0.72019600  0.58147500  0.23087200  1
  F  F10  1  0.22019600  0.41852500  0.26912800  1
  F  F11  1  0.27980400  0.41852500  0.76912800  1
loop_
_geom_bond_atom_site_label_1
_geom_bond_atom_site_label_2
_geom_bond_distance
_geom_bond_site_symmetry_2
H0 O4 0.996809 1_555
H1 O5 0.996809 1_555
H2 O6 0.996809 1_555
H3 O7 0.996809 1_555
C0 F4 1.343271 1_555
C0 F0 1.345551 1_555
C0 F8 1.346888 1_555
C1 F5 1.343271 1_555
C1 F1 1.345551 1_555
C1 F9 1.346888 1_555
C2 F6 1.343271 1_555
C2 F2 1.345551 1_555
C2 F10 1.346888 1_555
C3 F7 1.343271 1_555
C3 F3 1.345551 1_555
C3 F11 1.346888 1_555
Cl0 Sb4 2.327177 1_555
Cl1 Sb5 2.327177 1_555
Cl2 Sb6 2.327177 1_555
Cl3 Sb7 2.327177 1_555
Cl4 Sb0 2.337485 1_555
Cl5 Sb1 2.337485 1_556
Cl6 Sb2 2.337485 1_555
Cl7 Sb3 2.337485 1_554
Cl8 Sb4 2.336382 1_455
Cl9 Sb5 2.336382 1_555
Cl10 Sb6 2.336382 1_655
Cl11 Sb7 2.336382 1_555
Cl12 Sb0 2.331308 1_565
Cl13 Sb1 2.331308 1_565
Cl14 Sb2 2.331308 1_545
Cl15 Sb3 2.331308 1_545
Cl16 Sb0 2.335195 1_555
Cl17 Sb1 2.335195 1_455
Cl18 Sb2 2.335195 1_555
Cl19 Sb3 2.335195 1_655
Cl20 Sb4 2.328188 1_565
Cl21 Sb5 2.328188 1_565
Cl22 Sb6 2.328188 1_545
Cl23 Sb7 2.328188 1_545
O0 Sb4 1.979196 1_555
O0 Sb0 1.979735 1_555
O1 Sb5 1.979196 1_555
O1 Sb1 1.979735 1_555
O2 Sb6 1.979196 1_555
O2 Sb2 1.979735 1_555
O3 Sb7 1.979196 1_555
O3 Sb3 1.979735 1_555
O4 Sb0 2.109995 1_555
O4 Sb4 2.126855 1_555
O5 Sb1 2.109995 1_555
O5 Sb5 2.126855 1_555
O6 Sb2 2.109995 1_555
O6 Sb6 2.126855 1_555
O7 Sb3 2.109995 1_555
O7 Sb7 2.126855 1_555
O8 S0 1.487732 1_555
O8 Sb0 2.290662 1_555
O9 S1 1.487732 1_555
O9 Sb1 2.290662 1_555
O10 S2 1.487732 1_555
O10 Sb2 2.290662 1_555
O11 S3 1.487732 1_555
O11 Sb3 2.290662 1_555
O12 S0 1.485427 1_555
O12 Sb4 2.327357 1_555
O13 S1 1.485427 1_555
O13 Sb5 2.327357 1_555
O14 S2 1.485427 1_555
O14 Sb6 2.327357 1_555
O15 S3 1.485427 1_555
O15 Sb7 2.327357 1_555
O16 S0 1.441230 1_555
O17 S1 1.441230 1_555
O18 S2 1.441230 1_555
O19 S3 1.441230 1_555
