# generated using pymatgen
data_Sr2LiLaTaO6
_symmetry_space_group_name_H-M   'P 1'
_cell_length_a   6.30037926
_cell_length_b   6.07608796
_cell_length_c   6.30037926
_cell_angle_alpha   61.17080222
_cell_angle_beta   59.44687716
_cell_angle_gamma   61.17080222
_symmetry_Int_Tables_number   1
_chemical_formula_structural   Sr2LiLaTaO6
_chemical_formula_sum   'Sr2 Li1 La1 Ta1 O6'
_cell_volume   172.74139447
_cell_formula_units_Z   1
loop_
 _symmetry_equiv_pos_site_id
 _symmetry_equiv_pos_as_xyz
  1  'x, y, z'
loop_
 _atom_site_type_symbol
 _atom_site_label
 _atom_site_symmetry_multiplicity
 _atom_site_fract_x
 _atom_site_fract_y
 _atom_site_fract_z
 _atom_site_occupancy
  Sr  Sr0  1  0.81586700  0.68413300  0.81586700  1
  Sr  Sr1  1  0.18413300  0.31586700  0.18413300  1
  Li  Li0  1  0.50000000  0.00000000  0.50000000  1
  La  La0  1  0.50000000  0.50000000  0.50000000  1
  Ta  Ta0  1  0.00000000  0.00000000  0.00000000  1
  O  O0  1  0.77158300  0.76412400  0.22841700  1
  O  O1  1  0.22841700  0.23587600  0.77158300  1
  O  O2  1  0.77563500  0.22436500  0.77563500  1
  O  O3  1  0.22436500  0.77563500  0.22436500  1
  O  O4  1  0.22841700  0.76412400  0.77158300  1
  O  O5  1  0.77158300  0.23587600  0.22841700  1
loop_
_geom_bond_atom_site_label_1
_geom_bond_atom_site_label_2
_geom_bond_distance
_geom_bond_site_symmetry_2
Li0 O5 2.221044 1_555
Li0 O1 2.221044 1_555
Li0 O0 2.221044 1_545
Li0 O4 2.221044 1_545
Li0 Sr1 2.874691 1_555
Li0 Sr0 2.874691 1_545
La0 O0 2.335482 1_555
La0 O4 2.335482 1_555
La0 O5 2.335482 1_555
La0 O1 2.335482 1_555
La0 O2 2.508541 1_555
La0 O3 2.508541 1_555
O0 Ta0 2.022520 1_665
O0 Sr0 2.724021 1_554
O0 Sr1 2.724021 1_655
O1 Ta0 2.022520 1_556
O1 Sr0 2.724021 1_455
O1 Sr1 2.724021 1_556
O2 Ta0 2.041936 1_656
O2 Sr0 3.060029 1_545
O2 Sr0 3.060029 1_555
O2 Sr1 3.232910 1_655
O2 Sr1 3.232910 1_556
O3 Ta0 2.041936 1_565
O3 Sr1 3.060029 1_555
O3 Sr1 3.060029 1_565
O3 Sr0 3.232910 1_455
O3 Sr0 3.232910 1_554
O4 Ta0 2.022520 1_566
O4 Sr0 2.724021 1_455
O4 Sr1 2.724021 1_556
O5 Ta0 2.022520 1_655
O5 Sr0 2.724021 1_554
O5 Sr1 2.724021 1_655
