# generated using pymatgen
data_MgI3
_symmetry_space_group_name_H-M   'P 1'
_cell_length_a   11.67942526
_cell_length_b   11.67942449
_cell_length_c   3.48693275
_cell_angle_alpha   90.00000000
_cell_angle_beta   90.00000000
_cell_angle_gamma   119.99999113
_symmetry_Int_Tables_number   1
_chemical_formula_structural   MgI3
_chemical_formula_sum   'Mg2 I6'
_cell_volume   411.92405771
_cell_formula_units_Z   2
loop_
 _symmetry_equiv_pos_site_id
 _symmetry_equiv_pos_as_xyz
  1  'x, y, z'
loop_
 _atom_site_type_symbol
 _atom_site_label
 _atom_site_symmetry_multiplicity
 _atom_site_fract_x
 _atom_site_fract_y
 _atom_site_fract_z
 _atom_site_occupancy
  Mg  Mg0  1  0.66666700  0.33333300  0.24999900  1
  Mg  Mg1  1  0.33333300  0.66666700  0.75000000  1
  I  I0  1  0.21683161  0.43366521  0.24999900  1
  I  I1  1  0.21683261  0.78316739  0.24999900  1
  I  I2  1  0.56633379  0.78316739  0.24999900  1
  I  I3  1  0.43366621  0.21683161  0.75000000  1
  I  I4  1  0.78316739  0.21683161  0.75000000  1
  I  I5  1  0.78316839  0.56633479  0.75000000  1
loop_
_geom_bond_atom_site_label_1
_geom_bond_atom_site_label_2
_geom_bond_distance
_geom_bond_site_symmetry_2
I0 Mg1 2.931532 1_554
I0 Mg1 2.931536 1_555
I1 Mg1 2.931523 1_554
I1 Mg1 2.931528 1_555
I2 Mg1 2.931524 1_554
I2 Mg1 2.931528 1_555
I3 Mg0 2.931524 1_556
I3 Mg0 2.931528 1_555
I4 Mg0 2.931532 1_556
I4 Mg0 2.931536 1_555
I5 Mg0 2.931532 1_556
I5 Mg0 2.931536 1_555
