# generated using pymatgen
data_Ni4O
_symmetry_space_group_name_H-M   'P 1'
_cell_length_a   3.86262600
_cell_length_b   3.86262600
_cell_length_c   3.86262600
_cell_angle_alpha   90.00000000
_cell_angle_beta   90.00000000
_cell_angle_gamma   90.00000000
_symmetry_Int_Tables_number   1
_chemical_formula_structural   Ni4O
_chemical_formula_sum   'Ni4 O1'
_cell_volume   57.62991492
_cell_formula_units_Z   1
loop_
 _symmetry_equiv_pos_site_id
 _symmetry_equiv_pos_as_xyz
  1  'x, y, z'
loop_
 _atom_site_type_symbol
 _atom_site_label
 _atom_site_symmetry_multiplicity
 _atom_site_fract_x
 _atom_site_fract_y
 _atom_site_fract_z
 _atom_site_occupancy
  Ni  Ni0  1  0.00000000  0.00000000  0.00000000  1
  Ni  Ni1  1  0.50000000  0.50000000  0.00000000  1
  Ni  Ni2  1  0.50000000  0.00000000  0.50000000  1
  Ni  Ni3  1  0.00000000  0.50000000  0.50000000  1
  O  O0  1  0.50000000  0.50000000  0.50000000  1
loop_
_geom_bond_atom_site_label_1
_geom_bond_atom_site_label_2
_geom_bond_distance
_geom_bond_site_symmetry_2
Ni0 Ni2 2.731289 1_455
Ni0 Ni3 2.731289 1_554
Ni0 Ni2 2.731289 1_454
Ni0 Ni1 2.731289 1_555
Ni0 Ni1 2.731289 1_455
Ni0 Ni2 2.731289 1_555
Ni0 Ni1 2.731289 1_545
Ni0 Ni3 2.731289 1_555
Ni0 Ni1 2.731289 1_445
Ni0 Ni3 2.731289 1_544
Ni0 Ni3 2.731289 1_545
Ni0 Ni2 2.731289 1_554
Ni1 O0 1.931313 1_555
Ni1 O0 1.931313 1_554
Ni2 O0 1.931313 1_555
Ni2 O0 1.931313 1_545
Ni3 O0 1.931313 1_455
Ni3 O0 1.931313 1_555
