# generated using pymatgen
data_Pr2Cr2Co15
_symmetry_space_group_name_H-M   'P 1'
_cell_length_a   6.32528173
_cell_length_b   6.32528173
_cell_length_c   6.29491802
_cell_angle_alpha   83.15718146
_cell_angle_beta   83.15718146
_cell_angle_gamma   83.68934881
_symmetry_Int_Tables_number   1
_chemical_formula_structural   Pr2Cr2Co15
_chemical_formula_sum   'Pr2 Cr2 Co15'
_cell_volume   247.10604107
_cell_formula_units_Z   1
loop_
 _symmetry_equiv_pos_site_id
 _symmetry_equiv_pos_as_xyz
  1  'x, y, z'
loop_
 _atom_site_type_symbol
 _atom_site_label
 _atom_site_symmetry_multiplicity
 _atom_site_fract_x
 _atom_site_fract_y
 _atom_site_fract_z
 _atom_site_occupancy
  Pr  Pr0  1  0.65231300  0.65231300  0.64907900  1
  Pr  Pr1  1  0.34768700  0.34768700  0.35092100  1
  Cr  Cr0  1  0.50000000  0.00000000  0.00000000  1
  Cr  Cr1  1  0.00000000  0.50000000  0.00000000  1
  Co  Co0  1  0.71554100  0.28445900  0.00000000  1
  Co  Co1  1  0.00013300  0.71672900  0.28310200  1
  Co  Co2  1  0.28327100  0.99986700  0.71689800  1
  Co  Co3  1  0.99986700  0.28327100  0.71689800  1
  Co  Co4  1  0.71672900  0.00013300  0.28310200  1
  Co  Co5  1  0.28445900  0.71554100  0.00000000  1
  Co  Co6  1  0.34251800  0.34251800  0.85880300  1
  Co  Co7  1  0.85751000  0.34132400  0.34180700  1
  Co  Co8  1  0.34132400  0.85751000  0.34180700  1
  Co  Co9  1  0.65748200  0.65748200  0.14119700  1
  Co  Co10  1  0.14249000  0.65867600  0.65819300  1
  Co  Co11  1  0.65867600  0.14249000  0.65819300  1
  Co  Co12  1  0.90356300  0.90356300  0.90245000  1
  Co  Co13  1  0.09643700  0.09643700  0.09755000  1
  Co  Co14  1  0.00000000  0.00000000  0.50000000  1
loop_
_geom_bond_atom_site_label_1
_geom_bond_atom_site_label_2
_geom_bond_distance
_geom_bond_site_symmetry_2
Cr0 Pr0 3.290780 1_544
Cr0 Pr1 3.290780 1_555
Cr1 Pr1 3.290780 1_555
Cr1 Pr0 3.290780 1_454
Co0 Cr0 2.373909 1_555
Co0 Cr1 2.373909 1_655
Co0 Co3 2.376307 1_554
Co0 Co4 2.376307 1_555
Co0 Co7 2.506232 1_555
Co0 Co11 2.506232 1_554
Co0 Co6 2.592964 1_554
Co0 Co9 2.592964 1_555
Co0 Co13 2.672959 1_655
Co0 Co12 2.672959 1_544
Co0 Pr1 3.038877 1_555
Co0 Pr0 3.038877 1_554
Co1 Cr1 2.374437 1_555
Co1 Co5 2.376307 1_555
Co1 Co14 2.378441 1_565
Co1 Co4 2.391749 1_465
Co1 Co8 2.505589 1_555
Co1 Co9 2.521019 1_455
Co1 Co10 2.597710 1_555
Co1 Co7 2.602160 1_455
Co1 Co13 2.643372 1_565
Co1 Co12 2.650785 1_454
Co1 Pr0 3.013197 1_455
Co1 Pr1 3.053209 1_555
Co2 Cr0 2.374437 1_566
Co2 Co5 2.376307 1_556
Co2 Co3 2.391749 1_465
Co2 Co6 2.521019 1_565
Co2 Co8 2.597710 1_555
Co2 Pr1 3.013197 1_565
Co2 Pr0 3.053209 1_555
Co3 Cr1 2.374437 1_656
Co3 Co6 2.521019 1_655
Co3 Co7 2.597710 1_555
Co3 Pr1 3.013197 1_655
Co3 Pr0 3.053209 1_555
Co4 Cr0 2.374437 1_555
Co4 Co7 2.505589 1_555
Co4 Co9 2.521019 1_545
Co4 Co8 2.602160 1_545
Co4 Pr0 3.013197 1_545
Co4 Pr1 3.053209 1_555
Co5 Cr0 2.373909 1_565
Co5 Cr1 2.373909 1_555
Co5 Co8 2.506232 1_555
Co5 Co9 2.592964 1_555
Co5 Co6 2.592964 1_554
Co5 Pr1 3.038877 1_555
Co5 Pr0 3.038877 1_554
Co6 Cr1 2.398698 1_556
Co6 Cr0 2.398698 1_556
Co6 Pr0 3.005618 1_555
Co6 Pr1 3.106006 1_556
Co6 Pr1 3.189647 1_555
Co7 Cr1 2.381473 1_655
Co7 Co9 2.533262 1_555
Co7 Pr0 3.007084 1_555
Co7 Pr1 3.112624 1_655
Co7 Pr1 3.214344 1_555
Co8 Cr0 2.381473 1_565
Co8 Co9 2.533262 1_555
Co8 Pr0 3.007084 1_555
Co8 Pr1 3.112624 1_565
Co8 Pr1 3.214344 1_555
Co9 Cr0 2.398698 1_565
Co9 Cr1 2.398698 1_655
Co9 Pr1 3.005618 1_555
Co9 Pr0 3.106006 1_554
Co9 Pr0 3.189647 1_555
Co10 Cr1 2.381473 1_556
Co10 Co14 2.395601 1_565
Co10 Co2 2.505589 1_555
Co10 Co5 2.506232 1_556
Co10 Co8 2.506803 1_555
Co10 Co6 2.533262 1_555
Co10 Co12 2.558639 1_455
Co10 Co3 2.602160 1_455
Co10 Pr1 3.007084 1_555
Co10 Pr0 3.112624 1_455
Co10 Pr0 3.214344 1_555
Co11 Cr0 2.381473 1_556
Co11 Co14 2.395601 1_655
Co11 Co3 2.505589 1_555
Co11 Co7 2.506803 1_555
Co11 Co6 2.533262 1_555
Co11 Co12 2.558639 1_545
Co11 Co4 2.597710 1_555
Co11 Co2 2.602160 1_545
Co11 Pr1 3.007084 1_555
Co11 Pr0 3.112624 1_545
Co11 Pr0 3.214344 1_555
Co12 Co13 2.350809 1_666
Co12 Co14 2.550991 1_665
Co12 Co9 2.553824 1_556
Co12 Cr1 2.576551 1_656
Co12 Cr0 2.576551 1_566
Co12 Co3 2.643372 1_565
Co12 Co2 2.643372 1_655
Co12 Co4 2.650785 1_566
Co12 Co5 2.672959 1_656
Co12 Pr0 3.059150 1_555
Co13 Co14 2.550991 1_555
Co13 Co6 2.553824 1_554
Co13 Co8 2.558639 1_545
Co13 Co7 2.558639 1_455
Co13 Cr0 2.576551 1_555
Co13 Cr1 2.576551 1_555
Co13 Co4 2.643372 1_455
Co13 Co2 2.650785 1_544
Co13 Co3 2.650785 1_454
Co13 Co5 2.672959 1_545
Co13 Pr1 3.059150 1_555
Co14 Co2 2.378441 1_545
Co14 Co3 2.378441 1_455
Co14 Co4 2.378441 1_455
Co14 Co7 2.395601 1_455
Co14 Co8 2.395601 1_545
Co14 Pr1 3.260899 1_555
Co14 Pr0 3.260899 1_445
