# generated using pymatgen
data_Ba3Li(AsO4)2
_symmetry_space_group_name_H-M   'P 1'
_cell_length_a   9.62121252
_cell_length_b   9.62121287
_cell_length_c   7.62253684
_cell_angle_alpha   37.60457694
_cell_angle_beta   37.60457611
_cell_angle_gamma   35.65351081
_symmetry_Int_Tables_number   1
_chemical_formula_structural   Ba3Li(AsO4)2
_chemical_formula_sum   'Ba3 Li1 As2 O8'
_cell_volume   228.04740378
_cell_formula_units_Z   1
loop_
 _symmetry_equiv_pos_site_id
 _symmetry_equiv_pos_as_xyz
  1  'x, y, z'
loop_
 _atom_site_type_symbol
 _atom_site_label
 _atom_site_symmetry_multiplicity
 _atom_site_fract_x
 _atom_site_fract_y
 _atom_site_fract_z
 _atom_site_occupancy
  Ba  Ba0  1  0.66814100  0.66814100  0.01437200  1
  Ba  Ba1  1  0.33185900  0.33185900  0.98562800  1
  Ba  Ba2  1  0.00000000  0.00000000  0.00000000  1
  Li  Li0  1  0.00000000  0.00000000  0.50000000  1
  As  As0  1  0.66547100  0.66547100  0.45411900  1
  As  As1  1  0.33452900  0.33452900  0.54588100  1
  O  O0  1  0.66970500  0.66970500  0.67638500  1
  O  O1  1  0.33029500  0.33029500  0.32361500  1
  O  O2  1  0.82515500  0.82515500  0.03497600  1
  O  O3  1  0.82487700  0.34300900  0.52310600  1
  O  O4  1  0.34300900  0.82487700  0.52310600  1
  O  O5  1  0.17512300  0.65699100  0.47689400  1
  O  O6  1  0.17484500  0.17484500  0.96502400  1
  O  O7  1  0.65699100  0.17512300  0.47689400  1
loop_
_geom_bond_atom_site_label_1
_geom_bond_atom_site_label_2
_geom_bond_distance
_geom_bond_site_symmetry_2
Ba0 O0 2.552525 1_554
Ba0 O5 2.944690 1_555
Ba0 O7 2.944690 1_555
Ba0 O6 2.958934 1_564
Ba0 O6 2.958934 1_654
Ba0 O5 2.961578 1_654
Ba0 O7 2.961578 1_564
Ba0 O2 3.008227 1_555
Ba0 O3 3.078330 1_555
Ba0 O4 3.078330 1_555
Ba1 O1 2.552525 1_556
Ba1 O3 2.944690 1_555
Ba1 O4 2.944690 1_555
Ba1 O2 2.958934 1_546
Ba1 O2 2.958934 1_456
Ba1 O3 2.961578 1_456
Ba1 O4 2.961578 1_546
Ba1 O6 3.008227 1_555
Ba1 O5 3.078330 1_555
Ba1 O7 3.078330 1_555
Ba2 O5 2.933297 1_545
Ba2 O3 2.933297 1_454
Ba2 O7 2.933298 1_455
Ba2 O4 2.933298 1_544
Ba2 O6 2.984698 1_554
Ba2 O2 2.984698 1_445
Ba2 O1 3.357052 1_554
Ba2 O0 3.357052 1_445
Ba2 O1 3.414870 1_455
Ba2 O0 3.414870 1_544
Ba2 O1 3.414870 1_545
Ba2 O0 3.414870 1_454
Li0 O2 2.269123 1_446
Li0 O6 2.269123 1_554
Li0 O4 2.274952 1_545
Li0 O7 2.274952 1_455
Li0 O3 2.274953 1_455
Li0 O5 2.274953 1_545
As0 O0 1.759302 1_555
As0 O2 1.791436 1_555
As0 O4 1.792846 1_555
As0 O3 1.792846 1_555
As1 O1 1.759302 1_555
As1 O6 1.791436 1_555
As1 O7 1.792846 1_555
As1 O5 1.792846 1_555
