# generated using pymatgen
data_SrPr3(FeO3)4
_symmetry_space_group_name_H-M   'P 1'
_cell_length_a   7.85616900
_cell_length_b   5.55027300
_cell_length_c   5.61141775
_cell_angle_alpha   89.82309137
_cell_angle_beta   90.00000000
_cell_angle_gamma   90.00000000
_symmetry_Int_Tables_number   1
_chemical_formula_structural   SrPr3(FeO3)4
_chemical_formula_sum   'Sr1 Pr3 Fe4 O12'
_cell_volume   244.67843486
_cell_formula_units_Z   1
loop_
 _symmetry_equiv_pos_site_id
 _symmetry_equiv_pos_as_xyz
  1  'x, y, z'
loop_
 _atom_site_type_symbol
 _atom_site_label
 _atom_site_symmetry_multiplicity
 _atom_site_fract_x
 _atom_site_fract_y
 _atom_site_fract_z
 _atom_site_occupancy
  Sr  Sr0  1  0.50000000  0.49412200  0.53121200  1
  Pr  Pr0  1  0.50000000  0.01324700  0.04311600  1
  Pr  Pr1  1  0.00000000  0.50783700  0.45528700  1
  Pr  Pr2  1  0.00000000  0.99219900  0.95896700  1
  Fe  Fe0  1  0.25132000  0.49992300  0.99723400  1
  Fe  Fe1  1  0.74892800  0.00121700  0.50078500  1
  Fe  Fe2  1  0.74868000  0.49992300  0.99723400  1
  Fe  Fe3  1  0.25107200  0.00121700  0.50078500  1
  O  O0  1  0.28563200  0.20473300  0.79448200  1
  O  O1  1  0.71785600  0.27927800  0.28076700  1
  O  O2  1  0.79478400  0.78313700  0.21612500  1
  O  O3  1  0.20292800  0.71560300  0.71425600  1
  O  O4  1  0.20521600  0.78313700  0.21612500  1
  O  O5  1  0.79707200  0.71560300  0.71425600  1
  O  O6  1  0.71436800  0.20473300  0.79448200  1
  O  O7  1  0.28214400  0.27927800  0.28076700  1
  O  O8  1  0.50000000  0.58186300  0.99181500  1
  O  O9  1  0.50000000  0.94135800  0.47951400  1
  O  O10  1  0.00000000  0.42392100  0.01481500  1
  O  O11  1  0.00000000  0.07766800  0.51797700  1
loop_
_geom_bond_atom_site_label_1
_geom_bond_atom_site_label_2
_geom_bond_distance
_geom_bond_site_symmetry_2
Fe0 O8 2.006117 1_555
Fe0 O0 2.015664 1_555
Fe0 O7 2.019332 1_556
Fe0 O10 2.021317 1_556
Fe0 O3 2.021696 1_555
Fe0 O4 2.030449 1_556
Fe1 O9 1.987290 1_545
Fe1 O1 1.988444 1_555
Fe1 O6 2.019215 1_555
Fe1 O5 2.019704 1_545
Fe1 O11 2.019957 1_655
Fe1 O2 2.039194 1_545
Fe2 O8 2.006117 1_555
Fe2 O6 2.015664 1_555
Fe2 O1 2.019332 1_556
Fe2 O10 2.021317 1_656
Fe2 O5 2.021696 1_555
Fe2 O2 2.030449 1_556
Fe3 O9 1.987290 1_545
Fe3 O7 1.988444 1_555
Fe3 O0 2.019215 1_555
Fe3 O3 2.019704 1_545
Fe3 O11 2.019957 1_555
Fe3 O4 2.039194 1_545
O0 Pr0 2.429644 1_556
O0 Pr2 2.696686 1_545
O0 Sr0 2.753886 1_555
O1 Sr0 2.517252 1_555
O1 Pr0 2.626785 1_555
O1 Pr1 2.736632 1_655
O2 Pr2 2.453082 1_654
O2 Pr1 2.592756 1_655
O2 Pr0 2.815899 1_565
O3 Pr1 2.448153 1_555
O3 Pr2 2.607107 1_555
O3 Sr0 2.832098 1_555
O4 Pr2 2.453082 1_554
O4 Pr1 2.592756 1_555
O4 Pr0 2.815899 1_565
O5 Pr1 2.448153 1_655
O5 Pr2 2.607107 1_655
O5 Sr0 2.832098 1_555
O6 Pr0 2.429644 1_556
O6 Pr2 2.696686 1_645
O6 Sr0 2.753886 1_555
O7 Sr0 2.517252 1_555
O7 Pr0 2.626785 1_555
O7 Pr1 2.736632 1_555
O8 Pr0 2.412425 1_566
O8 Sr0 2.631591 1_555
O8 Sr0 3.064223 1_556
O9 Pr0 2.479889 1_565
O9 Sr0 2.498286 1_555
O9 Sr0 3.082568 1_565
O10 Pr2 2.417541 1_544
O10 Pr1 2.516586 1_555
O11 Pr1 2.412257 1_555
O11 Pr2 2.518199 1_545
