# generated using pymatgen
data_CaO
_symmetry_space_group_name_H-M   'P 1'
_cell_length_a   8.83411299
_cell_length_b   8.83411299
_cell_length_c   8.83411299
_cell_angle_alpha   158.23773274
_cell_angle_beta   158.23773274
_cell_angle_gamma   30.96737989
_symmetry_Int_Tables_number   1
_chemical_formula_structural   CaO
_chemical_formula_sum   'Ca2 O2'
_cell_volume   94.70419255
_cell_formula_units_Z   2
loop_
 _symmetry_equiv_pos_site_id
 _symmetry_equiv_pos_as_xyz
  1  'x, y, z'
loop_
 _atom_site_type_symbol
 _atom_site_label
 _atom_site_symmetry_multiplicity
 _atom_site_fract_x
 _atom_site_fract_y
 _atom_site_fract_z
 _atom_site_occupancy
  Ca  Ca0  1  0.32040300  0.32040300  0.00000000  1
  Ca  Ca1  1  0.67959700  0.67959700  0.00000000  1
  O  O0  1  0.18181400  0.18181400  0.00000000  1
  O  O1  1  0.81818600  0.81818600  0.00000000  1
loop_
_geom_bond_atom_site_label_1
_geom_bond_atom_site_label_2
_geom_bond_distance
_geom_bond_site_symmetry_2
Ca0 O1 2.358693 1_444
Ca0 O1 2.358693 1_545
Ca0 O1 2.358693 1_455
Ca0 O1 2.358693 1_556
Ca0 O0 2.359753 1_555
Ca1 O0 2.358693 1_655
Ca1 O0 2.358693 1_666
Ca1 O0 2.358693 1_554
Ca1 O0 2.358693 1_565
Ca1 O1 2.359753 1_555
