# generated using pymatgen
data_SrCdPb
_symmetry_space_group_name_H-M   'P 1'
_cell_length_a   6.45825164
_cell_length_b   6.45825164
_cell_length_c   8.16544283
_cell_angle_alpha   53.01669741
_cell_angle_beta   53.01669741
_cell_angle_gamma   46.07197429
_symmetry_Int_Tables_number   1
_chemical_formula_structural   SrCdPb
_chemical_formula_sum   'Sr2 Cd2 Pb2'
_cell_volume   185.61788190
_cell_formula_units_Z   2
loop_
 _symmetry_equiv_pos_site_id
 _symmetry_equiv_pos_as_xyz
  1  'x, y, z'
loop_
 _atom_site_type_symbol
 _atom_site_label
 _atom_site_symmetry_multiplicity
 _atom_site_fract_x
 _atom_site_fract_y
 _atom_site_fract_z
 _atom_site_occupancy
  Sr  Sr0  1  0.45518920  0.45518920  0.79921142  1
  Sr  Sr1  1  0.54481080  0.54481080  0.20078858  1
  Cd  Cd0  1  0.84806628  0.84806628  0.59042728  1
  Cd  Cd1  1  0.15193372  0.15193372  0.40957272  1
  Pb  Pb0  1  0.16825712  0.16825712  0.78111911  1
  Pb  Pb1  1  0.83174288  0.83174288  0.21888089  1
loop_
_geom_bond_atom_site_label_1
_geom_bond_atom_site_label_2
_geom_bond_distance
_geom_bond_site_symmetry_2
Cd0 Cd1 2.872830 1_665
Cd0 Pb0 3.004688 1_655
Cd0 Pb0 3.004688 1_565
Cd0 Pb1 3.164088 1_555
Cd0 Sr1 3.500044 1_565
Cd0 Sr1 3.500044 1_655
Cd0 Sr0 3.708430 1_655
Cd0 Sr0 3.708430 1_565
Cd0 Sr0 3.782316 1_555
Cd0 Sr1 3.787419 1_556
Cd1 Pb1 3.004688 1_455
Cd1 Pb1 3.004688 1_545
Cd1 Pb0 3.164088 1_555
Cd1 Sr0 3.500044 1_545
Cd1 Sr0 3.500044 1_455
Cd1 Sr1 3.708430 1_455
Cd1 Sr1 3.708430 1_545
Cd1 Sr1 3.782316 1_555
Cd1 Sr0 3.787419 1_554
Pb0 Pb1 3.175463 1_446
Pb0 Sr0 3.508982 1_555
Pb0 Sr0 3.511911 1_455
Pb0 Sr0 3.511911 1_545
Pb0 Sr1 3.702500 1_456
Pb0 Sr1 3.702500 1_546
Pb0 Sr1 3.841687 1_555
Pb1 Sr1 3.508982 1_555
Pb1 Sr1 3.511911 1_655
Pb1 Sr1 3.511911 1_565
Pb1 Sr0 3.702500 1_654
Pb1 Sr0 3.702500 1_564
Pb1 Sr0 3.841687 1_555
