# generated using pymatgen
data_MgVBiO5
_symmetry_space_group_name_H-M   'P 1'
_cell_length_a   5.18127524
_cell_length_b   10.43078516
_cell_length_c   15.48113850
_cell_angle_alpha   90.00000000
_cell_angle_beta   90.00000000
_cell_angle_gamma   90.00000000
_symmetry_Int_Tables_number   1
_chemical_formula_structural   MgVBiO5
_chemical_formula_sum   'Mg8 V8 Bi8 O40'
_cell_volume   836.67455228
_cell_formula_units_Z   8
loop_
 _symmetry_equiv_pos_site_id
 _symmetry_equiv_pos_as_xyz
  1  'x, y, z'
loop_
 _atom_site_type_symbol
 _atom_site_label
 _atom_site_symmetry_multiplicity
 _atom_site_fract_x
 _atom_site_fract_y
 _atom_site_fract_z
 _atom_site_occupancy
  Mg  Mg0  1  0.49877716  0.36575111  0.54891319  1
  Mg  Mg1  1  -0.00122284  0.13424889  0.54891319  1
  Mg  Mg2  1  -0.00122284  0.63424889  0.95108681  1
  Mg  Mg3  1  0.00122284  0.36575111  0.04891319  1
  Mg  Mg4  1  0.50122284  0.13424889  0.04891319  1
  Mg  Mg5  1  0.00122284  0.86575111  0.45108681  1
  Mg  Mg6  1  0.50122284  0.63424889  0.45108681  1
  Mg  Mg7  1  0.49877716  0.86575111  0.95108681  1
  V  V0  1  0.98589237  0.39664261  0.41123539  1
  V  V1  1  0.51410763  0.89664261  0.58876461  1
  V  V2  1  0.01410763  0.60335739  0.58876461  1
  V  V3  1  0.48589237  0.10335739  0.41123539  1
  V  V4  1  0.01410763  0.10335739  0.91123539  1
  V  V5  1  0.98589237  0.89664261  0.08876461  1
  V  V6  1  0.51410763  0.39664261  0.91123539  1
  V  V7  1  0.48589237  0.60335739  0.08876461  1
  Bi  Bi0  1  0.99315705  0.85746888  0.77020242  1
  Bi  Bi1  1  0.00684295  0.14253112  0.22979758  1
  Bi  Bi2  1  0.50684295  0.35746888  0.22979758  1
  Bi  Bi3  1  0.00684295  0.64253112  0.27020242  1
  Bi  Bi4  1  0.49315705  0.14253112  0.72979758  1
  Bi  Bi5  1  0.49315705  0.64253112  0.77020242  1
  Bi  Bi6  1  0.50684295  0.85746888  0.27020242  1
  Bi  Bi7  1  0.99315705  0.35746888  0.72979758  1
  O  O0  1  0.91563052  0.32032145  0.31377771  1
  O  O1  1  0.30335666  0.04269098  0.94611947  1
  O  O2  1  0.19664334  0.54269098  0.05388053  1
  O  O3  1  0.32333247  0.79223543  0.84297935  1
  O  O4  1  0.17666753  0.29223543  0.15702065  1
  O  O5  1  0.91563052  0.82032145  0.18622229  1
  O  O6  1  0.17666753  0.79223543  0.34297935  1
  O  O7  1  0.58436948  0.82032145  0.68622229  1
  O  O8  1  0.30335666  0.54269098  0.55388053  1
  O  O9  1  0.08436948  0.67967855  0.68622229  1
  O  O10  1  0.58436948  0.32032145  0.81377771  1
  O  O11  1  0.64177646  0.19746779  0.48477578  1
  O  O12  1  0.80335666  0.95730902  0.55388053  1
  O  O13  1  0.67666753  0.70776457  0.34297935  1
  O  O14  1  0.18441077  0.02469650  0.11813417  1
  O  O15  1  0.80335666  0.45730902  0.94611947  1
  O  O16  1  0.08436948  0.17967855  0.81377771  1
  O  O17  1  0.82333247  0.20776457  0.65702065  1
  O  O18  1  0.14177646  0.80253221  0.01522422  1
  O  O19  1  0.19664334  0.04269098  0.44611947  1
  O  O20  1  0.35822354  0.80253221  0.51522422  1
  O  O21  1  0.81558923  0.97530350  0.88186583  1
  O  O22  1  0.67666753  0.20776457  0.15702065  1
  O  O23  1  0.68441077  0.97530350  0.38186583  1
  O  O24  1  0.35822354  0.30253221  0.98477578  1
  O  O25  1  0.14177646  0.30253221  0.48477578  1
  O  O26  1  0.69664334  0.45730902  0.44611947  1
  O  O27  1  0.69664334  0.95730902  0.05388053  1
  O  O28  1  0.68441077  0.47530350  0.11813417  1
  O  O29  1  0.85822354  0.69746779  0.51522422  1
  O  O30  1  0.85822354  0.19746779  0.98477578  1
  O  O31  1  0.64177646  0.69746779  0.01522422  1
  O  O32  1  0.81558923  0.47530350  0.61813417  1
  O  O33  1  0.82333247  0.70776457  0.84297935  1
  O  O34  1  0.32333247  0.29223543  0.65702065  1
  O  O35  1  0.18441077  0.52469650  0.38186583  1
  O  O36  1  0.31558923  0.52469650  0.88186583  1
  O  O37  1  0.41563052  0.17967855  0.31377771  1
  O  O38  1  0.31558923  0.02469650  0.61813417  1
  O  O39  1  0.41563052  0.67967855  0.18622229  1
loop_
_geom_bond_atom_site_label_1
_geom_bond_atom_site_label_2
_geom_bond_distance
_geom_bond_site_symmetry_2
Mg0 O34 2.053139 1_555
Mg0 O8 2.106524 1_555
Mg0 O26 2.120268 1_555
Mg0 O11 2.148494 1_555
Mg0 O25 2.200497 1_555
Mg0 O32 2.269067 1_555
Mg1 O17 2.053139 1_455
Mg1 O12 2.106524 1_445
Mg1 O19 2.120268 1_555
Mg1 O25 2.148494 1_555
Mg1 O11 2.200497 1_455
Mg1 O38 2.269067 1_555
Mg2 O33 2.053139 1_455
Mg2 O15 2.106524 1_455
Mg2 O2 2.120268 1_556
Mg2 O18 2.148494 1_556
Mg2 O31 2.200497 1_456
Mg2 O36 2.269067 1_555
Mg3 O4 2.053139 1_555
Mg3 O2 2.106524 1_555
Mg3 O15 2.120268 1_454
Mg3 O30 2.148494 1_454
Mg3 O24 2.200497 1_554
Mg3 O28 2.269067 1_455
Mg4 O22 2.053139 1_555
Mg4 O27 2.106524 1_545
Mg4 O1 2.120268 1_554
Mg4 O24 2.148494 1_554
Mg4 O30 2.200497 1_554
Mg4 O14 2.269067 1_555
Mg5 O6 2.053139 1_555
Mg5 O19 2.106524 1_565
Mg5 O12 2.120268 1_455
Mg5 O29 2.148494 1_455
Mg5 O20 2.200497 1_555
Mg5 O23 2.269067 1_455
Mg6 O13 2.053139 1_555
Mg6 O26 2.106524 1_555
Mg6 O8 2.120268 1_555
Mg6 O20 2.148494 1_555
Mg6 O29 2.200497 1_555
Mg6 O35 2.269067 1_555
Mg7 O3 2.053139 1_555
Mg7 O1 2.106524 1_565
Mg7 O27 2.120268 1_556
Mg7 O31 2.148494 1_556
Mg7 O18 2.200497 1_556
Mg7 O21 2.269067 1_555
Bi0 O33 2.117076 1_555
Bi0 O3 2.158466 1_655
Bi0 O21 2.312029 1_555
Bi0 O9 2.313606 1_655
Bi0 O7 2.515257 1_555
Bi1 O4 2.117076 1_555
Bi1 O22 2.158466 1_455
Bi1 O14 2.312029 1_555
Bi1 O0 2.313606 1_455
Bi1 O37 2.515257 1_555
Bi2 O22 2.117076 1_555
Bi2 O4 2.158466 1_555
Bi2 O28 2.312029 1_555
Bi2 O37 2.313606 1_555
Bi2 O0 2.515257 1_555
Bi3 O6 2.117076 1_555
Bi3 O13 2.158466 1_455
Bi3 O35 2.312029 1_555
Bi3 O5 2.313606 1_455
Bi3 O39 2.515257 1_555
Bi4 O34 2.117076 1_555
Bi4 O17 2.158466 1_555
Bi4 O38 2.312029 1_555
Bi4 O10 2.313606 1_555
Bi4 O16 2.515257 1_555
Bi5 O3 2.117076 1_555
Bi5 O33 2.158466 1_555
Bi5 O36 2.312029 1_555
Bi5 O7 2.313606 1_555
Bi5 O9 2.515257 1_555
Bi6 O13 2.117076 1_555
Bi6 O6 2.158466 1_555
Bi6 O23 2.312029 1_555
Bi6 O39 2.313606 1_555
Bi6 O5 2.515257 1_555
Bi7 O17 2.117076 1_555
Bi7 O34 2.158466 1_655
Bi7 O32 2.312029 1_555
Bi7 O16 2.313606 1_655
Bi7 O10 2.515257 1_555
O0 V0 1.744314 1_555
O1 V4 1.714095 1_555
O2 V7 1.714095 1_555
O5 V5 1.744314 1_555
O7 V1 1.744314 1_555
O8 V2 1.714095 1_555
O9 V2 1.744314 1_555
O10 V6 1.744314 1_555
O11 V3 1.706496 1_555
O12 V1 1.714095 1_555
O14 V5 1.746082 1_445
O15 V6 1.714095 1_555
O16 V4 1.744314 1_555
O18 V5 1.706496 1_455
O19 V3 1.714095 1_555
O20 V1 1.706496 1_555
O21 V4 1.746082 1_665
O23 V3 1.746082 1_565
O24 V6 1.706496 1_555
O25 V0 1.706496 1_455
O26 V0 1.714095 1_555
O27 V5 1.714095 1_555
O28 V7 1.746082 1_555
O29 V2 1.706496 1_655
O30 V4 1.706496 1_655
O31 V7 1.706496 1_555
O32 V2 1.746082 1_655
O35 V0 1.746082 1_455
O36 V6 1.746082 1_555
O37 V3 1.744314 1_555
O38 V1 1.746082 1_545
O39 V7 1.744314 1_555
