# generated using pymatgen
data_Ho4Ge8Ru
_symmetry_space_group_name_H-M   'P 1'
_cell_length_a   4.00602500
_cell_length_b   4.16021900
_cell_length_c   16.10911400
_cell_angle_alpha   90.00000000
_cell_angle_beta   90.00000000
_cell_angle_gamma   90.00000000
_symmetry_Int_Tables_number   1
_chemical_formula_structural   Ho4Ge8Ru
_chemical_formula_sum   'Ho4 Ge8 Ru1'
_cell_volume   268.47354863
_cell_formula_units_Z   1
loop_
 _symmetry_equiv_pos_site_id
 _symmetry_equiv_pos_as_xyz
  1  'x, y, z'
loop_
 _atom_site_type_symbol
 _atom_site_label
 _atom_site_symmetry_multiplicity
 _atom_site_fract_x
 _atom_site_fract_y
 _atom_site_fract_z
 _atom_site_occupancy
  Ho  Ho0  1  0.25000000  0.00000000  0.09858500  1
  Ho  Ho1  1  0.25000000  0.50000000  0.60924900  1
  Ho  Ho2  1  0.75000000  0.50000000  0.39985400  1
  Ho  Ho3  1  0.75000000  0.00000000  0.89454000  1
  Ge  Ge0  1  0.25000000  0.00000000  0.46212300  1
  Ge  Ge1  1  0.25000000  0.50000000  0.94532000  1
  Ge  Ge2  1  0.75000000  0.50000000  0.05276800  1
  Ge  Ge3  1  0.75000000  0.00000000  0.56296000  1
  Ge  Ge4  1  0.25000000  0.50000000  0.23028700  1
  Ge  Ge5  1  0.25000000  0.00000000  0.74927600  1
  Ge  Ge6  1  0.75000000  0.00000000  0.22951200  1
  Ge  Ge7  1  0.75000000  0.50000000  0.75324000  1
  Ru  Ru0  1  0.25000000  0.00000000  0.31228600  1
loop_
_geom_bond_atom_site_label_1
_geom_bond_atom_site_label_2
_geom_bond_distance
_geom_bond_site_symmetry_2
Ho2 Ru0 3.213849 1_565
Ho2 Ru0 3.213849 1_555
Ho2 Ru0 3.213849 1_665
Ho2 Ru0 3.213849 1_655
Ge0 Ru0 2.413741 1_555
Ge0 Ge3 2.578898 1_455
Ge0 Ge3 2.578898 1_555
Ge0 Ho2 3.056979 1_555
Ge0 Ho2 3.056979 1_545
Ge0 Ho2 3.056979 1_445
Ge0 Ho2 3.056979 1_455
Ge0 Ho1 3.153424 1_545
Ge0 Ho1 3.153424 1_555
Ge1 Ge2 2.647272 1_456
Ge1 Ge2 2.647272 1_556
Ge1 Ho3 3.001345 1_565
Ge1 Ho3 3.001345 1_555
Ge1 Ho3 3.001345 1_455
Ge1 Ho3 3.001345 1_465
Ge1 Ho0 3.228411 1_556
Ge1 Ho0 3.228411 1_566
Ge2 Ho0 2.980548 1_565
Ge2 Ho0 2.980548 1_655
Ge2 Ho0 2.980548 1_665
Ge2 Ho0 2.980548 1_555
Ge2 Ho3 3.289956 1_564
Ge2 Ho3 3.289956 1_554
Ge3 Ho1 2.982440 1_655
Ge3 Ho1 2.982440 1_555
Ge3 Ho1 2.982440 1_545
Ge3 Ho1 2.982440 1_645
Ge3 Ho2 3.351205 1_555
Ge3 Ho2 3.351205 1_545
Ge4 Ru0 2.464085 1_565
Ge4 Ru0 2.464085 1_555
Ge4 Ho0 2.971204 1_565
Ge4 Ho0 2.971204 1_555
Ge4 Ho2 3.387264 1_455
Ge4 Ho2 3.387264 1_555
Ge5 Ge7 2.888424 1_545
Ge5 Ge7 2.888424 1_555
Ge5 Ge7 2.888424 1_455
Ge5 Ge7 2.888424 1_445
Ge5 Ho1 3.068401 1_545
Ge5 Ho1 3.068401 1_555
Ge5 Ho3 3.080261 1_455
Ge5 Ho3 3.080261 1_555
Ge6 Ru0 2.406254 1_555
Ge6 Ru0 2.406254 1_655
Ge6 Ho0 2.908683 1_555
Ge6 Ho0 2.908683 1_655
Ge6 Ho2 3.443358 1_545
Ge6 Ho2 3.443358 1_555
Ge7 Ho1 3.064711 1_555
Ge7 Ho1 3.064711 1_655
Ge7 Ho3 3.083508 1_555
Ge7 Ho3 3.083508 1_565
