# generated using pymatgen
data_LiMnRhO4
_symmetry_space_group_name_H-M   'P 1'
_cell_length_a   5.86604121
_cell_length_b   5.86604121
_cell_length_c   5.86604121
_cell_angle_alpha   121.47061791
_cell_angle_beta   117.81686809
_cell_angle_gamma   90.64698084
_symmetry_Int_Tables_number   1
_chemical_formula_structural   LiMnRhO4
_chemical_formula_sum   'Li2 Mn2 Rh2 O8'
_cell_volume   143.31045998
_cell_formula_units_Z   2
loop_
 _symmetry_equiv_pos_site_id
 _symmetry_equiv_pos_as_xyz
  1  'x, y, z'
loop_
 _atom_site_type_symbol
 _atom_site_label
 _atom_site_symmetry_multiplicity
 _atom_site_fract_x
 _atom_site_fract_y
 _atom_site_fract_z
 _atom_site_occupancy
  Li  Li0  1  0.12523829  0.87523829  0.25000000  1
  Li  Li1  1  0.87476171  0.12476171  0.75000000  1
  Mn  Mn0  1  0.50000000  0.50000000  0.50000000  1
  Mn  Mn1  1  0.50000000  -0.00000000  -0.00000000  1
  Rh  Rh0  1  0.50000000  0.50000000  -0.00000000  1
  Rh  Rh1  1  -0.00000000  0.50000000  0.50000000  1
  O  O0  1  0.71581614  0.25327165  0.46254449  1
  O  O1  1  0.29072816  0.25327165  0.03745551  1
  O  O2  1  0.72978484  0.24519205  0.01540821  1
  O  O3  1  0.72978484  0.71437662  0.48459179  1
  O  O4  1  0.28418386  0.74672835  0.53745551  1
  O  O5  1  0.70927184  0.74672835  0.96254449  1
  O  O6  1  0.27021516  0.75480795  0.98459179  1
  O  O7  1  0.27021516  0.28562338  0.51540821  1
loop_
_geom_bond_atom_site_label_1
_geom_bond_atom_site_label_2
_geom_bond_distance
_geom_bond_site_symmetry_2
Li0 O7 1.935753 1_565
Li0 O6 1.935753 1_554
Li0 O4 2.038812 1_555
Li0 O5 2.038817 1_454
Li1 O3 1.935753 1_545
Li1 O2 1.935753 1_556
Li1 O0 2.038812 1_555
Li1 O1 2.038817 1_656
Mn0 O3 1.897523 1_555
Mn0 O7 1.897523 1_555
Mn0 O0 1.927350 1_555
Mn0 O4 1.927350 1_555
Mn0 O1 1.927351 1_555
Mn0 O5 1.927351 1_555
Mn1 O6 1.897519 1_544
Mn1 O2 1.897519 1_555
Mn1 O1 1.927346 1_555
Mn1 O5 1.927346 1_544
Mn1 O4 1.927350 1_544
Mn1 O0 1.927350 1_555
O0 Rh1 2.047841 1_655
O1 Rh0 2.047837 1_555
O2 Rh1 2.032753 1_655
O2 Rh0 2.032757 1_555
O3 Rh1 2.032753 1_655
O3 Rh0 2.032753 1_555
O4 Rh1 2.047841 1_555
O5 Rh0 2.047837 1_556
O6 Rh1 2.032753 1_555
O6 Rh0 2.032757 1_556
O7 Rh1 2.032753 1_555
O7 Rh0 2.032753 1_556
