# generated using pymatgen
data_UMn5Al7
_symmetry_space_group_name_H-M   'P 1'
_cell_length_a   6.66139915
_cell_length_b   6.66139915
_cell_length_c   6.66139915
_cell_angle_alpha   136.36391371
_cell_angle_beta   98.34318705
_cell_angle_gamma   97.53666410
_symmetry_Int_Tables_number   1
_chemical_formula_structural   UMn5Al7
_chemical_formula_sum   'U1 Mn5 Al7'
_cell_volume   189.36483487
_cell_formula_units_Z   1
loop_
 _symmetry_equiv_pos_site_id
 _symmetry_equiv_pos_as_xyz
  1  'x, y, z'
loop_
 _atom_site_type_symbol
 _atom_site_label
 _atom_site_symmetry_multiplicity
 _atom_site_fract_x
 _atom_site_fract_y
 _atom_site_fract_z
 _atom_site_occupancy
  U  U0  1  0.01138700  0.00000000  0.01138700  1
  Mn  Mn0  1  0.99801900  0.98686000  0.48302600  1
  Mn  Mn1  1  0.99801900  0.51499300  0.01115900  1
  Mn  Mn2  1  0.49616600  0.01314000  0.01115900  1
  Mn  Mn3  1  0.49616600  0.48500700  0.48302600  1
  Mn  Mn4  1  0.22534000  0.50000000  0.72534000  1
  Al  Al0  1  0.66219000  0.00000000  0.66219000  1
  Al  Al1  1  0.34827700  0.00000000  0.34827700  1
  Al  Al2  1  0.33263600  0.34445900  0.98817800  1
  Al  Al3  1  0.64371900  0.65554100  0.98817800  1
  Al  Al4  1  0.77737400  0.50000000  0.27737400  1
  Al  Al5  1  0.79448700  0.28913500  0.50535300  1
  Al  Al6  1  0.21621800  0.71086500  0.50535300  1
loop_
_geom_bond_atom_site_label_1
_geom_bond_atom_site_label_2
_geom_bond_distance
_geom_bond_site_symmetry_2
Mn0 Mn1 2.336475 1_555
Mn0 Mn4 2.555223 1_665
Mn0 Mn1 2.615079 1_566
Mn0 U0 3.219247 1_665
Mn0 U0 3.444475 1_666
Mn1 Mn4 2.555223 1_654
Mn1 U0 3.219247 1_665
Mn1 U0 3.444475 1_655
Mn2 Mn3 2.336475 1_555
Mn2 Mn4 2.555223 1_544
Mn2 Mn3 2.615079 1_544
Mn2 U0 3.219247 1_555
Mn2 U0 3.444475 1_655
Mn3 Mn4 2.555223 1_555
Mn3 U0 3.219247 1_555
Mn3 U0 3.444475 1_666
Mn4 U0 3.098795 1_555
Mn4 U0 3.098795 1_566
Al0 Mn2 2.666762 1_556
Al0 Mn1 2.666762 1_556
Al0 Mn3 2.666762 1_545
Al0 Mn0 2.666762 1_545
Al0 Al4 2.671344 1_556
Al0 Al4 2.671344 1_545
Al0 Al1 2.734305 1_555
Al0 Al5 2.883127 1_555
Al0 Al6 2.883129 1_545
Al0 U0 3.041642 1_656
Al1 Mn0 2.631573 1_445
Al1 Mn3 2.631573 1_555
Al1 Mn1 2.631573 1_445
Al1 Mn2 2.631573 1_555
Al1 Mn4 2.697433 1_544
Al1 Mn4 2.697433 1_555
Al1 Al5 2.884110 1_555
Al1 Al6 2.884116 1_545
Al1 U0 2.934443 1_555
Al1 Al2 3.078946 1_544
Al1 Al3 3.078947 1_544
Al1 Al3 3.078947 1_555
Al1 Al2 3.078950 1_555
Al2 Mn1 2.606526 1_456
Al2 Mn0 2.606529 1_445
Al2 Mn4 2.665881 1_555
Al2 Mn3 2.674412 1_556
Al2 Mn2 2.674415 1_556
Al2 Al3 2.731655 1_555
Al2 Al6 2.743722 1_556
Al2 Al6 2.743726 1_545
Al2 Al4 2.865471 1_556
Al2 U0 3.031482 1_556
Al3 Mn3 2.606533 1_555
Al3 Mn2 2.606533 1_566
Al3 Mn4 2.665882 1_555
Al3 Mn0 2.674411 1_556
Al3 Mn1 2.674411 1_556
Al3 Al5 2.743721 1_555
Al3 Al5 2.743726 1_566
Al3 Al4 2.865465 1_556
Al3 U0 3.031486 1_666
Al4 Mn2 2.507867 1_555
Al4 Mn3 2.507867 1_555
Al4 Mn1 2.507867 1_555
Al4 Mn0 2.507867 1_555
Al4 Al5 2.715122 1_555
Al4 Al6 2.715122 1_655
Al4 U0 3.206918 1_655
Al4 U0 3.206918 1_666
Al5 Mn1 2.501196 1_556
Al5 Mn0 2.501198 1_545
Al5 Mn3 2.559097 1_555
Al5 Mn2 2.559099 1_555
Al5 Mn4 2.664637 1_655
Al5 U0 3.092051 1_666
Al5 U0 3.092055 1_655
Al6 Mn2 2.501194 1_566
Al6 Mn3 2.501194 1_555
Al6 Mn1 2.559102 1_455
Al6 Mn0 2.559102 1_455
Al6 Mn4 2.664631 1_555
Al6 U0 3.092050 1_555
Al6 U0 3.092050 1_566
