# generated using pymatgen
data_MgMn2O3
_symmetry_space_group_name_H-M   'P 1'
_cell_length_a   3.08247875
_cell_length_b   5.26056130
_cell_length_c   7.60841277
_cell_angle_alpha   89.57504232
_cell_angle_beta   90.00000000
_cell_angle_gamma   90.00000000
_symmetry_Int_Tables_number   1
_chemical_formula_structural   MgMn2O3
_chemical_formula_sum   'Mg2 Mn4 O6'
_cell_volume   123.37134451
_cell_formula_units_Z   2
loop_
 _symmetry_equiv_pos_site_id
 _symmetry_equiv_pos_as_xyz
  1  'x, y, z'
loop_
 _atom_site_type_symbol
 _atom_site_label
 _atom_site_symmetry_multiplicity
 _atom_site_fract_x
 _atom_site_fract_y
 _atom_site_fract_z
 _atom_site_occupancy
  Mg  Mg0  1  -0.00000000  -0.00000908  0.00000418  1
  Mg  Mg1  1  0.50000000  0.50000585  0.99999872  1
  Mn  Mn0  1  0.00000000  0.66105221  0.32899501  1
  Mn  Mn1  1  0.50000000  0.83895159  0.67100323  1
  Mn  Mn2  1  0.50000000  0.16105101  0.32899451  1
  Mn  Mn3  1  0.00000000  0.33895106  0.67100734  1
  O  O0  1  -0.00000000  0.00000149  0.49999652  1
  O  O1  1  0.50000000  0.50000015  0.50000465  1
  O  O2  1  0.50000000  0.16920171  0.84543790  1
  O  O3  1  -0.00000000  0.66919994  0.84542946  1
  O  O4  1  0.00000000  0.33079780  0.15456184  1
  O  O5  1  0.50000000  0.83079927  0.15456762  1
loop_
_geom_bond_atom_site_label_1
_geom_bond_atom_site_label_2
_geom_bond_distance
_geom_bond_site_symmetry_2
Mg0 O4 2.107507 1_555
Mg0 O3 2.107511 1_544
Mg0 O5 2.129555 1_545
Mg0 O5 2.129555 1_445
Mg0 O2 2.129608 1_554
Mg0 O2 2.129608 1_454
Mg1 O5 2.107497 1_556
Mg1 O2 2.107509 1_555
Mg1 O3 2.129585 1_555
Mg1 O3 2.129585 1_655
Mg1 O4 2.129589 1_556
Mg1 O4 2.129589 1_656
Mn0 O1 2.183975 1_455
Mn0 O1 2.183975 1_555
Mn0 O4 2.194048 1_555
Mn0 O0 2.215053 1_565
Mn0 O5 2.217310 1_555
Mn0 O5 2.217310 1_455
Mn1 O0 2.183958 1_565
Mn1 O0 2.183958 1_665
Mn1 O2 2.194037 1_565
Mn1 O1 2.215049 1_555
Mn1 O3 2.217314 1_555
Mn1 O3 2.217314 1_655
Mn2 O0 2.183936 1_655
Mn2 O0 2.183936 1_555
Mn2 O5 2.194008 1_545
Mn2 O1 2.215091 1_555
Mn2 O4 2.217333 1_555
Mn2 O4 2.217333 1_655
Mn3 O1 2.183938 1_555
Mn3 O1 2.183938 1_455
Mn3 O3 2.193974 1_555
Mn3 O0 2.215096 1_555
Mn3 O2 2.217329 1_455
Mn3 O2 2.217329 1_555
