# generated using pymatgen
data_In2H6C5O11
_symmetry_space_group_name_H-M   'P 1'
_cell_length_a   8.74665100
_cell_length_b   11.13789400
_cell_length_c   13.59844826
_cell_angle_alpha   90.00000000
_cell_angle_beta   113.51782967
_cell_angle_gamma   90.00000000
_symmetry_Int_Tables_number   1
_chemical_formula_structural   In2H6C5O11
_chemical_formula_sum   'In8 H24 C20 O44'
_cell_volume   1214.71174133
_cell_formula_units_Z   4
loop_
 _symmetry_equiv_pos_site_id
 _symmetry_equiv_pos_as_xyz
  1  'x, y, z'
loop_
 _atom_site_type_symbol
 _atom_site_label
 _atom_site_symmetry_multiplicity
 _atom_site_fract_x
 _atom_site_fract_y
 _atom_site_fract_z
 _atom_site_occupancy
  In  In0  1  0.65930000  0.61264500  0.28687100  1
  In  In1  1  0.65930000  0.88735500  0.78687100  1
  In  In2  1  0.34070000  0.38735500  0.71312900  1
  In  In3  1  0.34070000  0.11264500  0.21312900  1
  In  In4  1  0.07180100  0.73361400  0.33182200  1
  In  In5  1  0.07180100  0.76638600  0.83182200  1
  In  In6  1  0.92819900  0.26638600  0.66817800  1
  In  In7  1  0.92819900  0.23361400  0.16817800  1
  H  H0  1  0.94857400  0.50802400  0.30725400  1
  H  H1  1  0.94857400  0.99197600  0.80725400  1
  H  H2  1  0.05142600  0.49197600  0.69274600  1
  H  H3  1  0.05142600  0.00802400  0.19274600  1
  H  H4  1  0.55000000  0.34665900  0.05885800  1
  H  H5  1  0.55000000  0.15334100  0.55885800  1
  H  H6  1  0.45000000  0.65334100  0.94114200  1
  H  H7  1  0.45000000  0.84665900  0.44114200  1
  H  H8  1  0.84454900  0.88384400  0.51808200  1
  H  H9  1  0.84454900  0.61615600  0.01808200  1
  H  H10  1  0.15545100  0.11615600  0.48191800  1
  H  H11  1  0.15545100  0.38384400  0.98191800  1
  H  H12  1  0.66489900  0.89280400  0.08677600  1
  H  H13  1  0.66489900  0.60719600  0.58677600  1
  H  H14  1  0.33510100  0.10719600  0.91322400  1
  H  H15  1  0.33510100  0.39280400  0.41322400  1
  H  H16  1  0.12916300  0.59398700  0.54452700  1
  H  H17  1  0.12916300  0.90601300  0.04452700  1
  H  H18  1  0.87083700  0.40601300  0.45547300  1
  H  H19  1  0.87083700  0.09398700  0.95547300  1
  H  H20  1  0.26622800  0.57728600  0.13199800  1
  H  H21  1  0.26622800  0.92271400  0.63199800  1
  H  H22  1  0.73377200  0.42271400  0.86800200  1
  H  H23  1  0.73377200  0.07728600  0.36800200  1
  C  C0  1  0.62256900  0.40663600  0.12602800  1
  C  C1  1  0.62256900  0.09336400  0.62602800  1
  C  C2  1  0.37743100  0.59336400  0.87397200  1
  C  C3  1  0.37743100  0.90663600  0.37397200  1
  C  C4  1  0.85228400  0.82203300  0.45641100  1
  C  C5  1  0.85228400  0.67796700  0.95641100  1
  C  C6  1  0.14771600  0.17796700  0.54358900  1
  C  C7  1  0.14771600  0.32203300  0.04358900  1
  C  C8  1  0.72870900  0.82635800  0.15040100  1
  C  C9  1  0.72870900  0.67364200  0.65040100  1
  C  C10  1  0.27129100  0.17364200  0.84959900  1
  C  C11  1  0.27129100  0.32635800  0.34959900  1
  C  C12  1  0.25061700  0.58756100  0.53752600  1
  C  C13  1  0.25061700  0.91243900  0.03752600  1
  C  C14  1  0.74938300  0.41243900  0.46247400  1
  C  C15  1  0.74938300  0.08756100  0.96247400  1
  C  C16  1  0.26922700  0.62766700  0.20289800  1
  C  C17  1  0.26922700  0.87233300  0.70289800  1
  C  C18  1  0.73077300  0.37233300  0.79710200  1
  C  C19  1  0.73077300  0.12766700  0.29710200  1
  O  O0  1  0.12813600  0.64544100  0.20675000  1
  O  O1  1  0.12813600  0.85455900  0.70675000  1
  O  O2  1  0.87186400  0.35455900  0.79325000  1
  O  O3  1  0.87186400  0.14544100  0.29325000  1
  O  O4  1  0.72888400  0.75315200  0.41220700  1
  O  O5  1  0.72888400  0.74684800  0.91220700  1
  O  O6  1  0.27111600  0.24684800  0.58779300  1
  O  O7  1  0.27111600  0.25315200  0.08779300  1
  O  O8  1  0.92238600  0.58112600  0.33763000  1
  O  O9  1  0.92238600  0.91887400  0.83763000  1
  O  O10  1  0.07761400  0.41887400  0.66237000  1
  O  O11  1  0.07761400  0.08112600  0.16237000  1
  O  O12  1  0.22098800  0.89084200  0.32526800  1
  O  O13  1  0.22098800  0.60915800  0.82526800  1
  O  O14  1  0.77901200  0.10915800  0.67473200  1
  O  O15  1  0.77901200  0.39084200  0.17473200  1
  O  O16  1  0.54259800  0.48917600  0.14938500  1
  O  O17  1  0.54259800  0.01082400  0.64938500  1
  O  O18  1  0.45740200  0.51082400  0.85061500  1
  O  O19  1  0.45740200  0.98917600  0.35061500  1
  O  O20  1  0.27479300  0.64876600  0.46600100  1
  O  O21  1  0.27479300  0.85123400  0.96600100  1
  O  O22  1  0.72520700  0.35123400  0.53399900  1
  O  O23  1  0.72520700  0.14876600  0.03399900  1
  O  O24  1  0.63757600  0.48111100  0.39926400  1
  O  O25  1  0.63757600  0.01888900  0.89926400  1
  O  O26  1  0.36242400  0.51888900  0.60073600  1
  O  O27  1  0.36242400  0.98111100  0.10073600  1
  O  O28  1  0.40727500  0.66358800  0.27243500  1
  O  O29  1  0.40727500  0.83641200  0.77243500  1
  O  O30  1  0.59272500  0.33641200  0.72756500  1
  O  O31  1  0.59272500  0.16358800  0.22756500  1
  O  O32  1  0.88619800  0.83626700  0.19775300  1
  O  O33  1  0.88619800  0.66373300  0.69775300  1
  O  O34  1  0.11380200  0.16373300  0.80224700  1
  O  O35  1  0.11380200  0.33626700  0.30224700  1
  O  O36  1  0.98554600  0.83059300  0.44044800  1
  O  O37  1  0.98554600  0.66940700  0.94044800  1
  O  O38  1  0.01445400  0.16940700  0.55955200  1
  O  O39  1  0.01445400  0.33059300  0.05955200  1
  O  O40  1  0.63464100  0.74950400  0.16660500  1
  O  O41  1  0.63464100  0.75049600  0.66660500  1
  O  O42  1  0.36535900  0.25049600  0.83339500  1
  O  O43  1  0.36535900  0.24950400  0.33339500  1
loop_
_geom_bond_atom_site_label_1
_geom_bond_atom_site_label_2
_geom_bond_distance
_geom_bond_site_symmetry_2
In0 O8 2.151101 1_555
In0 O24 2.179460 1_555
In0 O40 2.182476 1_555
In0 O28 2.207803 1_555
In0 O4 2.212812 1_555
In0 O16 2.214820 1_555
In1 O9 2.151101 1_555
In1 O25 2.179460 1_565
In1 O41 2.182476 1_555
In1 O29 2.207803 1_555
In1 O5 2.212812 1_555
In1 O17 2.214820 1_565
In2 O10 2.151101 1_555
In2 O26 2.179460 1_555
In2 O42 2.182476 1_555
In2 O30 2.207803 1_555
In2 O6 2.212812 1_555
In2 O18 2.214820 1_555
In3 O11 2.151101 1_555
In3 O27 2.179460 1_545
In3 O43 2.182476 1_555
In3 O31 2.207803 1_555
In3 O7 2.212812 1_555
In3 O19 2.214820 1_545
In4 O8 2.163584 1_455
In4 O0 2.183742 1_555
In4 O20 2.188446 1_555
In4 O36 2.192540 1_455
In4 O12 2.206841 1_555
In4 O32 2.214598 1_455
In5 O9 2.163584 1_455
In5 O1 2.183742 1_555
In5 O21 2.188446 1_555
In5 O37 2.192540 1_455
In5 O13 2.206841 1_555
In5 O33 2.214598 1_455
In6 O10 2.163584 1_655
In6 O2 2.183742 1_555
In6 O22 2.188446 1_555
In6 O38 2.192540 1_655
In6 O14 2.206841 1_555
In6 O34 2.214598 1_655
In7 O11 2.163584 1_655
In7 O3 2.183742 1_555
In7 O23 2.188446 1_555
In7 O39 2.192540 1_655
In7 O15 2.206841 1_555
In7 O35 2.214598 1_655
H0 O8 0.980575 1_555
H1 O9 0.980575 1_555
H2 O10 0.980575 1_555
H3 O11 0.980575 1_555
C0 H4 1.104877 1_555
C0 O16 1.269886 1_555
C0 O15 1.272288 1_555
C1 H5 1.104877 1_555
C1 O17 1.269886 1_555
C1 O14 1.272288 1_555
C2 H6 1.104877 1_555
C2 O18 1.269886 1_555
C2 O13 1.272288 1_555
C3 H7 1.104877 1_555
C3 O19 1.269886 1_555
C3 O12 1.272288 1_555
C4 H8 1.107752 1_555
C4 O4 1.263761 1_555
C4 O36 1.271515 1_555
C5 H9 1.107752 1_556
C5 O5 1.263761 1_555
C5 O37 1.271515 1_555
C6 H10 1.107752 1_555
C6 O6 1.263761 1_555
C6 O38 1.271515 1_555
C7 H11 1.107752 1_554
C7 O7 1.263761 1_555
C7 O39 1.271515 1_555
C8 H12 1.105621 1_555
C8 O40 1.266069 1_555
C8 O32 1.271391 1_555
C9 H13 1.105621 1_555
C9 O41 1.266069 1_555
C9 O33 1.271391 1_555
C10 H14 1.105621 1_555
C10 O42 1.266069 1_555
C10 O34 1.271391 1_555
C11 H15 1.105621 1_555
C11 O43 1.266069 1_555
C11 O35 1.271391 1_555
C12 H16 1.106080 1_555
C12 O26 1.268606 1_555
C12 O20 1.272623 1_555
C13 H17 1.106080 1_555
C13 O27 1.268606 1_555
C13 O21 1.272623 1_554
C14 H18 1.106080 1_555
C14 O24 1.268606 1_555
C14 O22 1.272623 1_555
C15 H19 1.106080 1_555
C15 O25 1.268606 1_555
C15 O23 1.272623 1_556
C16 H20 1.106764 1_555
C16 O28 1.265292 1_555
C16 O0 1.271401 1_555
C17 H21 1.106764 1_555
C17 O29 1.265292 1_555
C17 O1 1.271401 1_555
C18 H22 1.106764 1_555
C18 O30 1.265292 1_555
C18 O2 1.271401 1_555
C19 H23 1.106764 1_555
C19 O31 1.265292 1_555
C19 O3 1.271401 1_555
