# generated using pymatgen
data_LiHf8(N2O)4
_symmetry_space_group_name_H-M   'P 1'
_cell_length_a   5.44550805
_cell_length_b   5.46371116
_cell_length_c   10.52270786
_cell_angle_alpha   89.98672724
_cell_angle_beta   76.11823339
_cell_angle_gamma   59.38077027
_symmetry_Int_Tables_number   1
_chemical_formula_structural   LiHf8(N2O)4
_chemical_formula_sum   'Li1 Hf8 N8 O4'
_cell_volume   258.75503888
_cell_formula_units_Z   1
loop_
 _symmetry_equiv_pos_site_id
 _symmetry_equiv_pos_as_xyz
  1  'x, y, z'
loop_
 _atom_site_type_symbol
 _atom_site_label
 _atom_site_symmetry_multiplicity
 _atom_site_fract_x
 _atom_site_fract_y
 _atom_site_fract_z
 _atom_site_occupancy
  Li  Li0  1  0.02458500  0.97085500  0.99800300  1
  Hf  Hf0  1  0.13374000  0.40921700  0.27377300  1
  Hf  Hf1  1  0.14118200  0.89369400  0.75673500  1
  Hf  Hf2  1  0.37921100  0.32242100  0.95854700  1
  Hf  Hf3  1  0.62904900  0.18275300  0.53445600  1
  Hf  Hf4  1  0.35751700  0.80879100  0.45850100  1
  Hf  Hf5  1  0.81617900  0.07562100  0.23814600  1
  Hf  Hf6  1  0.65431500  0.66881600  0.03397500  1
  Hf  Hf7  1  0.84608500  0.55208000  0.71965600  1
  N  N0  1  0.45034600  0.10515800  0.37183700  1
  N  N1  1  0.58185200  0.33504800  0.11206700  1
  N  N2  1  0.24356400  0.55650000  0.62316600  1
  N  N3  1  0.75735500  0.40391000  0.37831100  1
  N  N4  1  0.44896100  0.62684900  0.87264000  1
  N  N5  1  0.97283200  0.65700700  0.11821400  1
  N  N6  1  0.95760200  0.16472400  0.61655500  1
  N  N7  1  0.76872300  0.90387000  0.87696000  1
  O  O0  1  0.24848100  0.04012000  0.12503000  1
  O  O1  1  0.06452600  0.78563400  0.37225600  1
  O  O2  1  0.06437100  0.28802300  0.87564900  1
  O  O3  1  0.56424400  0.85119700  0.61704600  1
loop_
_geom_bond_atom_site_label_1
_geom_bond_atom_site_label_2
_geom_bond_distance
_geom_bond_site_symmetry_2
Li0 O0 2.160709 1_566
Li0 N4 2.174194 1_555
Li0 N1 2.222233 1_466
Li0 N5 2.222651 1_456
Li0 O2 2.226016 1_565
Li0 N7 2.251387 1_455
Hf0 N3 2.095342 1_455
Hf0 O1 2.114162 1_555
Hf0 N0 2.175404 1_555
Hf0 N5 2.181496 1_455
Hf0 O0 2.270610 1_555
Hf0 N1 2.452508 1_555
Hf1 N2 2.063821 1_555
Hf1 N7 2.090743 1_455
Hf1 N6 2.136971 1_465
Hf1 N4 2.216539 1_555
Hf1 O2 2.283569 1_565
Hf1 O3 2.313510 1_555
Hf2 N4 2.050885 1_555
Hf2 N7 2.156788 1_545
Hf2 N1 2.182904 1_556
Hf2 O2 2.186678 1_555
Hf2 N5 2.271182 1_456
Hf2 O0 2.544338 1_556
Hf3 N2 2.035156 1_555
Hf3 N6 2.125827 1_555
Hf3 O3 2.159807 1_545
Hf3 N3 2.226243 1_555
Hf3 N0 2.296634 1_555
Hf3 O1 2.462248 1_645
Hf4 O1 2.070184 1_555
Hf4 N0 2.078728 1_565
Hf4 N3 2.135229 1_555
Hf4 N6 2.289106 1_465
Hf4 O3 2.295933 1_555
Hf4 N2 2.375246 1_555
Hf5 N0 2.074030 1_555
Hf5 N1 2.089615 1_555
Hf5 N3 2.164370 1_555
Hf5 N5 2.246964 1_545
Hf5 O1 2.250061 1_645
Hf5 O0 2.277420 1_655
Hf6 O0 2.082177 1_565
Hf6 N5 2.102872 1_555
Hf6 N1 2.175606 1_555
Hf6 N7 2.255540 1_554
Hf6 N4 2.314631 1_554
Hf6 O2 2.361030 1_654
Hf7 N6 2.097778 1_555
Hf7 O3 2.105118 1_555
Hf7 N2 2.171440 1_655
Hf7 N4 2.205649 1_555
Hf7 O2 2.318848 1_655
Hf7 N7 2.335337 1_555
