# generated using pymatgen
data_CsTbP2O7
_symmetry_space_group_name_H-M   'P 1'
_cell_length_a   8.00658439
_cell_length_b   8.92485492
_cell_length_c   11.11731300
_cell_angle_alpha   90.00000000
_cell_angle_beta   90.00000000
_cell_angle_gamma   104.99283714
_symmetry_Int_Tables_number   1
_chemical_formula_structural   CsTbP2O7
_chemical_formula_sum   'Cs4 Tb4 P8 O28'
_cell_volume   767.37316227
_cell_formula_units_Z   4
loop_
 _symmetry_equiv_pos_site_id
 _symmetry_equiv_pos_as_xyz
  1  'x, y, z'
loop_
 _atom_site_type_symbol
 _atom_site_label
 _atom_site_symmetry_multiplicity
 _atom_site_fract_x
 _atom_site_fract_y
 _atom_site_fract_z
 _atom_site_occupancy
  Cs  Cs0  1  0.81193600  0.94440700  0.31479600  1
  Cs  Cs1  1  0.18806400  0.05559300  0.68520400  1
  Cs  Cs2  1  0.18806400  0.55559300  0.81479600  1
  Cs  Cs3  1  0.81193600  0.44440700  0.18520400  1
  Tb  Tb0  1  0.76201600  0.74273900  0.90084400  1
  Tb  Tb1  1  0.23798400  0.25726100  0.09915600  1
  Tb  Tb2  1  0.23798400  0.75726100  0.40084400  1
  Tb  Tb3  1  0.76201600  0.24273900  0.59915600  1
  P  P0  1  0.57026400  0.81052400  0.63185200  1
  P  P1  1  0.42973600  0.18947600  0.36814800  1
  P  P2  1  0.42973600  0.68947600  0.13185200  1
  P  P3  1  0.57026400  0.31052400  0.86814800  1
  P  P4  1  0.86574000  0.67466400  0.59792900  1
  P  P5  1  0.13426000  0.32533600  0.40207100  1
  P  P6  1  0.13426000  0.82533600  0.09792900  1
  P  P7  1  0.86574000  0.17466400  0.90207100  1
  O  O0  1  0.39157900  0.76774700  0.57285600  1
  O  O1  1  0.60842100  0.23225300  0.42714400  1
  O  O2  1  0.60842100  0.73225300  0.07285700  1
  O  O3  1  0.39157900  0.26774700  0.92714400  1
  O  O4  1  0.91326300  0.73827000  0.72526500  1
  O  O5  1  0.08673700  0.26173000  0.27473500  1
  O  O6  1  0.08673700  0.76173000  0.22526500  1
  O  O7  1  0.91326300  0.23827000  0.77473500  1
  O  O8  1  0.55757000  0.76523100  0.76507600  1
  O  O9  1  0.44243000  0.23476900  0.23492400  1
  O  O10  1  0.44243000  0.73476900  0.26507600  1
  O  O11  1  0.55757000  0.26523100  0.73492400  1
  O  O12  1  0.67057600  0.97842700  0.60739100  1
  O  O13  1  0.32942400  0.02157300  0.39260900  1
  O  O14  1  0.32942400  0.52157300  0.10739100  1
  O  O15  1  0.67057600  0.47842700  0.89260900  1
  O  O16  1  0.84723000  0.00133000  0.91057700  1
  O  O17  1  0.15277000  0.99867000  0.08942300  1
  O  O18  1  0.15277000  0.49867000  0.41057700  1
  O  O19  1  0.84723000  0.50133000  0.58942300  1
  O  O20  1  0.67683800  0.70068000  0.56355400  1
  O  O21  1  0.32316200  0.29932000  0.43644600  1
  O  O22  1  0.32316200  0.79932000  0.06355400  1
  O  O23  1  0.67683800  0.20068000  0.93644600  1
  O  O24  1  0.00705800  0.73179800  0.00432000  1
  O  O25  1  0.99294200  0.26820200  0.99568000  1
  O  O26  1  0.99294200  0.76820200  0.50432000  1
  O  O27  1  0.00705800  0.23179800  0.49568000  1
loop_
_geom_bond_atom_site_label_1
_geom_bond_atom_site_label_2
_geom_bond_distance
_geom_bond_site_symmetry_2
Cs0 O10 3.113648 1_555
Cs0 O5 3.136225 1_665
Cs0 O26 3.192492 1_555
Cs0 O6 3.216480 1_655
Cs0 O27 3.315137 1_665
Cs0 O2 3.446520 1_555
Cs0 O12 3.483123 1_555
Cs0 O20 3.511746 1_555
Cs0 O1 3.602872 1_565
Cs0 O17 3.643553 1_655
Cs1 O11 3.113648 1_555
Cs1 O4 3.136225 1_445
Cs1 O27 3.192492 1_555
Cs1 O7 3.216480 1_455
Cs1 O26 3.315137 1_445
Cs1 O3 3.446528 1_555
Cs1 O13 3.483123 1_555
Cs1 O21 3.511746 1_555
Cs1 O0 3.602872 1_545
Cs1 O16 3.643553 1_455
Cs2 O8 3.113648 1_555
Cs2 O7 3.136225 1_455
Cs2 O24 3.192492 1_556
Cs2 O4 3.216480 1_455
Cs2 O25 3.315137 1_455
Cs2 O0 3.446528 1_555
Cs2 O14 3.483123 1_556
Cs2 O22 3.511746 1_556
Cs2 O3 3.602872 1_555
Cs2 O19 3.643553 1_455
Cs3 O9 3.113648 1_555
Cs3 O6 3.136225 1_655
Cs3 O25 3.192492 1_554
Cs3 O5 3.216480 1_655
Cs3 O24 3.315137 1_655
Cs3 O1 3.446528 1_555
Cs3 O15 3.483123 1_554
Cs3 O23 3.511746 1_554
Cs3 O2 3.602869 1_555
Cs3 O18 3.643553 1_655
O0 P0 1.529741 1_555
O0 Tb2 2.262407 1_555
O1 P1 1.529741 1_555
O1 Tb3 2.262407 1_555
O2 P2 1.529737 1_555
O2 Tb0 2.262416 1_554
O3 P3 1.529741 1_555
O3 Tb1 2.262407 1_556
O4 P4 1.536000 1_555
O4 Tb0 2.302869 1_555
O5 P5 1.536000 1_555
O5 Tb1 2.302869 1_555
O6 P6 1.536000 1_555
O6 Tb2 2.302869 1_555
O7 P7 1.536000 1_555
O7 Tb3 2.302869 1_555
O8 P0 1.531703 1_555
O8 Tb0 2.273326 1_555
O9 P1 1.531703 1_555
O9 Tb1 2.273326 1_555
O10 P2 1.531703 1_555
O10 Tb2 2.273326 1_555
O11 P3 1.531703 1_555
O11 Tb3 2.273326 1_555
O12 P0 1.530306 1_555
O12 Tb3 2.283736 1_565
O13 P1 1.530306 1_555
O13 Tb2 2.283736 1_545
O14 P2 1.530306 1_555
O14 Tb1 2.283736 1_555
O15 P3 1.530306 1_555
O15 Tb0 2.283736 1_555
O16 P7 1.518366 1_555
O16 Tb0 2.233573 1_545
O17 P6 1.518366 1_555
O17 Tb1 2.233573 1_565
O18 P5 1.518366 1_555
O18 Tb2 2.233573 1_555
O19 P4 1.518366 1_555
O19 Tb3 2.233573 1_555
O20 P4 1.633765 1_555
O20 P0 1.642715 1_555
O21 P5 1.633765 1_555
O21 P1 1.642715 1_555
O22 P6 1.633765 1_555
O22 P2 1.642715 1_555
O23 P7 1.633765 1_555
O23 P3 1.642715 1_555
O24 P6 1.541842 1_555
O24 Tb0 2.298100 1_454
O25 P7 1.541842 1_555
O25 Tb1 2.298100 1_656
O26 P4 1.541842 1_555
O26 Tb2 2.298100 1_655
O27 P5 1.541842 1_555
O27 Tb3 2.298100 1_455
