# generated using pymatgen
data_B2Mo2Os
_symmetry_space_group_name_H-M   'P 1'
_cell_length_a   3.07706000
_cell_length_b   7.60561300
_cell_length_c   9.64972500
_cell_angle_alpha   90.00000000
_cell_angle_beta   90.00000000
_cell_angle_gamma   90.00000000
_symmetry_Int_Tables_number   1
_chemical_formula_structural   B2Mo2Os
_chemical_formula_sum   'B8 Mo8 Os4'
_cell_volume   225.83181493
_cell_formula_units_Z   4
loop_
 _symmetry_equiv_pos_site_id
 _symmetry_equiv_pos_as_xyz
  1  'x, y, z'
loop_
 _atom_site_type_symbol
 _atom_site_label
 _atom_site_symmetry_multiplicity
 _atom_site_fract_x
 _atom_site_fract_y
 _atom_site_fract_z
 _atom_site_occupancy
  B  B0  1  0.50000000  0.11586000  0.46078100  1
  B  B1  1  0.50000000  0.88414000  0.53921900  1
  B  B2  1  0.00000000  0.38414000  0.96078100  1
  B  B3  1  0.00000000  0.61586000  0.03921900  1
  B  B4  1  0.50000000  0.12560000  0.26742500  1
  B  B5  1  0.50000000  0.87440000  0.73257500  1
  B  B6  1  0.00000000  0.37440000  0.76742500  1
  B  B7  1  0.00000000  0.62560000  0.23257500  1
  Mo  Mo0  1  0.50000000  0.80827900  0.13010400  1
  Mo  Mo1  1  0.50000000  0.19172100  0.86989600  1
  Mo  Mo2  1  0.00000000  0.69172100  0.63010400  1
  Mo  Mo3  1  0.00000000  0.30827900  0.36989600  1
  Mo  Mo4  1  0.50000000  0.57383800  0.86043500  1
  Mo  Mo5  1  0.50000000  0.42616200  0.13956500  1
  Mo  Mo6  1  0.00000000  0.92616200  0.36043500  1
  Mo  Mo7  1  0.00000000  0.07383800  0.63956500  1
  Os  Os0  1  0.50000000  0.61866400  0.39261100  1
  Os  Os1  1  0.50000000  0.38133600  0.60738900  1
  Os  Os2  1  0.00000000  0.88133600  0.89261100  1
  Os  Os3  1  0.00000000  0.11866400  0.10738900  1
loop_
_geom_bond_atom_site_label_1
_geom_bond_atom_site_label_2
_geom_bond_distance
_geom_bond_site_symmetry_2
B0 B4 1.867302 1_555
B0 B1 1.918036 1_545
B0 Mo3 2.297381 1_655
B0 Mo3 2.297381 1_555
B0 Mo6 2.320837 1_645
B0 Mo6 2.320837 1_545
B0 Mo7 2.333579 1_555
B0 Mo7 2.333579 1_655
B0 Os1 2.465410 1_555
B1 B5 1.867302 1_555
B1 Mo2 2.297381 1_555
B1 Mo2 2.297381 1_655
B1 Mo7 2.320837 1_565
B1 Mo7 2.320837 1_665
B1 Mo6 2.333579 1_555
B1 Mo6 2.333579 1_655
B1 Os0 2.465410 1_555
B2 B6 1.867302 1_555
B2 B3 1.918036 1_556
B2 Mo1 2.297381 1_455
B2 Mo1 2.297381 1_555
B2 Mo4 2.320837 1_555
B2 Mo4 2.320837 1_455
B2 Mo5 2.333579 1_556
B2 Mo5 2.333579 1_456
B2 Os3 2.465410 1_556
B3 B7 1.867302 1_555
B3 Mo0 2.297381 1_455
B3 Mo0 2.297381 1_555
B3 Mo5 2.320837 1_555
B3 Mo5 2.320837 1_455
B3 Mo4 2.333579 1_454
B3 Mo4 2.333579 1_554
B3 Os2 2.465410 1_554
B4 Os3 2.180534 1_555
B4 Os3 2.180534 1_655
B4 Mo3 2.296786 1_655
B4 Mo3 2.296786 1_555
B4 Mo6 2.339540 1_645
B4 Mo6 2.339540 1_545
B4 Mo5 2.597672 1_555
B4 Mo0 2.753274 1_545
B5 Os2 2.180534 1_555
B5 Os2 2.180534 1_655
B5 Mo2 2.296786 1_555
B5 Mo2 2.296786 1_655
B5 Mo7 2.339540 1_565
B5 Mo7 2.339540 1_665
B5 Mo4 2.597672 1_555
B5 Mo1 2.753274 1_565
B6 Os1 2.180534 1_555
B6 Os1 2.180534 1_455
B6 Mo1 2.296786 1_455
B6 Mo1 2.296786 1_555
B6 Mo4 2.339540 1_555
B6 Mo4 2.339540 1_455
B6 Mo7 2.597672 1_555
B6 Mo2 2.753274 1_555
B7 Os0 2.180534 1_455
B7 Os0 2.180534 1_555
B7 Mo0 2.296786 1_555
B7 Mo0 2.296786 1_455
B7 Mo5 2.339540 1_555
B7 Mo5 2.339540 1_455
B7 Mo6 2.597672 1_555
B7 Mo3 2.753274 1_555
