# generated using pymatgen
data_NaTlSe2
_symmetry_space_group_name_H-M   'P 1'
_cell_length_a   6.58416600
_cell_length_b   6.58416600
_cell_length_c   6.58416600
_cell_angle_alpha   106.65493423
_cell_angle_beta   106.65493423
_cell_angle_gamma   115.26375631
_symmetry_Int_Tables_number   1
_chemical_formula_structural   NaTlSe2
_chemical_formula_sum   'Na2 Tl2 Se4'
_cell_volume   218.02412871
_cell_formula_units_Z   2
loop_
 _symmetry_equiv_pos_site_id
 _symmetry_equiv_pos_as_xyz
  1  'x, y, z'
loop_
 _atom_site_type_symbol
 _atom_site_label
 _atom_site_symmetry_multiplicity
 _atom_site_fract_x
 _atom_site_fract_y
 _atom_site_fract_z
 _atom_site_occupancy
  Na  Na0  1  0.75000000  0.75000000  0.00000000  1
  Na  Na1  1  0.25000000  0.25000000  0.00000000  1
  Tl  Tl0  1  0.75000000  0.25000000  0.50000000  1
  Tl  Tl1  1  0.25000000  0.75000000  0.50000000  1
  Se  Se0  1  0.81337900  0.31337900  0.12675800  1
  Se  Se1  1  0.18662100  0.68662100  0.87324200  1
  Se  Se2  1  0.68662100  0.81337900  0.50000000  1
  Se  Se3  1  0.31337900  0.18662100  0.50000000  1
loop_
_geom_bond_atom_site_label_1
_geom_bond_atom_site_label_2
_geom_bond_distance
_geom_bond_site_symmetry_2
Na0 Se0 3.366708 1_565
Na0 Se3 3.366708 1_665
Na0 Se1 3.366708 1_654
Na0 Se2 3.366708 1_554
Na0 Se2 3.366708 1_555
Na0 Se0 3.366708 1_555
Na0 Se3 3.366708 1_554
Na0 Se1 3.366708 1_554
Na1 Se0 3.366708 1_455
Na1 Se3 3.366708 1_554
Na1 Se1 3.366708 1_554
Na1 Se2 3.366708 1_555
Na1 Se2 3.366708 1_444
Na1 Se0 3.366708 1_555
Na1 Se1 3.366708 1_544
Na1 Se3 3.366708 1_555
Se0 Tl0 2.722967 1_555
Se0 Tl1 2.722967 1_655
Se1 Tl0 2.722967 1_455
Se1 Tl1 2.722967 1_555
Se2 Tl1 2.722967 1_555
Se2 Tl0 2.722967 1_565
Se3 Tl1 2.722967 1_545
Se3 Tl0 2.722967 1_555
