# generated using pymatgen
data_InPb2F7
_symmetry_space_group_name_H-M   'P 1'
_cell_length_a   12.44457357
_cell_length_b   5.59001845
_cell_length_c   8.41301360
_cell_angle_alpha   89.64555741
_cell_angle_beta   90.00000000
_cell_angle_gamma   90.00000000
_symmetry_Int_Tables_number   1
_chemical_formula_structural   InPb2F7
_chemical_formula_sum   'In4 Pb8 F28'
_cell_volume   585.24342284
_cell_formula_units_Z   4
loop_
 _symmetry_equiv_pos_site_id
 _symmetry_equiv_pos_as_xyz
  1  'x, y, z'
loop_
 _atom_site_type_symbol
 _atom_site_label
 _atom_site_symmetry_multiplicity
 _atom_site_fract_x
 _atom_site_fract_y
 _atom_site_fract_z
 _atom_site_occupancy
  In  In0  1  0.12501932  0.27733542  0.21593499  1
  In  In1  1  0.87498068  0.72266458  0.78406501  1
  In  In2  1  0.62501932  0.72266458  0.28406501  1
  In  In3  1  0.37498068  0.27733542  0.71593499  1
  Pb  Pb0  1  0.78341833  0.22966266  0.05463262  1
  Pb  Pb1  1  0.21658167  0.77033734  0.94536738  1
  Pb  Pb2  1  0.28341833  0.77033734  0.44536738  1
  Pb  Pb3  1  0.71658167  0.22966266  0.55463262  1
  Pb  Pb4  1  0.43898913  0.23708656  0.17553772  1
  Pb  Pb5  1  0.56101087  0.76291344  0.82446228  1
  Pb  Pb6  1  0.93898913  0.76291344  0.32446228  1
  Pb  Pb7  1  0.06101087  0.23708656  0.67553772  1
  F  F0  1  0.07181238  0.61761917  0.12407339  1
  F  F1  1  0.92818762  0.38238083  0.87592661  1
  F  F2  1  0.57181238  0.38238083  0.37592661  1
  F  F3  1  0.42818762  0.61761917  0.62407339  1
  F  F4  1  0.13577327  0.18274150  0.97326357  1
  F  F5  1  0.86422673  0.81725850  0.02673643  1
  F  F6  1  0.63577327  0.81725850  0.52673643  1
  F  F7  1  0.36422673  0.18274150  0.47326357  1
  F  F8  1  0.10312034  0.48836026  0.42480048  1
  F  F9  1  0.89687966  0.51163974  0.57519952  1
  F  F10  1  0.60312034  0.51163974  0.07519952  1
  F  F11  1  0.39687966  0.48836026  0.92480048  1
  F  F12  1  0.54086468  0.19715530  0.71509063  1
  F  F13  1  0.45913532  0.80284470  0.28490937  1
  F  F14  1  0.04086468  0.80284470  0.78490937  1
  F  F15  1  0.95913532  0.19715530  0.21509063  1
  F  F16  1  0.25516916  0.01228590  0.19694154  1
  F  F17  1  0.74483084  0.98771410  0.80305846  1
  F  F18  1  0.75516916  0.98771410  0.30305846  1
  F  F19  1  0.24483084  0.01228590  0.69694154  1
  F  F20  1  0.27003131  0.48332879  0.20622284  1
  F  F21  1  0.72996869  0.51667121  0.79377716  1
  F  F22  1  0.77003131  0.51667121  0.29377716  1
  F  F23  1  0.22996869  0.48332879  0.70622284  1
  F  F24  1  0.10609994  0.01532004  0.40953469  1
  F  F25  1  0.89390006  0.98467996  0.59046531  1
  F  F26  1  0.60609994  0.98467996  0.09046531  1
  F  F27  1  0.39390006  0.01532004  0.90953469  1
loop_
_geom_bond_atom_site_label_1
_geom_bond_atom_site_label_2
_geom_bond_distance
_geom_bond_site_symmetry_2
F0 In0 2.153101 1_555
F0 Pb1 2.493799 1_554
F0 Pb6 2.500190 1_455
F1 In1 2.153101 1_555
F1 Pb0 2.493799 1_556
F1 Pb7 2.500190 1_655
F2 In2 2.153101 1_555
F2 Pb3 2.493799 1_555
F2 Pb4 2.500190 1_555
F3 In3 2.153101 1_555
F3 Pb2 2.493799 1_555
F3 Pb5 2.500190 1_555
F4 In0 2.116365 1_556
F4 Pb1 2.527386 1_545
F4 Pb7 2.687447 1_555
F5 In1 2.116365 1_554
F5 Pb0 2.527386 1_565
F5 Pb6 2.687447 1_555
F6 In2 2.116365 1_555
F6 Pb3 2.527386 1_565
F6 Pb5 2.687447 1_555
F7 In3 2.116365 1_555
F7 Pb2 2.527386 1_545
F7 Pb4 2.687447 1_555
F8 In0 2.139897 1_555
F8 Pb7 2.580838 1_555
F8 Pb6 2.687753 1_455
F8 Pb2 2.748132 1_555
F9 In1 2.139897 1_555
F9 Pb6 2.580838 1_555
F9 Pb7 2.687753 1_655
F9 Pb3 2.748132 1_555
F10 In2 2.139897 1_555
F10 Pb5 2.580838 1_554
F10 Pb4 2.687753 1_555
F10 Pb0 2.748132 1_555
F11 In3 2.139897 1_555
F11 Pb4 2.580838 1_556
F11 Pb5 2.687753 1_555
F11 Pb1 2.748132 1_555
F12 In3 2.112474 1_555
F12 Pb3 2.575669 1_555
F12 Pb5 2.602740 1_545
F13 In2 2.112474 1_555
F13 Pb2 2.575669 1_555
F13 Pb4 2.602740 1_565
F14 In1 2.112474 1_455
F14 Pb1 2.575669 1_555
F14 Pb7 2.602740 1_565
F15 In0 2.112474 1_655
F15 Pb0 2.575669 1_555
F15 Pb6 2.602740 1_545
F16 In0 2.201588 1_555
F16 Pb2 2.507190 1_545
F16 Pb1 2.564141 1_544
F16 Pb4 2.615665 1_555
F17 In1 2.201588 1_555
F17 Pb3 2.507190 1_565
F17 Pb0 2.564141 1_566
F17 Pb5 2.615665 1_555
F18 In2 2.201588 1_555
F18 Pb0 2.507190 1_565
F18 Pb3 2.564141 1_565
F18 Pb6 2.615665 1_555
F19 In3 2.201588 1_555
F19 Pb1 2.507190 1_545
F19 Pb2 2.564141 1_545
F19 Pb7 2.615665 1_555
F20 In0 2.141986 1_555
F20 Pb4 2.527202 1_555
F20 Pb2 2.586423 1_555
F20 Pb1 2.790896 1_554
F21 In1 2.141986 1_555
F21 Pb5 2.527202 1_555
F21 Pb3 2.586423 1_555
F21 Pb0 2.790896 1_556
F22 In2 2.141986 1_555
F22 Pb6 2.527202 1_555
F22 Pb0 2.586423 1_555
F22 Pb3 2.790896 1_555
F23 In3 2.141986 1_555
F23 Pb7 2.527202 1_555
F23 Pb1 2.586423 1_555
F23 Pb2 2.790896 1_555
F24 In0 2.196367 1_555
F24 Pb2 2.613522 1_545
F24 Pb6 2.615411 1_445
F24 Pb7 2.625665 1_555
F25 In1 2.196367 1_555
F25 Pb3 2.613522 1_565
F25 Pb7 2.615411 1_665
F25 Pb6 2.625665 1_555
F26 In2 2.196367 1_555
F26 Pb0 2.613522 1_565
F26 Pb4 2.615411 1_565
F26 Pb5 2.625665 1_554
F27 In3 2.196367 1_555
F27 Pb1 2.613522 1_545
F27 Pb5 2.615411 1_545
F27 Pb4 2.625665 1_556
