# generated using pymatgen
data_Yb(ZnGe)2
_symmetry_space_group_name_H-M   'P 1'
_cell_length_a   6.47627329
_cell_length_b   6.47627329
_cell_length_c   6.47627329
_cell_angle_alpha   144.59472447
_cell_angle_beta   144.59472447
_cell_angle_gamma   50.93889034
_symmetry_Int_Tables_number   1
_chemical_formula_structural   Yb(ZnGe)2
_chemical_formula_sum   'Yb1 Zn2 Ge2'
_cell_volume   90.69869656
_cell_formula_units_Z   1
loop_
 _symmetry_equiv_pos_site_id
 _symmetry_equiv_pos_as_xyz
  1  'x, y, z'
loop_
 _atom_site_type_symbol
 _atom_site_label
 _atom_site_symmetry_multiplicity
 _atom_site_fract_x
 _atom_site_fract_y
 _atom_site_fract_z
 _atom_site_occupancy
  Yb  Yb0  1  0.00000000  0.00000000  0.00000000  1
  Zn  Zn0  1  0.75000000  0.25000000  0.50000000  1
  Zn  Zn1  1  0.25000000  0.75000000  0.50000000  1
  Ge  Ge0  1  0.39079331  0.39079331  0.00000000  1
  Ge  Ge1  1  0.60920669  0.60920669  0.00000000  1
loop_
_geom_bond_atom_site_label_1
_geom_bond_atom_site_label_2
_geom_bond_distance
_geom_bond_site_symmetry_2
Ge0 Ge1 2.554071 1_555
Ge0 Zn1 2.566851 1_544
Ge0 Zn0 2.566851 1_454
Ge0 Zn0 2.566851 1_555
Ge0 Zn1 2.566851 1_555
Ge0 Yb0 3.063819 1_554
Ge0 Yb0 3.063819 1_565
Ge0 Yb0 3.063819 1_666
Ge0 Yb0 3.063819 1_655
Ge1 Zn1 2.566851 1_554
Ge1 Zn0 2.566851 1_554
Ge1 Zn0 2.566851 1_565
Ge1 Zn1 2.566851 1_655
Ge1 Yb0 3.063819 1_666
Ge1 Yb0 3.063819 1_655
Ge1 Yb0 3.063819 1_565
Ge1 Yb0 3.063819 1_554
