# generated using pymatgen
data_UP2O13
_symmetry_space_group_name_H-M   'P 1'
_cell_length_a   13.73778500
_cell_length_b   8.00512400
_cell_length_c   10.94893187
_cell_angle_alpha   73.74400849
_cell_angle_beta   90.00000000
_cell_angle_gamma   90.00000000
_symmetry_Int_Tables_number   1
_chemical_formula_structural   UP2O13
_chemical_formula_sum   'U4 P8 O52'
_cell_volume   1155.94475424
_cell_formula_units_Z   4
loop_
 _symmetry_equiv_pos_site_id
 _symmetry_equiv_pos_as_xyz
  1  'x, y, z'
loop_
 _atom_site_type_symbol
 _atom_site_label
 _atom_site_symmetry_multiplicity
 _atom_site_fract_x
 _atom_site_fract_y
 _atom_site_fract_z
 _atom_site_occupancy
  U  U0  1  0.57715700  0.30188800  0.24650500  1
  U  U1  1  0.07715700  0.19811200  0.75349500  1
  U  U2  1  0.42284300  0.69811200  0.75349500  1
  U  U3  1  0.92284300  0.80188800  0.24650500  1
  P  P0  1  0.60075000  0.06266300  0.59538900  1
  P  P1  1  0.10075000  0.43733700  0.40461100  1
  P  P2  1  0.39925000  0.93733700  0.40461100  1
  P  P3  1  0.89925000  0.56266300  0.59538900  1
  P  P4  1  0.64732800  0.65200600  0.96102800  1
  P  P5  1  0.14732800  0.84799400  0.03897200  1
  P  P6  1  0.35267200  0.34799400  0.03897200  1
  P  P7  1  0.85267200  0.15200600  0.96102800  1
  O  O0  1  0.54535500  0.47241700  0.31734600  1
  O  O1  1  0.04535500  0.02758300  0.68265400  1
  O  O2  1  0.45464500  0.52758300  0.68265400  1
  O  O3  1  0.95464500  0.97241700  0.31734600  1
  O  O4  1  0.60845900  0.12572900  0.18125000  1
  O  O5  1  0.10845900  0.37427100  0.81875000  1
  O  O6  1  0.39154100  0.87427100  0.81875000  1
  O  O7  1  0.89154100  0.62572900  0.18125000  1
  O  O8  1  0.62898000  0.12828800  0.45741900  1
  O  O9  1  0.12898000  0.37171200  0.54258100  1
  O  O10  1  0.37102000  0.87171200  0.54258100  1
  O  O11  1  0.87102000  0.62828800  0.45741900  1
  O  O12  1  0.56142500  0.88171100  0.63750600  1
  O  O13  1  0.06142500  0.61828900  0.36249400  1
  O  O14  1  0.43857500  0.11828900  0.36249400  1
  O  O15  1  0.93857500  0.38171100  0.63750600  1
  O  O16  1  0.60634900  0.17985600  0.67917700  1
  O  O17  1  0.10634900  0.32014400  0.32082300  1
  O  O18  1  0.39365100  0.82014400  0.32082300  1
  O  O19  1  0.89365100  0.67985600  0.67917700  1
  O  O20  1  0.78890500  0.00514700  0.64047200  1
  O  O21  1  0.28890500  0.49485300  0.35952800  1
  O  O22  1  0.21109500  0.99485300  0.35952800  1
  O  O23  1  0.71109500  0.50514700  0.64047200  1
  O  O24  1  0.55610100  0.63459900  0.88557200  1
  O  O25  1  0.05610100  0.86540100  0.11442800  1
  O  O26  1  0.44389900  0.36540100  0.11442800  1
  O  O27  1  0.94389900  0.13459900  0.88557200  1
  O  O28  1  0.65267800  0.49626000  0.08063300  1
  O  O29  1  0.15267800  0.00374000  0.91936700  1
  O  O30  1  0.34732200  0.50374000  0.91936700  1
  O  O31  1  0.84732200  0.99626000  0.08063300  1
  O  O32  1  0.73646800  0.67734100  0.86910000  1
  O  O33  1  0.23646800  0.82265900  0.13090000  1
  O  O34  1  0.26353200  0.32265900  0.13090000  1
  O  O35  1  0.76353200  0.17734100  0.86910000  1
  O  O36  1  0.65312700  0.82433100  0.00127500  1
  O  O37  1  0.15312700  0.67566900  0.99872500  1
  O  O38  1  0.34687300  0.17566900  0.99872500  1
  O  O39  1  0.84687300  0.32433100  0.00127500  1
  O  O40  1  0.74021700  0.32660300  0.29923600  1
  O  O41  1  0.24021700  0.17339700  0.70076400  1
  O  O42  1  0.25978300  0.67339700  0.70076400  1
  O  O43  1  0.75978300  0.82660300  0.29923600  1
  O  O44  1  0.61598700  0.08794500  0.89653900  1
  O  O45  1  0.11598700  0.41205500  0.10346100  1
  O  O46  1  0.38401300  0.91205500  0.10346100  1
  O  O47  1  0.88401300  0.58794500  0.89653900  1
  O  O48  1  0.84480300  0.07516400  0.55342100  1
  O  O49  1  0.34480300  0.42483600  0.44657900  1
  O  O50  1  0.15519700  0.92483600  0.44657900  1
  O  O51  1  0.65519700  0.57516400  0.55342100  1
loop_
_geom_bond_atom_site_label_1
_geom_bond_atom_site_label_2
_geom_bond_distance
_geom_bond_site_symmetry_2
O0 U0 1.802438 1_555
O1 U1 1.802438 1_555
O2 U2 1.802438 1_555
O3 U3 1.802438 1_555
O4 U0 1.802236 1_555
O5 U1 1.802236 1_555
O6 U2 1.802236 1_555
O7 U3 1.802236 1_555
O8 P0 1.504683 1_555
O8 U0 2.444214 1_555
O9 P1 1.504683 1_555
O9 U1 2.444214 1_555
O10 P2 1.504683 1_555
O10 U2 2.444214 1_555
O11 P3 1.504683 1_555
O11 U3 2.444214 1_555
O12 P0 1.492920 1_565
O12 U2 2.520401 1_555
O13 P1 1.492920 1_555
O13 U3 2.520401 1_455
O14 P2 1.492920 1_545
O14 U0 2.520401 1_555
O15 P3 1.492920 1_555
O15 U1 2.520401 1_655
O16 P0 1.486430 1_555
O17 P1 1.486430 1_555
O18 P2 1.486430 1_555
O19 P3 1.486430 1_555
O20 O48 1.230118 1_555
O21 O49 1.230118 1_555
O22 O50 1.230118 1_555
O23 O51 1.230118 1_555
O24 P4 1.528747 1_555
O24 U2 2.299877 1_555
O25 P5 1.528747 1_555
O25 U3 2.299877 1_455
O26 P6 1.528747 1_555
O26 U0 2.299877 1_555
O27 P7 1.528747 1_555
O27 U1 2.299877 1_655
O28 P4 1.536444 1_554
O28 U0 2.283345 1_555
O29 P5 1.536444 1_546
O29 U1 2.283345 1_555
O30 P6 1.536444 1_556
O30 U2 2.283345 1_555
O31 P7 1.536444 1_564
O31 U3 2.283345 1_555
O32 P4 1.561899 1_555
O33 P5 1.561899 1_555
O34 P6 1.561899 1_555
O35 P7 1.561899 1_555
O36 P4 1.563276 1_554
O37 P5 1.563276 1_556
O38 P6 1.563276 1_556
O39 P7 1.563276 1_554
O40 U0 2.335465 1_555
O41 U1 2.335465 1_555
O42 U2 2.335465 1_555
O43 U3 2.335465 1_555
