# generated using pymatgen
data_Zr2IrAu
_symmetry_space_group_name_H-M   'P 1'
_cell_length_a   11.15828891
_cell_length_b   11.15828891
_cell_length_c   11.15828891
_cell_angle_alpha   125.04837173
_cell_angle_beta   117.94463589
_cell_angle_gamma   87.54206157
_symmetry_Int_Tables_number   1
_chemical_formula_structural   Zr2IrAu
_chemical_formula_sum   'Zr2 Ir1 Au1'
_cell_volume   954.32833310
_cell_formula_units_Z   1
loop_
 _symmetry_equiv_pos_site_id
 _symmetry_equiv_pos_as_xyz
  1  'x, y, z'
loop_
 _atom_site_type_symbol
 _atom_site_label
 _atom_site_symmetry_multiplicity
 _atom_site_fract_x
 _atom_site_fract_y
 _atom_site_fract_z
 _atom_site_occupancy
  Zr  Zr0  1  0.00000000  0.22642000  0.22642000  1
  Zr  Zr1  1  0.00000000  0.77358000  0.77358000  1
  Ir  Ir0  1  0.00000000  0.00000000  0.00000000  1
  Au  Au0  1  0.00000000  0.50000000  0.50000000  1
loop_
_geom_bond_atom_site_label_1
_geom_bond_atom_site_label_2
_geom_bond_distance
_geom_bond_site_symmetry_2
Ir0 Zr1 2.331286 1_544
Ir0 Zr0 2.331286 1_555
Au0 Zr0 2.816860 1_555
Au0 Zr1 2.816860 1_555
