# generated using pymatgen
data_NdGa2Pt3
_symmetry_space_group_name_H-M   'P 1'
_cell_length_a   11.16886666
_cell_length_b   11.16886666
_cell_length_c   7.98849814
_cell_angle_alpha   90.00000000
_cell_angle_beta   90.00000000
_cell_angle_gamma   120.00000488
_symmetry_Int_Tables_number   1
_chemical_formula_structural   NdGa2Pt3
_chemical_formula_sum   'Nd8 Ga16 Pt24'
_cell_volume   863.00629044
_cell_formula_units_Z   8
loop_
 _symmetry_equiv_pos_site_id
 _symmetry_equiv_pos_as_xyz
  1  'x, y, z'
loop_
 _atom_site_type_symbol
 _atom_site_label
 _atom_site_symmetry_multiplicity
 _atom_site_fract_x
 _atom_site_fract_y
 _atom_site_fract_z
 _atom_site_occupancy
  Nd  Nd0_0  1  0.00000000  0.00000000  0.00000000  1
  Nd  Nd0_1  1  0.00000000  0.00000000  0.50000000  1
  Nd  Nd0_2  1  0.00000000  0.50000000  0.00000000  1
  Nd  Nd0_3  1  0.00000000  0.50000000  0.50000000  1
  Nd  Nd0_4  1  0.50000000  0.00000000  0.00000000  1
  Nd  Nd0_5  1  0.50000000  0.00000000  0.50000000  1
  Nd  Nd0_6  1  0.50000000  0.50000000  0.00000000  1
  Nd  Nd0_7  1  0.50000000  0.50000000  0.50000000  1
  Ga  Ga0_0  1  0.33333350  0.16666650  0.00000000  1
  Ga  Ga0_1  1  0.33333350  0.16666650  0.50000000  1
  Ga  Ga0_2  1  0.33333350  0.66666650  0.00000000  1
  Ga  Ga0_3  1  0.33333350  0.66666650  0.50000000  1
  Ga  Ga0_4  1  0.83333350  0.16666650  0.00000000  1
  Ga  Ga0_5  1  0.83333350  0.16666650  0.50000000  1
  Ga  Ga0_6  1  0.83333350  0.66666650  0.00000000  1
  Ga  Ga0_7  1  0.83333350  0.66666650  0.50000000  1
  Ga  Ga1_0  1  0.16666650  0.33333350  0.00000000  1
  Ga  Ga1_1  1  0.16666650  0.33333350  0.50000000  1
  Ga  Ga1_2  1  0.16666650  0.83333350  0.00000000  1
  Ga  Ga1_3  1  0.16666650  0.83333350  0.50000000  1
  Ga  Ga1_4  1  0.66666650  0.33333350  0.00000000  1
  Ga  Ga1_5  1  0.66666650  0.33333350  0.50000000  1
  Ga  Ga1_6  1  0.66666650  0.83333350  0.00000000  1
  Ga  Ga1_7  1  0.66666650  0.83333350  0.50000000  1
  Pt  Pt0_0  1  0.25000000  0.25000000  0.25000000  1
  Pt  Pt0_1  1  0.25000000  0.25000000  0.75000000  1
  Pt  Pt0_2  1  0.25000000  0.75000000  0.25000000  1
  Pt  Pt0_3  1  0.25000000  0.75000000  0.75000000  1
  Pt  Pt0_4  1  0.75000000  0.25000000  0.25000000  1
  Pt  Pt0_5  1  0.75000000  0.25000000  0.75000000  1
  Pt  Pt0_6  1  0.75000000  0.75000000  0.25000000  1
  Pt  Pt0_7  1  0.75000000  0.75000000  0.75000000  1
  Pt  Pt1_0  1  0.25000000  0.00000000  0.25000000  1
  Pt  Pt1_1  1  0.25000000  0.00000000  0.75000000  1
  Pt  Pt1_2  1  0.25000000  0.50000000  0.25000000  1
  Pt  Pt1_3  1  0.25000000  0.50000000  0.75000000  1
  Pt  Pt1_4  1  0.75000000  0.00000000  0.25000000  1
  Pt  Pt1_5  1  0.75000000  0.00000000  0.75000000  1
  Pt  Pt1_6  1  0.75000000  0.50000000  0.25000000  1
  Pt  Pt1_7  1  0.75000000  0.50000000  0.75000000  1
  Pt  Pt2_0  1  0.00000000  0.25000000  0.25000000  1
  Pt  Pt2_1  1  0.00000000  0.25000000  0.75000000  1
  Pt  Pt2_2  1  0.00000000  0.75000000  0.25000000  1
  Pt  Pt2_3  1  0.00000000  0.75000000  0.75000000  1
  Pt  Pt2_4  1  0.50000000  0.25000000  0.25000000  1
  Pt  Pt2_5  1  0.50000000  0.25000000  0.75000000  1
  Pt  Pt2_6  1  0.50000000  0.75000000  0.25000000  1
  Pt  Pt2_7  1  0.50000000  0.75000000  0.75000000  1
loop_
_geom_bond_atom_site_label_1
_geom_bond_atom_site_label_2
_geom_bond_distance
_geom_bond_site_symmetry_2
Nd0_0 Pt0_0 3.432926 1_555
Nd0_0 Pt0_1 3.432926 1_554
Nd0_0 Pt0_6 3.432926 1_445
Nd0_0 Pt0_7 3.432926 1_444
Nd0_0 Pt1_1 3.432926 1_554
Nd0_0 Pt2_0 3.432926 1_555
Nd0_0 Pt1_0 3.432926 1_555
Nd0_0 Pt2_1 3.432926 1_554
Nd0_0 Pt1_4 3.432926 1_455
Nd0_0 Pt1_5 3.432926 1_454
Nd0_0 Pt2_3 3.432926 1_544
Nd0_0 Pt2_2 3.432926 1_545
Nd0_0 Nd0_1 3.994249 1_555
Nd0_0 Nd0_1 3.994249 1_554
Nd0_1 Pt0_0 3.432926 1_555
Nd0_1 Pt0_1 3.432926 1_555
Nd0_1 Pt0_6 3.432926 1_445
Nd0_1 Pt0_7 3.432926 1_445
Nd0_1 Pt2_1 3.432926 1_555
Nd0_1 Pt2_0 3.432926 1_555
Nd0_1 Pt1_0 3.432926 1_555
Nd0_1 Pt1_1 3.432926 1_555
Nd0_1 Pt1_4 3.432926 1_455
Nd0_1 Pt1_5 3.432926 1_455
Nd0_1 Pt2_3 3.432926 1_545
Nd0_1 Pt2_2 3.432926 1_545
Nd0_2 Pt0_2 3.432926 1_555
Nd0_2 Pt0_3 3.432926 1_554
Nd0_2 Pt0_4 3.432926 1_455
Nd0_2 Pt0_5 3.432926 1_454
Nd0_2 Pt1_7 3.432926 1_454
Nd0_2 Pt1_6 3.432926 1_455
Nd0_2 Pt2_3 3.432926 1_554
Nd0_2 Pt2_2 3.432926 1_555
Nd0_2 Pt2_0 3.432926 1_555
Nd0_2 Pt1_3 3.432926 1_554
Nd0_2 Pt2_1 3.432926 1_554
Nd0_2 Pt1_2 3.432926 1_555
Nd0_2 Nd0_3 3.994249 1_554
Nd0_2 Nd0_3 3.994249 1_555
Nd0_3 Pt0_2 3.432926 1_555
Nd0_3 Pt0_3 3.432926 1_555
Nd0_3 Pt0_4 3.432926 1_455
Nd0_3 Pt0_5 3.432926 1_455
Nd0_3 Pt1_7 3.432926 1_455
Nd0_3 Pt1_6 3.432926 1_455
Nd0_3 Pt2_2 3.432926 1_555
Nd0_3 Pt2_3 3.432926 1_555
Nd0_3 Pt2_1 3.432926 1_555
Nd0_3 Pt2_0 3.432926 1_555
Nd0_3 Pt1_2 3.432926 1_555
Nd0_3 Pt1_3 3.432926 1_555
Nd0_4 Pt0_4 3.432926 1_555
Nd0_4 Pt0_2 3.432926 1_545
Nd0_4 Pt0_5 3.432926 1_554
Nd0_4 Pt0_3 3.432926 1_544
Nd0_4 Pt2_5 3.432926 1_554
Nd0_4 Pt2_4 3.432926 1_555
Nd0_4 Pt1_5 3.432926 1_554
Nd0_4 Pt1_1 3.432926 1_554
Nd0_4 Pt1_4 3.432926 1_555
Nd0_4 Pt1_0 3.432926 1_555
Nd0_4 Pt2_7 3.432926 1_544
Nd0_4 Pt2_6 3.432926 1_545
Nd0_4 Nd0_5 3.994249 1_555
Nd0_4 Nd0_5 3.994249 1_554
Nd0_5 Pt0_4 3.432926 1_555
Nd0_5 Pt0_3 3.432926 1_545
Nd0_5 Pt0_2 3.432926 1_545
Nd0_5 Pt0_5 3.432926 1_555
Nd0_5 Pt2_4 3.432926 1_555
Nd0_5 Pt2_5 3.432926 1_555
Nd0_5 Pt1_5 3.432926 1_555
Nd0_5 Pt1_4 3.432926 1_555
Nd0_5 Pt1_0 3.432926 1_555
Nd0_5 Pt1_1 3.432926 1_555
Nd0_5 Pt2_6 3.432926 1_545
Nd0_5 Pt2_7 3.432926 1_545
Nd0_6 Pt0_7 3.432926 1_554
Nd0_6 Pt0_6 3.432926 1_555
Nd0_6 Pt0_0 3.432926 1_555
Nd0_6 Pt0_1 3.432926 1_554
Nd0_6 Pt1_3 3.432926 1_554
Nd0_6 Pt2_5 3.432926 1_554
Nd0_6 Pt2_4 3.432926 1_555
Nd0_6 Pt1_2 3.432926 1_555
Nd0_6 Pt2_7 3.432926 1_554
Nd0_6 Pt2_6 3.432926 1_555
Nd0_6 Pt1_6 3.432926 1_555
Nd0_6 Pt1_7 3.432926 1_554
Nd0_6 Nd0_7 3.994249 1_554
Nd0_6 Nd0_7 3.994249 1_555
Nd0_7 Pt0_6 3.432926 1_555
Nd0_7 Pt0_7 3.432926 1_555
Nd0_7 Pt0_0 3.432926 1_555
Nd0_7 Pt0_1 3.432926 1_555
Nd0_7 Pt2_4 3.432926 1_555
Nd0_7 Pt1_2 3.432926 1_555
Nd0_7 Pt2_5 3.432926 1_555
Nd0_7 Pt1_3 3.432926 1_555
Nd0_7 Pt2_7 3.432926 1_555
Nd0_7 Pt2_6 3.432926 1_555
Nd0_7 Pt1_7 3.432926 1_555
Nd0_7 Pt1_6 3.432926 1_555
Ga0_0 Pt1_0 2.566579 1_555
Ga0_0 Pt1_1 2.566579 1_554
Ga0_0 Pt2_4 2.566579 1_555
Ga0_0 Pt2_5 2.566579 1_554
Ga0_0 Pt0_0 2.566582 1_555
Ga0_0 Pt0_1 2.566582 1_554
Ga0_0 Nd0_4 3.224171 1_555
Ga0_0 Nd0_6 3.224176 1_555
Ga0_0 Nd0_0 3.224176 1_555
Ga0_1 Pt1_0 2.566579 1_555
Ga0_1 Pt1_1 2.566579 1_555
Ga0_1 Pt2_4 2.566579 1_555
Ga0_1 Pt2_5 2.566579 1_555
Ga0_1 Pt0_0 2.566582 1_555
Ga0_1 Pt0_1 2.566582 1_555
Ga0_1 Nd0_5 3.224171 1_555
Ga0_1 Nd0_7 3.224176 1_555
Ga0_1 Nd0_1 3.224176 1_555
Ga0_2 Pt1_3 2.566579 1_554
Ga0_2 Pt1_2 2.566579 1_555
Ga0_2 Pt2_7 2.566579 1_554
Ga0_2 Pt2_6 2.566579 1_555
Ga0_2 Pt0_2 2.566582 1_555
Ga0_2 Pt0_3 2.566582 1_554
Ga0_2 Nd0_6 3.224171 1_555
Ga0_2 Nd0_2 3.224176 1_555
Ga0_2 Nd0_4 3.224176 1_565
Ga0_3 Pt1_3 2.566579 1_555
Ga0_3 Pt1_2 2.566579 1_555
Ga0_3 Pt2_7 2.566579 1_555
Ga0_3 Pt2_6 2.566579 1_555
Ga0_3 Pt0_3 2.566582 1_555
Ga0_3 Pt0_2 2.566582 1_555
Ga0_3 Nd0_7 3.224171 1_555
Ga0_3 Nd0_3 3.224176 1_555
Ga0_3 Nd0_5 3.224176 1_565
Ga0_4 Pt1_5 2.566579 1_554
Ga0_4 Pt1_4 2.566579 1_555
Ga0_4 Pt2_1 2.566579 1_654
Ga0_4 Pt2_0 2.566579 1_655
Ga0_4 Pt0_5 2.566582 1_554
Ga0_4 Pt0_4 2.566582 1_555
Ga0_4 Nd0_0 3.224171 1_655
Ga0_4 Nd0_2 3.224176 1_655
Ga0_4 Nd0_4 3.224176 1_555
Ga0_5 Pt1_4 2.566579 1_555
Ga0_5 Pt1_5 2.566579 1_555
Ga0_5 Pt2_0 2.566579 1_655
Ga0_5 Pt2_1 2.566579 1_655
Ga0_5 Pt0_4 2.566582 1_555
Ga0_5 Pt0_5 2.566582 1_555
Ga0_5 Nd0_1 3.224171 1_655
Ga0_5 Nd0_3 3.224176 1_655
Ga0_5 Nd0_5 3.224176 1_555
Ga0_6 Pt1_6 2.566579 1_555
Ga0_6 Pt1_7 2.566579 1_554
Ga0_6 Pt2_2 2.566579 1_655
Ga0_6 Pt2_3 2.566579 1_654
Ga0_6 Pt0_7 2.566582 1_554
Ga0_6 Pt0_6 2.566582 1_555
Ga0_6 Nd0_2 3.224171 1_655
Ga0_6 Nd0_6 3.224176 1_555
Ga0_6 Nd0_0 3.224176 1_665
Ga0_7 Pt1_6 2.566579 1_555
Ga0_7 Pt1_7 2.566579 1_555
Ga0_7 Pt2_2 2.566579 1_655
Ga0_7 Pt2_3 2.566579 1_655
Ga0_7 Pt0_6 2.566582 1_555
Ga0_7 Pt0_7 2.566582 1_555
Ga0_7 Nd0_3 3.224171 1_655
Ga0_7 Nd0_7 3.224176 1_555
Ga0_7 Nd0_1 3.224176 1_665
Ga1_0 Pt2_0 2.566579 1_555
Ga1_0 Pt1_3 2.566579 1_554
Ga1_0 Pt2_1 2.566579 1_554
Ga1_0 Pt1_2 2.566579 1_555
Ga1_0 Pt0_0 2.566582 1_555
Ga1_0 Pt0_1 2.566582 1_554
Ga1_0 Nd0_2 3.224171 1_555
Ga1_0 Nd0_0 3.224176 1_555
Ga1_0 Nd0_6 3.224176 1_555
Ga1_1 Pt2_0 2.566579 1_555
Ga1_1 Pt2_1 2.566579 1_555
Ga1_1 Pt1_3 2.566579 1_555
Ga1_1 Pt1_2 2.566579 1_555
Ga1_1 Pt0_0 2.566582 1_555
Ga1_1 Pt0_1 2.566582 1_555
Ga1_1 Nd0_3 3.224171 1_555
Ga1_1 Nd0_7 3.224176 1_555
Ga1_1 Nd0_1 3.224176 1_555
Ga1_2 Pt2_3 2.566579 1_554
Ga1_2 Pt2_2 2.566579 1_555
Ga1_2 Pt1_1 2.566579 1_564
Ga1_2 Pt1_0 2.566579 1_565
Ga1_2 Pt0_2 2.566582 1_555
Ga1_2 Pt0_3 2.566582 1_554
Ga1_2 Nd0_0 3.224171 1_565
Ga1_2 Nd0_4 3.224176 1_565
Ga1_2 Nd0_2 3.224176 1_555
Ga1_3 Pt2_2 2.566579 1_555
Ga1_3 Pt2_3 2.566579 1_555
Ga1_3 Pt1_1 2.566579 1_565
Ga1_3 Pt1_0 2.566579 1_565
Ga1_3 Pt0_2 2.566582 1_555
Ga1_3 Pt0_3 2.566582 1_555
Ga1_3 Nd0_1 3.224171 1_565
Ga1_3 Nd0_5 3.224176 1_565
Ga1_3 Nd0_3 3.224176 1_555
Ga1_4 Pt2_4 2.566579 1_555
Ga1_4 Pt2_5 2.566579 1_554
Ga1_4 Pt1_7 2.566579 1_554
Ga1_4 Pt1_6 2.566579 1_555
Ga1_4 Pt0_5 2.566582 1_554
Ga1_4 Pt0_4 2.566582 1_555
Ga1_4 Nd0_6 3.224171 1_555
Ga1_4 Nd0_4 3.224176 1_555
Ga1_4 Nd0_2 3.224176 1_655
Ga1_5 Pt2_4 2.566579 1_555
Ga1_5 Pt2_5 2.566579 1_555
Ga1_5 Pt1_7 2.566579 1_555
Ga1_5 Pt1_6 2.566579 1_555
Ga1_5 Pt0_5 2.566582 1_555
Ga1_5 Pt0_4 2.566582 1_555
Ga1_5 Nd0_7 3.224171 1_555
Ga1_5 Nd0_5 3.224176 1_555
Ga1_5 Nd0_3 3.224176 1_655
Ga1_6 Pt2_7 2.566579 1_554
Ga1_6 Pt2_6 2.566579 1_555
Ga1_6 Pt1_4 2.566579 1_565
Ga1_6 Pt1_5 2.566579 1_564
Ga1_6 Pt0_7 2.566582 1_554
Ga1_6 Pt0_6 2.566582 1_555
Ga1_6 Nd0_4 3.224171 1_565
Ga1_6 Nd0_0 3.224176 1_665
Ga1_6 Nd0_6 3.224176 1_555
Ga1_7 Pt2_7 2.566579 1_555
Ga1_7 Pt2_6 2.566579 1_555
Ga1_7 Pt1_4 2.566579 1_565
Ga1_7 Pt1_5 2.566579 1_565
Ga1_7 Pt0_6 2.566582 1_555
Ga1_7 Pt0_7 2.566582 1_555
Ga1_7 Nd0_5 3.224171 1_565
Ga1_7 Nd0_1 3.224176 1_665
Ga1_7 Nd0_7 3.224176 1_555
Pt0_0 Pt1_0 2.792217 1_555
Pt0_0 Pt2_0 2.792217 1_555
Pt0_0 Pt1_2 2.792217 1_555
Pt0_0 Pt2_4 2.792217 1_555
Pt0_1 Pt1_1 2.792217 1_555
Pt0_1 Pt2_1 2.792217 1_555
Pt0_1 Pt1_3 2.792217 1_555
Pt0_1 Pt2_5 2.792217 1_555
Pt0_2 Pt1_2 2.792217 1_555
Pt0_2 Pt2_2 2.792217 1_555
Pt0_2 Pt2_6 2.792217 1_555
Pt0_2 Pt1_0 2.792217 1_565
Pt0_3 Pt1_3 2.792217 1_555
Pt0_3 Pt2_3 2.792217 1_555
Pt0_3 Pt2_7 2.792217 1_555
Pt0_3 Pt1_1 2.792217 1_565
Pt0_4 Pt1_4 2.792217 1_555
Pt0_4 Pt2_0 2.792217 1_655
Pt0_4 Pt2_4 2.792217 1_555
Pt0_4 Pt1_6 2.792217 1_555
Pt0_5 Pt1_5 2.792217 1_555
Pt0_5 Pt2_1 2.792217 1_655
Pt0_5 Pt2_5 2.792217 1_555
Pt0_5 Pt1_7 2.792217 1_555
Pt0_6 Pt2_6 2.792217 1_555
Pt0_6 Pt1_6 2.792217 1_555
Pt0_6 Pt2_2 2.792217 1_655
Pt0_6 Pt1_4 2.792217 1_565
Pt0_7 Pt2_7 2.792217 1_555
Pt0_7 Pt1_7 2.792217 1_555
Pt0_7 Pt2_3 2.792217 1_655
Pt0_7 Pt1_5 2.792217 1_565
Pt1_0 Pt2_4 2.792216 1_555
Pt1_0 Pt2_2 2.792216 1_545
Pt1_1 Pt2_5 2.792216 1_555
Pt1_1 Pt2_3 2.792216 1_545
Pt1_2 Pt2_0 2.792216 1_555
Pt1_2 Pt2_6 2.792216 1_555
Pt1_3 Pt2_1 2.792216 1_555
Pt1_3 Pt2_7 2.792216 1_555
Pt1_4 Pt2_6 2.792216 1_545
Pt1_4 Pt2_0 2.792216 1_655
Pt1_5 Pt2_7 2.792216 1_545
Pt1_5 Pt2_1 2.792216 1_655
Pt1_6 Pt2_2 2.792216 1_655
Pt1_6 Pt2_4 2.792216 1_555
Pt1_7 Pt2_3 2.792216 1_655
Pt1_7 Pt2_5 2.792216 1_555
