# generated using pymatgen
data_SrMg6Sn
_symmetry_space_group_name_H-M   'P 1'
_cell_length_a   5.25936100
_cell_length_b   6.55736200
_cell_length_c   12.12485400
_cell_angle_alpha   90.00000000
_cell_angle_beta   90.00000000
_cell_angle_gamma   90.00000000
_symmetry_Int_Tables_number   1
_chemical_formula_structural   SrMg6Sn
_chemical_formula_sum   'Sr2 Mg12 Sn2'
_cell_volume   418.15631415
_cell_formula_units_Z   2
loop_
 _symmetry_equiv_pos_site_id
 _symmetry_equiv_pos_as_xyz
  1  'x, y, z'
loop_
 _atom_site_type_symbol
 _atom_site_label
 _atom_site_symmetry_multiplicity
 _atom_site_fract_x
 _atom_site_fract_y
 _atom_site_fract_z
 _atom_site_occupancy
  Sr  Sr0  1  0.50000000  0.00000000  0.67089300  1
  Sr  Sr1  1  0.50000000  0.50000000  0.17089300  1
  Mg  Mg0  1  0.50000000  0.75134100  0.91862500  1
  Mg  Mg1  1  0.50000000  0.24865900  0.91862500  1
  Mg  Mg2  1  0.00000000  0.25862500  0.57596700  1
  Mg  Mg3  1  0.00000000  0.74137500  0.57596700  1
  Mg  Mg4  1  0.00000000  0.50000000  0.83428900  1
  Mg  Mg5  1  0.00000000  0.00000000  0.84262500  1
  Mg  Mg6  1  0.50000000  0.25134100  0.41862500  1
  Mg  Mg7  1  0.50000000  0.74865900  0.41862500  1
  Mg  Mg8  1  0.00000000  0.75862500  0.07596700  1
  Mg  Mg9  1  0.00000000  0.24137500  0.07596700  1
  Mg  Mg10  1  0.00000000  0.00000000  0.33428900  1
  Mg  Mg11  1  0.00000000  0.50000000  0.34262500  1
  Sn  Sn0  1  0.50000000  0.50000000  0.66300500  1
  Sn  Sn1  1  0.50000000  0.00000000  0.16300500  1
loop_
_geom_bond_atom_site_label_1
_geom_bond_atom_site_label_2
_geom_bond_distance
_geom_bond_site_symmetry_2
Mg0 Mg5 3.228474 1_665
Mg0 Mg5 3.228474 1_565
Mg0 Mg8 3.249155 1_656
Mg0 Mg8 3.249155 1_556
Mg0 Mg1 3.261094 1_565
Mg0 Mg4 3.267598 1_555
Mg0 Mg4 3.267598 1_655
Mg0 Mg1 3.296268 1_555
Mg0 Sn1 3.382082 1_566
Mg0 Sr0 3.417745 1_565
Mg0 Sr1 3.474488 1_556
Mg0 Sn0 3.510320 1_555
Mg1 Mg5 3.228474 1_555
Mg1 Mg5 3.228474 1_655
Mg1 Mg9 3.249155 1_556
Mg1 Mg9 3.249155 1_656
Mg1 Mg4 3.267598 1_555
Mg1 Mg4 3.267598 1_655
Mg1 Sn1 3.382082 1_556
Mg1 Sr0 3.417745 1_555
Mg1 Sr1 3.474488 1_556
Mg1 Sn0 3.510320 1_555
Mg2 Mg3 3.165567 1_555
Mg2 Sn0 3.245632 1_555
Mg2 Sn0 3.245632 1_455
Mg2 Mg6 3.249155 1_455
Mg2 Mg6 3.249155 1_555
Mg2 Sr0 3.334068 1_455
Mg2 Sr0 3.334068 1_555
Mg2 Mg3 3.391795 1_545
Mg2 Mg4 3.509324 1_555
Mg3 Sn0 3.245632 1_555
Mg3 Sn0 3.245632 1_455
Mg3 Mg7 3.249155 1_555
Mg3 Mg7 3.249155 1_455
Mg3 Sr0 3.334068 1_465
Mg3 Sr0 3.334068 1_565
Mg3 Mg4 3.509324 1_555
Mg4 Mg5 3.280239 1_555
Mg4 Mg5 3.280239 1_565
Mg4 Sn0 3.350864 1_555
Mg4 Sn0 3.350864 1_455
Mg4 Mg8 3.385674 1_556
Mg4 Mg9 3.385674 1_556
Mg5 Mg9 3.241880 1_556
Mg5 Mg8 3.241880 1_546
Mg5 Sr0 3.354233 1_455
Mg5 Sr0 3.354233 1_555
Mg6 Mg7 3.261094 1_555
Mg6 Mg7 3.296268 1_545
Mg6 Sn0 3.382082 1_555
Mg6 Sr1 3.417745 1_555
Mg6 Sr0 3.474488 1_555
Mg6 Sn1 3.510320 1_555
Mg7 Sn0 3.382082 1_555
Mg7 Sr1 3.417745 1_555
Mg7 Sr0 3.474488 1_565
Mg7 Sn1 3.510320 1_565
Mg8 Mg9 3.165567 1_565
Mg8 Sn1 3.245632 1_565
Mg8 Sn1 3.245632 1_465
Mg8 Sr1 3.334068 1_455
Mg8 Sr1 3.334068 1_555
Mg8 Mg9 3.391795 1_555
Mg9 Sn1 3.245632 1_555
Mg9 Sn1 3.245632 1_455
Mg9 Sr1 3.334068 1_555
Mg9 Sr1 3.334068 1_455
Mg10 Mg6 3.267598 1_455
Mg10 Mg6 3.267598 1_555
Mg10 Mg7 3.267598 1_445
Mg10 Mg7 3.267598 1_545
Mg10 Mg11 3.280239 1_555
Mg10 Mg11 3.280239 1_545
Mg10 Sn1 3.350864 1_455
Mg10 Sn1 3.350864 1_555
Mg10 Mg3 3.385674 1_545
Mg10 Mg2 3.385674 1_555
Mg10 Mg9 3.509324 1_555
Mg10 Mg8 3.509324 1_545
Mg11 Mg6 3.228474 1_555
Mg11 Mg7 3.228474 1_455
Mg11 Mg7 3.228474 1_555
Mg11 Mg6 3.228474 1_455
Mg11 Mg3 3.241880 1_555
Mg11 Mg2 3.241880 1_555
Mg11 Sr1 3.354233 1_455
Mg11 Sr1 3.354233 1_555
Sn0 Sr0 3.280076 1_565
Sn0 Sr0 3.280076 1_555
Sn1 Sr1 3.280076 1_545
Sn1 Sr1 3.280076 1_555
