# generated using pymatgen
data_MgV12Zn6O24
_symmetry_space_group_name_H-M   'P 1'
_cell_length_a   6.15345385
_cell_length_b   6.07155989
_cell_length_c   18.76565034
_cell_angle_alpha   60.42232076
_cell_angle_beta   60.49406708
_cell_angle_gamma   59.72901648
_symmetry_Int_Tables_number   1
_chemical_formula_structural   MgV12Zn6O24
_chemical_formula_sum   'Mg1 V12 Zn6 O24'
_cell_volume   498.11709770
_cell_formula_units_Z   1
loop_
 _symmetry_equiv_pos_site_id
 _symmetry_equiv_pos_as_xyz
  1  'x, y, z'
loop_
 _atom_site_type_symbol
 _atom_site_label
 _atom_site_symmetry_multiplicity
 _atom_site_fract_x
 _atom_site_fract_y
 _atom_site_fract_z
 _atom_site_occupancy
  Mg  Mg0  1  0.34046979  0.90761182  0.30617319  1
  V  V0  1  0.02162809  0.49053948  0.15519579  1
  V  V1  1  0.52356248  0.49103948  0.15503926  1
  V  V2  1  0.97856681  0.51633901  0.50829124  1
  V  V3  1  0.53589741  0.00058162  0.14263523  1
  V  V4  1  0.55425838  0.39239485  0.33263993  1
  V  V5  1  0.47703774  0.51665505  0.50836960  1
  V  V6  1  0.00118817  0.50262202  0.83264666  1
  V  V7  1  0.47592352  0.00478123  0.51346828  1
  V  V8  1  0.49829808  0.00595843  0.83195286  1
  V  V9  1  0.49286732  0.49832706  0.67133625  1
  V  V10  1  0.50110840  0.49915686  0.83285494  1
  V  V11  1  0.88558935  0.87557671  0.95140113  1
  Zn  Zn0  1  0.12994802  0.13362568  0.03536383  1
  Zn  Zn1  1  0.02373445  0.10530699  0.44784595  1
  Zn  Zn2  1  0.49731279  0.51771704  0.99621084  1
  Zn  Zn3  1  0.11828183  0.12979699  0.71096904  1
  Zn  Zn4  1  0.95103156  0.86343587  0.24601426  1
  Zn  Zn5  1  0.85692457  0.87518695  0.63632406  1
  O  O0  1  0.26632698  0.27366909  0.07454220  1
  O  O1  1  0.28475304  0.26250512  0.22318622  1
  O  O2  1  0.25329996  0.73396051  0.08676864  1
  O  O3  1  0.73674261  0.27465917  0.07386088  1
  O  O4  1  0.31392592  0.71730476  0.24387856  1
  O  O5  1  0.23960433  0.26611344  0.43606304  1
  O  O6  1  0.78097554  0.25003654  0.22949766  1
  O  O7  1  0.77360905  0.72245166  0.07740255  1
  O  O8  1  0.22560787  0.75358542  0.43133974  1
  O  O9  1  0.23699580  0.28252469  0.57983739  1
  O  O10  1  0.73976069  0.71724046  0.24372010  1
  O  O11  1  0.68360587  0.26636696  0.43609907  1
  O  O12  1  0.26290711  0.74454628  0.58929546  1
  O  O13  1  0.25285371  0.27339597  0.75279082  1
  O  O14  1  0.73083380  0.28009175  0.58437893  1
  O  O15  1  0.71089306  0.74048070  0.44539720  1
  O  O16  1  0.26477396  0.26313716  0.90172743  1
  O  O17  1  0.26235226  0.72093470  0.75586183  1
  O  O18  1  0.72228469  0.74366016  0.58942359  1
  O  O19  1  0.71410354  0.25934447  0.75290858  1
  O  O20  1  0.27806583  0.75955687  0.90524362  1
  O  O21  1  0.73380621  0.74086522  0.76381941  1
  O  O22  1  0.75424592  0.27198393  0.90326133  1
  O  O23  1  0.75778551  0.75076683  0.90496039  1
loop_
_geom_bond_atom_site_label_1
_geom_bond_atom_site_label_2
_geom_bond_distance
_geom_bond_site_symmetry_2
Mg0 O1 1.911586 1_565
Mg0 O8 1.937461 1_555
Mg0 O10 2.093829 1_555
Mg0 O4 2.107162 1_555
O0 Zn0 1.977890 1_555
O0 V0 2.003866 1_555
O0 Zn2 2.071632 1_554
O0 V3 2.087337 1_555
O1 V1 2.042796 1_555
O1 V0 2.048731 1_555
O1 V3 2.190094 1_555
O2 Zn0 1.987075 1_565
O2 V0 2.076768 1_555
O2 V1 2.083941 1_555
O2 Zn2 2.137264 1_554
O3 Zn0 1.977260 1_655
O3 V1 2.009293 1_555
O3 Zn2 2.066784 1_554
O3 V3 2.084307 1_555
O4 Zn4 1.929978 1_455
O4 V1 2.164855 1_555
O4 V3 2.240493 1_565
O4 V4 2.257084 1_555
O5 Zn1 1.889904 1_555
O5 V2 2.037990 1_455
O5 V7 2.054587 1_555
O5 V4 2.104664 1_555
O6 Zn4 1.955932 1_545
O6 V4 2.053213 1_555
O6 V0 2.098933 1_655
O6 V1 2.104143 1_555
O7 V11 1.949570 1_554
O7 V3 2.067945 1_565
O7 V1 2.101133 1_555
O7 V0 2.107562 1_655
O8 Zn1 1.949087 1_565
O8 V5 2.111609 1_555
O8 V2 2.112559 1_455
O9 Zn3 2.026940 1_555
O9 V5 2.069954 1_555
O9 V2 2.071774 1_455
O9 V7 2.080045 1_555
O10 Zn4 1.932906 1_555
O10 V0 2.162123 1_655
O10 V3 2.253484 1_565
O10 V4 2.263178 1_555
O11 Zn1 1.887747 1_655
O11 V5 2.037985 1_555
O11 V7 2.050817 1_555
O11 V4 2.104734 1_555
O12 Zn5 2.042197 1_455
O12 V5 2.054789 1_555
O12 V7 2.066562 1_565
O12 V9 2.085314 1_555
O13 Zn3 2.026167 1_555
O13 V9 2.032678 1_555
O13 V6 2.044730 1_555
O13 V8 2.116784 1_555
O14 Zn5 2.012995 1_545
O14 V9 2.094617 1_555
O14 V5 2.108733 1_555
O14 V2 2.111545 1_555
O15 V5 2.006287 1_555
O15 V2 2.006834 1_555
O15 V7 2.040232 1_565
O16 V8 2.029881 1_555
O16 Zn0 2.063286 1_556
O16 V6 2.063525 1_555
O16 V10 2.063990 1_555
O17 Zn3 2.027431 1_565
O17 V10 2.057905 1_555
O17 V9 2.078960 1_555
O17 V6 2.096890 1_555
O18 Zn5 2.043985 1_555
O18 V2 2.055465 1_555
O18 V9 2.072837 1_555
O18 V7 2.077933 1_565
O19 Zn3 2.033345 1_655
O19 V9 2.042167 1_555
O19 V8 2.048684 1_555
O19 V10 2.093853 1_555
O20 V11 1.976293 1_455
O20 V8 2.035451 1_565
O20 V10 2.079598 1_555
O20 Zn2 2.164974 1_555
O21 Zn5 1.968375 1_555
O21 V8 2.044578 1_565
O21 V10 2.072866 1_555
O21 V6 2.077763 1_655
O22 V11 1.968160 1_545
O22 V10 2.033846 1_555
O22 V6 2.087073 1_655
O22 Zn2 2.289676 1_555
O23 V11 1.969802 1_555
O23 V6 2.023852 1_655
O23 V8 2.095772 1_565
O23 Zn2 2.166651 1_555
