# generated using pymatgen
data_Lu2InAu2
_symmetry_space_group_name_H-M   'P 1'
_cell_length_a   6.95057900
_cell_length_b   8.21777200
_cell_length_c   8.21777200
_cell_angle_alpha   90.00000000
_cell_angle_beta   90.00000000
_cell_angle_gamma   90.00000000
_symmetry_Int_Tables_number   1
_chemical_formula_structural   Lu2InAu2
_chemical_formula_sum   'Lu8 In4 Au8'
_cell_volume   469.38494857
_cell_formula_units_Z   4
loop_
 _symmetry_equiv_pos_site_id
 _symmetry_equiv_pos_as_xyz
  1  'x, y, z'
loop_
 _atom_site_type_symbol
 _atom_site_label
 _atom_site_symmetry_multiplicity
 _atom_site_fract_x
 _atom_site_fract_y
 _atom_site_fract_z
 _atom_site_occupancy
  Lu  Lu0  1  0.24809000  0.34916400  0.34916400  1
  Lu  Lu1  1  0.75191000  0.65083600  0.65083600  1
  Lu  Lu2  1  0.24809000  0.65083600  0.65083600  1
  Lu  Lu3  1  0.74809000  0.15083600  0.84916400  1
  Lu  Lu4  1  0.25191000  0.15083600  0.84916400  1
  Lu  Lu5  1  0.75191000  0.34916400  0.34916400  1
  Lu  Lu6  1  0.25191000  0.84916400  0.15083600  1
  Lu  Lu7  1  0.74809000  0.84916400  0.15083600  1
  In  In0  1  0.25000000  0.00000000  0.50000000  1
  In  In1  1  0.75000000  0.00000000  0.50000000  1
  In  In2  1  0.25000000  0.50000000  0.00000000  1
  In  In3  1  0.75000000  0.50000000  0.00000000  1
  Au  Au0  1  0.00000000  0.13927800  0.13927800  1
  Au  Au1  1  0.00000000  0.86072200  0.86072200  1
  Au  Au2  1  0.50000000  0.36072200  0.63927800  1
  Au  Au3  1  0.50000000  0.63927800  0.36072200  1
  Au  Au4  1  0.00000000  0.35692600  0.64307400  1
  Au  Au5  1  0.00000000  0.64307400  0.35692600  1
  Au  Au6  1  0.50000000  0.85692600  0.85692600  1
  Au  Au7  1  0.50000000  0.14307400  0.14307400  1
loop_
_geom_bond_atom_site_label_1
_geom_bond_atom_site_label_2
_geom_bond_distance
_geom_bond_site_symmetry_2
In0 Lu4 3.125667 1_555
In0 Lu0 3.125667 1_555
In0 Lu2 3.125667 1_545
In0 Lu6 3.125667 1_545
In0 In1 3.475290 1_555
In0 In1 3.475290 1_455
In1 Lu3 3.125667 1_555
In1 Lu5 3.125667 1_555
In1 Lu1 3.125667 1_545
In1 Lu7 3.125667 1_545
In2 Lu6 3.125667 1_555
In2 Lu0 3.125667 1_555
In2 Lu2 3.125667 1_554
In2 Lu4 3.125667 1_554
In2 In3 3.475290 1_455
In2 In3 3.475290 1_555
In3 Lu7 3.125667 1_555
In3 Lu5 3.125667 1_555
In3 Lu1 3.125667 1_554
In3 Lu3 3.125667 1_554
Au0 Lu3 2.959499 1_454
Au0 Lu7 2.959499 1_445
Au0 Lu4 2.959499 1_554
Au0 Lu6 2.959499 1_545
Au0 Lu5 2.987187 1_455
Au0 Lu0 2.987187 1_555
Au1 Lu7 2.959499 1_456
Au1 Lu4 2.959499 1_565
Au1 Lu6 2.959499 1_556
Au1 Lu3 2.959499 1_465
Au1 Lu1 2.987187 1_455
Au1 Lu2 2.987187 1_555
Au2 Lu2 2.959499 1_555
Au2 Lu1 2.959499 1_555
Au2 Lu5 2.959499 1_555
Au2 Lu0 2.959499 1_555
Au2 Lu4 2.987187 1_555
Au2 Lu3 2.987187 1_555
Au3 Lu2 2.959499 1_555
Au3 Lu1 2.959499 1_555
Au3 Lu5 2.959499 1_555
Au3 Lu0 2.959499 1_555
Au3 Lu6 2.987187 1_555
Au3 Lu7 2.987187 1_555
Au4 Lu3 2.966865 1_455
Au4 Lu4 2.966865 1_555
Au4 Lu5 2.968353 1_455
Au4 Lu0 2.968353 1_555
Au4 Lu1 2.968353 1_455
Au4 Lu2 2.968353 1_555
Au5 Lu7 2.966865 1_455
Au5 Lu6 2.966865 1_555
Au5 Lu5 2.968353 1_455
Au5 Lu0 2.968353 1_555
Au5 Lu1 2.968353 1_455
Au5 Lu2 2.968353 1_555
Au6 Lu2 2.966865 1_555
Au6 Lu1 2.966865 1_555
Au6 Lu7 2.968353 1_556
Au6 Lu3 2.968353 1_565
Au6 Lu4 2.968353 1_565
Au6 Lu6 2.968353 1_556
Au7 Lu0 2.966865 1_555
Au7 Lu5 2.966865 1_555
Au7 Lu7 2.968353 1_545
Au7 Lu4 2.968353 1_554
Au7 Lu6 2.968353 1_545
Au7 Lu3 2.968353 1_554
