# generated using pymatgen
data_Ca2Pr2O5
_symmetry_space_group_name_H-M   'P 1'
_cell_length_a   4.29187700
_cell_length_b   4.29187700
_cell_length_c   7.82337800
_cell_angle_alpha   90.00000000
_cell_angle_beta   90.00000000
_cell_angle_gamma   90.00000000
_symmetry_Int_Tables_number   1
_chemical_formula_structural   Ca2Pr2O5
_chemical_formula_sum   'Ca2 Pr2 O5'
_cell_volume   144.10825146
_cell_formula_units_Z   1
loop_
 _symmetry_equiv_pos_site_id
 _symmetry_equiv_pos_as_xyz
  1  'x, y, z'
loop_
 _atom_site_type_symbol
 _atom_site_label
 _atom_site_symmetry_multiplicity
 _atom_site_fract_x
 _atom_site_fract_y
 _atom_site_fract_z
 _atom_site_occupancy
  Ca  Ca0  1  0.00000000  0.00000000  0.22924900  1
  Ca  Ca1  1  0.00000000  0.00000000  0.77075100  1
  Pr  Pr0  1  0.50000000  0.50000000  0.00000000  1
  Pr  Pr1  1  0.50000000  0.50000000  0.50000000  1
  O  O0  1  0.00000000  0.50000000  0.18819300  1
  O  O1  1  0.00000000  0.50000000  0.81180700  1
  O  O2  1  0.00000000  0.00000000  0.50000000  1
  O  O3  1  0.50000000  0.00000000  0.18819300  1
  O  O4  1  0.50000000  0.00000000  0.81180700  1
loop_
_geom_bond_atom_site_label_1
_geom_bond_atom_site_label_2
_geom_bond_distance
_geom_bond_site_symmetry_2
Ca0 O2 2.118187 1_555
Ca0 O0 2.169843 1_555
Ca0 O3 2.169843 1_455
Ca0 O0 2.169843 1_545
Ca0 O3 2.169843 1_555
Ca1 O2 2.118187 1_555
Ca1 O4 2.169843 1_455
Ca1 O1 2.169843 1_555
Ca1 O4 2.169843 1_555
Ca1 O1 2.169843 1_545
O0 Pr0 2.602448 1_455
O0 Pr0 2.602448 1_555
O0 Pr1 3.248945 1_455
O0 Pr1 3.248945 1_555
O1 Pr0 2.602448 1_456
O1 Pr0 2.602448 1_556
O1 Pr1 3.248945 1_455
O1 Pr1 3.248945 1_555
O2 Pr1 3.034815 1_445
O2 Pr1 3.034815 1_545
O2 Pr1 3.034815 1_455
O2 Pr1 3.034815 1_555
O3 Pr0 2.602448 1_545
O3 Pr0 2.602448 1_555
O3 Pr1 3.248945 1_555
O3 Pr1 3.248945 1_545
O4 Pr0 2.602448 1_546
O4 Pr0 2.602448 1_556
O4 Pr1 3.248945 1_555
O4 Pr1 3.248945 1_545
