# generated using pymatgen
data_TaInS2
_symmetry_space_group_name_H-M   'P 1'
_cell_length_a   3.31211583
_cell_length_b   3.31211583
_cell_length_c   17.33971105
_cell_angle_alpha   90.00000000
_cell_angle_beta   90.00000000
_cell_angle_gamma   120.02566883
_symmetry_Int_Tables_number   1
_chemical_formula_structural   TaInS2
_chemical_formula_sum   'Ta2 In2 S4'
_cell_volume   164.69147906
_cell_formula_units_Z   2
loop_
 _symmetry_equiv_pos_site_id
 _symmetry_equiv_pos_as_xyz
  1  'x, y, z'
loop_
 _atom_site_type_symbol
 _atom_site_label
 _atom_site_symmetry_multiplicity
 _atom_site_fract_x
 _atom_site_fract_y
 _atom_site_fract_z
 _atom_site_occupancy
  Ta  Ta0  1  -0.00021733  0.00021733  0.75000000  1
  Ta  Ta1  1  0.00021733  -0.00021733  0.25000000  1
  In  In0  1  -0.00000000  0.00000000  0.50000000  1
  In  In1  1  -0.00000000  0.00000000  0.00000000  1
  S  S0  1  0.66656381  0.33343619  0.66038910  1
  S  S1  1  0.33343619  0.66656381  0.33961090  1
  S  S2  1  0.33343619  0.66656381  0.16038910  1
  S  S3  1  0.66656381  0.33343619  0.83961090  1
loop_
_geom_bond_atom_site_label_1
_geom_bond_atom_site_label_2
_geom_bond_distance
_geom_bond_site_symmetry_2
S0 Ta0 2.463639 1_655
S0 Ta0 2.463828 1_665
S0 Ta0 2.463828 1_555
S1 Ta1 2.463639 1_565
S1 Ta1 2.463828 1_555
S1 Ta1 2.463828 1_665
S2 Ta1 2.463639 1_565
S2 Ta1 2.463828 1_665
S2 Ta1 2.463828 1_555
S3 Ta0 2.463639 1_655
S3 Ta0 2.463828 1_665
S3 Ta0 2.463828 1_555
