# generated using pymatgen
data_Re2NiO6
_symmetry_space_group_name_H-M   'P 1'
_cell_length_a   4.76281300
_cell_length_b   4.76281300
_cell_length_c   8.48714700
_cell_angle_alpha   90.00000000
_cell_angle_beta   90.00000000
_cell_angle_gamma   90.00000000
_symmetry_Int_Tables_number   1
_chemical_formula_structural   Re2NiO6
_chemical_formula_sum   'Re4 Ni2 O12'
_cell_volume   192.52573279
_cell_formula_units_Z   2
loop_
 _symmetry_equiv_pos_site_id
 _symmetry_equiv_pos_as_xyz
  1  'x, y, z'
loop_
 _atom_site_type_symbol
 _atom_site_label
 _atom_site_symmetry_multiplicity
 _atom_site_fract_x
 _atom_site_fract_y
 _atom_site_fract_z
 _atom_site_occupancy
  Re  Re0  1  0.50000000  0.50000000  0.34704400  1
  Re  Re1  1  0.50000000  0.50000000  0.65295600  1
  Re  Re2  1  0.00000000  0.00000000  0.84704400  1
  Re  Re3  1  0.00000000  0.00000000  0.15295600  1
  Ni  Ni0  1  0.50000000  0.50000000  0.00000000  1
  Ni  Ni1  1  0.00000000  0.00000000  0.50000000  1
  O  O0  1  0.21887700  0.78112300  0.00000000  1
  O  O1  1  0.21076800  0.78923200  0.32410500  1
  O  O2  1  0.21076800  0.78923200  0.67589500  1
  O  O3  1  0.78112300  0.21887700  0.00000000  1
  O  O4  1  0.78923200  0.21076800  0.32410500  1
  O  O5  1  0.78923200  0.21076800  0.67589500  1
  O  O6  1  0.28923200  0.28923200  0.17589500  1
  O  O7  1  0.28112300  0.28112300  0.50000000  1
  O  O8  1  0.28923200  0.28923200  0.82410500  1
  O  O9  1  0.71076800  0.71076800  0.17589500  1
  O  O10  1  0.71887700  0.71887700  0.50000000  1
  O  O11  1  0.71076800  0.71076800  0.82410500  1
loop_
_geom_bond_atom_site_label_1
_geom_bond_atom_site_label_2
_geom_bond_distance
_geom_bond_site_symmetry_2
Ni0 O3 1.893542 1_555
Ni0 O0 1.893542 1_555
Ni0 O9 2.060101 1_555
Ni0 O6 2.060101 1_555
Ni0 O11 2.060101 1_554
Ni0 O8 2.060101 1_554
Ni1 O7 1.893542 1_555
Ni1 O10 1.893542 1_445
Ni1 O1 2.060101 1_545
Ni1 O4 2.060101 1_455
Ni1 O2 2.060101 1_545
Ni1 O5 2.060101 1_455
O0 Re3 1.964359 1_565
O0 Re2 1.964359 1_564
O1 Re0 1.957865 1_555
O1 Re3 2.031102 1_565
O2 Re1 1.957865 1_555
O2 Re2 2.031102 1_565
O3 Re3 1.964359 1_655
O3 Re2 1.964359 1_654
O4 Re0 1.957865 1_555
O4 Re3 2.031102 1_655
O5 Re1 1.957865 1_555
O5 Re2 2.031102 1_655
O6 Re3 1.957865 1_555
O6 Re0 2.031102 1_555
O7 Re1 1.964359 1_555
O7 Re0 1.964359 1_555
O8 Re2 1.957865 1_555
O8 Re1 2.031102 1_555
O9 Re3 1.957865 1_665
O9 Re0 2.031102 1_555
O10 Re1 1.964359 1_555
O10 Re0 1.964359 1_555
O11 Re2 1.957865 1_665
O11 Re1 2.031102 1_555
