# generated using pymatgen
data_Er2GaNi2
_symmetry_space_group_name_H-M   'P 1'
_cell_length_a   4.14773529
_cell_length_b   5.27409632
_cell_length_c   5.24717697
_cell_angle_alpha   120.17651557
_cell_angle_beta   113.29161410
_cell_angle_gamma   90.00005394
_symmetry_Int_Tables_number   1
_chemical_formula_structural   Er2GaNi2
_chemical_formula_sum   'Er2 Ga1 Ni2'
_cell_volume   88.24092887
_cell_formula_units_Z   1
loop_
 _symmetry_equiv_pos_site_id
 _symmetry_equiv_pos_as_xyz
  1  'x, y, z'
loop_
 _atom_site_type_symbol
 _atom_site_label
 _atom_site_symmetry_multiplicity
 _atom_site_fract_x
 _atom_site_fract_y
 _atom_site_fract_z
 _atom_site_occupancy
  Er  Er0  1  0.79829705  0.29827410  0.59660716  1
  Er  Er1  1  0.20170277  0.70172556  0.40339274  1
  Ga  Ga0  1  1.00000000  -0.00000019  0.99999961  1
  Ni  Ni0  1  0.49994607  0.26720520  -0.00009979  1
  Ni  Ni1  1  0.50005411  0.73279533  1.00010028  1
loop_
_geom_bond_atom_site_label_1
_geom_bond_atom_site_label_2
_geom_bond_distance
_geom_bond_site_symmetry_2
Er0 Ni1 2.788386 1_544
Er0 Ni0 2.789560 1_555
Er0 Ni0 2.907373 1_656
Er0 Ni1 2.907798 1_655
Er0 Ni0 2.907890 1_556
Er0 Ni1 2.908271 1_555
Er0 Ga0 3.098624 1_565
Er0 Ga0 3.098723 1_555
Er0 Ga0 3.176497 1_454
Er0 Ga0 3.177255 1_554
Er0 Er1 3.254386 1_656
Er0 Er1 3.443725 1_545
Er0 Er1 3.444008 1_645
Er0 Er1 3.444358 1_555
Er0 Er1 3.444635 1_655
Er1 Ni0 2.788390 1_566
Er1 Ni1 2.789560 1_555
Er1 Ni1 2.907373 1_454
Er1 Ni0 2.907795 1_455
Er1 Ni1 2.907890 1_554
Er1 Ni0 2.908269 1_555
Er1 Ga0 3.098624 1_454
Er1 Ga0 3.098726 1_464
Er1 Ga0 3.176496 1_565
Er1 Ga0 3.177251 1_465
Ga0 Ni0 2.507513 1_656
Ga0 Ni1 2.507514 1_545
Ga0 Ni1 2.507542 1_645
Ga0 Ni0 2.507544 1_556
Ni0 Ni1 2.455040 1_554
Ni0 Ni1 2.819057 1_544
