# generated using pymatgen
data_Fe6ClO12
_symmetry_space_group_name_H-M   'P 1'
_cell_length_a   8.56614391
_cell_length_b   8.56614391
_cell_length_c   8.56614391
_cell_angle_alpha   105.21680204
_cell_angle_beta   105.21680204
_cell_angle_gamma   118.36297550
_symmetry_Int_Tables_number   1
_chemical_formula_structural   Fe6ClO12
_chemical_formula_sum   'Fe12 Cl2 O24'
_cell_volume   475.01370037
_cell_formula_units_Z   2
loop_
 _symmetry_equiv_pos_site_id
 _symmetry_equiv_pos_as_xyz
  1  'x, y, z'
loop_
 _atom_site_type_symbol
 _atom_site_label
 _atom_site_symmetry_multiplicity
 _atom_site_fract_x
 _atom_site_fract_y
 _atom_site_fract_z
 _atom_site_occupancy
  Fe  Fe0  1  0.16829300  0.35254100  0.52083500  1
  Fe  Fe1  1  0.83275700  0.01784000  0.51555100  1
  Fe  Fe2  1  0.49771100  0.68279300  0.51555100  1
  Fe  Fe3  1  0.16724300  0.98216000  0.48445000  1
  Fe  Fe4  1  0.83170700  0.64745900  0.47916500  1
  Fe  Fe5  1  0.50228900  0.31720700  0.48445000  1
  Fe  Fe6  1  0.35254100  0.83170700  0.18424800  1
  Fe  Fe7  1  0.68279300  0.16724300  0.18508200  1
  Fe  Fe8  1  0.01784000  0.50228900  0.18508200  1
  Fe  Fe9  1  0.64745900  0.16829300  0.81575200  1
  Fe  Fe10  1  0.98216000  0.49771100  0.81491800  1
  Fe  Fe11  1  0.31720700  0.83275700  0.81491800  1
  Cl  Cl0  1  0.88812000  0.88812000  0.00000000  1
  Cl  Cl1  1  0.11188000  0.11188000  0.00000000  1
  O  O0  1  0.48275000  0.11741600  0.93574600  1
  O  O1  1  0.15396300  0.78167500  0.93563800  1
  O  O2  1  0.81833000  0.45299600  0.93574600  1
  O  O3  1  0.84603700  0.21832500  0.06436200  1
  O  O4  1  0.51725000  0.88258400  0.06425400  1
  O  O5  1  0.18167000  0.54700400  0.06425400  1
  O  O6  1  0.49676500  0.88004500  0.70747700  1
  O  O7  1  0.16550600  0.54480600  0.71031200  1
  O  O8  1  0.82743200  0.21071100  0.70747700  1
  O  O9  1  0.83449400  0.45519400  0.28968800  1
  O  O10  1  0.50323500  0.11995500  0.29252300  1
  O  O11  1  0.17256800  0.78928900  0.29252300  1
  O  O12  1  0.88258400  0.81833000  0.36533400  1
  O  O13  1  0.54700400  0.48275000  0.36533400  1
  O  O14  1  0.21832500  0.15396300  0.37228700  1
  O  O15  1  0.45299600  0.51725000  0.63466600  1
  O  O16  1  0.11741600  0.18167000  0.63466600  1
  O  O17  1  0.78167500  0.84603700  0.62771300  1
  O  O18  1  0.11995500  0.82743200  0.61672000  1
  O  O19  1  0.78928900  0.49676500  0.61672000  1
  O  O20  1  0.45519400  0.16550600  0.62070000  1
  O  O21  1  0.21071100  0.50323500  0.38328000  1
  O  O22  1  0.88004500  0.17256800  0.38328000  1
  O  O23  1  0.54480600  0.83449400  0.37930000  1
loop_
_geom_bond_atom_site_label_1
_geom_bond_atom_site_label_2
_geom_bond_distance
_geom_bond_site_symmetry_2
Fe0 O16 1.910340 1_555
Fe0 O15 1.910347 1_555
Fe0 O22 1.940192 1_455
Fe0 O21 1.940198 1_555
Fe0 O7 2.000480 1_555
Fe0 O14 2.130526 1_555
Fe1 O17 1.905672 1_545
Fe1 O16 1.909825 1_655
Fe1 O22 1.929717 1_555
Fe1 O23 1.938788 1_545
Fe1 O8 2.029717 1_555
Fe1 O12 2.141430 1_545
Fe2 O17 1.905666 1_555
Fe2 O15 1.909818 1_555
Fe2 O21 1.929723 1_555
Fe2 O23 1.938794 1_555
Fe2 O6 2.029728 1_555
Fe2 O13 2.141424 1_555
Fe3 O14 1.905679 1_565
Fe3 O12 1.909825 1_455
Fe3 O18 1.929710 1_555
Fe3 O20 1.938787 1_565
Fe3 O11 2.029723 1_555
Fe3 O16 2.141426 1_565
Fe4 O12 1.910340 1_555
Fe4 O13 1.910347 1_555
Fe4 O18 1.940192 1_655
Fe4 O19 1.940198 1_555
Fe4 O9 2.000480 1_555
Fe4 O17 2.130526 1_555
Fe5 O14 1.905665 1_555
Fe5 O13 1.909825 1_555
Fe5 O19 1.929723 1_555
Fe5 O20 1.938787 1_555
Fe5 O10 2.029733 1_555
Fe5 O15 2.141420 1_555
Fe6 O5 1.910347 1_555
Fe6 O4 1.910347 1_555
Fe6 O10 1.940191 1_565
Fe6 O11 1.940192 1_555
Fe6 O23 2.000486 1_555
Fe6 O1 2.130518 1_554
Fe7 O3 1.905666 1_555
Fe7 O4 1.909825 1_545
Fe7 O10 1.929717 1_555
Fe7 O9 1.938787 1_555
Fe7 O22 2.029733 1_555
Fe7 O0 2.141420 1_554
Fe8 O3 1.905666 1_455
Fe8 O5 1.909818 1_555
Fe8 O11 1.929724 1_555
Fe8 O9 1.938794 1_455
Fe8 O21 2.029723 1_555
Fe8 O2 2.141424 1_454
Fe9 O0 1.910347 1_555
Fe9 O2 1.910347 1_555
Fe9 O6 1.940191 1_545
Fe9 O8 1.940192 1_555
Fe9 O20 2.000486 1_555
Fe9 O3 2.130518 1_556
Fe10 O1 1.905666 1_655
Fe10 O2 1.909818 1_555
Fe10 O8 1.929724 1_555
Fe10 O7 1.938794 1_655
Fe10 O19 2.029723 1_555
Fe10 O5 2.141424 1_656
Fe11 O1 1.905666 1_555
Fe11 O0 1.909825 1_565
Fe11 O6 1.929717 1_555
Fe11 O7 1.938787 1_555
Fe11 O18 2.029733 1_555
Fe11 O4 2.141420 1_556
Cl0 Cl1 1.963991 1_665
