# generated using pymatgen
data_Mg2Ga
_symmetry_space_group_name_H-M   'P 1'
_cell_length_a   11.73977885
_cell_length_b   11.73977885
_cell_length_c   15.26990117
_cell_angle_alpha   70.45389599
_cell_angle_beta   70.45389599
_cell_angle_gamma   30.18977563
_symmetry_Int_Tables_number   1
_chemical_formula_structural   Mg2Ga
_chemical_formula_sum   'Mg32 Ga16'
_cell_volume   992.72816836
_cell_formula_units_Z   16
loop_
 _symmetry_equiv_pos_site_id
 _symmetry_equiv_pos_as_xyz
  1  'x, y, z'
loop_
 _atom_site_type_symbol
 _atom_site_label
 _atom_site_symmetry_multiplicity
 _atom_site_fract_x
 _atom_site_fract_y
 _atom_site_fract_z
 _atom_site_occupancy
  Mg  Mg0_0  1  0.07122850  0.07122850  0.48134550  1
  Mg  Mg0_1  1  0.07122850  0.07122850  0.98134550  1
  Mg  Mg0_2  1  0.07122850  0.57122850  0.48134550  1
  Mg  Mg0_3  1  0.07122850  0.57122850  0.98134550  1
  Mg  Mg0_4  1  0.57122850  0.07122850  0.48134550  1
  Mg  Mg0_5  1  0.57122850  0.07122850  0.98134550  1
  Mg  Mg0_6  1  0.57122850  0.57122850  0.48134550  1
  Mg  Mg0_7  1  0.57122850  0.57122850  0.98134550  1
  Mg  Mg1_0  1  0.26631800  0.26631800  0.34022500  1
  Mg  Mg1_1  1  0.26631800  0.26631800  0.84022500  1
  Mg  Mg1_2  1  0.26631800  0.76631800  0.34022500  1
  Mg  Mg1_3  1  0.26631800  0.76631800  0.84022500  1
  Mg  Mg1_4  1  0.76631800  0.26631800  0.34022500  1
  Mg  Mg1_5  1  0.76631800  0.26631800  0.84022500  1
  Mg  Mg1_6  1  0.76631800  0.76631800  0.34022500  1
  Mg  Mg1_7  1  0.76631800  0.76631800  0.84022500  1
  Mg  Mg2_0  1  0.23368200  0.23368200  0.15977500  1
  Mg  Mg2_1  1  0.23368200  0.23368200  0.65977500  1
  Mg  Mg2_2  1  0.23368200  0.73368200  0.15977500  1
  Mg  Mg2_3  1  0.23368200  0.73368200  0.65977500  1
  Mg  Mg2_4  1  0.73368200  0.23368200  0.15977500  1
  Mg  Mg2_5  1  0.73368200  0.23368200  0.65977500  1
  Mg  Mg2_6  1  0.73368200  0.73368200  0.15977500  1
  Mg  Mg2_7  1  0.73368200  0.73368200  0.65977500  1
  Mg  Mg3_0  1  0.42877150  0.42877150  0.01865450  1
  Mg  Mg3_1  1  0.42877150  0.42877150  0.51865450  1
  Mg  Mg3_2  1  0.42877150  0.92877150  0.01865450  1
  Mg  Mg3_3  1  0.42877150  0.92877150  0.51865450  1
  Mg  Mg3_4  1  0.92877150  0.42877150  0.01865450  1
  Mg  Mg3_5  1  0.92877150  0.42877150  0.51865450  1
  Mg  Mg3_6  1  0.92877150  0.92877150  0.01865450  1
  Mg  Mg3_7  1  0.92877150  0.92877150  0.51865450  1
  Ga  Ga0_0  1  0.40395800  0.40395800  0.32363650  1
  Ga  Ga0_1  1  0.40395800  0.40395800  0.82363650  1
  Ga  Ga0_2  1  0.40395800  0.90395800  0.32363650  1
  Ga  Ga0_3  1  0.40395800  0.90395800  0.82363650  1
  Ga  Ga0_4  1  0.90395800  0.40395800  0.32363650  1
  Ga  Ga0_5  1  0.90395800  0.40395800  0.82363650  1
  Ga  Ga0_6  1  0.90395800  0.90395800  0.32363650  1
  Ga  Ga0_7  1  0.90395800  0.90395800  0.82363650  1
  Ga  Ga1_0  1  0.09604200  0.09604200  0.17636350  1
  Ga  Ga1_1  1  0.09604200  0.09604200  0.67636350  1
  Ga  Ga1_2  1  0.09604200  0.59604200  0.17636350  1
  Ga  Ga1_3  1  0.09604200  0.59604200  0.67636350  1
  Ga  Ga1_4  1  0.59604200  0.09604200  0.17636350  1
  Ga  Ga1_5  1  0.59604200  0.09604200  0.67636350  1
  Ga  Ga1_6  1  0.59604200  0.59604200  0.17636350  1
  Ga  Ga1_7  1  0.59604200  0.59604200  0.67636350  1
loop_
_geom_bond_atom_site_label_1
_geom_bond_atom_site_label_2
_geom_bond_distance
_geom_bond_site_symmetry_2
Mg0_0 Mg0_6 3.057254 1_545
Mg0_0 Mg0_6 3.057254 1_455
Mg0_0 Mg3_7 3.078738 1_445
Mg0_0 Mg3_5 3.093117 1_455
Mg0_0 Mg3_3 3.093117 1_545
Mg0_0 Mg2_3 3.154583 1_545
Mg0_0 Mg2_5 3.154583 1_455
Mg0_0 Mg1_4 3.223165 1_455
Mg0_0 Mg1_2 3.223165 1_545
Mg0_1 Mg0_7 3.057254 1_455
Mg0_1 Mg0_7 3.057254 1_545
Mg0_1 Mg3_6 3.078738 1_446
Mg0_1 Mg3_4 3.093117 1_456
Mg0_1 Mg3_2 3.093117 1_546
Mg0_1 Mg2_4 3.154583 1_456
Mg0_1 Mg2_2 3.154583 1_546
Mg0_1 Mg1_5 3.223165 1_455
Mg0_1 Mg1_3 3.223165 1_545
Mg0_2 Mg0_4 3.057254 1_465
Mg0_2 Mg0_4 3.057254 1_555
Mg0_2 Mg3_5 3.078738 1_455
Mg0_2 Mg3_7 3.093117 1_455
Mg0_2 Mg3_1 3.093117 1_555
Mg0_2 Mg2_1 3.154583 1_555
Mg0_2 Mg2_7 3.154583 1_455
Mg0_2 Mg1_6 3.223165 1_455
Mg0_2 Mg1_0 3.223165 1_555
Mg0_3 Mg0_5 3.057254 1_555
Mg0_3 Mg0_5 3.057254 1_465
Mg0_3 Mg3_4 3.078738 1_456
Mg0_3 Mg3_6 3.093117 1_456
Mg0_3 Mg3_0 3.093117 1_556
Mg0_3 Mg2_6 3.154583 1_456
Mg0_3 Mg2_0 3.154583 1_556
Mg0_3 Mg1_1 3.223165 1_555
Mg0_3 Mg1_7 3.223165 1_455
Mg0_4 Mg3_3 3.078738 1_545
Mg0_4 Mg3_7 3.093117 1_545
Mg0_4 Mg3_1 3.093117 1_555
Mg0_4 Mg2_1 3.154583 1_555
Mg0_4 Mg2_7 3.154583 1_545
Mg0_4 Mg1_0 3.223165 1_555
Mg0_4 Mg1_6 3.223165 1_545
Mg0_5 Mg3_2 3.078738 1_546
Mg0_5 Mg3_6 3.093117 1_546
Mg0_5 Mg3_0 3.093117 1_556
Mg0_5 Mg2_0 3.154583 1_556
Mg0_5 Mg2_6 3.154583 1_546
Mg0_5 Mg1_1 3.223165 1_555
Mg0_5 Mg1_7 3.223165 1_545
Mg0_6 Mg3_1 3.078738 1_555
Mg0_6 Mg3_3 3.093117 1_555
Mg0_6 Mg3_5 3.093117 1_555
Mg0_6 Mg2_3 3.154583 1_555
Mg0_6 Mg2_5 3.154583 1_555
Mg0_6 Mg1_2 3.223165 1_555
Mg0_6 Mg1_4 3.223165 1_555
Mg0_7 Mg3_0 3.078738 1_556
Mg0_7 Mg3_4 3.093117 1_556
Mg0_7 Mg3_2 3.093117 1_556
Mg0_7 Mg2_4 3.154583 1_556
Mg0_7 Mg2_2 3.154583 1_556
Mg0_7 Mg1_5 3.223165 1_555
Mg0_7 Mg1_3 3.223165 1_555
Mg1_0 Mg3_5 3.154583 1_455
Mg1_0 Mg3_3 3.154583 1_545
Mg1_1 Mg3_2 3.154583 1_546
Mg1_1 Mg3_4 3.154583 1_456
Mg1_2 Mg3_1 3.154583 1_555
Mg1_2 Mg3_7 3.154583 1_455
Mg1_3 Mg3_0 3.154583 1_556
Mg1_3 Mg3_6 3.154583 1_456
Mg1_4 Mg3_1 3.154583 1_555
Mg1_4 Mg3_7 3.154583 1_545
Mg1_5 Mg3_0 3.154583 1_556
Mg1_5 Mg3_6 3.154583 1_546
Mg1_6 Mg3_5 3.154583 1_555
Mg1_6 Mg3_3 3.154583 1_555
Mg1_7 Mg3_4 3.154583 1_556
Mg1_7 Mg3_2 3.154583 1_556
Mg2_0 Mg3_2 3.223165 1_545
Mg2_0 Mg3_4 3.223165 1_455
Mg2_1 Mg3_5 3.223165 1_455
Mg2_1 Mg3_3 3.223165 1_545
Mg2_2 Mg3_0 3.223165 1_555
Mg2_2 Mg3_6 3.223165 1_455
Mg2_3 Mg3_1 3.223165 1_555
Mg2_3 Mg3_7 3.223165 1_455
Mg2_4 Mg3_0 3.223165 1_555
Mg2_4 Mg3_6 3.223165 1_545
Mg2_5 Mg3_1 3.223165 1_555
Mg2_5 Mg3_7 3.223165 1_545
Mg2_6 Mg3_2 3.223165 1_555
Mg2_6 Mg3_4 3.223165 1_555
Mg2_7 Mg3_3 3.223165 1_555
Mg2_7 Mg3_5 3.223165 1_555
Mg3_0 Mg3_6 3.057254 1_545
Mg3_0 Mg3_6 3.057254 1_455
Mg3_1 Mg3_7 3.057254 1_455
Mg3_1 Mg3_7 3.057254 1_545
Mg3_2 Mg3_4 3.057254 1_465
Mg3_2 Mg3_4 3.057254 1_555
Mg3_3 Mg3_5 3.057254 1_555
Mg3_3 Mg3_5 3.057254 1_465
Ga0_0 Mg0_2 2.919469 1_555
Ga0_0 Mg0_4 2.919469 1_555
Ga0_0 Mg2_4 2.954614 1_555
Ga0_0 Mg2_2 2.954614 1_555
Ga0_0 Mg1_0 3.041738 1_555
Ga0_0 Mg1_2 3.055473 1_555
Ga0_0 Mg1_4 3.055473 1_555
Ga0_0 Ga0_6 3.057254 1_455
Ga0_0 Ga0_6 3.057254 1_545
Ga0_0 Mg3_1 3.216403 1_555
Ga0_1 Mg0_5 2.919469 1_555
Ga0_1 Mg0_3 2.919469 1_555
Ga0_1 Mg2_3 2.954614 1_555
Ga0_1 Mg2_5 2.954614 1_555
Ga0_1 Mg1_1 3.041738 1_555
Ga0_1 Mg1_3 3.055473 1_555
Ga0_1 Mg1_5 3.055473 1_555
Ga0_1 Ga0_7 3.057254 1_455
Ga0_1 Ga0_7 3.057254 1_545
Ga0_1 Mg3_0 3.216403 1_556
Ga0_2 Mg0_6 2.919469 1_555
Ga0_2 Mg0_0 2.919469 1_565
Ga0_2 Mg2_0 2.954614 1_565
Ga0_2 Mg2_6 2.954614 1_555
Ga0_2 Mg1_2 3.041738 1_555
Ga0_2 Mg1_6 3.055473 1_555
Ga0_2 Mg1_0 3.055473 1_565
Ga0_2 Ga0_4 3.057254 1_555
Ga0_2 Ga0_4 3.057254 1_465
Ga0_2 Mg3_3 3.216403 1_555
Ga0_3 Mg0_1 2.919469 1_565
Ga0_3 Mg0_7 2.919469 1_555
Ga0_3 Mg2_7 2.954614 1_555
Ga0_3 Mg2_1 2.954614 1_565
Ga0_3 Mg1_3 3.041738 1_555
Ga0_3 Mg1_7 3.055473 1_555
Ga0_3 Mg1_1 3.055473 1_565
Ga0_3 Ga0_5 3.057254 1_555
Ga0_3 Ga0_5 3.057254 1_465
Ga0_3 Mg3_2 3.216403 1_556
Ga0_4 Mg0_6 2.919469 1_555
Ga0_4 Mg0_0 2.919469 1_655
Ga0_4 Mg2_0 2.954614 1_655
Ga0_4 Mg2_6 2.954614 1_555
Ga0_4 Mg1_4 3.041738 1_555
Ga0_4 Mg1_6 3.055473 1_555
Ga0_4 Mg1_0 3.055473 1_655
Ga0_4 Mg3_5 3.216403 1_555
Ga0_5 Mg0_1 2.919469 1_655
Ga0_5 Mg0_7 2.919469 1_555
Ga0_5 Mg2_7 2.954614 1_555
Ga0_5 Mg2_1 2.954614 1_655
Ga0_5 Mg1_5 3.041738 1_555
Ga0_5 Mg1_7 3.055473 1_555
Ga0_5 Mg1_1 3.055473 1_655
Ga0_5 Mg3_4 3.216403 1_556
Ga0_6 Mg0_4 2.919469 1_565
Ga0_6 Mg0_2 2.919469 1_655
Ga0_6 Mg2_2 2.954614 1_655
Ga0_6 Mg2_4 2.954614 1_565
Ga0_6 Mg1_6 3.041738 1_555
Ga0_6 Mg1_4 3.055473 1_565
Ga0_6 Mg1_2 3.055473 1_655
Ga0_6 Mg3_7 3.216403 1_555
Ga0_7 Mg0_5 2.919469 1_565
Ga0_7 Mg0_3 2.919469 1_655
Ga0_7 Mg2_3 2.954614 1_655
Ga0_7 Mg2_5 2.954614 1_565
Ga0_7 Mg1_7 3.041738 1_555
Ga0_7 Mg1_5 3.055473 1_565
Ga0_7 Mg1_3 3.055473 1_655
Ga0_7 Mg3_6 3.216403 1_556
Ga1_0 Mg3_4 2.919469 1_455
Ga1_0 Mg3_2 2.919469 1_545
Ga1_0 Mg1_2 2.954614 1_545
Ga1_0 Mg1_4 2.954614 1_455
Ga1_0 Mg2_0 3.041738 1_555
Ga1_0 Mg2_4 3.055473 1_455
Ga1_0 Mg2_2 3.055473 1_545
Ga1_0 Ga1_6 3.057254 1_455
Ga1_0 Ga1_6 3.057254 1_545
Ga1_0 Mg0_1 3.216403 1_554
Ga1_1 Mg3_5 2.919469 1_455
Ga1_1 Mg3_3 2.919469 1_545
Ga1_1 Mg1_3 2.954614 1_545
Ga1_1 Mg1_5 2.954614 1_455
Ga1_1 Mg2_1 3.041738 1_555
Ga1_1 Mg2_3 3.055473 1_545
Ga1_1 Mg2_5 3.055473 1_455
Ga1_1 Ga1_7 3.057254 1_545
Ga1_1 Ga1_7 3.057254 1_455
Ga1_1 Mg0_0 3.216403 1_555
Ga1_2 Mg3_6 2.919469 1_455
Ga1_2 Mg3_0 2.919469 1_555
Ga1_2 Mg1_6 2.954614 1_455
Ga1_2 Mg1_0 2.954614 1_555
Ga1_2 Mg2_2 3.041738 1_555
Ga1_2 Mg2_6 3.055473 1_455
Ga1_2 Mg2_0 3.055473 1_555
Ga1_2 Ga1_4 3.057254 1_465
Ga1_2 Ga1_4 3.057254 1_555
Ga1_2 Mg0_3 3.216403 1_554
Ga1_3 Mg3_7 2.919469 1_455
Ga1_3 Mg3_1 2.919469 1_555
Ga1_3 Mg1_1 2.954614 1_555
Ga1_3 Mg1_7 2.954614 1_455
Ga1_3 Mg2_3 3.041738 1_555
Ga1_3 Mg2_1 3.055473 1_555
Ga1_3 Mg2_7 3.055473 1_455
Ga1_3 Ga1_5 3.057254 1_555
Ga1_3 Ga1_5 3.057254 1_465
Ga1_3 Mg0_2 3.216403 1_555
Ga1_4 Mg3_6 2.919469 1_545
Ga1_4 Mg3_0 2.919469 1_555
Ga1_4 Mg1_0 2.954614 1_555
Ga1_4 Mg1_6 2.954614 1_545
Ga1_4 Mg2_4 3.041738 1_555
Ga1_4 Mg2_6 3.055473 1_545
Ga1_4 Mg2_0 3.055473 1_555
Ga1_4 Mg0_5 3.216403 1_554
Ga1_5 Mg3_7 2.919469 1_545
Ga1_5 Mg3_1 2.919469 1_555
Ga1_5 Mg1_1 2.954614 1_555
Ga1_5 Mg1_7 2.954614 1_545
Ga1_5 Mg2_5 3.041738 1_555
Ga1_5 Mg2_1 3.055473 1_555
Ga1_5 Mg2_7 3.055473 1_545
Ga1_5 Mg0_4 3.216403 1_555
Ga1_6 Mg3_4 2.919469 1_555
Ga1_6 Mg3_2 2.919469 1_555
Ga1_6 Mg1_2 2.954614 1_555
Ga1_6 Mg1_4 2.954614 1_555
Ga1_6 Mg2_6 3.041738 1_555
Ga1_6 Mg2_2 3.055473 1_555
Ga1_6 Mg2_4 3.055473 1_555
Ga1_6 Mg0_7 3.216403 1_554
Ga1_7 Mg3_3 2.919469 1_555
Ga1_7 Mg3_5 2.919469 1_555
Ga1_7 Mg1_5 2.954614 1_555
Ga1_7 Mg1_3 2.954614 1_555
Ga1_7 Mg2_7 3.041738 1_555
Ga1_7 Mg2_3 3.055473 1_555
Ga1_7 Mg2_5 3.055473 1_555
Ga1_7 Mg0_6 3.216403 1_555
