# generated using pymatgen
data_Sr3SbI3
_symmetry_space_group_name_H-M   'P 1'
_cell_length_a   11.63923581
_cell_length_b   11.63830812
_cell_length_c   11.63800644
_cell_angle_alpha   109.46819957
_cell_angle_beta   109.47511937
_cell_angle_gamma   109.47226883
_symmetry_Int_Tables_number   1
_chemical_formula_structural   Sr3SbI3
_chemical_formula_sum   'Sr12 Sb4 I12'
_cell_volume   1213.55844429
_cell_formula_units_Z   4
loop_
 _symmetry_equiv_pos_site_id
 _symmetry_equiv_pos_as_xyz
  1  'x, y, z'
loop_
 _atom_site_type_symbol
 _atom_site_label
 _atom_site_symmetry_multiplicity
 _atom_site_fract_x
 _atom_site_fract_y
 _atom_site_fract_z
 _atom_site_occupancy
  Sr  Sr0  1  0.48499450  0.49250963  0.24248067  1
  Sr  Sr1  1  0.75000180  0.24249773  0.25749625  1
  Sr  Sr2  1  0.75000588  0.00749234  0.49251103  1
  Sr  Sr3  1  0.24249720  0.48500631  0.49249717  1
  Sr  Sr4  1  0.25749636  0.75000147  0.24249839  1
  Sr  Sr5  1  0.01500071  0.25751685  0.00748157  1
  Sr  Sr6  1  0.00750869  0.01499725  0.25749236  1
  Sr  Sr7  1  0.49251278  0.75001599  0.00749776  1
  Sr  Sr8  1  0.49249289  0.24250055  0.48499594  1
  Sr  Sr9  1  0.00748902  0.49250451  0.74998319  1
  Sr  Sr10  1  0.25750899  0.00750428  0.01500684  1
  Sr  Sr11  1  0.24251432  0.25750682  0.75000651  1
  Sb  Sb0  1  0.24998564  0.24995558  0.25001730  1
  Sb  Sb1  1  0.50001169  0.00002348  0.25001056  1
  Sb  Sb2  1  0.00001608  0.24996924  0.50001268  1
  Sb  Sb3  1  0.25001098  0.50003424  0.00004283  1
  I  I0  1  0.24999935  0.75185535  0.74818984  1
  I  I1  1  0.50363642  0.50180640  0.75178848  1
  I  I2  1  0.99633878  0.74815611  0.99816676  1
  I  I3  1  0.74820098  0.25001332  0.75184915  1
  I  I4  1  0.99816447  0.99634362  0.74816664  1
  I  I5  1  0.25000714  0.99818427  0.50184098  1
  I  I6  1  0.75183311  0.50365227  0.50180736  1
  I  I7  1  0.50180664  0.25000370  0.99816492  1
  I  I8  1  0.75179599  0.74815775  0.24999286  1
  I  I9  1  0.74815510  0.99815435  0.99633592  1
  I  I10  1  0.99820043  0.50182030  0.25001461  1
  I  I11  1  0.50181508  0.75181632  0.50365242  1
loop_
_geom_bond_atom_site_label_1
_geom_bond_atom_site_label_2
_geom_bond_distance
_geom_bond_site_symmetry_2
Sb0 Sr6 3.259947 1_555
Sb0 Sr8 3.259998 1_555
Sb0 Sr10 3.260439 1_555
Sb0 Sr3 3.260653 1_555
Sb0 Sr5 3.260955 1_555
Sb0 Sr0 3.261224 1_555
Sb1 Sr10 3.260308 1_555
Sb1 Sr1 3.260409 1_555
Sb1 Sr8 3.260422 1_555
Sb1 Sr2 3.260561 1_555
Sb1 Sr7 3.260674 1_545
Sb1 Sr4 3.260713 1_545
Sb2 Sr11 3.260081 1_555
Sb2 Sr6 3.260449 1_555
Sb2 Sr2 3.260462 1_455
Sb2 Sr9 3.260729 1_555
Sb2 Sr3 3.260769 1_555
Sb2 Sr1 3.260787 1_455
Sb3 Sr0 3.260015 1_555
Sb3 Sr4 3.260111 1_555
Sb3 Sr5 3.260302 1_555
Sb3 Sr7 3.260719 1_555
Sb3 Sr9 3.260742 1_554
Sb3 Sr11 3.260980 1_554
I0 Sr7 3.388005 1_556
I0 Sr9 3.388148 1_555
I0 Sr10 3.462624 1_566
I0 Sr3 3.463184 1_555
I1 Sr3 3.387821 1_555
I1 Sr11 3.388068 1_555
I1 Sr8 3.462600 1_555
I1 Sr7 3.463207 1_556
I2 Sr4 3.387941 1_656
I2 Sr10 3.388326 1_666
I2 Sr9 3.462828 1_655
I2 Sr6 3.462899 1_666
I3 Sr9 3.388097 1_655
I3 Sr2 3.388204 1_555
I3 Sr5 3.462300 1_656
I3 Sr8 3.463077 1_555
I4 Sr5 3.388122 1_666
I4 Sr11 3.388264 1_665
I4 Sr2 3.462506 1_565
I4 Sr10 3.462917 1_666
I5 Sr6 3.388027 1_565
I5 Sr8 3.388112 1_565
I5 Sr11 3.462802 1_565
I5 Sr4 3.463023 1_555
I6 Sr1 3.388023 1_555
I6 Sr8 3.388324 1_555
I6 Sr9 3.462630 1_655
I6 Sr0 3.462922 1_555
I7 Sr0 3.388018 1_556
I7 Sr10 3.388057 1_556
I7 Sr11 3.462462 1_555
I7 Sr1 3.462967 1_556
I8 Sr7 3.387876 1_555
I8 Sr2 3.388070 1_565
I8 Sr0 3.462522 1_555
I8 Sr6 3.463268 1_665
I9 Sr6 3.388081 1_666
I9 Sr1 3.388155 1_566
I9 Sr7 3.462552 1_556
I9 Sr5 3.463351 1_666
I10 Sr3 3.387582 1_655
I10 Sr5 3.388031 1_655
I10 Sr4 3.462885 1_655
I10 Sr1 3.462927 1_555
I11 Sr4 3.388003 1_555
I11 Sr0 3.388154 1_555
I11 Sr3 3.462741 1_555
I11 Sr2 3.462971 1_565
