# generated using pymatgen
data_Er(FeGe)6
_symmetry_space_group_name_H-M   'P 1'
_cell_length_a   5.11413500
_cell_length_b   5.11413490
_cell_length_c   8.12007500
_cell_angle_alpha   90.00000000
_cell_angle_beta   90.00000000
_cell_angle_gamma   119.99999419
_symmetry_Int_Tables_number   1
_chemical_formula_structural   Er(FeGe)6
_chemical_formula_sum   'Er1 Fe6 Ge6'
_cell_volume   183.92258629
_cell_formula_units_Z   1
loop_
 _symmetry_equiv_pos_site_id
 _symmetry_equiv_pos_as_xyz
  1  'x, y, z'
loop_
 _atom_site_type_symbol
 _atom_site_label
 _atom_site_symmetry_multiplicity
 _atom_site_fract_x
 _atom_site_fract_y
 _atom_site_fract_z
 _atom_site_occupancy
  Er  Er0  1  0.00000000  0.00000000  0.00000000  1
  Fe  Fe0  1  0.50000000  0.50000000  0.74979400  1
  Fe  Fe1  1  0.50000000  0.00000000  0.74979400  1
  Fe  Fe2  1  0.00000000  0.50000000  0.74979400  1
  Fe  Fe3  1  0.50000000  0.50000000  0.25020600  1
  Fe  Fe4  1  0.50000000  0.00000000  0.25020600  1
  Fe  Fe5  1  0.00000000  0.50000000  0.25020600  1
  Ge  Ge0  1  0.66666700  0.33333300  0.00000000  1
  Ge  Ge1  1  0.33333300  0.66666700  0.00000000  1
  Ge  Ge2  1  0.66666700  0.33333300  0.50000000  1
  Ge  Ge3  1  0.33333300  0.66666700  0.50000000  1
  Ge  Ge4  1  0.00000000  0.00000000  0.65384200  1
  Ge  Ge5  1  0.00000000  0.00000000  0.34615800  1
loop_
_geom_bond_atom_site_label_1
_geom_bond_atom_site_label_2
_geom_bond_distance
_geom_bond_site_symmetry_2
Er0 Ge5 2.810829 1_555
Er0 Ge4 2.810829 1_554
Er0 Ge1 2.952644 1_545
Er0 Ge0 2.952644 1_455
Er0 Ge0 2.952649 1_445
Er0 Ge1 2.952649 1_555
Er0 Ge0 2.952649 1_555
Er0 Ge1 2.952649 1_445
Er0 Fe5 3.265940 1_555
Er0 Fe5 3.265940 1_545
Er0 Fe2 3.265940 1_554
Er0 Fe2 3.265940 1_544
Er0 Fe4 3.265940 1_555
Er0 Fe4 3.265940 1_455
Er0 Fe1 3.265940 1_454
Er0 Fe1 3.265940 1_554
Er0 Fe3 3.265940 1_555
Er0 Fe3 3.265940 1_445
Er0 Fe0 3.265940 1_554
Er0 Fe0 3.265940 1_444
Fe0 Ge3 2.508730 1_555
Fe0 Ge2 2.508730 1_555
Fe0 Ge1 2.511436 1_556
Fe0 Ge0 2.511436 1_556
Fe0 Fe1 2.557067 1_565
Fe0 Fe1 2.557067 1_555
Fe0 Fe2 2.557068 1_555
Fe0 Fe2 2.557068 1_655
Fe0 Ge4 2.673135 1_555
Fe0 Ge4 2.673135 1_665
Fe1 Ge2 2.508728 1_555
Fe1 Ge3 2.508728 1_545
Fe1 Ge0 2.511433 1_556
Fe1 Ge1 2.511433 1_546
Fe1 Fe2 2.557068 1_655
Fe1 Fe2 2.557068 1_545
Fe1 Ge4 2.673135 1_555
Fe1 Ge4 2.673135 1_655
Fe2 Ge2 2.508728 1_455
Fe2 Ge3 2.508728 1_555
Fe2 Ge1 2.511433 1_556
Fe2 Ge0 2.511433 1_456
Fe2 Ge4 2.673135 1_555
Fe2 Ge4 2.673135 1_565
Fe3 Ge2 2.508730 1_555
Fe3 Ge3 2.508730 1_555
Fe3 Ge1 2.511436 1_555
Fe3 Ge0 2.511436 1_555
Fe3 Fe4 2.557067 1_565
Fe3 Fe4 2.557067 1_555
Fe3 Fe5 2.557068 1_655
Fe3 Fe5 2.557068 1_555
Fe3 Ge5 2.673135 1_555
Fe3 Ge5 2.673135 1_665
Fe4 Ge2 2.508728 1_555
Fe4 Ge3 2.508728 1_545
Fe4 Ge1 2.511433 1_545
Fe4 Ge0 2.511433 1_555
Fe4 Fe5 2.557068 1_545
Fe4 Fe5 2.557068 1_655
Fe4 Ge5 2.673135 1_655
Fe4 Ge5 2.673135 1_555
Fe5 Ge3 2.508728 1_555
Fe5 Ge2 2.508728 1_455
Fe5 Ge1 2.511433 1_555
Fe5 Ge0 2.511433 1_455
Fe5 Ge5 2.673135 1_555
Fe5 Ge5 2.673135 1_565
Ge4 Ge5 2.498417 1_555
