# generated using pymatgen
data_KSr2Br5
_symmetry_space_group_name_H-M   'P 1'
_cell_length_a   8.35147725
_cell_length_b   9.31956186
_cell_length_c   13.42117377
_cell_angle_alpha   89.92211180
_cell_angle_beta   90.00000000
_cell_angle_gamma   90.00000000
_symmetry_Int_Tables_number   1
_chemical_formula_structural   KSr2Br5
_chemical_formula_sum   'K4 Sr8 Br20'
_cell_volume   1044.59729304
_cell_formula_units_Z   4
loop_
 _symmetry_equiv_pos_site_id
 _symmetry_equiv_pos_as_xyz
  1  'x, y, z'
loop_
 _atom_site_type_symbol
 _atom_site_label
 _atom_site_symmetry_multiplicity
 _atom_site_fract_x
 _atom_site_fract_y
 _atom_site_fract_z
 _atom_site_occupancy
  K  K0  1  0.46331041  0.49421210  0.82839880  1
  K  K1  1  0.53668959  0.50578790  0.17160120  1
  K  K2  1  0.96331041  0.50578790  0.67160120  1
  K  K3  1  0.03668959  0.49421210  0.32839880  1
  Sr  Sr0  1  0.47753687  0.99869709  0.82192177  1
  Sr  Sr1  1  0.52246313  0.00130291  0.17807823  1
  Sr  Sr2  1  0.97753687  0.00130291  0.67807823  1
  Sr  Sr3  1  0.02246313  0.99869709  0.32192177  1
  Sr  Sr4  1  0.43049972  0.74915923  0.50598385  1
  Sr  Sr5  1  0.56950028  0.25084077  0.49401615  1
  Sr  Sr6  1  0.93049972  0.25084077  0.99401615  1
  Sr  Sr7  1  0.06950028  0.74915923  0.00598385  1
  Br  Br0  1  0.33220648  0.46292975  0.59268008  1
  Br  Br1  1  0.66779352  0.53707025  0.40731992  1
  Br  Br2  1  0.83220648  0.53707025  0.90731992  1
  Br  Br3  1  0.16779352  0.46292975  0.09268008  1
  Br  Br4  1  0.66959218  0.77967857  0.68310017  1
  Br  Br5  1  0.33040782  0.22032143  0.31689983  1
  Br  Br6  1  0.16959218  0.22032143  0.81689983  1
  Br  Br7  1  0.83040782  0.77967857  0.18310017  1
  Br  Br8  1  0.19384992  0.76836599  0.78429521  1
  Br  Br9  1  0.80615008  0.23163401  0.21570479  1
  Br  Br10  1  0.69384992  0.23163401  0.71570479  1
  Br  Br11  1  0.30615008  0.76836599  0.28429521  1
  Br  Br12  1  0.04364534  0.77887318  0.50290839  1
  Br  Br13  1  0.95635466  0.22112682  0.49709161  1
  Br  Br14  1  0.54364534  0.22112682  0.99709161  1
  Br  Br15  1  0.45635466  0.77887318  0.00290839  1
  Br  Br16  1  0.83898259  0.96068385  0.89984939  1
  Br  Br17  1  0.16101741  0.03931615  0.10015061  1
  Br  Br18  1  0.33898259  0.03931615  0.60015061  1
  Br  Br19  1  0.66101741  0.96068385  0.39984939  1
loop_
_geom_bond_atom_site_label_1
_geom_bond_atom_site_label_2
_geom_bond_distance
_geom_bond_site_symmetry_2
Br0 Sr4 3.022424 1_555
Br0 Sr5 3.097545 1_555
Br0 K2 3.282395 1_455
Br0 K0 3.360779 1_555
Br1 Sr5 3.022424 1_555
Br1 Sr4 3.097545 1_555
Br1 K3 3.282395 1_655
Br1 K1 3.360779 1_555
Br2 Sr6 3.022424 1_555
Br2 Sr7 3.097545 1_656
Br2 K0 3.282395 1_555
Br2 K2 3.360779 1_555
Br3 Sr7 3.022424 1_555
Br3 Sr6 3.097545 1_454
Br3 K1 3.282395 1_555
Br3 K3 3.360779 1_555
Br4 Sr4 3.117771 1_555
Br4 Sr0 3.196971 1_555
Br4 Sr2 3.299141 1_565
Br4 K2 3.543652 1_555
Br4 K0 3.719468 1_555
Br5 Sr5 3.117771 1_555
Br5 Sr1 3.196971 1_555
Br5 Sr3 3.299141 1_545
Br5 K3 3.543652 1_555
Br5 K1 3.719468 1_555
Br6 Sr6 3.117771 1_455
Br6 Sr2 3.196971 1_455
Br6 Sr0 3.299141 1_545
Br6 K0 3.543652 1_555
Br6 K2 3.719468 1_455
Br7 Sr7 3.117771 1_655
Br7 Sr3 3.196971 1_655
Br7 Sr1 3.299141 1_565
Br7 K1 3.543652 1_555
Br7 K3 3.719468 1_655
Br8 Sr7 3.156204 1_556
Br8 Sr2 3.162284 1_465
Br8 Sr0 3.237117 1_555
Br8 K0 3.455217 1_555
Br8 K2 3.463090 1_455
Br9 Sr6 3.156204 1_554
Br9 Sr3 3.162284 1_645
Br9 Sr1 3.237117 1_555
Br9 K1 3.455217 1_555
Br9 K3 3.463090 1_655
Br10 Sr5 3.156204 1_555
Br10 Sr0 3.162284 1_545
Br10 Sr2 3.237117 1_555
Br10 K2 3.455217 1_555
Br10 K0 3.463090 1_555
Br11 Sr4 3.156204 1_555
Br11 Sr1 3.162284 1_565
Br11 Sr3 3.237117 1_555
Br11 K3 3.455217 1_555
Br11 K1 3.463090 1_555
Br12 Sr3 3.180422 1_555
Br12 Sr2 3.184699 1_465
Br12 Sr4 3.242910 1_555
Br12 K2 3.469526 1_455
Br12 K3 3.541719 1_555
Br13 Sr2 3.180422 1_555
Br13 Sr3 3.184699 1_645
Br13 Sr5 3.242910 1_555
Br13 K3 3.469526 1_655
Br13 K2 3.541719 1_555
Br14 Sr1 3.180422 1_556
Br14 Sr0 3.184699 1_545
Br14 Sr6 3.242910 1_555
Br14 K0 3.469526 1_555
Br14 K1 3.541719 1_556
Br15 Sr0 3.180422 1_554
Br15 Sr1 3.184699 1_565
Br15 Sr7 3.242910 1_555
Br15 K1 3.469526 1_555
Br15 K0 3.541719 1_554
Br16 Sr6 3.082704 1_565
Br16 Sr7 3.100607 1_656
Br16 Sr0 3.214085 1_555
Br16 Sr2 3.215327 1_565
Br17 Sr7 3.082704 1_545
Br17 Sr6 3.100607 1_454
Br17 Sr1 3.214085 1_555
Br17 Sr3 3.215327 1_545
Br18 Sr4 3.082704 1_545
Br18 Sr5 3.100607 1_555
Br18 Sr2 3.214085 1_455
Br18 Sr0 3.215327 1_545
Br19 Sr5 3.082704 1_565
Br19 Sr4 3.100607 1_555
Br19 Sr3 3.214085 1_655
Br19 Sr1 3.215327 1_565
