# generated using pymatgen
data_K2Na2H16XeO14
_symmetry_space_group_name_H-M   'P 1'
_cell_length_a   8.32919977
_cell_length_b   8.32919977
_cell_length_c   10.95049393
_cell_angle_alpha   102.13937413
_cell_angle_beta   102.13937413
_cell_angle_gamma   97.76651944
_symmetry_Int_Tables_number   1
_chemical_formula_structural   K2Na2H16XeO14
_chemical_formula_sum   'K4 Na4 H32 Xe2 O28'
_cell_volume   713.20187373
_cell_formula_units_Z   2
loop_
 _symmetry_equiv_pos_site_id
 _symmetry_equiv_pos_as_xyz
  1  'x, y, z'
loop_
 _atom_site_type_symbol
 _atom_site_label
 _atom_site_symmetry_multiplicity
 _atom_site_fract_x
 _atom_site_fract_y
 _atom_site_fract_z
 _atom_site_occupancy
  K  K0  1  0.23114200  0.03424700  0.47796700  1
  K  K1  1  0.96575300  0.76885800  0.02203300  1
  K  K2  1  0.76885800  0.96575300  0.52203300  1
  K  K3  1  0.03424700  0.23114200  0.97796700  1
  Na  Na0  1  0.15006200  0.84993800  0.75000000  1
  Na  Na1  1  0.84993800  0.15006200  0.25000000  1
  Na  Na2  1  0.59083800  0.40916200  0.25000000  1
  Na  Na3  1  0.40916200  0.59083800  0.75000000  1
  H  H0  1  0.06707100  0.69325300  0.44701300  1
  H  H1  1  0.30674700  0.93292900  0.05298700  1
  H  H2  1  0.93292900  0.30674700  0.55298700  1
  H  H3  1  0.69325300  0.06707100  0.94701300  1
  H  H4  1  0.90974200  0.66770000  0.50444100  1
  H  H5  1  0.33230000  0.09025800  0.99555900  1
  H  H6  1  0.09025800  0.33230000  0.49555900  1
  H  H7  1  0.66770000  0.90974200  0.00444100  1
  H  H8  1  0.40503300  0.80500600  0.58790200  1
  H  H9  1  0.19499400  0.59496700  0.91209800  1
  H  H10  1  0.59496700  0.19499400  0.41209800  1
  H  H11  1  0.80500600  0.40503300  0.08790200  1
  H  H12  1  0.49938800  0.94131300  0.71800600  1
  H  H13  1  0.05868700  0.50061200  0.78199400  1
  H  H14  1  0.50061200  0.05868700  0.28199400  1
  H  H15  1  0.94131300  0.49938800  0.21800600  1
  H  H16  1  0.93158800  0.80051000  0.28170700  1
  H  H17  1  0.19949000  0.06841200  0.21829300  1
  H  H18  1  0.06841200  0.19949000  0.71829300  1
  H  H19  1  0.80051000  0.93158800  0.78170700  1
  H  H20  1  0.73349800  0.79968300  0.25425900  1
  H  H21  1  0.20031700  0.26650200  0.24574100  1
  H  H22  1  0.26650200  0.20031700  0.74574100  1
  H  H23  1  0.79968300  0.73349800  0.75425900  1
  H  H24  1  0.59397500  0.63944500  0.45892200  1
  H  H25  1  0.36055500  0.40602500  0.04107800  1
  H  H26  1  0.40602500  0.36055500  0.54107800  1
  H  H27  1  0.63944500  0.59397500  0.95892200  1
  H  H28  1  0.68481200  0.54656300  0.55731700  1
  H  H29  1  0.45343700  0.31518800  0.94268300  1
  H  H30  1  0.31518800  0.45343700  0.44268300  1
  H  H31  1  0.54656300  0.68481200  0.05731700  1
  Xe  Xe0  1  0.32059900  0.67940100  0.25000000  1
  Xe  Xe1  1  0.67940100  0.32059900  0.75000000  1
  O  O0  1  0.31636000  0.90448900  0.21163700  1
  O  O1  1  0.09551100  0.68364000  0.28836300  1
  O  O2  1  0.68364000  0.09551100  0.78836300  1
  O  O3  1  0.90448900  0.31636000  0.71163700  1
  O  O4  1  0.32390800  0.45963000  0.29111500  1
  O  O5  1  0.54037000  0.67609200  0.20888500  1
  O  O6  1  0.67609200  0.54037000  0.70888500  1
  O  O7  1  0.45963000  0.32390800  0.79111500  1
  O  O8  1  0.43539400  0.78863000  0.43209500  1
  O  O9  1  0.21137000  0.56460600  0.06790500  1
  O  O10  1  0.56460600  0.21137000  0.56790500  1
  O  O11  1  0.78863000  0.43539400  0.93209500  1
  O  O12  1  0.02535100  0.73149000  0.52492000  1
  O  O13  1  0.26851000  0.97464900  0.97508000  1
  O  O14  1  0.97464900  0.26851000  0.47508000  1
  O  O15  1  0.73149000  0.02535100  0.02492000  1
  O  O16  1  0.40595200  0.84267400  0.68062200  1
  O  O17  1  0.15732600  0.59404800  0.81937800  1
  O  O18  1  0.59404800  0.15732600  0.31937800  1
  O  O19  1  0.84267400  0.40595200  0.18062200  1
  O  O20  1  0.84597500  0.87271000  0.27586800  1
  O  O21  1  0.12729000  0.15402500  0.22413200  1
  O  O22  1  0.15402500  0.12729000  0.72413200  1
  O  O23  1  0.87271000  0.84597500  0.77586800  1
  O  O24  1  0.69041400  0.58221300  0.47596400  1
  O  O25  1  0.41778700  0.30958600  0.02403600  1
  O  O26  1  0.30958600  0.41778700  0.52403600  1
  O  O27  1  0.58221300  0.69041400  0.97596400  1
loop_
_geom_bond_atom_site_label_1
_geom_bond_atom_site_label_2
_geom_bond_distance
_geom_bond_site_symmetry_2
K0 O10 2.826986 1_555
K0 O8 2.863519 1_545
K0 O22 2.874669 1_555
K0 O12 3.051104 1_545
K0 O14 3.081653 1_455
K0 O1 3.112372 1_545
K0 O21 3.139768 1_555
K0 O0 3.151165 1_545
K1 O11 2.826986 1_554
K1 O9 2.863519 1_655
K1 O23 2.874669 1_554
K1 O13 3.051104 1_654
K1 O15 3.081653 1_565
K1 O0 3.112372 1_655
K1 O20 3.139768 1_555
K1 O1 3.151165 1_655
K2 O8 2.826986 1_555
K2 O10 2.863519 1_565
K2 O20 2.874669 1_555
K2 O14 3.051104 1_565
K2 O12 3.081653 1_655
K2 O3 3.112372 1_565
K2 O23 3.139768 1_555
K2 O2 3.151165 1_565
K3 O9 2.826986 1_556
K3 O11 2.863519 1_455
K3 O21 2.874669 1_556
K3 O15 3.051104 1_456
K3 O13 3.081653 1_545
K3 O2 3.112372 1_455
K3 O22 3.139768 1_555
K3 O3 3.151165 1_455
Na0 O23 2.382547 1_455
Na0 O22 2.382547 1_565
Na0 O12 2.398079 1_555
Na0 O13 2.398079 1_555
Na0 O17 2.412483 1_555
Na0 O16 2.412483 1_555
Na1 O20 2.382547 1_545
Na1 O21 2.382547 1_655
Na1 O15 2.398079 1_555
Na1 O14 2.398079 1_555
Na1 O18 2.412483 1_555
Na1 O19 2.412483 1_555
Na2 O19 2.377948 1_555
Na2 O18 2.377948 1_555
Na2 O5 2.432391 1_555
Na2 O4 2.432391 1_555
Na2 O24 2.490366 1_555
Na2 O25 2.490366 1_555
Na3 O17 2.377948 1_555
Na3 O16 2.377948 1_555
Na3 O6 2.432391 1_555
Na3 O7 2.432391 1_555
Na3 O27 2.490366 1_555
Na3 O26 2.490366 1_555
H0 O12 0.995148 1_555
H0 K0 2.898355 1_565
H1 O13 0.995148 1_554
H1 K1 2.898355 1_455
H2 O14 0.995148 1_555
H2 K2 2.898355 1_545
H3 O15 0.995148 1_556
H3 K3 2.898355 1_655
H4 O12 0.990260 1_655
H4 K2 2.873743 1_555
H5 O13 0.990260 1_545
H5 K3 2.873743 1_555
H6 O14 0.990260 1_455
H6 K0 2.873743 1_555
H7 O15 0.990260 1_565
H7 K1 2.873743 1_555
H8 O16 0.995738 1_555
H8 O8 1.756832 1_555
H8 K0 2.858964 1_565
H9 O17 0.995738 1_555
H9 O9 1.756832 1_556
H9 K1 2.858964 1_456
H10 O18 0.995738 1_555
H10 O10 1.756832 1_555
H10 K2 2.858964 1_545
H11 O19 0.995738 1_555
H11 O11 1.756832 1_554
H11 K3 2.858964 1_654
H12 O16 0.999997 1_555
H13 O17 0.999997 1_555
H14 O18 0.999997 1_555
H15 O19 0.999997 1_555
H16 O20 0.993540 1_555
H16 K1 2.877780 1_555
H16 K0 3.050648 1_665
H17 O21 0.993540 1_555
H17 K0 2.877780 1_555
H17 K1 3.050648 1_445
H18 O22 0.993540 1_555
H18 K3 2.877780 1_555
H18 K2 3.050648 1_445
H19 O23 0.993540 1_555
H19 K2 2.877780 1_555
H19 K3 3.050648 1_665
H20 O20 0.997928 1_555
H20 O5 1.701572 1_555
H20 K2 2.901553 1_555
H21 O21 0.997928 1_555
H21 O4 1.701572 1_555
H21 K3 2.901553 1_554
H22 O22 0.997928 1_555
H22 O7 1.701572 1_555
H22 K0 2.901553 1_555
H23 O23 0.997928 1_555
H23 O6 1.701572 1_555
H23 K1 2.901553 1_556
H24 O24 0.992548 1_555
H24 K2 2.775414 1_555
H25 O25 0.992548 1_555
H25 K3 2.775414 1_554
H26 O26 0.992548 1_555
H26 K0 2.775414 1_555
H27 O27 0.992548 1_555
H27 K1 2.775414 1_556
H28 O24 1.004472 1_555
H28 O6 1.687715 1_555
H29 O25 1.004472 1_556
H29 O7 1.687715 1_555
H30 O26 1.004472 1_555
H30 O4 1.687715 1_555
H31 O27 1.004472 1_554
H31 O5 1.687715 1_555
O0 Xe0 2.008858 1_555
O1 Xe0 2.008858 1_555
O2 Xe1 2.008858 1_555
O3 Xe1 2.008858 1_555
O4 Xe0 1.977194 1_555
O5 Xe0 1.977194 1_555
O6 Xe1 1.977194 1_555
O7 Xe1 1.977194 1_555
O8 Xe0 1.979423 1_555
O9 Xe0 1.979423 1_555
O10 Xe1 1.979423 1_555
O11 Xe1 1.979423 1_555
