# generated using pymatgen
data_ZnWF5
_symmetry_space_group_name_H-M   'P 1'
_cell_length_a   10.51362400
_cell_length_b   5.34846300
_cell_length_c   8.06747421
_cell_angle_alpha   70.86019110
_cell_angle_beta   90.00000000
_cell_angle_gamma   90.00000000
_symmetry_Int_Tables_number   1
_chemical_formula_structural   ZnWF5
_chemical_formula_sum   'Zn4 W4 F20'
_cell_volume   428.57096574
_cell_formula_units_Z   4
loop_
 _symmetry_equiv_pos_site_id
 _symmetry_equiv_pos_as_xyz
  1  'x, y, z'
loop_
 _atom_site_type_symbol
 _atom_site_label
 _atom_site_symmetry_multiplicity
 _atom_site_fract_x
 _atom_site_fract_y
 _atom_site_fract_z
 _atom_site_occupancy
  Zn  Zn0  1  0.98687900  0.48217400  0.77828400  1
  Zn  Zn1  1  0.48687900  0.51782600  0.72171600  1
  Zn  Zn2  1  0.01312100  0.51782600  0.22171600  1
  Zn  Zn3  1  0.51312100  0.48217400  0.27828400  1
  W  W0  1  0.75662600  0.07293400  0.62155000  1
  W  W1  1  0.25662600  0.92706600  0.87845000  1
  W  W2  1  0.24337400  0.92706600  0.37845000  1
  W  W3  1  0.74337400  0.07293400  0.12155000  1
  F  F0  1  0.88614400  0.38757300  0.59685000  1
  F  F1  1  0.38614400  0.61242700  0.90315000  1
  F  F2  1  0.11385600  0.61242700  0.40315000  1
  F  F3  1  0.61385600  0.38757300  0.09685000  1
  F  F4  1  0.60194100  0.32837300  0.51167000  1
  F  F5  1  0.10194100  0.67162700  0.98833000  1
  F  F6  1  0.39805900  0.67162700  0.48833000  1
  F  F7  1  0.89805900  0.32837300  0.01167000  1
  F  F8  1  0.41684200  0.16525800  0.77864300  1
  F  F9  1  0.91684200  0.83474200  0.72135700  1
  F  F10  1  0.58315800  0.83474200  0.22135700  1
  F  F11  1  0.08315800  0.16525800  0.27864300  1
  F  F12  1  0.13725600  0.26446900  0.83163800  1
  F  F13  1  0.63725600  0.73553100  0.66836200  1
  F  F14  1  0.86274400  0.73553100  0.16836200  1
  F  F15  1  0.36274400  0.26446900  0.33163800  1
  F  F16  1  0.68830100  0.09227700  0.86476100  1
  F  F17  1  0.18830100  0.90772300  0.63523900  1
  F  F18  1  0.31169900  0.90772300  0.13523900  1
  F  F19  1  0.81169900  0.09227700  0.36476100  1
loop_
_geom_bond_atom_site_label_1
_geom_bond_atom_site_label_2
_geom_bond_distance
_geom_bond_site_symmetry_2
F0 Zn0 2.001445 1_555
F0 W0 2.122730 1_555
F1 Zn1 2.001445 1_555
F1 W1 2.122730 1_555
F2 Zn2 2.001445 1_555
F2 W2 2.122730 1_555
F3 Zn3 2.001445 1_555
F3 W3 2.122730 1_555
F4 Zn3 2.019436 1_555
F4 W0 2.122029 1_555
F5 Zn2 2.019436 1_556
F5 W1 2.122029 1_555
F6 Zn1 2.019436 1_555
F6 W2 2.122029 1_555
F7 Zn0 2.019436 1_554
F7 W3 2.122029 1_555
F8 Zn1 1.934187 1_555
F8 W1 2.106188 1_545
F9 Zn0 1.934187 1_555
F9 W0 2.106188 1_565
F10 Zn3 1.934187 1_555
F10 W3 2.106188 1_565
F11 Zn2 1.934187 1_555
F11 W2 2.106188 1_545
F12 Zn0 1.926655 1_455
F12 W1 2.127748 1_545
F13 Zn1 1.926655 1_555
F13 W0 2.127748 1_565
F14 Zn2 1.926655 1_655
F14 W3 2.127748 1_565
F15 Zn3 1.926655 1_555
F15 W2 2.127748 1_545
F16 W3 2.120639 1_556
F16 W0 2.123596 1_555
F17 W2 2.120639 1_555
F17 W1 2.123596 1_555
F18 W1 2.120639 1_554
F18 W2 2.123596 1_555
F19 W0 2.120639 1_555
F19 W3 2.123596 1_555
