# generated using pymatgen
data_ZnBP2PbO9
_symmetry_space_group_name_H-M   'P 1'
_cell_length_a   5.33081500
_cell_length_b   7.99863271
_cell_length_c   8.29842244
_cell_angle_alpha   89.30802557
_cell_angle_beta   79.46910428
_cell_angle_gamma   88.03057837
_symmetry_Int_Tables_number   1
_chemical_formula_structural   ZnBP2PbO9
_chemical_formula_sum   'Zn2 B2 P4 Pb2 O18'
_cell_volume   347.66693917
_cell_formula_units_Z   2
loop_
 _symmetry_equiv_pos_site_id
 _symmetry_equiv_pos_as_xyz
  1  'x, y, z'
loop_
 _atom_site_type_symbol
 _atom_site_label
 _atom_site_symmetry_multiplicity
 _atom_site_fract_x
 _atom_site_fract_y
 _atom_site_fract_z
 _atom_site_occupancy
  Zn  Zn0  1  0.72290900  0.80429300  0.20303700  1
  Zn  Zn1  1  0.27709100  0.19570700  0.79696300  1
  B  B0  1  0.88516900  0.74691200  0.54372300  1
  B  B1  1  0.11483100  0.25308800  0.45627700  1
  P  P0  1  0.80042400  0.43275900  0.69996100  1
  P  P1  1  0.19957600  0.56724100  0.30003900  1
  P  P2  1  0.76993200  0.93768100  0.81991800  1
  P  P3  1  0.23006800  0.06231900  0.18008200  1
  Pb  Pb0  1  0.27091600  0.69694500  0.90967300  1
  Pb  Pb1  1  0.72908400  0.30305500  0.09032700  1
  O  O0  1  0.97975200  0.56304200  0.20254300  1
  O  O1  1  0.02024800  0.43695800  0.79745700  1
  O  O2  1  0.94692100  0.87504100  0.65474500  1
  O  O3  1  0.05307900  0.12495900  0.34525500  1
  O  O4  1  0.89785800  0.09399800  0.86684200  1
  O  O5  1  0.10214200  0.90600200  0.13315800  1
  O  O6  1  0.86599900  0.31716300  0.54747700  1
  O  O7  1  0.13400100  0.68283700  0.45252300  1
  O  O8  1  0.77598500  0.78866700  0.94279300  1
  O  O9  1  0.22401500  0.21133300  0.05720700  1
  O  O10  1  0.73203400  0.61267000  0.63644900  1
  O  O11  1  0.26796600  0.38733000  0.36355100  1
  O  O12  1  0.71168200  0.82122600  0.44554600  1
  O  O13  1  0.28831800  0.17877400  0.55445400  1
  O  O14  1  0.55275800  0.37913900  0.81229100  1
  O  O15  1  0.44724200  0.62086100  0.18770900  1
  O  O16  1  0.49031400  0.97135300  0.80015500  1
  O  O17  1  0.50968600  0.02864700  0.19984500  1
loop_
_geom_bond_atom_site_label_1
_geom_bond_atom_site_label_2
_geom_bond_distance
_geom_bond_site_symmetry_2
B0 O12 1.448559 1_555
B0 O2 1.471176 1_555
B0 O7 1.480090 1_655
B0 O10 1.490679 1_555
B1 O13 1.448559 1_555
B1 O3 1.471176 1_555
B1 O6 1.480090 1_455
B1 O11 1.490679 1_555
O0 P1 1.542349 1_655
O0 Zn0 2.326989 1_555
O0 Pb1 2.769453 1_555
O1 P0 1.542349 1_455
O1 Zn1 2.326989 1_555
O1 Pb0 2.769453 1_555
O2 P2 1.591022 1_555
O3 P3 1.591022 1_555
O4 P2 1.532130 1_545
O4 Zn1 2.181326 1_655
O4 Pb1 2.531135 1_556
O5 P3 1.532130 1_565
O5 Zn0 2.181326 1_455
O5 Pb0 2.531135 1_554
O6 P0 1.556482 1_555
O7 P1 1.556482 1_555
O8 P2 1.562510 1_555
O8 Zn0 2.130809 1_556
O8 Pb0 2.679856 1_655
O9 P3 1.562510 1_555
O9 Zn1 2.130809 1_554
O9 Pb1 2.679856 1_455
O10 P0 1.580315 1_555
O11 P1 1.580315 1_555
O12 Zn0 2.008445 1_555
O13 Zn1 2.008445 1_555
O14 P0 1.541222 1_555
O14 Zn1 2.132936 1_555
O14 Pb1 2.701266 1_556
O15 P1 1.541222 1_555
O15 Zn0 2.132936 1_555
O15 Pb0 2.701266 1_554
O16 P2 1.543372 1_555
O16 Zn1 2.093481 1_565
O16 Pb0 2.598292 1_555
O17 P3 1.543372 1_555
O17 Zn0 2.093481 1_545
O17 Pb1 2.598292 1_555
