# generated using pymatgen
data_NaGaTe2
_symmetry_space_group_name_H-M   'P 1'
_cell_length_a   6.75039590
_cell_length_b   6.75039620
_cell_length_c   6.75039543
_cell_angle_alpha   104.98806085
_cell_angle_beta   104.98804496
_cell_angle_gamma   118.86612431
_symmetry_Int_Tables_number   1
_chemical_formula_structural   NaGaTe2
_chemical_formula_sum   'Na2 Ga2 Te4'
_cell_volume   231.94715983
_cell_formula_units_Z   2
loop_
 _symmetry_equiv_pos_site_id
 _symmetry_equiv_pos_as_xyz
  1  'x, y, z'
loop_
 _atom_site_type_symbol
 _atom_site_label
 _atom_site_symmetry_multiplicity
 _atom_site_fract_x
 _atom_site_fract_y
 _atom_site_fract_z
 _atom_site_occupancy
  Na  Na0  1  0.25000000  0.25000000  -0.00000000  1
  Na  Na1  1  0.75000000  0.75000000  -0.00000000  1
  Ga  Ga0  1  0.75000000  0.25000000  0.50000000  1
  Ga  Ga1  1  0.25000000  0.75000000  0.50000000  1
  Te  Te0  1  0.67385196  0.17385196  0.84770393  1
  Te  Te1  1  0.17385196  0.32614804  0.50000000  1
  Te  Te2  1  0.82614804  0.67385196  0.50000000  1
  Te  Te3  1  0.32614804  0.82614804  0.15229607  1
loop_
_geom_bond_atom_site_label_1
_geom_bond_atom_site_label_2
_geom_bond_distance
_geom_bond_site_symmetry_2
Na0 Te1 3.489345 1_555
Na0 Te0 3.489345 1_554
Na0 Te1 3.489345 1_554
Na0 Te2 3.489346 1_444
Na0 Te3 3.489346 1_555
Na0 Te0 3.489346 1_454
Na0 Te3 3.489346 1_545
Na0 Te2 3.489346 1_555
Na1 Te2 3.489345 1_554
Na1 Te3 3.489345 1_555
Na1 Te2 3.489345 1_555
Na1 Te1 3.489346 1_665
Na1 Te0 3.489346 1_554
Na1 Te3 3.489346 1_655
Na1 Te0 3.489346 1_564
Na1 Te1 3.489346 1_554
Ga0 Te0 2.651506 1_555
Ga0 Te1 2.651506 1_655
Ga0 Te2 2.651506 1_555
Ga0 Te3 2.651506 1_545
Ga1 Te3 2.651506 1_555
Ga1 Te2 2.651506 1_455
Ga1 Te1 2.651506 1_555
Ga1 Te0 2.651506 1_565
