# generated using pymatgen
data_LiMg
_symmetry_space_group_name_H-M   'P 1'
_cell_length_a   16.24362139
_cell_length_b   16.24362139
_cell_length_c   10.10269144
_cell_angle_alpha   90.00000000
_cell_angle_beta   90.00000000
_cell_angle_gamma   157.67234965
_symmetry_Int_Tables_number   1
_chemical_formula_structural   LiMg
_chemical_formula_sum   'Li24 Mg24'
_cell_volume   1012.68664973
_cell_formula_units_Z   24
loop_
 _symmetry_equiv_pos_site_id
 _symmetry_equiv_pos_as_xyz
  1  'x, y, z'
loop_
 _atom_site_type_symbol
 _atom_site_label
 _atom_site_symmetry_multiplicity
 _atom_site_fract_x
 _atom_site_fract_y
 _atom_site_fract_z
 _atom_site_occupancy
  Li  Li0_0  1  0.99995368  0.00004632  0.00000000  1
  Li  Li0_1  1  0.99995368  0.00004632  0.50000000  1
  Li  Li0_2  1  0.99995368  0.50004632  0.00000000  1
  Li  Li0_3  1  0.99995368  0.50004632  0.50000000  1
  Li  Li0_4  1  0.49995368  0.00004632  0.00000000  1
  Li  Li0_5  1  0.49995368  0.00004632  0.50000000  1
  Li  Li0_6  1  0.49995368  0.50004632  0.00000000  1
  Li  Li0_7  1  0.49995368  0.50004632  0.50000000  1
  Li  Li1_0  1  0.33258615  0.16741385  0.00000000  1
  Li  Li1_1  1  0.33258615  0.16741385  0.50000000  1
  Li  Li1_2  1  0.33258615  0.66741385  0.00000000  1
  Li  Li1_3  1  0.33258615  0.66741385  0.50000000  1
  Li  Li1_4  1  0.83258615  0.16741385  0.00000000  1
  Li  Li1_5  1  0.83258615  0.16741385  0.50000000  1
  Li  Li1_6  1  0.83258615  0.66741385  0.00000000  1
  Li  Li1_7  1  0.83258615  0.66741385  0.50000000  1
  Li  Li2_0  1  0.22277965  0.27722036  0.25000000  1
  Li  Li2_1  1  0.22277965  0.27722036  0.75000000  1
  Li  Li2_2  1  0.22277965  0.77722035  0.25000000  1
  Li  Li2_3  1  0.22277965  0.77722035  0.75000000  1
  Li  Li2_4  1  0.72277965  0.27722035  0.25000000  1
  Li  Li2_5  1  0.72277965  0.27722035  0.75000000  1
  Li  Li2_6  1  0.72277965  0.77722035  0.25000000  1
  Li  Li2_7  1  0.72277965  0.77722035  0.75000000  1
  Mg  Mg0_0  1  0.16683478  0.33316522  0.00000000  1
  Mg  Mg0_1  1  0.16683478  0.33316522  0.50000000  1
  Mg  Mg0_2  1  0.16683478  0.83316522  0.00000000  1
  Mg  Mg0_3  1  0.16683478  0.83316522  0.50000000  1
  Mg  Mg0_4  1  0.66683478  0.33316522  0.00000000  1
  Mg  Mg0_5  1  0.66683478  0.33316522  0.50000000  1
  Mg  Mg0_6  1  0.66683478  0.83316522  0.00000000  1
  Mg  Mg0_7  1  0.66683478  0.83316522  0.50000000  1
  Mg  Mg1_0  1  0.05499365  0.44500635  0.25000000  1
  Mg  Mg1_1  1  0.05499365  0.44500635  0.75000000  1
  Mg  Mg1_2  1  0.05499364  0.94500635  0.25000000  1
  Mg  Mg1_3  1  0.05499364  0.94500635  0.75000000  1
  Mg  Mg1_4  1  0.55499365  0.44500635  0.25000000  1
  Mg  Mg1_5  1  0.55499365  0.44500635  0.75000000  1
  Mg  Mg1_6  1  0.55499364  0.94500635  0.25000000  1
  Mg  Mg1_7  1  0.55499364  0.94500635  0.75000000  1
  Mg  Mg2_0  1  0.38951811  0.11048189  0.25000000  1
  Mg  Mg2_1  1  0.38951811  0.11048189  0.75000000  1
  Mg  Mg2_2  1  0.38951811  0.61048189  0.25000000  1
  Mg  Mg2_3  1  0.38951811  0.61048189  0.75000000  1
  Mg  Mg2_4  1  0.88951810  0.11048189  0.25000000  1
  Mg  Mg2_5  1  0.88951810  0.11048189  0.75000000  1
  Mg  Mg2_6  1  0.88951810  0.61048189  0.25000000  1
  Mg  Mg2_7  1  0.88951810  0.61048189  0.75000000  1
loop_
_geom_bond_atom_site_label_1
_geom_bond_atom_site_label_2
_geom_bond_distance
_geom_bond_site_symmetry_2
Li0_0 Li1_0 3.067436 1_655
Li0_0 Li1_6 3.067436 1_545
Li0_0 Mg1_2 3.075135 1_645
Li0_0 Mg1_3 3.075135 1_644
Li0_0 Mg0_0 3.080758 1_655
Li0_0 Mg0_6 3.080758 1_545
Li0_0 Li2_6 3.098698 1_545
Li0_0 Li2_0 3.098698 1_655
Li0_0 Li2_7 3.098698 1_544
Li0_0 Li2_1 3.098698 1_654
Li0_0 Li0_6 3.145008 1_545
Li0_0 Li0_6 3.145008 1_655
Li0_1 Li1_1 3.067436 1_655
Li0_1 Li1_7 3.067436 1_545
Li0_1 Mg1_3 3.075135 1_645
Li0_1 Mg1_2 3.075135 1_645
Li0_1 Mg0_1 3.080758 1_655
Li0_1 Mg0_7 3.080758 1_545
Li0_1 Li2_7 3.098698 1_545
Li0_1 Li2_1 3.098698 1_655
Li0_1 Li2_6 3.098698 1_545
Li0_1 Li2_0 3.098698 1_655
Li0_1 Li0_7 3.145008 1_545
Li0_1 Li0_7 3.145008 1_655
Li0_2 Li1_4 3.067436 1_555
Li0_2 Li1_2 3.067436 1_655
Li0_2 Mg1_0 3.075135 1_655
Li0_2 Mg1_1 3.075135 1_654
Li0_2 Mg0_2 3.080758 1_655
Li0_2 Mg0_4 3.080758 1_555
Li0_2 Li2_2 3.098698 1_655
Li0_2 Li2_4 3.098698 1_555
Li0_2 Li2_3 3.098698 1_654
Li0_2 Li2_5 3.098698 1_554
Li0_2 Li0_4 3.145008 1_555
Li0_2 Li0_4 3.145008 1_665
Li0_3 Li1_5 3.067436 1_555
Li0_3 Li1_3 3.067436 1_655
Li0_3 Mg1_1 3.075135 1_655
Li0_3 Mg1_0 3.075135 1_655
Li0_3 Mg0_3 3.080758 1_655
Li0_3 Mg0_5 3.080758 1_555
Li0_3 Li2_3 3.098698 1_655
Li0_3 Li2_5 3.098698 1_555
Li0_3 Li2_2 3.098698 1_655
Li0_3 Li2_4 3.098698 1_555
Li0_3 Li0_5 3.145008 1_555
Li0_3 Li0_5 3.145008 1_665
Li0_4 Li1_4 3.067436 1_555
Li0_4 Li1_2 3.067436 1_545
Li0_4 Mg1_6 3.075135 1_545
Li0_4 Mg1_7 3.075135 1_544
Li0_4 Mg0_4 3.080758 1_555
Li0_4 Mg0_2 3.080758 1_545
Li0_4 Li2_2 3.098698 1_545
Li0_4 Li2_4 3.098698 1_555
Li0_4 Li2_3 3.098698 1_544
Li0_4 Li2_5 3.098698 1_554
Li0_5 Li1_5 3.067436 1_555
Li0_5 Li1_3 3.067436 1_545
Li0_5 Mg1_7 3.075135 1_545
Li0_5 Mg1_6 3.075135 1_545
Li0_5 Mg0_5 3.080758 1_555
Li0_5 Mg0_3 3.080758 1_545
Li0_5 Li2_3 3.098698 1_545
Li0_5 Li2_5 3.098698 1_555
Li0_5 Li2_2 3.098698 1_545
Li0_5 Li2_4 3.098698 1_555
Li0_6 Li1_0 3.067436 1_555
Li0_6 Li1_6 3.067436 1_555
Li0_6 Mg1_4 3.075135 1_555
Li0_6 Mg1_5 3.075135 1_554
Li0_6 Mg0_0 3.080758 1_555
Li0_6 Mg0_6 3.080758 1_555
Li0_6 Li2_0 3.098698 1_555
Li0_6 Li2_6 3.098698 1_555
Li0_6 Li2_7 3.098698 1_554
Li0_6 Li2_1 3.098698 1_554
Li0_7 Li1_1 3.067436 1_555
Li0_7 Li1_7 3.067436 1_555
Li0_7 Mg1_5 3.075135 1_555
Li0_7 Mg1_4 3.075135 1_555
Li0_7 Mg0_7 3.080758 1_555
Li0_7 Mg0_1 3.080758 1_555
Li0_7 Li2_7 3.098698 1_555
Li0_7 Li2_1 3.098698 1_555
Li0_7 Li2_6 3.098698 1_555
Li0_7 Li2_0 3.098698 1_555
Li1_0 Mg1_2 3.102452 1_545
Li1_0 Mg1_4 3.102452 1_555
Li1_0 Mg1_3 3.102452 1_544
Li1_0 Mg1_5 3.102452 1_554
Li1_0 Mg2_0 3.109930 1_555
Li1_0 Mg2_1 3.109930 1_554
Li1_0 Mg0_2 3.111776 1_545
Li1_0 Mg0_4 3.111776 1_555
Li1_0 Li1_6 3.145008 1_555
Li1_0 Li1_6 3.145008 1_445
Li1_1 Mg1_3 3.102452 1_545
Li1_1 Mg1_2 3.102452 1_545
Li1_1 Mg1_5 3.102452 1_555
Li1_1 Mg1_4 3.102452 1_555
Li1_1 Mg2_1 3.109930 1_555
Li1_1 Mg2_0 3.109930 1_555
Li1_1 Mg0_3 3.111776 1_545
Li1_1 Mg0_5 3.111776 1_555
Li1_1 Li1_7 3.145008 1_555
Li1_1 Li1_7 3.145008 1_445
Li1_2 Mg1_0 3.102452 1_555
Li1_2 Mg1_6 3.102452 1_555
Li1_2 Mg1_1 3.102452 1_554
Li1_2 Mg1_7 3.102452 1_554
Li1_2 Mg2_2 3.109930 1_555
Li1_2 Mg2_3 3.109930 1_554
Li1_2 Mg0_0 3.111776 1_555
Li1_2 Mg0_6 3.111776 1_555
Li1_2 Li1_4 3.145008 1_455
Li1_2 Li1_4 3.145008 1_565
Li1_3 Mg1_1 3.102452 1_555
Li1_3 Mg1_7 3.102452 1_555
Li1_3 Mg1_0 3.102452 1_555
Li1_3 Mg1_6 3.102452 1_555
Li1_3 Mg2_3 3.109930 1_555
Li1_3 Mg2_2 3.109930 1_555
Li1_3 Mg0_1 3.111776 1_555
Li1_3 Mg0_7 3.111776 1_555
Li1_3 Li1_5 3.145008 1_455
Li1_3 Li1_5 3.145008 1_565
Li1_4 Mg1_6 3.102452 1_545
Li1_4 Mg1_7 3.102452 1_544
Li1_4 Mg1_0 3.102452 1_655
Li1_4 Mg1_1 3.102452 1_654
Li1_4 Mg2_4 3.109930 1_555
Li1_4 Mg2_5 3.109930 1_554
Li1_4 Mg0_6 3.111776 1_545
Li1_4 Mg0_0 3.111776 1_655
Li1_5 Mg1_7 3.102452 1_545
Li1_5 Mg1_6 3.102452 1_545
Li1_5 Mg1_1 3.102452 1_655
Li1_5 Mg1_0 3.102452 1_655
Li1_5 Mg2_5 3.109930 1_555
Li1_5 Mg2_4 3.109930 1_555
Li1_5 Mg0_7 3.111776 1_545
Li1_5 Mg0_1 3.111776 1_655
Li1_6 Mg1_4 3.102452 1_555
Li1_6 Mg1_5 3.102452 1_554
Li1_6 Mg1_2 3.102452 1_655
Li1_6 Mg1_3 3.102452 1_654
Li1_6 Mg2_6 3.109930 1_555
Li1_6 Mg2_7 3.109930 1_554
Li1_6 Mg0_4 3.111776 1_555
Li1_6 Mg0_2 3.111776 1_655
Li1_7 Mg1_5 3.102452 1_555
Li1_7 Mg1_4 3.102452 1_555
Li1_7 Mg1_3 3.102452 1_655
Li1_7 Mg1_2 3.102452 1_655
Li1_7 Mg2_7 3.109930 1_555
Li1_7 Mg2_6 3.109930 1_555
Li1_7 Mg0_5 3.111776 1_555
Li1_7 Mg0_3 3.111776 1_655
Li2_0 Mg1_4 3.055992 1_555
Li2_0 Mg1_2 3.055992 1_545
Li2_0 Mg2_2 3.084668 1_555
Li2_0 Mg2_4 3.084668 1_455
Li2_0 Mg0_0 3.091679 1_555
Li2_0 Mg0_1 3.091679 1_555
Li2_0 Li2_6 3.145008 1_555
Li2_0 Li2_6 3.145008 1_445
Li2_1 Mg1_5 3.055992 1_555
Li2_1 Mg1_3 3.055992 1_545
Li2_1 Mg2_3 3.084668 1_555
Li2_1 Mg2_5 3.084668 1_455
Li2_1 Mg0_1 3.091679 1_555
Li2_1 Mg0_0 3.091679 1_556
Li2_1 Li2_7 3.145008 1_555
Li2_1 Li2_7 3.145008 1_445
Li2_2 Mg1_0 3.055992 1_555
Li2_2 Mg1_6 3.055992 1_555
Li2_2 Mg2_0 3.084668 1_565
Li2_2 Mg2_6 3.084668 1_455
Li2_2 Mg0_3 3.091679 1_555
Li2_2 Mg0_2 3.091679 1_555
Li2_2 Li2_4 3.145008 1_565
Li2_2 Li2_4 3.145008 1_455
Li2_3 Mg1_1 3.055992 1_555
Li2_3 Mg1_7 3.055992 1_555
Li2_3 Mg2_1 3.084668 1_565
Li2_3 Mg2_7 3.084668 1_455
Li2_3 Mg0_3 3.091679 1_555
Li2_3 Mg0_2 3.091679 1_556
Li2_3 Li2_5 3.145008 1_455
Li2_3 Li2_5 3.145008 1_565
Li2_4 Mg1_0 3.055992 1_655
Li2_4 Mg1_6 3.055992 1_545
Li2_4 Mg2_0 3.084668 1_555
Li2_4 Mg2_6 3.084668 1_555
Li2_4 Mg0_4 3.091679 1_555
Li2_4 Mg0_5 3.091679 1_555
Li2_5 Mg1_1 3.055992 1_655
Li2_5 Mg1_7 3.055992 1_545
Li2_5 Mg2_1 3.084668 1_555
Li2_5 Mg2_7 3.084668 1_555
Li2_5 Mg0_5 3.091679 1_555
Li2_5 Mg0_4 3.091679 1_556
Li2_6 Mg1_2 3.055992 1_655
Li2_6 Mg1_4 3.055992 1_555
Li2_6 Mg2_2 3.084668 1_555
Li2_6 Mg2_4 3.084668 1_565
Li2_6 Mg0_7 3.091679 1_555
Li2_6 Mg0_6 3.091679 1_555
Li2_7 Mg1_3 3.055992 1_655
Li2_7 Mg1_5 3.055992 1_555
Li2_7 Mg2_3 3.084668 1_555
Li2_7 Mg2_5 3.084668 1_565
Li2_7 Mg0_7 3.091679 1_555
Li2_7 Mg0_6 3.091679 1_556
Mg0_0 Mg2_2 3.099972 1_555
Mg0_0 Mg2_3 3.099972 1_554
Mg0_0 Mg2_4 3.099972 1_455
Mg0_0 Mg2_5 3.099972 1_454
Mg0_0 Mg0_6 3.145008 1_555
Mg0_0 Mg0_6 3.145008 1_445
Mg0_1 Mg2_3 3.099972 1_555
Mg0_1 Mg2_2 3.099972 1_555
Mg0_1 Mg2_5 3.099972 1_455
Mg0_1 Mg2_4 3.099972 1_455
Mg0_1 Mg0_7 3.145008 1_555
Mg0_1 Mg0_7 3.145008 1_445
Mg0_2 Mg2_0 3.099972 1_565
Mg0_2 Mg2_6 3.099972 1_455
Mg0_2 Mg2_1 3.099972 1_564
Mg0_2 Mg2_7 3.099972 1_454
Mg0_2 Mg0_4 3.145008 1_455
Mg0_2 Mg0_4 3.145008 1_565
Mg0_3 Mg2_1 3.099972 1_565
Mg0_3 Mg2_7 3.099972 1_455
Mg0_3 Mg2_0 3.099972 1_565
Mg0_3 Mg2_6 3.099972 1_455
Mg0_3 Mg0_5 3.145008 1_565
Mg0_3 Mg0_5 3.145008 1_455
Mg0_4 Mg2_0 3.099972 1_555
Mg0_4 Mg2_6 3.099972 1_555
Mg0_4 Mg2_7 3.099972 1_554
Mg0_4 Mg2_1 3.099972 1_554
Mg0_5 Mg2_1 3.099972 1_555
Mg0_5 Mg2_7 3.099972 1_555
Mg0_5 Mg2_0 3.099972 1_555
Mg0_5 Mg2_6 3.099972 1_555
Mg0_6 Mg2_2 3.099972 1_555
Mg0_6 Mg2_4 3.099972 1_565
Mg0_6 Mg2_3 3.099972 1_554
Mg0_6 Mg2_5 3.099972 1_564
Mg0_7 Mg2_3 3.099972 1_555
Mg0_7 Mg2_2 3.099972 1_555
Mg0_7 Mg2_5 3.099972 1_565
Mg0_7 Mg2_4 3.099972 1_565
Mg1_0 Mg2_4 3.119365 1_455
Mg1_0 Mg2_2 3.119365 1_555
Mg1_0 Mg1_6 3.145008 1_555
Mg1_0 Mg1_6 3.145008 1_445
Mg1_1 Mg2_5 3.119365 1_455
Mg1_1 Mg2_3 3.119365 1_555
Mg1_1 Mg1_7 3.145008 1_555
Mg1_1 Mg1_7 3.145008 1_445
Mg1_2 Mg2_6 3.119365 1_455
Mg1_2 Mg2_0 3.119365 1_565
Mg1_2 Mg1_4 3.145008 1_455
Mg1_2 Mg1_4 3.145008 1_565
Mg1_3 Mg2_7 3.119365 1_455
Mg1_3 Mg2_1 3.119365 1_565
Mg1_3 Mg1_5 3.145008 1_455
Mg1_3 Mg1_5 3.145008 1_565
Mg1_4 Mg2_6 3.119365 1_555
Mg1_4 Mg2_0 3.119365 1_555
Mg1_5 Mg2_7 3.119365 1_555
Mg1_5 Mg2_1 3.119365 1_555
Mg1_6 Mg2_4 3.119365 1_565
Mg1_6 Mg2_2 3.119365 1_555
Mg1_7 Mg2_5 3.119365 1_565
Mg1_7 Mg2_3 3.119365 1_555
Mg2_0 Mg2_6 3.145008 1_555
Mg2_0 Mg2_6 3.145008 1_445
Mg2_1 Mg2_7 3.145008 1_555
Mg2_1 Mg2_7 3.145008 1_445
Mg2_2 Mg2_4 3.145008 1_455
Mg2_2 Mg2_4 3.145008 1_565
Mg2_3 Mg2_5 3.145008 1_455
Mg2_3 Mg2_5 3.145008 1_565
