# generated using pymatgen
data_Te4Mo3W(SeS)2
_symmetry_space_group_name_H-M   'P 1'
_cell_length_a   3.39213381
_cell_length_b   3.39213381
_cell_length_c   38.76555800
_cell_angle_alpha   90.00000000
_cell_angle_beta   90.00000000
_cell_angle_gamma   119.99999633
_symmetry_Int_Tables_number   1
_chemical_formula_structural   Te4Mo3W(SeS)2
_chemical_formula_sum   'Te4 Mo3 W1 Se2 S2'
_cell_volume   386.29815965
_cell_formula_units_Z   1
loop_
 _symmetry_equiv_pos_site_id
 _symmetry_equiv_pos_as_xyz
  1  'x, y, z'
loop_
 _atom_site_type_symbol
 _atom_site_label
 _atom_site_symmetry_multiplicity
 _atom_site_fract_x
 _atom_site_fract_y
 _atom_site_fract_z
 _atom_site_occupancy
  Te  Te0  1  0.66666700  0.33333300  0.04553500  1
  Te  Te1  1  0.66666700  0.33333300  0.42130000  1
  Te  Te2  1  0.66666700  0.33333300  0.14230300  1
  Te  Te3  1  0.66666700  0.33333300  0.51805400  1
  Mo  Mo0  1  0.33333300  0.66666700  0.09392700  1
  Mo  Mo1  1  0.33333300  0.66666700  0.46965000  1
  Mo  Mo2  1  0.66666700  0.33333300  0.28182300  1
  W  W0  1  0.66666700  0.33333300  0.65751300  1
  Se  Se0  1  0.33333300  0.66666700  0.32436100  1
  Se  Se1  1  0.33333300  0.66666700  0.23921000  1
  S  S0  1  0.33333300  0.66666700  0.69639900  1
  S  S1  1  0.33333300  0.66666700  0.61867200  1
loop_
_geom_bond_atom_site_label_1
_geom_bond_atom_site_label_2
_geom_bond_distance
_geom_bond_site_symmetry_2
Mo0 Te2 2.711522 1_455
Mo0 Te2 2.711522 1_565
Mo0 Te2 2.711526 1_555
Mo0 Te0 2.711951 1_455
Mo0 Te0 2.711951 1_565
Mo0 Te0 2.711955 1_555
Mo1 Te1 2.710825 1_565
Mo1 Te1 2.710825 1_455
Mo1 Te1 2.710829 1_555
Mo1 Te3 2.712273 1_455
Mo1 Te3 2.712273 1_565
Mo1 Te3 2.712277 1_555
Mo2 Se0 2.560224 1_545
Mo2 Se0 2.560224 1_655
Mo2 Se0 2.560229 1_555
Mo2 Se1 2.562098 1_655
Mo2 Se1 2.562098 1_545
Mo2 Se1 2.562102 1_555
S0 W0 2.471413 1_455
S0 W0 2.471413 1_565
S0 W0 2.471418 1_555
S1 W0 2.470350 1_455
S1 W0 2.470350 1_565
S1 W0 2.470354 1_555
