# generated using pymatgen
data_LiAlSiH2O5
_symmetry_space_group_name_H-M   'P 1'
_cell_length_a   5.42474400
_cell_length_b   7.33215700
_cell_length_c   12.20498700
_cell_angle_alpha   90.00000000
_cell_angle_beta   90.00000000
_cell_angle_gamma   90.00000000
_symmetry_Int_Tables_number   1
_chemical_formula_structural   LiAlSiH2O5
_chemical_formula_sum   'Li4 Al4 Si4 H8 O20'
_cell_volume   485.45426955
_cell_formula_units_Z   4
loop_
 _symmetry_equiv_pos_site_id
 _symmetry_equiv_pos_as_xyz
  1  'x, y, z'
loop_
 _atom_site_type_symbol
 _atom_site_label
 _atom_site_symmetry_multiplicity
 _atom_site_fract_x
 _atom_site_fract_y
 _atom_site_fract_z
 _atom_site_occupancy
  Li  Li0  1  0.34726900  0.98500200  0.58471000  1
  Li  Li1  1  0.84726900  0.48500200  0.91529000  1
  Li  Li2  1  0.84726900  0.01499800  0.41529000  1
  Li  Li3  1  0.34726900  0.51499800  0.08471000  1
  Al  Al0  1  0.59526700  0.61949300  0.30691700  1
  Al  Al1  1  0.09526700  0.11949300  0.19308300  1
  Al  Al2  1  0.59526700  0.88050700  0.80691700  1
  Al  Al3  1  0.09526700  0.38050700  0.69308300  1
  Si  Si0  1  0.09294100  0.40082700  0.30712600  1
  Si  Si1  1  0.59294100  0.90082700  0.19287400  1
  Si  Si2  1  0.59294100  0.59917300  0.69287400  1
  Si  Si3  1  0.09294100  0.09917300  0.80712600  1
  H  H0  1  0.78598500  0.13402500  0.59265800  1
  H  H1  1  0.28598500  0.63402500  0.90734200  1
  H  H2  1  0.28598500  0.86597500  0.40734200  1
  H  H3  1  0.61160300  0.26974400  0.53080700  1
  H  H4  1  0.11160300  0.73025600  0.46919300  1
  H  H5  1  0.11160300  0.76974400  0.96919300  1
  H  H6  1  0.78598500  0.36597500  0.09265800  1
  H  H7  1  0.61160300  0.23025600  0.03080700  1
  O  O0  1  0.36764600  0.47592800  0.64931500  1
  O  O1  1  0.86764600  0.97592800  0.85068500  1
  O  O2  1  0.65248900  0.35998100  0.03690200  1
  O  O3  1  0.09371500  0.13306400  0.66915500  1
  O  O4  1  0.84706100  0.99130700  0.14954100  1
  O  O5  1  0.84706100  0.50869300  0.64954100  1
  O  O6  1  0.56532500  0.81971300  0.66319700  1
  O  O7  1  0.56532500  0.68028700  0.16319700  1
  O  O8  1  0.34706100  0.49130700  0.35045900  1
  O  O9  1  0.34706100  0.00869300  0.85045900  1
  O  O10  1  0.15248900  0.64001900  0.96309800  1
  O  O11  1  0.65248900  0.14001900  0.53690200  1
  O  O12  1  0.15248900  0.85998100  0.46309800  1
  O  O13  1  0.06532500  0.31971300  0.83680300  1
  O  O14  1  0.86764600  0.52407200  0.35068500  1
  O  O15  1  0.09371500  0.36693600  0.16915500  1
  O  O16  1  0.59371500  0.86693600  0.33084500  1
  O  O17  1  0.06532500  0.18028700  0.33680300  1
  O  O18  1  0.36764600  0.02407200  0.14931500  1
  O  O19  1  0.59371500  0.63306400  0.83084500  1
loop_
_geom_bond_atom_site_label_1
_geom_bond_atom_site_label_2
_geom_bond_distance
_geom_bond_site_symmetry_2
Li0 O6 1.945673 1_555
Li0 O3 2.032905 1_565
Li0 O12 2.039565 1_555
Li0 O11 2.091369 1_565
Li1 O13 1.945673 1_655
Li1 O19 2.032905 1_555
Li1 O2 2.039565 1_556
Li1 O10 2.091369 1_655
Li2 O17 1.945673 1_655
Li2 O16 2.032905 1_545
Li2 O11 2.039565 1_555
Li2 O12 2.091369 1_645
Li3 O7 1.945673 1_555
Li3 O15 2.032905 1_555
Li3 O10 2.039565 1_554
Li3 O2 2.091369 1_555
Al0 O14 1.719918 1_555
Al0 O8 1.725900 1_555
Al0 O7 1.817126 1_555
Al0 O16 1.837664 1_555
Al1 O18 1.719918 1_555
Al1 O4 1.725900 1_445
Al1 O17 1.817126 1_555
Al1 O15 1.837664 1_555
Al2 O1 1.719918 1_555
Al2 O9 1.725900 1_565
Al2 O6 1.817126 1_555
Al2 O19 1.837664 1_555
Al3 O0 1.719918 1_555
Al3 O5 1.725900 1_455
Al3 O13 1.817126 1_555
Al3 O3 1.837664 1_555
H0 O11 0.994712 1_555
H1 O10 0.994712 1_555
H2 O12 0.994712 1_555
H3 O11 0.979510 1_555
H4 O12 0.979510 1_555
H5 O10 0.979510 1_555
H6 O2 0.994712 1_555
H7 O2 0.979510 1_555
O0 Si2 1.610254 1_555
O1 Si3 1.610254 1_665
O3 Si3 1.702176 1_555
O4 Si1 1.618701 1_555
O5 Si2 1.618701 1_555
O6 Si2 1.663862 1_555
O7 Si1 1.663862 1_555
O8 Si0 1.618701 1_555
O9 Si3 1.618701 1_555
O13 Si3 1.663862 1_555
O14 Si0 1.610254 1_655
O15 Si0 1.702176 1_555
O16 Si1 1.702176 1_555
O17 Si0 1.663862 1_555
O18 Si1 1.610254 1_545
O19 Si2 1.702176 1_555
