# generated using pymatgen
data_Bi13Pt3I7
_symmetry_space_group_name_H-M   'P 1'
_cell_length_a   9.33255600
_cell_length_b   9.34172859
_cell_length_c   21.79007490
_cell_angle_alpha   83.87192624
_cell_angle_beta   84.56738917
_cell_angle_gamma   60.03188077
_symmetry_Int_Tables_number   1
_chemical_formula_structural   Bi13Pt3I7
_chemical_formula_sum   'Bi26 Pt6 I14'
_cell_volume   1634.43188499
_cell_formula_units_Z   2
loop_
 _symmetry_equiv_pos_site_id
 _symmetry_equiv_pos_as_xyz
  1  'x, y, z'
loop_
 _atom_site_type_symbol
 _atom_site_label
 _atom_site_symmetry_multiplicity
 _atom_site_fract_x
 _atom_site_fract_y
 _atom_site_fract_z
 _atom_site_occupancy
  Bi  Bi0  1  0.26584400  0.75984700  0.62395500  1
  Bi  Bi1  1  0.73415600  0.24015300  0.37604500  1
  Bi  Bi2  1  0.92547000  0.41554500  0.62795400  1
  Bi  Bi3  1  0.07453000  0.58445500  0.37204600  1
  Bi  Bi4  1  0.48638200  0.19861700  0.62454600  1
  Bi  Bi5  1  0.51361800  0.80138300  0.37545400  1
  Bi  Bi6  1  0.09602300  0.17031900  0.78157800  1
  Bi  Bi7  1  0.90397700  0.82968100  0.21842200  1
  Bi  Bi8  1  0.48828700  0.54218200  0.62773800  1
  Bi  Bi9  1  0.51171300  0.45781800  0.37226200  1
  Bi  Bi10  1  0.21936500  0.73130100  0.78202300  1
  Bi  Bi11  1  0.78063500  0.26869900  0.21797700  1
  Bi  Bi12  1  0.92968400  0.76002900  0.62353000  1
  Bi  Bi13  1  0.07031600  0.23997100  0.37647000  1
  Bi  Bi14  1  0.43557800  0.51029600  0.78417700  1
  Bi  Bi15  1  0.56442200  0.48970400  0.21582300  1
  Bi  Bi16  1  0.14935700  0.20004700  0.62484300  1
  Bi  Bi17  1  0.85064300  0.79995300  0.37515700  1
  Bi  Bi18  1  0.87825300  0.73375300  0.77988900  1
  Bi  Bi19  1  0.12174700  0.26624700  0.22011100  1
  Bi  Bi20  1  0.43913900  0.17114700  0.78001300  1
  Bi  Bi21  1  0.56086100  0.82885300  0.21998700  1
  Bi  Bi22  1  0.88070400  0.39301200  0.78379800  1
  Bi  Bi23  1  0.11929600  0.60698800  0.21620200  1
  Bi  Bi24  1  0.73930900  0.76377600  0.99633500  1
  Bi  Bi25  1  0.26069100  0.23622400  0.00366500  1
  Pt  Pt0  1  0.18266600  0.96466700  0.70356200  1
  Pt  Pt1  1  0.81733400  0.03533300  0.29643800  1
  Pt  Pt2  1  0.68298500  0.46548800  0.70472300  1
  Pt  Pt3  1  0.31701500  0.53451200  0.29527700  1
  Pt  Pt4  1  0.18298800  0.46571200  0.70523900  1
  Pt  Pt5  1  0.81701200  0.53428800  0.29476100  1
  I  I0  1  0.74977300  0.49865100  0.50071000  1
  I  I1  1  0.25022700  0.50134900  0.49929000  1
  I  I2  1  0.74664700  0.99630700  0.50971900  1
  I  I3  1  0.25335300  0.00369300  0.49028100  1
  I  I4  1  0.12529800  0.41176300  0.91904700  1
  I  I5  1  0.87470200  0.58823700  0.08095300  1
  I  I6  1  0.68053600  0.96607500  0.71118600  1
  I  I7  1  0.31946400  0.03392500  0.28881400  1
  I  I8  1  0.10964500  0.92733800  0.92497100  1
  I  I9  1  0.89035500  0.07266200  0.07502900  1
  I  I10  1  0.60663800  0.42594500  0.92518100  1
  I  I11  1  0.39336200  0.57405500  0.07481900  1
  I  I12  1  0.61499200  0.91765100  0.91222300  1
  I  I13  1  0.38500800  0.08234900  0.08777700  1
loop_
_geom_bond_atom_site_label_1
_geom_bond_atom_site_label_2
_geom_bond_distance
_geom_bond_site_symmetry_2
Bi0 Bi8 2.056815 1_555
Bi0 Pt0 2.498473 1_555
Bi0 I3 3.474077 1_565
Bi0 Pt4 3.479843 1_555
Bi1 Bi9 2.056815 1_555
Bi1 Pt1 2.498473 1_555
Bi1 I2 3.474077 1_545
Bi1 Pt5 3.479843 1_555
Bi2 Pt2 2.555811 1_555
Bi2 I0 3.179383 1_555
Bi2 Pt4 3.300236 1_655
Bi3 Pt3 2.555811 1_555
Bi3 I1 3.179383 1_555
Bi3 Pt5 3.300236 1_455
Bi4 I6 2.721418 1_545
Bi4 Pt4 3.204741 1_555
Bi4 I2 3.317343 1_545
Bi5 I7 2.721418 1_565
Bi5 Pt5 3.204741 1_555
Bi5 I3 3.317343 1_565
Bi6 Pt0 2.473783 1_545
Bi6 Pt4 3.470194 1_555
Bi6 I8 3.633720 1_545
Bi7 Pt1 2.473783 1_565
Bi7 Pt5 3.470194 1_555
Bi7 I9 3.633720 1_565
Bi8 Pt2 2.376748 1_555
Bi8 I0 3.428124 1_555
Bi8 Pt4 3.513548 1_555
Bi9 Pt3 2.376748 1_555
Bi9 I1 3.428124 1_555
Bi9 Pt5 3.513548 1_555
Bi10 Bi14 2.042444 1_555
Bi10 Pt0 2.522309 1_555
Bi10 Pt4 3.302361 1_555
Bi10 I8 3.584003 1_555
Bi11 Bi15 2.042444 1_555
Bi11 Pt1 2.522309 1_555
Bi11 Pt5 3.302361 1_555
Bi11 I9 3.584003 1_555
Bi12 I6 2.869216 1_555
Bi12 Pt4 3.094548 1_655
Bi12 I2 3.131566 1_555
Bi13 I7 2.869216 1_555
Bi13 Pt5 3.094548 1_455
Bi13 I3 3.131566 1_555
Bi14 Pt2 2.633646 1_555
Bi14 Pt4 3.254315 1_555
Bi14 I10 3.429984 1_555
Bi15 Pt3 2.633646 1_555
Bi15 Pt5 3.254315 1_555
Bi15 I11 3.429984 1_555
Bi16 Bi2 2.055015 1_455
Bi16 Pt0 2.546892 1_545
Bi16 Pt4 3.337237 1_555
Bi16 I3 3.425605 1_555
Bi17 Bi3 2.055015 1_655
Bi17 Pt1 2.546892 1_565
Bi17 Pt5 3.337237 1_555
Bi17 I2 3.425605 1_555
Bi18 I6 2.486903 1_555
Bi18 Pt4 3.143757 1_655
Bi19 I7 2.486903 1_555
Bi19 Pt5 3.143757 1_455
Bi20 I6 2.580030 1_545
Bi20 Pt4 3.024892 1_555
Bi21 I7 2.580030 1_565
Bi21 Pt5 3.024892 1_555
Bi22 Bi6 2.048136 1_655
Bi22 Pt2 2.436595 1_555
Bi22 Pt4 3.478719 1_655
Bi23 Bi7 2.048136 1_455
Bi23 Pt3 2.436595 1_555
Bi23 Pt5 3.478719 1_455
Bi24 I12 2.223857 1_555
Bi24 I5 2.326143 1_556
Bi25 I13 2.223857 1_555
Bi25 I4 2.326143 1_554
