# generated using pymatgen
data_KLiNiO2
_symmetry_space_group_name_H-M   'P 1'
_cell_length_a   5.99351974
_cell_length_b   7.90790874
_cell_length_c   6.46982513
_cell_angle_alpha   78.28576440
_cell_angle_beta   105.62571443
_cell_angle_gamma   76.07128431
_symmetry_Int_Tables_number   1
_chemical_formula_structural   KLiNiO2
_chemical_formula_sum   'K4 Li4 Ni4 O8'
_cell_volume   274.60700903
_cell_formula_units_Z   4
loop_
 _symmetry_equiv_pos_site_id
 _symmetry_equiv_pos_as_xyz
  1  'x, y, z'
loop_
 _atom_site_type_symbol
 _atom_site_label
 _atom_site_symmetry_multiplicity
 _atom_site_fract_x
 _atom_site_fract_y
 _atom_site_fract_z
 _atom_site_occupancy
  K  K0  1  0.65729400  0.63530900  0.75484500  1
  K  K1  1  0.65705400  0.63515300  0.25511600  1
  K  K2  1  0.34299900  0.36489900  0.24489100  1
  K  K3  1  0.34272800  0.36474700  0.74511900  1
  Li  Li0  1  0.34785800  0.96276000  0.84626400  1
  Li  Li1  1  0.34803900  0.96265000  0.34617700  1
  Li  Li2  1  0.65198300  0.03734300  0.15382500  1
  Li  Li3  1  0.65217100  0.03725000  0.65374900  1
  Ni  Ni0  1  0.94456400  0.20709800  0.93516000  1
  Ni  Ni1  1  0.05546300  0.79310800  0.56477600  1
  Ni  Ni2  1  0.94534500  0.20737600  0.43511100  1
  Ni  Ni3  1  0.05458600  0.79266000  0.06485800  1
  O  O0  1  0.27717300  0.11151100  0.04167700  1
  O  O1  1  0.27770200  0.11107700  0.54170900  1
  O  O2  1  0.72226900  0.88891900  0.95828100  1
  O  O3  1  0.72283700  0.88841200  0.45835500  1
  O  O4  1  0.23537600  0.72680800  0.87631700  1
  O  O5  1  0.23572200  0.72654500  0.37641500  1
  O  O6  1  0.76424000  0.27331200  0.12361700  1
  O  O7  1  0.76459700  0.27306300  0.62373700  1
loop_
_geom_bond_atom_site_label_1
_geom_bond_atom_site_label_2
_geom_bond_distance
_geom_bond_site_symmetry_2
K0 O3 2.658094 1_555
K0 O2 2.660432 1_555
K0 O4 2.820729 1_555
K0 O5 2.823434 1_555
K0 O7 3.119733 1_555
K0 O6 3.133279 1_556
K1 O3 2.658135 1_555
K1 O2 2.661792 1_554
K1 O5 2.816811 1_555
K1 O4 2.824737 1_554
K1 O6 3.118035 1_555
K1 O7 3.132506 1_555
K2 O0 2.658995 1_555
K2 O1 2.662267 1_555
K2 O6 2.816373 1_555
K2 O7 2.824432 1_555
K2 O5 3.116726 1_555
K2 O4 3.131226 1_554
K3 O0 2.659075 1_556
K3 O1 2.660811 1_555
K3 O7 2.820271 1_555
K3 O6 2.823257 1_556
K3 O4 3.118698 1_555
K3 O5 3.131854 1_555
Li0 O1 1.952640 1_565
Li0 O0 1.952978 1_566
Li0 O2 2.055025 1_555
Li0 O4 2.121963 1_555
Li1 O1 1.951356 1_565
Li1 O0 1.952977 1_565
Li1 O3 2.057023 1_555
Li1 O5 2.122548 1_555
Li2 O2 1.951330 1_544
Li2 O3 1.953343 1_545
Li2 O0 2.057117 1_555
Li2 O6 2.121341 1_555
Li3 O2 1.952625 1_545
Li3 O3 1.953317 1_545
Li3 O1 2.055353 1_555
Li3 O7 2.120747 1_555
Ni0 O0 1.828463 1_656
Ni0 O6 1.904098 1_556
Ni0 O7 1.904408 1_555
Ni1 O3 1.828389 1_455
Ni1 O5 1.904051 1_555
Ni1 O4 1.904784 1_555
Ni2 O1 1.827549 1_655
Ni2 O7 1.905627 1_555
Ni2 O6 1.906297 1_555
Ni3 O2 1.827312 1_454
Ni3 O4 1.905678 1_554
Ni3 O5 1.906573 1_555
