# generated using pymatgen
data_CsCeMg30O32
_symmetry_space_group_name_H-M   'P 1'
_cell_length_a   8.75843300
_cell_length_b   8.75843300
_cell_length_c   8.74754000
_cell_angle_alpha   90.00000000
_cell_angle_beta   90.00000000
_cell_angle_gamma   90.00000000
_symmetry_Int_Tables_number   1
_chemical_formula_structural   CsCeMg30O32
_chemical_formula_sum   'Cs1 Ce1 Mg30 O32'
_cell_volume   671.02509342
_cell_formula_units_Z   1
loop_
 _symmetry_equiv_pos_site_id
 _symmetry_equiv_pos_as_xyz
  1  'x, y, z'
loop_
 _atom_site_type_symbol
 _atom_site_label
 _atom_site_symmetry_multiplicity
 _atom_site_fract_x
 _atom_site_fract_y
 _atom_site_fract_z
 _atom_site_occupancy
  Cs  Cs0  1  0.50000000  0.50000000  0.00000000  1
  Ce  Ce0  1  0.00000000  0.00000000  0.00000000  1
  Mg  Mg0  1  0.50000000  0.00000000  0.00000000  1
  Mg  Mg1  1  0.00000000  0.50000000  0.00000000  1
  Mg  Mg2  1  0.00000000  0.00000000  0.50000000  1
  Mg  Mg3  1  0.50000000  0.00000000  0.50000000  1
  Mg  Mg4  1  0.00000000  0.50000000  0.50000000  1
  Mg  Mg5  1  0.50000000  0.50000000  0.50000000  1
  Mg  Mg6  1  0.25460600  0.25460600  0.00000000  1
  Mg  Mg7  1  0.74539400  0.25460600  0.00000000  1
  Mg  Mg8  1  0.25460600  0.74539400  0.00000000  1
  Mg  Mg9  1  0.74539400  0.74539400  0.00000000  1
  Mg  Mg10  1  0.25137000  0.25137000  0.50000000  1
  Mg  Mg11  1  0.74863000  0.25137000  0.50000000  1
  Mg  Mg12  1  0.25137000  0.74863000  0.50000000  1
  Mg  Mg13  1  0.74863000  0.74863000  0.50000000  1
  Mg  Mg14  1  0.25895800  0.00000000  0.25787000  1
  Mg  Mg15  1  0.74104200  0.00000000  0.25787000  1
  Mg  Mg16  1  0.24661600  0.50000000  0.25518600  1
  Mg  Mg17  1  0.75338400  0.50000000  0.25518600  1
  Mg  Mg18  1  0.25895800  0.00000000  0.74213000  1
  Mg  Mg19  1  0.74104200  0.00000000  0.74213000  1
  Mg  Mg20  1  0.24661600  0.50000000  0.74481400  1
  Mg  Mg21  1  0.75338400  0.50000000  0.74481400  1
  Mg  Mg22  1  0.00000000  0.25895800  0.25787000  1
  Mg  Mg23  1  0.50000000  0.24661600  0.25518600  1
  Mg  Mg24  1  0.00000000  0.74104200  0.25787000  1
  Mg  Mg25  1  0.50000000  0.75338400  0.25518600  1
  Mg  Mg26  1  0.00000000  0.25895800  0.74213000  1
  Mg  Mg27  1  0.50000000  0.24661600  0.74481400  1
  Mg  Mg28  1  0.00000000  0.74104200  0.74213000  1
  Mg  Mg29  1  0.50000000  0.75338400  0.74481400  1
  O  O0  1  0.00000000  0.00000000  0.26494100  1
  O  O1  1  0.50000000  0.00000000  0.25851700  1
  O  O2  1  0.00000000  0.50000000  0.25851700  1
  O  O3  1  0.50000000  0.50000000  0.28506600  1
  O  O4  1  0.00000000  0.00000000  0.73505900  1
  O  O5  1  0.50000000  0.00000000  0.74148300  1
  O  O6  1  0.00000000  0.50000000  0.74148300  1
  O  O7  1  0.50000000  0.50000000  0.71493400  1
  O  O8  1  0.24942500  0.24942500  0.24858600  1
  O  O9  1  0.75057500  0.24942500  0.24858600  1
  O  O10  1  0.24942500  0.75057500  0.24858600  1
  O  O11  1  0.75057500  0.75057500  0.24858600  1
  O  O12  1  0.24942500  0.24942500  0.75141400  1
  O  O13  1  0.75057500  0.24942500  0.75141400  1
  O  O14  1  0.24942500  0.75057500  0.75141400  1
  O  O15  1  0.75057500  0.75057500  0.75141400  1
  O  O16  1  0.25942700  0.00000000  0.00000000  1
  O  O17  1  0.74057300  0.00000000  0.00000000  1
  O  O18  1  0.21598700  0.50000000  0.00000000  1
  O  O19  1  0.78401300  0.50000000  0.00000000  1
  O  O20  1  0.25010400  0.00000000  0.50000000  1
  O  O21  1  0.74989600  0.00000000  0.50000000  1
  O  O22  1  0.24277700  0.50000000  0.50000000  1
  O  O23  1  0.75722300  0.50000000  0.50000000  1
  O  O24  1  0.00000000  0.25942700  0.00000000  1
  O  O25  1  0.50000000  0.21598700  0.00000000  1
  O  O26  1  0.00000000  0.74057300  0.00000000  1
  O  O27  1  0.50000000  0.78401300  0.00000000  1
  O  O28  1  0.00000000  0.25010400  0.50000000  1
  O  O29  1  0.50000000  0.24277700  0.50000000  1
  O  O30  1  0.00000000  0.74989600  0.50000000  1
  O  O31  1  0.50000000  0.75722300  0.50000000  1
loop_
_geom_bond_atom_site_label_1
_geom_bond_atom_site_label_2
_geom_bond_distance
_geom_bond_site_symmetry_2
Cs0 O19 2.487509 1_555
Cs0 O27 2.487509 1_555
Cs0 O25 2.487509 1_555
Cs0 O18 2.487509 1_555
Cs0 O3 2.493626 1_555
Cs0 O7 2.493626 1_554
Ce0 O24 2.272174 1_555
Ce0 O16 2.272174 1_555
Ce0 O26 2.272174 1_545
Ce0 O17 2.272174 1_455
Ce0 O4 2.317582 1_554
Ce0 O0 2.317582 1_555
Mg0 O25 1.891708 1_555
Mg0 O27 1.891708 1_545
Mg0 O17 2.107043 1_555
Mg0 O16 2.107043 1_555
Mg0 O1 2.261388 1_555
Mg0 O5 2.261388 1_554
Mg1 O18 1.891708 1_555
Mg1 O19 1.891708 1_455
Mg1 O26 2.107043 1_555
Mg1 O24 2.107043 1_555
Mg1 O6 2.261388 1_554
Mg1 O2 2.261388 1_555
Mg2 O0 2.056188 1_555
Mg2 O4 2.056188 1_555
Mg2 O20 2.190519 1_555
Mg2 O30 2.190519 1_545
Mg2 O28 2.190519 1_555
Mg2 O21 2.190519 1_455
Mg3 O1 2.112382 1_555
Mg3 O5 2.112382 1_555
Mg3 O31 2.126346 1_545
Mg3 O29 2.126346 1_555
Mg3 O20 2.188697 1_555
Mg3 O21 2.188697 1_555
Mg4 O2 2.112382 1_555
Mg4 O6 2.112382 1_555
Mg4 O23 2.126346 1_455
Mg4 O22 2.126346 1_555
Mg4 O30 2.188697 1_555
Mg4 O28 2.188697 1_555
Mg5 O7 1.880144 1_555
Mg5 O3 1.880144 1_555
Mg5 O22 2.252870 1_555
Mg5 O23 2.252870 1_555
Mg5 O29 2.252870 1_555
Mg5 O31 2.252870 1_555
Mg6 O8 2.175463 1_555
Mg6 O12 2.175463 1_554
Mg6 O25 2.175720 1_555
Mg6 O18 2.175720 1_555
Mg6 O24 2.230349 1_555
Mg6 O16 2.230349 1_555
Mg7 O9 2.175463 1_555
Mg7 O13 2.175463 1_554
Mg7 O19 2.175720 1_555
Mg7 O25 2.175720 1_555
Mg7 O24 2.230349 1_655
Mg7 O17 2.230349 1_555
Mg8 O10 2.175463 1_555
Mg8 O14 2.175463 1_554
Mg8 O27 2.175720 1_555
Mg8 O18 2.175720 1_555
Mg8 O16 2.230349 1_565
Mg8 O26 2.230349 1_555
Mg9 O11 2.175463 1_555
Mg9 O15 2.175463 1_554
Mg9 O19 2.175720 1_555
Mg9 O27 2.175720 1_555
Mg9 O17 2.230349 1_565
Mg9 O26 2.230349 1_655
Mg10 O22 2.178909 1_555
Mg10 O29 2.178909 1_555
Mg10 O12 2.199386 1_555
Mg10 O8 2.199386 1_555
Mg10 O20 2.201635 1_555
Mg10 O28 2.201635 1_555
Mg11 O23 2.178909 1_555
Mg11 O29 2.178909 1_555
Mg11 O13 2.199386 1_555
Mg11 O9 2.199386 1_555
Mg11 O28 2.201635 1_655
Mg11 O21 2.201635 1_555
Mg12 O31 2.178909 1_555
Mg12 O22 2.178909 1_555
Mg12 O14 2.199386 1_555
Mg12 O10 2.199386 1_555
Mg12 O20 2.201635 1_565
Mg12 O30 2.201635 1_555
Mg13 O31 2.178909 1_555
Mg13 O23 2.178909 1_555
Mg13 O15 2.199386 1_555
Mg13 O11 2.199386 1_555
Mg13 O21 2.201635 1_565
Mg13 O30 2.201635 1_655
Mg14 O1 2.111158 1_555
Mg14 O20 2.119461 1_555
Mg14 O8 2.187675 1_555
Mg14 O10 2.187675 1_545
Mg14 O16 2.255732 1_555
Mg14 O0 2.268910 1_555
Mg15 O1 2.111158 1_555
Mg15 O21 2.119461 1_555
Mg15 O9 2.187675 1_555
Mg15 O11 2.187675 1_545
Mg15 O17 2.255732 1_555
Mg15 O0 2.268910 1_655
Mg16 O22 2.141784 1_555
Mg16 O2 2.160166 1_555
Mg16 O10 2.195541 1_555
Mg16 O8 2.195541 1_555
Mg16 O3 2.234586 1_555
Mg16 O18 2.248311 1_555
Mg17 O23 2.141784 1_555
Mg17 O2 2.160166 1_655
Mg17 O11 2.195541 1_555
Mg17 O9 2.195541 1_555
Mg17 O3 2.234586 1_555
Mg17 O19 2.248311 1_555
Mg18 O5 2.111158 1_555
Mg18 O20 2.119461 1_555
Mg18 O12 2.187675 1_555
Mg18 O14 2.187675 1_545
Mg18 O16 2.255732 1_556
Mg18 O4 2.268910 1_555
Mg19 O5 2.111158 1_555
Mg19 O21 2.119461 1_555
Mg19 O13 2.187675 1_555
Mg19 O15 2.187675 1_545
Mg19 O17 2.255732 1_556
Mg19 O4 2.268910 1_655
Mg20 O22 2.141784 1_555
Mg20 O6 2.160166 1_555
Mg20 O14 2.195541 1_555
Mg20 O12 2.195541 1_555
Mg20 O7 2.234586 1_555
Mg20 O18 2.248311 1_556
Mg21 O23 2.141784 1_555
Mg21 O6 2.160166 1_655
Mg21 O15 2.195541 1_555
Mg21 O13 2.195541 1_555
Mg21 O7 2.234586 1_555
Mg21 O19 2.248311 1_556
Mg22 O2 2.111158 1_555
Mg22 O28 2.119461 1_555
Mg22 O8 2.187675 1_555
Mg22 O9 2.187675 1_455
Mg22 O24 2.255732 1_555
Mg22 O0 2.268910 1_555
Mg23 O29 2.141784 1_555
Mg23 O1 2.160166 1_555
Mg23 O9 2.195541 1_555
Mg23 O8 2.195541 1_555
Mg23 O3 2.234586 1_555
Mg23 O25 2.248311 1_555
Mg24 O2 2.111158 1_555
Mg24 O30 2.119461 1_555
Mg24 O10 2.187675 1_555
Mg24 O11 2.187675 1_455
Mg24 O26 2.255732 1_555
Mg24 O0 2.268910 1_565
Mg25 O31 2.141784 1_555
Mg25 O1 2.160166 1_565
Mg25 O11 2.195541 1_555
Mg25 O10 2.195541 1_555
Mg25 O3 2.234586 1_555
Mg25 O27 2.248311 1_555
Mg26 O6 2.111158 1_555
Mg26 O28 2.119461 1_555
Mg26 O12 2.187675 1_555
Mg26 O13 2.187675 1_455
Mg26 O24 2.255732 1_556
Mg26 O4 2.268910 1_555
Mg27 O29 2.141784 1_555
Mg27 O5 2.160166 1_555
Mg27 O13 2.195541 1_555
Mg27 O12 2.195541 1_555
Mg27 O7 2.234586 1_555
Mg27 O25 2.248311 1_556
Mg28 O6 2.111158 1_555
Mg28 O30 2.119461 1_555
Mg28 O14 2.187675 1_555
Mg28 O15 2.187675 1_455
Mg28 O26 2.255732 1_556
Mg28 O4 2.268910 1_565
Mg29 O31 2.141784 1_555
Mg29 O5 2.160166 1_565
Mg29 O15 2.195541 1_555
Mg29 O14 2.195541 1_555
Mg29 O7 2.234586 1_555
Mg29 O27 2.248311 1_556
