# generated using pymatgen
data_La(Mo4O7)2
_symmetry_space_group_name_H-M   'P 1'
_cell_length_a   9.44511629
_cell_length_b   12.49065478
_cell_length_c   21.67122696
_cell_angle_alpha   90.00000000
_cell_angle_beta   90.00000000
_cell_angle_gamma   90.00000000
_symmetry_Int_Tables_number   1
_chemical_formula_structural   La(Mo4O7)2
_chemical_formula_sum   'La8 Mo64 O112'
_cell_volume   2556.67788734
_cell_formula_units_Z   8
loop_
 _symmetry_equiv_pos_site_id
 _symmetry_equiv_pos_as_xyz
  1  'x, y, z'
loop_
 _atom_site_type_symbol
 _atom_site_label
 _atom_site_symmetry_multiplicity
 _atom_site_fract_x
 _atom_site_fract_y
 _atom_site_fract_z
 _atom_site_occupancy
  La  La0  1  0.00000000  0.50000000  0.50000000  1
  La  La1  1  0.50000000  0.00000000  -0.00000000  1
  La  La2  1  0.50000000  0.00000000  0.50000000  1
  La  La3  1  0.00000000  0.50000000  -0.00000000  1
  La  La4  1  0.50000000  0.41751916  0.75000000  1
  La  La5  1  0.00000000  0.08248084  0.25000000  1
  La  La6  1  0.50000000  0.58248084  0.25000000  1
  La  La7  1  0.00000000  0.91751916  0.75000000  1
  Mo  Mo0  1  0.63928995  0.25142892  0.58474512  1
  Mo  Mo1  1  0.86071005  0.24857108  0.08474512  1
  Mo  Mo2  1  0.13928995  0.24857108  0.41525488  1
  Mo  Mo3  1  0.36071005  0.25142892  0.91525488  1
  Mo  Mo4  1  0.36071005  0.74857108  0.41525488  1
  Mo  Mo5  1  0.13928995  0.75142892  0.91525488  1
  Mo  Mo6  1  0.86071005  0.75142892  0.58474512  1
  Mo  Mo7  1  0.63928995  0.74857108  0.08474512  1
  Mo  Mo8  1  0.64558739  0.37141962  0.95492724  1
  Mo  Mo9  1  0.85441261  0.12858038  0.45492724  1
  Mo  Mo10  1  0.14558739  0.12858038  0.04507276  1
  Mo  Mo11  1  0.35441261  0.37141962  0.54507276  1
  Mo  Mo12  1  0.35441261  0.62858038  0.04507276  1
  Mo  Mo13  1  0.14558739  0.87141962  0.54507276  1
  Mo  Mo14  1  0.85441261  0.87141962  0.95492724  1
  Mo  Mo15  1  0.64558739  0.62858038  0.45492724  1
  Mo  Mo16  1  0.13872173  0.87276013  0.04035649  1
  Mo  Mo17  1  0.36127827  0.62723987  0.54035649  1
  Mo  Mo18  1  0.63872173  0.62723987  0.95964351  1
  Mo  Mo19  1  0.86127827  0.87276013  0.45964351  1
  Mo  Mo20  1  0.86127827  0.12723987  0.95964351  1
  Mo  Mo21  1  0.63872173  0.37276013  0.45964351  1
  Mo  Mo22  1  0.36127827  0.37276013  0.04035649  1
  Mo  Mo23  1  0.13872173  0.12723987  0.54035649  1
  Mo  Mo24  1  0.63651468  0.51245307  0.58874277  1
  Mo  Mo25  1  0.86348532  0.98754693  0.08874277  1
  Mo  Mo26  1  0.13651468  0.98754693  0.41125723  1
  Mo  Mo27  1  0.36348532  0.51245307  0.91125723  1
  Mo  Mo28  1  0.36348532  0.48754693  0.41125723  1
  Mo  Mo29  1  0.13651468  0.01245307  0.91125723  1
  Mo  Mo30  1  0.86348532  0.01245307  0.58874277  1
  Mo  Mo31  1  0.63651468  0.48754693  0.08874277  1
  Mo  Mo32  1  0.64470496  0.13326886  0.71157649  1
  Mo  Mo33  1  0.85529504  0.36673114  0.21157649  1
  Mo  Mo34  1  0.14470496  0.36673114  0.28842351  1
  Mo  Mo35  1  0.35529504  0.13326886  0.78842351  1
  Mo  Mo36  1  0.35529504  0.86673114  0.28842351  1
  Mo  Mo37  1  0.14470496  0.63326886  0.78842351  1
  Mo  Mo38  1  0.85529504  0.63326886  0.71157649  1
  Mo  Mo39  1  0.64470496  0.86673114  0.21157649  1
  Mo  Mo40  1  0.86521965  0.51216089  0.83922075  1
  Mo  Mo41  1  0.63478035  0.98783911  0.33922075  1
  Mo  Mo42  1  0.36521965  0.98783911  0.16077925  1
  Mo  Mo43  1  0.13478035  0.51216089  0.66077925  1
  Mo  Mo44  1  0.13478035  0.48783911  0.16077925  1
  Mo  Mo45  1  0.36521965  0.01216089  0.66077925  1
  Mo  Mo46  1  0.63478035  0.01216089  0.83922075  1
  Mo  Mo47  1  0.86521965  0.48783911  0.33922075  1
  Mo  Mo48  1  0.13950792  0.38358355  0.79652588  1
  Mo  Mo49  1  0.36049208  0.11641645  0.29652588  1
  Mo  Mo50  1  0.63950792  0.11641645  0.20347412  1
  Mo  Mo51  1  0.86049208  0.38358355  0.70347412  1
  Mo  Mo52  1  0.86049208  0.61641645  0.20347412  1
  Mo  Mo53  1  0.63950792  0.88358355  0.70347412  1
  Mo  Mo54  1  0.36049208  0.88358355  0.79652588  1
  Mo  Mo55  1  0.13950792  0.61641645  0.29652588  1
  Mo  Mo56  1  0.13194698  0.25275116  0.66741550  1
  Mo  Mo57  1  0.36805302  0.24724884  0.16741550  1
  Mo  Mo58  1  0.63194698  0.24724884  0.33258450  1
  Mo  Mo59  1  0.86805302  0.25275116  0.83258450  1
  Mo  Mo60  1  0.86805302  0.74724884  0.33258450  1
  Mo  Mo61  1  0.63194698  0.75275116  0.83258450  1
  Mo  Mo62  1  0.36805302  0.75275116  0.66741550  1
  Mo  Mo63  1  0.13194698  0.74724884  0.16741550  1
  O  O0  1  0.25451343  0.74349696  0.33571685  1
  O  O1  1  0.24548657  0.75650304  0.83571685  1
  O  O2  1  0.75451343  0.75650304  0.66428315  1
  O  O3  1  0.74548657  0.74349696  0.16428315  1
  O  O4  1  0.74548657  0.25650304  0.66428315  1
  O  O5  1  0.75451343  0.24349696  0.16428315  1
  O  O6  1  0.24548657  0.24349696  0.33571685  1
  O  O7  1  0.25451343  0.25650304  0.83571685  1
  O  O8  1  0.53057127  0.12357137  0.63162544  1
  O  O9  1  0.96942873  0.37642863  0.13162544  1
  O  O10  1  0.03057127  0.37642863  0.36837456  1
  O  O11  1  0.46942873  0.12357137  0.86837456  1
  O  O12  1  0.46942873  0.87642863  0.36837456  1
  O  O13  1  0.03057127  0.62357137  0.86837456  1
  O  O14  1  0.96942873  0.62357137  0.63162544  1
  O  O15  1  0.53057127  0.87642863  0.13162544  1
  O  O16  1  0.77430650  0.62373849  0.53723181  1
  O  O17  1  0.72569350  0.87626151  0.03723181  1
  O  O18  1  0.27430650  0.87626151  0.46276819  1
  O  O19  1  0.22569350  0.62373849  0.96276819  1
  O  O20  1  0.22569350  0.37626151  0.46276819  1
  O  O21  1  0.27430650  0.12373849  0.96276819  1
  O  O22  1  0.72569350  0.12373849  0.53723181  1
  O  O23  1  0.77430650  0.37626151  0.03723181  1
  O  O24  1  0.24911511  0.25621341  0.08507700  1
  O  O25  1  0.25088489  0.24378659  0.58507700  1
  O  O26  1  0.74911511  0.24378659  0.91492300  1
  O  O27  1  0.75088489  0.25621341  0.41492300  1
  O  O28  1  0.75088489  0.74378659  0.91492300  1
  O  O29  1  0.74911511  0.75621341  0.41492300  1
  O  O30  1  0.25088489  0.75621341  0.08507700  1
  O  O31  1  0.24911511  0.74378659  0.58507700  1
  O  O32  1  0.01223564  0.23346325  0.49207518  1
  O  O33  1  0.48776436  0.26653675  0.99207518  1
  O  O34  1  0.51223564  0.26653675  0.50792482  1
  O  O35  1  -0.01223564  0.23346325  0.00792482  1
  O  O36  1  -0.01223564  0.76653675  0.50792482  1
  O  O37  1  0.51223564  0.73346325  0.00792482  1
  O  O38  1  0.48776436  0.73346325  0.49207518  1
  O  O39  1  0.01223564  0.76653675  0.99207518  1
  O  O40  1  0.01284719  0.87861639  0.88114457  1
  O  O41  1  0.48715281  0.62138361  0.38114457  1
  O  O42  1  0.51284719  0.62138361  0.11885543  1
  O  O43  1  -0.01284719  0.87861639  0.61885543  1
  O  O44  1  -0.01284719  0.12138361  0.11885543  1
  O  O45  1  0.51284719  0.37861639  0.61885543  1
  O  O46  1  0.48715281  0.37861639  0.88114457  1
  O  O47  1  0.01284719  0.12138361  0.38114457  1
  O  O48  1  0.24782207  0.38560097  0.95760121  1
  O  O49  1  0.25217793  0.11439903  0.45760121  1
  O  O50  1  0.74782207  0.11439903  0.04239879  1
  O  O51  1  0.75217793  0.38560097  0.54239879  1
  O  O52  1  0.75217793  0.61439903  0.04239879  1
  O  O53  1  0.74782207  0.88560097  0.54239879  1
  O  O54  1  0.25217793  0.88560097  0.95760121  1
  O  O55  1  0.24782207  0.61439903  0.45760121  1
  O  O56  1  0.52316409  0.62554338  0.88399125  1
  O  O57  1  0.97683591  0.87445662  0.38399125  1
  O  O58  1  0.02316409  0.87445662  0.11600875  1
  O  O59  1  0.47683591  0.62554338  0.61600875  1
  O  O60  1  0.47683591  0.37445662  0.11600875  1
  O  O61  1  0.02316409  0.12554338  0.61600875  1
  O  O62  1  0.97683591  0.12554338  0.88399125  1
  O  O63  1  0.52316409  0.37445662  0.38399125  1
  O  O64  1  0.22071765  0.50724794  0.56933624  1
  O  O65  1  0.27928235  -0.00724794  0.06933624  1
  O  O66  1  0.72071765  -0.00724794  0.43066376  1
  O  O67  1  0.77928235  0.50724794  0.93066376  1
  O  O68  1  0.77928235  0.49275206  0.43066376  1
  O  O69  1  0.72071765  0.00724794  0.93066376  1
  O  O70  1  0.27928235  0.00724794  0.56933624  1
  O  O71  1  0.22071765  0.49275206  0.06933624  1
  O  O72  1  0.22355823  0.98828044  0.32196363  1
  O  O73  1  0.27644177  0.51171956  0.82196363  1
  O  O74  1  0.72355823  0.51171956  0.67803637  1
  O  O75  1  0.77644177  0.98828044  0.17803637  1
  O  O76  1  0.77644177  0.01171956  0.67803637  1
  O  O77  1  0.72355823  0.48828044  0.17803637  1
  O  O78  1  0.27644177  0.48828044  0.32196363  1
  O  O79  1  0.22355823  0.01171956  0.82196363  1
  O  O80  1  0.50000000  0.76334521  0.25000000  1
  O  O81  1  0.00000000  0.73665479  0.75000000  1
  O  O82  1  0.50000000  0.23665479  0.75000000  1
  O  O83  1  0.00000000  0.26334521  0.25000000  1
  O  O84  1  0.75242631  0.87067291  0.28956127  1
  O  O85  1  0.74757369  0.62932709  0.78956127  1
  O  O86  1  0.25242631  0.62932709  0.71043873  1
  O  O87  1  0.24757369  0.87067291  0.21043873  1
  O  O88  1  0.24757369  0.12932709  0.71043873  1
  O  O89  1  0.25242631  0.37067291  0.21043873  1
  O  O90  1  0.74757369  0.37067291  0.28956127  1
  O  O91  1  0.75242631  0.12932709  0.78956127  1
  O  O92  1  0.00918679  0.38465263  0.62997554  1
  O  O93  1  0.49081321  0.11534737  0.12997554  1
  O  O94  1  0.50918679  0.11534737  0.37002446  1
  O  O95  1  -0.00918679  0.38465263  0.87002446  1
  O  O96  1  -0.00918679  0.61534737  0.37002446  1
  O  O97  1  0.50918679  0.88465263  0.87002446  1
  O  O98  1  0.49081321  0.88465263  0.62997554  1
  O  O99  1  0.00918679  0.61534737  0.12997554  1
  O  O100  1  0.74571345  0.38660798  0.79034464  1
  O  O101  1  0.75428655  0.11339202  0.29034464  1
  O  O102  1  0.24571345  0.11339202  0.20965536  1
  O  O103  1  0.25428655  0.38660798  0.70965536  1
  O  O104  1  0.25428655  0.61339202  0.20965536  1
  O  O105  1  0.24571345  0.88660798  0.70965536  1
  O  O106  1  0.75428655  0.88660798  0.79034464  1
  O  O107  1  0.74571345  0.61339202  0.29034464  1
  O  O108  1  0.50000000  0.77464000  0.75000000  1
  O  O109  1  0.00000000  0.72536000  0.25000000  1
  O  O110  1  0.50000000  0.22536000  0.25000000  1
  O  O111  1  0.00000000  0.27464000  0.75000000  1
loop_
_geom_bond_atom_site_label_1
_geom_bond_atom_site_label_2
_geom_bond_distance
_geom_bond_site_symmetry_2
La0 O68 2.571380 1_455
La0 O64 2.571380 1_555
La0 O20 2.753901 1_555
La0 O16 2.753901 1_455
La0 O51 2.892227 1_455
La0 O55 2.892227 1_555
La0 O96 3.165011 1_555
La0 O92 3.165011 1_555
La0 O14 3.256132 1_455
La0 O10 3.256132 1_555
La0 O32 3.335648 1_555
La0 O36 3.335648 1_555
La1 O69 2.571380 1_554
La1 O65 2.571380 1_555
La1 O21 2.753901 1_554
La1 O17 2.753901 1_545
La1 O54 2.892227 1_544
La1 O50 2.892227 1_555
La1 O97 3.165011 1_544
La1 O93 3.165011 1_555
La1 O15 3.256132 1_545
La1 O11 3.256132 1_554
La1 O37 3.335648 1_545
La1 O33 3.335648 1_554
La2 O66 2.571380 1_555
La2 O70 2.571380 1_555
La2 O22 2.753901 1_555
La2 O18 2.753901 1_545
La2 O49 2.892227 1_555
La2 O53 2.892227 1_545
La2 O98 3.165011 1_545
La2 O94 3.165011 1_555
La2 O12 3.256132 1_545
La2 O8 3.256132 1_555
La2 O34 3.335648 1_555
La2 O38 3.335648 1_545
La3 O67 2.571380 1_454
La3 O71 2.571380 1_555
La3 O23 2.753901 1_455
La3 O19 2.753901 1_554
La3 O52 2.892227 1_455
La3 O48 2.892227 1_554
La3 O95 3.165011 1_554
La3 O99 3.165011 1_555
La3 O13 3.256132 1_554
La3 O9 3.256132 1_455
La3 O35 3.335648 1_555
La3 O39 3.335648 1_554
La4 O82 2.259114 1_555
La4 O103 2.509897 1_555
La4 O100 2.509897 1_555
La4 O74 2.876662 1_555
La4 O73 2.876662 1_555
La4 O45 2.885857 1_555
La4 O46 2.885857 1_555
La5 O83 2.259114 1_555
La5 O101 2.509897 1_455
La5 O102 2.509897 1_555
La5 O75 2.876662 1_445
La5 O72 2.876662 1_545
La5 O44 2.885857 1_555
La5 O47 2.885857 1_555
La6 O80 2.259114 1_555
La6 O104 2.509897 1_555
La6 O107 2.509897 1_555
La6 O77 2.876662 1_555
La6 O78 2.876662 1_555
La6 O42 2.885857 1_555
La6 O41 2.885857 1_555
La7 O81 2.259114 1_555
La7 O105 2.509897 1_555
La7 O106 2.509897 1_455
La7 O76 2.876662 1_465
La7 O79 2.876662 1_565
La7 O40 2.885857 1_555
La7 O43 2.885857 1_555
Mo0 O4 1.995295 1_555
Mo0 O34 2.060883 1_555
Mo0 O22 2.066411 1_555
Mo0 O45 2.120503 1_555
Mo0 O8 2.153391 1_555
Mo0 O51 2.188073 1_555
Mo1 O5 1.995295 1_555
Mo1 O35 2.060883 1_655
Mo1 O23 2.066411 1_555
Mo1 O44 2.120503 1_655
Mo1 O9 2.153391 1_555
Mo1 O50 2.188073 1_555
Mo2 O6 1.995295 1_555
Mo2 O32 2.060883 1_555
Mo2 O20 2.066411 1_555
Mo2 O47 2.120503 1_555
Mo2 O10 2.153391 1_555
Mo2 O49 2.188073 1_555
Mo3 O7 1.995295 1_555
Mo3 O33 2.060883 1_555
Mo3 O21 2.066411 1_555
Mo3 O46 2.120503 1_555
Mo3 O11 2.153391 1_555
Mo3 O48 2.188073 1_555
Mo4 O0 1.995295 1_555
Mo4 O38 2.060883 1_555
Mo4 O18 2.066411 1_555
Mo4 O41 2.120503 1_555
Mo4 O12 2.153391 1_555
Mo4 O55 2.188073 1_555
Mo5 O1 1.995295 1_555
Mo5 O39 2.060883 1_555
Mo5 O19 2.066411 1_555
Mo5 O40 2.120503 1_555
Mo5 O13 2.153391 1_555
Mo5 O54 2.188073 1_555
Mo6 O2 1.995295 1_555
Mo6 O36 2.060883 1_655
Mo6 O16 2.066411 1_555
Mo6 O43 2.120503 1_655
Mo6 O14 2.153391 1_555
Mo6 O53 2.188073 1_555
Mo7 O3 1.995295 1_555
Mo7 O37 2.060883 1_555
Mo7 O17 2.066411 1_555
Mo7 O42 2.120503 1_555
Mo7 O15 2.153391 1_555
Mo7 O52 2.188073 1_555
Mo8 O26 2.061378 1_555
Mo8 O33 2.141587 1_555
Mo8 O23 2.159426 1_556
Mo8 O67 2.179325 1_555
Mo8 O46 2.191819 1_555
Mo9 O27 2.061378 1_555
Mo9 O32 2.141587 1_655
Mo9 O22 2.159426 1_555
Mo9 O66 2.179325 1_555
Mo9 O47 2.191819 1_655
Mo10 O24 2.061378 1_555
Mo10 O35 2.141587 1_555
Mo10 O21 2.159426 1_554
Mo10 O65 2.179325 1_555
Mo10 O44 2.191819 1_555
Mo11 O25 2.061378 1_555
Mo11 O34 2.141587 1_555
Mo11 O20 2.159426 1_555
Mo11 O64 2.179325 1_555
Mo11 O45 2.191819 1_555
Mo12 O30 2.061378 1_555
Mo12 O37 2.141587 1_555
Mo12 O19 2.159426 1_554
Mo12 O71 2.179325 1_555
Mo12 O42 2.191819 1_555
Mo13 O31 2.061378 1_555
Mo13 O36 2.141587 1_555
Mo13 O18 2.159426 1_555
Mo13 O70 2.179325 1_565
Mo13 O43 2.191819 1_555
Mo14 O28 2.061378 1_555
Mo14 O39 2.141587 1_655
Mo14 O17 2.159426 1_556
Mo14 O69 2.179325 1_565
Mo14 O40 2.191819 1_655
Mo15 O29 2.061378 1_555
Mo15 O38 2.141587 1_555
Mo15 O16 2.159426 1_555
Mo15 O68 2.179325 1_555
Mo15 O41 2.191819 1_555
Mo16 O58 1.969672 1_555
Mo16 O30 2.044690 1_555
Mo16 O39 2.069402 1_554
Mo16 O54 2.095323 1_554
Mo16 O65 2.098405 1_565
Mo17 O59 1.969672 1_555
Mo17 O31 2.044690 1_555
Mo17 O38 2.069402 1_555
Mo17 O55 2.095323 1_555
Mo17 O64 2.098405 1_555
Mo18 O56 1.969672 1_555
Mo18 O28 2.044690 1_555
Mo18 O37 2.069402 1_556
Mo18 O52 2.095323 1_556
Mo18 O67 2.098405 1_555
Mo19 O57 1.969672 1_555
Mo19 O29 2.044690 1_555
Mo19 O36 2.069402 1_655
Mo19 O53 2.095323 1_555
Mo19 O66 2.098405 1_565
Mo20 O62 1.969672 1_555
Mo20 O26 2.044690 1_555
Mo20 O35 2.069402 1_656
Mo20 O50 2.095323 1_556
Mo20 O69 2.098405 1_555
Mo21 O63 1.969672 1_555
Mo21 O27 2.044690 1_555
Mo21 O34 2.069402 1_555
Mo21 O51 2.095323 1_555
Mo21 O68 2.098405 1_555
Mo22 O60 1.969672 1_555
Mo22 O24 2.044690 1_555
Mo22 O33 2.069402 1_554
Mo22 O48 2.095323 1_554
Mo22 O71 2.098405 1_555
Mo23 O61 1.969672 1_555
Mo23 O25 2.044690 1_555
Mo23 O32 2.069402 1_555
Mo23 O49 2.095323 1_555
Mo23 O70 2.098405 1_555
Mo24 O74 2.102525 1_555
Mo24 O45 2.141218 1_555
Mo24 O59 2.149216 1_555
Mo24 O51 2.170867 1_555
Mo24 O16 2.207286 1_555
Mo25 O75 2.102525 1_555
Mo25 O44 2.141218 1_665
Mo25 O58 2.149216 1_655
Mo25 O50 2.170867 1_565
Mo25 O17 2.207286 1_555
Mo26 O72 2.102525 1_555
Mo26 O47 2.141218 1_565
Mo26 O57 2.149216 1_455
Mo26 O49 2.170867 1_565
Mo26 O18 2.207286 1_555
Mo27 O73 2.102525 1_555
Mo27 O46 2.141218 1_555
Mo27 O56 2.149216 1_555
Mo27 O48 2.170867 1_555
Mo27 O19 2.207286 1_555
Mo28 O78 2.102525 1_555
Mo28 O41 2.141218 1_555
Mo28 O63 2.149216 1_555
Mo28 O55 2.170867 1_555
Mo28 O20 2.207286 1_555
Mo29 O79 2.102525 1_555
Mo29 O40 2.141218 1_545
Mo29 O62 2.149216 1_455
Mo29 O54 2.170867 1_545
Mo29 O21 2.207286 1_555
Mo30 O76 2.102525 1_555
Mo30 O43 2.141218 1_645
Mo30 O61 2.149216 1_655
Mo30 O53 2.170867 1_545
Mo30 O22 2.207286 1_555
Mo31 O77 2.102525 1_555
Mo31 O42 2.141218 1_555
Mo31 O60 2.149216 1_555
Mo31 O52 2.170867 1_555
Mo31 O23 2.207286 1_555
Mo32 O91 1.973271 1_555
Mo32 O8 2.044212 1_555
Mo32 O82 2.056451 1_555
Mo32 O4 2.079880 1_555
Mo32 O76 2.093215 1_555
Mo33 O90 1.973271 1_555
Mo33 O9 2.044212 1_555
Mo33 O83 2.056451 1_655
Mo33 O5 2.079880 1_555
Mo33 O77 2.093215 1_555
Mo34 O89 1.973271 1_555
Mo34 O10 2.044212 1_555
Mo34 O83 2.056451 1_555
Mo34 O6 2.079880 1_555
Mo34 O78 2.093215 1_555
Mo35 O88 1.973271 1_555
Mo35 O11 2.044212 1_555
Mo35 O82 2.056451 1_555
Mo35 O7 2.079880 1_555
Mo35 O79 2.093215 1_555
Mo36 O87 1.973271 1_555
Mo36 O12 2.044212 1_555
Mo36 O80 2.056451 1_555
Mo36 O0 2.079880 1_555
Mo36 O72 2.093215 1_555
Mo37 O86 1.973271 1_555
Mo37 O13 2.044212 1_555
Mo37 O81 2.056451 1_555
Mo37 O1 2.079880 1_555
Mo37 O73 2.093215 1_555
Mo38 O85 1.973271 1_555
Mo38 O14 2.044212 1_555
Mo38 O81 2.056451 1_655
Mo38 O2 2.079880 1_555
Mo38 O74 2.093215 1_555
Mo39 O84 1.973271 1_555
Mo39 O15 2.044212 1_555
Mo39 O80 2.056451 1_555
Mo39 O3 2.079880 1_555
Mo39 O75 2.093215 1_555
Mo40 O95 2.095084 1_655
Mo40 O85 2.129476 1_555
Mo40 O67 2.142351 1_555
Mo40 O13 2.185132 1_655
Mo40 O100 2.203489 1_555
Mo41 O94 2.095084 1_565
Mo41 O84 2.129476 1_555
Mo41 O66 2.142351 1_565
Mo41 O12 2.185132 1_555
Mo41 O101 2.203489 1_565
Mo42 O93 2.095084 1_565
Mo42 O87 2.129476 1_555
Mo42 O65 2.142351 1_565
Mo42 O15 2.185132 1_555
Mo42 O102 2.203489 1_565
Mo43 O92 2.095084 1_555
Mo43 O86 2.129476 1_555
Mo43 O64 2.142351 1_555
Mo43 O14 2.185132 1_455
Mo43 O103 2.203489 1_555
Mo44 O99 2.095084 1_555
Mo44 O89 2.129476 1_555
Mo44 O71 2.142351 1_555
Mo44 O9 2.185132 1_455
Mo44 O104 2.203489 1_555
Mo45 O98 2.095084 1_545
Mo45 O88 2.129476 1_555
Mo45 O70 2.142351 1_555
Mo45 O8 2.185132 1_555
Mo45 O105 2.203489 1_545
Mo46 O97 2.095084 1_545
Mo46 O91 2.129476 1_555
Mo46 O69 2.142351 1_555
Mo46 O11 2.185132 1_555
Mo46 O106 2.203489 1_545
Mo47 O96 2.095084 1_655
Mo47 O90 2.129476 1_555
Mo47 O68 2.142351 1_555
Mo47 O10 2.185132 1_655
Mo47 O107 2.203489 1_555
Mo48 O7 2.102579 1_555
Mo48 O95 2.123594 1_555
Mo48 O73 2.130323 1_555
Mo48 O111 2.145828 1_555
Mo48 O103 2.172750 1_555
Mo49 O6 2.102579 1_555
Mo49 O94 2.123594 1_555
Mo49 O72 2.130323 1_545
Mo49 O110 2.145828 1_555
Mo49 O102 2.172750 1_555
Mo50 O5 2.102579 1_555
Mo50 O93 2.123594 1_555
Mo50 O75 2.130323 1_545
Mo50 O110 2.145828 1_555
Mo50 O101 2.172750 1_555
Mo51 O4 2.102579 1_555
Mo51 O92 2.123594 1_655
Mo51 O74 2.130323 1_555
Mo51 O111 2.145828 1_655
Mo51 O100 2.172750 1_555
Mo52 O3 2.102579 1_555
Mo52 O99 2.123594 1_655
Mo52 O77 2.130323 1_555
Mo52 O109 2.145828 1_655
Mo52 O107 2.172750 1_555
Mo53 O2 2.102579 1_555
Mo53 O98 2.123594 1_555
Mo53 O76 2.130323 1_565
Mo53 O108 2.145828 1_555
Mo53 O106 2.172750 1_555
Mo54 O1 2.102579 1_555
Mo54 O97 2.123594 1_555
Mo54 O79 2.130323 1_565
Mo54 O108 2.145828 1_555
Mo54 O105 2.172750 1_555
Mo55 O0 2.102579 1_555
Mo55 O96 2.123594 1_555
Mo55 O78 2.130323 1_555
Mo55 O109 2.145828 1_555
Mo55 O104 2.172750 1_555
Mo56 O88 2.106818 1_555
Mo56 O25 2.111522 1_555
Mo56 O92 2.171888 1_555
Mo56 O61 2.195773 1_555
Mo56 O111 2.197943 1_555
Mo56 O103 2.229034 1_555
Mo57 O89 2.106818 1_555
Mo57 O24 2.111522 1_555
Mo57 O93 2.171888 1_555
Mo57 O60 2.195773 1_555
Mo57 O110 2.197943 1_555
Mo57 O102 2.229034 1_555
Mo58 O90 2.106818 1_555
Mo58 O27 2.111522 1_555
Mo58 O94 2.171888 1_555
Mo58 O63 2.195773 1_555
Mo58 O110 2.197943 1_555
Mo58 O101 2.229034 1_555
Mo59 O91 2.106818 1_555
Mo59 O26 2.111522 1_555
Mo59 O95 2.171888 1_655
Mo59 O62 2.195773 1_555
Mo59 O111 2.197943 1_655
Mo59 O100 2.229034 1_555
Mo60 O84 2.106818 1_555
Mo60 O29 2.111522 1_555
Mo60 O96 2.171888 1_655
Mo60 O57 2.195773 1_555
Mo60 O109 2.197943 1_655
Mo60 O107 2.229034 1_555
Mo61 O85 2.106818 1_555
Mo61 O28 2.111522 1_555
Mo61 O97 2.171888 1_555
Mo61 O56 2.195773 1_555
Mo61 O108 2.197943 1_555
Mo61 O106 2.229034 1_555
Mo62 O86 2.106818 1_555
Mo62 O31 2.111522 1_555
Mo62 O98 2.171888 1_555
Mo62 O59 2.195773 1_555
Mo62 O108 2.197943 1_555
Mo62 O105 2.229034 1_555
Mo63 O87 2.106818 1_555
Mo63 O30 2.111522 1_555
Mo63 O99 2.171888 1_555
Mo63 O58 2.195773 1_555
Mo63 O109 2.197943 1_555
Mo63 O104 2.229034 1_555
