# generated using pymatgen
data_NdSi2Ni9
_symmetry_space_group_name_H-M   'P 1'
_cell_length_a   7.53561940
_cell_length_b   7.53562081
_cell_length_c   7.53459585
_cell_angle_alpha   99.56548282
_cell_angle_beta   99.56473303
_cell_angle_gamma   131.88025757
_symmetry_Int_Tables_number   1
_chemical_formula_structural   NdSi2Ni9
_chemical_formula_sum   'Nd2 Si4 Ni18'
_cell_volume   290.89584901
_cell_formula_units_Z   2
loop_
 _symmetry_equiv_pos_site_id
 _symmetry_equiv_pos_as_xyz
  1  'x, y, z'
loop_
 _atom_site_type_symbol
 _atom_site_label
 _atom_site_symmetry_multiplicity
 _atom_site_fract_x
 _atom_site_fract_y
 _atom_site_fract_z
 _atom_site_occupancy
  Nd  Nd0  1  0.50000194  0.49999978  0.99996992  1
  Nd  Nd1  1  0.74999982  0.24999946  0.50001251  1
  Si  Si0  1  0.62501420  0.87500759  0.74999845  1
  Si  Si1  1  0.12498720  0.37499919  0.24999607  1
  Si  Si2  1  0.12499153  0.87498729  0.75001074  1
  Si  Si3  1  0.12501064  0.87499311  0.24998202  1
  Ni  Ni0  1  0.24999317  0.75003026  0.50000632  1
  Ni  Ni1  1  0.00000011  0.99997975  0.00000792  1
  Ni  Ni2  1  0.68833983  0.01677973  0.07853977  1
  Ni  Ni3  1  0.68841337  0.60992151  0.67157003  1
  Ni  Ni4  1  0.26676861  0.43832434  0.57853548  1
  Ni  Ni5  1  0.26683604  0.68831027  0.82842202  1
  Ni  Ni6  1  0.93825930  0.01681022  0.32840049  1
  Ni  Ni7  1  0.93836561  0.60991097  0.92152220  1
  Ni  Ni8  1  0.85990340  0.43838272  0.17157509  1
  Ni  Ni9  1  0.85992167  0.68837801  0.42152943  1
  Ni  Ni10  1  0.56167569  0.73323520  0.42147387  1
  Ni  Ni11  1  0.56157913  0.14007099  0.82842355  1
  Ni  Ni12  1  0.98318224  0.31163147  0.92146106  1
  Ni  Ni13  1  0.98319159  0.06172330  0.67158417  1
  Ni  Ni14  1  0.31175259  0.73321575  0.17159347  1
  Ni  Ni15  1  0.31164569  0.14009146  0.57848062  1
  Ni  Ni16  1  0.39005615  0.31156432  0.32842682  1
  Ni  Ni17  1  0.39011047  0.06165334  0.07847799  1
loop_
_geom_bond_atom_site_label_1
_geom_bond_atom_site_label_2
_geom_bond_distance
_geom_bond_site_symmetry_2
Nd0 Ni3 3.017094 1_555
Nd0 Ni2 3.017499 1_566
Nd0 Ni13 3.017532 1_455
Nd0 Ni16 3.017600 1_556
Nd0 Ni7 3.017621 1_555
Nd0 Ni6 3.017656 1_566
Nd0 Ni12 3.017734 1_455
Nd0 Ni17 3.017761 1_556
Nd0 Ni1 3.072021 1_656
Nd0 Ni1 3.072389 1_546
Nd0 Ni4 3.154687 1_555
Nd0 Ni10 3.155146 1_556
Nd0 Ni5 3.155213 1_555
Nd0 Ni15 3.155225 1_555
Nd0 Ni14 3.155308 1_556
Nd0 Ni11 3.155475 1_555
Nd0 Ni9 3.155644 1_556
Nd0 Ni8 3.155674 1_556
Nd1 Ni11 3.017207 1_555
Nd1 Ni8 3.017264 1_555
Nd1 Ni10 3.017454 1_545
Nd1 Ni4 3.017501 1_655
Nd1 Ni14 3.017526 1_545
Nd1 Ni15 3.017628 1_555
Nd1 Ni5 3.017716 1_655
Nd1 Ni9 3.017812 1_555
Nd1 Ni0 3.072112 1_545
Nd1 Ni0 3.072298 1_655
Nd1 Ni12 3.154798 1_555
Nd1 Ni2 3.154943 1_555
Nd1 Ni6 3.155183 1_555
Nd1 Ni13 3.155207 1_555
Nd1 Ni7 3.155334 1_555
Nd1 Ni17 3.155476 1_555
Nd1 Ni3 3.155509 1_555
Nd1 Ni16 3.155604 1_555
Ni0 Si2 2.550812 1_555
Ni0 Si3 2.550819 1_555
Ni0 Si1 2.551311 1_555
Ni0 Si0 2.551312 1_555
Ni0 Ni5 2.590832 1_555
Ni0 Ni14 2.590912 1_555
Ni0 Ni11 2.590922 1_565
Ni0 Ni15 2.590959 1_565
Ni0 Ni9 2.591043 1_455
Ni0 Ni8 2.591127 1_455
Ni0 Ni10 2.591616 1_555
Ni0 Ni4 2.591696 1_555
Ni1 Si3 2.550776 1_555
Ni1 Si2 2.550846 1_554
Ni1 Si0 2.551200 1_454
Ni1 Si1 2.551235 1_565
Ni1 Ni6 2.590712 1_465
Ni1 Ni13 2.590955 1_464
Ni1 Ni16 2.590980 1_565
Ni1 Ni3 2.591067 1_454
Ni1 Ni7 2.591100 1_454
Ni1 Ni17 2.591230 1_565
Ni1 Ni2 2.591473 1_465
Ni1 Ni12 2.591543 1_464
Ni2 Si1 2.313406 1_655
Ni2 Si0 2.354705 1_544
Ni2 Ni5 2.393847 1_544
Ni2 Ni8 2.393963 1_555
Ni2 Ni6 2.431464 1_555
Ni3 Si2 2.313042 1_655
Ni3 Si0 2.354466 1_555
Ni3 Ni9 2.393392 1_555
Ni3 Ni4 2.394159 1_555
Ni3 Ni7 2.432268 1_555
Ni4 Si0 2.313582 1_555
Ni4 Si1 2.354711 1_555
Ni4 Ni6 2.393936 1_455
Ni4 Ni5 2.431715 1_555
Ni5 Si0 2.312984 1_555
Ni5 Si2 2.354648 1_555
Ni5 Ni7 2.393775 1_455
Ni6 Si1 2.312945 1_655
Ni6 Si3 2.355015 1_645
Ni6 Ni9 2.393811 1_545
Ni7 Si2 2.312788 1_655
Ni7 Si3 2.354195 1_656
Ni7 Ni8 2.393561 1_556
Ni8 Si3 2.313225 1_655
Ni8 Si1 2.354354 1_655
Ni8 Ni9 2.432330 1_555
Ni9 Si3 2.313043 1_655
Ni9 Si2 2.354347 1_655
Ni10 Si1 2.313613 1_555
Ni10 Si0 2.354560 1_555
Ni10 Ni13 2.393873 1_565
Ni10 Ni16 2.394265 1_555
Ni10 Ni14 2.431631 1_555
Ni10 Ni6 2.484775 1_565
Ni10 Ni9 2.485846 1_555
Ni10 Ni4 2.536126 1_555
Ni10 Ni3 2.548583 1_555
Ni11 Si2 2.313108 1_545
Ni11 Si0 2.354521 1_545
Ni11 Ni17 2.393332 1_556
Ni11 Ni12 2.393980 1_555
Ni11 Ni15 2.432180 1_555
Ni11 Ni7 2.485959 1_555
Ni11 Ni8 2.486252 1_556
Ni11 Ni5 2.535161 1_545
Ni11 Ni2 2.548655 1_556
Ni12 Si0 2.313263 1_545
Ni12 Si1 2.354617 1_656
Ni12 Ni14 2.394203 1_656
Ni12 Ni13 2.431663 1_555
Ni12 Ni5 2.485146 1_655
Ni12 Ni7 2.485866 1_555
Ni12 Ni2 2.535879 1_556
Ni12 Ni8 2.548521 1_556
Ni13 Si0 2.312923 1_545
Ni13 Si2 2.354826 1_645
Ni13 Ni15 2.393767 1_655
Ni13 Ni4 2.484747 1_655
Ni13 Ni6 2.486058 1_555
Ni13 Ni3 2.535355 1_545
Ni13 Ni9 2.548564 1_545
Ni14 Si1 2.313068 1_555
Ni14 Si3 2.354644 1_555
Ni14 Ni17 2.393737 1_565
Ni14 Ni2 2.484689 1_565
Ni14 Ni5 2.485989 1_554
Ni14 Ni8 2.535605 1_455
Ni14 Ni7 2.548745 1_454
Ni15 Si2 2.313043 1_545
Ni15 Si3 2.354476 1_545
Ni15 Ni16 2.393350 1_555
Ni15 Ni4 2.485860 1_555
Ni15 Ni3 2.485903 1_555
Ni15 Ni9 2.535057 1_445
Ni15 Ni6 2.548863 1_455
Ni16 Si3 2.313012 1_545
Ni16 Si1 2.354573 1_555
Ni16 Ni17 2.432246 1_555
Ni16 Ni9 2.486105 1_555
Ni16 Ni3 2.486281 1_555
Ni16 Ni6 2.535296 1_455
Ni16 Ni4 2.548572 1_555
Ni17 Si3 2.312868 1_545
Ni17 Si2 2.354301 1_544
Ni17 Ni8 2.485683 1_555
Ni17 Ni2 2.485807 1_555
Ni17 Ni7 2.535196 1_444
Ni17 Ni5 2.548540 1_544
