# generated using pymatgen
data_Lu5(ReO6)2
_symmetry_space_group_name_H-M   'P 1'
_cell_length_a   6.64307688
_cell_length_b   6.64308659
_cell_length_c   7.32201306
_cell_angle_alpha   73.76456280
_cell_angle_beta   73.76457652
_cell_angle_gamma   49.41839899
_symmetry_Int_Tables_number   1
_chemical_formula_structural   Lu5(ReO6)2
_chemical_formula_sum   'Lu5 Re2 O12'
_cell_volume   233.49524868
_cell_formula_units_Z   1
loop_
 _symmetry_equiv_pos_site_id
 _symmetry_equiv_pos_as_xyz
  1  'x, y, z'
loop_
 _atom_site_type_symbol
 _atom_site_label
 _atom_site_symmetry_multiplicity
 _atom_site_fract_x
 _atom_site_fract_y
 _atom_site_fract_z
 _atom_site_occupancy
  Lu  Lu0  1  0.70108657  0.69611567  0.63937821  1
  Lu  Lu1  1  0.30388399  0.29891370  0.36062205  1
  Lu  Lu2  1  0.68546264  0.68567246  0.17992566  1
  Lu  Lu3  1  0.31432943  0.31453450  0.82007348  1
  Lu  Lu4  1  0.00138195  -0.00138179  0.49999949  1
  Re  Re0  1  0.78314108  0.21685901  -0.00000031  1
  Re  Re1  1  0.21413753  0.78586243  -0.00000009  1
  O  O0  1  0.00622756  0.00077331  0.21020130  1
  O  O1  1  -0.00077312  0.99377260  0.78979869  1
  O  O2  1  0.57171690  0.08751902  0.08910371  1
  O  O3  1  0.42069162  0.91396264  0.91025003  1
  O  O4  1  0.91248192  0.42828248  0.91089564  1
  O  O5  1  0.08603537  0.57931044  0.08975154  1
  O  O6  1  0.49807152  0.50122436  0.18394318  1
  O  O7  1  0.49877591  0.50192883  0.81605693  1
  O  O8  1  0.40588684  0.89948683  0.42993433  1
  O  O9  1  0.59481978  0.09786931  0.57226419  1
  O  O10  1  0.10051230  0.59411434  0.57006474  1
  O  O11  1  0.90213021  0.40517987  0.42773722  1
loop_
_geom_bond_atom_site_label_1
_geom_bond_atom_site_label_2
_geom_bond_distance
_geom_bond_site_symmetry_2
Lu0 O10 2.203943 1_655
Lu0 O9 2.207285 1_565
Lu0 O11 2.253787 1_555
Lu0 O8 2.258044 1_555
Lu0 O4 2.328630 1_555
Lu0 O7 2.343972 1_555
Lu0 O3 2.351492 1_555
Lu1 O8 2.203950 1_545
Lu1 O11 2.207283 1_455
Lu1 O9 2.253790 1_555
Lu1 O10 2.258044 1_555
Lu1 O2 2.328634 1_555
Lu1 O6 2.343976 1_555
Lu1 O5 2.351489 1_555
Lu2 O2 2.191653 1_565
Lu2 O5 2.201918 1_655
Lu2 O11 2.217308 1_555
Lu2 O8 2.222265 1_555
Lu2 O6 2.235130 1_555
Lu2 O4 2.438347 1_554
Lu2 O3 2.467714 1_554
Lu3 O4 2.191649 1_455
Lu3 O3 2.201917 1_545
Lu3 O9 2.217288 1_555
Lu3 O10 2.222275 1_555
Lu3 O7 2.235142 1_555
Lu3 O2 2.438339 1_556
Lu3 O5 2.467747 1_556
Lu4 O0 2.109300 1_555
Lu4 O1 2.109307 1_545
Lu4 O8 2.243520 1_545
Lu4 O10 2.243521 1_545
Lu4 O11 2.255719 1_455
Lu4 O9 2.255720 1_455
O0 Re1 1.946590 1_545
O0 Re0 1.974309 1_455
O1 Re1 1.946587 1_556
O1 Re0 1.974307 1_466
O2 Re0 1.969974 1_555
O3 Re1 1.934201 1_556
O4 Re0 1.969975 1_556
O5 Re1 1.934200 1_555
O6 Re1 2.074432 1_555
O6 Re0 2.076259 1_555
O7 Re1 2.074432 1_556
O7 Re0 2.076254 1_556
