# generated using pymatgen
data_Sm2BeGa2O7
_symmetry_space_group_name_H-M   'P 1'
_cell_length_a   5.20259300
_cell_length_b   7.67722700
_cell_length_c   7.67722700
_cell_angle_alpha   90.00000000
_cell_angle_beta   90.00000000
_cell_angle_gamma   90.00000000
_symmetry_Int_Tables_number   1
_chemical_formula_structural   Sm2BeGa2O7
_chemical_formula_sum   'Sm4 Be2 Ga4 O14'
_cell_volume   306.63986587
_cell_formula_units_Z   2
loop_
 _symmetry_equiv_pos_site_id
 _symmetry_equiv_pos_as_xyz
  1  'x, y, z'
loop_
 _atom_site_type_symbol
 _atom_site_label
 _atom_site_symmetry_multiplicity
 _atom_site_fract_x
 _atom_site_fract_y
 _atom_site_fract_z
 _atom_site_occupancy
  Sm  Sm0  1  0.51921800  0.16603300  0.66603300  1
  Sm  Sm1  1  0.51921800  0.83396700  0.33396700  1
  Sm  Sm2  1  0.48078200  0.66603300  0.83396700  1
  Sm  Sm3  1  0.48078200  0.33396700  0.16603300  1
  Be  Be0  1  0.00000000  0.00000000  0.00000000  1
  Be  Be1  1  0.00000000  0.50000000  0.50000000  1
  Ga  Ga0  1  0.97193100  0.65128100  0.15128100  1
  Ga  Ga1  1  0.97193100  0.34871900  0.84871900  1
  Ga  Ga2  1  0.02806900  0.15128100  0.34871900  1
  Ga  Ga3  1  0.02806900  0.84871900  0.65128100  1
  O  O0  1  0.19933200  0.00000000  0.50000000  1
  O  O1  1  0.80066800  0.50000000  0.00000000  1
  O  O2  1  0.32347200  0.63505700  0.13505700  1
  O  O3  1  0.32347200  0.36494300  0.86494300  1
  O  O4  1  0.67652800  0.13505700  0.36494300  1
  O  O5  1  0.67652800  0.86494300  0.63505700  1
  O  O6  1  0.19511900  0.09443900  0.14291300  1
  O  O7  1  0.19511900  0.90556100  0.85708700  1
  O  O8  1  0.80488100  0.14291300  0.90556100  1
  O  O9  1  0.80488100  0.40556100  0.64291300  1
  O  O10  1  0.80488100  0.85708700  0.09443900  1
  O  O11  1  0.80488100  0.59443900  0.35708700  1
  O  O12  1  0.19511900  0.35708700  0.40556100  1
  O  O13  1  0.19511900  0.64291300  0.59443900  1
loop_
_geom_bond_atom_site_label_1
_geom_bond_atom_site_label_2
_geom_bond_distance
_geom_bond_site_symmetry_2
Be0 O6 1.661307 1_555
Be0 O8 1.661307 1_454
Be0 O10 1.661307 1_445
Be0 O7 1.661307 1_544
Be1 O13 1.661307 1_555
Be1 O11 1.661307 1_455
Be1 O9 1.661307 1_455
Be1 O12 1.661307 1_555
Ga0 O2 1.837388 1_655
Ga0 O10 1.855322 1_555
Ga0 O11 1.855322 1_555
Ga0 O1 1.868606 1_555
Ga1 O3 1.837388 1_655
Ga1 O9 1.855322 1_555
Ga1 O8 1.855322 1_555
Ga1 O1 1.868606 1_556
Ga2 O4 1.837388 1_455
Ga2 O12 1.855322 1_555
Ga2 O6 1.855322 1_555
Ga2 O0 1.868606 1_555
Ga3 O5 1.837388 1_455
Ga3 O7 1.855322 1_555
Ga3 O13 1.855322 1_555
Ga3 O0 1.868606 1_565
O0 Sm0 2.453419 1_555
O0 Sm1 2.453419 1_545
O1 Sm2 2.453419 1_554
O1 Sm3 2.453419 1_555
O2 Sm1 2.387685 1_555
O2 Sm2 2.463649 1_554
O2 Sm3 2.463649 1_555
O3 Sm0 2.387685 1_555
O3 Sm2 2.463649 1_555
O3 Sm3 2.463649 1_556
O4 Sm3 2.387685 1_555
O4 Sm1 2.463649 1_545
O4 Sm0 2.463649 1_555
O5 Sm2 2.387685 1_555
O5 Sm1 2.463649 1_555
O5 Sm0 2.463649 1_565
O6 Sm3 2.371045 1_555
O6 Sm1 2.998888 1_545
O7 Sm2 2.371045 1_555
O7 Sm0 2.998888 1_565
O8 Sm0 2.371045 1_555
O8 Sm3 2.998888 1_556
O9 Sm0 2.371045 1_555
O9 Sm2 2.998888 1_555
O10 Sm1 2.371045 1_555
O10 Sm2 2.998888 1_554
O11 Sm1 2.371045 1_555
O11 Sm3 2.998888 1_555
O12 Sm3 2.371045 1_555
O12 Sm0 2.998888 1_555
O13 Sm2 2.371045 1_555
O13 Sm1 2.998888 1_555
