# generated using pymatgen
data_Pr16Re25B24
_symmetry_space_group_name_H-M   'P 1'
_cell_length_a   7.95000057
_cell_length_b   7.95000057
_cell_length_c   15.89962372
_cell_angle_alpha   84.86631624
_cell_angle_beta   84.86631624
_cell_angle_gamma   84.77487419
_symmetry_Int_Tables_number   1
_chemical_formula_structural   Pr16Re25B24
_chemical_formula_sum   'Pr16 Re25 B24'
_cell_volume   993.34954978
_cell_formula_units_Z   1
loop_
 _symmetry_equiv_pos_site_id
 _symmetry_equiv_pos_as_xyz
  1  'x, y, z'
loop_
 _atom_site_type_symbol
 _atom_site_label
 _atom_site_symmetry_multiplicity
 _atom_site_fract_x
 _atom_site_fract_y
 _atom_site_fract_z
 _atom_site_occupancy
  Pr  Pr0  1  0.18477200  0.18477200  0.35022000  1
  Pr  Pr1  1  0.18946000  0.18946000  0.84583500  1
  Pr  Pr2  1  0.18767400  0.68966000  0.09431200  1
  Pr  Pr3  1  0.18521200  0.70109600  0.59207800  1
  Pr  Pr4  1  0.68966000  0.18767400  0.09431200  1
  Pr  Pr5  1  0.70109600  0.18521200  0.59207800  1
  Pr  Pr6  1  0.81054000  0.81054000  0.15416500  1
  Pr  Pr7  1  0.81522800  0.81522800  0.64978000  1
  Pr  Pr8  1  0.81478800  0.29890400  0.40792200  1
  Pr  Pr9  1  0.81232600  0.31034000  0.90568800  1
  Pr  Pr10  1  0.29890400  0.81478800  0.40792200  1
  Pr  Pr11  1  0.31034000  0.81232600  0.90568800  1
  Pr  Pr12  1  0.64127300  0.64127300  0.32059300  1
  Pr  Pr13  1  0.64238200  0.64238200  0.82130000  1
  Pr  Pr14  1  0.35761800  0.35761800  0.17870000  1
  Pr  Pr15  1  0.35872700  0.35872700  0.67940700  1
  Re  Re0  1  0.06632800  0.59222600  0.29751000  1
  Re  Re1  1  0.06597000  0.59731300  0.79769100  1
  Re  Re2  1  0.59605500  0.59605500  0.03254400  1
  Re  Re3  1  0.59437400  0.59437400  0.53309200  1
  Re  Re4  1  0.59222600  0.06632800  0.29751000  1
  Re  Re5  1  0.59731300  0.06597000  0.79769100  1
  Re  Re6  1  0.93403000  0.40268700  0.20230900  1
  Re  Re7  1  0.93367200  0.40777400  0.70249000  1
  Re  Re8  1  0.40562600  0.40562600  0.46690800  1
  Re  Re9  1  0.40394500  0.40394500  0.96745600  1
  Re  Re10  1  0.40268700  0.93403000  0.20230900  1
  Re  Re11  1  0.40777400  0.93367200  0.70249000  1
  Re  Re12  1  0.91237000  0.91237000  0.33165300  1
  Re  Re13  1  0.92203700  0.92203700  0.83454900  1
  Re  Re14  1  0.91293300  0.66296000  0.45609500  1
  Re  Re15  1  0.92075800  0.67120000  0.96036000  1
  Re  Re16  1  0.66296000  0.91293300  0.45609500  1
  Re  Re17  1  0.67120000  0.92075800  0.96036000  1
  Re  Re18  1  0.07796300  0.07796300  0.16545100  1
  Re  Re19  1  0.08763000  0.08763000  0.66834700  1
  Re  Re20  1  0.07924200  0.32880000  0.03964000  1
  Re  Re21  1  0.08706700  0.33704000  0.54390500  1
  Re  Re22  1  0.32880000  0.07924200  0.03964000  1
  Re  Re23  1  0.33704000  0.08706700  0.54390500  1
  Re  Re24  1  0.00000000  0.00000000  0.00000000  1
  B  B0  1  0.84709100  0.15027700  0.25052200  1
  B  B1  1  0.84972300  0.15290900  0.74947800  1
  B  B2  1  0.15207500  0.49953400  0.42454200  1
  B  B3  1  0.15068200  0.49968900  0.92406500  1
  B  B4  1  0.50031100  0.84931800  0.07593500  1
  B  B5  1  0.50046600  0.84792500  0.57545800  1
  B  B6  1  0.84931800  0.50031100  0.07593500  1
  B  B7  1  0.84792500  0.50046600  0.57545800  1
  B  B8  1  0.49953400  0.15207500  0.42454200  1
  B  B9  1  0.49968900  0.15068200  0.92406500  1
  B  B10  1  0.15027700  0.84709100  0.25052200  1
  B  B11  1  0.15290900  0.84972300  0.74947800  1
  B  B12  1  0.50107700  0.67385900  0.16338200  1
  B  B13  1  0.49913100  0.67292200  0.66322900  1
  B  B14  1  0.67388800  0.32644000  0.25126600  1
  B  B15  1  0.67356000  0.32611200  0.74873400  1
  B  B16  1  0.32707800  0.50086900  0.33677100  1
  B  B17  1  0.32614100  0.49892300  0.83661800  1
  B  B18  1  0.50086900  0.32707800  0.33677100  1
  B  B19  1  0.49892300  0.32614100  0.83661800  1
  B  B20  1  0.32644000  0.67388800  0.25126600  1
  B  B21  1  0.32611200  0.67356000  0.74873400  1
  B  B22  1  0.67385900  0.50107700  0.16338200  1
  B  B23  1  0.67292200  0.49913100  0.66322900  1
loop_
_geom_bond_atom_site_label_1
_geom_bond_atom_site_label_2
_geom_bond_distance
_geom_bond_site_symmetry_2
Pr0 Pr14 3.196278 1_555
Pr1 Re24 3.104403 1_556
Pr1 Pr15 3.111120 1_555
Pr1 Pr9 3.153837 1_455
Pr1 Pr11 3.153837 1_545
Pr1 Re13 3.167311 1_445
Pr1 Re19 3.195533 1_555
Pr1 Re5 3.342702 1_555
Pr1 Re1 3.342702 1_555
Pr1 Re22 3.382450 1_556
Pr1 Re20 3.382450 1_556
Pr1 Re11 3.438110 1_545
Pr1 Re7 3.438110 1_455
Pr2 Re24 3.103158 1_565
Pr2 Pr6 3.153837 1_455
Pr2 Re15 3.159395 1_454
Pr2 Re20 3.280209 1_555
Pr2 Re0 3.331519 1_555
Pr2 Re2 3.343502 1_555
Pr2 Re18 3.395235 1_565
Pr2 Re22 3.403450 1_565
Pr2 Re9 3.416385 1_554
Pr2 Re6 3.425897 1_455
Pr4 Re24 3.103158 1_655
Pr4 Pr6 3.153837 1_545
Pr4 Re17 3.159395 1_544
Pr4 Pr9 3.165871 1_554
Pr4 Re22 3.280209 1_555
Pr4 Re4 3.331519 1_555
Pr4 Re2 3.343502 1_555
Pr4 Re18 3.395235 1_655
Pr4 Re20 3.403450 1_655
Pr4 Re9 3.416385 1_554
Pr4 Re10 3.425897 1_545
Pr6 Re24 3.104403 1_665
Pr6 Re18 3.167311 1_665
Pr6 Re12 3.195533 1_555
Pr6 Re6 3.342702 1_555
Pr6 Re10 3.342702 1_555
Pr6 Re15 3.382450 1_554
Pr6 Re17 3.382450 1_554
Pr6 Re0 3.438110 1_655
Pr6 Re4 3.438110 1_565
Pr9 Re24 3.103158 1_656
Pr9 Re20 3.159395 1_656
Pr9 Re15 3.280209 1_555
Pr9 Re7 3.331519 1_555
Pr9 Re9 3.343502 1_555
Pr9 Re13 3.395235 1_545
Pr9 Re17 3.403450 1_545
Pr9 Re2 3.416385 1_556
Pr9 Re1 3.425897 1_655
Pr10 Pr12 3.197147 1_555
Pr11 Re24 3.103158 1_566
Pr11 Pr13 3.103995 1_555
Pr11 Re22 3.159395 1_566
Pr11 Pr2 3.165871 1_556
Pr11 Re17 3.280209 1_555
Pr11 Re11 3.331519 1_555
Pr11 Re9 3.343502 1_555
Pr11 Re13 3.395235 1_455
Pr11 Re15 3.403450 1_455
Pr11 Re2 3.416385 1_556
Pr11 Re5 3.425897 1_565
Pr12 Pr6 3.111120 1_555
Pr12 Pr8 3.197147 1_555
Pr12 Re12 3.209760 1_555
Pr12 Re14 3.209762 1_555
Pr12 Re16 3.209762 1_555
Pr12 Re3 3.356751 1_555
Pr12 Re0 3.356981 1_655
Pr12 Re4 3.356981 1_565
Pr12 Re8 3.392711 1_555
Pr12 Re6 3.406243 1_555
Pr12 Re10 3.406243 1_555
Pr13 Pr9 3.103995 1_555
Pr13 Pr7 3.196278 1_555
Pr13 Re17 3.301130 1_555
Pr13 Re15 3.301130 1_555
Pr13 Re13 3.316329 1_555
Pr13 Re2 3.336782 1_556
Pr13 Re1 3.344786 1_655
Pr13 Re5 3.344786 1_565
Pr13 Re7 3.386867 1_555
Pr13 Re11 3.386867 1_555
Pr13 Re9 3.415318 1_555
Pr14 Pr4 3.103995 1_555
Pr14 Pr2 3.103995 1_555
Pr14 Re20 3.301130 1_555
Pr14 Re22 3.301130 1_555
Pr14 Re18 3.316329 1_555
Pr14 Re9 3.336782 1_554
Pr14 Re10 3.344786 1_545
Pr14 Re6 3.344786 1_455
Pr14 Re4 3.386867 1_555
Pr14 Re0 3.386867 1_555
Pr14 Re2 3.415318 1_555
Pr15 Pr5 3.197147 1_555
Pr15 Pr3 3.197147 1_555
Pr15 Re19 3.209760 1_555
Pr15 Re21 3.209762 1_555
Pr15 Re23 3.209762 1_555
Pr15 Re8 3.356751 1_555
Pr15 Re7 3.356981 1_455
Pr15 Re11 3.356981 1_545
Pr15 Re3 3.392711 1_555
Pr15 Re5 3.406243 1_555
Pr15 Re1 3.406243 1_555
Re13 Re24 2.888246 1_666
Re15 Re24 2.879706 1_666
Re17 Re24 2.879706 1_666
Re18 Re24 2.888246 1_555
Re20 Re24 2.879706 1_555
Re22 Re24 2.879706 1_555
B0 B14 1.872529 1_555
B0 Re6 2.230366 1_555
B0 Re4 2.234977 1_555
B0 Re12 2.239410 1_545
B0 Re18 2.243105 1_655
B0 Pr8 2.843239 1_555
B0 Pr4 2.860049 1_555
B0 Pr6 3.269500 1_545
B0 Pr0 3.281504 1_655
B1 B15 1.872529 1_555
B1 Re5 2.230366 1_555
B1 Re7 2.234977 1_555
B1 Re19 2.239410 1_655
B1 Re13 2.243105 1_545
B1 Pr5 2.843239 1_555
B1 Pr9 2.860049 1_555
B1 Pr1 3.269500 1_655
B1 Pr7 3.281504 1_545
B2 Re8 2.225573 1_555
B2 Re0 2.230629 1_555
B2 Re21 2.246105 1_555
B2 Re14 2.247274 1_455
B2 Pr10 2.841287 1_555
B2 Pr0 2.842798 1_555
B2 Pr3 3.270949 1_555
B2 Pr8 3.284080 1_455
B3 Re1 2.227346 1_555
B3 Re9 2.232656 1_555
B3 Re15 2.243095 1_455
B3 Re20 2.247673 1_556
B3 Pr1 2.840205 1_555
B3 Pr11 2.872673 1_555
B3 Pr9 3.247151 1_455
B3 Pr2 3.263353 1_556
B4 Re10 2.227346 1_555
B4 Re2 2.232656 1_555
B4 Re22 2.243095 1_565
B4 Re17 2.247673 1_554
B4 Pr6 2.840205 1_555
B4 Pr2 2.872673 1_555
B4 Pr4 3.247151 1_565
B4 Pr11 3.263353 1_554
B5 Re3 2.225573 1_555
B5 Re11 2.230629 1_555
B5 Re16 2.246105 1_555
B5 Re23 2.247274 1_565
B5 Pr3 2.841287 1_555
B5 Pr7 2.842798 1_555
B5 Pr10 3.270949 1_555
B5 Pr5 3.284080 1_565
B6 Re6 2.227346 1_555
B6 Re2 2.232656 1_555
B6 Re20 2.243095 1_655
B6 Re15 2.247673 1_554
B6 Pr6 2.840205 1_555
B6 Pr4 2.872673 1_555
B6 Pr2 3.247151 1_655
B6 Pr9 3.263353 1_554
B7 Re3 2.225573 1_555
B7 Re7 2.230629 1_555
B7 Re14 2.246105 1_555
B7 Re21 2.247274 1_655
B7 Pr5 2.841287 1_555
B7 Pr7 2.842798 1_555
B7 Pr8 3.270949 1_555
B7 Pr3 3.284080 1_655
B8 Re8 2.225573 1_555
B8 Re4 2.230629 1_555
B8 Re23 2.246105 1_555
B8 Re16 2.247274 1_545
B8 Pr8 2.841287 1_555
B8 Pr0 2.842798 1_555
B8 Pr5 3.270949 1_555
B8 Pr10 3.284080 1_545
B9 Re5 2.227346 1_555
B9 Re9 2.232656 1_555
B9 Re17 2.243095 1_545
B9 Re22 2.247673 1_556
B9 Pr1 2.840205 1_555
B9 Pr9 2.872673 1_555
B9 Pr11 3.247151 1_545
B9 Pr4 3.263353 1_556
B10 B20 1.872529 1_555
B10 Re10 2.230366 1_555
B10 Re0 2.234977 1_555
B10 Re12 2.239410 1_455
B10 Re18 2.243105 1_565
B10 Pr10 2.843239 1_555
B10 Pr2 2.860049 1_555
B10 Pr6 3.269500 1_455
B10 Pr0 3.281504 1_565
B11 B21 1.872529 1_555
B11 Re1 2.230366 1_555
B11 Re11 2.234977 1_555
B11 Re19 2.239410 1_565
B11 Re13 2.243105 1_455
B11 Pr3 2.843239 1_555
B11 Pr11 2.860049 1_555
B11 Pr1 3.269500 1_565
B11 Pr7 3.281504 1_455
B12 B22 1.852022 1_555
B12 B4 1.879311 1_555
B12 B20 1.879597 1_555
B12 Re10 2.262918 1_555
B12 Re2 2.268123 1_555
B12 Pr6 2.765653 1_555
B12 Pr2 2.799573 1_555
B12 Pr12 2.808457 1_555
B12 Pr14 2.836159 1_555
B13 B21 1.845419 1_555
B13 B23 1.862837 1_555
B13 B5 1.880379 1_555
B13 Re11 2.256226 1_555
B13 Re3 2.260376 1_555
B13 Pr15 2.809415 1_555
B13 Pr3 2.813600 1_555
B13 Pr7 2.831788 1_555
B13 Pr13 2.832861 1_555
B14 B18 1.845419 1_555
B14 B22 1.879597 1_555
B14 Re6 2.259711 1_555
B14 Re4 2.263903 1_555
B14 Pr8 2.804225 1_555
B14 Pr12 2.805573 1_555
B14 Pr4 2.805674 1_555
B14 Pr14 2.840605 1_555
B15 B23 1.845419 1_555
B15 B19 1.879597 1_555
B15 Re5 2.259711 1_555
B15 Re7 2.263903 1_555
B15 Pr5 2.804225 1_555
B15 Pr15 2.805573 1_555
B15 Pr9 2.805674 1_555
B15 Pr13 2.840605 1_555
B16 B20 1.845419 1_555
B16 B18 1.862837 1_555
B16 B2 1.880379 1_555
B16 Re0 2.256226 1_555
B16 Re8 2.260376 1_555
B16 Pr12 2.809415 1_555
B16 Pr10 2.813600 1_555
B16 Pr0 2.831788 1_555
B16 Pr14 2.832861 1_555
B17 B19 1.852022 1_555
B17 B3 1.879311 1_555
B17 B21 1.879597 1_555
B17 Re1 2.262918 1_555
B17 Re9 2.268123 1_555
B17 Pr1 2.765653 1_555
B17 Pr11 2.799573 1_555
B17 Pr15 2.808457 1_555
B17 Pr13 2.836159 1_555
B18 B8 1.880379 1_555
B18 Re4 2.256226 1_555
B18 Re8 2.260376 1_555
B18 Pr12 2.809415 1_555
B18 Pr8 2.813600 1_555
B18 Pr0 2.831788 1_555
B18 Pr14 2.832861 1_555
B19 B9 1.879311 1_555
B19 Re5 2.262918 1_555
B19 Re9 2.268123 1_555
B19 Pr1 2.765653 1_555
B19 Pr9 2.799573 1_555
B19 Pr15 2.808457 1_555
B19 Pr13 2.836159 1_555
B20 Re10 2.259711 1_555
B20 Re0 2.263903 1_555
B20 Pr10 2.804225 1_555
B20 Pr12 2.805573 1_555
B20 Pr2 2.805674 1_555
B20 Pr14 2.840605 1_555
B21 Re1 2.259711 1_555
B21 Re11 2.263903 1_555
B21 Pr3 2.804225 1_555
B21 Pr15 2.805573 1_555
B21 Pr11 2.805674 1_555
B21 Pr13 2.840605 1_555
B22 B6 1.879311 1_555
B22 Re6 2.262918 1_555
B22 Re2 2.268123 1_555
B22 Pr6 2.765653 1_555
B22 Pr4 2.799573 1_555
B22 Pr12 2.808457 1_555
B22 Pr14 2.836159 1_555
B23 B7 1.880379 1_555
B23 Re7 2.256226 1_555
B23 Re3 2.260376 1_555
B23 Pr15 2.809415 1_555
B23 Pr5 2.813600 1_555
B23 Pr7 2.831788 1_555
B23 Pr13 2.832861 1_555
