# generated using pymatgen
data_SrCa7Mn7CrO21
_symmetry_space_group_name_H-M   'P 1'
_cell_length_a   7.79087255
_cell_length_b   7.75692572
_cell_length_c   7.77485274
_cell_angle_alpha   90.16553593
_cell_angle_beta   89.37986777
_cell_angle_gamma   90.03951141
_symmetry_Int_Tables_number   1
_chemical_formula_structural   SrCa7Mn7CrO21
_chemical_formula_sum   'Sr1 Ca7 Mn7 Cr1 O21'
_cell_volume   469.82980008
_cell_formula_units_Z   1
loop_
 _symmetry_equiv_pos_site_id
 _symmetry_equiv_pos_as_xyz
  1  'x, y, z'
loop_
 _atom_site_type_symbol
 _atom_site_label
 _atom_site_symmetry_multiplicity
 _atom_site_fract_x
 _atom_site_fract_y
 _atom_site_fract_z
 _atom_site_occupancy
  Sr  Sr0  1  0.24593900  0.24793500  0.24433800  1
  Ca  Ca0  1  0.28380100  0.24874900  0.72279300  1
  Ca  Ca1  1  0.23754700  0.73493500  0.22722100  1
  Ca  Ca2  1  0.28575200  0.74911300  0.70873400  1
  Ca  Ca3  1  0.75754100  0.25879700  0.28799700  1
  Ca  Ca4  1  0.74829200  0.26486400  0.73898300  1
  Ca  Ca5  1  0.72657800  0.73912100  0.25382700  1
  Ca  Ca6  1  0.76150100  0.75056500  0.70394300  1
  Mn  Mn0  1  0.00342100  0.99982900  0.51206400  1
  Mn  Mn1  1  0.98547800  0.50344600  0.01472500  1
  Mn  Mn2  1  0.00559100  0.50106600  0.50626500  1
  Mn  Mn3  1  0.49938700  0.99822400  0.98715300  1
  Mn  Mn4  1  0.51068200  0.99934300  0.47980000  1
  Mn  Mn5  1  0.50354200  0.50415100  0.98517800  1
  Mn  Mn6  1  0.50591500  0.50506900  0.50659700  1
  Cr  Cr0  1  0.00757900  0.99058600  0.98247400  1
  O  O0  1  0.92366800  0.00604000  0.77111000  1
  O  O1  1  0.04147700  0.49932000  0.26042500  1
  O  O2  1  0.94997200  0.49941800  0.76637600  1
  O  O3  1  0.52206700  0.05724200  0.22836500  1
  O  O4  1  0.52495400  0.95332300  0.73830500  1
  O  O5  1  0.53249900  0.55607500  0.74444900  1
  O  O6  1  0.23718700  0.97531800  0.98067500  1
  O  O7  1  0.25450900  0.03108700  0.50355300  1
  O  O8  1  0.24967700  0.51012300  0.99375300  1
  O  O9  1  0.25971700  0.47139200  0.52903200  1
  O  O10  1  0.76181200  0.96434800  0.45463800  1
  O  O11  1  0.73206600  0.47704100  0.07104900  1
  O  O12  1  0.75008300  0.52964000  0.46554900  1
  O  O13  1  0.96605100  0.18852700  0.09085200  1
  O  O14  1  0.97226600  0.24886600  0.50466500  1
  O  O15  1  0.95550400  0.78677000  0.07583300  1
  O  O16  1  0.04186100  0.75217000  0.51601700  1
  O  O17  1  0.49492700  0.25119600  0.93602500  1
  O  O18  1  0.53587200  0.25947200  0.52227100  1
  O  O19  1  0.50974300  0.74782200  0.05012200  1
  O  O20  1  0.46553900  0.73901900  0.43484200  1
loop_
_geom_bond_atom_site_label_1
_geom_bond_atom_site_label_2
_geom_bond_distance
_geom_bond_site_symmetry_2
Ca0 O9 2.304095 1_555
Ca0 O17 2.348014 1_555
Ca0 O7 2.408218 1_555
Ca0 O18 2.495688 1_555
Ca0 O8 2.929724 1_555
Ca1 O1 2.393890 1_555
Ca1 O20 2.413193 1_555
Ca1 O8 2.514566 1_554
Ca1 O19 2.518001 1_555
Ca1 O15 2.536804 1_455
Ca1 O6 2.678057 1_554
Ca1 O16 2.703368 1_555
Ca2 O16 2.432688 1_555
Ca2 O5 2.456157 1_555
Ca2 O4 2.457259 1_555
Ca2 O20 2.537193 1_555
Ca2 O9 2.573358 1_555
Ca2 O7 2.723499 1_565
Ca2 O6 2.766660 1_555
Ca2 O8 2.904441 1_555
Ca3 O13 2.286464 1_555
Ca3 O14 2.388345 1_555
Ca3 O11 2.403041 1_555
Ca3 O3 2.456655 1_555
Ca3 O18 2.496411 1_555
Ca3 O12 2.510873 1_555
Ca3 O10 2.629561 1_545
Ca3 O1 2.899421 1_655
Ca4 O18 2.374726 1_555
Ca4 O2 2.413622 1_555
Ca4 O0 2.444196 1_555
Ca4 O17 2.487929 1_555
Ca4 O14 2.511842 1_555
Ca5 O15 2.276255 1_555
Ca5 O12 2.325078 1_555
Ca5 O19 2.329258 1_555
Ca5 O10 2.357550 1_555
Ca5 O20 2.460640 1_555
Ca5 O11 2.477138 1_555
Ca6 O5 2.354817 1_555
Ca6 O0 2.408512 1_565
Ca6 O4 2.435616 1_555
Ca6 O2 2.492333 1_555
Ca6 O12 2.522908 1_555
Ca6 O10 2.554500 1_555
Ca6 O16 2.614745 1_655
Mn0 O16 1.944862 1_555
Mn0 O14 1.948209 1_465
Mn0 O10 1.958336 1_455
Mn0 O7 1.971421 1_565
Mn0 O0 2.101704 1_465
Mn1 O2 1.953710 1_554
Mn1 O1 1.964422 1_655
Mn1 O11 2.028010 1_555
Mn1 O8 2.063655 1_654
Mn1 O15 2.258876 1_555
Mn1 O13 2.519210 1_555
Mn2 O1 1.928723 1_555
Mn2 O16 1.969354 1_555
Mn2 O14 1.973294 1_455
Mn2 O9 2.003153 1_555
Mn2 O12 2.031404 1_455
Mn2 O2 2.063710 1_455
Mn3 O3 1.939067 1_566
Mn3 O4 1.972848 1_555
Mn3 O17 2.003668 1_565
Mn3 O19 2.006360 1_556
Mn3 O6 2.051506 1_555
Mn4 O10 1.982946 1_555
Mn4 O3 2.008073 1_565
Mn4 O7 2.017532 1_565
Mn4 O4 2.046529 1_555
Mn4 O18 2.053309 1_565
Mn4 O20 2.078727 1_555
Mn5 O11 1.920116 1_556
Mn5 O5 1.926452 1_555
Mn5 O19 1.955709 1_556
Mn5 O8 1.978802 1_555
Mn5 O17 1.999159 1_555
Mn6 O5 1.903461 1_555
Mn6 O18 1.923854 1_555
Mn6 O20 1.927142 1_555
Mn6 O12 1.934829 1_555
Mn6 O9 1.941673 1_555
Cr0 O13 1.777497 1_466
Cr0 O0 1.779539 1_465
Cr0 O15 1.786155 1_456
Cr0 O6 1.792745 1_555
O1 Sr0 2.520725 1_555
O3 Sr0 2.613230 1_555
O6 Sr0 2.942195 1_566
O7 Sr0 2.630239 1_555
O8 Sr0 2.820353 1_556
O9 Sr0 2.810353 1_555
O13 Sr0 2.538317 1_655
O14 Sr0 2.923908 1_655
O17 Sr0 3.067451 1_556
O18 Sr0 3.143887 1_555
