# generated using pymatgen
data_SmV2Fe10N
_symmetry_space_group_name_H-M   'P 1'
_cell_length_a   6.46546178
_cell_length_b   6.46546178
_cell_length_c   6.46546178
_cell_angle_alpha   136.70641252
_cell_angle_beta   98.26303125
_cell_angle_gamma   97.37903848
_symmetry_Int_Tables_number   1
_chemical_formula_structural   SmV2Fe10N
_chemical_formula_sum   'Sm1 V2 Fe10 N1'
_cell_volume   172.25709952
_cell_formula_units_Z   1
loop_
 _symmetry_equiv_pos_site_id
 _symmetry_equiv_pos_as_xyz
  1  'x, y, z'
loop_
 _atom_site_type_symbol
 _atom_site_label
 _atom_site_symmetry_multiplicity
 _atom_site_fract_x
 _atom_site_fract_y
 _atom_site_fract_z
 _atom_site_occupancy
  Sm  Sm0  1  0.00000000  0.00000000  0.00000000  1
  V  V0  1  0.63982700  0.00000000  0.63982700  1
  V  V1  1  0.36017300  0.00000000  0.36017300  1
  Fe  Fe0  1  0.77200300  0.27200300  0.50000000  1
  Fe  Fe1  1  0.22799700  0.72799700  0.50000000  1
  Fe  Fe2  1  0.22298300  0.50000000  0.72298300  1
  Fe  Fe3  1  0.77701700  0.50000000  0.27701700  1
  Fe  Fe4  1  0.50000000  0.00000000  0.00000000  1
  Fe  Fe5  1  0.50000000  0.50000000  0.50000000  1
  Fe  Fe6  1  0.00000000  0.00000000  0.50000000  1
  Fe  Fe7  1  0.00000000  0.50000000  0.00000000  1
  Fe  Fe8  1  0.37127400  0.37127400  0.00000000  1
  Fe  Fe9  1  0.62872600  0.62872600  0.00000000  1
  N  N0  1  0.00000000  0.50000000  0.50000000  1
loop_
_geom_bond_atom_site_label_1
_geom_bond_atom_site_label_2
_geom_bond_distance
_geom_bond_site_symmetry_2
Sm0 V1 3.047433 1_555
Sm0 V0 3.047433 1_454
V0 V1 2.366160 1_555
Fe0 N0 1.946230 1_655
Fe0 Fe7 2.435498 1_656
Fe0 Fe6 2.435498 1_655
Fe0 Fe4 2.435498 1_555
Fe0 Fe5 2.435498 1_555
Fe0 V0 2.605912 1_555
Fe0 V1 2.605912 1_555
Fe0 Fe9 2.680313 1_556
Fe0 Fe9 2.680313 1_545
Fe1 N0 1.946230 1_555
Fe1 Fe6 2.435498 1_565
Fe1 Fe7 2.435498 1_555
Fe1 Fe4 2.435498 1_566
Fe1 Fe5 2.435498 1_555
Fe1 V0 2.605912 1_565
Fe1 V1 2.605912 1_565
Fe1 Fe8 2.680313 1_566
Fe1 Fe8 2.680313 1_555
Fe2 N0 1.886665 1_555
Fe2 Fe5 2.455299 1_555
Fe2 Fe4 2.455299 1_566
Fe2 Fe6 2.455299 1_555
Fe2 Fe7 2.455299 1_556
Fe2 Fe9 2.588640 1_556
Fe2 Fe8 2.588640 1_556
Fe2 V1 2.652476 1_555
Fe2 V1 2.652476 1_566
Fe3 N0 1.886665 1_655
Fe3 Fe4 2.455299 1_555
Fe3 Fe5 2.455299 1_555
Fe3 Fe6 2.455299 1_665
Fe3 Fe7 2.455299 1_655
Fe3 Fe8 2.588640 1_555
Fe3 Fe9 2.588640 1_555
Fe3 V0 2.652476 1_565
Fe3 V0 2.652476 1_554
Fe4 Fe5 2.385004 1_555
Fe4 Fe5 2.385004 1_544
Fe4 V1 2.616332 1_555
Fe4 V0 2.616332 1_554
Fe4 Fe9 2.639707 1_545
Fe4 Fe8 2.639707 1_555
Fe4 Sm0 3.232731 1_555
Fe4 Sm0 3.232731 1_655
Fe5 V1 2.616332 1_555
Fe5 V0 2.616332 1_565
Fe5 Fe8 2.639707 1_555
Fe5 Fe9 2.639707 1_556
Fe5 Sm0 3.232731 1_555
Fe5 Sm0 3.232731 1_666
Fe6 Fe7 2.385004 1_545
Fe6 Fe7 2.385004 1_556
Fe6 V1 2.616332 1_555
Fe6 V0 2.616332 1_455
Fe6 Fe8 2.639707 1_556
Fe6 Fe9 2.639707 1_445
Fe6 Sm0 3.232731 1_556
Fe6 Sm0 3.232731 1_555
Fe7 V1 2.616332 1_565
Fe7 V0 2.616332 1_454
Fe7 Fe9 2.639707 1_455
Fe7 Fe8 2.639707 1_555
Fe7 Sm0 3.232731 1_555
Fe7 Sm0 3.232731 1_565
Fe8 Fe9 2.197664 1_555
Fe8 V0 2.880166 1_554
Fe8 V0 2.880166 1_565
Fe8 V1 2.880166 1_554
Fe8 V1 2.880166 1_565
Fe8 Sm0 3.169272 1_555
Fe9 V0 2.880166 1_554
Fe9 V0 2.880166 1_565
Fe9 V1 2.880166 1_554
Fe9 V1 2.880166 1_565
Fe9 Sm0 3.169272 1_665
N0 Sm0 2.385004 1_566
N0 Sm0 2.385004 1_555
