# generated using pymatgen
data_Al(FeS2)2
_symmetry_space_group_name_H-M   'P 1'
_cell_length_a   6.87838352
_cell_length_b   6.87838352
_cell_length_c   6.87838352
_cell_angle_alpha   119.33449033
_cell_angle_beta   118.68143536
_cell_angle_gamma   91.72792523
_symmetry_Int_Tables_number   1
_chemical_formula_structural   Al(FeS2)2
_chemical_formula_sum   'Al2 Fe4 S8'
_cell_volume   233.44106656
_cell_formula_units_Z   2
loop_
 _symmetry_equiv_pos_site_id
 _symmetry_equiv_pos_as_xyz
  1  'x, y, z'
loop_
 _atom_site_type_symbol
 _atom_site_label
 _atom_site_symmetry_multiplicity
 _atom_site_fract_x
 _atom_site_fract_y
 _atom_site_fract_z
 _atom_site_occupancy
  Al  Al0  1  0.50000000  0.00000000  0.50000000  1
  Al  Al1  1  0.00000000  0.00000000  0.00000000  1
  Fe  Fe0  1  0.50000000  0.00000000  0.00000000  1
  Fe  Fe1  1  0.50000000  0.50000000  0.00000000  1
  Fe  Fe2  1  0.50000000  0.50000000  0.50000000  1
  Fe  Fe3  1  0.00000000  0.50000000  0.50000000  1
  S  S0  1  0.28483600  0.75248900  0.53234800  1
  S  S1  1  0.26016200  0.76697700  0.00681500  1
  S  S2  1  0.72014100  0.75248900  0.96765200  1
  S  S3  1  0.73983800  0.74665300  0.50681500  1
  S  S4  1  0.27985900  0.24751100  0.03234800  1
  S  S5  1  0.73983800  0.23302300  0.99318500  1
  S  S6  1  0.26016200  0.25334700  0.49318500  1
  S  S7  1  0.71516400  0.24751100  0.46765200  1
loop_
_geom_bond_atom_site_label_1
_geom_bond_atom_site_label_2
_geom_bond_distance
_geom_bond_site_symmetry_2
Al0 S0 2.381925 1_545
Al0 S7 2.381925 1_555
Al0 S1 2.437129 1_545
Al0 S5 2.437129 1_555
Al0 S6 2.437129 1_555
Al0 S3 2.437129 1_545
Al1 S4 2.381920 1_555
Al1 S2 2.381920 1_444
Al1 S5 2.437129 1_454
Al1 S6 2.437129 1_555
Al1 S3 2.437129 1_444
Al1 S1 2.437129 1_545
Fe0 S5 2.298069 1_554
Fe0 S1 2.298069 1_545
Fe0 S7 2.312678 1_555
Fe0 S0 2.312678 1_544
Fe0 S2 2.312678 1_544
Fe0 S4 2.312678 1_555
Fe1 S2 2.429396 1_554
Fe1 S4 2.429396 1_555
Fe1 S3 2.503705 1_555
Fe1 S6 2.503705 1_554
Fe1 S1 2.503705 1_555
Fe1 S5 2.503705 1_554
Fe2 S3 2.298069 1_555
Fe2 S6 2.298069 1_555
Fe2 S2 2.312678 1_555
Fe2 S4 2.312678 1_555
Fe2 S0 2.312683 1_555
Fe2 S7 2.312683 1_555
Fe3 S7 2.429391 1_455
Fe3 S0 2.429391 1_555
Fe3 S1 2.503705 1_556
Fe3 S3 2.503705 1_455
Fe3 S6 2.503705 1_555
Fe3 S5 2.503705 1_454
