# generated using pymatgen
data_Mn5(GeN3)2
_symmetry_space_group_name_H-M   'P 1'
_cell_length_a   6.76588576
_cell_length_b   4.87281752
_cell_length_c   9.41761716
_cell_angle_alpha   90.00000272
_cell_angle_beta   92.20260545
_cell_angle_gamma   111.10645421
_symmetry_Int_Tables_number   1
_chemical_formula_structural   Mn5(GeN3)2
_chemical_formula_sum   'Mn10 Ge4 N12'
_cell_volume   289.41305650
_cell_formula_units_Z   2
loop_
 _symmetry_equiv_pos_site_id
 _symmetry_equiv_pos_as_xyz
  1  'x, y, z'
loop_
 _atom_site_type_symbol
 _atom_site_label
 _atom_site_symmetry_multiplicity
 _atom_site_fract_x
 _atom_site_fract_y
 _atom_site_fract_z
 _atom_site_occupancy
  Mn  Mn0  1  0.02972819  0.75520687  0.99253207  1
  Mn  Mn1  1  0.97027181  0.72547869  0.50746793  1
  Mn  Mn2  1  0.97027181  0.24479313  0.00746793  1
  Mn  Mn3  1  0.02972819  0.27452131  0.49253207  1
  Mn  Mn4  1  0.21401944  0.99144546  0.72010187  1
  Mn  Mn5  1  0.78598056  0.77742502  0.77989813  1
  Mn  Mn6  1  0.78598056  0.00855454  0.27989813  1
  Mn  Mn7  1  0.21401944  0.22257498  0.22010187  1
  Mn  Mn8  1  0.00000000  0.37375870  0.75000000  1
  Mn  Mn9  1  1.00000000  0.62624130  0.25000000  1
  Ge  Ge0  1  0.50697003  0.79303485  0.59537335  1
  Ge  Ge1  1  0.49302997  0.28606482  0.90462665  1
  Ge  Ge2  1  0.49302997  0.20696515  0.40462665  1
  Ge  Ge3  1  0.50697003  0.71393518  0.09537335  1
  N  N0  1  0.92081829  0.00478791  0.62800325  1
  N  N1  1  0.07918171  0.08396962  0.87199675  1
  N  N2  1  0.07918171  0.99521209  0.37199675  1
  N  N3  1  0.92081829  0.91603038  0.12800325  1
  N  N4  1  0.17768566  0.61668611  0.61014942  1
  N  N5  1  0.82231434  0.43900145  0.88985058  1
  N  N6  1  0.82231434  0.38331389  0.38985058  1
  N  N7  1  0.17768566  0.56099855  0.11014942  1
  N  N8  1  0.45990737  0.17030161  0.60703600  1
  N  N9  1  0.54009263  0.71039424  0.89296400  1
  N  N10  1  0.54009263  0.82969839  0.39296400  1
  N  N11  1  0.45990737  0.28960576  0.10703600  1
loop_
_geom_bond_atom_site_label_1
_geom_bond_atom_site_label_2
_geom_bond_distance
_geom_bond_site_symmetry_2
Mn0 N3 1.809134 1_456
Mn0 N1 1.900023 1_565
Mn0 N5 1.901837 1_455
Mn0 N7 1.929167 1_556
Mn1 N2 1.809134 1_655
Mn1 N0 1.900023 1_565
Mn1 N4 1.901839 1_655
Mn1 N6 1.929164 1_555
Mn2 N1 1.809134 1_654
Mn2 N3 1.900023 1_545
Mn2 N7 1.901837 1_655
Mn2 N5 1.929167 1_554
Mn3 N0 1.809134 1_455
Mn3 N2 1.900023 1_545
Mn3 N6 1.901839 1_455
Mn3 N4 1.929164 1_555
Mn4 N1 1.865044 1_565
Mn4 N8 1.937278 1_565
Mn4 N4 2.030901 1_555
Mn4 N0 2.156960 1_465
Mn5 N0 1.865047 1_565
Mn5 N9 1.937279 1_555
Mn5 N5 2.030892 1_555
Mn5 N1 2.156962 1_665
Mn6 N3 1.865044 1_545
Mn6 N10 1.937278 1_545
Mn6 N6 2.030901 1_555
Mn6 N2 2.156960 1_645
Mn7 N2 1.865047 1_545
Mn7 N11 1.937279 1_555
Mn7 N7 2.030892 1_555
Mn7 N3 2.156962 1_445
Mn8 N4 1.917802 1_555
Mn8 N5 1.917804 1_455
Mn8 N0 2.024487 1_455
Mn8 N1 2.024487 1_555
Mn9 N6 1.917802 1_555
Mn9 N7 1.917804 1_655
Mn9 N2 2.024487 1_655
Mn9 N3 2.024487 1_555
Ge0 N10 1.928676 1_555
Ge0 N8 1.979209 1_565
Ge0 N4 2.089581 1_555
Ge1 N11 1.928676 1_556
Ge1 N9 1.979209 1_555
Ge1 N5 2.089581 1_555
Ge2 N8 1.928676 1_555
Ge2 N10 1.979209 1_545
Ge2 N6 2.089581 1_555
Ge3 N9 1.928676 1_554
Ge3 N11 1.979209 1_555
Ge3 N7 2.089581 1_555
