# generated using pymatgen
data_Tc3Mo
_symmetry_space_group_name_H-M   'P 1'
_cell_length_a   4.79007096
_cell_length_b   4.79007096
_cell_length_c   4.79007096
_cell_angle_alpha   131.69965647
_cell_angle_beta   131.69965647
_cell_angle_gamma   70.70380247
_symmetry_Int_Tables_number   1
_chemical_formula_structural   Tc3Mo
_chemical_formula_sum   'Tc3 Mo1'
_cell_volume   60.01948776
_cell_formula_units_Z   1
loop_
 _symmetry_equiv_pos_site_id
 _symmetry_equiv_pos_as_xyz
  1  'x, y, z'
loop_
 _atom_site_type_symbol
 _atom_site_label
 _atom_site_symmetry_multiplicity
 _atom_site_fract_x
 _atom_site_fract_y
 _atom_site_fract_z
 _atom_site_occupancy
  Tc  Tc0  1  0.75000000  0.25000000  0.50000000  1
  Tc  Tc1  1  0.25000000  0.75000000  0.50000000  1
  Tc  Tc2  1  0.50000000  0.50000000  0.00000000  1
  Mo  Mo0  1  0.00000000  0.00000000  0.00000000  1
loop_
_geom_bond_atom_site_label_1
_geom_bond_atom_site_label_2
_geom_bond_distance
_geom_bond_site_symmetry_2
Tc0 Tc2 2.767043 1_556
Tc0 Tc2 2.767043 1_656
Tc0 Tc2 2.767043 1_555
Tc0 Tc2 2.767043 1_545
Tc0 Tc1 2.771519 1_656
Tc0 Tc1 2.771519 1_645
Tc0 Tc1 2.771519 1_555
Tc0 Tc1 2.771519 1_544
Tc1 Tc2 2.767043 1_556
Tc1 Tc2 2.767043 1_555
Tc1 Tc2 2.767043 1_566
Tc1 Tc2 2.767043 1_455
Mo0 Tc1 2.767043 1_544
Mo0 Tc0 2.767043 1_454
Mo0 Tc1 2.767043 1_444
Mo0 Tc1 2.767043 1_545
Mo0 Tc0 2.767043 1_555
Mo0 Tc0 2.767043 1_455
Mo0 Tc1 2.767043 1_555
Mo0 Tc0 2.767043 1_444
Mo0 Tc2 2.771519 1_556
Mo0 Tc2 2.771519 1_455
Mo0 Tc2 2.771519 1_545
Mo0 Tc2 2.771519 1_444
