# generated using pymatgen
data_TeW2Se3
_symmetry_space_group_name_H-M   'P 1'
_cell_length_a   3.38074247
_cell_length_b   3.38074247
_cell_length_c   38.55062100
_cell_angle_alpha   90.00000000
_cell_angle_beta   90.00000000
_cell_angle_gamma   120.00000923
_symmetry_Int_Tables_number   1
_chemical_formula_structural   TeW2Se3
_chemical_formula_sum   'Te2 W4 Se6'
_cell_volume   381.58047899
_cell_formula_units_Z   2
loop_
 _symmetry_equiv_pos_site_id
 _symmetry_equiv_pos_as_xyz
  1  'x, y, z'
loop_
 _atom_site_type_symbol
 _atom_site_label
 _atom_site_symmetry_multiplicity
 _atom_site_fract_x
 _atom_site_fract_y
 _atom_site_fract_z
 _atom_site_occupancy
  Te  Te0  1  0.33333300  0.66666700  0.42062100  1
  Te  Te1  1  0.33333300  0.66666700  0.51867900  1
  W  W0  1  0.00000000  0.00000000  0.09392100  1
  W  W1  1  0.00000000  0.00000000  0.46968400  1
  W  W2  1  0.33333300  0.66666700  0.28179400  1
  W  W3  1  0.33333300  0.66666700  0.65756500  1
  Se  Se0  1  0.00000000  0.00000000  0.32490400  1
  Se  Se1  1  0.00000000  0.00000000  0.70066000  1
  Se  Se2  1  0.33333300  0.66666700  0.05081300  1
  Se  Se3  1  0.33333300  0.66666700  0.13703800  1
  Se  Se4  1  0.00000000  0.00000000  0.23865700  1
  Se  Se5  1  0.00000000  0.00000000  0.61441000  1
loop_
_geom_bond_atom_site_label_1
_geom_bond_atom_site_label_2
_geom_bond_distance
_geom_bond_site_symmetry_2
Te0 W1 2.717945 1_565
Te0 W1 2.717947 1_665
Te0 W1 2.717947 1_555
Te1 W1 2.716122 1_565
Te1 W1 2.716124 1_665
Te1 W1 2.716124 1_555
Se0 W2 2.563546 1_545
Se0 W2 2.563548 1_445
Se0 W2 2.563548 1_555
Se1 W3 2.563171 1_545
Se1 W3 2.563173 1_555
Se1 W3 2.563173 1_445
Se2 W0 2.563496 1_565
Se2 W0 2.563498 1_555
Se2 W0 2.563498 1_665
Se3 W0 2.563721 1_565
Se3 W0 2.563723 1_665
Se3 W0 2.563723 1_555
Se4 W2 2.564221 1_545
Se4 W2 2.564223 1_445
Se4 W2 2.564223 1_555
Se5 W3 2.564671 1_545
Se5 W3 2.564673 1_445
Se5 W3 2.564673 1_555
