# generated using pymatgen
data_MgCd
_symmetry_space_group_name_H-M   'P 1'
_cell_length_a   5.16441677
_cell_length_b   5.16441677
_cell_length_c   5.16441745
_cell_angle_alpha   36.38698544
_cell_angle_beta   36.38698544
_cell_angle_gamma   36.38698888
_symmetry_Int_Tables_number   1
_chemical_formula_structural   MgCd
_chemical_formula_sum   'Mg1 Cd1'
_cell_volume   43.38702924
_cell_formula_units_Z   1
loop_
 _symmetry_equiv_pos_site_id
 _symmetry_equiv_pos_as_xyz
  1  'x, y, z'
loop_
 _atom_site_type_symbol
 _atom_site_label
 _atom_site_symmetry_multiplicity
 _atom_site_fract_x
 _atom_site_fract_y
 _atom_site_fract_z
 _atom_site_occupancy
  Mg  Mg0  1  0.50000000  0.50000000  0.50000000  1
  Cd  Cd0  1  0.00000000  0.00000000  -0.00000000  1
loop_
_geom_bond_atom_site_label_1
_geom_bond_atom_site_label_2
_geom_bond_distance
_geom_bond_site_symmetry_2
Cd0 Mg0 3.044316 1_554
Cd0 Mg0 3.044316 1_445
Cd0 Mg0 3.044317 1_545
Cd0 Mg0 3.044317 1_455
Cd0 Mg0 3.044317 1_454
Cd0 Mg0 3.044317 1_544
