# generated using pymatgen
data_BaTbO3
_symmetry_space_group_name_H-M   'P 1'
_cell_length_a   10.61390070
_cell_length_b   8.70059420
_cell_length_c   6.17827138
_cell_angle_alpha   133.58695815
_cell_angle_beta   148.20878231
_cell_angle_gamma   35.92366690
_symmetry_Int_Tables_number   1
_chemical_formula_structural   BaTbO3
_chemical_formula_sum   'Ba2 Tb2 O6'
_cell_volume   176.35018875
_cell_formula_units_Z   2
loop_
 _symmetry_equiv_pos_site_id
 _symmetry_equiv_pos_as_xyz
  1  'x, y, z'
loop_
 _atom_site_type_symbol
 _atom_site_label
 _atom_site_symmetry_multiplicity
 _atom_site_fract_x
 _atom_site_fract_y
 _atom_site_fract_z
 _atom_site_occupancy
  Ba  Ba0  1  0.50394500  0.23880700  0.00434000  1
  Ba  Ba1  1  0.49779000  0.75985000  0.99589700  1
  Tb  Tb0  1  0.00015700  0.49974700  0.99965300  1
  Tb  Tb1  1  0.00048800  0.99967500  0.00035600  1
  O  O0  1  0.50177800  0.20004400  0.43817000  1
  O  O1  1  0.98427400  0.19034100  0.84811100  1
  O  O2  1  0.95383000  0.33900800  0.45540300  1
  O  O3  1  0.49831700  0.80124100  0.56408800  1
  O  O4  1  0.01437100  0.81045400  0.15077900  1
  O  O5  1  0.04504900  0.66083200  0.54320400  1
loop_
_geom_bond_atom_site_label_1
_geom_bond_atom_site_label_2
_geom_bond_distance
_geom_bond_site_symmetry_2
Ba0 O5 2.681949 1_554
Ba0 O4 2.770355 1_645
Ba0 O3 2.776508 1_544
Ba0 O1 2.777567 1_555
Ba0 O2 2.919624 1_454
Ba0 O0 2.943168 1_555
Ba0 O0 3.255611 1_554
Ba1 O2 2.676765 1_556
Ba1 O4 2.784203 1_555
Ba1 O1 2.786019 1_465
Ba1 O0 2.787840 1_566
Ba1 O5 2.904966 1_656
Ba1 O3 2.932658 1_555
Ba1 O3 3.267960 1_556
O0 Tb0 2.285079 1_554
O0 Tb1 2.296065 1_646
O1 Tb1 2.253979 1_646
O1 Tb0 2.267861 1_655
O2 Tb0 2.307135 1_655
O2 Tb1 2.327917 1_645
O3 Tb0 2.287312 1_655
O3 Tb1 2.294131 1_555
O4 Tb1 2.253864 1_555
O4 Tb0 2.267852 1_554
O5 Tb0 2.310910 1_554
O5 Tb1 2.328781 1_556
