# generated using pymatgen
data_Sm14Au51
_symmetry_space_group_name_H-M   'P 1'
_cell_length_a   9.20727811
_cell_length_b   12.68320388
_cell_length_c   12.68334093
_cell_angle_alpha   59.99966249
_cell_angle_beta   90.00000000
_cell_angle_gamma   90.00000000
_symmetry_Int_Tables_number   1
_chemical_formula_structural   Sm14Au51
_chemical_formula_sum   'Sm14 Au51'
_cell_volume   1282.69397897
_cell_formula_units_Z   1
loop_
 _symmetry_equiv_pos_site_id
 _symmetry_equiv_pos_as_xyz
  1  'x, y, z'
loop_
 _atom_site_type_symbol
 _atom_site_label
 _atom_site_symmetry_multiplicity
 _atom_site_fract_x
 _atom_site_fract_y
 _atom_site_fract_z
 _atom_site_occupancy
  Sm  Sm0  1  0.50000000  0.67740167  0.85692211  1
  Sm  Sm1  1  0.50000000  0.46566858  0.67740906  1
  Sm  Sm2  1  0.50000000  0.85691781  0.46567467  1
  Sm  Sm3  1  0.50000000  0.32433811  0.14416032  1
  Sm  Sm4  1  0.50000000  0.53150765  0.32434410  1
  Sm  Sm5  1  0.50000000  0.14415380  0.53150458  1
  Sm  Sm6  1  0.00000000  0.27060603  0.61704524  1
  Sm  Sm7  1  0.00000000  0.11235677  0.27061434  1
  Sm  Sm8  1  0.00000000  0.61704821  0.11234847  1
  Sm  Sm9  1  0.00000000  0.71532065  0.39949297  1
  Sm  Sm10  1  0.00000000  0.88518458  0.71531723  1
  Sm  Sm11  1  0.00000000  0.39949807  0.88518534  1
  Sm  Sm12  1  0.30062510  -0.00000032  -0.00000034  1
  Sm  Sm13  1  0.69937490  -0.00000032  -0.00000034  1
  Au  Au0  1  0.15136216  0.62385884  0.88375902  1
  Au  Au1  1  0.15136370  0.49238327  0.62385534  1
  Au  Au2  1  0.15136451  0.88375804  0.49237975  1
  Au  Au3  1  0.15023531  0.38211256  0.11583814  1
  Au  Au4  1  0.15023631  0.50204542  0.38211655  1
  Au  Au5  1  0.15023205  0.11584618  0.50204765  1
  Au  Au6  1  0.84976469  0.38211256  0.11583814  1
  Au  Au7  1  0.84976369  0.50204542  0.38211655  1
  Au  Au8  1  0.84976795  0.11584618  0.50204765  1
  Au  Au9  1  0.84863784  0.62385884  0.88375902  1
  Au  Au10  1  0.84863630  0.49238327  0.62385534  1
  Au  Au11  1  0.84863549  0.88375804  0.49237975  1
  Au  Au12  1  0.00000000  0.66666487  0.66666696  1
  Au  Au13  1  0.00000000  0.33334279  0.33332276  1
  Au  Au14  1  0.33684905  0.33816070  0.55935447  1
  Au  Au15  1  0.33684573  0.10248510  0.33817023  1
  Au  Au16  1  0.33684621  0.55935523  0.10248913  1
  Au  Au17  1  0.33708329  0.65742000  0.44484706  1
  Au  Au18  1  0.33707961  0.89773511  0.65741253  1
  Au  Au19  1  0.33707944  0.44483968  0.89774035  1
  Au  Au20  1  0.66291671  0.65742000  0.44484706  1
  Au  Au21  1  0.66292039  0.89773511  0.65741253  1
  Au  Au22  1  0.66292056  0.44483968  0.89774035  1
  Au  Au23  1  0.66315095  0.33816070  0.55935447  1
  Au  Au24  1  0.66315427  0.10248510  0.33817023  1
  Au  Au25  1  0.66315379  0.55935523  0.10248913  1
  Au  Au26  1  0.23459664  0.07655241  0.72798484  1
  Au  Au27  1  0.23458853  0.19545812  0.07655532  1
  Au  Au28  1  0.23459908  0.72798654  0.19546231  1
  Au  Au29  1  0.22915560  0.92751513  0.26514973  1
  Au  Au30  1  0.22916327  0.80733030  0.92750696  1
  Au  Au31  1  0.22916608  0.26516057  0.80733142  1
  Au  Au32  1  0.77084440  0.92751513  0.26514973  1
  Au  Au33  1  0.77083673  0.80733030  0.92750696  1
  Au  Au34  1  0.77083392  0.26516057  0.80733142  1
  Au  Au35  1  0.76540336  0.07655241  0.72798484  1
  Au  Au36  1  0.76541147  0.19545812  0.07655532  1
  Au  Au37  1  0.76540092  0.72798654  0.19546231  1
  Au  Au38  1  0.30598746  0.66665934  0.66667090  1
  Au  Au39  1  0.30562612  0.33333971  0.33333006  1
  Au  Au40  1  0.69437388  0.33333971  0.33333006  1
  Au  Au41  1  0.69401254  0.66665934  0.66667090  1
  Au  Au42  1  0.50000000  0.17624439  0.76527763  1
  Au  Au43  1  0.50000000  0.05847404  0.17626012  1
  Au  Au44  1  0.50000000  0.76528548  0.05846803  1
  Au  Au45  1  0.50000000  0.81899088  0.24148801  1
  Au  Au46  1  0.50000000  0.93952171  0.81897765  1
  Au  Au47  1  0.50000000  0.24147784  0.93953245  1
  Au  Au48  1  0.00000000  0.97191651  0.89007689  1
  Au  Au49  1  0.00000000  0.13799502  0.97191393  1
  Au  Au50  1  0.00000000  0.89008074  0.13799527  1
loop_
_geom_bond_atom_site_label_1
_geom_bond_atom_site_label_2
_geom_bond_distance
_geom_bond_site_symmetry_2
Sm12 Sm13 3.671400 1_555
Au0 Au30 2.743570 1_555
Au0 Au19 2.776342 1_555
Au0 Au9 2.787267 1_455
Au0 Au12 2.885058 1_555
Au0 Au38 2.899668 1_555
Au0 Au16 3.002098 1_556
Au0 Au3 3.006705 1_556
Au0 Sm11 3.160471 1_555
Au0 Sm8 3.178843 1_556
Au0 Sm10 3.226597 1_555
Au0 Sm0 3.263435 1_555
Au1 Au31 2.743607 1_555
Au1 Au17 2.776293 1_555
Au1 Au10 2.787295 1_455
Au1 Au12 2.885040 1_555
Au1 Au38 2.899627 1_555
Au1 Au14 3.002033 1_555
Au1 Au4 3.006673 1_555
Au1 Sm9 3.160504 1_555
Au1 Sm6 3.178801 1_555
Au1 Sm11 3.226678 1_555
Au1 Sm1 3.263444 1_555
Au2 Au29 2.743656 1_555
Au2 Au38 2.899720 1_555
Au2 Au5 3.006826 1_565
Au2 Sm10 3.160544 1_555
Au2 Sm7 3.178807 1_565
Au2 Sm9 3.226605 1_555
Au2 Sm2 3.263420 1_555
Au3 Au6 2.766517 1_455
Au3 Au39 2.886636 1_555
Au3 Sm11 3.142482 1_554
Au3 Sm8 3.265319 1_555
Au3 Sm7 3.279688 1_555
Au3 Sm3 3.282318 1_555
Au4 Au7 2.766535 1_455
Au4 Sm9 3.142493 1_555
Au4 Sm6 3.265247 1_555
Au4 Sm8 3.279829 1_555
Au4 Sm4 3.282306 1_555
Au5 Au8 2.766457 1_455
Au5 Sm10 3.142507 1_545
Au5 Sm7 3.265188 1_555
Au5 Sm6 3.279700 1_555
Au5 Sm5 3.282328 1_555
Au6 Au9 3.006705 1_554
Au6 Sm11 3.142482 1_654
Au6 Sm8 3.265319 1_655
Au6 Sm7 3.279688 1_655
Au6 Sm3 3.282318 1_555
Au7 Sm9 3.142493 1_655
Au7 Sm6 3.265247 1_655
Au7 Sm8 3.279829 1_655
Au7 Sm4 3.282306 1_555
Au8 Sm10 3.142507 1_645
Au8 Sm7 3.265188 1_655
Au8 Sm6 3.279700 1_655
Au8 Sm5 3.282328 1_555
Au9 Sm11 3.160471 1_655
Au9 Sm8 3.178843 1_656
Au9 Sm10 3.226597 1_655
Au9 Sm0 3.263435 1_555
Au10 Au34 2.743607 1_555
Au10 Au20 2.776293 1_555
Au10 Au12 2.885040 1_655
Au10 Au41 2.899627 1_555
Au10 Au23 3.002033 1_555
Au10 Au7 3.006673 1_555
Au10 Sm9 3.160504 1_655
Au10 Sm6 3.178801 1_655
Au10 Sm11 3.226678 1_655
Au10 Sm1 3.263444 1_555
Au11 Au32 2.743656 1_555
Au11 Au21 2.776275 1_555
Au11 Au2 2.787310 1_655
Au11 Au12 2.885054 1_655
Au11 Au41 2.899720 1_555
Au11 Au24 3.001994 1_565
Au11 Au8 3.006826 1_565
Au11 Sm10 3.160544 1_655
Au11 Sm7 3.178807 1_665
Au11 Sm9 3.226605 1_655
Au11 Sm2 3.263420 1_555
Au12 Au41 2.817312 1_455
Au12 Au38 2.817312 1_555
Au12 Au2 2.885054 1_555
Au12 Au9 2.885058 1_455
Au12 Sm11 3.126026 1_555
Au12 Sm10 3.126070 1_555
Au12 Sm9 3.126121 1_555
Au13 Au39 2.813985 1_555
Au13 Au40 2.813985 1_455
Au13 Au3 2.863337 1_555
Au13 Au6 2.863337 1_455
Au13 Au7 2.863372 1_455
Au13 Au4 2.863372 1_555
Au13 Au5 2.863419 1_555
Au13 Au8 2.863419 1_455
Au13 Sm7 3.273771 1_555
Au13 Sm8 3.273803 1_555
Au13 Sm6 3.274033 1_555
Au14 Au4 2.766483 1_555
Au14 Au42 2.816321 1_555
Au14 Au39 2.912026 1_555
Au14 Au31 2.969901 1_555
Au14 Au23 3.004352 1_555
Au14 Sm5 3.050439 1_555
Au14 Au26 3.061613 1_555
Au14 Sm1 3.087944 1_555
Au14 Sm4 3.137709 1_555
Au14 Sm6 3.203381 1_555
Au15 Au5 2.766476 1_555
Au15 Au43 2.816317 1_555
Au15 Au39 2.911991 1_555
Au15 Au29 2.970007 1_545
Au15 Au2 3.001994 1_545
Au15 Au24 3.004413 1_555
Au15 Sm3 3.050436 1_555
Au15 Au27 3.061745 1_555
Au15 Sm2 3.087979 1_545
Au15 Sm5 3.137641 1_555
Au15 Sm7 3.203349 1_555
Au16 Au3 2.766535 1_555
Au16 Au44 2.816351 1_555
Au16 Au39 2.911911 1_555
Au16 Au30 2.969867 1_554
Au16 Au25 3.004405 1_555
Au16 Sm4 3.050463 1_555
Au16 Au28 3.061586 1_555
Au16 Sm0 3.088005 1_554
Au16 Sm3 3.137755 1_555
Au16 Sm8 3.203355 1_555
Au17 Au45 2.795797 1_555
Au17 Au38 2.888079 1_555
Au17 Au28 2.977452 1_555
Au17 Au20 3.000039 1_555
Au17 Au4 3.007328 1_555
Au17 Sm2 3.064397 1_555
Au17 Sm4 3.094694 1_555
Au17 Sm1 3.113131 1_555
Au17 Sm9 3.174934 1_555
Au17 Au29 3.179551 1_555
Au18 Au2 2.776275 1_555
Au18 Au46 2.795758 1_555
Au18 Au38 2.888090 1_555
Au18 Au26 2.977472 1_565
Au18 Au21 3.000107 1_555
Au18 Au5 3.007339 1_565
Au18 Sm0 3.064515 1_555
Au18 Sm5 3.094717 1_565
Au18 Sm2 3.113065 1_555
Au18 Sm10 3.174910 1_555
Au18 Au30 3.179530 1_555
Au19 Au47 2.795822 1_555
Au19 Au38 2.888064 1_555
Au19 Au27 2.977402 1_556
Au19 Au22 3.000110 1_555
Au19 Au3 3.007260 1_556
Au19 Sm1 3.064495 1_555
Au19 Sm3 3.094758 1_556
Au19 Sm0 3.113108 1_555
Au19 Sm11 3.174883 1_555
Au19 Au31 3.179425 1_555
Au20 Au45 2.795797 1_555
Au20 Au41 2.888079 1_555
Au20 Au37 2.977452 1_555
Au20 Au7 3.007328 1_555
Au20 Sm2 3.064397 1_555
Au20 Sm4 3.094694 1_555
Au20 Sm1 3.113131 1_555
Au20 Sm9 3.174934 1_655
Au20 Au32 3.179551 1_555
Au21 Au46 2.795758 1_555
Au21 Au41 2.888090 1_555
Au21 Au35 2.977472 1_565
Au21 Au8 3.007339 1_565
Au21 Sm0 3.064515 1_555
Au21 Sm5 3.094717 1_565
Au21 Sm2 3.113065 1_555
Au21 Sm10 3.174910 1_655
Au21 Au33 3.179530 1_555
Au22 Au9 2.776342 1_555
Au22 Au47 2.795822 1_555
Au22 Au41 2.888064 1_555
Au22 Au36 2.977402 1_556
Au22 Au6 3.007260 1_556
Au22 Sm1 3.064495 1_555
Au22 Sm3 3.094758 1_556
Au22 Sm0 3.113108 1_555
Au22 Sm11 3.174883 1_655
Au22 Au34 3.179425 1_555
Au23 Au7 2.766483 1_555
Au23 Au42 2.816321 1_555
Au23 Au40 2.912026 1_555
Au23 Au34 2.969901 1_555
Au23 Sm5 3.050439 1_555
Au23 Au35 3.061613 1_555
Au23 Sm1 3.087944 1_555
Au23 Sm4 3.137709 1_555
Au23 Sm6 3.203381 1_655
Au24 Au8 2.766476 1_555
Au24 Au43 2.816317 1_555
Au24 Au40 2.911991 1_555
Au24 Au32 2.970007 1_545
Au24 Sm3 3.050436 1_555
Au24 Au36 3.061745 1_555
Au24 Sm2 3.087979 1_545
Au24 Sm5 3.137641 1_555
Au24 Sm7 3.203349 1_655
Au25 Au6 2.766535 1_555
Au25 Au44 2.816351 1_555
Au25 Au40 2.911911 1_555
Au25 Au33 2.969867 1_554
Au25 Au9 3.002098 1_554
Au25 Sm4 3.050463 1_555
Au25 Au37 3.061586 1_555
Au25 Sm0 3.088005 1_554
Au25 Sm3 3.137755 1_555
Au25 Sm8 3.203355 1_655
Au26 Au5 2.763234 1_555
Au26 Au48 2.815140 1_545
Au26 Au46 2.884112 1_545
Au26 Au42 2.896882 1_555
Au26 Au31 3.024095 1_555
Au26 Sm6 3.039721 1_555
Au26 Au30 3.069994 1_545
Au26 Sm12 3.140921 1_556
Au26 Sm5 3.283296 1_555
Au26 Sm10 3.312470 1_545
Au27 Au3 2.763231 1_555
Au27 Au49 2.815173 1_554
Au27 Au47 2.884158 1_554
Au27 Au43 2.896959 1_555
Au27 Au29 3.023927 1_545
Au27 Sm7 3.039738 1_555
Au27 Au31 3.070044 1_554
Au27 Sm12 3.140900 1_555
Au27 Sm3 3.283377 1_555
Au27 Sm11 3.312453 1_554
Au28 Au4 2.763275 1_555
Au28 Au50 2.815150 1_555
Au28 Au45 2.884110 1_555
Au28 Au44 2.896921 1_555
Au28 Au30 3.024129 1_554
Au28 Sm8 3.039739 1_555
Au28 Au29 3.069981 1_555
Au28 Sm12 3.140866 1_565
Au28 Sm4 3.283257 1_555
Au28 Sm9 3.312466 1_555
Au29 Au50 2.836152 1_555
Au29 Au43 2.894136 1_565
Au29 Au45 2.935381 1_555
Au29 Sm12 3.081581 1_565
Au29 Sm9 3.164227 1_555
Au29 Sm7 3.180425 1_565
Au29 Sm2 3.348383 1_555
Au30 Au48 2.836178 1_555
Au30 Au44 2.894129 1_556
Au30 Au46 2.935353 1_555
Au30 Sm12 3.081665 1_566
Au30 Sm10 3.164249 1_555
Au30 Sm8 3.180352 1_556
Au30 Sm0 3.348251 1_555
Au31 Au49 2.836207 1_555
Au31 Au42 2.894146 1_555
Au31 Au47 2.935357 1_555
Au31 Sm12 3.081628 1_556
Au31 Sm11 3.164274 1_555
Au31 Sm6 3.180405 1_555
Au31 Sm1 3.348175 1_555
Au32 Au50 2.836152 1_655
Au32 Au43 2.894136 1_565
Au32 Au45 2.935381 1_555
Au32 Au36 3.023927 1_565
Au32 Au37 3.069981 1_555
Au32 Sm13 3.081581 1_565
Au32 Sm9 3.164227 1_655
Au32 Sm7 3.180425 1_665
Au32 Sm2 3.348383 1_555
Au33 Au9 2.743570 1_555
Au33 Au48 2.836178 1_655
Au33 Au44 2.894129 1_556
Au33 Au46 2.935353 1_555
Au33 Au37 3.024129 1_556
Au33 Au35 3.069994 1_565
Au33 Sm13 3.081665 1_566
Au33 Sm10 3.164249 1_655
Au33 Sm8 3.180352 1_656
Au33 Sm0 3.348251 1_555
Au34 Au49 2.836207 1_655
Au34 Au42 2.894146 1_555
Au34 Au47 2.935357 1_555
Au34 Au35 3.024095 1_555
Au34 Au36 3.070044 1_556
Au34 Sm13 3.081628 1_556
Au34 Sm11 3.164274 1_655
Au34 Sm6 3.180405 1_655
Au34 Sm1 3.348175 1_555
Au35 Au8 2.763234 1_555
Au35 Au48 2.815140 1_645
Au35 Au46 2.884112 1_545
Au35 Au42 2.896882 1_555
Au35 Sm6 3.039721 1_655
Au35 Sm13 3.140921 1_556
Au35 Sm5 3.283296 1_555
Au35 Sm10 3.312470 1_645
Au36 Au6 2.763231 1_555
Au36 Au49 2.815173 1_654
Au36 Au47 2.884158 1_554
Au36 Au43 2.896959 1_555
Au36 Sm7 3.039738 1_655
Au36 Sm13 3.140900 1_555
Au36 Sm3 3.283377 1_555
Au36 Sm11 3.312453 1_654
Au37 Au7 2.763275 1_555
Au37 Au50 2.815150 1_655
Au37 Au45 2.884110 1_555
Au37 Au44 2.896921 1_555
Au37 Sm8 3.039739 1_655
Au37 Sm13 3.140866 1_565
Au37 Sm4 3.283257 1_555
Au37 Sm9 3.312466 1_655
Au38 Sm1 3.059538 1_555
Au38 Sm0 3.059570 1_555
Au38 Sm2 3.059600 1_555
Au39 Au4 2.886572 1_555
Au39 Au5 2.886631 1_555
Au39 Sm3 3.040804 1_555
Au39 Sm4 3.040821 1_555
Au39 Sm5 3.040879 1_555
Au40 Au7 2.886572 1_555
Au40 Au8 2.886631 1_555
Au40 Au6 2.886636 1_555
Au40 Sm3 3.040804 1_555
Au40 Sm4 3.040821 1_555
Au40 Sm5 3.040879 1_555
Au41 Au9 2.899668 1_555
Au41 Sm1 3.059538 1_555
Au41 Sm0 3.059570 1_555
Au41 Sm2 3.059600 1_555
Au42 Au47 2.719898 1_555
Au42 Au46 2.726420 1_545
Au42 Sm5 3.188077 1_555
Au42 Sm13 3.251865 1_556
Au42 Sm12 3.251865 1_556
Au42 Sm1 3.259746 1_555
Au43 Au45 2.719820 1_545
Au43 Au47 2.726406 1_554
Au43 Sm3 3.187997 1_555
Au43 Sm13 3.252018 1_555
Au43 Sm12 3.252018 1_555
Au43 Sm2 3.259681 1_545
Au44 Au46 2.719841 1_554
Au44 Au45 2.726466 1_555
Au44 Sm4 3.188166 1_555
Au44 Sm12 3.251798 1_565
Au44 Sm13 3.251798 1_565
Au44 Sm0 3.259810 1_554
Au45 Sm2 3.111965 1_555
Au45 Sm4 3.250754 1_555
Au45 Sm12 3.315094 1_565
Au45 Sm13 3.315094 1_565
Au46 Sm0 3.111925 1_555
Au46 Sm5 3.250698 1_565
Au46 Sm12 3.315232 1_566
Au46 Sm13 3.315232 1_566
Au47 Sm1 3.112035 1_555
Au47 Sm3 3.250841 1_556
Au47 Sm13 3.315012 1_556
Au47 Sm12 3.315012 1_556
Au48 Au49 2.775019 1_565
Au48 Au50 2.775070 1_556
Au48 Sm10 2.925990 1_555
Au48 Sm12 3.198235 1_566
Au48 Sm13 3.198235 1_466
Au49 Au50 2.774994 1_546
Au49 Sm11 2.926100 1_555
Au49 Sm13 3.198154 1_456
Au49 Sm12 3.198154 1_556
Au50 Sm9 2.926037 1_555
Au50 Sm13 3.198178 1_465
Au50 Sm12 3.198178 1_565
