# generated using pymatgen
data_Li2CoO3
_symmetry_space_group_name_H-M   'P 1'
_cell_length_a   5.06136585
_cell_length_b   5.06136585
_cell_length_c   5.03272203
_cell_angle_alpha   81.16996858
_cell_angle_beta   81.16996858
_cell_angle_gamma   121.27933647
_symmetry_Int_Tables_number   1
_chemical_formula_structural   Li2CoO3
_chemical_formula_sum   'Li4 Co2 O6'
_cell_volume   104.64614938
_cell_formula_units_Z   2
loop_
 _symmetry_equiv_pos_site_id
 _symmetry_equiv_pos_as_xyz
  1  'x, y, z'
loop_
 _atom_site_type_symbol
 _atom_site_label
 _atom_site_symmetry_multiplicity
 _atom_site_fract_x
 _atom_site_fract_y
 _atom_site_fract_z
 _atom_site_occupancy
  Li  Li0  1  0.16959300  0.83040700  0.50000000  1
  Li  Li1  1  0.83963500  0.16036500  0.50000000  1
  Li  Li2  1  0.49628400  0.50371600  0.50000000  1
  Li  Li3  1  0.33423900  0.66576100  0.00000000  1
  Co  Co0  1  0.99758000  0.00242000  0.00000000  1
  Co  Co1  1  0.67265600  0.32734400  0.00000000  1
  O  O0  1  0.23180500  0.21883900  0.22477200  1
  O  O1  1  0.90291000  0.59766900  0.22666200  1
  O  O2  1  0.62166000  0.93686100  0.23295200  1
  O  O3  1  0.06313900  0.37834000  0.76704800  1
  O  O4  1  0.78116100  0.76819500  0.77522800  1
  O  O5  1  0.40233100  0.09709000  0.77333800  1
loop_
_geom_bond_atom_site_label_1
_geom_bond_atom_site_label_2
_geom_bond_distance
_geom_bond_site_symmetry_2
Li0 O4 2.066433 1_455
Li0 O0 2.066433 1_565
Li0 O5 2.125640 1_565
Li0 O1 2.125640 1_455
Li0 O2 2.210269 1_555
Li0 O3 2.210269 1_555
Li1 O3 1.982201 1_655
Li1 O2 1.982201 1_545
Li1 O4 2.089532 1_545
Li1 O0 2.089532 1_655
Li1 O1 2.255610 1_555
Li1 O5 2.255610 1_555
Li2 O5 2.065889 1_555
Li2 O1 2.065889 1_555
Li2 O3 2.098602 1_555
Li2 O2 2.098602 1_555
Li2 O0 2.228823 1_555
Li2 O4 2.228823 1_555
Li3 O2 2.078027 1_555
Li3 O3 2.078027 1_554
Li3 O4 2.117022 1_554
Li3 O0 2.117022 1_555
Li3 O5 2.125906 1_564
Li3 O1 2.125906 1_455
Co0 O0 1.824437 1_655
Co0 O4 1.824437 1_544
Co0 O3 1.909156 1_654
Co0 O2 1.909156 1_545
Co0 O1 1.955254 1_545
Co0 O5 1.955254 1_654
Co1 O1 1.939831 1_555
Co1 O5 1.939831 1_554
Co1 O2 2.003294 1_545
Co1 O3 2.003294 1_654
Co1 O4 2.078910 1_554
Co1 O0 2.078910 1_555
