# generated using pymatgen
data_Ca7RuN6
_symmetry_space_group_name_H-M   'P 1'
_cell_length_a   11.02265521
_cell_length_b   6.25306905
_cell_length_c   13.29659648
_cell_angle_alpha   90.00000000
_cell_angle_beta   90.00000000
_cell_angle_gamma   90.00000000
_symmetry_Int_Tables_number   1
_chemical_formula_structural   Ca7RuN6
_chemical_formula_sum   'Ca28 Ru4 N24'
_cell_volume   916.47355204
_cell_formula_units_Z   4
loop_
 _symmetry_equiv_pos_site_id
 _symmetry_equiv_pos_as_xyz
  1  'x, y, z'
loop_
 _atom_site_type_symbol
 _atom_site_label
 _atom_site_symmetry_multiplicity
 _atom_site_fract_x
 _atom_site_fract_y
 _atom_site_fract_z
 _atom_site_occupancy
  Ca  Ca0  1  0.03658372  0.72817433  0.97920692  1
  Ca  Ca1  1  0.46341628  0.77182567  0.47920692  1
  Ca  Ca2  1  0.53658372  0.77182567  0.02079308  1
  Ca  Ca3  1  0.96341628  0.72817433  0.52079308  1
  Ca  Ca4  1  0.96341628  0.27182567  0.02079308  1
  Ca  Ca5  1  0.53658372  0.22817433  0.52079308  1
  Ca  Ca6  1  0.46341628  0.22817433  0.97920692  1
  Ca  Ca7  1  0.03658372  0.27182567  0.47920692  1
  Ca  Ca8  1  0.22448458  0.86534905  0.62826948  1
  Ca  Ca9  1  0.27551542  0.63465095  0.12826948  1
  Ca  Ca10  1  0.72448458  0.63465095  0.37173052  1
  Ca  Ca11  1  0.77551542  0.86534905  0.87173052  1
  Ca  Ca12  1  0.77551542  0.13465095  0.37173052  1
  Ca  Ca13  1  0.72448458  0.36534905  0.87173052  1
  Ca  Ca14  1  0.27551542  0.36534905  0.62826948  1
  Ca  Ca15  1  0.22448458  0.13465095  0.12826948  1
  Ca  Ca16  1  0.29261984  0.60198980  0.88728707  1
  Ca  Ca17  1  0.20738016  0.89801020  0.38728707  1
  Ca  Ca18  1  0.79261984  0.89801020  0.11271293  1
  Ca  Ca19  1  0.70738016  0.60198980  0.61271293  1
  Ca  Ca20  1  0.70738016  0.39801020  0.11271293  1
  Ca  Ca21  1  0.79261984  0.10198980  0.61271293  1
  Ca  Ca22  1  0.20738016  0.10198980  0.88728707  1
  Ca  Ca23  1  0.29261984  0.39801020  0.38728707  1
  Ca  Ca24  1  0.00000000  0.43581989  0.75000000  1
  Ca  Ca25  1  0.50000000  0.06418011  0.25000000  1
  Ca  Ca26  1  0.00000000  0.56418011  0.25000000  1
  Ca  Ca27  1  0.50000000  0.93581989  0.75000000  1
  Ru  Ru0  1  0.00000000  0.92555763  0.75000000  1
  Ru  Ru1  1  0.50000000  0.57444237  0.25000000  1
  Ru  Ru2  1  0.00000000  0.07444237  0.25000000  1
  Ru  Ru3  1  0.50000000  0.42555763  0.75000000  1
  N  N0  1  0.13300986  0.74286716  0.79579002  1
  N  N1  1  0.36699014  0.75713284  0.29579002  1
  N  N2  1  0.63300986  0.75713284  0.20420998  1
  N  N3  1  0.86699014  0.74286716  0.70420998  1
  N  N4  1  0.86699014  0.25713284  0.20420998  1
  N  N5  1  0.63300986  0.24286716  0.70420998  1
  N  N6  1  0.36699014  0.24286716  0.79579002  1
  N  N7  1  0.13300986  0.25713284  0.29579002  1
  N  N8  1  0.16715699  0.59458869  0.51003007  1
  N  N9  1  0.33284301  0.90541131  0.01003007  1
  N  N10  1  0.66715699  0.90541131  0.48996993  1
  N  N11  1  0.83284301  0.59458869  0.98996993  1
  N  N12  1  0.83284301  0.40541131  0.48996993  1
  N  N13  1  0.66715699  0.09458869  0.98996993  1
  N  N14  1  0.33284301  0.09458869  0.51003007  1
  N  N15  1  0.16715699  0.40541131  0.01003007  1
  N  N16  1  0.46222478  0.60294818  0.63602102  1
  N  N17  1  0.03777522  0.89705182  0.13602102  1
  N  N18  1  0.96222478  0.89705182  0.36397898  1
  N  N19  1  0.53777522  0.60294818  0.86397898  1
  N  N20  1  0.53777522  0.39705182  0.36397898  1
  N  N21  1  0.96222478  0.10294818  0.86397898  1
  N  N22  1  0.03777522  0.10294818  0.63602102  1
  N  N23  1  0.46222478  0.39705182  0.13602102  1
loop_
_geom_bond_atom_site_label_1
_geom_bond_atom_site_label_2
_geom_bond_distance
_geom_bond_site_symmetry_2
Ca0 N17 2.337291 1_556
Ca0 N11 2.400353 1_455
Ca0 N15 2.512533 1_556
Ca0 N0 2.661951 1_555
Ca0 N21 2.917393 1_465
Ca1 N16 2.337291 1_555
Ca1 N10 2.400353 1_555
Ca1 N14 2.512533 1_565
Ca1 N1 2.661951 1_555
Ca1 N20 2.917393 1_555
Ca2 N19 2.337291 1_554
Ca2 N9 2.400353 1_555
Ca2 N13 2.512533 1_564
Ca2 N2 2.661951 1_555
Ca2 N23 2.917393 1_555
Ca3 N18 2.337291 1_555
Ca3 N8 2.400353 1_655
Ca3 N12 2.512533 1_555
Ca3 N3 2.661951 1_555
Ca3 N22 2.917393 1_665
Ca4 N21 2.337291 1_554
Ca4 N15 2.400353 1_655
Ca4 N11 2.512533 1_554
Ca4 N4 2.661951 1_555
Ca4 N17 2.917393 1_645
Ca5 N20 2.337291 1_555
Ca5 N14 2.400353 1_555
Ca5 N10 2.512533 1_545
Ca5 N5 2.661951 1_555
Ca5 N16 2.917393 1_555
Ca6 N23 2.337291 1_556
Ca6 N13 2.400353 1_555
Ca6 N9 2.512533 1_546
Ca6 N6 2.661951 1_555
Ca6 N19 2.917393 1_555
Ca7 N22 2.337291 1_555
Ca7 N12 2.400353 1_455
Ca7 N8 2.512533 1_555
Ca7 N7 2.661951 1_555
Ca7 N18 2.917393 1_445
Ca8 N8 2.395326 1_555
Ca8 N14 2.439902 1_565
Ca8 N22 2.540374 1_565
Ca8 N0 2.562184 1_555
Ca8 N16 3.093550 1_555
Ca9 N9 2.395326 1_555
Ca9 N15 2.439902 1_555
Ca9 N23 2.540374 1_555
Ca9 N1 2.562184 1_555
Ca9 N17 3.093550 1_555
Ca10 N10 2.395326 1_555
Ca10 N12 2.439902 1_555
Ca10 N20 2.540374 1_555
Ca10 N2 2.562184 1_555
Ca10 N18 3.093550 1_555
Ca11 N11 2.395326 1_555
Ca11 N13 2.439902 1_565
Ca11 N21 2.540374 1_565
Ca11 N3 2.562184 1_555
Ca11 N19 3.093550 1_555
Ca12 N12 2.395326 1_555
Ca12 N10 2.439902 1_545
Ca12 N18 2.540374 1_545
Ca12 N4 2.562184 1_555
Ca12 N20 3.093550 1_555
Ca13 N13 2.395326 1_555
Ca13 N11 2.439902 1_555
Ca13 N19 2.540374 1_555
Ca13 N5 2.562184 1_555
Ca13 N21 3.093550 1_555
Ca14 N14 2.395326 1_555
Ca14 N8 2.439902 1_555
Ca14 N16 2.540374 1_555
Ca14 N6 2.562184 1_555
Ca14 N22 3.093550 1_555
Ca15 N15 2.395326 1_555
Ca15 N9 2.439902 1_545
Ca15 N17 2.540374 1_545
Ca15 N7 2.562184 1_555
Ca15 N23 3.093550 1_555
Ca16 N0 2.313299 1_555
Ca16 N15 2.467209 1_556
Ca16 N9 2.541656 1_556
Ca16 N6 2.682335 1_555
Ca16 N19 2.719984 1_555
Ca17 N1 2.313299 1_555
Ca17 N14 2.467209 1_565
Ca17 N8 2.541656 1_555
Ca17 N7 2.682335 1_565
Ca17 N18 2.719984 1_455
Ca18 N2 2.313299 1_555
Ca18 N13 2.467209 1_564
Ca18 N11 2.541656 1_554
Ca18 N4 2.682335 1_565
Ca18 N17 2.719984 1_655
Ca19 N3 2.313299 1_555
Ca19 N12 2.467209 1_555
Ca19 N10 2.541656 1_555
Ca19 N5 2.682335 1_555
Ca19 N16 2.719984 1_555
Ca20 N4 2.313299 1_555
Ca20 N11 2.467209 1_554
Ca20 N13 2.541656 1_554
Ca20 N2 2.682335 1_555
Ca20 N23 2.719984 1_555
Ca21 N5 2.313299 1_555
Ca21 N10 2.467209 1_545
Ca21 N12 2.541656 1_555
Ca21 N3 2.682335 1_545
Ca21 N22 2.719984 1_655
Ca22 N6 2.313299 1_555
Ca22 N9 2.467209 1_546
Ca22 N15 2.541656 1_556
Ca22 N0 2.682335 1_545
Ca22 N21 2.719984 1_455
Ca23 N7 2.313299 1_555
Ca23 N8 2.467209 1_555
Ca23 N14 2.541656 1_555
Ca23 N1 2.682335 1_555
Ca23 N20 2.719984 1_555
Ca24 N0 2.491298 1_555
Ca24 N3 2.491298 1_455
Ca24 N22 2.608204 1_555
Ca24 N21 2.608204 1_455
Ca25 N1 2.491298 1_545
Ca25 N2 2.491298 1_545
Ca25 N23 2.608204 1_555
Ca25 N20 2.608204 1_555
Ca26 N7 2.491298 1_555
Ca26 N4 2.491298 1_455
Ca26 N18 2.608204 1_455
Ca26 N17 2.608204 1_555
Ca27 N6 2.491298 1_565
Ca27 N5 2.491298 1_565
Ca27 N16 2.608204 1_555
Ca27 N19 2.608204 1_555
N0 Ru0 1.955821 1_555
N1 Ru1 1.955821 1_555
N2 Ru1 1.955821 1_555
N3 Ru0 1.955821 1_655
N4 Ru2 1.955821 1_655
N5 Ru3 1.955821 1_555
N6 Ru3 1.955821 1_555
N7 Ru2 1.955821 1_555
N16 Ru3 1.923699 1_555
N17 Ru2 1.923699 1_565
N18 Ru2 1.923699 1_665
N19 Ru3 1.923699 1_555
N20 Ru1 1.923699 1_555
N21 Ru0 1.923699 1_645
N22 Ru0 1.923699 1_545
N23 Ru1 1.923699 1_555
