# generated using pymatgen
data_Tm3Ga9Pt2
_symmetry_space_group_name_H-M   'P 1'
_cell_length_a   8.14082368
_cell_length_b   8.14082368
_cell_length_c   8.14082368
_cell_angle_alpha   149.98531351
_cell_angle_beta   105.18246817
_cell_angle_gamma   82.65803332
_symmetry_Int_Tables_number   1
_chemical_formula_structural   Tm3Ga9Pt2
_chemical_formula_sum   'Tm3 Ga9 Pt2'
_cell_volume   254.92514781
_cell_formula_units_Z   1
loop_
 _symmetry_equiv_pos_site_id
 _symmetry_equiv_pos_as_xyz
  1  'x, y, z'
loop_
 _atom_site_type_symbol
 _atom_site_label
 _atom_site_symmetry_multiplicity
 _atom_site_fract_x
 _atom_site_fract_y
 _atom_site_fract_z
 _atom_site_occupancy
  Tm  Tm0  1  0.00000000  0.00000000  0.00000000  1
  Tm  Tm1  1  0.30921100  0.30921100  0.00000000  1
  Tm  Tm2  1  0.69078900  0.69078900  0.00000000  1
  Ga  Ga0  1  0.50000000  0.00000000  0.50000000  1
  Ga  Ga1  1  0.97171200  0.34286800  0.62884400  1
  Ga  Ga2  1  0.02828800  0.65713200  0.37115600  1
  Ga  Ga3  1  0.71402400  0.34286800  0.37115600  1
  Ga  Ga4  1  0.28597600  0.65713200  0.62884400  1
  Ga  Ga5  1  0.85372400  0.13697700  0.71674700  1
  Ga  Ga6  1  0.14627600  0.86302300  0.28325300  1
  Ga  Ga7  1  0.42023000  0.13697700  0.28325300  1
  Ga  Ga8  1  0.57977000  0.86302300  0.71674700  1
  Pt  Pt0  1  0.30272800  0.50000000  0.80272800  1
  Pt  Pt1  1  0.69727200  0.50000000  0.19727200  1
loop_
_geom_bond_atom_site_label_1
_geom_bond_atom_site_label_2
_geom_bond_distance
_geom_bond_site_symmetry_2
Ga0 Ga5 2.720450 1_555
Ga0 Ga7 2.720450 1_555
Ga0 Ga6 2.720450 1_545
Ga0 Ga8 2.720450 1_545
Ga0 Pt1 2.872454 1_556
Ga0 Pt0 2.872454 1_555
Ga0 Pt0 2.872454 1_544
Ga0 Pt1 2.872454 1_545
Ga0 Tm2 3.144040 1_545
Ga0 Tm1 3.144040 1_556
Ga0 Tm1 3.144040 1_545
Ga0 Tm2 3.144040 1_556
Ga1 Ga3 2.548807 1_555
Ga1 Pt0 2.578542 1_655
Ga1 Ga6 2.614760 1_656
Ga1 Ga6 2.614760 1_645
Ga1 Ga5 2.663222 1_555
Ga1 Tm2 3.086272 1_556
Ga1 Tm2 3.086272 1_545
Ga1 Tm0 3.123882 1_666
Ga1 Tm0 3.123882 1_655
Ga2 Ga4 2.548807 1_555
Ga2 Pt1 2.578542 1_455
Ga2 Ga5 2.614760 1_454
Ga2 Ga5 2.614760 1_465
Ga2 Ga6 2.663222 1_555
Ga2 Tm1 3.086272 1_566
Ga2 Tm1 3.086272 1_555
Ga2 Tm0 3.123882 1_555
Ga2 Tm0 3.123882 1_566
Ga3 Pt1 2.578542 1_555
Ga3 Ga8 2.614760 1_555
Ga3 Ga8 2.614760 1_544
Ga3 Ga7 2.663222 1_555
Ga3 Tm2 3.086272 1_556
Ga3 Tm2 3.086272 1_545
Ga3 Tm0 3.123882 1_666
Ga3 Tm0 3.123882 1_655
Ga4 Pt0 2.578542 1_555
Ga4 Ga7 2.614760 1_555
Ga4 Ga7 2.614760 1_566
Ga4 Ga8 2.663222 1_555
Ga4 Tm1 3.086272 1_555
Ga4 Tm1 3.086272 1_566
Ga4 Tm0 3.123882 1_555
Ga4 Tm0 3.123882 1_566
Ga5 Pt1 2.699172 1_556
Ga5 Pt1 2.699172 1_545
Ga5 Tm2 3.077773 1_556
Ga5 Tm2 3.077773 1_545
Ga5 Tm0 3.264061 1_656
Ga5 Tm1 3.504818 1_656
Ga6 Pt0 2.699172 1_565
Ga6 Pt0 2.699172 1_554
Ga6 Tm1 3.077773 1_555
Ga6 Tm1 3.077773 1_566
Ga6 Tm0 3.264061 1_565
Ga6 Tm2 3.504818 1_455
Ga7 Pt0 2.699172 1_555
Ga7 Pt0 2.699172 1_544
Ga7 Tm2 3.077773 1_556
Ga7 Tm2 3.077773 1_545
Ga7 Tm0 3.264061 1_555
Ga7 Tm1 3.504818 1_555
Ga8 Pt1 2.699172 1_555
Ga8 Pt1 2.699172 1_566
Ga8 Tm1 3.077773 1_555
Ga8 Tm1 3.077773 1_566
Ga8 Tm0 3.264061 1_666
Ga8 Tm2 3.504818 1_556
Pt0 Tm1 3.041149 1_556
Pt0 Tm2 3.041149 1_556
Pt1 Tm2 3.041149 1_555
Pt1 Tm1 3.041149 1_555
