# generated using pymatgen
data_KNd(SeO4)2
_symmetry_space_group_name_H-M   'P 1'
_cell_length_a   7.49310000
_cell_length_b   8.87122000
_cell_length_c   11.16156658
_cell_angle_alpha   88.29000491
_cell_angle_beta   90.00000000
_cell_angle_gamma   90.00000000
_symmetry_Int_Tables_number   1
_chemical_formula_structural   KNd(SeO4)2
_chemical_formula_sum   'K4 Nd4 Se8 O32'
_cell_volume   741.61172069
_cell_formula_units_Z   4
loop_
 _symmetry_equiv_pos_site_id
 _symmetry_equiv_pos_as_xyz
  1  'x, y, z'
loop_
 _atom_site_type_symbol
 _atom_site_label
 _atom_site_symmetry_multiplicity
 _atom_site_fract_x
 _atom_site_fract_y
 _atom_site_fract_z
 _atom_site_occupancy
  K  K0  1  0.34822000  0.43314500  0.83743200  1
  K  K1  1  0.65178000  0.56685500  0.16256800  1
  K  K2  1  0.84822000  0.56685500  0.66256800  1
  K  K3  1  0.15178000  0.43314500  0.33743200  1
  Nd  Nd0  1  0.16236400  0.94242900  0.84772500  1
  Nd  Nd1  1  0.83763600  0.05757100  0.15227500  1
  Nd  Nd2  1  0.66236400  0.05757100  0.65227500  1
  Nd  Nd3  1  0.33763600  0.94242900  0.34772500  1
  Se  Se0  1  0.16339600  0.19188000  0.60595000  1
  Se  Se1  1  0.83660400  0.80812000  0.39405000  1
  Se  Se2  1  0.66339600  0.80812000  0.89405000  1
  Se  Se3  1  0.33660400  0.19188000  0.10595000  1
  Se  Se4  1  0.33792300  0.71770700  0.58902900  1
  Se  Se5  1  0.66207700  0.28229300  0.41097100  1
  Se  Se6  1  0.83792300  0.28229300  0.91097100  1
  Se  Se7  1  0.16207700  0.71770700  0.08902900  1
  O  O0  1  0.81752600  0.86513600  0.53409100  1
  O  O1  1  0.18247400  0.13486400  0.46590900  1
  O  O2  1  0.31752600  0.13486400  0.96590900  1
  O  O3  1  0.68247400  0.86513600  0.03409100  1
  O  O4  1  0.50080400  0.90939600  0.82082700  1
  O  O5  1  0.49919600  0.09060400  0.17917300  1
  O  O6  1  0.00080400  0.09060400  0.67917300  1
  O  O7  1  0.99919600  0.90939600  0.32082700  1
  O  O8  1  0.13388000  0.37504700  0.60590500  1
  O  O9  1  0.86612000  0.62495300  0.39409500  1
  O  O10  1  0.63388000  0.62495300  0.89409500  1
  O  O11  1  0.36612000  0.37504700  0.10590500  1
  O  O12  1  0.25301500  0.69689500  0.95307500  1
  O  O13  1  0.74698500  0.30310500  0.04692500  1
  O  O14  1  0.75301500  0.30310500  0.54692500  1
  O  O15  1  0.24698500  0.69689500  0.45307500  1
  O  O16  1  0.43832400  0.88766800  0.55952300  1
  O  O17  1  0.56167600  0.11233200  0.44047700  1
  O  O18  1  0.93832400  0.11233200  0.94047700  1
  O  O19  1  0.06167600  0.88766800  0.05952300  1
  O  O20  1  0.48075800  0.58639600  0.63104600  1
  O  O21  1  0.51924200  0.41360400  0.36895400  1
  O  O22  1  0.98075800  0.41360400  0.86895400  1
  O  O23  1  0.01924200  0.58639600  0.13104600  1
  O  O24  1  0.83947600  0.85698800  0.80398500  1
  O  O25  1  0.16052400  0.14301200  0.19601500  1
  O  O26  1  0.33947600  0.14301200  0.69601500  1
  O  O27  1  0.66052400  0.85698800  0.30398500  1
  O  O28  1  0.18018100  0.74247900  0.69360300  1
  O  O29  1  0.81981900  0.25752100  0.30639700  1
  O  O30  1  0.68018100  0.25752100  0.80639700  1
  O  O31  1  0.31981900  0.74247900  0.19360300  1
loop_
_geom_bond_atom_site_label_1
_geom_bond_atom_site_label_2
_geom_bond_distance
_geom_bond_site_symmetry_2
K0 O22 2.780571 1_455
K0 O12 2.798178 1_555
K0 O10 2.818015 1_555
K0 O20 2.820322 1_555
K0 O30 2.960879 1_555
K0 O2 2.980727 1_555
K0 O11 3.028356 1_556
K0 O26 3.059875 1_555
K0 O8 3.098823 1_555
K1 O23 2.780571 1_655
K1 O13 2.798178 1_555
K1 O11 2.818015 1_555
K1 O21 2.820322 1_555
K1 O31 2.960879 1_555
K1 O3 2.980727 1_555
K1 O10 3.028356 1_554
K1 O27 3.059875 1_555
K1 O9 3.098823 1_555
K2 O20 2.780571 1_555
K2 O14 2.798178 1_555
K2 O8 2.818015 1_655
K2 O22 2.820322 1_555
K2 O28 2.960879 1_655
K2 O0 2.980727 1_555
K2 O9 3.028356 1_555
K2 O24 3.059875 1_555
K2 O10 3.098823 1_555
K3 O21 2.780571 1_555
K3 O15 2.798178 1_555
K3 O9 2.818015 1_455
K3 O23 2.820322 1_555
K3 O29 2.960879 1_455
K3 O1 2.980727 1_555
K3 O8 3.028356 1_555
K3 O25 3.059875 1_555
K3 O11 3.098823 1_555
Nd0 O2 2.478007 1_565
Nd0 O18 2.500978 1_465
Nd0 O28 2.511083 1_555
Nd0 O19 2.514987 1_556
Nd0 O12 2.536868 1_555
Nd0 O6 2.566150 1_565
Nd0 O4 2.571454 1_555
Nd0 O24 2.586232 1_455
Nd0 O26 2.759542 1_565
Nd1 O3 2.478007 1_545
Nd1 O19 2.500978 1_645
Nd1 O29 2.511083 1_555
Nd1 O18 2.514987 1_554
Nd1 O13 2.536868 1_555
Nd1 O7 2.566150 1_545
Nd1 O5 2.571454 1_555
Nd1 O25 2.586232 1_655
Nd1 O27 2.759542 1_545
Nd2 O0 2.478007 1_545
Nd2 O16 2.500978 1_545
Nd2 O30 2.511083 1_555
Nd2 O17 2.514987 1_555
Nd2 O14 2.536868 1_555
Nd2 O4 2.566150 1_545
Nd2 O6 2.571454 1_655
Nd2 O26 2.586232 1_555
Nd2 O24 2.759542 1_545
Nd3 O1 2.478007 1_565
Nd3 O17 2.500978 1_565
Nd3 O31 2.511083 1_555
Nd3 O16 2.514987 1_555
Nd3 O15 2.536868 1_555
Nd3 O5 2.566150 1_565
Nd3 O7 2.571454 1_455
Nd3 O27 2.586232 1_555
Nd3 O25 2.759542 1_565
O0 Se1 1.663329 1_555
O1 Se0 1.663329 1_555
O2 Se3 1.663329 1_556
O3 Se2 1.663329 1_554
O4 Se2 1.707520 1_555
O5 Se3 1.707520 1_555
O6 Se0 1.707520 1_555
O7 Se1 1.707520 1_555
O8 Se0 1.639882 1_555
O9 Se1 1.639882 1_555
O10 Se2 1.639882 1_555
O11 Se3 1.639882 1_555
O12 Se7 1.678633 1_556
O13 Se6 1.678633 1_554
O14 Se5 1.678633 1_555
O15 Se4 1.678633 1_555
O16 Se4 1.708259 1_555
O17 Se5 1.708259 1_555
O18 Se6 1.708259 1_555
O19 Se7 1.708259 1_555
O20 Se4 1.640059 1_555
O21 Se5 1.640059 1_555
O22 Se6 1.640059 1_555
O23 Se7 1.640059 1_555
O24 Se2 1.706830 1_555
O25 Se3 1.706830 1_555
O26 Se0 1.706830 1_555
O27 Se1 1.706830 1_555
O28 Se4 1.680193 1_555
O29 Se5 1.680193 1_555
O30 Se6 1.680193 1_555
O31 Se7 1.680193 1_555
