# generated using pymatgen
data_Sr2P7Rh12
_symmetry_space_group_name_H-M   'P 1'
_cell_length_a   9.72412811
_cell_length_b   9.72412811
_cell_length_c   3.89643200
_cell_angle_alpha   90.00000000
_cell_angle_beta   90.00000000
_cell_angle_gamma   120.00000072
_symmetry_Int_Tables_number   1
_chemical_formula_structural   Sr2P7Rh12
_chemical_formula_sum   'Sr2 P7 Rh12'
_cell_volume   319.07962514
_cell_formula_units_Z   1
loop_
 _symmetry_equiv_pos_site_id
 _symmetry_equiv_pos_as_xyz
  1  'x, y, z'
loop_
 _atom_site_type_symbol
 _atom_site_label
 _atom_site_symmetry_multiplicity
 _atom_site_fract_x
 _atom_site_fract_y
 _atom_site_fract_z
 _atom_site_occupancy
  Sr  Sr0  1  0.00000000  0.00000000  0.74747700  1
  Sr  Sr1  1  0.33333300  0.66666700  0.25295500  1
  P  P0  1  0.66666700  0.33333300  0.52523700  1
  P  P1  1  0.06693400  0.62193200  0.75476200  1
  P  P2  1  0.37806800  0.44500200  0.75476200  1
  P  P3  1  0.55499800  0.93306600  0.75476200  1
  P  P4  1  0.26661200  0.04434200  0.24603700  1
  P  P5  1  0.95565800  0.22227000  0.24603700  1
  P  P6  1  0.77773000  0.73338800  0.24603700  1
  Rh  Rh0  1  0.81524100  0.59349500  0.74919200  1
  Rh  Rh1  1  0.40650500  0.22174600  0.74919200  1
  Rh  Rh2  1  0.77825400  0.18475900  0.74919200  1
  Rh  Rh3  1  0.52036900  0.07689100  0.25371700  1
  Rh  Rh4  1  0.92310900  0.44347800  0.25371700  1
  Rh  Rh5  1  0.55652200  0.47963100  0.25371700  1
  Rh  Rh6  1  0.10870800  0.39459600  0.75236000  1
  Rh  Rh7  1  0.60540400  0.71411200  0.75236000  1
  Rh  Rh8  1  0.28588800  0.89129200  0.75236000  1
  Rh  Rh9  1  0.22499800  0.27360900  0.24868800  1
  Rh  Rh10  1  0.72639100  0.95138900  0.24868800  1
  Rh  Rh11  1  0.04861100  0.77500200  0.24868800  1
loop_
_geom_bond_atom_site_label_1
_geom_bond_atom_site_label_2
_geom_bond_distance
_geom_bond_site_symmetry_2
P0 Rh2 2.365138 1_555
P0 Rh0 2.365146 1_555
P0 Rh1 2.365146 1_555
P0 Rh4 2.411221 1_555
P0 Rh3 2.411221 1_555
P0 Rh5 2.411228 1_555
P1 Rh0 2.321718 1_455
P1 Rh8 2.411881 1_555
P1 Rh6 2.439272 1_555
P1 Rh11 2.493270 1_556
P1 Rh4 2.513970 1_456
P1 Rh4 2.520273 1_455
P1 Rh11 2.529986 1_555
P1 Sr1 3.088881 1_556
P1 Sr1 3.097750 1_555
P2 Rh1 2.321718 1_555
P2 Rh6 2.411881 1_555
P2 Rh7 2.439272 1_555
P2 Rh9 2.493270 1_556
P2 Rh5 2.513970 1_556
P2 Rh5 2.520273 1_555
P2 Rh9 2.529986 1_555
P2 Sr1 3.088888 1_556
P2 Sr1 3.097757 1_555
P3 Rh2 2.321718 1_565
P3 Rh7 2.411881 1_555
P3 Rh8 2.439272 1_555
P3 Rh10 2.493270 1_556
P3 Rh3 2.513970 1_566
P3 Rh3 2.520273 1_565
P3 Rh10 2.529986 1_555
P3 Sr1 3.088883 1_556
P3 Sr1 3.097752 1_555
P4 Rh3 2.325714 1_555
P4 Rh11 2.408626 1_545
P4 Rh9 2.456895 1_555
P4 Rh1 2.495509 1_554
P4 Rh8 2.495842 1_544
P4 Rh1 2.514630 1_555
P4 Rh8 2.534013 1_545
P4 Sr0 3.092437 1_554
P4 Sr0 3.099499 1_555
P5 Rh4 2.325714 1_555
P5 Rh9 2.408626 1_655
P5 Rh10 2.456895 1_545
P5 Rh2 2.495509 1_554
P5 Rh6 2.495842 1_654
P5 Rh2 2.514630 1_555
P5 Rh6 2.534013 1_655
P5 Sr0 3.092437 1_654
P5 Sr0 3.099499 1_655
P6 Rh5 2.325714 1_555
P6 Rh10 2.408626 1_555
P6 Rh11 2.456895 1_655
P6 Rh0 2.495509 1_554
P6 Rh7 2.495842 1_554
P6 Rh0 2.514630 1_555
P6 Rh7 2.534013 1_555
P6 Sr0 3.092437 1_664
P6 Sr0 3.099499 1_665
Rh0 Sr0 3.428044 1_665
Rh1 Sr0 3.428044 1_555
Rh2 Sr0 3.428044 1_655
Rh6 Sr1 3.127017 1_555
Rh6 Sr1 3.129904 1_556
Rh6 Sr0 3.432927 1_555
Rh7 Sr1 3.127020 1_555
Rh7 Sr1 3.129907 1_556
Rh7 Sr0 3.432927 1_665
Rh8 Sr1 3.127012 1_555
Rh8 Sr1 3.129899 1_556
Rh8 Sr0 3.432927 1_565
Rh9 Sr0 3.133975 1_555
Rh9 Sr0 3.139836 1_554
Rh10 Sr0 3.133975 1_665
Rh10 Sr0 3.139836 1_664
Rh11 Sr0 3.133975 1_565
Rh11 Sr0 3.139836 1_564
