# generated using pymatgen
data_SrNbNO2
_symmetry_space_group_name_H-M   'P 1'
_cell_length_a   4.08386600
_cell_length_b   4.08386600
_cell_length_c   4.10858700
_cell_angle_alpha   90.00000000
_cell_angle_beta   90.00000000
_cell_angle_gamma   90.00000000
_symmetry_Int_Tables_number   1
_chemical_formula_structural   SrNbNO2
_chemical_formula_sum   'Sr1 Nb1 N1 O2'
_cell_volume   68.52285583
_cell_formula_units_Z   1
loop_
 _symmetry_equiv_pos_site_id
 _symmetry_equiv_pos_as_xyz
  1  'x, y, z'
loop_
 _atom_site_type_symbol
 _atom_site_label
 _atom_site_symmetry_multiplicity
 _atom_site_fract_x
 _atom_site_fract_y
 _atom_site_fract_z
 _atom_site_occupancy
  Sr  Sr0  1  0.00000000  0.00000000  0.00000000  1
  Nb  Nb0  1  0.50000000  0.50000000  0.50000000  1
  N  N0  1  0.50000000  0.50000000  0.00000000  1
  O  O0  1  0.50000000  0.00000000  0.50000000  1
  O  O1  1  0.00000000  0.50000000  0.50000000  1
loop_
_geom_bond_atom_site_label_1
_geom_bond_atom_site_label_2
_geom_bond_distance
_geom_bond_site_symmetry_2
Nb0 O1 2.041933 1_555
Nb0 O0 2.041933 1_565
Nb0 O1 2.041933 1_655
Nb0 O0 2.041933 1_555
N0 Nb0 2.054293 1_554
N0 Nb0 2.054293 1_555
N0 Sr0 2.887729 1_555
N0 Sr0 2.887729 1_565
N0 Sr0 2.887729 1_665
N0 Sr0 2.887729 1_655
O0 Sr0 2.896483 1_555
O0 Sr0 2.896483 1_556
O0 Sr0 2.896483 1_656
O0 Sr0 2.896483 1_655
O1 Sr0 2.896483 1_555
O1 Sr0 2.896483 1_556
O1 Sr0 2.896483 1_566
O1 Sr0 2.896483 1_565
