# generated using pymatgen
data_LiMnP2O7
_symmetry_space_group_name_H-M   'P 1'
_cell_length_a   9.73213600
_cell_length_b   9.81313700
_cell_length_c   11.18753699
_cell_angle_alpha   78.26249462
_cell_angle_beta   90.00000000
_cell_angle_gamma   90.00000000
_symmetry_Int_Tables_number   1
_chemical_formula_structural   LiMnP2O7
_chemical_formula_sum   'Li8 Mn8 P16 O56'
_cell_volume   1046.09967542
_cell_formula_units_Z   8
loop_
 _symmetry_equiv_pos_site_id
 _symmetry_equiv_pos_as_xyz
  1  'x, y, z'
loop_
 _atom_site_type_symbol
 _atom_site_label
 _atom_site_symmetry_multiplicity
 _atom_site_fract_x
 _atom_site_fract_y
 _atom_site_fract_z
 _atom_site_occupancy
  Li  Li0  1  0.63549400  0.14640600  0.95723400  1
  Li  Li1  1  0.84439800  0.41201500  0.02414700  1
  Li  Li2  1  0.16125200  0.33870900  0.53987000  1
  Li  Li3  1  0.46407700  0.39466500  0.45345400  1
  Li  Li4  1  0.36450600  0.64640600  0.95723400  1
  Li  Li5  1  0.15560200  0.91201500  0.02414700  1
  Li  Li6  1  0.83874800  0.83870900  0.53987000  1
  Li  Li7  1  0.53592300  0.89466500  0.45345400  1
  Mn  Mn0  1  0.17858200  0.20591100  0.32150200  1
  Mn  Mn1  1  0.47448500  0.27273200  0.16203500  1
  Mn  Mn2  1  0.97508400  0.21340200  0.83826400  1
  Mn  Mn3  1  0.68071900  0.31136200  0.66451000  1
  Mn  Mn4  1  0.82141800  0.70591100  0.32150200  1
  Mn  Mn5  1  0.52551500  0.77273200  0.16203500  1
  Mn  Mn6  1  0.02491600  0.71340200  0.83826400  1
  Mn  Mn7  1  0.31928100  0.81136200  0.66451000  1
  P  P0  1  0.69951400  0.02314500  0.24421000  1
  P  P1  1  0.96438600  0.11603300  0.11789600  1
  P  P2  1  0.18033400  0.06479900  0.75608800  1
  P  P3  1  0.40431100  0.13563600  0.57646300  1
  P  P4  1  0.89057100  0.38381900  0.42429700  1
  P  P5  1  0.66872400  0.43161000  0.24227400  1
  P  P6  1  0.30048600  0.52314500  0.24421000  1
  P  P7  1  0.46004700  0.37982600  0.88201700  1
  P  P8  1  0.03561400  0.61603300  0.11789600  1
  P  P9  1  0.18778400  0.46464200  0.76100200  1
  P  P10  1  0.81966600  0.56479900  0.75608800  1
  P  P11  1  0.59568900  0.63563600  0.57646300  1
  P  P12  1  0.10942900  0.88381900  0.42429700  1
  P  P13  1  0.33127600  0.93161000  0.24227400  1
  P  P14  1  0.53995300  0.87982600  0.88201700  1
  P  P15  1  0.81221600  0.96464200  0.76100200  1
  O  O0  1  0.66357000  0.02372900  0.37336200  1
  O  O1  1  0.10850200  0.04138500  0.42603800  1
  O  O2  1  0.34119500  0.08224700  0.25943500  1
  O  O3  1  0.60526000  0.10618800  0.14398500  1
  O  O4  1  0.84701800  0.09520200  0.22153300  1
  O  O5  1  0.07694100  0.19416300  0.17274200  1
  O  O6  1  0.89775600  0.21699800  0.00300200  1
  O  O7  1  0.51539700  0.01992400  0.90913300  1
  O  O8  1  0.32613200  0.12617900  0.70588600  1
  O  O9  1  0.16518100  0.06731400  0.88977200  1
  O  O10  1  0.80283200  0.10972400  0.80239400  1
  O  O11  1  0.54036500  0.20729200  0.59168400  1
  O  O12  1  0.06969000  0.16995800  0.69083700  1
  O  O13  1  0.31454500  0.23004200  0.47905800  1
  O  O14  1  0.81228900  0.29866700  0.53349500  1
  O  O15  1  0.55047500  0.33648200  0.30755600  1
  O  O16  1  0.03421300  0.32836300  0.41005900  1
  O  O17  1  0.28787000  0.36885300  0.21655600  1
  O  O18  1  0.80996900  0.36778500  0.30150000  1
  O  O19  1  0.66430700  0.40473700  0.11263200  1
  O  O20  1  0.99889000  0.47915800  0.08980800  1
  O  O21  1  0.42026200  0.26833000  0.99809600  1
  O  O22  1  0.58102800  0.31379600  0.82107900  1
  O  O23  1  0.33559300  0.38762100  0.78705000  1
  O  O24  1  0.82813900  0.41606000  0.72751600  1
  O  O25  1  0.08604800  0.37470200  0.85005500  1
  O  O26  1  0.33643000  0.52372900  0.37336200  1
  O  O27  1  0.57998800  0.48740000  0.55727000  1
  O  O28  1  0.89149800  0.54138500  0.42603800  1
  O  O29  1  0.16381700  0.47672500  0.62826200  1
  O  O30  1  0.39474000  0.60618800  0.14398500  1
  O  O31  1  0.65880500  0.58224700  0.25943500  1
  O  O32  1  0.15298200  0.59520200  0.22153300  1
  O  O33  1  0.92305900  0.69416300  0.17274200  1
  O  O34  1  0.10224400  0.71699800  0.00300200  1
  O  O35  1  0.48460300  0.51992400  0.90913300  1
  O  O36  1  0.83481900  0.56731400  0.88977200  1
  O  O37  1  0.67386800  0.62617900  0.70588600  1
  O  O38  1  0.19716800  0.60972400  0.80239400  1
  O  O39  1  0.45963500  0.70729200  0.59168400  1
  O  O40  1  0.93031000  0.66995800  0.69083700  1
  O  O41  1  0.68545500  0.73004200  0.47905800  1
  O  O42  1  0.18771100  0.79866700  0.53349500  1
  O  O43  1  0.44952500  0.83648200  0.30755600  1
  O  O44  1  0.96578700  0.82836300  0.41005900  1
  O  O45  1  0.71213000  0.86885300  0.21655600  1
  O  O46  1  0.33569300  0.90473700  0.11263200  1
  O  O47  1  0.19003100  0.86778500  0.30150000  1
  O  O48  1  0.00111000  0.97915800  0.08980800  1
  O  O49  1  0.57973800  0.76833000  0.99809600  1
  O  O50  1  0.41897200  0.81379600  0.82107900  1
  O  O51  1  0.66440700  0.88762100  0.78705000  1
  O  O52  1  0.91395200  0.87470200  0.85005500  1
  O  O53  1  0.17186100  0.91606000  0.72751600  1
  O  O54  1  0.42001200  0.98740000  0.55727000  1
  O  O55  1  0.83618300  0.97672500  0.62826200  1
loop_
_geom_bond_atom_site_label_1
_geom_bond_atom_site_label_2
_geom_bond_distance
_geom_bond_site_symmetry_2
Li0 O7 1.862248 1_555
Li0 O3 2.066873 1_556
Li0 O22 2.069164 1_555
Li0 O10 2.456880 1_555
Li1 O20 1.852373 1_555
Li1 O36 1.912863 1_554
Li1 O19 2.007025 1_555
Li1 O6 2.042588 1_555
Li2 O29 1.832417 1_555
Li2 O16 1.925606 1_555
Li2 O13 2.029983 1_555
Li2 O12 2.291492 1_555
Li3 O26 1.867750 1_555
Li3 O27 1.969680 1_555
Li3 O15 2.019002 1_555
Li3 O13 2.149725 1_555
Li3 O11 2.273044 1_555
Li4 O35 1.862248 1_555
Li4 O30 2.066873 1_556
Li4 O50 2.069164 1_555
Li4 O38 2.456880 1_555
Li5 O48 1.852373 1_555
Li5 O9 1.912863 1_564
Li5 O46 2.007025 1_555
Li5 O34 2.042588 1_555
Li6 O55 1.832417 1_555
Li6 O44 1.925606 1_555
Li6 O41 2.029983 1_555
Li6 O40 2.291492 1_555
Li7 O0 1.867750 1_565
Li7 O54 1.969680 1_555
Li7 O43 2.019002 1_555
Li7 O41 2.149725 1_555
Li7 O39 2.273044 1_555
Mn0 O1 1.916074 1_555
Mn0 O5 1.959487 1_555
Mn0 O17 2.074282 1_555
Mn0 O2 2.191390 1_555
Mn0 O16 2.209962 1_555
Mn0 O13 2.254721 1_555
Mn1 O21 1.917394 1_554
Mn1 O15 2.000778 1_555
Mn1 O3 2.113260 1_555
Mn1 O17 2.189587 1_555
Mn1 O19 2.259423 1_555
Mn1 O2 2.352763 1_555
Mn2 O25 1.942682 1_655
Mn2 O6 1.997688 1_556
Mn2 O12 2.008953 1_655
Mn2 O10 2.042674 1_555
Mn2 O9 2.339615 1_655
Mn2 O24 2.555923 1_555
Mn3 O14 1.969203 1_555
Mn3 O24 1.976231 1_555
Mn3 O11 1.977649 1_555
Mn3 O22 2.006756 1_555
Mn3 O27 2.131061 1_555
Mn3 O10 2.542697 1_555
Mn4 O28 1.916074 1_555
Mn4 O33 1.959487 1_555
Mn4 O45 2.074282 1_555
Mn4 O31 2.191390 1_555
Mn4 O44 2.209962 1_555
Mn4 O41 2.254721 1_555
Mn5 O49 1.917394 1_554
Mn5 O43 2.000778 1_555
Mn5 O30 2.113260 1_555
Mn5 O45 2.189587 1_555
Mn5 O46 2.259423 1_555
Mn5 O31 2.352763 1_555
Mn6 O52 1.942682 1_455
Mn6 O34 1.997688 1_556
Mn6 O40 2.008953 1_455
Mn6 O38 2.042674 1_555
Mn6 O36 2.339615 1_455
Mn6 O53 2.555923 1_555
Mn7 O42 1.969203 1_555
Mn7 O53 1.976231 1_555
Mn7 O39 1.977649 1_555
Mn7 O50 2.006756 1_555
Mn7 O54 2.131061 1_555
Mn7 O38 2.542697 1_555
O0 P0 1.487779 1_555
O1 P12 1.550323 1_545
O2 P13 1.531922 1_545
O3 P0 1.546285 1_555
O4 P0 1.597535 1_555
O4 P1 1.610708 1_555
O5 P1 1.534806 1_455
O6 P1 1.592545 1_555
O7 P14 1.486238 1_545
O8 P2 1.598109 1_555
O8 P3 1.621517 1_555
O9 P2 1.508038 1_555
O10 P15 1.586808 1_545
O11 P3 1.524924 1_555
O12 P2 1.565506 1_555
O13 P3 1.548616 1_555
O14 P4 1.534853 1_555
O15 P5 1.565830 1_555
O16 P4 1.520210 1_455
O17 P6 1.610540 1_555
O18 P5 1.597509 1_555
O18 P4 1.617204 1_555
O19 P5 1.526627 1_555
O20 P8 1.484021 1_655
O21 P7 1.566971 1_555
O22 P7 1.565451 1_555
O23 P7 1.602683 1_555
O23 P9 1.623528 1_555
O24 P10 1.558596 1_555
O25 P9 1.547292 1_555
O26 P6 1.487779 1_555
O27 P11 1.520714 1_555
O28 P4 1.550323 1_555
O29 P9 1.483964 1_555
O30 P6 1.546285 1_555
O31 P5 1.531922 1_555
O32 P6 1.597535 1_555
O32 P8 1.610708 1_555
O33 P8 1.534806 1_655
O34 P8 1.592545 1_555
O35 P7 1.486238 1_555
O36 P10 1.508038 1_555
O37 P10 1.598109 1_555
O37 P11 1.621517 1_555
O38 P9 1.586808 1_555
O39 P11 1.524924 1_555
O40 P10 1.565506 1_555
O41 P11 1.548616 1_555
O42 P12 1.534853 1_555
O43 P13 1.565830 1_555
O44 P12 1.520210 1_655
O45 P0 1.610540 1_565
O46 P13 1.526627 1_555
O47 P13 1.597509 1_555
O47 P12 1.617204 1_555
O48 P1 1.484021 1_465
O49 P14 1.566971 1_555
O50 P14 1.565451 1_555
O51 P14 1.602683 1_555
O51 P15 1.623528 1_555
O52 P15 1.547292 1_555
O53 P2 1.558596 1_565
O54 P3 1.520714 1_565
O55 P15 1.483964 1_555
