# generated using pymatgen
data_NaCu3O2
_symmetry_space_group_name_H-M   'P 1'
_cell_length_a   5.55213400
_cell_length_b   6.27997302
_cell_length_c   5.95756900
_cell_angle_alpha   61.68420870
_cell_angle_beta   90.00000000
_cell_angle_gamma   63.76519736
_symmetry_Int_Tables_number   1
_chemical_formula_structural   NaCu3O2
_chemical_formula_sum   'Na2 Cu6 O4'
_cell_volume   158.14355169
_cell_formula_units_Z   2
loop_
 _symmetry_equiv_pos_site_id
 _symmetry_equiv_pos_as_xyz
  1  'x, y, z'
loop_
 _atom_site_type_symbol
 _atom_site_label
 _atom_site_symmetry_multiplicity
 _atom_site_fract_x
 _atom_site_fract_y
 _atom_site_fract_z
 _atom_site_occupancy
  Na  Na0  1  0.75000000  0.00000000  0.50000000  1
  Na  Na1  1  0.25000000  0.00000000  0.50000000  1
  Cu  Cu0  1  0.00000000  0.00000000  0.00000000  1
  Cu  Cu1  1  0.50000000  0.00000000  0.00000000  1
  Cu  Cu2  1  0.50000000  0.50000000  0.00000000  1
  Cu  Cu3  1  0.00000000  0.50000000  0.00000000  1
  Cu  Cu4  1  0.00000000  0.50000000  0.50000000  1
  Cu  Cu5  1  0.50000000  0.50000000  0.50000000  1
  O  O0  1  0.38103000  0.23794000  0.13613000  1
  O  O1  1  0.88103000  0.23794000  0.62593000  1
  O  O2  1  0.11897000  0.76206000  0.37407000  1
  O  O3  1  0.61897000  0.76206000  0.86387000  1
loop_
_geom_bond_atom_site_label_1
_geom_bond_atom_site_label_2
_geom_bond_distance
_geom_bond_site_symmetry_2
Na0 O0 2.312894 1_555
Na0 O3 2.312894 1_545
Na0 O1 2.312894 1_555
Na0 O2 2.312894 1_645
Na1 O0 2.312894 1_555
Na1 O3 2.312894 1_545
Na1 O1 2.312894 1_455
Na1 O2 2.312894 1_545
Cu0 O1 1.898382 1_454
Cu0 O2 1.898382 1_545
Cu1 O0 1.898382 1_555
Cu1 O3 1.898382 1_544
Cu2 O0 1.870125 1_555
Cu2 O3 1.870125 1_554
Cu3 O0 1.870125 1_555
Cu3 O3 1.870125 1_454
Cu4 O1 1.870125 1_455
Cu4 O2 1.870125 1_555
Cu5 O1 1.870125 1_555
Cu5 O2 1.870125 1_555
