# generated using pymatgen
data_MgSiAs2
_symmetry_space_group_name_H-M   'P 1'
_cell_length_a   5.91231198
_cell_length_b   5.91231198
_cell_length_c   6.79028012
_cell_angle_alpha   115.80763769
_cell_angle_beta   115.80763769
_cell_angle_gamma   90.00000000
_symmetry_Int_Tables_number   1
_chemical_formula_structural   MgSiAs2
_chemical_formula_sum   'Mg2 Si2 As4'
_cell_volume   187.03667896
_cell_formula_units_Z   2
loop_
 _symmetry_equiv_pos_site_id
 _symmetry_equiv_pos_as_xyz
  1  'x, y, z'
loop_
 _atom_site_type_symbol
 _atom_site_label
 _atom_site_symmetry_multiplicity
 _atom_site_fract_x
 _atom_site_fract_y
 _atom_site_fract_z
 _atom_site_occupancy
  Mg  Mg0  1  0.50000000  0.50000000  0.00000000  1
  Mg  Mg1  1  0.75000000  0.25000000  0.50000000  1
  Si  Si0  1  -0.00000000  -0.00000000  -0.00000000  1
  Si  Si1  1  0.25000000  0.75000000  0.50000000  1
  As  As0  1  0.12500000  0.66122743  0.75000000  1
  As  As1  1  0.33877257  0.37500000  0.25000000  1
  As  As2  1  0.91122743  0.87500000  0.25000000  1
  As  As3  1  0.62500000  0.08877257  0.75000000  1
loop_
_geom_bond_atom_site_label_1
_geom_bond_atom_site_label_2
_geom_bond_distance
_geom_bond_site_symmetry_2
As0 Si0 2.360407 1_566
As0 Si1 2.360407 1_555
As0 Mg1 2.614931 1_455
As0 Mg0 2.614931 1_556
As1 Si1 2.360407 1_555
As1 Si0 2.360407 1_555
As1 Mg1 2.614931 1_555
As1 Mg0 2.614931 1_555
As2 Si0 2.360407 1_665
As2 Si1 2.360407 1_655
As2 Mg1 2.614931 1_565
As2 Mg0 2.614931 1_555
As3 Si0 2.360407 1_656
As3 Si1 2.360407 1_545
As3 Mg0 2.614931 1_556
As3 Mg1 2.614931 1_555
