# generated using pymatgen
data_Cs3CeCl6
_symmetry_space_group_name_H-M   'P 1'
_cell_length_a   14.28448885
_cell_length_b   14.28448885
_cell_length_c   13.32217090
_cell_angle_alpha   80.70130685
_cell_angle_beta   80.70130685
_cell_angle_gamma   33.97945153
_symmetry_Int_Tables_number   1
_chemical_formula_structural   Cs3CeCl6
_chemical_formula_sum   'Cs12 Ce4 Cl24'
_cell_volume   1497.42894375
_cell_formula_units_Z   4
loop_
 _symmetry_equiv_pos_site_id
 _symmetry_equiv_pos_as_xyz
  1  'x, y, z'
loop_
 _atom_site_type_symbol
 _atom_site_label
 _atom_site_symmetry_multiplicity
 _atom_site_fract_x
 _atom_site_fract_y
 _atom_site_fract_z
 _atom_site_occupancy
  Cs  Cs0  1  0.29887211  0.80146771  0.06656279  1
  Cs  Cs1  1  0.70112789  0.19853229  0.93343721  1
  Cs  Cs2  1  0.19853229  0.70112789  0.43343721  1
  Cs  Cs3  1  0.80146771  0.29887211  0.56656279  1
  Cs  Cs4  1  0.46680440  0.84139514  0.35511122  1
  Cs  Cs5  1  0.53319560  0.15860486  0.64488878  1
  Cs  Cs6  1  0.15860486  0.53319560  0.14488878  1
  Cs  Cs7  1  0.84139514  0.46680440  0.85511122  1
  Cs  Cs8  1  0.65039135  0.02533760  0.29994737  1
  Cs  Cs9  1  0.34960865  0.97466240  0.70005263  1
  Cs  Cs10  1  0.97466240  0.34960865  0.20005263  1
  Cs  Cs11  1  0.02533760  0.65039135  0.79994737  1
  Ce  Ce0  1  0.78395050  0.21604950  0.25000000  1
  Ce  Ce1  1  0.21604950  0.78395050  0.75000000  1
  Ce  Ce2  1  0.50000000  0.00000000  -0.00000000  1
  Ce  Ce3  1  -0.00000000  0.50000000  0.50000000  1
  Cl  Cl0  1  0.61850513  0.72433683  0.08106896  1
  Cl  Cl1  1  0.38149487  0.27566317  0.91893104  1
  Cl  Cl2  1  0.27566317  0.38149487  0.41893104  1
  Cl  Cl3  1  0.72433683  0.61850513  0.58106896  1
  Cl  Cl4  1  0.49790104  0.38494074  0.17754030  1
  Cl  Cl5  1  0.50209896  0.61505926  0.82245970  1
  Cl  Cl6  1  0.61505926  0.50209896  0.32245970  1
  Cl  Cl7  1  0.38494074  0.49790104  0.67754030  1
  Cl  Cl8  1  0.78131269  0.86644860  0.03367027  1
  Cl  Cl9  1  0.21868731  0.13355140  0.96632973  1
  Cl  Cl10  1  0.13355140  0.21868731  0.46632973  1
  Cl  Cl11  1  0.86644860  0.78131269  0.53367027  1
  Cl  Cl12  1  0.91055046  0.97189877  0.69611454  1
  Cl  Cl13  1  0.08944954  0.02810123  0.30388546  1
  Cl  Cl14  1  0.02810123  0.08944954  0.80388546  1
  Cl  Cl15  1  0.97189877  0.91055046  0.19611454  1
  Cl  Cl16  1  0.71940194  0.16343594  0.43775470  1
  Cl  Cl17  1  0.28059806  0.83656406  0.56224530  1
  Cl  Cl18  1  0.83656406  0.28059806  0.06224530  1
  Cl  Cl19  1  0.16343594  0.71940194  0.93775470  1
  Cl  Cl20  1  0.35885992  0.14199449  0.18833379  1
  Cl  Cl21  1  0.64114008  0.85800551  0.81166621  1
  Cl  Cl22  1  0.85800551  0.64114008  0.31166621  1
  Cl  Cl23  1  0.14199449  0.35885992  0.68833379  1
loop_
_geom_bond_atom_site_label_1
_geom_bond_atom_site_label_2
_geom_bond_distance
_geom_bond_site_symmetry_2
Ce0 Cl16 2.732757 1_555
Ce0 Cl18 2.732757 1_555
Ce0 Cl4 2.760675 1_555
Ce0 Cl6 2.760675 1_555
Ce0 Cl15 2.779517 1_545
Ce0 Cl13 2.779517 1_655
Ce1 Cl19 2.732757 1_555
Ce1 Cl17 2.732757 1_555
Ce1 Cl7 2.760675 1_555
Ce1 Cl5 2.760675 1_555
Ce1 Cl12 2.779517 1_455
Ce1 Cl14 2.779517 1_565
Ce2 Cl9 2.753237 1_554
Ce2 Cl8 2.753237 1_545
Ce2 Cl0 2.774721 1_545
Ce2 Cl1 2.774721 1_554
Ce2 Cl21 2.775212 1_544
Ce2 Cl20 2.775212 1_555
Ce3 Cl11 2.753237 1_455
Ce3 Cl10 2.753237 1_555
Ce3 Cl3 2.774721 1_455
Ce3 Cl2 2.774721 1_555
Ce3 Cl22 2.775212 1_455
Ce3 Cl23 2.775212 1_555
Cl0 Cs10 3.427483 1_555
Cl0 Cs7 3.713216 1_554
Cl0 Cs0 3.737799 1_555
Cl0 Cs4 3.771889 1_555
Cl1 Cs11 3.427483 1_555
Cl1 Cs6 3.713216 1_556
Cl1 Cs1 3.737799 1_555
Cl1 Cs5 3.771889 1_555
Cl2 Cs8 3.427483 1_555
Cl2 Cs5 3.713216 1_555
Cl2 Cs2 3.737799 1_555
Cl2 Cs6 3.771889 1_555
Cl3 Cs9 3.427483 1_555
Cl3 Cs4 3.713216 1_555
Cl3 Cs3 3.737799 1_555
Cl3 Cs7 3.771889 1_555
Cl4 Cs6 3.394890 1_555
Cl4 Cs1 3.608406 1_554
Cl4 Cs8 3.697870 1_555
Cl4 Cs0 4.016348 1_555
Cl5 Cs7 3.394890 1_555
Cl5 Cs0 3.608406 1_556
Cl5 Cs9 3.697870 1_555
Cl5 Cs1 4.016348 1_555
Cl6 Cs4 3.394890 1_555
Cl6 Cs3 3.608406 1_555
Cl6 Cs10 3.697870 1_555
Cl6 Cs2 4.016348 1_555
Cl7 Cs5 3.394890 1_555
Cl7 Cs2 3.608406 1_555
Cl7 Cs11 3.697870 1_555
Cl7 Cs3 4.016348 1_555
Cl8 Cs6 3.413838 1_655
Cl8 Cs11 3.623098 1_654
Cl8 Cs8 3.827686 1_565
Cl8 Cs1 3.877287 1_564
Cl9 Cs7 3.413838 1_455
Cl9 Cs10 3.623098 1_456
Cl9 Cs9 3.827686 1_545
Cl9 Cs0 3.877287 1_546
Cl10 Cs4 3.413838 1_545
Cl10 Cs9 3.623098 1_545
Cl10 Cs10 3.827686 1_455
Cl10 Cs3 3.877287 1_455
Cl11 Cs5 3.413838 1_565
Cl11 Cs8 3.623098 1_565
Cl11 Cs11 3.827686 1_655
Cl11 Cs2 3.877287 1_655
Cl12 Cs11 3.447435 1_655
Cl12 Cs5 3.659582 1_565
Cl12 Cs3 3.662746 1_565
Cl12 Cs1 3.689874 1_565
Cl13 Cs10 3.447435 1_455
Cl13 Cs4 3.659582 1_545
Cl13 Cs2 3.662746 1_545
Cl13 Cs0 3.689874 1_545
Cl14 Cs9 3.447435 1_545
Cl14 Cs7 3.659582 1_455
Cl14 Cs1 3.662746 1_455
Cl14 Cs3 3.689874 1_455
Cl15 Cs8 3.447435 1_565
Cl15 Cs6 3.659582 1_655
Cl15 Cs0 3.662746 1_655
Cl15 Cs2 3.689874 1_655
Cl16 Cs5 3.544751 1_555
Cl16 Cs8 3.635105 1_555
Cl16 Cs3 3.680476 1_555
Cl16 Cs2 3.936066 1_645
Cl17 Cs4 3.544751 1_555
Cl17 Cs9 3.635105 1_555
Cl17 Cs2 3.680476 1_555
Cl17 Cs3 3.936066 1_465
Cl18 Cs7 3.544751 1_554
Cl18 Cs10 3.635105 1_555
Cl18 Cs1 3.680476 1_554
Cl18 Cs0 3.936066 1_645
Cl19 Cs6 3.544751 1_556
Cl19 Cs11 3.635105 1_555
Cl19 Cs0 3.680476 1_556
Cl19 Cs1 3.936066 1_465
Cl20 Cs10 3.437759 1_455
Cl20 Cs8 3.467171 1_555
Cl20 Cs6 3.567030 1_555
Cl20 Cs4 3.577034 1_545
Cl21 Cs11 3.437759 1_655
Cl21 Cs9 3.467171 1_555
Cl21 Cs7 3.567030 1_555
Cl21 Cs5 3.577034 1_565
Cl22 Cs8 3.437759 1_565
Cl22 Cs10 3.467171 1_555
Cl22 Cs4 3.567030 1_555
Cl22 Cs6 3.577034 1_655
Cl23 Cs9 3.437759 1_545
Cl23 Cs11 3.467171 1_555
Cl23 Cs5 3.567030 1_555
Cl23 Cs7 3.577034 1_455
