# generated using pymatgen
data_Ti12AlSi3C8
_symmetry_space_group_name_H-M   'P 1'
_cell_length_a   6.15953256
_cell_length_b   6.15982285
_cell_length_c   17.91182309
_cell_angle_alpha   89.98973212
_cell_angle_beta   90.00197291
_cell_angle_gamma   119.99180140
_symmetry_Int_Tables_number   1
_chemical_formula_structural   Ti12AlSi3C8
_chemical_formula_sum   'Ti24 Al2 Si6 C16'
_cell_volume   588.60272247
_cell_formula_units_Z   2
loop_
 _symmetry_equiv_pos_site_id
 _symmetry_equiv_pos_as_xyz
  1  'x, y, z'
loop_
 _atom_site_type_symbol
 _atom_site_label
 _atom_site_symmetry_multiplicity
 _atom_site_fract_x
 _atom_site_fract_y
 _atom_site_fract_z
 _atom_site_occupancy
  Ti  Ti0  1  0.00034000  0.00007400  0.00011200  1
  Ti  Ti1  1  0.00060300  0.50002900  0.00022100  1
  Ti  Ti2  1  0.50059700  0.50013900  0.99999100  1
  Ti  Ti3  1  0.50064400  0.00002200  0.00010700  1
  Ti  Ti4  1  0.00021200  0.00003800  0.49987200  1
  Ti  Ti5  1  0.00040800  0.49995100  0.49977800  1
  Ti  Ti6  1  0.50050100  0.50008100  0.49999200  1
  Ti  Ti7  1  0.50058000  0.00005500  0.49988400  1
  Ti  Ti8  1  0.66445700  0.83223000  0.86752900  1
  Ti  Ti9  1  0.66724600  0.33352000  0.86447200  1
  Ti  Ti10  1  0.16841000  0.33618800  0.86767500  1
  Ti  Ti11  1  0.16842800  0.83208800  0.86776700  1
  Ti  Ti12  1  0.83238700  0.16793700  0.13265900  1
  Ti  Ti13  1  0.33391200  0.66662200  0.13570400  1
  Ti  Ti14  1  0.83238500  0.66394400  0.13252500  1
  Ti  Ti15  1  0.33651200  0.16805100  0.13243500  1
  Ti  Ti16  1  0.66444700  0.83218800  0.63259900  1
  Ti  Ti17  1  0.66722300  0.33347800  0.63563200  1
  Ti  Ti18  1  0.16840400  0.33615700  0.63246200  1
  Ti  Ti19  1  0.16841500  0.83203800  0.63238700  1
  Ti  Ti20  1  0.83221100  0.16788900  0.36722500  1
  Ti  Ti21  1  0.33369100  0.66659500  0.36416800  1
  Ti  Ti22  1  0.83216300  0.66388300  0.36735400  1
  Ti  Ti23  1  0.33636800  0.16805200  0.36743900  1
  Al  Al0  1  0.00060300  0.99991700  0.75012700  1
  Al  Al1  1  0.00079700  0.00024500  0.24988800  1
  Si  Si0  1  0.01118800  0.50561500  0.75012200  1
  Si  Si1  1  0.49548700  0.50575900  0.75011500  1
  Si  Si2  1  0.49487000  0.98947000  0.75011400  1
  Si  Si3  1  0.98979200  0.49430100  0.24987100  1
  Si  Si4  1  0.50559300  0.49449700  0.24986600  1
  Si  Si5  1  0.50569900  0.01073100  0.24987800  1
  C  C0  1  0.66619700  0.83291300  0.42807700  1
  C  C1  1  0.66710400  0.33322100  0.42916500  1
  C  C2  1  0.16732800  0.33406500  0.42807400  1
  C  C3  1  0.16737700  0.83291100  0.42806700  1
  C  C4  1  0.83331200  0.16713800  0.57170600  1
  C  C5  1  0.33388700  0.66683000  0.57065300  1
  C  C6  1  0.83329800  0.66599500  0.57171300  1
  C  C7  1  0.33453400  0.16714400  0.57172900  1
  C  C8  1  0.66631900  0.83295100  0.07184900  1
  C  C9  1  0.66720300  0.33327900  0.07079800  1
  C  C10  1  0.16746900  0.33412900  0.07187100  1
  C  C11  1  0.16748900  0.83292800  0.07187900  1
  C  C12  1  0.83344500  0.16712800  0.92837900  1
  C  C13  1  0.33397200  0.66685100  0.92937800  1
  C  C14  1  0.83341600  0.66607900  0.92835000  1
  C  C15  1  0.33457900  0.16715400  0.92834300  1
loop_
_geom_bond_atom_site_label_1
_geom_bond_atom_site_label_2
_geom_bond_distance
_geom_bond_site_symmetry_2
Al0 Ti8 2.763587 1_455
Al0 Ti11 2.764933 1_555
Al0 Ti16 2.765512 1_455
Al0 Ti10 2.766406 1_565
Al0 Ti19 2.766762 1_555
Al0 Ti18 2.767384 1_565
Al1 Ti12 2.760879 1_455
Al1 Ti15 2.762790 1_555
Al1 Ti20 2.763130 1_455
Al1 Ti23 2.763803 1_555
Al1 Ti14 2.763989 1_445
Al1 Ti22 2.765094 1_445
Si0 Ti10 2.733132 1_555
Si0 Ti11 2.734376 1_555
Si0 Ti19 2.734944 1_555
Si0 Ti18 2.735035 1_555
Si0 Ti9 2.749795 1_455
Si0 Ti17 2.751920 1_455
Si1 Ti8 2.731164 1_555
Si1 Ti16 2.731929 1_555
Si1 Ti10 2.734872 1_555
Si1 Ti18 2.736359 1_555
Si1 Ti9 2.749883 1_555
Si1 Ti17 2.751970 1_555
Si2 Ti8 2.731846 1_555
Si2 Ti16 2.733655 1_555
Si2 Ti11 2.733982 1_555
Si2 Ti19 2.735206 1_555
Si2 Ti9 2.750687 1_565
Si2 Ti17 2.751681 1_565
Si3 Ti12 2.728013 1_555
Si3 Ti20 2.729620 1_555
Si3 Ti14 2.731644 1_555
Si3 Ti22 2.734408 1_555
Si3 Ti13 2.747989 1_655
Si3 Ti21 2.749110 1_655
Si4 Ti14 2.730884 1_555
Si4 Ti15 2.731323 1_555
Si4 Ti22 2.732341 1_555
Si4 Ti23 2.732791 1_555
Si4 Ti13 2.746599 1_555
Si4 Ti21 2.749494 1_555
Si5 Ti12 2.728858 1_555
Si5 Ti20 2.730180 1_555
Si5 Ti15 2.731123 1_555
Si5 Ti23 2.733573 1_555
Si5 Ti13 2.748443 1_545
Si5 Ti21 2.749574 1_545
C0 Ti22 2.092065 1_555
C0 Ti20 2.093109 1_565
C0 Ti21 2.111198 1_555
C0 Ti7 2.192154 1_565
C0 Ti6 2.193492 1_555
C0 Ti4 2.197535 1_665
C1 Ti23 2.082245 1_555
C1 Ti22 2.082555 1_555
C1 Ti20 2.082848 1_555
C1 Ti5 2.182119 1_655
C1 Ti7 2.182430 1_555
C1 Ti6 2.184950 1_555
C2 Ti23 2.091503 1_555
C2 Ti20 2.093881 1_455
C2 Ti21 2.111105 1_555
C2 Ti5 2.191271 1_555
C2 Ti6 2.195188 1_555
C2 Ti4 2.197424 1_555
C3 Ti23 2.091776 1_565
C3 Ti22 2.093061 1_455
C3 Ti21 2.111564 1_555
C3 Ti5 2.191900 1_555
C3 Ti7 2.194258 1_565
C3 Ti4 2.198755 1_565
C4 Ti18 2.092907 1_655
C4 Ti16 2.093373 1_545
C4 Ti17 2.110926 1_555
C4 Ti7 2.192277 1_555
C4 Ti5 2.193547 1_655
C4 Ti4 2.197796 1_655
C5 Ti19 2.081974 1_555
C5 Ti18 2.082586 1_555
C5 Ti16 2.083546 1_555
C5 Ti6 2.182790 1_555
C5 Ti7 2.183206 1_565
C5 Ti5 2.185603 1_555
C6 Ti19 2.092254 1_655
C6 Ti16 2.093796 1_555
C6 Ti17 2.111173 1_555
C6 Ti6 2.191493 1_555
C6 Ti5 2.195202 1_655
C6 Ti4 2.197944 1_665
C7 Ti19 2.091894 1_545
C7 Ti18 2.092826 1_555
C7 Ti17 2.111960 1_555
C7 Ti6 2.192073 1_555
C7 Ti7 2.194175 1_555
C7 Ti4 2.199512 1_555
C8 Ti14 2.091746 1_555
C8 Ti12 2.093110 1_565
C8 Ti13 2.110107 1_555
C8 Ti3 2.191157 1_565
C8 Ti2 2.193196 1_554
C8 Ti0 2.196820 1_665
C9 Ti15 2.081076 1_555
C9 Ti14 2.082120 1_555
C9 Ti12 2.082256 1_555
C9 Ti1 2.182032 1_655
C9 Ti3 2.182921 1_555
C9 Ti2 2.184501 1_554
C10 Ti15 2.090924 1_555
C10 Ti12 2.093035 1_455
C10 Ti13 2.110591 1_555
C10 Ti1 2.190275 1_555
C10 Ti2 2.194462 1_554
C10 Ti0 2.197527 1_555
C11 Ti15 2.091372 1_565
C11 Ti14 2.091817 1_455
C11 Ti13 2.111053 1_555
C11 Ti1 2.191469 1_555
C11 Ti3 2.193444 1_565
C11 Ti0 2.198112 1_565
C12 Ti10 2.091727 1_655
C12 Ti8 2.093087 1_545
C12 Ti9 2.111230 1_555
C12 Ti3 2.191454 1_556
C12 Ti1 2.193413 1_656
C12 Ti0 2.196259 1_656
C13 Ti11 2.081030 1_555
C13 Ti10 2.081883 1_555
C13 Ti8 2.082163 1_555
C13 Ti2 2.181924 1_555
C13 Ti3 2.182942 1_566
C13 Ti1 2.184661 1_556
C14 Ti11 2.090812 1_655
C14 Ti8 2.093264 1_555
C14 Ti9 2.111323 1_555
C14 Ti2 2.190616 1_555
C14 Ti1 2.194632 1_656
C14 Ti0 2.197299 1_666
C15 Ti11 2.091295 1_545
C15 Ti10 2.092263 1_555
C15 Ti9 2.111428 1_555
C15 Ti2 2.191736 1_555
C15 Ti3 2.193335 1_556
C15 Ti0 2.198098 1_556
