# generated using pymatgen
data_Li9Co7O16
_symmetry_space_group_name_H-M   'P 1'
_cell_length_a   4.99845100
_cell_length_b   5.77841924
_cell_length_c   10.14879210
_cell_angle_alpha   106.07731951
_cell_angle_beta   99.36788022
_cell_angle_gamma   90.47339998
_symmetry_Int_Tables_number   1
_chemical_formula_structural   Li9Co7O16
_chemical_formula_sum   'Li9 Co7 O16'
_cell_volume   277.46784514
_cell_formula_units_Z   1
loop_
 _symmetry_equiv_pos_site_id
 _symmetry_equiv_pos_as_xyz
  1  'x, y, z'
loop_
 _atom_site_type_symbol
 _atom_site_label
 _atom_site_symmetry_multiplicity
 _atom_site_fract_x
 _atom_site_fract_y
 _atom_site_fract_z
 _atom_site_occupancy
  Li  Li0  1  0.74753800  0.87842600  0.24948700  1
  Li  Li1  1  0.74542300  0.87577300  0.75037000  1
  Li  Li2  1  0.25272600  0.62637900  0.25106300  1
  Li  Li3  1  0.25377900  0.62872800  0.74910700  1
  Li  Li4  1  0.74622100  0.37127200  0.25089300  1
  Li  Li5  1  0.74727400  0.37362100  0.74893700  1
  Li  Li6  1  0.25457700  0.12422700  0.24963000  1
  Li  Li7  1  0.25246200  0.12157400  0.75051300  1
  Li  Li8  1  0.50000000  0.00000000  0.00000000  1
  Co  Co0  1  0.99480100  0.75551400  0.00045400  1
  Co  Co1  1  0.00519900  0.24448600  0.99954600  1
  Co  Co2  1  0.00343200  0.75181600  0.50165600  1
  Co  Co3  1  0.50000000  0.50000000  0.00000000  1
  Co  Co4  1  0.50000000  0.50000000  0.50000000  1
  Co  Co5  1  0.99656800  0.24818400  0.49834400  1
  Co  Co6  1  0.50000000  0.00000000  0.50000000  1
  O  O0  1  0.90075200  0.05251800  0.11086200  1
  O  O1  1  0.87162400  0.05998700  0.62016500  1
  O  O2  1  0.36293300  0.78138500  0.10419000  1
  O  O3  1  0.37592700  0.82421500  0.62486100  1
  O  O4  1  0.86307000  0.55481000  0.10791300  1
  O  O5  1  0.86231900  0.55630000  0.61608900  1
  O  O6  1  0.35586900  0.32115300  0.10762900  1
  O  O7  1  0.37770400  0.32170700  0.61362200  1
  O  O8  1  0.62229600  0.67829300  0.38637800  1
  O  O9  1  0.64413100  0.67884700  0.89237100  1
  O  O10  1  0.13768100  0.44370000  0.38391100  1
  O  O11  1  0.13693000  0.44519000  0.89208700  1
  O  O12  1  0.62407300  0.17578500  0.37513900  1
  O  O13  1  0.63706700  0.21861500  0.89581000  1
  O  O14  1  0.12837600  0.94001300  0.37983500  1
  O  O15  1  0.09924800  0.94748200  0.88913800  1
loop_
_geom_bond_atom_site_label_1
_geom_bond_atom_site_label_2
_geom_bond_distance
_geom_bond_site_symmetry_2
Li0 O12 2.004887 1_565
Li0 O14 2.099666 1_655
Li0 O4 2.166696 1_555
Li0 O0 2.167878 1_565
Li0 O2 2.187678 1_555
Li0 O8 2.195542 1_555
Li1 O15 2.033906 1_655
Li1 O3 2.034004 1_555
Li1 O1 2.077622 1_565
Li1 O5 2.118994 1_555
Li1 O9 2.182749 1_555
Li1 O13 2.248359 1_565
Li2 O10 2.072044 1_555
Li2 O8 2.079699 1_555
Li2 O2 2.079946 1_555
Li2 O6 2.081552 1_555
Li2 O14 2.085657 1_555
Li2 O4 2.192683 1_455
Li3 O3 2.065651 1_555
Li3 O7 2.089520 1_555
Li3 O5 2.154031 1_455
Li3 O11 2.165544 1_555
Li3 O9 2.199721 1_555
Li3 O15 2.222592 1_555
Li4 O12 2.065651 1_555
Li4 O8 2.089520 1_555
Li4 O10 2.154031 1_655
Li4 O4 2.165544 1_555
Li4 O6 2.199721 1_555
Li4 O0 2.222592 1_555
Li5 O5 2.072044 1_555
Li5 O7 2.079699 1_555
Li5 O13 2.079946 1_555
Li5 O9 2.081552 1_555
Li5 O1 2.085657 1_555
Li5 O11 2.192683 1_655
Li6 O0 2.033906 1_455
Li6 O12 2.034004 1_555
Li6 O14 2.077622 1_545
Li6 O10 2.118994 1_555
Li6 O6 2.182749 1_555
Li6 O2 2.248359 1_545
Li7 O3 2.004887 1_545
Li7 O1 2.099666 1_455
Li7 O11 2.166696 1_555
Li7 O15 2.167878 1_545
Li7 O13 2.187678 1_555
Li7 O7 2.195542 1_555
Li8 O13 2.035846 1_554
Li8 O2 2.035846 1_545
Li8 O6 2.076424 1_555
Li8 O9 2.076424 1_544
Li8 O15 2.106581 1_544
Li8 O0 2.106581 1_555
Co0 O0 1.881921 1_565
Co0 O9 1.887831 1_554
Co0 O15 1.912027 1_654
Co0 O2 1.947891 1_655
Co0 O4 1.972215 1_555
Co0 O11 2.028018 1_654
Co1 O15 1.881921 1_545
Co1 O6 1.887831 1_556
Co1 O0 1.912027 1_456
Co1 O13 1.947891 1_455
Co1 O11 1.972215 1_555
Co1 O4 2.028018 1_456
Co2 O14 2.021382 1_555
Co2 O5 2.025554 1_455
Co2 O1 2.035376 1_465
Co2 O3 2.035839 1_555
Co2 O10 2.037291 1_555
Co2 O8 2.040673 1_455
Co3 O2 1.879688 1_555
Co3 O13 1.879688 1_554
Co3 O9 1.910311 1_554
Co3 O6 1.910311 1_555
Co3 O4 1.935084 1_555
Co3 O11 1.935084 1_554
Co4 O8 1.908367 1_555
Co4 O7 1.908367 1_555
Co4 O5 1.963952 1_555
Co4 O10 1.963952 1_555
Co4 O12 2.111952 1_555
Co4 O3 2.111952 1_555
Co5 O1 2.021382 1_555
Co5 O10 2.025554 1_655
Co5 O14 2.035376 1_645
Co5 O12 2.035839 1_555
Co5 O5 2.037291 1_555
Co5 O7 2.040673 1_655
Co6 O3 1.995117 1_545
Co6 O12 1.995117 1_555
Co6 O1 2.018820 1_555
Co6 O14 2.018820 1_545
Co6 O8 2.054282 1_545
Co6 O7 2.054282 1_555
