# generated using pymatgen
data_Al12Ge(Se2O35)2
_symmetry_space_group_name_H-M   'P 1'
_cell_length_a   12.41564932
_cell_length_b   12.41564932
_cell_length_c   12.53207025
_cell_angle_alpha   63.10703498
_cell_angle_beta   60.71935275
_cell_angle_gamma   92.85217815
_symmetry_Int_Tables_number   1
_chemical_formula_structural   Al12Ge(Se2O35)2
_chemical_formula_sum   'Al12 Ge1 Se4 O70'
_cell_volume   1408.62749072
_cell_formula_units_Z   1
loop_
 _symmetry_equiv_pos_site_id
 _symmetry_equiv_pos_as_xyz
  1  'x, y, z'
loop_
 _atom_site_type_symbol
 _atom_site_label
 _atom_site_symmetry_multiplicity
 _atom_site_fract_x
 _atom_site_fract_y
 _atom_site_fract_z
 _atom_site_occupancy
  Al  Al0  1  0.19404326  0.26245737  0.87442993  1
  Al  Al1  1  0.13688729  0.06847319  0.12557007  1
  Al  Al2  1  0.67688413  0.79540939  0.12935617  1
  Al  Al3  1  0.92476555  0.80624029  0.87064383  1
  Al  Al4  1  0.20644487  0.32643552  0.60684526  1
  Al  Al5  1  0.93328078  0.81329013  0.39315474  1
  Al  Al6  1  0.93909872  0.27249517  0.87227968  1
  Al  Al7  1  0.14477485  0.81137840  0.12772032  1
  Al  Al8  1  0.69608807  0.03546300  0.13292516  1
  Al  Al9  1  0.16838816  0.82901323  0.86707484  1
  Al  Al10  1  0.71692465  0.82188558  0.33943965  1
  Al  Al11  1  0.16132524  0.05636430  0.66056035  1
  Ge  Ge0  1  0.99720159  0.99720159  0.00000000  1
  Se  Se0  1  0.61482982  0.39818315  0.26253478  1
  Se  Se1  1  0.66071794  0.87736460  0.73746522  1
  Se  Se2  1  0.61791616  0.38016527  0.72342310  1
  Se  Se3  1  0.10358837  0.34133926  0.27657690  1
  O  O0  1  0.89139346  0.29278097  0.56753521  1
  O  O1  1  0.86031618  0.45892867  0.43246479  1
  O  O2  1  0.71915707  0.13598956  0.40846378  1
  O  O3  1  0.54445334  0.12762085  0.59153622  1
  O  O4  1  0.53845105  0.25691545  0.30733691  1
  O  O5  1  0.56425236  0.84578796  0.69266309  1
  O  O6  1  0.73180897  0.43190724  0.73571959  1
  O  O7  1  0.16762683  0.46752856  0.26428041  1
  O  O8  1  0.07843653  0.38679440  0.68823073  1
  O  O9  1  0.07502513  0.76666727  0.31176927  1
  O  O10  1  0.61583622  0.92407223  0.33003765  1
  O  O11  1  0.25410988  0.94587387  0.66996235  1
  O  O12  1  0.30913061  0.46802322  0.88867269  1
  O  O13  1  0.35669591  0.19780330  0.11132731  1
  O  O14  1  0.59752764  0.69805325  0.09098714  1
  O  O15  1  0.78904040  0.68851478  0.90901286  1
  O  O16  1  0.08825524  0.18611968  0.65076144  1
  O  O17  1  0.83688112  0.73901668  0.34923856  1
  O  O18  1  0.80511778  0.14902453  0.92759993  1
  O  O19  1  0.07662447  0.73271771  0.07240007  1
  O  O20  1  0.82459629  0.17902381  0.07957980  1
  O  O21  1  0.25860361  0.90417610  0.92042020  1
  O  O22  1  0.83033114  0.90948329  0.35689185  1
  O  O23  1  0.26637515  0.18722299  0.64310815  1
  O  O24  1  0.04978187  0.17094470  0.90281787  1
  O  O25  1  0.07376257  0.95259973  0.09718213  1
  O  O26  1  0.82490477  0.93609645  0.12179442  1
  O  O27  1  0.05789088  0.94669919  0.87820558  1
  O  O28  1  0.29125105  0.40817191  0.40742280  1
  O  O29  1  0.81559471  0.69867385  0.59257720  1
  O  O30  1  0.82135585  0.36040367  0.91084383  1
  O  O31  1  0.27124749  0.73219968  0.08915617  1
  O  O32  1  0.62923521  0.17268215  0.10912757  1
  O  O33  1  0.28180971  0.73836277  0.89087243  1
  O  O34  1  0.66767114  0.72593047  0.54044816  1
  O  O35  1  0.26637863  0.20811930  0.45955184  1
  O  O36  1  0.52627826  0.47840307  0.45380433  1
  O  O37  1  0.93220740  0.98008259  0.54619567  1
  O  O38  1  0.00446414  0.45693035  -0.00064733  1
  O  O39  1  0.45628302  0.00381680  0.00064733  1
  O  O40  1  0.50952504  0.48561482  0.29015640  1
  O  O41  1  0.77577122  0.79968144  0.70984360  1
  O  O42  1  0.74799451  0.47717970  0.08964715  1
  O  O43  1  0.56682685  0.83764166  0.91035285  1
  O  O44  1  0.47698282  0.24496815  0.02659646  1
  O  O45  1  0.27156460  0.50357927  0.97340354  1
  O  O46  1  0.52714782  0.46492818  0.69781522  1
  O  O47  1  0.16274340  0.22496304  0.30218478  1
  O  O48  1  0.11118509  0.21903432  0.06227068  1
  O  O49  1  0.28130500  0.17345577  0.93772932  1
  O  O50  1  0.81011680  0.72321285  0.07654131  1
  O  O51  1  0.79975416  0.88665811  0.92345869  1
  O  O52  1  0.09225124  0.59225124  0.50000000  1
  O  O53  1  0.33660367  0.83660367  0.50000000  1
  O  O54  1  0.26332940  0.38308072  0.68977319  1
  O  O55  1  0.07285391  0.95310259  0.31022681  1
  O  O56  1  0.05746966  0.44178003  0.89725961  1
  O  O57  1  0.33903964  0.95472927  0.10274039  1
  O  O58  1  0.59657788  0.90976643  0.14768152  1
  O  O59  1  0.05744795  0.74425940  0.85231848  1
  O  O60  1  0.62303474  0.72208619  0.31858030  1
  O  O61  1  0.04066649  0.94161504  0.68141970  1
  O  O62  1  0.59359792  0.09359792  0.50000000  1
  O  O63  1  0.91481455  0.41481455  0.50000000  1
  O  O64  1  0.30029652  0.71939337  0.50897598  1
  O  O65  1  0.22836936  0.80927250  0.49102402  1
  O  O66  1  0.66152397  0.38895631  0.37335650  1
  O  O67  1  0.76231282  0.03488048  0.62664350  1
  O  O68  1  0.59983632  0.24672585  0.72900831  1
  O  O69  1  0.97573416  0.32884463  0.27099169  1
loop_
_geom_bond_atom_site_label_1
_geom_bond_atom_site_label_2
_geom_bond_distance
_geom_bond_site_symmetry_2
Al0 O54 1.768438 1_555
Al0 O49 1.786322 1_555
Al0 O48 1.821619 1_556
Al0 O24 1.853116 1_555
Al1 O55 1.768438 1_545
Al1 O48 1.786321 1_555
Al1 O49 1.821619 1_554
Al1 O25 1.853116 1_545
Al2 O58 1.809590 1_555
Al2 O60 1.826137 1_555
Al2 O14 1.879813 1_555
Al2 O50 1.895032 1_555
Al2 O51 1.897839 1_554
Al2 O26 2.407875 1_555
Al3 O59 1.809590 1_655
Al3 O61 1.826137 1_655
Al3 O15 1.879813 1_555
Al3 O51 1.895032 1_555
Al3 O50 1.897839 1_556
Al3 O27 2.407875 1_655
Al4 O8 1.830879 1_555
Al4 O54 1.844780 1_555
Al4 O28 1.846525 1_555
Al4 O23 1.869694 1_555
Al4 O16 1.891921 1_555
Al5 O9 1.830879 1_655
Al5 O55 1.844780 1_655
Al5 O29 1.846525 1_555
Al5 O22 1.869693 1_555
Al5 O17 1.891921 1_555
Al6 O8 1.793916 1_655
Al6 O18 1.804007 1_555
Al6 O30 1.872624 1_555
Al6 O20 1.900695 1_556
Al6 O24 1.968478 1_655
Al7 O9 1.793916 1_555
Al7 O19 1.804007 1_555
Al7 O31 1.872624 1_555
Al7 O21 1.900695 1_554
Al7 O25 1.968478 1_555
Al8 O58 1.821991 1_545
Al8 O10 1.836354 1_545
Al8 O18 1.887399 1_554
Al8 O32 1.898308 1_555
Al8 O20 1.940411 1_555
Al8 O26 2.057472 1_545
Al9 O59 1.821991 1_555
Al9 O11 1.836354 1_555
Al9 O19 1.887399 1_556
Al9 O33 1.898308 1_555
Al9 O21 1.940411 1_555
Al9 O27 2.057472 1_555
Al10 O10 1.834837 1_555
Al10 O60 1.846581 1_555
Al10 O17 1.873200 1_555
Al10 O22 1.891348 1_555
Al10 O34 1.960778 1_555
Al10 O26 1.995651 1_555
Al11 O11 1.834837 1_545
Al11 O61 1.846581 1_545
Al11 O16 1.873200 1_555
Al11 O23 1.891348 1_555
Al11 O35 1.960778 1_555
Al11 O27 1.995651 1_545
Ge0 O26 1.754546 1_555
Ge0 O27 1.754546 1_654
Ge0 O24 1.807801 1_664
Ge0 O25 1.807801 1_655
O0 O63 1.285236 1_555
O1 O63 1.285236 1_555
O2 O62 1.282970 1_555
O3 O62 1.282970 1_555
O4 Se0 1.647290 1_555
O5 Se1 1.647290 1_555
O6 Se2 1.627356 1_555
O7 Se3 1.627356 1_555
O12 O45 1.224766 1_555
O13 O44 1.224766 1_555
O38 O56 1.229574 1_554
O39 O57 1.229574 1_545
O40 Se0 1.745285 1_555
O41 Se1 1.745285 1_555
O42 Se0 1.673919 1_555
O43 Se1 1.673919 1_555
O46 Se2 1.626894 1_555
O47 Se3 1.626894 1_555
O53 O65 1.438962 1_555
O53 O64 1.438962 1_555
O64 O65 1.470352 1_555
O66 Se0 1.711233 1_555
O67 Se1 1.711233 1_545
O68 Se2 1.625663 1_555
O69 Se3 1.625663 1_655
