# generated using pymatgen
data_Ba2YSn2F11
_symmetry_space_group_name_H-M   'P 1'
_cell_length_a   8.14305929
_cell_length_b   8.14305929
_cell_length_c   14.61123800
_cell_angle_alpha   90.00000000
_cell_angle_beta   90.00000000
_cell_angle_gamma   119.99999420
_symmetry_Int_Tables_number   1
_chemical_formula_structural   Ba2YSn2F11
_chemical_formula_sum   'Ba6 Y3 Sn6 F33'
_cell_volume   839.05970582
_cell_formula_units_Z   3
loop_
 _symmetry_equiv_pos_site_id
 _symmetry_equiv_pos_as_xyz
  1  'x, y, z'
loop_
 _atom_site_type_symbol
 _atom_site_label
 _atom_site_symmetry_multiplicity
 _atom_site_fract_x
 _atom_site_fract_y
 _atom_site_fract_z
 _atom_site_occupancy
  Ba  Ba0  1  0.84479000  0.86170200  0.67135700  1
  Ba  Ba1  1  0.45274600  0.18411900  0.82850200  1
  Ba  Ba2  1  0.01691200  0.15521000  0.00469000  1
  Ba  Ba3  1  0.81588100  0.26862700  0.49516900  1
  Ba  Ba4  1  0.73137300  0.54725400  0.16183500  1
  Ba  Ba5  1  0.13829800  0.98308800  0.33802300  1
  Y  Y0  1  0.52120200  0.71091600  0.89472200  1
  Y  Y1  1  0.18971400  0.47879800  0.22805600  1
  Y  Y2  1  0.28908400  0.81028600  0.56138900  1
  Sn  Sn0  1  0.94470600  0.64465800  0.89979000  1
  Sn  Sn1  1  0.08118000  0.43515300  0.74074100  1
  Sn  Sn2  1  0.56484700  0.64602700  0.40740800  1
  Sn  Sn3  1  0.69995300  0.05529400  0.23312400  1
  Sn  Sn4  1  0.35397300  0.91882000  0.07407400  1
  Sn  Sn5  1  0.35534200  0.30004700  0.56645700  1
  F  F0  1  0.04223400  0.78740000  0.04233800  1
  F  F1  1  0.78437700  0.32594200  0.92952000  1
  F  F2  1  0.74516600  0.95776600  0.37567100  1
  F  F3  1  0.41915600  0.08819800  0.47226500  1
  F  F4  1  0.89846400  0.93818100  0.19062100  1
  F  F5  1  0.23606900  0.27318600  0.15999200  1
  F  F6  1  0.91180200  0.33095800  0.13893100  1
  F  F7  1  0.72681400  0.96288300  0.82665900  1
  F  F8  1  0.03971700  0.10153600  0.52395400  1
  F  F9  1  0.63696400  0.91657200  0.01545600  1
  F  F10  1  0.66904200  0.58084400  0.80559800  1
  F  F11  1  0.21260000  0.25483400  0.70900500  1
  F  F12  1  0.69306700  0.62213900  0.98189200  1
  F  F13  1  0.36366500  0.16246400  0.99983800  1
  F  F14  1  0.92907200  0.30693300  0.31522500  1
  F  F15  1  0.67405800  0.45843500  0.59618700  1
  F  F16  1  0.33259900  0.83646500  0.92101000  1
  F  F17  1  0.27960700  0.36303600  0.34878900  1
  F  F18  1  0.31919000  0.71412600  0.41527000  1
  F  F19  1  0.37786100  0.07092800  0.64855900  1
  F  F20  1  0.39493600  0.68081000  0.74860400  1
  F  F21  1  0.83753600  0.20120000  0.66650500  1
  F  F22  1  0.79880000  0.63633500  0.33317200  1
  F  F23  1  0.50386700  0.66740100  0.25434400  1
  F  F24  1  0.08342800  0.72039300  0.68212300  1
  F  F25  1  0.06181900  0.96028300  0.85728700  1
  F  F26  1  0.54156500  0.21562300  0.26285300  1
  F  F27  1  0.28346400  0.41244800  0.89465500  1
  F  F28  1  0.12898300  0.71653600  0.22798900  1
  F  F29  1  0.28587400  0.60506400  0.08193700  1
  F  F30  1  0.03711700  0.76393100  0.49332600  1
  F  F31  1  0.16353500  0.49613300  0.58767700  1
  F  F32  1  0.58755200  0.87101700  0.56132200  1
loop_
_geom_bond_atom_site_label_1
_geom_bond_atom_site_label_2
_geom_bond_distance
_geom_bond_site_symmetry_2
Ba0 F32 2.671569 1_555
Ba0 F24 2.713132 1_655
Ba0 F7 2.746335 1_555
Ba0 F21 2.795455 1_565
Ba0 F10 2.802292 1_555
Ba0 F8 2.805761 1_665
Ba0 F15 3.058967 1_555
Ba0 F25 3.119180 1_655
Ba0 F11 3.151716 1_665
Ba1 F13 2.587768 1_555
Ba1 F19 2.751726 1_555
Ba1 F1 2.772405 1_555
Ba1 F25 2.798307 1_545
Ba1 F10 2.821469 1_555
Ba1 F16 2.833519 1_545
Ba1 F11 2.886214 1_555
Ba1 F27 2.975640 1_555
Ba2 F27 2.671566 1_554
Ba2 F9 2.713139 1_445
Ba2 F5 2.746336 1_555
Ba2 F13 2.795463 1_554
Ba2 F6 2.802292 1_455
Ba2 F25 2.805761 1_544
Ba2 F1 3.058967 1_454
Ba2 F4 3.119193 1_445
Ba2 F0 3.151716 1_545
Ba3 F21 2.587770 1_555
Ba3 F14 2.751740 1_555
Ba3 F15 2.772405 1_555
Ba3 F8 2.798306 1_655
Ba3 F3 2.821469 1_555
Ba3 F31 2.833518 1_655
Ba3 F2 2.886223 1_545
Ba3 F32 2.975634 1_545
Ba4 F22 2.587782 1_555
Ba4 F12 2.751726 1_554
Ba4 F26 2.772405 1_555
Ba4 F4 2.798309 1_555
Ba4 F6 2.821469 1_555
Ba4 F23 2.833519 1_555
Ba4 F0 2.886214 1_655
Ba4 F28 2.975638 1_655
Ba5 F28 2.671554 1_555
Ba5 F17 2.713140 1_565
Ba5 F30 2.746348 1_555
Ba5 F22 2.795459 1_455
Ba5 F3 2.802302 1_565
Ba5 F4 2.805749 1_455
Ba5 F26 3.058967 1_565
Ba5 F8 3.119193 1_565
Ba5 F2 3.151716 1_455
F0 Sn4 2.255589 1_555
F0 Sn0 2.323089 1_454
F1 Sn0 2.289222 1_555
F2 Sn2 2.255592 1_555
F2 Sn3 2.323073 1_565
F3 Y2 2.354156 1_545
F3 Sn5 2.456933 1_555
F4 Sn3 2.334467 1_565
F5 Y1 2.137015 1_555
F6 Y1 2.354164 1_655
F6 Sn3 2.456946 1_555
F7 Y0 2.137009 1_555
F8 Sn5 2.334473 1_555
F9 Y0 2.286140 1_554
F9 Sn4 2.467062 1_555
F10 Y0 2.354156 1_555
F10 Sn0 2.456940 1_555
F11 Sn1 2.255588 1_555
F11 Sn5 2.323089 1_555
F12 Y0 2.261674 1_555
F12 Sn0 2.301260 1_555
F13 Sn4 2.227658 1_546
F14 Y1 2.261666 1_655
F14 Sn3 2.301250 1_555
F15 Sn5 2.289222 1_555
F16 Y0 2.263089 1_555
F16 Sn4 2.316254 1_556
F17 Y1 2.286124 1_555
F17 Sn2 2.467071 1_555
F18 Y2 2.328809 1_555
F18 Sn2 2.330578 1_555
F19 Y2 2.261674 1_545
F19 Sn5 2.301253 1_555
F20 Y0 2.328795 1_555
F20 Sn1 2.330579 1_555
F21 Sn1 2.227662 1_655
F22 Sn2 2.227666 1_555
F23 Y1 2.263096 1_555
F23 Sn2 2.316252 1_555
F24 Y2 2.286140 1_555
F24 Sn1 2.467070 1_555
F25 Sn0 2.334475 1_455
F26 Sn3 2.289226 1_555
F27 Y0 2.224790 1_555
F28 Y1 2.224795 1_555
F29 Y1 2.328809 1_555
F29 Sn4 2.330578 1_555
F30 Y2 2.137009 1_555
F31 Y2 2.263097 1_555
F31 Sn1 2.316254 1_555
F32 Y2 2.224787 1_555
