# generated using pymatgen
data_Cu4Si4Pb4C4ClO28
_symmetry_space_group_name_H-M   'P 1'
_cell_length_a   10.46286299
_cell_length_b   10.46286299
_cell_length_c   10.46286299
_cell_angle_alpha   94.99157372
_cell_angle_beta   94.99157372
_cell_angle_gamma   145.68812991
_symmetry_Int_Tables_number   1
_chemical_formula_structural   Cu4Si4Pb4C4ClO28
_chemical_formula_sum   'Cu4 Si4 Pb4 C4 Cl1 O28'
_cell_volume   616.92258670
_cell_formula_units_Z   1
loop_
 _symmetry_equiv_pos_site_id
 _symmetry_equiv_pos_as_xyz
  1  'x, y, z'
loop_
 _atom_site_type_symbol
 _atom_site_label
 _atom_site_symmetry_multiplicity
 _atom_site_fract_x
 _atom_site_fract_y
 _atom_site_fract_z
 _atom_site_occupancy
  Cu  Cu0  1  0.50000000  0.00000000  0.00000000  1
  Cu  Cu1  1  0.00000000  0.50000000  0.00000000  1
  Cu  Cu2  1  0.00000000  0.00000000  0.50000000  1
  Cu  Cu3  1  0.50000000  0.50000000  0.50000000  1
  Si  Si0  1  0.38880800  0.61653800  0.00534600  1
  Si  Si1  1  0.61119200  0.38346200  0.99465400  1
  Si  Si2  1  0.61653800  0.61119200  0.22773000  1
  Si  Si3  1  0.38346200  0.38880800  0.77227000  1
  Pb  Pb0  1  0.96772900  0.23237900  0.20010800  1
  Pb  Pb1  1  0.03227100  0.76762100  0.79989200  1
  Pb  Pb2  1  0.23237900  0.03227100  0.26465100  1
  Pb  Pb3  1  0.76762100  0.96772900  0.73534900  1
  C  C0  1  0.14464400  0.43618900  0.58083300  1
  C  C1  1  0.85535600  0.56381100  0.41916700  1
  C  C2  1  0.43618900  0.85535600  0.29154500  1
  C  C3  1  0.56381100  0.14464400  0.70845500  1
  Cl  Cl0  1  0.00000000  0.00000000  0.00000000  1
  O  O0  1  0.12304800  0.43694700  0.01316000  1
  O  O1  1  0.42378800  0.10988900  0.98684000  1
  O  O2  1  0.43694700  0.42378800  0.31389900  1
  O  O3  1  0.10988900  0.12304800  0.68610100  1
  O  O4  1  0.87695200  0.56305300  0.98684000  1
  O  O5  1  0.57621200  0.89011100  0.01316000  1
  O  O6  1  0.56305300  0.57621200  0.68610100  1
  O  O7  1  0.89011100  0.87695200  0.31389900  1
  O  O8  1  0.80476100  0.29453700  0.09929800  1
  O  O9  1  0.19523900  0.70546300  0.90070200  1
  O  O10  1  0.29453700  0.19523900  0.48977500  1
  O  O11  1  0.70546300  0.80476100  0.51022500  1
  O  O12  1  0.36580300  0.50342300  0.86922600  1
  O  O13  1  0.63419700  0.49657700  0.13077400  1
  O  O14  1  0.50342300  0.63419700  0.13762000  1
  O  O15  1  0.49657700  0.36580300  0.86238000  1
  O  O16  1  0.13782000  0.34493100  0.48275100  1
  O  O17  1  0.86218000  0.65506900  0.51724900  1
  O  O18  1  0.34493100  0.86218000  0.20711000  1
  O  O19  1  0.65506900  0.13782000  0.79289000  1
  O  O20  1  0.96887500  0.30134000  0.62945800  1
  O  O21  1  0.67188200  0.33941800  0.37054200  1
  O  O22  1  0.30134000  0.67188200  0.33246500  1
  O  O23  1  0.33941800  0.96887500  0.66753500  1
  O  O24  1  0.03112500  0.69866000  0.37054200  1
  O  O25  1  0.32811800  0.66058200  0.62945800  1
  O  O26  1  0.69866000  0.32811800  0.66753500  1
  O  O27  1  0.66058200  0.03112500  0.33246500  1
loop_
_geom_bond_atom_site_label_1
_geom_bond_atom_site_label_2
_geom_bond_distance
_geom_bond_site_symmetry_2
Cu0 O8 1.837712 1_555
Cu0 O9 1.837712 1_544
Cu0 O5 1.870751 1_545
Cu0 O1 1.870751 1_554
Cu1 O9 1.837712 1_554
Cu1 O8 1.837712 1_455
Cu1 O0 1.870750 1_555
Cu1 O4 1.870750 1_454
Cu2 O11 1.837716 1_445
Cu2 O10 1.837716 1_555
Cu2 O3 1.870750 1_555
Cu2 O7 1.870750 1_445
Cu3 O10 1.837710 1_555
Cu3 O11 1.837710 1_555
Cu3 O6 1.870750 1_555
Cu3 O2 1.870750 1_555
C0 O25 1.277854 1_555
C0 O20 1.277860 1_455
C0 O16 1.293840 1_555
C1 O21 1.277854 1_555
C1 O24 1.277860 1_655
C1 O17 1.293840 1_555
C2 O27 1.277853 1_565
C2 O22 1.277860 1_555
C2 O18 1.293846 1_555
C3 O23 1.277853 1_545
C3 O26 1.277860 1_555
C3 O19 1.293846 1_555
O0 Si0 1.644464 1_555
O0 Pb0 2.565883 1_455
O1 Si1 1.644459 1_555
O1 Pb1 2.565887 1_545
O2 Si2 1.644461 1_555
O2 Pb2 2.565893 1_555
O3 Si3 1.644461 1_555
O3 Pb3 2.565889 1_445
O4 Si1 1.644464 1_555
O4 Pb1 2.565883 1_655
O5 Si0 1.644459 1_555
O5 Pb0 2.565887 1_565
O6 Si3 1.644461 1_555
O6 Pb3 2.565893 1_555
O7 Si2 1.644461 1_555
O7 Pb2 2.565889 1_665
O8 Pb0 2.466005 1_555
O9 Pb1 2.466005 1_555
O10 Pb2 2.465987 1_555
O11 Pb3 2.465987 1_555
O12 Si0 1.631999 1_556
O12 Si3 1.639588 1_555
O13 Si1 1.631999 1_554
O13 Si2 1.639588 1_555
O14 Si2 1.631999 1_555
O14 Si0 1.639588 1_555
O15 Si3 1.631999 1_555
O15 Si1 1.639588 1_555
O20 Pb3 2.604278 1_545
O21 Pb2 2.604280 1_555
O22 Pb0 2.604285 1_455
O23 Pb1 2.604291 1_555
O24 Pb2 2.604278 1_565
O25 Pb3 2.604280 1_555
O26 Pb1 2.604285 1_655
O27 Pb0 2.604291 1_555
