# generated using pymatgen
data_Eu2Al3O8
_symmetry_space_group_name_H-M   'P 1'
_cell_length_a   7.78596156
_cell_length_b   7.78596156
_cell_length_c   7.78596156
_cell_angle_alpha   109.47122063
_cell_angle_beta   109.47122063
_cell_angle_gamma   109.47122063
_symmetry_Int_Tables_number   1
_chemical_formula_structural   Eu2Al3O8
_chemical_formula_sum   'Eu4 Al6 O16'
_cell_volume   363.34139077
_cell_formula_units_Z   2
loop_
 _symmetry_equiv_pos_site_id
 _symmetry_equiv_pos_as_xyz
  1  'x, y, z'
loop_
 _atom_site_type_symbol
 _atom_site_label
 _atom_site_symmetry_multiplicity
 _atom_site_fract_x
 _atom_site_fract_y
 _atom_site_fract_z
 _atom_site_occupancy
  Eu  Eu0  1  0.29681800  0.29681800  0.29681800  1
  Eu  Eu1  1  0.70318200  0.00000000  0.00000000  1
  Eu  Eu2  1  0.00000000  0.70318200  0.00000000  1
  Eu  Eu3  1  0.00000000  0.00000000  0.70318200  1
  Al  Al0  1  0.25000000  0.75000000  0.50000000  1
  Al  Al1  1  0.75000000  0.25000000  0.50000000  1
  Al  Al2  1  0.75000000  0.50000000  0.25000000  1
  Al  Al3  1  0.25000000  0.50000000  0.75000000  1
  Al  Al4  1  0.50000000  0.25000000  0.75000000  1
  Al  Al5  1  0.50000000  0.75000000  0.25000000  1
  O  O0  1  0.78978800  0.78978800  0.78978800  1
  O  O1  1  0.21021200  0.00000000  0.00000000  1
  O  O2  1  0.00000000  0.21021200  0.00000000  1
  O  O3  1  0.00000000  0.00000000  0.21021200  1
  O  O4  1  0.27794200  0.55347600  0.55347600  1
  O  O5  1  0.72205800  0.27553300  0.27553300  1
  O  O6  1  0.00000000  0.44652400  0.72446700  1
  O  O7  1  0.55347600  0.55347600  0.27794200  1
  O  O8  1  0.00000000  0.72446700  0.44652400  1
  O  O9  1  0.27553300  0.27553300  0.72205800  1
  O  O10  1  0.44652400  0.72446700  0.00000000  1
  O  O11  1  0.72446700  0.44652400  0.00000000  1
  O  O12  1  0.55347600  0.27794200  0.55347600  1
  O  O13  1  0.72446700  0.00000000  0.44652400  1
  O  O14  1  0.44652400  0.00000000  0.72446700  1
  O  O15  1  0.27553300  0.72205800  0.27553300  1
loop_
_geom_bond_atom_site_label_1
_geom_bond_atom_site_label_2
_geom_bond_distance
_geom_bond_site_symmetry_2
Eu0 O2 2.344771 1_555
Eu0 O1 2.344771 1_555
Eu0 O3 2.344771 1_555
Eu0 O12 2.395332 1_555
Eu0 O7 2.395332 1_555
Eu0 O4 2.395332 1_555
Eu1 O2 2.344771 1_655
Eu1 O3 2.344771 1_655
Eu1 O0 2.344771 1_544
Eu1 O5 2.395323 1_555
Eu1 O14 2.395327 1_554
Eu1 O10 2.395327 1_545
Eu2 O1 2.344771 1_565
Eu2 O3 2.344771 1_565
Eu2 O0 2.344771 1_454
Eu2 O15 2.395323 1_555
Eu2 O11 2.395327 1_455
Eu2 O6 2.395327 1_554
Eu3 O1 2.344771 1_556
Eu3 O2 2.344771 1_556
Eu3 O0 2.344771 1_445
Eu3 O9 2.395323 1_555
Eu3 O13 2.395327 1_455
Eu3 O8 2.395327 1_545
Al0 O4 1.774329 1_555
Al0 O8 1.774331 1_555
Al0 O14 1.774331 1_565
Al0 O15 1.774333 1_555
Al1 O12 1.774329 1_555
Al1 O6 1.774331 1_655
Al1 O13 1.774331 1_555
Al1 O5 1.774333 1_555
Al2 O7 1.774329 1_555
Al2 O8 1.774331 1_655
Al2 O11 1.774331 1_555
Al2 O5 1.774333 1_555
Al3 O4 1.774329 1_555
Al3 O6 1.774331 1_555
Al3 O10 1.774331 1_556
Al3 O9 1.774333 1_555
Al4 O12 1.774329 1_555
Al4 O11 1.774331 1_556
Al4 O14 1.774331 1_555
Al4 O9 1.774333 1_555
Al5 O7 1.774329 1_555
Al5 O10 1.774331 1_555
Al5 O13 1.774331 1_565
Al5 O15 1.774333 1_555
