# generated using pymatgen
data_MoW11
_symmetry_space_group_name_H-M   'P 1'
_cell_length_a   5.19247600
_cell_length_b   10.63858600
_cell_length_c   36.71241800
_cell_angle_alpha   90.00000000
_cell_angle_beta   90.00000000
_cell_angle_gamma   90.00000000
_symmetry_Int_Tables_number   1
_chemical_formula_structural   MoW11
_chemical_formula_sum   'Mo8 W88'
_cell_volume   2028.01608878
_cell_formula_units_Z   8
loop_
 _symmetry_equiv_pos_site_id
 _symmetry_equiv_pos_as_xyz
  1  'x, y, z'
loop_
 _atom_site_type_symbol
 _atom_site_label
 _atom_site_symmetry_multiplicity
 _atom_site_fract_x
 _atom_site_fract_y
 _atom_site_fract_z
 _atom_site_occupancy
  Mo  Mo0_0  1  0.00000000  0.00000000  0.00000000  1
  Mo  Mo0_1  1  0.00000000  0.00000000  0.50000000  1
  Mo  Mo0_2  1  0.00000000  0.50000000  0.00000000  1
  Mo  Mo0_3  1  0.00000000  0.50000000  0.50000000  1
  Mo  Mo0_4  1  0.50000000  0.00000000  0.00000000  1
  Mo  Mo0_5  1  0.50000000  0.00000000  0.50000000  1
  Mo  Mo0_6  1  0.50000000  0.50000000  0.00000000  1
  Mo  Mo0_7  1  0.50000000  0.50000000  0.50000000  1
  W  W0_0  1  0.00000000  0.00000000  0.25000000  1
  W  W0_1  1  0.00000000  0.00000000  0.75000000  1
  W  W0_2  1  0.00000000  0.50000000  0.25000000  1
  W  W0_3  1  0.00000000  0.50000000  0.75000000  1
  W  W0_4  1  0.50000000  0.00000000  0.25000000  1
  W  W0_5  1  0.50000000  0.00000000  0.75000000  1
  W  W0_6  1  0.50000000  0.50000000  0.25000000  1
  W  W0_7  1  0.50000000  0.50000000  0.75000000  1
  W  W1_0  1  0.00000000  0.25000000  0.37525850  1
  W  W1_1  1  0.00000000  0.25000000  0.87525850  1
  W  W1_2  1  0.00000000  0.75000000  0.37525850  1
  W  W1_3  1  0.00000000  0.75000000  0.87525850  1
  W  W1_4  1  0.50000000  0.25000000  0.37525850  1
  W  W1_5  1  0.50000000  0.25000000  0.87525850  1
  W  W1_6  1  0.50000000  0.75000000  0.37525850  1
  W  W1_7  1  0.50000000  0.75000000  0.87525850  1
  W  W2_0  1  0.00000000  0.25000000  0.12474150  1
  W  W2_1  1  0.00000000  0.25000000  0.62474150  1
  W  W2_2  1  0.00000000  0.75000000  0.12474150  1
  W  W2_3  1  0.00000000  0.75000000  0.62474150  1
  W  W2_4  1  0.50000000  0.25000000  0.12474150  1
  W  W2_5  1  0.50000000  0.25000000  0.62474150  1
  W  W2_6  1  0.50000000  0.75000000  0.12474150  1
  W  W2_7  1  0.50000000  0.75000000  0.62474150  1
  W  W3_0  1  0.00000000  0.12496250  0.43753750  1
  W  W3_1  1  0.00000000  0.12496250  0.93753750  1
  W  W3_2  1  0.00000000  0.62496250  0.43753750  1
  W  W3_3  1  0.00000000  0.62496250  0.93753750  1
  W  W3_4  1  0.50000000  0.12496250  0.43753750  1
  W  W3_5  1  0.50000000  0.12496250  0.93753750  1
  W  W3_6  1  0.50000000  0.62496250  0.43753750  1
  W  W3_7  1  0.50000000  0.62496250  0.93753750  1
  W  W4_0  1  0.00000000  0.37503750  0.06246250  1
  W  W4_1  1  0.00000000  0.37503750  0.56246250  1
  W  W4_2  1  0.00000000  0.87503750  0.06246250  1
  W  W4_3  1  0.00000000  0.87503750  0.56246250  1
  W  W4_4  1  0.50000000  0.37503750  0.06246250  1
  W  W4_5  1  0.50000000  0.37503750  0.56246250  1
  W  W4_6  1  0.50000000  0.87503750  0.06246250  1
  W  W4_7  1  0.50000000  0.87503750  0.56246250  1
  W  W5_0  1  0.00000000  0.12496250  0.06246250  1
  W  W5_1  1  0.00000000  0.12496250  0.56246250  1
  W  W5_2  1  0.00000000  0.62496250  0.06246250  1
  W  W5_3  1  0.00000000  0.62496250  0.56246250  1
  W  W5_4  1  0.50000000  0.12496250  0.06246250  1
  W  W5_5  1  0.50000000  0.12496250  0.56246250  1
  W  W5_6  1  0.50000000  0.62496250  0.06246250  1
  W  W5_7  1  0.50000000  0.62496250  0.56246250  1
  W  W6_0  1  0.00000000  0.37503750  0.43753750  1
  W  W6_1  1  0.00000000  0.37503750  0.93753750  1
  W  W6_2  1  0.00000000  0.87503750  0.43753750  1
  W  W6_3  1  0.00000000  0.87503750  0.93753750  1
  W  W6_4  1  0.50000000  0.37503750  0.43753750  1
  W  W6_5  1  0.50000000  0.37503750  0.93753750  1
  W  W6_6  1  0.50000000  0.87503750  0.43753750  1
  W  W6_7  1  0.50000000  0.87503750  0.93753750  1
  W  W7_0  1  0.00000000  0.12524100  0.31238050  1
  W  W7_1  1  0.00000000  0.12524100  0.81238050  1
  W  W7_2  1  0.00000000  0.62524100  0.31238050  1
  W  W7_3  1  0.00000000  0.62524100  0.81238050  1
  W  W7_4  1  0.50000000  0.12524100  0.31238050  1
  W  W7_5  1  0.50000000  0.12524100  0.81238050  1
  W  W7_6  1  0.50000000  0.62524100  0.31238050  1
  W  W7_7  1  0.50000000  0.62524100  0.81238050  1
  W  W8_0  1  0.00000000  0.37475900  0.18761950  1
  W  W8_1  1  0.00000000  0.37475900  0.68761950  1
  W  W8_2  1  0.00000000  0.87475900  0.18761950  1
  W  W8_3  1  0.00000000  0.87475900  0.68761950  1
  W  W8_4  1  0.50000000  0.37475900  0.18761950  1
  W  W8_5  1  0.50000000  0.37475900  0.68761950  1
  W  W8_6  1  0.50000000  0.87475900  0.18761950  1
  W  W8_7  1  0.50000000  0.87475900  0.68761950  1
  W  W9_0  1  0.00000000  0.12524100  0.18761950  1
  W  W9_1  1  0.00000000  0.12524100  0.68761950  1
  W  W9_2  1  0.00000000  0.62524100  0.18761950  1
  W  W9_3  1  0.00000000  0.62524100  0.68761950  1
  W  W9_4  1  0.50000000  0.12524100  0.18761950  1
  W  W9_5  1  0.50000000  0.12524100  0.68761950  1
  W  W9_6  1  0.50000000  0.62524100  0.18761950  1
  W  W9_7  1  0.50000000  0.62524100  0.68761950  1
  W  W10_0  1  0.00000000  0.37475900  0.31238050  1
  W  W10_1  1  0.00000000  0.37475900  0.81238050  1
  W  W10_2  1  0.00000000  0.87475900  0.31238050  1
  W  W10_3  1  0.00000000  0.87475900  0.81238050  1
  W  W10_4  1  0.50000000  0.37475900  0.31238050  1
  W  W10_5  1  0.50000000  0.37475900  0.81238050  1
  W  W10_6  1  0.50000000  0.87475900  0.31238050  1
  W  W10_7  1  0.50000000  0.87475900  0.81238050  1
loop_
_geom_bond_atom_site_label_1
_geom_bond_atom_site_label_2
_geom_bond_distance
_geom_bond_site_symmetry_2
Mo0_0 Mo0_4 2.596238 1_555
Mo0_0 Mo0_4 2.596238 1_455
Mo0_0 W5_0 2.650642 1_555
Mo0_0 W4_2 2.650642 1_545
Mo0_0 W3_1 2.650642 1_554
Mo0_0 W6_3 2.650642 1_544
Mo0_1 Mo0_5 2.596238 1_555
Mo0_1 Mo0_5 2.596238 1_455
Mo0_1 W5_1 2.650642 1_555
Mo0_1 W4_3 2.650642 1_545
Mo0_1 W3_0 2.650642 1_555
Mo0_1 W6_2 2.650642 1_545
Mo0_2 Mo0_6 2.596238 1_555
Mo0_2 Mo0_6 2.596238 1_455
Mo0_2 W5_2 2.650642 1_555
Mo0_2 W4_0 2.650642 1_555
Mo0_2 W3_3 2.650642 1_554
Mo0_2 W6_1 2.650642 1_554
Mo0_3 Mo0_7 2.596238 1_555
Mo0_3 Mo0_7 2.596238 1_455
Mo0_3 W5_3 2.650642 1_555
Mo0_3 W4_1 2.650642 1_555
Mo0_3 W3_2 2.650642 1_555
Mo0_3 W6_0 2.650642 1_555
Mo0_4 W5_4 2.650642 1_555
Mo0_4 W4_6 2.650642 1_545
Mo0_4 W3_5 2.650642 1_554
Mo0_4 W6_7 2.650642 1_544
Mo0_5 W5_5 2.650642 1_555
Mo0_5 W4_7 2.650642 1_545
Mo0_5 W3_4 2.650642 1_555
Mo0_5 W6_6 2.650642 1_545
Mo0_6 W5_6 2.650642 1_555
Mo0_6 W4_4 2.650642 1_555
Mo0_6 W3_7 2.650642 1_554
Mo0_6 W6_5 2.650642 1_554
Mo0_7 W5_7 2.650642 1_555
Mo0_7 W4_5 2.650642 1_555
Mo0_7 W3_6 2.650642 1_555
Mo0_7 W6_4 2.650642 1_555
W0_0 W0_4 2.596238 1_555
W0_0 W0_4 2.596238 1_455
W0_0 W8_2 2.649527 1_545
W0_0 W10_2 2.649527 1_545
W0_0 W7_0 2.649527 1_555
W0_0 W9_0 2.649527 1_555
W0_1 W0_5 2.596238 1_555
W0_1 W0_5 2.596238 1_455
W0_1 W8_3 2.649527 1_545
W0_1 W10_3 2.649527 1_545
W0_1 W7_1 2.649527 1_555
W0_1 W9_1 2.649527 1_555
W0_2 W0_6 2.596238 1_555
W0_2 W0_6 2.596238 1_455
W0_2 W10_0 2.649527 1_555
W0_2 W7_2 2.649527 1_555
W0_2 W9_2 2.649527 1_555
W0_2 W8_0 2.649527 1_555
W0_3 W0_7 2.596238 1_555
W0_3 W0_7 2.596238 1_455
W0_3 W10_1 2.649527 1_555
W0_3 W8_1 2.649527 1_555
W0_3 W7_3 2.649527 1_555
W0_3 W9_3 2.649527 1_555
W0_4 W10_6 2.649527 1_545
W0_4 W8_6 2.649527 1_545
W0_4 W7_4 2.649527 1_555
W0_4 W9_4 2.649527 1_555
W0_5 W10_7 2.649527 1_545
W0_5 W8_7 2.649527 1_545
W0_5 W7_5 2.649527 1_555
W0_5 W9_5 2.649527 1_555
W0_6 W8_4 2.649527 1_555
W0_6 W10_4 2.649527 1_555
W0_6 W7_6 2.649527 1_555
W0_6 W9_6 2.649527 1_555
W0_7 W8_5 2.649527 1_555
W0_7 W10_5 2.649527 1_555
W0_7 W9_7 2.649527 1_555
W0_7 W7_7 2.649527 1_555
W1_0 W1_4 2.596238 1_555
W1_0 W1_4 2.596238 1_455
W1_0 W6_0 2.645217 1_555
W1_0 W3_0 2.645217 1_555
W1_0 W7_0 2.662770 1_555
W1_1 W1_5 2.596238 1_555
W1_1 W1_5 2.596238 1_455
W1_1 W6_1 2.645217 1_555
W1_1 W3_1 2.645217 1_555
W1_1 W7_1 2.662770 1_555
W1_2 W1_6 2.596238 1_555
W1_2 W1_6 2.596238 1_455
W1_2 W6_2 2.645217 1_555
W1_2 W3_2 2.645217 1_555
W1_2 W7_2 2.662770 1_555
W1_3 W1_7 2.596238 1_555
W1_3 W1_7 2.596238 1_455
W1_3 W6_3 2.645217 1_555
W1_3 W3_3 2.645217 1_555
W1_3 W7_3 2.662770 1_555
W1_4 W6_4 2.645217 1_555
W1_4 W3_4 2.645217 1_555
W1_4 W7_4 2.662770 1_555
W1_5 W6_5 2.645217 1_555
W1_5 W3_5 2.645217 1_555
W1_5 W7_5 2.662770 1_555
W1_6 W6_6 2.645217 1_555
W1_6 W3_6 2.645217 1_555
W1_6 W7_6 2.662770 1_555
W1_7 W6_7 2.645217 1_555
W1_7 W3_7 2.645217 1_555
W1_7 W7_7 2.662770 1_555
W2_0 W2_4 2.596238 1_555
W2_0 W2_4 2.596238 1_455
W2_0 W4_0 2.645217 1_555
W2_0 W5_0 2.645217 1_555
W2_0 W9_0 2.662770 1_555
W2_0 W8_0 2.662770 1_555
W2_1 W2_5 2.596238 1_555
W2_1 W2_5 2.596238 1_455
W2_1 W4_1 2.645217 1_555
W2_1 W5_1 2.645217 1_555
W2_1 W9_1 2.662770 1_555
W2_1 W8_1 2.662770 1_555
W2_2 W2_6 2.596238 1_555
W2_2 W2_6 2.596238 1_455
W2_2 W4_2 2.645217 1_555
W2_2 W5_2 2.645217 1_555
W2_2 W9_2 2.662770 1_555
W2_2 W8_2 2.662770 1_555
W2_3 W2_7 2.596238 1_555
W2_3 W2_7 2.596238 1_455
W2_3 W4_3 2.645217 1_555
W2_3 W5_3 2.645217 1_555
W2_3 W9_3 2.662770 1_555
W2_3 W8_3 2.662770 1_555
W2_4 W4_4 2.645217 1_555
W2_4 W5_4 2.645217 1_555
W2_4 W8_4 2.662770 1_555
W2_4 W9_4 2.662770 1_555
W2_5 W4_5 2.645217 1_555
W2_5 W5_5 2.645217 1_555
W2_5 W9_5 2.662770 1_555
W2_5 W8_5 2.662770 1_555
W2_6 W4_6 2.645217 1_555
W2_6 W5_6 2.645217 1_555
W2_6 W9_6 2.662770 1_555
W2_6 W8_6 2.662770 1_555
W2_7 W4_7 2.645217 1_555
W2_7 W5_7 2.645217 1_555
W2_7 W9_7 2.662770 1_555
W2_7 W8_7 2.662770 1_555
W3_0 W3_4 2.596238 1_555
W3_0 W3_4 2.596238 1_455
W3_0 W6_2 2.658849 1_545
W3_0 W6_0 2.660444 1_555
W3_1 W3_5 2.596238 1_555
W3_1 W3_5 2.596238 1_455
W3_1 W6_3 2.658849 1_545
W3_1 W6_1 2.660444 1_555
W3_2 W3_6 2.596238 1_555
W3_2 W3_6 2.596238 1_455
W3_2 W6_0 2.658849 1_555
W3_2 W6_2 2.660444 1_555
W3_3 W3_7 2.596238 1_555
W3_3 W3_7 2.596238 1_455
W3_3 W6_1 2.658849 1_555
W3_3 W6_3 2.660444 1_555
W3_4 W6_6 2.658849 1_545
W3_4 W6_4 2.660444 1_555
W3_5 W6_7 2.658849 1_545
W3_5 W6_5 2.660444 1_555
W3_6 W6_4 2.658849 1_555
W3_6 W6_6 2.660444 1_555
W3_7 W6_5 2.658849 1_555
W3_7 W6_7 2.660444 1_555
W4_0 W4_4 2.596238 1_555
W4_0 W4_4 2.596238 1_455
W4_0 W5_2 2.658849 1_555
W4_0 W5_0 2.660444 1_555
W4_1 W4_5 2.596238 1_555
W4_1 W4_5 2.596238 1_455
W4_1 W5_3 2.658849 1_555
W4_1 W5_1 2.660444 1_555
W4_2 W4_6 2.596238 1_555
W4_2 W4_6 2.596238 1_455
W4_2 W5_0 2.658849 1_565
W4_2 W5_2 2.660444 1_555
W4_3 W4_7 2.596238 1_555
W4_3 W4_7 2.596238 1_455
W4_3 W5_1 2.658849 1_565
W4_3 W5_3 2.660444 1_555
W4_4 W5_6 2.658849 1_555
W4_4 W5_4 2.660444 1_555
W4_5 W5_7 2.658849 1_555
W4_5 W5_5 2.660444 1_555
W4_6 W5_4 2.658849 1_565
W4_6 W5_6 2.660444 1_555
W4_7 W5_5 2.658849 1_565
W4_7 W5_7 2.660444 1_555
W5_0 W5_4 2.596238 1_555
W5_0 W5_4 2.596238 1_455
W5_1 W5_5 2.596238 1_555
W5_1 W5_5 2.596238 1_455
W5_2 W5_6 2.596238 1_555
W5_2 W5_6 2.596238 1_455
W5_3 W5_7 2.596238 1_555
W5_3 W5_7 2.596238 1_455
W6_0 W6_4 2.596238 1_555
W6_0 W6_4 2.596238 1_455
W6_1 W6_5 2.596238 1_555
W6_1 W6_5 2.596238 1_455
W6_2 W6_6 2.596238 1_555
W6_2 W6_6 2.596238 1_455
W6_3 W6_7 2.596238 1_555
W6_3 W6_7 2.596238 1_455
W7_0 W7_4 2.596238 1_555
W7_0 W7_4 2.596238 1_455
W7_1 W7_5 2.596238 1_555
W7_1 W7_5 2.596238 1_455
W7_2 W7_6 2.596238 1_555
W7_2 W7_6 2.596238 1_455
W7_3 W7_7 2.596238 1_555
W7_3 W7_7 2.596238 1_455
W8_0 W8_4 2.596238 1_555
W8_0 W8_4 2.596238 1_455
W8_0 W9_0 2.654519 1_555
W8_0 W9_2 2.664774 1_555
W8_1 W8_5 2.596238 1_555
W8_1 W8_5 2.596238 1_455
W8_1 W9_1 2.654519 1_555
W8_1 W9_3 2.664774 1_555
W8_2 W8_6 2.596238 1_555
W8_2 W8_6 2.596238 1_455
W8_2 W9_2 2.654519 1_555
W8_2 W9_0 2.664774 1_565
W8_3 W8_7 2.596238 1_555
W8_3 W8_7 2.596238 1_455
W8_3 W9_3 2.654519 1_555
W8_3 W9_1 2.664774 1_565
W8_4 W9_4 2.654519 1_555
W8_4 W9_6 2.664774 1_555
W8_5 W9_5 2.654519 1_555
W8_5 W9_7 2.664774 1_555
W8_6 W9_6 2.654519 1_555
W8_6 W9_4 2.664774 1_565
W8_7 W9_7 2.654519 1_555
W8_7 W9_5 2.664774 1_565
W9_0 W9_4 2.596238 1_555
W9_0 W9_4 2.596238 1_455
W9_1 W9_5 2.596238 1_555
W9_1 W9_5 2.596238 1_455
W9_2 W9_6 2.596238 1_555
W9_2 W9_6 2.596238 1_455
W9_3 W9_7 2.596238 1_555
W9_3 W9_7 2.596238 1_455
W10_0 W10_4 2.596238 1_555
W10_0 W10_4 2.596238 1_455
W10_0 W7_0 2.654519 1_555
W10_0 W1_0 2.662770 1_555
W10_0 W7_2 2.664774 1_555
W10_1 W10_5 2.596238 1_555
W10_1 W10_5 2.596238 1_455
W10_1 W7_1 2.654519 1_555
W10_1 W1_1 2.662770 1_555
W10_1 W7_3 2.664774 1_555
W10_2 W10_6 2.596238 1_555
W10_2 W10_6 2.596238 1_455
W10_2 W7_2 2.654519 1_555
W10_2 W1_2 2.662770 1_555
W10_2 W7_0 2.664774 1_565
W10_3 W10_7 2.596238 1_555
W10_3 W10_7 2.596238 1_455
W10_3 W7_3 2.654519 1_555
W10_3 W1_3 2.662770 1_555
W10_3 W7_1 2.664774 1_565
W10_4 W7_4 2.654519 1_555
W10_4 W1_4 2.662770 1_555
W10_4 W7_6 2.664774 1_555
W10_5 W7_5 2.654519 1_555
W10_5 W1_5 2.662770 1_555
W10_5 W7_7 2.664774 1_555
W10_6 W7_6 2.654519 1_555
W10_6 W1_6 2.662770 1_555
W10_6 W7_4 2.664774 1_565
W10_7 W7_7 2.654519 1_555
W10_7 W1_7 2.662770 1_555
W10_7 W7_5 2.664774 1_565
