# generated using pymatgen
data_Li4Re6S11
_symmetry_space_group_name_H-M   'P 1'
_cell_length_a   9.66013382
_cell_length_b   11.98810755
_cell_length_c   13.76111451
_cell_angle_alpha   90.00000000
_cell_angle_beta   90.00000000
_cell_angle_gamma   90.00000000
_symmetry_Int_Tables_number   1
_chemical_formula_structural   Li4Re6S11
_chemical_formula_sum   'Li16 Re24 S44'
_cell_volume   1593.62957873
_cell_formula_units_Z   4
loop_
 _symmetry_equiv_pos_site_id
 _symmetry_equiv_pos_as_xyz
  1  'x, y, z'
loop_
 _atom_site_type_symbol
 _atom_site_label
 _atom_site_symmetry_multiplicity
 _atom_site_fract_x
 _atom_site_fract_y
 _atom_site_fract_z
 _atom_site_occupancy
  Li  Li0  1  0.43332456  0.36806261  0.35559528  1
  Li  Li1  1  0.93332456  0.13193739  0.64440472  1
  Li  Li2  1  0.06667544  0.36806261  0.14440472  1
  Li  Li3  1  0.56667544  0.13193739  0.85559528  1
  Li  Li4  1  0.56667544  0.63193739  0.64440472  1
  Li  Li5  1  0.06667544  0.86806261  0.35559528  1
  Li  Li6  1  0.93332456  0.63193739  0.85559528  1
  Li  Li7  1  0.43332456  0.86806261  0.14440472  1
  Li  Li8  1  0.14294321  0.31160344  0.81422123  1
  Li  Li9  1  0.64294321  0.18839656  0.18577877  1
  Li  Li10  1  0.35705679  0.31160344  0.68577877  1
  Li  Li11  1  0.85705679  0.18839656  0.31422123  1
  Li  Li12  1  0.85705679  0.68839656  0.18577877  1
  Li  Li13  1  0.35705679  0.81160344  0.81422123  1
  Li  Li14  1  0.64294321  0.68839656  0.31422123  1
  Li  Li15  1  0.14294321  0.81160344  0.68577877  1
  Re  Re0  1  0.89071496  0.02309123  0.89023498  1
  Re  Re1  1  0.39071496  0.47690877  0.10976502  1
  Re  Re2  1  0.60928504  0.02309123  0.60976502  1
  Re  Re3  1  0.10928504  0.47690877  0.39023498  1
  Re  Re4  1  0.10928504  0.97690877  0.10976502  1
  Re  Re5  1  0.60928504  0.52309123  0.89023498  1
  Re  Re6  1  0.39071496  0.97690877  0.39023498  1
  Re  Re7  1  0.89071496  0.52309123  0.60976502  1
  Re  Re8  1  0.85763986  0.91413712  0.05523095  1
  Re  Re9  1  0.35763986  0.58586288  0.94476905  1
  Re  Re10  1  0.64236014  0.91413712  0.44476905  1
  Re  Re11  1  0.14236014  0.58586288  0.55523095  1
  Re  Re12  1  0.14236014  0.08586288  0.94476905  1
  Re  Re13  1  0.64236014  0.41413712  0.05523095  1
  Re  Re14  1  0.35763986  0.08586288  0.55523095  1
  Re  Re15  1  0.85763986  0.41413712  0.44476905  1
  Re  Re16  1  0.07350962  0.87201823  0.94406299  1
  Re  Re17  1  0.57350962  0.62798177  0.05593701  1
  Re  Re18  1  0.42649038  0.87201823  0.55593701  1
  Re  Re19  1  0.92649038  0.62798177  0.44406299  1
  Re  Re20  1  0.92649038  0.12798177  0.05593701  1
  Re  Re21  1  0.42649038  0.37201823  0.94406299  1
  Re  Re22  1  0.57350962  0.12798177  0.44406299  1
  Re  Re23  1  0.07350962  0.37201823  0.55593701  1
  S  S0  1  0.83678704  0.82804741  0.89831263  1
  S  S1  1  0.33678704  0.67195259  0.10168737  1
  S  S2  1  0.66321296  0.82804741  0.60168737  1
  S  S3  1  0.16321296  0.67195259  0.39831263  1
  S  S4  1  0.16321296  0.17195259  0.10168737  1
  S  S5  1  0.66321296  0.32804741  0.89831263  1
  S  S6  1  0.33678704  0.17195259  0.39831263  1
  S  S7  1  0.83678704  0.32804741  0.60168737  1
  S  S8  1  0.96058414  0.21712172  0.90095529  1
  S  S9  1  0.46058414  0.28287828  0.09904471  1
  S  S10  1  0.53941586  0.21712172  0.59904471  1
  S  S11  1  0.03941586  0.28287828  0.40095529  1
  S  S12  1  0.03941586  0.78287828  0.09904471  1
  S  S13  1  0.53941586  0.71712172  0.90095529  1
  S  S14  1  0.46058414  0.78287828  0.40095529  1
  S  S15  1  0.96058414  0.71712172  0.59904471  1
  S  S16  1  0.09438010  0.98203485  0.79540876  1
  S  S17  1  0.59438010  0.51796515  0.20459124  1
  S  S18  1  0.40561990  0.98203485  0.70459124  1
  S  S19  1  0.90561990  0.51796515  0.29540876  1
  S  S20  1  0.90561990  0.01796515  0.20459124  1
  S  S21  1  0.40561990  0.48203485  0.79540876  1
  S  S22  1  0.59438010  0.01796515  0.29540876  1
  S  S23  1  0.09438010  0.48203485  0.70459124  1
  S  S24  1  0.69907770  0.05993276  0.00586457  1
  S  S25  1  0.19907770  0.44006724  0.99413543  1
  S  S26  1  0.80092230  0.05993276  0.49413543  1
  S  S27  1  0.30092230  0.44006724  0.50586457  1
  S  S28  1  0.30092230  0.94006724  0.99413543  1
  S  S29  1  0.80092230  0.55993276  0.00586457  1
  S  S30  1  0.19907770  0.94006724  0.50586457  1
  S  S31  1  0.69907770  0.55993276  0.49413543  1
  S  S32  1  0.16675953  0.70060549  0.86645052  1
  S  S33  1  0.66675953  0.79939451  0.13354948  1
  S  S34  1  0.33324047  0.70060549  0.63354948  1
  S  S35  1  0.83324047  0.79939451  0.36645052  1
  S  S36  1  0.83324047  0.29939451  0.13354948  1
  S  S37  1  0.33324047  0.20060549  0.86645052  1
  S  S38  1  0.66675953  0.29939451  0.36645052  1
  S  S39  1  0.16675953  0.20060549  0.63354948  1
  S  S40  1  0.75000000  0.08053143  0.75000000  1
  S  S41  1  0.25000000  0.41946857  0.25000000  1
  S  S42  1  0.25000000  0.91946857  0.25000000  1
  S  S43  1  0.75000000  0.58053143  0.75000000  1
loop_
_geom_bond_atom_site_label_1
_geom_bond_atom_site_label_2
_geom_bond_distance
_geom_bond_site_symmetry_2
Li0 S41 2.372241 1_555
Li0 S38 2.405215 1_555
Li0 S27 2.580138 1_555
Li0 S6 2.596609 1_555
Li1 S40 2.372241 1_555
Li1 S39 2.405215 1_655
Li1 S26 2.580138 1_555
Li1 S7 2.596609 1_555
Li2 S41 2.372241 1_555
Li2 S36 2.405215 1_455
Li2 S25 2.580138 1_554
Li2 S4 2.596609 1_555
Li3 S40 2.372241 1_555
Li3 S37 2.405215 1_555
Li3 S24 2.580138 1_556
Li3 S5 2.596609 1_555
Li4 S43 2.372241 1_555
Li4 S34 2.405215 1_555
Li4 S31 2.580138 1_555
Li4 S2 2.596609 1_555
Li5 S42 2.372241 1_555
Li5 S35 2.405215 1_455
Li5 S30 2.580138 1_555
Li5 S3 2.596609 1_555
Li6 S43 2.372241 1_555
Li6 S32 2.405215 1_655
Li6 S29 2.580138 1_556
Li6 S0 2.596609 1_555
Li7 S42 2.372241 1_555
Li7 S33 2.405215 1_555
Li7 S28 2.580138 1_554
Li7 S1 2.596609 1_555
Li8 S37 2.380453 1_555
Li8 S8 2.410554 1_455
Li8 S23 2.582733 1_555
Li8 S39 2.829309 1_555
Li8 S25 2.965713 1_555
Li9 S36 2.380453 1_555
Li9 S9 2.410554 1_555
Li9 S22 2.582733 1_555
Li9 S38 2.829309 1_555
Li9 S24 2.965713 1_555
Li10 S39 2.380453 1_555
Li10 S10 2.410554 1_555
Li10 S21 2.582733 1_555
Li10 S37 2.829309 1_555
Li10 S27 2.965713 1_555
Li11 S38 2.380453 1_555
Li11 S11 2.410554 1_655
Li11 S20 2.582733 1_555
Li11 S36 2.829309 1_555
Li11 S26 2.965713 1_555
Li12 S33 2.380453 1_555
Li12 S12 2.410554 1_655
Li12 S19 2.582733 1_555
Li12 S35 2.829309 1_555
Li12 S29 2.965713 1_555
Li13 S32 2.380453 1_555
Li13 S13 2.410554 1_555
Li13 S18 2.582733 1_555
Li13 S34 2.829309 1_555
Li13 S28 2.965713 1_555
Li14 S35 2.380453 1_555
Li14 S14 2.410554 1_555
Li14 S17 2.582733 1_555
Li14 S33 2.829309 1_555
Li14 S31 2.965713 1_555
Li15 S34 2.380453 1_555
Li15 S15 2.410554 1_455
Li15 S16 2.582733 1_555
Li15 S32 2.829309 1_555
Li15 S30 2.965713 1_555
Re0 S0 2.398115 1_545
Re0 S16 2.411606 1_645
Re0 S8 2.426492 1_555
Re0 S40 2.458866 1_555
Re0 S24 2.480736 1_556
Re1 S1 2.398115 1_555
Re1 S17 2.411606 1_555
Re1 S9 2.426492 1_555
Re1 S41 2.458866 1_555
Re1 S25 2.480736 1_554
Re2 S2 2.398115 1_545
Re2 S18 2.411606 1_545
Re2 S10 2.426492 1_555
Re2 S40 2.458866 1_555
Re2 S26 2.480736 1_555
Re3 S3 2.398115 1_555
Re3 S19 2.411606 1_455
Re3 S11 2.426492 1_555
Re3 S41 2.458866 1_555
Re3 S27 2.480736 1_555
Re4 S4 2.398115 1_565
Re4 S20 2.411606 1_465
Re4 S12 2.426492 1_555
Re4 S42 2.458866 1_555
Re4 S28 2.480736 1_554
Re5 S5 2.398115 1_555
Re5 S21 2.411606 1_555
Re5 S13 2.426492 1_555
Re5 S43 2.458866 1_555
Re5 S29 2.480736 1_556
Re6 S6 2.398115 1_565
Re6 S22 2.411606 1_565
Re6 S14 2.426492 1_555
Re6 S42 2.458866 1_555
Re6 S30 2.480736 1_555
Re7 S7 2.398115 1_555
Re7 S23 2.411606 1_655
Re7 S15 2.426492 1_555
Re7 S43 2.458866 1_555
Re7 S31 2.480736 1_555
Re8 S0 2.401790 1_554
Re8 S24 2.421271 1_565
Re8 S12 2.433728 1_655
Re8 S20 2.447168 1_565
Re8 S33 2.540423 1_555
Re9 S1 2.401790 1_556
Re9 S25 2.421271 1_555
Re9 S13 2.433728 1_555
Re9 S21 2.447168 1_555
Re9 S32 2.540423 1_555
Re10 S2 2.401790 1_555
Re10 S26 2.421271 1_565
Re10 S14 2.433728 1_555
Re10 S22 2.447168 1_565
Re10 S35 2.540423 1_555
Re11 S3 2.401790 1_555
Re11 S27 2.421271 1_555
Re11 S15 2.433728 1_455
Re11 S23 2.447168 1_555
Re11 S34 2.540423 1_555
Re12 S4 2.401790 1_556
Re12 S28 2.421271 1_545
Re12 S8 2.433728 1_455
Re12 S16 2.447168 1_545
Re12 S37 2.540423 1_555
Re13 S5 2.401790 1_554
Re13 S29 2.421271 1_555
Re13 S9 2.433728 1_555
Re13 S17 2.447168 1_555
Re13 S36 2.540423 1_555
Re14 S6 2.401790 1_555
Re14 S30 2.421271 1_545
Re14 S10 2.433728 1_555
Re14 S18 2.447168 1_545
Re14 S39 2.540423 1_555
Re15 S7 2.401790 1_555
Re15 S31 2.421271 1_555
Re15 S11 2.433728 1_655
Re15 S19 2.447168 1_555
Re15 S38 2.540423 1_555
Re16 S12 2.408094 1_556
Re16 S0 2.429723 1_455
Re16 S16 2.442293 1_555
Re16 S28 2.442618 1_555
Re16 S32 2.484919 1_555
Re17 S13 2.408094 1_554
Re17 S1 2.429723 1_555
Re17 S17 2.442293 1_555
Re17 S29 2.442618 1_555
Re17 S33 2.484919 1_555
Re18 S14 2.408094 1_555
Re18 S2 2.429723 1_555
Re18 S18 2.442293 1_555
Re18 S30 2.442618 1_555
Re18 S34 2.484919 1_555
Re19 S15 2.408094 1_555
Re19 S3 2.429723 1_655
Re19 S19 2.442293 1_555
Re19 S31 2.442618 1_555
Re19 S35 2.484919 1_555
Re20 S8 2.408094 1_554
Re20 S4 2.429723 1_655
Re20 S20 2.442293 1_555
Re20 S24 2.442618 1_555
Re20 S36 2.484919 1_555
Re21 S9 2.408094 1_556
Re21 S5 2.429723 1_555
Re21 S21 2.442293 1_555
Re21 S25 2.442618 1_555
Re21 S37 2.484919 1_555
Re22 S10 2.408094 1_555
Re22 S6 2.429723 1_555
Re22 S22 2.442293 1_555
Re22 S26 2.442618 1_555
Re22 S38 2.484919 1_555
Re23 S11 2.408094 1_555
Re23 S7 2.429723 1_455
Re23 S23 2.442293 1_555
Re23 S27 2.442618 1_555
Re23 S39 2.484919 1_555
