# generated using pymatgen
data_Na3Hg
_symmetry_space_group_name_H-M   'P 1'
_cell_length_a   6.92868257
_cell_length_b   6.92868257
_cell_length_c   5.44258841
_cell_angle_alpha   90.00000000
_cell_angle_beta   90.00000000
_cell_angle_gamma   120.00000637
_symmetry_Int_Tables_number   1
_chemical_formula_structural   Na3Hg
_chemical_formula_sum   'Na6 Hg2'
_cell_volume   226.27544416
_cell_formula_units_Z   2
loop_
 _symmetry_equiv_pos_site_id
 _symmetry_equiv_pos_as_xyz
  1  'x, y, z'
loop_
 _atom_site_type_symbol
 _atom_site_label
 _atom_site_symmetry_multiplicity
 _atom_site_fract_x
 _atom_site_fract_y
 _atom_site_fract_z
 _atom_site_occupancy
  Na  Na0  1  0.17519759  0.35039618  0.25000000  1
  Na  Na1  1  0.64960382  0.82480241  0.25000000  1
  Na  Na2  1  0.17519759  0.82480241  0.25000000  1
  Na  Na3  1  0.82480241  0.64960382  0.75000000  1
  Na  Na4  1  0.35039618  0.17519759  0.75000000  1
  Na  Na5  1  0.82480241  0.17519759  0.75000000  1
  Hg  Hg0  1  0.33333300  0.66666700  0.75000000  1
  Hg  Hg1  1  0.66666700  0.33333300  0.25000000  1
loop_
_geom_bond_atom_site_label_1
_geom_bond_atom_site_label_2
_geom_bond_distance
_geom_bond_site_symmetry_2
Na0 Na1 3.287010 1_555
Na0 Na2 3.287010 1_555
Na0 Na5 3.438898 1_455
Na0 Na5 3.438898 1_454
Na0 Na4 3.438905 1_555
Na0 Na4 3.438905 1_554
Na0 Na1 3.641672 1_445
Na0 Na2 3.641672 1_545
Na1 Na2 3.287010 1_555
Na1 Na5 3.438898 1_564
Na1 Na5 3.438898 1_565
Na1 Na3 3.438905 1_554
Na1 Na3 3.438905 1_555
Na1 Na2 3.641672 1_655
Na2 Na4 3.438898 1_564
Na2 Na4 3.438898 1_565
Na2 Na3 3.438898 1_455
Na2 Na3 3.438898 1_454
Na3 Na4 3.287010 1_555
Na3 Na5 3.287010 1_555
Na3 Na4 3.641672 1_665
Na3 Na5 3.641672 1_565
Na4 Na5 3.287010 1_555
Na4 Na5 3.641672 1_455
Hg0 Na0 3.317668 1_555
Hg0 Na0 3.317668 1_556
Hg0 Na1 3.317668 1_556
Hg0 Na1 3.317668 1_555
Hg0 Na2 3.317668 1_556
Hg0 Na2 3.317668 1_555
Hg0 Na3 3.465847 1_455
Hg0 Na4 3.465847 1_565
Hg0 Na5 3.465853 1_565
Hg0 Na5 3.465853 1_455
Hg0 Na4 3.465861 1_555
Hg0 Na3 3.465861 1_555
Hg1 Na4 3.317668 1_554
Hg1 Na4 3.317668 1_555
Hg1 Na3 3.317668 1_555
Hg1 Na3 3.317668 1_554
Hg1 Na5 3.317668 1_555
Hg1 Na5 3.317668 1_554
Hg1 Na0 3.465847 1_655
Hg1 Na1 3.465847 1_545
Hg1 Na2 3.465853 1_655
Hg1 Na2 3.465853 1_545
Hg1 Na1 3.465861 1_555
Hg1 Na0 3.465861 1_555
