# generated using pymatgen
data_KLiYF5
_symmetry_space_group_name_H-M   'P 1'
_cell_length_a   6.48376919
_cell_length_b   6.43045419
_cell_length_c   24.14050000
_cell_angle_alpha   90.00000000
_cell_angle_beta   90.00000000
_cell_angle_gamma   113.59350235
_symmetry_Int_Tables_number   1
_chemical_formula_structural   KLiYF5
_chemical_formula_sum   'K8 Li8 Y8 F40'
_cell_volume   922.36833965
_cell_formula_units_Z   8
loop_
 _symmetry_equiv_pos_site_id
 _symmetry_equiv_pos_as_xyz
  1  'x, y, z'
loop_
 _atom_site_type_symbol
 _atom_site_label
 _atom_site_symmetry_multiplicity
 _atom_site_fract_x
 _atom_site_fract_y
 _atom_site_fract_z
 _atom_site_occupancy
  K  K0  1  0.83332500  0.53309500  0.70060500  1
  K  K1  1  0.16667500  0.96690500  0.20060500  1
  K  K2  1  0.16667500  0.46690500  0.29939500  1
  K  K3  1  0.83332500  0.03309500  0.79939500  1
  K  K4  1  0.74364800  0.45935000  0.54976100  1
  K  K5  1  0.25635200  0.04065000  0.04976100  1
  K  K6  1  0.25635200  0.54065000  0.45023900  1
  K  K7  1  0.74364800  0.95935000  0.95023900  1
  Li  Li0  1  0.34255200  0.46307200  0.74980500  1
  Li  Li1  1  0.65744800  0.03692800  0.24980500  1
  Li  Li2  1  0.65744800  0.53692800  0.25019500  1
  Li  Li3  1  0.34255200  0.96307200  0.75019500  1
  Li  Li4  1  0.77956600  0.94848700  0.49779900  1
  Li  Li5  1  0.22043400  0.55151300  0.99779900  1
  Li  Li6  1  0.22043400  0.05151300  0.50220100  1
  Li  Li7  1  0.77956600  0.44848700  0.00220100  1
  Y  Y0  1  0.46606200  0.81620700  0.62580700  1
  Y  Y1  1  0.53393800  0.68379300  0.12580700  1
  Y  Y2  1  0.53393800  0.18379300  0.37419300  1
  Y  Y3  1  0.46606200  0.31620700  0.87419300  1
  Y  Y4  1  0.10217100  0.18054600  0.62594000  1
  Y  Y5  1  0.89782900  0.31945400  0.12594000  1
  Y  Y6  1  0.89782900  0.81945400  0.37406000  1
  Y  Y7  1  0.10217100  0.68054600  0.87406000  1
  F  F0  1  0.11746300  0.54516000  0.61233400  1
  F  F1  1  0.88253700  0.95484000  0.11233400  1
  F  F2  1  0.88253700  0.45484000  0.38766600  1
  F  F3  1  0.11746300  0.04516000  0.88766600  1
  F  F4  1  0.50297500  0.76871000  0.72113000  1
  F  F5  1  0.49702500  0.73129000  0.22113000  1
  F  F6  1  0.49702500  0.23129000  0.27887000  1
  F  F7  1  0.50297500  0.26871000  0.77887000  1
  F  F8  1  0.45460300  0.45218200  0.63656500  1
  F  F9  1  0.54539700  0.04781800  0.13656500  1
  F  F10  1  0.54539700  0.54781800  0.36343500  1
  F  F11  1  0.45460300  0.95218200  0.86343500  1
  F  F12  1  0.53270600  0.75560800  0.53744900  1
  F  F13  1  0.46729400  0.74439200  0.03744900  1
  F  F14  1  0.46729400  0.24439200  0.46255100  1
  F  F15  1  0.53270600  0.25560800  0.96255100  1
  F  F16  1  0.31473000  0.03078300  0.57325100  1
  F  F17  1  0.68527000  0.46921700  0.07325100  1
  F  F18  1  0.68527000  0.96921700  0.42674900  1
  F  F19  1  0.31473000  0.53078300  0.92674900  1
  F  F20  1  0.73686000  0.16963000  0.63119800  1
  F  F21  1  0.26314000  0.33037000  0.13119800  1
  F  F22  1  0.26314000  0.83037000  0.36880200  1
  F  F23  1  0.73686000  0.66963000  0.86880200  1
  F  F24  1  0.83192200  0.82708200  0.62430200  1
  F  F25  1  0.16807800  0.67291800  0.12430200  1
  F  F26  1  0.16807800  0.17291800  0.37569800  1
  F  F27  1  0.83192200  0.32708200  0.87569800  1
  F  F28  1  0.01874700  0.18993600  0.53226500  1
  F  F29  1  0.98125300  0.31006400  0.03226500  1
  F  F30  1  0.98125300  0.81006400  0.46773500  1
  F  F31  1  0.01874700  0.68993600  0.96773500  1
  F  F32  1  0.07714200  0.27883500  0.71337400  1
  F  F33  1  0.92285800  0.22116500  0.21337400  1
  F  F34  1  0.92285800  0.72116500  0.28662600  1
  F  F35  1  0.07714200  0.77883500  0.78662600  1
  F  F36  1  0.25565400  0.97042700  0.67696500  1
  F  F37  1  0.74434600  0.52957300  0.17696500  1
  F  F38  1  0.74434600  0.02957300  0.32303500  1
  F  F39  1  0.25565400  0.47042700  0.82303500  1
loop_
_geom_bond_atom_site_label_1
_geom_bond_atom_site_label_2
_geom_bond_distance
_geom_bond_site_symmetry_2
F0 Y0 2.258056 1_555
F0 Y4 2.330007 1_555
F0 K4 2.718475 1_455
F0 K0 2.797567 1_455
F1 Y1 2.258056 1_555
F1 Y5 2.330007 1_565
F1 K5 2.718475 1_665
F1 K1 2.797567 1_655
F2 Y2 2.258056 1_555
F2 Y6 2.330007 1_555
F2 K6 2.718475 1_655
F2 K2 2.797567 1_655
F3 Y3 2.258056 1_555
F3 Y7 2.330007 1_545
F3 K7 2.718475 1_445
F3 K3 2.797567 1_455
F4 Li0 1.946127 1_555
F4 Li3 2.043757 1_555
F4 Y0 2.346135 1_555
F4 K3 2.851818 1_565
F4 K0 3.118756 1_555
F5 Li1 1.946127 1_565
F5 Li2 2.043757 1_555
F5 Y1 2.346135 1_555
F5 K2 2.851818 1_555
F5 K1 3.118756 1_555
F6 Li2 1.946127 1_555
F6 Li1 2.043757 1_555
F6 Y2 2.346135 1_555
F6 K1 2.851818 1_545
F6 K2 3.118756 1_555
F7 Li3 1.946127 1_545
F7 Li0 2.043757 1_555
F7 Y3 2.346135 1_555
F7 K0 2.851818 1_555
F7 K3 3.118756 1_555
F8 Y4 2.267907 1_555
F8 Y0 2.326651 1_555
F8 K0 2.769056 1_555
F8 K4 2.799342 1_555
F9 Y5 2.267907 1_555
F9 Y1 2.326651 1_545
F9 K1 2.769056 1_545
F9 K5 2.799342 1_555
F10 Y6 2.267907 1_555
F10 Y2 2.326651 1_555
F10 K2 2.769056 1_555
F10 K6 2.799342 1_555
F11 Y7 2.267907 1_555
F11 Y3 2.326651 1_565
F11 K3 2.769056 1_565
F11 K7 2.799342 1_555
F12 Li4 1.851283 1_555
F12 Y0 2.241220 1_555
F12 K6 2.751529 1_555
F12 K4 2.770194 1_555
F13 Li5 1.851283 1_554
F13 Y1 2.241220 1_555
F13 K7 2.751529 1_554
F13 K5 2.770194 1_565
F14 Li6 1.851283 1_555
F14 Y2 2.241220 1_555
F14 K4 2.751529 1_555
F14 K6 2.770194 1_555
F15 Li7 1.851283 1_556
F15 Y3 2.241220 1_555
F15 K5 2.751529 1_556
F15 K7 2.770194 1_545
F16 Li6 1.843546 1_555
F16 Y4 2.346726 1_555
F16 Y0 2.357987 1_545
F16 K4 3.084700 1_555
F17 Li7 1.843546 1_555
F17 Y5 2.346726 1_555
F17 Y1 2.357987 1_555
F17 K5 3.084700 1_555
F18 Li4 1.843546 1_555
F18 Y6 2.346726 1_555
F18 Y2 2.357987 1_565
F18 K6 3.084700 1_555
F19 Li5 1.843546 1_555
F19 Y7 2.346726 1_555
F19 Y3 2.357987 1_555
F19 K7 3.084700 1_555
F20 Y0 2.251788 1_545
F20 Y4 2.344819 1_655
F20 K4 2.696677 1_555
F20 K0 2.736984 1_555
F21 Y1 2.251788 1_555
F21 Y5 2.344819 1_455
F21 K5 2.696677 1_555
F21 K1 2.736984 1_545
F22 Y2 2.251788 1_565
F22 Y6 2.344819 1_455
F22 K6 2.696677 1_555
F22 K2 2.736984 1_555
F23 Y3 2.251788 1_555
F23 Y7 2.344819 1_655
F23 K7 2.696677 1_555
F23 K3 2.736984 1_565
F24 Y4 2.247219 1_665
F24 Y0 2.345319 1_555
F24 K0 2.642094 1_555
F24 K4 2.841471 1_555
F25 Y5 2.247219 1_455
F25 Y1 2.345319 1_555
F25 K1 2.642094 1_555
F25 K5 2.841471 1_565
F26 Y6 2.247219 1_445
F26 Y2 2.345319 1_555
F26 K2 2.642094 1_555
F26 K6 2.841471 1_555
F27 Y7 2.247219 1_655
F27 Y3 2.345319 1_555
F27 K3 2.642094 1_555
F27 K7 2.841471 1_545
F28 Li4 1.892210 1_445
F28 Li6 1.990196 1_555
F28 Y4 2.331549 1_555
F28 K6 2.932457 1_555
F28 K4 2.972360 1_455
F29 Li5 1.892210 1_654
F29 Li7 1.990196 1_555
F29 Y5 2.331549 1_555
F29 K7 2.932457 1_544
F29 K5 2.972360 1_655
F30 Li6 1.892210 1_665
F30 Li4 1.990196 1_555
F30 Y6 2.331549 1_555
F30 K4 2.932457 1_555
F30 K6 2.972360 1_655
F31 Li7 1.892210 1_456
F31 Li5 1.990196 1_555
F31 Y7 2.331549 1_555
F31 K5 2.932457 1_566
F31 K7 2.972360 1_455
F32 Li0 1.872535 1_555
F32 Y4 2.227774 1_555
F32 K3 2.703464 1_455
F32 K0 2.708578 1_455
F33 Li1 1.872535 1_555
F33 Y5 2.227774 1_555
F33 K2 2.703464 1_655
F33 K1 2.708578 1_645
F34 Li2 1.872535 1_555
F34 Y6 2.227774 1_555
F34 K1 2.703464 1_655
F34 K2 2.708578 1_655
F35 Li3 1.872535 1_555
F35 Y7 2.227774 1_555
F35 K0 2.703464 1_455
F35 K3 2.708578 1_465
F36 Li3 1.861764 1_555
F36 Y4 2.325845 1_565
F36 Y0 2.335122 1_555
F36 K0 3.093257 1_455
F37 Li2 1.861764 1_555
F37 Y5 2.325845 1_555
F37 Y1 2.335122 1_555
F37 K1 3.093257 1_655
F38 Li1 1.861764 1_555
F38 Y6 2.325845 1_545
F38 Y2 2.335122 1_555
F38 K2 3.093257 1_655
F39 Li0 1.861764 1_555
F39 Y7 2.325845 1_555
F39 Y3 2.335122 1_555
F39 K3 3.093257 1_455
