# generated using pymatgen
data_Zr6Te2Pt
_symmetry_space_group_name_H-M   'P 1'
_cell_length_a   7.78287032
_cell_length_b   7.78287032
_cell_length_c   3.76296335
_cell_angle_alpha   90.00000000
_cell_angle_beta   90.00000000
_cell_angle_gamma   120.00000256
_symmetry_Int_Tables_number   1
_chemical_formula_structural   Zr6Te2Pt
_chemical_formula_sum   'Zr6 Te2 Pt1'
_cell_volume   197.39684066
_cell_formula_units_Z   1
loop_
 _symmetry_equiv_pos_site_id
 _symmetry_equiv_pos_as_xyz
  1  'x, y, z'
loop_
 _atom_site_type_symbol
 _atom_site_label
 _atom_site_symmetry_multiplicity
 _atom_site_fract_x
 _atom_site_fract_y
 _atom_site_fract_z
 _atom_site_occupancy
  Zr  Zr0  1  0.24857002  -0.00000000  0.50000000  1
  Zr  Zr1  1  -0.00000000  0.24857002  0.50000000  1
  Zr  Zr2  1  0.75142998  0.75142998  0.50000000  1
  Zr  Zr3  1  0.59045526  0.00000000  0.00000000  1
  Zr  Zr4  1  0.00000000  0.59045526  -0.00000000  1
  Zr  Zr5  1  0.40954474  0.40954474  -0.00000000  1
  Te  Te0  1  0.33333300  0.66666700  0.50000000  1
  Te  Te1  1  0.66666700  0.33333300  0.50000000  1
  Pt  Pt0  1  0.00000000  0.00000000  0.00000000  1
loop_
_geom_bond_atom_site_label_1
_geom_bond_atom_site_label_2
_geom_bond_distance
_geom_bond_site_symmetry_2
Te0 Zr0 2.979426 1_565
Te0 Zr1 2.979431 1_555
Te0 Zr2 2.979434 1_555
Te0 Zr4 3.013857 1_555
Te0 Zr4 3.013857 1_556
Te0 Zr3 3.013858 1_566
Te0 Zr3 3.013858 1_565
Te0 Zr5 3.013863 1_555
Te0 Zr5 3.013863 1_556
Te1 Zr1 2.979426 1_655
Te1 Zr0 2.979431 1_555
Te1 Zr2 2.979434 1_555
Te1 Zr3 3.013857 1_555
Te1 Zr3 3.013857 1_556
Te1 Zr4 3.013858 1_656
Te1 Zr4 3.013858 1_655
Te1 Zr5 3.013863 1_555
Te1 Zr5 3.013863 1_556
Pt0 Zr2 2.698630 1_445
Pt0 Zr2 2.698630 1_444
Pt0 Zr1 2.698630 1_555
Pt0 Zr1 2.698630 1_554
Pt0 Zr0 2.698630 1_555
Pt0 Zr0 2.698630 1_554
Pt0 Zr5 3.187433 1_555
Pt0 Zr3 3.187434 1_455
Pt0 Zr4 3.187434 1_545
