# generated using pymatgen
data_Li7Mn4CoO12
_symmetry_space_group_name_H-M   'P 1'
_cell_length_a   7.79482558
_cell_length_b   7.79482558
_cell_length_c   10.40608717
_cell_angle_alpha   72.90498483
_cell_angle_beta   72.90498483
_cell_angle_gamma   21.24619107
_symmetry_Int_Tables_number   1
_chemical_formula_structural   Li7Mn4CoO12
_chemical_formula_sum   'Li7 Mn4 Co1 O12'
_cell_volume   218.63088587
_cell_formula_units_Z   1
loop_
 _symmetry_equiv_pos_site_id
 _symmetry_equiv_pos_as_xyz
  1  'x, y, z'
loop_
 _atom_site_type_symbol
 _atom_site_label
 _atom_site_symmetry_multiplicity
 _atom_site_fract_x
 _atom_site_fract_y
 _atom_site_fract_z
 _atom_site_occupancy
  Li  Li0  1  0.50361900  0.50361900  0.24432000  1
  Li  Li1  1  0.50406600  0.50406600  0.75495200  1
  Li  Li2  1  0.82948600  0.82948600  0.42493300  1
  Li  Li3  1  0.82964600  0.82964600  0.90848200  1
  Li  Li4  1  0.17028600  0.17028600  0.06858100  1
  Li  Li5  1  0.16350900  0.16350900  0.59879400  1
  Li  Li6  1  0.66793900  0.66793900  0.83226100  1
  Mn  Mn0  1  0.00912700  0.00912700  0.98536500  1
  Mn  Mn1  1  0.32697800  0.32697800  0.67721900  1
  Mn  Mn2  1  0.33584600  0.33584600  0.16026300  1
  Mn  Mn3  1  0.66393700  0.66393700  0.33774000  1
  Co  Co0  1  0.99540400  0.99540400  0.50865100  1
  O  O0  1  0.57650200  0.57650200  0.03808400  1
  O  O1  1  0.56962100  0.56962100  0.54532600  1
  O  O2  1  0.91546700  0.91546700  0.19317700  1
  O  O3  1  0.90530400  0.90530400  0.70525900  1
  O  O4  1  0.25881200  0.25881200  0.85444900  1
  O  O5  1  0.24070600  0.24070600  0.37570200  1
  O  O6  1  0.41855300  0.41855300  0.47657300  1
  O  O7  1  0.43082800  0.43082800  0.95712500  1
  O  O8  1  0.75842800  0.75842800  0.62646700  1
  O  O9  1  0.76045900  0.76045900  0.12091700  1
  O  O10  1  0.08838300  0.08838300  0.29699900  1
  O  O11  1  0.07709600  0.07709600  0.80836200  1
loop_
_geom_bond_atom_site_label_1
_geom_bond_atom_site_label_2
_geom_bond_distance
_geom_bond_site_symmetry_2
Li0 O0 2.102215 1_555
Li0 O10 2.116150 1_565
Li0 O10 2.116150 1_655
Li0 O2 2.145338 1_455
Li0 O2 2.145338 1_545
Li0 O6 2.378176 1_555
Li1 O11 1.999481 1_565
Li1 O11 1.999481 1_655
Li1 O7 2.067172 1_555
Li1 O1 2.111099 1_555
Li1 O3 2.256178 1_545
Li1 O3 2.256178 1_455
Li2 O8 2.053723 1_555
Li2 O5 2.143514 1_655
Li2 O5 2.143514 1_565
Li2 O6 2.157490 1_655
Li2 O6 2.157490 1_565
Li2 O2 2.377247 1_555
Li3 O4 1.980914 1_565
Li3 O4 1.980914 1_655
Li3 O3 2.085581 1_555
Li3 O9 2.146827 1_556
Li3 O7 2.279056 1_655
Li3 O7 2.279056 1_565
Li4 O0 2.122103 1_455
Li4 O0 2.122103 1_545
Li4 O9 2.172688 1_455
Li4 O9 2.172688 1_545
Li4 O4 2.235435 1_554
Li4 O10 2.332476 1_555
Li5 O8 2.124512 1_455
Li5 O8 2.124512 1_545
Li5 O11 2.186722 1_555
Li5 O1 2.218730 1_455
Li5 O1 2.218730 1_545
Li5 O5 2.268479 1_555
Li6 O4 2.061367 1_655
Li6 O4 2.061367 1_565
Li6 O11 2.066701 1_565
Li6 O11 2.066701 1_655
Li6 O8 2.175406 1_555
Li6 O0 2.180669 1_556
Mn0 O11 1.824777 1_555
Mn0 O0 1.941732 1_546
Mn0 O0 1.941732 1_456
Mn0 O7 1.949732 1_545
Mn0 O7 1.949732 1_455
Mn0 O2 2.208982 1_446
Mn1 O4 1.827571 1_555
Mn1 O8 1.943921 1_455
Mn1 O8 1.943921 1_545
Mn1 O3 1.949310 1_455
Mn1 O3 1.949310 1_545
Mn1 O6 2.139132 1_555
Mn2 O9 1.962059 1_455
Mn2 O9 1.962059 1_545
Mn2 O2 1.980019 1_545
Mn2 O2 1.980019 1_455
Mn2 O7 2.178600 1_554
Mn2 O5 2.279524 1_555
Mn3 O10 1.969358 1_565
Mn3 O10 1.969358 1_655
Mn3 O5 1.970409 1_655
Mn3 O5 1.970409 1_565
Mn3 O1 2.210751 1_555
Mn3 O9 2.298273 1_555
Co0 O1 1.939922 1_655
Co0 O1 1.939922 1_565
Co0 O6 1.948849 1_565
Co0 O6 1.948849 1_655
Co0 O3 2.098141 1_555
Co0 O10 2.236879 1_665
