# generated using pymatgen
data_KLu(SO5)2
_symmetry_space_group_name_H-M   'P 1'
_cell_length_a   8.17421300
_cell_length_b   10.00125900
_cell_length_c   10.86231902
_cell_angle_alpha   81.26401829
_cell_angle_beta   90.00000000
_cell_angle_gamma   90.00000000
_symmetry_Int_Tables_number   1
_chemical_formula_structural   KLu(SO5)2
_chemical_formula_sum   'K4 Lu4 S8 O40'
_cell_volume   877.71868467
_cell_formula_units_Z   4
loop_
 _symmetry_equiv_pos_site_id
 _symmetry_equiv_pos_as_xyz
  1  'x, y, z'
loop_
 _atom_site_type_symbol
 _atom_site_label
 _atom_site_symmetry_multiplicity
 _atom_site_fract_x
 _atom_site_fract_y
 _atom_site_fract_z
 _atom_site_occupancy
  K  K0  1  0.26804500  0.58552800  0.36630100  1
  K  K1  1  0.76804500  0.91447200  0.63369900  1
  K  K2  1  0.73195500  0.41447200  0.63369900  1
  K  K3  1  0.23195500  0.08552800  0.36630100  1
  Lu  Lu0  1  0.76506000  0.53331800  0.18242800  1
  Lu  Lu1  1  0.26506000  0.96668200  0.81757200  1
  Lu  Lu2  1  0.23494000  0.46668200  0.81757200  1
  Lu  Lu3  1  0.73494000  0.03331800  0.18242800  1
  S  S0  1  0.72719100  0.20861700  0.38300000  1
  S  S1  1  0.22719100  0.29138300  0.61700000  1
  S  S2  1  0.27280900  0.79138300  0.61700000  1
  S  S3  1  0.77280900  0.70861700  0.38300000  1
  S  S4  1  0.85246600  0.31087400  0.96940600  1
  S  S5  1  0.35246600  0.18912600  0.03059400  1
  S  S6  1  0.14753400  0.68912600  0.03059400  1
  S  S7  1  0.64753400  0.81087400  0.96940600  1
  O  O0  1  0.58867300  0.14904800  0.31704700  1
  O  O1  1  0.08867300  0.35095200  0.68295300  1
  O  O2  1  0.41132700  0.85095200  0.68295300  1
  O  O3  1  0.91132700  0.64904800  0.31704700  1
  O  O4  1  0.71145700  0.18133900  0.51848200  1
  O  O5  1  0.21145700  0.31866100  0.48151800  1
  O  O6  1  0.28854300  0.81866100  0.48151800  1
  O  O7  1  0.78854300  0.68133900  0.51848200  1
  O  O8  1  0.72679400  0.36038500  0.34161600  1
  O  O9  1  0.22679400  0.13961500  0.65838400  1
  O  O10  1  0.27320600  0.63961500  0.65838400  1
  O  O11  1  0.77320600  0.86038500  0.34161600  1
  O  O12  1  0.87890000  0.14783400  0.33679500  1
  O  O13  1  0.37890000  0.35216600  0.66320500  1
  O  O14  1  0.12110000  0.85216600  0.66320500  1
  O  O15  1  0.62110000  0.64783400  0.33679500  1
  O  O16  1  0.02013300  0.37220800  0.93820000  1
  O  O17  1  0.52013300  0.12779200  0.06180000  1
  O  O18  1  0.97986700  0.62779200  0.06180000  1
  O  O19  1  0.47986700  0.87220800  0.93820000  1
  O  O20  1  0.88112300  0.18837200  0.06369800  1
  O  O21  1  0.38112300  0.31162800  0.93630200  1
  O  O22  1  0.11887700  0.81162800  0.93630200  1
  O  O23  1  0.61887700  0.68837200  0.06369800  1
  O  O24  1  0.75585200  0.40902800  0.03106000  1
  O  O25  1  0.25585200  0.09097200  0.96894000  1
  O  O26  1  0.24414800  0.59097200  0.96894000  1
  O  O27  1  0.74414800  0.90902800  0.03106000  1
  O  O28  1  0.77203500  0.27866000  0.85892900  1
  O  O29  1  0.27203500  0.22134000  0.14107100  1
  O  O30  1  0.22796500  0.72134000  0.14107100  1
  O  O31  1  0.72796500  0.77866000  0.85892900  1
  O  O32  1  0.50679900  0.53072600  0.79954000  1
  O  O33  1  0.00679900  0.96927400  0.20046000  1
  O  O34  1  0.49320100  0.46927400  0.20046000  1
  O  O35  1  0.99320100  0.03072600  0.79954000  1
  O  O36  1  0.52263600  0.05399900  0.78898500  1
  O  O37  1  0.02263600  0.44600100  0.21101500  1
  O  O38  1  0.47736400  0.94600100  0.21101500  1
  O  O39  1  0.97736400  0.55399900  0.78898500  1
loop_
_geom_bond_atom_site_label_1
_geom_bond_atom_site_label_2
_geom_bond_distance
_geom_bond_site_symmetry_2
K0 O30 2.632170 1_555
K0 O5 2.808772 1_555
K0 O6 2.813763 1_555
K0 O34 2.936071 1_555
K0 O15 2.959569 1_555
K0 O3 3.014794 1_455
K0 O37 3.087326 1_555
K0 O10 3.298748 1_555
K1 O31 2.632170 1_555
K1 O4 2.808772 1_565
K1 O7 2.813763 1_555
K1 O35 2.936071 1_565
K1 O14 2.959569 1_655
K1 O2 3.014794 1_555
K1 O36 3.087326 1_565
K1 O11 3.298748 1_555
K2 O28 2.632170 1_555
K2 O7 2.808772 1_555
K2 O4 2.813763 1_555
K2 O32 2.936071 1_555
K2 O13 2.959569 1_555
K2 O1 3.014794 1_655
K2 O39 3.087326 1_555
K2 O8 3.298748 1_555
K3 O29 2.632170 1_555
K3 O6 2.808772 1_545
K3 O5 2.813763 1_555
K3 O33 2.936071 1_545
K3 O12 2.959569 1_455
K3 O0 3.014794 1_555
K3 O38 3.087326 1_545
K3 O9 3.298748 1_555
Lu0 O24 2.207967 1_555
Lu0 O23 2.210975 1_555
Lu0 O8 2.273915 1_555
Lu0 O37 2.282481 1_655
Lu0 O18 2.305792 1_555
Lu0 O34 2.312757 1_555
Lu0 O3 2.328422 1_555
Lu0 O15 2.468085 1_555
Lu1 O25 2.207967 1_565
Lu1 O22 2.210975 1_555
Lu1 O9 2.273915 1_565
Lu1 O36 2.282481 1_565
Lu1 O19 2.305792 1_555
Lu1 O35 2.312757 1_465
Lu1 O2 2.328422 1_555
Lu1 O14 2.468085 1_555
Lu2 O26 2.207967 1_555
Lu2 O21 2.210975 1_555
Lu2 O10 2.273915 1_555
Lu2 O39 2.282481 1_455
Lu2 O16 2.305792 1_555
Lu2 O32 2.312757 1_555
Lu2 O1 2.328422 1_555
Lu2 O13 2.468085 1_555
Lu3 O27 2.207967 1_545
Lu3 O20 2.210975 1_555
Lu3 O11 2.273915 1_545
Lu3 O38 2.282481 1_545
Lu3 O17 2.305792 1_555
Lu3 O33 2.312757 1_645
Lu3 O0 2.328422 1_555
Lu3 O12 2.468085 1_555
O0 S0 1.509922 1_555
O1 S1 1.509922 1_555
O2 S2 1.509922 1_555
O3 S3 1.509922 1_555
O4 S0 1.461082 1_555
O5 S1 1.461082 1_555
O6 S2 1.461082 1_555
O7 S3 1.461082 1_555
O8 S0 1.516164 1_555
O9 S1 1.516164 1_555
O10 S2 1.516164 1_555
O11 S3 1.516164 1_555
O12 S0 1.500660 1_555
O13 S1 1.500660 1_555
O14 S2 1.500660 1_555
O15 S3 1.500660 1_555
O16 S4 1.518689 1_455
O17 S5 1.518689 1_555
O18 S6 1.518689 1_655
O19 S7 1.518689 1_555
O20 S4 1.491238 1_554
O21 S5 1.491238 1_556
O22 S6 1.491238 1_556
O23 S7 1.491238 1_554
O24 S4 1.495181 1_554
O25 S5 1.495181 1_556
O26 S6 1.495181 1_556
O27 S7 1.495181 1_554
O28 S4 1.446923 1_555
O29 S5 1.446923 1_555
O30 S6 1.446923 1_555
O31 S7 1.446923 1_555
