# generated using pymatgen
data_Si6Bi3N11
_symmetry_space_group_name_H-M   'P 1'
_cell_length_a   10.18171600
_cell_length_b   10.18171600
_cell_length_c   4.94538600
_cell_angle_alpha   90.00000000
_cell_angle_beta   90.00000000
_cell_angle_gamma   90.00000000
_symmetry_Int_Tables_number   1
_chemical_formula_structural   Si6Bi3N11
_chemical_formula_sum   'Si12 Bi6 N22'
_cell_volume   512.67501538
_cell_formula_units_Z   2
loop_
 _symmetry_equiv_pos_site_id
 _symmetry_equiv_pos_as_xyz
  1  'x, y, z'
loop_
 _atom_site_type_symbol
 _atom_site_label
 _atom_site_symmetry_multiplicity
 _atom_site_fract_x
 _atom_site_fract_y
 _atom_site_fract_z
 _atom_site_occupancy
  Si  Si0  1  0.41982200  0.29047300  0.53270500  1
  Si  Si1  1  0.58017800  0.70952700  0.53270500  1
  Si  Si2  1  0.08017800  0.79047300  0.53270500  1
  Si  Si3  1  0.91982200  0.20952700  0.53270500  1
  Si  Si4  1  0.29047300  0.58017800  0.53270500  1
  Si  Si5  1  0.70952700  0.41982200  0.53270500  1
  Si  Si6  1  0.79047300  0.91982200  0.53270500  1
  Si  Si7  1  0.20952700  0.08017800  0.53270500  1
  Si  Si8  1  0.88228100  0.38228100  0.04684700  1
  Si  Si9  1  0.11771900  0.61771900  0.04684700  1
  Si  Si10  1  0.61771900  0.88228100  0.04684700  1
  Si  Si11  1  0.38228100  0.11771900  0.04684700  1
  Bi  Bi0  1  0.31723100  0.81723100  0.97446400  1
  Bi  Bi1  1  0.68276900  0.18276900  0.97446400  1
  Bi  Bi2  1  0.18276900  0.31723100  0.97446400  1
  Bi  Bi3  1  0.81723100  0.68276900  0.97446400  1
  Bi  Bi4  1  0.50000000  0.50000000  0.98007200  1
  Bi  Bi5  1  0.00000000  0.00000000  0.98007200  1
  N  N0  1  0.32219900  0.42222300  0.65199500  1
  N  N1  1  0.67780100  0.57777700  0.65199500  1
  N  N2  1  0.17780100  0.92222300  0.65199500  1
  N  N3  1  0.82219900  0.07777700  0.65199500  1
  N  N4  1  0.42222300  0.67780100  0.65199500  1
  N  N5  1  0.57777700  0.32219900  0.65199500  1
  N  N6  1  0.92222300  0.82219900  0.65199500  1
  N  N7  1  0.07777700  0.17780100  0.65199500  1
  N  N8  1  0.42541100  0.26768900  0.18840500  1
  N  N9  1  0.57458900  0.73231100  0.18840500  1
  N  N10  1  0.07458900  0.76768900  0.18840500  1
  N  N11  1  0.92541100  0.23231100  0.18840500  1
  N  N12  1  0.26768900  0.57458900  0.18840500  1
  N  N13  1  0.73231100  0.42541100  0.18840500  1
  N  N14  1  0.76768900  0.92541100  0.18840500  1
  N  N15  1  0.23231100  0.07458900  0.18840500  1
  N  N16  1  0.84295400  0.34295400  0.70352600  1
  N  N17  1  0.15704600  0.65704600  0.70352600  1
  N  N18  1  0.65704600  0.84295400  0.70352600  1
  N  N19  1  0.34295400  0.15704600  0.70352600  1
  N  N20  1  0.50000000  0.00000000  0.04637400  1
  N  N21  1  0.00000000  0.50000000  0.04637400  1
loop_
_geom_bond_atom_site_label_1
_geom_bond_atom_site_label_2
_geom_bond_distance
_geom_bond_site_symmetry_2
Bi0 N4 2.387740 1_555
Bi0 N2 2.387740 1_555
Bi0 N20 2.655632 1_566
Bi0 N17 2.667464 1_555
Bi0 N12 2.734461 1_556
Bi0 N10 2.734461 1_556
Bi1 N3 2.387740 1_555
Bi1 N5 2.387740 1_555
Bi1 N20 2.655632 1_556
Bi1 N16 2.667464 1_555
Bi1 N13 2.734461 1_556
Bi1 N11 2.734461 1_556
Bi2 N0 2.387740 1_555
Bi2 N7 2.387740 1_555
Bi2 N21 2.655632 1_556
Bi2 N19 2.667464 1_555
Bi2 N8 2.734461 1_556
Bi2 N15 2.734461 1_556
Bi3 N1 2.387740 1_555
Bi3 N6 2.387740 1_555
Bi3 N21 2.655632 1_656
Bi3 N18 2.667464 1_555
Bi3 N9 2.734461 1_556
Bi3 N14 2.734461 1_556
Bi4 N5 2.556710 1_555
Bi4 N1 2.556710 1_555
Bi4 N0 2.556710 1_555
Bi4 N4 2.556710 1_555
Bi4 N9 2.689425 1_556
Bi4 N13 2.689425 1_556
Bi4 N8 2.689425 1_556
Bi4 N12 2.689425 1_556
Bi5 N3 2.556710 1_455
Bi5 N7 2.556710 1_555
Bi5 N2 2.556710 1_545
Bi5 N6 2.556710 1_445
Bi5 N15 2.689425 1_556
Bi5 N11 2.689425 1_456
Bi5 N10 2.689425 1_546
Bi5 N14 2.689425 1_446
N0 Si4 1.743229 1_555
N0 Si0 1.770724 1_555
N1 Si5 1.743229 1_555
N1 Si1 1.770724 1_555
N2 Si7 1.743229 1_565
N2 Si2 1.770724 1_555
N3 Si6 1.743229 1_545
N3 Si3 1.770724 1_555
N4 Si1 1.743229 1_555
N4 Si4 1.770724 1_555
N5 Si0 1.743229 1_555
N5 Si5 1.770724 1_555
N6 Si2 1.743229 1_655
N6 Si6 1.770724 1_555
N7 Si3 1.743229 1_455
N7 Si7 1.770724 1_555
N8 Si0 1.719369 1_555
N8 Si11 1.736233 1_555
N9 Si1 1.719369 1_555
N9 Si10 1.736233 1_555
N10 Si2 1.719369 1_555
N10 Si9 1.736233 1_555
N11 Si3 1.719369 1_555
N11 Si8 1.736233 1_555
N12 Si4 1.719369 1_555
N12 Si9 1.736233 1_555
N13 Si5 1.719369 1_555
N13 Si8 1.736233 1_555
N14 Si6 1.719369 1_555
N14 Si10 1.736233 1_555
N15 Si7 1.719369 1_555
N15 Si11 1.736233 1_555
N16 Si3 1.780941 1_555
N16 Si5 1.780941 1_555
N16 Si8 1.789798 1_556
N17 Si2 1.780941 1_555
N17 Si4 1.780941 1_555
N17 Si9 1.789798 1_556
N18 Si6 1.780941 1_555
N18 Si1 1.780941 1_555
N18 Si10 1.789798 1_556
N19 Si0 1.780941 1_555
N19 Si7 1.780941 1_555
N19 Si11 1.789798 1_556
N20 Si11 1.695052 1_555
N20 Si10 1.695052 1_545
N21 Si9 1.695052 1_555
N21 Si8 1.695052 1_455
