# generated using pymatgen
data_B2O3
_symmetry_space_group_name_H-M   'P 1'
_cell_length_a   10.12348586
_cell_length_b   10.78823407
_cell_length_c   12.25752444
_cell_angle_alpha   81.91380357
_cell_angle_beta   89.08521824
_cell_angle_gamma   91.80595731
_symmetry_Int_Tables_number   1
_chemical_formula_structural   B2O3
_chemical_formula_sum   'B40 O60'
_cell_volume   1324.45009922
_cell_formula_units_Z   20
loop_
 _symmetry_equiv_pos_site_id
 _symmetry_equiv_pos_as_xyz
  1  'x, y, z'
loop_
 _atom_site_type_symbol
 _atom_site_label
 _atom_site_symmetry_multiplicity
 _atom_site_fract_x
 _atom_site_fract_y
 _atom_site_fract_z
 _atom_site_occupancy
  B  B0  1  0.72798489  0.56036769  0.71476821  1
  B  B1  1  0.43210547  0.63057838  0.00900090  1
  B  B2  1  0.95128077  0.46595176  0.00199005  1
  B  B3  1  0.00399099  0.53433326  0.43899204  1
  B  B4  1  0.59806225  0.14573044  0.83569250  1
  B  B5  1  0.69972683  0.84275659  0.48614458  1
  B  B6  1  0.49527325  0.70656981  0.49728548  1
  B  B7  1  0.79398495  0.87295527  0.28575999  1
  B  B8  1  0.17906416  0.48786963  0.29200614  1
  B  B9  1  0.31227190  0.27900827  0.29585395  1
  B  B10  1  0.28459694  0.98694318  0.13439880  1
  B  B11  1  0.99721532  0.24825407  0.04365594  1
  B  B12  1  0.00508340  0.89751221  0.86851087  1
  B  B13  1  0.41764433  0.91627671  0.42579510  1
  B  B14  1  0.75714371  0.69328394  0.17383782  1
  B  B15  1  0.87449080  0.03141953  0.12095966  1
  B  B16  1  0.70750276  0.88185666  0.03423704  1
  B  B17  1  0.59055630  0.91358342  0.83830412  1
  B  B18  1  0.42555504  0.22987768  0.97167141  1
  B  B19  1  0.80157511  0.02284744  0.89069052  1
  B  B20  1  0.57126251  0.36727656  0.71676128  1
  B  B21  1  0.18749185  0.22651502  0.86844759  1
  B  B22  1  0.39606578  0.52845562  0.64206023  1
  B  B23  1  0.83058965  0.38988507  0.38732450  1
  B  B24  1  0.48198587  0.09133447  0.52073603  1
  B  B25  1  0.06194171  0.97422921  0.51166002  1
  B  B26  1  0.97408011  0.34696194  0.85354650  1
  B  B27  1  0.21826238  0.60776777  0.10059594  1
  B  B28  1  0.68962152  0.44615943  0.22027895  1
  B  B29  1  0.19618752  0.65795471  0.68874796  1
  B  B30  1  0.49095949  0.31770094  0.15453411  1
  B  B31  1  0.83405194  0.00756383  0.54326517  1
  B  B32  1  0.02912670  0.69543117  0.99748923  1
  B  B33  1  0.05270730  0.25031865  0.70253272  1
  B  B34  1  0.56786043  0.67790366  0.83968125  1
  B  B35  1  0.14145342  0.86838539  0.70132452  1
  B  B36  1  0.25335032  0.05831589  0.37479581  1
  B  B37  1  0.97069930  0.60634177  0.63171764  1
  B  B38  1  0.47385880  0.84979557  0.08405110  1
  B  B39  1  0.90378388  0.21350582  0.54839640  1
  O  O0  1  0.81208705  0.98504711  0.03643833  1
  O  O1  1  0.73277596  0.56708742  0.19290984  1
  O  O2  1  0.17175535  0.98122509  0.44612018  1
  O  O3  1  0.66370207  0.63873685  0.77533171  1
  O  O4  1  0.44082175  0.59451442  0.54312131  1
  O  O5  1  0.47096414  0.73697819  0.04920392  1
  O  O6  1  0.72527720  0.89341978  0.37811221  1
  O  O7  1  0.11951975  0.88297855  0.80881919  1
  O  O8  1  0.54418816  0.02545112  0.80260879  1
  O  O9  1  0.16298949  0.21020593  0.76232387  1
  O  O10  1  0.68681234  0.44134385  0.70603486  1
  O  O11  1  0.42225357  0.79064462  0.42675543  1
  O  O12  1  0.57339256  0.24455469  0.74891402  1
  O  O13  1  0.02422941  0.22269522  0.60156110  1
  O  O14  1  0.49635863  0.59629628  0.91886666  1
  O  O15  1  0.74339531  0.13301656  0.85890614  1
  O  O16  1  0.96952746  0.79962027  0.94934412  1
  O  O17  1  0.95580641  0.58377830  0.02396822  1
  O  O18  1  0.06677903  0.93347626  0.62266916  1
  O  O19  1  0.98045010  0.36233140  0.07830458  1
  O  O20  1  0.85967629  0.97660603  0.22697224  1
  O  O21  1  0.26649577  0.39784358  0.28065667  1
  O  O22  1  0.43429305  0.26082050  0.25312200  1
  O  O23  1  0.29615865  0.22665253  0.92333073  1
  O  O24  1  0.15839992  0.57828205  0.20212496  1
  O  O25  1  0.84102125  0.60534428  0.65733223  1
  O  O26  1  0.62383776  0.73575824  0.51774134  1
  O  O27  1  0.28207548  0.56353671  0.69125192  1
  O  O28  1  0.48682477  0.20496849  0.52008835  1
  O  O29  1  0.70870855  0.90621792  0.90514231  1
  O  O30  1  0.43081595  0.29534695  0.05953571  1
  O  O31  1  0.35513922  0.89092096  0.12333538  1
  O  O32  1  0.95166624  0.14022486  0.09549311  1
  O  O33  1  0.33176291  0.55725212  0.06551771  1
  O  O34  1  0.74795723  0.90617044  0.56718639  1
  O  O35  1  0.52822504  0.17078591  0.93816964  1
  O  O36  1  0.05548459  0.26089846  0.92757517  1
  O  O37  1  0.59957772  0.39787091  0.15230389  1
  O  O38  1  0.06214731  0.62777558  0.70978415  1
  O  O39  1  0.45130925  0.42395778  0.69291032  1
  O  O40  1  0.74024988  0.36929655  0.30864942  1
  O  O41  1  0.53368358  0.80197805  0.82129852  1
  O  O42  1  0.81726490  0.11405004  0.58841501  1
  O  O43  1  0.97171018  0.33368163  0.74682962  1
  O  O44  1  0.36351367  0.99673034  0.34224903  1
  O  O45  1  0.79874614  0.75348532  0.26062144  1
  O  O46  1  0.23303620  0.18305323  0.35117223  1
  O  O47  1  0.93086667  0.00185405  0.85012869  1
  O  O48  1  0.88047050  0.50633227  0.40106518  1
  O  O49  1  0.73992929  0.75741324  0.07191434  1
  O  O50  1  0.20728601  0.07149017  0.13973265  1
  O  O51  1  0.11566032  0.49731046  0.38915531  1
  O  O52  1  0.58644746  0.92051164  0.08259615  1
  O  O53  1  0.15913205  0.69708941  0.02561921  1
  O  O54  1  0.47178917  0.96919076  0.51509072  1
  O  O55  1  0.91707468  0.44063431  0.89705992  1
  O  O56  1  0.94126917  0.00424719  0.47017194  1
  O  O57  1  0.87400158  0.28829807  0.45570896  1
  O  O58  1  0.02221283  0.59678752  0.52766254  1
  O  O59  1  0.23364937  0.78271609  0.67603819  1
loop_
_geom_bond_atom_site_label_1
_geom_bond_atom_site_label_2
_geom_bond_distance
_geom_bond_site_symmetry_2
B0 O10 1.356596 1_555
B0 O25 1.372492 1_555
B0 O3 1.373036 1_555
B1 O5 1.360901 1_555
B1 O14 1.373933 1_554
B1 O33 1.382130 1_555
B2 O17 1.335490 1_555
B2 O19 1.395466 1_555
B2 O55 1.398524 1_554
B3 O58 1.368902 1_555
B3 O51 1.373222 1_555
B3 O48 1.380319 1_455
B4 O12 1.427126 1_555
B4 O35 1.493299 1_555
B4 O8 1.502054 1_555
B4 O15 1.509815 1_555
B5 O34 1.370704 1_555
B5 O26 1.371685 1_555
B5 O6 1.376847 1_555
B6 O4 1.355709 1_555
B6 O26 1.364838 1_555
B6 O11 1.399496 1_555
B7 O6 1.367055 1_555
B7 O45 1.368804 1_555
B7 O20 1.386739 1_555
B8 O21 1.354368 1_555
B8 O51 1.361700 1_555
B8 O24 1.388108 1_555
B9 O22 1.364661 1_555
B9 O21 1.366036 1_555
B9 O46 1.381173 1_555
B10 O50 1.228378 1_565
B10 O31 1.297900 1_555
B11 O32 1.312654 1_555
B11 O19 1.371749 1_555
B11 O36 1.518104 1_654
B12 O47 1.367387 1_465
B12 O16 1.377267 1_455
B12 O7 1.385170 1_555
B13 O11 1.356024 1_555
B13 O44 1.378475 1_555
B13 O54 1.414057 1_555
B14 O49 1.356919 1_555
B14 O1 1.362523 1_555
B14 O45 1.386426 1_555
B15 O20 1.353796 1_545
B15 O0 1.367299 1_545
B15 O32 1.384566 1_555
B16 O49 1.407698 1_555
B16 O52 1.451098 1_555
B16 O0 1.515281 1_555
B16 O29 1.566952 1_554
B17 O8 1.327401 1_565
B17 O41 1.362116 1_555
B17 O29 1.458482 1_555
B18 O35 1.325565 1_555
B18 O30 1.369335 1_556
B18 O23 1.447747 1_555
B19 O15 1.353688 1_555
B19 O47 1.428721 1_555
B19 O29 1.534857 1_545
B19 O0 1.781315 1_546
B20 O12 1.328126 1_555
B20 O10 1.389514 1_555
B20 O39 1.393510 1_555
B21 O23 1.298680 1_555
B21 O9 1.362550 1_555
B21 O36 1.588934 1_555
B22 O39 1.351062 1_555
B22 O4 1.379450 1_555
B22 O27 1.381297 1_555
B23 O57 1.371327 1_555
B23 O48 1.372518 1_555
B23 O40 1.375265 1_555
B24 O28 1.224248 1_555
B24 O54 1.330084 1_545
B25 O2 1.355022 1_555
B25 O56 1.361727 1_465
B25 O18 1.371997 1_555
B26 O43 1.336300 1_555
B26 O55 1.348077 1_555
B26 O36 1.483130 1_655
B27 O24 1.367336 1_555
B27 O33 1.375404 1_555
B27 O53 1.391508 1_555
B28 O1 1.357076 1_555
B28 O37 1.383108 1_555
B28 O40 1.383996 1_555
B29 O27 1.357343 1_555
B29 O59 1.373551 1_555
B29 O38 1.396846 1_555
B30 O30 1.370105 1_555
B30 O37 1.374897 1_555
B30 O22 1.383126 1_555
B31 O42 1.357593 1_555
B31 O34 1.372466 1_545
B31 O56 1.400902 1_555
B32 O16 1.357651 1_455
B32 O53 1.366049 1_556
B32 O17 1.390384 1_456
B33 O13 1.346652 1_555
B33 O9 1.392189 1_555
B33 O43 1.394856 1_455
B34 O3 1.355450 1_555
B34 O41 1.381669 1_555
B34 O14 1.392176 1_555
B35 O18 1.363960 1_555
B35 O7 1.364341 1_555
B35 O59 1.395387 1_555
B36 O46 1.358955 1_555
B36 O2 1.366536 1_545
B36 O44 1.396925 1_545
B37 O25 1.344292 1_555
B37 O38 1.379575 1_655
B37 O58 1.388708 1_655
B38 O5 1.345008 1_555
B38 O52 1.349879 1_555
B38 O31 1.395852 1_555
B39 O57 1.342049 1_555
B39 O42 1.392114 1_555
B39 O13 1.398996 1_655
