# generated using pymatgen
data_ReTc(PbO3)2
_symmetry_space_group_name_H-M   'P 1'
_cell_length_a   5.68259859
_cell_length_b   5.68259859
_cell_length_c   5.68259859
_cell_angle_alpha   60.00000000
_cell_angle_beta   60.00000000
_cell_angle_gamma   60.00000000
_symmetry_Int_Tables_number   1
_chemical_formula_structural   ReTc(PbO3)2
_chemical_formula_sum   'Re1 Tc1 Pb2 O6'
_cell_volume   129.75554932
_cell_formula_units_Z   1
loop_
 _symmetry_equiv_pos_site_id
 _symmetry_equiv_pos_as_xyz
  1  'x, y, z'
loop_
 _atom_site_type_symbol
 _atom_site_label
 _atom_site_symmetry_multiplicity
 _atom_site_fract_x
 _atom_site_fract_y
 _atom_site_fract_z
 _atom_site_occupancy
  Re  Re0  1  0.50000000  0.50000000  0.50000000  1
  Tc  Tc0  1  0.00000000  0.00000000  0.00000000  1
  Pb  Pb0  1  0.75000000  0.75000000  0.75000000  1
  Pb  Pb1  1  0.25000000  0.25000000  0.25000000  1
  O  O0  1  0.74605600  0.74605600  0.25394400  1
  O  O1  1  0.25394400  0.74605600  0.25394400  1
  O  O2  1  0.74605600  0.25394400  0.25394400  1
  O  O3  1  0.25394400  0.25394400  0.74605600  1
  O  O4  1  0.74605600  0.25394400  0.74605600  1
  O  O5  1  0.25394400  0.74605600  0.74605600  1
loop_
_geom_bond_atom_site_label_1
_geom_bond_atom_site_label_2
_geom_bond_distance
_geom_bond_site_symmetry_2
O0 Re0 1.977406 1_555
O0 Tc0 2.040798 1_665
O0 Pb1 2.841476 1_565
O0 Pb0 2.841476 1_555
O0 Pb1 2.841476 1_655
O0 Pb0 2.841476 1_554
O1 Re0 1.977406 1_555
O1 Tc0 2.040798 1_565
O1 Pb1 2.841476 1_565
O1 Pb0 2.841476 1_455
O1 Pb0 2.841476 1_554
O1 Pb1 2.841476 1_555
O2 Re0 1.977406 1_555
O2 Tc0 2.040798 1_655
O2 Pb1 2.841476 1_655
O2 Pb0 2.841476 1_545
O2 Pb0 2.841476 1_554
O2 Pb1 2.841476 1_555
O3 Re0 1.977406 1_555
O3 Tc0 2.040798 1_556
O3 Pb1 2.841476 1_556
O3 Pb0 2.841476 1_545
O3 Pb0 2.841476 1_455
O3 Pb1 2.841476 1_555
O4 Re0 1.977406 1_555
O4 Tc0 2.040798 1_656
O4 Pb1 2.841476 1_556
O4 Pb0 2.841476 1_545
O4 Pb0 2.841476 1_555
O4 Pb1 2.841476 1_655
O5 Re0 1.977406 1_555
O5 Tc0 2.040798 1_566
O5 Pb1 2.841476 1_556
O5 Pb1 2.841476 1_565
O5 Pb0 2.841476 1_555
O5 Pb0 2.841476 1_455
