# generated using pymatgen
data_Sm3NbS3O4
_symmetry_space_group_name_H-M   'P 1'
_cell_length_a   6.73897800
_cell_length_b   7.72392500
_cell_length_c   14.36753900
_cell_angle_alpha   90.00000000
_cell_angle_beta   90.00000000
_cell_angle_gamma   90.00000000
_symmetry_Int_Tables_number   1
_chemical_formula_structural   Sm3NbS3O4
_chemical_formula_sum   'Sm12 Nb4 S12 O16'
_cell_volume   747.84995412
_cell_formula_units_Z   4
loop_
 _symmetry_equiv_pos_site_id
 _symmetry_equiv_pos_as_xyz
  1  'x, y, z'
loop_
 _atom_site_type_symbol
 _atom_site_label
 _atom_site_symmetry_multiplicity
 _atom_site_fract_x
 _atom_site_fract_y
 _atom_site_fract_z
 _atom_site_occupancy
  Sm  Sm0  1  0.72885500  0.49524100  0.83094600  1
  Sm  Sm1  1  0.27114500  0.99524100  0.16905400  1
  Sm  Sm2  1  0.77114500  0.99524100  0.33094600  1
  Sm  Sm3  1  0.22885500  0.49524100  0.66905400  1
  Sm  Sm4  1  0.71692500  0.00585700  0.84450200  1
  Sm  Sm5  1  0.28307500  0.50585700  0.15549800  1
  Sm  Sm6  1  0.78307500  0.50585700  0.34450200  1
  Sm  Sm7  1  0.21692500  0.00585700  0.65549800  1
  Sm  Sm8  1  0.27802800  0.74949700  0.91765100  1
  Sm  Sm9  1  0.72197200  0.24949700  0.08234900  1
  Sm  Sm10  1  0.22197200  0.24949700  0.41765100  1
  Sm  Sm11  1  0.77802800  0.74949700  0.58234900  1
  Nb  Nb0  1  0.32120700  0.26470800  0.92652400  1
  Nb  Nb1  1  0.67879300  0.76470800  0.07347600  1
  Nb  Nb2  1  0.17879300  0.76470800  0.42652400  1
  Nb  Nb3  1  0.82120700  0.26470800  0.57347600  1
  S  S0  1  0.50208800  0.76064600  0.72736100  1
  S  S1  1  0.49791200  0.26064600  0.27263900  1
  S  S2  1  0.99791200  0.26064600  0.22736100  1
  S  S3  1  0.00208800  0.76064600  0.77263900  1
  S  S4  1  0.54907300  0.23949800  0.70133000  1
  S  S5  1  0.45092700  0.73949800  0.29867000  1
  S  S6  1  0.95092700  0.73949800  0.20133000  1
  S  S7  1  0.04907300  0.23949800  0.79867000  1
  S  S8  1  0.46753900  0.96964900  0.49155800  1
  S  S9  1  0.53246100  0.46964900  0.50844200  1
  S  S10  1  0.03246100  0.46964900  0.99155800  1
  S  S11  1  0.96753900  0.96964900  0.00844200  1
  O  O0  1  0.63449400  0.26358400  0.92660300  1
  O  O1  1  0.36550600  0.76358400  0.07339700  1
  O  O2  1  0.86550600  0.76358400  0.42660300  1
  O  O3  1  0.13449400  0.26358400  0.57339700  1
  O  O4  1  0.38167200  0.47890800  0.86130000  1
  O  O5  1  0.61832800  0.97890800  0.13870000  1
  O  O6  1  0.11832800  0.97890800  0.36130000  1
  O  O7  1  0.88167200  0.47890800  0.63870000  1
  O  O8  1  0.37562300  0.02992500  0.88720900  1
  O  O9  1  0.62437800  0.52992500  0.11279100  1
  O  O10  1  0.12437700  0.52992500  0.38720900  1
  O  O11  1  0.87562200  0.02992500  0.61279100  1
  O  O12  1  0.35821200  0.24268900  0.06224100  1
  O  O13  1  0.64178800  0.74268900  0.93775900  1
  O  O14  1  0.14178800  0.74268900  0.56224100  1
  O  O15  1  0.85821200  0.24268900  0.43775900  1
loop_
_geom_bond_atom_site_label_1
_geom_bond_atom_site_label_2
_geom_bond_distance
_geom_bond_site_symmetry_2
Nb0 O8 1.934458 1_555
Nb0 O4 1.944597 1_555
Nb0 O12 1.973144 1_556
Nb0 O0 2.111252 1_555
Nb0 S7 2.602979 1_555
Nb0 S10 2.676777 1_555
Nb1 O9 1.934457 1_555
Nb1 O5 1.944597 1_555
Nb1 O13 1.973144 1_554
Nb1 O1 2.111252 1_555
Nb1 S6 2.602979 1_555
Nb1 S11 2.676777 1_555
Nb2 O10 1.934458 1_555
Nb2 O6 1.944597 1_555
Nb2 O14 1.973144 1_555
Nb2 O2 2.111252 1_455
Nb2 S5 2.602979 1_555
Nb2 S8 2.676777 1_555
Nb3 O11 1.934457 1_555
Nb3 O7 1.944597 1_555
Nb3 O15 1.973144 1_555
Nb3 O3 2.111252 1_655
Nb3 S4 2.602979 1_555
Nb3 S9 2.676777 1_555
S0 Sm11 2.793955 1_555
S0 Sm3 2.880032 1_555
S0 Sm7 2.888980 1_565
S0 Sm4 2.918194 1_565
S0 Sm0 2.958483 1_555
S0 Sm8 3.124431 1_555
S1 Sm10 2.793955 1_555
S1 Sm2 2.880032 1_545
S1 Sm6 2.888980 1_555
S1 Sm5 2.918194 1_555
S1 Sm1 2.958483 1_545
S1 Sm9 3.124431 1_555
S2 Sm9 2.793955 1_555
S2 Sm1 2.880032 1_645
S2 Sm5 2.888980 1_655
S2 Sm6 2.918194 1_555
S2 Sm2 2.958483 1_545
S2 Sm10 3.124431 1_655
S3 Sm8 2.793955 1_555
S3 Sm0 2.880032 1_455
S3 Sm4 2.888980 1_465
S3 Sm7 2.918194 1_565
S3 Sm3 2.958483 1_555
S3 Sm11 3.124431 1_455
S4 Sm7 2.949651 1_555
S4 Sm4 2.961004 1_555
S4 Sm3 2.962047 1_555
S4 Sm0 2.972850 1_555
S5 Sm6 2.949651 1_555
S5 Sm5 2.961004 1_555
S5 Sm2 2.962047 1_555
S5 Sm1 2.972850 1_555
S6 Sm5 2.949651 1_655
S6 Sm6 2.961004 1_555
S6 Sm1 2.962047 1_655
S6 Sm2 2.972850 1_555
S7 Sm4 2.949651 1_455
S7 Sm7 2.961004 1_555
S7 Sm0 2.962047 1_455
S7 Sm3 2.972850 1_555
S8 Sm7 2.911789 1_565
S8 Sm10 2.922043 1_565
S8 Sm11 2.995181 1_555
S8 Sm2 3.090337 1_555
S9 Sm6 2.911789 1_555
S9 Sm11 2.922043 1_555
S9 Sm10 2.995181 1_555
S9 Sm3 3.090337 1_555
S10 Sm5 2.911789 1_556
S10 Sm8 2.922043 1_555
S10 Sm9 2.995181 1_456
S10 Sm0 3.090337 1_455
S11 Sm4 2.911789 1_564
S11 Sm9 2.922043 1_565
S11 Sm8 2.995181 1_654
S11 Sm1 3.090337 1_655
O0 Sm9 2.316594 1_556
O0 Sm0 2.344103 1_555
O0 Sm4 2.379654 1_555
O1 Sm8 2.316594 1_554
O1 Sm1 2.344103 1_555
O1 Sm5 2.379654 1_555
O2 Sm11 2.316594 1_555
O2 Sm2 2.344103 1_555
O2 Sm6 2.379654 1_555
O3 Sm10 2.316594 1_555
O3 Sm3 2.344103 1_555
O3 Sm7 2.379654 1_555
O4 Sm8 2.347652 1_555
O4 Sm0 2.383298 1_555
O4 Sm3 2.950538 1_555
O5 Sm9 2.347652 1_565
O5 Sm1 2.383298 1_555
O5 Sm2 2.950538 1_555
O6 Sm10 2.347652 1_565
O6 Sm2 2.383298 1_455
O6 Sm1 2.950538 1_555
O7 Sm11 2.347652 1_555
O7 Sm3 2.383298 1_655
O7 Sm0 2.950538 1_555
O8 Sm8 2.305522 1_545
O8 Sm4 2.387714 1_555
O9 Sm9 2.305520 1_555
O9 Sm5 2.387721 1_555
O10 Sm10 2.305522 1_555
O10 Sm6 2.387714 1_455
O11 Sm11 2.305520 1_545
O11 Sm7 2.387721 1_655
O12 Sm9 2.468896 1_555
O12 Sm5 2.486660 1_555
O12 Sm1 2.520385 1_545
O13 Sm8 2.468896 1_555
O13 Sm4 2.486660 1_565
O13 Sm0 2.520385 1_555
O14 Sm11 2.468896 1_455
O14 Sm7 2.486660 1_565
O14 Sm3 2.520385 1_555
O15 Sm10 2.468896 1_655
O15 Sm6 2.486660 1_555
O15 Sm2 2.520385 1_545
