# generated using pymatgen
data_Cs4Mn3O6
_symmetry_space_group_name_H-M   'P 1'
_cell_length_a   8.39192898
_cell_length_b   12.20197097
_cell_length_c   12.32697661
_cell_angle_alpha   63.19043562
_cell_angle_beta   90.00000000
_cell_angle_gamma   90.00000000
_symmetry_Int_Tables_number   1
_chemical_formula_structural   Cs4Mn3O6
_chemical_formula_sum   'Cs16 Mn12 O24'
_cell_volume   1126.57916027
_cell_formula_units_Z   4
loop_
 _symmetry_equiv_pos_site_id
 _symmetry_equiv_pos_as_xyz
  1  'x, y, z'
loop_
 _atom_site_type_symbol
 _atom_site_label
 _atom_site_symmetry_multiplicity
 _atom_site_fract_x
 _atom_site_fract_y
 _atom_site_fract_z
 _atom_site_occupancy
  Cs  Cs0  1  0.00275834  0.34580141  0.84228066  1
  Cs  Cs1  1  0.00275834  0.65419859  0.15771934  1
  Cs  Cs2  1  0.60573672  0.17819215  0.16347492  1
  Cs  Cs3  1  0.60573672  0.82180785  0.83652508  1
  Cs  Cs4  1  0.39044390  0.33290969  0.32022578  1
  Cs  Cs5  1  0.39044390  0.66709031  0.67977422  1
  Cs  Cs6  1  0.50417813  0.32588992  0.82518225  1
  Cs  Cs7  1  0.50417813  0.67411008  0.17481775  1
  Cs  Cs8  1  0.11844445  0.15428036  0.16439479  1
  Cs  Cs9  1  0.11844445  0.84571964  0.83560521  1
  Cs  Cs10  1  0.87781153  0.32983775  0.34280734  1
  Cs  Cs11  1  0.87781153  0.67016225  0.65719266  1
  Cs  Cs12  1  0.25589293  0.17885318  0.66192860  1
  Cs  Cs13  1  0.25589293  0.82114682  0.33807140  1
  Cs  Cs14  1  0.75033107  0.84131962  0.31889229  1
  Cs  Cs15  1  0.75033107  0.15868038  0.68110771  1
  Mn  Mn0  1  0.64995143  -0.00000000  -0.00000000  1
  Mn  Mn1  1  0.35118652  0.50000000  0.50000000  1
  Mn  Mn2  1  0.31703706  -0.00000000  -0.00000000  1
  Mn  Mn3  1  0.68400578  0.50000000  0.50000000  1
  Mn  Mn4  1  0.16156467  -0.00000000  0.50000000  1
  Mn  Mn5  1  0.82913621  -0.00000000  0.50000000  1
  Mn  Mn6  1  0.50206143  0.50000000  -0.00000000  1
  Mn  Mn7  1  0.83361896  0.50000000  -0.00000000  1
  Mn  Mn8  1  0.17074992  0.50000000  -0.00000000  1
  Mn  Mn9  1  0.49489124  -0.00000000  0.50000000  1
  Mn  Mn10  1  0.98120697  -0.00000000  -0.00000000  1
  Mn  Mn11  1  0.01941472  0.50000000  0.50000000  1
  O  O0  1  0.00213819  0.40169805  0.10052884  1
  O  O1  1  0.00213819  0.59830195  0.89947116  1
  O  O2  1  0.14992017  0.10848201  0.91170638  1
  O  O3  1  0.14992017  0.89151799  0.08829362  1
  O  O4  1  0.85093865  0.58661318  0.39077722  1
  O  O5  1  0.85093865  0.41338682  0.60922278  1
  O  O6  1  0.47111245  0.05259515  0.87596759  1
  O  O7  1  0.47111245  0.94740485  0.12403241  1
  O  O8  1  0.53025775  0.62517001  0.44456347  1
  O  O9  1  0.53025775  0.37482999  0.55543653  1
  O  O10  1  0.82727928  0.11416868  0.99407326  1
  O  O11  1  0.82727928  0.88583132  0.00592674  1
  O  O12  1  0.17327321  0.49882951  0.39004580  1
  O  O13  1  0.17327321  0.50117049  0.60995420  1
  O  O14  1  0.68020857  0.53105974  0.87794415  1
  O  O15  1  0.68020857  0.46894026  0.12205585  1
  O  O16  1  0.32440217  0.62349561  0.96663770  1
  O  O17  1  0.32440217  0.37650439  0.03336230  1
  O  O18  1  0.32878819  0.93731258  0.61721001  1
  O  O19  1  0.32878819  0.06268742  0.38278999  1
  O  O20  1  0.64859057  0.87876679  0.57881680  1
  O  O21  1  0.64859057  0.12123321  0.42118320  1
  O  O22  1  0.00808926  0.04001160  0.58654281  1
  O  O23  1  0.00808926  0.95998840  0.41345719  1
loop_
_geom_bond_atom_site_label_1
_geom_bond_atom_site_label_2
_geom_bond_distance
_geom_bond_site_symmetry_2
Cs0 O2 2.899574 1_555
Cs0 O5 2.901675 1_455
Cs0 O10 2.981207 1_455
Cs0 O13 2.990978 1_555
Cs1 O3 2.899574 1_555
Cs1 O4 2.901675 1_455
Cs1 O11 2.981207 1_455
Cs1 O12 2.990978 1_555
Cs2 O21 2.951706 1_555
Cs2 O10 3.146264 1_554
Cs2 O17 3.240522 1_555
Cs2 O7 3.267724 1_545
Cs2 O19 3.355558 1_555
Cs2 O15 3.406391 1_555
Cs3 O20 2.951706 1_555
Cs3 O11 3.146264 1_556
Cs3 O16 3.240522 1_555
Cs3 O6 3.267724 1_565
Cs3 O18 3.355558 1_555
Cs3 O14 3.406391 1_555
Cs4 O19 3.072535 1_555
Cs4 O12 3.119741 1_555
Cs4 O21 3.164415 1_555
Cs4 O15 3.313312 1_555
Cs4 O9 3.373849 1_555
Cs4 O17 3.376056 1_555
Cs5 O18 3.072535 1_555
Cs5 O13 3.119741 1_555
Cs5 O20 3.164415 1_555
Cs5 O14 3.313312 1_555
Cs5 O8 3.373849 1_555
Cs5 O16 3.376056 1_555
Cs6 O9 3.109654 1_555
Cs6 O6 3.115478 1_555
Cs6 O14 3.215804 1_555
Cs6 O17 3.266910 1_556
Cs7 O8 3.109654 1_555
Cs7 O7 3.115478 1_555
Cs7 O15 3.215804 1_555
Cs7 O16 3.266910 1_554
Cs8 O0 2.922795 1_555
Cs8 O19 2.983045 1_555
Cs8 O17 2.999679 1_555
Cs8 O23 3.055882 1_545
Cs8 O10 3.397794 1_454
Cs8 O2 3.413907 1_554
Cs9 O1 2.922795 1_555
Cs9 O18 2.983045 1_555
Cs9 O16 2.999679 1_555
Cs9 O22 3.055882 1_565
Cs9 O11 3.397794 1_456
Cs9 O3 3.413907 1_556
Cs10 O0 2.900814 1_655
Cs10 O15 2.978142 1_555
Cs10 O21 2.982340 1_555
Cs10 O12 3.438325 1_655
Cs10 O4 3.447970 1_555
Cs10 O22 3.625503 1_655
Cs11 O1 2.900814 1_655
Cs11 O14 2.978142 1_555
Cs11 O20 2.982340 1_555
Cs11 O13 3.438325 1_655
Cs11 O5 3.447970 1_555
Cs11 O23 3.625503 1_655
Cs12 O2 2.936593 1_555
Cs12 O6 2.988351 1_555
Cs12 O22 3.078690 1_555
Cs12 O9 3.148206 1_555
Cs12 O18 3.290902 1_545
Cs13 O3 2.936593 1_555
Cs13 O7 2.988351 1_555
Cs13 O23 3.078690 1_555
Cs13 O8 3.148206 1_555
Cs13 O19 3.290902 1_565
Cs14 O4 2.944989 1_555
Cs14 O8 3.013505 1_555
Cs14 O23 3.107585 1_655
Cs14 O7 3.182940 1_555
Cs15 O5 2.944989 1_555
Cs15 O9 3.013505 1_555
Cs15 O22 3.107585 1_655
Cs15 O6 3.182940 1_555
Mn0 O10 2.017107 1_554
Mn0 O11 2.017107 1_545
Mn0 O6 2.028998 1_554
Mn0 O7 2.028998 1_545
Mn1 O13 2.020876 1_555
Mn1 O12 2.020876 1_555
Mn1 O9 2.028910 1_555
Mn1 O8 2.028910 1_555
Mn2 O6 1.880490 1_554
Mn2 O7 1.880490 1_545
Mn2 O2 1.898420 1_554
Mn2 O3 1.898420 1_545
Mn3 O9 1.876948 1_555
Mn3 O8 1.876948 1_555
Mn3 O5 1.899637 1_555
Mn3 O4 1.899637 1_555
Mn4 O22 1.872190 1_555
Mn4 O23 1.872190 1_545
Mn4 O18 1.909206 1_545
Mn4 O19 1.909206 1_555
Mn5 O22 2.025230 1_655
Mn5 O23 2.025230 1_645
Mn5 O20 2.032580 1_545
Mn5 O21 2.032580 1_555
Mn6 O17 2.025741 1_555
Mn6 O16 2.025741 1_554
Mn6 O14 2.031759 1_554
Mn6 O15 2.031759 1_555
Mn7 O14 1.884263 1_554
Mn7 O15 1.884263 1_555
Mn7 O1 1.906186 1_654
Mn7 O0 1.906186 1_655
Mn8 O17 1.882414 1_555
Mn8 O16 1.882414 1_554
Mn8 O1 1.906762 1_554
Mn8 O0 1.906762 1_555
Mn9 O20 1.870681 1_545
Mn9 O21 1.870681 1_555
Mn9 O19 1.902305 1_555
Mn9 O18 1.902305 1_545
Mn10 O10 1.876920 1_554
Mn10 O11 1.876920 1_545
Mn10 O2 1.908337 1_654
Mn10 O3 1.908337 1_645
Mn11 O13 1.876673 1_555
Mn11 O12 1.876673 1_555
Mn11 O5 1.909208 1_455
Mn11 O4 1.909208 1_455
