# generated using pymatgen
data_Ce3Co11B4
_symmetry_space_group_name_H-M   'P 1'
_cell_length_a   5.02051000
_cell_length_b   5.02051069
_cell_length_c   9.86552000
_cell_angle_alpha   90.00000000
_cell_angle_beta   90.00000000
_cell_angle_gamma   119.99999543
_symmetry_Int_Tables_number   1
_chemical_formula_structural   Ce3Co11B4
_chemical_formula_sum   'Ce3 Co11 B4'
_cell_volume   215.35073872
_cell_formula_units_Z   1
loop_
 _symmetry_equiv_pos_site_id
 _symmetry_equiv_pos_as_xyz
  1  'x, y, z'
loop_
 _atom_site_type_symbol
 _atom_site_label
 _atom_site_symmetry_multiplicity
 _atom_site_fract_x
 _atom_site_fract_y
 _atom_site_fract_z
 _atom_site_occupancy
  Ce  Ce0  1  0.00000000  0.00000000  0.66093400  1
  Ce  Ce1  1  0.00000000  0.00000000  0.33906600  1
  Ce  Ce2  1  0.00000000  0.00000000  0.00000000  1
  Co  Co0  1  0.66666700  0.33333300  0.00000000  1
  Co  Co1  1  0.50000000  0.00000000  0.50000000  1
  Co  Co2  1  0.50000000  0.50000000  0.50000000  1
  Co  Co3  1  0.00000000  0.50000000  0.50000000  1
  Co  Co4  1  0.50000000  0.00000000  0.20492200  1
  Co  Co5  1  0.50000000  0.50000000  0.20492200  1
  Co  Co6  1  0.00000000  0.50000000  0.20492200  1
  Co  Co7  1  0.50000000  0.00000000  0.79507800  1
  Co  Co8  1  0.50000000  0.50000000  0.79507800  1
  Co  Co9  1  0.00000000  0.50000000  0.79507800  1
  Co  Co10  1  0.33333300  0.66666700  0.00000000  1
  B  B0  1  0.33333300  0.66666700  0.64951700  1
  B  B1  1  0.66666700  0.33333300  0.64951700  1
  B  B2  1  0.66666700  0.33333300  0.35048300  1
  B  B3  1  0.33333300  0.66666700  0.35048300  1
loop_
_geom_bond_atom_site_label_1
_geom_bond_atom_site_label_2
_geom_bond_distance
_geom_bond_site_symmetry_2
Ce0 Co7 2.837740 1_455
Ce0 Co7 2.837740 1_555
Ce0 Co8 2.837740 1_445
Ce0 Co9 2.837740 1_545
Ce0 Co9 2.837740 1_555
Ce0 Co8 2.837740 1_555
Ce0 Co1 2.970213 1_555
Ce0 Co1 2.970213 1_455
Ce0 Co2 2.970213 1_445
Ce0 Co3 2.970213 1_555
Ce0 Co2 2.970213 1_555
Ce0 Co3 2.970213 1_545
Ce1 Co4 2.837740 1_455
Ce1 Co4 2.837740 1_555
Ce1 Co5 2.837740 1_555
Ce1 Co6 2.837740 1_555
Ce1 Co5 2.837740 1_445
Ce1 Co6 2.837740 1_545
Ce1 Co1 2.970213 1_555
Ce1 Co1 2.970213 1_455
Ce1 Co2 2.970213 1_445
Ce1 Co3 2.970213 1_555
Ce1 Co2 2.970213 1_555
Ce1 Co3 2.970213 1_545
Ce2 Co10 2.898590 1_545
Ce2 Co0 2.898590 1_455
Ce2 Co0 2.898594 1_555
Ce2 Co10 2.898594 1_445
Ce2 Co10 2.898595 1_555
Ce2 Co0 2.898595 1_445
Co0 Co6 2.487483 1_655
Co0 Co9 2.487483 1_654
Co0 Co4 2.487484 1_555
Co0 Co7 2.487484 1_554
Co0 Co5 2.487486 1_555
Co0 Co8 2.487486 1_554
Co10 Co6 2.487483 1_555
Co10 Co9 2.487483 1_554
Co10 Co4 2.487484 1_565
Co10 Co7 2.487484 1_564
Co10 Co5 2.487486 1_555
Co10 Co8 2.487486 1_554
B0 Co9 2.040258 1_555
B0 Co7 2.040258 1_565
B0 Co8 2.040261 1_555
B0 Co3 2.067914 1_555
B0 Co1 2.067914 1_565
B0 Co2 2.067917 1_555
B0 Ce0 2.900778 1_565
B0 Ce0 2.900782 1_665
B0 Ce0 2.900782 1_555
B1 Co9 2.040258 1_655
B1 Co7 2.040258 1_555
B1 Co8 2.040261 1_555
B1 Co3 2.067914 1_655
B1 Co1 2.067914 1_555
B1 Co2 2.067917 1_555
B1 Ce0 2.900778 1_655
B1 Ce0 2.900782 1_555
B1 Ce0 2.900782 1_665
B2 Co6 2.040258 1_655
B2 Co4 2.040258 1_555
B2 Co5 2.040261 1_555
B2 Co3 2.067914 1_655
B2 Co1 2.067914 1_555
B2 Co2 2.067917 1_555
B2 Ce1 2.900778 1_655
B2 Ce1 2.900782 1_555
B2 Ce1 2.900782 1_665
B3 Co6 2.040258 1_555
B3 Co4 2.040258 1_565
B3 Co5 2.040261 1_555
B3 Co3 2.067914 1_555
B3 Co1 2.067914 1_565
B3 Co2 2.067917 1_555
B3 Ce1 2.900778 1_565
B3 Ce1 2.900782 1_665
B3 Ce1 2.900782 1_555
