# generated using pymatgen
data_SrEu2Fe2O7
_symmetry_space_group_name_H-M   'P 1'
_cell_length_a   5.42667200
_cell_length_b   5.42667200
_cell_length_c   10.38260020
_cell_angle_alpha   90.00000000
_cell_angle_beta   74.85071363
_cell_angle_gamma   90.00000000
_symmetry_Int_Tables_number   1
_chemical_formula_structural   SrEu2Fe2O7
_chemical_formula_sum   'Sr2 Eu4 Fe4 O14'
_cell_volume   295.12926084
_cell_formula_units_Z   2
loop_
 _symmetry_equiv_pos_site_id
 _symmetry_equiv_pos_as_xyz
  1  'x, y, z'
loop_
 _atom_site_type_symbol
 _atom_site_label
 _atom_site_symmetry_multiplicity
 _atom_site_fract_x
 _atom_site_fract_y
 _atom_site_fract_z
 _atom_site_occupancy
  Sr  Sr0  1  0.24817800  0.25000000  0.00000000  1
  Sr  Sr1  1  0.75182200  0.75000000  0.00000000  1
  Eu  Eu0  1  0.05901200  0.25000000  0.36673100  1
  Eu  Eu1  1  0.57425600  0.75000000  0.36673100  1
  Eu  Eu2  1  0.42574400  0.25000000  0.63326900  1
  Eu  Eu3  1  0.94098800  0.75000000  0.63326900  1
  Fe  Fe0  1  0.84550900  0.25000000  0.80677600  1
  Fe  Fe1  1  0.34771500  0.75000000  0.80677600  1
  Fe  Fe2  1  0.65228500  0.25000000  0.19322400  1
  Fe  Fe3  1  0.15449100  0.75000000  0.19322400  1
  O  O0  1  0.73680800  0.25000000  0.00000000  1
  O  O1  1  0.26319200  0.75000000  0.00000000  1
  O  O2  1  0.60276800  0.00000000  0.79446500  1
  O  O3  1  0.60276800  0.50000000  0.79446500  1
  O  O4  1  0.39723200  0.50000000  0.20553500  1
  O  O5  1  0.39723200  0.00000000  0.20553500  1
  O  O6  1  0.90281900  0.00000000  0.19436200  1
  O  O7  1  0.90281900  0.50000000  0.19436200  1
  O  O8  1  0.09718100  0.50000000  0.80563800  1
  O  O9  1  0.09718100  0.00000000  0.80563800  1
  O  O10  1  0.96852000  0.25000000  0.60002000  1
  O  O11  1  0.43146000  0.75000000  0.60002000  1
  O  O12  1  0.56854000  0.25000000  0.39998000  1
  O  O13  1  0.03148000  0.75000000  0.39998000  1
loop_
_geom_bond_atom_site_label_1
_geom_bond_atom_site_label_2
_geom_bond_distance
_geom_bond_site_symmetry_2
Eu0 O10 2.342276 1_455
Eu0 O4 2.530768 1_555
Eu0 O5 2.530768 1_555
Eu0 O6 2.560203 1_455
Eu0 O7 2.560203 1_455
Eu0 O12 2.592915 1_455
Eu0 O13 2.734361 1_555
Eu0 O13 2.734361 1_545
Eu0 O12 2.874635 1_555
Eu1 O11 2.342276 1_555
Eu1 O4 2.530768 1_555
Eu1 O5 2.530768 1_565
Eu1 O6 2.560205 1_565
Eu1 O7 2.560205 1_555
Eu1 O13 2.592920 1_655
Eu1 O12 2.734361 1_555
Eu1 O12 2.734361 1_565
Eu1 O13 2.874629 1_555
Eu2 O12 2.342276 1_555
Eu2 O3 2.530768 1_555
Eu2 O2 2.530768 1_555
Eu2 O9 2.560205 1_555
Eu2 O8 2.560205 1_555
Eu2 O10 2.592920 1_455
Eu2 O11 2.734361 1_555
Eu2 O11 2.734361 1_545
Eu2 O10 2.874629 1_555
Eu3 O13 2.342276 1_655
Eu3 O2 2.530768 1_565
Eu3 O3 2.530768 1_555
Eu3 O9 2.560203 1_665
Eu3 O8 2.560203 1_655
Eu3 O11 2.592915 1_655
Eu3 O10 2.734361 1_555
Eu3 O10 2.734361 1_565
Eu3 O11 2.874635 1_555
Fe0 O3 1.918360 1_555
Fe0 O2 1.918360 1_555
Fe0 O9 1.922889 1_655
Fe0 O8 1.922889 1_655
Fe0 O0 1.937561 1_556
Fe0 O10 2.074802 1_555
Fe1 O3 1.918364 1_555
Fe1 O2 1.918364 1_565
Fe1 O8 1.922889 1_555
Fe1 O9 1.922889 1_565
Fe1 O1 1.937561 1_556
Fe1 O11 2.074802 1_555
Fe2 O5 1.918364 1_555
Fe2 O4 1.918364 1_555
Fe2 O7 1.922889 1_555
Fe2 O6 1.922889 1_555
Fe2 O0 1.937561 1_555
Fe2 O12 2.074802 1_555
Fe3 O4 1.918360 1_555
Fe3 O5 1.918360 1_565
Fe3 O6 1.922889 1_465
Fe3 O7 1.922889 1_455
Fe3 O1 1.937561 1_555
Fe3 O13 2.074802 1_555
O0 Sr0 2.651635 1_555
O0 Sr1 2.714559 1_555
O0 Sr1 2.714559 1_545
O0 Sr0 2.775037 1_655
O1 Sr1 2.651635 1_555
O1 Sr0 2.714559 1_565
O1 Sr0 2.714559 1_555
O1 Sr1 2.775037 1_455
O2 Sr1 2.819735 1_546
O2 Sr0 2.819738 1_556
O3 Sr1 2.819735 1_556
O3 Sr0 2.819738 1_556
O4 Sr0 2.819735 1_555
O4 Sr1 2.819738 1_555
O5 Sr0 2.819735 1_555
O5 Sr1 2.819738 1_545
O6 Sr1 2.729195 1_545
O6 Sr0 2.729195 1_655
O7 Sr0 2.729195 1_655
O7 Sr1 2.729195 1_555
O8 Sr0 2.729195 1_556
O8 Sr1 2.729195 1_456
O9 Sr0 2.729195 1_556
O9 Sr1 2.729195 1_446
