# generated using pymatgen
data_LaMgFeNiO6
_symmetry_space_group_name_H-M   'P 1'
_cell_length_a   5.31097491
_cell_length_b   7.61257373
_cell_length_c   5.47000929
_cell_angle_alpha   90.36789133
_cell_angle_beta   89.97279047
_cell_angle_gamma   89.49052992
_symmetry_Int_Tables_number   1
_chemical_formula_structural   LaMgFeNiO6
_chemical_formula_sum   'La2 Mg2 Fe2 Ni2 O12'
_cell_volume   221.14017148
_cell_formula_units_Z   2
loop_
 _symmetry_equiv_pos_site_id
 _symmetry_equiv_pos_as_xyz
  1  'x, y, z'
loop_
 _atom_site_type_symbol
 _atom_site_label
 _atom_site_symmetry_multiplicity
 _atom_site_fract_x
 _atom_site_fract_y
 _atom_site_fract_z
 _atom_site_occupancy
  La  La0  1  0.98981300  0.24730100  0.03716300  1
  La  La1  1  0.49454700  0.75018400  0.46405300  1
  Mg  Mg0  1  0.52640400  0.24553600  0.55919900  1
  Mg  Mg1  1  0.03128600  0.74813600  0.93953900  1
  Fe  Fe0  1  0.50028100  0.50141000  0.99615600  1
  Fe  Fe1  1  0.99981400  0.00150900  0.50365500  1
  Ni  Ni0  1  0.00593300  0.49652800  0.49714300  1
  Ni  Ni1  1  0.50067500  0.99655000  0.00499400  1
  O  O0  1  0.63536600  0.73600800  0.02285000  1
  O  O1  1  0.12964500  0.24103900  0.47850200  1
  O  O2  1  0.18317700  0.94000000  0.20596100  1
  O  O3  1  0.67599100  0.44008600  0.29037500  1
  O  O4  1  0.20604200  0.55858900  0.18853800  1
  O  O5  1  0.70057900  0.05662900  0.30830600  1
  O  O6  1  0.92831300  0.75674700  0.54877600  1
  O  O7  1  0.41846700  0.26272400  0.94626500  1
  O  O8  1  0.28066200  0.56541700  0.74240900  1
  O  O9  1  0.77125900  0.05711400  0.76234100  1
  O  O10  1  0.26245700  0.95250900  0.73120800  1
  O  O11  1  0.75929100  0.44597900  0.77256700  1
loop_
_geom_bond_atom_site_label_1
_geom_bond_atom_site_label_2
_geom_bond_distance
_geom_bond_site_symmetry_2
La0 O7 2.334140 1_654
La0 O9 2.388913 1_554
La0 O11 2.424474 1_554
La0 O1 2.526729 1_655
La0 O5 2.594493 1_555
La0 O3 2.603525 1_555
La0 O2 2.713972 1_645
La0 O4 2.764780 1_655
La1 O6 2.350991 1_555
La1 O8 2.375154 1_555
La1 O10 2.441876 1_555
La1 O0 2.527629 1_555
La1 O4 2.600009 1_555
La1 O2 2.607996 1_555
La1 O3 2.708074 1_555
La1 O5 2.726773 1_565
Mg0 O1 2.153645 1_555
Mg0 O5 2.181050 1_555
Mg0 O7 2.196010 1_555
Mg0 O9 2.229783 1_555
Mg0 O3 2.243804 1_555
Mg0 O11 2.287442 1_555
Mg1 O0 2.154232 1_456
Mg1 O8 2.190490 1_555
Mg1 O4 2.191171 1_556
Mg1 O6 2.207819 1_455
Mg1 O2 2.214179 1_556
Mg1 O10 2.298242 1_555
Fe0 O8 1.877377 1_555
Fe0 O11 1.883504 1_555
Fe0 O7 1.890134 1_555
Fe0 O3 1.918909 1_556
Fe0 O4 1.928561 1_556
Fe0 O0 1.935197 1_556
Fe1 O10 1.905922 1_645
Fe1 O9 1.906939 1_555
Fe1 O6 1.922313 1_545
Fe1 O2 1.949321 1_645
Fe1 O5 1.959350 1_555
Fe1 O1 1.960817 1_655
Ni0 O11 2.036721 1_455
Ni0 O6 2.037646 1_455
Ni0 O1 2.049268 1_555
Ni0 O8 2.051895 1_555
Ni0 O4 2.054202 1_555
Ni0 O3 2.131540 1_455
Ni1 O10 1.989672 1_554
Ni1 O9 2.014277 1_564
Ni1 O5 2.022274 1_565
Ni1 O2 2.062605 1_555
Ni1 O7 2.095794 1_564
Ni1 O0 2.105334 1_555
