# generated using pymatgen
data_KSrCeSbO6
_symmetry_space_group_name_H-M   'P 1'
_cell_length_a   5.98518425
_cell_length_b   5.98518425
_cell_length_c   5.98518425
_cell_angle_alpha   60.00000000
_cell_angle_beta   60.00000000
_cell_angle_gamma   60.00000000
_symmetry_Int_Tables_number   1
_chemical_formula_structural   KSrCeSbO6
_chemical_formula_sum   'K1 Sr1 Ce1 Sb1 O6'
_cell_volume   151.60641405
_cell_formula_units_Z   1
loop_
 _symmetry_equiv_pos_site_id
 _symmetry_equiv_pos_as_xyz
  1  'x, y, z'
loop_
 _atom_site_type_symbol
 _atom_site_label
 _atom_site_symmetry_multiplicity
 _atom_site_fract_x
 _atom_site_fract_y
 _atom_site_fract_z
 _atom_site_occupancy
  K  K0  1  0.25000000  0.25000000  0.25000000  1
  Sr  Sr0  1  0.75000000  0.75000000  0.75000000  1
  Ce  Ce0  1  -0.00000000  0.00000000  -0.00000000  1
  Sb  Sb0  1  0.50000000  0.50000000  0.50000000  1
  O  O0  1  0.73740685  0.26259315  0.26259315  1
  O  O1  1  0.26259315  0.73740685  0.73740685  1
  O  O2  1  0.73740685  0.26259315  0.73740685  1
  O  O3  1  0.26259315  0.73740685  0.26259315  1
  O  O4  1  0.73740685  0.73740685  0.26259315  1
  O  O5  1  0.26259315  0.26259315  0.73740685  1
loop_
_geom_bond_atom_site_label_1
_geom_bond_atom_site_label_2
_geom_bond_distance
_geom_bond_site_symmetry_2
K0 O3 2.994490 1_545
K0 O5 2.994490 1_554
K0 O0 2.994490 1_455
K0 O1 2.994490 1_554
K0 O2 2.994490 1_554
K0 O4 2.994490 1_545
K0 O1 2.994490 1_545
K0 O4 2.994490 1_455
K0 O2 2.994490 1_455
K0 O5 2.994490 1_555
K0 O3 2.994490 1_555
K0 O0 2.994490 1_555
Ce0 O4 2.222675 1_445
Ce0 O1 2.222675 1_544
Ce0 O2 2.222675 1_454
Ce0 O3 2.222675 1_545
Ce0 O5 2.222675 1_554
Ce0 O0 2.222675 1_455
O0 Sb0 2.009490 1_555
O0 Sr0 2.994490 1_545
O0 Sr0 2.994490 1_554
O1 Sb0 2.009490 1_555
O1 Sr0 2.994490 1_555
O1 Sr0 2.994490 1_455
O2 Sb0 2.009490 1_555
O2 Sr0 2.994490 1_555
O2 Sr0 2.994490 1_545
O3 Sb0 2.009490 1_555
O3 Sr0 2.994490 1_554
O3 Sr0 2.994490 1_455
O4 Sb0 2.009490 1_555
O4 Sr0 2.994490 1_555
O4 Sr0 2.994490 1_554
O5 Sb0 2.009490 1_555
O5 Sr0 2.994490 1_545
O5 Sr0 2.994490 1_455
