# generated using pymatgen
data_U3Cu
_symmetry_space_group_name_H-M   'P 1'
_cell_length_a   4.70683617
_cell_length_b   4.70683617
_cell_length_c   4.70683617
_cell_angle_alpha   120.72829196
_cell_angle_beta   120.72829196
_cell_angle_gamma   88.74312313
_symmetry_Int_Tables_number   1
_chemical_formula_structural   U3Cu
_chemical_formula_sum   'U3 Cu1'
_cell_volume   72.90404607
_cell_formula_units_Z   1
loop_
 _symmetry_equiv_pos_site_id
 _symmetry_equiv_pos_as_xyz
  1  'x, y, z'
loop_
 _atom_site_type_symbol
 _atom_site_label
 _atom_site_symmetry_multiplicity
 _atom_site_fract_x
 _atom_site_fract_y
 _atom_site_fract_z
 _atom_site_occupancy
  U  U0  1  0.75000000  0.25000000  0.50000000  1
  U  U1  1  0.25000000  0.75000000  0.50000000  1
  U  U2  1  0.50000000  0.50000000  0.00000000  1
  Cu  Cu0  1  0.00000000  0.00000000  0.00000000  1
loop_
_geom_bond_atom_site_label_1
_geom_bond_atom_site_label_2
_geom_bond_distance
_geom_bond_site_symmetry_2
U0 U2 2.871780 1_555
U0 U2 2.871780 1_656
U0 U2 2.871780 1_556
U0 U2 2.871780 1_545
U1 U2 2.871780 1_555
U1 U2 2.871780 1_556
U1 U2 2.871780 1_566
U1 U2 2.871780 1_455
Cu0 U0 2.871780 1_455
Cu0 U0 2.871780 1_454
Cu0 U1 2.871780 1_444
Cu0 U0 2.871780 1_444
Cu0 U1 2.871780 1_545
Cu0 U1 2.871780 1_544
Cu0 U0 2.871780 1_555
Cu0 U1 2.871780 1_555
