# generated using pymatgen
data_CaTb3
_symmetry_space_group_name_H-M   'P 1'
_cell_length_a   6.25147887
_cell_length_b   6.25147887
_cell_length_c   6.25147887
_cell_angle_alpha   131.65906016
_cell_angle_beta   131.65906016
_cell_angle_gamma   70.76804024
_symmetry_Int_Tables_number   1
_chemical_formula_structural   CaTb3
_chemical_formula_sum   'Ca1 Tb3'
_cell_volume   133.57583635
_cell_formula_units_Z   1
loop_
 _symmetry_equiv_pos_site_id
 _symmetry_equiv_pos_as_xyz
  1  'x, y, z'
loop_
 _atom_site_type_symbol
 _atom_site_label
 _atom_site_symmetry_multiplicity
 _atom_site_fract_x
 _atom_site_fract_y
 _atom_site_fract_z
 _atom_site_occupancy
  Ca  Ca0  1  0.00000000  0.00000000  0.00000000  1
  Tb  Tb0  1  0.75000000  0.25000000  0.50000000  1
  Tb  Tb1  1  0.25000000  0.75000000  0.50000000  1
  Tb  Tb2  1  0.50000000  0.50000000  0.00000000  1
loop_
_geom_bond_atom_site_label_1
_geom_bond_atom_site_label_2
_geom_bond_distance
_geom_bond_site_symmetry_2
Ca0 Tb1 3.611958 1_544
Ca0 Tb0 3.611958 1_455
Ca0 Tb1 3.611958 1_444
Ca0 Tb1 3.611958 1_545
Ca0 Tb0 3.611958 1_444
Ca0 Tb0 3.611958 1_555
Ca0 Tb0 3.611958 1_454
Ca0 Tb1 3.611958 1_555
Ca0 Tb2 3.619943 1_444
Ca0 Tb2 3.619943 1_455
Ca0 Tb2 3.619943 1_545
Ca0 Tb2 3.619943 1_556
Tb0 Tb2 3.611958 1_545
Tb0 Tb2 3.611958 1_556
Tb0 Tb2 3.611958 1_555
Tb0 Tb2 3.611958 1_656
Tb0 Tb1 3.619943 1_645
Tb0 Tb1 3.619943 1_555
Tb0 Tb1 3.619943 1_656
Tb0 Tb1 3.619943 1_544
Tb1 Tb2 3.611958 1_455
Tb1 Tb2 3.611958 1_556
Tb1 Tb2 3.611958 1_555
Tb1 Tb2 3.611958 1_566
