# generated using pymatgen
data_Y(FeS2)2
_symmetry_space_group_name_H-M   'P 1'
_cell_length_a   7.26905226
_cell_length_b   7.26905219
_cell_length_c   7.26429919
_cell_angle_alpha   118.00503405
_cell_angle_beta   120.32598224
_cell_angle_gamma   91.49954618
_symmetry_Int_Tables_number   1
_chemical_formula_structural   Y(FeS2)2
_chemical_formula_sum   'Y2 Fe4 S8'
_cell_volume   274.51531798
_cell_formula_units_Z   2
loop_
 _symmetry_equiv_pos_site_id
 _symmetry_equiv_pos_as_xyz
  1  'x, y, z'
loop_
 _atom_site_type_symbol
 _atom_site_label
 _atom_site_symmetry_multiplicity
 _atom_site_fract_x
 _atom_site_fract_y
 _atom_site_fract_z
 _atom_site_occupancy
  Y  Y0  1  0.00000000  0.50000100  0.00000100  1
  Y  Y1  1  0.00000100  0.00000000  0.50000000  1
  Fe  Fe0  1  0.37208500  0.62208500  0.75000000  1
  Fe  Fe1  1  0.62791500  0.37791600  0.25000000  1
  Fe  Fe2  1  0.50000100  0.00000000  0.50000000  1
  Fe  Fe3  1  0.00000000  0.00000000  0.00000000  1
  S  S0  1  0.73853100  0.76311600  0.52879800  1
  S  S1  1  0.73431900  0.20973500  0.97120400  1
  S  S2  1  0.24490400  0.23048300  0.01366300  1
  S  S3  1  0.26146900  0.23688400  0.47120300  1
  S  S4  1  0.28318000  0.76875900  0.51366200  1
  S  S5  1  0.26568100  0.79026600  0.02879800  1
  S  S6  1  0.71681900  0.23124000  0.48633700  1
  S  S7  1  0.75509600  0.76951800  0.98633700  1
loop_
_geom_bond_atom_site_label_1
_geom_bond_atom_site_label_2
_geom_bond_distance
_geom_bond_site_symmetry_2
Fe0 S7 2.266380 1_555
Fe0 S4 2.266385 1_555
Fe0 S3 2.345357 1_555
Fe0 S5 2.345363 1_556
Fe1 S2 2.266380 1_555
Fe1 S6 2.266392 1_555
Fe1 S1 2.345352 1_554
Fe1 S0 2.345352 1_555
Fe2 S6 2.344188 1_555
Fe2 S4 2.344202 1_545
Fe2 S5 2.453131 1_545
Fe2 S1 2.453142 1_555
Fe2 S0 2.478587 1_545
Fe2 S3 2.478597 1_555
Fe3 S7 2.344198 1_444
Fe3 S2 2.344203 1_555
Fe3 S0 2.453132 1_444
Fe3 S3 2.453136 1_555
Fe3 S5 2.478592 1_545
Fe3 S1 2.478597 1_454
S0 Y1 2.681366 1_665
S1 Y0 2.681355 1_656
S2 Y1 2.676655 1_554
S2 Y0 2.684023 1_555
S3 Y1 2.681350 1_555
S4 Y0 2.676645 1_555
S4 Y1 2.684013 1_565
S5 Y0 2.681350 1_555
S6 Y0 2.676661 1_656
S6 Y1 2.684024 1_655
S7 Y1 2.676655 1_666
S7 Y0 2.684018 1_656
