# generated using pymatgen
data_Mg14VGa
_symmetry_space_group_name_H-M   'P 1'
_cell_length_a   6.27127176
_cell_length_b   6.22372933
_cell_length_c   10.28523480
_cell_angle_alpha   90.00000000
_cell_angle_beta   90.00000000
_cell_angle_gamma   119.74954342
_symmetry_Int_Tables_number   1
_chemical_formula_structural   Mg14VGa
_chemical_formula_sum   'Mg14 V1 Ga1'
_cell_volume   348.53122642
_cell_formula_units_Z   1
loop_
 _symmetry_equiv_pos_site_id
 _symmetry_equiv_pos_as_xyz
  1  'x, y, z'
loop_
 _atom_site_type_symbol
 _atom_site_label
 _atom_site_symmetry_multiplicity
 _atom_site_fract_x
 _atom_site_fract_y
 _atom_site_fract_z
 _atom_site_occupancy
  Mg  Mg0  1  0.16710180  0.33355040  0.62500000  1
  Mg  Mg1  1  0.16726616  0.83363258  0.62500000  1
  Mg  Mg2  1  0.66750579  0.33214329  0.12500000  1
  Mg  Mg3  1  0.66639199  0.33325066  0.62500000  1
  Mg  Mg4  1  0.66750579  0.83536150  0.12500000  1
  Mg  Mg5  1  0.66639199  0.83314033  0.62500000  1
  Mg  Mg6  1  0.32853406  0.16566104  0.36817275  1
  Mg  Mg7  1  0.32853406  0.16566104  0.88182725  1
  Mg  Mg8  1  0.32853406  0.66287402  0.36817275  1
  Mg  Mg9  1  0.32853406  0.66287402  0.88182725  1
  Mg  Mg10  1  0.83850401  0.16925251  0.37280938  1
  Mg  Mg11  1  0.83850401  0.16925251  0.87719062  1
  Mg  Mg12  1  0.83634583  0.66817341  0.37396159  1
  Mg  Mg13  1  0.83634583  0.66817341  0.87603841  1
  V  V0  1  0.16594345  0.33297122  0.12500000  1
  Ga  Ga0  1  0.16805708  0.83402804  0.12500000  1
loop_
_geom_bond_atom_site_label_1
_geom_bond_atom_site_label_2
_geom_bond_distance
_geom_bond_site_symmetry_2
Mg0 Mg1 3.111865 1_555
Mg0 Mg1 3.111865 1_545
Mg0 Mg5 3.132110 1_555
Mg0 Mg3 3.132111 1_555
Mg0 Mg5 3.139162 1_445
Mg0 Mg3 3.139162 1_455
Mg0 Mg10 3.151029 1_455
Mg0 Mg11 3.151029 1_455
Mg0 Mg6 3.185001 1_555
Mg0 Mg7 3.185001 1_555
Mg0 Mg8 3.185007 1_555
Mg0 Mg9 3.185007 1_555
Mg1 Mg3 3.131675 1_565
Mg1 Mg5 3.131675 1_555
Mg1 Mg3 3.139599 1_455
Mg1 Mg5 3.139599 1_455
Mg1 Mg12 3.148501 1_455
Mg1 Mg13 3.148501 1_455
Mg1 Mg8 3.193217 1_555
Mg1 Mg9 3.193217 1_555
Mg1 Mg7 3.193223 1_565
Mg1 Mg6 3.193223 1_565
Mg2 Mg4 3.091835 1_545
Mg2 Mg7 3.108388 1_554
Mg2 Mg6 3.108388 1_555
Mg2 V0 3.123284 1_655
Mg2 Mg4 3.131894 1_555
Mg2 V0 3.147994 1_555
Mg3 Mg5 3.111178 1_555
Mg3 Mg5 3.112551 1_545
Mg3 Mg6 3.218956 1_555
Mg3 Mg7 3.218956 1_555
Mg4 Mg9 3.108388 1_554
Mg4 Mg8 3.108388 1_555
Mg4 V0 3.123284 1_665
Mg4 V0 3.147994 1_555
Mg5 Mg9 3.218956 1_555
Mg5 Mg8 3.218956 1_555
Mg6 V0 3.071340 1_555
Mg6 Mg8 3.094519 1_555
Mg6 Mg8 3.129210 1_545
Mg7 V0 3.071340 1_556
Mg7 Mg9 3.094519 1_555
Mg7 Mg9 3.129210 1_545
Mg8 V0 3.071346 1_555
Mg9 V0 3.071346 1_556
Mg10 Mg8 3.084632 1_655
Mg10 Mg6 3.084633 1_655
Mg10 V0 3.110421 1_655
Mg10 Mg12 3.111909 1_555
Mg10 Mg12 3.111909 1_545
Mg10 Mg2 3.122971 1_555
Mg10 Mg4 3.122977 1_545
Mg10 Mg3 3.166724 1_555
Mg10 Mg5 3.166731 1_545
Mg10 Mg8 3.187484 1_545
Mg10 Mg6 3.187485 1_555
Mg11 Mg9 3.084632 1_655
Mg11 Mg7 3.084633 1_655
Mg11 V0 3.110421 1_656
Mg11 Mg13 3.111909 1_555
Mg11 Mg13 3.111909 1_545
Mg11 Mg2 3.122971 1_556
Mg11 Mg4 3.122977 1_546
Mg11 Mg3 3.166724 1_555
Mg11 Mg5 3.166731 1_545
Mg11 Mg9 3.187484 1_545
Mg11 Mg7 3.187485 1_555
Mg12 Mg6 3.103715 1_665
Mg12 Mg8 3.103715 1_655
Mg12 Mg4 3.139121 1_555
Mg12 Mg2 3.139127 1_555
Mg12 Mg5 3.153218 1_555
Mg12 Mg3 3.153224 1_555
Mg12 Mg6 3.168948 1_555
Mg12 Mg8 3.168948 1_555
Mg13 Mg7 3.103715 1_665
Mg13 Mg9 3.103715 1_655
Mg13 Mg4 3.139121 1_556
Mg13 Mg2 3.139127 1_556
Mg13 Mg5 3.153218 1_555
Mg13 Mg3 3.153224 1_555
Mg13 Mg7 3.168948 1_555
Mg13 Mg9 3.168948 1_555
Ga0 Mg9 3.076827 1_554
Ga0 Mg8 3.076827 1_555
Ga0 Mg7 3.076833 1_564
Ga0 Mg6 3.076833 1_565
Ga0 V0 3.111886 1_565
Ga0 V0 3.111886 1_555
Ga0 Mg2 3.128069 1_565
Ga0 Mg4 3.128069 1_555
Ga0 Mg13 3.133487 1_454
Ga0 Mg12 3.133487 1_455
Ga0 Mg2 3.143219 1_455
Ga0 Mg4 3.143220 1_455
