# generated using pymatgen
data_YEr2Al9
_symmetry_space_group_name_H-M   'P 1'
_cell_length_a   6.10099058
_cell_length_b   6.10099058
_cell_length_c   28.68070100
_cell_angle_alpha   90.00000000
_cell_angle_beta   90.00000000
_cell_angle_gamma   120.00000631
_symmetry_Int_Tables_number   1
_chemical_formula_structural   YEr2Al9
_chemical_formula_sum   'Y4 Er8 Al36'
_cell_volume   924.53014273
_cell_formula_units_Z   4
loop_
 _symmetry_equiv_pos_site_id
 _symmetry_equiv_pos_as_xyz
  1  'x, y, z'
loop_
 _atom_site_type_symbol
 _atom_site_label
 _atom_site_symmetry_multiplicity
 _atom_site_fract_x
 _atom_site_fract_y
 _atom_site_fract_z
 _atom_site_occupancy
  Y  Y0  1  0.66666700  0.33333300  0.83315300  1
  Y  Y1  1  0.66666700  0.33333300  0.50000000  1
  Y  Y2  1  0.66666700  0.33333300  0.16684700  1
  Y  Y3  1  0.33333300  0.66666700  0.00000000  1
  Er  Er0  1  0.33333300  0.66666700  0.66668900  1
  Er  Er1  1  0.33333300  0.66666700  0.33331100  1
  Er  Er2  1  0.00000000  0.00000000  0.91690700  1
  Er  Er3  1  0.00000000  0.00000000  0.58326500  1
  Er  Er4  1  0.00000000  0.00000000  0.24981600  1
  Er  Er5  1  0.00000000  0.00000000  0.08309300  1
  Er  Er6  1  0.00000000  0.00000000  0.75018400  1
  Er  Er7  1  0.00000000  0.00000000  0.41673500  1
  Al  Al0  1  0.18301600  0.81698400  0.83336800  1
  Al  Al1  1  0.18309900  0.81690100  0.50000000  1
  Al  Al2  1  0.18301600  0.81698400  0.16663200  1
  Al  Al3  1  0.18301600  0.36603300  0.83336800  1
  Al  Al4  1  0.18309900  0.36619700  0.50000000  1
  Al  Al5  1  0.18301600  0.36603300  0.16663200  1
  Al  Al6  1  0.63396700  0.81698400  0.83336800  1
  Al  Al7  1  0.63380300  0.81690100  0.50000000  1
  Al  Al8  1  0.63396700  0.81698400  0.16663200  1
  Al  Al9  1  0.81676800  0.18323200  0.00000000  1
  Al  Al10  1  0.81703200  0.18296800  0.66666900  1
  Al  Al11  1  0.81703200  0.18296800  0.33333100  1
  Al  Al12  1  0.81676800  0.63353500  0.00000000  1
  Al  Al13  1  0.81703200  0.63406500  0.66666900  1
  Al  Al14  1  0.81703200  0.63406500  0.33333100  1
  Al  Al15  1  0.36646500  0.18323200  0.00000000  1
  Al  Al16  1  0.36593500  0.18296800  0.66666900  1
  Al  Al17  1  0.36593500  0.18296800  0.33333100  1
  Al  Al18  1  0.99986600  0.49993300  0.91666300  1
  Al  Al19  1  0.00097300  0.50048700  0.58361400  1
  Al  Al20  1  0.00113400  0.50056700  0.25032000  1
  Al  Al21  1  0.50006700  0.49993300  0.91666300  1
  Al  Al22  1  0.49951300  0.50048700  0.58361400  1
  Al  Al23  1  0.49943300  0.50056700  0.25032000  1
  Al  Al24  1  0.50006700  0.00013400  0.91666300  1
  Al  Al25  1  0.49951300  0.99902700  0.58361400  1
  Al  Al26  1  0.49943300  0.99886600  0.25032000  1
  Al  Al27  1  0.00113400  0.50056700  0.74968000  1
  Al  Al28  1  0.00097300  0.50048700  0.41638600  1
  Al  Al29  1  0.99986600  0.49993300  0.08333700  1
  Al  Al30  1  0.50006700  0.49993300  0.08333700  1
  Al  Al31  1  0.49943300  0.50056700  0.74968000  1
  Al  Al32  1  0.49951300  0.50048700  0.41638600  1
  Al  Al33  1  0.49943300  0.99886600  0.74968000  1
  Al  Al34  1  0.49951300  0.99902700  0.41638600  1
  Al  Al35  1  0.50006700  0.00013400  0.08333700  1
loop_
_geom_bond_atom_site_label_1
_geom_bond_atom_site_label_2
_geom_bond_distance
_geom_bond_site_symmetry_2
Al0 Al6 2.751248 1_555
Al0 Al3 2.751248 1_555
Al0 Al18 2.921627 1_455
Al0 Al24 2.921627 1_565
Al0 Al33 2.928646 1_555
Al0 Al27 2.928646 1_555
Al0 Y0 3.055390 1_565
Al0 Y0 3.055390 1_455
Al0 Er6 3.071184 1_565
Al0 Er2 3.079100 1_565
Al1 Al7 2.749741 1_555
Al1 Al4 2.749741 1_555
Al1 Al25 2.926972 1_555
Al1 Al19 2.926972 1_555
Al1 Al28 2.926972 1_555
Al1 Al34 2.926972 1_555
Al1 Y1 3.055433 1_455
Al1 Y1 3.055433 1_565
Al1 Er7 3.073541 1_565
Al1 Er3 3.073541 1_565
Al2 Al8 2.751248 1_555
Al2 Al5 2.751248 1_555
Al2 Al35 2.921627 1_565
Al2 Al29 2.921627 1_455
Al2 Al26 2.928646 1_555
Al2 Al20 2.928646 1_555
Al2 Y2 3.055390 1_565
Al2 Y2 3.055390 1_455
Al2 Er4 3.071184 1_565
Al2 Er5 3.079100 1_565
Al3 Al6 2.751248 1_555
Al3 Al31 2.928646 1_555
Al3 Y0 3.055384 1_455
Al3 Y0 3.055397 1_555
Al3 Er6 3.071187 1_555
Al3 Er2 3.079103 1_555
Al4 Al7 2.749741 1_555
Al4 Y1 3.055433 1_455
Al4 Y1 3.055433 1_555
Al4 Er7 3.073537 1_555
Al4 Er3 3.073537 1_555
Al5 Al8 2.751248 1_555
Al5 Y2 3.055384 1_455
Al5 Y2 3.055397 1_555
Al5 Er4 3.071187 1_555
Al5 Er5 3.079103 1_555
Al6 Y0 3.055384 1_565
Al6 Y0 3.055397 1_555
Al6 Er6 3.071187 1_665
Al6 Er2 3.079103 1_665
Al7 Y1 3.055433 1_565
Al7 Y1 3.055433 1_555
Al7 Er7 3.073537 1_665
Al7 Er3 3.073537 1_665
Al8 Y2 3.055384 1_565
Al8 Y2 3.055397 1_555
Al8 Er4 3.071187 1_665
Al8 Er5 3.079103 1_665
Al9 Y3 3.055513 1_545
Al9 Y3 3.055513 1_655
Al9 Er2 3.070596 1_654
Al9 Er5 3.070596 1_655
Al10 Al16 2.752139 1_555
Al10 Al13 2.752139 1_555
Al10 Al27 2.916852 1_655
Al10 Al33 2.916852 1_545
Al10 Al19 2.917600 1_655
Al10 Al25 2.917600 1_545
Al10 Er0 3.055355 1_545
Al10 Er0 3.055355 1_655
Al10 Er3 3.075769 1_655
Al10 Er6 3.078246 1_655
Al11 Al14 2.752139 1_555
Al11 Al17 2.752139 1_555
Al11 Al26 2.916852 1_545
Al11 Al20 2.916852 1_655
Al11 Al34 2.917600 1_545
Al11 Al28 2.917600 1_655
Al11 Er1 3.055355 1_545
Al11 Er1 3.055355 1_655
Al11 Er7 3.075769 1_655
Al11 Er4 3.078246 1_655
Al12 Al15 2.747294 1_555
Al12 Al9 2.747294 1_555
Al12 Al29 2.921589 1_555
Al12 Al18 2.921589 1_554
Al12 Al21 2.921592 1_554
Al12 Al30 2.921592 1_555
Al12 Y3 3.055508 1_655
Al12 Y3 3.055520 1_555
Al12 Er2 3.070599 1_664
Al12 Er5 3.070599 1_665
Al13 Al16 2.752138 1_555
Al13 Al31 2.916851 1_555
Al13 Al27 2.916855 1_655
Al13 Al22 2.917600 1_555
Al13 Al19 2.917600 1_655
Al13 Er0 3.055355 1_655
Al13 Er0 3.055355 1_555
Al13 Er3 3.075766 1_665
Al13 Er6 3.078242 1_665
Al14 Al17 2.752138 1_555
Al14 Al23 2.916851 1_555
Al14 Al20 2.916855 1_655
Al14 Al32 2.917600 1_555
Al14 Al28 2.917600 1_655
Al14 Er1 3.055355 1_655
Al14 Er1 3.055355 1_555
Al14 Er7 3.075766 1_665
Al14 Er4 3.078242 1_665
Al15 Al9 2.747294 1_555
Al15 Al24 2.921589 1_554
Al15 Al35 2.921589 1_555
Al15 Al30 2.921592 1_555
Al15 Al21 2.921592 1_554
Al15 Y3 3.055508 1_545
Al15 Y3 3.055520 1_555
Al15 Er5 3.070599 1_555
Al15 Er2 3.070599 1_554
Al16 Al31 2.916851 1_555
Al16 Al33 2.916855 1_545
Al16 Al22 2.917600 1_555
Al16 Al25 2.917600 1_545
Al16 Er0 3.055355 1_545
Al16 Er0 3.055355 1_555
Al16 Er3 3.075766 1_555
Al16 Er6 3.078242 1_555
Al17 Al23 2.916851 1_555
Al17 Al26 2.916855 1_545
Al17 Al32 2.917600 1_555
Al17 Al34 2.917600 1_545
Al17 Er1 3.055355 1_545
Al17 Er1 3.055355 1_555
Al17 Er7 3.075766 1_555
Al17 Er4 3.078242 1_555
Al18 Al9 2.921591 1_556
Al18 Al3 2.921624 1_655
Al18 Y3 2.969379 1_656
Al18 Y0 2.972535 1_555
Al18 Al24 3.049269 1_555
Al18 Al21 3.049269 1_555
Al18 Er2 3.050503 1_665
Al18 Er2 3.050503 1_655
Al18 Al24 3.051721 1_665
Al18 Al21 3.051722 1_655
Al19 Al4 2.926978 1_555
Al19 Er0 2.959860 1_555
Al19 Y1 2.978404 1_455
Al19 Al25 3.041588 1_555
Al19 Al22 3.041588 1_555
Al19 Er3 3.050513 1_565
Al19 Er3 3.050519 1_555
Al19 Al25 3.059402 1_445
Al19 Al22 3.059403 1_455
Al20 Al5 2.928643 1_555
Al20 Er1 2.957416 1_555
Al20 Y2 2.975654 1_455
Al20 Al26 3.040117 1_555
Al20 Al23 3.040118 1_555
Al20 Er4 3.050535 1_555
Al20 Er4 3.050535 1_565
Al20 Al26 3.060873 1_445
Al20 Al23 3.060873 1_455
Al21 Al6 2.921627 1_555
Al21 Al3 2.921627 1_555
Al21 Y3 2.969382 1_556
Al21 Y0 2.972538 1_555
Al21 Al24 3.049269 1_555
Al21 Er2 3.050503 1_555
Al21 Er2 3.050503 1_665
Al21 Al24 3.051722 1_565
Al22 Al7 2.926971 1_555
Al22 Al4 2.926971 1_555
Al22 Er0 2.959860 1_555
Al22 Y1 2.978411 1_555
Al22 Al25 3.041588 1_555
Al22 Er3 3.050516 1_665
Al22 Er3 3.050516 1_555
Al22 Al25 3.059403 1_545
Al23 Al5 2.928646 1_555
Al23 Al8 2.928646 1_555
Al23 Er1 2.957419 1_555
Al23 Y2 2.975657 1_555
Al23 Al26 3.040118 1_555
Al23 Er4 3.050535 1_555
Al23 Er4 3.050535 1_665
Al23 Al26 3.060873 1_545
Al24 Al9 2.921591 1_556
Al24 Al6 2.921624 1_545
Al24 Y3 2.969379 1_546
Al24 Y0 2.972535 1_555
Al24 Er2 3.050503 1_555
Al24 Er2 3.050503 1_655
Al25 Al7 2.926978 1_555
Al25 Er0 2.959860 1_555
Al25 Y1 2.978404 1_565
Al25 Er3 3.050513 1_565
Al25 Er3 3.050519 1_665
Al26 Al8 2.928643 1_555
Al26 Er1 2.957416 1_555
Al26 Y2 2.975654 1_565
Al26 Er4 3.050535 1_665
Al26 Er4 3.050535 1_565
Al27 Al3 2.928643 1_555
Al27 Er0 2.957416 1_555
Al27 Y0 2.975654 1_455
Al27 Al33 3.040117 1_555
Al27 Al31 3.040118 1_555
Al27 Er6 3.050535 1_555
Al27 Er6 3.050535 1_565
Al27 Al33 3.060873 1_445
Al27 Al31 3.060873 1_455
Al28 Al4 2.926978 1_555
Al28 Er1 2.959860 1_555
Al28 Y1 2.978404 1_455
Al28 Al34 3.041588 1_555
Al28 Al32 3.041588 1_555
Al28 Er7 3.050513 1_565
Al28 Er7 3.050519 1_555
Al28 Al34 3.059402 1_445
Al28 Al32 3.059403 1_455
Al29 Al9 2.921591 1_555
Al29 Al5 2.921624 1_655
Al29 Y3 2.969379 1_655
Al29 Y2 2.972535 1_555
Al29 Al35 3.049269 1_555
Al29 Al30 3.049269 1_555
Al29 Er5 3.050503 1_665
Al29 Er5 3.050503 1_655
Al29 Al35 3.051721 1_665
Al29 Al30 3.051722 1_655
Al30 Al5 2.921627 1_555
Al30 Al8 2.921627 1_555
Al30 Y3 2.969382 1_555
Al30 Y2 2.972538 1_555
Al30 Al35 3.049269 1_555
Al30 Er5 3.050503 1_555
Al30 Er5 3.050503 1_665
Al30 Al35 3.051722 1_565
Al31 Al6 2.928646 1_555
Al31 Er0 2.957419 1_555
Al31 Y0 2.975657 1_555
Al31 Al33 3.040118 1_555
Al31 Er6 3.050535 1_555
Al31 Er6 3.050535 1_665
Al31 Al33 3.060873 1_545
Al32 Al7 2.926971 1_555
Al32 Al4 2.926971 1_555
Al32 Er1 2.959860 1_555
Al32 Y1 2.978411 1_555
Al32 Al34 3.041588 1_555
Al32 Er7 3.050516 1_665
Al32 Er7 3.050516 1_555
Al32 Al34 3.059403 1_545
Al33 Al6 2.928643 1_555
Al33 Er0 2.957416 1_555
Al33 Y0 2.975654 1_565
Al33 Er6 3.050535 1_665
Al33 Er6 3.050535 1_565
Al34 Al7 2.926978 1_555
Al34 Er1 2.959860 1_555
Al34 Y1 2.978404 1_565
Al34 Er7 3.050513 1_565
Al34 Er7 3.050519 1_665
Al35 Al9 2.921591 1_555
Al35 Al8 2.921624 1_545
Al35 Y3 2.969379 1_545
Al35 Y2 2.972535 1_555
Al35 Er5 3.050503 1_555
Al35 Er5 3.050503 1_655
