# generated using pymatgen
data_MgSi7Ir3
_symmetry_space_group_name_H-M   'P 1'
_cell_length_a   7.92809305
_cell_length_b   7.92809696
_cell_length_c   7.92809518
_cell_angle_alpha   56.78959965
_cell_angle_beta   56.78957161
_cell_angle_gamma   56.78955248
_symmetry_Int_Tables_number   1
_chemical_formula_structural   MgSi7Ir3
_chemical_formula_sum   'Mg2 Si14 Ir6'
_cell_volume   326.25333231
_cell_formula_units_Z   2
loop_
 _symmetry_equiv_pos_site_id
 _symmetry_equiv_pos_as_xyz
  1  'x, y, z'
loop_
 _atom_site_type_symbol
 _atom_site_label
 _atom_site_symmetry_multiplicity
 _atom_site_fract_x
 _atom_site_fract_y
 _atom_site_fract_z
 _atom_site_occupancy
  Mg  Mg0  1  0.50000114  0.49999912  0.49999988  1
  Mg  Mg1  1  0.99999938  0.00000036  0.00000015  1
  Si  Si0  1  0.85061435  0.06327829  0.67431277  1
  Si  Si1  1  0.67431311  0.85061431  0.06327789  1
  Si  Si2  1  0.06327789  0.67431361  0.85061307  1
  Si  Si3  1  0.64938591  0.82568709  0.43672165  1
  Si  Si4  1  0.24999999  0.25000029  0.24999982  1
  Si  Si5  1  0.75000013  0.75000037  0.74999949  1
  Si  Si6  1  0.17431334  0.56327790  0.35061420  1
  Si  Si7  1  0.56327798  0.35061347  0.17431319  1
  Si  Si8  1  0.35061446  0.17431306  0.56327814  1
  Si  Si9  1  0.93672214  0.32568674  0.14938661  1
  Si  Si10  1  0.32568682  0.14938568  0.93672206  1
  Si  Si11  1  0.14938369  0.93672248  0.32568752  1
  Si  Si12  1  0.82568714  0.43672210  0.64938551  1
  Si  Si13  1  0.43672232  0.64938686  0.82568634  1
  Ir  Ir0  1  0.75000015  0.07413037  0.42586959  1
  Ir  Ir1  1  0.42586950  0.75000029  0.07413033  1
  Ir  Ir2  1  0.07413056  0.42586975  0.74999957  1
  Ir  Ir3  1  0.24999992  0.92587002  0.57413006  1
  Ir  Ir4  1  0.57413056  0.25000024  0.92586924  1
  Ir  Ir5  1  0.92586952  0.57413059  0.24999992  1
loop_
_geom_bond_atom_site_label_1
_geom_bond_atom_site_label_2
_geom_bond_distance
_geom_bond_site_symmetry_2
Mg0 Si12 3.098630 1_555
Mg0 Si8 3.098634 1_555
Mg0 Si3 3.098637 1_555
Mg0 Si7 3.098637 1_555
Mg0 Si6 3.098637 1_555
Mg0 Si13 3.098640 1_555
Mg0 Si9 3.169900 1_555
Mg0 Si0 3.169901 1_555
Mg0 Si2 3.169911 1_555
Mg0 Si10 3.169912 1_555
Mg0 Si1 3.169912 1_555
Mg0 Si11 3.169924 1_555
Mg1 Si11 3.098630 1_645
Mg1 Si1 3.098633 1_545
Mg1 Si0 3.098634 1_554
Mg1 Si10 3.098636 1_654
Mg1 Si9 3.098638 1_555
Mg1 Si2 3.098640 1_644
Mg1 Si7 3.169902 1_555
Mg1 Si3 3.169906 1_545
Mg1 Si12 3.169909 1_554
Mg1 Si13 3.169910 1_644
Mg1 Si8 3.169913 1_654
Mg1 Si6 3.169913 1_645
Ir0 Si9 2.421663 1_555
Ir0 Si7 2.421663 1_555
Ir0 Si5 2.444044 1_545
Ir0 Si0 2.446147 1_555
Ir0 Si3 2.446149 1_545
Ir0 Si11 2.501550 1_645
Ir0 Si8 2.501564 1_555
Ir0 Mg0 3.039816 1_555
Ir0 Mg1 3.039820 1_555
Ir1 Si6 2.421664 1_555
Ir1 Si11 2.421669 1_555
Ir1 Si5 2.444049 1_554
Ir1 Si13 2.446145 1_554
Ir1 Si1 2.446147 1_555
Ir1 Si10 2.501564 1_564
Ir1 Si7 2.501573 1_555
Ir1 Mg1 3.039824 1_465
Ir1 Mg0 3.039826 1_555
Ir2 Si8 2.421661 1_555
Ir2 Si10 2.421664 1_555
Ir2 Si5 2.444047 1_455
Ir2 Si2 2.446145 1_555
Ir2 Si12 2.446146 1_455
Ir2 Si6 2.501564 1_555
Ir2 Si9 2.501574 1_456
Ir2 Mg1 3.039825 1_456
Ir2 Mg0 3.039825 1_555
Ir3 Si2 2.421663 1_555
Ir3 Si13 2.421664 1_555
Ir3 Si4 2.444047 1_565
Ir3 Si8 2.446149 1_565
Ir3 Si11 2.446152 1_555
Ir3 Si0 2.501563 1_465
Ir3 Si3 2.501566 1_555
Ir3 Mg1 3.039825 1_466
Ir3 Mg0 3.039829 1_555
Ir4 Si0 2.421662 1_555
Ir4 Si12 2.421664 1_555
Ir4 Si4 2.444047 1_556
Ir4 Si7 2.446145 1_556
Ir4 Si10 2.446150 1_555
Ir4 Si1 2.501568 1_546
Ir4 Si13 2.501572 1_555
Ir4 Mg1 3.039817 1_556
Ir4 Mg0 3.039818 1_555
Ir5 Si3 2.421661 1_555
Ir5 Si1 2.421663 1_555
Ir5 Si4 2.444046 1_655
Ir5 Si9 2.446144 1_555
Ir5 Si6 2.446149 1_655
Ir5 Si12 2.501565 1_555
Ir5 Si2 2.501573 1_654
Ir5 Mg0 3.039817 1_555
Ir5 Mg1 3.039823 1_565
