# generated using pymatgen
data_Ca11(RhN5)2
_symmetry_space_group_name_H-M   'P 1'
_cell_length_a   14.85375700
_cell_length_b   14.85375700
_cell_length_c   3.69041200
_cell_angle_alpha   90.00000000
_cell_angle_beta   90.00000000
_cell_angle_gamma   90.00000000
_symmetry_Int_Tables_number   1
_chemical_formula_structural   Ca11(RhN5)2
_chemical_formula_sum   'Ca22 Rh4 N20'
_cell_volume   814.23071923
_cell_formula_units_Z   2
loop_
 _symmetry_equiv_pos_site_id
 _symmetry_equiv_pos_as_xyz
  1  'x, y, z'
loop_
 _atom_site_type_symbol
 _atom_site_label
 _atom_site_symmetry_multiplicity
 _atom_site_fract_x
 _atom_site_fract_y
 _atom_site_fract_z
 _atom_site_occupancy
  Ca  Ca0  1  0.50000000  0.50000000  0.50000000  1
  Ca  Ca1  1  0.00000000  0.00000000  0.00000000  1
  Ca  Ca2  1  0.97276400  0.78751600  0.50000000  1
  Ca  Ca3  1  0.02723600  0.21248400  0.50000000  1
  Ca  Ca4  1  0.52723600  0.28751600  0.00000000  1
  Ca  Ca5  1  0.47276400  0.71248400  0.00000000  1
  Ca  Ca6  1  0.78751600  0.97276400  0.50000000  1
  Ca  Ca7  1  0.21248400  0.02723600  0.50000000  1
  Ca  Ca8  1  0.28751600  0.52723600  0.00000000  1
  Ca  Ca9  1  0.71248400  0.47276400  0.00000000  1
  Ca  Ca10  1  0.69878100  0.69878100  0.50000000  1
  Ca  Ca11  1  0.30121900  0.30121900  0.50000000  1
  Ca  Ca12  1  0.80121900  0.19878100  0.00000000  1
  Ca  Ca13  1  0.19878100  0.80121900  0.00000000  1
  Ca  Ca14  1  0.38807700  0.89302400  0.50000000  1
  Ca  Ca15  1  0.61192300  0.10697600  0.50000000  1
  Ca  Ca16  1  0.11192300  0.39302400  0.00000000  1
  Ca  Ca17  1  0.88807700  0.60697600  0.00000000  1
  Ca  Ca18  1  0.89302400  0.38807700  0.50000000  1
  Ca  Ca19  1  0.10697600  0.61192300  0.50000000  1
  Ca  Ca20  1  0.39302400  0.11192300  0.00000000  1
  Ca  Ca21  1  0.60697600  0.88807700  0.00000000  1
  Rh  Rh0  1  0.30172400  0.69827600  0.50000000  1
  Rh  Rh1  1  0.69827600  0.30172400  0.50000000  1
  Rh  Rh2  1  0.19827600  0.19827600  0.00000000  1
  Rh  Rh3  1  0.80172400  0.80172400  0.00000000  1
  N  N0  1  0.13316400  0.86683600  0.50000000  1
  N  N1  1  0.86683600  0.13316400  0.50000000  1
  N  N2  1  0.36683600  0.36683600  0.00000000  1
  N  N3  1  0.63316400  0.63316400  0.00000000  1
  N  N4  1  0.46543100  0.18641100  0.50000000  1
  N  N5  1  0.53456900  0.81358900  0.50000000  1
  N  N6  1  0.03456900  0.68641100  0.00000000  1
  N  N7  1  0.96543100  0.31358900  0.00000000  1
  N  N8  1  0.18641100  0.46543100  0.50000000  1
  N  N9  1  0.81358900  0.53456900  0.50000000  1
  N  N10  1  0.68641100  0.03456900  0.00000000  1
  N  N11  1  0.31358900  0.96543100  0.00000000  1
  N  N12  1  0.07388200  0.92611800  0.50000000  1
  N  N13  1  0.92611800  0.07388200  0.50000000  1
  N  N14  1  0.42611800  0.42611800  0.00000000  1
  N  N15  1  0.57388200  0.57388200  0.00000000  1
  N  N16  1  0.61009200  0.38990800  0.50000000  1
  N  N17  1  0.38990800  0.61009200  0.50000000  1
  N  N18  1  0.88990800  0.88990800  0.00000000  1
  N  N19  1  0.11009200  0.11009200  0.00000000  1
loop_
_geom_bond_atom_site_label_1
_geom_bond_atom_site_label_2
_geom_bond_distance
_geom_bond_site_symmetry_2
Ca0 N16 2.312635 1_555
Ca0 N17 2.312635 1_555
Ca0 N14 2.411114 1_555
Ca0 N15 2.411114 1_555
Ca0 N14 2.411114 1_556
Ca0 N15 2.411114 1_556
Ca1 N18 2.312635 1_445
Ca1 N19 2.312635 1_555
Ca1 N13 2.411114 1_454
Ca1 N13 2.411114 1_455
Ca1 N12 2.411114 1_544
Ca1 N12 2.411114 1_545
Ca2 N12 2.548420 1_655
Ca2 N6 2.550088 1_655
Ca2 N6 2.550088 1_656
Ca2 N0 2.657944 1_655
Ca2 N18 2.689353 1_555
Ca2 N18 2.689353 1_556
Ca3 N13 2.548420 1_455
Ca3 N7 2.550088 1_455
Ca3 N7 2.550088 1_456
Ca3 N1 2.657944 1_455
Ca3 N19 2.689353 1_555
Ca3 N19 2.689353 1_556
Ca4 N14 2.548420 1_555
Ca4 N4 2.550088 1_554
Ca4 N4 2.550088 1_555
Ca4 N2 2.657944 1_555
Ca4 N16 2.689353 1_554
Ca4 N16 2.689353 1_555
Ca5 N15 2.548420 1_555
Ca5 N5 2.550088 1_554
Ca5 N5 2.550088 1_555
Ca5 N3 2.657944 1_555
Ca5 N17 2.689353 1_554
Ca5 N17 2.689353 1_555
Ca6 N13 2.548420 1_565
Ca6 N10 2.550088 1_566
Ca6 N10 2.550088 1_565
Ca6 N1 2.657944 1_565
Ca6 N18 2.689353 1_555
Ca6 N18 2.689353 1_556
Ca7 N12 2.548420 1_545
Ca7 N11 2.550088 1_545
Ca7 N11 2.550088 1_546
Ca7 N0 2.657944 1_545
Ca7 N19 2.689353 1_555
Ca7 N19 2.689353 1_556
Ca8 N14 2.548420 1_555
Ca8 N8 2.550088 1_555
Ca8 N8 2.550088 1_554
Ca8 N2 2.657944 1_555
Ca8 N17 2.689353 1_555
Ca8 N17 2.689353 1_554
Ca9 N15 2.548420 1_555
Ca9 N9 2.550088 1_554
Ca9 N9 2.550088 1_555
Ca9 N3 2.657944 1_555
Ca9 N16 2.689353 1_554
Ca9 N16 2.689353 1_555
Ca10 N3 2.303195 1_556
Ca10 N3 2.303195 1_555
Ca10 Rh3 2.842713 1_556
Ca10 Rh3 2.842713 1_555
Ca10 N5 2.976185 1_555
Ca10 N9 2.976185 1_555
Ca11 N2 2.303195 1_556
Ca11 N2 2.303195 1_555
Ca11 Rh2 2.842713 1_555
Ca11 Rh2 2.842713 1_556
Ca11 N8 2.976185 1_555
Ca11 N4 2.976185 1_555
Ca12 N1 2.303195 1_554
Ca12 N1 2.303195 1_555
Ca12 Rh1 2.842713 1_554
Ca12 Rh1 2.842713 1_555
Ca12 N10 2.976185 1_555
Ca12 N7 2.976185 1_555
Ca13 N0 2.303195 1_554
Ca13 N0 2.303195 1_555
Ca13 Rh0 2.842713 1_554
Ca13 Rh0 2.842713 1_555
Ca13 N11 2.976185 1_555
Ca13 N6 2.976185 1_555
Ca14 N11 2.405348 1_556
Ca14 N11 2.405348 1_555
Ca14 N5 2.475272 1_555
Ca15 N10 2.405348 1_556
Ca15 N10 2.405348 1_555
Ca15 N4 2.475272 1_555
Ca16 N8 2.405348 1_554
Ca16 N8 2.405348 1_555
Ca16 N7 2.475272 1_455
Ca17 N9 2.405348 1_555
Ca17 N9 2.405348 1_554
Ca17 N6 2.475272 1_655
Ca18 N7 2.405348 1_555
Ca18 N7 2.405348 1_556
Ca18 N9 2.475272 1_555
Ca19 N6 2.405348 1_555
Ca19 N6 2.405348 1_556
Ca19 N8 2.475272 1_555
Ca20 N4 2.405348 1_555
Ca20 N4 2.405348 1_554
Ca20 N11 2.475272 1_545
Ca21 N5 2.405348 1_554
Ca21 N5 2.405348 1_555
Ca21 N10 2.475272 1_565
N0 N12 1.245300 1_555
N1 N13 1.245300 1_555
N14 N2 1.245300 1_555
N15 N3 1.245300 1_555
N16 Rh1 1.852427 1_555
N17 Rh0 1.852427 1_555
N18 Rh3 1.852427 1_555
N19 Rh2 1.852427 1_555
