# generated using pymatgen
data_Li4V3O8
_symmetry_space_group_name_H-M   'P 1'
_cell_length_a   5.85309697
_cell_length_b   6.15050580
_cell_length_c   8.49653177
_cell_angle_alpha   86.02683631
_cell_angle_beta   90.09287905
_cell_angle_gamma   89.92753273
_symmetry_Int_Tables_number   1
_chemical_formula_structural   Li4V3O8
_chemical_formula_sum   'Li8 V6 O16'
_cell_volume   305.13513618
_cell_formula_units_Z   2
loop_
 _symmetry_equiv_pos_site_id
 _symmetry_equiv_pos_as_xyz
  1  'x, y, z'
loop_
 _atom_site_type_symbol
 _atom_site_label
 _atom_site_symmetry_multiplicity
 _atom_site_fract_x
 _atom_site_fract_y
 _atom_site_fract_z
 _atom_site_occupancy
  Li  Li0  1  0.00718100  0.00196900  0.99917000  1
  Li  Li1  1  0.49286400  0.50350000  0.49951500  1
  Li  Li2  1  0.49621900  0.49781500  0.00017800  1
  Li  Li3  1  0.00453900  0.99860000  0.50061900  1
  Li  Li4  1  0.49329800  0.21416000  0.85669400  1
  Li  Li5  1  0.00756100  0.71581800  0.35748800  1
  Li  Li6  1  0.49409400  0.78266300  0.14292100  1
  Li  Li7  1  0.00523700  0.28218200  0.64320700  1
  V  V0  1  0.49436700  0.00141100  0.49807000  1
  V  V1  1  0.24557900  0.74617800  0.74551400  1
  V  V2  1  0.25326200  0.24792200  0.24428000  1
  V  V3  1  0.00564600  0.49950500  0.99916100  1
  V  V4  1  0.75393100  0.25288100  0.25482700  1
  V  V5  1  0.74552300  0.75172800  0.75453100  1
  O  O0  1  0.00423400  0.47167400  0.23554600  1
  O  O1  1  0.49494100  0.96990400  0.73410800  1
  O  O2  1  0.99321800  0.52686600  0.76369300  1
  O  O3  1  0.50655000  0.02814700  0.26296800  1
  O  O4  1  0.48903000  0.46216500  0.24468200  1
  O  O5  1  0.01046000  0.96132800  0.74512000  1
  O  O6  1  0.75042700  0.73281400  0.97415300  1
  O  O7  1  0.27409700  0.22011600  0.48886100  1
  O  O8  1  0.22551100  0.71839500  0.98955000  1
  O  O9  1  0.74988700  0.23353100  0.47427900  1
  O  O10  1  0.48531400  0.53696700  0.75701800  1
  O  O11  1  0.01510900  0.03828800  0.25674900  1
  O  O12  1  0.23914800  0.26924000  0.01375100  1
  O  O13  1  0.73578300  0.78145900  0.52396300  1
  O  O14  1  0.76515500  0.28076200  0.02418100  1
  O  O15  1  0.26183600  0.77201300  0.51520000  1
loop_
_geom_bond_atom_site_label_1
_geom_bond_atom_site_label_2
_geom_bond_distance
_geom_bond_site_symmetry_2
Li0 O12 2.143441 1_556
Li0 O8 2.167060 1_545
Li0 O5 2.190218 1_545
Li0 O11 2.215661 1_556
Li0 O14 2.244439 1_456
Li0 O6 2.257899 1_445
Li1 O15 2.144561 1_555
Li1 O7 2.170901 1_555
Li1 O4 2.197579 1_555
Li1 O10 2.212205 1_555
Li1 O13 2.245404 1_555
Li1 O9 2.260593 1_555
Li2 O12 2.058439 1_555
Li2 O14 2.063374 1_555
Li2 O10 2.064237 1_554
Li2 O4 2.074312 1_555
Li2 O6 2.077028 1_554
Li2 O8 2.082410 1_554
Li3 O15 2.048338 1_555
Li3 O13 2.065694 1_455
Li3 O11 2.070547 1_565
Li3 O5 2.074401 1_555
Li3 O9 2.075622 1_465
Li3 O7 2.083888 1_565
Li4 O1 1.886442 1_545
Li4 O12 2.043563 1_556
Li4 O10 2.104273 1_555
Li4 O14 2.190872 1_556
Li5 O0 1.882628 1_555
Li5 O15 2.046733 1_555
Li5 O11 2.105553 1_565
Li5 O13 2.186083 1_455
Li6 O3 1.881165 1_565
Li6 O8 2.095710 1_554
Li6 O4 2.097191 1_555
Li6 O6 2.113754 1_554
Li7 O2 1.879153 1_455
Li7 O5 2.099537 1_545
Li7 O7 2.101540 1_555
Li7 O9 2.106447 1_455
O0 V4 1.989797 1_455
O0 V2 2.001094 1_555
O0 V3 2.003913 1_554
O1 V5 1.985917 1_555
O1 V0 2.001432 1_565
O1 V1 2.005034 1_555
O2 V3 1.997273 1_655
O2 V5 2.000076 1_555
O2 V1 2.000512 1_655
O3 V0 1.994319 1_555
O3 V4 2.001005 1_555
O3 V2 2.003663 1_555
O4 V2 1.909420 1_555
O4 V4 2.011836 1_555
O5 V1 1.907801 1_555
O5 V5 2.015972 1_455
O6 V5 1.861758 1_555
O6 V3 2.070527 1_655
O7 V0 1.859687 1_555
O7 V2 2.076645 1_555
O8 V3 1.861378 1_555
O8 V1 2.072190 1_555
O9 V4 1.860318 1_555
O9 V0 2.069352 1_555
O10 V1 1.900472 1_555
O10 V5 2.016466 1_555
O11 V2 1.898105 1_555
O11 V4 2.017681 1_455
O12 V2 1.955599 1_555
O12 V3 1.964495 1_554
O13 V5 1.955620 1_555
O13 V0 1.956548 1_565
O14 V3 1.950065 1_654
O14 V4 1.956524 1_555
O15 V1 1.954788 1_555
O15 V0 1.959923 1_565
