# generated using pymatgen
data_FeS2NO8
_symmetry_space_group_name_H-M   'P 1'
_cell_length_a   4.89555972
_cell_length_b   4.89555972
_cell_length_c   16.71673000
_cell_angle_alpha   90.00000000
_cell_angle_beta   90.00000000
_cell_angle_gamma   119.99999619
_symmetry_Int_Tables_number   1
_chemical_formula_structural   FeS2NO8
_chemical_formula_sum   'Fe2 S4 N2 O16'
_cell_volume   346.96581009
_cell_formula_units_Z   2
loop_
 _symmetry_equiv_pos_site_id
 _symmetry_equiv_pos_as_xyz
  1  'x, y, z'
loop_
 _atom_site_type_symbol
 _atom_site_label
 _atom_site_symmetry_multiplicity
 _atom_site_fract_x
 _atom_site_fract_y
 _atom_site_fract_z
 _atom_site_occupancy
  Fe  Fe0  1  0.66666700  0.33333300  0.59720800  1
  Fe  Fe1  1  0.33333300  0.66666700  0.09720800  1
  S  S0  1  0.00000000  0.00000000  0.49622900  1
  S  S1  1  0.00000000  0.00000000  0.99622900  1
  S  S2  1  0.66666700  0.33333300  0.19993300  1
  S  S3  1  0.33333300  0.66666700  0.69993300  1
  N  N0  1  0.33333300  0.66666700  0.35223800  1
  N  N1  1  0.66666700  0.33333300  0.85223800  1
  O  O0  1  0.00000000  0.00000000  0.40874800  1
  O  O1  1  0.00000000  0.00000000  0.90874800  1
  O  O2  1  0.96515100  0.26797900  0.52682500  1
  O  O3  1  0.73202100  0.69717200  0.52682500  1
  O  O4  1  0.30282800  0.03484900  0.52682500  1
  O  O5  1  0.03484900  0.73202100  0.02682500  1
  O  O6  1  0.26797900  0.30282800  0.02682500  1
  O  O7  1  0.69717200  0.96515100  0.02682500  1
  O  O8  1  0.66666700  0.33333300  0.28724700  1
  O  O9  1  0.33333300  0.66666700  0.78724700  1
  O  O10  1  0.40621600  0.02595300  0.16941400  1
  O  O11  1  0.97404700  0.38026300  0.16941400  1
  O  O12  1  0.61973700  0.59378400  0.16941400  1
  O  O13  1  0.59378400  0.97404700  0.66941400  1
  O  O14  1  0.02595300  0.61973700  0.66941400  1
  O  O15  1  0.38026300  0.40621600  0.66941400  1
loop_
_geom_bond_atom_site_label_1
_geom_bond_atom_site_label_2
_geom_bond_distance
_geom_bond_site_symmetry_2
Fe0 O13 2.012571 1_545
Fe0 O14 2.012572 1_655
Fe0 O15 2.012575 1_555
Fe0 O2 2.022238 1_555
Fe0 O4 2.022241 1_555
Fe0 O3 2.022242 1_555
Fe1 O10 2.012571 1_565
Fe1 O11 2.012572 1_455
Fe1 O12 2.012575 1_555
Fe1 O5 2.022238 1_555
Fe1 O7 2.022241 1_555
Fe1 O6 2.022242 1_555
O0 S0 1.462396 1_555
O1 S1 1.462396 1_555
O2 S0 1.495200 1_655
O3 S0 1.495200 1_665
O4 S0 1.495200 1_555
O5 S1 1.495200 1_564
O6 S1 1.495200 1_554
O7 S1 1.495200 1_664
O8 S2 1.459605 1_555
O9 S3 1.459605 1_555
O10 S2 1.493908 1_555
O11 S2 1.493906 1_555
O12 S2 1.493911 1_555
O13 S3 1.493908 1_555
O14 S3 1.493906 1_555
O15 S3 1.493911 1_555
