# generated using pymatgen
data_SrYAl3O7
_symmetry_space_group_name_H-M   'P 1'
_cell_length_a   7.85648227
_cell_length_b   7.85648227
_cell_length_c   5.17775500
_cell_angle_alpha   90.00000000
_cell_angle_beta   90.00000000
_cell_angle_gamma   91.24501815
_symmetry_Int_Tables_number   1
_chemical_formula_structural   SrYAl3O7
_chemical_formula_sum   'Sr2 Y2 Al6 O14'
_cell_volume   319.51792389
_cell_formula_units_Z   2
loop_
 _symmetry_equiv_pos_site_id
 _symmetry_equiv_pos_as_xyz
  1  'x, y, z'
loop_
 _atom_site_type_symbol
 _atom_site_label
 _atom_site_symmetry_multiplicity
 _atom_site_fract_x
 _atom_site_fract_y
 _atom_site_fract_z
 _atom_site_occupancy
  Sr  Sr0  1  0.16229100  0.83770900  0.49061000  1
  Sr  Sr1  1  0.83770900  0.16229100  0.49061000  1
  Y  Y0  1  0.66009200  0.66009200  0.51912700  1
  Y  Y1  1  0.33990800  0.33990800  0.51912700  1
  Al  Al0  1  0.36140300  0.63859700  0.04215700  1
  Al  Al1  1  0.85084800  0.85084800  0.96071200  1
  Al  Al2  1  0.63859700  0.36140300  0.04215700  1
  Al  Al3  1  0.14915200  0.14915200  0.96071200  1
  Al  Al4  1  0.50000000  0.00000000  0.99250000  1
  Al  Al5  1  0.00000000  0.50000000  0.99250000  1
  O  O0  1  0.00000000  0.00000000  0.84412300  1
  O  O1  1  0.50000000  0.50000000  0.20897500  1
  O  O2  1  0.41756500  0.83462100  0.18816700  1
  O  O3  1  0.90215000  0.65754700  0.79576900  1
  O  O4  1  0.58243500  0.16537900  0.18816700  1
  O  O5  1  0.09785000  0.34245300  0.79576900  1
  O  O6  1  0.34245300  0.09785000  0.79576900  1
  O  O7  1  0.83462100  0.41756500  0.18816700  1
  O  O8  1  0.65754700  0.90215000  0.79576900  1
  O  O9  1  0.16537900  0.58243500  0.18816700  1
  O  O10  1  0.37542900  0.62457100  0.70389600  1
  O  O11  1  0.83862100  0.83862100  0.29657800  1
  O  O12  1  0.62457100  0.37542900  0.70389600  1
  O  O13  1  0.16137900  0.16137900  0.29657800  1
loop_
_geom_bond_atom_site_label_1
_geom_bond_atom_site_label_2
_geom_bond_distance
_geom_bond_site_symmetry_2
Al0 O10 1.758502 1_554
Al0 O2 1.763089 1_555
Al0 O9 1.763089 1_555
Al0 O1 1.780145 1_555
Al1 O11 1.744215 1_556
Al1 O0 1.746718 1_665
Al1 O8 1.795765 1_555
Al1 O3 1.795765 1_555
Al2 O12 1.758502 1_554
Al2 O7 1.763089 1_555
Al2 O4 1.763089 1_555
Al2 O1 1.780145 1_555
Al3 O13 1.744215 1_556
Al3 O0 1.746718 1_555
Al3 O6 1.795765 1_555
Al3 O5 1.795765 1_555
Al4 O4 1.759960 1_556
Al4 O2 1.759960 1_546
Al4 O8 1.789412 1_545
Al4 O6 1.789412 1_555
Al5 O9 1.759960 1_556
Al5 O7 1.759960 1_456
Al5 O3 1.789412 1_455
Al5 O5 1.789412 1_555
O0 Sr0 2.583111 1_545
O0 Sr1 2.583111 1_455
O1 Y0 2.382029 1_555
O1 Y1 2.382029 1_555
O2 Sr0 2.545042 1_555
O2 Y0 2.925883 1_555
O3 Y0 2.381246 1_555
O3 Sr0 2.924272 1_655
O4 Sr1 2.545042 1_555
O4 Y1 2.925883 1_555
O5 Y1 2.381246 1_555
O5 Sr1 2.924272 1_455
O6 Y1 2.381246 1_555
O6 Sr0 2.924272 1_545
O7 Sr1 2.545042 1_555
O7 Y0 2.925883 1_555
O8 Y0 2.381246 1_555
O8 Sr1 2.924272 1_565
O9 Sr0 2.545042 1_555
O9 Y1 2.925883 1_555
O10 Y1 2.442892 1_555
O10 Y0 2.442892 1_555
O10 Sr0 2.636176 1_555
O11 Y0 2.275290 1_555
O11 Sr0 2.734327 1_655
O11 Sr1 2.734327 1_565
O12 Y1 2.442892 1_555
O12 Y0 2.442892 1_555
O12 Sr1 2.636176 1_555
O13 Y1 2.275290 1_555
O13 Sr0 2.734327 1_545
O13 Sr1 2.734327 1_455
