# generated using pymatgen
data_TiO2
_symmetry_space_group_name_H-M   'P 1'
_cell_length_a   3.16722600
_cell_length_b   5.25396300
_cell_length_c   6.28784800
_cell_angle_alpha   90.00000000
_cell_angle_beta   90.00000000
_cell_angle_gamma   90.00000000
_symmetry_Int_Tables_number   1
_chemical_formula_structural   TiO2
_chemical_formula_sum   'Ti4 O8'
_cell_volume   104.63286055
_cell_formula_units_Z   4
loop_
 _symmetry_equiv_pos_site_id
 _symmetry_equiv_pos_as_xyz
  1  'x, y, z'
loop_
 _atom_site_type_symbol
 _atom_site_label
 _atom_site_symmetry_multiplicity
 _atom_site_fract_x
 _atom_site_fract_y
 _atom_site_fract_z
 _atom_site_occupancy
  Ti  Ti0  1  0.25000000  0.25145300  0.89383000  1
  Ti  Ti1  1  0.25000000  0.75145300  0.60617000  1
  Ti  Ti2  1  0.75000000  0.74854700  0.10617000  1
  Ti  Ti3  1  0.75000000  0.24854700  0.39383000  1
  O  O0  1  0.25000000  0.36280800  0.58055000  1
  O  O1  1  0.25000000  0.86280800  0.91945000  1
  O  O2  1  0.75000000  0.63719200  0.41945000  1
  O  O3  1  0.75000000  0.13719200  0.08055000  1
  O  O4  1  0.75000000  0.01560500  0.65308900  1
  O  O5  1  0.75000000  0.51560500  0.84691100  1
  O  O6  1  0.25000000  0.98439500  0.34691100  1
  O  O7  1  0.25000000  0.48439500  0.15308900  1
loop_
_geom_bond_atom_site_label_1
_geom_bond_atom_site_label_2
_geom_bond_distance
_geom_bond_site_symmetry_2
O0 Ti1 2.048271 1_555
O0 Ti0 2.054903 1_555
O0 Ti3 2.060740 1_455
O0 Ti3 2.060740 1_555
O1 Ti0 2.048271 1_565
O1 Ti1 2.054903 1_555
O1 Ti2 2.060740 1_456
O1 Ti2 2.060740 1_556
O2 Ti3 2.048271 1_555
O2 Ti2 2.054903 1_555
O2 Ti1 2.060740 1_555
O2 Ti1 2.060740 1_655
O3 Ti2 2.048271 1_545
O3 Ti3 2.054903 1_555
O3 Ti0 2.060740 1_654
O3 Ti0 2.060740 1_554
O4 Ti3 2.038466 1_555
O4 Ti1 2.126260 1_645
O4 Ti1 2.126260 1_545
O4 Ti0 2.516884 1_555
O4 Ti0 2.516884 1_655
O5 Ti2 2.038466 1_556
O5 Ti0 2.126260 1_655
O5 Ti0 2.126260 1_555
O5 Ti1 2.516884 1_555
O5 Ti1 2.516884 1_655
O6 Ti1 2.038466 1_555
O6 Ti3 2.126260 1_465
O6 Ti3 2.126260 1_565
O6 Ti2 2.516884 1_455
O6 Ti2 2.516884 1_555
O7 Ti0 2.038466 1_554
O7 Ti2 2.126260 1_555
O7 Ti2 2.126260 1_455
O7 Ti3 2.516884 1_455
O7 Ti3 2.516884 1_555
