# generated using pymatgen
data_NaSi5N7
_symmetry_space_group_name_H-M   'P 1'
_cell_length_a   11.66475500
_cell_length_b   20.90902800
_cell_length_c   4.90792600
_cell_angle_alpha   90.00000000
_cell_angle_beta   90.00000000
_cell_angle_gamma   90.00000000
_symmetry_Int_Tables_number   1
_chemical_formula_structural   NaSi5N7
_chemical_formula_sum   'Na8 Si40 N56'
_cell_volume   1197.03671666
_cell_formula_units_Z   8
loop_
 _symmetry_equiv_pos_site_id
 _symmetry_equiv_pos_as_xyz
  1  'x, y, z'
loop_
 _atom_site_type_symbol
 _atom_site_label
 _atom_site_symmetry_multiplicity
 _atom_site_fract_x
 _atom_site_fract_y
 _atom_site_fract_z
 _atom_site_occupancy
  Na  Na0  1  0.78423800  0.99241000  0.43643000  1
  Na  Na1  1  0.21576200  0.00759000  0.93643000  1
  Na  Na2  1  0.71576200  0.49241000  0.93643000  1
  Na  Na3  1  0.28423800  0.50759000  0.43643000  1
  Na  Na4  1  0.14593800  0.81083500  0.44558600  1
  Na  Na5  1  0.85406200  0.18916500  0.94558600  1
  Na  Na6  1  0.35406200  0.31083500  0.94558600  1
  Na  Na7  1  0.64593800  0.68916500  0.44558600  1
  Si  Si0  1  0.65551200  0.84980000  0.72534000  1
  Si  Si1  1  0.34448800  0.15020000  0.22534000  1
  Si  Si2  1  0.84448800  0.34980000  0.22534000  1
  Si  Si3  1  0.15551200  0.65020000  0.72534000  1
  Si  Si4  1  0.15488300  0.65080700  0.22179700  1
  Si  Si5  1  0.84511700  0.34919300  0.72179700  1
  Si  Si6  1  0.34511700  0.15080700  0.72179700  1
  Si  Si7  1  0.65488300  0.84919300  0.22179700  1
  Si  Si8  1  0.85898500  0.77798800  0.96972600  1
  Si  Si9  1  0.14101500  0.22201200  0.46972600  1
  Si  Si10  1  0.64101500  0.27798800  0.46972600  1
  Si  Si11  1  0.35898500  0.72201200  0.96972600  1
  Si  Si12  1  0.42028500  0.79978700  0.47138500  1
  Si  Si13  1  0.57971500  0.20021300  0.97138500  1
  Si  Si14  1  0.07971500  0.29978700  0.97138500  1
  Si  Si15  1  0.92028500  0.70021300  0.47138500  1
  Si  Si16  1  0.06012900  0.96927800  0.45962900  1
  Si  Si17  1  0.93987100  0.03072200  0.95962900  1
  Si  Si18  1  0.43987100  0.46927800  0.95962900  1
  Si  Si19  1  0.56012900  0.53072200  0.45962900  1
  Si  Si20  1  0.50981500  0.04284600  0.46821800  1
  Si  Si21  1  0.49018500  0.95715500  0.96821800  1
  Si  Si22  1  0.99018500  0.54284500  0.96821800  1
  Si  Si23  1  0.00981500  0.45715500  0.46821800  1
  Si  Si24  1  0.69781300  0.13948800  0.45641400  1
  Si  Si25  1  0.30218700  0.86051200  0.95641400  1
  Si  Si26  1  0.80218700  0.63948800  0.95641400  1
  Si  Si27  1  0.19781300  0.36051200  0.45641400  1
  Si  Si28  1  0.66899400  0.06283100  0.95437000  1
  Si  Si29  1  0.33100600  0.93716900  0.45437000  1
  Si  Si30  1  0.83100600  0.56283100  0.45437000  1
  Si  Si31  1  0.16899400  0.43716900  0.95437000  1
  Si  Si32  1  0.96593800  0.10991600  0.45931900  1
  Si  Si33  1  0.03406200  0.89008400  0.95931900  1
  Si  Si34  1  0.53406200  0.60991600  0.95931900  1
  Si  Si35  1  0.46593800  0.39008400  0.45931900  1
  Si  Si36  1  0.89689700  0.85015000  0.47081500  1
  Si  Si37  1  0.10310300  0.14985000  0.97081500  1
  Si  Si38  1  0.60310300  0.35015000  0.97081500  1
  Si  Si39  1  0.39689700  0.64985000  0.47081500  1
  N  N0  1  0.75234600  0.87622500  0.47005400  1
  N  N1  1  0.24765400  0.12377500  0.97005400  1
  N  N2  1  0.74765400  0.37622500  0.97005400  1
  N  N3  1  0.25234600  0.62377500  0.47005400  1
  N  N4  1  0.71569400  0.80096500  0.97363400  1
  N  N5  1  0.28430600  0.19903500  0.47363400  1
  N  N6  1  0.78430600  0.30096500  0.47363400  1
  N  N7  1  0.21569400  0.69903500  0.97363400  1
  N  N8  1  0.98430700  0.03380100  0.30644700  1
  N  N9  1  0.01569300  0.96619900  0.80644700  1
  N  N10  1  0.51569300  0.53380100  0.80644700  1
  N  N11  1  0.48430700  0.46619900  0.30644700  1
  N  N12  1  0.40537700  0.10231000  0.47648400  1
  N  N13  1  0.59462300  0.89769000  0.97648400  1
  N  N14  1  0.09462300  0.60231000  0.97648400  1
  N  N15  1  0.90537700  0.39769000  0.47648400  1
  N  N16  1  0.93377000  0.83785200  0.80542000  1
  N  N17  1  0.06623000  0.16214800  0.30542000  1
  N  N18  1  0.56623000  0.33785200  0.30542000  1
  N  N19  1  0.43377000  0.66214800  0.80542000  1
  N  N20  1  0.37238300  0.79404800  0.80486400  1
  N  N21  1  0.62761700  0.20595200  0.30486400  1
  N  N22  1  0.12761700  0.29404800  0.30486400  1
  N  N23  1  0.87238300  0.70595200  0.80486400  1
  N  N24  1  0.34181100  0.85895600  0.30485300  1
  N  N25  1  0.65818900  0.14104400  0.80485300  1
  N  N26  1  0.15818900  0.35895600  0.80485300  1
  N  N27  1  0.84181100  0.64104400  0.30485300  1
  N  N28  1  0.06625400  0.68188400  0.47458600  1
  N  N29  1  0.93374600  0.31811600  0.97458600  1
  N  N30  1  0.43374600  0.18188400  0.97458600  1
  N  N31  1  0.56625400  0.81811600  0.47458600  1
  N  N32  1  0.55037300  0.02204300  0.79956100  1
  N  N33  1  0.44962700  0.97795700  0.29956100  1
  N  N34  1  0.94962700  0.52204300  0.29956100  1
  N  N35  1  0.05037300  0.47795700  0.79956100  1
  N  N36  1  0.36916100  0.92812500  0.80192600  1
  N  N37  1  0.63083900  0.07187500  0.30192600  1
  N  N38  1  0.13083900  0.42812500  0.30192600  1
  N  N39  1  0.86916100  0.57187500  0.80192600  1
  N  N40  1  0.99374700  0.89968200  0.30680700  1
  N  N41  1  0.00625300  0.10031800  0.80680700  1
  N  N42  1  0.50625300  0.39968200  0.80680700  1
  N  N43  1  0.49374700  0.60031800  0.30680700  1
  N  N44  1  0.83769900  0.14215800  0.40738200  1
  N  N45  1  0.16230100  0.85784200  0.90738200  1
  N  N46  1  0.66230100  0.64215800  0.90738200  1
  N  N47  1  0.33769900  0.35784200  0.40738200  1
  N  N48  1  0.79709300  0.02804600  0.91019100  1
  N  N49  1  0.20290700  0.97195400  0.41019100  1
  N  N50  1  0.70290700  0.52804600  0.41019100  1
  N  N51  1  0.29709300  0.47195400  0.91019100  1
  N  N52  1  0.90128200  0.77427900  0.30849100  1
  N  N53  1  0.09871800  0.22572100  0.80849100  1
  N  N54  1  0.59871800  0.27427900  0.80849100  1
  N  N55  1  0.40128200  0.72572100  0.30849100  1
loop_
_geom_bond_atom_site_label_1
_geom_bond_atom_site_label_2
_geom_bond_distance
_geom_bond_site_symmetry_2
N0 Si7 1.759696 1_555
N0 Si36 1.772109 1_555
N0 Si0 1.775098 1_555
N0 Na0 2.463169 1_555
N1 Si6 1.759696 1_555
N1 Si37 1.772109 1_555
N1 Si1 1.775098 1_556
N1 Na1 2.463169 1_555
N2 Si5 1.759696 1_555
N2 Si38 1.772109 1_555
N2 Si2 1.775098 1_556
N2 Na2 2.463169 1_555
N3 Si4 1.759696 1_555
N3 Si39 1.772109 1_555
N3 Si3 1.775098 1_555
N3 Na3 2.463169 1_555
N4 Si7 1.733056 1_556
N4 Si0 1.737945 1_555
N4 Si8 1.739235 1_555
N5 Si6 1.733056 1_555
N5 Si1 1.737945 1_555
N5 Si9 1.739235 1_555
N6 Si5 1.733056 1_555
N6 Si2 1.737945 1_555
N6 Si10 1.739235 1_555
N7 Si4 1.733056 1_556
N7 Si3 1.737945 1_555
N7 Si11 1.739235 1_555
N8 Si32 1.772479 1_555
N8 Si16 1.779764 1_645
N8 Si17 1.780493 1_554
N8 Na0 2.569511 1_545
N9 Si33 1.772479 1_555
N9 Si17 1.779764 1_465
N9 Si16 1.780493 1_555
N9 Na1 2.569511 1_565
N10 Si34 1.772479 1_555
N10 Si18 1.779764 1_555
N10 Si19 1.780493 1_555
N10 Na2 2.569511 1_555
N11 Si35 1.772479 1_555
N11 Si19 1.779764 1_555
N11 Si18 1.780493 1_554
N11 Na3 2.569511 1_555
N12 Si6 1.723921 1_555
N12 Si1 1.739662 1_555
N12 Si20 1.741162 1_555
N13 Si7 1.723921 1_556
N13 Si0 1.739662 1_555
N13 Si21 1.741177 1_555
N14 Si4 1.723921 1_556
N14 Si3 1.739662 1_555
N14 Si22 1.741177 1_455
N15 Si5 1.723921 1_555
N15 Si2 1.739662 1_555
N15 Si23 1.741177 1_655
N16 Si36 1.716972 1_555
N16 Si8 1.725695 1_555
N16 Si33 1.769708 1_655
N17 Si37 1.716972 1_554
N17 Si9 1.725695 1_555
N17 Si32 1.769708 1_455
N18 Si38 1.716972 1_554
N18 Si10 1.725695 1_555
N18 Si35 1.769708 1_555
N19 Si39 1.716972 1_555
N19 Si11 1.725695 1_555
N19 Si34 1.769708 1_555
N20 Si11 1.716905 1_555
N20 Si12 1.733601 1_555
N20 Si25 1.776220 1_555
N21 Si10 1.716905 1_555
N21 Si13 1.733601 1_554
N21 Si24 1.776220 1_555
N22 Si9 1.716905 1_555
N22 Si14 1.733601 1_554
N22 Si27 1.776220 1_555
N23 Si8 1.716905 1_555
N23 Si15 1.733601 1_555
N23 Si26 1.776220 1_555
N24 Si12 1.742562 1_555
N24 Si25 1.771772 1_554
N24 Si29 1.796878 1_555
N24 Na4 2.590328 1_555
N25 Si13 1.742562 1_555
N25 Si24 1.771772 1_555
N25 Si28 1.796878 1_555
N25 Na5 2.590328 1_555
N26 Si14 1.742562 1_555
N26 Si27 1.771772 1_555
N26 Si31 1.796878 1_555
N26 Na6 2.590328 1_555
N27 Si15 1.742562 1_555
N27 Si26 1.771772 1_554
N27 Si30 1.796878 1_555
N27 Na7 2.590328 1_555
N28 Si4 1.740777 1_555
N28 Si3 1.742843 1_555
N28 Si15 1.745360 1_455
N28 Na4 2.855508 1_555
N29 Si5 1.740777 1_555
N29 Si2 1.742843 1_556
N29 Si14 1.745360 1_655
N29 Na5 2.855508 1_555
N30 Si6 1.740777 1_555
N30 Si1 1.742843 1_556
N30 Si13 1.745360 1_555
N30 Na6 2.855508 1_555
N31 Si7 1.740777 1_555
N31 Si0 1.742843 1_555
N31 Si12 1.745360 1_555
N31 Na7 2.855508 1_555
N32 Si21 1.737484 1_545
N32 Si20 1.748591 1_555
N32 Si28 1.794212 1_555
N33 Si20 1.737500 1_565
N33 Si21 1.748586 1_554
N33 Si29 1.794212 1_555
N34 Si23 1.737484 1_655
N34 Si22 1.748586 1_554
N34 Si30 1.794212 1_555
N35 Si22 1.737484 1_455
N35 Si23 1.748586 1_555
N35 Si31 1.794212 1_555
N36 Si21 1.739964 1_555
N36 Si29 1.773000 1_555
N36 Si25 1.784329 1_555
N36 Na1 2.529485 1_565
N37 Si20 1.739957 1_555
N37 Si28 1.773000 1_554
N37 Si24 1.784329 1_555
N37 Na0 2.529485 1_545
N38 Si23 1.739964 1_555
N38 Si31 1.773000 1_554
N38 Si27 1.784329 1_555
N38 Na3 2.529485 1_555
N39 Si22 1.739964 1_555
N39 Si30 1.773000 1_555
N39 Si26 1.784329 1_555
N39 Na2 2.529485 1_555
N40 Si36 1.731134 1_555
N40 Si33 1.780440 1_654
N40 Si16 1.810996 1_655
N40 Na4 2.658303 1_655
N41 Si37 1.731134 1_555
N41 Si32 1.780440 1_455
N41 Si17 1.810996 1_455
N41 Na5 2.658303 1_455
N42 Si38 1.731134 1_555
N42 Si35 1.780440 1_555
N42 Si18 1.810996 1_555
N42 Na6 2.658303 1_555
N43 Si39 1.731134 1_555
N43 Si34 1.780440 1_554
N43 Si19 1.810996 1_555
N43 Na7 2.658303 1_555
N44 Si24 1.650330 1_555
N44 Si32 1.660451 1_555
N44 Na5 2.477763 1_554
N44 Na5 2.824855 1_555
N45 Si25 1.650330 1_555
N45 Si33 1.660451 1_555
N45 Na4 2.477763 1_555
N45 Na4 2.824855 1_556
N46 Si26 1.650330 1_555
N46 Si34 1.660451 1_555
N46 Na7 2.477763 1_555
N46 Na7 2.824855 1_556
N47 Si27 1.650330 1_555
N47 Si35 1.660451 1_555
N47 Na6 2.477763 1_554
N47 Na6 2.824855 1_555
N48 Si28 1.675939 1_555
N48 Si17 1.683982 1_555
N48 Na0 2.446254 1_545
N48 Na0 2.692255 1_546
N49 Si29 1.675939 1_555
N49 Si16 1.683982 1_555
N49 Na1 2.446254 1_564
N49 Na1 2.692255 1_565
N50 Si30 1.675939 1_555
N50 Si19 1.683982 1_555
N50 Na2 2.446254 1_554
N50 Na2 2.692255 1_555
N51 Si31 1.675939 1_555
N51 Si18 1.683982 1_555
N51 Na3 2.446254 1_555
N51 Na3 2.692255 1_556
N52 Si8 1.736028 1_554
N52 Si15 1.756873 1_555
N52 Si36 1.775932 1_555
N53 Si9 1.736028 1_555
N53 Si14 1.756873 1_555
N53 Si37 1.775932 1_555
N54 Si10 1.736028 1_555
N54 Si13 1.756873 1_555
N54 Si38 1.775932 1_555
N55 Si11 1.736028 1_554
N55 Si12 1.756873 1_555
N55 Si39 1.775932 1_555
