# generated using pymatgen
data_Rb12Ca(ClO)4
_symmetry_space_group_name_H-M   'P 1'
_cell_length_a   7.92997295
_cell_length_b   7.84427518
_cell_length_c   13.01197564
_cell_angle_alpha   77.86787787
_cell_angle_beta   84.36126765
_cell_angle_gamma   88.35299482
_symmetry_Int_Tables_number   1
_chemical_formula_structural   Rb12Ca(ClO)4
_chemical_formula_sum   'Rb12 Ca1 Cl4 O4'
_cell_volume   787.47450830
_cell_formula_units_Z   1
loop_
 _symmetry_equiv_pos_site_id
 _symmetry_equiv_pos_as_xyz
  1  'x, y, z'
loop_
 _atom_site_type_symbol
 _atom_site_label
 _atom_site_symmetry_multiplicity
 _atom_site_fract_x
 _atom_site_fract_y
 _atom_site_fract_z
 _atom_site_occupancy
  Rb  Rb0  1  0.95714300  0.37729300  0.17315800  1
  Rb  Rb1  1  0.24743400  0.30001500  0.59875900  1
  Rb  Rb2  1  0.17217000  0.19946900  0.92238300  1
  Rb  Rb3  1  0.21976300  0.69778200  0.91145000  1
  Rb  Rb4  1  0.30390500  0.76664700  0.53346800  1
  Rb  Rb5  1  0.35353200  0.86145600  0.16947100  1
  Rb  Rb6  1  0.55933300  0.00783400  0.74013800  1
  Rb  Rb7  1  0.65248100  0.23957200  0.97879400  1
  Rb  Rb8  1  0.83415700  0.29743300  0.51299900  1
  Rb  Rb9  1  0.73173100  0.74306500  0.99753000  1
  Rb  Rb10  1  0.84006800  0.80220500  0.43448900  1
  Rb  Rb11  1  0.88144500  0.57426600  0.74491800  1
  Ca  Ca0  1  0.47652400  0.20653100  0.36679900  1
  Cl  Cl0  1  0.14605300  0.10835400  0.36556300  1
  Cl  Cl1  1  0.55057400  0.54895400  0.36218900  1
  Cl  Cl2  1  0.46715400  0.48231800  0.75580500  1
  Cl  Cl3  1  0.97401600  0.00269100  0.75575900  1
  O  O0  1  0.94060500  0.46061100  0.96616800  1
  O  O1  1  0.02203900  0.55568500  0.55416400  1
  O  O2  1  0.44044200  0.94415300  0.95755300  1
  O  O3  1  0.52943300  0.08200000  0.51392000  1
loop_
_geom_bond_atom_site_label_1
_geom_bond_atom_site_label_2
_geom_bond_distance
_geom_bond_site_symmetry_2
Ca0 O3 2.035486 1_555
Ca0 Cl1 2.753064 1_555
Ca0 Cl0 2.755093 1_555
Cl0 Rb0 3.361230 1_455
Cl0 Rb4 3.377564 1_545
Cl0 Rb10 3.385456 1_445
Cl0 Rb8 3.471353 1_455
Cl0 Rb5 3.746646 1_545
Cl0 Rb1 3.818415 1_555
Cl1 Rb10 3.402024 1_555
Cl1 Rb8 3.432981 1_555
Cl1 Rb4 3.501471 1_555
Cl1 Rb5 3.564392 1_555
Cl2 Rb3 3.357734 1_555
Cl2 Rb1 3.365694 1_555
Cl2 Rb11 3.366809 1_555
Cl2 Rb2 3.517583 1_555
Cl2 Rb7 3.543911 1_555
Cl2 Rb4 3.588575 1_555
Cl2 Rb6 3.816058 1_555
Cl3 Rb6 3.313149 1_555
Cl3 Rb1 3.425138 1_655
Cl3 Rb2 3.430469 1_655
Cl3 Rb3 3.477586 1_645
Cl3 Rb11 3.494911 1_545
Cl3 Rb8 3.744965 1_555
Cl3 Rb9 3.752335 1_545
O0 Rb0 2.650105 1_556
O0 Rb9 2.802754 1_555
O0 Rb2 2.821626 1_655
O0 Rb3 2.870352 1_655
O0 Rb7 2.878885 1_555
O0 Rb11 2.909555 1_555
O1 Rb11 2.650271 1_455
O1 Rb1 2.657486 1_555
O1 Rb10 2.694832 1_455
O1 Rb8 2.719742 1_455
O1 Rb4 2.777431 1_555
O2 Rb5 2.720260 1_556
O2 Rb9 2.788589 1_555
O2 Rb3 2.836418 1_555
O2 Rb6 2.837354 1_565
O2 Rb2 2.882264 1_565
O2 Rb7 2.976296 1_565
O3 Rb6 2.910075 1_555
O3 Rb8 2.985924 1_555
O3 Rb1 3.038537 1_555
O3 Rb4 3.046784 1_545
O3 Rb10 3.477889 1_545
