# generated using pymatgen
data_Cs2TaCuF6
_symmetry_space_group_name_H-M   'P 1'
_cell_length_a   7.30749906
_cell_length_b   7.30749922
_cell_length_c   7.30749922
_cell_angle_alpha   59.99999941
_cell_angle_beta   59.99999919
_cell_angle_gamma   59.99999920
_symmetry_Int_Tables_number   1
_chemical_formula_structural   Cs2TaCuF6
_chemical_formula_sum   'Cs2 Ta1 Cu1 F6'
_cell_volume   275.92516975
_cell_formula_units_Z   1
loop_
 _symmetry_equiv_pos_site_id
 _symmetry_equiv_pos_as_xyz
  1  'x, y, z'
loop_
 _atom_site_type_symbol
 _atom_site_label
 _atom_site_symmetry_multiplicity
 _atom_site_fract_x
 _atom_site_fract_y
 _atom_site_fract_z
 _atom_site_occupancy
  Cs  Cs0  1  0.25000000  0.25000000  0.25000000  1
  Cs  Cs1  1  0.75000000  0.75000000  0.75000000  1
  Ta  Ta0  1  0.50000000  0.50000000  0.50000000  1
  Cu  Cu0  1  0.00000000  0.00000000  0.00000000  1
  F  F0  1  0.31327862  0.68672138  0.31327862  1
  F  F1  1  0.68672138  0.68672138  0.31327862  1
  F  F2  1  0.68672138  0.31327862  0.68672138  1
  F  F3  1  0.68672138  0.31327862  0.31327862  1
  F  F4  1  0.31327862  0.68672138  0.68672138  1
  F  F5  1  0.31327862  0.31327862  0.68672138  1
loop_
_geom_bond_atom_site_label_1
_geom_bond_atom_site_label_2
_geom_bond_distance
_geom_bond_site_symmetry_2
Cs0 F2 3.711809 1_455
Cs0 F3 3.711809 1_455
Cs0 F1 3.711809 1_455
Cs0 F2 3.711809 1_554
Cs0 F1 3.711809 1_545
Cs0 F3 3.711809 1_555
Cs0 F4 3.711809 1_554
Cs0 F4 3.711809 1_545
Cs0 F5 3.711809 1_554
Cs0 F0 3.711809 1_545
Cs0 F5 3.711809 1_555
Cs0 F0 3.711809 1_555
Cs1 F0 3.711809 1_655
Cs1 F4 3.711809 1_655
Cs1 F5 3.711809 1_655
Cs1 F0 3.711809 1_556
Cs1 F5 3.711809 1_565
Cs1 F4 3.711809 1_555
Cs1 F3 3.711809 1_556
Cs1 F3 3.711809 1_565
Cs1 F1 3.711809 1_556
Cs1 F2 3.711809 1_565
Cs1 F1 3.711809 1_555
Cs1 F2 3.711809 1_555
F0 Ta0 1.929647 1_555
F1 Ta0 1.929647 1_555
F2 Ta0 1.929647 1_555
F3 Ta0 1.929647 1_555
F4 Ta0 1.929647 1_555
F5 Ta0 1.929647 1_555
