# generated using pymatgen
data_AlP2H18(C2Cl)3
_symmetry_space_group_name_H-M   'P 1'
_cell_length_a   10.48316400
_cell_length_b   11.22512100
_cell_length_c   14.33120600
_cell_angle_alpha   90.00000000
_cell_angle_beta   90.00000000
_cell_angle_gamma   90.00000000
_symmetry_Int_Tables_number   1
_chemical_formula_structural   AlP2H18(C2Cl)3
_chemical_formula_sum   'Al4 P8 H72 C24 Cl12'
_cell_volume   1686.42157571
_cell_formula_units_Z   4
loop_
 _symmetry_equiv_pos_site_id
 _symmetry_equiv_pos_as_xyz
  1  'x, y, z'
loop_
 _atom_site_type_symbol
 _atom_site_label
 _atom_site_symmetry_multiplicity
 _atom_site_fract_x
 _atom_site_fract_y
 _atom_site_fract_z
 _atom_site_occupancy
  Al  Al0  1  0.21544000  0.25000000  0.97858900  1
  Al  Al1  1  0.71544000  0.25000000  0.52141100  1
  Al  Al2  1  0.78456000  0.75000000  0.02141100  1
  Al  Al3  1  0.28456000  0.75000000  0.47858900  1
  P  P0  1  0.02191400  0.25000000  0.87228600  1
  P  P1  1  0.52191400  0.25000000  0.62771400  1
  P  P2  1  0.97808600  0.75000000  0.12771400  1
  P  P3  1  0.47808600  0.75000000  0.37228600  1
  P  P4  1  0.40299600  0.25000000  0.09108200  1
  P  P5  1  0.90299600  0.25000000  0.40891800  1
  P  P6  1  0.59700400  0.75000000  0.90891800  1
  P  P7  1  0.09700400  0.75000000  0.59108200  1
  H  H0  1  0.84095000  0.37707600  0.83179500  1
  H  H1  1  0.34095000  0.12292400  0.66820500  1
  H  H2  1  0.15905000  0.87707600  0.16820500  1
  H  H3  1  0.65905000  0.62292400  0.33179500  1
  H  H4  1  0.15905000  0.62292400  0.16820500  1
  H  H5  1  0.65905000  0.87707600  0.33179500  1
  H  H6  1  0.84095000  0.12292400  0.83179500  1
  H  H7  1  0.34095000  0.37707600  0.66820500  1
  H  H8  1  0.87248800  0.37816300  0.95480900  1
  H  H9  1  0.37248800  0.12183700  0.54519100  1
  H  H10  1  0.12751200  0.87816300  0.04519100  1
  H  H11  1  0.62751200  0.62183700  0.45480900  1
  H  H12  1  0.12751200  0.62183700  0.04519100  1
  H  H13  1  0.62751200  0.87816300  0.45480900  1
  H  H14  1  0.87248800  0.12183700  0.95480900  1
  H  H15  1  0.37248800  0.37816300  0.54519100  1
  H  H16  1  0.97132400  0.46108700  0.87774600  1
  H  H17  1  0.47132400  0.03891300  0.62225400  1
  H  H18  1  0.02867600  0.96108700  0.12225400  1
  H  H19  1  0.52867600  0.53891300  0.37774600  1
  H  H20  1  0.02867600  0.53891300  0.12225400  1
  H  H21  1  0.52867600  0.96108700  0.37774600  1
  H  H22  1  0.97132400  0.03891300  0.87774600  1
  H  H23  1  0.47132400  0.46108700  0.62225400  1
  H  H24  1  0.11457400  0.17046500  0.73036500  1
  H  H25  1  0.61457400  0.32953500  0.76963500  1
  H  H26  1  0.88542600  0.67046500  0.26963500  1
  H  H27  1  0.38542600  0.82953500  0.23036500  1
  H  H28  1  0.88542600  0.82953500  0.26963500  1
  H  H29  1  0.38542600  0.67046500  0.23036500  1
  H  H30  1  0.11457400  0.32953500  0.73036500  1
  H  H31  1  0.61457400  0.17046500  0.76963500  1
  H  H32  1  0.97022500  0.25000000  0.70591700  1
  H  H33  1  0.47022500  0.25000000  0.79408300  1
  H  H34  1  0.02977500  0.75000000  0.29408300  1
  H  H35  1  0.52977500  0.75000000  0.20591700  1
  H  H36  1  0.31945300  0.11833800  0.21095900  1
  H  H37  1  0.81945300  0.38166200  0.28904100  1
  H  H38  1  0.68054700  0.61833800  0.78904100  1
  H  H39  1  0.18054700  0.88166200  0.71095900  1
  H  H40  1  0.68054700  0.88166200  0.78904100  1
  H  H41  1  0.18054700  0.61833800  0.71095900  1
  H  H42  1  0.31945300  0.38166200  0.21095900  1
  H  H43  1  0.81945300  0.11833800  0.28904100  1
  H  H44  1  0.41526000  0.03995100  0.12816200  1
  H  H45  1  0.91526000  0.46004900  0.37183800  1
  H  H46  1  0.58474000  0.53995100  0.87183800  1
  H  H47  1  0.08474000  0.96004900  0.62816200  1
  H  H48  1  0.58474000  0.96004900  0.87183800  1
  H  H49  1  0.08474000  0.53995100  0.62816200  1
  H  H50  1  0.41526000  0.46004900  0.12816200  1
  H  H51  1  0.91526000  0.03995100  0.37183800  1
  H  H52  1  0.48994000  0.12735400  0.21703200  1
  H  H53  1  0.98994000  0.37264600  0.28296800  1
  H  H54  1  0.51006000  0.62735400  0.78296800  1
  H  H55  1  0.01006000  0.87264600  0.71703200  1
  H  H56  1  0.51006000  0.87264600  0.78296800  1
  H  H57  1  0.01006000  0.62735400  0.71703200  1
  H  H58  1  0.48994000  0.37264600  0.21703200  1
  H  H59  1  0.98994000  0.12735400  0.28296800  1
  H  H60  1  0.57433300  0.17033100  0.99578500  1
  H  H61  1  0.07433300  0.32966900  0.50421500  1
  H  H62  1  0.42566700  0.67033100  0.00421500  1
  H  H63  1  0.92566700  0.82966900  0.49578500  1
  H  H64  1  0.42566700  0.82966900  0.00421500  1
  H  H65  1  0.92566700  0.67033100  0.49578500  1
  H  H66  1  0.57433300  0.32966900  0.99578500  1
  H  H67  1  0.07433300  0.17033100  0.50421500  1
  H  H68  1  0.63594500  0.25000000  0.09392900  1
  H  H69  1  0.13594500  0.25000000  0.40607100  1
  H  H70  1  0.36405500  0.75000000  0.90607100  1
  H  H71  1  0.86405500  0.75000000  0.59392900  1
  C  C0  1  0.91622400  0.37854200  0.88520600  1
  C  C1  1  0.41622400  0.12145800  0.61479400  1
  C  C2  1  0.08377600  0.87854200  0.11479400  1
  C  C3  1  0.58377600  0.62145800  0.38520600  1
  C  C4  1  0.08377600  0.62145800  0.11479400  1
  C  C5  1  0.58377600  0.87854200  0.38520600  1
  C  C6  1  0.91622400  0.12145800  0.88520600  1
  C  C7  1  0.41622400  0.37854200  0.61479400  1
  C  C8  1  0.05829100  0.25000000  0.74744200  1
  C  C9  1  0.55829100  0.25000000  0.75255800  1
  C  C10  1  0.94170900  0.75000000  0.25255800  1
  C  C11  1  0.44170900  0.75000000  0.24744200  1
  C  C12  1  0.40776000  0.12167400  0.16968000  1
  C  C13  1  0.90776000  0.37832600  0.33032000  1
  C  C14  1  0.59224000  0.62167400  0.83032000  1
  C  C15  1  0.09224000  0.87832600  0.66968000  1
  C  C16  1  0.59224000  0.87832600  0.83032000  1
  C  C17  1  0.09224000  0.62167400  0.66968000  1
  C  C18  1  0.40776000  0.37832600  0.16968000  1
  C  C19  1  0.90776000  0.12167400  0.33032000  1
  C  C20  1  0.56240700  0.25000000  0.03922000  1
  C  C21  1  0.06240700  0.25000000  0.46078000  1
  C  C22  1  0.43759300  0.75000000  0.96078000  1
  C  C23  1  0.93759300  0.75000000  0.53922000  1
  Cl  Cl0  1  0.28122100  0.08179700  0.91590900  1
  Cl  Cl1  1  0.78122100  0.41820300  0.58409100  1
  Cl  Cl2  1  0.71877900  0.58179700  0.08409100  1
  Cl  Cl3  1  0.21877900  0.91820300  0.41590900  1
  Cl  Cl4  1  0.71877900  0.91820300  0.08409100  1
  Cl  Cl5  1  0.21877900  0.58179700  0.41590900  1
  Cl  Cl6  1  0.28122100  0.41820300  0.91590900  1
  Cl  Cl7  1  0.78122100  0.08179700  0.58409100  1
  Cl  Cl8  1  0.08752000  0.25000000  0.10042200  1
  Cl  Cl9  1  0.58751900  0.25000000  0.39957800  1
  Cl  Cl10  1  0.91248100  0.75000000  0.89957800  1
  Cl  Cl11  1  0.41248100  0.75000000  0.60042200  1
loop_
_geom_bond_atom_site_label_1
_geom_bond_atom_site_label_2
_geom_bond_distance
_geom_bond_site_symmetry_2
Al0 Cl8 2.201559 1_556
Al0 Cl0 2.201673 1_555
Al0 Cl6 2.201673 1_555
Al0 P0 2.537082 1_555
Al0 P4 2.542622 1_556
Al1 Cl9 2.201565 1_555
Al1 Cl1 2.201673 1_555
Al1 Cl7 2.201673 1_555
Al1 P1 2.537082 1_555
Al1 P5 2.542622 1_555
Al2 Cl10 2.201565 1_554
Al2 Cl4 2.201673 1_555
Al2 Cl2 2.201673 1_555
Al2 P2 2.537082 1_555
Al2 P6 2.542622 1_554
Al3 Cl11 2.201565 1_555
Al3 Cl5 2.201673 1_555
Al3 Cl3 2.201673 1_555
Al3 P3 2.537082 1_555
Al3 P7 2.542622 1_555
C0 H16 1.097098 1_555
C0 H8 1.097829 1_555
C0 H0 1.099486 1_555
C0 P0 1.828614 1_655
C1 H17 1.097098 1_555
C1 H9 1.097829 1_555
C1 H1 1.099486 1_555
C1 P1 1.828614 1_555
C2 H18 1.097098 1_555
C2 H10 1.097829 1_555
C2 H2 1.099486 1_555
C2 P2 1.828614 1_455
C3 H19 1.097098 1_555
C3 H11 1.097829 1_555
C3 H3 1.099486 1_555
C3 P3 1.828614 1_555
C4 H20 1.097098 1_555
C4 H12 1.097829 1_555
C4 H4 1.099486 1_555
C4 P2 1.828614 1_455
C5 H21 1.097098 1_555
C5 H13 1.097829 1_555
C5 H5 1.099486 1_555
C5 P3 1.828614 1_555
C6 H22 1.097098 1_555
C6 H14 1.097829 1_555
C6 H6 1.099486 1_555
C6 P0 1.828614 1_655
C7 H23 1.097098 1_555
C7 H15 1.097829 1_555
C7 H7 1.099486 1_555
C7 P1 1.828614 1_555
C8 H30 1.097769 1_555
C8 H24 1.097769 1_555
C8 H32 1.098392 1_455
C8 P0 1.829354 1_555
C9 H25 1.097769 1_555
C9 H31 1.097769 1_555
C9 H33 1.098392 1_555
C9 P1 1.829354 1_555
C10 H28 1.097769 1_555
C10 H26 1.097769 1_555
C10 H34 1.098392 1_655
C10 P2 1.829354 1_555
C11 H27 1.097769 1_555
C11 H29 1.097769 1_555
C11 H35 1.098392 1_555
C11 P3 1.829354 1_555
C12 H44 1.096240 1_555
C12 H52 1.098532 1_555
C12 H36 1.099252 1_555
C12 P4 1.829275 1_555
C13 H45 1.096240 1_555
C13 H53 1.098532 1_555
C13 H37 1.099252 1_555
C13 P5 1.829275 1_555
C14 H46 1.096240 1_555
C14 H54 1.098532 1_555
C14 H38 1.099252 1_555
C14 P6 1.829275 1_555
C15 H47 1.096240 1_555
C15 H55 1.098532 1_555
C15 H39 1.099252 1_555
C15 P7 1.829275 1_555
C16 H48 1.096240 1_555
C16 H56 1.098532 1_555
C16 H40 1.099252 1_555
C16 P6 1.829275 1_555
C17 H49 1.096240 1_555
C17 H57 1.098532 1_555
C17 H41 1.099252 1_555
C17 P7 1.829275 1_555
C18 H50 1.096240 1_555
C18 H58 1.098532 1_555
C18 H42 1.099252 1_555
C18 P4 1.829275 1_555
C19 H51 1.096240 1_555
C19 H59 1.098532 1_555
C19 H43 1.099252 1_555
C19 P5 1.829275 1_555
C20 H66 1.096754 1_554
C20 H60 1.096754 1_554
C20 H68 1.099560 1_555
C20 P4 1.828960 1_555
C21 H61 1.096754 1_555
C21 H67 1.096754 1_555
C21 H69 1.099560 1_555
C21 P5 1.828960 1_455
C22 H64 1.096754 1_556
C22 H62 1.096754 1_556
C22 H70 1.099560 1_555
C22 P6 1.828960 1_555
C23 H65 1.096754 1_555
C23 H63 1.096754 1_555
C23 H71 1.099560 1_555
C23 P7 1.828960 1_655
