# generated using pymatgen
data_K2CeI5
_symmetry_space_group_name_H-M   'P 1'
_cell_length_a   9.20501671
_cell_length_b   9.92863259
_cell_length_c   14.45816005
_cell_angle_alpha   90.00000000
_cell_angle_beta   90.00000000
_cell_angle_gamma   90.00000000
_symmetry_Int_Tables_number   1
_chemical_formula_structural   K2CeI5
_chemical_formula_sum   'K8 Ce4 I20'
_cell_volume   1321.37793090
_cell_formula_units_Z   4
loop_
 _symmetry_equiv_pos_site_id
 _symmetry_equiv_pos_as_xyz
  1  'x, y, z'
loop_
 _atom_site_type_symbol
 _atom_site_label
 _atom_site_symmetry_multiplicity
 _atom_site_fract_x
 _atom_site_fract_y
 _atom_site_fract_z
 _atom_site_occupancy
  K  K0  1  0.94574620  0.00301582  0.82674846  1
  K  K1  1  0.05425380  0.99698418  0.17325154  1
  K  K2  1  0.44574620  0.99698418  0.67325154  1
  K  K3  1  0.05425380  0.50301582  0.17325154  1
  K  K4  1  0.55425380  0.00301582  0.32674846  1
  K  K5  1  0.94574620  0.49698418  0.82674846  1
  K  K6  1  0.55425380  0.49698418  0.32674846  1
  K  K7  1  0.44574620  0.50301582  0.67325154  1
  Ce  Ce0  1  0.91921347  0.75000000  0.50612572  1
  Ce  Ce1  1  0.08078653  0.25000000  0.49387428  1
  Ce  Ce2  1  0.41921347  0.25000000  0.99387428  1
  Ce  Ce3  1  0.58078653  0.75000000  0.00612572  1
  I  I0  1  0.12971346  0.75000000  0.68304298  1
  I  I1  1  0.87028654  0.25000000  0.31695702  1
  I  I2  1  0.62971346  0.25000000  0.81695702  1
  I  I3  1  0.37028654  0.75000000  0.18304298  1
  I  I4  1  0.83112557  0.04605055  0.57812808  1
  I  I5  1  0.16887443  0.95394945  0.42187192  1
  I  I6  1  0.33112557  0.95394945  0.92187192  1
  I  I7  1  0.16887443  0.54605055  0.42187192  1
  I  I8  1  0.66887443  0.04605055  0.07812808  1
  I  I9  1  0.83112557  0.45394945  0.57812808  1
  I  I10  1  0.66887443  0.45394945  0.07812808  1
  I  I11  1  0.33112557  0.54605055  0.92187192  1
  I  I12  1  0.56447970  0.75000000  0.50723939  1
  I  I13  1  0.43552030  0.25000000  0.49276061  1
  I  I14  1  0.06447970  0.25000000  0.99276061  1
  I  I15  1  0.93552030  0.75000000  0.00723939  1
  I  I16  1  0.66576553  0.75000000  0.79125071  1
  I  I17  1  0.33423447  0.25000000  0.20874929  1
  I  I18  1  0.16576553  0.25000000  0.70874929  1
  I  I19  1  0.83423447  0.75000000  0.29125071  1
loop_
_geom_bond_atom_site_label_1
_geom_bond_atom_site_label_2
_geom_bond_distance
_geom_bond_site_symmetry_2
Ce0 I19 3.203663 1_555
Ce0 I0 3.208949 1_655
Ce0 I4 3.221978 1_565
Ce0 I9 3.221978 1_555
Ce0 I12 3.265370 1_555
Ce0 I7 3.296316 1_655
Ce0 I5 3.296316 1_655
Ce1 I18 3.203663 1_555
Ce1 I1 3.208949 1_455
Ce1 I7 3.221978 1_555
Ce1 I5 3.221978 1_545
Ce1 I13 3.265370 1_555
Ce1 I4 3.296316 1_455
Ce1 I9 3.296316 1_455
Ce2 I17 3.203663 1_556
Ce2 I2 3.208949 1_555
Ce2 I6 3.221978 1_545
Ce2 I11 3.221978 1_555
Ce2 I14 3.265370 1_555
Ce2 I10 3.296316 1_556
Ce2 I8 3.296316 1_556
Ce3 I16 3.203663 1_554
Ce3 I3 3.208949 1_555
Ce3 I8 3.221978 1_565
Ce3 I10 3.221978 1_555
Ce3 I15 3.265370 1_555
Ce3 I6 3.296316 1_554
Ce3 I11 3.296316 1_554
I0 K0 3.673586 1_465
I0 K5 3.673586 1_455
I0 K7 3.807386 1_555
I0 K2 3.807386 1_555
I1 K3 3.673586 1_655
I1 K1 3.673586 1_645
I1 K6 3.807386 1_555
I1 K4 3.807386 1_555
I2 K7 3.673586 1_555
I2 K2 3.673586 1_545
I2 K5 3.807386 1_555
I2 K0 3.807386 1_555
I3 K4 3.673586 1_565
I3 K6 3.673586 1_555
I3 K1 3.807386 1_555
I3 K3 3.807386 1_555
I4 K0 3.770526 1_555
I4 K2 3.835755 1_545
I5 K1 3.770526 1_555
I5 K4 3.835755 1_565
I6 K2 3.770526 1_555
I6 K0 3.835755 1_465
I7 K3 3.770526 1_555
I7 K6 3.835755 1_555
I8 K4 3.770526 1_555
I8 K1 3.835755 1_645
I9 K5 3.770526 1_555
I9 K7 3.835755 1_555
I10 K6 3.770526 1_555
I10 K3 3.835755 1_655
I11 K7 3.770526 1_555
I11 K5 3.835755 1_455
I12 K7 3.601248 1_555
I12 K2 3.601248 1_555
I12 K4 3.623445 1_565
I12 K6 3.623445 1_555
I13 K4 3.601248 1_555
I13 K6 3.601248 1_555
I13 K7 3.623445 1_555
I13 K2 3.623445 1_545
I14 K0 3.601248 1_455
I14 K5 3.601248 1_455
I14 K3 3.623445 1_556
I14 K1 3.623445 1_546
I15 K3 3.601248 1_655
I15 K1 3.601248 1_655
I15 K0 3.623445 1_564
I15 K5 3.623445 1_554
I16 K7 3.609118 1_555
I16 K2 3.609118 1_555
I16 K0 3.635403 1_565
I16 K5 3.635403 1_555
I17 K6 3.609118 1_555
I17 K4 3.609118 1_555
I17 K3 3.635403 1_555
I17 K1 3.635403 1_545
I18 K5 3.609118 1_455
I18 K0 3.609118 1_455
I18 K2 3.635403 1_545
I18 K7 3.635403 1_555
I19 K3 3.609118 1_655
I19 K1 3.609118 1_655
I19 K4 3.635403 1_565
I19 K6 3.635403 1_555
