# generated using pymatgen
data_Li(VS2)2
_symmetry_space_group_name_H-M   'P 1'
_cell_length_a   6.92549641
_cell_length_b   6.92549641
_cell_length_c   6.92549641
_cell_angle_alpha   120.29319942
_cell_angle_beta   119.15155511
_cell_angle_gamma   90.48435272
_symmetry_Int_Tables_number   1
_chemical_formula_structural   Li(VS2)2
_chemical_formula_sum   'Li2 V4 S8'
_cell_volume   235.82301944
_cell_formula_units_Z   2
loop_
 _symmetry_equiv_pos_site_id
 _symmetry_equiv_pos_as_xyz
  1  'x, y, z'
loop_
 _atom_site_type_symbol
 _atom_site_label
 _atom_site_symmetry_multiplicity
 _atom_site_fract_x
 _atom_site_fract_y
 _atom_site_fract_z
 _atom_site_occupancy
  Li  Li0  1  0.50000000  0.00000000  0.50000000  1
  Li  Li1  1  0.00000000  0.00000000  0.00000000  1
  V  V0  1  0.50000000  0.00000000  0.00000000  1
  V  V1  1  0.50000000  0.50000000  0.00000000  1
  V  V2  1  0.50000000  0.50000000  0.50000000  1
  V  V3  1  0.00000000  0.50000000  0.50000000  1
  S  S0  1  0.25409500  0.74589400  0.50820100  1
  S  S1  1  0.25258000  0.74338000  0.99080000  1
  S  S2  1  0.73769300  0.74589400  0.99179900  1
  S  S3  1  0.74742000  0.73822000  0.49080000  1
  S  S4  1  0.26230700  0.25410600  0.00820100  1
  S  S5  1  0.74742000  0.25662000  0.00920000  1
  S  S6  1  0.25258000  0.26178000  0.50920000  1
  S  S7  1  0.74590500  0.25410600  0.49179900  1
loop_
_geom_bond_atom_site_label_1
_geom_bond_atom_site_label_2
_geom_bond_distance
_geom_bond_site_symmetry_2
Li0 S0 2.478873 1_545
Li0 S7 2.478873 1_555
Li0 S3 2.503862 1_545
Li0 S6 2.503862 1_555
Li0 S1 2.503862 1_544
Li0 S5 2.503862 1_556
Li1 S2 2.478873 1_444
Li1 S4 2.478873 1_555
Li1 S3 2.503862 1_444
Li1 S6 2.503862 1_555
Li1 S5 2.503862 1_455
Li1 S1 2.503862 1_544
S0 V3 2.398807 1_555
S0 V0 2.418506 1_566
S0 V2 2.418506 1_555
S1 V0 2.413833 1_566
S1 V1 2.414948 1_556
S1 V3 2.414948 1_555
S2 V1 2.398807 1_556
S2 V2 2.418506 1_555
S2 V0 2.418506 1_566
S3 V2 2.413833 1_555
S3 V1 2.414948 1_555
S3 V3 2.414948 1_655
S4 V1 2.398807 1_555
S4 V0 2.418506 1_555
S4 V2 2.418506 1_555
S5 V0 2.413833 1_555
S5 V1 2.414948 1_555
S5 V3 2.414948 1_655
S6 V2 2.413833 1_555
S6 V1 2.414948 1_556
S6 V3 2.414948 1_555
S7 V3 2.398807 1_655
S7 V0 2.418506 1_555
S7 V2 2.418506 1_555
