# generated using pymatgen
data_Sr2Ca6FeCo7O24
_symmetry_space_group_name_H-M   'P 1'
_cell_length_a   7.61402256
_cell_length_b   7.61402256
_cell_length_c   7.66043100
_cell_angle_alpha   90.00000000
_cell_angle_beta   90.00000000
_cell_angle_gamma   90.06917304
_symmetry_Int_Tables_number   1
_chemical_formula_structural   Sr2Ca6FeCo7O24
_chemical_formula_sum   'Sr2 Ca6 Fe1 Co7 O24'
_cell_volume   444.10044321
_cell_formula_units_Z   1
loop_
 _symmetry_equiv_pos_site_id
 _symmetry_equiv_pos_as_xyz
  1  'x, y, z'
loop_
 _atom_site_type_symbol
 _atom_site_label
 _atom_site_symmetry_multiplicity
 _atom_site_fract_x
 _atom_site_fract_y
 _atom_site_fract_z
 _atom_site_occupancy
  Sr  Sr0  1  0.25283100  0.25283100  0.74943800  1
  Sr  Sr1  1  0.25283100  0.25283100  0.25056200  1
  Ca  Ca0  1  0.74718800  0.25306100  0.74991400  1
  Ca  Ca1  1  0.74648000  0.74648000  0.74954900  1
  Ca  Ca2  1  0.25306100  0.74718800  0.74991400  1
  Ca  Ca3  1  0.74718800  0.25306100  0.25008600  1
  Ca  Ca4  1  0.74648000  0.74648000  0.25045100  1
  Ca  Ca5  1  0.25306100  0.74718800  0.25008600  1
  Fe  Fe0  1  0.99888400  0.99888400  0.00000000  1
  Co  Co0  1  0.50161900  0.99805900  0.00000000  1
  Co  Co1  1  0.99805900  0.50161900  0.00000000  1
  Co  Co2  1  0.50112500  0.50112500  0.00000000  1
  Co  Co3  1  0.99807600  0.99807600  0.50000000  1
  Co  Co4  1  0.50110300  0.99865600  0.50000000  1
  Co  Co5  1  0.99865600  0.50110300  0.50000000  1
  Co  Co6  1  0.50168800  0.50168800  0.50000000  1
  O  O0  1  0.99678200  0.99678200  0.73509000  1
  O  O1  1  0.50393900  0.99607800  0.75511000  1
  O  O2  1  0.99607800  0.50393900  0.75511000  1
  O  O3  1  0.50407400  0.50407400  0.74898800  1
  O  O4  1  0.99678200  0.99678200  0.26491000  1
  O  O5  1  0.50393900  0.99607800  0.24489000  1
  O  O6  1  0.99607800  0.50393900  0.24489000  1
  O  O7  1  0.50407400  0.50407400  0.25101200  1
  O  O8  1  0.99401100  0.25169800  0.00000000  1
  O  O9  1  0.50639500  0.24640900  0.00000000  1
  O  O10  1  0.99812400  0.74798200  0.00000000  1
  O  O11  1  0.50116900  0.75311600  0.00000000  1
  O  O12  1  0.99349900  0.25809900  0.50000000  1
  O  O13  1  0.50520400  0.25638100  0.50000000  1
  O  O14  1  0.99909400  0.74220700  0.50000000  1
  O  O15  1  0.50220400  0.74433100  0.50000000  1
  O  O16  1  0.74798200  0.99812400  0.00000000  1
  O  O17  1  0.25169800  0.99401100  0.00000000  1
  O  O18  1  0.75311600  0.50116900  0.00000000  1
  O  O19  1  0.24640900  0.50639500  0.00000000  1
  O  O20  1  0.74220700  0.99909400  0.50000000  1
  O  O21  1  0.25809900  0.99349900  0.50000000  1
  O  O22  1  0.74433100  0.50220400  0.50000000  1
  O  O23  1  0.25638100  0.50520400  0.50000000  1
loop_
_geom_bond_atom_site_label_1
_geom_bond_atom_site_label_2
_geom_bond_distance
_geom_bond_site_symmetry_2
Ca0 O9 2.652144 1_556
Ca0 O13 2.657173 1_555
Ca0 O3 2.662298 1_555
Ca0 O12 2.680224 1_555
Ca0 O8 2.683681 1_556
Ca0 O2 2.689406 1_555
Ca0 O18 2.690853 1_556
Ca0 O1 2.692897 1_545
Ca0 O22 2.695222 1_555
Ca0 O20 2.721325 1_545
Ca0 O16 2.727284 1_546
Ca0 O0 2.727829 1_545
Ca1 O3 2.608620 1_555
Ca1 O2 2.651853 1_555
Ca1 O1 2.651853 1_555
Ca1 O22 2.667194 1_555
Ca1 O15 2.667194 1_555
Ca1 O18 2.678125 1_556
Ca1 O11 2.678125 1_556
Ca1 O0 2.695864 1_555
Ca1 O16 2.711477 1_556
Ca1 O10 2.711477 1_556
Ca1 O14 2.712034 1_555
Ca1 O20 2.712034 1_555
Ca2 O19 2.652144 1_556
Ca2 O23 2.657173 1_555
Ca2 O3 2.662298 1_555
Ca2 O21 2.680224 1_555
Ca2 O17 2.683681 1_556
Ca2 O1 2.689406 1_555
Ca2 O11 2.690853 1_556
Ca2 O2 2.692897 1_455
Ca2 O15 2.695222 1_555
Ca2 O14 2.721325 1_455
Ca2 O10 2.727284 1_456
Ca2 O0 2.727829 1_455
Ca3 O9 2.652144 1_555
Ca3 O13 2.657173 1_555
Ca3 O7 2.662298 1_555
Ca3 O12 2.680224 1_555
Ca3 O8 2.683681 1_555
Ca3 O6 2.689406 1_555
Ca3 O18 2.690853 1_555
Ca3 O5 2.692897 1_545
Ca3 O22 2.695222 1_555
Ca3 O20 2.721325 1_545
Ca3 O16 2.727284 1_545
Ca3 O4 2.727829 1_545
Ca4 O7 2.608620 1_555
Ca4 O6 2.651853 1_555
Ca4 O5 2.651853 1_555
Ca4 O22 2.667194 1_555
Ca4 O15 2.667194 1_555
Ca4 O18 2.678125 1_555
Ca4 O11 2.678125 1_555
Ca4 O4 2.695864 1_555
Ca4 O16 2.711477 1_555
Ca4 O10 2.711477 1_555
Ca4 O14 2.712034 1_555
Ca4 O20 2.712034 1_555
Ca5 O19 2.652144 1_555
Ca5 O23 2.657173 1_555
Ca5 O7 2.662298 1_555
Ca5 O21 2.680224 1_555
Ca5 O17 2.683681 1_555
Ca5 O5 2.689406 1_555
Ca5 O11 2.690853 1_555
Ca5 O6 2.692897 1_455
Ca5 O15 2.695222 1_555
Ca5 O14 2.721325 1_455
Ca5 O10 2.727284 1_455
Ca5 O4 2.727829 1_455
Fe0 O16 1.910375 1_555
Fe0 O10 1.910375 1_555
Fe0 O8 1.925334 1_565
Fe0 O17 1.925334 1_655
Fe0 O0 2.029451 1_554
Fe0 O4 2.029451 1_555
Co0 O11 1.865001 1_555
Co0 O16 1.875813 1_555
Co0 O1 1.876107 1_554
Co0 O5 1.876107 1_555
Co0 O9 1.891248 1_565
Co0 O17 1.903117 1_555
Co1 O18 1.865001 1_555
Co1 O10 1.875813 1_555
Co1 O2 1.876107 1_554
Co1 O6 1.876107 1_555
Co1 O19 1.891248 1_655
Co1 O8 1.903117 1_555
Co2 O18 1.918665 1_555
Co2 O11 1.918665 1_555
Co2 O3 1.923122 1_554
Co2 O7 1.923122 1_555
Co2 O19 1.939877 1_555
Co2 O9 1.939877 1_555
Co3 O4 1.800945 1_555
Co3 O0 1.800945 1_555
Co3 O14 1.948217 1_555
Co3 O20 1.948217 1_555
Co3 O12 1.980170 1_565
Co3 O21 1.980170 1_655
Co4 O20 1.835770 1_555
Co4 O21 1.850607 1_555
Co4 O15 1.936465 1_555
Co4 O5 1.954471 1_555
Co4 O1 1.954471 1_555
Co4 O13 1.962535 1_565
Co5 O14 1.835770 1_555
Co5 O12 1.850607 1_555
Co5 O22 1.936465 1_555
Co5 O6 1.954471 1_555
Co5 O2 1.954471 1_555
Co5 O23 1.962535 1_655
Co6 O22 1.847489 1_555
Co6 O15 1.847489 1_555
Co6 O13 1.867997 1_555
Co6 O23 1.867997 1_555
Co6 O7 1.907528 1_555
Co6 O3 1.907528 1_555
O0 Sr0 2.757625 1_665
O1 Sr0 2.736450 1_565
O2 Sr0 2.736450 1_655
O3 Sr0 2.703717 1_555
O4 Sr1 2.757625 1_665
O5 Sr1 2.736450 1_565
O6 Sr1 2.736450 1_655
O7 Sr1 2.703717 1_555
O8 Sr1 2.750943 1_655
O8 Sr0 2.750943 1_654
O9 Sr1 2.722892 1_555
O9 Sr0 2.722892 1_554
O12 Sr0 2.748063 1_655
O12 Sr1 2.748063 1_655
O13 Sr0 2.710022 1_555
O13 Sr1 2.710022 1_555
O17 Sr1 2.750943 1_565
O17 Sr0 2.750943 1_564
O19 Sr1 2.722892 1_555
O19 Sr0 2.722892 1_554
O21 Sr0 2.748063 1_565
O21 Sr1 2.748063 1_565
O23 Sr0 2.710022 1_555
O23 Sr1 2.710022 1_555
