# generated using pymatgen
data_LiMn6(OF2)4
_symmetry_space_group_name_H-M   'P 1'
_cell_length_a   5.14431748
_cell_length_b   7.92014006
_cell_length_c   6.05254673
_cell_angle_alpha   95.48713558
_cell_angle_beta   83.42705427
_cell_angle_gamma   91.98243796
_symmetry_Int_Tables_number   1
_chemical_formula_structural   LiMn6(OF2)4
_chemical_formula_sum   'Li1 Mn6 O4 F8'
_cell_volume   243.78997674
_cell_formula_units_Z   1
loop_
 _symmetry_equiv_pos_site_id
 _symmetry_equiv_pos_as_xyz
  1  'x, y, z'
loop_
 _atom_site_type_symbol
 _atom_site_label
 _atom_site_symmetry_multiplicity
 _atom_site_fract_x
 _atom_site_fract_y
 _atom_site_fract_z
 _atom_site_occupancy
  Li  Li0  1  0.82038800  0.54968700  0.29209200  1
  Mn  Mn0  1  0.53368400  0.97922100  0.53276200  1
  Mn  Mn1  1  0.47806500  0.69270500  0.13566400  1
  Mn  Mn2  1  0.49241800  0.33680600  0.83206000  1
  Mn  Mn3  1  0.94481300  0.68221300  0.67498900  1
  Mn  Mn4  1  0.13392700  0.29963400  0.41022700  1
  Mn  Mn5  1  0.97862100  0.00124100  0.02230900  1
  O  O0  1  0.75749500  0.79052500  0.96225800  1
  O  O1  1  0.68233100  0.76553500  0.45372700  1
  O  O2  1  0.61843100  0.47393900  0.06858900  1
  O  O3  1  0.36297500  0.19469600  0.59351400  1
  F  F0  1  0.79927400  0.43034200  0.56751900  1
  F  F1  1  0.82744200  0.09588400  0.35580000  1
  F  F2  1  0.72353800  0.13409200  0.83833200  1
  F  F3  1  0.25361300  0.52547700  0.78875400  1
  F  F4  1  0.29898500  0.91111100  0.22386500  1
  F  F5  1  0.17526700  0.57572600  0.32690400  1
  F  F6  1  0.19363900  0.23214100  0.06797300  1
  F  F7  1  0.23064600  0.88735400  0.72766300  1
loop_
_geom_bond_atom_site_label_1
_geom_bond_atom_site_label_2
_geom_bond_distance
_geom_bond_site_symmetry_2
Li0 O2 1.841925 1_555
Li0 O1 1.997276 1_555
Mn0 O1 1.878520 1_555
Mn0 O3 1.930963 1_565
Mn1 O0 1.871145 1_554
Mn1 O2 1.890305 1_555
Mn1 O1 2.313378 1_555
Mn2 O2 1.875031 1_556
Mn2 O3 1.911098 1_555
Mn3 O0 2.018898 1_555
Mn3 O1 2.167231 1_555
Mn4 O3 1.962944 1_555
Mn5 O0 2.014606 1_544
F0 Li0 1.984201 1_555
F0 Mn4 2.121652 1_655
F0 Mn3 2.173270 1_555
F0 Mn2 2.274126 1_555
F1 Mn0 2.001682 1_545
F1 Mn5 2.152332 1_555
F1 Mn4 2.244926 1_655
F2 Mn2 2.036374 1_555
F2 Mn5 2.173277 1_556
F2 Mn0 2.403288 1_545
F3 Mn2 2.021498 1_555
F3 Mn3 2.255879 1_455
F4 Mn1 1.986697 1_555
F4 Mn5 2.328538 1_465
F4 Mn0 2.350111 1_555
F5 Li0 1.863728 1_455
F5 Mn1 2.077746 1_555
F5 Mn4 2.288086 1_555
F5 Mn3 2.390178 1_455
F6 Mn4 2.079703 1_555
F6 Mn5 2.116041 1_455
F6 Mn2 2.173521 1_554
F7 Mn0 2.003965 1_555
F7 Mn3 2.178654 1_455
F7 Mn5 2.217842 1_466
