# generated using pymatgen
data_CsDy(WO4)2
_symmetry_space_group_name_H-M   'P 1'
_cell_length_a   7.69722268
_cell_length_b   7.69722268
_cell_length_c   7.58802381
_cell_angle_alpha   62.53089732
_cell_angle_beta   62.53089732
_cell_angle_gamma   88.80821971
_symmetry_Int_Tables_number   1
_chemical_formula_structural   CsDy(WO4)2
_chemical_formula_sum   'Cs2 Dy2 W4 O16'
_cell_volume   343.23023646
_cell_formula_units_Z   2
loop_
 _symmetry_equiv_pos_site_id
 _symmetry_equiv_pos_as_xyz
  1  'x, y, z'
loop_
 _atom_site_type_symbol
 _atom_site_label
 _atom_site_symmetry_multiplicity
 _atom_site_fract_x
 _atom_site_fract_y
 _atom_site_fract_z
 _atom_site_occupancy
  Cs  Cs0  1  0.19795900  0.80204100  0.75000000  1
  Cs  Cs1  1  0.80204100  0.19795900  0.25000000  1
  Dy  Dy0  1  0.77813200  0.22186800  0.75000000  1
  Dy  Dy1  1  0.22186800  0.77813200  0.25000000  1
  W  W0  1  0.69739100  0.68627300  0.78309700  1
  W  W1  1  0.30260900  0.31372700  0.21690300  1
  W  W2  1  0.31372700  0.30260900  0.71690300  1
  W  W3  1  0.68627300  0.69739100  0.28309700  1
  O  O0  1  0.62076200  0.74734900  0.56566900  1
  O  O1  1  0.37923800  0.25265100  0.43433100  1
  O  O2  1  0.25265100  0.37923800  0.93433100  1
  O  O3  1  0.74734900  0.62076200  0.06566900  1
  O  O4  1  0.36795900  0.06070600  0.87664500  1
  O  O5  1  0.63204100  0.93929400  0.12335500  1
  O  O6  1  0.93929400  0.63204100  0.62335500  1
  O  O7  1  0.06070600  0.36795900  0.37664500  1
  O  O8  1  0.59230700  0.37305700  0.96158700  1
  O  O9  1  0.40769300  0.62694300  0.03841300  1
  O  O10  1  0.62694300  0.40769300  0.53841300  1
  O  O11  1  0.37305700  0.59230700  0.46158700  1
  O  O12  1  0.77478900  0.94846500  0.70584800  1
  O  O13  1  0.22521100  0.05153500  0.29415200  1
  O  O14  1  0.05153500  0.22521100  0.79415200  1
  O  O15  1  0.94846500  0.77478900  0.20584800  1
loop_
_geom_bond_atom_site_label_1
_geom_bond_atom_site_label_2
_geom_bond_distance
_geom_bond_site_symmetry_2
Cs0 O15 2.985936 1_456
Cs0 O13 2.985936 1_565
Cs0 O0 3.001938 1_555
Cs0 O2 3.001938 1_555
Cs0 O1 3.027882 1_565
Cs0 O3 3.027882 1_456
Cs0 O4 3.103771 1_565
Cs0 O6 3.103771 1_455
Cs0 O9 3.108035 1_556
Cs0 O11 3.108035 1_555
Cs1 O12 2.985936 1_545
Cs1 O14 2.985936 1_654
Cs1 O3 3.001938 1_555
Cs1 O1 3.001938 1_555
Cs1 O2 3.027882 1_654
Cs1 O0 3.027882 1_545
Cs1 O7 3.103771 1_655
Cs1 O5 3.103771 1_545
Cs1 O10 3.108035 1_555
Cs1 O8 3.108035 1_554
Dy0 O12 2.280839 1_545
Dy0 O14 2.280839 1_655
Dy0 O5 2.345092 1_546
Dy0 O7 2.345092 1_655
Dy0 O8 2.348135 1_555
Dy0 O10 2.348135 1_555
Dy1 O15 2.280839 1_455
Dy1 O13 2.280839 1_565
Dy1 O6 2.345092 1_455
Dy1 O4 2.345092 1_564
Dy1 O11 2.348135 1_555
Dy1 O9 2.348135 1_555
O0 W0 1.860534 1_555
O0 W3 2.180528 1_555
O1 W1 1.860534 1_555
O1 W2 2.180528 1_555
O2 W2 1.860534 1_555
O2 W1 2.180528 1_556
O3 W3 1.860534 1_555
O3 W0 2.180528 1_554
O4 W2 1.860861 1_555
O5 W3 1.860861 1_555
O6 W0 1.860861 1_555
O7 W1 1.860861 1_555
O8 W1 2.043265 1_556
O8 W0 2.087854 1_555
O9 W0 2.043265 1_554
O9 W1 2.087854 1_555
O10 W3 2.043265 1_555
O10 W2 2.087854 1_555
O11 W2 2.043265 1_555
O11 W3 2.087854 1_555
O12 W0 1.846064 1_555
O13 W1 1.846064 1_555
O14 W2 1.846064 1_555
O15 W3 1.846064 1_555
