# generated using pymatgen
data_Dy(PPd)2
_symmetry_space_group_name_H-M   'P 1'
_cell_length_a   5.70612046
_cell_length_b   5.70612046
_cell_length_c   5.70612046
_cell_angle_alpha   138.12620917
_cell_angle_beta   138.12620917
_cell_angle_gamma   60.70975831
_symmetry_Int_Tables_number   1
_chemical_formula_structural   Dy(PPd)2
_chemical_formula_sum   'Dy1 P2 Pd2'
_cell_volume   81.88631329
_cell_formula_units_Z   1
loop_
 _symmetry_equiv_pos_site_id
 _symmetry_equiv_pos_as_xyz
  1  'x, y, z'
loop_
 _atom_site_type_symbol
 _atom_site_label
 _atom_site_symmetry_multiplicity
 _atom_site_fract_x
 _atom_site_fract_y
 _atom_site_fract_z
 _atom_site_occupancy
  Dy  Dy0  1  0.00000000  0.00000000  0.00000000  1
  P  P0  1  0.38960376  0.38960376  0.00000000  1
  P  P1  1  0.61039624  0.61039624  -0.00000000  1
  Pd  Pd0  1  0.75000000  0.25000000  0.50000000  1
  Pd  Pd1  1  0.25000000  0.75000000  0.50000000  1
loop_
_geom_bond_atom_site_label_1
_geom_bond_atom_site_label_2
_geom_bond_distance
_geom_bond_site_symmetry_2
Dy0 P1 3.081741 1_455
Dy0 P1 3.081741 1_556
Dy0 P0 3.081741 1_444
Dy0 P0 3.081741 1_556
Dy0 P0 3.081741 1_455
Dy0 P1 3.081741 1_444
Dy0 P0 3.081741 1_545
Dy0 P1 3.081741 1_545
Dy0 Pd1 3.196679 1_444
Dy0 Pd1 3.196679 1_544
Dy0 Pd0 3.196679 1_455
Dy0 Pd0 3.196679 1_555
Dy0 Pd0 3.196679 1_444
Dy0 Pd0 3.196679 1_454
Dy0 Pd1 3.196679 1_555
Dy0 Pd1 3.196679 1_545
P0 P1 2.174311 1_555
P0 Pd1 2.459196 1_544
P0 Pd0 2.459196 1_454
P0 Pd0 2.459196 1_555
P0 Pd1 2.459196 1_555
P1 Pd1 2.459196 1_554
P1 Pd1 2.459196 1_655
P1 Pd0 2.459196 1_554
P1 Pd0 2.459196 1_565
Pd0 Pd1 2.883613 1_544
Pd0 Pd1 2.883613 1_645
Pd0 Pd1 2.883613 1_555
Pd0 Pd1 2.883613 1_656
