# generated using pymatgen
data_NaEu(ReO5)4
_symmetry_space_group_name_H-M   'P 1'
_cell_length_a   5.86272887
_cell_length_b   12.64828409
_cell_length_c   12.64828409
_cell_angle_alpha   90.00000000
_cell_angle_beta   90.00000000
_cell_angle_gamma   90.00000000
_symmetry_Int_Tables_number   1
_chemical_formula_structural   NaEu(ReO5)4
_chemical_formula_sum   'Na2 Eu2 Re8 O40'
_cell_volume   937.91403201
_cell_formula_units_Z   2
loop_
 _symmetry_equiv_pos_site_id
 _symmetry_equiv_pos_as_xyz
  1  'x, y, z'
loop_
 _atom_site_type_symbol
 _atom_site_label
 _atom_site_symmetry_multiplicity
 _atom_site_fract_x
 _atom_site_fract_y
 _atom_site_fract_z
 _atom_site_occupancy
  Na  Na0  1  -0.00000000  -0.00000000  -0.00000000  1
  Na  Na1  1  0.50000000  0.50000000  0.50000000  1
  Eu  Eu0  1  0.25000000  -0.00000000  0.50000000  1
  Eu  Eu1  1  0.75000000  0.50000000  0.00000000  1
  Re  Re0  1  0.01964675  0.40930851  0.28483826  1
  Re  Re1  1  0.01964675  0.59069149  0.71516174  1
  Re  Re2  1  0.98035325  0.28483826  0.59069149  1
  Re  Re3  1  0.51964675  0.90930851  0.21516174  1
  Re  Re4  1  0.98035325  0.71516174  0.40930851  1
  Re  Re5  1  0.51964675  0.09069149  0.78483826  1
  Re  Re6  1  0.48035325  0.78483826  0.90930851  1
  Re  Re7  1  0.48035325  0.21516174  0.09069149  1
  O  O0  1  0.20519370  0.18419071  0.04853226  1
  O  O1  1  0.20519370  0.81580929  0.95146774  1
  O  O2  1  0.79480630  0.04853226  0.81580929  1
  O  O3  1  0.70519370  0.68419071  0.45146774  1
  O  O4  1  0.79480630  0.95146774  0.18419071  1
  O  O5  1  0.70519370  0.31580929  0.54853226  1
  O  O6  1  0.29480630  0.54853226  0.68419071  1
  O  O7  1  0.29480630  0.45146774  0.31580929  1
  O  O8  1  0.17748364  0.36450623  0.52518475  1
  O  O9  1  0.17748364  0.63549377  0.47481525  1
  O  O10  1  0.82251636  0.52518475  0.63549377  1
  O  O11  1  0.67748364  0.86450623  0.97481525  1
  O  O12  1  0.82251636  0.47481525  0.36450623  1
  O  O13  1  0.67748364  0.13549377  0.02518475  1
  O  O14  1  0.32251636  0.02518475  0.86450623  1
  O  O15  1  0.32251636  0.97481525  0.13549377  1
  O  O16  1  0.03795441  0.14773721  0.56393130  1
  O  O17  1  0.03795441  0.85226279  0.43606870  1
  O  O18  1  0.96204559  0.56393130  0.85226279  1
  O  O19  1  0.53795441  0.64773721  0.93606870  1
  O  O20  1  0.96204559  0.43606870  0.14773721  1
  O  O21  1  0.53795441  0.35226279  0.06393130  1
  O  O22  1  0.46204559  0.06393130  0.64773721  1
  O  O23  1  0.46204559  0.93606870  0.35226279  1
  O  O24  1  0.50031900  0.19049310  0.22568572  1
  O  O25  1  0.50031900  0.80950690  0.77431428  1
  O  O26  1  0.49968100  0.22568572  0.80950690  1
  O  O27  1  0.00031900  0.69049310  0.27431428  1
  O  O28  1  0.49968100  0.77431428  0.19049310  1
  O  O29  1  0.00031900  0.30950690  0.72568572  1
  O  O30  1  0.99968100  0.72568572  0.69049310  1
  O  O31  1  0.99968100  0.27431428  0.30950690  1
  O  O32  1  0.03450745  0.06356480  0.35560616  1
  O  O33  1  0.03450745  0.93643520  0.64439384  1
  O  O34  1  0.96549255  0.35560616  0.93643520  1
  O  O35  1  0.53450745  0.56356480  0.14439384  1
  O  O36  1  0.96549255  0.64439384  0.06356480  1
  O  O37  1  0.53450745  0.43643520  0.85560616  1
  O  O38  1  0.46549255  0.85560616  0.56356480  1
  O  O39  1  0.46549255  0.14439384  0.43643520  1
loop_
_geom_bond_atom_site_label_1
_geom_bond_atom_site_label_2
_geom_bond_distance
_geom_bond_site_symmetry_2
Na0 O11 2.571707 1_444
Na0 O14 2.571707 1_554
Na0 O13 2.571707 1_455
Na0 O15 2.571707 1_545
Na0 O1 2.692860 1_544
Na0 O2 2.692860 1_454
Na0 O0 2.692860 1_555
Na0 O4 2.692860 1_445
Na1 O9 2.571707 1_555
Na1 O10 2.571707 1_555
Na1 O8 2.571707 1_555
Na1 O12 2.571707 1_555
Na1 O6 2.692860 1_555
Na1 O7 2.692860 1_555
Na1 O5 2.692860 1_555
Na1 O3 2.692860 1_555
Eu0 O39 2.361780 1_555
Eu0 O32 2.361780 1_555
Eu0 O38 2.361780 1_545
Eu0 O33 2.361780 1_545
Eu0 O22 2.385598 1_555
Eu0 O17 2.385598 1_545
Eu0 O23 2.385598 1_545
Eu0 O16 2.385598 1_555
Eu1 O37 2.361780 1_554
Eu1 O34 2.361780 1_554
Eu1 O35 2.361780 1_555
Eu1 O36 2.361780 1_555
Eu1 O19 2.385598 1_554
Eu1 O18 2.385598 1_554
Eu1 O21 2.385598 1_555
Eu1 O20 2.385598 1_555
O0 Re7 1.743608 1_555
O1 Re6 1.743608 1_555
O2 Re5 1.743608 1_555
O3 Re4 1.743608 1_555
O4 Re3 1.743608 1_555
O5 Re2 1.743608 1_555
O6 Re1 1.743608 1_555
O7 Re0 1.743608 1_555
O8 Re2 1.742863 1_455
O9 Re4 1.742863 1_455
O10 Re1 1.742863 1_655
O11 Re6 1.742863 1_555
O12 Re0 1.742863 1_655
O13 Re7 1.742863 1_555
O14 Re5 1.742863 1_555
O15 Re3 1.742863 1_555
O16 Re2 1.798800 1_455
O17 Re4 1.798800 1_455
O18 Re1 1.798800 1_655
O19 Re6 1.798800 1_555
O20 Re0 1.798800 1_655
O21 Re7 1.798800 1_555
O22 Re5 1.798800 1_555
O23 Re3 1.798800 1_555
O24 Re7 1.739662 1_555
O25 Re6 1.739662 1_555
O26 Re5 1.739662 1_555
O27 Re4 1.739662 1_455
O28 Re3 1.739662 1_555
O29 Re2 1.739662 1_455
O30 Re1 1.739662 1_655
O31 Re0 1.739662 1_655
