# generated using pymatgen
data_La2ZnGa2S6O
_symmetry_space_group_name_H-M   'P 1'
_cell_length_a   9.41772500
_cell_length_b   9.41772500
_cell_length_c   6.11983300
_cell_angle_alpha   90.00000000
_cell_angle_beta   90.00000000
_cell_angle_gamma   90.00000000
_symmetry_Int_Tables_number   1
_chemical_formula_structural   La2ZnGa2S6O
_chemical_formula_sum   'La4 Zn2 Ga4 S12 O2'
_cell_volume   542.78967853
_cell_formula_units_Z   2
loop_
 _symmetry_equiv_pos_site_id
 _symmetry_equiv_pos_as_xyz
  1  'x, y, z'
loop_
 _atom_site_type_symbol
 _atom_site_label
 _atom_site_symmetry_multiplicity
 _atom_site_fract_x
 _atom_site_fract_y
 _atom_site_fract_z
 _atom_site_occupancy
  La  La0  1  0.84465900  0.65534100  0.49189500  1
  La  La1  1  0.34465900  0.84465900  0.50810500  1
  La  La2  1  0.65534100  0.15534100  0.50810500  1
  La  La3  1  0.15534100  0.34465900  0.49189500  1
  Zn  Zn0  1  0.00000000  0.00000000  0.00000000  1
  Zn  Zn1  1  0.50000000  0.50000000  0.00000000  1
  Ga  Ga0  1  0.62830900  0.87169100  0.91368200  1
  Ga  Ga1  1  0.37169100  0.12830900  0.91368200  1
  Ga  Ga2  1  0.12830900  0.62830900  0.08631800  1
  Ga  Ga3  1  0.87169100  0.37169100  0.08631800  1
  S  S0  1  0.93546700  0.16821500  0.25897400  1
  S  S1  1  0.06453300  0.83178500  0.25897400  1
  S  S2  1  0.16821500  0.06453300  0.74102600  1
  S  S3  1  0.83178500  0.93546700  0.74102600  1
  S  S4  1  0.66821500  0.43546700  0.25897400  1
  S  S5  1  0.56453300  0.66821500  0.74102600  1
  S  S6  1  0.43546700  0.33178500  0.74102600  1
  S  S7  1  0.33178500  0.56453300  0.25897400  1
  S  S8  1  0.36845000  0.13155000  0.28033100  1
  S  S9  1  0.86845000  0.36845000  0.71966900  1
  S  S10  1  0.13155000  0.63155000  0.71966900  1
  S  S11  1  0.63155000  0.86845000  0.28033100  1
  O  O0  1  0.50000000  0.00000000  0.76389800  1
  O  O1  1  0.00000000  0.50000000  0.23610200  1
loop_
_geom_bond_atom_site_label_1
_geom_bond_atom_site_label_2
_geom_bond_distance
_geom_bond_site_symmetry_2
La0 O1 2.594418 1_655
La0 S4 3.013466 1_555
La0 S1 3.013466 1_655
La0 S9 3.048494 1_555
La0 S10 3.048494 1_655
La0 S5 3.049436 1_555
La0 S3 3.049436 1_555
La0 S11 3.119688 1_555
La1 O0 2.594418 1_565
La1 S5 3.013466 1_555
La1 S2 3.013466 1_565
La1 S11 3.048494 1_555
La1 S8 3.048494 1_565
La1 S7 3.049436 1_555
La1 S1 3.049436 1_555
La1 S10 3.119688 1_555
La2 O0 2.594418 1_555
La2 S3 3.013466 1_545
La2 S6 3.013466 1_555
La2 S11 3.048494 1_545
La2 S8 3.048494 1_555
La2 S0 3.049436 1_555
La2 S4 3.049436 1_555
La2 S9 3.119688 1_555
La3 O1 2.594418 1_555
La3 S0 3.013466 1_455
La3 S7 3.013466 1_555
La3 S9 3.048494 1_455
La3 S10 3.048494 1_555
La3 S2 3.049436 1_555
La3 S6 3.049436 1_555
La3 S8 3.119688 1_555
Ga0 O0 1.939230 1_565
Ga0 S11 2.244246 1_556
Ga0 S3 2.269216 1_555
Ga0 S5 2.269216 1_555
Ga1 O0 1.939230 1_555
Ga1 S8 2.244246 1_556
Ga1 S6 2.269216 1_555
Ga1 S2 2.269216 1_555
Ga2 O1 1.939230 1_555
Ga2 S10 2.244246 1_554
Ga2 S1 2.269216 1_555
Ga2 S7 2.269216 1_555
Ga3 O1 1.939230 1_655
Ga3 S9 2.244246 1_554
Ga3 S0 2.269216 1_555
Ga3 S4 2.269216 1_555
S0 Zn0 2.321831 1_655
S1 Zn0 2.321831 1_565
S2 Zn0 2.321831 1_556
S3 Zn0 2.321831 1_666
S4 Zn1 2.321831 1_555
S5 Zn1 2.321831 1_556
S6 Zn1 2.321831 1_556
S7 Zn1 2.321831 1_555
