# generated using pymatgen
data_Cs3Nb2I9
_symmetry_space_group_name_H-M   'P 1'
_cell_length_a   8.42563286
_cell_length_b   8.42582182
_cell_length_c   19.77915983
_cell_angle_alpha   89.98892842
_cell_angle_beta   90.01382650
_cell_angle_gamma   119.99701665
_symmetry_Int_Tables_number   1
_chemical_formula_structural   Cs3Nb2I9
_chemical_formula_sum   'Cs6 Nb4 I18'
_cell_volume   1216.09167255
_cell_formula_units_Z   2
loop_
 _symmetry_equiv_pos_site_id
 _symmetry_equiv_pos_as_xyz
  1  'x, y, z'
loop_
 _atom_site_type_symbol
 _atom_site_label
 _atom_site_symmetry_multiplicity
 _atom_site_fract_x
 _atom_site_fract_y
 _atom_site_fract_z
 _atom_site_occupancy
  Cs  Cs0  1  0.00000472  0.00001002  0.25007612  1
  Cs  Cs1  1  -0.00000407  0.00000290  0.74990972  1
  Cs  Cs2  1  0.33333676  0.66667604  0.43160820  1
  Cs  Cs3  1  0.66667469  0.33333737  0.56829969  1
  Cs  Cs4  1  0.66667075  0.33334364  0.93177905  1
  Cs  Cs5  1  0.33333084  0.66668060  0.06828728  1
  Nb  Nb0  1  0.33334974  0.66667152  0.67937066  1
  Nb  Nb1  1  0.66668269  0.33333684  0.32065986  1
  Nb  Nb2  1  0.66677838  0.33319377  0.17963340  1
  Nb  Nb3  1  0.33336075  0.66664772  0.82040046  1
  I  I0  1  0.49459878  0.50551140  0.25004421  1
  I  I1  1  0.49387591  0.98874172  0.25021148  1
  I  I2  1  0.01121565  0.50607617  0.25019745  1
  I  I3  1  0.50548290  0.49435719  0.74990016  1
  I  I4  1  0.50553225  0.01111317  0.74989230  1
  I  I5  1  0.98889612  0.49444800  0.74988253  1
  I  I6  1  0.82616394  0.17384985  0.40569522  1
  I  I7  1  0.82612654  0.65225119  0.40576618  1
  I  I8  1  0.34775817  0.17397296  0.40575463  1
  I  I9  1  0.17399901  0.82589770  0.59405636  1
  I  I10  1  0.17389237  0.34811636  0.59411624  1
  I  I11  1  0.65193645  0.82607849  0.59409223  1
  I  I12  1  0.17396289  0.82602926  0.90563596  1
  I  I13  1  0.17392257  0.34786741  0.90561079  1
  I  I14  1  0.65212789  0.82603550  0.90563357  1
  I  I15  1  0.82627569  0.17365339  0.09455858  1
  I  I16  1  0.82617847  0.65224953  0.09449686  1
  I  I17  1  0.34786814  0.17384830  0.09442881  1
loop_
_geom_bond_atom_site_label_1
_geom_bond_atom_site_label_2
_geom_bond_distance
_geom_bond_site_symmetry_2
Cs0 I15 3.985300 1_455
Cs0 I16 3.988789 1_445
Cs0 I6 3.989262 1_455
Cs0 I8 3.989743 1_555
Cs0 I7 3.990144 1_445
Cs0 I17 3.990432 1_555
Cs0 I1 4.209449 1_545
Cs0 I2 4.209819 1_545
Cs0 I0 4.213401 1_445
Cs0 I0 4.214209 1_555
Cs0 I2 4.217592 1_555
Cs0 I1 4.217791 1_445
Cs1 I12 3.991121 1_545
Cs1 I13 3.991131 1_555
Cs1 I14 3.991622 1_445
Cs1 I11 3.993284 1_445
Cs1 I10 3.993368 1_555
Cs1 I9 3.994823 1_545
Cs1 I3 4.213166 1_555
Cs1 I4 4.213441 1_555
Cs1 I5 4.213642 1_455
Cs1 I5 4.213737 1_445
Cs1 I4 4.213752 1_455
Cs1 I3 4.214507 1_445
Cs2 I9 3.966207 1_555
Cs2 I11 3.966213 1_555
Cs2 I10 3.966614 1_555
Cs2 I8 4.244509 1_555
Cs2 I7 4.244880 1_455
Cs2 I7 4.245154 1_555
Cs2 I6 4.245372 1_455
Cs2 I6 4.245434 1_565
Cs2 I8 4.245768 1_565
Cs2 I1 4.288912 1_555
Cs2 I2 4.289173 1_555
Cs2 I0 4.293708 1_555
Cs3 I7 3.968537 1_555
Cs3 I8 3.968545 1_555
Cs3 I6 3.970497 1_555
Cs3 I10 4.243466 1_655
Cs3 I11 4.244039 1_545
Cs3 I9 4.244598 1_655
Cs3 I9 4.245616 1_545
Cs3 I11 4.246064 1_555
Cs3 I10 4.246576 1_555
Cs3 I5 4.292421 1_555
Cs3 I4 4.292786 1_555
Cs3 I3 4.293452 1_555
Cs4 I17 3.970366 1_556
Cs4 I16 3.971772 1_556
Cs4 I15 3.973718 1_556
Cs4 I14 4.245443 1_555
Cs4 I13 4.245771 1_555
Cs4 I13 4.245858 1_655
Cs4 I12 4.245937 1_655
Cs4 I12 4.246080 1_545
Cs4 I14 4.246269 1_545
Cs4 I3 4.297032 1_555
Cs4 I4 4.298010 1_555
Cs4 I5 4.298286 1_555
Cs5 I12 3.969189 1_554
Cs5 I14 3.970406 1_554
Cs5 I13 3.970713 1_554
Cs5 I17 4.245107 1_565
Cs5 I16 4.245498 1_455
Cs5 I15 4.245848 1_565
Cs5 I16 4.246297 1_555
Cs5 I15 4.246581 1_455
Cs5 I17 4.246583 1_555
Cs5 I0 4.295955 1_555
Cs5 I1 4.297957 1_555
Cs5 I2 4.298075 1_555
I0 Nb1 2.873866 1_555
I0 Nb2 2.874035 1_555
I1 Nb1 2.874943 1_565
I1 Nb2 2.875074 1_565
I2 Nb2 2.874693 1_455
I2 Nb1 2.874733 1_455
I3 Nb0 2.874244 1_555
I3 Nb3 2.874354 1_555
I4 Nb3 2.874481 1_545
I4 Nb0 2.874663 1_545
I5 Nb3 2.874419 1_655
I5 Nb0 2.874698 1_655
I6 Nb1 2.871220 1_555
I7 Nb1 2.872286 1_555
I8 Nb1 2.872284 1_555
I9 Nb0 2.872143 1_555
I10 Nb0 2.871882 1_555
I11 Nb0 2.872419 1_555
I12 Nb3 2.873109 1_555
I13 Nb3 2.872472 1_555
I14 Nb3 2.872502 1_555
I15 Nb2 2.872772 1_555
I16 Nb2 2.873244 1_555
I17 Nb2 2.873017 1_555
