# generated using pymatgen
data_Li4TiCo5O12
_symmetry_space_group_name_H-M   'P 1'
_cell_length_a   5.00002833
_cell_length_b   20.16278109
_cell_length_c   5.01465913
_cell_angle_alpha   89.73543117
_cell_angle_beta   118.39044246
_cell_angle_gamma   89.49137842
_symmetry_Int_Tables_number   1
_chemical_formula_structural   Li4TiCo5O12
_chemical_formula_sum   'Li8 Ti2 Co10 O24'
_cell_volume   444.70667663
_cell_formula_units_Z   2
loop_
 _symmetry_equiv_pos_site_id
 _symmetry_equiv_pos_as_xyz
  1  'x, y, z'
loop_
 _atom_site_type_symbol
 _atom_site_label
 _atom_site_symmetry_multiplicity
 _atom_site_fract_x
 _atom_site_fract_y
 _atom_site_fract_z
 _atom_site_occupancy
  Li  Li0  1  0.63863800  0.37249500  0.13874300  1
  Li  Li1  1  0.63120700  0.87441100  0.13536300  1
  Li  Li2  1  0.86242000  0.12748100  0.35479500  1
  Li  Li3  1  0.86332400  0.62578500  0.37448500  1
  Li  Li4  1  0.13975000  0.37240700  0.63740100  1
  Li  Li5  1  0.14194300  0.87362100  0.62556900  1
  Li  Li6  1  0.36245100  0.12825000  0.85392300  1
  Li  Li7  1  0.37415500  0.62589700  0.86296100  1
  Ti  Ti0  1  0.98628000  0.00023000  0.99770200  1
  Ti  Ti1  1  0.00165600  0.49974600  0.00163500  1
  Co  Co0  1  0.50004000  0.25006800  0.49987000  1
  Co  Co1  1  0.50017800  0.74993900  0.50010500  1
  Co  Co2  1  0.83656700  0.74984000  0.16359800  1
  Co  Co3  1  0.16435400  0.25012900  0.83557900  1
  Co  Co4  1  0.16318000  0.74997900  0.83667900  1
  Co  Co5  1  0.83525800  0.25006800  0.16431500  1
  Co  Co6  1  0.33352000  0.00035900  0.66715900  1
  Co  Co7  1  0.33494400  0.49911200  0.66573400  1
  Co  Co8  1  0.66278800  0.00140400  0.33690100  1
  Co  Co9  1  0.66578300  0.49916700  0.33542600  1
  O  O0  1  0.17204700  0.29657100  0.17257900  1
  O  O1  1  0.18373300  0.79827800  0.18489800  1
  O  O2  1  0.82777800  0.20370500  0.82741300  1
  O  O3  1  0.81592400  0.70147500  0.81502700  1
  O  O4  1  0.33139400  0.04825300  0.33800300  1
  O  O5  1  0.33845600  0.54762500  0.33936400  1
  O  O6  1  0.66318500  0.45129500  0.66279100  1
  O  O7  1  0.66257300  0.95056500  0.67916700  1
  O  O8  1  0.69050800  0.05878100  0.02215700  1
  O  O9  1  0.69144800  0.55491700  0.03673500  1
  O  O10  1  0.96731800  0.44380300  0.31152300  1
  O  O11  1  0.96643300  0.94400100  0.30975000  1
  O  O12  1  0.02363800  0.05467800  0.67809400  1
  O  O13  1  0.03589900  0.55499600  0.69249300  1
  O  O14  1  0.31205900  0.44381000  0.96670400  1
  O  O15  1  0.31876800  0.94693300  0.97483000  1
  O  O16  1  0.50635600  0.20111800  0.17006500  1
  O  O17  1  0.51829800  0.69721000  0.19118400  1
  O  O18  1  0.17083900  0.20111600  0.50649500  1
  O  O19  1  0.19154600  0.69718200  0.51785100  1
  O  O20  1  0.82889700  0.29899200  0.49329000  1
  O  O21  1  0.80896800  0.80273000  0.48268000  1
  O  O22  1  0.49332200  0.29898700  0.82955600  1
  O  O23  1  0.48217700  0.80259000  0.80941000  1
loop_
_geom_bond_atom_site_label_1
_geom_bond_atom_site_label_2
_geom_bond_distance
_geom_bond_site_symmetry_2
Li0 O14 2.021250 1_554
Li0 O22 2.024257 1_554
Li0 O10 2.053792 1_555
Li0 O20 2.145846 1_555
Li1 O15 1.994830 1_554
Li1 O11 2.049915 1_555
Li1 O23 2.051043 1_554
Li1 O21 2.096218 1_555
Li2 O18 2.024000 1_655
Li2 O8 2.029536 1_555
Li2 O12 2.036466 1_655
Li2 O16 2.145731 1_555
Li3 O13 1.993338 1_655
Li3 O19 2.052313 1_655
Li3 O9 2.075791 1_555
Li3 O17 2.081031 1_555
Li4 O10 2.025470 1_455
Li4 O20 2.027745 1_455
Li4 O14 2.057408 1_555
Li4 O22 2.136755 1_555
Li5 O11 1.981792 1_455
Li5 O21 2.060485 1_455
Li5 O23 2.061119 1_555
Li5 O15 2.146798 1_555
Li6 O8 1.999142 1_556
Li6 O16 2.035970 1_556
Li6 O18 2.115614 1_555
Li6 O12 2.117569 1_555
Li7 O9 1.989464 1_556
Li7 O17 2.051380 1_556
Li7 O13 2.077064 1_555
Li7 O19 2.084611 1_555
Co0 O2 1.912094 1_555
Co0 O0 1.913442 1_555
Co0 O20 1.938545 1_555
Co0 O18 1.940411 1_555
Co0 O16 1.942819 1_555
Co0 O22 1.942823 1_555
Co1 O3 1.878479 1_555
Co1 O1 1.879352 1_555
Co1 O19 1.918246 1_555
Co1 O21 1.918602 1_555
Co1 O17 1.919716 1_555
Co1 O23 1.920189 1_555
Co2 O1 1.957838 1_655
Co2 O3 1.965441 1_554
Co2 O17 1.978784 1_555
Co2 O21 1.984861 1_555
Co2 O23 2.093304 1_554
Co2 O19 2.093821 1_655
Co3 O2 1.916441 1_455
Co3 O0 1.920328 1_556
Co3 O22 1.937170 1_555
Co3 O18 1.940708 1_555
Co3 O16 1.985256 1_556
Co3 O20 1.986816 1_455
Co4 O3 1.958259 1_455
Co4 O1 1.963409 1_556
Co4 O23 1.980928 1_555
Co4 O19 1.984498 1_555
Co4 O21 2.092503 1_455
Co4 O17 2.095796 1_556
Co5 O0 1.917967 1_655
Co5 O2 1.919536 1_554
Co5 O16 1.937273 1_555
Co5 O20 1.939060 1_555
Co5 O22 1.984798 1_554
Co5 O18 1.987701 1_655
Co6 O7 1.895902 1_545
Co6 O4 1.904088 1_555
Co6 O15 1.908023 1_545
Co6 O12 1.911659 1_555
Co6 O8 2.185792 1_556
Co6 O11 2.190876 1_445
Co7 O6 1.902212 1_555
Co7 O5 1.910110 1_555
Co7 O14 1.919697 1_555
Co7 O13 1.919802 1_555
Co7 O10 2.174230 1_455
Co7 O9 2.192258 1_556
Co8 O4 1.902330 1_555
Co8 O11 1.957035 1_545
Co8 O7 1.995524 1_545
Co8 O8 2.010655 1_555
Co8 O12 2.110052 1_655
Co8 O15 2.131580 1_544
Co9 O6 1.905949 1_555
Co9 O5 1.906867 1_555
Co9 O10 1.917498 1_555
Co9 O9 1.921799 1_555
Co9 O14 2.176459 1_554
Co9 O13 2.191451 1_655
O4 Ti0 2.017910 1_454
O5 Ti1 1.991961 1_555
O6 Ti1 2.003935 1_656
O7 Ti0 1.938799 1_565
O8 Ti0 1.933545 1_554
O9 Ti1 1.976098 1_655
O10 Ti1 1.989376 1_655
O11 Ti0 1.969042 1_564
O12 Ti0 2.020128 1_455
O13 Ti1 1.978230 1_556
O14 Ti1 1.985127 1_556
O15 Ti0 2.020504 1_465
