# generated using pymatgen
data_KMg14Cd
_symmetry_space_group_name_H-M   'P 1'
_cell_length_a   6.53176234
_cell_length_b   6.53176179
_cell_length_c   10.56718461
_cell_angle_alpha   90.00000000
_cell_angle_beta   90.00000000
_cell_angle_gamma   120.00000280
_symmetry_Int_Tables_number   1
_chemical_formula_structural   KMg14Cd
_chemical_formula_sum   'K1 Mg14 Cd1'
_cell_volume   390.43669354
_cell_formula_units_Z   1
loop_
 _symmetry_equiv_pos_site_id
 _symmetry_equiv_pos_as_xyz
  1  'x, y, z'
loop_
 _atom_site_type_symbol
 _atom_site_label
 _atom_site_symmetry_multiplicity
 _atom_site_fract_x
 _atom_site_fract_y
 _atom_site_fract_z
 _atom_site_occupancy
  K  K0  1  0.16666700  0.33333300  0.12500000  1
  Mg  Mg0  1  0.17387730  0.83693815  0.12500000  1
  Mg  Mg1  1  0.16352238  0.83176069  0.62500000  1
  Mg  Mg2  1  0.66306185  0.32612270  0.12500000  1
  Mg  Mg3  1  0.66823931  0.33647762  0.62500000  1
  Mg  Mg4  1  0.66306185  0.83693815  0.12500000  1
  Mg  Mg5  1  0.66823931  0.83176069  0.62500000  1
  Mg  Mg6  1  0.33748849  0.16251151  0.38839382  1
  Mg  Mg7  1  0.33748849  0.16251151  0.86160618  1
  Mg  Mg8  1  0.33748849  0.67497799  0.38839382  1
  Mg  Mg9  1  0.33748849  0.67497799  0.86160618  1
  Mg  Mg10  1  0.82502201  0.16251151  0.38839382  1
  Mg  Mg11  1  0.82502201  0.16251151  0.86160618  1
  Mg  Mg12  1  0.83333300  0.66666700  0.37034609  1
  Mg  Mg13  1  0.83333300  0.66666700  0.87965391  1
  Cd  Cd0  1  0.16666700  0.33333300  0.62500000  1
loop_
_geom_bond_atom_site_label_1
_geom_bond_atom_site_label_2
_geom_bond_distance
_geom_bond_site_symmetry_2
K0 Mg0 3.266136 1_555
K0 Mg4 3.266136 1_555
K0 Mg4 3.266136 1_445
K0 Mg0 3.266136 1_545
K0 Mg2 3.266136 1_455
K0 Mg2 3.266136 1_555
K0 Mg7 3.388470 1_554
K0 Mg6 3.388470 1_555
K0 Mg9 3.388476 1_554
K0 Mg8 3.388476 1_555
K0 Mg10 3.388476 1_455
K0 Mg11 3.388476 1_454
Mg0 Mg2 3.195237 1_565
Mg0 Mg4 3.195237 1_555
Mg0 Mg13 3.229935 1_454
Mg0 Mg12 3.229935 1_455
Mg0 Mg2 3.336525 1_455
Mg0 Mg4 3.336525 1_455
Mg0 Mg8 3.337460 1_555
Mg0 Mg9 3.337460 1_554
Mg0 Mg6 3.337466 1_565
Mg0 Mg7 3.337466 1_564
Mg1 Mg9 3.123278 1_555
Mg1 Mg8 3.123278 1_555
Mg1 Mg7 3.123284 1_565
Mg1 Mg6 3.123284 1_565
Mg1 Mg3 3.235071 1_455
Mg1 Mg5 3.235071 1_455
Mg1 Mg12 3.275656 1_455
Mg1 Mg13 3.275656 1_455
Mg1 Mg3 3.296691 1_565
Mg1 Mg5 3.296691 1_555
Mg2 Mg4 3.195237 1_545
Mg2 Mg4 3.336525 1_555
Mg2 Mg7 3.337466 1_554
Mg2 Mg6 3.337466 1_555
Mg3 Mg7 3.123284 1_555
Mg3 Mg6 3.123284 1_555
Mg3 Mg5 3.235071 1_555
Mg3 Mg5 3.296691 1_545
Mg4 Mg8 3.337466 1_555
Mg4 Mg9 3.337466 1_554
Mg5 Mg9 3.123284 1_555
Mg5 Mg8 3.123284 1_555
Mg6 Mg8 3.184453 1_545
Mg6 Mg8 3.347309 1_555
Mg7 Mg9 3.184453 1_545
Mg7 Mg9 3.347309 1_555
Mg10 Mg3 3.123278 1_555
Mg10 Mg5 3.123284 1_545
Mg10 Mg8 3.184453 1_545
Mg10 Mg6 3.184453 1_555
Mg10 Mg12 3.271782 1_555
Mg10 Mg12 3.271782 1_545
Mg10 Mg2 3.337460 1_555
Mg10 Mg4 3.337466 1_545
Mg10 Mg8 3.347309 1_655
Mg10 Mg6 3.347309 1_655
Mg11 Mg3 3.123278 1_555
Mg11 Mg5 3.123284 1_545
Mg11 Mg9 3.184453 1_545
Mg11 Mg7 3.184453 1_555
Mg11 Mg13 3.271782 1_555
Mg11 Mg13 3.271782 1_545
Mg11 Mg2 3.337460 1_556
Mg11 Mg4 3.337466 1_546
Mg11 Mg9 3.347309 1_655
Mg11 Mg7 3.347309 1_655
Mg12 Mg4 3.229928 1_555
Mg12 Mg2 3.229935 1_555
Mg12 Mg6 3.271782 1_555
Mg12 Mg6 3.271782 1_665
Mg12 Mg8 3.271783 1_655
Mg12 Mg8 3.271783 1_555
Mg12 Mg5 3.275649 1_555
Mg12 Mg3 3.275656 1_555
Mg13 Mg4 3.229928 1_556
Mg13 Mg2 3.229935 1_556
Mg13 Mg7 3.271782 1_555
Mg13 Mg7 3.271782 1_665
Mg13 Mg9 3.271783 1_655
Mg13 Mg9 3.271783 1_555
Mg13 Mg5 3.275649 1_555
Mg13 Mg3 3.275656 1_555
Cd0 Mg6 3.160080 1_555
Cd0 Mg7 3.160080 1_555
Cd0 Mg8 3.160086 1_555
Cd0 Mg9 3.160086 1_555
Cd0 Mg10 3.160087 1_455
Cd0 Mg11 3.160087 1_455
Cd0 Mg5 3.265929 1_445
Cd0 Mg1 3.265929 1_545
Cd0 Mg1 3.265929 1_555
Cd0 Mg5 3.265929 1_555
Cd0 Mg3 3.265930 1_455
Cd0 Mg3 3.265930 1_555
