# generated using pymatgen
data_Li3CuB3O7
_symmetry_space_group_name_H-M   'P 1'
_cell_length_a   3.42335500
_cell_length_b   8.86424765
_cell_length_c   9.58656392
_cell_angle_alpha   84.01904790
_cell_angle_beta   89.62903115
_cell_angle_gamma   86.58032448
_symmetry_Int_Tables_number   1
_chemical_formula_structural   Li3CuB3O7
_chemical_formula_sum   'Li6 Cu2 B6 O14'
_cell_volume   288.81003751
_cell_formula_units_Z   2
loop_
 _symmetry_equiv_pos_site_id
 _symmetry_equiv_pos_as_xyz
  1  'x, y, z'
loop_
 _atom_site_type_symbol
 _atom_site_label
 _atom_site_symmetry_multiplicity
 _atom_site_fract_x
 _atom_site_fract_y
 _atom_site_fract_z
 _atom_site_occupancy
  Li  Li0  1  0.50373800  0.59351200  0.63908900  1
  Li  Li1  1  0.49626200  0.40648800  0.36091100  1
  Li  Li2  1  0.47496700  0.75578700  0.04200100  1
  Li  Li3  1  0.52503300  0.24421300  0.95799900  1
  Li  Li4  1  0.01143000  0.52888600  0.13458200  1
  Li  Li5  1  0.98857000  0.47111400  0.86541800  1
  Cu  Cu0  1  0.88994400  0.83524500  0.53901300  1
  Cu  Cu1  1  0.11005600  0.16475500  0.46098700  1
  B  B0  1  0.55938700  0.71008400  0.30342200  1
  B  B1  1  0.44061300  0.28991600  0.69657800  1
  B  B2  1  0.73850100  0.98637700  0.25478300  1
  B  B3  1  0.26149900  0.01362300  0.74521700  1
  B  B4  1  0.94850100  0.24640100  0.16349900  1
  B  B5  1  0.05149900  0.75359900  0.83650100  1
  O  O0  1  0.60233000  0.69423400  0.44595500  1
  O  O1  1  0.39767000  0.30576600  0.55404500  1
  O  O2  1  0.84891200  0.99881300  0.38889900  1
  O  O3  1  0.15108800  0.00118700  0.61110100  1
  O  O4  1  0.01974600  0.29989300  0.29069900  1
  O  O5  1  0.98025400  0.70010700  0.70930100  1
  O  O6  1  0.48282800  0.59418200  0.22654600  1
  O  O7  1  0.51717200  0.40581800  0.77345400  1
  O  O8  1  0.59555800  0.85333100  0.21750700  1
  O  O9  1  0.40444200  0.14666900  0.78249300  1
  O  O10  1  0.77030900  0.10634100  0.15092700  1
  O  O11  1  0.22969100  0.89365900  0.84907300  1
  O  O12  1  0.01396200  0.33024500  0.03990200  1
  O  O13  1  0.98603800  0.66975500  0.96009800  1
loop_
_geom_bond_atom_site_label_1
_geom_bond_atom_site_label_2
_geom_bond_distance
_geom_bond_site_symmetry_2
Li0 O7 1.993604 1_555
Li0 O0 2.005602 1_555
Li0 O5 2.082687 1_555
Li0 O5 2.114779 1_455
Li1 O6 1.993604 1_555
Li1 O1 2.005602 1_555
Li1 O4 2.082687 1_555
Li1 O4 2.114779 1_655
Li2 O8 2.025736 1_555
Li2 O13 2.051074 1_554
Li2 O13 2.072117 1_454
Li2 O6 2.156519 1_555
Li2 O11 2.246330 1_554
Li3 O9 2.025736 1_555
Li3 O12 2.051074 1_556
Li3 O12 2.072117 1_656
Li3 O7 2.156519 1_555
Li3 O10 2.246330 1_556
Li4 O13 1.979493 1_454
Li4 O6 1.988136 1_555
Li4 O12 2.062881 1_555
Li4 O6 2.085093 1_455
Li4 O4 2.391978 1_555
Li5 O12 1.979493 1_656
Li5 O7 1.988136 1_555
Li5 O13 2.062881 1_555
Li5 O7 2.085093 1_655
Li5 O5 2.391978 1_555
Cu0 O0 1.928281 1_555
Cu0 O2 1.932978 1_555
Cu0 O5 1.936581 1_555
Cu0 O3 1.953771 1_665
Cu1 O1 1.928281 1_555
Cu1 O3 1.932978 1_555
Cu1 O4 1.936581 1_555
Cu1 O2 1.953771 1_445
B0 O6 1.363729 1_555
B0 O0 1.366944 1_555
B0 O8 1.451042 1_555
B1 O7 1.363729 1_555
B1 O1 1.366944 1_555
B1 O9 1.451042 1_555
B2 O2 1.359732 1_555
B2 O8 1.384546 1_555
B2 O10 1.387694 1_565
B3 O3 1.359732 1_555
B3 O9 1.384546 1_555
B3 O11 1.387694 1_545
B4 O12 1.356252 1_655
B4 O4 1.381820 1_655
B4 O10 1.431962 1_555
B5 O13 1.356252 1_455
B5 O5 1.381820 1_455
B5 O11 1.431962 1_555
