# generated using pymatgen
data_KMnO2
_symmetry_space_group_name_H-M   'P 1'
_cell_length_a   2.94278100
_cell_length_b   6.36011000
_cell_length_c   13.09746000
_cell_angle_alpha   90.00000000
_cell_angle_beta   90.00000000
_cell_angle_gamma   90.00000000
_symmetry_Int_Tables_number   1
_chemical_formula_structural   KMnO2
_chemical_formula_sum   'K4 Mn4 O8'
_cell_volume   245.13744266
_cell_formula_units_Z   4
loop_
 _symmetry_equiv_pos_site_id
 _symmetry_equiv_pos_as_xyz
  1  'x, y, z'
loop_
 _atom_site_type_symbol
 _atom_site_label
 _atom_site_symmetry_multiplicity
 _atom_site_fract_x
 _atom_site_fract_y
 _atom_site_fract_z
 _atom_site_occupancy
  K  K0  1  0.75000000  0.51641100  0.63754500  1
  K  K1  1  0.75000000  0.98358900  0.13754500  1
  K  K2  1  0.25000000  0.48358900  0.36245500  1
  K  K3  1  0.25000000  0.01641100  0.86245500  1
  Mn  Mn0  1  0.75000000  0.00927800  0.60147400  1
  Mn  Mn1  1  0.25000000  0.99072200  0.39852600  1
  Mn  Mn2  1  0.25000000  0.50927800  0.89852600  1
  Mn  Mn3  1  0.75000000  0.49072200  0.10147400  1
  O  O0  1  0.25000000  0.86854500  0.67145200  1
  O  O1  1  0.75000000  0.13145500  0.32854800  1
  O  O2  1  0.75000000  0.36854500  0.82854800  1
  O  O3  1  0.25000000  0.63145500  0.17145200  1
  O  O4  1  0.25000000  0.18367400  0.54620800  1
  O  O5  1  0.75000000  0.81632600  0.45379200  1
  O  O6  1  0.25000000  0.31632600  0.04620800  1
  O  O7  1  0.75000000  0.68367400  0.95379200  1
loop_
_geom_bond_atom_site_label_1
_geom_bond_atom_site_label_2
_geom_bond_distance
_geom_bond_site_symmetry_2
K0 O2 2.672585 1_555
K0 O0 2.716260 1_555
K0 O0 2.716260 1_655
K0 O4 2.841579 1_555
K0 O4 2.841579 1_655
K0 O5 3.070948 1_555
K1 O1 2.672585 1_565
K1 O3 2.716260 1_655
K1 O3 2.716260 1_555
K1 O6 2.841579 1_565
K1 O6 2.841579 1_665
K1 O7 3.070948 1_554
K2 O3 2.672585 1_555
K2 O1 2.716260 1_555
K2 O1 2.716260 1_455
K2 O5 2.841579 1_455
K2 O5 2.841579 1_555
K2 O4 3.070948 1_555
K3 O0 2.672585 1_545
K3 O2 2.716260 1_455
K3 O2 2.716260 1_555
K3 O7 2.841579 1_445
K3 O7 2.841579 1_545
K3 O6 3.070948 1_556
Mn0 O0 1.950945 1_645
Mn0 O0 1.950945 1_545
Mn0 O4 1.979701 1_555
Mn0 O4 1.979701 1_655
Mn0 O5 2.290713 1_545
Mn1 O1 1.950945 1_565
Mn1 O1 1.950945 1_465
Mn1 O5 1.979701 1_555
Mn1 O5 1.979701 1_455
Mn1 O4 2.290713 1_565
Mn2 O2 1.950945 1_455
Mn2 O2 1.950945 1_555
Mn2 O7 1.979701 1_555
Mn2 O7 1.979701 1_455
Mn2 O6 2.290713 1_556
Mn3 O3 1.950945 1_555
Mn3 O3 1.950945 1_655
Mn3 O6 1.979701 1_655
Mn3 O6 1.979701 1_555
Mn3 O7 2.290713 1_554
