# generated using pymatgen
data_Tb2S3O20
_symmetry_space_group_name_H-M   'P 1'
_cell_length_a   7.48496384
_cell_length_b   7.48496384
_cell_length_c   18.35457318
_cell_angle_alpha   82.26794332
_cell_angle_beta   82.26794332
_cell_angle_gamma   52.75229686
_symmetry_Int_Tables_number   1
_chemical_formula_structural   Tb2S3O20
_chemical_formula_sum   'Tb4 S6 O40'
_cell_volume   809.27824604
_cell_formula_units_Z   2
loop_
 _symmetry_equiv_pos_site_id
 _symmetry_equiv_pos_as_xyz
  1  'x, y, z'
loop_
 _atom_site_type_symbol
 _atom_site_label
 _atom_site_symmetry_multiplicity
 _atom_site_fract_x
 _atom_site_fract_y
 _atom_site_fract_z
 _atom_site_occupancy
  Tb  Tb0  1  0.81239100  0.84808300  0.89320100  1
  Tb  Tb1  1  0.18760900  0.15191700  0.10679900  1
  Tb  Tb2  1  0.15191700  0.18760900  0.60679900  1
  Tb  Tb3  1  0.84808300  0.81239100  0.39320100  1
  S  S0  1  0.75686000  0.81264300  0.58985800  1
  S  S1  1  0.24314000  0.18735700  0.41014200  1
  S  S2  1  0.18735700  0.24314000  0.91014200  1
  S  S3  1  0.81264300  0.75686000  0.08985800  1
  S  S4  1  0.71009900  0.28990100  0.75000000  1
  S  S5  1  0.28990100  0.71009900  0.25000000  1
  O  O0  1  0.34851400  0.27268300  0.68270600  1
  O  O1  1  0.65148600  0.72731700  0.31729400  1
  O  O2  1  0.72731700  0.65148600  0.81729400  1
  O  O3  1  0.27268300  0.34851400  0.18270600  1
  O  O4  1  0.30446500  0.39161800  0.57174100  1
  O  O5  1  0.69553500  0.60838200  0.42825900  1
  O  O6  1  0.60838200  0.69553500  0.92825900  1
  O  O7  1  0.39161800  0.30446500  0.07174100  1
  O  O8  1  0.52421100  0.88350100  0.61235200  1
  O  O9  1  0.47578900  0.11649900  0.38764800  1
  O  O10  1  0.11649900  0.47578900  0.88764800  1
  O  O11  1  0.88350100  0.52421100  0.11235200  1
  O  O12  1  0.76810600  0.90457900  0.51437500  1
  O  O13  1  0.23189400  0.09542100  0.48562500  1
  O  O14  1  0.09542100  0.23189400  0.98562500  1
  O  O15  1  0.90457900  0.76810600  0.01437500  1
  O  O16  1  0.53893900  0.38948000  0.69361600  1
  O  O17  1  0.46106100  0.61052000  0.30638400  1
  O  O18  1  0.61052000  0.46106100  0.80638400  1
  O  O19  1  0.38948000  0.53893900  0.19361600  1
  O  O20  1  0.81419600  0.89218000  0.64638600  1
  O  O21  1  0.18580400  0.10782000  0.35361400  1
  O  O22  1  0.10782000  0.18580400  0.85361400  1
  O  O23  1  0.89218000  0.81419600  0.14638600  1
  O  O24  1  0.43750900  0.09212700  0.90924900  1
  O  O25  1  0.56249100  0.90787300  0.09075100  1
  O  O26  1  0.90787300  0.56249100  0.59075100  1
  O  O27  1  0.09212700  0.43750900  0.40924900  1
  O  O28  1  0.10970100  0.87796000  0.62586900  1
  O  O29  1  0.89029900  0.12204000  0.37413100  1
  O  O30  1  0.12204000  0.89029900  0.87413100  1
  O  O31  1  0.87796000  0.10970100  0.12586900  1
  O  O32  1  0.80161700  0.13640700  0.93288200  1
  O  O33  1  0.19838300  0.86359300  0.06711800  1
  O  O34  1  0.86359300  0.19838300  0.56711800  1
  O  O35  1  0.13640700  0.80161700  0.43288200  1
  O  O36  1  0.75605000  0.07770600  0.78664600  1
  O  O37  1  0.24395000  0.92229400  0.21335400  1
  O  O38  1  0.92229400  0.24395000  0.71335400  1
  O  O39  1  0.07770600  0.75605000  0.28664600  1
loop_
_geom_bond_atom_site_label_1
_geom_bond_atom_site_label_2
_geom_bond_distance
_geom_bond_site_symmetry_2
O0 Tb2 2.537058 1_555
O1 Tb3 2.537058 1_555
O2 Tb0 2.537058 1_555
O3 Tb1 2.537058 1_555
O4 Tb2 2.387059 1_555
O5 Tb3 2.387059 1_555
O6 Tb0 2.387059 1_555
O7 Tb1 2.387059 1_555
O8 S0 1.493847 1_555
O8 Tb2 2.300542 1_565
O9 S1 1.493847 1_555
O9 Tb3 2.300542 1_545
O10 S2 1.493847 1_555
O10 Tb0 2.300542 1_455
O11 S3 1.493847 1_555
O11 Tb1 2.300542 1_655
O12 S0 1.477266 1_555
O12 Tb3 2.309928 1_555
O13 S1 1.477266 1_555
O13 Tb2 2.309928 1_555
O14 S2 1.477266 1_555
O14 Tb1 2.309928 1_556
O15 S3 1.477266 1_555
O15 Tb0 2.309928 1_554
O16 S4 1.503710 1_555
O17 S5 1.503710 1_555
O18 S4 1.503710 1_555
O19 S5 1.503710 1_555
O20 S0 1.486742 1_555
O21 S1 1.486742 1_555
O22 S2 1.486742 1_555
O23 S3 1.486742 1_555
O24 S2 1.489457 1_555
O24 Tb0 2.239357 1_545
O25 S3 1.489457 1_555
O25 Tb1 2.239357 1_565
O26 S0 1.489457 1_555
O26 Tb2 2.239357 1_655
O27 S1 1.489457 1_555
O27 Tb3 2.239357 1_455
O28 Tb2 2.496525 1_565
O29 Tb3 2.496525 1_545
O30 Tb0 2.496525 1_455
O31 Tb1 2.496525 1_655
O32 Tb0 2.321810 1_545
O33 Tb1 2.321810 1_565
O34 Tb2 2.321810 1_655
O35 Tb3 2.321810 1_455
O36 S4 1.485542 1_555
O36 Tb0 2.323128 1_545
O37 S5 1.485542 1_555
O37 Tb1 2.323128 1_565
O38 S4 1.485542 1_555
O38 Tb2 2.323128 1_655
O39 S5 1.485542 1_555
O39 Tb3 2.323128 1_455
