# generated using pymatgen
data_GdErAl6
_symmetry_space_group_name_H-M   'P 1'
_cell_length_a   14.57856032
_cell_length_b   14.57856032
_cell_length_c   14.57856045
_cell_angle_alpha   24.54421775
_cell_angle_beta   24.54421775
_cell_angle_gamma   24.54421660
_symmetry_Int_Tables_number   1
_chemical_formula_structural   GdErAl6
_chemical_formula_sum   'Gd3 Er3 Al18'
_cell_volume   470.09405113
_cell_formula_units_Z   3
loop_
 _symmetry_equiv_pos_site_id
 _symmetry_equiv_pos_as_xyz
  1  'x, y, z'
loop_
 _atom_site_type_symbol
 _atom_site_label
 _atom_site_symmetry_multiplicity
 _atom_site_fract_x
 _atom_site_fract_y
 _atom_site_fract_z
 _atom_site_occupancy
  Gd  Gd0  1  0.11050300  0.11050300  0.11050300  1
  Gd  Gd1  1  0.89243800  0.89243800  0.89243800  1
  Gd  Gd2  1  0.39222200  0.39222200  0.39222200  1
  Er  Er0  1  0.00135800  0.00135800  0.00135800  1
  Er  Er1  1  0.50136200  0.50136200  0.50136200  1
  Er  Er2  1  0.61061300  0.61061300  0.61061300  1
  Al  Al0  1  0.92605500  0.37169800  0.37169800  1
  Al  Al1  1  0.42662100  0.87110100  0.87110100  1
  Al  Al2  1  0.37169800  0.37169800  0.92605500  1
  Al  Al3  1  0.87110100  0.87110100  0.42662100  1
  Al  Al4  1  0.37169800  0.92605500  0.37169800  1
  Al  Al5  1  0.87110100  0.42662100  0.87110100  1
  Al  Al6  1  0.57715300  0.13126000  0.13126000  1
  Al  Al7  1  0.07738600  0.63115100  0.63115100  1
  Al  Al8  1  0.13126000  0.13126000  0.57715300  1
  Al  Al9  1  0.63115100  0.63115100  0.07738600  1
  Al  Al10  1  0.13126000  0.57715300  0.13126000  1
  Al  Al11  1  0.63115100  0.07738600  0.63115100  1
  Al  Al12  1  0.50250300  0.50250300  0.99876600  1
  Al  Al13  1  0.00215400  0.00215400  0.50002000  1
  Al  Al14  1  0.50250300  0.99876600  0.50250300  1
  Al  Al15  1  0.00215400  0.50002000  0.00215400  1
  Al  Al16  1  0.99876600  0.50250300  0.50250300  1
  Al  Al17  1  0.50002000  0.00215400  0.00215400  1
loop_
_geom_bond_atom_site_label_1
_geom_bond_atom_site_label_2
_geom_bond_distance
_geom_bond_site_symmetry_2
Al0 Al4 2.761865 1_645
Al0 Al2 2.761866 1_654
Al0 Al13 2.884668 1_655
Al0 Al15 2.884668 1_655
Al0 Al8 2.886414 1_655
Al0 Al10 2.886414 1_655
Al0 Er2 3.033378 1_555
Al0 Er1 3.065333 1_555
Al0 Gd1 3.106828 1_554
Al0 Gd1 3.106828 1_545
Al1 Al5 2.754658 1_555
Al1 Al3 2.754658 1_555
Al1 Al12 2.880875 1_555
Al1 Al14 2.880875 1_555
Al1 Al9 2.893188 1_556
Al1 Al11 2.893188 1_565
Al1 Gd0 3.039286 1_566
Al1 Er0 3.061401 1_566
Al1 Gd2 3.107081 1_565
Al1 Gd2 3.107081 1_556
Al2 Al4 2.761866 1_546
Al2 Al6 2.886414 1_556
Al2 Er2 3.033378 1_555
Al2 Er1 3.065333 1_555
Al2 Gd1 3.106828 1_545
Al2 Gd1 3.106828 1_455
Al3 Al5 2.754658 1_555
Al3 Al7 2.893188 1_655
Al3 Gd0 3.039286 1_665
Al3 Er0 3.061401 1_665
Al3 Gd2 3.107081 1_655
Al3 Gd2 3.107081 1_565
Al4 Al8 2.886414 1_565
Al4 Al6 2.886414 1_565
Al4 Er2 3.033378 1_555
Al4 Er1 3.065333 1_555
Al4 Gd1 3.106828 1_554
Al4 Gd1 3.106828 1_455
Al5 Al9 2.893188 1_556
Al5 Al7 2.893188 1_655
Al5 Gd0 3.039286 1_656
Al5 Er0 3.061401 1_656
Al5 Gd2 3.107081 1_655
Al5 Gd2 3.107081 1_556
Al6 Al8 2.763415 1_555
Al6 Gd1 3.032483 1_544
Al6 Er0 3.054378 1_655
Al6 Er2 3.106758 1_545
Al6 Er2 3.106758 1_554
Al7 Al9 2.765534 1_456
Al7 Gd2 3.038781 1_555
Al7 Er1 3.053551 1_555
Al7 Gd0 3.106859 1_556
Al7 Gd0 3.106859 1_565
Al8 Gd1 3.032483 1_445
Al8 Er0 3.054378 1_556
Al8 Er2 3.106757 1_455
Al8 Er2 3.106757 1_545
Al9 Gd2 3.038781 1_555
Al9 Er1 3.053552 1_555
Al9 Gd0 3.106859 1_565
Al9 Gd0 3.106859 1_655
Al10 Al6 2.763415 1_555
Al10 Al8 2.763415 1_555
Al10 Al12 2.880453 1_554
Al10 Al16 2.880453 1_455
Al10 Al2 2.886414 1_554
Al10 Gd1 3.032483 1_454
Al10 Er0 3.054378 1_565
Al10 Er2 3.106758 1_455
Al10 Er2 3.106758 1_554
Al11 Al7 2.765534 1_645
Al11 Al9 2.765534 1_546
Al11 Al13 2.884917 1_655
Al11 Al17 2.884917 1_556
Al11 Al3 2.893188 1_545
Al11 Gd2 3.038781 1_555
Al11 Er1 3.053551 1_555
Al11 Gd0 3.106859 1_556
Al11 Gd0 3.106859 1_655
Al12 Al6 2.880453 1_556
Al12 Al5 2.880875 1_555
Al12 Er2 3.009539 1_555
Al12 Gd2 3.036313 1_556
Al12 Al14 3.075582 1_555
Al12 Al16 3.075582 1_555
Al12 Er0 3.098774 1_656
Al12 Er0 3.098774 1_566
Al12 Al14 3.121902 1_546
Al12 Al16 3.121902 1_456
Al13 Al4 2.884668 1_545
Al13 Al7 2.884917 1_545
Al13 Gd0 3.023034 1_555
Al13 Gd1 3.033960 1_445
Al13 Al17 3.085517 1_555
Al13 Al15 3.085517 1_555
Al13 Er1 3.098753 1_455
Al13 Er1 3.098753 1_545
Al13 Al15 3.111968 1_546
Al13 Al17 3.111968 1_456
Al14 Al8 2.880453 1_565
Al14 Al6 2.880453 1_565
Al14 Al3 2.880875 1_555
Al14 Er2 3.009539 1_555
Al14 Gd2 3.036313 1_565
Al14 Al16 3.075582 1_555
Al14 Er0 3.098774 1_566
Al14 Er0 3.098774 1_665
Al14 Al16 3.121902 1_465
Al15 Al2 2.884668 1_554
Al15 Al9 2.884917 1_455
Al15 Al7 2.884917 1_554
Al15 Gd0 3.023034 1_555
Al15 Gd1 3.033959 1_454
Al15 Al17 3.085517 1_555
Al15 Er1 3.098753 1_455
Al15 Er1 3.098753 1_554
Al15 Al17 3.111967 1_465
Al16 Al8 2.880453 1_655
Al16 Al3 2.880875 1_555
Al16 Al5 2.880875 1_555
Al16 Er2 3.009539 1_555
Al16 Gd2 3.036313 1_655
Al16 Er0 3.098774 1_656
Al16 Er0 3.098774 1_665
Al17 Al2 2.884668 1_554
Al17 Al4 2.884668 1_545
Al17 Al9 2.884917 1_545
Al17 Gd0 3.023034 1_555
Al17 Gd1 3.033959 1_544
Al17 Er1 3.098753 1_545
Al17 Er1 3.098753 1_554
