# generated using pymatgen
data_Mg17Al11Cd
_symmetry_space_group_name_H-M   'P 1'
_cell_length_a   9.18865092
_cell_length_b   9.20249155
_cell_length_c   9.12787284
_cell_angle_alpha   109.47796256
_cell_angle_beta   109.41627788
_cell_angle_gamma   109.81772243
_symmetry_Int_Tables_number   1
_chemical_formula_structural   Mg17Al11Cd
_chemical_formula_sum   'Mg17 Al11 Cd1'
_cell_volume   591.95820828
_cell_formula_units_Z   1
loop_
 _symmetry_equiv_pos_site_id
 _symmetry_equiv_pos_as_xyz
  1  'x, y, z'
loop_
 _atom_site_type_symbol
 _atom_site_label
 _atom_site_symmetry_multiplicity
 _atom_site_fract_x
 _atom_site_fract_y
 _atom_site_fract_z
 _atom_site_occupancy
  Mg  Mg0  1  0.00114800  0.34326200  0.99999900  1
  Mg  Mg1  1  0.00147900  0.00188700  0.99999900  1
  Mg  Mg2  1  0.31557200  0.60192000  0.00000000  1
  Mg  Mg3  1  0.34356300  0.99982100  0.00000000  1
  Mg  Mg4  1  0.59877300  0.31072300  0.00000100  1
  Mg  Mg5  1  0.68374100  0.68421700  0.28838800  1
  Mg  Mg6  1  0.60265100  0.00002300  0.31634600  1
  Mg  Mg7  1  0.00164400  0.60130700  0.31787300  1
  Mg  Mg8  1  0.00154600  0.00305000  0.34673100  1
  Mg  Mg9  1  0.39706300  0.71299700  0.39722200  1
  Mg  Mg10  1  0.71366900  0.39733100  0.39827200  1
  Mg  Mg11  1  0.31539700  0.99905900  0.60172900  1
  Mg  Mg12  1  0.99984000  0.31577400  0.60277900  1
  Mg  Mg13  1  0.65481400  0.65631700  0.65326700  1
  Mg  Mg14  1  0.68377100  0.28343500  0.68212700  1
  Mg  Mg15  1  0.28630400  0.68367800  0.68365400  1
  Mg  Mg16  1  0.39535400  0.39583000  0.71161300  1
  Al  Al0  1  0.62861900  0.82022600  0.00000000  1
  Al  Al1  1  0.36679700  0.36692200  0.18169700  1
  Al  Al2  1  0.81976200  0.18681600  0.18632900  1
  Al  Al3  1  0.19153000  0.82119000  0.18671000  1
  Al  Al4  1  0.18166400  0.36619600  0.36543500  1
  Al  Al5  1  0.36685600  0.18226500  0.36604200  1
  Al  Al6  1  0.00081300  0.81622300  0.63395800  1
  Al  Al7  1  0.81623000  0.00076200  0.63456700  1
  Al  Al8  1  0.00481900  0.63448000  0.81328900  1
  Al  Al9  1  0.63343400  0.00048700  0.81367200  1
  Al  Al10  1  0.18509900  0.18522400  0.81830100  1
  Cd  Cd0  1  0.80804900  0.62857800  0.00000000  1
loop_
_geom_bond_atom_site_label_1
_geom_bond_atom_site_label_2
_geom_bond_distance
_geom_bond_site_symmetry_2
Mg0 Mg2 3.057756 1_556
Mg0 Mg14 3.073547 1_455
Mg0 Mg7 3.073555 1_556
Mg0 Mg1 3.142533 1_555
Mg1 Mg3 3.149784 1_546
Mg1 Mg8 3.161167 1_556
Mg1 Mg13 3.161170 1_445
Mg2 Mg9 3.155348 1_555
Mg2 Mg5 3.155948 1_555
Mg2 Mg6 3.169565 1_565
Mg3 Mg4 3.022514 1_565
Mg3 Mg6 3.070600 1_565
Mg4 Mg5 3.183183 1_555
Mg4 Mg7 3.200856 1_655
Mg5 Mg8 3.087760 1_665
Mg5 Mg9 3.167553 1_555
Mg5 Mg6 3.188484 1_565
Mg5 Mg7 3.211363 1_655
Mg6 Mg9 3.151918 1_545
Mg7 Mg9 3.162924 1_555
Mg10 Mg13 3.066201 1_555
Mg10 Mg7 3.147339 1_655
Mg10 Mg4 3.148203 1_555
Mg10 Mg12 3.157737 1_555
Mg10 Mg14 3.158536 1_555
Mg10 Mg6 3.179350 1_555
Mg10 Mg5 3.182203 1_555
Mg11 Mg8 3.066220 1_565
Mg11 Mg14 3.147346 1_565
Mg11 Mg4 3.148211 1_566
Mg11 Mg9 3.157737 1_555
Mg11 Mg7 3.158542 1_555
Mg11 Mg15 3.179335 1_555
Mg11 Mg16 3.182209 1_565
Mg12 Mg8 3.051891 1_655
Mg12 Mg15 3.151934 1_655
Mg12 Mg2 3.155346 1_656
Mg12 Mg6 3.161887 1_555
Mg12 Mg14 3.162912 1_555
Mg12 Mg16 3.167565 1_655
Mg13 Mg9 3.051885 1_555
Mg13 Mg16 3.087753 1_555
Mg14 Mg6 3.118552 1_555
Mg14 Mg4 3.200869 1_556
Mg14 Mg16 3.211357 1_555
Mg15 Mg3 3.070591 1_556
Mg15 Mg7 3.118541 1_555
Mg15 Mg9 3.161897 1_555
Mg15 Mg2 3.169569 1_556
Mg15 Mg16 3.188497 1_555
Mg16 Mg2 3.155945 1_556
Mg16 Mg4 3.183189 1_556
Al0 Al9 2.743751 1_564
Al0 Al2 2.743758 1_565
Al0 Cd0 2.792905 1_555
Al0 Mg2 2.896850 1_555
Al0 Mg6 2.944859 1_565
Al0 Mg15 2.944867 1_554
Al0 Mg8 3.149420 1_665
Al0 Mg13 3.149433 1_554
Al0 Mg16 3.239295 1_554
Al0 Mg5 3.239303 1_555
Al0 Mg1 3.263308 1_664
Al1 Al10 2.704131 1_554
Al1 Al4 2.757402 1_555
Al1 Al5 2.761512 1_555
Al1 Mg5 2.899609 1_555
Al1 Mg9 2.991259 1_555
Al1 Mg10 2.997038 1_555
Al1 Mg0 3.105613 1_554
Al1 Mg3 3.122154 1_545
Al1 Mg4 3.176070 1_555
Al1 Mg2 3.195614 1_555
Al1 Mg1 3.200040 1_554
Al2 Al4 2.705467 1_655
Al2 Al9 2.773045 1_554
Al2 Mg10 2.912217 1_555
Al2 Mg4 2.980479 1_555
Al2 Mg6 2.992067 1_555
Al2 Mg0 3.103854 1_654
Al2 Mg8 3.119959 1_655
Al2 Mg7 3.173821 1_655
Al2 Mg12 3.174017 1_555
Al2 Mg1 3.234420 1_654
Al3 Al5 2.702873 1_565
Al3 Al8 2.778730 1_554
Al3 Cd0 2.867123 1_455
Al3 Mg9 2.896272 1_555
Al3 Mg2 2.972004 1_555
Al3 Mg7 3.030290 1_555
Al3 Mg3 3.074482 1_555
Al3 Mg6 3.145330 1_565
Al3 Mg8 3.166676 1_565
Al3 Mg11 3.171809 1_555
Al3 Mg1 3.255682 1_564
Al4 Al5 2.777345 1_555
Al4 Mg15 2.911426 1_555
Al4 Mg16 2.975184 1_555
Al4 Mg9 2.984030 1_555
Al4 Mg0 3.088204 1_554
Al4 Mg8 3.101231 1_555
Al4 Mg7 3.190850 1_555
Al4 Mg1 3.195952 1_554
Al4 Mg12 3.201764 1_455
Al5 Mg14 2.907803 1_555
Al5 Mg16 2.974646 1_555
Al5 Mg10 2.978382 1_555
Al5 Mg3 3.093226 1_545
Al5 Mg8 3.110873 1_555
Al5 Mg11 3.201373 1_545
Al5 Mg1 3.202360 1_554
Al5 Mg6 3.212880 1_555
Al6 Al8 2.702866 1_555
Al6 Al7 2.777338 1_465
Al6 Mg7 2.907812 1_555
Al6 Mg5 2.974636 1_455
Al6 Mg11 2.978384 1_555
Al6 Mg3 3.093230 1_556
Al6 Mg13 3.110866 1_455
Al6 Mg10 3.201363 1_455
Al6 Mg1 3.202343 1_565
Al6 Mg15 3.212874 1_555
Al7 Al9 2.705459 1_555
Al7 Mg6 2.911430 1_555
Al7 Mg5 2.975191 1_545
Al7 Mg12 2.984015 1_555
Al7 Mg0 3.088177 1_655
Al7 Mg13 3.101238 1_545
Al7 Mg14 3.190857 1_555
Al7 Mg1 3.195927 1_655
Al7 Mg9 3.201756 1_545
Al8 Cd0 2.867123 1_456
Al8 Mg12 2.896273 1_455
Al8 Mg2 2.972014 1_556
Al8 Mg14 3.030282 1_455
Al8 Mg3 3.074484 1_556
Al8 Mg15 3.145323 1_555
Al8 Mg13 3.166667 1_455
Al8 Mg10 3.171792 1_455
Al8 Mg1 3.255672 1_565
Al9 Mg11 2.912224 1_545
Al9 Mg4 2.980489 1_556
Al9 Mg15 2.992070 1_545
Al9 Mg0 3.103843 1_655
Al9 Mg13 3.119969 1_545
Al9 Mg14 3.173835 1_555
Al9 Mg9 3.174013 1_545
Al9 Mg1 3.234404 1_655
Al10 Al7 2.757387 1_455
Al10 Al6 2.761504 1_545
Al10 Mg16 2.899608 1_555
Al10 Mg12 2.991243 1_455
Al10 Mg11 2.997025 1_545
Al10 Mg0 3.105613 1_555
Al10 Mg3 3.122161 1_546
Al10 Mg4 3.176082 1_556
Al10 Mg2 3.195621 1_556
Al10 Mg1 3.200040 1_555
Cd0 Mg4 2.905143 1_555
Cd0 Mg14 3.000463 1_554
Cd0 Mg7 3.000468 1_655
Cd0 Mg8 3.143906 1_665
Cd0 Mg13 3.143913 1_554
Cd0 Mg16 3.161158 1_554
Cd0 Mg5 3.161167 1_555
Cd0 Mg1 3.289480 1_664
