# generated using pymatgen
data_Li4Mn3CoO8
_symmetry_space_group_name_H-M   'P 1'
_cell_length_a   2.99324100
_cell_length_b   2.99324240
_cell_length_c   19.58848658
_cell_angle_alpha   85.61816502
_cell_angle_beta   90.00000000
_cell_angle_gamma   119.99999554
_symmetry_Int_Tables_number   1
_chemical_formula_structural   Li4Mn3CoO8
_chemical_formula_sum   'Li4 Mn3 Co1 O8'
_cell_volume   151.39739251
_cell_formula_units_Z   1
loop_
 _symmetry_equiv_pos_site_id
 _symmetry_equiv_pos_as_xyz
  1  'x, y, z'
loop_
 _atom_site_type_symbol
 _atom_site_label
 _atom_site_symmetry_multiplicity
 _atom_site_fract_x
 _atom_site_fract_y
 _atom_site_fract_z
 _atom_site_occupancy
  Li  Li0  1  0.87517100  0.75034200  0.37448700  1
  Li  Li1  1  0.12482900  0.24965800  0.62551300  1
  Li  Li2  1  0.37292000  0.74584000  0.88124000  1
  Li  Li3  1  0.62708000  0.25416000  0.11876000  1
  Mn  Mn0  1  0.25045500  0.50091000  0.24863500  1
  Mn  Mn1  1  0.50000000  0.00000000  0.50000000  1
  Mn  Mn2  1  0.74954500  0.49909000  0.75136500  1
  Co  Co0  1  0.00000000  0.00000000  0.00000000  1
  O  O0  1  0.81415000  0.62829900  0.55755100  1
  O  O1  1  0.06425200  0.12850400  0.80724400  1
  O  O2  1  0.31478200  0.62956300  0.05565500  1
  O  O3  1  0.56459600  0.12919100  0.30621300  1
  O  O4  1  0.93574800  0.87149600  0.19275600  1
  O  O5  1  0.18585000  0.37170100  0.44244900  1
  O  O6  1  0.43540400  0.87080900  0.69378700  1
  O  O7  1  0.68521800  0.37043700  0.94434500  1
loop_
_geom_bond_atom_site_label_1
_geom_bond_atom_site_label_2
_geom_bond_distance
_geom_bond_site_symmetry_2
Li0 O5 2.178299 1_655
Li0 O5 2.178301 1_555
Li0 O5 2.178301 1_665
Li0 O3 2.182010 1_565
Li0 O3 2.182012 1_665
Li0 O3 2.182012 1_555
Li1 O0 2.178299 1_455
Li1 O0 2.178301 1_555
Li1 O0 2.178301 1_445
Li1 O6 2.182010 1_545
Li1 O6 2.182012 1_445
Li1 O6 2.182012 1_555
Li2 O7 2.121938 1_555
Li2 O7 2.121940 1_455
Li2 O7 2.121940 1_565
Li2 O1 2.251912 1_665
Li2 O1 2.251912 1_565
Li2 O1 2.251912 1_555
Li3 O2 2.121938 1_555
Li3 O2 2.121940 1_655
Li3 O2 2.121940 1_545
Li3 O4 2.251912 1_445
Li3 O4 2.251912 1_545
Li3 O4 2.251912 1_555
Mn0 O4 2.043352 1_555
Mn0 O4 2.043353 1_455
Mn0 O4 2.043353 1_445
Mn0 O3 2.061232 1_455
Mn0 O3 2.061232 1_565
Mn0 O3 2.061234 1_555
Mn1 O5 2.060944 1_655
Mn1 O0 2.060944 1_445
Mn1 O0 2.060945 1_555
Mn1 O5 2.060945 1_545
Mn1 O5 2.060947 1_555
Mn1 O0 2.060947 1_545
Mn2 O1 2.043352 1_555
Mn2 O1 2.043353 1_655
Mn2 O1 2.043353 1_665
Mn2 O6 2.061232 1_655
Mn2 O6 2.061232 1_545
Mn2 O6 2.061234 1_555
Co0 O2 2.041023 1_445
Co0 O7 2.041023 1_554
Co0 O2 2.041023 1_555
Co0 O7 2.041023 1_444
Co0 O2 2.041025 1_545
Co0 O7 2.041025 1_454
