# generated using pymatgen
data_LaMgAu
_symmetry_space_group_name_H-M   'P 1'
_cell_length_a   7.98519970
_cell_length_b   7.98519970
_cell_length_c   4.12231289
_cell_angle_alpha   90.00000000
_cell_angle_beta   90.00000000
_cell_angle_gamma   120.00000962
_symmetry_Int_Tables_number   1
_chemical_formula_structural   LaMgAu
_chemical_formula_sum   'La3 Mg3 Au3'
_cell_volume   227.63713214
_cell_formula_units_Z   3
loop_
 _symmetry_equiv_pos_site_id
 _symmetry_equiv_pos_as_xyz
  1  'x, y, z'
loop_
 _atom_site_type_symbol
 _atom_site_label
 _atom_site_symmetry_multiplicity
 _atom_site_fract_x
 _atom_site_fract_y
 _atom_site_fract_z
 _atom_site_occupancy
  La  La0  1  0.58255536  -0.00000000  0.00000000  1
  La  La1  1  -0.00000000  0.58255536  -0.00000000  1
  La  La2  1  0.41744464  0.41744464  -0.00000000  1
  Mg  Mg0  1  0.23582597  -0.00000000  0.50000000  1
  Mg  Mg1  1  -0.00000000  0.23582597  0.50000000  1
  Mg  Mg2  1  0.76417403  0.76417403  0.50000000  1
  Au  Au0  1  0.33333300  0.66666700  0.50000000  1
  Au  Au1  1  0.66666700  0.33333300  0.50000000  1
  Au  Au2  1  -0.00000000  0.00000000  0.00000000  1
loop_
_geom_bond_atom_site_label_1
_geom_bond_atom_site_label_2
_geom_bond_distance
_geom_bond_site_symmetry_2
Au0 Mg0 3.124661 1_565
Au0 Mg1 3.124666 1_555
Au0 Mg2 3.124669 1_555
Au0 La1 3.161730 1_556
Au0 La1 3.161730 1_555
Au0 La0 3.161732 1_566
Au0 La0 3.161732 1_565
Au0 La2 3.161737 1_556
Au0 La2 3.161737 1_555
Au1 Mg1 3.124661 1_655
Au1 Mg0 3.124666 1_555
Au1 Mg2 3.124669 1_555
Au1 La0 3.161730 1_556
Au1 La0 3.161730 1_555
Au1 La1 3.161732 1_655
Au1 La1 3.161732 1_656
Au1 La2 3.161737 1_556
Au1 La2 3.161737 1_555
Au2 Mg2 2.791863 1_444
Au2 Mg2 2.791863 1_445
Au2 Mg0 2.791863 1_554
Au2 Mg1 2.791863 1_554
Au2 Mg1 2.791863 1_555
Au2 Mg0 2.791863 1_555
Au2 La2 3.333378 1_555
Au2 La0 3.333379 1_455
Au2 La1 3.333379 1_545
