# generated using pymatgen
data_Sr2TiMnO6
_symmetry_space_group_name_H-M   'P 1'
_cell_length_a   5.50591241
_cell_length_b   5.50591241
_cell_length_c   9.53652003
_cell_angle_alpha   73.22134512
_cell_angle_beta   73.22134512
_cell_angle_gamma   60.00000000
_symmetry_Int_Tables_number   1
_chemical_formula_structural   Sr2TiMnO6
_chemical_formula_sum   'Sr4 Ti2 Mn2 O12'
_cell_volume   236.04939511
_cell_formula_units_Z   2
loop_
 _symmetry_equiv_pos_site_id
 _symmetry_equiv_pos_as_xyz
  1  'x, y, z'
loop_
 _atom_site_type_symbol
 _atom_site_label
 _atom_site_symmetry_multiplicity
 _atom_site_fract_x
 _atom_site_fract_y
 _atom_site_fract_z
 _atom_site_occupancy
  Sr  Sr0  1  0.62500000  0.62500000  0.12500000  1
  Sr  Sr1  1  0.12500000  0.12500000  0.62500000  1
  Sr  Sr2  1  0.87500000  0.87500000  0.37500000  1
  Sr  Sr3  1  0.37500000  0.37500000  0.87500000  1
  Ti  Ti0  1  0.00000000  0.00000000  0.00000000  1
  Ti  Ti1  1  0.50000000  0.50000000  0.50000000  1
  Mn  Mn0  1  0.75000000  0.75000000  0.75000000  1
  Mn  Mn1  1  0.25000000  0.25000000  0.25000000  1
  O  O0  1  0.37373000  0.37373000  0.37373000  1
  O  O1  1  0.87373000  0.87373000  0.87373000  1
  O  O2  1  0.12627000  0.12627000  0.12627000  1
  O  O3  1  0.62627000  0.62627000  0.62627000  1
  O  O4  1  0.12627000  0.62119000  0.12627000  1
  O  O5  1  0.62627000  0.12119000  0.62627000  1
  O  O6  1  0.37373000  0.87881000  0.37373000  1
  O  O7  1  0.87373000  0.37881000  0.87373000  1
  O  O8  1  0.62119000  0.12627000  0.12627000  1
  O  O9  1  0.12119000  0.62627000  0.62627000  1
  O  O10  1  0.87881000  0.37373000  0.37373000  1
  O  O11  1  0.37881000  0.87373000  0.87373000  1
loop_
_geom_bond_atom_site_label_1
_geom_bond_atom_site_label_2
_geom_bond_distance
_geom_bond_site_symmetry_2
Mn0 O9 1.926856 1_655
Mn0 O5 1.926856 1_565
Mn0 O3 1.926856 1_555
Mn0 O7 1.926856 1_555
Mn0 O11 1.926856 1_555
Mn0 O1 1.926856 1_555
Mn1 O6 1.926856 1_545
Mn1 O2 1.926856 1_555
Mn1 O10 1.926856 1_455
Mn1 O8 1.926856 1_555
Mn1 O4 1.926856 1_555
Mn1 O0 1.926856 1_555
O0 Ti1 1.966412 1_555
O0 Sr1 2.753027 1_555
O0 Sr2 2.753027 1_455
O0 Sr2 2.753027 1_545
O0 Sr0 2.753027 1_555
O1 Ti0 1.966412 1_666
O1 Sr1 2.753027 1_665
O1 Sr0 2.753027 1_556
O1 Sr3 2.753027 1_565
O1 Sr3 2.753027 1_655
O2 Ti0 1.966412 1_555
O2 Sr3 2.753027 1_554
O2 Sr0 2.753027 1_545
O2 Sr0 2.753027 1_455
O2 Sr2 2.753027 1_445
O3 Ti1 1.966412 1_555
O3 Sr1 2.753027 1_655
O3 Sr1 2.753027 1_565
O3 Sr2 2.753027 1_555
O3 Sr3 2.753027 1_555
O4 Ti0 1.966412 1_565
O4 Sr2 2.753027 1_455
O4 Sr0 2.753027 1_555
O4 Sr0 2.753027 1_455
O4 Sr3 2.753027 1_554
O5 Ti1 1.966412 1_555
O5 Sr3 2.753027 1_555
O5 Sr1 2.753027 1_655
O5 Sr1 2.753027 1_555
O5 Sr2 2.753027 1_545
O6 Ti1 1.966412 1_555
O6 Sr1 2.753027 1_565
O6 Sr2 2.753027 1_555
O6 Sr0 2.753027 1_555
O6 Sr2 2.753027 1_455
O7 Ti0 1.966412 1_656
O7 Sr0 2.753027 1_556
O7 Sr3 2.753027 1_655
O7 Sr1 2.753027 1_655
O7 Sr3 2.753027 1_555
O8 Ti0 1.966412 1_655
O8 Sr3 2.753027 1_554
O8 Sr2 2.753027 1_545
O8 Sr0 2.753027 1_555
O8 Sr0 2.753027 1_545
O9 Ti1 1.966412 1_555
O9 Sr3 2.753027 1_555
O9 Sr1 2.753027 1_555
O9 Sr2 2.753027 1_455
O9 Sr1 2.753027 1_565
O10 Ti1 1.966412 1_555
O10 Sr1 2.753027 1_655
O10 Sr2 2.753027 1_555
O10 Sr0 2.753027 1_555
O10 Sr2 2.753027 1_545
O11 Ti0 1.966412 1_566
O11 Sr0 2.753027 1_556
O11 Sr3 2.753027 1_565
O11 Sr1 2.753027 1_565
O11 Sr3 2.753027 1_555
