# generated using pymatgen
data_SmCoAsO
_symmetry_space_group_name_H-M   'P 1'
_cell_length_a   4.01789600
_cell_length_b   4.01789600
_cell_length_c   7.98591700
_cell_angle_alpha   90.00000000
_cell_angle_beta   90.00000000
_cell_angle_gamma   90.00000000
_symmetry_Int_Tables_number   1
_chemical_formula_structural   SmCoAsO
_chemical_formula_sum   'Sm2 Co2 As2 O2'
_cell_volume   128.92055739
_cell_formula_units_Z   2
loop_
 _symmetry_equiv_pos_site_id
 _symmetry_equiv_pos_as_xyz
  1  'x, y, z'
loop_
 _atom_site_type_symbol
 _atom_site_label
 _atom_site_symmetry_multiplicity
 _atom_site_fract_x
 _atom_site_fract_y
 _atom_site_fract_z
 _atom_site_occupancy
  Sm  Sm0  1  0.00000000  0.50000000  0.85714700  1
  Sm  Sm1  1  0.50000000  0.00000000  0.14285300  1
  Co  Co0  1  0.00000000  0.00000000  0.50000000  1
  Co  Co1  1  0.50000000  0.50000000  0.50000000  1
  As  As0  1  0.00000000  0.50000000  0.36018500  1
  As  As1  1  0.50000000  0.00000000  0.63981500  1
  O  O0  1  0.00000000  0.00000000  0.00000000  1
  O  O1  1  0.50000000  0.50000000  0.00000000  1
loop_
_geom_bond_atom_site_label_1
_geom_bond_atom_site_label_2
_geom_bond_distance
_geom_bond_site_symmetry_2
As0 Co1 2.298382 1_555
As0 Co0 2.298382 1_565
As0 Co0 2.298382 1_555
As0 Co1 2.298382 1_455
As1 Co0 2.298382 1_655
As1 Co1 2.298382 1_545
As1 Co1 2.298382 1_555
As1 Co0 2.298382 1_555
O0 Sm1 2.310265 1_555
O0 Sm1 2.310265 1_455
O0 Sm0 2.310265 1_554
O0 Sm0 2.310265 1_544
O1 Sm1 2.310265 1_565
O1 Sm1 2.310265 1_555
O1 Sm0 2.310265 1_554
O1 Sm0 2.310265 1_654
