# generated using pymatgen
data_As4HN2(ClO3)2
_symmetry_space_group_name_H-M   'P 1'
_cell_length_a   5.32622015
_cell_length_b   5.32622015
_cell_length_c   11.84312700
_cell_angle_alpha   90.00000000
_cell_angle_beta   90.00000000
_cell_angle_gamma   120.00000187
_symmetry_Int_Tables_number   1
_chemical_formula_structural   As4HN2(ClO3)2
_chemical_formula_sum   'As4 H1 N2 Cl2 O6'
_cell_volume   290.96130547
_cell_formula_units_Z   1
loop_
 _symmetry_equiv_pos_site_id
 _symmetry_equiv_pos_as_xyz
  1  'x, y, z'
loop_
 _atom_site_type_symbol
 _atom_site_label
 _atom_site_symmetry_multiplicity
 _atom_site_fract_x
 _atom_site_fract_y
 _atom_site_fract_z
 _atom_site_occupancy
  As  As0  1  0.33333300  0.66666700  0.21359500  1
  As  As1  1  0.66666700  0.33333300  0.78640500  1
  As  As2  1  0.66666700  0.33333300  0.21359500  1
  As  As3  1  0.33333300  0.66666700  0.78640500  1
  H  H0  1  0.00000000  0.00000000  0.00000000  1
  N  N0  1  0.33333300  0.66666700  0.50000000  1
  N  N1  1  0.66666700  0.33333300  0.50000000  1
  Cl  Cl0  1  0.00000000  0.00000000  0.32343100  1
  Cl  Cl1  1  0.00000000  0.00000000  0.67656900  1
  O  O0  1  0.50000000  0.00000000  0.13301400  1
  O  O1  1  0.50000000  0.00000000  0.86698600  1
  O  O2  1  0.00000000  0.50000000  0.13301400  1
  O  O3  1  0.00000000  0.50000000  0.86698600  1
  O  O4  1  0.50000000  0.50000000  0.13301400  1
  O  O5  1  0.50000000  0.50000000  0.86698600  1
loop_
_geom_bond_atom_site_label_1
_geom_bond_atom_site_label_2
_geom_bond_distance
_geom_bond_site_symmetry_2
As0 O2 1.809639 1_555
As0 O0 1.809639 1_565
As0 O4 1.809643 1_555
As1 O3 1.809639 1_655
As1 O1 1.809639 1_555
As1 O5 1.809643 1_555
As2 O0 1.809639 1_555
As2 O2 1.809639 1_655
As2 O4 1.809643 1_555
As3 O3 1.809639 1_555
As3 O1 1.809639 1_565
As3 O5 1.809643 1_555
