# generated using pymatgen
data_Pr2Fe2Se2O3
_symmetry_space_group_name_H-M   'P 1'
_cell_length_a   9.90720207
_cell_length_b   9.90720207
_cell_length_c   9.90720207
_cell_angle_alpha   156.03124205
_cell_angle_beta   156.03124205
_cell_angle_gamma   34.15373114
_symmetry_Int_Tables_number   1
_chemical_formula_structural   Pr2Fe2Se2O3
_chemical_formula_sum   'Pr2 Fe2 Se2 O3'
_cell_volume   160.31486057
_cell_formula_units_Z   1
loop_
 _symmetry_equiv_pos_site_id
 _symmetry_equiv_pos_as_xyz
  1  'x, y, z'
loop_
 _atom_site_type_symbol
 _atom_site_label
 _atom_site_symmetry_multiplicity
 _atom_site_fract_x
 _atom_site_fract_y
 _atom_site_fract_z
 _atom_site_occupancy
  Pr  Pr0  1  0.31256900  0.31256900  0.00000000  1
  Pr  Pr1  1  0.68743100  0.68743100  0.00000000  1
  Fe  Fe0  1  0.50000000  0.00000000  0.50000000  1
  Fe  Fe1  1  0.00000000  0.50000000  0.50000000  1
  Se  Se0  1  0.90135300  0.90135300  0.00000000  1
  Se  Se1  1  0.09864700  0.09864700  0.00000000  1
  O  O0  1  0.25000000  0.75000000  0.50000000  1
  O  O1  1  0.75000000  0.25000000  0.50000000  1
  O  O2  1  0.50000000  0.50000000  0.00000000  1
loop_
_geom_bond_atom_site_label_1
_geom_bond_atom_site_label_2
_geom_bond_distance
_geom_bond_site_symmetry_2
Pr0 Se0 3.360343 1_444
Pr0 Se0 3.360343 1_455
Pr0 Se0 3.360343 1_545
Pr0 Se0 3.360343 1_556
Pr1 Se1 3.360343 1_554
Pr1 Se1 3.360343 1_655
Pr1 Se1 3.360343 1_565
Pr1 Se1 3.360343 1_666
Fe0 O2 2.057181 1_556
Fe0 O2 2.057181 1_545
Fe0 Se1 2.779050 1_656
Fe0 Se1 2.779050 1_555
Fe0 Se0 2.779050 1_546
Fe0 Se0 2.779050 1_445
Fe1 O2 2.057181 1_556
Fe1 O2 2.057181 1_455
Fe1 Se1 2.779050 1_555
Fe1 Se1 2.779050 1_566
Fe1 Se0 2.779050 1_456
Fe1 Se0 2.779050 1_445
O0 Pr0 2.374126 1_566
O0 Pr1 2.374126 1_455
O0 Pr0 2.374126 1_555
O0 Pr1 2.374126 1_556
O1 Pr0 2.374126 1_656
O1 Pr0 2.374126 1_555
O1 Pr1 2.374126 1_556
O1 Pr1 2.374126 1_545
