# generated using pymatgen
data_Li4MnCo2O7
_symmetry_space_group_name_H-M   'P 1'
_cell_length_a   5.93342500
_cell_length_b   6.56909291
_cell_length_c   7.71883249
_cell_angle_alpha   114.57884371
_cell_angle_beta   99.88803511
_cell_angle_gamma   103.90238710
_symmetry_Int_Tables_number   1
_chemical_formula_structural   Li4MnCo2O7
_chemical_formula_sum   'Li8 Mn2 Co4 O14'
_cell_volume   252.69408673
_cell_formula_units_Z   2
loop_
 _symmetry_equiv_pos_site_id
 _symmetry_equiv_pos_as_xyz
  1  'x, y, z'
loop_
 _atom_site_type_symbol
 _atom_site_label
 _atom_site_symmetry_multiplicity
 _atom_site_fract_x
 _atom_site_fract_y
 _atom_site_fract_z
 _atom_site_occupancy
  Li  Li0  1  0.71850600  0.57335000  0.64686200  1
  Li  Li1  1  0.00000000  0.00000000  0.50000000  1
  Li  Li2  1  0.28149400  0.42665000  0.35313800  1
  Li  Li3  1  0.57385800  0.85847100  0.22468000  1
  Li  Li4  1  0.85973200  0.28991100  0.07395600  1
  Li  Li5  1  0.14026800  0.71008900  0.92604400  1
  Li  Li6  1  0.42614200  0.14152900  0.77532000  1
  Li  Li7  1  0.50000000  0.00000000  0.50000000  1
  Mn  Mn0  1  0.92759100  0.14353400  0.78554100  1
  Mn  Mn1  1  0.07240900  0.85646600  0.21445900  1
  Co  Co0  1  0.22195300  0.58590800  0.64162800  1
  Co  Co1  1  0.77804700  0.41409200  0.35837200  1
  Co  Co2  1  0.36110000  0.28556300  0.07721800  1
  Co  Co3  1  0.63890000  0.71443700  0.92278200  1
  O  O0  1  0.03983700  0.40928700  0.85352600  1
  O  O1  1  0.31871700  0.83752900  0.71500200  1
  O  O2  1  0.64200400  0.27931500  0.58954500  1
  O  O3  1  0.90170700  0.71468500  0.41257200  1
  O  O4  1  0.18074600  0.13631000  0.26723500  1
  O  O5  1  0.47701300  0.57186000  0.13740200  1
  O  O6  1  0.77609500  0.99738300  0.99996100  1
  O  O7  1  0.35799600  0.72068500  0.41045500  1
  O  O8  1  0.68128300  0.16247100  0.28499800  1
  O  O9  1  0.96016300  0.59071300  0.14647400  1
  O  O10  1  0.22390500  0.00261700  0.00003900  1
  O  O11  1  0.52298700  0.42814000  0.86259800  1
  O  O12  1  0.81925400  0.86369000  0.73276500  1
  O  O13  1  0.09829300  0.28531500  0.58742800  1
loop_
_geom_bond_atom_site_label_1
_geom_bond_atom_site_label_2
_geom_bond_distance
_geom_bond_site_symmetry_2
Li0 O12 1.642749 1_555
Li0 O2 1.712149 1_555
Li1 O13 1.611136 1_555
Li1 O3 1.611136 1_445
Li2 O4 1.642749 1_555
Li2 O7 1.712149 1_555
Li3 O5 1.618912 1_555
Li3 O8 1.767487 1_565
Li4 O6 1.672291 1_544
Li4 O9 1.724083 1_555
Li5 O10 1.672291 1_566
Li5 O0 1.724083 1_555
Li6 O11 1.618912 1_555
Li6 O1 1.767487 1_545
Li7 O7 1.598871 1_545
Li7 O2 1.598871 1_555
Mn0 O0 1.525043 1_655
Mn0 O12 1.636403 1_545
Mn1 O9 1.525043 1_455
Mn1 O4 1.636403 1_565
Co0 O1 1.426908 1_555
Co0 O13 1.767384 1_555
Co1 O8 1.426908 1_555
Co1 O3 1.767384 1_555
Co2 O10 1.630197 1_555
Co2 O5 1.663668 1_555
Co3 O6 1.630197 1_555
Co3 O11 1.663668 1_555
