# generated using pymatgen
data_MgCoBiO5
_symmetry_space_group_name_H-M   'P 1'
_cell_length_a   10.55296900
_cell_length_b   5.35216500
_cell_length_c   8.28313249
_cell_angle_alpha   69.55751804
_cell_angle_beta   90.00000000
_cell_angle_gamma   90.00000000
_symmetry_Int_Tables_number   1
_chemical_formula_structural   MgCoBiO5
_chemical_formula_sum   'Mg4 Co4 Bi4 O20'
_cell_volume   438.37839918
_cell_formula_units_Z   4
loop_
 _symmetry_equiv_pos_site_id
 _symmetry_equiv_pos_as_xyz
  1  'x, y, z'
loop_
 _atom_site_type_symbol
 _atom_site_label
 _atom_site_symmetry_multiplicity
 _atom_site_fract_x
 _atom_site_fract_y
 _atom_site_fract_z
 _atom_site_occupancy
  Mg  Mg0  1  0.08582400  0.54504000  0.82435700  1
  Mg  Mg1  1  0.91417600  0.45496000  0.17564300  1
  Mg  Mg2  1  0.58582400  0.45496000  0.67564300  1
  Mg  Mg3  1  0.41417600  0.54504000  0.32435700  1
  Co  Co0  1  0.37652400  0.15764700  0.04308600  1
  Co  Co1  1  0.62347600  0.84235300  0.95691400  1
  Co  Co2  1  0.87652400  0.84235300  0.45691400  1
  Co  Co3  1  0.12347600  0.15764700  0.54308600  1
  Bi  Bi0  1  0.89472100  0.02786100  0.84338600  1
  Bi  Bi1  1  0.10527900  0.97213900  0.15661400  1
  Bi  Bi2  1  0.60527900  0.02786100  0.34338600  1
  Bi  Bi3  1  0.39472100  0.97213900  0.65661400  1
  O  O0  1  0.94117400  0.82124000  0.66833900  1
  O  O1  1  0.03595800  0.30018000  0.68316300  1
  O  O2  1  0.79580200  0.16838700  0.32382400  1
  O  O3  1  0.45843400  0.75361200  0.49360800  1
  O  O4  1  0.71553500  0.69323200  0.50718000  1
  O  O5  1  0.78446500  0.69323200  0.00718000  1
  O  O6  1  0.46404200  0.30018000  0.18316300  1
  O  O7  1  0.53595800  0.69982000  0.81683700  1
  O  O8  1  0.54156600  0.24638800  0.50639200  1
  O  O9  1  0.44117400  0.17876000  0.83166100  1
  O  O10  1  0.28446500  0.30676800  0.49282000  1
  O  O11  1  0.05882600  0.17876000  0.33166100  1
  O  O12  1  0.55882600  0.82124000  0.16833900  1
  O  O13  1  0.21553500  0.30676800  0.99282000  1
  O  O14  1  0.95843400  0.24638800  0.00639200  1
  O  O15  1  0.04156600  0.75361200  0.99360800  1
  O  O16  1  0.20419800  0.83161300  0.67617600  1
  O  O17  1  0.96404200  0.69982000  0.31683700  1
  O  O18  1  0.29580200  0.83161300  0.17617600  1
  O  O19  1  0.70419800  0.16838700  0.82382400  1
loop_
_geom_bond_atom_site_label_1
_geom_bond_atom_site_label_2
_geom_bond_distance
_geom_bond_site_symmetry_2
Mg0 O16 2.025949 1_555
Mg0 O13 2.050396 1_555
Mg0 O1 2.105435 1_555
Mg0 O15 2.126709 1_555
Mg0 O0 2.202510 1_455
Mg0 O14 2.225354 1_456
Mg1 O2 2.025949 1_555
Mg1 O5 2.050396 1_555
Mg1 O17 2.105435 1_555
Mg1 O14 2.126709 1_555
Mg1 O11 2.202510 1_655
Mg1 O15 2.225354 1_654
Mg2 O19 2.025949 1_555
Mg2 O4 2.050396 1_555
Mg2 O7 2.105435 1_555
Mg2 O8 2.126709 1_555
Mg2 O9 2.202510 1_555
Mg2 O3 2.225354 1_555
Mg3 O18 2.025949 1_555
Mg3 O10 2.050396 1_555
Mg3 O6 2.105435 1_555
Mg3 O3 2.126709 1_555
Mg3 O12 2.202510 1_555
Mg3 O8 2.225354 1_555
Co0 O6 1.843768 1_555
Co0 O9 1.845783 1_554
Co0 O13 1.861324 1_554
Co0 O18 1.908449 1_545
Co0 O12 2.591226 1_545
Co1 O7 1.843768 1_555
Co1 O12 1.845783 1_556
Co1 O5 1.861324 1_556
Co1 O19 1.908449 1_565
Co1 O9 2.591226 1_565
Co2 O17 1.843768 1_555
Co2 O0 1.845783 1_555
Co2 O4 1.861324 1_555
Co2 O2 1.908449 1_565
Co2 O11 2.591226 1_665
Co3 O1 1.843768 1_555
Co3 O11 1.845783 1_555
Co3 O10 1.861324 1_555
Co3 O16 1.908449 1_545
Co3 O0 2.591226 1_445
Bi0 O19 2.132898 1_555
Bi0 O0 2.164633 1_545
Bi0 O5 2.169054 1_546
Bi0 O14 2.178571 1_556
Bi0 O1 2.180810 1_655
Bi0 O15 2.197365 1_645
Bi1 O18 2.132898 1_555
Bi1 O11 2.164633 1_565
Bi1 O13 2.169054 1_564
Bi1 O15 2.178571 1_554
Bi1 O17 2.180810 1_455
Bi1 O14 2.197365 1_465
Bi2 O2 2.132898 1_555
Bi2 O12 2.164633 1_545
Bi2 O4 2.169054 1_545
Bi2 O8 2.178571 1_555
Bi2 O6 2.180810 1_555
Bi2 O3 2.197365 1_545
Bi3 O16 2.132898 1_555
Bi3 O9 2.164633 1_565
Bi3 O10 2.169054 1_565
Bi3 O3 2.178571 1_555
Bi3 O7 2.180810 1_555
Bi3 O8 2.197365 1_565
