# generated using pymatgen
data_Ho2Fe17
_symmetry_space_group_name_H-M   'P 1'
_cell_length_a   8.48199016
_cell_length_b   8.48199016
_cell_length_c   8.24186400
_cell_angle_alpha   90.00000000
_cell_angle_beta   90.00000000
_cell_angle_gamma   120.00000125
_symmetry_Int_Tables_number   1
_chemical_formula_structural   Ho2Fe17
_chemical_formula_sum   'Ho4 Fe34'
_cell_volume   513.51318466
_cell_formula_units_Z   2
loop_
 _symmetry_equiv_pos_site_id
 _symmetry_equiv_pos_as_xyz
  1  'x, y, z'
loop_
 _atom_site_type_symbol
 _atom_site_label
 _atom_site_symmetry_multiplicity
 _atom_site_fract_x
 _atom_site_fract_y
 _atom_site_fract_z
 _atom_site_occupancy
  Ho  Ho0  1  0.00000000  0.00000000  0.25000000  1
  Ho  Ho1  1  0.00000000  0.00000000  0.75000000  1
  Ho  Ho2  1  0.33333300  0.66666700  0.75000000  1
  Ho  Ho3  1  0.66666700  0.33333300  0.25000000  1
  Fe  Fe0  1  0.33333300  0.66666700  0.39363100  1
  Fe  Fe1  1  0.66666700  0.33333300  0.60636900  1
  Fe  Fe2  1  0.66666700  0.33333300  0.89363100  1
  Fe  Fe3  1  0.33333300  0.66666700  0.10636900  1
  Fe  Fe4  1  0.50000000  0.50000000  0.50000000  1
  Fe  Fe5  1  0.50000000  0.00000000  0.50000000  1
  Fe  Fe6  1  0.00000000  0.50000000  0.50000000  1
  Fe  Fe7  1  0.50000000  0.50000000  0.00000000  1
  Fe  Fe8  1  0.50000000  0.00000000  0.00000000  1
  Fe  Fe9  1  0.00000000  0.50000000  0.00000000  1
  Fe  Fe10  1  0.32893500  0.36790000  0.25000000  1
  Fe  Fe11  1  0.63210000  0.96103500  0.25000000  1
  Fe  Fe12  1  0.03896500  0.67106500  0.25000000  1
  Fe  Fe13  1  0.63210000  0.67106500  0.25000000  1
  Fe  Fe14  1  0.03896500  0.36790000  0.25000000  1
  Fe  Fe15  1  0.32893500  0.96103500  0.25000000  1
  Fe  Fe16  1  0.67106500  0.63210000  0.75000000  1
  Fe  Fe17  1  0.36790000  0.03896500  0.75000000  1
  Fe  Fe18  1  0.96103500  0.32893500  0.75000000  1
  Fe  Fe19  1  0.36790000  0.32893500  0.75000000  1
  Fe  Fe20  1  0.96103500  0.63210000  0.75000000  1
  Fe  Fe21  1  0.67106500  0.03896500  0.75000000  1
  Fe  Fe22  1  0.16602700  0.83397300  0.51568900  1
  Fe  Fe23  1  0.16602700  0.33205500  0.51568900  1
  Fe  Fe24  1  0.66794500  0.83397300  0.51568900  1
  Fe  Fe25  1  0.83397300  0.16602700  0.48431100  1
  Fe  Fe26  1  0.83397300  0.66794500  0.48431100  1
  Fe  Fe27  1  0.33205500  0.16602700  0.48431100  1
  Fe  Fe28  1  0.83397300  0.16602700  0.01568900  1
  Fe  Fe29  1  0.83397300  0.66794500  0.01568900  1
  Fe  Fe30  1  0.33205500  0.16602700  0.01568900  1
  Fe  Fe31  1  0.16602700  0.83397300  0.98431100  1
  Fe  Fe32  1  0.16602700  0.33205500  0.98431100  1
  Fe  Fe33  1  0.66794500  0.83397300  0.98431100  1
loop_
_geom_bond_atom_site_label_1
_geom_bond_atom_site_label_2
_geom_bond_distance
_geom_bond_site_symmetry_2
Fe0 Fe3 2.367574 1_555
Fe0 Fe6 2.600750 1_555
Fe0 Fe5 2.600750 1_565
Fe0 Fe4 2.600757 1_555
Fe0 Fe24 2.655831 1_555
Fe0 Fe23 2.655831 1_555
Fe0 Fe22 2.655831 1_555
Fe0 Fe12 2.780293 1_555
Fe0 Fe15 2.780293 1_555
Fe0 Fe11 2.780297 1_555
Fe0 Fe14 2.780297 1_555
Fe0 Fe13 2.780300 1_555
Fe0 Fe10 2.780300 1_555
Fe0 Ho2 2.937145 1_555
Fe1 Fe2 2.367574 1_555
Fe1 Fe6 2.600750 1_655
Fe1 Fe5 2.600750 1_555
Fe1 Fe4 2.600757 1_555
Fe1 Fe26 2.655831 1_555
Fe1 Fe27 2.655831 1_555
Fe1 Fe25 2.655831 1_555
Fe1 Fe18 2.780293 1_555
Fe1 Fe21 2.780293 1_555
Fe1 Fe20 2.780297 1_555
Fe1 Fe17 2.780297 1_555
Fe1 Fe19 2.780300 1_555
Fe1 Fe16 2.780300 1_555
Fe1 Ho3 2.937145 1_555
Fe2 Fe8 2.600750 1_556
Fe2 Fe9 2.600750 1_656
Fe2 Fe7 2.600757 1_556
Fe2 Fe29 2.655831 1_556
Fe2 Fe30 2.655831 1_556
Fe2 Fe28 2.655831 1_556
Fe2 Fe21 2.780293 1_555
Fe2 Fe20 2.780297 1_555
Fe2 Ho3 2.937145 1_556
Fe3 Fe8 2.600750 1_565
Fe3 Fe9 2.600750 1_555
Fe3 Fe7 2.600757 1_555
Fe3 Fe33 2.655831 1_554
Fe3 Fe32 2.655831 1_554
Fe3 Fe31 2.655831 1_554
Fe3 Ho2 2.937145 1_554
Fe4 Ho2 3.200139 1_555
Fe4 Ho3 3.200139 1_555
Fe5 Ho3 3.200134 1_555
Fe5 Ho2 3.200134 1_545
Fe6 Ho3 3.200134 1_455
Fe6 Ho2 3.200134 1_555
Fe7 Ho3 3.200139 1_555
Fe7 Ho2 3.200139 1_554
Fe8 Ho3 3.200134 1_555
Fe8 Ho2 3.200134 1_544
Fe9 Ho2 3.200134 1_554
Fe9 Ho3 3.200134 1_455
Fe10 Fe7 2.445511 1_555
Fe10 Fe4 2.445511 1_555
Fe10 Fe14 2.459523 1_555
Fe10 Fe23 2.525224 1_555
Fe10 Fe32 2.525224 1_554
Fe10 Fe13 2.571442 1_555
Fe10 Fe27 2.589847 1_555
Fe10 Fe30 2.589847 1_555
Fe10 Fe3 2.780300 1_555
Fe10 Ho0 2.969102 1_555
Fe10 Ho3 3.021924 1_555
Fe11 Fe8 2.445511 1_565
Fe11 Fe5 2.445511 1_565
Fe11 Fe13 2.459523 1_555
Fe11 Fe24 2.525220 1_555
Fe11 Fe33 2.525220 1_554
Fe11 Fe15 2.571443 1_555
Fe11 Fe25 2.589845 1_565
Fe11 Fe28 2.589845 1_565
Fe11 Fe3 2.780297 1_555
Fe11 Ho0 2.969102 1_665
Fe11 Ho3 3.021916 1_565
Fe12 Fe9 2.445511 1_555
Fe12 Fe6 2.445511 1_555
Fe12 Fe15 2.459523 1_555
Fe12 Fe22 2.525223 1_555
Fe12 Fe31 2.525223 1_554
Fe12 Fe14 2.571443 1_555
Fe12 Fe26 2.589842 1_455
Fe12 Fe29 2.589842 1_455
Fe12 Fe3 2.780293 1_555
Fe12 Ho0 2.969102 1_565
Fe12 Ho3 3.021920 1_455
Fe13 Fe7 2.445511 1_555
Fe13 Fe4 2.445511 1_555
Fe13 Fe24 2.525224 1_555
Fe13 Fe33 2.525224 1_554
Fe13 Fe26 2.589847 1_555
Fe13 Fe29 2.589847 1_555
Fe13 Fe3 2.780300 1_555
Fe13 Ho0 2.969102 1_665
Fe13 Ho3 3.021924 1_555
Fe14 Fe6 2.445511 1_555
Fe14 Fe9 2.445511 1_555
Fe14 Fe23 2.525220 1_555
Fe14 Fe32 2.525220 1_554
Fe14 Fe25 2.589845 1_455
Fe14 Fe28 2.589845 1_455
Fe14 Fe3 2.780297 1_555
Fe14 Ho0 2.969102 1_555
Fe14 Ho3 3.021916 1_455
Fe15 Fe8 2.445511 1_565
Fe15 Fe5 2.445511 1_565
Fe15 Fe22 2.525223 1_555
Fe15 Fe31 2.525223 1_554
Fe15 Fe27 2.589842 1_565
Fe15 Fe30 2.589842 1_565
Fe15 Fe3 2.780293 1_555
Fe15 Ho0 2.969102 1_565
Fe15 Ho3 3.021920 1_565
Fe16 Fe7 2.445511 1_556
Fe16 Fe4 2.445511 1_555
Fe16 Fe20 2.459523 1_555
Fe16 Fe29 2.525224 1_556
Fe16 Fe26 2.525224 1_555
Fe16 Fe19 2.571442 1_555
Fe16 Fe33 2.589847 1_555
Fe16 Fe24 2.589847 1_555
Fe16 Fe2 2.780300 1_555
Fe16 Ho1 2.969102 1_665
Fe16 Ho2 3.021924 1_555
Fe17 Fe8 2.445511 1_556
Fe17 Fe5 2.445511 1_555
Fe17 Fe19 2.459523 1_555
Fe17 Fe30 2.525220 1_556
Fe17 Fe27 2.525220 1_555
Fe17 Fe21 2.571443 1_555
Fe17 Fe31 2.589845 1_545
Fe17 Fe22 2.589845 1_545
Fe17 Fe2 2.780297 1_555
Fe17 Ho1 2.969102 1_555
Fe17 Ho2 3.021916 1_545
Fe18 Fe6 2.445511 1_655
Fe18 Fe9 2.445511 1_656
Fe18 Fe21 2.459523 1_555
Fe18 Fe28 2.525223 1_556
Fe18 Fe25 2.525223 1_555
Fe18 Fe20 2.571443 1_555
Fe18 Fe32 2.589842 1_655
Fe18 Fe23 2.589842 1_655
Fe18 Fe2 2.780293 1_555
Fe18 Ho1 2.969102 1_655
Fe18 Ho2 3.021920 1_655
Fe19 Fe7 2.445511 1_556
Fe19 Fe4 2.445511 1_555
Fe19 Fe30 2.525224 1_556
Fe19 Fe27 2.525224 1_555
Fe19 Fe32 2.589847 1_555
Fe19 Fe23 2.589847 1_555
Fe19 Fe2 2.780300 1_555
Fe19 Ho1 2.969102 1_555
Fe19 Ho2 3.021924 1_555
Fe20 Fe6 2.445511 1_655
Fe20 Fe9 2.445511 1_656
Fe20 Fe29 2.525220 1_556
Fe20 Fe26 2.525220 1_555
Fe20 Fe31 2.589845 1_655
Fe20 Fe22 2.589845 1_655
Fe20 Ho1 2.969102 1_665
Fe20 Ho2 3.021916 1_655
Fe21 Fe8 2.445511 1_556
Fe21 Fe5 2.445511 1_555
Fe21 Fe28 2.525223 1_556
Fe21 Fe25 2.525223 1_555
Fe21 Fe33 2.589842 1_545
Fe21 Fe24 2.589842 1_545
Fe21 Ho1 2.969102 1_655
Fe21 Ho2 3.021920 1_545
Fe22 Fe26 2.452814 1_455
Fe22 Fe27 2.452814 1_565
Fe22 Fe6 2.456657 1_555
Fe22 Fe5 2.456657 1_565
Fe22 Ho1 3.111076 1_565
Fe22 Ho2 3.125829 1_555
Fe22 Ho0 3.277883 1_565
Fe23 Fe25 2.452814 1_455
Fe23 Fe27 2.452828 1_555
Fe23 Fe6 2.456650 1_555
Fe23 Fe4 2.456657 1_555
Fe23 Ho1 3.111081 1_555
Fe23 Ho2 3.125829 1_555
Fe23 Ho0 3.277889 1_555
Fe24 Fe25 2.452814 1_565
Fe24 Fe26 2.452828 1_555
Fe24 Fe5 2.456650 1_565
Fe24 Fe4 2.456657 1_555
Fe24 Ho1 3.111081 1_665
Fe24 Ho2 3.125829 1_555
Fe24 Ho0 3.277889 1_665
Fe25 Fe5 2.456657 1_555
Fe25 Fe6 2.456657 1_655
Fe25 Ho0 3.111076 1_655
Fe25 Ho3 3.125829 1_555
Fe25 Ho1 3.277883 1_655
Fe26 Fe6 2.456650 1_655
Fe26 Fe4 2.456657 1_555
Fe26 Ho0 3.111081 1_665
Fe26 Ho3 3.125829 1_555
Fe26 Ho1 3.277889 1_665
Fe27 Fe5 2.456650 1_555
Fe27 Fe4 2.456657 1_555
Fe27 Ho0 3.111081 1_555
Fe27 Ho3 3.125829 1_555
Fe27 Ho1 3.277889 1_555
Fe28 Fe33 2.452814 1_544
Fe28 Fe32 2.452814 1_654
Fe28 Fe8 2.456657 1_555
Fe28 Fe9 2.456657 1_655
Fe28 Ho0 3.111076 1_655
Fe28 Ho3 3.125829 1_555
Fe28 Ho1 3.277883 1_654
Fe29 Fe31 2.452814 1_654
Fe29 Fe33 2.452828 1_554
Fe29 Fe9 2.456650 1_655
Fe29 Fe7 2.456657 1_555
Fe29 Ho0 3.111081 1_665
Fe29 Ho3 3.125829 1_555
Fe29 Ho1 3.277889 1_664
Fe30 Fe31 2.452814 1_544
Fe30 Fe32 2.452828 1_554
Fe30 Fe8 2.456650 1_555
Fe30 Fe7 2.456657 1_555
Fe30 Ho0 3.111081 1_555
Fe30 Ho3 3.125829 1_555
Fe30 Ho1 3.277889 1_554
Fe31 Fe9 2.456657 1_556
Fe31 Fe8 2.456657 1_566
Fe31 Ho1 3.111076 1_565
Fe31 Ho2 3.125829 1_555
Fe31 Ho0 3.277883 1_566
Fe32 Fe9 2.456650 1_556
Fe32 Fe7 2.456657 1_556
Fe32 Ho1 3.111081 1_555
Fe32 Ho2 3.125829 1_555
Fe32 Ho0 3.277889 1_556
Fe33 Fe8 2.456650 1_566
Fe33 Fe7 2.456657 1_556
Fe33 Ho1 3.111081 1_665
Fe33 Ho2 3.125829 1_555
Fe33 Ho0 3.277889 1_666
