# generated using pymatgen
data_Co3TeO8
_symmetry_space_group_name_H-M   'P 1'
_cell_length_a   6.05478565
_cell_length_b   6.00894406
_cell_length_c   8.48751245
_cell_angle_alpha   90.01580400
_cell_angle_beta   88.46553473
_cell_angle_gamma   90.00601329
_symmetry_Int_Tables_number   1
_chemical_formula_structural   Co3TeO8
_chemical_formula_sum   'Co6 Te2 O16'
_cell_volume   308.68929762
_cell_formula_units_Z   2
loop_
 _symmetry_equiv_pos_site_id
 _symmetry_equiv_pos_as_xyz
  1  'x, y, z'
loop_
 _atom_site_type_symbol
 _atom_site_label
 _atom_site_symmetry_multiplicity
 _atom_site_fract_x
 _atom_site_fract_y
 _atom_site_fract_z
 _atom_site_occupancy
  Co  Co0  1  0.24999800  0.75000000  0.74999900  1
  Co  Co1  1  0.75000200  0.75000000  0.25000100  1
  Co  Co2  1  0.24999900  0.25000000  0.74999900  1
  Co  Co3  1  0.99846700  0.50590700  0.99929100  1
  Co  Co4  1  0.50153300  0.99409300  0.50070900  1
  Co  Co5  1  0.75000100  0.25000000  0.25000100  1
  Te  Te0  1  0.99911200  0.00396700  0.99938800  1
  Te  Te1  1  0.50088800  0.49603400  0.50061200  1
  O  O0  1  0.05600800  0.49368300  0.77443800  1
  O  O1  1  0.55694700  0.00552800  0.27462100  1
  O  O2  1  0.94305500  0.49447200  0.22538000  1
  O  O3  1  0.44398900  0.00631700  0.72556200  1
  O  O4  1  0.28453600  0.73480400  0.50726500  1
  O  O5  1  0.77657400  0.24396700  0.02346200  1
  O  O6  1  0.27684400  0.25656400  0.52445900  1
  O  O7  1  0.78191400  0.76601400  0.00782700  1
  O  O8  1  0.02830900  0.01766300  0.76669000  1
  O  O9  1  0.52932900  0.48044100  0.26727200  1
  O  O10  1  0.97067400  0.01955900  0.23272700  1
  O  O11  1  0.47168800  0.48233700  0.73330900  1
  O  O12  1  0.71808600  0.73398500  0.49217500  1
  O  O13  1  0.22315500  0.24343600  0.97553900  1
  O  O14  1  0.72342800  0.25603300  0.47654000  1
  O  O15  1  0.21546400  0.76519500  0.99273300  1
loop_
_geom_bond_atom_site_label_1
_geom_bond_atom_site_label_2
_geom_bond_distance
_geom_bond_site_symmetry_2
Co0 O0 1.944629 1_555
Co0 O3 1.944631 1_565
Co0 O15 2.067207 1_555
Co0 O4 2.067209 1_555
Co0 O8 2.097329 1_565
Co0 O11 2.097332 1_555
Co1 O2 1.937710 1_555
Co1 O1 1.937716 1_565
Co1 O7 2.061631 1_555
Co1 O12 2.061633 1_555
Co1 O10 2.102270 1_565
Co1 O9 2.102273 1_555
Co2 O3 1.885175 1_555
Co2 O0 1.885180 1_555
Co2 O13 1.917236 1_555
Co2 O6 1.917236 1_555
Co2 O11 1.939177 1_555
Co2 O8 1.939182 1_555
Co3 O0 1.932162 1_655
Co3 O2 1.940407 1_556
Co3 O15 2.037784 1_655
Co3 O7 2.040244 1_556
Co3 O5 2.075937 1_556
Co3 O13 2.089137 1_655
Co4 O3 1.932164 1_565
Co4 O1 1.940400 1_565
Co4 O4 2.037789 1_555
Co4 O12 2.040249 1_555
Co4 O14 2.075943 1_565
Co4 O6 2.089140 1_565
Co5 O1 1.885401 1_555
Co5 O2 1.885402 1_555
Co5 O5 1.925506 1_555
Co5 O14 1.925506 1_555
Co5 O9 1.927151 1_555
Co5 O10 1.927156 1_555
O4 Te1 1.942707 1_555
O5 Te0 1.980550 1_554
O6 Te1 1.984142 1_555
O7 Te0 1.942592 1_564
O8 Te0 1.979935 1_455
O9 Te1 1.985536 1_555
O10 Te0 1.985527 1_554
O11 Te1 1.979928 1_555
O12 Te1 1.942583 1_555
O13 Te0 1.984135 1_455
O14 Te1 1.980561 1_555
O15 Te0 1.942716 1_465
