# generated using pymatgen
data_BaMg30MnO32
_symmetry_space_group_name_H-M   'P 1'
_cell_length_a   8.67563200
_cell_length_b   8.67563200
_cell_length_c   8.67188600
_cell_angle_alpha   90.00000000
_cell_angle_beta   90.00000000
_cell_angle_gamma   90.00000000
_symmetry_Int_Tables_number   1
_chemical_formula_structural   BaMg30MnO32
_chemical_formula_sum   'Ba1 Mg30 Mn1 O32'
_cell_volume   652.70329329
_cell_formula_units_Z   1
loop_
 _symmetry_equiv_pos_site_id
 _symmetry_equiv_pos_as_xyz
  1  'x, y, z'
loop_
 _atom_site_type_symbol
 _atom_site_label
 _atom_site_symmetry_multiplicity
 _atom_site_fract_x
 _atom_site_fract_y
 _atom_site_fract_z
 _atom_site_occupancy
  Ba  Ba0  1  0.00000000  0.00000000  0.50000000  1
  Mg  Mg0  1  0.50000000  0.00000000  0.00000000  1
  Mg  Mg1  1  0.50000000  0.00000000  0.50000000  1
  Mg  Mg2  1  0.00000000  0.50000000  0.00000000  1
  Mg  Mg3  1  0.00000000  0.50000000  0.50000000  1
  Mg  Mg4  1  0.50000000  0.50000000  0.00000000  1
  Mg  Mg5  1  0.50000000  0.50000000  0.50000000  1
  Mg  Mg6  1  0.25931300  0.00000000  0.24330700  1
  Mg  Mg7  1  0.25931300  0.00000000  0.75669300  1
  Mg  Mg8  1  0.74068700  0.00000000  0.24330700  1
  Mg  Mg9  1  0.74068700  0.00000000  0.75669300  1
  Mg  Mg10  1  0.25113300  0.50000000  0.24911500  1
  Mg  Mg11  1  0.25113300  0.50000000  0.75088500  1
  Mg  Mg12  1  0.74886700  0.50000000  0.24911500  1
  Mg  Mg13  1  0.74886700  0.50000000  0.75088500  1
  Mg  Mg14  1  0.00000000  0.25931300  0.24330700  1
  Mg  Mg15  1  0.00000000  0.25931300  0.75669300  1
  Mg  Mg16  1  0.50000000  0.25113300  0.24911500  1
  Mg  Mg17  1  0.50000000  0.25113300  0.75088500  1
  Mg  Mg18  1  0.00000000  0.74068700  0.24330700  1
  Mg  Mg19  1  0.00000000  0.74068700  0.75669300  1
  Mg  Mg20  1  0.50000000  0.74886700  0.24911500  1
  Mg  Mg21  1  0.50000000  0.74886700  0.75088500  1
  Mg  Mg22  1  0.25167500  0.25167500  0.00000000  1
  Mg  Mg23  1  0.25759300  0.25759300  0.50000000  1
  Mg  Mg24  1  0.74832500  0.25167500  0.00000000  1
  Mg  Mg25  1  0.74240700  0.25759300  0.50000000  1
  Mg  Mg26  1  0.25167500  0.74832500  0.00000000  1
  Mg  Mg27  1  0.25759300  0.74240700  0.50000000  1
  Mg  Mg28  1  0.74832500  0.74832500  0.00000000  1
  Mg  Mg29  1  0.74240700  0.74240700  0.50000000  1
  Mn  Mn0  1  0.00000000  0.00000000  0.00000000  1
  O  O0  1  0.00000000  0.26282500  0.00000000  1
  O  O1  1  0.00000000  0.27917800  0.50000000  1
  O  O2  1  0.50000000  0.25277800  0.00000000  1
  O  O3  1  0.50000000  0.25606600  0.50000000  1
  O  O4  1  0.00000000  0.73717500  0.00000000  1
  O  O5  1  0.00000000  0.72082200  0.50000000  1
  O  O6  1  0.50000000  0.74722200  0.00000000  1
  O  O7  1  0.50000000  0.74393400  0.50000000  1
  O  O8  1  0.24944700  0.24944700  0.25016400  1
  O  O9  1  0.24944700  0.24944700  0.74983600  1
  O  O10  1  0.75055300  0.24944700  0.25016400  1
  O  O11  1  0.75055300  0.24944700  0.74983600  1
  O  O12  1  0.24944700  0.75055300  0.25016400  1
  O  O13  1  0.24944700  0.75055300  0.74983600  1
  O  O14  1  0.75055300  0.75055300  0.25016400  1
  O  O15  1  0.75055300  0.75055300  0.74983600  1
  O  O16  1  0.00000000  0.00000000  0.22584100  1
  O  O17  1  0.00000000  0.00000000  0.77415900  1
  O  O18  1  0.50000000  0.00000000  0.24554800  1
  O  O19  1  0.50000000  0.00000000  0.75445200  1
  O  O20  1  0.00000000  0.50000000  0.24554800  1
  O  O21  1  0.00000000  0.50000000  0.75445200  1
  O  O22  1  0.50000000  0.50000000  0.24874800  1
  O  O23  1  0.50000000  0.50000000  0.75125200  1
  O  O24  1  0.26282500  0.00000000  0.00000000  1
  O  O25  1  0.27917800  0.00000000  0.50000000  1
  O  O26  1  0.73717500  0.00000000  0.00000000  1
  O  O27  1  0.72082200  0.00000000  0.50000000  1
  O  O28  1  0.25277800  0.50000000  0.00000000  1
  O  O29  1  0.25606600  0.50000000  0.50000000  1
  O  O30  1  0.74722200  0.50000000  0.00000000  1
  O  O31  1  0.74393400  0.50000000  0.50000000  1
loop_
_geom_bond_atom_site_label_1
_geom_bond_atom_site_label_2
_geom_bond_distance
_geom_bond_site_symmetry_2
Ba0 O16 2.377476 1_555
Ba0 O17 2.377476 1_555
Ba0 O25 2.422046 1_555
Ba0 O1 2.422046 1_555
Ba0 O27 2.422046 1_455
Ba0 O5 2.422046 1_545
Mg0 O24 2.057643 1_555
Mg0 O26 2.057643 1_555
Mg0 O19 2.129364 1_554
Mg0 O18 2.129364 1_555
Mg0 O6 2.193009 1_545
Mg0 O2 2.193009 1_555
Mg1 O27 1.915770 1_555
Mg1 O25 1.915770 1_555
Mg1 O18 2.206579 1_555
Mg1 O19 2.206579 1_555
Mg1 O7 2.221534 1_545
Mg1 O3 2.221534 1_555
Mg2 O0 2.057643 1_555
Mg2 O4 2.057643 1_555
Mg2 O20 2.129364 1_555
Mg2 O21 2.129364 1_554
Mg2 O30 2.193009 1_455
Mg2 O28 2.193009 1_555
Mg3 O5 1.915770 1_555
Mg3 O1 1.915770 1_555
Mg3 O21 2.206579 1_555
Mg3 O20 2.206579 1_555
Mg3 O29 2.221534 1_555
Mg3 O31 2.221534 1_455
Mg4 O2 2.144807 1_555
Mg4 O28 2.144807 1_555
Mg4 O30 2.144807 1_555
Mg4 O6 2.144807 1_555
Mg4 O22 2.157114 1_555
Mg4 O23 2.157114 1_554
Mg5 O7 2.116282 1_555
Mg5 O29 2.116282 1_555
Mg5 O31 2.116282 1_555
Mg5 O3 2.116282 1_555
Mg5 O22 2.178829 1_555
Mg5 O23 2.178829 1_555
Mg6 O18 2.088202 1_555
Mg6 O24 2.110151 1_555
Mg6 O12 2.166619 1_545
Mg6 O8 2.166619 1_555
Mg6 O25 2.232674 1_555
Mg6 O16 2.254797 1_555
Mg7 O19 2.088202 1_555
Mg7 O24 2.110151 1_556
Mg7 O13 2.166619 1_545
Mg7 O9 2.166619 1_555
Mg7 O25 2.232674 1_555
Mg7 O17 2.254797 1_555
Mg8 O18 2.088202 1_555
Mg8 O26 2.110151 1_555
Mg8 O14 2.166619 1_545
Mg8 O10 2.166619 1_555
Mg8 O27 2.232674 1_555
Mg8 O16 2.254797 1_655
Mg9 O19 2.088202 1_555
Mg9 O26 2.110151 1_556
Mg9 O11 2.166619 1_555
Mg9 O15 2.166619 1_545
Mg9 O27 2.232674 1_555
Mg9 O17 2.254797 1_655
Mg10 O22 2.159081 1_555
Mg10 O28 2.160344 1_555
Mg10 O12 2.173774 1_555
Mg10 O8 2.173774 1_555
Mg10 O29 2.176067 1_555
Mg10 O20 2.178957 1_555
Mg11 O23 2.159081 1_555
Mg11 O28 2.160344 1_556
Mg11 O13 2.173774 1_555
Mg11 O9 2.173774 1_555
Mg11 O29 2.176067 1_555
Mg11 O21 2.178957 1_555
Mg12 O22 2.159081 1_555
Mg12 O30 2.160344 1_555
Mg12 O10 2.173774 1_555
Mg12 O14 2.173774 1_555
Mg12 O31 2.176067 1_555
Mg12 O20 2.178957 1_655
Mg13 O23 2.159081 1_555
Mg13 O30 2.160344 1_556
Mg13 O11 2.173774 1_555
Mg13 O15 2.173774 1_555
Mg13 O31 2.176067 1_555
Mg13 O21 2.178957 1_655
Mg14 O20 2.088202 1_555
Mg14 O0 2.110151 1_555
Mg14 O8 2.166619 1_555
Mg14 O10 2.166619 1_455
Mg14 O1 2.232674 1_555
Mg14 O16 2.254797 1_555
Mg15 O21 2.088202 1_555
Mg15 O0 2.110151 1_556
Mg15 O11 2.166619 1_455
Mg15 O9 2.166619 1_555
Mg15 O1 2.232674 1_555
Mg15 O17 2.254797 1_555
Mg16 O22 2.159081 1_555
Mg16 O2 2.160344 1_555
Mg16 O10 2.173774 1_555
Mg16 O8 2.173774 1_555
Mg16 O3 2.176067 1_555
Mg16 O18 2.178957 1_555
Mg17 O23 2.159081 1_555
Mg17 O2 2.160344 1_556
Mg17 O11 2.173774 1_555
Mg17 O9 2.173774 1_555
Mg17 O3 2.176067 1_555
Mg17 O19 2.178957 1_555
Mg18 O20 2.088202 1_555
Mg18 O4 2.110151 1_555
Mg18 O12 2.166619 1_555
Mg18 O14 2.166619 1_455
Mg18 O5 2.232674 1_555
Mg18 O16 2.254797 1_565
Mg19 O21 2.088202 1_555
Mg19 O4 2.110151 1_556
Mg19 O15 2.166619 1_455
Mg19 O13 2.166619 1_555
Mg19 O5 2.232674 1_555
Mg19 O17 2.254797 1_565
Mg20 O22 2.159081 1_555
Mg20 O6 2.160344 1_555
Mg20 O12 2.173774 1_555
Mg20 O14 2.173774 1_555
Mg20 O7 2.176067 1_555
Mg20 O18 2.178957 1_565
Mg21 O23 2.159081 1_555
Mg21 O6 2.160344 1_556
Mg21 O13 2.173774 1_555
Mg21 O15 2.173774 1_555
Mg21 O7 2.176067 1_555
Mg21 O19 2.178957 1_565
Mg22 O28 2.154398 1_555
Mg22 O2 2.154398 1_555
Mg22 O8 2.169566 1_555
Mg22 O9 2.169566 1_554
Mg22 O24 2.185581 1_555
Mg22 O0 2.185581 1_555
Mg23 O3 2.103076 1_555
Mg23 O29 2.103076 1_555
Mg23 O9 2.168853 1_555
Mg23 O8 2.168853 1_555
Mg23 O25 2.242614 1_555
Mg23 O1 2.242614 1_555
Mg24 O30 2.154398 1_555
Mg24 O2 2.154398 1_555
Mg24 O10 2.169566 1_555
Mg24 O11 2.169566 1_554
Mg24 O0 2.185581 1_655
Mg24 O26 2.185581 1_555
Mg25 O31 2.103076 1_555
Mg25 O3 2.103076 1_555
Mg25 O11 2.168853 1_555
Mg25 O10 2.168853 1_555
Mg25 O1 2.242614 1_655
Mg25 O27 2.242614 1_555
Mg26 O28 2.154398 1_555
Mg26 O6 2.154398 1_555
Mg26 O12 2.169566 1_555
Mg26 O13 2.169566 1_554
Mg26 O24 2.185581 1_565
Mg26 O4 2.185581 1_555
Mg27 O7 2.103076 1_555
Mg27 O29 2.103076 1_555
Mg27 O13 2.168853 1_555
Mg27 O12 2.168853 1_555
Mg27 O25 2.242614 1_565
Mg27 O5 2.242614 1_555
Mg28 O6 2.154398 1_555
Mg28 O30 2.154398 1_555
Mg28 O14 2.169566 1_555
Mg28 O15 2.169566 1_554
Mg28 O26 2.185581 1_565
Mg28 O4 2.185581 1_655
Mg29 O7 2.103076 1_555
Mg29 O31 2.103076 1_555
Mg29 O15 2.168853 1_555
Mg29 O14 2.168853 1_555
Mg29 O27 2.242614 1_565
Mg29 O5 2.242614 1_655
Mn0 O17 1.958467 1_554
Mn0 O16 1.958467 1_555
Mn0 O4 2.280173 1_545
Mn0 O0 2.280173 1_555
Mn0 O24 2.280173 1_555
Mn0 O26 2.280173 1_455
