# generated using pymatgen
data_Li(NdSi)2
_symmetry_space_group_name_H-M   'P 1'
_cell_length_a   7.45844900
_cell_length_b   7.45844900
_cell_length_c   4.26325900
_cell_angle_alpha   90.00000000
_cell_angle_beta   90.00000000
_cell_angle_gamma   90.00000000
_symmetry_Int_Tables_number   1
_chemical_formula_structural   Li(NdSi)2
_chemical_formula_sum   'Li2 Nd4 Si4'
_cell_volume   237.15853908
_cell_formula_units_Z   2
loop_
 _symmetry_equiv_pos_site_id
 _symmetry_equiv_pos_as_xyz
  1  'x, y, z'
loop_
 _atom_site_type_symbol
 _atom_site_label
 _atom_site_symmetry_multiplicity
 _atom_site_fract_x
 _atom_site_fract_y
 _atom_site_fract_z
 _atom_site_occupancy
  Li  Li0  1  0.50000000  0.50000000  0.00000000  1
  Li  Li1  1  0.00000000  0.00000000  0.00000000  1
  Nd  Nd0  1  0.68120200  0.18120200  0.50000000  1
  Nd  Nd1  1  0.31879800  0.81879800  0.50000000  1
  Nd  Nd2  1  0.18120200  0.31879800  0.50000000  1
  Nd  Nd3  1  0.81879800  0.68120200  0.50000000  1
  Si  Si0  1  0.11420200  0.61420200  0.00000000  1
  Si  Si1  1  0.88579800  0.38579800  0.00000000  1
  Si  Si2  1  0.61420200  0.88579800  0.00000000  1
  Si  Si3  1  0.38579800  0.11420200  0.00000000  1
loop_
_geom_bond_atom_site_label_1
_geom_bond_atom_site_label_2
_geom_bond_distance
_geom_bond_site_symmetry_2
Li0 Si3 3.000876 1_555
Li0 Si0 3.000876 1_555
Li0 Si1 3.000876 1_555
Li0 Si2 3.000876 1_555
Li1 Si3 3.000876 1_555
Li1 Si1 3.000876 1_455
Li1 Si2 3.000876 1_445
Li1 Si0 3.000876 1_545
Nd0 Si1 3.033316 1_555
Nd0 Si1 3.033316 1_556
Nd0 Si3 3.106106 1_555
Nd0 Si2 3.106106 1_546
Nd0 Si3 3.106106 1_556
Nd0 Si2 3.106106 1_545
Nd1 Si0 3.033316 1_556
Nd1 Si0 3.033316 1_555
Nd1 Si3 3.106106 1_566
Nd1 Si3 3.106106 1_565
Nd1 Si2 3.106106 1_556
Nd1 Si2 3.106106 1_555
Nd2 Si3 3.033316 1_555
Nd2 Si3 3.033316 1_556
Nd2 Si0 3.106106 1_555
Nd2 Si1 3.106106 1_455
Nd2 Si1 3.106106 1_456
Nd2 Si0 3.106106 1_556
Nd3 Si2 3.033316 1_556
Nd3 Si2 3.033316 1_555
Nd3 Si0 3.106106 1_656
Nd3 Si0 3.106106 1_655
Nd3 Si1 3.106106 1_555
Nd3 Si1 3.106106 1_556
Si0 Si1 2.409169 1_455
Si2 Si3 2.409169 1_565
