# generated using pymatgen
data_LuBiO3
_symmetry_space_group_name_H-M   'P 1'
_cell_length_a   6.04535580
_cell_length_b   6.04535580
_cell_length_c   6.04535552
_cell_angle_alpha   58.67412313
_cell_angle_beta   58.67412313
_cell_angle_gamma   58.67413236
_symmetry_Int_Tables_number   1
_chemical_formula_structural   LuBiO3
_chemical_formula_sum   'Lu2 Bi2 O6'
_cell_volume   151.49129452
_cell_formula_units_Z   2
loop_
 _symmetry_equiv_pos_site_id
 _symmetry_equiv_pos_as_xyz
  1  'x, y, z'
loop_
 _atom_site_type_symbol
 _atom_site_label
 _atom_site_symmetry_multiplicity
 _atom_site_fract_x
 _atom_site_fract_y
 _atom_site_fract_z
 _atom_site_occupancy
  Lu  Lu0  1  0.77848100  0.77848100  0.77848100  1
  Lu  Lu1  1  0.27848100  0.27848100  0.27848100  1
  Bi  Bi0  1  0.99312600  0.99312600  0.99312600  1
  Bi  Bi1  1  0.49312600  0.49312600  0.49312600  1
  O  O0  1  0.92957000  0.13779500  0.58261800  1
  O  O1  1  0.42957000  0.08261800  0.63779500  1
  O  O2  1  0.63779500  0.42957000  0.08261800  1
  O  O3  1  0.58261800  0.92957000  0.13779500  1
  O  O4  1  0.13779500  0.58261800  0.92957000  1
  O  O5  1  0.08261800  0.63779500  0.42957000  1
loop_
_geom_bond_atom_site_label_1
_geom_bond_atom_site_label_2
_geom_bond_distance
_geom_bond_site_symmetry_2
Lu0 O2 2.181690 1_556
Lu0 O5 2.181690 1_655
Lu0 O1 2.181690 1_565
Lu0 O0 2.284453 1_565
Lu0 O3 2.284453 1_556
Lu0 O4 2.284453 1_655
Lu1 O0 2.181690 1_455
Lu1 O4 2.181690 1_554
Lu1 O3 2.181690 1_545
Lu1 O2 2.284453 1_555
Lu1 O1 2.284453 1_555
Lu1 O5 2.284453 1_555
Bi0 O0 2.335899 1_565
Bi0 O3 2.335899 1_556
Bi0 O4 2.335899 1_655
Bi0 O1 2.500208 1_665
Bi0 O5 2.500209 1_656
Bi0 O2 2.500209 1_566
Bi1 O2 2.335899 1_555
Bi1 O1 2.335899 1_555
Bi1 O5 2.335899 1_555
Bi1 O3 2.500208 1_555
Bi1 O4 2.500209 1_555
Bi1 O0 2.500209 1_555
