# generated using pymatgen
data_YEr3Fe34
_symmetry_space_group_name_H-M   'P 1'
_cell_length_a   8.46459585
_cell_length_b   8.46459585
_cell_length_c   8.24604900
_cell_angle_alpha   90.00000000
_cell_angle_beta   90.00000000
_cell_angle_gamma   119.99999886
_symmetry_Int_Tables_number   1
_chemical_formula_structural   YEr3Fe34
_chemical_formula_sum   'Y1 Er3 Fe34'
_cell_volume   511.66887859
_cell_formula_units_Z   1
loop_
 _symmetry_equiv_pos_site_id
 _symmetry_equiv_pos_as_xyz
  1  'x, y, z'
loop_
 _atom_site_type_symbol
 _atom_site_label
 _atom_site_symmetry_multiplicity
 _atom_site_fract_x
 _atom_site_fract_y
 _atom_site_fract_z
 _atom_site_occupancy
  Y  Y0  1  0.33333300  0.66666700  0.50000000  1
  Er  Er0  1  0.00000000  0.00000000  0.00000000  1
  Er  Er1  1  0.66666700  0.33333300  0.00000000  1
  Er  Er2  1  0.66666700  0.33333300  0.50000000  1
  Fe  Fe0  1  0.33333300  0.66666700  0.14313100  1
  Fe  Fe1  1  0.00000000  0.00000000  0.35618500  1
  Fe  Fe2  1  0.00000000  0.00000000  0.64381500  1
  Fe  Fe3  1  0.33333300  0.66666700  0.85686900  1
  Fe  Fe4  1  0.99783800  0.49891900  0.26456600  1
  Fe  Fe5  1  0.50108100  0.49891900  0.26456600  1
  Fe  Fe6  1  0.50108100  0.00216200  0.26456600  1
  Fe  Fe7  1  0.33482400  0.16741200  0.23495600  1
  Fe  Fe8  1  0.83258800  0.16741200  0.23495600  1
  Fe  Fe9  1  0.83258800  0.66517600  0.23495600  1
  Fe  Fe10  1  0.33482400  0.16741200  0.76504400  1
  Fe  Fe11  1  0.83258800  0.16741200  0.76504400  1
  Fe  Fe12  1  0.83258800  0.66517600  0.76504400  1
  Fe  Fe13  1  0.99783800  0.49891900  0.73543400  1
  Fe  Fe14  1  0.50108100  0.49891900  0.73543400  1
  Fe  Fe15  1  0.50108100  0.00216200  0.73543400  1
  Fe  Fe16  1  0.66727800  0.83363900  0.24957900  1
  Fe  Fe17  1  0.16636100  0.83363900  0.24957900  1
  Fe  Fe18  1  0.16636100  0.33272200  0.24957900  1
  Fe  Fe19  1  0.66727800  0.83363900  0.75042100  1
  Fe  Fe20  1  0.16636100  0.83363900  0.75042100  1
  Fe  Fe21  1  0.16636100  0.33272200  0.75042100  1
  Fe  Fe22  1  0.62924800  0.66252500  0.00000000  1
  Fe  Fe23  1  0.33747500  0.96672300  0.00000000  1
  Fe  Fe24  1  0.03327700  0.37075200  0.00000000  1
  Fe  Fe25  1  0.62924800  0.96672300  0.00000000  1
  Fe  Fe26  1  0.33747500  0.37075200  0.00000000  1
  Fe  Fe27  1  0.03327700  0.66252500  0.00000000  1
  Fe  Fe28  1  0.70549100  0.00441400  0.50000000  1
  Fe  Fe29  1  0.99558600  0.70107800  0.50000000  1
  Fe  Fe30  1  0.29892200  0.29450900  0.50000000  1
  Fe  Fe31  1  0.70549100  0.70107800  0.50000000  1
  Fe  Fe32  1  0.99558600  0.29450900  0.50000000  1
  Fe  Fe33  1  0.29892200  0.00441400  0.50000000  1
loop_
_geom_bond_atom_site_label_1
_geom_bond_atom_site_label_2
_geom_bond_distance
_geom_bond_site_symmetry_2
Er0 Fe2 2.937119 1_554
Er0 Fe1 2.937119 1_555
Er0 Fe23 3.007337 1_545
Er0 Fe27 3.007337 1_545
Er0 Fe24 3.007337 1_555
Er0 Fe25 3.007337 1_445
Er0 Fe26 3.007338 1_555
Er0 Fe22 3.007338 1_445
Er0 Fe8 3.126987 1_455
Er0 Fe11 3.126987 1_454
Er0 Fe9 3.126987 1_445
Er0 Fe7 3.126987 1_555
Er0 Fe10 3.126987 1_554
Er0 Fe12 3.126987 1_444
Er0 Fe20 3.191306 1_544
Er0 Fe17 3.191306 1_545
Er0 Fe18 3.191306 1_555
Er0 Fe21 3.191306 1_554
Er0 Fe19 3.191306 1_444
Er0 Fe16 3.191306 1_445
Er1 Fe25 2.957585 1_545
Er1 Fe24 2.957585 1_655
Er1 Fe27 2.957588 1_655
Er1 Fe23 2.957588 1_545
Er1 Fe22 2.957593 1_555
Er1 Fe26 2.957593 1_555
Er1 Fe8 3.109859 1_555
Er1 Fe11 3.109859 1_554
Er1 Fe7 3.109864 1_555
Er1 Fe12 3.109864 1_554
Er1 Fe9 3.109864 1_555
Er1 Fe10 3.109864 1_554
Er1 Fe6 3.263901 1_555
Er1 Fe4 3.263901 1_555
Er1 Fe15 3.263901 1_554
Er1 Fe13 3.263901 1_554
Er1 Fe5 3.263907 1_555
Er1 Fe14 3.263907 1_554
Er2 Fe32 2.962185 1_555
Er2 Fe28 2.962185 1_555
Er2 Fe29 2.962195 1_555
Er2 Fe33 2.962195 1_555
Er2 Fe31 2.962202 1_555
Er2 Fe30 2.962202 1_555
Er2 Fe13 3.108473 1_555
Er2 Fe15 3.108473 1_555
Er2 Fe6 3.108473 1_555
Er2 Fe4 3.108473 1_555
Er2 Fe14 3.108479 1_555
Er2 Fe5 3.108479 1_555
Er2 Fe8 3.270195 1_555
Er2 Fe11 3.270195 1_555
Er2 Fe10 3.270200 1_555
Er2 Fe12 3.270200 1_555
Er2 Fe7 3.270200 1_555
Er2 Fe9 3.270200 1_555
Fe0 Fe3 2.360530 1_554
Fe0 Fe17 2.600609 1_555
Fe0 Fe16 2.600616 1_555
Fe0 Fe18 2.600616 1_555
Fe0 Fe6 2.655408 1_565
Fe0 Fe4 2.655408 1_455
Fe0 Fe5 2.655415 1_555
Fe0 Fe27 2.784970 1_555
Fe0 Fe23 2.784970 1_555
Fe0 Fe25 2.784974 1_555
Fe0 Fe24 2.784974 1_555
Fe0 Fe22 2.784978 1_555
Fe0 Fe26 2.784978 1_555
Fe0 Y0 2.942759 1_555
Fe1 Fe2 2.371811 1_555
Fe1 Fe17 2.592620 1_545
Fe1 Fe18 2.592620 1_555
Fe1 Fe16 2.592620 1_445
Fe1 Fe8 2.650212 1_455
Fe1 Fe9 2.650212 1_445
Fe1 Fe7 2.650212 1_555
Fe1 Fe33 2.777664 1_555
Fe1 Fe29 2.777664 1_445
Fe1 Fe30 2.777667 1_555
Fe1 Fe31 2.777667 1_445
Fe1 Fe32 2.777671 1_455
Fe1 Fe28 2.777671 1_455
Fe2 Fe20 2.592620 1_545
Fe2 Fe21 2.592620 1_555
Fe2 Fe33 2.777664 1_555
Fe2 Fe29 2.777664 1_445
Fe2 Fe30 2.777667 1_555
Fe2 Fe31 2.777667 1_445
Fe2 Fe32 2.777671 1_455
Fe2 Fe28 2.777671 1_455
Fe3 Y0 2.942759 1_555
Fe4 Fe9 2.442369 1_555
Fe4 Fe8 2.442369 1_555
Fe4 Y0 3.133290 1_655
Fe5 Fe7 2.442369 1_555
Fe5 Fe9 2.442369 1_555
Fe5 Y0 3.133296 1_555
Fe6 Fe7 2.442369 1_555
Fe6 Fe8 2.442369 1_555
Fe6 Y0 3.133290 1_545
Fe10 Fe15 2.442369 1_555
Fe10 Fe14 2.442369 1_555
Fe10 Fe21 2.449747 1_555
Fe10 Fe20 2.449747 1_545
Fe10 Fe33 2.520589 1_555
Fe10 Fe30 2.520593 1_555
Fe10 Fe23 2.584207 1_546
Fe10 Fe26 2.584207 1_556
Fe10 Fe2 2.650212 1_555
Fe11 Fe13 2.442369 1_555
Fe11 Fe15 2.442369 1_555
Fe11 Fe21 2.449747 1_655
Fe11 Fe19 2.449747 1_545
Fe11 Fe32 2.520590 1_555
Fe11 Fe28 2.520590 1_555
Fe11 Fe24 2.584207 1_656
Fe11 Fe25 2.584207 1_546
Fe11 Fe2 2.650212 1_655
Fe12 Fe13 2.442369 1_555
Fe12 Fe14 2.442369 1_555
Fe12 Fe19 2.449747 1_555
Fe12 Fe20 2.449747 1_655
Fe12 Fe29 2.520589 1_555
Fe12 Fe31 2.520593 1_555
Fe12 Fe27 2.584207 1_656
Fe12 Fe22 2.584207 1_556
Fe12 Fe2 2.650212 1_665
Fe13 Fe21 2.456813 1_655
Fe13 Fe20 2.456813 1_655
Fe13 Fe24 2.520293 1_656
Fe13 Fe27 2.520293 1_656
Fe13 Fe32 2.594258 1_555
Fe13 Fe29 2.594264 1_555
Fe13 Fe3 2.655408 1_655
Fe13 Y0 3.133290 1_655
Fe14 Fe19 2.456813 1_555
Fe14 Fe21 2.456813 1_555
Fe14 Fe22 2.520293 1_556
Fe14 Fe26 2.520293 1_556
Fe14 Fe31 2.594261 1_555
Fe14 Fe30 2.594261 1_555
Fe14 Fe3 2.655415 1_555
Fe14 Y0 3.133296 1_555
Fe15 Fe19 2.456813 1_545
Fe15 Fe20 2.456813 1_545
Fe15 Fe25 2.520293 1_546
Fe15 Fe23 2.520293 1_546
Fe15 Fe28 2.594258 1_555
Fe15 Fe33 2.594264 1_555
Fe15 Fe3 2.655408 1_545
Fe15 Y0 3.133290 1_545
Fe16 Fe25 2.443521 1_555
Fe16 Fe22 2.443521 1_555
Fe16 Fe31 2.447607 1_555
Fe16 Fe28 2.447611 1_565
Fe16 Fe9 2.449747 1_555
Fe16 Fe8 2.449747 1_565
Fe16 Fe6 2.456813 1_565
Fe16 Fe5 2.456813 1_555
Fe16 Y0 3.202635 1_555
Fe17 Fe27 2.443521 1_555
Fe17 Fe23 2.443521 1_555
Fe17 Fe29 2.447610 1_455
Fe17 Fe33 2.447610 1_565
Fe17 Fe9 2.449747 1_455
Fe17 Fe7 2.449747 1_565
Fe17 Fe4 2.456813 1_455
Fe17 Fe6 2.456813 1_565
Fe17 Y0 3.202630 1_555
Fe18 Fe24 2.443521 1_555
Fe18 Fe26 2.443521 1_555
Fe18 Fe30 2.447607 1_555
Fe18 Fe32 2.447611 1_455
Fe18 Fe7 2.449747 1_555
Fe18 Fe8 2.449747 1_455
Fe18 Fe4 2.456813 1_455
Fe18 Fe5 2.456813 1_555
Fe18 Y0 3.202635 1_555
Fe19 Fe25 2.443521 1_556
Fe19 Fe22 2.443521 1_556
Fe19 Fe31 2.447607 1_555
Fe19 Fe28 2.447611 1_565
Fe19 Fe2 2.592620 1_665
Fe19 Fe3 2.600616 1_555
Fe19 Y0 3.202635 1_555
Fe20 Fe27 2.443521 1_556
Fe20 Fe23 2.443521 1_556
Fe20 Fe29 2.447610 1_455
Fe20 Fe33 2.447610 1_565
Fe20 Fe3 2.600609 1_555
Fe20 Y0 3.202630 1_555
Fe21 Fe24 2.443521 1_556
Fe21 Fe26 2.443521 1_556
Fe21 Fe30 2.447607 1_555
Fe21 Fe32 2.447611 1_455
Fe21 Fe3 2.600616 1_555
Fe21 Y0 3.202635 1_555
Fe22 Fe26 2.469741 1_555
Fe22 Fe5 2.520293 1_555
Fe22 Fe25 2.574913 1_555
Fe22 Fe9 2.584207 1_555
Fe22 Fe3 2.784978 1_554
Fe23 Fe25 2.469741 1_555
Fe23 Fe6 2.520293 1_565
Fe23 Fe27 2.574913 1_555
Fe23 Fe7 2.584207 1_565
Fe23 Fe3 2.784970 1_554
Fe24 Fe27 2.469741 1_555
Fe24 Fe4 2.520293 1_455
Fe24 Fe26 2.574913 1_555
Fe24 Fe8 2.584207 1_455
Fe24 Fe3 2.784974 1_554
Fe25 Fe6 2.520293 1_565
Fe25 Fe8 2.584207 1_565
Fe25 Fe3 2.784974 1_554
Fe26 Fe5 2.520293 1_555
Fe26 Fe7 2.584207 1_555
Fe26 Fe3 2.784978 1_554
Fe27 Fe4 2.520293 1_455
Fe27 Fe9 2.584207 1_455
Fe27 Fe3 2.784970 1_554
Fe28 Fe32 2.455537 1_555
Fe28 Fe8 2.520590 1_555
Fe28 Fe31 2.567617 1_545
Fe28 Fe6 2.594258 1_555
Fe28 Y0 3.015100 1_545
Fe29 Fe31 2.455537 1_555
Fe29 Fe9 2.520589 1_555
Fe29 Fe33 2.567617 1_665
Fe29 Fe4 2.594264 1_555
Fe29 Y0 3.015100 1_655
Fe30 Fe33 2.455537 1_555
Fe30 Fe7 2.520593 1_555
Fe30 Fe32 2.567617 1_455
Fe30 Fe5 2.594261 1_555
Fe30 Y0 3.015100 1_555
Fe31 Fe9 2.520593 1_555
Fe31 Fe5 2.594261 1_555
Fe31 Y0 3.015100 1_555
Fe32 Fe8 2.520590 1_555
Fe32 Fe4 2.594258 1_555
Fe32 Y0 3.015100 1_655
Fe33 Fe7 2.520589 1_555
Fe33 Fe6 2.594264 1_555
Fe33 Y0 3.015100 1_545
