# generated using pymatgen
data_KSO4
_symmetry_space_group_name_H-M   'P 1'
_cell_length_a   8.63987500
_cell_length_b   10.05342500
_cell_length_c   19.41462900
_cell_angle_alpha   90.00000000
_cell_angle_beta   90.00000000
_cell_angle_gamma   90.00000000
_symmetry_Int_Tables_number   1
_chemical_formula_structural   KSO4
_chemical_formula_sum   'K16 S16 O64'
_cell_volume   1686.36118509
_cell_formula_units_Z   16
loop_
 _symmetry_equiv_pos_site_id
 _symmetry_equiv_pos_as_xyz
  1  'x, y, z'
loop_
 _atom_site_type_symbol
 _atom_site_label
 _atom_site_symmetry_multiplicity
 _atom_site_fract_x
 _atom_site_fract_y
 _atom_site_fract_z
 _atom_site_occupancy
  K  K0  1  0.88191000  0.18001900  0.37460700  1
  K  K1  1  0.38191000  0.31998100  0.62539300  1
  K  K2  1  0.11809000  0.68001900  0.12539300  1
  K  K3  1  0.61809000  0.81998100  0.87460700  1
  K  K4  1  0.11809000  0.81998100  0.62539300  1
  K  K5  1  0.61809000  0.68001900  0.37460700  1
  K  K6  1  0.88191000  0.31998100  0.87460700  1
  K  K7  1  0.38191000  0.18001900  0.12539300  1
  K  K8  1  0.37313500  0.31915900  0.38117000  1
  K  K9  1  0.87313500  0.18084100  0.61883000  1
  K  K10  1  0.62686500  0.81915900  0.11883000  1
  K  K11  1  0.12686500  0.68084100  0.88117000  1
  K  K12  1  0.62686500  0.68084100  0.61883000  1
  K  K13  1  0.12686500  0.81915900  0.38117000  1
  K  K14  1  0.37313500  0.18084100  0.88117000  1
  K  K15  1  0.87313500  0.31915900  0.11883000  1
  S  S0  1  0.75165600  0.42923600  0.49678200  1
  S  S1  1  0.25165600  0.07076400  0.50321800  1
  S  S2  1  0.24834400  0.92923600  0.00321800  1
  S  S3  1  0.74834400  0.57076400  0.99678200  1
  S  S4  1  0.24834400  0.57076400  0.50321800  1
  S  S5  1  0.74834400  0.92923600  0.49678200  1
  S  S6  1  0.75165600  0.07076400  0.99678200  1
  S  S7  1  0.25165600  0.42923600  0.00321800  1
  S  S8  1  0.47569100  0.02134700  0.29238700  1
  S  S9  1  0.97569100  0.47865300  0.70761300  1
  S  S10  1  0.52430900  0.52134700  0.20761300  1
  S  S11  1  0.02430900  0.97865300  0.79238700  1
  S  S12  1  0.52430900  0.97865300  0.70761300  1
  S  S13  1  0.02430900  0.52134700  0.29238700  1
  S  S14  1  0.47569100  0.47865300  0.79238700  1
  S  S15  1  0.97569100  0.02134700  0.20761300  1
  O  O0  1  0.78527600  0.57434900  0.49792100  1
  O  O1  1  0.28527600  0.92565100  0.50207900  1
  O  O2  1  0.21472400  0.07434900  0.00207900  1
  O  O3  1  0.71472400  0.42565100  0.99792100  1
  O  O4  1  0.21472400  0.42565100  0.50207900  1
  O  O5  1  0.71472400  0.07434900  0.49792100  1
  O  O6  1  0.78527600  0.92565100  0.99792100  1
  O  O7  1  0.28527600  0.57434900  0.00207900  1
  O  O8  1  0.89830900  0.35176800  0.49649400  1
  O  O9  1  0.39830900  0.14823200  0.50350600  1
  O  O10  1  0.10169100  0.85176800  0.00350600  1
  O  O11  1  0.60169100  0.64823200  0.99649400  1
  O  O12  1  0.10169100  0.64823200  0.50350600  1
  O  O13  1  0.60169100  0.85176800  0.49649400  1
  O  O14  1  0.89830900  0.14823200  0.99649400  1
  O  O15  1  0.39830900  0.35176800  0.00350600  1
  O  O16  1  0.66323800  0.39584800  0.56031000  1
  O  O17  1  0.16323800  0.10415200  0.43969000  1
  O  O18  1  0.33676200  0.89584800  0.93969000  1
  O  O19  1  0.83676200  0.60415200  0.06031000  1
  O  O20  1  0.33676200  0.60415200  0.43969000  1
  O  O21  1  0.83676200  0.89584800  0.56031000  1
  O  O22  1  0.66323800  0.10415200  0.06031000  1
  O  O23  1  0.16323800  0.39584800  0.93969000  1
  O  O24  1  0.66318500  0.39767500  0.43306400  1
  O  O25  1  0.16318500  0.10232500  0.56693600  1
  O  O26  1  0.33681500  0.89767500  0.06693600  1
  O  O27  1  0.83681500  0.60232500  0.93306400  1
  O  O28  1  0.33681500  0.60232500  0.56693600  1
  O  O29  1  0.83681500  0.89767500  0.43306400  1
  O  O30  1  0.66318500  0.10232500  0.93306400  1
  O  O31  1  0.16318500  0.39767500  0.06693600  1
  O  O32  1  0.56058900  0.99255000  0.22676000  1
  O  O33  1  0.06058900  0.50745000  0.77324000  1
  O  O34  1  0.43941100  0.49255000  0.27324000  1
  O  O35  1  0.93941100  0.00745000  0.72676000  1
  O  O36  1  0.43941100  0.00745000  0.77324000  1
  O  O37  1  0.93941100  0.49255000  0.22676000  1
  O  O38  1  0.56058900  0.50745000  0.72676000  1
  O  O39  1  0.06058900  0.99255000  0.27324000  1
  O  O40  1  0.34069000  0.10967300  0.27779900  1
  O  O41  1  0.84069000  0.39032700  0.72220100  1
  O  O42  1  0.65931000  0.60967300  0.22220100  1
  O  O43  1  0.15931000  0.89032700  0.77779900  1
  O  O44  1  0.65931000  0.89032700  0.72220100  1
  O  O45  1  0.15931000  0.60967300  0.27779900  1
  O  O46  1  0.34069000  0.39032700  0.77779900  1
  O  O47  1  0.84069000  0.10967300  0.22220100  1
  O  O48  1  0.42266600  0.89374200  0.32225200  1
  O  O49  1  0.92266600  0.60625800  0.67774800  1
  O  O50  1  0.57733400  0.39374200  0.17774800  1
  O  O51  1  0.07733400  0.10625800  0.82225200  1
  O  O52  1  0.57733400  0.10625800  0.67774800  1
  O  O53  1  0.07733400  0.39374200  0.32225200  1
  O  O54  1  0.42266600  0.60625800  0.82225200  1
  O  O55  1  0.92266600  0.89374200  0.17774800  1
  O  O56  1  0.58050300  0.09194400  0.34044900  1
  O  O57  1  0.08050300  0.40805600  0.65955100  1
  O  O58  1  0.41949700  0.59194400  0.15955100  1
  O  O59  1  0.91949700  0.90805600  0.84044900  1
  O  O60  1  0.41949700  0.90805600  0.65955100  1
  O  O61  1  0.91949700  0.59194400  0.34044900  1
  O  O62  1  0.58050300  0.40805600  0.84044900  1
  O  O63  1  0.08050300  0.09194400  0.15955100  1
loop_
_geom_bond_atom_site_label_1
_geom_bond_atom_site_label_2
_geom_bond_distance
_geom_bond_site_symmetry_2
K0 O56 2.829356 1_555
K0 O17 2.843649 1_655
K0 O53 2.915595 1_655
K0 O8 2.932790 1_555
K0 O5 2.991112 1_555
K0 O47 3.063024 1_555
K0 O29 3.081731 1_545
K0 O24 3.106025 1_555
K0 O39 3.131830 1_645
K1 O57 2.829356 1_555
K1 O16 2.843649 1_555
K1 O52 2.915595 1_555
K1 O9 2.932790 1_555
K1 O4 2.991112 1_555
K1 O46 3.063024 1_555
K1 O28 3.081731 1_555
K1 O25 3.106025 1_555
K1 O38 3.131830 1_555
K2 O58 2.829356 1_555
K2 O19 2.843649 1_455
K2 O55 2.915595 1_455
K2 O10 2.932790 1_555
K2 O7 2.991112 1_555
K2 O45 3.063024 1_555
K2 O31 3.081731 1_555
K2 O26 3.106025 1_555
K2 O37 3.131830 1_455
K3 O59 2.829356 1_555
K3 O18 2.843649 1_555
K3 O54 2.915595 1_555
K3 O11 2.932790 1_555
K3 O6 2.991112 1_555
K3 O44 3.063024 1_555
K3 O30 3.081731 1_565
K3 O27 3.106025 1_555
K3 O36 3.131830 1_565
K4 O60 2.829356 1_555
K4 O21 2.843649 1_455
K4 O49 2.915595 1_455
K4 O12 2.932790 1_555
K4 O1 2.991112 1_555
K4 O43 3.063024 1_555
K4 O25 3.081731 1_565
K4 O28 3.106025 1_555
K4 O35 3.131830 1_465
K5 O61 2.829356 1_555
K5 O20 2.843649 1_555
K5 O48 2.915595 1_555
K5 O13 2.932790 1_555
K5 O0 2.991112 1_555
K5 O42 3.063024 1_555
K5 O24 3.081731 1_555
K5 O29 3.106025 1_555
K5 O34 3.131830 1_555
K6 O62 2.829356 1_555
K6 O23 2.843649 1_655
K6 O51 2.915595 1_655
K6 O14 2.932790 1_555
K6 O3 2.991112 1_555
K6 O41 3.063024 1_555
K6 O27 3.081731 1_555
K6 O30 3.106025 1_555
K6 O33 3.131830 1_655
K7 O63 2.829356 1_555
K7 O22 2.843649 1_555
K7 O50 2.915595 1_555
K7 O15 2.932790 1_555
K7 O2 2.991112 1_555
K7 O40 3.063024 1_555
K7 O26 3.081731 1_545
K7 O31 3.106025 1_555
K7 O32 3.131830 1_545
K8 O34 2.785199 1_555
K8 O24 2.813922 1_555
K8 O53 2.898652 1_555
K8 O4 2.920567 1_555
K8 O40 2.922622 1_555
K8 O9 2.939617 1_555
K8 O56 3.008812 1_555
K8 O17 3.041689 1_555
K8 O20 3.098177 1_555
K9 O35 2.785199 1_555
K9 O25 2.813922 1_655
K9 O52 2.898652 1_555
K9 O5 2.920567 1_555
K9 O41 2.922622 1_555
K9 O8 2.939617 1_555
K9 O57 3.008812 1_655
K9 O16 3.041689 1_555
K9 O21 3.098177 1_545
K10 O32 2.785199 1_555
K10 O26 2.813922 1_555
K10 O55 2.898652 1_555
K10 O6 2.920567 1_554
K10 O42 2.922622 1_555
K10 O11 2.939617 1_554
K10 O58 3.008812 1_555
K10 O19 3.041689 1_555
K10 O22 3.098177 1_565
K11 O33 2.785199 1_555
K11 O27 2.813922 1_455
K11 O54 2.898652 1_555
K11 O7 2.920567 1_556
K11 O43 2.922622 1_555
K11 O10 2.939617 1_556
K11 O59 3.008812 1_455
K11 O18 3.041689 1_555
K11 O23 3.098177 1_555
K12 O38 2.785199 1_555
K12 O28 2.813922 1_555
K12 O49 2.898652 1_555
K12 O0 2.920567 1_555
K12 O44 2.922622 1_555
K12 O13 2.939617 1_555
K12 O60 3.008812 1_555
K12 O21 3.041689 1_555
K12 O16 3.098177 1_555
K13 O39 2.785199 1_555
K13 O29 2.813922 1_455
K13 O48 2.898652 1_555
K13 O1 2.920567 1_555
K13 O45 2.922622 1_555
K13 O12 2.939617 1_555
K13 O61 3.008812 1_455
K13 O20 3.041689 1_555
K13 O17 3.098177 1_565
K14 O36 2.785199 1_555
K14 O30 2.813922 1_555
K14 O51 2.898652 1_555
K14 O2 2.920567 1_556
K14 O46 2.922622 1_555
K14 O15 2.939617 1_556
K14 O62 3.008812 1_555
K14 O23 3.041689 1_555
K14 O18 3.098177 1_545
K15 O37 2.785199 1_555
K15 O31 2.813922 1_655
K15 O50 2.898652 1_555
K15 O3 2.920567 1_554
K15 O47 2.922622 1_555
K15 O14 2.939617 1_554
K15 O63 3.008812 1_655
K15 O22 3.041689 1_555
K15 O19 3.098177 1_555
O0 S0 1.487683 1_555
O1 S1 1.487683 1_565
O2 S2 1.487683 1_545
O3 S3 1.487683 1_555
O4 S4 1.487683 1_555
O5 S5 1.487683 1_545
O6 S6 1.487683 1_565
O7 S7 1.487683 1_555
O8 S0 1.487293 1_555
O9 S1 1.487293 1_555
O10 S2 1.487293 1_555
O11 S3 1.487293 1_555
O12 S4 1.487293 1_555
O13 S5 1.487293 1_555
O14 S6 1.487293 1_555
O15 S7 1.487293 1_555
O16 S0 1.489111 1_555
O17 S1 1.489111 1_555
O18 S2 1.489111 1_556
O19 S3 1.489111 1_554
O20 S4 1.489111 1_555
O21 S5 1.489111 1_555
O22 S6 1.489111 1_554
O23 S7 1.489111 1_556
O24 S0 1.488379 1_555
O25 S1 1.488379 1_555
O26 S2 1.488379 1_555
O27 S3 1.488379 1_555
O28 S4 1.488379 1_555
O29 S5 1.488379 1_555
O30 S6 1.488379 1_555
O31 S7 1.488379 1_555
O32 S8 1.498413 1_565
O33 S9 1.498413 1_455
O34 S10 1.498413 1_555
O35 S11 1.498413 1_645
O36 S12 1.498413 1_545
O37 S13 1.498413 1_655
O38 S14 1.498413 1_555
O39 S15 1.498413 1_465
O40 S8 1.493047 1_555
O41 S9 1.493047 1_555
O42 S10 1.493047 1_555
O43 S11 1.493047 1_555
O44 S12 1.493047 1_555
O45 S13 1.493047 1_555
O46 S14 1.493047 1_555
O47 S15 1.493047 1_555
O48 S8 1.480480 1_565
O49 S9 1.480480 1_555
O50 S10 1.480480 1_555
O51 S11 1.480480 1_545
O52 S12 1.480480 1_545
O53 S13 1.480480 1_555
O54 S14 1.480480 1_555
O55 S15 1.480480 1_565
O56 S8 1.481372 1_555
O57 S9 1.481372 1_455
O58 S10 1.481372 1_555
O59 S11 1.481372 1_655
O60 S12 1.481372 1_555
O61 S13 1.481372 1_655
O62 S14 1.481372 1_555
O63 S15 1.481372 1_455
