# generated using pymatgen
data_Sr2AlCu2SnO7
_symmetry_space_group_name_H-M   'P 1'
_cell_length_a   5.36592800
_cell_length_b   5.40791471
_cell_length_c   12.51884949
_cell_angle_alpha   102.41042714
_cell_angle_beta   102.27482625
_cell_angle_gamma   90.31689211
_symmetry_Int_Tables_number   1
_chemical_formula_structural   Sr2AlCu2SnO7
_chemical_formula_sum   'Sr4 Al2 Cu4 Sn2 O14'
_cell_volume   346.17879921
_cell_formula_units_Z   2
loop_
 _symmetry_equiv_pos_site_id
 _symmetry_equiv_pos_as_xyz
  1  'x, y, z'
loop_
 _atom_site_type_symbol
 _atom_site_label
 _atom_site_symmetry_multiplicity
 _atom_site_fract_x
 _atom_site_fract_y
 _atom_site_fract_z
 _atom_site_occupancy
  Sr  Sr0  1  0.66031800  0.64111400  0.71984300  1
  Sr  Sr1  1  0.38156700  0.35302100  0.28214700  1
  Sr  Sr2  1  0.15827200  0.13537100  0.71912100  1
  Sr  Sr3  1  0.88579400  0.86481600  0.28129900  1
  Al  Al0  1  0.01526000  0.00839300  0.00012800  1
  Al  Al1  1  0.51114600  0.49232800  0.00079900  1
  Cu  Cu0  1  0.06914800  0.55772600  0.88665400  1
  Cu  Cu1  1  0.96562700  0.45046700  0.10818700  1
  Cu  Cu2  1  0.56742800  0.05037500  0.89239300  1
  Cu  Cu3  1  0.46462300  0.94057200  0.11367500  1
  Sn  Sn0  1  0.73322700  0.29051900  0.50078900  1
  Sn  Sn1  1  0.24597500  0.73294600  0.50093200  1
  O  O0  1  0.85805700  0.65297400  0.50065200  1
  O  O1  1  0.35359700  0.35642500  0.50073600  1
  O  O2  1  0.73822000  0.72590700  0.89728400  1
  O  O3  1  0.64784200  0.27212400  0.10379200  1
  O  O4  1  0.24072000  0.87692300  0.89735400  1
  O  O5  1  0.14748600  0.13078800  0.10388800  1
  O  O6  1  0.38917000  0.37224500  0.89378200  1
  O  O7  1  0.29162700  0.61898200  0.10763000  1
  O  O8  1  0.88877700  0.22745200  0.89299500  1
  O  O9  1  0.79494800  0.77384200  0.10662500  1
  O  O10  1  0.69733200  0.13910300  0.66564000  1
  O  O11  1  0.36248400  0.84795300  0.32477800  1
  O  O12  1  0.18366700  0.67113200  0.67710900  1
  O  O13  1  0.86434500  0.30426500  0.33608700  1
loop_
_geom_bond_atom_site_label_1
_geom_bond_atom_site_label_2
_geom_bond_distance
_geom_bond_site_symmetry_2
Al0 O5 1.364618 1_555
Al0 O4 1.975515 1_544
Al0 O8 1.991877 1_454
Al0 O2 2.125311 1_444
Al0 O9 2.482820 1_445
Al1 O6 1.376037 1_554
Al1 O3 1.971310 1_555
Al1 O7 1.982502 1_555
Al1 O9 2.154425 1_555
Al1 O2 2.473369 1_554
Cu0 O4 1.917252 1_555
Cu0 O6 1.988794 1_555
Cu0 O2 2.016054 1_455
Cu0 O8 2.051260 1_455
Cu1 O3 1.939090 1_555
Cu1 O7 1.969988 1_655
Cu1 O9 1.980458 1_555
Cu1 O5 1.986178 1_655
Cu2 O8 1.965586 1_555
Cu2 O6 1.989361 1_555
Cu2 O2 1.990655 1_545
Cu2 O4 2.002549 1_545
Cu3 O7 1.946206 1_555
Cu3 O5 1.988456 1_565
Cu3 O9 2.003130 1_555
Cu3 O3 2.079498 1_565
O0 Sn0 2.068375 1_555
O0 Sn1 2.122769 1_655
O1 Sn0 2.069839 1_555
O1 Sn1 2.119209 1_555
O1 Sr1 2.768432 1_555
O1 Sr0 2.973247 1_555
O2 Sr0 2.117702 1_555
O3 Sr1 2.856895 1_555
O5 Sr1 2.375027 1_555
O6 Sr2 2.362974 1_555
O7 Sr1 2.825729 1_555
O9 Sr3 2.084008 1_555
O10 Sn0 2.420801 1_555
O10 Sr2 2.422492 1_655
O10 Sr0 2.672389 1_555
O10 Sr0 2.930775 1_545
O10 Sr2 3.105507 1_555
O11 Sr3 2.505848 1_455
O11 Sn1 2.610022 1_555
O11 Sr1 2.621357 1_555
O11 Sr1 2.898684 1_565
O11 Sr3 2.976255 1_555
O12 Sn1 2.391049 1_555
O12 Sr2 2.462688 1_565
O12 Sr0 2.512842 1_555
O12 Sr0 2.978244 1_455
O12 Sr2 3.061194 1_555
O13 Sn0 2.331098 1_555
O13 Sr3 2.338252 1_545
O13 Sr1 2.564515 1_555
O13 Sr1 3.015548 1_655
O13 Sr3 3.255232 1_555
