# generated using pymatgen
data_Bi2PO6
_symmetry_space_group_name_H-M   'P 1'
_cell_length_a   7.05287100
_cell_length_b   7.02956700
_cell_length_c   10.53714764
_cell_angle_alpha   71.83490716
_cell_angle_beta   90.00000000
_cell_angle_gamma   90.00000000
_symmetry_Int_Tables_number   1
_chemical_formula_structural   Bi2PO6
_chemical_formula_sum   'Bi8 P4 O24'
_cell_volume   496.38118634
_cell_formula_units_Z   4
loop_
 _symmetry_equiv_pos_site_id
 _symmetry_equiv_pos_as_xyz
  1  'x, y, z'
loop_
 _atom_site_type_symbol
 _atom_site_label
 _atom_site_symmetry_multiplicity
 _atom_site_fract_x
 _atom_site_fract_y
 _atom_site_fract_z
 _atom_site_occupancy
  Bi  Bi0  1  0.89713600  0.74626900  0.97402700  1
  Bi  Bi1  1  0.39713600  0.25373100  0.52597300  1
  Bi  Bi2  1  0.10286400  0.25373100  0.02597300  1
  Bi  Bi3  1  0.60286400  0.74626900  0.47402700  1
  Bi  Bi4  1  0.37686100  0.60493400  0.18208600  1
  Bi  Bi5  1  0.87686100  0.39506600  0.31791400  1
  Bi  Bi6  1  0.62313900  0.39506600  0.81791400  1
  Bi  Bi7  1  0.12313900  0.60493400  0.68208600  1
  P  P0  1  0.06900900  0.86955800  0.33082800  1
  P  P1  1  0.56900900  0.13044200  0.16917200  1
  P  P2  1  0.93099100  0.13044200  0.66917200  1
  P  P3  1  0.43099100  0.86955800  0.83082800  1
  O  O0  1  0.07028500  0.49107500  0.12044100  1
  O  O1  1  0.57028500  0.50892500  0.37955900  1
  O  O2  1  0.92971500  0.50892500  0.87955900  1
  O  O3  1  0.42971500  0.49107500  0.62044100  1
  O  O4  1  0.70634100  0.57839000  0.13839400  1
  O  O5  1  0.20634100  0.42161000  0.36160600  1
  O  O6  1  0.29365900  0.42161000  0.86160600  1
  O  O7  1  0.79365900  0.57839000  0.63839400  1
  O  O8  1  0.14777400  0.83340200  0.20202100  1
  O  O9  1  0.64777400  0.16659800  0.29797900  1
  O  O10  1  0.85222600  0.16659800  0.79797900  1
  O  O11  1  0.35222600  0.83340200  0.70202100  1
  O  O12  1  0.20707000  0.81510500  0.45189400  1
  O  O13  1  0.70707000  0.18489500  0.04810600  1
  O  O14  1  0.79293000  0.18489500  0.54810600  1
  O  O15  1  0.29293000  0.81510500  0.95189400  1
  O  O16  1  0.89236900  0.72813700  0.37212000  1
  O  O17  1  0.39236900  0.27186300  0.12788000  1
  O  O18  1  0.10763100  0.27186300  0.62788000  1
  O  O19  1  0.60763100  0.72813700  0.87212000  1
  O  O20  1  0.01778300  0.09416500  0.28608900  1
  O  O21  1  0.51778300  0.90583500  0.21391100  1
  O  O22  1  0.98221700  0.90583500  0.71391100  1
  O  O23  1  0.48221700  0.09416500  0.78608900  1
loop_
_geom_bond_atom_site_label_1
_geom_bond_atom_site_label_2
_geom_bond_distance
_geom_bond_site_symmetry_2
Bi0 O2 2.205183 1_555
Bi0 O4 2.220075 1_556
Bi0 O0 2.316023 1_656
Bi0 O19 2.328898 1_555
Bi0 O22 2.685843 1_555
Bi0 O15 2.830293 1_655
Bi1 O3 2.205183 1_555
Bi1 O5 2.220075 1_555
Bi1 O1 2.316023 1_555
Bi1 O18 2.328898 1_555
Bi1 O23 2.685843 1_555
Bi1 O14 2.830293 1_555
Bi2 O0 2.205183 1_555
Bi2 O6 2.220075 1_554
Bi2 O2 2.316023 1_454
Bi2 O17 2.328898 1_555
Bi2 O20 2.685843 1_555
Bi2 O13 2.830293 1_455
Bi3 O1 2.205183 1_555
Bi3 O7 2.220075 1_555
Bi3 O3 2.316023 1_555
Bi3 O16 2.328898 1_555
Bi3 O21 2.685843 1_555
Bi3 O12 2.830293 1_555
Bi4 O5 2.272754 1_555
Bi4 O8 2.333316 1_555
Bi4 O4 2.387528 1_555
Bi4 O1 2.402215 1_555
Bi4 O21 2.452888 1_555
Bi4 O0 2.462110 1_555
Bi4 O15 2.486390 1_554
Bi4 O17 2.579523 1_555
Bi5 O4 2.272754 1_555
Bi5 O9 2.333316 1_555
Bi5 O5 2.387528 1_655
Bi5 O0 2.402215 1_655
Bi5 O20 2.452888 1_655
Bi5 O1 2.462110 1_555
Bi5 O14 2.486390 1_555
Bi5 O16 2.579523 1_555
Bi6 O7 2.272754 1_555
Bi6 O10 2.333316 1_555
Bi6 O6 2.387528 1_555
Bi6 O3 2.402215 1_555
Bi6 O23 2.452888 1_555
Bi6 O2 2.462110 1_555
Bi6 O13 2.486390 1_556
Bi6 O19 2.579523 1_555
Bi7 O6 2.272754 1_555
Bi7 O11 2.333316 1_555
Bi7 O7 2.387528 1_455
Bi7 O2 2.402215 1_455
Bi7 O22 2.452888 1_455
Bi7 O3 2.462110 1_555
Bi7 O12 2.486390 1_555
Bi7 O18 2.579523 1_555
O8 P0 1.558986 1_555
O9 P1 1.558986 1_555
O10 P2 1.558986 1_555
O11 P3 1.558986 1_555
O12 P0 1.554858 1_555
O13 P1 1.554858 1_555
O14 P2 1.554858 1_555
O15 P3 1.554858 1_555
O16 P0 1.568430 1_655
O17 P1 1.568430 1_555
O18 P2 1.568430 1_455
O19 P3 1.568430 1_555
O20 P0 1.543233 1_545
O21 P1 1.543233 1_565
O22 P2 1.543233 1_565
O23 P3 1.543233 1_545
