# generated using pymatgen
data_SrMnZn(PO4)2
_symmetry_space_group_name_H-M   'P 1'
_cell_length_a   5.53250200
_cell_length_b   7.04704913
_cell_length_c   9.54676628
_cell_angle_alpha   110.65075659
_cell_angle_beta   101.88396675
_cell_angle_gamma   97.94070345
_symmetry_Int_Tables_number   1
_chemical_formula_structural   SrMnZn(PO4)2
_chemical_formula_sum   'Sr2 Mn2 Zn2 P4 O16'
_cell_volume   331.67533492
_cell_formula_units_Z   2
loop_
 _symmetry_equiv_pos_site_id
 _symmetry_equiv_pos_as_xyz
  1  'x, y, z'
loop_
 _atom_site_type_symbol
 _atom_site_label
 _atom_site_symmetry_multiplicity
 _atom_site_fract_x
 _atom_site_fract_y
 _atom_site_fract_z
 _atom_site_occupancy
  Sr  Sr0  1  0.19826500  0.75210500  0.04707100  1
  Sr  Sr1  1  0.80173500  0.24789500  0.95292900  1
  Mn  Mn0  1  0.06879400  0.27858000  0.55831600  1
  Mn  Mn1  1  0.93120600  0.72142000  0.44168400  1
  Zn  Zn0  1  0.35101800  0.72980800  0.64552500  1
  Zn  Zn1  1  0.64898200  0.27019200  0.35447500  1
  P  P0  1  0.16153800  0.19337800  0.22619300  1
  P  P1  1  0.83846200  0.80662200  0.77380700  1
  P  P2  1  0.53933800  0.72049100  0.29902500  1
  P  P3  1  0.46066200  0.27950900  0.70097500  1
  O  O0  1  0.90357400  0.65200100  0.90244900  1
  O  O1  1  0.45017400  0.26124400  0.21366100  1
  O  O2  1  0.89359000  0.02624800  0.77555000  1
  O  O3  1  0.26105900  0.42002400  0.69783400  1
  O  O4  1  0.54982600  0.73875600  0.78633900  1
  O  O5  1  0.42906800  0.17441100  0.58060600  1
  O  O6  1  0.57093200  0.82558900  0.41939400  1
  O  O7  1  0.39440500  0.12854700  0.86635800  1
  O  O8  1  0.10641000  0.97375200  0.22445000  1
  O  O9  1  0.60559500  0.87145300  0.13364200  1
  O  O10  1  0.09642600  0.34799900  0.09755100  1
  O  O11  1  0.97160500  0.19091200  0.38551300  1
  O  O12  1  0.02839500  0.80908800  0.61448700  1
  O  O13  1  0.25611600  0.58675900  0.35959800  1
  O  O14  1  0.73894100  0.57997600  0.30216600  1
  O  O15  1  0.74388400  0.41324100  0.64040200  1
loop_
_geom_bond_atom_site_label_1
_geom_bond_atom_site_label_2
_geom_bond_distance
_geom_bond_site_symmetry_2
Mn0 O3 1.444362 1_555
Mn0 O11 1.488737 1_455
Mn0 O15 2.296267 1_455
Mn1 O14 1.444362 1_555
Mn1 O12 1.488737 1_655
Mn1 O13 2.296267 1_655
O0 Sr0 1.769227 1_656
O0 P1 1.922349 1_555
O1 Zn1 1.527423 1_555
O1 P0 1.643502 1_555
O2 P1 1.529066 1_545
O2 Sr1 2.067285 1_555
O3 P3 1.584408 1_555
O4 Zn0 1.527423 1_555
O4 P1 1.643502 1_555
O5 P3 1.086645 1_555
O6 P2 1.086645 1_555
O7 Sr1 2.165150 1_555
O7 P3 2.252625 1_555
O8 P0 1.529066 1_565
O8 Sr0 2.067285 1_555
O9 Sr0 2.165150 1_555
O9 P2 2.252625 1_555
O10 Sr1 1.769227 1_454
O10 P0 1.922349 1_555
O11 Zn1 1.939152 1_555
O11 P0 2.022317 1_655
O12 Zn0 1.939152 1_555
O12 P1 2.022317 1_455
O13 P2 2.006836 1_555
O13 Zn0 2.462846 1_555
O14 P2 1.584408 1_555
O15 P3 2.006836 1_555
O15 Zn1 2.462846 1_555
