# generated using pymatgen
data_Ca3Cr3(AsO4)4
_symmetry_space_group_name_H-M   'P 1'
_cell_length_a   5.22903100
_cell_length_b   9.34354700
_cell_length_c   17.35693136
_cell_angle_alpha   63.20877392
_cell_angle_beta   90.00000000
_cell_angle_gamma   90.00000000
_symmetry_Int_Tables_number   1
_chemical_formula_structural   Ca3Cr3(AsO4)4
_chemical_formula_sum   'Ca6 Cr6 As8 O32'
_cell_volume   756.98889269
_cell_formula_units_Z   2
loop_
 _symmetry_equiv_pos_site_id
 _symmetry_equiv_pos_as_xyz
  1  'x, y, z'
loop_
 _atom_site_type_symbol
 _atom_site_label
 _atom_site_symmetry_multiplicity
 _atom_site_fract_x
 _atom_site_fract_y
 _atom_site_fract_z
 _atom_site_occupancy
  Ca  Ca0  1  0.53315200  0.30424200  0.23385900  1
  Ca  Ca1  1  0.03315200  0.69575800  0.26614100  1
  Ca  Ca2  1  0.46684800  0.69575800  0.76614100  1
  Ca  Ca3  1  0.96684800  0.30424200  0.73385900  1
  Ca  Ca4  1  0.50000000  0.00000000  0.50000000  1
  Ca  Ca5  1  0.00000000  0.00000000  0.00000000  1
  Cr  Cr0  1  0.47740300  0.20740200  0.61943500  1
  Cr  Cr1  1  0.52259700  0.79259800  0.38056500  1
  Cr  Cr2  1  0.97740300  0.79259800  0.88056500  1
  Cr  Cr3  1  0.02259700  0.20740200  0.11943500  1
  Cr  Cr4  1  0.00000000  0.50000000  0.50000000  1
  Cr  Cr5  1  0.50000000  0.50000000  0.00000000  1
  As  As0  1  0.00680500  0.04123300  0.34155800  1
  As  As1  1  0.49239800  0.43525100  0.40310300  1
  As  As2  1  0.99239800  0.56474900  0.09689700  1
  As  As3  1  0.00760200  0.43525100  0.90310300  1
  As  As4  1  0.99319500  0.95876700  0.65844200  1
  As  As5  1  0.50760200  0.56474900  0.59689700  1
  As  As6  1  0.49319500  0.04123300  0.84155800  1
  As  As7  1  0.50680500  0.95876700  0.15844200  1
  O  O0  1  0.44262300  0.81103900  0.26252800  1
  O  O1  1  0.94091400  0.74554000  0.00809800  1
  O  O2  1  0.38954500  0.43684600  0.31085500  1
  O  O3  1  0.41276200  0.14326900  0.15055300  1
  O  O4  1  0.61045500  0.56315400  0.68914500  1
  O  O5  1  0.05737700  0.81103900  0.76252800  1
  O  O6  1  0.88954500  0.56315400  0.18914500  1
  O  O7  1  0.69690600  0.50463500  0.89608400  1
  O  O8  1  0.66554800  0.09915200  0.90475700  1
  O  O9  1  0.55737700  0.18896100  0.73747200  1
  O  O10  1  0.08723800  0.14326900  0.65055300  1
  O  O11  1  0.30309400  0.49536500  0.10391600  1
  O  O12  1  0.30496600  0.57689000  0.41878900  1
  O  O13  1  0.33445200  0.90084800  0.09524300  1
  O  O14  1  0.66574900  0.96052000  0.64233800  1
  O  O15  1  0.16574900  0.03948000  0.85766200  1
  O  O16  1  0.80496600  0.42311000  0.08121100  1
  O  O17  1  0.11045500  0.43684600  0.81085500  1
  O  O18  1  0.16554800  0.90084800  0.59524300  1
  O  O19  1  0.19690600  0.49536500  0.60391600  1
  O  O20  1  0.83425100  0.96052000  0.14233800  1
  O  O21  1  0.33425100  0.03948000  0.35766200  1
  O  O22  1  0.05908600  0.25446000  0.99190200  1
  O  O23  1  0.44091400  0.25446000  0.49190200  1
  O  O24  1  0.69503400  0.42311000  0.58121100  1
  O  O25  1  0.94262300  0.18896100  0.23747200  1
  O  O26  1  0.58723800  0.85673100  0.84944700  1
  O  O27  1  0.83445200  0.09915200  0.40475700  1
  O  O28  1  0.55908600  0.74554000  0.50809800  1
  O  O29  1  0.80309400  0.50463500  0.39608400  1
  O  O30  1  0.19503400  0.57689000  0.91878900  1
  O  O31  1  0.91276200  0.85673100  0.34944700  1
loop_
_geom_bond_atom_site_label_1
_geom_bond_atom_site_label_2
_geom_bond_distance
_geom_bond_site_symmetry_2
Ca0 O2 2.318981 1_555
Ca0 O25 2.384895 1_555
Ca0 O11 2.468231 1_555
Ca0 O3 2.590317 1_555
Ca0 O21 2.650826 1_555
Ca0 O16 2.760579 1_555
Ca0 O6 2.869683 1_555
Ca1 O6 2.318981 1_455
Ca1 O0 2.384895 1_555
Ca1 O29 2.468231 1_455
Ca1 O31 2.590317 1_455
Ca1 O20 2.650826 1_455
Ca1 O12 2.760579 1_555
Ca1 O2 2.869683 1_555
Ca2 O4 2.318981 1_555
Ca2 O5 2.384895 1_555
Ca2 O7 2.468231 1_555
Ca2 O26 2.590317 1_555
Ca2 O14 2.650826 1_555
Ca2 O30 2.760579 1_555
Ca2 O17 2.869683 1_555
Ca3 O17 2.318981 1_655
Ca3 O9 2.384895 1_555
Ca3 O19 2.468231 1_655
Ca3 O10 2.590317 1_655
Ca3 O15 2.650826 1_655
Ca3 O24 2.760579 1_555
Ca3 O4 2.869683 1_555
Ca4 O27 2.295427 1_555
Ca4 O18 2.295427 1_545
Ca4 O28 2.338107 1_545
Ca4 O23 2.338107 1_555
Ca4 O14 2.483811 1_545
Ca4 O21 2.483811 1_555
Ca5 O8 2.295427 1_454
Ca5 O13 2.295427 1_545
Ca5 O1 2.338107 1_445
Ca5 O22 2.338107 1_554
Ca5 O15 2.483811 1_554
Ca5 O20 2.483811 1_445
Cr0 O9 2.020830 1_555
Cr0 O23 2.062104 1_555
Cr0 O10 2.126355 1_555
Cr0 O24 2.142878 1_555
Cr0 O14 2.371170 1_545
Cr1 O0 2.020830 1_555
Cr1 O28 2.062104 1_555
Cr1 O31 2.126355 1_555
Cr1 O12 2.142878 1_555
Cr1 O21 2.371170 1_565
Cr2 O5 2.020830 1_655
Cr2 O1 2.062104 1_556
Cr2 O26 2.126355 1_555
Cr2 O30 2.142878 1_655
Cr2 O15 2.371170 1_665
Cr3 O25 2.020830 1_455
Cr3 O22 2.062104 1_554
Cr3 O3 2.126355 1_555
Cr3 O16 2.142878 1_455
Cr3 O20 2.371170 1_445
Cr4 O12 2.033008 1_555
Cr4 O24 2.033008 1_455
Cr4 O19 2.060289 1_555
Cr4 O29 2.060289 1_455
Cr5 O16 2.033008 1_555
Cr5 O30 2.033008 1_554
Cr5 O11 2.060289 1_555
Cr5 O7 2.060289 1_554
As0 O27 1.686274 1_455
As0 O21 1.733778 1_555
As0 O31 1.737704 1_445
As0 O25 1.741758 1_455
As1 O2 1.682742 1_555
As1 O23 1.718847 1_555
As1 O29 1.733026 1_555
As1 O12 1.763783 1_555
As2 O6 1.682742 1_555
As2 O1 1.718847 1_555
As2 O11 1.733026 1_655
As2 O16 1.763783 1_555
As3 O17 1.682742 1_555
As3 O22 1.718847 1_555
As3 O7 1.733026 1_455
As3 O30 1.763783 1_555
As4 O18 1.686274 1_655
As4 O14 1.733778 1_555
As4 O10 1.737704 1_665
As4 O5 1.741758 1_655
As5 O4 1.682742 1_555
As5 O28 1.718847 1_555
As5 O19 1.733026 1_555
As5 O24 1.763783 1_555
As6 O8 1.686274 1_555
As6 O15 1.733778 1_555
As6 O26 1.737704 1_545
As6 O9 1.741758 1_555
As7 O13 1.686274 1_555
As7 O20 1.733778 1_555
As7 O3 1.737704 1_565
As7 O0 1.741758 1_555
