# generated using pymatgen
data_Ba2LiSmCoCu2O7
_symmetry_space_group_name_H-M   'P 1'
_cell_length_a   3.83980300
_cell_length_b   3.99979600
_cell_length_c   14.23845900
_cell_angle_alpha   90.00000000
_cell_angle_beta   90.00000000
_cell_angle_gamma   90.00000000
_symmetry_Int_Tables_number   1
_chemical_formula_structural   Ba2LiSmCoCu2O7
_chemical_formula_sum   'Ba2 Li1 Sm1 Co1 Cu2 O7'
_cell_volume   218.68035707
_cell_formula_units_Z   1
loop_
 _symmetry_equiv_pos_site_id
 _symmetry_equiv_pos_as_xyz
  1  'x, y, z'
loop_
 _atom_site_type_symbol
 _atom_site_label
 _atom_site_symmetry_multiplicity
 _atom_site_fract_x
 _atom_site_fract_y
 _atom_site_fract_z
 _atom_site_occupancy
  Ba  Ba0  1  0.50000000  0.50000000  0.09376400  1
  Ba  Ba1  1  0.50000000  0.50000000  0.80643100  1
  Li  Li0  1  0.50000000  0.50000000  0.36264200  1
  Sm  Sm0  1  0.50000000  0.50000000  0.54657200  1
  Co  Co0  1  0.00000000  0.00000000  0.96000800  1
  Cu  Cu0  1  0.00000000  0.00000000  0.41483400  1
  Cu  Cu1  1  0.00000000  0.00000000  0.65425700  1
  O  O0  1  0.50000000  0.00000000  0.41765900  1
  O  O1  1  0.50000000  0.00000000  0.63669300  1
  O  O2  1  0.00000000  0.00000000  0.09134900  1
  O  O3  1  0.00000000  0.00000000  0.83257600  1
  O  O4  1  0.00000000  0.50000000  0.42271900  1
  O  O5  1  0.00000000  0.50000000  0.64339700  1
  O  O6  1  0.00000000  0.50000000  0.96154200  1
loop_
_geom_bond_atom_site_label_1
_geom_bond_atom_site_label_2
_geom_bond_distance
_geom_bond_site_symmetry_2
Ba0 O6 2.688930 1_654
Ba0 O6 2.688930 1_554
Ba0 O2 2.772507 1_665
Ba0 O2 2.772507 1_555
Ba0 O2 2.772507 1_565
Ba0 O2 2.772507 1_655
Ba1 O3 2.797176 1_665
Ba1 O3 2.797176 1_555
Ba1 O3 2.797176 1_565
Ba1 O3 2.797176 1_655
Ba1 O6 2.926376 1_655
Ba1 O6 2.926376 1_555
Ba1 O5 3.012424 1_555
Ba1 O5 3.012424 1_655
Ba1 O1 3.136965 1_555
Ba1 O1 3.136965 1_565
Li0 O4 2.101841 1_555
Li0 O4 2.101841 1_655
Li0 O0 2.147846 1_565
Li0 O0 2.147846 1_555
Co0 O3 1.814435 1_555
Co0 O2 1.870093 1_556
Co0 O6 2.000017 1_545
Co0 O6 2.000017 1_555
Cu0 O0 1.920323 1_555
Cu0 O0 1.920323 1_455
Cu0 O4 2.003047 1_555
Cu0 O4 2.003047 1_545
Cu1 O1 1.936121 1_555
Cu1 O1 1.936121 1_455
Cu1 O5 2.005867 1_545
Cu1 O5 2.005867 1_555
Cu1 O3 2.538988 1_555
O0 Sm0 2.714541 1_545
O0 Sm0 2.714541 1_555
O1 Sm0 2.376164 1_545
O1 Sm0 2.376164 1_555
O4 Sm0 2.606889 1_455
O4 Sm0 2.606889 1_555
O5 Sm0 2.363613 1_455
O5 Sm0 2.363613 1_555
