# generated using pymatgen
data_Yb6Al43Cr4
_symmetry_space_group_name_H-M   'P 1'
_cell_length_a   10.95753640
_cell_length_b   10.95753640
_cell_length_c   17.61768000
_cell_angle_alpha   90.00000000
_cell_angle_beta   90.00000000
_cell_angle_gamma   120.00000241
_symmetry_Int_Tables_number   1
_chemical_formula_structural   Yb6Al43Cr4
_chemical_formula_sum   'Yb12 Al86 Cr8'
_cell_volume   1831.91442537
_cell_formula_units_Z   2
loop_
 _symmetry_equiv_pos_site_id
 _symmetry_equiv_pos_as_xyz
  1  'x, y, z'
loop_
 _atom_site_type_symbol
 _atom_site_label
 _atom_site_symmetry_multiplicity
 _atom_site_fract_x
 _atom_site_fract_y
 _atom_site_fract_z
 _atom_site_occupancy
  Yb  Yb0  1  0.53303600  0.00000000  0.59405500  1
  Yb  Yb1  1  0.46696400  0.00000000  0.40594500  1
  Yb  Yb2  1  0.00000000  0.53303600  0.59405500  1
  Yb  Yb3  1  0.46696400  0.00000000  0.09405500  1
  Yb  Yb4  1  0.00000000  0.53303600  0.90594500  1
  Yb  Yb5  1  0.00000000  0.46696400  0.40594500  1
  Yb  Yb6  1  0.53303600  0.00000000  0.90594500  1
  Yb  Yb7  1  0.00000000  0.46696400  0.09405500  1
  Yb  Yb8  1  0.46696400  0.46696400  0.59405500  1
  Yb  Yb9  1  0.53303600  0.53303600  0.40594500  1
  Yb  Yb10  1  0.53303600  0.53303600  0.09405500  1
  Yb  Yb11  1  0.46696400  0.46696400  0.90594500  1
  Al  Al0  1  0.24708600  0.49417100  0.50000000  1
  Al  Al1  1  0.75291400  0.50582900  0.50000000  1
  Al  Al2  1  0.50582900  0.75291400  0.50000000  1
  Al  Al3  1  0.75291400  0.50582900  0.00000000  1
  Al  Al4  1  0.49417100  0.24708600  0.00000000  1
  Al  Al5  1  0.49417100  0.24708600  0.50000000  1
  Al  Al6  1  0.24708600  0.49417100  0.00000000  1
  Al  Al7  1  0.50582900  0.75291400  0.00000000  1
  Al  Al8  1  0.24708600  0.75291400  0.50000000  1
  Al  Al9  1  0.75291400  0.24708600  0.50000000  1
  Al  Al10  1  0.75291400  0.24708600  0.00000000  1
  Al  Al11  1  0.24708600  0.75291400  0.00000000  1
  Al  Al12  1  0.15520200  0.00000000  0.11562400  1
  Al  Al13  1  0.84479800  0.00000000  0.88437600  1
  Al  Al14  1  0.00000000  0.15520200  0.11562400  1
  Al  Al15  1  0.84479800  0.00000000  0.61562400  1
  Al  Al16  1  0.00000000  0.15520200  0.38437600  1
  Al  Al17  1  0.00000000  0.84479800  0.88437600  1
  Al  Al18  1  0.15520200  0.00000000  0.38437600  1
  Al  Al19  1  0.00000000  0.84479800  0.61562400  1
  Al  Al20  1  0.84479800  0.84479800  0.11562400  1
  Al  Al21  1  0.15520200  0.15520200  0.88437600  1
  Al  Al22  1  0.15520200  0.15520200  0.61562400  1
  Al  Al23  1  0.84479800  0.84479800  0.38437600  1
  Al  Al24  1  0.24909800  0.00000000  0.53075700  1
  Al  Al25  1  0.75090200  0.00000000  0.46924300  1
  Al  Al26  1  0.00000000  0.24909800  0.53075700  1
  Al  Al27  1  0.75090200  0.00000000  0.03075700  1
  Al  Al28  1  0.00000000  0.24909800  0.96924300  1
  Al  Al29  1  0.00000000  0.75090200  0.46924300  1
  Al  Al30  1  0.24909800  0.00000000  0.96924300  1
  Al  Al31  1  0.00000000  0.75090200  0.03075700  1
  Al  Al32  1  0.75090200  0.75090200  0.53075700  1
  Al  Al33  1  0.24909800  0.24909800  0.46924300  1
  Al  Al34  1  0.24909800  0.24909800  0.03075700  1
  Al  Al35  1  0.75090200  0.75090200  0.96924300  1
  Al  Al36  1  0.14439000  0.60000300  0.75000000  1
  Al  Al37  1  0.85561000  0.39999700  0.25000000  1
  Al  Al38  1  0.39999700  0.54438700  0.75000000  1
  Al  Al39  1  0.60000300  0.14439000  0.75000000  1
  Al  Al40  1  0.60000300  0.45561300  0.25000000  1
  Al  Al41  1  0.39999700  0.85561000  0.25000000  1
  Al  Al42  1  0.45561300  0.85561000  0.75000000  1
  Al  Al43  1  0.54438700  0.39999700  0.75000000  1
  Al  Al44  1  0.54438700  0.14439000  0.25000000  1
  Al  Al45  1  0.45561300  0.60000300  0.25000000  1
  Al  Al46  1  0.85561000  0.45561300  0.75000000  1
  Al  Al47  1  0.14439000  0.54438700  0.25000000  1
  Al  Al48  1  0.33333300  0.66666700  0.62768600  1
  Al  Al49  1  0.66666700  0.33333300  0.37231400  1
  Al  Al50  1  0.66666700  0.33333300  0.12768600  1
  Al  Al51  1  0.66666700  0.33333300  0.87231400  1
  Al  Al52  1  0.33333300  0.66666700  0.87231400  1
  Al  Al53  1  0.33333300  0.66666700  0.12768600  1
  Al  Al54  1  0.33333300  0.66666700  0.37231400  1
  Al  Al55  1  0.66666700  0.33333300  0.62768600  1
  Al  Al56  1  0.15704200  0.38991600  0.66557400  1
  Al  Al57  1  0.84295800  0.61008400  0.33442600  1
  Al  Al58  1  0.61008400  0.76712600  0.66557400  1
  Al  Al59  1  0.84295800  0.61008400  0.16557400  1
  Al  Al60  1  0.38991600  0.15704200  0.83442600  1
  Al  Al61  1  0.38991600  0.23287400  0.33442600  1
  Al  Al62  1  0.15704200  0.38991600  0.83442600  1
  Al  Al63  1  0.61008400  0.84295800  0.16557400  1
  Al  Al64  1  0.23287400  0.84295800  0.66557400  1
  Al  Al65  1  0.38991600  0.23287400  0.16557400  1
  Al  Al66  1  0.76712600  0.61008400  0.83442600  1
  Al  Al67  1  0.76712600  0.15704200  0.33442600  1
  Al  Al68  1  0.61008400  0.76712600  0.83442600  1
  Al  Al69  1  0.23287400  0.38991600  0.16557400  1
  Al  Al70  1  0.61008400  0.84295800  0.33442600  1
  Al  Al71  1  0.38991600  0.15704200  0.66557400  1
  Al  Al72  1  0.76712600  0.15704200  0.16557400  1
  Al  Al73  1  0.23287400  0.38991600  0.33442600  1
  Al  Al74  1  0.23287400  0.84295800  0.83442600  1
  Al  Al75  1  0.76712600  0.61008400  0.66557400  1
  Al  Al76  1  0.84295800  0.23287400  0.83442600  1
  Al  Al77  1  0.15704200  0.76712600  0.16557400  1
  Al  Al78  1  0.15704200  0.76712600  0.33442600  1
  Al  Al79  1  0.84295800  0.23287400  0.66557400  1
  Al  Al80  1  0.14621600  0.00000000  0.75000000  1
  Al  Al81  1  0.85378400  0.00000000  0.25000000  1
  Al  Al82  1  0.00000000  0.14621600  0.75000000  1
  Al  Al83  1  0.00000000  0.85378400  0.25000000  1
  Al  Al84  1  0.85378400  0.85378400  0.75000000  1
  Al  Al85  1  0.14621600  0.14621600  0.25000000  1
  Cr  Cr0  1  0.00000000  0.00000000  0.50000000  1
  Cr  Cr1  1  0.00000000  0.00000000  0.00000000  1
  Cr  Cr2  1  0.73307400  0.00000000  0.75000000  1
  Cr  Cr3  1  0.26692600  0.00000000  0.25000000  1
  Cr  Cr4  1  0.00000000  0.73307400  0.75000000  1
  Cr  Cr5  1  0.00000000  0.26692600  0.25000000  1
  Cr  Cr6  1  0.26692600  0.26692600  0.75000000  1
  Cr  Cr7  1  0.73307400  0.73307400  0.25000000  1
loop_
_geom_bond_atom_site_label_1
_geom_bond_atom_site_label_2
_geom_bond_distance
_geom_bond_site_symmetry_2
Yb0 Yb1 3.392221 1_555
Yb2 Yb5 3.392221 1_555
Yb3 Yb6 3.392221 1_554
Yb4 Yb7 3.392221 1_556
Yb8 Yb9 3.392221 1_555
Yb10 Yb11 3.392221 1_554
Al0 Al33 2.750393 1_555
Al0 Al26 2.750399 1_555
Al0 Al48 2.782056 1_555
Al0 Al54 2.782056 1_555
Al0 Al2 2.835186 1_555
Al0 Al8 2.835186 1_555
Al0 Yb8 3.059040 1_555
Al0 Yb5 3.059049 1_555
Al0 Al73 3.108125 1_555
Al0 Al56 3.108126 1_555
Al0 Yb9 3.377923 1_555
Al0 Yb2 3.377932 1_555
Al1 Al32 2.750393 1_555
Al1 Al29 2.750399 1_655
Al1 Al55 2.782056 1_555
Al1 Al49 2.782056 1_555
Al1 Al5 2.835186 1_555
Al1 Al9 2.835186 1_555
Al1 Yb9 3.059040 1_555
Al1 Yb2 3.059049 1_655
Al1 Al75 3.108125 1_555
Al1 Al57 3.108126 1_555
Al1 Yb8 3.377923 1_555
Al1 Yb5 3.377932 1_655
Al2 Al32 2.750393 1_555
Al2 Al25 2.750399 1_565
Al2 Al48 2.782056 1_555
Al2 Al54 2.782056 1_555
Al2 Al8 2.835186 1_555
Al2 Yb9 3.059040 1_555
Al2 Yb0 3.059049 1_565
Al2 Al58 3.108125 1_555
Al2 Al70 3.108126 1_555
Al2 Yb8 3.377923 1_555
Al2 Yb1 3.377932 1_565
Al3 Al35 2.750393 1_554
Al3 Al31 2.750399 1_655
Al3 Al51 2.782056 1_554
Al3 Al50 2.782056 1_555
Al3 Al4 2.835186 1_555
Al3 Yb10 3.059040 1_555
Al3 Yb4 3.059049 1_654
Al3 Al66 3.108125 1_554
Al3 Al59 3.108126 1_555
Al3 Yb11 3.377923 1_554
Al3 Yb7 3.377932 1_655
Al4 Al51 2.782056 1_554
Al4 Al50 2.782056 1_555
Al4 Yb11 3.059040 1_554
Al4 Yb3 3.059049 1_555
Al4 Al65 3.108125 1_555
Al4 Al60 3.108126 1_554
Al4 Yb10 3.377923 1_555
Al4 Yb6 3.377932 1_554
Al5 Al55 2.782056 1_555
Al5 Al9 2.835186 1_555
Al5 Yb8 3.059040 1_555
Al5 Yb1 3.059049 1_555
Al5 Al61 3.108125 1_555
Al5 Al71 3.108126 1_555
Al5 Yb9 3.377923 1_555
Al5 Yb0 3.377932 1_555
Al6 Al7 2.835186 1_555
Al6 Yb11 3.059040 1_554
Al6 Yb7 3.059049 1_555
Al6 Al69 3.108125 1_555
Al6 Al62 3.108126 1_554
Al6 Yb10 3.377923 1_555
Al6 Yb4 3.377932 1_554
Al7 Yb10 3.059040 1_555
Al7 Yb6 3.059049 1_564
Al7 Yb11 3.377923 1_554
Al7 Yb3 3.377932 1_565
Al8 Yb2 3.059046 1_555
Al8 Yb1 3.059046 1_565
Al8 Yb5 3.377927 1_555
Al8 Yb0 3.377927 1_565
Al9 Yb0 3.059046 1_555
Al9 Yb5 3.059046 1_655
Al9 Yb2 3.377927 1_655
Al9 Yb1 3.377927 1_555
Al10 Al27 2.750404 1_555
Al10 Al28 2.750404 1_654
Al10 Al50 2.782045 1_555
Al10 Al51 2.782045 1_554
Al10 Al4 2.835186 1_555
Al10 Al3 2.835186 1_555
Al10 Yb6 3.059046 1_554
Al10 Yb7 3.059046 1_655
Al10 Al72 3.108129 1_555
Al10 Al76 3.108129 1_554
Al10 Yb4 3.377927 1_654
Al10 Yb3 3.377927 1_555
Al11 Al31 2.750404 1_555
Al11 Al30 2.750404 1_564
Al11 Al52 2.782045 1_554
Al11 Al53 2.782045 1_555
Al11 Al6 2.835186 1_555
Al11 Al7 2.835186 1_555
Al11 Yb3 3.059046 1_565
Al11 Yb4 3.059046 1_554
Al11 Al74 3.108129 1_554
Al11 Al77 3.108129 1_555
Al11 Yb7 3.377927 1_555
Al11 Yb6 3.377927 1_564
Al12 Cr1 2.653606 1_555
Al12 Cr3 2.665195 1_555
Al12 Al65 2.708793 1_555
Al12 Al77 2.708793 1_545
Al12 Al30 2.776556 1_554
Al12 Al31 2.817081 1_545
Al12 Al34 2.817081 1_555
Al12 Al83 2.887723 1_545
Al12 Al85 2.887723 1_555
Al12 Al20 2.945580 1_445
Al12 Al14 2.945580 1_555
Al12 Yb3 3.437213 1_555
Al13 Cr1 2.653606 1_656
Al13 Cr2 2.665195 1_555
Al13 Al68 2.708793 1_545
Al13 Al76 2.708793 1_555
Al13 Al27 2.776556 1_556
Al13 Al28 2.817081 1_655
Al13 Al35 2.817081 1_545
Al13 Al82 2.887723 1_655
Al13 Al84 2.887723 1_545
Al13 Al21 2.945580 1_655
Al13 Al17 2.945580 1_645
Al13 Yb6 3.437213 1_555
Al14 Cr1 2.653606 1_555
Al14 Cr5 2.665195 1_555
Al14 Al69 2.708793 1_555
Al14 Al72 2.708793 1_455
Al14 Al28 2.776556 1_554
Al14 Al27 2.817081 1_455
Al14 Al34 2.817081 1_555
Al14 Al81 2.887723 1_455
Al14 Al85 2.887723 1_555
Al14 Al20 2.945580 1_445
Al14 Yb7 3.437213 1_555
Al15 Cr0 2.653606 1_655
Al15 Cr2 2.665195 1_555
Al15 Al58 2.708793 1_545
Al15 Al79 2.708793 1_555
Al15 Al25 2.776556 1_555
Al15 Al26 2.817081 1_655
Al15 Al32 2.817081 1_545
Al15 Al82 2.887723 1_655
Al15 Al84 2.887723 1_545
Al15 Al22 2.945580 1_655
Al15 Al19 2.945580 1_645
Al15 Yb0 3.437213 1_555
Al16 Cr0 2.653606 1_555
Al16 Cr5 2.665195 1_555
Al16 Al73 2.708793 1_555
Al16 Al67 2.708793 1_455
Al16 Al26 2.776556 1_555
Al16 Al25 2.817081 1_455
Al16 Al33 2.817081 1_555
Al16 Al81 2.887723 1_455
Al16 Al85 2.887723 1_555
Al16 Al23 2.945580 1_445
Al16 Al18 2.945580 1_555
Al16 Yb5 3.437213 1_555
Al17 Cr1 2.653606 1_566
Al17 Cr4 2.665195 1_555
Al17 Al66 2.708793 1_455
Al17 Al74 2.708793 1_555
Al17 Al31 2.776556 1_556
Al17 Al30 2.817081 1_565
Al17 Al35 2.817081 1_455
Al17 Al80 2.887723 1_565
Al17 Al84 2.887723 1_455
Al17 Al21 2.945580 1_565
Al17 Yb4 3.437213 1_555
Al18 Cr0 2.653606 1_555
Al18 Cr3 2.665195 1_555
Al18 Al61 2.708793 1_555
Al18 Al78 2.708793 1_545
Al18 Al24 2.776556 1_555
Al18 Al29 2.817081 1_545
Al18 Al33 2.817081 1_555
Al18 Al83 2.887723 1_545
Al18 Al85 2.887723 1_555
Al18 Al23 2.945580 1_445
Al18 Yb1 3.437213 1_555
Al19 Cr0 2.653606 1_565
Al19 Cr4 2.665195 1_555
Al19 Al75 2.708793 1_455
Al19 Al64 2.708793 1_555
Al19 Al29 2.776556 1_555
Al19 Al24 2.817081 1_565
Al19 Al32 2.817081 1_455
Al19 Al80 2.887723 1_565
Al19 Al84 2.887723 1_455
Al19 Al22 2.945580 1_565
Al19 Yb2 3.437213 1_555
Al20 Cr1 2.653606 1_665
Al20 Cr7 2.665195 1_555
Al20 Al63 2.708793 1_555
Al20 Al59 2.708793 1_555
Al20 Al35 2.776556 1_554
Al20 Al27 2.817081 1_565
Al20 Al31 2.817081 1_655
Al20 Al81 2.887723 1_565
Al20 Al83 2.887723 1_655
Al20 Yb10 3.437213 1_555
Al21 Cr1 2.653606 1_556
Al21 Cr6 2.665195 1_555
Al21 Al60 2.708793 1_555
Al21 Al62 2.708793 1_555
Al21 Al34 2.776556 1_556
Al21 Al28 2.817081 1_555
Al21 Al30 2.817081 1_555
Al21 Al80 2.887723 1_555
Al21 Al82 2.887723 1_555
Al21 Yb11 3.437213 1_555
Al22 Cr0 2.653606 1_555
Al22 Cr6 2.665195 1_555
Al22 Al71 2.708793 1_555
Al22 Al56 2.708793 1_555
Al22 Al33 2.776556 1_555
Al22 Al24 2.817081 1_555
Al22 Al26 2.817081 1_555
Al22 Al80 2.887723 1_555
Al22 Al82 2.887723 1_555
Al22 Yb8 3.437213 1_555
Al23 Cr0 2.653606 1_665
Al23 Cr7 2.665195 1_555
Al23 Al70 2.708793 1_555
Al23 Al57 2.708793 1_555
Al23 Al32 2.776556 1_555
Al23 Al25 2.817081 1_565
Al23 Al29 2.817081 1_655
Al23 Al81 2.887723 1_565
Al23 Al83 2.887723 1_655
Al23 Yb9 3.437213 1_555
Al24 Al5 2.750399 1_555
Al24 Al8 2.750404 1_545
Al24 Cr0 2.782767 1_555
Al24 Al71 2.885865 1_555
Al24 Al64 2.885865 1_545
Al24 Al29 2.936776 1_545
Al24 Al33 2.936776 1_555
Al24 Yb1 3.245648 1_555
Al24 Yb0 3.305077 1_555
Al25 Al9 2.750404 1_555
Al25 Cr0 2.782767 1_655
Al25 Al70 2.885865 1_545
Al25 Al67 2.885865 1_555
Al25 Al26 2.936776 1_655
Al25 Al32 2.936776 1_545
Al25 Yb0 3.245648 1_555
Al25 Yb1 3.305077 1_555
Al26 Al9 2.750404 1_455
Al26 Cr0 2.782767 1_555
Al26 Al56 2.885865 1_555
Al26 Al79 2.885865 1_455
Al26 Al33 2.936776 1_555
Al26 Yb5 3.245648 1_555
Al26 Yb2 3.305077 1_555
Al27 Al7 2.750399 1_545
Al27 Cr1 2.782767 1_655
Al27 Al63 2.885865 1_545
Al27 Al72 2.885865 1_555
Al27 Al28 2.936776 1_654
Al27 Al35 2.936776 1_544
Al27 Yb6 3.245648 1_554
Al27 Yb3 3.305077 1_555
Al28 Al6 2.750399 1_556
Al28 Cr1 2.782767 1_556
Al28 Al62 2.885865 1_555
Al28 Al76 2.885865 1_455
Al28 Al34 2.936776 1_556
Al28 Yb7 3.245648 1_556
Al28 Yb4 3.305077 1_555
Al29 Al8 2.750404 1_555
Al29 Cr0 2.782767 1_565
Al29 Al57 2.885865 1_455
Al29 Al78 2.885865 1_555
Al29 Al32 2.936776 1_455
Al29 Yb2 3.245648 1_555
Al29 Yb5 3.305077 1_555
Al30 Al4 2.750399 1_556
Al30 Cr1 2.782767 1_556
Al30 Al60 2.885865 1_555
Al30 Al74 2.885865 1_545
Al30 Al31 2.936776 1_546
Al30 Al34 2.936776 1_556
Al30 Yb3 3.245648 1_556
Al30 Yb6 3.305077 1_555
Al31 Cr1 2.782767 1_565
Al31 Al59 2.885865 1_455
Al31 Al77 2.885865 1_555
Al31 Al35 2.936776 1_454
Al31 Yb4 3.245648 1_554
Al31 Yb7 3.305077 1_555
Al32 Cr0 2.782767 1_665
Al32 Al58 2.885865 1_555
Al32 Al75 2.885865 1_555
Al32 Yb9 3.245648 1_555
Al32 Yb8 3.305077 1_555
Al33 Al5 2.750393 1_555
Al33 Cr0 2.782767 1_555
Al33 Al61 2.885865 1_555
Al33 Al73 2.885865 1_555
Al33 Yb8 3.245648 1_555
Al33 Yb9 3.305077 1_555
Al34 Al6 2.750393 1_555
Al34 Al4 2.750393 1_555
Al34 Cr1 2.782767 1_555
Al34 Al65 2.885865 1_555
Al34 Al69 2.885865 1_555
Al34 Yb11 3.245648 1_554
Al34 Yb10 3.305077 1_555
Al35 Al7 2.750393 1_556
Al35 Cr1 2.782767 1_666
Al35 Al66 2.885865 1_555
Al35 Al68 2.885865 1_555
Al35 Yb10 3.245648 1_556
Al35 Yb11 3.305077 1_555
Al36 Cr4 2.633698 1_555
Al36 Al46 2.740379 1_455
Al36 Al64 2.767393 1_555
Al36 Al74 2.767393 1_555
Al36 Al56 2.801796 1_555
Al36 Al62 2.801796 1_555
Al36 Al48 2.819778 1_555
Al36 Al52 2.819778 1_555
Al36 Yb4 3.070643 1_555
Al36 Yb2 3.070643 1_555
Al37 Cr5 2.633698 1_655
Al37 Al47 2.740379 1_655
Al37 Al67 2.767393 1_555
Al37 Al72 2.767393 1_555
Al37 Al57 2.801796 1_555
Al37 Al59 2.801796 1_555
Al37 Al49 2.819778 1_555
Al37 Al50 2.819778 1_555
Al37 Yb5 3.070643 1_655
Al37 Yb7 3.070643 1_655
Al38 Cr6 2.633698 1_555
Al38 Al43 2.740379 1_555
Al38 Al56 2.767393 1_555
Al38 Al62 2.767393 1_555
Al38 Al68 2.801796 1_555
Al38 Al58 2.801796 1_555
Al38 Al48 2.819785 1_555
Al38 Al52 2.819785 1_555
Al38 Yb8 3.070643 1_555
Al38 Yb11 3.070643 1_555
Al39 Cr2 2.633698 1_555
Al39 Al42 2.740379 1_545
Al39 Al79 2.767393 1_555
Al39 Al76 2.767393 1_555
Al39 Al71 2.801796 1_555
Al39 Al60 2.801796 1_555
Al39 Al51 2.819778 1_555
Al39 Al55 2.819778 1_555
Al39 Yb6 3.070643 1_555
Al39 Yb0 3.070643 1_555
Al40 Cr7 2.633698 1_555
Al40 Al45 2.740379 1_555
Al40 Al57 2.767393 1_555
Al40 Al59 2.767393 1_555
Al40 Al61 2.801796 1_555
Al40 Al65 2.801796 1_555
Al40 Al49 2.819785 1_555
Al40 Al50 2.819785 1_555
Al40 Yb9 3.070643 1_555
Al40 Yb10 3.070643 1_555
Al41 Cr3 2.633698 1_565
Al41 Al44 2.740379 1_565
Al41 Al77 2.767393 1_555
Al41 Al78 2.767393 1_555
Al41 Al63 2.801796 1_555
Al41 Al70 2.801796 1_555
Al41 Al54 2.819778 1_555
Al41 Al53 2.819778 1_555
Al41 Yb3 3.070643 1_565
Al41 Yb1 3.070643 1_565
Al42 Cr2 2.633698 1_565
Al42 Al68 2.767393 1_555
Al42 Al58 2.767393 1_555
Al42 Al64 2.801796 1_555
Al42 Al74 2.801796 1_555
Al42 Al48 2.819780 1_555
Al42 Al52 2.819780 1_555
Al42 Yb6 3.070643 1_565
Al42 Yb0 3.070643 1_565
Al43 Cr6 2.633698 1_555
Al43 Al71 2.767393 1_555
Al43 Al60 2.767393 1_555
Al43 Al75 2.801796 1_555
Al43 Al66 2.801796 1_555
Al43 Al51 2.819785 1_555
Al43 Al55 2.819785 1_555
Al43 Yb11 3.070643 1_555
Al43 Yb8 3.070643 1_555
Al44 Cr3 2.633698 1_555
Al44 Al61 2.767393 1_555
Al44 Al65 2.767393 1_555
Al44 Al67 2.801796 1_555
Al44 Al72 2.801796 1_555
Al44 Al49 2.819780 1_555
Al44 Al50 2.819780 1_555
Al44 Yb3 3.070643 1_555
Al44 Yb1 3.070643 1_555
Al45 Cr7 2.633698 1_555
Al45 Al63 2.767393 1_555
Al45 Al70 2.767393 1_555
Al45 Al69 2.801796 1_555
Al45 Al73 2.801796 1_555
Al45 Al54 2.819785 1_555
Al45 Al53 2.819785 1_555
Al45 Yb9 3.070643 1_555
Al45 Yb10 3.070643 1_555
Al46 Cr4 2.633698 1_655
Al46 Al75 2.767393 1_555
Al46 Al66 2.767393 1_555
Al46 Al79 2.801796 1_555
Al46 Al76 2.801796 1_555
Al46 Al55 2.819780 1_555
Al46 Al51 2.819780 1_555
Al46 Yb4 3.070643 1_655
Al46 Yb2 3.070643 1_655
Al47 Cr5 2.633698 1_555
Al47 Al69 2.767393 1_555
Al47 Al73 2.767393 1_555
Al47 Al77 2.801796 1_555
Al47 Al78 2.801796 1_555
Al47 Al54 2.819780 1_555
Al47 Al53 2.819780 1_555
Al47 Yb5 3.070643 1_555
Al47 Yb7 3.070643 1_555
Al48 Al64 2.741387 1_555
Al48 Al56 2.741395 1_555
Al48 Al58 2.741396 1_555
Al48 Al8 2.782045 1_555
Al48 Yb2 3.238473 1_555
Al48 Yb0 3.238474 1_565
Al48 Yb8 3.238483 1_555
Al49 Al67 2.741387 1_555
Al49 Al57 2.741395 1_555
Al49 Al61 2.741396 1_555
Al49 Al9 2.782045 1_555
Al49 Al5 2.782056 1_555
Al49 Yb5 3.238473 1_655
Al49 Yb1 3.238474 1_555
Al49 Yb9 3.238483 1_555
Al50 Al72 2.741387 1_555
Al50 Al59 2.741395 1_555
Al50 Al65 2.741396 1_555
Al50 Yb7 3.238473 1_655
Al50 Yb3 3.238474 1_555
Al50 Yb10 3.238483 1_555
Al51 Al76 2.741387 1_555
Al51 Al60 2.741395 1_555
Al51 Al66 2.741396 1_555
Al51 Yb6 3.238473 1_555
Al51 Yb4 3.238474 1_655
Al51 Yb11 3.238483 1_555
Al52 Al74 2.741387 1_555
Al52 Al62 2.741395 1_555
Al52 Al68 2.741396 1_555
Al52 Al6 2.782056 1_556
Al52 Al7 2.782056 1_556
Al52 Yb4 3.238473 1_555
Al52 Yb6 3.238474 1_565
Al52 Yb11 3.238483 1_555
Al53 Al77 2.741387 1_555
Al53 Al63 2.741395 1_555
Al53 Al69 2.741396 1_555
Al53 Al7 2.782056 1_555
Al53 Al6 2.782056 1_555
Al53 Yb3 3.238473 1_565
Al53 Yb7 3.238474 1_555
Al53 Yb10 3.238483 1_555
Al54 Al78 2.741387 1_555
Al54 Al70 2.741395 1_555
Al54 Al73 2.741396 1_555
Al54 Al8 2.782045 1_555
Al54 Yb1 3.238473 1_565
Al54 Yb5 3.238474 1_555
Al54 Yb9 3.238483 1_555
Al55 Al79 2.741387 1_555
Al55 Al71 2.741395 1_555
Al55 Al75 2.741396 1_555
Al55 Al9 2.782045 1_555
Al55 Yb0 3.238473 1_555
Al55 Yb2 3.238474 1_655
Al55 Yb8 3.238483 1_555
Al56 Cr6 2.664763 1_555
Al56 Al82 2.776529 1_555
Al56 Al62 2.974781 1_555
Al56 Al79 2.980502 1_455
Al56 Yb2 3.115563 1_555
Al56 Yb8 3.311492 1_555
Al57 Cr7 2.664763 1_555
Al57 Al83 2.776529 1_655
Al57 Al59 2.974781 1_555
Al57 Al78 2.980502 1_655
Al57 Yb5 3.115563 1_655
Al57 Yb9 3.311492 1_555
Al58 Cr2 2.664763 1_565
Al58 Al84 2.776529 1_555
Al58 Al68 2.974781 1_555
Al58 Al75 2.980502 1_555
Al58 Yb8 3.115563 1_555
Al58 Yb0 3.311492 1_565
Al59 Cr7 2.664763 1_555
Al59 Al83 2.776529 1_655
Al59 Al77 2.980502 1_655
Al59 Yb7 3.115563 1_655
Al59 Yb10 3.311492 1_555
Al60 Cr6 2.664763 1_555
Al60 Al80 2.776529 1_555
Al60 Al71 2.974781 1_555
Al60 Al74 2.980502 1_545
Al60 Yb6 3.115563 1_555
Al60 Yb11 3.311492 1_555
Al61 Cr3 2.664763 1_555
Al61 Al85 2.776529 1_555
Al61 Al65 2.974781 1_555
Al61 Al73 2.980502 1_555
Al61 Yb9 3.115563 1_555
Al61 Yb1 3.311492 1_555
Al62 Cr6 2.664763 1_555
Al62 Al82 2.776529 1_555
Al62 Al76 2.980502 1_455
Al62 Yb4 3.115563 1_555
Al62 Yb11 3.311492 1_555
Al63 Cr7 2.664763 1_555
Al63 Al81 2.776529 1_565
Al63 Al70 2.974781 1_555
Al63 Al72 2.980502 1_565
Al63 Al7 3.108126 1_555
Al63 Yb3 3.115563 1_565
Al63 Yb10 3.311492 1_555
Al64 Cr4 2.664763 1_555
Al64 Al80 2.776529 1_565
Al64 Al74 2.974781 1_555
Al64 Al71 2.980502 1_565
Al64 Al8 3.108129 1_555
Al64 Yb0 3.115563 1_565
Al64 Yb2 3.311492 1_555
Al65 Cr3 2.664763 1_555
Al65 Al85 2.776529 1_555
Al65 Al69 2.980502 1_555
Al65 Yb10 3.115563 1_555
Al65 Yb3 3.311492 1_555
Al66 Cr4 2.664763 1_655
Al66 Al84 2.776529 1_555
Al66 Al75 2.974781 1_555
Al66 Al68 2.980502 1_555
Al66 Yb11 3.115563 1_555
Al66 Yb4 3.311492 1_655
Al67 Cr5 2.664763 1_655
Al67 Al81 2.776529 1_555
Al67 Al72 2.974781 1_555
Al67 Al70 2.980502 1_545
Al67 Al9 3.108129 1_555
Al67 Yb1 3.115563 1_555
Al67 Yb5 3.311492 1_655
Al68 Cr2 2.664763 1_565
Al68 Al84 2.776529 1_555
Al68 Al7 3.108125 1_556
Al68 Yb11 3.115563 1_555
Al68 Yb6 3.311492 1_565
Al69 Cr5 2.664763 1_555
Al69 Al85 2.776529 1_555
Al69 Al73 2.974781 1_555
Al69 Yb10 3.115563 1_555
Al69 Yb7 3.311492 1_555
Al70 Cr7 2.664763 1_555
Al70 Al81 2.776529 1_565
Al70 Yb1 3.115563 1_565
Al70 Yb9 3.311492 1_555
Al71 Cr6 2.664763 1_555
Al71 Al80 2.776529 1_555
Al71 Yb0 3.115563 1_555
Al71 Yb8 3.311492 1_555
Al72 Cr5 2.664763 1_655
Al72 Al81 2.776529 1_555
Al72 Yb3 3.115563 1_555
Al72 Yb7 3.311492 1_655
Al73 Cr5 2.664763 1_555
Al73 Al85 2.776529 1_555
Al73 Yb9 3.115563 1_555
Al73 Yb5 3.311492 1_555
Al74 Cr4 2.664763 1_555
Al74 Al80 2.776529 1_565
Al74 Yb6 3.115563 1_565
Al74 Yb4 3.311492 1_555
Al75 Cr4 2.664763 1_655
Al75 Al84 2.776529 1_555
Al75 Yb8 3.115563 1_555
Al75 Yb2 3.311492 1_655
Al76 Cr2 2.664763 1_555
Al76 Al82 2.776529 1_655
Al76 Al79 2.974781 1_555
Al76 Yb4 3.115563 1_655
Al76 Yb6 3.311492 1_555
Al77 Cr3 2.664763 1_565
Al77 Al83 2.776529 1_555
Al77 Al78 2.974781 1_555
Al77 Yb7 3.115563 1_555
Al77 Yb3 3.311492 1_565
Al78 Cr3 2.664763 1_565
Al78 Al83 2.776529 1_555
Al78 Al8 3.108129 1_555
Al78 Yb5 3.115563 1_555
Al78 Yb1 3.311492 1_565
Al79 Cr2 2.664763 1_555
Al79 Al82 2.776529 1_655
Al79 Al9 3.108129 1_555
Al79 Yb2 3.115563 1_655
Al79 Yb0 3.311492 1_555
Al80 Cr4 2.536847 1_545
Al80 Cr6 2.536847 1_555
Al80 Al84 2.775035 1_445
Al80 Al82 2.775035 1_555
Al81 Cr5 2.536847 1_655
Al81 Cr7 2.536847 1_545
Al81 Al85 2.775035 1_655
Al81 Al83 2.775035 1_645
Al82 Cr2 2.536847 1_455
Al82 Cr6 2.536847 1_555
Al82 Al84 2.775035 1_445
Al83 Cr3 2.536847 1_565
Al83 Cr7 2.536847 1_455
Al83 Al85 2.775035 1_565
Al84 Cr4 2.536847 1_655
Al84 Cr2 2.536847 1_565
Al85 Cr5 2.536847 1_555
Al85 Cr3 2.536847 1_555
Cr2 Yb6 3.514637 1_555
Cr2 Yb0 3.514637 1_555
Cr3 Yb1 3.514637 1_555
Cr3 Yb3 3.514637 1_555
Cr4 Yb2 3.514637 1_555
Cr4 Yb4 3.514637 1_555
Cr5 Yb7 3.514637 1_555
Cr5 Yb5 3.514637 1_555
Cr6 Yb11 3.514637 1_555
Cr6 Yb8 3.514637 1_555
Cr7 Yb10 3.514637 1_555
Cr7 Yb9 3.514637 1_555
