# generated using pymatgen
data_U2Co3O8
_symmetry_space_group_name_H-M   'P 1'
_cell_length_a   7.32231500
_cell_length_b   5.41620100
_cell_length_c   12.14182697
_cell_angle_alpha   82.58478606
_cell_angle_beta   90.00000000
_cell_angle_gamma   90.00000000
_symmetry_Int_Tables_number   1
_chemical_formula_structural   U2Co3O8
_chemical_formula_sum   'U4 Co6 O16'
_cell_volume   477.50718629
_cell_formula_units_Z   2
loop_
 _symmetry_equiv_pos_site_id
 _symmetry_equiv_pos_as_xyz
  1  'x, y, z'
loop_
 _atom_site_type_symbol
 _atom_site_label
 _atom_site_symmetry_multiplicity
 _atom_site_fract_x
 _atom_site_fract_y
 _atom_site_fract_z
 _atom_site_occupancy
  U  U0  1  0.50000000  0.92841300  0.75057500  1
  U  U1  1  0.00000000  0.05165600  0.23745600  1
  U  U2  1  0.50000000  0.09667600  0.27660900  1
  U  U3  1  0.00000000  0.97117400  0.78374800  1
  Co  Co0  1  0.70458100  0.05200700  0.01478600  1
  Co  Co1  1  0.29651200  0.00495600  0.51324200  1
  Co  Co2  1  0.50000000  0.58379200  0.45184500  1
  Co  Co3  1  0.70348800  0.00495600  0.51324200  1
  Co  Co4  1  0.29541900  0.05200700  0.01478600  1
  Co  Co5  1  0.00000000  0.34872100  0.95390100  1
  O  O0  1  0.79820600  0.05061800  0.36249300  1
  O  O1  1  0.29735600  0.16486500  0.15562400  1
  O  O2  1  0.29492000  0.95620100  0.87473500  1
  O  O3  1  0.77524200  0.92836600  0.66742200  1
  O  O4  1  0.00000000  0.29744800  0.72449100  1
  O  O5  1  0.20179400  0.05061800  0.36249300  1
  O  O6  1  0.50000000  0.27475300  0.71533500  1
  O  O7  1  0.70508000  0.95620100  0.87473500  1
  O  O8  1  0.50000000  0.72413900  0.29796700  1
  O  O9  1  0.70264400  0.16486500  0.15562400  1
  O  O10  1  0.22475800  0.92836600  0.66742200  1
  O  O11  1  0.00000000  0.64183900  0.86231300  1
  O  O12  1  0.50000000  0.77183900  0.56618400  1
  O  O13  1  0.50000000  0.23967700  0.44716700  1
  O  O14  1  0.00000000  0.70373800  0.24148700  1
  O  O15  1  0.00000000  0.06003900  0.04487600  1
loop_
_geom_bond_atom_site_label_1
_geom_bond_atom_site_label_2
_geom_bond_distance
_geom_bond_site_symmetry_2
Co0 O7 1.840829 1_544
Co0 O9 1.888876 1_555
Co0 O15 2.195153 1_655
Co1 O10 1.937052 1_545
Co1 O5 1.943087 1_555
Co1 O12 2.004496 1_545
Co1 O13 2.053456 1_555
Co2 O12 1.824732 1_555
Co2 O13 1.871974 1_555
Co2 O8 1.924060 1_555
Co3 O3 1.937052 1_545
Co3 O0 1.943087 1_555
Co3 O12 2.004496 1_545
Co3 O13 2.053456 1_555
Co4 O2 1.840829 1_544
Co4 O1 1.888876 1_555
Co4 O15 2.195153 1_555
Co5 O15 1.794176 1_556
Co5 O11 1.816969 1_555
O0 U1 2.118016 1_655
O0 U2 2.418764 1_555
O1 U2 2.087102 1_555
O1 U1 2.438590 1_555
O2 U0 2.146822 1_555
O2 U3 2.422261 1_555
O3 U3 2.200381 1_655
O3 U0 2.254172 1_555
O4 U3 1.819987 1_545
O5 U1 2.118016 1_555
O5 U2 2.418764 1_555
O6 U0 1.869414 1_545
O7 U0 2.146822 1_555
O7 U3 2.422261 1_655
O8 U2 2.000861 1_565
O9 U2 2.087102 1_555
O9 U1 2.438590 1_655
O10 U3 2.200381 1_555
O10 U0 2.254172 1_555
O11 U3 1.911155 1_555
O12 U0 2.494324 1_555
O13 U2 2.302707 1_555
O14 U1 1.878704 1_565
O15 U1 2.332848 1_555
