# generated using pymatgen
data_Ba4Yb8Mg(CoO5)4
_symmetry_space_group_name_H-M   'P 1'
_cell_length_a   5.69993526
_cell_length_b   7.22395946
_cell_length_c   12.12988687
_cell_angle_alpha   89.88147431
_cell_angle_beta   90.00447530
_cell_angle_gamma   90.00550074
_symmetry_Int_Tables_number   1
_chemical_formula_structural   Ba4Yb8Mg(CoO5)4
_chemical_formula_sum   'Ba4 Yb8 Mg1 Co4 O20'
_cell_volume   499.46037729
_cell_formula_units_Z   1
loop_
 _symmetry_equiv_pos_site_id
 _symmetry_equiv_pos_as_xyz
  1  'x, y, z'
loop_
 _atom_site_type_symbol
 _atom_site_label
 _atom_site_symmetry_multiplicity
 _atom_site_fract_x
 _atom_site_fract_y
 _atom_site_fract_z
 _atom_site_occupancy
  Ba  Ba0  1  0.24989612  0.92129436  0.89295534  1
  Ba  Ba1  1  0.74984241  0.08468507  0.10078574  1
  Ba  Ba2  1  0.75008890  0.44082667  0.61544202  1
  Ba  Ba3  1  0.25007689  0.50559221  0.39077324  1
  Yb  Yb0  1  0.24996319  0.12947202  0.59779596  1
  Yb  Yb1  1  0.75015778  0.89426391  0.42338753  1
  Yb  Yb2  1  0.74993364  0.61121196  0.92277360  1
  Yb  Yb3  1  0.24992048  0.40895095  0.07183206  1
  Yb  Yb4  1  0.24996089  0.39399188  0.80260438  1
  Yb  Yb5  1  0.74996721  0.61631668  0.20567609  1
  Yb  Yb6  1  0.74997833  0.88607164  0.69992831  1
  Yb  Yb7  1  0.24992149  0.14031639  0.27188891  1
  Mg  Mg0  1  0.25019673  0.91152791  0.42883389  1
  Co  Co0  1  0.24997319  0.68735261  0.64846502  1
  Co  Co1  1  0.74990176  0.30226563  0.34617267  1
  Co  Co2  1  0.74995758  0.19631001  0.84833098  1
  Co  Co3  1  0.25001484  0.80314452  0.15983687  1
  O  O0  1  0.25015846  0.44314254  0.60484851  1
  O  O1  1  0.75010998  0.53387397  0.40191038  1
  O  O2  1  0.74992887  0.95361399  0.89728211  1
  O  O3  1  0.24987483  0.04014694  0.09895566  1
  O  O4  1  0.03146446  0.83444104  0.28100487  1
  O  O5  1  0.51839930  0.16247387  0.73624205  1
  O  O6  1  0.98783448  0.35112042  0.22177432  1
  O  O7  1  0.49312475  0.65870454  0.76886102  1
  O  O8  1  0.98165416  0.16245694  0.73621709  1
  O  O9  1  0.46885161  0.83456692  0.28088490  1
  O  O10  1  0.00663174  0.65857845  0.76880533  1
  O  O11  1  0.51193698  0.35125551  0.22178343  1
  O  O12  1  0.47644898  0.68776521  0.07084425  1
  O  O13  1  0.97318173  0.32334048  0.93496945  1
  O  O14  1  0.49664054  0.15287220  0.42673849  1
  O  O15  1  0.02515680  0.83074555  0.55550786  1
  O  O16  1  0.00351664  0.15298417  0.42684311  1
  O  O17  1  0.47509936  0.83065812  0.55541111  1
  O  O18  1  0.02356728  0.68775751  0.07087863  1
  O  O19  1  0.52666761  0.32331319  0.93497684  1
loop_
_geom_bond_atom_site_label_1
_geom_bond_atom_site_label_2
_geom_bond_distance
_geom_bond_site_symmetry_2
Ba0 O3 2.643833 1_566
Ba0 O7 2.792645 1_555
Ba0 O10 2.793434 1_555
Ba0 O2 2.859846 1_455
Ba0 O2 2.860165 1_555
Ba0 O8 2.995628 1_465
Ba0 O5 2.996248 1_565
Ba0 O18 3.025419 1_556
Ba0 O12 3.025631 1_556
Ba1 O2 2.645671 1_544
Ba1 O6 2.776580 1_555
Ba1 O11 2.777368 1_555
Ba1 O3 2.867946 1_555
Ba1 O3 2.868378 1_655
Ba1 O19 2.936085 1_554
Ba1 O13 2.936660 1_554
Ba1 O9 3.253607 1_545
Ba1 O4 3.256861 1_645
Ba1 O12 3.284089 1_545
Ba1 O18 3.285276 1_645
Ba2 O1 2.674566 1_555
Ba2 O8 2.814287 1_555
Ba2 O5 2.814615 1_555
Ba2 O10 2.843336 1_655
Ba2 O7 2.845824 1_555
Ba2 O0 2.852506 1_555
Ba2 O0 2.853315 1_655
Ba3 O0 2.634686 1_555
Ba3 O11 2.771806 1_555
Ba3 O6 2.773168 1_455
Ba3 O1 2.860335 1_455
Ba3 O1 2.860651 1_555
Ba3 O16 2.941032 1_555
Ba3 O14 2.941757 1_555
Ba3 O4 2.992690 1_555
Ba3 O9 2.994338 1_555
Mg0 O17 2.082814 1_555
Mg0 O15 2.084063 1_555
Mg0 O14 2.238945 1_565
Mg0 O16 2.240616 1_565
Mg0 O4 2.254673 1_555
Mg0 O9 2.255576 1_555
Co0 O0 1.842836 1_555
Co0 O15 1.995417 1_555
Co0 O17 1.996872 1_555
Co0 O7 2.023588 1_555
Co0 O10 2.024063 1_555
Co1 O1 1.805864 1_555
Co1 O14 2.049191 1_555
Co1 O16 2.050829 1_655
Co1 O6 2.058824 1_555
Co1 O11 2.058919 1_555
Co2 O2 1.849881 1_545
Co2 O13 1.889178 1_555
Co2 O19 1.889614 1_555
Co2 O5 1.910867 1_555
Co2 O8 1.911822 1_555
Co3 O3 1.863169 1_565
Co3 O18 1.878420 1_555
Co3 O12 1.878808 1_555
Co3 O9 1.940196 1_555
Co3 O4 1.940318 1_555
O0 Yb0 2.267734 1_555
O0 Yb4 2.424166 1_555
O1 Yb5 2.452480 1_555
O1 Yb1 2.616980 1_555
O2 Yb6 2.444087 1_555
O2 Yb2 2.492116 1_555
O3 Yb7 2.220380 1_555
O3 Yb3 2.683787 1_555
O4 Yb1 2.396712 1_455
O4 Yb5 2.428480 1_455
O4 Yb7 2.538440 1_565
O5 Yb0 2.284578 1_555
O5 Yb4 2.406773 1_555
O5 Yb6 2.434647 1_545
O6 Yb7 2.217364 1_655
O6 Yb5 2.354883 1_555
O6 Yb3 2.389836 1_655
O7 Yb6 2.352531 1_555
O7 Yb4 2.396186 1_555
O7 Yb2 2.396433 1_555
O8 Yb0 2.284064 1_655
O8 Yb4 2.406198 1_655
O8 Yb6 2.434545 1_545
O9 Yb1 2.397358 1_555
O9 Yb5 2.427379 1_555
O9 Yb7 2.539113 1_565
O10 Yb6 2.352333 1_455
O10 Yb4 2.396294 1_555
O10 Yb2 2.396583 1_455
O11 Yb7 2.217596 1_555
O11 Yb5 2.354439 1_555
O11 Yb3 2.389376 1_555
O12 Yb5 2.316917 1_555
O12 Yb3 2.392386 1_555
O12 Yb2 2.442630 1_554
O13 Yb4 2.307402 1_655
O13 Yb3 2.372830 1_656
O13 Yb2 2.442328 1_555
O14 Yb7 2.348226 1_555
O14 Yb1 2.362349 1_545
O14 Yb0 2.511919 1_555
O15 Yb1 2.287482 1_455
O15 Yb6 2.385832 1_455
O15 Yb0 2.562404 1_565
O16 Yb7 2.348389 1_555
O16 Yb1 2.362237 1_445
O16 Yb0 2.510025 1_555
O17 Yb1 2.287130 1_555
O17 Yb6 2.385449 1_555
O17 Yb0 2.564361 1_565
O18 Yb5 2.317029 1_455
O18 Yb3 2.392006 1_555
O18 Yb2 2.443219 1_454
O19 Yb4 2.307121 1_555
O19 Yb3 2.373102 1_556
O19 Yb2 2.442358 1_555
