# generated using pymatgen
data_U(Fe5Si)2
_symmetry_space_group_name_H-M   'P 1'
_cell_length_a   4.73044700
_cell_length_b   6.30719320
_cell_length_c   6.30719320
_cell_angle_alpha   99.35466125
_cell_angle_beta   112.02456320
_cell_angle_gamma   67.97543680
_symmetry_Int_Tables_number   1
_chemical_formula_structural   U(Fe5Si)2
_chemical_formula_sum   'U1 Fe10 Si2'
_cell_volume   161.66438071
_cell_formula_units_Z   1
loop_
 _symmetry_equiv_pos_site_id
 _symmetry_equiv_pos_as_xyz
  1  'x, y, z'
loop_
 _atom_site_type_symbol
 _atom_site_label
 _atom_site_symmetry_multiplicity
 _atom_site_fract_x
 _atom_site_fract_y
 _atom_site_fract_z
 _atom_site_occupancy
  U  U0  1  0.00000000  0.00000000  0.00000000  1
  Fe  Fe0  1  0.63966000  0.36034000  0.63966000  1
  Fe  Fe1  1  0.36034000  0.63966000  0.36034000  1
  Fe  Fe2  1  0.00000000  0.35080600  0.35080600  1
  Fe  Fe3  1  0.00000000  0.64919400  0.64919400  1
  Fe  Fe4  1  0.50000000  0.19520200  0.19520200  1
  Fe  Fe5  1  0.50000000  0.80479800  0.80479800  1
  Fe  Fe6  1  0.50000000  0.00000000  0.50000000  1
  Fe  Fe7  1  0.00000000  0.00000000  0.50000000  1
  Fe  Fe8  1  0.50000000  0.50000000  0.00000000  1
  Fe  Fe9  1  0.00000000  0.50000000  0.00000000  1
  Si  Si0  1  0.26186900  0.23813100  0.76186900  1
  Si  Si1  1  0.73813100  0.76186900  0.23813100  1
loop_
_geom_bond_atom_site_label_1
_geom_bond_atom_site_label_2
_geom_bond_distance
_geom_bond_site_symmetry_2
Fe0 Fe1 2.338904 1_555
Fe0 Fe6 2.533091 1_555
Fe0 Fe8 2.533091 1_556
Fe0 Fe9 2.533091 1_656
Fe0 Fe7 2.533091 1_655
Fe0 Si0 2.577106 1_555
Fe0 Si0 2.577106 1_655
Fe0 Fe4 2.749105 1_555
Fe0 Fe5 2.749105 1_555
Fe0 Fe2 2.906026 1_655
Fe0 Fe3 2.906026 1_655
Fe0 Fe3 2.906026 1_555
Fe0 Fe2 2.906026 1_555
Fe0 U0 3.017330 1_656
Fe1 Fe6 2.533091 1_565
Fe1 Fe8 2.533091 1_555
Fe1 Fe7 2.533091 1_565
Fe1 Fe9 2.533091 1_555
Fe1 Si1 2.577106 1_555
Fe1 Si1 2.577106 1_455
Fe1 Fe4 2.749105 1_555
Fe1 Fe5 2.749105 1_555
Fe1 Fe3 2.906026 1_555
Fe1 Fe2 2.906026 1_555
Fe1 Fe2 2.906026 1_655
Fe1 Fe3 2.906026 1_655
Fe1 U0 3.017330 1_565
Fe2 Fe3 2.435640 1_555
Fe2 Si0 2.508258 1_555
Fe2 Si1 2.508258 1_455
Fe2 Fe7 2.541246 1_555
Fe2 Fe9 2.541246 1_555
Fe2 Fe8 2.541246 1_455
Fe2 Fe6 2.541246 1_555
Fe2 Fe4 2.684687 1_555
Fe2 Fe4 2.684687 1_455
Fe2 U0 2.863511 1_555
Fe3 Si0 2.508258 1_555
Fe3 Si1 2.508258 1_455
Fe3 Fe7 2.541246 1_565
Fe3 Fe9 2.541246 1_556
Fe3 Fe6 2.541246 1_465
Fe3 Fe8 2.541246 1_556
Fe3 Fe5 2.684687 1_455
Fe3 Fe5 2.684687 1_555
Fe3 U0 2.863511 1_566
Fe4 Fe6 2.445594 1_555
Fe4 Fe8 2.445594 1_555
Fe4 Fe9 2.445594 1_555
Fe4 Fe7 2.445594 1_655
Fe4 Si0 2.552426 1_554
Fe4 Si1 2.552426 1_545
Fe4 U0 2.851860 1_555
Fe4 U0 2.851860 1_655
Fe5 Fe6 2.445594 1_565
Fe5 Fe8 2.445594 1_556
Fe5 Fe7 2.445594 1_565
Fe5 Fe9 2.445594 1_656
Fe5 Si0 2.552426 1_565
Fe5 Si1 2.552426 1_556
Fe5 U0 2.851860 1_566
Fe5 U0 2.851860 1_666
Fe6 Si0 2.360670 1_555
Fe6 Si1 2.360670 1_545
Fe6 Fe7 2.365223 1_655
Fe6 Fe7 2.365223 1_555
Fe6 U0 3.153597 1_555
Fe6 U0 3.153597 1_656
Fe7 Si1 2.360670 1_445
Fe7 Si0 2.360670 1_555
Fe7 U0 3.153597 1_556
Fe7 U0 3.153597 1_555
Fe8 Si1 2.360670 1_555
Fe8 Si0 2.360670 1_554
Fe8 Fe9 2.365223 1_655
Fe8 Fe9 2.365223 1_555
Fe8 U0 3.153597 1_655
Fe8 U0 3.153597 1_565
Fe9 Si0 2.360670 1_554
Fe9 Si1 2.360670 1_455
Fe9 U0 3.153597 1_565
Fe9 U0 3.153597 1_555
Si0 U0 3.093596 1_556
Si0 U0 3.093597 1_656
Si1 U0 3.093596 1_665
Si1 U0 3.093597 1_565
