# generated using pymatgen
data_CeSe2
_symmetry_space_group_name_H-M   'P 1'
_cell_length_a   10.37752309
_cell_length_b   10.37752309
_cell_length_c   10.37752309
_cell_angle_alpha   100.45361670
_cell_angle_beta   100.45361670
_cell_angle_gamma   129.57747610
_symmetry_Int_Tables_number   1
_chemical_formula_structural   CeSe2
_chemical_formula_sum   'Ce8 Se16'
_cell_volume   779.34151635
_cell_formula_units_Z   8
loop_
 _symmetry_equiv_pos_site_id
 _symmetry_equiv_pos_as_xyz
  1  'x, y, z'
loop_
 _atom_site_type_symbol
 _atom_site_label
 _atom_site_symmetry_multiplicity
 _atom_site_fract_x
 _atom_site_fract_y
 _atom_site_fract_z
 _atom_site_occupancy
  Ce  Ce0  1  0.75020300  0.50235700  0.74611700  1
  Ce  Ce1  1  0.75624000  0.00408500  0.25388300  1
  Ce  Ce2  1  0.25408500  0.50020300  0.74784500  1
  Ce  Ce3  1  0.75235700  0.50624000  0.25215500  1
  Ce  Ce4  1  0.25470200  0.99852300  0.75007700  1
  Ce  Ce5  1  0.24844700  0.50462600  0.24992300  1
  Ce  Ce6  1  0.75462600  0.00470200  0.75617900  1
  Ce  Ce7  1  0.24852300  0.99844700  0.24382100  1
  Se  Se0  1  0.10142100  0.35244100  0.94330300  1
  Se  Se1  1  0.40913800  0.15811800  0.05669700  1
  Se  Se2  1  0.40811800  0.85142100  0.24898000  1
  Se  Se3  1  0.60244100  0.15913800  0.75102000  1
  Se  Se4  1  0.90033000  0.65298500  0.05469000  1
  Se  Se5  1  0.59829500  0.84563900  0.94531000  1
  Se  Se6  1  0.09563900  0.65033000  0.74734500  1
  Se  Se7  1  0.90298500  0.34829500  0.25265500  1
  Se  Se8  1  0.40904000  0.66003700  0.55829900  1
  Se  Se9  1  0.10173800  0.85074100  0.44170100  1
  Se  Se10  1  0.10074100  0.15904000  0.24900300  1
  Se  Se11  1  0.91003700  0.85173800  0.75099700  1
  Se  Se12  1  0.40257300  0.34182900  0.74615400  1
  Se  Se13  1  0.59567400  0.65641900  0.25384600  1
  Se  Se14  1  0.90641900  0.15257300  0.56074500  1
  Se  Se15  1  0.59182900  0.34567400  0.43925500  1
loop_
_geom_bond_atom_site_label_1
_geom_bond_atom_site_label_2
_geom_bond_distance
_geom_bond_site_symmetry_2
Ce0 Se12 2.851732 1_555
Ce0 Se11 2.852943 1_555
Ce0 Se6 2.858448 1_655
Ce0 Se3 2.859147 1_555
Ce0 Se15 2.881397 1_555
Ce0 Se4 2.897400 1_556
Ce1 Se13 2.851720 1_545
Ce1 Se10 2.852941 1_655
Ce1 Se7 2.858467 1_555
Ce1 Se2 2.859149 1_545
Ce1 Se14 2.881397 1_555
Ce1 Se5 2.897400 1_544
Ce2 Se14 2.851724 1_455
Ce2 Se8 2.852937 1_555
Ce2 Se5 2.858460 1_555
Ce2 Se0 2.859153 1_555
Ce2 Se12 2.881397 1_555
Ce2 Se6 2.897400 1_555
Ce3 Se15 2.851717 1_555
Ce3 Se9 2.852941 1_655
Ce3 Se4 2.858467 1_555
Ce3 Se1 2.859149 1_555
Ce3 Se13 2.881397 1_555
Ce3 Se7 2.897400 1_555
Ce4 Se3 2.849144 1_565
Ce4 Se6 2.850903 1_555
Ce4 Se12 2.856225 1_565
Ce4 Se11 2.861614 1_455
Ce4 Se1 2.879447 1_566
Ce4 Se9 2.895946 1_555
Ce5 Se2 2.849137 1_555
Ce5 Se7 2.850913 1_455
Ce5 Se13 2.856208 1_555
Ce5 Se10 2.861621 1_555
Ce5 Se0 2.879447 1_554
Ce5 Se8 2.895946 1_555
Ce6 Se0 2.849140 1_655
Ce6 Se5 2.850913 1_545
Ce6 Se14 2.856212 1_555
Ce6 Se8 2.861617 1_545
Ce6 Se3 2.879457 1_555
Ce6 Se11 2.895936 1_545
Ce7 Se1 2.849140 1_565
Ce7 Se4 2.850909 1_455
Ce7 Se15 2.856215 1_565
Ce7 Se9 2.861617 1_555
Ce7 Se2 2.879457 1_555
Ce7 Se10 2.895936 1_565
