# generated using pymatgen
data_Te2MoW3(SeS2)2
_symmetry_space_group_name_H-M   'P 1'
_cell_length_a   3.30091677
_cell_length_b   3.30091677
_cell_length_c   41.56450100
_cell_angle_alpha   90.00000000
_cell_angle_beta   90.00000000
_cell_angle_gamma   120.00001542
_symmetry_Int_Tables_number   1
_chemical_formula_structural   Te2MoW3(SeS2)2
_chemical_formula_sum   'Te2 Mo1 W3 Se2 S4'
_cell_volume   392.21326983
_cell_formula_units_Z   1
loop_
 _symmetry_equiv_pos_site_id
 _symmetry_equiv_pos_as_xyz
  1  'x, y, z'
loop_
 _atom_site_type_symbol
 _atom_site_label
 _atom_site_symmetry_multiplicity
 _atom_site_fract_x
 _atom_site_fract_y
 _atom_site_fract_z
 _atom_site_occupancy
  Te  Te0  1  0.66666700  0.33333300  0.42444400  1
  Te  Te1  1  0.66666700  0.33333300  0.51713400  1
  Mo  Mo0  1  0.66666700  0.33333300  0.27946100  1
  W  W0  1  0.33333300  0.66666700  0.09370000  1
  W  W1  1  0.33333300  0.66666700  0.47079400  1
  W  W2  1  0.66666700  0.33333300  0.65895200  1
  Se  Se0  1  0.33333300  0.66666700  0.31997300  1
  Se  Se1  1  0.33333300  0.66666700  0.23901300  1
  S  S0  1  0.33333300  0.66666700  0.69588600  1
  S  S1  1  0.66666700  0.33333300  0.05672700  1
  S  S2  1  0.66666700  0.33333300  0.13070300  1
  S  S3  1  0.33333300  0.66666700  0.62196200  1
loop_
_geom_bond_atom_site_label_1
_geom_bond_atom_site_label_2
_geom_bond_distance
_geom_bond_site_symmetry_2
Te0 W1 2.709883 1_545
Te0 W1 2.709883 1_655
Te0 W1 2.709888 1_555
Te1 W1 2.709588 1_545
Te1 W1 2.709588 1_655
Te1 W1 2.709592 1_555
Mo0 Se1 2.541347 1_545
Mo0 Se1 2.541347 1_655
Mo0 Se1 2.541352 1_555
Mo0 Se0 2.543108 1_545
Mo0 Se0 2.543108 1_655
Mo0 Se0 2.543112 1_555
S0 W2 2.447177 1_455
S0 W2 2.447177 1_565
S0 W2 2.447181 1_555
S1 W0 2.448194 1_655
S1 W0 2.448194 1_545
S1 W0 2.448199 1_555
S2 W0 2.448977 1_545
S2 W0 2.448977 1_655
S2 W0 2.448982 1_555
S3 W2 2.448637 1_455
S3 W2 2.448637 1_565
S3 W2 2.448642 1_555
