# generated using pymatgen
data_MgSi2
_symmetry_space_group_name_H-M   'P 1'
_cell_length_a   4.53508200
_cell_length_b   6.22776795
_cell_length_c   8.19555385
_cell_angle_alpha   98.42620469
_cell_angle_beta   105.01022407
_cell_angle_gamma   91.17203937
_symmetry_Int_Tables_number   1
_chemical_formula_structural   MgSi2
_chemical_formula_sum   'Mg4 Si8'
_cell_volume   220.74578439
_cell_formula_units_Z   4
loop_
 _symmetry_equiv_pos_site_id
 _symmetry_equiv_pos_as_xyz
  1  'x, y, z'
loop_
 _atom_site_type_symbol
 _atom_site_label
 _atom_site_symmetry_multiplicity
 _atom_site_fract_x
 _atom_site_fract_y
 _atom_site_fract_z
 _atom_site_occupancy
  Mg  Mg0  1  0.89113500  0.72986200  0.89437400  1
  Mg  Mg1  1  0.07650100  0.61532900  0.26357700  1
  Mg  Mg2  1  0.58339800  0.30481900  0.27629100  1
  Mg  Mg3  1  0.66386000  0.13173800  0.69836300  1
  Si  Si0  1  0.99510300  0.16687000  0.08786200  1
  Si  Si1  1  0.48965200  0.66470300  0.08064300  1
  Si  Si2  1  0.19769800  0.42307500  0.56621400  1
  Si  Si3  1  0.62230800  0.89619200  0.36877100  1
  Si  Si4  1  0.22082600  0.35324200  0.86100700  1
  Si  Si5  1  0.44338500  0.02417700  0.96649900  1
  Si  Si6  1  0.12888200  0.06517700  0.37899600  1
  Si  Si7  1  0.68775300  0.62478300  0.55767200  1
loop_
_geom_bond_atom_site_label_1
_geom_bond_atom_site_label_2
_geom_bond_distance
_geom_bond_site_symmetry_2
Mg0 Si7 2.649775 1_555
Mg0 Si1 2.720541 1_556
Mg0 Si1 2.818323 1_656
Mg0 Si4 2.824710 1_655
Mg0 Si5 2.879018 1_565
Mg0 Si0 2.905050 1_566
Mg0 Si5 2.951166 1_665
Mg0 Mg3 3.214512 1_565
Mg1 Si1 2.723883 1_555
Mg1 Si1 2.743567 1_455
Mg1 Si6 2.807064 1_565
Mg1 Si2 2.842278 1_555
Mg1 Si3 2.864498 1_555
Mg1 Si0 2.917896 1_455
Mg1 Si3 2.944630 1_455
Mg2 Si7 2.749915 1_555
Mg2 Si3 2.756109 1_545
Mg2 Si0 2.761195 1_455
Mg2 Si5 2.779038 1_554
Mg2 Si0 2.789144 1_555
Mg2 Si6 2.885430 1_555
Mg2 Si6 2.914831 1_655
Mg2 Si1 2.917908 1_555
Mg2 Si2 3.150207 1_655
Mg3 Si4 2.763041 1_655
Mg3 Si5 2.796376 1_555
Mg3 Si3 2.836821 1_545
Mg3 Si2 2.912234 1_555
Mg3 Si4 2.945901 1_555
Mg3 Si6 3.043095 1_555
Mg3 Si0 3.129278 1_556
Mg3 Si7 3.212626 1_545
Si0 Si6 2.484140 1_655
Si0 Si5 2.529894 1_554
Si0 Si5 2.602761 1_654
Si0 Si4 2.724220 1_654
Si1 Si4 2.496436 1_554
Si1 Si3 2.499468 1_555
Si1 Si5 2.542109 1_564
Si2 Si6 2.478081 1_555
Si2 Si4 2.493131 1_555
Si2 Si7 2.552314 1_555
Si2 Si7 2.644237 1_455
Si3 Si7 2.427199 1_555
Si3 Si6 2.483532 1_665
Si3 Si6 2.507911 1_565
Si4 Si5 2.473434 1_555
