# generated using pymatgen
data_CdCoAsHO5
_symmetry_space_group_name_H-M   'P 1'
_cell_length_a   6.23067200
_cell_length_b   7.66097100
_cell_length_c   8.82254000
_cell_angle_alpha   90.00000000
_cell_angle_beta   90.00000000
_cell_angle_gamma   90.00000000
_symmetry_Int_Tables_number   1
_chemical_formula_structural   CdCoAsHO5
_chemical_formula_sum   'Cd4 Co4 As4 H4 O20'
_cell_volume   421.12627979
_cell_formula_units_Z   4
loop_
 _symmetry_equiv_pos_site_id
 _symmetry_equiv_pos_as_xyz
  1  'x, y, z'
loop_
 _atom_site_type_symbol
 _atom_site_label
 _atom_site_symmetry_multiplicity
 _atom_site_fract_x
 _atom_site_fract_y
 _atom_site_fract_z
 _atom_site_occupancy
  Cd  Cd0  1  0.25000000  0.63088600  0.32673300  1
  Cd  Cd1  1  0.25000000  0.13088600  0.17326700  1
  Cd  Cd2  1  0.75000000  0.36911400  0.67326700  1
  Cd  Cd3  1  0.75000000  0.86911400  0.82673300  1
  Co  Co0  1  0.50000000  0.50000000  0.00000000  1
  Co  Co1  1  0.00000000  0.00000000  0.50000000  1
  Co  Co2  1  0.00000000  0.50000000  0.00000000  1
  Co  Co3  1  0.50000000  0.00000000  0.50000000  1
  As  As0  1  0.25000000  0.62930000  0.67333200  1
  As  As1  1  0.25000000  0.12930000  0.82666800  1
  As  As2  1  0.75000000  0.37070000  0.32666800  1
  As  As3  1  0.75000000  0.87070000  0.17333200  1
  H  H0  1  0.25000000  0.75945700  0.03991800  1
  H  H1  1  0.25000000  0.25945700  0.46008200  1
  H  H2  1  0.75000000  0.24054300  0.96008200  1
  H  H3  1  0.75000000  0.74054300  0.53991800  1
  O  O0  1  0.51784800  0.37934600  0.21852800  1
  O  O1  1  0.98215200  0.87934600  0.28147200  1
  O  O2  1  0.01784800  0.62065400  0.78147200  1
  O  O3  1  0.48215200  0.12065400  0.71852800  1
  O  O4  1  0.48215200  0.62065400  0.78147200  1
  O  O5  1  0.01784800  0.12065400  0.71852800  1
  O  O6  1  0.98215200  0.37934600  0.21852800  1
  O  O7  1  0.51784800  0.87934600  0.28147200  1
  O  O8  1  0.25000000  0.46655100  0.53805300  1
  O  O9  1  0.25000000  0.96655100  0.96194700  1
  O  O10  1  0.75000000  0.53344900  0.46194700  1
  O  O11  1  0.75000000  0.03344900  0.03805300  1
  O  O12  1  0.25000000  0.81485400  0.55709200  1
  O  O13  1  0.25000000  0.31485400  0.94290800  1
  O  O14  1  0.75000000  0.18514600  0.44290800  1
  O  O15  1  0.75000000  0.68514600  0.05709200  1
  O  O16  1  0.25000000  0.63828100  0.08006900  1
  O  O17  1  0.25000000  0.13828100  0.41993100  1
  O  O18  1  0.75000000  0.36171900  0.91993100  1
  O  O19  1  0.75000000  0.86171900  0.58006900  1
loop_
_geom_bond_atom_site_label_1
_geom_bond_atom_site_label_2
_geom_bond_distance
_geom_bond_site_symmetry_2
Cd0 O16 2.176940 1_555
Cd0 O8 2.249645 1_555
Cd0 O12 2.473214 1_555
Cd0 O7 2.562751 1_555
Cd0 O1 2.562751 1_455
Cd0 O0 2.722125 1_555
Cd0 O6 2.722125 1_455
Cd1 O17 2.176940 1_555
Cd1 O9 2.249645 1_544
Cd1 O13 2.473214 1_554
Cd1 O0 2.562751 1_555
Cd1 O6 2.562751 1_455
Cd1 O7 2.722125 1_545
Cd1 O1 2.722125 1_445
Cd2 O18 2.176940 1_555
Cd2 O10 2.249645 1_555
Cd2 O14 2.473214 1_555
Cd2 O5 2.562751 1_655
Cd2 O3 2.562751 1_555
Cd2 O2 2.722125 1_655
Cd2 O4 2.722125 1_555
Cd3 O19 2.176940 1_555
Cd3 O11 2.249645 1_566
Cd3 O15 2.473214 1_556
Cd3 O2 2.562751 1_655
Cd3 O4 2.562751 1_555
Cd3 O5 2.722125 1_665
Cd3 O3 2.722125 1_565
Co0 O16 2.011866 1_555
Co0 O18 2.011866 1_554
Co0 O0 2.140986 1_555
Co0 O4 2.140986 1_554
Co0 O15 2.166078 1_555
Co0 O13 2.166078 1_554
Co1 O19 2.011866 1_445
Co1 O17 2.011866 1_555
Co1 O5 2.140986 1_555
Co1 O1 2.140986 1_445
Co1 O12 2.166078 1_545
Co1 O14 2.166078 1_455
Co2 O16 2.011866 1_555
Co2 O18 2.011866 1_454
Co2 O6 2.140986 1_455
Co2 O2 2.140986 1_554
Co2 O15 2.166078 1_455
Co2 O13 2.166078 1_554
Co3 O19 2.011866 1_545
Co3 O17 2.011866 1_555
Co3 O3 2.140986 1_555
Co3 O7 2.140986 1_545
Co3 O12 2.166078 1_545
Co3 O14 2.166078 1_555
As0 O8 1.725978 1_555
As0 O4 1.734039 1_555
As0 O2 1.734039 1_555
As0 O12 1.752839 1_555
As1 O9 1.725978 1_545
As1 O3 1.734039 1_555
As1 O5 1.734039 1_555
As1 O13 1.752839 1_555
As2 O10 1.725978 1_555
As2 O6 1.734039 1_555
As2 O0 1.734039 1_555
As2 O14 1.752839 1_555
As3 O11 1.725978 1_565
As3 O1 1.734039 1_555
As3 O7 1.734039 1_555
As3 O15 1.752839 1_555
H0 O16 0.993615 1_555
H0 O9 1.729255 1_554
H1 O17 0.993615 1_555
H1 O8 1.729255 1_555
H2 O18 0.993615 1_555
H2 O11 1.729255 1_556
H3 O19 0.993615 1_555
H3 O10 1.729255 1_555
