# generated using pymatgen
data_KU2SO12
_symmetry_space_group_name_H-M   'P 1'
_cell_length_a   8.35310304
_cell_length_b   8.35310304
_cell_length_c   17.67777409
_cell_angle_alpha   97.21374702
_cell_angle_beta   97.21374702
_cell_angle_gamma   116.57468442
_symmetry_Int_Tables_number   1
_chemical_formula_structural   KU2SO12
_chemical_formula_sum   'K4 U8 S4 O48'
_cell_volume   1071.20493440
_cell_formula_units_Z   4
loop_
 _symmetry_equiv_pos_site_id
 _symmetry_equiv_pos_as_xyz
  1  'x, y, z'
loop_
 _atom_site_type_symbol
 _atom_site_label
 _atom_site_symmetry_multiplicity
 _atom_site_fract_x
 _atom_site_fract_y
 _atom_site_fract_z
 _atom_site_occupancy
  K  K0  1  0.80516200  0.31357900  0.37599300  1
  K  K1  1  0.68642100  0.19483800  0.12400800  1
  K  K2  1  0.19483800  0.68642100  0.62400800  1
  K  K3  1  0.31357900  0.80516200  0.87599200  1
  U  U0  1  0.31826100  0.35431500  0.41483500  1
  U  U1  1  0.64568500  0.68173900  0.08516500  1
  U  U2  1  0.68173900  0.64568500  0.58516500  1
  U  U3  1  0.35431500  0.31826100  0.91483500  1
  U  U4  1  0.84878200  0.82118600  0.41443700  1
  U  U5  1  0.17881400  0.15121800  0.08556300  1
  U  U6  1  0.15121800  0.17881400  0.58556300  1
  U  U7  1  0.82118600  0.84878200  0.91443700  1
  S  S0  1  0.49580600  0.50419400  0.25000000  1
  S  S1  1  0.50419400  0.49580600  0.75000000  1
  S  S2  1  0.99890800  0.00109200  0.25000000  1
  S  S3  1  0.00109200  0.99890800  0.75000000  1
  O  O0  1  0.36291200  0.49259800  0.30019600  1
  O  O1  1  0.50740200  0.63708800  0.19980400  1
  O  O2  1  0.63708800  0.50740200  0.69980400  1
  O  O3  1  0.49259800  0.36291200  0.80019600  1
  O  O4  1  0.16633300  0.65456300  0.09697900  1
  O  O5  1  0.34543700  0.83366700  0.40302100  1
  O  O6  1  0.83366700  0.34543700  0.90302100  1
  O  O7  1  0.65456300  0.16633300  0.59697900  1
  O  O8  1  0.98722200  0.86800900  0.29994500  1
  O  O9  1  0.13199100  0.01277800  0.20005500  1
  O  O10  1  0.01277800  0.13199100  0.70005500  1
  O  O11  1  0.86800900  0.98722200  0.79994500  1
  O  O12  1  0.19028000  0.47864400  0.43438000  1
  O  O13  1  0.52135600  0.80972000  0.06562000  1
  O  O14  1  0.80972000  0.52135600  0.56562000  1
  O  O15  1  0.47864400  0.19028000  0.93438000  1
  O  O16  1  0.00221600  0.45757400  0.23837300  1
  O  O17  1  0.54242600  0.99778400  0.26162700  1
  O  O18  1  0.99778400  0.54242600  0.76162700  1
  O  O19  1  0.45757400  0.00221600  0.73837300  1
  O  O20  1  0.05522500  0.18139700  0.30150400  1
  O  O21  1  0.81860300  0.94477500  0.19849600  1
  O  O22  1  0.94477500  0.81860300  0.69849600  1
  O  O23  1  0.18139700  0.05522500  0.80150400  1
  O  O24  1  0.97077600  0.69045900  0.43046500  1
  O  O25  1  0.30954100  0.02922400  0.06953500  1
  O  O26  1  0.02922400  0.30954100  0.56953500  1
  O  O27  1  0.69045900  0.97077600  0.93046500  1
  O  O28  1  0.43804600  0.22897900  0.38467500  1
  O  O29  1  0.77102100  0.56195400  0.11532500  1
  O  O30  1  0.56195400  0.77102100  0.61532500  1
  O  O31  1  0.22897900  0.43804600  0.88467500  1
  O  O32  1  0.10705600  0.09950500  0.45652900  1
  O  O33  1  0.90049500  0.89294400  0.04347100  1
  O  O34  1  0.89294400  0.90049500  0.54347100  1
  O  O35  1  0.09950500  0.10705600  0.95652900  1
  O  O36  1  0.67592200  0.56072200  0.30133100  1
  O  O37  1  0.43927800  0.32407800  0.19866900  1
  O  O38  1  0.32407800  0.43927800  0.69866900  1
  O  O39  1  0.56072200  0.67592200  0.80133100  1
  O  O40  1  0.71800100  0.93827000  0.38501800  1
  O  O41  1  0.06173000  0.28199900  0.11498200  1
  O  O42  1  0.28199900  0.06173000  0.61498200  1
  O  O43  1  0.93827000  0.71800100  0.88501800  1
  O  O44  1  0.59697200  0.61140600  0.45708200  1
  O  O45  1  0.38859400  0.40302800  0.04291800  1
  O  O46  1  0.40302800  0.38859400  0.54291800  1
  O  O47  1  0.61140600  0.59697200  0.95708200  1
loop_
_geom_bond_atom_site_label_1
_geom_bond_atom_site_label_2
_geom_bond_distance
_geom_bond_site_symmetry_2
K0 O24 2.785531 1_555
K0 O28 2.851883 1_555
K0 O12 2.855732 1_655
K0 O17 2.868594 1_545
K0 O40 2.914843 1_545
K0 O36 3.080542 1_555
K0 O20 3.115335 1_655
K0 O16 3.169204 1_655
K1 O25 2.785534 1_555
K1 O29 2.851887 1_555
K1 O13 2.855735 1_545
K1 O16 2.868585 1_655
K1 O41 2.914847 1_655
K1 O37 3.080534 1_555
K1 O21 3.115327 1_545
K1 O17 3.169189 1_545
K2 O26 2.785534 1_555
K2 O30 2.851887 1_555
K2 O14 2.855735 1_455
K2 O19 2.868585 1_565
K2 O42 2.914847 1_565
K2 O38 3.080534 1_555
K2 O22 3.115327 1_455
K2 O18 3.169189 1_455
K3 O27 2.785534 1_555
K3 O31 2.851887 1_555
K3 O15 2.855735 1_565
K3 O18 2.868585 1_455
K3 O43 2.914847 1_455
K3 O39 3.080534 1_555
K3 O23 3.115327 1_565
K3 O19 3.169189 1_565
O0 S0 1.483851 1_555
O0 U0 2.443881 1_555
O1 S0 1.483851 1_555
O1 U1 2.443881 1_555
O2 S1 1.483851 1_555
O2 U2 2.443881 1_555
O3 S1 1.483851 1_555
O3 U3 2.443881 1_555
O8 S2 1.481857 1_565
O8 U4 2.443073 1_555
O9 S2 1.481857 1_455
O9 U5 2.443073 1_555
O10 S3 1.481857 1_545
O10 U6 2.443073 1_555
O11 S3 1.481857 1_655
O11 U7 2.443073 1_555
O12 U0 1.826684 1_555
O13 U1 1.826684 1_555
O14 U2 1.826684 1_555
O15 U3 1.826684 1_555
O20 S2 1.494238 1_455
O20 U0 2.501171 1_555
O21 S2 1.494238 1_565
O21 U1 2.501171 1_555
O22 S3 1.494238 1_655
O22 U2 2.501171 1_555
O23 S3 1.494238 1_545
O23 U3 2.501171 1_555
O24 U4 1.819867 1_555
O25 U5 1.819867 1_555
O26 U6 1.819867 1_555
O27 U7 1.819867 1_555
O28 U0 1.820046 1_555
O29 U1 1.820046 1_555
O30 U2 1.820046 1_555
O31 U3 1.820046 1_555
O32 U6 2.229032 1_555
O32 U4 2.299491 1_445
O32 U0 2.355173 1_555
O33 U7 2.229032 1_554
O33 U5 2.299491 1_665
O33 U1 2.355173 1_555
O34 U4 2.229032 1_555
O34 U6 2.299491 1_665
O34 U2 2.355173 1_555
O35 U5 2.229032 1_556
O35 U7 2.299491 1_445
O35 U3 2.355173 1_555
O36 S0 1.491263 1_555
O36 U4 2.487562 1_555
O37 S0 1.491263 1_555
O37 U5 2.487562 1_555
O38 S1 1.491263 1_555
O38 U6 2.487562 1_555
O39 S1 1.491263 1_555
O39 U7 2.487562 1_555
O40 U4 1.833403 1_555
O41 U5 1.833403 1_555
O42 U6 1.833403 1_555
O43 U7 1.833403 1_555
O44 U2 2.227822 1_555
O44 U0 2.297141 1_555
O44 U4 2.344225 1_555
O45 U3 2.227822 1_554
O45 U1 2.297141 1_555
O45 U5 2.344225 1_555
O46 U0 2.227822 1_555
O46 U2 2.297141 1_555
O46 U6 2.344225 1_555
O47 U1 2.227822 1_556
O47 U3 2.297141 1_555
O47 U7 2.344225 1_555
