# generated using pymatgen
data_Ba3SrCoCu3O10
_symmetry_space_group_name_H-M   'P 1'
_cell_length_a   11.42472581
_cell_length_b   11.41716931
_cell_length_c   18.04247066
_cell_angle_alpha   108.42399618
_cell_angle_beta   108.48131383
_cell_angle_gamma   89.86002527
_symmetry_Int_Tables_number   1
_chemical_formula_structural   Ba3SrCoCu3O10
_chemical_formula_sum   'Ba24 Sr8 Co8 Cu24 O80'
_cell_volume   2105.11423538
_cell_formula_units_Z   8
loop_
 _symmetry_equiv_pos_site_id
 _symmetry_equiv_pos_as_xyz
  1  'x, y, z'
loop_
 _atom_site_type_symbol
 _atom_site_label
 _atom_site_symmetry_multiplicity
 _atom_site_fract_x
 _atom_site_fract_y
 _atom_site_fract_z
 _atom_site_occupancy
  Ba  Ba0  1  0.30247100  0.05437400  0.11863000  1
  Ba  Ba1  1  0.30412900  0.06112300  0.62018200  1
  Ba  Ba2  1  0.30689200  0.55218000  0.11944600  1
  Ba  Ba3  1  0.80571800  0.05743100  0.12140200  1
  Ba  Ba4  1  0.80497500  0.55490700  0.12010900  1
  Ba  Ba5  1  0.80434700  0.55184800  0.61621900  1
  Ba  Ba6  1  0.18638700  0.44764700  0.38395800  1
  Ba  Ba7  1  0.18630400  0.95217400  0.38649900  1
  Ba  Ba8  1  0.18317200  0.94517700  0.87739200  1
  Ba  Ba9  1  0.69367000  0.44590600  0.38554500  1
  Ba  Ba10  1  0.68424800  0.44261600  0.87886700  1
  Ba  Ba11  1  0.69250500  0.94698300  0.38459000  1
  Ba  Ba12  1  0.68354300  0.94402200  0.87832800  1
  Ba  Ba13  1  0.05824900  0.31291400  0.11850900  1
  Ba  Ba14  1  0.05923300  0.81425300  0.11987000  1
  Ba  Ba15  1  0.55167500  0.31688600  0.12018000  1
  Ba  Ba16  1  0.55072500  0.81260800  0.11958000  1
  Ba  Ba17  1  0.55770200  0.81004800  0.61883700  1
  Ba  Ba18  1  0.43753000  0.18839500  0.38426900  1
  Ba  Ba19  1  0.44174500  0.68863600  0.38542500  1
  Ba  Ba20  1  0.43841300  0.69043400  0.87979300  1
  Ba  Ba21  1  0.93458200  0.18744800  0.87875500  1
  Ba  Ba22  1  0.93992600  0.68785400  0.38476200  1
  Ba  Ba23  1  0.93303500  0.68676800  0.87800400  1
  Sr  Sr0  1  0.30394100  0.55310800  0.60782700  1
  Sr  Sr1  1  0.80768000  0.05427500  0.61182800  1
  Sr  Sr2  1  0.19186500  0.43571300  0.88602700  1
  Sr  Sr3  1  0.05272400  0.30781000  0.61153200  1
  Sr  Sr4  1  0.05504300  0.80237000  0.60952700  1
  Sr  Sr5  1  0.54873200  0.30766400  0.60864500  1
  Sr  Sr6  1  0.44064500  0.19487800  0.88764800  1
  Sr  Sr7  1  0.94471000  0.19500400  0.39347400  1
  Co  Co0  1  0.99882700  0.00479000  0.99847000  1
  Co  Co1  1  0.99759400  0.50092300  0.99746000  1
  Co  Co2  1  0.49605500  0.00386000  0.99880200  1
  Co  Co3  1  0.50156600  0.00462600  0.50649900  1
  Co  Co4  1  0.48738400  0.49132500  0.99470700  1
  Co  Co5  1  0.24223100  0.74220300  0.99055100  1
  Co  Co6  1  0.74455400  0.24995100  0.00004100  1
  Co  Co7  1  0.74861400  0.75158000  0.00470900  1
  Cu  Cu0  1  0.00115300  0.00524100  0.50836800  1
  Cu  Cu1  1  0.00379900  0.50341400  0.50938000  1
  Cu  Cu2  1  0.49854900  0.50031600  0.50307300  1
  Cu  Cu3  1  0.24510800  0.24574300  0.99528700  1
  Cu  Cu4  1  0.24929000  0.25625400  0.50682800  1
  Cu  Cu5  1  0.24953600  0.75328300  0.50670700  1
  Cu  Cu6  1  0.75215900  0.25160200  0.50614600  1
  Cu  Cu7  1  0.75475300  0.75430600  0.50915500  1
  Cu  Cu8  1  0.11833700  0.10863300  0.25072900  1
  Cu  Cu9  1  0.11733900  0.10611900  0.74520900  1
  Cu  Cu10  1  0.12002000  0.60644200  0.24791600  1
  Cu  Cu11  1  0.12109000  0.59501900  0.75101900  1
  Cu  Cu12  1  0.62038200  0.10566000  0.24836800  1
  Cu  Cu13  1  0.61562200  0.11025900  0.74975200  1
  Cu  Cu14  1  0.62192000  0.60685400  0.24921800  1
  Cu  Cu15  1  0.61027200  0.59378200  0.74335200  1
  Cu  Cu16  1  0.37364300  0.39484600  0.25392000  1
  Cu  Cu17  1  0.36203100  0.39606300  0.74888900  1
  Cu  Cu18  1  0.37156100  0.89475400  0.25387300  1
  Cu  Cu19  1  0.36606600  0.89899000  0.75131300  1
  Cu  Cu20  1  0.87030600  0.38800000  0.24698300  1
  Cu  Cu21  1  0.86755100  0.39108200  0.74824400  1
  Cu  Cu22  1  0.87093800  0.89557100  0.24991700  1
  Cu  Cu23  1  0.86944100  0.90008000  0.74767600  1
  O  O0  1  0.11592200  0.13101800  0.50005300  1
  O  O1  1  0.12158700  0.12669400  0.99377600  1
  O  O2  1  0.12314800  0.62637000  0.50315100  1
  O  O3  1  0.13081000  0.63003700  0.99266800  1
  O  O4  1  0.61587800  0.11875300  0.50274200  1
  O  O5  1  0.62555800  0.13609400  0.99423000  1
  O  O6  1  0.62256600  0.62555800  0.50053100  1
  O  O7  1  0.63254800  0.63761700  0.99589900  1
  O  O8  1  0.10967900  0.38749400  0.99954500  1
  O  O9  1  0.12503700  0.37862800  0.50832100  1
  O  O10  1  0.10477700  0.88382800  0.99991200  1
  O  O11  1  0.12758200  0.87832900  0.50950500  1
  O  O12  1  0.60924500  0.38700600  0.00066100  1
  O  O13  1  0.62545800  0.36948200  0.50609600  1
  O  O14  1  0.60942300  0.88891100  0.00297000  1
  O  O15  1  0.63389900  0.88089200  0.51102200  1
  O  O16  1  0.37062400  0.13131700  0.50136700  1
  O  O17  1  0.37990300  0.11270900  0.99383200  1
  O  O18  1  0.36773900  0.62803300  0.50032600  1
  O  O19  1  0.37707100  0.60796600  0.99042800  1
  O  O20  1  0.87026500  0.12507400  0.49936800  1
  O  O21  1  0.87638300  0.10893400  0.99517400  1
  O  O22  1  0.87655100  0.62525200  0.50179600  1
  O  O23  1  0.88059300  0.61156600  0.99528400  1
  O  O24  1  0.36502300  0.36924600  0.99863400  1
  O  O25  1  0.37409200  0.37967100  0.50723000  1
  O  O26  1  0.35606800  0.86327000  0.00148100  1
  O  O27  1  0.38614000  0.89007300  0.50797200  1
  O  O28  1  0.85825300  0.36348000  0.00125100  1
  O  O29  1  0.88058000  0.37458500  0.50693600  1
  O  O30  1  0.85628500  0.86273300  0.00150300  1
  O  O31  1  0.88101000  0.88147200  0.51170000  1
  O  O32  1  0.06346800  0.08565600  0.13772700  1
  O  O33  1  0.06341900  0.09849800  0.63680600  1
  O  O34  1  0.06437800  0.58438400  0.13506400  1
  O  O35  1  0.08294900  0.58943000  0.64357900  1
  O  O36  1  0.56246000  0.08835100  0.13615900  1
  O  O37  1  0.56871000  0.09841200  0.64047200  1
  O  O38  1  0.56425300  0.58623100  0.13710700  1
  O  O39  1  0.56023000  0.57765600  0.63274600  1
  O  O40  1  0.43088200  0.41536400  0.36541700  1
  O  O41  1  0.42906300  0.40514000  0.85960100  1
  O  O42  1  0.43117100  0.91691400  0.36527300  1
  O  O43  1  0.42606200  0.91991300  0.86399600  1
  O  O44  1  0.92603700  0.39573400  0.35443300  1
  O  O45  1  0.93425000  0.41594100  0.86122100  1
  O  O46  1  0.92642900  0.91025400  0.35925300  1
  O  O47  1  0.92708300  0.91415500  0.85823100  1
  O  O48  1  0.31748600  0.30135200  0.14307100  1
  O  O49  1  0.31811700  0.30669900  0.63792300  1
  O  O50  1  0.31688500  0.79921900  0.14340000  1
  O  O51  1  0.32291600  0.79731200  0.64338900  1
  O  O52  1  0.81258900  0.30036400  0.13374800  1
  O  O53  1  0.82441400  0.29209400  0.63946600  1
  O  O54  1  0.82093200  0.80110300  0.13728600  1
  O  O55  1  0.82791400  0.80046400  0.63988300  1
  O  O56  1  0.17589100  0.20133900  0.36051500  1
  O  O57  1  0.18768300  0.19755800  0.85623800  1
  O  O58  1  0.17586200  0.70153900  0.35698300  1
  O  O59  1  0.18099700  0.69528800  0.86177300  1
  O  O60  1  0.68511900  0.19569000  0.35851700  1
  O  O61  1  0.67537800  0.20006400  0.86190600  1
  O  O62  1  0.67902700  0.69930500  0.35858100  1
  O  O63  1  0.67561100  0.69275500  0.85286800  1
  O  O64  1  0.49019900  0.00646500  0.24970600  1
  O  O65  1  0.48197700  0.02690500  0.75916400  1
  O  O66  1  0.49473200  0.50294500  0.25027300  1
  O  O67  1  0.46306900  0.52323600  0.74273200  1
  O  O68  1  0.98708800  0.02201400  0.25928300  1
  O  O69  1  0.97574500  0.02447000  0.74344600  1
  O  O70  1  0.99381800  0.50171800  0.24960400  1
  O  O71  1  0.97764200  0.51530100  0.74816200  1
  O  O72  1  0.24401300  0.49706700  0.24958300  1
  O  O73  1  0.21182700  0.45202600  0.75238400  1
  O  O74  1  0.23895900  0.99425700  0.24993000  1
  O  O75  1  0.21777000  0.97133600  0.73667400  1
  O  O76  1  0.74508600  0.49620500  0.25017600  1
  O  O77  1  0.71859800  0.46385800  0.73913600  1
  O  O78  1  0.73556300  0.98773300  0.24552900  1
  O  O79  1  0.73434800  0.99317000  0.74799800  1
loop_
_geom_bond_atom_site_label_1
_geom_bond_atom_site_label_2
_geom_bond_distance
_geom_bond_site_symmetry_2
Ba0 O48 2.709894 1_555
Ba0 O26 2.738982 1_545
Ba0 O10 2.792623 1_544
Ba0 O64 2.843984 1_555
Ba0 O32 2.866369 1_555
Ba0 O1 2.871046 1_554
Ba0 O36 2.899261 1_555
Ba0 O17 2.917159 1_554
Ba0 O74 2.954599 1_545
Ba0 O50 3.080132 1_545
Ba1 O11 2.691500 1_545
Ba1 O49 2.718763 1_555
Ba1 O27 2.735883 1_545
Ba1 O16 2.817147 1_555
Ba1 O65 2.820315 1_555
Ba1 O0 2.843972 1_555
Ba1 O33 2.875954 1_555
Ba1 O37 2.942548 1_555
Ba1 O75 3.020499 1_545
Ba1 O51 3.167082 1_545
Ba2 O50 2.711963 1_555
Ba2 O24 2.754617 1_554
Ba2 O8 2.766075 1_554
Ba2 O66 2.848572 1_555
Ba2 O38 2.869007 1_555
Ba2 O34 2.883685 1_555
Ba2 O3 2.903163 1_554
Ba2 O72 2.903538 1_555
Ba2 O19 2.930886 1_554
Ba2 O48 3.022344 1_555
Ba3 O52 2.710744 1_555
Ba3 O14 2.771535 1_545
Ba3 O30 2.775118 1_545
Ba3 O68 2.830105 1_555
Ba3 O21 2.863372 1_554
Ba3 O32 2.873455 1_655
Ba3 O36 2.885159 1_555
Ba3 O78 2.925553 1_545
Ba3 O5 2.933802 1_554
Ba3 O54 3.028705 1_545
Ba4 O54 2.728786 1_555
Ba4 O28 2.757625 1_555
Ba4 O12 2.770195 1_555
Ba4 O70 2.859535 1_555
Ba4 O38 2.871596 1_555
Ba4 O7 2.885199 1_554
Ba4 O23 2.897265 1_554
Ba4 O34 2.899921 1_655
Ba4 O76 2.904970 1_555
Ba4 O52 2.991844 1_555
Ba5 O13 2.700232 1_555
Ba5 O29 2.701847 1_555
Ba5 O71 2.719703 1_555
Ba5 O55 2.734342 1_555
Ba5 O6 2.780580 1_555
Ba5 O22 2.796708 1_555
Ba5 O39 2.902032 1_555
Ba5 O35 3.071744 1_655
Ba5 O77 3.110906 1_555
Ba5 O53 3.121789 1_555
Ba6 O56 2.705377 1_555
Ba6 O18 2.733532 1_555
Ba6 O2 2.741275 1_555
Ba6 O25 2.864774 1_555
Ba6 O9 2.874775 1_555
Ba6 O44 2.878676 1_455
Ba6 O72 2.916890 1_555
Ba6 O40 2.925691 1_555
Ba6 O70 2.942043 1_455
Ba6 O58 3.083327 1_555
Ba7 O0 2.721318 1_565
Ba7 O58 2.735764 1_555
Ba7 O16 2.736368 1_565
Ba7 O11 2.866318 1_555
Ba7 O46 2.866809 1_455
Ba7 O27 2.884536 1_555
Ba7 O74 2.890284 1_555
Ba7 O42 2.951480 1_555
Ba7 O68 2.986684 1_465
Ba7 O56 3.022016 1_565
Ba8 O1 2.716277 1_565
Ba8 O17 2.758852 1_565
Ba8 O59 2.776237 1_555
Ba8 O75 2.794204 1_555
Ba8 O47 2.844532 1_455
Ba8 O43 2.866917 1_555
Ba8 O26 2.880870 1_556
Ba8 O10 2.901096 1_555
Ba8 O57 3.026482 1_565
Ba8 O69 3.165048 1_465
Ba9 O22 2.735937 1_555
Ba9 O60 2.738431 1_555
Ba9 O6 2.746208 1_555
Ba9 O29 2.858950 1_555
Ba9 O13 2.894302 1_555
Ba9 O44 2.902569 1_555
Ba9 O76 2.904810 1_555
Ba9 O40 2.915647 1_555
Ba9 O66 3.004512 1_555
Ba9 O62 3.077399 1_555
Ba10 O61 2.686773 1_555
Ba10 O7 2.752629 1_555
Ba10 O77 2.753712 1_555
Ba10 O23 2.763606 1_555
Ba10 O12 2.836293 1_556
Ba10 O41 2.841330 1_555
Ba10 O28 2.848395 1_556
Ba10 O45 2.977079 1_555
Ba10 O63 3.033461 1_555
Ba10 O67 3.278448 1_555
Ba11 O20 2.690629 1_565
Ba11 O62 2.712528 1_555
Ba11 O4 2.772909 1_565
Ba11 O46 2.859211 1_555
Ba11 O78 2.876633 1_555
Ba11 O15 2.877521 1_555
Ba11 O31 2.898645 1_555
Ba11 O42 2.902276 1_555
Ba11 O60 3.018169 1_565
Ba11 O64 3.032618 1_565
Ba12 O21 2.722123 1_565
Ba12 O63 2.755160 1_555
Ba12 O5 2.755587 1_565
Ba12 O79 2.807517 1_555
Ba12 O30 2.865187 1_556
Ba12 O43 2.876221 1_555
Ba12 O14 2.876568 1_556
Ba12 O47 2.923392 1_555
Ba12 O65 2.992904 1_565
Ba12 O61 3.028309 1_565
Ba13 O32 2.722272 1_555
Ba13 O8 2.763077 1_554
Ba13 O28 2.780434 1_455
Ba13 O1 2.847661 1_554
Ba13 O48 2.861555 1_555
Ba13 O72 2.866065 1_555
Ba13 O52 2.913627 1_455
Ba13 O21 2.917051 1_454
Ba13 O70 2.942163 1_455
Ba13 O34 3.017142 1_555
Ba14 O10 2.718237 1_554
Ba14 O34 2.722160 1_555
Ba14 O30 2.800872 1_455
Ba14 O74 2.804242 1_555
Ba14 O54 2.847386 1_455
Ba14 O50 2.850580 1_555
Ba14 O23 2.898238 1_454
Ba14 O3 2.913729 1_554
Ba14 O32 3.011247 1_565
Ba14 O68 3.188484 1_465
Ba15 O36 2.712515 1_555
Ba15 O24 2.751640 1_554
Ba15 O12 2.777886 1_555
Ba15 O48 2.847766 1_555
Ba15 O66 2.873110 1_555
Ba15 O76 2.876869 1_555
Ba15 O17 2.882559 1_554
Ba15 O5 2.894793 1_554
Ba15 O52 2.923168 1_555
Ba15 O38 2.991857 1_555
Ba16 O38 2.699565 1_555
Ba16 O26 2.754830 1_555
Ba16 O14 2.773280 1_555
Ba16 O78 2.779813 1_555
Ba16 O50 2.848989 1_555
Ba16 O7 2.887980 1_554
Ba16 O19 2.911223 1_554
Ba16 O64 2.937039 1_565
Ba16 O54 3.008063 1_555
Ba16 O36 3.065947 1_565
Ba17 O15 2.695849 1_555
Ba17 O27 2.708961 1_555
Ba17 O39 2.742170 1_555
Ba17 O6 2.774058 1_555
Ba17 O79 2.798923 1_555
Ba17 O18 2.805692 1_555
Ba17 O51 2.865032 1_555
Ba17 O55 2.994622 1_555
Ba17 O37 3.188417 1_565
Ba17 O65 3.271796 1_565
Ba18 O16 2.714622 1_555
Ba18 O40 2.715937 1_555
Ba18 O4 2.767331 1_555
Ba18 O13 2.805871 1_555
Ba18 O25 2.857530 1_555
Ba18 O64 2.881573 1_555
Ba18 O56 2.892445 1_555
Ba18 O42 3.007283 1_545
Ba18 O74 3.012802 1_545
Ba18 O60 3.013776 1_555
Ba19 O6 2.705086 1_555
Ba19 O42 2.740280 1_555
Ba19 O18 2.740829 1_555
Ba19 O27 2.872408 1_555
Ba19 O66 2.910182 1_555
Ba19 O62 2.910259 1_555
Ba19 O15 2.915153 1_555
Ba19 O58 2.927392 1_555
Ba19 O72 3.003251 1_555
Ba19 O40 3.023514 1_555
Ba20 O67 2.700706 1_555
Ba20 O43 2.722179 1_555
Ba20 O19 2.727693 1_555
Ba20 O7 2.741810 1_555
Ba20 O14 2.824315 1_556
Ba20 O26 2.856801 1_556
Ba20 O59 2.856940 1_555
Ba20 O63 2.902325 1_555
Ba20 O41 3.159234 1_555
Ba21 O45 2.725159 1_555
Ba21 O1 2.728385 1_655
Ba21 O69 2.737836 1_555
Ba21 O21 2.781406 1_555
Ba21 O8 2.842508 1_655
Ba21 O28 2.844296 1_556
Ba21 O61 2.887476 1_555
Ba21 O79 3.002405 1_545
Ba21 O47 3.021782 1_545
Ba21 O57 3.052185 1_655
Ba22 O46 2.715661 1_555
Ba22 O22 2.723905 1_555
Ba22 O2 2.746451 1_655
Ba22 O11 2.874195 1_655
Ba22 O62 2.875634 1_555
Ba22 O31 2.890493 1_555
Ba22 O58 2.906790 1_655
Ba22 O70 2.917500 1_555
Ba22 O76 2.979541 1_555
Ba22 O44 3.200313 1_555
Ba23 O71 2.726432 1_555
Ba23 O47 2.727801 1_555
Ba23 O23 2.743785 1_555
Ba23 O3 2.771503 1_655
Ba23 O10 2.811960 1_655
Ba23 O63 2.834224 1_555
Ba23 O30 2.858412 1_556
Ba23 O59 2.943781 1_655
Ba23 O45 3.010557 1_555
Ba23 O77 3.296196 1_555
Co0 O21 1.832497 1_555
Co0 O10 1.835136 1_645
Co0 O1 2.017580 1_655
Co0 O32 2.251959 1_656
Co0 O47 2.275768 1_545
Co0 O30 2.326165 1_546
Co1 O8 1.819471 1_655
Co1 O23 1.836817 1_555
Co1 O3 2.161433 1_655
Co1 O45 2.208036 1_555
Co1 O34 2.227386 1_656
Co1 O28 2.269456 1_556
Co2 O17 1.816685 1_555
Co2 O14 1.843338 1_546
Co2 O5 2.154565 1_555
Co2 O43 2.184256 1_545
Co2 O36 2.224487 1_556
Co2 O26 2.290678 1_546
Co3 O27 1.871589 1_545
Co3 O4 1.878373 1_555
Co3 O15 2.066959 1_545
Co3 O16 2.079666 1_555
Co3 O37 2.184098 1_555
Co3 O42 2.287818 1_545
Co4 O12 1.829300 1_556
Co4 O19 1.833810 1_555
Co4 O24 2.009145 1_555
Co4 O41 2.193543 1_555
Co4 O38 2.315348 1_556
Co4 O7 2.347098 1_555
Co5 O26 1.820663 1_556
Co5 O3 1.825257 1_555
Co5 O59 2.087939 1_555
Co5 O19 2.170378 1_555
Co5 O10 2.256607 1_555
Co5 O50 2.476544 1_556
Co6 O28 1.827640 1_555
Co6 O5 1.838790 1_554
Co6 O52 2.165838 1_555
Co6 O12 2.196918 1_555
Co6 O21 2.202467 1_554
Co6 O61 2.239799 1_554
Co7 O7 1.794609 1_554
Co7 O30 1.796150 1_555
Co7 O54 2.149067 1_555
Co7 O23 2.199275 1_554
Co7 O14 2.230576 1_555
Co7 O63 2.458276 1_554
Cu0 O31 1.999991 1_445
Cu0 O0 2.018415 1_555
Cu0 O20 2.027511 1_455
Cu0 O11 2.043543 1_545
Cu0 O33 2.099701 1_555
Cu0 O46 2.418118 1_445
Cu1 O9 1.984592 1_555
Cu1 O2 2.012152 1_555
Cu1 O22 2.012835 1_455
Cu1 O29 2.019130 1_455
Cu1 O35 2.181273 1_555
Cu1 O44 2.524772 1_455
Cu2 O25 2.016722 1_555
Cu2 O6 2.036366 1_555
Cu2 O13 2.080208 1_555
Cu2 O18 2.085717 1_555
Cu2 O39 2.098106 1_555
Cu2 O40 2.229488 1_555
Cu3 O24 1.942152 1_555
Cu3 O1 1.949667 1_555
Cu3 O17 2.160612 1_555
Cu3 O8 2.236870 1_555
Cu3 O57 2.261183 1_555
Cu3 O48 2.393981 1_556
Cu4 O16 1.988483 1_555
Cu4 O9 1.989648 1_555
Cu4 O25 2.003828 1_555
Cu4 O0 2.040370 1_555
Cu4 O49 2.122863 1_555
Cu4 O56 2.370235 1_555
Cu5 O18 1.966445 1_555
Cu5 O11 1.992830 1_555
Cu5 O2 2.020246 1_555
Cu5 O27 2.200469 1_555
Cu5 O51 2.223695 1_555
Cu5 O58 2.430455 1_555
Cu6 O13 1.974101 1_555
Cu6 O20 1.976338 1_555
Cu6 O29 2.026946 1_555
Cu6 O4 2.149541 1_555
Cu6 O53 2.172852 1_555
Cu6 O60 2.392296 1_555
Cu7 O15 1.996311 1_555
Cu7 O22 2.026915 1_555
Cu7 O31 2.028995 1_555
Cu7 O6 2.045221 1_555
Cu7 O55 2.122778 1_555
Cu7 O62 2.440823 1_555
Cu8 O56 1.824470 1_555
Cu8 O32 1.863080 1_555
Cu8 O68 1.871022 1_455
Cu8 O74 1.896429 1_545
Cu9 O33 1.827912 1_555
Cu9 O57 1.846679 1_555
Cu9 O69 1.855499 1_455
Cu9 O75 1.913601 1_545
Cu10 O58 1.820763 1_555
Cu10 O34 1.862633 1_555
Cu10 O72 1.885495 1_555
Cu10 O70 1.889086 1_455
Cu11 O35 1.827043 1_555
Cu11 O71 1.854981 1_455
Cu11 O59 1.860872 1_555
Cu11 O73 1.934296 1_555
Cu12 O60 1.825863 1_555
Cu12 O36 1.863880 1_555
Cu12 O78 1.880825 1_545
Cu12 O64 1.882432 1_555
Cu13 O37 1.831637 1_555
Cu13 O61 1.851537 1_555
Cu13 O65 1.881339 1_555
Cu13 O79 1.902517 1_545
Cu14 O62 1.817675 1_555
Cu14 O38 1.853611 1_555
Cu14 O66 1.886658 1_555
Cu14 O76 1.888374 1_555
Cu15 O39 1.840690 1_555
Cu15 O63 1.842851 1_555
Cu15 O67 1.861758 1_555
Cu15 O77 1.928001 1_555
Cu16 O48 1.841579 1_555
Cu16 O40 1.843427 1_555
Cu16 O72 1.880776 1_555
Cu16 O66 1.886464 1_555
Cu17 O49 1.837278 1_555
Cu17 O73 1.842496 1_555
Cu17 O41 1.867350 1_555
Cu17 O67 1.909041 1_555
Cu18 O42 1.838267 1_555
Cu18 O50 1.841883 1_555
Cu18 O74 1.888134 1_555
Cu18 O64 1.898196 1_565
Cu19 O51 1.829668 1_555
Cu19 O75 1.862747 1_555
Cu19 O43 1.862960 1_555
Cu19 O65 1.914763 1_565
Cu20 O44 1.811382 1_555
Cu20 O52 1.861973 1_555
Cu20 O76 1.890708 1_555
Cu20 O70 1.899192 1_555
Cu21 O53 1.832896 1_555
Cu21 O45 1.861944 1_555
Cu21 O77 1.874950 1_555
Cu21 O71 1.898567 1_555
Cu22 O46 1.822123 1_555
Cu22 O78 1.863483 1_555
Cu22 O54 1.871051 1_555
Cu22 O68 1.893798 1_565
Cu23 O55 1.822240 1_555
Cu23 O47 1.844824 1_555
Cu23 O79 1.872293 1_555
Cu23 O69 1.906158 1_565
O0 Sr7 2.560047 1_455
O0 Sr3 2.643567 1_555
O2 Sr4 2.613086 1_555
O2 Sr0 2.655138 1_555
O3 Sr2 2.693689 1_555
O4 Sr5 2.684700 1_555
O4 Sr1 2.718647 1_555
O5 Sr6 2.616228 1_555
O8 Sr2 2.704457 1_555
O9 Sr3 2.595059 1_555
O9 Sr0 2.608067 1_555
O9 Sr7 2.738970 1_455
O11 Sr4 2.576160 1_555
O12 Sr6 2.717173 1_554
O13 Sr5 2.558632 1_555
O15 Sr1 2.573417 1_565
O16 Sr5 2.645826 1_555
O17 Sr6 2.648432 1_555
O18 Sr0 2.640661 1_555
O19 Sr2 2.654216 1_555
O20 Sr7 2.647437 1_555
O20 Sr1 2.690919 1_555
O20 Sr3 2.733400 1_655
O22 Sr4 2.654894 1_655
O24 Sr2 2.652611 1_555
O24 Sr6 2.699653 1_555
O25 Sr0 2.549585 1_555
O25 Sr5 2.575481 1_555
O29 Sr3 2.561167 1_655
O29 Sr7 2.687346 1_555
O31 Sr1 2.560565 1_565
O31 Sr4 2.580337 1_655
O33 Sr3 2.566290 1_555
O33 Sr1 2.832529 1_455
O35 Sr4 2.684376 1_555
O35 Sr0 2.796582 1_555
O35 Sr3 3.081469 1_555
O37 Sr5 2.621237 1_555
O37 Sr1 2.949244 1_555
O39 Sr0 2.818476 1_555
O39 Sr5 2.971013 1_555
O41 Sr6 2.600059 1_555
O41 Sr2 2.898652 1_555
O43 Sr6 3.029173 1_565
O44 Sr7 2.591645 1_555
O45 Sr2 2.831579 1_655
O46 Sr7 3.105940 1_565
O49 Sr5 2.847293 1_555
O49 Sr3 2.916931 1_555
O49 Sr0 3.023794 1_555
O51 Sr0 2.648827 1_555
O51 Sr4 2.928913 1_555
O53 Sr1 2.596900 1_555
O53 Sr3 2.825377 1_655
O53 Sr5 3.034816 1_555
O55 Sr4 2.818284 1_655
O55 Sr1 3.091379 1_565
O56 Sr7 2.891116 1_455
O57 Sr2 2.597120 1_555
O57 Sr6 2.765229 1_555
O59 Sr2 3.126246 1_555
O60 Sr7 2.830313 1_555
O61 Sr6 2.866858 1_555
O65 Sr6 2.674736 1_555
O67 Sr0 2.657467 1_555
O67 Sr5 3.254822 1_555
O68 Sr7 2.777241 1_555
O69 Sr1 2.656809 1_555
O71 Sr3 3.172395 1_655
O71 Sr2 3.249788 1_655
O73 Sr2 2.556079 1_555
O73 Sr3 2.629547 1_555
O75 Sr4 2.637562 1_555
O77 Sr5 2.637372 1_555
O78 Sr7 3.228907 1_565
O79 Sr1 3.100956 1_565
