# generated using pymatgen
data_CsVPO5
_symmetry_space_group_name_H-M   'P 1'
_cell_length_a   7.57046700
_cell_length_b   7.81943200
_cell_length_c   9.92038900
_cell_angle_alpha   90.00000000
_cell_angle_beta   90.00000000
_cell_angle_gamma   90.00000000
_symmetry_Int_Tables_number   1
_chemical_formula_structural   CsVPO5
_chemical_formula_sum   'Cs4 V4 P4 O20'
_cell_volume   587.25480653
_cell_formula_units_Z   4
loop_
 _symmetry_equiv_pos_site_id
 _symmetry_equiv_pos_as_xyz
  1  'x, y, z'
loop_
 _atom_site_type_symbol
 _atom_site_label
 _atom_site_symmetry_multiplicity
 _atom_site_fract_x
 _atom_site_fract_y
 _atom_site_fract_z
 _atom_site_occupancy
  Cs  Cs0  1  0.12913500  0.63421600  0.33736700  1
  Cs  Cs1  1  0.37086500  0.36578400  0.83736700  1
  Cs  Cs2  1  0.62913500  0.86578400  0.66263300  1
  Cs  Cs3  1  0.87086500  0.13421600  0.16263300  1
  V  V0  1  0.11289800  0.07327700  0.54227600  1
  V  V1  1  0.38710200  0.92672300  0.04227600  1
  V  V2  1  0.61289800  0.42672300  0.45772400  1
  V  V3  1  0.88710200  0.57327700  0.95772400  1
  P  P0  1  0.34220700  0.13018600  0.34616800  1
  P  P1  1  0.15779300  0.86981400  0.84616800  1
  P  P2  1  0.84220700  0.36981400  0.65383200  1
  P  P3  1  0.65779300  0.63018600  0.15383200  1
  O  O0  1  0.34100900  0.99013600  0.46010000  1
  O  O1  1  0.15899100  0.00986400  0.96010000  1
  O  O2  1  0.84100900  0.50986400  0.53990000  1
  O  O3  1  0.65899100  0.49013600  0.03990000  1
  O  O4  1  0.94888200  0.96060200  0.47909700  1
  O  O5  1  0.55111800  0.03939800  0.97909700  1
  O  O6  1  0.44888200  0.53939800  0.52090300  1
  O  O7  1  0.05111800  0.46060200  0.02090300  1
  O  O8  1  0.01281800  0.26190000  0.65547000  1
  O  O9  1  0.48718200  0.73810000  0.15547000  1
  O  O10  1  0.51281800  0.23810000  0.34453000  1
  O  O11  1  0.98718200  0.76190000  0.84453000  1
  O  O12  1  0.17732900  0.23881100  0.39183800  1
  O  O13  1  0.32267100  0.76118900  0.89183800  1
  O  O14  1  0.67732900  0.26118900  0.60816200  1
  O  O15  1  0.82267100  0.73881100  0.10816200  1
  O  O16  1  0.19079400  0.94982400  0.70714400  1
  O  O17  1  0.30920600  0.05017600  0.20714400  1
  O  O18  1  0.69079400  0.55017600  0.29285600  1
  O  O19  1  0.80920600  0.44982400  0.79285600  1
loop_
_geom_bond_atom_site_label_1
_geom_bond_atom_site_label_2
_geom_bond_distance
_geom_bond_site_symmetry_2
Cs0 O6 3.118381 1_555
Cs0 O2 3.120936 1_455
Cs0 O12 3.159843 1_555
Cs0 O4 3.217530 1_455
Cs0 O15 3.349903 1_455
Cs0 O9 3.356083 1_555
Cs0 O18 3.411584 1_455
Cs0 O0 3.435232 1_555
Cs0 O7 3.471014 1_555
Cs1 O7 3.118381 1_556
Cs1 O3 3.120936 1_556
Cs1 O13 3.159843 1_555
Cs1 O5 3.217530 1_555
Cs1 O14 3.349903 1_555
Cs1 O8 3.356083 1_555
Cs1 O19 3.411584 1_555
Cs1 O1 3.435232 1_555
Cs1 O6 3.471014 1_555
Cs2 O4 3.118381 1_555
Cs2 O0 3.120936 1_555
Cs2 O14 3.159843 1_565
Cs2 O6 3.217530 1_555
Cs2 O13 3.349903 1_555
Cs2 O11 3.356083 1_555
Cs2 O16 3.411584 1_555
Cs2 O2 3.435232 1_555
Cs2 O5 3.471014 1_565
Cs3 O5 3.118381 1_554
Cs3 O1 3.120936 1_654
Cs3 O15 3.159843 1_545
Cs3 O7 3.217530 1_655
Cs3 O12 3.349903 1_655
Cs3 O10 3.356083 1_555
Cs3 O17 3.411584 1_655
Cs3 O3 3.435232 1_555
Cs3 O4 3.471014 1_545
O0 P0 1.573790 1_565
O0 V0 2.017285 1_565
O1 P1 1.573790 1_545
O1 V1 2.017285 1_546
O2 P2 1.573790 1_555
O2 V2 2.017285 1_555
O3 P3 1.573790 1_555
O3 V3 2.017285 1_554
O4 V0 1.646466 1_665
O5 V1 1.646466 1_546
O6 V2 1.646466 1_555
O7 V3 1.646466 1_454
O8 P2 1.542903 1_455
O8 V0 2.002600 1_555
O9 P3 1.542903 1_555
O9 V1 2.002600 1_555
O10 P0 1.542903 1_555
O10 V2 2.002600 1_555
O11 P1 1.542903 1_655
O11 V3 2.002600 1_555
O12 P0 1.576304 1_555
O12 V0 2.034850 1_555
O13 P1 1.576304 1_555
O13 V1 2.034850 1_556
O14 P2 1.576304 1_555
O14 V2 2.034850 1_555
O15 P3 1.576304 1_555
O15 V3 2.034850 1_554
O16 P1 1.534910 1_555
O16 V0 1.988633 1_565
O17 P0 1.534910 1_555
O17 V1 1.988633 1_545
O18 P3 1.534910 1_555
O18 V2 1.988633 1_555
O19 P2 1.534910 1_555
O19 V3 1.988633 1_555
