# generated using pymatgen
data_Ca3Ti(FeO4)2
_symmetry_space_group_name_H-M   'P 1'
_cell_length_a   5.50621300
_cell_length_b   5.57129600
_cell_length_c   11.33664674
_cell_angle_alpha   89.96017928
_cell_angle_beta   90.00000000
_cell_angle_gamma   90.00000000
_symmetry_Int_Tables_number   1
_chemical_formula_structural   Ca3Ti(FeO4)2
_chemical_formula_sum   'Ca6 Ti2 Fe4 O16'
_cell_volume   347.77130837
_cell_formula_units_Z   2
loop_
 _symmetry_equiv_pos_site_id
 _symmetry_equiv_pos_as_xyz
  1  'x, y, z'
loop_
 _atom_site_type_symbol
 _atom_site_label
 _atom_site_symmetry_multiplicity
 _atom_site_fract_x
 _atom_site_fract_y
 _atom_site_fract_z
 _atom_site_occupancy
  Ca  Ca0  1  0.96810500  0.22628600  0.81295300  1
  Ca  Ca1  1  0.96834000  0.22711800  0.18654500  1
  Ca  Ca2  1  0.46810500  0.77371400  0.18704700  1
  Ca  Ca3  1  0.46834000  0.77288200  0.81345500  1
  Ca  Ca4  1  0.01955900  0.23009400  0.49983800  1
  Ca  Ca5  1  0.51955900  0.76990600  0.50016200  1
  Ti  Ti0  1  0.49645800  0.26537700  0.33706900  1
  Ti  Ti1  1  0.99645800  0.73462300  0.66293100  1
  Fe  Fe0  1  0.44409000  0.31261100  0.00093800  1
  Fe  Fe1  1  0.94409000  0.68738900  0.99906200  1
  Fe  Fe2  1  0.49668300  0.25606800  0.67141900  1
  Fe  Fe3  1  0.99668300  0.74393200  0.32858100  1
  O  O0  1  0.26871200  0.97590300  0.64632600  1
  O  O1  1  0.27534800  0.98221500  0.35363200  1
  O  O2  1  0.76871200  0.02409700  0.35367400  1
  O  O3  1  0.77534800  0.01778500  0.64636800  1
  O  O4  1  0.22398900  0.48164800  0.70287900  1
  O  O5  1  0.22985700  0.47118800  0.29781500  1
  O  O6  1  0.72398900  0.51835200  0.29712100  1
  O  O7  1  0.72985700  0.52881200  0.70218500  1
  O  O8  1  0.09236400  0.36914700  0.99969700  1
  O  O9  1  0.59236400  0.63085300  0.00030300  1
  O  O10  1  0.53151000  0.17361400  0.85558200  1
  O  O11  1  0.52890700  0.17376200  0.14540100  1
  O  O12  1  0.03151000  0.82638600  0.14441800  1
  O  O13  1  0.02890700  0.82623800  0.85459900  1
  O  O14  1  0.48807800  0.33851800  0.49775200  1
  O  O15  1  0.98807800  0.66148200  0.50224800  1
loop_
_geom_bond_atom_site_label_1
_geom_bond_atom_site_label_2
_geom_bond_distance
_geom_bond_site_symmetry_2
Ca0 O13 2.302392 1_645
Ca0 O4 2.358797 1_655
Ca0 O8 2.363443 1_655
Ca0 O3 2.458737 1_555
Ca0 O10 2.469537 1_555
Ca0 O7 2.477025 1_555
Ca0 O0 2.873598 1_645
Ca1 O12 2.309770 1_645
Ca1 O5 2.348641 1_655
Ca1 O8 2.361579 1_654
Ca1 O6 2.452987 1_555
Ca1 O2 2.464637 1_555
Ca1 O11 2.482064 1_555
Ca1 O1 2.881616 1_645
Ca2 O11 2.302392 1_565
Ca2 O6 2.358797 1_555
Ca2 O9 2.363443 1_555
Ca2 O1 2.458737 1_555
Ca2 O12 2.469537 1_555
Ca2 O5 2.477025 1_555
Ca2 O2 2.873598 1_565
Ca3 O10 2.309770 1_565
Ca3 O7 2.348641 1_555
Ca3 O9 2.361579 1_556
Ca3 O4 2.452987 1_555
Ca3 O0 2.464637 1_555
Ca3 O13 2.482064 1_555
Ca3 O3 2.881616 1_565
Ca4 O15 2.409807 1_455
Ca4 O3 2.442126 1_455
Ca4 O2 2.444020 1_455
Ca4 O1 2.577071 1_545
Ca4 O0 2.577252 1_545
Ca4 O14 2.649645 1_555
Ca4 O5 2.895871 1_555
Ca4 O4 2.921300 1_555
Ca4 O14 2.988231 1_455
Ca5 O14 2.409807 1_555
Ca5 O1 2.442126 1_555
Ca5 O0 2.444020 1_555
Ca5 O3 2.577071 1_565
Ca5 O2 2.577252 1_565
Ca5 O15 2.649645 1_555
Ca5 O7 2.895871 1_555
Ca5 O6 2.921300 1_555
Ca5 O15 2.988231 1_455
Fe0 O11 1.870001 1_555
Fe0 O10 1.883764 1_554
Fe0 O9 1.951971 1_555
Fe0 O8 1.962174 1_554
Fe1 O13 1.870001 1_655
Fe1 O12 1.883764 1_656
Fe1 O8 1.951971 1_655
Fe1 O9 1.962174 1_556
Fe2 O4 1.990436 1_555
Fe2 O7 2.019850 1_555
Fe2 O14 2.021923 1_555
Fe2 O0 2.023256 1_545
Fe2 O3 2.048878 1_555
Fe2 O10 2.146005 1_555
Fe3 O6 1.990436 1_555
Fe3 O5 2.019850 1_655
Fe3 O15 2.021923 1_555
Fe3 O2 2.023256 1_565
Fe3 O1 2.048878 1_655
Fe3 O12 2.146005 1_655
O0 Ti1 2.022211 1_455
O1 Ti0 2.001464 1_565
O2 Ti0 2.022211 1_555
O3 Ti1 2.001464 1_545
O4 Ti1 1.939125 1_455
O5 Ti0 1.914943 1_555
O6 Ti0 1.939125 1_555
O7 Ti1 1.914943 1_555
O11 Ti0 2.239500 1_555
O13 Ti1 2.239500 1_455
O14 Ti0 1.867474 1_555
O15 Ti1 1.867474 1_555
