# generated using pymatgen
data_Pr3NiGe2
_symmetry_space_group_name_H-M   'P 1'
_cell_length_a   4.29890418
_cell_length_b   11.86712345
_cell_length_c   11.88412433
_cell_angle_alpha   90.00101255
_cell_angle_beta   90.00001351
_cell_angle_gamma   89.99999676
_symmetry_Int_Tables_number   1
_chemical_formula_structural   Pr3NiGe2
_chemical_formula_sum   'Pr12 Ni4 Ge8'
_cell_volume   606.27604928
_cell_formula_units_Z   4
loop_
 _symmetry_equiv_pos_site_id
 _symmetry_equiv_pos_as_xyz
  1  'x, y, z'
loop_
 _atom_site_type_symbol
 _atom_site_label
 _atom_site_symmetry_multiplicity
 _atom_site_fract_x
 _atom_site_fract_y
 _atom_site_fract_z
 _atom_site_occupancy
  Pr  Pr0  1  0.25000136  0.37223767  0.06129592  1
  Pr  Pr1  1  0.74999884  0.62778682  0.93875881  1
  Pr  Pr2  1  0.75000122  0.87222989  0.43869882  1
  Pr  Pr3  1  0.24999965  0.12776848  0.56124394  1
  Pr  Pr4  1  0.25000013  0.69570057  0.21628291  1
  Pr  Pr5  1  0.74999999  0.30429096  0.78366338  1
  Pr  Pr6  1  0.74999980  0.19570777  0.28371228  1
  Pr  Pr7  1  0.24999988  0.80429607  0.71632664  1
  Pr  Pr8  1  0.25000080  0.44389807  0.38306802  1
  Pr  Pr9  1  0.75000031  0.55607625  0.61687962  1
  Pr  Pr10  1  0.75000064  0.94389820  0.11693960  1
  Pr  Pr11  1  0.24999911  0.05607000  0.88312148  1
  Ni  Ni0  1  0.24999987  0.13312774  0.12806258  1
  Ni  Ni1  1  0.74999760  0.86690278  0.87201038  1
  Ni  Ni2  1  0.75000313  0.63314442  0.37195676  1
  Ni  Ni3  1  0.24999695  0.36690333  0.62797180  1
  Ge  Ge0  1  0.25000086  0.68754622  0.47484586  1
  Ge  Ge1  1  0.74999986  0.31246967  0.52514648  1
  Ge  Ge2  1  0.74999993  0.18753759  0.02514897  1
  Ge  Ge3  1  0.24999958  0.81247365  0.97484922  1
  Ge  Ge4  1  0.25000031  0.00760123  0.30201347  1
  Ge  Ge5  1  0.74999996  0.99235166  0.69799543  1
  Ge  Ge6  1  0.75000021  0.50760798  0.19801126  1
  Ge  Ge7  1  0.25000002  0.49237195  0.80199638  1
loop_
_geom_bond_atom_site_label_1
_geom_bond_atom_site_label_2
_geom_bond_distance
_geom_bond_site_symmetry_2
Ni0 Pr6 2.931421 1_555
Ni0 Pr6 2.931422 1_455
Ni0 Pr0 2.946411 1_555
Ni0 Pr11 3.051152 1_554
Ni0 Pr10 3.111328 1_445
Ni0 Pr10 3.111332 1_545
Ni1 Pr7 2.931749 1_555
Ni1 Pr7 2.931764 1_655
Ni1 Pr1 2.946421 1_555
Ni1 Pr10 3.050796 1_556
Ni1 Pr11 3.110785 1_565
Ni1 Pr11 3.110795 1_665
Ni2 Pr4 2.931538 1_655
Ni2 Pr4 2.931556 1_555
Ni2 Pr2 2.946026 1_555
Ni2 Pr9 3.051014 1_555
Ni2 Pr8 3.111464 1_655
Ni2 Pr8 3.111478 1_555
Ni3 Pr5 2.931840 1_455
Ni3 Pr5 2.931858 1_555
Ni3 Pr3 2.946545 1_555
Ni3 Pr8 3.050536 1_555
Ni3 Pr9 3.110823 1_455
Ni3 Pr9 3.110843 1_555
Ge0 Ni2 2.555773 1_455
Ge0 Ni2 2.555789 1_555
Ge0 Pr4 3.074319 1_555
Ge0 Pr8 3.090263 1_555
Ge0 Pr2 3.099693 1_455
Ge0 Pr2 3.099695 1_555
Ge0 Pr9 3.146986 1_555
Ge0 Pr9 3.146990 1_455
Ge0 Pr7 3.186708 1_555
Ge1 Ni3 2.555503 1_655
Ge1 Ni3 2.555525 1_555
Ge1 Pr5 3.073781 1_555
Ge1 Pr9 3.089614 1_555
Ge1 Pr3 3.099759 1_655
Ge1 Pr3 3.099760 1_555
Ge1 Pr8 3.147025 1_555
Ge1 Pr8 3.147032 1_655
Ge1 Pr6 3.186272 1_555
Ge2 Ni0 2.555955 1_655
Ge2 Ni0 2.555956 1_555
Ge2 Pr6 3.074326 1_555
Ge2 Pr10 3.090255 1_545
Ge2 Pr0 3.099817 1_555
Ge2 Pr0 3.099825 1_655
Ge2 Pr11 3.146902 1_654
Ge2 Pr11 3.146907 1_554
Ge2 Pr5 3.186822 1_554
Ge3 Ni1 2.555581 1_555
Ge3 Ni1 2.555595 1_455
Ge3 Pr7 3.073845 1_555
Ge3 Pr11 3.089513 1_565
Ge3 Pr1 3.099615 1_555
Ge3 Pr1 3.099619 1_455
Ge3 Pr10 3.147049 1_456
Ge3 Pr10 3.147055 1_556
Ge3 Pr4 3.186368 1_556
Ge4 Ni0 2.548072 1_555
Ge4 Pr6 3.106533 1_555
Ge4 Pr6 3.106536 1_455
Ge4 Pr2 3.136812 1_445
Ge4 Pr2 3.136817 1_545
Ge4 Pr10 3.166877 1_445
Ge4 Pr10 3.166880 1_545
Ge4 Pr3 3.394748 1_555
Ge5 Ni1 2.548151 1_555
Ge5 Pr7 3.106124 1_655
Ge5 Pr7 3.106125 1_555
Ge5 Pr3 3.137498 1_665
Ge5 Pr3 3.137499 1_565
Ge5 Pr11 3.167350 1_665
Ge5 Pr11 3.167355 1_565
Ge5 Pr2 3.395235 1_555
Ge6 Ni2 2.548046 1_555
Ge6 Pr4 3.106385 1_655
Ge6 Pr4 3.106385 1_555
Ge6 Pr0 3.136960 1_555
Ge6 Pr0 3.136967 1_655
Ge6 Pr8 3.166774 1_555
Ge6 Pr8 3.166777 1_655
Ge6 Pr1 3.395088 1_554
Ge7 Ni3 2.548338 1_555
Ge7 Pr5 3.106337 1_555
Ge7 Pr5 3.106337 1_455
Ge7 Pr1 3.137521 1_555
Ge7 Pr1 3.137528 1_455
Ge7 Pr9 3.167253 1_455
Ge7 Pr9 3.167256 1_555
Ge7 Pr0 3.395374 1_556
