# generated using pymatgen
data_Er2Al4NiGe2
_symmetry_space_group_name_H-M   'P 1'
_cell_length_a   10.06559680
_cell_length_b   10.06559680
_cell_length_c   10.06559701
_cell_angle_alpha   156.36653090
_cell_angle_beta   156.36652509
_cell_angle_gamma   33.66866738
_symmetry_Int_Tables_number   1
_chemical_formula_structural   Er2Al4NiGe2
_chemical_formula_sum   'Er2 Al4 Ni1 Ge2'
_cell_volume   163.73452487
_cell_formula_units_Z   1
loop_
 _symmetry_equiv_pos_site_id
 _symmetry_equiv_pos_as_xyz
  1  'x, y, z'
loop_
 _atom_site_type_symbol
 _atom_site_label
 _atom_site_symmetry_multiplicity
 _atom_site_fract_x
 _atom_site_fract_y
 _atom_site_fract_z
 _atom_site_occupancy
  Er  Er0  1  0.18664300  0.18664300  0.00000000  1
  Er  Er1  1  0.81335700  0.81335700  0.00000000  1
  Al  Al0  1  0.56787300  0.06787300  0.50000000  1
  Al  Al1  1  0.43212700  0.93212700  0.50000000  1
  Al  Al2  1  0.06787300  0.56787300  0.50000000  1
  Al  Al3  1  0.93212700  0.43212700  0.50000000  1
  Ni  Ni0  1  0.00000000  0.00000000  0.00000000  1
  Ge  Ge0  1  0.33675900  0.33675900  0.00000000  1
  Ge  Ge1  1  0.66324100  0.66324100  0.00000000  1
loop_
_geom_bond_atom_site_label_1
_geom_bond_atom_site_label_2
_geom_bond_distance
_geom_bond_site_symmetry_2
Er0 Ge0 2.892509 1_555
Er0 Ge1 2.949721 1_455
Er0 Ge1 2.949721 1_545
Er0 Ge1 2.949722 1_556
Er0 Ge1 2.949722 1_444
Er1 Ge1 2.892509 1_555
Er1 Ge0 2.949721 1_565
Er1 Ge0 2.949721 1_655
Er1 Ge0 2.949722 1_554
Er1 Ge0 2.949722 1_666
Al0 Ni0 2.441133 1_555
Al0 Ni0 2.441133 1_656
Al0 Ge1 2.761436 1_545
Al0 Ge1 2.761436 1_556
Al0 Er0 3.079949 1_555
Al0 Er0 3.079949 1_656
Al1 Ni0 2.441133 1_565
Al1 Ni0 2.441133 1_666
Al1 Ge0 2.761436 1_566
Al1 Ge0 2.761436 1_555
Al1 Er1 3.079949 1_455
Al1 Er1 3.079949 1_556
Al2 Ni0 2.441133 1_555
Al2 Ni0 2.441133 1_566
Al2 Ge1 2.761436 1_455
Al2 Ge1 2.761436 1_556
Al2 Er0 3.079948 1_555
Al2 Er0 3.079948 1_566
Al3 Ni0 2.441133 1_655
Al3 Ni0 2.441133 1_666
Al3 Ge0 2.761436 1_656
Al3 Ge0 2.761436 1_555
Al3 Er1 3.079948 1_556
Al3 Er1 3.079948 1_545
