# generated using pymatgen
data_DyFeCu
_symmetry_space_group_name_H-M   'P 1'
_cell_length_a   5.21737070
_cell_length_b   5.21737070
_cell_length_c   5.21737070
_cell_angle_alpha   121.94224702
_cell_angle_beta   121.40230860
_cell_angle_gamma   87.12780865
_symmetry_Int_Tables_number   1
_chemical_formula_structural   DyFeCu
_chemical_formula_sum   'Dy2 Fe2 Cu2'
_cell_volume   97.74977556
_cell_formula_units_Z   2
loop_
 _symmetry_equiv_pos_site_id
 _symmetry_equiv_pos_as_xyz
  1  'x, y, z'
loop_
 _atom_site_type_symbol
 _atom_site_label
 _atom_site_symmetry_multiplicity
 _atom_site_fract_x
 _atom_site_fract_y
 _atom_site_fract_z
 _atom_site_occupancy
  Dy  Dy0  1  0.37101300  0.12101300  0.25000000  1
  Dy  Dy1  1  0.62898700  0.87898700  0.75000000  1
  Fe  Fe0  1  0.00000000  0.50000000  0.00000000  1
  Fe  Fe1  1  0.00000000  0.00000000  0.50000000  1
  Cu  Cu0  1  0.50000000  0.50000000  0.00000000  1
  Cu  Cu1  1  0.00000000  0.50000000  0.50000000  1
loop_
_geom_bond_atom_site_label_1
_geom_bond_atom_site_label_2
_geom_bond_distance
_geom_bond_site_symmetry_2
Dy0 Fe0 3.012044 1_555
Dy0 Fe1 3.012044 1_554
Dy0 Fe0 3.012044 1_656
Dy0 Fe1 3.012044 1_655
Dy0 Fe1 3.077643 1_555
Dy0 Fe0 3.077643 1_545
Dy1 Fe1 3.012044 1_666
Dy1 Fe0 3.012044 1_555
Dy1 Fe0 3.012044 1_656
Dy1 Fe1 3.012044 1_565
Dy1 Fe1 3.077643 1_665
Dy1 Fe0 3.077643 1_666
Fe0 Fe1 2.531731 1_554
Fe0 Fe1 2.531731 1_565
Cu0 Cu1 2.553198 1_554
Cu0 Cu1 2.553198 1_655
Cu0 Fe0 2.608685 1_655
Cu0 Fe1 2.608685 1_665
Cu0 Fe1 2.608685 1_554
Cu0 Fe0 2.608685 1_555
Cu0 Dy1 2.979358 1_555
Cu0 Dy0 2.979358 1_554
Cu0 Dy0 2.979358 1_565
Cu0 Dy1 2.979358 1_544
Cu0 Dy1 3.137050 1_554
Cu0 Dy0 3.137050 1_555
Cu1 Fe1 2.608685 1_555
Cu1 Fe1 2.608685 1_565
Cu1 Fe0 2.608685 1_555
Cu1 Fe0 2.608685 1_556
Cu1 Dy0 2.979358 1_555
Cu1 Dy0 2.979358 1_566
Cu1 Dy1 2.979358 1_455
Cu1 Dy1 2.979358 1_444
Cu1 Dy1 3.137050 1_555
Cu1 Dy0 3.137050 1_455
