# generated using pymatgen
data_Zr4ZnAg
_symmetry_space_group_name_H-M   'P 1'
_cell_length_a   8.95639551
_cell_length_b   8.95639551
_cell_length_c   8.95639551
_cell_angle_alpha   60.00000000
_cell_angle_beta   120.00000000
_cell_angle_gamma   120.00000000
_symmetry_Int_Tables_number   1
_chemical_formula_structural   Zr4ZnAg
_chemical_formula_sum   'Zr16 Zn4 Ag4'
_cell_volume   508.02465879
_cell_formula_units_Z   4
loop_
 _symmetry_equiv_pos_site_id
 _symmetry_equiv_pos_as_xyz
  1  'x, y, z'
loop_
 _atom_site_type_symbol
 _atom_site_label
 _atom_site_symmetry_multiplicity
 _atom_site_fract_x
 _atom_site_fract_y
 _atom_site_fract_z
 _atom_site_occupancy
  Zr  Zr0  1  0.50496100  0.51488200  0.99503900  1
  Zr  Zr1  1  0.50496100  0.99503900  0.99503900  1
  Zr  Zr2  1  0.50496100  0.99503900  0.51488200  1
  Zr  Zr3  1  0.98511800  0.99503900  0.99503900  1
  Zr  Zr4  1  0.06135500  0.81135500  0.43864500  1
  Zr  Zr5  1  0.68864500  0.43864500  0.81135500  1
  Zr  Zr6  1  0.06135500  0.81135500  0.81135500  1
  Zr  Zr7  1  0.68864500  0.43864500  0.43864500  1
  Zr  Zr8  1  0.06135500  0.43864500  0.81135500  1
  Zr  Zr9  1  0.68864500  0.81135500  0.43864500  1
  Zr  Zr10  1  0.93676400  0.18676400  0.56323600  1
  Zr  Zr11  1  0.31323600  0.56323600  0.18676400  1
  Zr  Zr12  1  0.93676400  0.18676400  0.18676400  1
  Zr  Zr13  1  0.31323600  0.56323600  0.56323600  1
  Zr  Zr14  1  0.93676400  0.56323600  0.18676400  1
  Zr  Zr15  1  0.31323600  0.18676400  0.56323600  1
  Zn  Zn0  1  0.71841900  0.15525800  0.78158100  1
  Zn  Zn1  1  0.71841900  0.78158100  0.78158100  1
  Zn  Zn2  1  0.71841900  0.78158100  0.15525800  1
  Zn  Zn3  1  0.34474200  0.78158100  0.78158100  1
  Ag  Ag0  1  0.29126400  0.87379200  0.20873600  1
  Ag  Ag1  1  0.29126400  0.20873600  0.20873600  1
  Ag  Ag2  1  0.29126400  0.20873600  0.87379200  1
  Ag  Ag3  1  0.62620800  0.20873600  0.20873600  1
loop_
_geom_bond_atom_site_label_1
_geom_bond_atom_site_label_2
_geom_bond_distance
_geom_bond_site_symmetry_2
Zn0 Zr1 2.745439 1_545
Zn0 Zr3 2.745453 1_545
Zn0 Zr2 2.745453 1_545
Zn0 Zr5 2.830034 1_555
Zn0 Zr7 2.830039 1_555
Zn0 Zr8 2.830039 1_655
Zn0 Zr12 3.232468 1_556
Zn0 Zr15 3.232468 1_555
Zn0 Zr10 3.232476 1_555
Zn1 Zr3 2.745442 1_555
Zn1 Zr0 2.745442 1_555
Zn1 Zr2 2.745442 1_555
Zn1 Zr5 2.830043 1_555
Zn1 Zr9 2.830043 1_555
Zn1 Zr6 2.830043 1_655
Zn1 Zr14 3.232471 1_556
Zn1 Zr10 3.232471 1_565
Zn1 Zr13 3.232471 1_555
Zn2 Zr1 2.745439 1_554
Zn2 Zr3 2.745453 1_554
Zn2 Zr0 2.745453 1_554
Zn2 Zr9 2.830034 1_555
Zn2 Zr7 2.830039 1_555
Zn2 Zr4 2.830039 1_655
Zn2 Zr12 3.232468 1_565
Zn2 Zr11 3.232468 1_555
Zn2 Zr14 3.232476 1_555
Zn3 Zr1 2.745439 1_555
Zn3 Zr2 2.745453 1_555
Zn3 Zr0 2.745453 1_555
Zn3 Zr6 2.830034 1_555
Zn3 Zr4 2.830039 1_555
Zn3 Zr8 2.830039 1_555
Zn3 Zr15 3.232468 1_565
Zn3 Zr11 3.232468 1_556
Zn3 Zr13 3.232476 1_555
Ag0 Zr2 2.830551 1_555
Ag0 Zr3 2.830551 1_454
Ag0 Zr1 2.830558 1_554
Ag0 Zr13 2.991227 1_555
Ag0 Zr14 2.991227 1_455
Ag0 Zr11 2.991227 1_555
Ag0 Ag3 2.999891 1_565
Ag0 Ag2 2.999891 1_564
Ag0 Ag1 2.999891 1_565
Ag0 Zr9 3.275681 1_555
Ag0 Zr6 3.275681 1_554
Ag0 Zr4 3.275681 1_555
Ag1 Zr0 2.830556 1_554
Ag1 Zr2 2.830556 1_545
Ag1 Zr3 2.830556 1_444
Ag1 Zr11 2.991227 1_555
Ag1 Zr12 2.991227 1_455
Ag1 Zr15 2.991227 1_555
Ag1 Ag3 2.999891 1_555
Ag1 Ag2 2.999891 1_554
Ag1 Zr4 3.275681 1_545
Ag1 Zr7 3.275681 1_555
Ag1 Zr8 3.275681 1_554
Ag2 Zr0 2.830551 1_555
Ag2 Zr3 2.830551 1_445
Ag2 Zr1 2.830558 1_545
Ag2 Zr10 2.991227 1_455
Ag2 Zr13 2.991227 1_555
Ag2 Zr15 2.991227 1_555
Ag2 Ag3 2.999891 1_556
Ag2 Zr5 3.275681 1_555
Ag2 Zr6 3.275681 1_545
Ag2 Zr8 3.275681 1_555
Ag3 Zr0 2.830551 1_554
Ag3 Zr2 2.830551 1_545
Ag3 Zr1 2.830558 1_544
Ag3 Zr14 2.991227 1_555
Ag3 Zr10 2.991227 1_555
Ag3 Zr12 2.991227 1_555
Ag3 Zr5 3.275681 1_554
Ag3 Zr9 3.275681 1_545
Ag3 Zr7 3.275681 1_555
