# generated using pymatgen
data_K2U(SO6)2
_symmetry_space_group_name_H-M   'P 1'
_cell_length_a   7.30858900
_cell_length_b   11.73005300
_cell_length_c   14.04235700
_cell_angle_alpha   90.00000000
_cell_angle_beta   90.00000000
_cell_angle_gamma   90.00000000
_symmetry_Int_Tables_number   1
_chemical_formula_structural   K2U(SO6)2
_chemical_formula_sum   'K8 U4 S8 O48'
_cell_volume   1203.85317994
_cell_formula_units_Z   4
loop_
 _symmetry_equiv_pos_site_id
 _symmetry_equiv_pos_as_xyz
  1  'x, y, z'
loop_
 _atom_site_type_symbol
 _atom_site_label
 _atom_site_symmetry_multiplicity
 _atom_site_fract_x
 _atom_site_fract_y
 _atom_site_fract_z
 _atom_site_occupancy
  K  K0  1  0.74258200  0.53844400  0.42894400  1
  K  K1  1  0.25741800  0.03844400  0.57105600  1
  K  K2  1  0.24258200  0.03844400  0.07105600  1
  K  K3  1  0.75741800  0.53844400  0.92894400  1
  K  K4  1  0.74009900  0.97888400  0.42673800  1
  K  K5  1  0.25990100  0.47888400  0.57326200  1
  K  K6  1  0.24009900  0.47888400  0.07326200  1
  K  K7  1  0.75990100  0.97888400  0.92673800  1
  U  U0  1  0.41299400  0.75988100  0.24443700  1
  U  U1  1  0.58700600  0.25988100  0.75556300  1
  U  U2  1  0.91299400  0.25988100  0.25556300  1
  U  U3  1  0.08700600  0.75988100  0.74443700  1
  S  S0  1  0.24420700  0.47841900  0.32514600  1
  S  S1  1  0.75579300  0.97841900  0.67485400  1
  S  S2  1  0.74420700  0.97841900  0.17485400  1
  S  S3  1  0.25579300  0.47841900  0.82514600  1
  S  S4  1  0.24198300  0.03869700  0.32524400  1
  S  S5  1  0.75801700  0.53869700  0.67475600  1
  S  S6  1  0.74198300  0.53869700  0.17475600  1
  S  S7  1  0.25801700  0.03869700  0.82524400  1
  O  O0  1  0.09645200  0.76229100  0.24410300  1
  O  O1  1  0.90354800  0.26229100  0.75589700  1
  O  O2  1  0.59645200  0.26229100  0.25589700  1
  O  O3  1  0.40354800  0.76229100  0.74410300  1
  O  O4  1  0.29762900  0.94609300  0.25433000  1
  O  O5  1  0.70237100  0.44609300  0.74567000  1
  O  O6  1  0.79762900  0.44609300  0.24567000  1
  O  O7  1  0.20237100  0.94609300  0.75433000  1
  O  O8  1  0.16568200  0.13243500  0.26362200  1
  O  O9  1  0.83431800  0.63243500  0.73637800  1
  O  O10  1  0.66568200  0.63243500  0.23637800  1
  O  O11  1  0.33431800  0.13243500  0.76362200  1
  O  O12  1  0.28132800  0.57669300  0.25607800  1
  O  O13  1  0.71867200  0.07669300  0.74392200  1
  O  O14  1  0.78132800  0.07669300  0.24392200  1
  O  O15  1  0.21867200  0.57669300  0.75607800  1
  O  O16  1  0.17158200  0.38430400  0.26286900  1
  O  O17  1  0.82841800  0.88430400  0.73713100  1
  O  O18  1  0.67158200  0.88430400  0.23713100  1
  O  O19  1  0.32841800  0.38430400  0.76286900  1
  O  O20  1  0.39451400  0.75929600  0.11484000  1
  O  O21  1  0.60548600  0.25929600  0.88516000  1
  O  O22  1  0.89451400  0.25929600  0.38516000  1
  O  O23  1  0.10548600  0.75929600  0.61484000  1
  O  O24  1  0.41719800  0.44299200  0.36933200  1
  O  O25  1  0.58280200  0.94299200  0.63066800  1
  O  O26  1  0.91719800  0.94299200  0.13066800  1
  O  O27  1  0.08280200  0.44299200  0.86933200  1
  O  O28  1  0.40523600  0.07868500  0.37616800  1
  O  O29  1  0.59476400  0.57868500  0.62383200  1
  O  O30  1  0.90523600  0.57868500  0.12383200  1
  O  O31  1  0.09476400  0.07868500  0.87616800  1
  O  O32  1  0.43938500  0.75969000  0.37308900  1
  O  O33  1  0.56061500  0.25969000  0.62691100  1
  O  O34  1  0.93938500  0.25969000  0.12691100  1
  O  O35  1  0.06061500  0.75969000  0.87308900  1
  O  O36  1  0.10849600  0.51490200  0.39541400  1
  O  O37  1  0.89150400  0.01490200  0.60458600  1
  O  O38  1  0.60849600  0.01490200  0.10458600  1
  O  O39  1  0.39150400  0.51490200  0.89541400  1
  O  O40  1  0.10268700  0.99277400  0.38959400  1
  O  O41  1  0.89731300  0.49277400  0.61040600  1
  O  O42  1  0.60268700  0.49277400  0.11040600  1
  O  O43  1  0.39731300  0.99277400  0.88959400  1
  O  O44  1  0.89862300  0.75928100  0.42824000  1
  O  O45  1  0.10137700  0.25928100  0.57176000  1
  O  O46  1  0.39862300  0.25928100  0.07176000  1
  O  O47  1  0.60137700  0.75928100  0.92824000  1
loop_
_geom_bond_atom_site_label_1
_geom_bond_atom_site_label_2
_geom_bond_distance
_geom_bond_site_symmetry_2
K0 O36 2.729452 1_655
K0 O24 2.758570 1_555
K0 O6 2.821129 1_555
K0 O44 2.830376 1_555
K0 O41 2.838826 1_555
K0 O10 2.973799 1_555
K0 O29 2.979833 1_555
K1 O37 2.729452 1_455
K1 O25 2.758570 1_545
K1 O7 2.821129 1_545
K1 O45 2.830376 1_555
K1 O40 2.838826 1_545
K1 O11 2.973799 1_555
K1 O28 2.979833 1_555
K2 O38 2.729452 1_555
K2 O26 2.758570 1_445
K2 O4 2.821129 1_545
K2 O46 2.830376 1_555
K2 O43 2.838826 1_544
K2 O8 2.973799 1_555
K2 O31 2.979833 1_554
K3 O39 2.729452 1_555
K3 O27 2.758570 1_655
K3 O5 2.821129 1_555
K3 O47 2.830376 1_555
K3 O42 2.838826 1_556
K3 O9 2.973799 1_555
K3 O30 2.979833 1_556
K4 O40 2.705760 1_655
K4 O37 2.764055 1_565
K4 O28 2.804353 1_565
K4 O44 2.824590 1_555
K4 O14 2.827977 1_565
K4 O18 2.927568 1_555
K4 O25 3.114388 1_555
K5 O41 2.705760 1_455
K5 O36 2.764055 1_555
K5 O29 2.804353 1_555
K5 O45 2.824590 1_555
K5 O15 2.827977 1_555
K5 O19 2.927568 1_555
K5 O24 3.114388 1_555
K6 O42 2.705760 1_555
K6 O39 2.764055 1_554
K6 O30 2.804353 1_455
K6 O46 2.824590 1_555
K6 O12 2.827977 1_555
K6 O16 2.927568 1_555
K6 O27 3.114388 1_554
K7 O43 2.705760 1_555
K7 O38 2.764055 1_566
K7 O31 2.804353 1_665
K7 O47 2.824590 1_555
K7 O13 2.827977 1_565
K7 O17 2.927568 1_555
K7 O26 3.114388 1_556
O0 U0 2.313653 1_555
O1 U1 2.313653 1_555
O2 U2 2.313653 1_555
O3 U3 2.313653 1_555
O4 S4 1.528710 1_565
O4 U0 2.345480 1_555
O5 S5 1.528710 1_555
O5 U1 2.345480 1_555
O6 S6 1.528710 1_555
O6 U2 2.345480 1_555
O7 S7 1.528710 1_565
O7 U3 2.345480 1_555
O8 S4 1.506242 1_555
O8 U2 2.378723 1_455
O9 S5 1.506242 1_555
O9 U3 2.378723 1_655
O10 S6 1.506242 1_555
O10 U0 2.378723 1_555
O11 S7 1.506242 1_555
O11 U1 2.378723 1_555
O12 S0 1.530726 1_555
O12 U0 2.360104 1_555
O13 S1 1.530726 1_545
O13 U1 2.360104 1_555
O14 S2 1.530726 1_545
O14 U2 2.360104 1_555
O15 S3 1.530726 1_555
O15 U3 2.360104 1_555
O16 S0 1.505082 1_555
O16 U2 2.390064 1_455
O17 S1 1.505082 1_555
O17 U3 2.390064 1_655
O18 S2 1.505082 1_555
O18 U0 2.390064 1_555
O19 S3 1.505082 1_555
O19 U1 2.390064 1_555
O20 U0 1.824865 1_555
O21 U1 1.824865 1_555
O22 U2 1.824865 1_555
O23 U3 1.824865 1_555
O24 S0 1.468396 1_555
O25 S1 1.468396 1_555
O26 S2 1.468396 1_555
O27 S3 1.468396 1_555
O28 S4 1.467985 1_555
O29 S5 1.467985 1_555
O30 S6 1.467985 1_555
O31 S7 1.467985 1_555
O32 U0 1.816846 1_555
O33 U1 1.816846 1_555
O34 U2 1.816846 1_555
O35 U3 1.816846 1_555
O36 S0 1.463062 1_555
O37 S1 1.463062 1_545
O38 S2 1.463062 1_545
O39 S3 1.463062 1_555
O40 S4 1.463952 1_565
O41 S5 1.463952 1_555
O42 S6 1.463952 1_555
O43 S7 1.463952 1_565
