# generated using pymatgen
data_SrLa3Mn4O12
_symmetry_space_group_name_H-M   'P 1'
_cell_length_a   6.80252736
_cell_length_b   6.80252736
_cell_length_c   6.80252736
_cell_angle_alpha   70.52877937
_cell_angle_beta   109.47122063
_cell_angle_gamma   70.52877937
_symmetry_Int_Tables_number   1
_chemical_formula_structural   SrLa3Mn4O12
_chemical_formula_sum   'Sr1 La3 Mn4 O12'
_cell_volume   242.31985477
_cell_formula_units_Z   1
loop_
 _symmetry_equiv_pos_site_id
 _symmetry_equiv_pos_as_xyz
  1  'x, y, z'
loop_
 _atom_site_type_symbol
 _atom_site_label
 _atom_site_symmetry_multiplicity
 _atom_site_fract_x
 _atom_site_fract_y
 _atom_site_fract_z
 _atom_site_occupancy
  Sr  Sr0  1  0.00000000  0.00000000  0.00000000  1
  La  La0  1  0.50000000  0.00000000  0.50000000  1
  La  La1  1  0.00000000  0.50000000  0.50000000  1
  La  La2  1  0.50000000  0.50000000  0.00000000  1
  Mn  Mn0  1  0.50000000  0.50000000  0.50000000  1
  Mn  Mn1  1  0.50000000  0.00000000  0.00000000  1
  Mn  Mn2  1  0.00000000  0.00000000  0.50000000  1
  Mn  Mn3  1  0.00000000  0.50000000  0.00000000  1
  O  O0  1  0.25434500  0.74565500  0.50869000  1
  O  O1  1  0.25434500  0.25434500  0.00000000  1
  O  O2  1  0.74565500  0.25434500  0.49131000  1
  O  O3  1  0.74565500  0.74565500  0.00000000  1
  O  O4  1  0.25434500  0.49131000  0.25434500  1
  O  O5  1  0.25434500  0.00000000  0.74565500  1
  O  O6  1  0.74565500  0.00000000  0.25434500  1
  O  O7  1  0.74565500  0.50869000  0.74565500  1
  O  O8  1  0.49131000  0.25434500  0.74565500  1
  O  O9  1  0.50869000  0.74565500  0.25434500  1
  O  O10  1  0.00000000  0.74565500  0.74565500  1
  O  O11  1  0.00000000  0.25434500  0.25434500  1
loop_
_geom_bond_atom_site_label_1
_geom_bond_atom_site_label_2
_geom_bond_distance
_geom_bond_site_symmetry_2
La0 O5 2.728854 1_555
La0 O7 2.728854 1_545
La0 O6 2.728854 1_555
La0 O4 2.728854 1_555
La0 O1 2.777540 1_555
La0 O10 2.777540 1_645
La0 O3 2.777540 1_546
La0 O2 2.777540 1_555
La0 O8 2.777540 1_555
La0 O11 2.777540 1_555
La0 O9 2.777540 1_545
La0 O0 2.777540 1_545
La1 O10 2.728854 1_555
La1 O9 2.728854 1_455
La1 O8 2.728854 1_555
La1 O11 2.728854 1_555
La1 O0 2.777540 1_555
La1 O7 2.777540 1_455
La1 O1 2.777540 1_556
La1 O4 2.777540 1_555
La1 O6 2.777540 1_465
La1 O5 2.777540 1_555
La1 O3 2.777540 1_455
La1 O2 2.777540 1_455
La2 O3 2.728854 1_555
La2 O1 2.728854 1_555
La2 O2 2.728854 1_555
La2 O0 2.728854 1_554
La2 O9 2.777540 1_555
La2 O4 2.777540 1_555
La2 O7 2.777540 1_554
La2 O11 2.777540 1_655
La2 O8 2.777540 1_554
La2 O6 2.777540 1_555
La2 O10 2.777540 1_554
La2 O5 2.777540 1_564
Mn0 O7 1.964314 1_555
Mn0 O8 1.964314 1_555
Mn0 O2 1.964314 1_555
Mn0 O9 1.964314 1_555
Mn0 O0 1.964314 1_555
Mn0 O4 1.964314 1_555
Mn1 O6 1.964314 1_555
Mn1 O1 1.964314 1_555
Mn1 O3 1.964314 1_545
Mn1 O9 1.964314 1_545
Mn1 O8 1.964314 1_554
Mn1 O5 1.964314 1_554
Mn2 O5 1.964314 1_555
Mn2 O11 1.964314 1_555
Mn2 O10 1.964314 1_545
Mn2 O2 1.964314 1_455
Mn2 O0 1.964314 1_545
Mn2 O6 1.964314 1_455
Mn3 O10 1.964314 1_554
Mn3 O4 1.964314 1_555
Mn3 O1 1.964314 1_555
Mn3 O11 1.964314 1_555
Mn3 O3 1.964314 1_455
Mn3 O7 1.964314 1_454
O0 Sr0 2.825387 1_565
O1 Sr0 2.825387 1_555
O2 Sr0 2.825387 1_656
O3 Sr0 2.825387 1_665
O4 Sr0 2.825387 1_565
O5 Sr0 2.825387 1_556
O6 Sr0 2.825387 1_655
O7 Sr0 2.825387 1_656
O8 Sr0 2.825387 1_656
O9 Sr0 2.825387 1_565
O10 Sr0 2.825387 1_566
O11 Sr0 2.825387 1_555
