# generated using pymatgen
data_Li4Mn3NbO8
_symmetry_space_group_name_H-M   'P 1'
_cell_length_a   6.14123888
_cell_length_b   6.26255753
_cell_length_c   8.56414714
_cell_angle_alpha   90.01808298
_cell_angle_beta   91.52152680
_cell_angle_gamma   90.22286631
_symmetry_Int_Tables_number   1
_chemical_formula_structural   Li4Mn3NbO8
_chemical_formula_sum   'Li8 Mn6 Nb2 O16'
_cell_volume   329.25726394
_cell_formula_units_Z   2
loop_
 _symmetry_equiv_pos_site_id
 _symmetry_equiv_pos_as_xyz
  1  'x, y, z'
loop_
 _atom_site_type_symbol
 _atom_site_label
 _atom_site_symmetry_multiplicity
 _atom_site_fract_x
 _atom_site_fract_y
 _atom_site_fract_z
 _atom_site_occupancy
  Li  Li0  1  0.99836100  0.00737200  0.50001300  1
  Li  Li1  1  0.50176000  0.49249200  0.00003700  1
  Li  Li2  1  0.50082600  0.00919900  0.00028700  1
  Li  Li3  1  0.99915700  0.49082700  0.49956100  1
  Li  Li4  1  0.74983400  0.24991800  0.74997100  1
  Li  Li5  1  0.24988200  0.74972700  0.25000400  1
  Li  Li6  1  0.25012000  0.24996100  0.24998000  1
  Li  Li7  1  0.75018000  0.74970900  0.74997700  1
  Mn  Mn0  1  0.25005400  0.74958600  0.75009200  1
  Mn  Mn1  1  0.49850200  0.00405600  0.50112000  1
  Mn  Mn2  1  0.00136900  0.49588100  0.99892300  1
  Mn  Mn3  1  0.75017200  0.25014000  0.25000300  1
  Mn  Mn4  1  0.24989800  0.25003300  0.75002100  1
  Mn  Mn5  1  0.75003900  0.75052800  0.25002800  1
  Nb  Nb0  1  0.49869300  0.51004400  0.49916900  1
  Nb  Nb1  1  0.00133300  0.98985800  0.00070500  1
  O  O0  1  0.03184800  0.47559600  0.75224000  1
  O  O1  1  0.53304000  0.02056000  0.25337200  1
  O  O2  1  0.46776700  0.02447900  0.74774300  1
  O  O3  1  0.96695100  0.47989600  0.24662700  1
  O  O4  1  0.98584300  0.99859700  0.76418500  1
  O  O5  1  0.48513100  0.50202900  0.26324300  1
  O  O6  1  0.51407300  0.50132400  0.73588500  1
  O  O7  1  0.01507000  0.99810600  0.23675900  1
  O  O8  1  0.26148900  0.26830900  0.51256700  1
  O  O9  1  0.76638700  0.76744900  0.99293900  1
  O  O10  1  0.23850900  0.23176600  0.98738900  1
  O  O11  1  0.73363800  0.73255100  0.50702400  1
  O  O12  1  0.76238300  0.23034100  0.01500900  1
  O  O13  1  0.26383600  0.73026300  0.49380900  1
  O  O14  1  0.73766300  0.26971400  0.48508500  1
  O  O15  1  0.23619900  0.76968400  0.00623600  1
loop_
_geom_bond_atom_site_label_1
_geom_bond_atom_site_label_2
_geom_bond_distance
_geom_bond_site_symmetry_2
Li0 O7 2.260337 1_645
Li0 O4 2.266429 1_545
Li0 O8 2.294190 1_655
Li0 O14 2.299679 1_555
Li0 O11 2.364783 1_545
Li0 O13 2.387269 1_645
Li1 O5 2.259935 1_555
Li1 O6 2.266191 1_554
Li1 O10 2.293804 1_554
Li1 O12 2.298514 1_555
Li1 O9 2.365030 1_554
Li1 O15 2.388009 1_555
Li2 O12 2.117985 1_555
Li2 O10 2.135010 1_554
Li2 O2 2.169135 1_554
Li2 O1 2.172347 1_555
Li2 O15 2.208864 1_545
Li2 O9 2.231686 1_544
Li3 O14 2.117494 1_555
Li3 O8 2.134908 1_655
Li3 O0 2.170120 1_655
Li3 O3 2.170972 1_555
Li3 O13 2.208692 1_655
Li3 O11 2.231433 1_555
Li4 O6 2.144369 1_555
Li4 O4 2.145050 1_545
Li4 O2 2.230129 1_555
Li4 O0 2.230816 1_655
Li4 O14 2.271210 1_555
Li4 O12 2.272451 1_556
Li5 O15 2.090923 1_555
Li5 O13 2.091079 1_555
Li5 O5 2.124903 1_555
Li5 O7 2.126206 1_555
Li5 O3 2.418656 1_455
Li5 O1 2.424023 1_565
Li6 O7 2.134887 1_545
Li6 O5 2.135720 1_555
Li6 O10 2.250941 1_554
Li6 O8 2.250948 1_555
Li6 O1 2.258400 1_555
Li6 O3 2.261720 1_455
Li7 O11 2.083187 1_555
Li7 O9 2.083408 1_555
Li7 O6 2.123614 1_555
Li7 O4 2.124105 1_555
Li7 O0 2.441470 1_655
Li7 O2 2.447630 1_565
Mn0 O0 2.173422 1_555
Mn0 O2 2.176067 1_565
Mn0 O15 2.201142 1_556
Mn0 O13 2.202029 1_555
Mn0 O6 2.256321 1_555
Mn0 O4 2.260349 1_455
Mn1 O2 2.129368 1_555
Mn1 O1 2.140412 1_555
Mn1 O8 2.212047 1_555
Mn1 O14 2.221668 1_555
Mn1 O11 2.234753 1_545
Mn1 O13 2.235336 1_545
Mn2 O0 2.129646 1_555
Mn2 O3 2.139791 1_456
Mn2 O10 2.211961 1_555
Mn2 O12 2.220442 1_456
Mn2 O9 2.234445 1_455
Mn2 O15 2.236030 1_556
Mn3 O3 1.957207 1_555
Mn3 O1 1.957869 1_555
Mn3 O12 2.019697 1_555
Mn3 O14 2.020481 1_555
Mn3 O5 2.276021 1_555
Mn3 O7 2.276024 1_645
Mn4 O2 1.949857 1_555
Mn4 O0 1.950650 1_555
Mn4 O10 2.039145 1_555
Mn4 O8 2.039958 1_555
Mn4 O6 2.261418 1_555
Mn4 O4 2.261537 1_445
Mn5 O1 2.157794 1_565
Mn5 O3 2.160432 1_555
Mn5 O11 2.208812 1_555
Mn5 O9 2.209255 1_554
Mn5 O7 2.248626 1_655
Mn5 O5 2.252014 1_555
Nb0 O13 1.999096 1_555
Nb0 O11 2.001808 1_555
Nb0 O5 2.020610 1_555
Nb0 O6 2.027726 1_555
Nb0 O8 2.102113 1_555
Nb0 O14 2.111884 1_555
Nb1 O15 1.998947 1_555
Nb1 O9 2.001376 1_454
Nb1 O7 2.021757 1_555
Nb1 O4 2.026066 1_454
Nb1 O10 2.102720 1_564
Nb1 O12 2.112626 1_465
