# generated using pymatgen
data_Sr3Er2(GeO4)3
_symmetry_space_group_name_H-M   'P 1'
_cell_length_a   11.43851376
_cell_length_b   11.43851376
_cell_length_c   11.43851376
_cell_angle_alpha   109.47122063
_cell_angle_beta   109.47122063
_cell_angle_gamma   109.47122063
_symmetry_Int_Tables_number   1
_chemical_formula_structural   Sr3Er2(GeO4)3
_chemical_formula_sum   'Sr12 Er8 Ge12 O48'
_cell_volume   1152.09132478
_cell_formula_units_Z   4
loop_
 _symmetry_equiv_pos_site_id
 _symmetry_equiv_pos_as_xyz
  1  'x, y, z'
loop_
 _atom_site_type_symbol
 _atom_site_label
 _atom_site_symmetry_multiplicity
 _atom_site_fract_x
 _atom_site_fract_y
 _atom_site_fract_z
 _atom_site_occupancy
  Sr  Sr0  1  0.25000000  0.37500000  0.12500000  1
  Sr  Sr1  1  0.75000000  0.62500000  0.87500000  1
  Sr  Sr2  1  0.75000000  0.12500000  0.37500000  1
  Sr  Sr3  1  0.12500000  0.25000000  0.37500000  1
  Sr  Sr4  1  0.37500000  0.75000000  0.12500000  1
  Sr  Sr5  1  0.25000000  0.87500000  0.62500000  1
  Sr  Sr6  1  0.87500000  0.75000000  0.62500000  1
  Sr  Sr7  1  0.62500000  0.25000000  0.87500000  1
  Sr  Sr8  1  0.37500000  0.12500000  0.25000000  1
  Sr  Sr9  1  0.62500000  0.87500000  0.75000000  1
  Sr  Sr10  1  0.12500000  0.37500000  0.75000000  1
  Sr  Sr11  1  0.87500000  0.62500000  0.25000000  1
  Er  Er0  1  0.00000000  0.00000000  0.00000000  1
  Er  Er1  1  0.50000000  0.00000000  0.50000000  1
  Er  Er2  1  0.00000000  0.50000000  0.50000000  1
  Er  Er3  1  0.50000000  0.00000000  0.00000000  1
  Er  Er4  1  0.50000000  0.50000000  0.00000000  1
  Er  Er5  1  0.50000000  0.50000000  0.50000000  1
  Er  Er6  1  0.00000000  0.00000000  0.50000000  1
  Er  Er7  1  0.00000000  0.50000000  0.00000000  1
  Ge  Ge0  1  0.25000000  0.62500000  0.37500000  1
  Ge  Ge1  1  0.75000000  0.37500000  0.62500000  1
  Ge  Ge2  1  0.75000000  0.87500000  0.12500000  1
  Ge  Ge3  1  0.37500000  0.25000000  0.62500000  1
  Ge  Ge4  1  0.62500000  0.75000000  0.37500000  1
  Ge  Ge5  1  0.25000000  0.12500000  0.87500000  1
  Ge  Ge6  1  0.12500000  0.75000000  0.87500000  1
  Ge  Ge7  1  0.87500000  0.25000000  0.12500000  1
  Ge  Ge8  1  0.62500000  0.37500000  0.25000000  1
  Ge  Ge9  1  0.37500000  0.62500000  0.75000000  1
  Ge  Ge10  1  0.87500000  0.12500000  0.75000000  1
  Ge  Ge11  1  0.12500000  0.87500000  0.25000000  1
  O  O0  1  0.48869900  0.38073800  0.29249000  1
  O  O1  1  0.51130100  0.61926200  0.70751000  1
  O  O2  1  0.58824700  0.19620900  0.20751000  1
  O  O3  1  0.91175300  0.11926200  0.60796200  1
  O  O4  1  0.29249000  0.48869900  0.38073800  1
  O  O5  1  0.30379100  0.91175300  0.29249000  1
  O  O6  1  0.41175300  0.80379100  0.79249000  1
  O  O7  1  0.08824700  0.88073800  0.39203800  1
  O  O8  1  0.70751000  0.51130100  0.61926200  1
  O  O9  1  0.69620900  0.08824700  0.70751000  1
  O  O10  1  0.01130100  0.30379100  0.89203800  1
  O  O11  1  0.20751000  0.58824700  0.19620900  1
  O  O12  1  0.11926200  0.01130100  0.20751000  1
  O  O13  1  0.98869900  0.69620900  0.10796200  1
  O  O14  1  0.79249000  0.41175300  0.80379100  1
  O  O15  1  0.88073800  0.98869900  0.79249000  1
  O  O16  1  0.60796200  0.91175300  0.11926200  1
  O  O17  1  0.19620900  0.48869900  0.60796200  1
  O  O18  1  0.39203800  0.08824700  0.88073800  1
  O  O19  1  0.80379100  0.51130100  0.39203800  1
  O  O20  1  0.89203800  0.01130100  0.30379100  1
  O  O21  1  0.38073800  0.58824700  0.89203800  1
  O  O22  1  0.10796200  0.98869900  0.69620900  1
  O  O23  1  0.61926200  0.41175300  0.10796200  1
  O  O24  1  0.38073800  0.29249000  0.48869900  1
  O  O25  1  0.58824700  0.89203800  0.38073800  1
  O  O26  1  0.61926200  0.70751000  0.51130100  1
  O  O27  1  0.41175300  0.10796200  0.61926200  1
  O  O28  1  0.11926200  0.60796200  0.91175300  1
  O  O29  1  0.01130100  0.20751000  0.11926200  1
  O  O30  1  0.88073800  0.39203800  0.08824700  1
  O  O31  1  0.98869900  0.79249000  0.88073800  1
  O  O32  1  0.30379100  0.89203800  0.01130100  1
  O  O33  1  0.91175300  0.29249000  0.30379100  1
  O  O34  1  0.69620900  0.10796200  0.98869900  1
  O  O35  1  0.08824700  0.70751000  0.69620900  1
  O  O36  1  0.19620900  0.20751000  0.58824700  1
  O  O37  1  0.48869900  0.60796200  0.19620900  1
  O  O38  1  0.80379100  0.79249000  0.41175300  1
  O  O39  1  0.51130100  0.39203800  0.80379100  1
  O  O40  1  0.29249000  0.30379100  0.91175300  1
  O  O41  1  0.70751000  0.69620900  0.08824700  1
  O  O42  1  0.20751000  0.11926200  0.01130100  1
  O  O43  1  0.79249000  0.88073800  0.98869900  1
  O  O44  1  0.89203800  0.38073800  0.58824700  1
  O  O45  1  0.10796200  0.61926200  0.41175300  1
  O  O46  1  0.60796200  0.19620900  0.48869900  1
  O  O47  1  0.39203800  0.80379100  0.51130100  1
loop_
_geom_bond_atom_site_label_1
_geom_bond_atom_site_label_2
_geom_bond_distance
_geom_bond_site_symmetry_2
Er0 O42 2.242968 1_555
Er0 O12 2.242968 1_555
Er0 O29 2.242968 1_555
Er0 O15 2.242968 1_444
Er0 O31 2.242968 1_444
Er0 O43 2.242968 1_444
Er1 O27 2.242964 1_555
Er1 O25 2.242964 1_545
Er1 O5 2.242970 1_545
Er1 O46 2.242970 1_555
Er1 O9 2.242970 1_555
Er1 O47 2.242970 1_545
Er2 O45 2.242964 1_555
Er2 O44 2.242964 1_455
Er2 O33 2.242970 1_455
Er2 O17 2.242970 1_555
Er2 O35 2.242970 1_555
Er2 O19 2.242970 1_455
Er3 O18 2.242964 1_554
Er3 O16 2.242964 1_545
Er3 O34 2.242970 1_554
Er3 O32 2.242970 1_545
Er3 O2 2.242970 1_555
Er3 O6 2.242970 1_544
Er4 O23 2.242964 1_555
Er4 O21 2.242964 1_554
Er4 O40 2.242970 1_554
Er4 O37 2.242970 1_555
Er4 O41 2.242970 1_555
Er4 O39 2.242970 1_554
Er5 O26 2.242968 1_555
Er5 O1 2.242968 1_555
Er5 O8 2.242968 1_555
Er5 O0 2.242968 1_555
Er5 O4 2.242968 1_555
Er5 O24 2.242968 1_555
Er6 O7 2.242964 1_545
Er6 O3 2.242964 1_455
Er6 O22 2.242970 1_545
Er6 O20 2.242970 1_455
Er6 O36 2.242970 1_555
Er6 O38 2.242970 1_445
Er7 O30 2.242964 1_455
Er7 O28 2.242964 1_554
Er7 O13 2.242970 1_455
Er7 O10 2.242970 1_554
Er7 O11 2.242970 1_555
Er7 O14 2.242970 1_454
Ge0 O45 1.795372 1_555
Ge0 O47 1.795374 1_555
Ge0 O11 1.795374 1_555
Ge0 O4 1.795377 1_555
Ge1 O44 1.795372 1_555
Ge1 O14 1.795374 1_555
Ge1 O46 1.795374 1_555
Ge1 O8 1.795377 1_555
Ge2 O16 1.795372 1_555
Ge2 O41 1.795374 1_555
Ge2 O20 1.795374 1_565
Ge2 O43 1.795377 1_554
Ge3 O27 1.795372 1_555
Ge3 O39 1.795374 1_555
Ge3 O36 1.795374 1_555
Ge3 O24 1.795377 1_555
Ge4 O25 1.795372 1_555
Ge4 O38 1.795374 1_555
Ge4 O37 1.795374 1_555
Ge4 O26 1.795377 1_555
Ge5 O18 1.795372 1_555
Ge5 O40 1.795374 1_555
Ge5 O22 1.795374 1_545
Ge5 O42 1.795377 1_556
Ge6 O28 1.795372 1_555
Ge6 O35 1.795374 1_555
Ge6 O32 1.795374 1_556
Ge6 O31 1.795377 1_455
Ge7 O30 1.795372 1_555
Ge7 O33 1.795374 1_555
Ge7 O34 1.795374 1_554
Ge7 O29 1.795377 1_655
Ge8 O23 1.795372 1_555
Ge8 O19 1.795374 1_555
Ge8 O2 1.795374 1_555
Ge8 O0 1.795377 1_555
Ge9 O21 1.795372 1_555
Ge9 O6 1.795374 1_555
Ge9 O17 1.795374 1_555
Ge9 O1 1.795377 1_555
Ge10 O3 1.795372 1_555
Ge10 O9 1.795374 1_555
Ge10 O10 1.795374 1_655
Ge10 O15 1.795377 1_545
Ge11 O7 1.795372 1_555
Ge11 O5 1.795374 1_555
Ge11 O13 1.795374 1_455
Ge11 O12 1.795377 1_565
O0 Sr8 2.565011 1_555
O0 Sr0 2.727458 1_555
O1 Sr9 2.565011 1_555
O1 Sr1 2.727458 1_555
O2 Sr8 2.565001 1_555
O2 Sr2 2.727465 1_555
O3 Sr10 2.565008 1_655
O3 Sr2 2.727471 1_555
O4 Sr0 2.565011 1_555
O4 Sr3 2.727458 1_555
O5 Sr8 2.565001 1_565
O5 Sr4 2.727465 1_555
O6 Sr9 2.565001 1_555
O6 Sr5 2.727465 1_555
O7 Sr11 2.565008 1_455
O7 Sr5 2.727471 1_555
O8 Sr1 2.565011 1_555
O8 Sr6 2.727458 1_555
O9 Sr9 2.565001 1_545
O9 Sr7 2.727465 1_555
O10 Sr10 2.565001 1_555
O10 Sr0 2.727465 1_556
O11 Sr0 2.565001 1_555
O11 Sr4 2.727465 1_555
O12 Sr8 2.565011 1_555
O12 Sr3 2.727458 1_555
O13 Sr11 2.565001 1_555
O13 Sr1 2.727465 1_554
O14 Sr1 2.565001 1_555
O14 Sr7 2.727465 1_555
O15 Sr9 2.565011 1_555
O15 Sr6 2.727458 1_555
O16 Sr2 2.565008 1_565
O16 Sr4 2.727471 1_555
O17 Sr10 2.565001 1_555
O17 Sr3 2.727465 1_555
O18 Sr5 2.565008 1_545
O18 Sr7 2.727471 1_555
O19 Sr11 2.565001 1_555
O19 Sr6 2.727465 1_555
O20 Sr2 2.565001 1_555
O20 Sr3 2.727465 1_655
O21 Sr10 2.565008 1_555
O21 Sr4 2.727471 1_556
O22 Sr5 2.565001 1_555
O22 Sr6 2.727465 1_455
O23 Sr11 2.565008 1_555
O23 Sr7 2.727471 1_554
O24 Sr3 2.565011 1_555
O24 Sr8 2.727458 1_555
O25 Sr4 2.565008 1_555
O25 Sr2 2.727471 1_565
O26 Sr6 2.565011 1_555
O26 Sr9 2.727458 1_555
O27 Sr7 2.565008 1_555
O27 Sr5 2.727471 1_545
O28 Sr4 2.565008 1_556
O28 Sr10 2.727471 1_555
O29 Sr3 2.565011 1_555
O29 Sr0 2.727458 1_555
O30 Sr7 2.565008 1_554
O30 Sr11 2.727471 1_555
O31 Sr6 2.565011 1_555
O31 Sr1 2.727458 1_555
O32 Sr4 2.565001 1_555
O32 Sr8 2.727465 1_565
O33 Sr3 2.565001 1_655
O33 Sr2 2.727465 1_555
O34 Sr7 2.565001 1_555
O34 Sr9 2.727465 1_545
O35 Sr6 2.565001 1_455
O35 Sr5 2.727465 1_555
O36 Sr3 2.565001 1_555
O36 Sr10 2.727465 1_555
O37 Sr4 2.565001 1_555
O37 Sr0 2.727465 1_555
O38 Sr6 2.565001 1_555
O38 Sr11 2.727465 1_555
O39 Sr7 2.565001 1_555
O39 Sr1 2.727465 1_555
O40 Sr0 2.565001 1_556
O40 Sr10 2.727465 1_555
O41 Sr1 2.565001 1_554
O41 Sr11 2.727465 1_555
O42 Sr0 2.565011 1_555
O42 Sr8 2.727458 1_555
O43 Sr1 2.565011 1_555
O43 Sr9 2.727458 1_555
O44 Sr2 2.565008 1_555
O44 Sr10 2.727471 1_655
O45 Sr5 2.565008 1_555
O45 Sr11 2.727471 1_455
O46 Sr2 2.565001 1_555
O46 Sr8 2.727465 1_555
O47 Sr5 2.565001 1_555
O47 Sr9 2.727465 1_555
