# generated using pymatgen
data_Nd4Al
_symmetry_space_group_name_H-M   'P 1'
_cell_length_a   8.09259245
_cell_length_b   8.09259245
_cell_length_c   8.09259245
_cell_angle_alpha   60.00000000
_cell_angle_beta   60.00000000
_cell_angle_gamma   60.00000000
_symmetry_Int_Tables_number   1
_chemical_formula_structural   Nd4Al
_chemical_formula_sum   'Nd8 Al2'
_cell_volume   374.75549617
_cell_formula_units_Z   2
loop_
 _symmetry_equiv_pos_site_id
 _symmetry_equiv_pos_as_xyz
  1  'x, y, z'
loop_
 _atom_site_type_symbol
 _atom_site_label
 _atom_site_symmetry_multiplicity
 _atom_site_fract_x
 _atom_site_fract_y
 _atom_site_fract_z
 _atom_site_occupancy
  Nd  Nd0  1  0.89356600  0.89356600  0.89356600  1
  Nd  Nd1  1  0.89356600  0.89356600  0.31930100  1
  Nd  Nd2  1  0.89356600  0.31930100  0.89356600  1
  Nd  Nd3  1  0.35643400  0.35643400  0.93069900  1
  Nd  Nd4  1  0.35643400  0.35643400  0.35643400  1
  Nd  Nd5  1  0.31930100  0.89356600  0.89356600  1
  Nd  Nd6  1  0.35643400  0.93069900  0.35643400  1
  Nd  Nd7  1  0.93069900  0.35643400  0.35643400  1
  Al  Al0  1  0.50000000  0.50000000  0.50000000  1
  Al  Al1  1  0.75000000  0.75000000  0.75000000  1
loop_
_geom_bond_atom_site_label_1
_geom_bond_atom_site_label_2
_geom_bond_distance
_geom_bond_site_symmetry_2
Nd0 Nd5 3.445300 1_655
Nd0 Nd1 3.445300 1_556
Nd0 Nd2 3.445300 1_565
Nd0 Nd3 4.068551 1_565
Nd0 Nd7 4.068551 1_556
Nd0 Nd3 4.068551 1_655
Nd0 Nd7 4.068551 1_565
Nd0 Nd6 4.068551 1_556
Nd0 Nd6 4.068551 1_655
Nd1 Nd2 3.445300 1_564
Nd1 Nd5 3.445300 1_654
Nd1 Nd6 4.068544 1_555
Nd1 Nd7 4.068544 1_555
Nd1 Nd4 4.068551 1_565
Nd1 Nd4 4.068551 1_655
Nd1 Nd7 4.068560 1_565
Nd1 Nd6 4.068560 1_655
Nd2 Nd5 3.445300 1_645
Nd2 Nd3 4.068544 1_555
Nd2 Nd7 4.068544 1_555
Nd2 Nd4 4.068551 1_655
Nd2 Nd4 4.068551 1_556
Nd2 Nd7 4.068560 1_556
Nd2 Nd3 4.068560 1_655
Nd3 Nd4 3.445300 1_556
Nd3 Nd6 3.445300 1_546
Nd3 Nd7 3.445300 1_456
Nd3 Nd5 4.068544 1_555
Nd3 Nd5 4.068560 1_545
Nd4 Nd6 3.445300 1_545
Nd4 Nd7 3.445300 1_455
Nd4 Nd5 4.068551 1_554
Nd4 Nd5 4.068551 1_545
Nd5 Nd6 4.068544 1_555
Nd5 Nd6 4.068560 1_556
Nd6 Nd7 3.445300 1_465
Al0 Nd4 2.845869 1_555
Al0 Nd6 2.845876 1_555
Al0 Nd3 2.845876 1_555
Al0 Nd7 2.845876 1_555
Al1 Nd0 2.845869 1_555
Al1 Nd2 2.845876 1_555
Al1 Nd1 2.845876 1_555
Al1 Nd5 2.845876 1_555
