# generated using pymatgen
data_Li2Fe(CO3)2
_symmetry_space_group_name_H-M   'P 1'
_cell_length_a   8.67956381
_cell_length_b   6.36467506
_cell_length_c   5.40685637
_cell_angle_alpha   64.87412907
_cell_angle_beta   71.80895969
_cell_angle_gamma   82.39349551
_symmetry_Int_Tables_number   1
_chemical_formula_structural   Li2Fe(CO3)2
_chemical_formula_sum   'Li4 Fe2 C4 O12'
_cell_volume   256.91037756
_cell_formula_units_Z   2
loop_
 _symmetry_equiv_pos_site_id
 _symmetry_equiv_pos_as_xyz
  1  'x, y, z'
loop_
 _atom_site_type_symbol
 _atom_site_label
 _atom_site_symmetry_multiplicity
 _atom_site_fract_x
 _atom_site_fract_y
 _atom_site_fract_z
 _atom_site_occupancy
  Li  Li0  1  0.67094800  0.04813000  0.47802900  1
  Li  Li1  1  0.17077800  0.45174500  0.77769800  1
  Li  Li2  1  0.82895700  0.54821300  0.39848300  1
  Li  Li3  1  0.32903600  0.95167300  0.19790400  1
  Fe  Fe0  1  0.50008700  0.50013600  0.12996900  1
  Fe  Fe1  1  0.00001400  0.99977100  0.88017900  1
  C  C0  1  0.69835100  0.90035400  0.00623300  1
  C  C1  1  0.19825700  0.59960300  0.15730700  1
  C  C2  1  0.80174900  0.40025700  0.95452700  1
  C  C3  1  0.30170000  0.09990100  0.60551000  1
  O  O0  1  0.79964000  0.95876400  0.75269200  1
  O  O1  1  0.75355500  0.89561300  0.20720900  1
  O  O2  1  0.55031000  0.84498900  0.05505400  1
  O  O3  1  0.05034400  0.65438900  0.14963500  1
  O  O4  1  0.25283500  0.60443100  0.35401300  1
  O  O5  1  0.30006900  0.54159300  0.96208900  1
  O  O6  1  0.70099600  0.45895800  0.80179700  1
  O  O7  1  0.74597200  0.39581600  0.21079500  1
  O  O8  1  0.94977700  0.34437100  0.85631100  1
  O  O9  1  0.44969700  0.15539400  0.45062500  1
  O  O10  1  0.24645200  0.10413900  0.85735400  1
  O  O11  1  0.20047500  0.04176000  0.51159600  1
loop_
_geom_bond_atom_site_label_1
_geom_bond_atom_site_label_2
_geom_bond_distance
_geom_bond_site_symmetry_2
Li0 O9 1.980025 1_555
Li0 O0 1.981614 1_545
Li0 O1 1.991939 1_545
Li0 O7 2.118357 1_555
Li1 O8 1.979510 1_455
Li1 O5 1.983149 1_555
Li1 O4 1.993349 1_555
Li1 O10 2.119989 1_555
Li2 O6 1.978476 1_555
Li2 O3 1.979064 1_655
Li2 O7 1.991648 1_555
Li2 O1 2.117637 1_555
Li3 O2 1.979927 1_555
Li3 O11 1.981262 1_565
Li3 O10 1.992088 1_564
Li3 O4 2.118630 1_555
Fe0 O2 2.135330 1_555
Fe0 O9 2.135794 1_555
Fe0 O5 2.136990 1_554
Fe0 O6 2.144754 1_554
Fe0 O7 2.268769 1_555
Fe0 O4 2.279502 1_555
Fe1 O8 2.135132 1_465
Fe1 O3 2.137547 1_556
Fe1 O11 2.139187 1_565
Fe1 O0 2.142285 1_455
Fe1 O1 2.271635 1_456
Fe1 O10 2.274514 1_565
C0 O2 1.293832 1_555
C0 O0 1.300619 1_554
C0 O1 1.305646 1_555
C1 O3 1.293815 1_555
C1 O5 1.301355 1_554
C1 O4 1.304872 1_555
C2 O8 1.293329 1_555
C2 O6 1.299476 1_555
C2 O7 1.306371 1_556
C3 O9 1.293596 1_555
C3 O11 1.300341 1_555
C3 O10 1.305730 1_555
