# generated using pymatgen
data_Nb3AlCr8
_symmetry_space_group_name_H-M   'P 1'
_cell_length_a   8.44750847
_cell_length_b   8.44750847
_cell_length_c   8.44750821
_cell_angle_alpha   33.58571277
_cell_angle_beta   33.58571277
_cell_angle_gamma   33.58570915
_symmetry_Int_Tables_number   1
_chemical_formula_structural   Nb3AlCr8
_chemical_formula_sum   'Nb3 Al1 Cr8'
_cell_volume   164.31910217
_cell_formula_units_Z   1
loop_
 _symmetry_equiv_pos_site_id
 _symmetry_equiv_pos_as_xyz
  1  'x, y, z'
loop_
 _atom_site_type_symbol
 _atom_site_label
 _atom_site_symmetry_multiplicity
 _atom_site_fract_x
 _atom_site_fract_y
 _atom_site_fract_z
 _atom_site_occupancy
  Nb  Nb0  1  0.62494600  0.62494600  0.62494600  1
  Nb  Nb1  1  0.00148900  0.00148900  0.00148900  1
  Nb  Nb2  1  0.49886100  0.49886100  0.49886100  1
  Al  Al0  1  0.12496100  0.12496100  0.12496100  1
  Cr  Cr0  1  0.56277400  0.06360600  0.56277400  1
  Cr  Cr1  1  0.06267400  0.56021500  0.06267400  1
  Cr  Cr2  1  0.06360600  0.56277400  0.56277400  1
  Cr  Cr3  1  0.56021500  0.06267400  0.06267400  1
  Cr  Cr4  1  0.81249000  0.81249000  0.81249000  1
  Cr  Cr5  1  0.31253700  0.31253700  0.31253700  1
  Cr  Cr6  1  0.56277400  0.56277400  0.06360600  1
  Cr  Cr7  1  0.06267400  0.06267400  0.56021500  1
loop_
_geom_bond_atom_site_label_1
_geom_bond_atom_site_label_2
_geom_bond_distance
_geom_bond_site_symmetry_2
Nb0 Nb1 3.001272 1_656
Nb0 Nb1 3.001272 1_566
Nb0 Nb1 3.001273 1_665
Nb0 Nb2 3.012260 1_555
Al0 Cr7 2.843816 1_555
Al0 Cr1 2.843816 1_555
Al0 Cr3 2.843816 1_555
Al0 Cr6 2.853790 1_545
Al0 Cr6 2.853790 1_455
Al0 Cr2 2.853791 1_554
Al0 Cr0 2.853791 1_554
Al0 Cr0 2.853791 1_455
Al0 Cr2 2.853791 1_545
Al0 Cr4 2.861886 1_454
Al0 Cr4 2.861886 1_544
Al0 Cr4 2.861886 1_445
Al0 Nb1 2.949833 1_555
Al0 Nb2 2.980144 1_455
Al0 Nb2 2.980144 1_545
Al0 Nb2 2.980144 1_554
Cr0 Cr4 2.429514 1_545
Cr0 Cr2 2.436529 1_555
Cr0 Cr6 2.436529 1_555
Cr0 Cr2 2.444651 1_645
Cr0 Cr6 2.444651 1_546
Cr0 Cr5 2.447779 1_555
Cr0 Nb2 2.823602 1_555
Cr0 Nb1 2.849499 1_655
Cr0 Nb1 2.849499 1_556
Cr0 Nb0 2.873587 1_545
Cr1 Cr3 2.428587 1_555
Cr1 Cr7 2.428587 1_555
Cr1 Cr4 2.430737 1_454
Cr1 Cr5 2.448442 1_555
Cr1 Cr3 2.452593 1_465
Cr1 Cr7 2.452593 1_564
Cr1 Nb2 2.867302 1_554
Cr1 Nb2 2.867302 1_455
Cr1 Nb0 2.868535 1_455
Cr1 Nb0 2.868535 1_554
Cr1 Nb1 2.907698 1_565
Cr2 Cr4 2.429514 1_455
Cr2 Cr6 2.436529 1_555
Cr2 Cr6 2.444651 1_456
Cr2 Cr5 2.447779 1_555
Cr2 Nb2 2.823602 1_555
Cr2 Nb1 2.849499 1_565
Cr2 Nb1 2.849499 1_556
Cr2 Nb0 2.873587 1_455
Cr3 Cr7 2.428587 1_555
Cr3 Cr4 2.430737 1_544
Cr3 Cr5 2.448442 1_555
Cr3 Cr7 2.452593 1_654
Cr3 Nb2 2.867302 1_554
Cr3 Nb2 2.867302 1_545
Cr3 Nb0 2.868535 1_545
Cr3 Nb0 2.868535 1_554
Cr3 Nb1 2.907698 1_655
Cr4 Cr6 2.429514 1_556
Cr4 Cr7 2.430737 1_665
Cr4 Nb2 2.857198 1_655
Cr4 Nb2 2.857198 1_565
Cr4 Nb2 2.857198 1_556
Cr5 Cr6 2.447779 1_555
Cr5 Cr7 2.448443 1_555
Cr5 Nb0 2.862144 1_455
Cr5 Nb0 2.862144 1_545
Cr5 Nb0 2.862145 1_554
Cr5 Nb1 2.868002 1_655
Cr5 Nb1 2.868002 1_565
Cr5 Nb1 2.868002 1_556
Cr6 Nb2 2.823602 1_555
Cr6 Nb1 2.849499 1_655
Cr6 Nb1 2.849499 1_565
Cr6 Nb0 2.873587 1_554
Cr7 Nb2 2.867301 1_455
Cr7 Nb2 2.867301 1_545
Cr7 Nb0 2.868535 1_545
Cr7 Nb0 2.868535 1_455
Cr7 Nb1 2.907698 1_556
