# generated using pymatgen
data_Na4TeH10(SeO8)2
_symmetry_space_group_name_H-M   'P 1'
_cell_length_a   5.29244867
_cell_length_b   11.38758852
_cell_length_c   13.63112200
_cell_angle_alpha   90.00000000
_cell_angle_beta   90.00000000
_cell_angle_gamma   103.06709417
_symmetry_Int_Tables_number   1
_chemical_formula_structural   Na4TeH10(SeO8)2
_chemical_formula_sum   'Na8 Te2 H20 Se4 O32'
_cell_volume   800.25101388
_cell_formula_units_Z   2
loop_
 _symmetry_equiv_pos_site_id
 _symmetry_equiv_pos_as_xyz
  1  'x, y, z'
loop_
 _atom_site_type_symbol
 _atom_site_label
 _atom_site_symmetry_multiplicity
 _atom_site_fract_x
 _atom_site_fract_y
 _atom_site_fract_z
 _atom_site_occupancy
  Na  Na0  1  0.12855500  0.22473500  0.66699100  1
  Na  Na1  1  0.87144500  0.77526500  0.33300900  1
  Na  Na2  1  0.72192000  0.13886500  0.95396700  1
  Na  Na3  1  0.72192000  0.63886500  0.54603300  1
  Na  Na4  1  0.87144500  0.27526500  0.16699100  1
  Na  Na5  1  0.12855500  0.72473500  0.83300900  1
  Na  Na6  1  0.27808000  0.36113500  0.45396700  1
  Na  Na7  1  0.27808000  0.86113500  0.04603300  1
  Te  Te0  1  0.00000000  0.50000000  0.00000000  1
  Te  Te1  1  0.00000000  0.00000000  0.50000000  1
  H  H0  1  0.11413600  0.06475400  0.09029200  1
  H  H1  1  0.11413600  0.56475400  0.40970800  1
  H  H2  1  0.88586400  0.43524600  0.59029200  1
  H  H3  1  0.06554900  0.82120100  0.64953400  1
  H  H4  1  0.88586400  0.93524600  0.90970800  1
  H  H5  1  0.30744100  0.73821900  0.50392700  1
  H  H6  1  0.30744100  0.23821900  0.99607300  1
  H  H7  1  0.19902700  0.10815700  0.94342900  1
  H  H8  1  0.93445100  0.67879900  0.14953400  1
  H  H9  1  0.06554900  0.32120100  0.85046600  1
  H  H10  1  0.80604600  0.79949600  0.70558500  1
  H  H11  1  0.19902700  0.60815700  0.55657100  1
  H  H12  1  0.93445100  0.17879900  0.35046600  1
  H  H13  1  0.69255900  0.26178100  0.49607300  1
  H  H14  1  0.69255900  0.76178100  0.00392700  1
  H  H15  1  0.80097300  0.39184300  0.44342900  1
  H  H16  1  0.19395400  0.20050400  0.29441500  1
  H  H17  1  0.80097300  0.89184300  0.05657100  1
  H  H18  1  0.80604600  0.29949600  0.79441500  1
  H  H19  1  0.19395400  0.70050400  0.20558500  1
  Se  Se0  1  0.50233000  0.00235100  0.68671900  1
  Se  Se1  1  0.49767000  0.99764900  0.31328100  1
  Se  Se2  1  0.50233000  0.50235100  0.81328100  1
  Se  Se3  1  0.49767000  0.49764900  0.18671900  1
  O  O0  1  0.26295600  0.43846100  0.90637300  1
  O  O1  1  0.19503500  0.45154700  0.11757400  1
  O  O2  1  0.80530700  0.84422000  0.49510400  1
  O  O3  1  0.73704400  0.56153900  0.09362700  1
  O  O4  1  0.30316700  0.15227500  0.99938300  1
  O  O5  1  0.80496500  0.54845300  0.88242600  1
  O  O6  1  0.24165600  0.43049700  0.62049500  1
  O  O7  1  0.30316700  0.65227500  0.50061700  1
  O  O8  1  0.46431700  0.13822700  0.71398600  1
  O  O9  1  0.53568300  0.86177300  0.28601400  1
  O  O10  1  0.75834400  0.56950300  0.37950500  1
  O  O11  1  0.02128000  0.99344400  0.87251500  1
  O  O12  1  0.75834400  0.06950300  0.12049500  1
  O  O13  1  0.97872000  0.00655600  0.12748500  1
  O  O14  1  0.69683300  0.84772500  0.00061700  1
  O  O15  1  0.46431700  0.63822700  0.78601400  1
  O  O16  1  0.73704400  0.06153900  0.40637300  1
  O  O17  1  0.69683300  0.34772500  0.49938300  1
  O  O18  1  0.93894100  0.25762800  0.81420700  1
  O  O19  1  0.19503500  0.95154700  0.38242600  1
  O  O20  1  0.26295600  0.93846100  0.59362700  1
  O  O21  1  0.19469300  0.15578000  0.50489600  1
  O  O22  1  0.06105900  0.74237200  0.18579300  1
  O  O23  1  0.06105900  0.24237200  0.31420700  1
  O  O24  1  0.24165600  0.93049700  0.87950500  1
  O  O25  1  0.97872000  0.50655600  0.37251500  1
  O  O26  1  0.93894100  0.75762800  0.68579300  1
  O  O27  1  0.80530700  0.34422000  0.00489600  1
  O  O28  1  0.53568300  0.36177300  0.21398600  1
  O  O29  1  0.02128000  0.49344400  0.62748500  1
  O  O30  1  0.80496500  0.04845300  0.61757400  1
  O  O31  1  0.19469300  0.65578000  0.99510400  1
loop_
_geom_bond_atom_site_label_1
_geom_bond_atom_site_label_2
_geom_bond_distance
_geom_bond_site_symmetry_2
Na0 O8 2.308708 1_555
Na0 O18 2.311765 1_455
Na0 O6 2.369821 1_555
Na0 O21 2.396966 1_555
Na0 O30 2.421136 1_455
Na1 O9 2.308708 1_555
Na1 O22 2.311765 1_655
Na1 O10 2.369821 1_555
Na1 O2 2.396966 1_555
Na1 O19 2.421136 1_655
Na2 O4 2.339075 1_555
Na2 O27 2.382984 1_556
Na2 O12 2.425414 1_556
Na2 O18 2.464796 1_555
Na3 O7 2.339075 1_555
Na3 O2 2.382984 1_555
Na3 O10 2.425414 1_555
Na3 O26 2.464796 1_555
Na4 O28 2.308708 1_555
Na4 O23 2.311765 1_655
Na4 O12 2.369821 1_555
Na4 O27 2.396966 1_555
Na4 O1 2.421136 1_655
Na5 O15 2.308708 1_555
Na5 O26 2.311765 1_455
Na5 O24 2.369821 1_555
Na5 O31 2.396966 1_555
Na5 O5 2.421136 1_455
Na6 O17 2.339075 1_555
Na6 O21 2.382984 1_555
Na6 O6 2.425414 1_555
Na6 O23 2.464796 1_555
Na7 O14 2.339075 1_555
Na7 O31 2.382984 1_554
Na7 O24 2.425414 1_554
Na7 O22 2.464796 1_555
H0 O13 0.997551 1_455
H1 O25 0.997551 1_455
H2 O29 0.997551 1_655
H3 O26 0.999008 1_455
H3 O20 1.680628 1_555
H4 O11 0.997551 1_655
H5 O7 0.974875 1_555
H6 O4 0.974875 1_555
H7 O4 1.006331 1_555
H8 O22 0.999008 1_655
H8 O3 1.680628 1_555
H9 O18 0.999008 1_455
H9 O0 1.680628 1_555
H10 O26 0.972841 1_555
H11 O7 1.006331 1_555
H12 O23 0.999008 1_655
H12 O16 1.680628 1_555
H13 O17 0.974875 1_555
H14 O14 0.974875 1_555
H15 O17 1.006331 1_555
H16 O23 0.972841 1_555
H17 O14 1.006331 1_555
H18 O18 0.972841 1_555
H19 O22 0.972841 1_555
O0 Se2 1.824212 1_555
O0 Te0 2.120769 1_556
O1 Se3 1.830060 1_555
O1 Te0 2.048409 1_555
O2 Te1 1.840263 1_665
O3 Se3 1.824212 1_555
O3 Te0 2.120769 1_655
O5 Se2 1.830060 1_555
O5 Te0 2.048409 1_656
O8 Se0 1.647276 1_555
O9 Se1 1.647276 1_555
O10 O25 1.503751 1_555
O11 O24 1.503751 1_555
O12 O13 1.503751 1_555
O15 Se2 1.647276 1_555
O16 Se1 1.824212 1_545
O16 Te1 2.120769 1_655
O19 Se1 1.830060 1_555
O19 Te1 2.048409 1_565
O20 Se0 1.824212 1_565
O20 Te1 2.120769 1_565
O21 Te1 1.840263 1_555
O27 Te0 1.840263 1_655
O28 Se3 1.647276 1_555
O29 O6 1.503751 1_555
O30 Se0 1.830060 1_555
O30 Te1 2.048409 1_655
O31 Te0 1.840263 1_556
