# generated using pymatgen
data_HfSiW
_symmetry_space_group_name_H-M   'P 1'
_cell_length_a   5.23266527
_cell_length_b   5.31042684
_cell_length_c   8.54371300
_cell_angle_alpha   90.00000000
_cell_angle_beta   90.00000000
_cell_angle_gamma   120.49613503
_symmetry_Int_Tables_number   1
_chemical_formula_structural   HfSiW
_chemical_formula_sum   'Hf4 Si4 W4'
_cell_volume   204.56751975
_cell_formula_units_Z   4
loop_
 _symmetry_equiv_pos_site_id
 _symmetry_equiv_pos_as_xyz
  1  'x, y, z'
loop_
 _atom_site_type_symbol
 _atom_site_label
 _atom_site_symmetry_multiplicity
 _atom_site_fract_x
 _atom_site_fract_y
 _atom_site_fract_z
 _atom_site_occupancy
  Hf  Hf0  1  0.66701400  0.33350200  0.56458400  1
  Hf  Hf1  1  0.33494100  0.66745400  0.43802000  1
  Hf  Hf2  1  0.33494100  0.66745400  0.06198000  1
  Hf  Hf3  1  0.66701400  0.33350200  0.93541600  1
  Si  Si0  1  0.98593800  0.99297900  0.49711100  1
  Si  Si1  1  0.98593800  0.99297900  0.00288900  1
  Si  Si2  1  0.17791600  0.35706200  0.75000000  1
  Si  Si3  1  0.17787500  0.82083100  0.75000000  1
  W  W0  1  0.68600600  0.84301700  0.75000000  1
  W  W1  1  0.82458900  0.65764700  0.25000000  1
  W  W2  1  0.82462100  0.16698200  0.25000000  1
  W  W3  1  0.33320600  0.16659000  0.25000000  1
loop_
_geom_bond_atom_site_label_1
_geom_bond_atom_site_label_2
_geom_bond_distance
_geom_bond_site_symmetry_2
Hf0 Si3 3.054705 1_655
Hf0 Si2 3.054936 1_655
Hf0 Si3 3.065953 1_545
Hf0 Si2 3.065957 1_555
Hf0 W2 3.070198 1_555
Hf0 W1 3.070206 1_555
Hf0 Si0 3.074117 1_555
Hf0 Si0 3.074123 1_545
Hf0 W3 3.080431 1_555
Hf0 W0 3.092973 1_545
Hf0 W0 3.093138 1_555
Hf0 Si0 3.124473 1_445
Hf1 Si0 2.978314 1_555
Hf1 Si2 3.020292 1_555
Hf1 Si3 3.020435 1_555
Hf1 W1 3.046853 1_555
Hf1 W2 3.046979 1_565
Hf1 W2 3.093779 1_455
Hf1 W1 3.094126 1_455
Hf1 W0 3.100037 1_555
Hf1 W3 3.103321 1_555
Hf1 W3 3.103354 1_565
Hf1 Si0 3.127295 1_445
Hf1 Si0 3.127688 1_455
Hf2 Si1 2.978314 1_555
Hf2 Si2 3.020292 1_554
Hf2 Si3 3.020435 1_554
Hf2 W1 3.046853 1_555
Hf2 W2 3.046979 1_565
Hf2 W2 3.093779 1_455
Hf2 W1 3.094126 1_455
Hf2 W0 3.100037 1_554
Hf2 W3 3.103321 1_555
Hf2 W3 3.103354 1_565
Hf2 Si1 3.127295 1_445
Hf2 Si1 3.127688 1_455
Hf3 Si3 3.054705 1_655
Hf3 Si2 3.054936 1_655
Hf3 Si3 3.065953 1_545
Hf3 Si2 3.065957 1_555
Hf3 W2 3.070198 1_556
Hf3 W1 3.070206 1_556
Hf3 Si1 3.074117 1_556
Hf3 Si1 3.074123 1_546
Hf3 W3 3.080431 1_556
Hf3 W0 3.092973 1_545
Hf3 W0 3.093138 1_555
Hf3 Si1 3.124473 1_446
Si0 W0 2.548930 1_555
Si0 W1 2.610615 1_555
Si0 W2 2.610629 1_565
Si0 W3 2.628491 1_665
Si0 Si2 2.728415 1_665
Si0 Si3 2.728471 1_655
Si1 W0 2.548930 1_554
Si1 W1 2.610615 1_555
Si1 W2 2.610629 1_565
Si1 W3 2.628491 1_665
Si1 Si2 2.728415 1_664
Si1 Si3 2.728471 1_654
Si2 Si3 2.462920 1_555
Si2 W0 2.600860 1_555
Si2 W0 2.635461 1_445
Si2 Si3 2.847507 1_545
Si3 W0 2.601071 1_555
Si3 W0 2.635532 1_455
W1 W3 2.570235 1_555
W1 W2 2.605726 1_555
W1 W3 2.662167 1_665
W1 W2 2.704701 1_565
W2 W3 2.570354 1_555
W2 W3 2.662312 1_655
