# generated using pymatgen
data_KAg2SbS3
_symmetry_space_group_name_H-M   'P 1'
_cell_length_a   6.86008100
_cell_length_b   9.56564520
_cell_length_c   11.07857237
_cell_angle_alpha   90.83217212
_cell_angle_beta   92.65460325
_cell_angle_gamma   90.55154428
_symmetry_Int_Tables_number   1
_chemical_formula_structural   KAg2SbS3
_chemical_formula_sum   'K4 Ag8 Sb4 S12'
_cell_volume   726.09277701
_cell_formula_units_Z   4
loop_
 _symmetry_equiv_pos_site_id
 _symmetry_equiv_pos_as_xyz
  1  'x, y, z'
loop_
 _atom_site_type_symbol
 _atom_site_label
 _atom_site_symmetry_multiplicity
 _atom_site_fract_x
 _atom_site_fract_y
 _atom_site_fract_z
 _atom_site_occupancy
  K  K0  1  0.29949100  0.57206200  0.63404300  1
  K  K1  1  0.70050900  0.42793800  0.36595700  1
  K  K2  1  0.19953400  0.42320300  0.12803100  1
  K  K3  1  0.80046600  0.57679700  0.87196900  1
  Ag  Ag0  1  0.51706900  0.73544700  0.14162700  1
  Ag  Ag1  1  0.48293100  0.26455300  0.85837300  1
  Ag  Ag2  1  0.08350400  0.83864400  0.04702000  1
  Ag  Ag3  1  0.91649600  0.16135600  0.95298000  1
  Ag  Ag4  1  0.02439200  0.10282200  0.34414700  1
  Ag  Ag5  1  0.97560800  0.89717800  0.65585300  1
  Ag  Ag6  1  0.40809900  0.15875600  0.54381400  1
  Ag  Ag7  1  0.59190100  0.84124400  0.45618600  1
  Sb  Sb0  1  0.53590900  0.05601700  0.14821600  1
  Sb  Sb1  1  0.46409100  0.94398300  0.85178400  1
  Sb  Sb2  1  0.04929300  0.79194300  0.34563600  1
  Sb  Sb3  1  0.95070700  0.20805700  0.65436400  1
  S  S0  1  0.64034900  0.08676800  0.36300000  1
  S  S1  1  0.35965100  0.91323200  0.63700000  1
  S  S2  1  0.35786400  0.66052600  0.33677500  1
  S  S3  1  0.64213600  0.33947400  0.66322500  1
  S  S4  1  0.64403900  0.28802300  0.07360700  1
  S  S5  1  0.35596100  0.71197700  0.92639300  1
  S  S6  1  0.17507500  0.08450600  0.14011600  1
  S  S7  1  0.82492500  0.91549400  0.85988400  1
  S  S8  1  0.88607900  0.68833300  0.51862100  1
  S  S9  1  0.11392100  0.31166700  0.48137900  1
  S  S10  1  0.87895700  0.66730400  0.17147100  1
  S  S11  1  0.12104300  0.33269600  0.82852900  1
loop_
_geom_bond_atom_site_label_1
_geom_bond_atom_site_label_2
_geom_bond_distance
_geom_bond_site_symmetry_2
K0 S9 3.209758 1_555
K0 S3 3.260502 1_555
K0 S8 3.268233 1_455
K0 S1 3.285059 1_555
K0 S11 3.423061 1_555
K0 S2 3.452373 1_555
K0 S5 3.489866 1_555
K1 S8 3.209758 1_555
K1 S2 3.260502 1_555
K1 S9 3.268233 1_655
K1 S0 3.285059 1_555
K1 S10 3.423061 1_555
K1 S3 3.452373 1_555
K1 S4 3.489866 1_555
K2 S6 3.247608 1_555
K2 S10 3.268703 1_455
K2 S2 3.353911 1_555
K2 S4 3.399655 1_555
K2 S11 3.433809 1_554
K3 S7 3.247608 1_555
K3 S11 3.268703 1_655
K3 S3 3.353911 1_555
K3 S5 3.399655 1_555
K3 S10 3.433809 1_556
Ag0 S2 2.574715 1_555
Ag0 S10 2.580463 1_555
Ag0 S5 2.587128 1_554
Ag1 S3 2.574715 1_555
Ag1 S11 2.580463 1_555
Ag1 S4 2.587128 1_556
Ag2 S10 2.599372 1_455
Ag2 S6 2.613527 1_565
Ag2 S5 2.641095 1_554
Ag2 S7 2.777391 1_454
Ag3 S11 2.599372 1_655
Ag3 S7 2.613527 1_545
Ag3 S4 2.641095 1_556
Ag3 S6 2.777391 1_656
Ag4 S6 2.533165 1_555
Ag4 S9 2.545829 1_555
Ag4 S0 2.655609 1_455
Ag5 S7 2.533165 1_555
Ag5 S8 2.545829 1_555
Ag5 S1 2.655609 1_655
Ag6 S9 2.578272 1_555
Ag6 S1 2.603714 1_545
Ag6 S3 2.645655 1_555
Ag6 S0 2.702218 1_555
Ag7 S8 2.578272 1_555
Ag7 S0 2.603714 1_565
Ag7 S2 2.645655 1_555
Ag7 S1 2.702218 1_555
S0 Sb0 2.465677 1_555
S1 Sb1 2.465677 1_555
S2 Sb2 2.477446 1_555
S3 Sb3 2.477446 1_555
S4 Sb0 2.497411 1_555
S5 Sb1 2.497411 1_555
S6 Sb0 2.490542 1_555
S7 Sb1 2.490542 1_555
S8 Sb2 2.478139 1_655
S9 Sb3 2.478139 1_455
S10 Sb2 2.491461 1_655
S11 Sb3 2.491461 1_455
