# generated using pymatgen
data_Sr2Cd2Cu(SO)2
_symmetry_space_group_name_H-M   'P 1'
_cell_length_a   10.85773349
_cell_length_b   10.85773349
_cell_length_c   10.85773349
_cell_angle_alpha   158.43816629
_cell_angle_beta   158.43816629
_cell_angle_gamma   30.67858931
_symmetry_Int_Tables_number   1
_chemical_formula_structural   Sr2Cd2Cu(SO)2
_chemical_formula_sum   'Sr2 Cd2 Cu1 S2 O2'
_cell_volume   172.76615443
_cell_formula_units_Z   1
loop_
 _symmetry_equiv_pos_site_id
 _symmetry_equiv_pos_as_xyz
  1  'x, y, z'
loop_
 _atom_site_type_symbol
 _atom_site_label
 _atom_site_symmetry_multiplicity
 _atom_site_fract_x
 _atom_site_fract_y
 _atom_site_fract_z
 _atom_site_occupancy
  Sr  Sr0  1  0.57848300  0.57848300  0.00000000  1
  Sr  Sr1  1  0.42151700  0.42151700  0.00000000  1
  Cd  Cd0  1  0.25000000  0.75000000  0.50000000  1
  Cd  Cd1  1  0.75000000  0.25000000  0.50000000  1
  Cu  Cu0  1  0.00000000  0.00000000  0.00000000  1
  S  S0  1  0.85544400  0.85544400  0.00000000  1
  S  S1  1  0.14455600  0.14455600  0.00000000  1
  O  O0  1  0.00000000  0.50000000  0.50000000  1
  O  O1  1  0.50000000  0.00000000  0.50000000  1
loop_
_geom_bond_atom_site_label_1
_geom_bond_atom_site_label_2
_geom_bond_distance
_geom_bond_site_symmetry_2
Cd0 Cd1 2.872245 1_555
Cd0 Cd1 2.872245 1_566
Cd0 Cd1 2.872245 1_454
Cd0 Cd1 2.872245 1_465
Cd0 S0 3.000171 1_455
Cd0 S0 3.000171 1_556
Cd0 S1 3.000171 1_555
Cd0 S1 3.000171 1_566
Cd1 S0 3.000171 1_556
Cd1 S0 3.000171 1_545
Cd1 S1 3.000171 1_555
Cd1 S1 3.000171 1_656
Cu0 O0 2.030984 1_544
Cu0 O1 2.030984 1_555
Cu0 O0 2.030984 1_555
Cu0 O1 2.030984 1_454
Cu0 S1 3.027274 1_555
Cu0 S0 3.027274 1_445
S0 Sr1 3.188165 1_666
S0 Sr1 3.188165 1_554
S0 Sr1 3.188165 1_655
S0 Sr1 3.188165 1_565
S1 Sr0 3.188165 1_556
S1 Sr0 3.188165 1_444
S1 Sr0 3.188165 1_545
S1 Sr0 3.188165 1_455
O0 Sr0 2.612711 1_455
O0 Sr0 2.612711 1_556
O0 Sr1 2.612711 1_556
O0 Sr1 2.612711 1_455
O1 Sr0 2.612711 1_556
O1 Sr0 2.612711 1_545
O1 Sr1 2.612711 1_556
O1 Sr1 2.612711 1_545
