# generated using pymatgen
data_Sr2LiCoWO6
_symmetry_space_group_name_H-M   'P 1'
_cell_length_a   6.08433401
_cell_length_b   6.56678750
_cell_length_c   6.15565623
_cell_angle_alpha   130.76069350
_cell_angle_beta   126.41114823
_cell_angle_gamma   73.82025747
_symmetry_Int_Tables_number   1
_chemical_formula_structural   Sr2LiCoWO6
_chemical_formula_sum   'Sr2 Li1 Co1 W1 O6'
_cell_volume   147.51086203
_cell_formula_units_Z   1
loop_
 _symmetry_equiv_pos_site_id
 _symmetry_equiv_pos_as_xyz
  1  'x, y, z'
loop_
 _atom_site_type_symbol
 _atom_site_label
 _atom_site_symmetry_multiplicity
 _atom_site_fract_x
 _atom_site_fract_y
 _atom_site_fract_z
 _atom_site_occupancy
  Sr  Sr0  1  0.21495200  0.69084800  0.47181900  1
  Sr  Sr1  1  0.78500700  0.30919400  0.52816300  1
  Li  Li0  1  0.50010800  0.99995500  0.49988800  1
  Co  Co0  1  0.00000300  0.00000600  0.00001100  1
  W  W0  1  0.50004900  0.50003000  0.99996000  1
  O  O0  1  0.66853600  0.79855000  0.12408600  1
  O  O1  1  0.18209000  0.71003100  0.04050000  1
  O  O2  1  0.81786400  0.28994200  0.95948400  1
  O  O3  1  0.33138100  0.20144000  0.87605400  1
  O  O4  1  0.31615000  0.29499400  0.47720200  1
  O  O5  1  0.68385900  0.70501100  0.52283200  1
loop_
_geom_bond_atom_site_label_1
_geom_bond_atom_site_label_2
_geom_bond_distance
_geom_bond_site_symmetry_2
Li0 O2 1.972700 1_565
Li0 O1 1.972926 1_555
Li0 O5 1.996040 1_555
Li0 O4 1.996300 1_565
Li0 O0 2.492901 1_555
Li0 O3 2.496133 1_565
Co0 O5 2.004878 1_444
Co0 O4 2.004891 1_555
Co0 O2 2.007859 1_454
Co0 O1 2.007918 1_545
O0 W0 1.926591 1_554
O0 Sr1 2.504792 1_565
O0 Sr0 2.890182 1_655
O0 Sr0 2.909095 1_554
O1 W0 2.084111 1_554
O1 Sr1 2.523979 1_454
O1 Sr0 2.626335 1_555
O2 W0 2.083489 1_555
O2 Sr0 2.524218 1_656
O2 Sr1 2.626674 1_555
O3 W0 1.928438 1_555
O3 Sr0 2.504466 1_545
O3 Sr1 2.890369 1_455
O3 Sr1 2.908371 1_556
O4 W0 2.080234 1_555
O4 Sr0 2.516707 1_555
O4 Sr1 2.700480 1_555
O5 W0 2.080985 1_554
O5 Sr1 2.516312 1_555
O5 Sr0 2.700551 1_555
