# generated using pymatgen
data_RbNO3
_symmetry_space_group_name_H-M   'P 1'
_cell_length_a   4.89023250
_cell_length_b   5.31012834
_cell_length_c   5.77135798
_cell_angle_alpha   90.00000000
_cell_angle_beta   90.00000000
_cell_angle_gamma   90.00000000
_symmetry_Int_Tables_number   1
_chemical_formula_structural   RbNO3
_chemical_formula_sum   'Rb2 N2 O6'
_cell_volume   149.86925152
_cell_formula_units_Z   2
loop_
 _symmetry_equiv_pos_site_id
 _symmetry_equiv_pos_as_xyz
  1  'x, y, z'
loop_
 _atom_site_type_symbol
 _atom_site_label
 _atom_site_symmetry_multiplicity
 _atom_site_fract_x
 _atom_site_fract_y
 _atom_site_fract_z
 _atom_site_occupancy
  Rb  Rb0  1  0.59879445  0.75000000  0.25000000  1
  Rb  Rb1  1  0.40120555  0.25000000  0.75000000  1
  N  N0  1  0.00971686  0.25000000  0.25000000  1
  N  N1  1  0.99028314  0.75000000  0.75000000  1
  O  O0  1  0.88112721  0.25000000  0.43924206  1
  O  O1  1  0.88112721  0.25000000  0.06075794  1
  O  O2  1  0.73171328  0.75000000  0.75000000  1
  O  O3  1  0.26828672  0.25000000  0.25000000  1
  O  O4  1  0.11887279  0.75000000  0.56075794  1
  O  O5  1  0.11887279  0.75000000  0.93924206  1
loop_
_geom_bond_atom_site_label_1
_geom_bond_atom_site_label_2
_geom_bond_distance
_geom_bond_site_symmetry_2
N0 O0 1.260276 1_455
N0 O1 1.260276 1_455
N0 O3 1.264467 1_555
N1 O5 1.260276 1_655
N1 O4 1.260276 1_655
N1 O2 1.264467 1_555
O0 Rb1 2.953760 1_555
O0 Rb1 3.112077 1_655
O0 Rb0 3.185669 1_545
O0 Rb0 3.185669 1_555
O1 Rb1 2.953760 1_554
O1 Rb1 3.112077 1_654
O1 Rb0 3.185669 1_545
O1 Rb0 3.185669 1_555
O2 Rb0 2.957980 1_555
O2 Rb0 2.957980 1_556
O2 Rb1 3.108321 1_555
O2 Rb1 3.108321 1_565
O3 Rb1 2.957980 1_555
O3 Rb1 2.957980 1_554
O3 Rb0 3.108321 1_555
O3 Rb0 3.108321 1_545
O4 Rb0 2.953760 1_555
O4 Rb0 3.112077 1_455
O4 Rb1 3.185669 1_555
O4 Rb1 3.185669 1_565
O5 Rb0 2.953760 1_556
O5 Rb0 3.112077 1_456
O5 Rb1 3.185669 1_555
O5 Rb1 3.185669 1_565
