# generated using pymatgen
data_TaCr3(CuS4)2
_symmetry_space_group_name_H-M   'P 1'
_cell_length_a   6.97413596
_cell_length_b   7.14022950
_cell_length_c   7.14017600
_cell_angle_alpha   60.00120917
_cell_angle_beta   59.20835793
_cell_angle_gamma   59.20414344
_symmetry_Int_Tables_number   1
_chemical_formula_structural   TaCr3(CuS4)2
_chemical_formula_sum   'Ta1 Cr3 Cu2 S8'
_cell_volume   248.36155194
_cell_formula_units_Z   1
loop_
 _symmetry_equiv_pos_site_id
 _symmetry_equiv_pos_as_xyz
  1  'x, y, z'
loop_
 _atom_site_type_symbol
 _atom_site_label
 _atom_site_symmetry_multiplicity
 _atom_site_fract_x
 _atom_site_fract_y
 _atom_site_fract_z
 _atom_site_occupancy
  Ta  Ta0  1  0.00004400  0.49996500  0.50002400  1
  Cr  Cr0  1  0.49999500  0.49999600  0.49999800  1
  Cr  Cr1  1  0.49996500  0.50004600  0.99999200  1
  Cr  Cr2  1  0.49995700  0.00006400  0.49995300  1
  Cu  Cu0  1  0.87745400  0.87411600  0.87419500  1
  Cu  Cu1  1  0.12255000  0.12585200  0.12583100  1
  S  S0  1  0.73891900  0.74671800  0.74666700  1
  S  S1  1  0.26101900  0.25331500  0.73236100  1
  S  S2  1  0.26104800  0.73235100  0.25332100  1
  S  S3  1  0.72128800  0.25953800  0.25955600  1
  S  S4  1  0.73897300  0.26765900  0.74666500  1
  S  S5  1  0.27872900  0.74043500  0.74045800  1
  S  S6  1  0.26106600  0.25330700  0.25328800  1
  S  S7  1  0.73899800  0.74663300  0.26769200  1
loop_
_geom_bond_atom_site_label_1
_geom_bond_atom_site_label_2
_geom_bond_distance
_geom_bond_site_symmetry_2
Cr0 S3 2.408026 1_555
Cr0 S5 2.408037 1_555
Cr0 S2 2.425668 1_555
Cr0 S4 2.425772 1_555
Cr0 S7 2.425904 1_555
Cr0 S1 2.425989 1_555
Cr1 S5 2.407441 1_555
Cr1 S3 2.408007 1_556
Cr1 S2 2.425672 1_556
Cr1 S0 2.425847 1_555
Cr1 S6 2.425918 1_556
Cr1 S4 2.426046 1_555
Cr2 S3 2.407723 1_555
Cr2 S5 2.408062 1_545
Cr2 S6 2.425332 1_555
Cr2 S1 2.425769 1_555
Cr2 S0 2.425937 1_545
Cr2 S7 2.425942 1_545
Cu0 S5 2.257197 1_655
Cu0 S0 2.284515 1_555
Cu0 S7 2.284726 1_556
Cu0 S4 2.284910 1_565
Cu1 S3 2.257124 1_455
Cu1 S6 2.284323 1_555
Cu1 S1 2.284568 1_554
Cu1 S2 2.284666 1_545
S0 Ta0 2.460833 1_655
S1 Ta0 2.460479 1_555
S2 Ta0 2.461036 1_555
S4 Ta0 2.460975 1_655
S6 Ta0 2.460818 1_555
S7 Ta0 2.460810 1_655
