# generated using pymatgen
data_SrMnO3
_symmetry_space_group_name_H-M   'P 1'
_cell_length_a   3.90309100
_cell_length_b   8.62571370
_cell_length_c   7.68546800
_cell_angle_alpha   63.54394851
_cell_angle_beta   89.99659718
_cell_angle_gamma   89.99864260
_symmetry_Int_Tables_number   1
_chemical_formula_structural   SrMnO3
_chemical_formula_sum   'Sr4 Mn4 O12'
_cell_volume   231.64938296
_cell_formula_units_Z   4
loop_
 _symmetry_equiv_pos_site_id
 _symmetry_equiv_pos_as_xyz
  1  'x, y, z'
loop_
 _atom_site_type_symbol
 _atom_site_label
 _atom_site_symmetry_multiplicity
 _atom_site_fract_x
 _atom_site_fract_y
 _atom_site_fract_z
 _atom_site_occupancy
  Sr  Sr0  1  0.50000000  0.75008900  0.37495200  1
  Sr  Sr1  1  0.50000000  0.24991100  0.12504600  1
  Sr  Sr2  1  0.50000000  0.75008900  0.87495900  1
  Sr  Sr3  1  0.50000000  0.24991100  0.62504300  1
  Mn  Mn0  1  0.00000100  0.99953700  0.50023100  1
  Mn  Mn1  1  0.00000100  0.50046400  0.24976900  1
  Mn  Mn2  1  0.99999900  0.50046600  0.74976700  1
  Mn  Mn3  1  0.00000000  0.99953200  0.00023400  1
  O  O0  1  0.50000000  0.50011200  0.74994400  1
  O  O1  1  0.49999900  0.99989600  0.50005200  1
  O  O2  1  0.50000100  0.50010400  0.24994700  1
  O  O3  1  0.49999900  0.99988800  0.00005700  1
  O  O4  1  0.00000000  0.49982700  0.50009300  1
  O  O5  1  0.00000000  0.00017300  0.24991700  1
  O  O6  1  0.00000000  0.49982700  0.00008000  1
  O  O7  1  0.00000000  0.00017300  0.74990900  1
  O  O8  1  0.00000000  0.74999800  0.62500100  1
  O  O9  1  0.00000000  0.24999600  0.37500200  1
  O  O10  1  0.00000000  0.75000600  0.12499700  1
  O  O11  1  0.00000000  0.24999900  0.87500000  1
loop_
_geom_bond_atom_site_label_1
_geom_bond_atom_site_label_2
_geom_bond_distance
_geom_bond_site_symmetry_2
Mn0 O5 1.921342 1_565
Mn0 O7 1.921343 1_565
Mn0 O8 1.927039 1_555
Mn0 O9 1.934144 1_565
Mn0 O1 1.951540 1_555
Mn0 O1 1.951555 1_455
Mn1 O4 1.921415 1_555
Mn1 O6 1.921431 1_555
Mn1 O10 1.927063 1_555
Mn1 O9 1.934213 1_555
Mn1 O2 1.951547 1_455
Mn1 O2 1.951547 1_555
Mn2 O6 1.921323 1_656
Mn2 O4 1.921323 1_655
Mn2 O8 1.926985 1_655
Mn2 O11 1.934206 1_655
Mn2 O0 1.951544 1_555
Mn2 O0 1.951551 1_655
Mn3 O5 1.921400 1_565
Mn3 O7 1.921408 1_564
Mn3 O10 1.926939 1_555
Mn3 O11 1.934206 1_564
Mn3 O3 1.951544 1_555
Mn3 O3 1.951551 1_455
O0 Sr0 2.723632 1_555
O0 Sr2 2.723673 1_555
O0 Sr1 2.724847 1_556
O0 Sr3 2.724889 1_555
O1 Sr2 2.722701 1_555
O1 Sr0 2.722743 1_555
O1 Sr1 2.723812 1_565
O1 Sr3 2.723854 1_565
O2 Sr2 2.723632 1_554
O2 Sr0 2.723685 1_555
O2 Sr3 2.724792 1_555
O2 Sr1 2.724823 1_555
O3 Sr0 2.722614 1_555
O3 Sr2 2.722667 1_554
O3 Sr3 2.723878 1_564
O3 Sr1 2.723909 1_565
O4 Sr3 2.744671 1_455
O4 Sr3 2.744679 1_555
O4 Sr0 2.746550 1_555
O4 Sr0 2.746558 1_455
O5 Sr1 2.743704 1_555
O5 Sr1 2.743713 1_455
O5 Sr0 2.745583 1_445
O5 Sr0 2.745591 1_545
O6 Sr1 2.744671 1_455
O6 Sr1 2.744679 1_555
O6 Sr2 2.746550 1_554
O6 Sr2 2.746558 1_454
O7 Sr3 2.743704 1_555
O7 Sr3 2.743713 1_455
O7 Sr2 2.745583 1_445
O7 Sr2 2.745591 1_545
O8 Sr0 2.738583 1_555
O8 Sr2 2.738583 1_455
O8 Sr0 2.738746 1_455
O8 Sr2 2.738746 1_555
O9 Sr3 2.738556 1_455
O9 Sr1 2.738557 1_555
O9 Sr3 2.738719 1_555
O9 Sr1 2.738719 1_455
O10 Sr2 2.738546 1_554
O10 Sr0 2.738546 1_455
O10 Sr2 2.738708 1_454
O10 Sr0 2.738708 1_555
O11 Sr3 2.738570 1_555
O11 Sr1 2.738575 1_456
O11 Sr3 2.738733 1_455
O11 Sr1 2.738738 1_556
