# generated using pymatgen
data_NaCaAlFe(SiO3)4
_symmetry_space_group_name_H-M   'P 1'
_cell_length_a   6.60606048
_cell_length_b   6.60606048
_cell_length_c   15.97813597
_cell_angle_alpha   77.41382967
_cell_angle_beta   77.41382967
_cell_angle_gamma   85.09153803
_symmetry_Int_Tables_number   1
_chemical_formula_structural   NaCaAlFe(SiO3)4
_chemical_formula_sum   'Na3 Ca3 Al3 Fe3 Si12 O36'
_cell_volume   663.64565059
_cell_formula_units_Z   3
loop_
 _symmetry_equiv_pos_site_id
 _symmetry_equiv_pos_as_xyz
  1  'x, y, z'
loop_
 _atom_site_type_symbol
 _atom_site_label
 _atom_site_symmetry_multiplicity
 _atom_site_fract_x
 _atom_site_fract_y
 _atom_site_fract_z
 _atom_site_occupancy
  Na  Na0  1  0.29976000  0.70424700  0.66577800  1
  Na  Na1  1  0.70002600  0.29997400  0.50000000  1
  Na  Na2  1  0.29575300  0.70024000  0.33422200  1
  Ca  Ca0  1  0.69710300  0.29566800  0.16871700  1
  Ca  Ca1  1  0.30165600  0.69834400  0.00000000  1
  Ca  Ca2  1  0.70433200  0.30289700  0.83128300  1
  Al  Al0  1  0.90764200  0.10106500  0.66084800  1
  Al  Al1  1  0.10073100  0.89926900  0.50000000  1
  Al  Al2  1  0.89893500  0.09235800  0.33915200  1
  Fe  Fe0  1  0.09068400  0.90068900  0.17163900  1
  Fe  Fe1  1  0.90924900  0.09075100  0.00000000  1
  Fe  Fe2  1  0.09931100  0.90931600  0.82836100  1
  Si  Si0  1  0.80597000  0.62332200  0.65495100  1
  Si  Si1  1  0.38790200  0.19875500  0.66992900  1
  Si  Si2  1  0.61409400  0.80293900  0.49153000  1
  Si  Si3  1  0.19706100  0.38590600  0.50847000  1
  Si  Si4  1  0.80124500  0.61209800  0.33007100  1
  Si  Si5  1  0.37667800  0.19403000  0.34504900  1
  Si  Si6  1  0.61650200  0.80204900  0.16458600  1
  Si  Si7  1  0.19371200  0.36947000  0.17681800  1
  Si  Si8  1  0.80512800  0.62229900  0.99545800  1
  Si  Si9  1  0.37770100  0.19487200  0.00454200  1
  Si  Si10  1  0.63053000  0.80628800  0.82318200  1
  Si  Si11  1  0.19795100  0.38349800  0.83541400  1
  O  O0  1  0.37899000  0.32827400  0.75026000  1
  O  O1  1  0.88839200  0.38267300  0.67900200  1
  O  O2  1  0.96533700  0.81904100  0.62220200  1
  O  O3  1  0.18941600  0.04788400  0.69384200  1
  O  O4  1  0.62485400  0.10784300  0.64605600  1
  O  O5  1  0.65252700  0.64856400  0.58465700  1
  O  O6  1  0.34763300  0.36948400  0.58039800  1
  O  O7  1  0.37834200  0.89714500  0.51221800  1
  O  O8  1  0.81093700  0.96297000  0.45991200  1
  O  O9  1  0.03703000  0.18906300  0.54008800  1
  O  O10  1  0.10285500  0.62165800  0.48778200  1
  O  O11  1  0.63051600  0.65236700  0.41960200  1
  O  O12  1  0.35143600  0.34747300  0.41534300  1
  O  O13  1  0.89215700  0.37514600  0.35394400  1
  O  O14  1  0.95211600  0.81058400  0.30615800  1
  O  O15  1  0.18095900  0.03466300  0.37779800  1
  O  O16  1  0.61732700  0.11160800  0.32099800  1
  O  O17  1  0.67172600  0.62100900  0.24974000  1
  O  O18  1  0.34583600  0.34592600  0.24895800  1
  O  O19  1  0.38941100  0.89601900  0.19378100  1
  O  O20  1  0.79448600  0.97221400  0.13456600  1
  O  O21  1  0.01691600  0.19495600  0.21655800  1
  O  O22  1  0.11082500  0.60183000  0.14623400  1
  O  O23  1  0.62690200  0.66771000  0.08435100  1
  O  O24  1  0.35954200  0.32894000  0.08395800  1
  O  O25  1  0.88531800  0.38878900  0.02767800  1
  O  O26  1  0.97933800  0.79439500  0.96429700  1
  O  O27  1  0.20560500  0.02066200  0.03570300  1
  O  O28  1  0.61121100  0.11468200  0.97232200  1
  O  O29  1  0.67106000  0.64045800  0.91604200  1
  O  O30  1  0.33229000  0.37309800  0.91564900  1
  O  O31  1  0.39817000  0.88917500  0.85376600  1
  O  O32  1  0.80504400  0.98308400  0.78344200  1
  O  O33  1  0.02778600  0.20551400  0.86543400  1
  O  O34  1  0.10398100  0.61058900  0.80621900  1
  O  O35  1  0.65407400  0.65416400  0.75104200  1
loop_
_geom_bond_atom_site_label_1
_geom_bond_atom_site_label_2
_geom_bond_distance
_geom_bond_site_symmetry_2
Na0 O34 2.314736 1_555
Na0 O3 2.429757 1_565
Na0 O5 2.447610 1_555
Na0 O2 2.468616 1_455
Na0 O7 2.471630 1_555
Na0 O0 2.624721 1_555
Na0 O6 2.803351 1_555
Na0 O35 2.916289 1_555
Na1 O4 2.369730 1_555
Na1 O13 2.369730 1_555
Na1 O9 2.457882 1_655
Na1 O8 2.457882 1_545
Na1 O6 2.459915 1_555
Na1 O11 2.459915 1_555
Na1 O5 2.877493 1_555
Na1 O12 2.877493 1_555
Na2 O19 2.314736 1_555
Na2 O14 2.429757 1_455
Na2 O12 2.447610 1_555
Na2 O15 2.468616 1_565
Na2 O10 2.471630 1_555
Na2 O17 2.624722 1_555
Na2 O11 2.803351 1_555
Na2 O18 2.916289 1_555
Ca0 O25 2.303996 1_555
Ca0 O20 2.323201 1_545
Ca0 O21 2.394186 1_655
Ca0 O18 2.428120 1_555
Ca0 O16 2.436785 1_555
Ca0 O23 2.589627 1_555
Ca0 O17 2.716542 1_555
Ca0 O24 2.820929 1_555
Ca1 O26 2.324258 1_454
Ca1 O27 2.324258 1_565
Ca1 O22 2.379024 1_555
Ca1 O31 2.379024 1_554
Ca1 O24 2.556968 1_555
Ca1 O29 2.556968 1_554
Ca1 O30 2.746391 1_554
Ca1 O23 2.746391 1_555
Ca2 O28 2.303996 1_555
Ca2 O33 2.323201 1_655
Ca2 O32 2.394186 1_545
Ca2 O35 2.428120 1_555
Ca2 O1 2.436785 1_555
Ca2 O30 2.589627 1_555
Ca2 O0 2.716548 1_555
Ca2 O29 2.820929 1_555
Al0 O9 1.915461 1_655
Al0 O4 1.929045 1_555
Al0 O1 1.933834 1_555
Al0 O32 1.936557 1_545
Al0 O3 2.025156 1_655
Al0 O2 2.067576 1_545
Al1 O10 1.884671 1_555
Al1 O7 1.884671 1_555
Al1 O15 1.939685 1_565
Al1 O2 1.939685 1_455
Al1 O8 2.128698 1_455
Al1 O9 2.128698 1_565
Al2 O8 1.915461 1_545
Al2 O13 1.929045 1_555
Al2 O16 1.933834 1_555
Al2 O21 1.936557 1_655
Al2 O14 2.025156 1_545
Al2 O15 2.067576 1_655
Fe0 O19 2.075947 1_555
Fe0 O22 2.088310 1_555
Fe0 O14 2.119011 1_455
Fe0 O27 2.134525 1_565
Fe0 O20 2.151225 1_455
Fe0 O21 2.196597 1_565
Fe1 O28 2.095878 1_554
Fe1 O25 2.095878 1_555
Fe1 O20 2.113848 1_545
Fe1 O33 2.113848 1_654
Fe1 O27 2.142214 1_655
Fe1 O26 2.142214 1_544
Fe2 O34 2.075947 1_555
Fe2 O31 2.088310 1_555
Fe2 O3 2.119011 1_565
Fe2 O26 2.134525 1_455
Fe2 O33 2.151225 1_565
Fe2 O32 2.196597 1_455
O0 Si1 1.679307 1_555
O0 Si11 1.687343 1_555
O1 Si0 1.627340 1_555
O2 Si0 1.658868 1_555
O3 Si1 1.642538 1_555
O4 Si1 1.623316 1_555
O5 Si0 1.643908 1_555
O5 Si2 1.666615 1_555
O6 Si3 1.657533 1_555
O6 Si1 1.673497 1_555
O7 Si2 1.619094 1_555
O8 Si2 1.667320 1_555
O9 Si3 1.667320 1_555
O10 Si3 1.619094 1_555
O11 Si2 1.657533 1_555
O11 Si4 1.673497 1_555
O12 Si5 1.643908 1_555
O12 Si3 1.666615 1_555
O13 Si4 1.623316 1_555
O14 Si4 1.642538 1_555
O15 Si5 1.658868 1_555
O16 Si5 1.627340 1_555
O17 Si4 1.679308 1_555
O17 Si6 1.687347 1_555
O18 Si7 1.662130 1_555
O18 Si5 1.683931 1_555
O19 Si6 1.585984 1_555
O20 Si6 1.619125 1_555
O21 Si7 1.638440 1_555
O22 Si7 1.593949 1_555
O23 Si6 1.697894 1_555
O23 Si8 1.700008 1_554
O24 Si9 1.677560 1_555
O24 Si7 1.699349 1_555
O25 Si8 1.599416 1_554
O26 Si8 1.610065 1_555
O27 Si9 1.610065 1_555
O28 Si9 1.599416 1_556
O29 Si8 1.677560 1_555
O29 Si10 1.699349 1_555
O30 Si11 1.697894 1_555
O30 Si9 1.700008 1_556
O31 Si10 1.593949 1_555
O32 Si10 1.638440 1_555
O33 Si11 1.619125 1_555
O34 Si11 1.585984 1_555
O35 Si10 1.662130 1_555
O35 Si0 1.683931 1_555
