# generated using pymatgen
data_CaLa2ZrO6
_symmetry_space_group_name_H-M   'P 1'
_cell_length_a   5.98081946
_cell_length_b   5.98081946
_cell_length_c   5.98081946
_cell_angle_alpha   60.00000000
_cell_angle_beta   60.00000000
_cell_angle_gamma   60.00000000
_symmetry_Int_Tables_number   1
_chemical_formula_structural   CaLa2ZrO6
_chemical_formula_sum   'Ca1 La2 Zr1 O6'
_cell_volume   151.27497205
_cell_formula_units_Z   1
loop_
 _symmetry_equiv_pos_site_id
 _symmetry_equiv_pos_as_xyz
  1  'x, y, z'
loop_
 _atom_site_type_symbol
 _atom_site_label
 _atom_site_symmetry_multiplicity
 _atom_site_fract_x
 _atom_site_fract_y
 _atom_site_fract_z
 _atom_site_occupancy
  Ca  Ca0  1  0.50000000  0.50000000  0.50000000  1
  La  La0  1  0.75000000  0.75000000  0.75000000  1
  La  La1  1  0.25000000  0.25000000  0.25000000  1
  Zr  Zr0  1  0.00000000  0.00000000  0.00000000  1
  O  O0  1  0.24355700  0.75644300  0.75644300  1
  O  O1  1  0.75644300  0.24355700  0.24355700  1
  O  O2  1  0.75644300  0.75644300  0.24355700  1
  O  O3  1  0.24355700  0.24355700  0.75644300  1
  O  O4  1  0.75644300  0.24355700  0.75644300  1
  O  O5  1  0.24355700  0.75644300  0.24355700  1
loop_
_geom_bond_atom_site_label_1
_geom_bond_atom_site_label_2
_geom_bond_distance
_geom_bond_site_symmetry_2
Ca0 O4 2.169035 1_555
Ca0 O5 2.169035 1_555
Ca0 O3 2.169035 1_555
Ca0 O2 2.169035 1_555
Ca0 O0 2.169035 1_555
Ca0 O1 2.169035 1_555
La0 O2 2.990906 1_555
La0 O3 2.990906 1_565
La0 O3 2.990906 1_655
La0 O2 2.990906 1_556
La0 O5 2.990906 1_556
La0 O5 2.990906 1_655
La0 O0 2.990906 1_555
La0 O4 2.990906 1_565
La0 O1 2.990906 1_565
La0 O0 2.990906 1_655
La0 O4 2.990906 1_555
La0 O1 2.990906 1_556
La1 O3 2.990906 1_554
La1 O2 2.990906 1_545
La1 O2 2.990906 1_455
La1 O3 2.990906 1_555
La1 O0 2.990906 1_545
La1 O0 2.990906 1_554
La1 O4 2.990906 1_455
La1 O1 2.990906 1_455
La1 O4 2.990906 1_554
La1 O5 2.990906 1_545
La1 O1 2.990906 1_555
La1 O5 2.990906 1_555
O0 Zr0 2.060043 1_566
O1 Zr0 2.060043 1_655
O2 Zr0 2.060043 1_665
O3 Zr0 2.060043 1_556
O4 Zr0 2.060043 1_656
O5 Zr0 2.060043 1_565
