# generated using pymatgen
data_Li3Mn2P4HO14
_symmetry_space_group_name_H-M   'P 1'
_cell_length_a   5.13908500
_cell_length_b   5.26740821
_cell_length_c   12.60280815
_cell_angle_alpha   100.64753959
_cell_angle_beta   91.42552118
_cell_angle_gamma   117.83757509
_symmetry_Int_Tables_number   1
_chemical_formula_structural   Li3Mn2P4HO14
_chemical_formula_sum   'Li3 Mn2 P4 H1 O14'
_cell_volume   294.04434364
_cell_formula_units_Z   1
loop_
 _symmetry_equiv_pos_site_id
 _symmetry_equiv_pos_as_xyz
  1  'x, y, z'
loop_
 _atom_site_type_symbol
 _atom_site_label
 _atom_site_symmetry_multiplicity
 _atom_site_fract_x
 _atom_site_fract_y
 _atom_site_fract_z
 _atom_site_occupancy
  Li  Li0  1  0.76790600  0.18994200  0.00899300  1
  Li  Li1  1  0.50000000  0.00000000  0.50000000  1
  Li  Li2  1  0.23209400  0.81005800  0.99100700  1
  Mn  Mn0  1  0.65399300  0.07423900  0.23795500  1
  Mn  Mn1  1  0.34600700  0.92576100  0.76204500  1
  P  P0  1  0.32199300  0.40774100  0.37668800  1
  P  P1  1  0.33028900  0.43710100  0.14252800  1
  P  P2  1  0.66971100  0.56289900  0.85747200  1
  P  P3  1  0.67800700  0.59225900  0.62331200  1
  H  H0  1  0.00000000  0.50000000  0.50000000  1
  O  O0  1  0.48085200  0.22570300  0.37404400  1
  O  O1  1  0.57825400  0.35061500  0.12625600  1
  O  O2  1  0.06242900  0.25186400  0.09347900  1
  O  O3  1  0.15809100  0.34198800  0.27218600  1
  O  O4  1  0.05142500  0.30772900  0.47382200  1
  O  O5  1  0.55446500  0.23386400  0.88511200  1
  O  O6  1  0.53803700  0.73467000  0.35870800  1
  O  O7  1  0.46196300  0.26533000  0.64129200  1
  O  O8  1  0.44553500  0.76613600  0.11488800  1
  O  O9  1  0.94857500  0.69227100  0.52617800  1
  O  O10  1  0.84190900  0.65801200  0.72781400  1
  O  O11  1  0.93757100  0.74813600  0.90652100  1
  O  O12  1  0.42174600  0.64938500  0.87374400  1
  O  O13  1  0.51914800  0.77429700  0.62595600  1
loop_
_geom_bond_atom_site_label_1
_geom_bond_atom_site_label_2
_geom_bond_distance
_geom_bond_site_symmetry_2
Li0 O2 1.691578 1_655
Li0 O5 1.994861 1_554
Li0 O1 2.056710 1_555
Li1 O7 2.124882 1_555
Li1 O6 2.124882 1_545
Li1 O13 2.177569 1_545
Li1 O0 2.177569 1_555
Li2 O11 1.691578 1_455
Li2 O8 1.994861 1_556
Li2 O12 2.056710 1_555
Mn0 O8 1.884272 1_545
Mn0 O0 2.145482 1_555
Mn0 O3 2.278970 1_655
Mn0 O1 2.347706 1_555
Mn0 O6 2.434312 1_545
Mn1 O5 1.884272 1_565
Mn1 O13 2.145482 1_555
Mn1 O10 2.278970 1_455
Mn1 O12 2.347706 1_555
Mn1 O7 2.434312 1_565
H0 O9 1.155520 1_455
H0 O4 1.155520 1_555
O0 P0 1.519102 1_555
O1 P1 1.547291 1_555
O2 P1 1.307453 1_555
O3 P0 1.437971 1_555
O3 P1 1.914331 1_555
O4 P0 1.829862 1_555
O5 P2 1.658512 1_555
O6 P0 1.618838 1_555
O7 P3 1.618838 1_555
O8 P1 1.658512 1_555
O9 P3 1.829862 1_555
O10 P3 1.437971 1_555
O10 P2 1.914331 1_555
O11 P2 1.307453 1_555
O12 P2 1.547291 1_555
O13 P3 1.519102 1_555
