# generated using pymatgen
data_BaSr7Ti5Mn3O24
_symmetry_space_group_name_H-M   'P 1'
_cell_length_a   7.88341120
_cell_length_b   7.88341120
_cell_length_c   7.83195566
_cell_angle_alpha   89.98338835
_cell_angle_beta   89.98338835
_cell_angle_gamma   89.99071865
_symmetry_Int_Tables_number   1
_chemical_formula_structural   BaSr7Ti5Mn3O24
_chemical_formula_sum   'Ba1 Sr7 Ti5 Mn3 O24'
_cell_volume   486.74168119
_cell_formula_units_Z   1
loop_
 _symmetry_equiv_pos_site_id
 _symmetry_equiv_pos_as_xyz
  1  'x, y, z'
loop_
 _atom_site_type_symbol
 _atom_site_label
 _atom_site_symmetry_multiplicity
 _atom_site_fract_x
 _atom_site_fract_y
 _atom_site_fract_z
 _atom_site_occupancy
  Ba  Ba0  1  0.24876500  0.24876500  0.75362600  1
  Sr  Sr0  1  0.24823000  0.75149400  0.75491800  1
  Sr  Sr1  1  0.75174700  0.75174700  0.75487600  1
  Sr  Sr2  1  0.75149400  0.24823000  0.75491800  1
  Sr  Sr3  1  0.24829700  0.75165800  0.24516600  1
  Sr  Sr4  1  0.75180000  0.75180000  0.24490500  1
  Sr  Sr5  1  0.24831900  0.24831900  0.24561500  1
  Sr  Sr6  1  0.75165800  0.24829700  0.24516600  1
  Ti  Ti0  1  0.50217700  0.50217700  0.00128900  1
  Ti  Ti1  1  0.99864000  0.99864000  0.49796400  1
  Ti  Ti2  1  0.50134400  0.99863200  0.49791100  1
  Ti  Ti3  1  0.99863200  0.50134400  0.49791100  1
  Ti  Ti4  1  0.50138200  0.50138200  0.49871600  1
  Mn  Mn0  1  0.99882200  0.99882200  0.00051000  1
  Mn  Mn1  1  0.50125600  0.99924800  0.00073600  1
  Mn  Mn2  1  0.99924800  0.50125600  0.00073600  1
  O  O0  1  0.99609600  0.99609600  0.75209600  1
  O  O1  1  0.50377900  0.99623400  0.75245700  1
  O  O2  1  0.99623400  0.50377900  0.75245700  1
  O  O3  1  0.50323100  0.50323100  0.75124600  1
  O  O4  1  0.99897800  0.99897800  0.24796700  1
  O  O5  1  0.50107800  0.99888500  0.24768300  1
  O  O6  1  0.99888500  0.50107800  0.24768300  1
  O  O7  1  0.50125300  0.50125300  0.24894500  1
  O  O8  1  0.99904700  0.74919900  0.00081400  1
  O  O9  1  0.50118700  0.75204100  0.00109000  1
  O  O10  1  0.99478800  0.25083600  0.00536200  1
  O  O11  1  0.50389500  0.24785000  0.00405400  1
  O  O12  1  0.99867900  0.75020500  0.49875200  1
  O  O13  1  0.50130000  0.75027100  0.49879800  1
  O  O14  1  0.99648900  0.24976600  0.49669400  1
  O  O15  1  0.50343700  0.24966100  0.49668700  1
  O  O16  1  0.25083600  0.99478800  0.00536200  1
  O  O17  1  0.74919900  0.99904700  0.00081400  1
  O  O18  1  0.24785000  0.50389500  0.00405400  1
  O  O19  1  0.75204100  0.50118700  0.00109000  1
  O  O20  1  0.24976600  0.99648900  0.49669400  1
  O  O21  1  0.75020500  0.99867900  0.49875200  1
  O  O22  1  0.24966100  0.50343700  0.49668700  1
  O  O23  1  0.75027100  0.50130000  0.49879800  1
loop_
_geom_bond_atom_site_label_1
_geom_bond_atom_site_label_2
_geom_bond_distance
_geom_bond_site_symmetry_2
Ba0 O16 2.809619 1_546
Ba0 O10 2.809619 1_456
Ba0 O11 2.809714 1_556
Ba0 O18 2.809714 1_556
Ba0 O0 2.817222 1_445
Ba0 O1 2.829085 1_545
Ba0 O2 2.829085 1_455
Ba0 O14 2.829655 1_455
Ba0 O20 2.829655 1_545
Ba0 O3 2.837281 1_555
Ba0 O15 2.842181 1_555
Ba0 O22 2.842181 1_555
Mn0 O4 1.938074 1_555
Mn0 O0 1.945817 1_554
Mn0 O17 1.967882 1_555
Mn0 O8 1.967882 1_555
Mn0 O16 1.987354 1_655
Mn0 O10 1.987354 1_565
Mn1 O5 1.934079 1_555
Mn1 O1 1.944758 1_554
Mn1 O9 1.948836 1_555
Mn1 O17 1.954637 1_555
Mn1 O11 1.960125 1_565
Mn1 O16 1.974804 1_555
Mn2 O6 1.934079 1_555
Mn2 O2 1.944758 1_554
Mn2 O19 1.948836 1_555
Mn2 O8 1.954637 1_555
Mn2 O18 1.960125 1_655
Mn2 O10 1.974804 1_555
O0 Ti1 1.990541 1_555
O0 Sr1 2.724503 1_555
O0 Sr0 2.769194 1_655
O0 Sr2 2.769194 1_565
O1 Ti2 1.993775 1_555
O1 Sr1 2.745059 1_555
O1 Sr2 2.785998 1_565
O1 Sr0 2.789753 1_555
O2 Ti3 1.993775 1_555
O2 Sr1 2.745059 1_555
O2 Sr0 2.785998 1_655
O2 Sr2 2.789753 1_555
O3 Ti0 1.958356 1_556
O3 Ti4 1.977920 1_555
O3 Sr1 2.771044 1_555
O3 Sr2 2.805573 1_555
O3 Sr0 2.805573 1_555
O4 Ti1 1.957968 1_555
O4 Sr4 2.756082 1_555
O4 Sr3 2.768356 1_655
O4 Sr6 2.768356 1_565
O4 Sr5 2.780138 1_665
O5 Ti2 1.959777 1_555
O5 Sr4 2.774917 1_555
O5 Sr6 2.787457 1_565
O5 Sr3 2.787727 1_555
O5 Sr5 2.799313 1_565
O6 Ti3 1.959777 1_555
O6 Sr4 2.774917 1_555
O6 Sr3 2.787457 1_655
O6 Sr6 2.787727 1_555
O6 Sr5 2.799313 1_655
O7 Ti0 1.939654 1_555
O7 Ti4 1.956197 1_555
O7 Sr4 2.793698 1_555
O7 Sr3 2.805907 1_555
O7 Sr6 2.805907 1_555
O7 Sr5 2.820277 1_555
O8 Sr4 2.729851 1_555
O8 Sr1 2.741079 1_554
O8 Sr3 2.743362 1_655
O8 Sr0 2.750623 1_654
O9 Ti0 1.969795 1_555
O9 Sr4 2.748071 1_555
O9 Sr1 2.760066 1_554
O9 Sr3 2.761624 1_555
O9 Sr0 2.774196 1_554
O10 Sr6 2.683171 1_555
O10 Sr2 2.743841 1_554
O10 Sr5 2.745525 1_655
O11 Ti0 2.005119 1_555
O11 Sr6 2.717203 1_555
O11 Sr2 2.759543 1_554
O11 Sr5 2.763428 1_555
O12 Ti1 1.958523 1_555
O12 Ti3 1.961887 1_555
O12 Sr4 2.782603 1_555
O12 Sr1 2.794860 1_555
O12 Sr3 2.795487 1_655
O12 Sr0 2.810319 1_655
O13 Ti2 1.957942 1_555
O13 Ti4 1.962095 1_555
O13 Sr4 2.802093 1_555
O13 Sr1 2.814785 1_555
O13 Sr3 2.815396 1_555
O13 Sr0 2.828734 1_555
O14 Ti1 1.979822 1_545
O14 Ti3 1.983393 1_555
O14 Sr6 2.758330 1_555
O14 Sr5 2.793938 1_655
O14 Sr2 2.796116 1_555
O15 Ti2 1.979057 1_545
O15 Ti4 1.984552 1_555
O15 Sr6 2.776252 1_555
O15 Sr5 2.813187 1_555
O15 Sr2 2.813688 1_555
O16 Sr3 2.683171 1_555
O16 Sr0 2.743841 1_554
O16 Sr5 2.745525 1_565
O17 Sr4 2.729851 1_555
O17 Sr1 2.741079 1_554
O17 Sr6 2.743362 1_565
O17 Sr2 2.750623 1_564
O18 Ti0 2.005119 1_555
O18 Sr3 2.717203 1_555
O18 Sr0 2.759543 1_554
O18 Sr5 2.763428 1_555
O19 Ti0 1.969795 1_555
O19 Sr4 2.748071 1_555
O19 Sr1 2.760066 1_554
O19 Sr6 2.761624 1_555
O19 Sr2 2.774196 1_554
O20 Ti1 1.979822 1_455
O20 Ti2 1.983393 1_555
O20 Sr3 2.758330 1_555
O20 Sr5 2.793938 1_565
O20 Sr0 2.796116 1_555
O21 Ti1 1.958523 1_555
O21 Ti2 1.961887 1_555
O21 Sr4 2.782603 1_555
O21 Sr1 2.794860 1_555
O21 Sr6 2.795487 1_565
O21 Sr2 2.810319 1_565
O22 Ti3 1.979057 1_455
O22 Ti4 1.984552 1_555
O22 Sr3 2.776252 1_555
O22 Sr5 2.813187 1_555
O22 Sr0 2.813688 1_555
O23 Ti3 1.957942 1_555
O23 Ti4 1.962095 1_555
O23 Sr4 2.802093 1_555
O23 Sr1 2.814785 1_555
O23 Sr6 2.815396 1_555
O23 Sr2 2.828734 1_555
