# generated using pymatgen
data_CsMg6Ga
_symmetry_space_group_name_H-M   'P 1'
_cell_length_a   7.23097236
_cell_length_b   7.23097236
_cell_length_c   4.80006600
_cell_angle_alpha   90.00000000
_cell_angle_beta   90.00000000
_cell_angle_gamma   112.13164275
_symmetry_Int_Tables_number   1
_chemical_formula_structural   CsMg6Ga
_chemical_formula_sum   'Cs1 Mg6 Ga1'
_cell_volume   232.48877388
_cell_formula_units_Z   1
loop_
 _symmetry_equiv_pos_site_id
 _symmetry_equiv_pos_as_xyz
  1  'x, y, z'
loop_
 _atom_site_type_symbol
 _atom_site_label
 _atom_site_symmetry_multiplicity
 _atom_site_fract_x
 _atom_site_fract_y
 _atom_site_fract_z
 _atom_site_occupancy
  Cs  Cs0  1  0.87127500  0.12872500  0.00000000  1
  Mg  Mg0  1  0.80261300  0.59855900  0.00000000  1
  Mg  Mg1  1  0.40144100  0.19738700  0.00000000  1
  Mg  Mg2  1  0.30559500  0.69440500  0.00000000  1
  Mg  Mg3  1  0.59768100  0.76049000  0.50000000  1
  Mg  Mg4  1  0.23951000  0.40231900  0.50000000  1
  Mg  Mg5  1  0.14785200  0.85214800  0.50000000  1
  Ga  Ga0  1  0.63403300  0.36596700  0.50000000  1
loop_
_geom_bond_atom_site_label_1
_geom_bond_atom_site_label_2
_geom_bond_distance
_geom_bond_site_symmetry_2
Cs0 Mg3 3.576994 1_545
Cs0 Mg3 3.576994 1_544
Cs0 Mg4 3.576994 1_654
Cs0 Mg4 3.576994 1_655
Cs0 Mg1 3.613788 1_555
Cs0 Mg0 3.613788 1_555
Cs0 Mg0 3.675457 1_545
Cs0 Mg1 3.675457 1_655
Cs0 Ga0 3.723355 1_554
Cs0 Ga0 3.723355 1_555
Cs0 Mg5 4.095506 1_644
Cs0 Mg5 4.095506 1_645
Cs0 Mg2 4.112829 1_545
Cs0 Mg2 4.112829 1_655
Mg0 Mg3 3.261056 1_555
Mg0 Mg3 3.261056 1_554
Mg0 Mg2 3.436450 1_655
Mg0 Mg5 3.450440 1_654
Mg0 Mg5 3.450440 1_655
Mg1 Mg4 3.261056 1_555
Mg1 Mg4 3.261056 1_554
Mg1 Mg2 3.436450 1_545
Mg1 Mg5 3.450440 1_544
Mg1 Mg5 3.450440 1_545
Mg2 Mg5 3.056560 1_554
Mg2 Mg5 3.056560 1_555
Mg2 Mg4 3.112696 1_555
Mg2 Mg4 3.112696 1_554
Mg2 Mg3 3.112696 1_554
Mg2 Mg3 3.112696 1_555
Mg3 Mg4 2.891600 1_555
Ga0 Mg0 2.920621 1_555
Ga0 Mg0 2.920621 1_556
Ga0 Mg1 2.920621 1_556
Ga0 Mg1 2.920621 1_555
Ga0 Mg4 2.961840 1_555
Ga0 Mg3 2.961840 1_555
