# generated using pymatgen
data_K2RuO4
_symmetry_space_group_name_H-M   'P 1'
_cell_length_a   6.15438614
_cell_length_b   7.82820962
_cell_length_c   10.50995006
_cell_angle_alpha   90.00000000
_cell_angle_beta   90.00000000
_cell_angle_gamma   90.00000000
_symmetry_Int_Tables_number   1
_chemical_formula_structural   K2RuO4
_chemical_formula_sum   'K8 Ru4 O16'
_cell_volume   506.34653250
_cell_formula_units_Z   4
loop_
 _symmetry_equiv_pos_site_id
 _symmetry_equiv_pos_as_xyz
  1  'x, y, z'
loop_
 _atom_site_type_symbol
 _atom_site_label
 _atom_site_symmetry_multiplicity
 _atom_site_fract_x
 _atom_site_fract_y
 _atom_site_fract_z
 _atom_site_occupancy
  K  K0  1  0.25000000  0.49194880  0.71037811  1
  K  K1  1  0.75000000  0.50805120  0.28962189  1
  K  K2  1  0.25000000  0.99194880  0.78962189  1
  K  K3  1  0.75000000  0.00805120  0.21037811  1
  K  K4  1  0.25000000  0.33803556  0.06906048  1
  K  K5  1  0.75000000  0.66196444  0.93093952  1
  K  K6  1  0.25000000  0.83803556  0.43093952  1
  K  K7  1  0.75000000  0.16196444  0.56906048  1
  Ru  Ru0  1  0.25000000  0.28965590  0.41367089  1
  Ru  Ru1  1  0.75000000  0.71034410  0.58632911  1
  Ru  Ru2  1  0.25000000  0.78965590  0.08632911  1
  Ru  Ru3  1  0.75000000  0.21034410  0.91367089  1
  O  O0  1  0.01663890  0.72980269  0.17505091  1
  O  O1  1  0.51663890  0.27019731  0.82494909  1
  O  O2  1  0.48336110  0.22980269  0.32494909  1
  O  O3  1  0.98336110  0.77019731  0.67505091  1
  O  O4  1  0.98336110  0.27019731  0.82494909  1
  O  O5  1  0.48336110  0.72980269  0.17505091  1
  O  O6  1  0.51663890  0.77019731  0.67505091  1
  O  O7  1  0.01663890  0.22980269  0.32494909  1
  O  O8  1  0.25000000  0.01002932  0.05306920  1
  O  O9  1  0.75000000  0.98997068  0.94693080  1
  O  O10  1  0.25000000  0.51002932  0.44693080  1
  O  O11  1  0.75000000  0.48997068  0.55306920  1
  O  O12  1  0.75000000  0.33533584  0.05610556  1
  O  O13  1  0.25000000  0.66466416  0.94389444  1
  O  O14  1  0.75000000  0.83533584  0.44389444  1
  O  O15  1  0.25000000  0.16466416  0.55610556  1
loop_
_geom_bond_atom_site_label_1
_geom_bond_atom_site_label_2
_geom_bond_distance
_geom_bond_site_symmetry_2
K0 O4 2.675113 1_455
K0 O1 2.675113 1_555
K0 O3 2.752314 1_455
K0 O6 2.752314 1_555
K0 O10 2.772433 1_555
K0 O13 2.802028 1_555
K0 O15 3.032003 1_555
K1 O0 2.675113 1_655
K1 O5 2.675113 1_555
K1 O7 2.752314 1_655
K1 O2 2.752314 1_555
K1 O11 2.772433 1_555
K1 O12 2.802028 1_555
K1 O14 3.032003 1_555
K2 O3 2.675113 1_455
K2 O6 2.675113 1_555
K2 O1 2.752314 1_565
K2 O4 2.752314 1_465
K2 O8 2.772433 1_566
K2 O15 2.802028 1_565
K2 O13 3.032003 1_555
K3 O7 2.675113 1_655
K3 O2 2.675113 1_555
K3 O0 2.752314 1_645
K3 O5 2.752314 1_545
K3 O9 2.772433 1_544
K3 O14 2.802028 1_545
K3 O12 3.032003 1_555
K4 O8 2.573196 1_555
K4 O13 2.875471 1_554
K4 O12 3.080276 1_555
K4 O12 3.080276 1_455
K4 O4 3.091470 1_454
K4 O1 3.091470 1_554
K4 O2 3.164374 1_555
K4 O7 3.164374 1_555
K5 O9 2.573196 1_555
K5 O12 2.875471 1_556
K5 O13 3.080276 1_555
K5 O13 3.080276 1_655
K5 O0 3.091470 1_656
K5 O5 3.091470 1_556
K5 O6 3.164374 1_555
K5 O3 3.164374 1_555
K6 O10 2.573196 1_555
K6 O15 2.875471 1_565
K6 O14 3.080276 1_455
K6 O14 3.080276 1_555
K6 O6 3.091470 1_555
K6 O3 3.091470 1_455
K6 O5 3.164374 1_555
K6 O0 3.164374 1_555
K7 O11 2.573196 1_555
K7 O14 2.875471 1_545
K7 O15 3.080276 1_655
K7 O15 3.080276 1_555
K7 O7 3.091470 1_655
K7 O2 3.091470 1_555
K7 O4 3.164374 1_555
K7 O1 3.164374 1_555
O0 Ru2 1.775295 1_555
O1 Ru3 1.775295 1_555
O2 Ru0 1.775295 1_555
O3 Ru1 1.775295 1_555
O4 Ru3 1.775295 1_555
O5 Ru2 1.775295 1_555
O6 Ru1 1.775295 1_555
O7 Ru0 1.775295 1_555
O8 Ru2 1.760188 1_545
O9 Ru3 1.760188 1_565
O10 Ru0 1.760188 1_555
O11 Ru1 1.760188 1_555
O12 Ru3 1.788390 1_554
O13 Ru2 1.788390 1_556
O14 Ru1 1.788390 1_555
O15 Ru0 1.788390 1_555
