# generated using pymatgen
data_Li9Mn2Co5O16
_symmetry_space_group_name_H-M   'P 1'
_cell_length_a   5.10959270
_cell_length_b   7.71514447
_cell_length_c   7.71514469
_cell_angle_alpha   96.39206465
_cell_angle_beta   76.26296431
_cell_angle_gamma   76.26296133
_symmetry_Int_Tables_number   1
_chemical_formula_structural   Li9Mn2Co5O16
_chemical_formula_sum   'Li9 Mn2 Co5 O16'
_cell_volume   282.42023987
_cell_formula_units_Z   1
loop_
 _symmetry_equiv_pos_site_id
 _symmetry_equiv_pos_as_xyz
  1  'x, y, z'
loop_
 _atom_site_type_symbol
 _atom_site_label
 _atom_site_symmetry_multiplicity
 _atom_site_fract_x
 _atom_site_fract_y
 _atom_site_fract_z
 _atom_site_occupancy
  Li  Li0  1  0.00606200  0.12949700  0.38229600  1
  Li  Li1  1  0.99393800  0.61770400  0.87050300  1
  Li  Li2  1  0.49791700  0.99302200  0.50108400  1
  Li  Li3  1  0.50208300  0.49891600  0.00697800  1
  Li  Li4  1  0.01115500  0.86624200  0.61364400  1
  Li  Li5  1  0.98884500  0.38635600  0.13375800  1
  Li  Li6  1  0.51071600  0.74968700  0.74068900  1
  Li  Li7  1  0.48928400  0.25931100  0.25031300  1
  Li  Li8  1  0.50000000  0.62584300  0.37415700  1
  Mn  Mn0  1  0.00000000  0.00005100  0.99994900  1
  Mn  Mn1  1  0.50000000  0.87156000  0.12844000  1
  Co  Co0  1  0.00000000  0.50405700  0.49594300  1
  Co  Co1  1  0.50000000  0.38034000  0.61966000  1
  Co  Co2  1  0.00000000  0.74783000  0.25217000  1
  Co  Co3  1  0.00000000  0.25009600  0.74990400  1
  Co  Co4  1  0.50000000  0.12338200  0.87661800  1
  O  O0  1  0.75041400  0.98154000  0.23545900  1
  O  O1  1  0.76422000  0.49175700  0.73273500  1
  O  O2  1  0.24456800  0.87055700  0.35254300  1
  O  O3  1  0.27034400  0.35652600  0.86632100  1
  O  O4  1  0.78322000  0.73375700  0.48609300  1
  O  O5  1  0.77339600  0.24312700  0.99776800  1
  O  O6  1  0.23299100  0.60598400  0.61494000  1
  O  O7  1  0.28277100  0.11372200  0.11500300  1
  O  O8  1  0.23578000  0.26726500  0.50824300  1
  O  O9  1  0.24958600  0.76454100  0.01846000  1
  O  O10  1  0.72965600  0.13367900  0.64347400  1
  O  O11  1  0.75543200  0.64745700  0.12944300  1
  O  O12  1  0.22660400  0.00223200  0.75687300  1
  O  O13  1  0.21678000  0.51390700  0.26624300  1
  O  O14  1  0.71722900  0.88499700  0.88627800  1
  O  O15  1  0.76700900  0.38506000  0.39401600  1
loop_
_geom_bond_atom_site_label_1
_geom_bond_atom_site_label_2
_geom_bond_distance
_geom_bond_site_symmetry_2
Li0 O2 2.034121 1_545
Li0 O15 2.037599 1_455
Li0 O8 2.087083 1_555
Li0 O10 2.160628 1_455
Li0 O7 2.178110 1_555
Li0 O0 2.327184 1_445
Li1 O11 2.034121 1_556
Li1 O6 2.037599 1_655
Li1 O1 2.087083 1_555
Li1 O3 2.160628 1_655
Li1 O14 2.178110 1_555
Li1 O9 2.327184 1_656
Li2 O12 2.108092 1_565
Li2 O0 2.126434 1_555
Li2 O4 2.150141 1_555
Li2 O10 2.179256 1_565
Li2 O8 2.206059 1_565
Li2 O2 2.219502 1_555
Li3 O5 2.108092 1_554
Li3 O9 2.126434 1_555
Li3 O13 2.150141 1_555
Li3 O3 2.179256 1_554
Li3 O1 2.206059 1_554
Li3 O11 2.219502 1_555
Li4 O6 2.060485 1_555
Li4 O4 2.062845 1_455
Li4 O2 2.091461 1_555
Li4 O12 2.098073 1_565
Li4 O10 2.169479 1_465
Li4 O14 2.242659 1_455
Li5 O15 2.060485 1_555
Li5 O13 2.062845 1_655
Li5 O11 2.091461 1_555
Li5 O5 2.098073 1_554
Li5 O3 2.169479 1_654
Li5 O7 2.242659 1_655
Li6 O14 2.071206 1_555
Li6 O1 2.086243 1_555
Li6 O4 2.092400 1_555
Li6 O12 2.106121 1_565
Li6 O9 2.213756 1_556
Li6 O6 2.312083 1_555
Li7 O7 2.071206 1_555
Li7 O8 2.086243 1_555
Li7 O13 2.092400 1_555
Li7 O5 2.106122 1_554
Li7 O0 2.213756 1_545
Li7 O15 2.312083 1_555
Li8 O15 2.072373 1_555
Li8 O6 2.072374 1_555
Li8 O2 2.073394 1_555
Li8 O11 2.073394 1_555
Li8 O4 2.130462 1_555
Li8 O13 2.130462 1_555
Mn0 O5 1.960337 1_455
Mn0 O12 1.960337 1_555
Mn0 O9 1.997995 1_546
Mn0 O0 1.997995 1_446
Mn0 O7 2.163837 1_556
Mn0 O14 2.163837 1_445
Mn1 O11 1.904975 1_555
Mn1 O2 1.904975 1_555
Mn1 O7 1.961181 1_565
Mn1 O14 1.961181 1_554
Mn1 O9 1.974899 1_555
Mn1 O0 1.974899 1_555
Co0 O4 1.873754 1_455
Co0 O13 1.873754 1_555
Co0 O6 1.918719 1_555
Co0 O15 1.918719 1_455
Co0 O8 1.961000 1_555
Co0 O1 1.961000 1_455
Co1 O6 1.950132 1_555
Co1 O15 1.950132 1_555
Co1 O10 2.037625 1_555
Co1 O3 2.037625 1_555
Co1 O1 2.065472 1_555
Co1 O8 2.065472 1_555
Co2 O13 1.909752 1_555
Co2 O4 1.909752 1_455
Co2 O11 1.978918 1_455
Co2 O2 1.978918 1_555
Co2 O0 1.982907 1_455
Co2 O9 1.982907 1_555
Co3 O12 2.000328 1_555
Co3 O5 2.000328 1_455
Co3 O1 2.002277 1_455
Co3 O8 2.002278 1_555
Co3 O3 2.086337 1_555
Co3 O10 2.086337 1_455
Co4 O3 1.921561 1_555
Co4 O10 1.921561 1_555
Co4 O14 1.928832 1_545
Co4 O7 1.928833 1_556
Co4 O5 2.172412 1_555
Co4 O12 2.172412 1_555
