# generated using pymatgen
data_TaS2
_symmetry_space_group_name_H-M   'P 1'
_cell_length_a   3.34350645
_cell_length_b   3.34366553
_cell_length_c   11.55260038
_cell_angle_alpha   85.85099621
_cell_angle_beta   81.67965305
_cell_angle_gamma   60.00159269
_symmetry_Int_Tables_number   1
_chemical_formula_structural   TaS2
_chemical_formula_sum   'Ta1 S2'
_cell_volume   110.67433872
_cell_formula_units_Z   1
loop_
 _symmetry_equiv_pos_site_id
 _symmetry_equiv_pos_as_xyz
  1  'x, y, z'
loop_
 _atom_site_type_symbol
 _atom_site_label
 _atom_site_symmetry_multiplicity
 _atom_site_fract_x
 _atom_site_fract_y
 _atom_site_fract_z
 _atom_site_occupancy
  Ta  Ta0  1  0.07557452  0.84885097  -0.00000000  1
  S  S0  1  0.81005975  0.51557452  0.86430598  1
  S  S1  1  0.67436573  0.51557452  0.13569402  1
loop_
_geom_bond_atom_site_label_1
_geom_bond_atom_site_label_2
_geom_bond_distance
_geom_bond_site_symmetry_2
S0 Ta0 2.476310 1_656
S0 Ta0 2.476312 1_556
S0 Ta0 2.476575 1_646
S1 Ta0 2.476310 1_555
S1 Ta0 2.476311 1_655
S1 Ta0 2.476575 1_645
