# generated using pymatgen
data_BaAl2Si3O14
_symmetry_space_group_name_H-M   'P 1'
_cell_length_a   6.74110100
_cell_length_b   9.51256800
_cell_length_c   9.88862400
_cell_angle_alpha   90.00000000
_cell_angle_beta   90.00000000
_cell_angle_gamma   90.00000000
_symmetry_Int_Tables_number   1
_chemical_formula_structural   BaAl2Si3O14
_chemical_formula_sum   'Ba2 Al4 Si6 O28'
_cell_volume   634.10981034
_cell_formula_units_Z   2
loop_
 _symmetry_equiv_pos_site_id
 _symmetry_equiv_pos_as_xyz
  1  'x, y, z'
loop_
 _atom_site_type_symbol
 _atom_site_label
 _atom_site_symmetry_multiplicity
 _atom_site_fract_x
 _atom_site_fract_y
 _atom_site_fract_z
 _atom_site_occupancy
  Ba  Ba0  1  0.55188400  0.50000000  0.00000000  1
  Ba  Ba1  1  0.44811600  0.00000000  0.50000000  1
  Al  Al0  1  0.37039500  0.40345200  0.33576100  1
  Al  Al1  1  0.62960600  0.09654800  0.83576100  1
  Al  Al2  1  0.37039500  0.59654800  0.66423900  1
  Al  Al3  1  0.62960600  0.90345200  0.16423900  1
  Si  Si0  1  0.98734700  0.50000000  0.50000000  1
  Si  Si1  1  0.01265300  0.00000000  0.00000000  1
  Si  Si2  1  0.61662300  0.67162400  0.40280900  1
  Si  Si3  1  0.38337700  0.82837600  0.90280900  1
  Si  Si4  1  0.61662300  0.32837600  0.59719100  1
  Si  Si5  1  0.38337700  0.17162400  0.09719100  1
  O  O0  1  0.97922700  0.51221000  0.10213500  1
  O  O1  1  0.02077300  0.98779000  0.60213500  1
  O  O2  1  0.97922700  0.48779000  0.89786500  1
  O  O3  1  0.02077300  0.01221000  0.39786500  1
  O  O4  1  0.37407600  0.32315400  0.17481700  1
  O  O5  1  0.62592400  0.17684600  0.67481700  1
  O  O6  1  0.37407600  0.67684600  0.82518300  1
  O  O7  1  0.62592400  0.82315400  0.32518300  1
  O  O8  1  0.12839700  0.45029400  0.37679200  1
  O  O9  1  0.87160300  0.04970600  0.87679200  1
  O  O10  1  0.12839700  0.54970600  0.62320800  1
  O  O11  1  0.87160300  0.95029400  0.12320800  1
  O  O12  1  0.84090400  0.63025900  0.45349000  1
  O  O13  1  0.15909600  0.86974100  0.95349000  1
  O  O14  1  0.84090400  0.36974100  0.54651000  1
  O  O15  1  0.15909600  0.13025900  0.04651000  1
  O  O16  1  0.93977400  0.39903100  0.15858400  1
  O  O17  1  0.06022600  0.10096900  0.65858400  1
  O  O18  1  0.93977400  0.60096900  0.84141600  1
  O  O19  1  0.06022600  0.89903100  0.34141600  1
  O  O20  1  0.47372400  0.29650900  0.46512800  1
  O  O21  1  0.52627600  0.20349100  0.96512800  1
  O  O22  1  0.47372400  0.70349100  0.53487200  1
  O  O23  1  0.52627600  0.79650900  0.03487200  1
  O  O24  1  0.52612500  0.55047000  0.30306500  1
  O  O25  1  0.47387500  0.94953000  0.80306500  1
  O  O26  1  0.52612500  0.44953000  0.69693500  1
  O  O27  1  0.47387500  0.05047000  0.19693500  1
loop_
_geom_bond_atom_site_label_1
_geom_bond_atom_site_label_2
_geom_bond_distance
_geom_bond_site_symmetry_2
Ba0 O6 2.693528 1_554
Ba0 O4 2.693528 1_555
Ba0 O23 2.846802 1_555
Ba0 O21 2.846802 1_554
Ba0 O24 3.040071 1_555
Ba0 O26 3.040071 1_554
Ba0 O0 3.054886 1_555
Ba0 O2 3.054886 1_554
Ba0 O18 3.196702 1_554
Ba0 O16 3.196702 1_555
Ba1 O5 2.693528 1_555
Ba1 O7 2.693528 1_545
Ba1 O20 2.846802 1_555
Ba1 O22 2.846802 1_545
Ba1 O27 3.040071 1_555
Ba1 O25 3.040071 1_545
Ba1 O3 3.054886 1_555
Ba1 O1 3.054886 1_545
Ba1 O17 3.196702 1_555
Ba1 O19 3.196702 1_545
Al0 O8 1.739086 1_555
Al0 O4 1.765499 1_555
Al0 O20 1.776682 1_555
Al0 O24 1.778328 1_555
Al1 O9 1.739080 1_555
Al1 O5 1.765499 1_555
Al1 O21 1.776684 1_555
Al1 O25 1.778332 1_545
Al2 O10 1.739086 1_555
Al2 O6 1.765499 1_555
Al2 O22 1.776682 1_555
Al2 O26 1.778328 1_555
Al3 O11 1.739080 1_555
Al3 O7 1.765499 1_555
Al3 O23 1.776684 1_555
Al3 O27 1.778332 1_565
O0 O16 1.241548 1_555
O1 O17 1.241548 1_565
O4 Si5 1.634292 1_555
O5 Si4 1.634292 1_555
O6 Si3 1.634292 1_555
O7 Si2 1.634292 1_555
O8 Si0 1.616183 1_455
O9 Si1 1.616183 1_656
O10 Si0 1.616183 1_455
O11 Si1 1.616183 1_665
O12 Si2 1.640684 1_555
O12 Si0 1.649675 1_555
O13 Si3 1.640684 1_555
O13 Si1 1.649675 1_566
O14 Si4 1.640684 1_555
O14 Si0 1.649675 1_555
O15 Si5 1.640684 1_555
O15 Si1 1.649675 1_555
O18 O2 1.241548 1_555
O19 O3 1.241548 1_565
O20 Si4 1.650837 1_555
O21 Si5 1.650837 1_556
O22 Si2 1.650837 1_555
O23 Si3 1.650837 1_554
O24 Si2 1.635005 1_555
O25 Si3 1.635005 1_555
O26 Si4 1.635005 1_555
O27 Si5 1.635005 1_555
