# generated using pymatgen
data_Li4V3P8O29
_symmetry_space_group_name_H-M   'P 1'
_cell_length_a   9.76956900
_cell_length_b   9.80814941
_cell_length_c   14.28375745
_cell_angle_alpha   89.47947379
_cell_angle_beta   89.50219711
_cell_angle_gamma   60.17384248
_symmetry_Int_Tables_number   1
_chemical_formula_structural   Li4V3P8O29
_chemical_formula_sum   'Li8 V6 P16 O58'
_cell_volume   1187.32811185
_cell_formula_units_Z   2
loop_
 _symmetry_equiv_pos_site_id
 _symmetry_equiv_pos_as_xyz
  1  'x, y, z'
loop_
 _atom_site_type_symbol
 _atom_site_label
 _atom_site_symmetry_multiplicity
 _atom_site_fract_x
 _atom_site_fract_y
 _atom_site_fract_z
 _atom_site_occupancy
  Li  Li0  1  0.68308500  0.09130800  0.44384600  1
  Li  Li1  1  0.10093800  0.66866100  0.95003800  1
  Li  Li2  1  0.23281200  0.09585400  0.94243100  1
  Li  Li3  1  0.92078100  0.77885500  0.55769900  1
  Li  Li4  1  0.08571900  0.22603400  0.43607700  1
  Li  Li5  1  0.76563900  0.90755200  0.06118200  1
  Li  Li6  1  0.31141700  0.91083500  0.55297600  1
  Li  Li7  1  0.97881900  0.06023700  0.00654500  1
  V  V0  1  0.00401800  0.56039400  0.75005500  1
  V  V1  1  0.99235400  0.43746500  0.24783200  1
  V  V2  1  0.56590800  0.00177600  0.24937500  1
  V  V3  1  0.43350500  0.99764500  0.75211100  1
  V  V4  1  0.56410300  0.43363900  0.75213200  1
  V  V5  1  0.43734800  0.56363400  0.24749800  1
  P  P0  1  0.69545600  0.22446500  0.15682100  1
  P  P1  1  0.68207000  0.08956800  0.66502200  1
  P  P2  1  0.23062700  0.68550200  0.65774300  1
  P  P3  1  0.32933600  0.33625000  0.86935100  1
  P  P4  1  0.33133900  0.33325800  0.36697400  1
  P  P5  1  0.08861000  0.68561400  0.16407800  1
  P  P6  1  0.90980400  0.76939200  0.34363500  1
  P  P7  1  0.22276800  0.09124700  0.15818000  1
  P  P8  1  0.77662500  0.90626700  0.84328200  1
  P  P9  1  0.09046800  0.22971600  0.65388300  1
  P  P10  1  0.91383800  0.30604800  0.83435700  1
  P  P11  1  0.66749200  0.66607900  0.63438600  1
  P  P12  1  0.66766100  0.66841600  0.12993800  1
  P  P13  1  0.77051400  0.31207800  0.34080300  1
  P  P14  1  0.31898800  0.90707700  0.33540600  1
  P  P15  1  0.30691700  0.77236200  0.84163800  1
  O  O0  1  0.76577900  0.22692300  0.42591500  1
  O  O1  1  0.65779700  0.25705000  0.66941600  1
  O  O2  1  0.79483700  0.97341300  0.93261100  1
  O  O3  1  0.65798800  0.08690500  0.16444900  1
  O  O4  1  0.54065300  0.38399400  0.16789900  1
  O  O5  1  0.47846800  0.33180500  0.82338400  1
  O  O6  1  0.38312100  0.52651700  0.67690700  1
  O  O7  1  0.20921600  0.78206400  0.92450800  1
  O  O8  1  0.25897100  0.65558500  0.16607500  1
  O  O9  1  0.48346500  0.18249100  0.33041600  1
  O  O10  1  0.52114000  0.09752100  0.68349700  1
  O  O11  1  0.34070500  0.47370100  0.31703700  1
  O  O12  1  0.31424700  0.36113000  0.97254900  1
  O  O13  1  0.32913500  0.33784000  0.47116200  1
  O  O14  1  0.18420000  0.48935800  0.82313100  1
  O  O15  1  0.37956100  0.08819900  0.16740600  1
  O  O16  1  0.32242000  0.18868800  0.83703900  1
  O  O17  1  0.08495500  0.66011300  0.66071100  1
  O  O18  1  0.00311000  0.78982900  0.25452100  1
  O  O19  1  0.99208100  0.75705500  0.43288600  1
  O  O20  1  0.00283900  0.77083800  0.07643300  1
  O  O21  1  0.08920500  0.52785300  0.17611900  1
  O  O22  1  0.17988900  0.33568500  0.32757600  1
  O  O23  1  0.92187700  0.73577400  0.83302600  1
  O  O24  1  0.10192100  0.37846600  0.68008500  1
  O  O25  1  0.25491600  0.08033500  0.66182500  1
  O  O26  1  0.79463900  0.99793300  0.75262600  1
  O  O27  1  0.75633000  0.00378200  0.57589100  1
  O  O28  1  0.24274200  0.99465700  0.42395300  1
  O  O29  1  0.74435000  0.91837200  0.33931200  1
  O  O30  1  0.89997300  0.62012900  0.32079800  1
  O  O31  1  0.08223300  0.26104400  0.17358500  1
  O  O32  1  0.81920400  0.66283600  0.67783800  1
  O  O33  1  0.91885900  0.46216700  0.82610300  1
  O  O34  1  0.00569800  0.20354000  0.91458500  1
  O  O35  1  0.01432300  0.24624800  0.56210300  1
  O  O36  1  0.98794800  0.21388000  0.73781300  1
  O  O37  1  0.91420900  0.33991200  0.33930700  1
  O  O38  1  0.67647800  0.81362400  0.16567800  1
  O  O39  1  0.62163700  0.90604900  0.83053800  1
  O  O40  1  0.81423700  0.51784900  0.17748600  1
  O  O41  1  0.67678700  0.65633200  0.02625100  1
  O  O42  1  0.67749500  0.66389600  0.53056500  1
  O  O43  1  0.66166900  0.52306300  0.68120500  1
  O  O44  1  0.47879000  0.90062700  0.31780400  1
  O  O45  1  0.51642100  0.81609500  0.67128800  1
  O  O46  1  0.74076800  0.34324300  0.83345600  1
  O  O47  1  0.79603100  0.20667000  0.24954900  1
  O  O48  1  0.79378200  0.20273300  0.07287400  1
  O  O49  1  0.61805600  0.47133300  0.32219300  1
  O  O50  1  0.52077900  0.66834900  0.17621100  1
  O  O51  1  0.46397700  0.61525300  0.82910600  1
  O  O52  1  0.33956500  0.91274500  0.83848000  1
  O  O53  1  0.19729800  0.02902700  0.06849400  1
  O  O54  1  0.20681200  0.99650800  0.24734700  1
  O  O55  1  0.34391100  0.73939500  0.33157800  1
  O  O56  1  0.23507000  0.76970600  0.57219300  1
  O  O57  1  0.20739500  0.79282900  0.74801000  1
loop_
_geom_bond_atom_site_label_1
_geom_bond_atom_site_label_2
_geom_bond_distance
_geom_bond_site_symmetry_2
Li0 O0 1.883264 1_555
Li0 O27 2.046789 1_555
Li0 O29 2.117863 1_545
Li0 O9 2.349853 1_555
Li1 O7 1.909311 1_555
Li1 O20 2.056622 1_556
Li1 O23 2.274282 1_455
Li1 O14 2.376902 1_555
Li2 O34 1.968092 1_555
Li2 O53 1.996562 1_556
Li2 O16 2.146337 1_555
Li2 O52 2.162447 1_545
Li3 O19 1.883213 1_555
Li3 O27 1.998277 1_565
Li3 O17 2.060496 1_655
Li3 O32 2.506529 1_555
Li4 O35 1.900889 1_555
Li4 O28 2.018137 1_545
Li4 O37 2.028846 1_455
Li4 O22 2.309567 1_555
Li5 O2 2.005976 1_554
Li5 O20 2.031755 1_655
Li5 O3 2.134521 1_565
Li5 O38 2.141493 1_555
Li6 O56 1.887933 1_555
Li6 O28 1.991913 1_555
Li6 O25 2.145940 1_565
Li6 O45 2.430963 1_555
Li7 O48 1.897346 1_555
Li7 O34 2.024222 1_654
Li7 O53 2.193286 1_655
Li7 O2 2.577423 1_544
O0 P13 1.482127 1_555
O1 P1 1.540364 1_555
O1 V4 1.917027 1_555
O2 P8 1.493055 1_555
O3 P0 1.566569 1_555
O3 V2 1.920344 1_555
O4 P0 1.551427 1_555
O4 V5 1.913972 1_555
O5 P3 1.573668 1_555
O5 V4 1.879175 1_555
O6 P2 1.553845 1_555
O6 V4 1.877136 1_555
O7 P15 1.487722 1_555
O8 P5 1.539703 1_555
O8 V5 1.911976 1_555
O9 P4 1.575613 1_555
O9 V2 1.931670 1_555
O10 P1 1.555236 1_555
O10 V3 1.858871 1_545
O11 P4 1.587770 1_555
O11 V5 1.858043 1_555
O12 P3 1.490334 1_555
O13 P4 1.488928 1_555
O14 P3 1.606743 1_555
O14 V0 1.863416 1_555
O15 P7 1.523993 1_555
O15 V2 1.971705 1_555
O16 P3 1.556355 1_555
O16 V3 2.038628 1_545
O17 P2 1.562197 1_555
O17 V0 1.984825 1_555
O18 P5 1.602302 1_555
O18 P6 1.627364 1_455
O19 P6 1.484662 1_555
O20 P5 1.506847 1_555
O21 P5 1.552456 1_555
O21 V1 1.879247 1_455
O22 P4 1.576599 1_555
O22 V1 1.961363 1_455
O23 P8 1.572209 1_555
O23 V0 1.911763 1_655
O24 P9 1.566588 1_555
O24 V0 1.848181 1_555
O25 P9 1.548965 1_555
O25 V3 1.994369 1_545
O26 P1 1.613468 1_565
O26 P8 1.627383 1_555
O27 P1 1.500445 1_555
O28 P14 1.503094 1_555
O29 P6 1.549952 1_555
O29 V2 1.989929 1_565
O30 P6 1.551773 1_555
O30 V1 1.876096 1_555
O31 P7 1.560096 1_555
O31 V1 1.842730 1_455
O32 P11 1.597422 1_555
O32 V0 1.882165 1_655
O33 P10 1.559594 1_555
O33 V0 1.887565 1_655
O34 P10 1.492934 1_455
O35 P9 1.480339 1_555
O36 P9 1.610897 1_655
O36 P10 1.611621 1_555
O37 P13 1.557675 1_555
O37 V1 1.972851 1_555
O38 P12 1.559631 1_555
O38 V2 2.009072 1_565
O39 P8 1.527696 1_555
O39 V3 1.953232 1_555
O40 P12 1.608664 1_555
O40 V1 1.819487 1_555
O41 P12 1.485214 1_555
O42 P11 1.484971 1_555
O43 P11 1.574728 1_555
O43 V4 1.871603 1_555
O44 P14 1.549120 1_555
O44 V2 1.863282 1_565
O45 P11 1.568903 1_555
O45 V3 1.935456 1_555
O46 P10 1.542345 1_555
O46 V4 1.899534 1_555
O47 P13 1.610109 1_555
O47 P0 1.611846 1_555
O48 P0 1.478828 1_555
O49 P13 1.553709 1_555
O49 V5 1.870831 1_555
O50 P12 1.574947 1_555
O50 V5 1.885565 1_555
O51 P15 1.552162 1_555
O51 V4 1.903245 1_555
O52 P15 1.560480 1_555
O52 V3 1.944093 1_555
O53 P7 1.498743 1_555
O54 P14 1.612512 1_555
O54 P7 1.621429 1_565
O55 P14 1.539548 1_555
O55 V5 1.923703 1_555
O56 P2 1.481079 1_555
O57 P15 1.611749 1_555
O57 P2 1.613687 1_555
