# generated using pymatgen
data_CaNiGeH
_symmetry_space_group_name_H-M   'P 1'
_cell_length_a   4.01625600
_cell_length_b   4.01625600
_cell_length_c   7.80025200
_cell_angle_alpha   90.00000000
_cell_angle_beta   90.00000000
_cell_angle_gamma   90.00000000
_symmetry_Int_Tables_number   1
_chemical_formula_structural   CaNiGeH
_chemical_formula_sum   'Ca2 Ni2 Ge2 H2'
_cell_volume   125.82050045
_cell_formula_units_Z   2
loop_
 _symmetry_equiv_pos_site_id
 _symmetry_equiv_pos_as_xyz
  1  'x, y, z'
loop_
 _atom_site_type_symbol
 _atom_site_label
 _atom_site_symmetry_multiplicity
 _atom_site_fract_x
 _atom_site_fract_y
 _atom_site_fract_z
 _atom_site_occupancy
  Ca  Ca0  1  0.00000000  0.50000000  0.84857400  1
  Ca  Ca1  1  0.50000000  0.00000000  0.15142600  1
  Ni  Ni0  1  0.00000000  0.00000000  0.50000000  1
  Ni  Ni1  1  0.50000000  0.50000000  0.50000000  1
  Ge  Ge0  1  0.00000000  0.50000000  0.34299500  1
  Ge  Ge1  1  0.50000000  0.00000000  0.65700500  1
  H  H0  1  0.00000000  0.00000000  0.00000000  1
  H  H1  1  0.50000000  0.50000000  0.00000000  1
loop_
_geom_bond_atom_site_label_1
_geom_bond_atom_site_label_2
_geom_bond_distance
_geom_bond_site_symmetry_2
Ca0 H0 2.329747 1_566
Ca0 H1 2.329747 1_556
Ca0 H1 2.329747 1_456
Ca0 H0 2.329747 1_556
Ca0 Ge1 3.209057 1_565
Ca0 Ge1 3.209057 1_465
Ca0 Ge1 3.209057 1_455
Ca0 Ge1 3.209057 1_555
Ca1 H0 2.329747 1_555
Ca1 H0 2.329747 1_655
Ca1 H1 2.329747 1_545
Ca1 H1 2.329747 1_555
Ca1 Ge0 3.209057 1_645
Ca1 Ge0 3.209057 1_655
Ca1 Ge0 3.209057 1_545
Ca1 Ge0 3.209057 1_555
Ge0 Ni1 2.352109 1_455
Ge0 Ni1 2.352109 1_555
Ge0 Ni0 2.352109 1_555
Ge0 Ni0 2.352109 1_565
Ge1 Ni1 2.352109 1_545
Ge1 Ni1 2.352109 1_555
Ge1 Ni0 2.352109 1_655
Ge1 Ni0 2.352109 1_555
