# generated using pymatgen
data_Nd7Se4Cl3O17
_symmetry_space_group_name_H-M   'P 1'
_cell_length_a   7.02964300
_cell_length_b   9.59478636
_cell_length_c   15.86886263
_cell_angle_alpha   87.77130012
_cell_angle_beta   81.85382788
_cell_angle_gamma   84.65290255
_symmetry_Int_Tables_number   1
_chemical_formula_structural   Nd7Se4Cl3O17
_chemical_formula_sum   'Nd14 Se8 Cl6 O34'
_cell_volume   1054.55323407
_cell_formula_units_Z   2
loop_
 _symmetry_equiv_pos_site_id
 _symmetry_equiv_pos_as_xyz
  1  'x, y, z'
loop_
 _atom_site_type_symbol
 _atom_site_label
 _atom_site_symmetry_multiplicity
 _atom_site_fract_x
 _atom_site_fract_y
 _atom_site_fract_z
 _atom_site_occupancy
  Nd  Nd0  1  0.87343800  0.15977900  0.54587800  1
  Nd  Nd1  1  0.12656200  0.84022100  0.45412200  1
  Nd  Nd2  1  0.61338500  0.15979700  0.80900000  1
  Nd  Nd3  1  0.38661500  0.84020300  0.19100000  1
  Nd  Nd4  1  0.62057000  0.99349700  0.36609000  1
  Nd  Nd5  1  0.37943000  0.00650300  0.63391000  1
  Nd  Nd6  1  0.86475100  0.99688700  0.12860900  1
  Nd  Nd7  1  0.13524900  0.00311300  0.87139100  1
  Nd  Nd8  1  0.37077900  0.16091200  0.05171500  1
  Nd  Nd9  1  0.62922100  0.83908800  0.94828500  1
  Nd  Nd10  1  0.87287100  0.84484800  0.69263800  1
  Nd  Nd11  1  0.12712900  0.15515200  0.30736200  1
  Nd  Nd12  1  0.83170800  0.63933500  0.25463600  1
  Nd  Nd13  1  0.16829200  0.36066500  0.74536400  1
  Se  Se0  1  0.64722500  0.28670200  0.23262500  1
  Se  Se1  1  0.35277500  0.71329800  0.76737500  1
  Se  Se2  1  0.64060400  0.71023300  0.49747300  1
  Se  Se3  1  0.35939600  0.28976700  0.50252700  1
  Se  Se4  1  0.70533500  0.44593000  0.66512700  1
  Se  Se5  1  0.29466500  0.55407000  0.33487300  1
  Se  Se6  1  0.11632100  0.70765900  0.03883900  1
  Se  Se7  1  0.88367900  0.29234100  0.96116100  1
  Cl  Cl0  1  0.85119100  0.40341200  0.37607000  1
  Cl  Cl1  1  0.14880900  0.59658800  0.62393000  1
  Cl  Cl2  1  0.70257700  0.60687800  0.08592400  1
  Cl  Cl3  1  0.29742300  0.39312200  0.91407600  1
  Cl  Cl4  1  0.87265700  0.60626800  0.83009800  1
  Cl  Cl5  1  0.12734300  0.39373200  0.16990200  1
  O  O0  1  0.69510900  0.86888500  0.23849000  1
  O  O1  1  0.30489100  0.13111500  0.76151000  1
  O  O2  1  0.58083600  0.95860500  0.07593500  1
  O  O3  1  0.41916400  0.04139500  0.92406500  1
  O  O4  1  0.68853300  0.05155600  0.66387500  1
  O  O5  1  0.31146700  0.94844400  0.33612500  1
  O  O6  1  0.81083300  0.95774600  0.83098000  1
  O  O7  1  0.18916700  0.04225400  0.16902000  1
  O  O8  1  0.08018300  0.96584000  0.58328500  1
  O  O9  1  0.91981700  0.03416000  0.41671500  1
  O  O10  1  0.61459600  0.22414400  0.13698600  1
  O  O11  1  0.38540400  0.77585600  0.86301400  1
  O  O12  1  0.45927200  0.22777500  0.30308700  1
  O  O13  1  0.54072800  0.77222500  0.69691300  1
  O  O14  1  0.81682800  0.14704700  0.25570800  1
  O  O15  1  0.18317200  0.85295300  0.74429200  1
  O  O16  1  0.81347800  0.77616900  0.54767900  1
  O  O17  1  0.18652200  0.22383100  0.45232100  1
  O  O18  1  0.75154000  0.74644400  0.39474500  1
  O  O19  1  0.24846000  0.25355600  0.60525500  1
  O  O20  1  0.46543700  0.85601500  0.50200600  1
  O  O21  1  0.53456300  0.14398500  0.49799400  1
  O  O22  1  0.67972900  0.38695400  0.56823100  1
  O  O23  1  0.32027100  0.61304600  0.43176900  1
  O  O24  1  0.50595200  0.39140400  0.73155900  1
  O  O25  1  0.49404800  0.60859600  0.26844100  1
  O  O26  1  0.87275300  0.31155900  0.69427100  1
  O  O27  1  0.12724700  0.68844100  0.30572900  1
  O  O28  1  0.33412800  0.77264400  0.03791000  1
  O  O29  1  0.66587200  0.22735600  0.96209000  1
  O  O30  1  0.04059100  0.75577500  0.14481900  1
  O  O31  1  0.95940900  0.24422500  0.85518100  1
  O  O32  1  0.98339200  0.84853000  0.99117400  1
  O  O33  1  0.01660800  0.15147000  0.00882600  1
loop_
_geom_bond_atom_site_label_1
_geom_bond_atom_site_label_2
_geom_bond_distance
_geom_bond_site_symmetry_2
Nd0 O8 2.362564 1_645
Nd0 O4 2.384218 1_555
Nd0 O9 2.385305 1_555
Nd0 O22 2.470060 1_555
Nd0 O17 2.584725 1_655
Nd0 O21 2.619984 1_555
Nd0 O26 2.815713 1_555
Nd1 O9 2.362564 1_465
Nd1 O5 2.384218 1_555
Nd1 O8 2.385305 1_555
Nd1 O23 2.470060 1_555
Nd1 O16 2.584725 1_455
Nd1 O20 2.619984 1_555
Nd1 O27 2.815713 1_555
Nd2 O6 2.321548 1_545
Nd2 O3 2.431045 1_555
Nd2 O1 2.436599 1_555
Nd2 O4 2.529883 1_555
Nd2 O24 2.599353 1_555
Nd2 O29 2.622824 1_555
Nd2 O31 2.833470 1_555
Nd2 O26 2.847304 1_555
Nd3 O7 2.321548 1_565
Nd3 O2 2.431045 1_555
Nd3 O0 2.436599 1_555
Nd3 O5 2.529883 1_555
Nd3 O25 2.599353 1_555
Nd3 O28 2.622824 1_555
Nd3 O30 2.833470 1_555
Nd3 O27 2.847304 1_555
Nd4 O0 2.361146 1_555
Nd4 O5 2.370287 1_555
Nd4 O9 2.424667 1_565
Nd4 O18 2.510252 1_555
Nd4 O21 2.558407 1_565
Nd4 O14 2.575927 1_565
Nd4 O20 2.638462 1_555
Nd4 O12 2.647543 1_565
Nd5 O1 2.361146 1_555
Nd5 O4 2.370287 1_555
Nd5 O8 2.424667 1_545
Nd5 O19 2.510252 1_555
Nd5 O20 2.558407 1_545
Nd5 O15 2.575927 1_545
Nd5 O21 2.638462 1_555
Nd5 O13 2.647543 1_545
Nd6 O2 2.334566 1_555
Nd6 O0 2.342654 1_555
Nd6 O14 2.490020 1_565
Nd6 O7 2.534305 1_665
Nd6 O33 2.540334 1_665
Nd6 O30 2.541035 1_655
Nd6 O32 2.642534 1_554
Nd6 O10 2.665736 1_565
Nd7 O3 2.334566 1_555
Nd7 O1 2.342654 1_555
Nd7 O15 2.490020 1_545
Nd7 O6 2.534305 1_445
Nd7 O32 2.540334 1_445
Nd7 O31 2.541035 1_455
Nd7 O33 2.642534 1_556
Nd7 O11 2.665736 1_545
Nd8 O3 2.333820 1_554
Nd8 O2 2.380039 1_545
Nd8 O7 2.413254 1_555
Nd8 O10 2.460008 1_555
Nd8 O29 2.464181 1_554
Nd8 O33 2.682733 1_555
Nd9 O2 2.333820 1_556
Nd9 O3 2.380039 1_565
Nd9 O6 2.413254 1_555
Nd9 O11 2.460008 1_555
Nd9 O28 2.464181 1_556
Nd9 O32 2.682733 1_555
Nd10 O4 2.332226 1_565
Nd10 O8 2.434074 1_655
Nd10 O15 2.445265 1_655
Nd10 O6 2.451253 1_555
Nd10 O13 2.489237 1_555
Nd10 O16 2.518221 1_555
Nd11 O5 2.332226 1_545
Nd11 O9 2.434074 1_455
Nd11 O14 2.445265 1_455
Nd11 O7 2.451253 1_555
Nd11 O12 2.489237 1_555
Nd11 O17 2.518221 1_555
Nd12 O0 2.338868 1_555
Nd12 O25 2.397328 1_555
Nd12 O30 2.422877 1_655
Nd12 O27 2.425908 1_655
Nd12 O18 2.455970 1_555
Nd13 O1 2.338868 1_555
Nd13 O24 2.397328 1_555
Nd13 O31 2.422877 1_455
Nd13 O26 2.425908 1_455
Nd13 O19 2.455970 1_555
Cl0 Nd12 2.921290 1_555
Cl0 Nd11 3.060524 1_655
Cl1 Nd13 2.921290 1_555
Cl1 Nd10 3.060524 1_455
Cl2 Nd12 2.982451 1_555
Cl2 Nd9 3.118832 1_554
Cl2 Nd3 3.322565 1_555
Cl3 Nd13 2.982451 1_555
Cl3 Nd8 3.118832 1_556
Cl3 Nd2 3.322565 1_555
Cl4 Nd10 3.099944 1_555
Cl4 Nd9 3.184314 1_555
Cl4 Nd13 3.197167 1_655
Cl5 Nd11 3.099944 1_555
Cl5 Nd8 3.184314 1_555
Cl5 Nd12 3.197167 1_455
O10 Se0 1.706286 1_555
O11 Se1 1.706286 1_555
O12 Se0 1.728292 1_555
O13 Se1 1.728292 1_555
O14 Se0 1.771713 1_555
O15 Se1 1.771713 1_555
O16 Se2 1.722985 1_555
O17 Se3 1.722985 1_555
O18 Se2 1.741410 1_555
O19 Se3 1.741410 1_555
O20 Se2 1.771901 1_555
O21 Se3 1.771901 1_555
O22 Se4 1.697645 1_555
O23 Se5 1.697645 1_555
O24 Se4 1.739118 1_555
O25 Se5 1.739118 1_555
O26 Se4 1.756767 1_555
O27 Se5 1.756767 1_555
O28 Se6 1.704140 1_555
O29 Se7 1.704140 1_555
O30 Se6 1.756638 1_555
O31 Se7 1.756638 1_555
O32 Se6 1.776963 1_656
O33 Se7 1.776963 1_454
