# generated using pymatgen
data_Pr2P2OsO
_symmetry_space_group_name_H-M   'P 1'
_cell_length_a   6.28103000
_cell_length_b   6.28103000
_cell_length_c   29.29157200
_cell_angle_alpha   90.00000000
_cell_angle_beta   90.00000000
_cell_angle_gamma   90.00000000
_symmetry_Int_Tables_number   1
_chemical_formula_structural   Pr2P2OsO
_chemical_formula_sum   'Pr16 P16 Os8 O8'
_cell_volume   1155.59170345
_cell_formula_units_Z   8
loop_
 _symmetry_equiv_pos_site_id
 _symmetry_equiv_pos_as_xyz
  1  'x, y, z'
loop_
 _atom_site_type_symbol
 _atom_site_label
 _atom_site_symmetry_multiplicity
 _atom_site_fract_x
 _atom_site_fract_y
 _atom_site_fract_z
 _atom_site_occupancy
  Pr  Pr0_0  1  0.25000000  0.25000000  0.32257100  1
  Pr  Pr0_1  1  0.25000000  0.25000000  0.82257100  1
  Pr  Pr0_2  1  0.25000000  0.75000000  0.32257100  1
  Pr  Pr0_3  1  0.25000000  0.75000000  0.82257100  1
  Pr  Pr0_4  1  0.75000000  0.25000000  0.32257100  1
  Pr  Pr0_5  1  0.75000000  0.25000000  0.82257100  1
  Pr  Pr0_6  1  0.75000000  0.75000000  0.32257100  1
  Pr  Pr0_7  1  0.75000000  0.75000000  0.82257100  1
  Pr  Pr1_0  1  0.25000000  0.25000000  0.17742900  1
  Pr  Pr1_1  1  0.25000000  0.25000000  0.67742900  1
  Pr  Pr1_2  1  0.25000000  0.75000000  0.17742900  1
  Pr  Pr1_3  1  0.25000000  0.75000000  0.67742900  1
  Pr  Pr1_4  1  0.75000000  0.25000000  0.17742900  1
  Pr  Pr1_5  1  0.75000000  0.25000000  0.67742900  1
  Pr  Pr1_6  1  0.75000000  0.75000000  0.17742900  1
  Pr  Pr1_7  1  0.75000000  0.75000000  0.67742900  1
  P  P0_0  1  0.25000000  0.25000000  0.07608450  1
  P  P0_1  1  0.25000000  0.25000000  0.57608450  1
  P  P0_2  1  0.25000000  0.75000000  0.07608450  1
  P  P0_3  1  0.25000000  0.75000000  0.57608450  1
  P  P0_4  1  0.75000000  0.25000000  0.07608450  1
  P  P0_5  1  0.75000000  0.25000000  0.57608450  1
  P  P0_6  1  0.75000000  0.75000000  0.07608450  1
  P  P0_7  1  0.75000000  0.75000000  0.57608450  1
  P  P1_0  1  0.25000000  0.25000000  0.42391550  1
  P  P1_1  1  0.25000000  0.25000000  0.92391550  1
  P  P1_2  1  0.25000000  0.75000000  0.42391550  1
  P  P1_3  1  0.25000000  0.75000000  0.92391550  1
  P  P1_4  1  0.75000000  0.25000000  0.42391550  1
  P  P1_5  1  0.75000000  0.25000000  0.92391550  1
  P  P1_6  1  0.75000000  0.75000000  0.42391550  1
  P  P1_7  1  0.75000000  0.75000000  0.92391550  1
  Os  Os0_0  1  0.25000000  0.25000000  0.00000000  1
  Os  Os0_1  1  0.25000000  0.25000000  0.50000000  1
  Os  Os0_2  1  0.25000000  0.75000000  0.00000000  1
  Os  Os0_3  1  0.25000000  0.75000000  0.50000000  1
  Os  Os0_4  1  0.75000000  0.25000000  0.00000000  1
  Os  Os0_5  1  0.75000000  0.25000000  0.50000000  1
  Os  Os0_6  1  0.75000000  0.75000000  0.00000000  1
  Os  Os0_7  1  0.75000000  0.75000000  0.50000000  1
  O  O0_0  1  0.25000000  0.25000000  0.25000000  1
  O  O0_1  1  0.25000000  0.25000000  0.75000000  1
  O  O0_2  1  0.25000000  0.75000000  0.25000000  1
  O  O0_3  1  0.25000000  0.75000000  0.75000000  1
  O  O0_4  1  0.75000000  0.25000000  0.25000000  1
  O  O0_5  1  0.75000000  0.25000000  0.75000000  1
  O  O0_6  1  0.75000000  0.75000000  0.25000000  1
  O  O0_7  1  0.75000000  0.75000000  0.75000000  1
loop_
_geom_bond_atom_site_label_1
_geom_bond_atom_site_label_2
_geom_bond_distance
_geom_bond_site_symmetry_2
P0_0 Pr1_0 2.968540 1_555
P0_1 Pr1_1 2.968540 1_555
P0_2 Pr1_2 2.968540 1_555
P0_3 Pr1_3 2.968540 1_555
P0_4 Pr1_4 2.968540 1_555
P0_5 Pr1_5 2.968540 1_555
P0_6 Pr1_6 2.968540 1_555
P0_7 Pr1_7 2.968540 1_555
P1_0 Pr0_0 2.968540 1_555
P1_1 Pr0_1 2.968540 1_555
P1_2 Pr0_2 2.968540 1_555
P1_3 Pr0_3 2.968540 1_555
P1_4 Pr0_4 2.968540 1_555
P1_5 Pr0_5 2.968540 1_555
P1_6 Pr0_6 2.968540 1_555
P1_7 Pr0_7 2.968540 1_555
Os0_0 P0_0 2.228635 1_555
Os0_0 P1_1 2.228635 1_554
Os0_0 Os0_2 3.140515 1_555
Os0_0 Os0_4 3.140515 1_555
Os0_0 Os0_4 3.140515 1_455
Os0_0 Os0_2 3.140515 1_545
Os0_1 P0_1 2.228635 1_555
Os0_1 P1_0 2.228635 1_555
Os0_1 Os0_5 3.140515 1_555
Os0_1 Os0_3 3.140515 1_555
Os0_1 Os0_3 3.140515 1_545
Os0_1 Os0_5 3.140515 1_455
Os0_2 P1_3 2.228635 1_554
Os0_2 P0_2 2.228635 1_555
Os0_2 Os0_6 3.140515 1_555
Os0_2 Os0_6 3.140515 1_455
Os0_3 P0_3 2.228635 1_555
Os0_3 P1_2 2.228635 1_555
Os0_3 Os0_7 3.140515 1_555
Os0_3 Os0_7 3.140515 1_455
Os0_4 P0_4 2.228635 1_555
Os0_4 P1_5 2.228635 1_554
Os0_4 Os0_6 3.140515 1_555
Os0_4 Os0_6 3.140515 1_545
Os0_5 P1_4 2.228635 1_555
Os0_5 P0_5 2.228635 1_555
Os0_5 Os0_7 3.140515 1_555
Os0_5 Os0_7 3.140515 1_545
Os0_6 P0_6 2.228635 1_555
Os0_6 P1_7 2.228635 1_554
Os0_7 P0_7 2.228635 1_555
Os0_7 P1_6 2.228635 1_555
O0_0 Pr1_0 2.125719 1_555
O0_0 Pr0_0 2.125719 1_555
O0_1 Pr1_1 2.125719 1_555
O0_1 Pr0_1 2.125719 1_555
O0_2 Pr0_2 2.125719 1_555
O0_2 Pr1_2 2.125719 1_555
O0_3 Pr1_3 2.125719 1_555
O0_3 Pr0_3 2.125719 1_555
O0_4 Pr1_4 2.125719 1_555
O0_4 Pr0_4 2.125719 1_555
O0_5 Pr1_5 2.125719 1_555
O0_5 Pr0_5 2.125719 1_555
O0_6 Pr1_6 2.125719 1_555
O0_6 Pr0_6 2.125719 1_555
O0_7 Pr1_7 2.125719 1_555
O0_7 Pr0_7 2.125719 1_555
