# generated using pymatgen
data_Ca4CoN4
_symmetry_space_group_name_H-M   'P 1'
_cell_length_a   5.93736264
_cell_length_b   6.03601493
_cell_length_c   8.26770662
_cell_angle_alpha   71.75327090
_cell_angle_beta   81.40428677
_cell_angle_gamma   70.63341676
_symmetry_Int_Tables_number   1
_chemical_formula_structural   Ca4CoN4
_chemical_formula_sum   'Ca8 Co2 N8'
_cell_volume   265.13224160
_cell_formula_units_Z   2
loop_
 _symmetry_equiv_pos_site_id
 _symmetry_equiv_pos_as_xyz
  1  'x, y, z'
loop_
 _atom_site_type_symbol
 _atom_site_label
 _atom_site_symmetry_multiplicity
 _atom_site_fract_x
 _atom_site_fract_y
 _atom_site_fract_z
 _atom_site_occupancy
  Ca  Ca0  1  0.79454264  0.56147586  0.14987907  1
  Ca  Ca1  1  0.20545736  0.43852414  0.85012093  1
  Ca  Ca2  1  0.71429132  0.19343389  0.96792354  1
  Ca  Ca3  1  0.28570868  0.80656611  0.03207646  1
  Ca  Ca4  1  0.72992293  0.49631226  0.56697648  1
  Ca  Ca5  1  0.27007707  0.50368774  0.43302352  1
  Ca  Ca6  1  0.22563359  0.95600018  0.62575984  1
  Ca  Ca7  1  0.77436641  0.04399982  0.37424016  1
  Co  Co0  1  0.73194085  0.84834310  0.75317953  1
  Co  Co1  1  0.26805915  0.15165690  0.24682047  1
  N  N0  1  0.98073500  0.70458467  0.60748990  1
  N  N1  1  0.01926500  0.29541533  0.39251010  1
  N  N2  1  0.95271475  0.82631915  0.90086260  1
  N  N3  1  0.04728525  0.17368085  0.09913740  1
  N  N4  1  0.54729696  0.64030320  0.80894332  1
  N  N5  1  0.45270304  0.35969680  0.19105668  1
  N  N6  1  0.48586259  0.83879434  0.31409291  1
  N  N7  1  0.51413741  0.16120566  0.68590709  1
loop_
_geom_bond_atom_site_label_1
_geom_bond_atom_site_label_2
_geom_bond_distance
_geom_bond_site_symmetry_2
Ca0 N1 2.396857 1_655
Ca0 N3 2.450318 1_655
Ca0 N2 2.456183 1_554
Ca0 N6 2.578539 1_555
Ca0 N5 2.625247 1_555
Ca1 N0 2.396857 1_455
Ca1 N2 2.450318 1_455
Ca1 N3 2.456183 1_556
Ca1 N7 2.578539 1_555
Ca1 N4 2.625247 1_555
Ca2 N3 2.346026 1_656
Ca2 N2 2.382419 1_545
Ca2 N5 2.468160 1_556
Ca2 N4 2.526242 1_555
Ca2 N7 2.855212 1_555
Ca3 N2 2.346026 1_454
Ca3 N3 2.382419 1_565
Ca3 N4 2.468160 1_554
Ca3 N5 2.526242 1_555
Ca3 N6 2.855212 1_555
Ca4 N1 2.339942 1_655
Ca4 N0 2.358937 1_555
Ca4 N4 2.397611 1_555
Ca4 N7 2.606977 1_555
Ca4 N6 2.637592 1_555
Ca5 N0 2.339942 1_455
Ca5 N1 2.358937 1_555
Ca5 N5 2.397611 1_555
Ca5 N6 2.606977 1_555
Ca5 N7 2.637592 1_555
Ca6 N1 2.446389 1_565
Ca6 N0 2.472386 1_455
Ca6 N4 2.493198 1_555
Ca6 N7 2.600612 1_565
Ca6 N2 2.652602 1_455
Ca6 N6 2.958718 1_555
Ca7 N0 2.446389 1_545
Ca7 N1 2.472386 1_655
Ca7 N5 2.493198 1_555
Ca7 N6 2.600612 1_545
Ca7 N3 2.652602 1_655
Ca7 N7 2.958718 1_555
Co0 N4 1.841382 1_555
Co0 N7 1.866946 1_565
Co0 N2 1.867608 1_555
Co0 N0 1.912700 1_555
Co1 N5 1.841382 1_555
Co1 N6 1.866946 1_545
Co1 N3 1.867608 1_555
Co1 N1 1.912700 1_555
