# generated using pymatgen
data_CeTl2(PO3)5
_symmetry_space_group_name_H-M   'P 1'
_cell_length_a   7.38236765
_cell_length_b   7.38236765
_cell_length_c   13.50352191
_cell_angle_alpha   89.49487050
_cell_angle_beta   89.49487050
_cell_angle_gamma   107.80528543
_symmetry_Int_Tables_number   1
_chemical_formula_structural   CeTl2(PO3)5
_chemical_formula_sum   'Ce2 Tl4 P10 O30'
_cell_volume   700.60441933
_cell_formula_units_Z   2
loop_
 _symmetry_equiv_pos_site_id
 _symmetry_equiv_pos_as_xyz
  1  'x, y, z'
loop_
 _atom_site_type_symbol
 _atom_site_label
 _atom_site_symmetry_multiplicity
 _atom_site_fract_x
 _atom_site_fract_y
 _atom_site_fract_z
 _atom_site_occupancy
  Ce  Ce0  1  0.17600700  0.98543800  0.31037900  1
  Ce  Ce1  1  0.98543800  0.17600700  0.81037900  1
  Tl  Tl0  1  0.77569300  0.36517400  0.31680300  1
  Tl  Tl1  1  0.52906500  0.29187300  0.61316000  1
  Tl  Tl2  1  0.36517400  0.77569300  0.81680300  1
  Tl  Tl3  1  0.29187300  0.52906500  0.11316000  1
  P  P0  1  0.08729600  0.48019100  0.57461500  1
  P  P1  1  0.69928700  0.84918700  0.61845500  1
  P  P2  1  0.10985900  0.89424700  0.59103600  1
  P  P3  1  0.63173700  0.87156300  0.40045400  1
  P  P4  1  0.48019100  0.08729600  0.07461500  1
  P  P5  1  0.84918700  0.69928700  0.11845500  1
  P  P6  1  0.87156300  0.63173700  0.90045400  1
  P  P7  1  0.89424700  0.10985900  0.09103600  1
  P  P8  1  0.51999100  0.30613800  0.88900200  1
  P  P9  1  0.30613800  0.51999100  0.38900200  1
  O  O0  1  0.80764900  0.88486300  0.07720000  1
  O  O1  1  0.16823400  0.70316200  0.60296600  1
  O  O2  1  0.83495700  0.90681200  0.36891900  1
  O  O3  1  0.10273800  0.37304200  0.66761600  1
  O  O4  1  0.75091200  0.02307000  0.68316000  1
  O  O5  1  0.02307000  0.75091200  0.18316000  1
  O  O6  1  0.30089400  0.33686500  0.33736200  1
  O  O7  1  0.56539500  0.66840900  0.65886500  1
  O  O8  1  0.46673600  0.26149000  0.00448500  1
  O  O9  1  0.19139700  0.63965100  0.35016100  1
  O  O10  1  0.61660000  0.91255400  0.51719400  1
  O  O11  1  0.51432300  0.97832400  0.34976600  1
  O  O12  1  0.88486300  0.80764900  0.57720000  1
  O  O13  1  0.91255400  0.61660000  0.01719400  1
  O  O14  1  0.66840900  0.56539500  0.15886500  1
  O  O15  1  0.53026700  0.64252700  0.39291800  1
  O  O16  1  0.63965100  0.19139700  0.85016100  1
  O  O17  1  0.15529700  0.99670900  0.68815600  1
  O  O18  1  0.99819800  0.19661800  0.99752600  1
  O  O19  1  0.19661800  0.99819800  0.49752600  1
  O  O20  1  0.70316200  0.16823400  0.10296600  1
  O  O21  1  0.90578500  0.43174000  0.51903700  1
  O  O22  1  0.97832400  0.51432300  0.84976600  1
  O  O23  1  0.43174000  0.90578500  0.01903700  1
  O  O24  1  0.37304200  0.10273800  0.16761600  1
  O  O25  1  0.64252700  0.53026700  0.89291800  1
  O  O26  1  0.33686500  0.30089400  0.83736200  1
  O  O27  1  0.26149000  0.46673600  0.50448500  1
  O  O28  1  0.90681200  0.83495700  0.86891900  1
  O  O29  1  0.99670900  0.15529700  0.18815600  1
loop_
_geom_bond_atom_site_label_1
_geom_bond_atom_site_label_2
_geom_bond_distance
_geom_bond_site_symmetry_2
Ce0 O24 2.394349 1_565
Ce0 O5 2.472790 1_555
Ce0 O6 2.504652 1_565
Ce0 O2 2.522689 1_455
Ce0 O19 2.533908 1_555
Ce0 O11 2.574229 1_555
Ce0 O9 2.640487 1_555
Ce0 O29 2.658103 1_465
Ce1 O3 2.394349 1_655
Ce1 O4 2.472790 1_555
Ce1 O26 2.504652 1_655
Ce1 O28 2.522689 1_545
Ce1 O18 2.533908 1_555
Ce1 O22 2.574229 1_555
Ce1 O16 2.640487 1_555
Ce1 O17 2.658103 1_645
O0 P5 1.589884 1_555
O0 P7 1.600222 1_565
O1 P2 1.603317 1_555
O1 P0 1.620718 1_555
O2 P3 1.499271 1_555
O3 P0 1.501996 1_555
O4 P1 1.510939 1_545
O5 P5 1.510939 1_455
O6 P9 1.516737 1_555
O7 P1 1.492233 1_555
O7 Tl1 2.785131 1_555
O8 P8 1.611179 1_554
O8 P4 1.618236 1_555
O9 P9 1.493396 1_555
O10 P3 1.617123 1_555
O10 P1 1.624580 1_555
O11 P3 1.503247 1_555
O12 P1 1.589884 1_555
O12 P2 1.600222 1_655
O13 P6 1.617123 1_554
O13 P5 1.624580 1_555
O14 P5 1.492233 1_555
O14 Tl3 2.785131 1_555
O15 P9 1.626602 1_555
O15 P3 1.631002 1_555
O16 P8 1.493396 1_555
O17 P2 1.508206 1_555
O18 P7 1.503876 1_556
O19 P2 1.503876 1_555
O20 P7 1.603317 1_555
O20 P4 1.620718 1_555
O21 P0 1.488651 1_655
O22 P6 1.503247 1_555
O23 P4 1.488651 1_565
O24 P4 1.501996 1_555
O25 P8 1.626602 1_555
O25 P6 1.631002 1_555
O26 P8 1.516737 1_555
O27 P9 1.611179 1_555
O27 P0 1.618236 1_555
O28 P6 1.499271 1_555
O29 P7 1.508206 1_555
