# generated using pymatgen
data_Zr2Cr3Si
_symmetry_space_group_name_H-M   'P 1'
_cell_length_a   4.99475276
_cell_length_b   4.99475276
_cell_length_c   8.40830700
_cell_angle_alpha   90.00000000
_cell_angle_beta   90.00000000
_cell_angle_gamma   120.00001012
_symmetry_Int_Tables_number   1
_chemical_formula_structural   Zr2Cr3Si
_chemical_formula_sum   'Zr4 Cr6 Si2'
_cell_volume   181.66327498
_cell_formula_units_Z   2
loop_
 _symmetry_equiv_pos_site_id
 _symmetry_equiv_pos_as_xyz
  1  'x, y, z'
loop_
 _atom_site_type_symbol
 _atom_site_label
 _atom_site_symmetry_multiplicity
 _atom_site_fract_x
 _atom_site_fract_y
 _atom_site_fract_z
 _atom_site_occupancy
  Zr  Zr0  1  0.33333300  0.66666700  0.43632200  1
  Zr  Zr1  1  0.66666700  0.33333300  0.56367800  1
  Zr  Zr2  1  0.66666700  0.33333300  0.93632200  1
  Zr  Zr3  1  0.33333300  0.66666700  0.06367800  1
  Cr  Cr0  1  0.82844300  0.17155700  0.25000000  1
  Cr  Cr1  1  0.82844300  0.65688500  0.25000000  1
  Cr  Cr2  1  0.34311500  0.17155700  0.25000000  1
  Cr  Cr3  1  0.17155700  0.82844300  0.75000000  1
  Cr  Cr4  1  0.17155700  0.34311500  0.75000000  1
  Cr  Cr5  1  0.65688500  0.82844300  0.75000000  1
  Si  Si0  1  0.00000000  0.00000000  0.50000000  1
  Si  Si1  1  0.00000000  0.00000000  0.00000000  1
loop_
_geom_bond_atom_site_label_1
_geom_bond_atom_site_label_2
_geom_bond_distance
_geom_bond_site_symmetry_2
Zr0 Zr1 3.076126 1_455
Zr0 Zr1 3.076126 1_565
Zr0 Zr1 3.076134 1_555
Zr0 Zr3 3.133305 1_555
Zr1 Zr2 3.133305 1_555
Zr2 Zr3 3.076126 1_546
Zr2 Zr3 3.076126 1_656
Zr2 Zr3 3.076134 1_556
Cr0 Cr1 2.424093 1_555
Cr0 Cr2 2.424093 1_555
Cr0 Cr1 2.570659 1_545
Cr0 Cr2 2.570659 1_655
Cr0 Si1 2.573224 1_655
Cr0 Si0 2.573224 1_655
Cr0 Zr0 2.948402 1_655
Cr0 Zr3 2.948402 1_655
Cr0 Zr3 2.948402 1_545
Cr0 Zr0 2.948402 1_545
Cr0 Zr1 2.985826 1_555
Cr0 Zr2 2.985826 1_554
Cr1 Cr2 2.424093 1_555
Cr1 Cr2 2.570659 1_665
Cr1 Si1 2.573226 1_665
Cr1 Si0 2.573226 1_665
Cr1 Zr3 2.948399 1_655
Cr1 Zr0 2.948399 1_655
Cr1 Zr3 2.948407 1_555
Cr1 Zr0 2.948407 1_555
Cr1 Zr1 2.985825 1_555
Cr1 Zr2 2.985825 1_554
Cr2 Si1 2.573226 1_555
Cr2 Si0 2.573226 1_555
Cr2 Zr3 2.948399 1_545
Cr2 Zr0 2.948399 1_545
Cr2 Zr0 2.948407 1_555
Cr2 Zr3 2.948407 1_555
Cr2 Zr1 2.985825 1_555
Cr2 Zr2 2.985825 1_554
Cr3 Cr5 2.424093 1_555
Cr3 Cr4 2.424093 1_555
Cr3 Cr5 2.570659 1_455
Cr3 Cr4 2.570659 1_565
Cr3 Si1 2.573224 1_566
Cr3 Si0 2.573224 1_565
Cr3 Zr1 2.948402 1_455
Cr3 Zr2 2.948402 1_455
Cr3 Zr1 2.948402 1_565
Cr3 Zr2 2.948402 1_565
Cr3 Zr3 2.985826 1_556
Cr3 Zr0 2.985826 1_555
Cr4 Cr5 2.424093 1_555
Cr4 Cr5 2.570659 1_445
Cr4 Si0 2.573226 1_555
Cr4 Si1 2.573226 1_556
Cr4 Zr1 2.948399 1_455
Cr4 Zr2 2.948399 1_455
Cr4 Zr1 2.948407 1_555
Cr4 Zr2 2.948407 1_555
Cr4 Zr3 2.985825 1_556
Cr4 Zr0 2.985825 1_555
Cr5 Si1 2.573226 1_666
Cr5 Si0 2.573226 1_665
Cr5 Zr1 2.948399 1_565
Cr5 Zr2 2.948399 1_565
Cr5 Zr1 2.948407 1_555
Cr5 Zr2 2.948407 1_555
Cr5 Zr3 2.985825 1_556
Cr5 Zr0 2.985825 1_555
Si0 Zr1 2.933004 1_455
Si0 Zr0 2.933004 1_545
Si0 Zr0 2.933008 1_445
Si0 Zr0 2.933008 1_555
Si0 Zr1 2.933008 1_445
Si0 Zr1 2.933008 1_555
Si1 Zr2 2.933004 1_454
Si1 Zr3 2.933004 1_545
Si1 Zr2 2.933008 1_554
Si1 Zr3 2.933008 1_555
Si1 Zr2 2.933008 1_444
Si1 Zr3 2.933008 1_445
