# generated using pymatgen
data_Na8Zr3Ti3Mn2Si8(O17F)2
_symmetry_space_group_name_H-M   'P 1'
_cell_length_a   5.59540900
_cell_length_b   7.14603259
_cell_length_c   18.24198815
_cell_angle_alpha   90.21877773
_cell_angle_beta   94.53955387
_cell_angle_gamma   90.16487919
_symmetry_Int_Tables_number   1
_chemical_formula_structural   Na8Zr3Ti3Mn2Si8(O17F)2
_chemical_formula_sum   'Na8 Zr3 Ti3 Mn2 Si8 O34 F2'
_cell_volume   727.10824666
_cell_formula_units_Z   1
loop_
 _symmetry_equiv_pos_site_id
 _symmetry_equiv_pos_as_xyz
  1  'x, y, z'
loop_
 _atom_site_type_symbol
 _atom_site_label
 _atom_site_symmetry_multiplicity
 _atom_site_fract_x
 _atom_site_fract_y
 _atom_site_fract_z
 _atom_site_occupancy
  Na  Na0  1  0.63258800  0.61061300  0.42682600  1
  Na  Na1  1  0.87465000  0.61633100  0.06779200  1
  Na  Na2  1  0.36887500  0.38520400  0.56874800  1
  Na  Na3  1  0.13161400  0.38933200  0.92705000  1
  Na  Na4  1  0.74528500  0.84125500  0.24991400  1
  Na  Na5  1  0.24522600  0.15953500  0.75308300  1
  Na  Na6  1  0.25441700  0.60904200  0.25050200  1
  Na  Na7  1  0.75273000  0.38999500  0.75196100  1
  Zr  Zr0  1  0.62154200  0.12419100  0.42209600  1
  Zr  Zr1  1  0.88247300  0.11877000  0.07222100  1
  Zr  Zr2  1  0.37883900  0.87808000  0.57432600  1
  Ti  Ti0  1  0.24129800  0.11103900  0.24811400  1
  Ti  Ti1  1  0.73681800  0.89069400  0.75065700  1
  Ti  Ti2  1  0.12208700  0.87442400  0.92031800  1
  Mn  Mn0  1  0.74501700  0.36024100  0.25103200  1
  Mn  Mn1  1  0.24555400  0.63726900  0.75261200  1
  Si  Si0  1  0.11380900  0.38758300  0.39568700  1
  Si  Si1  1  0.38808200  0.38636000  0.10376200  1
  Si  Si2  1  0.88753200  0.61286500  0.60655600  1
  Si  Si3  1  0.61234600  0.61755400  0.89640900  1
  Si  Si4  1  0.11583700  0.84251200  0.39584700  1
  Si  Si5  1  0.38085700  0.84209900  0.10255200  1
  Si  Si6  1  0.88281600  0.15722300  0.60575700  1
  Si  Si7  1  0.61110800  0.15444000  0.89775200  1
  O  O0  1  0.35157500  0.90843700  0.45029300  1
  O  O1  1  0.14718400  0.90545700  0.04879600  1
  O  O2  1  0.64728500  0.09301600  0.55222800  1
  O  O3  1  0.85384700  0.08744100  0.94776200  1
  O  O4  1  0.13662200  0.91740700  0.31198500  1
  O  O5  1  0.35522100  0.91836900  0.18676900  1
  O  O6  1  0.86098400  0.07957700  0.68954400  1
  O  O7  1  0.63325700  0.08786200  0.81184200  1
  O  O8  1  0.35972300  0.32210300  0.44149300  1
  O  O9  1  0.14164100  0.32449800  0.05732100  1
  O  O10  1  0.64186400  0.67624800  0.56064000  1
  O  O11  1  0.86502800  0.68851900  0.93839100  1
  O  O12  1  0.87928600  0.32714800  0.43779700  1
  O  O13  1  0.62709600  0.32608800  0.06393800  1
  O  O14  1  0.12589200  0.67081400  0.56587600  1
  O  O15  1  0.36953200  0.69052100  0.93325500  1
  O  O16  1  0.55102700  0.13174600  0.31206300  1
  O  O17  1  0.94239000  0.14102800  0.18753200  1
  O  O18  1  0.44259100  0.86050200  0.68969500  1
  O  O19  1  0.04770000  0.87014400  0.82092800  1
  O  O20  1  0.08682200  0.31202100  0.31008800  1
  O  O21  1  0.40923500  0.30959800  0.18928300  1
  O  O22  1  0.91451400  0.69238100  0.69225400  1
  O  O23  1  0.58731700  0.68225200  0.80926300  1
  O  O24  1  0.13373300  0.61565700  0.39074800  1
  O  O25  1  0.37692800  0.61453000  0.11072400  1
  O  O26  1  0.87555300  0.38461000  0.61370700  1
  O  O27  1  0.61781800  0.38615700  0.89704600  1
  O  O28  1  0.86014900  0.90162300  0.42380100  1
  O  O29  1  0.64086000  0.90232300  0.07754700  1
  O  O30  1  0.14012600  0.09628300  0.57906500  1
  O  O31  1  0.35192000  0.08288400  0.92152400  1
  O  O32  1  0.63078600  0.54753400  0.30341200  1
  O  O33  1  0.12984900  0.44939300  0.80338900  1
  F  F0  1  0.89589400  0.56730700  0.18912000  1
  F  F1  1  0.39735200  0.43187100  0.68930700  1
loop_
_geom_bond_atom_site_label_1
_geom_bond_atom_site_label_2
_geom_bond_distance
_geom_bond_site_symmetry_2
Na0 O32 2.293545 1_555
Na0 O28 2.438378 1_555
Na0 O12 2.454426 1_555
Na0 O10 2.480401 1_555
Na0 O8 2.589218 1_555
Na0 O0 2.702589 1_555
Na0 O24 2.817046 1_555
Na0 O24 2.930735 1_655
Na1 O11 2.414634 1_554
Na1 O29 2.443179 1_555
Na1 O13 2.488453 1_555
Na1 O9 2.584076 1_655
Na1 O1 2.604858 1_655
Na1 O25 2.857275 1_655
Na1 O25 2.952055 1_555
Na2 O8 2.359626 1_555
Na2 O30 2.441782 1_555
Na2 O14 2.454044 1_555
Na2 O10 2.588537 1_555
Na2 O2 2.639228 1_555
Na2 O26 2.888306 1_555
Na2 O26 2.941162 1_455
Na3 O33 2.297158 1_555
Na3 O9 2.419202 1_556
Na3 O31 2.521675 1_555
Na3 O15 2.524927 1_555
Na3 O11 2.627302 1_455
Na3 O3 2.700422 1_455
Na3 O27 2.817309 1_555
Na3 O27 2.883675 1_455
Na4 O32 2.423898 1_555
Na4 O4 2.443142 1_655
Na4 O5 2.451107 1_555
Na4 O16 2.639329 1_565
Na4 O17 2.702589 1_565
Na5 O33 2.374090 1_555
Na5 O7 2.401568 1_555
Na5 O6 2.426067 1_455
Na5 O19 2.693104 1_545
Na5 O18 2.705519 1_545
Na6 O32 2.290538 1_555
Na6 O4 2.579660 1_555
Na6 O5 2.583062 1_555
Na6 O21 2.592687 1_555
Na6 O20 2.594901 1_555
Na6 O25 2.692650 1_555
Na6 O24 2.697443 1_555
Na7 O33 2.278465 1_655
Na7 O7 2.535137 1_555
Na7 O23 2.541387 1_555
Na7 O6 2.584883 1_555
Na7 O22 2.614934 1_555
Na7 O26 2.666118 1_555
Na7 O27 2.809270 1_555
Mn0 O32 1.790168 1_555
Mn0 O21 2.141914 1_555
Mn0 O20 2.148859 1_655
Mn0 O17 2.283420 1_555
Mn0 O16 2.297569 1_555
Mn1 O33 1.782987 1_555
Mn1 O22 2.117337 1_455
Mn1 O23 2.123513 1_555
Mn1 O18 2.298199 1_555
Mn1 O19 2.400244 1_555
O0 Si4 1.653407 1_555
O0 Zr0 2.244808 1_565
O0 Zr2 2.266943 1_555
O1 Si5 1.637066 1_555
O1 Zr1 2.192779 1_465
O1 Ti2 2.346392 1_554
O2 Si6 1.640200 1_555
O2 Zr2 2.205699 1_545
O2 Zr0 2.378175 1_555
O3 Si7 1.648392 1_555
O3 Ti2 2.224144 1_645
O3 Zr1 2.273488 1_556
O4 Si4 1.635342 1_555
O4 Ti0 1.931550 1_565
O5 Si5 1.645218 1_555
O5 Ti0 1.913236 1_565
O6 Si6 1.641514 1_555
O6 Ti1 1.917311 1_545
O7 Si7 1.650189 1_555
O7 Ti1 1.913584 1_545
O8 Si0 1.623331 1_555
O8 Zr0 2.088479 1_555
O9 Si1 1.619665 1_555
O9 Zr1 2.095543 1_455
O10 Si2 1.618799 1_555
O10 Zr2 2.091932 1_555
O11 Si3 1.632231 1_555
O11 Ti2 2.002455 1_655
O12 Si0 1.630166 1_655
O12 Zr0 2.045681 1_555
O13 Si1 1.629899 1_555
O13 Zr1 2.058946 1_555
O14 Si2 1.629976 1_455
O14 Zr2 2.042634 1_555
O15 Si3 1.647887 1_555
O15 Ti2 1.913340 1_555
O16 Zr0 2.015717 1_555
O16 Ti0 2.015795 1_555
O17 Ti0 1.943151 1_655
O17 Zr1 2.109010 1_555
O18 Ti1 1.923520 1_555
O18 Zr2 2.110838 1_555
O19 Ti2 1.827964 1_555
O19 Ti1 2.083417 1_455
O20 Si0 1.645723 1_555
O20 Ti0 2.058488 1_555
O21 Si1 1.651187 1_555
O21 Ti0 2.052225 1_555
O22 Si2 1.656788 1_555
O22 Ti1 2.072733 1_555
O23 Si3 1.652667 1_555
O23 Ti1 2.051337 1_555
O24 Si4 1.627251 1_555
O24 Si0 1.636624 1_555
O25 Si5 1.633844 1_555
O25 Si1 1.636718 1_555
O26 Si6 1.631731 1_555
O26 Si2 1.638424 1_555
O27 Si3 1.654010 1_555
O27 Si7 1.656297 1_555
O28 Si4 1.613265 1_655
O28 Zr0 2.078248 1_565
O29 Si5 1.616393 1_555
O29 Zr1 2.058989 1_565
O30 Si6 1.616348 1_455
O30 Zr2 2.062078 1_545
O31 Si7 1.627809 1_555
O31 Ti2 1.964088 1_545
F0 Mn0 2.081888 1_555
F0 Na1 2.236048 1_555
F0 Na6 2.237307 1_655
F0 Na4 2.431723 1_555
F1 Mn1 2.087796 1_555
F1 Na2 2.216272 1_555
F1 Na7 2.235218 1_555
F1 Na5 2.455598 1_555
