# generated using pymatgen
data_Cs6OsN4
_symmetry_space_group_name_H-M   'P 1'
_cell_length_a   9.68593000
_cell_length_b   9.68593000
_cell_length_c   11.11736900
_cell_angle_alpha   90.00000000
_cell_angle_beta   90.00000000
_cell_angle_gamma   90.00000000
_symmetry_Int_Tables_number   1
_chemical_formula_structural   Cs6OsN4
_chemical_formula_sum   'Cs12 Os2 N8'
_cell_volume   1043.00087525
_cell_formula_units_Z   2
loop_
 _symmetry_equiv_pos_site_id
 _symmetry_equiv_pos_as_xyz
  1  'x, y, z'
loop_
 _atom_site_type_symbol
 _atom_site_label
 _atom_site_symmetry_multiplicity
 _atom_site_fract_x
 _atom_site_fract_y
 _atom_site_fract_z
 _atom_site_occupancy
  Cs  Cs0  1  0.00000000  0.50000000  0.79463400  1
  Cs  Cs1  1  0.50000000  0.00000000  0.70536600  1
  Cs  Cs2  1  0.50000000  0.00000000  0.20536600  1
  Cs  Cs3  1  0.00000000  0.50000000  0.29463400  1
  Cs  Cs4  1  0.24303900  0.24303900  0.50000000  1
  Cs  Cs5  1  0.75696100  0.75696100  0.50000000  1
  Cs  Cs6  1  0.74303900  0.74303900  0.00000000  1
  Cs  Cs7  1  0.25696100  0.25696100  0.00000000  1
  Cs  Cs8  1  0.75696100  0.24303900  0.50000000  1
  Cs  Cs9  1  0.24303900  0.75696100  0.50000000  1
  Cs  Cs10  1  0.25696100  0.74303900  0.00000000  1
  Cs  Cs11  1  0.74303900  0.25696100  0.00000000  1
  Os  Os0  1  0.50000000  0.50000000  0.50000000  1
  Os  Os1  1  0.00000000  0.00000000  0.00000000  1
  N  N0  1  0.34241700  0.50000000  0.41097900  1
  N  N1  1  0.65758300  0.50000000  0.41097900  1
  N  N2  1  0.84241700  0.00000000  0.08902100  1
  N  N3  1  0.15758300  0.00000000  0.08902100  1
  N  N4  1  0.50000000  0.34241700  0.58902100  1
  N  N5  1  0.50000000  0.65758300  0.58902100  1
  N  N6  1  0.00000000  0.84241700  0.91097900  1
  N  N7  1  0.00000000  0.15758300  0.91097900  1
loop_
_geom_bond_atom_site_label_1
_geom_bond_atom_site_label_2
_geom_bond_distance
_geom_bond_site_symmetry_2
Cs0 N6 3.559920 1_555
Cs0 N7 3.559920 1_555
Cs1 N5 3.559920 1_545
Cs1 N4 3.559920 1_555
Cs2 N2 3.559920 1_555
Cs2 N3 3.559920 1_555
Cs3 N1 3.559920 1_455
Cs3 N0 3.559920 1_555
Cs4 N4 2.846165 1_555
Cs4 N0 2.846165 1_555
Cs5 N1 2.846165 1_555
Cs5 N5 2.846165 1_555
Cs6 N2 2.846165 1_565
Cs6 N6 2.846165 1_654
Cs7 N3 2.846165 1_555
Cs7 N7 2.846165 1_554
Cs8 N4 2.846165 1_555
Cs8 N1 2.846165 1_555
Cs9 N5 2.846165 1_555
Cs9 N0 2.846165 1_555
Cs10 N3 2.846165 1_565
Cs10 N6 2.846165 1_554
Cs11 N7 2.846165 1_654
Cs11 N2 2.846165 1_555
N0 Os0 1.819113 1_555
N1 Os0 1.819113 1_555
N2 Os1 1.819113 1_655
N3 Os1 1.819113 1_555
N4 Os0 1.819113 1_555
N5 Os0 1.819113 1_555
N6 Os1 1.819113 1_566
N7 Os1 1.819113 1_556
