# generated using pymatgen
data_Cd3BPO7
_symmetry_space_group_name_H-M   'P 1'
_cell_length_a   5.16941200
_cell_length_b   8.98056200
_cell_length_c   13.49492300
_cell_angle_alpha   90.00000000
_cell_angle_beta   90.00000000
_cell_angle_gamma   90.00000000
_symmetry_Int_Tables_number   1
_chemical_formula_structural   Cd3BPO7
_chemical_formula_sum   'Cd12 B4 P4 O28'
_cell_volume   626.49134130
_cell_formula_units_Z   4
loop_
 _symmetry_equiv_pos_site_id
 _symmetry_equiv_pos_as_xyz
  1  'x, y, z'
loop_
 _atom_site_type_symbol
 _atom_site_label
 _atom_site_symmetry_multiplicity
 _atom_site_fract_x
 _atom_site_fract_y
 _atom_site_fract_z
 _atom_site_occupancy
  Cd  Cd0  1  0.99821200  0.90360600  0.13660900  1
  Cd  Cd1  1  0.49821200  0.09639400  0.86339100  1
  Cd  Cd2  1  0.49821200  0.40360600  0.36339100  1
  Cd  Cd3  1  0.99821200  0.59639400  0.63660900  1
  Cd  Cd4  1  0.01422000  0.91068200  0.40240800  1
  Cd  Cd5  1  0.51422000  0.08931800  0.59759200  1
  Cd  Cd6  1  0.51422000  0.41068200  0.09759200  1
  Cd  Cd7  1  0.01422000  0.58931800  0.90240800  1
  Cd  Cd8  1  0.00038000  0.23859000  0.24674800  1
  Cd  Cd9  1  0.50038000  0.76141000  0.75325200  1
  Cd  Cd10  1  0.50038000  0.73859000  0.25325200  1
  Cd  Cd11  1  0.00038000  0.26141000  0.74674800  1
  B  B0  1  0.99860900  0.56930600  0.22690300  1
  B  B1  1  0.49860900  0.43069400  0.77309700  1
  B  B2  1  0.49860900  0.06930600  0.27309700  1
  B  B3  1  0.99860900  0.93069400  0.72690300  1
  P  P0  1  0.02280800  0.22948000  0.99627700  1
  P  P1  1  0.52280800  0.77052000  0.00372300  1
  P  P2  1  0.52280800  0.72948000  0.50372300  1
  P  P3  1  0.02280800  0.27052000  0.49627700  1
  O  O0  1  0.32461400  0.24477800  0.99062300  1
  O  O1  1  0.82461400  0.75522200  0.00937700  1
  O  O2  1  0.82461400  0.74477800  0.50937700  1
  O  O3  1  0.32461400  0.25522200  0.49062300  1
  O  O4  1  0.94015300  0.13956400  0.08957000  1
  O  O5  1  0.44015300  0.86043600  0.91043000  1
  O  O6  1  0.44015300  0.63956400  0.41043000  1
  O  O7  1  0.94015300  0.36043600  0.58957000  1
  O  O8  1  0.89725400  0.38674300  0.00380200  1
  O  O9  1  0.39725400  0.61325700  0.99619800  1
  O  O10  1  0.39725400  0.88674300  0.49619800  1
  O  O11  1  0.89725400  0.11325700  0.50380200  1
  O  O12  1  0.43395500  0.85549400  0.09809600  1
  O  O13  1  0.93395500  0.14450600  0.90190400  1
  O  O14  1  0.93395500  0.35549400  0.40190400  1
  O  O15  1  0.43395500  0.64450600  0.59809600  1
  O  O16  1  0.06347000  0.71659800  0.24700200  1
  O  O17  1  0.56347000  0.28340200  0.75299800  1
  O  O18  1  0.56347000  0.21659800  0.25299800  1
  O  O19  1  0.06347000  0.78340200  0.74700200  1
  O  O20  1  0.18932500  0.46041300  0.21801800  1
  O  O21  1  0.68932500  0.53958700  0.78198200  1
  O  O22  1  0.68932500  0.96041300  0.28198200  1
  O  O23  1  0.18932500  0.03958700  0.71801800  1
  O  O24  1  0.23678100  0.03282700  0.28040200  1
  O  O25  1  0.73678100  0.96717300  0.71959800  1
  O  O26  1  0.73678100  0.53282700  0.21959800  1
  O  O27  1  0.23678100  0.46717300  0.78040200  1
loop_
_geom_bond_atom_site_label_1
_geom_bond_atom_site_label_2
_geom_bond_distance
_geom_bond_site_symmetry_2
Cd0 O4 2.232341 1_565
Cd0 O16 2.270165 1_655
Cd0 O1 2.351407 1_555
Cd0 O12 2.351748 1_655
Cd0 O24 2.575478 1_665
Cd0 O22 2.580420 1_555
Cd1 O5 2.232341 1_545
Cd1 O17 2.270165 1_555
Cd1 O0 2.351407 1_555
Cd1 O13 2.351748 1_555
Cd1 O25 2.575478 1_545
Cd1 O23 2.580420 1_555
Cd2 O6 2.232341 1_555
Cd2 O18 2.270165 1_555
Cd2 O3 2.351407 1_555
Cd2 O14 2.351748 1_555
Cd2 O26 2.575478 1_555
Cd2 O20 2.580420 1_555
Cd3 O7 2.232341 1_555
Cd3 O19 2.270165 1_655
Cd3 O2 2.351407 1_555
Cd3 O15 2.351748 1_655
Cd3 O27 2.575478 1_655
Cd3 O21 2.580420 1_555
Cd4 O24 2.288616 1_565
Cd4 O2 2.294414 1_455
Cd4 O11 2.355308 1_465
Cd4 O10 2.359836 1_555
Cd4 O22 2.379352 1_455
Cd4 O16 2.738800 1_555
Cd5 O25 2.288616 1_545
Cd5 O3 2.294414 1_555
Cd5 O10 2.355308 1_545
Cd5 O11 2.359836 1_555
Cd5 O23 2.379352 1_555
Cd5 O17 2.738800 1_555
Cd6 O26 2.288616 1_555
Cd6 O0 2.294414 1_554
Cd6 O9 2.355308 1_554
Cd6 O8 2.359836 1_555
Cd6 O20 2.379352 1_555
Cd6 O18 2.738800 1_555
Cd7 O27 2.288616 1_555
Cd7 O1 2.294414 1_456
Cd7 O8 2.355308 1_456
Cd7 O9 2.359836 1_555
Cd7 O21 2.379352 1_455
Cd7 O19 2.738800 1_555
Cd8 O20 2.252282 1_555
Cd8 O24 2.261480 1_555
Cd8 O18 2.268755 1_455
Cd8 O4 2.320967 1_455
Cd8 O14 2.367319 1_455
Cd9 O21 2.252282 1_555
Cd9 O25 2.261480 1_555
Cd9 O19 2.268755 1_555
Cd9 O5 2.320967 1_555
Cd9 O15 2.367319 1_555
Cd10 O22 2.252282 1_555
Cd10 O26 2.261480 1_555
Cd10 O16 2.268755 1_555
Cd10 O6 2.320967 1_555
Cd10 O12 2.367319 1_555
Cd11 O23 2.252282 1_555
Cd11 O27 2.261480 1_555
Cd11 O17 2.268755 1_455
Cd11 O7 2.320967 1_455
Cd11 O13 2.367319 1_455
B0 O16 1.391293 1_655
B0 O20 1.393802 1_655
B0 O26 1.396064 1_555
B1 O17 1.391293 1_555
B1 O21 1.393802 1_555
B1 O27 1.396064 1_555
B2 O18 1.391293 1_555
B2 O22 1.393802 1_545
B2 O24 1.396064 1_555
B3 O19 1.391293 1_655
B3 O23 1.393802 1_665
B3 O25 1.396064 1_555
O0 P0 1.568054 1_555
O1 P1 1.568054 1_555
O2 P2 1.568054 1_555
O3 P3 1.568054 1_555
O4 P0 1.555523 1_654
O5 P1 1.555523 1_556
O6 P2 1.555523 1_555
O7 P3 1.555523 1_655
O8 P0 1.557622 1_654
O9 P1 1.557622 1_556
O10 P2 1.557622 1_555
O11 P3 1.557622 1_655
O12 P1 1.554111 1_555
O13 P0 1.554111 1_655
O14 P3 1.554111 1_655
O15 P2 1.554111 1_555
