# generated using pymatgen
data_ZnCr2(PO5)2
_symmetry_space_group_name_H-M   'P 1'
_cell_length_a   6.65207574
_cell_length_b   6.65167379
_cell_length_c   8.80070600
_cell_angle_alpha   102.55560826
_cell_angle_beta   102.54891072
_cell_angle_gamma   115.13847632
_symmetry_Int_Tables_number   1
_chemical_formula_structural   ZnCr2(PO5)2
_chemical_formula_sum   'Zn2 Cr4 P4 O20'
_cell_volume   322.28002390
_cell_formula_units_Z   2
loop_
 _symmetry_equiv_pos_site_id
 _symmetry_equiv_pos_as_xyz
  1  'x, y, z'
loop_
 _atom_site_type_symbol
 _atom_site_label
 _atom_site_symmetry_multiplicity
 _atom_site_fract_x
 _atom_site_fract_y
 _atom_site_fract_z
 _atom_site_occupancy
  Zn  Zn0  1  0.49684200  0.99683800  0.49999400  1
  Zn  Zn1  1  0.24684300  0.24684700  0.00000100  1
  Cr  Cr0  1  0.87162100  0.61969500  0.25124600  1
  Cr  Cr1  1  0.36844300  0.62038500  0.74876200  1
  Cr  Cr2  1  0.87035500  0.11841100  0.24872600  1
  Cr  Cr3  1  0.86969200  0.62162900  0.75128200  1
  P  P0  1  0.03595300  0.03693000  0.58342300  1
  P  P1  1  0.70252200  0.20348700  0.91657100  1
  P  P2  1  0.45349200  0.45252800  0.41656700  1
  P  P3  1  0.28693600  0.78595300  0.08344300  1
  O  O0  1  0.58236900  0.55700200  0.30478700  1
  O  O1  1  0.66312900  0.66543300  0.83847500  1
  O  O2  1  0.31030400  0.58621400  0.96790400  1
  O  O3  1  0.80700900  0.33236600  0.80479500  1
  O  O4  1  0.21443300  0.23629200  0.30083000  1
  O  O5  1  0.42668500  0.65065400  0.53074500  1
  O  O6  1  0.07410500  0.57694300  0.66151000  1
  O  O7  1  0.82693600  0.82436600  0.16149700  1
  O  O8  1  0.91544800  0.41288600  0.33851200  1
  O  O9  1  0.16359900  0.68546600  0.19918000  1
  O  O10  1  0.25219700  0.27753000  0.69520600  1
  O  O11  1  0.48631100  0.96446000  0.80084000  1
  O  O12  1  0.93543800  0.91358500  0.69916600  1
  O  O13  1  0.14593500  0.86990700  0.96925400  1
  O  O14  1  0.11988800  0.89592000  0.46924600  1
  O  O15  1  0.90064000  0.17667100  0.03073800  1
  O  O16  1  0.83621700  0.06028100  0.46790200  1
  O  O17  1  0.61832600  0.34241900  0.03210400  1
  O  O18  1  0.52755100  0.00219100  0.19519400  1
  O  O19  1  0.59238000  0.36831200  0.53210400  1
loop_
_geom_bond_atom_site_label_1
_geom_bond_atom_site_label_2
_geom_bond_distance
_geom_bond_site_symmetry_2
Cr0 O8 1.808299 1_555
Cr0 O7 1.809685 1_555
Cr0 O0 1.973799 1_555
Cr0 O9 1.981337 1_655
Cr0 O14 2.072835 1_655
Cr0 O17 2.088370 1_555
Cr1 O6 1.810041 1_555
Cr1 O1 1.811455 1_555
Cr1 O10 1.974094 1_555
Cr1 O11 1.981420 1_555
Cr1 O5 2.072866 1_555
Cr1 O2 2.088246 1_555
Cr2 O7 1.808077 1_545
Cr2 O8 1.809959 1_555
Cr2 O18 1.974000 1_555
Cr2 O4 1.981578 1_655
Cr2 O15 2.072693 1_555
Cr2 O16 2.088482 1_555
Cr3 O1 1.806363 1_555
Cr3 O6 1.808214 1_655
Cr3 O3 1.973683 1_555
Cr3 O12 1.981366 1_555
Cr3 O13 2.072791 1_655
Cr3 O19 2.088692 1_555
O0 P2 1.530743 1_555
O2 P3 1.574822 1_556
O2 Zn1 2.207508 1_556
O3 P1 1.530750 1_555
O4 P2 1.533296 1_555
O5 P2 1.574825 1_555
O5 Zn0 2.237470 1_555
O9 P3 1.533167 1_555
O10 P0 1.530651 1_555
O11 P1 1.533091 1_565
O12 P0 1.533307 1_665
O13 P3 1.575094 1_556
O13 Zn1 2.237508 1_566
O14 P0 1.574856 1_565
O14 Zn0 2.237763 1_555
O15 P1 1.574937 1_554
O15 Zn1 2.237633 1_655
O16 P0 1.574826 1_655
O16 Zn0 2.207679 1_545
O17 P1 1.574869 1_554
O17 Zn1 2.207780 1_555
O18 P3 1.530658 1_545
O19 P2 1.574932 1_555
O19 Zn0 2.207580 1_545
