# generated using pymatgen
data_SnPPd5
_symmetry_space_group_name_H-M   'P 1'
_cell_length_a   3.95998200
_cell_length_b   3.95998200
_cell_length_c   6.98899151
_cell_angle_alpha   90.00000000
_cell_angle_beta   90.00000000
_cell_angle_gamma   90.00000000
_symmetry_Int_Tables_number   1
_chemical_formula_structural   SnPPd5
_chemical_formula_sum   'Sn1 P1 Pd5'
_cell_volume   109.59757291
_cell_formula_units_Z   1
loop_
 _symmetry_equiv_pos_site_id
 _symmetry_equiv_pos_as_xyz
  1  'x, y, z'
loop_
 _atom_site_type_symbol
 _atom_site_label
 _atom_site_symmetry_multiplicity
 _atom_site_fract_x
 _atom_site_fract_y
 _atom_site_fract_z
 _atom_site_occupancy
  Sn  Sn0  1  0.50000000  0.50000000  0.00000000  1
  P  P0  1  0.00000000  0.00000000  0.50000000  1
  Pd  Pd0  1  -0.00000000  0.50000000  0.29928204  1
  Pd  Pd1  1  0.00000000  0.50000000  0.70071796  1
  Pd  Pd2  1  0.50000000  -0.00000000  0.29928204  1
  Pd  Pd3  1  0.50000000  0.00000000  0.70071796  1
  Pd  Pd4  1  0.00000000  0.00000000  0.00000000  1
loop_
_geom_bond_atom_site_label_1
_geom_bond_atom_site_label_2
_geom_bond_distance
_geom_bond_site_symmetry_2
P0 Pd1 2.426573 1_555
P0 Pd3 2.426573 1_555
P0 Pd0 2.426573 1_545
P0 Pd1 2.426573 1_545
P0 Pd3 2.426573 1_455
P0 Pd2 2.426573 1_555
P0 Pd2 2.426573 1_455
P0 Pd0 2.426573 1_555
Pd0 Pd2 2.800130 1_465
Pd0 Pd2 2.800130 1_565
Pd0 Pd2 2.800130 1_555
Pd0 Pd2 2.800130 1_455
Pd0 Pd1 2.805632 1_555
Pd0 Pd4 2.880189 1_555
Pd0 Sn0 2.880189 1_555
Pd0 Pd4 2.880189 1_565
Pd0 Sn0 2.880189 1_455
Pd1 Pd3 2.800130 1_455
Pd1 Pd3 2.800130 1_565
Pd1 Pd3 2.800130 1_465
Pd1 Pd3 2.800130 1_555
Pd1 Pd4 2.880189 1_566
Pd1 Sn0 2.880189 1_556
Pd1 Pd4 2.880189 1_556
Pd1 Sn0 2.880189 1_456
Pd2 Pd3 2.805632 1_555
Pd2 Sn0 2.880189 1_545
Pd2 Pd4 2.880189 1_555
Pd2 Sn0 2.880189 1_555
Pd2 Pd4 2.880189 1_655
Pd3 Pd4 2.880189 1_656
Pd3 Sn0 2.880189 1_556
Pd3 Pd4 2.880189 1_556
Pd3 Sn0 2.880189 1_546
Pd4 Sn0 2.800130 1_445
Pd4 Sn0 2.800130 1_545
Pd4 Sn0 2.800130 1_555
Pd4 Sn0 2.800130 1_455
