# generated using pymatgen
data_U3Bi2O9
_symmetry_space_group_name_H-M   'P 1'
_cell_length_a   14.32678795
_cell_length_b   14.32678795
_cell_length_c   14.32678795
_cell_angle_alpha   164.71893409
_cell_angle_beta   164.71893409
_cell_angle_gamma   21.67572659
_symmetry_Int_Tables_number   1
_chemical_formula_structural   U3Bi2O9
_chemical_formula_sum   'U3 Bi2 O9'
_cell_volume   204.22849158
_cell_formula_units_Z   1
loop_
 _symmetry_equiv_pos_site_id
 _symmetry_equiv_pos_as_xyz
  1  'x, y, z'
loop_
 _atom_site_type_symbol
 _atom_site_label
 _atom_site_symmetry_multiplicity
 _atom_site_fract_x
 _atom_site_fract_y
 _atom_site_fract_z
 _atom_site_occupancy
  U  U0  1  0.40081500  0.40081500  0.00000000  1
  U  U1  1  0.00000000  0.00000000  0.00000000  1
  U  U2  1  0.59918500  0.59918500  0.00000000  1
  Bi  Bi0  1  0.20110000  0.20110000  0.00000000  1
  Bi  Bi1  1  0.79890000  0.79890000  0.00000000  1
  O  O0  1  0.85730600  0.35730600  0.50000000  1
  O  O1  1  0.45364600  0.95364600  0.50000000  1
  O  O2  1  0.04635400  0.54635400  0.50000000  1
  O  O3  1  0.64269400  0.14269400  0.50000000  1
  O  O4  1  0.13879900  0.63879900  0.50000000  1
  O  O5  1  0.75000000  0.25000000  0.50000000  1
  O  O6  1  0.36120100  0.86120100  0.50000000  1
  O  O7  1  0.95216400  0.45216400  0.50000000  1
  O  O8  1  0.54783600  0.04783600  0.50000000  1
loop_
_geom_bond_atom_site_label_1
_geom_bond_atom_site_label_2
_geom_bond_distance
_geom_bond_site_symmetry_2
Bi0 O5 2.349960 1_555
Bi0 O5 2.349960 1_454
Bi0 O3 2.515987 1_454
Bi0 O3 2.515987 1_555
Bi0 O4 2.588929 1_555
Bi0 O4 2.588929 1_544
Bi1 O5 2.349960 1_565
Bi1 O5 2.349960 1_554
Bi1 O0 2.515987 1_565
Bi1 O0 2.515987 1_554
Bi1 O6 2.588929 1_554
Bi1 O6 2.588929 1_655
O0 U0 2.264454 1_656
O0 U0 2.264454 1_555
O1 U1 2.308731 1_666
O1 U1 2.308731 1_565
O1 U0 2.416409 1_555
O1 U0 2.416409 1_566
O2 U1 2.308731 1_555
O2 U1 2.308731 1_566
O2 U2 2.416409 1_556
O2 U2 2.416409 1_455
O3 U2 2.264454 1_545
O3 U2 2.264454 1_556
O4 U2 2.207110 1_455
O4 U2 2.207110 1_556
O6 U0 2.207110 1_566
O6 U0 2.207110 1_555
O7 U1 2.332550 1_655
O7 U1 2.332550 1_666
O7 U0 2.390973 1_656
O7 U0 2.390973 1_555
O8 U1 2.332550 1_656
O8 U1 2.332550 1_555
O8 U2 2.390973 1_556
O8 U2 2.390973 1_545
