# generated using pymatgen
data_Li2Mg
_symmetry_space_group_name_H-M   'P 1'
_cell_length_a   5.26610366
_cell_length_b   5.26610366
_cell_length_c   5.91340817
_cell_angle_alpha   62.76879761
_cell_angle_beta   62.76879761
_cell_angle_gamma   60.45420332
_symmetry_Int_Tables_number   1
_chemical_formula_structural   Li2Mg
_chemical_formula_sum   'Li4 Mg2'
_cell_volume   121.01627021
_cell_formula_units_Z   2
loop_
 _symmetry_equiv_pos_site_id
 _symmetry_equiv_pos_as_xyz
  1  'x, y, z'
loop_
 _atom_site_type_symbol
 _atom_site_label
 _atom_site_symmetry_multiplicity
 _atom_site_fract_x
 _atom_site_fract_y
 _atom_site_fract_z
 _atom_site_occupancy
  Li  Li0  1  0.25001630  0.41815970  0.24663602  1
  Li  Li1  1  0.58184030  0.74998370  0.25336398  1
  Li  Li2  1  0.41815970  0.25001630  0.74663602  1
  Li  Li3  1  0.74998370  0.58184030  0.75336398  1
  Mg  Mg0  1  0.08877745  0.91122255  0.75000000  1
  Mg  Mg1  1  0.91122255  0.08877745  0.25000000  1
loop_
_geom_bond_atom_site_label_1
_geom_bond_atom_site_label_2
_geom_bond_distance
_geom_bond_site_symmetry_2
Li0 Li3 3.015347 1_554
Li0 Mg1 3.029887 1_455
Li0 Mg1 3.034552 1_555
Li0 Mg0 3.035936 1_554
Li0 Li1 3.040927 1_555
Li0 Li1 3.050853 1_455
Li0 Li1 3.050853 1_545
Li0 Mg0 3.059112 1_545
Li0 Mg1 3.077840 1_465
Li0 Li2 3.088192 1_554
Li0 Li2 3.088192 1_555
Li0 Li3 3.091923 1_455
Li1 Li2 3.015347 1_555
Li1 Mg1 3.029887 1_565
Li1 Mg1 3.034552 1_555
Li1 Mg0 3.035936 1_555
Li1 Mg0 3.059112 1_654
Li1 Mg1 3.077840 1_465
Li1 Li3 3.088192 1_554
Li1 Li3 3.088192 1_555
Li1 Li2 3.091923 1_564
Li2 Mg0 3.029887 1_545
Li2 Mg0 3.034552 1_555
Li2 Mg1 3.035936 1_555
Li2 Li3 3.040927 1_555
Li2 Li3 3.050853 1_545
Li2 Li3 3.050853 1_455
Li2 Mg1 3.059112 1_456
Li2 Mg0 3.077840 1_645
Li3 Mg0 3.029887 1_655
Li3 Mg0 3.034552 1_555
Li3 Mg1 3.035936 1_556
Li3 Mg1 3.059112 1_565
Li3 Mg0 3.077840 1_645
Mg0 Mg1 3.102966 1_465
Mg0 Mg1 3.102966 1_466
