# generated using pymatgen
data_BaCu(SiO3)2
_symmetry_space_group_name_H-M   'P 1'
_cell_length_a   13.44587733
_cell_length_b   13.44587733
_cell_length_c   13.44587733
_cell_angle_alpha   135.94699827
_cell_angle_beta   135.94699827
_cell_angle_gamma   64.06228736
_symmetry_Int_Tables_number   1
_chemical_formula_structural   BaCu(SiO3)2
_chemical_formula_sum   'Ba8 Cu8 Si16 O48'
_cell_volume   1159.43081707
_cell_formula_units_Z   8
loop_
 _symmetry_equiv_pos_site_id
 _symmetry_equiv_pos_as_xyz
  1  'x, y, z'
loop_
 _atom_site_type_symbol
 _atom_site_label
 _atom_site_symmetry_multiplicity
 _atom_site_fract_x
 _atom_site_fract_y
 _atom_site_fract_z
 _atom_site_occupancy
  Ba  Ba0  1  0.99897800  0.01158200  0.51032100  1
  Ba  Ba1  1  0.00126100  0.51158200  0.01260400  1
  Ba  Ba2  1  0.76158200  0.75126100  0.51260400  1
  Ba  Ba3  1  0.26158200  0.74897800  0.01032100  1
  Ba  Ba4  1  0.50126100  0.48865700  0.48967900  1
  Ba  Ba5  1  0.49897800  0.98865700  0.98739600  1
  Ba  Ba6  1  0.23865700  0.24897800  0.48739600  1
  Ba  Ba7  1  0.73865700  0.25126100  0.98967900  1
  Cu  Cu0  1  0.31805300  0.81805300  0.50000000  1
  Cu  Cu1  1  0.81805300  0.31805300  0.50000000  1
  Cu  Cu2  1  0.56805300  0.56805300  0.00000000  1
  Cu  Cu3  1  0.06805300  0.06805300  0.00000000  1
  Cu  Cu4  1  0.43498900  0.93498900  0.50000000  1
  Cu  Cu5  1  0.93498900  0.43498900  0.50000000  1
  Cu  Cu6  1  0.68498900  0.68498900  0.00000000  1
  Cu  Cu7  1  0.18498900  0.18498900  0.00000000  1
  Si  Si0  1  0.65184800  0.87590600  0.77543100  1
  Si  Si1  1  0.60047600  0.37590600  0.22405800  1
  Si  Si2  1  0.62590600  0.35047600  0.72405800  1
  Si  Si3  1  0.12590600  0.40184800  0.27543100  1
  Si  Si4  1  0.10047600  0.87641800  0.22456900  1
  Si  Si5  1  0.15184800  0.37641800  0.77594200  1
  Si  Si6  1  0.62641800  0.90184800  0.27594200  1
  Si  Si7  1  0.12641800  0.85047600  0.72456900  1
  Si  Si8  1  0.35137100  0.62552400  0.72286800  1
  Si  Si9  1  0.40265600  0.12552400  0.27415300  1
  Si  Si10  1  0.37552400  0.15265600  0.77415300  1
  Si  Si11  1  0.87552400  0.10137100  0.22286800  1
  Si  Si12  1  0.90265600  0.62850300  0.27713200  1
  Si  Si13  1  0.85137100  0.12850300  0.72584700  1
  Si  Si14  1  0.37850300  0.60137100  0.22584700  1
  Si  Si15  1  0.87850300  0.65265600  0.77713200  1
  O  O0  1  0.76878000  0.76816100  0.75183300  1
  O  O1  1  0.51632900  0.26816100  0.99938100  1
  O  O2  1  0.51816100  0.26632900  0.49938100  1
  O  O3  1  0.01816100  0.51878000  0.25183300  1
  O  O4  1  0.01632900  0.01694800  0.24816700  1
  O  O5  1  0.26878000  0.51694800  0.00061900  1
  O  O6  1  0.76694800  0.01878000  0.50061900  1
  O  O7  1  0.26694800  0.76632900  0.74816700  1
  O  O8  1  0.37667000  0.60044500  0.84086900  1
  O  O9  1  0.25957700  0.10044500  0.22377600  1
  O  O10  1  0.35044500  0.00957700  0.72377600  1
  O  O11  1  0.85044500  0.12667000  0.34086900  1
  O  O12  1  0.75957700  0.53580100  0.15913100  1
  O  O13  1  0.87667000  0.03580100  0.77622400  1
  O  O14  1  0.28580100  0.62667000  0.27622400  1
  O  O15  1  0.78580100  0.50957700  0.65913100  1
  O  O16  1  0.49416400  0.65927700  0.77906700  1
  O  O17  1  0.38021000  0.15927700  0.16511300  1
  O  O18  1  0.40927700  0.13021000  0.66511300  1
  O  O19  1  0.90927700  0.24416400  0.27906700  1
  O  O20  1  0.88021000  0.71509700  0.22093300  1
  O  O21  1  0.99416400  0.21509700  0.83488700  1
  O  O22  1  0.46509700  0.74416400  0.33488700  1
  O  O23  1  0.96509700  0.63021000  0.72093300  1
  O  O24  1  0.62796600  0.96268900  0.71867900  1
  O  O25  1  0.74400900  0.46268900  0.33472300  1
  O  O26  1  0.71268900  0.49400900  0.83472300  1
  O  O27  1  0.21268900  0.37796600  0.21867900  1
  O  O28  1  0.24400900  0.90928700  0.28132100  1
  O  O29  1  0.12796600  0.40928700  0.66527700  1
  O  O30  1  0.65928700  0.87796600  0.16527700  1
  O  O31  1  0.15928700  0.99400900  0.78132100  1
  O  O32  1  0.51008300  0.78281200  0.65951900  1
  O  O33  1  0.62329300  0.28281200  0.27273000  1
  O  O34  1  0.53281200  0.37329300  0.77273000  1
  O  O35  1  0.03281200  0.26008300  0.15951900  1
  O  O36  1  0.12329300  0.85056400  0.34048100  1
  O  O37  1  0.01008300  0.35056400  0.72727000  1
  O  O38  1  0.60056400  0.76008300  0.22727000  1
  O  O39  1  0.10056400  0.87329300  0.84048100  1
  O  O40  1  0.24363000  0.47816500  0.49940700  1
  O  O41  1  0.47875800  0.97816500  0.23453600  1
  O  O42  1  0.22816500  0.22875800  0.73453600  1
  O  O43  1  0.72816500  0.99363000  0.99940700  1
  O  O44  1  0.97875800  0.74422300  0.50059300  1
  O  O45  1  0.74363000  0.24422300  0.76546400  1
  O  O46  1  0.49422300  0.49363000  0.26546400  1
  O  O47  1  0.99422300  0.72875800  0.00059300  1
loop_
_geom_bond_atom_site_label_1
_geom_bond_atom_site_label_2
_geom_bond_distance
_geom_bond_site_symmetry_2
Ba0 O11 2.719964 1_555
Ba0 O31 2.735300 1_645
Ba0 O36 2.812596 1_645
Ba0 O20 2.814911 1_545
Ba0 O6 2.988115 1_555
Ba0 O42 2.996044 1_655
Ba0 O21 3.102117 1_555
Ba0 O37 3.188134 1_655
Ba0 O30 3.217480 1_545
Ba0 O10 3.327905 1_655
Ba1 O14 2.719966 1_555
Ba1 O26 2.735292 1_454
Ba1 O37 2.812607 1_554
Ba1 O21 2.814911 1_454
Ba1 O3 2.988128 1_555
Ba1 O47 2.996049 1_455
Ba1 O20 3.102117 1_455
Ba1 O36 3.188132 1_555
Ba1 O27 3.217480 1_555
Ba1 O15 3.327916 1_454
Ba2 O13 2.719966 1_565
Ba2 O25 2.735292 1_555
Ba2 O38 2.812607 1_555
Ba2 O22 2.814911 1_555
Ba2 O0 2.988128 1_555
Ba2 O44 2.996049 1_555
Ba2 O23 3.102117 1_555
Ba2 O39 3.188132 1_655
Ba2 O24 3.217480 1_555
Ba2 O12 3.327916 1_555
Ba3 O8 2.719964 1_554
Ba3 O28 2.735300 1_555
Ba3 O39 2.812596 1_554
Ba3 O23 2.814911 1_454
Ba3 O5 2.988115 1_555
Ba3 O41 2.996044 1_555
Ba3 O22 3.102117 1_555
Ba3 O38 3.188134 1_555
Ba3 O29 3.217480 1_554
Ba3 O9 3.327905 1_565
Ba4 O15 2.719966 1_555
Ba4 O27 2.735291 1_555
Ba4 O32 2.812596 1_555
Ba4 O16 2.814911 1_555
Ba4 O2 2.988115 1_555
Ba4 O46 2.996063 1_555
Ba4 O17 3.102117 1_555
Ba4 O33 3.188123 1_555
Ba4 O26 3.217489 1_555
Ba4 O14 3.327916 1_555
Ba5 O10 2.719962 1_565
Ba5 O30 2.735291 1_556
Ba5 O33 2.812595 1_566
Ba5 O17 2.814911 1_566
Ba5 O7 2.988110 1_555
Ba5 O43 2.996049 1_555
Ba5 O16 3.102117 1_555
Ba5 O32 3.188132 1_555
Ba5 O31 3.217480 1_555
Ba5 O11 3.327907 1_566
Ba6 O9 2.719962 1_555
Ba6 O29 2.735291 1_555
Ba6 O34 2.812595 1_555
Ba6 O18 2.814911 1_555
Ba6 O4 2.988110 1_555
Ba6 O40 2.996049 1_555
Ba6 O19 3.102117 1_455
Ba6 O35 3.188132 1_555
Ba6 O28 3.217480 1_545
Ba6 O8 3.327907 1_555
Ba7 O12 2.719966 1_556
Ba7 O24 2.735291 1_545
Ba7 O35 2.812596 1_656
Ba7 O19 2.814911 1_556
Ba7 O1 2.988115 1_555
Ba7 O45 2.996063 1_555
Ba7 O18 3.102117 1_555
Ba7 O34 3.188123 1_555
Ba7 O25 3.217489 1_556
Ba7 O13 3.327916 1_555
Cu0 O14 1.958202 1_555
Cu0 O10 1.958206 1_565
Cu0 O32 1.980399 1_555
Cu0 O36 1.980399 1_555
Cu1 O11 1.958196 1_555
Cu1 O15 1.958202 1_555
Cu1 O37 1.980393 1_655
Cu1 O33 1.980394 1_555
Cu2 O8 1.958196 1_554
Cu2 O12 1.958202 1_555
Cu2 O38 1.980393 1_555
Cu2 O34 1.980394 1_554
Cu3 O13 1.958202 1_454
Cu3 O9 1.958206 1_555
Cu3 O35 1.980399 1_555
Cu3 O39 1.980399 1_544
Cu4 O24 1.954937 1_555
Cu4 O28 1.954941 1_555
Cu4 O18 1.967590 1_565
Cu4 O22 1.967590 1_555
Cu5 O29 1.954937 1_655
Cu5 O25 1.954943 1_555
Cu5 O19 1.967590 1_555
Cu5 O23 1.967590 1_555
Cu6 O30 1.954937 1_555
Cu6 O26 1.954943 1_554
Cu6 O20 1.967590 1_555
Cu6 O16 1.967590 1_554
Cu7 O27 1.954937 1_555
Cu7 O31 1.954941 1_544
Cu7 O17 1.967590 1_555
Cu7 O21 1.967590 1_454
O0 Si0 1.653857 1_555
O0 Si15 1.654672 1_555
O1 Si1 1.653857 1_556
O1 Si10 1.654675 1_555
O2 Si2 1.653857 1_555
O2 Si9 1.654675 1_555
O3 Si3 1.653857 1_555
O3 Si12 1.654672 1_455
O4 Si4 1.653857 1_545
O4 Si11 1.654677 1_455
O5 Si5 1.653857 1_554
O5 Si14 1.654675 1_555
O6 Si6 1.653857 1_545
O6 Si13 1.654675 1_555
O7 Si7 1.653857 1_555
O7 Si8 1.654677 1_555
O8 Si8 1.624721 1_555
O9 Si9 1.624716 1_555
O10 Si10 1.624716 1_555
O11 Si11 1.624721 1_555
O12 Si12 1.624710 1_555
O13 Si13 1.624710 1_555
O14 Si14 1.624710 1_555
O15 Si15 1.624710 1_555
O16 Si8 1.627020 1_555
O17 Si9 1.627020 1_555
O18 Si10 1.627020 1_555
O19 Si11 1.627020 1_555
O20 Si12 1.627020 1_555
O21 Si13 1.627020 1_555
O22 Si14 1.627020 1_555
O23 Si15 1.627020 1_555
O24 Si0 1.626925 1_555
O25 Si1 1.626903 1_555
O26 Si2 1.626903 1_555
O27 Si3 1.626925 1_555
O28 Si4 1.626893 1_555
O29 Si5 1.626914 1_555
O30 Si6 1.626914 1_555
O31 Si7 1.626893 1_555
O32 Si0 1.625464 1_555
O33 Si1 1.625481 1_555
O34 Si2 1.625481 1_555
O35 Si3 1.625464 1_555
O36 Si4 1.625483 1_555
O37 Si5 1.625462 1_555
O38 Si6 1.625462 1_555
O39 Si7 1.625483 1_555
O40 Si8 1.658143 1_555
O40 Si3 1.659788 1_555
O41 Si9 1.658145 1_565
O41 Si6 1.659799 1_555
O42 Si10 1.658145 1_555
O42 Si5 1.659799 1_555
O43 Si11 1.658143 1_566
O43 Si0 1.659788 1_555
O44 Si12 1.658143 1_555
O44 Si7 1.659793 1_655
O45 Si13 1.658140 1_555
O45 Si2 1.659794 1_555
O46 Si14 1.658140 1_555
O46 Si1 1.659794 1_555
O47 Si15 1.658143 1_554
O47 Si4 1.659793 1_655
