# generated using pymatgen
data_Li4Ti4Fe4CoO18
_symmetry_space_group_name_H-M   'P 1'
_cell_length_a   2.92701700
_cell_length_b   9.11561700
_cell_length_c   24.75607300
_cell_angle_alpha   90.00000000
_cell_angle_beta   90.00000000
_cell_angle_gamma   90.00000000
_symmetry_Int_Tables_number   1
_chemical_formula_structural   Li4Ti4Fe4CoO18
_chemical_formula_sum   'Li8 Ti8 Fe8 Co2 O36'
_cell_volume   660.53079378
_cell_formula_units_Z   2
loop_
 _symmetry_equiv_pos_site_id
 _symmetry_equiv_pos_as_xyz
  1  'x, y, z'
loop_
 _atom_site_type_symbol
 _atom_site_label
 _atom_site_symmetry_multiplicity
 _atom_site_fract_x
 _atom_site_fract_y
 _atom_site_fract_z
 _atom_site_occupancy
  Li  Li0  1  0.00000000  0.20500800  0.98654800  1
  Li  Li1  1  0.00000000  0.19946700  0.18929400  1
  Li  Li2  1  0.00000000  0.30053300  0.68929400  1
  Li  Li3  1  0.00000000  0.29499200  0.48654800  1
  Li  Li4  1  0.00000000  0.70500800  0.51345200  1
  Li  Li5  1  0.00000000  0.69946700  0.31070600  1
  Li  Li6  1  0.00000000  0.80053300  0.81070600  1
  Li  Li7  1  0.00000000  0.79499200  0.01345200  1
  Ti  Ti0  1  0.00000000  0.00250000  0.09917600  1
  Ti  Ti1  1  0.50000000  0.15481500  0.80731000  1
  Ti  Ti2  1  0.50000000  0.34518500  0.30731000  1
  Ti  Ti3  1  0.00000000  0.49750000  0.59917600  1
  Ti  Ti4  1  0.00000000  0.50250000  0.40082400  1
  Ti  Ti5  1  0.50000000  0.65481500  0.69269000  1
  Ti  Ti6  1  0.50000000  0.84518500  0.19269000  1
  Ti  Ti7  1  0.00000000  0.99750000  0.90082400  1
  Fe  Fe0  1  0.00000000  0.00524500  0.31323300  1
  Fe  Fe1  1  0.50000000  0.14221200  0.58345100  1
  Fe  Fe2  1  0.50000000  0.35778800  0.08345100  1
  Fe  Fe3  1  0.00000000  0.49475500  0.81323300  1
  Fe  Fe4  1  0.00000000  0.50524500  0.18676700  1
  Fe  Fe5  1  0.50000000  0.64221200  0.91654900  1
  Fe  Fe6  1  0.50000000  0.85778800  0.41654900  1
  Fe  Fe7  1  0.00000000  0.99475500  0.68676700  1
  Co  Co0  1  0.00000000  0.00000000  0.50000000  1
  Co  Co1  1  0.00000000  0.50000000  0.00000000  1
  O  O0  1  0.00000000  0.00070500  0.42319000  1
  O  O1  1  0.00000000  0.99929500  0.57681000  1
  O  O2  1  0.50000000  0.06166100  0.94450900  1
  O  O3  1  0.50000000  0.04645000  0.15793500  1
  O  O4  1  0.50000000  0.12119400  0.66088600  1
  O  O5  1  0.00000000  0.11656000  0.75672900  1
  O  O6  1  0.50000000  0.14000100  0.50564300  1
  O  O7  1  0.50000000  0.13264500  0.29231400  1
  O  O8  1  0.00000000  0.18605500  0.85873700  1
  O  O9  1  0.00000000  0.20534000  0.08154900  1
  O  O10  1  0.00000000  0.29466000  0.58154900  1
  O  O11  1  0.00000000  0.31394500  0.35873700  1
  O  O12  1  0.50000000  0.36735500  0.79231400  1
  O  O13  1  0.50000000  0.35999900  0.00564300  1
  O  O14  1  0.00000000  0.38344000  0.25672900  1
  O  O15  1  0.50000000  0.37880600  0.16088600  1
  O  O16  1  0.50000000  0.45355000  0.65793500  1
  O  O17  1  0.50000000  0.43833900  0.44450900  1
  O  O18  1  0.00000000  0.50070500  0.07681000  1
  O  O19  1  0.00000000  0.49929500  0.92319000  1
  O  O20  1  0.50000000  0.56166100  0.55549100  1
  O  O21  1  0.50000000  0.54645000  0.34206500  1
  O  O22  1  0.50000000  0.62119400  0.83911400  1
  O  O23  1  0.00000000  0.61656000  0.74327100  1
  O  O24  1  0.50000000  0.64000100  0.99435700  1
  O  O25  1  0.50000000  0.63264500  0.20768600  1
  O  O26  1  0.00000000  0.68605500  0.64126300  1
  O  O27  1  0.00000000  0.70534000  0.41845100  1
  O  O28  1  0.00000000  0.79466000  0.91845100  1
  O  O29  1  0.00000000  0.81394500  0.14126300  1
  O  O30  1  0.50000000  0.86735500  0.70768600  1
  O  O31  1  0.50000000  0.85999900  0.49435700  1
  O  O32  1  0.00000000  0.88344000  0.24327100  1
  O  O33  1  0.50000000  0.87880600  0.33911400  1
  O  O34  1  0.50000000  0.95355000  0.84206500  1
  O  O35  1  0.50000000  0.93833900  0.05549100  1
loop_
_geom_bond_atom_site_label_1
_geom_bond_atom_site_label_2
_geom_bond_distance
_geom_bond_site_symmetry_2
Li0 O13 2.088404 1_456
Li0 O13 2.088404 1_556
Li0 O2 2.220903 1_555
Li0 O2 2.220903 1_455
Li0 O9 2.351854 1_556
Li1 O3 2.165671 1_455
Li1 O3 2.165671 1_555
Li1 O15 2.304120 1_555
Li1 O15 2.304120 1_455
Li1 O14 2.366306 1_555
Li2 O16 2.165671 1_455
Li2 O16 2.165671 1_555
Li2 O4 2.304120 1_555
Li2 O4 2.304120 1_455
Li2 O5 2.366306 1_555
Li3 O6 2.088404 1_455
Li3 O6 2.088404 1_555
Li3 O17 2.220903 1_455
Li3 O17 2.220903 1_555
Li3 O10 2.351854 1_555
Li4 O31 2.088404 1_455
Li4 O31 2.088404 1_555
Li4 O20 2.220903 1_555
Li4 O20 2.220903 1_455
Li4 O27 2.351854 1_555
Li5 O21 2.165671 1_455
Li5 O21 2.165671 1_555
Li5 O33 2.304120 1_455
Li5 O33 2.304120 1_555
Li5 O32 2.366306 1_555
Li6 O34 2.165671 1_455
Li6 O34 2.165671 1_555
Li6 O22 2.304120 1_455
Li6 O22 2.304120 1_555
Li6 O23 2.366306 1_555
Li7 O24 2.088404 1_454
Li7 O24 2.088404 1_554
Li7 O35 2.220903 1_455
Li7 O35 2.220903 1_555
Li7 O28 2.351854 1_554
Fe0 O7 1.938746 1_455
Fe0 O7 1.938746 1_555
Fe0 O33 1.969971 1_445
Fe0 O33 1.969971 1_545
Fe0 O32 2.057328 1_545
Fe1 O6 1.926326 1_555
Fe1 O4 1.926537 1_555
Fe1 O1 1.966243 1_645
Fe1 O1 1.966243 1_545
Fe1 O10 2.018718 1_655
Fe1 O10 2.018718 1_555
Fe2 O13 1.926326 1_555
Fe2 O15 1.926537 1_555
Fe2 O18 1.966243 1_655
Fe2 O18 1.966243 1_555
Fe2 O9 2.018718 1_555
Fe2 O9 2.018718 1_655
Fe3 O12 1.938746 1_455
Fe3 O12 1.938746 1_555
Fe3 O22 1.969971 1_555
Fe3 O22 1.969971 1_455
Fe3 O23 2.057328 1_555
Fe4 O25 1.938746 1_555
Fe4 O25 1.938746 1_455
Fe4 O15 1.969971 1_555
Fe4 O15 1.969971 1_455
Fe4 O14 2.057328 1_555
Fe5 O24 1.926326 1_555
Fe5 O22 1.926537 1_555
Fe5 O19 1.966243 1_555
Fe5 O19 1.966243 1_655
Fe5 O28 2.018718 1_555
Fe5 O28 2.018718 1_655
Fe6 O31 1.926326 1_555
Fe6 O33 1.926537 1_555
Fe6 O0 1.966243 1_565
Fe6 O0 1.966243 1_665
Fe6 O27 2.018718 1_655
Fe6 O27 2.018718 1_555
Fe7 O30 1.938746 1_455
Fe7 O30 1.938746 1_555
Fe7 O4 1.969971 1_565
Fe7 O4 1.969971 1_465
Fe7 O5 2.057328 1_565
Co0 O0 1.901525 1_555
Co0 O1 1.901525 1_545
Co0 O6 1.946804 1_455
Co0 O6 1.946804 1_555
Co0 O31 1.946804 1_445
Co0 O31 1.946804 1_545
Co1 O18 1.901525 1_555
Co1 O19 1.901525 1_554
Co1 O13 1.946804 1_555
Co1 O13 1.946804 1_455
Co1 O24 1.946804 1_454
Co1 O24 1.946804 1_554
O2 Ti7 1.911414 1_545
O2 Ti7 1.911414 1_645
O3 Ti6 2.026386 1_545
O3 Ti0 2.101986 1_555
O3 Ti0 2.101986 1_655
O5 Ti1 1.957405 1_455
O5 Ti1 1.957405 1_555
O7 Ti2 1.972680 1_555
O8 Ti1 1.960565 1_455
O8 Ti1 1.960565 1_555
O8 Ti7 2.009933 1_545
O9 Ti0 1.899807 1_555
O10 Ti3 1.899807 1_555
O11 Ti2 1.960565 1_555
O11 Ti2 1.960565 1_455
O11 Ti4 2.009933 1_555
O12 Ti1 1.972680 1_555
O14 Ti2 1.957405 1_455
O14 Ti2 1.957405 1_555
O16 Ti5 2.026386 1_555
O16 Ti3 2.101986 1_655
O16 Ti3 2.101986 1_555
O17 Ti4 1.911414 1_655
O17 Ti4 1.911414 1_555
O20 Ti3 1.911414 1_655
O20 Ti3 1.911414 1_555
O21 Ti2 2.026386 1_555
O21 Ti4 2.101986 1_555
O21 Ti4 2.101986 1_655
O23 Ti5 1.957405 1_555
O23 Ti5 1.957405 1_455
O25 Ti6 1.972680 1_555
O26 Ti5 1.960565 1_555
O26 Ti5 1.960565 1_455
O26 Ti3 2.009933 1_555
O27 Ti4 1.899807 1_555
O28 Ti7 1.899807 1_555
O29 Ti6 1.960565 1_455
O29 Ti6 1.960565 1_555
O29 Ti0 2.009933 1_565
O30 Ti5 1.972680 1_555
O32 Ti6 1.957405 1_455
O32 Ti6 1.957405 1_555
O34 Ti1 2.026386 1_565
O34 Ti7 2.101986 1_555
O34 Ti7 2.101986 1_655
O35 Ti0 1.911414 1_665
O35 Ti0 1.911414 1_565
