# generated using pymatgen
data_LiCo(PtO2)3
_symmetry_space_group_name_H-M   'P 1'
_cell_length_a   3.17149200
_cell_length_b   6.24167916
_cell_length_c   6.56335636
_cell_angle_alpha   106.06086036
_cell_angle_beta   90.00000000
_cell_angle_gamma   90.00000000
_symmetry_Int_Tables_number   1
_chemical_formula_structural   LiCo(PtO2)3
_chemical_formula_sum   'Li1 Co1 Pt3 O6'
_cell_volume   124.85333239
_cell_formula_units_Z   1
loop_
 _symmetry_equiv_pos_site_id
 _symmetry_equiv_pos_as_xyz
  1  'x, y, z'
loop_
 _atom_site_type_symbol
 _atom_site_label
 _atom_site_symmetry_multiplicity
 _atom_site_fract_x
 _atom_site_fract_y
 _atom_site_fract_z
 _atom_site_occupancy
  Li  Li0  1  0.50000000  0.69805900  0.71204100  1
  Co  Co0  1  0.00000000  0.44319800  0.44158800  1
  Pt  Pt0  1  0.00000000  0.01228600  0.01134700  1
  Pt  Pt1  1  0.50000100  0.51099400  0.01666500  1
  Pt  Pt2  1  0.50000100  0.00806400  0.50568800  1
  O  O0  1  0.00000000  0.95389900  0.68864800  1
  O  O1  1  0.00000000  0.06579400  0.32950300  1
  O  O2  1  0.00000000  0.67413200  0.92249900  1
  O  O3  1  0.00000000  0.34853500  0.10414400  1
  O  O4  1  0.50000100  0.35145200  0.60372500  1
  O  O5  1  0.50000100  0.66275200  0.39331800  1
loop_
_geom_bond_atom_site_label_1
_geom_bond_atom_site_label_2
_geom_bond_distance
_geom_bond_site_symmetry_2
Li0 O5 2.041935 1_555
Li0 O4 2.082004 1_555
Li0 O2 2.135195 1_655
Li0 O2 2.135195 1_555
Li0 O0 2.285568 1_555
Li0 O0 2.285568 1_655
Li0 Pt1 2.579225 1_556
Co0 O4 2.076568 1_455
Co0 O4 2.076573 1_555
Co0 O3 2.128432 1_555
Co0 O5 2.175577 1_455
Co0 O5 2.175581 1_555
Co0 O1 2.265246 1_555
O0 Pt0 2.047340 1_566
O0 Pt2 2.072561 1_465
O0 Pt2 2.072566 1_565
O1 Pt0 2.021414 1_555
O1 Pt2 2.052353 1_455
O1 Pt2 2.052358 1_555
O2 Pt0 2.028267 1_566
O2 Pt1 2.069208 1_456
O2 Pt1 2.069213 1_556
O3 Pt0 2.017041 1_555
O3 Pt1 2.048074 1_455
O3 Pt1 2.048079 1_555
O4 Pt2 2.060279 1_555
O4 Pt1 2.616077 1_556
O5 Pt2 2.076011 1_565
O5 Pt1 2.390164 1_555
