# generated using pymatgen
data_Er2Ga8Fe
_symmetry_space_group_name_H-M   'P 1'
_cell_length_a   4.24627400
_cell_length_b   4.24627400
_cell_length_c   11.04320600
_cell_angle_alpha   90.00000000
_cell_angle_beta   90.00000000
_cell_angle_gamma   90.00000000
_symmetry_Int_Tables_number   1
_chemical_formula_structural   Er2Ga8Fe
_chemical_formula_sum   'Er2 Ga8 Fe1'
_cell_volume   199.11831231
_cell_formula_units_Z   1
loop_
 _symmetry_equiv_pos_site_id
 _symmetry_equiv_pos_as_xyz
  1  'x, y, z'
loop_
 _atom_site_type_symbol
 _atom_site_label
 _atom_site_symmetry_multiplicity
 _atom_site_fract_x
 _atom_site_fract_y
 _atom_site_fract_z
 _atom_site_occupancy
  Er  Er0  1  0.00000000  0.00000000  0.69585900  1
  Er  Er1  1  0.00000000  0.00000000  0.30414100  1
  Ga  Ga0  1  0.50000000  0.00000000  0.88494800  1
  Ga  Ga1  1  0.00000000  0.50000000  0.88494800  1
  Ga  Ga2  1  0.50000000  0.00000000  0.11505200  1
  Ga  Ga3  1  0.00000000  0.50000000  0.11505200  1
  Ga  Ga4  1  0.50000000  0.00000000  0.50000000  1
  Ga  Ga5  1  0.00000000  0.50000000  0.50000000  1
  Ga  Ga6  1  0.50000000  0.50000000  0.69905800  1
  Ga  Ga7  1  0.50000000  0.50000000  0.30094200  1
  Fe  Fe0  1  0.00000000  0.00000000  0.00000000  1
loop_
_geom_bond_atom_site_label_1
_geom_bond_atom_site_label_2
_geom_bond_distance
_geom_bond_site_symmetry_2
Er0 Ga0 2.977932 1_555
Er0 Ga1 2.977932 1_555
Er0 Ga1 2.977932 1_545
Er0 Ga0 2.977932 1_455
Er0 Ga6 3.002777 1_445
Er0 Ga6 3.002777 1_555
Er0 Ga6 3.002777 1_455
Er0 Ga6 3.002777 1_545
Er0 Ga4 3.030824 1_555
Er0 Ga5 3.030824 1_545
Er0 Ga4 3.030824 1_455
Er0 Ga5 3.030824 1_555
Er1 Ga2 2.977932 1_455
Er1 Ga2 2.977932 1_555
Er1 Ga3 2.977932 1_545
Er1 Ga3 2.977932 1_555
Er1 Ga7 3.002777 1_545
Er1 Ga7 3.002777 1_445
Er1 Ga7 3.002777 1_555
Er1 Ga7 3.002777 1_455
Er1 Ga4 3.030824 1_555
Er1 Ga5 3.030824 1_555
Er1 Ga5 3.030824 1_545
Er1 Ga4 3.030824 1_455
Ga0 Ga2 2.541086 1_556
Ga0 Ga6 2.953267 1_545
Ga0 Ga6 2.953267 1_555
Ga0 Ga1 3.002569 1_555
Ga0 Ga1 3.002569 1_645
Ga0 Ga1 3.002569 1_545
Ga0 Ga1 3.002569 1_655
Ga1 Ga3 2.541086 1_556
Ga1 Ga6 2.953267 1_455
Ga1 Ga6 2.953267 1_555
Ga2 Ga7 2.953267 1_545
Ga2 Ga7 2.953267 1_555
Ga2 Ga3 3.002569 1_655
Ga2 Ga3 3.002569 1_545
Ga2 Ga3 3.002569 1_555
Ga2 Ga3 3.002569 1_645
Ga3 Ga7 2.953267 1_555
Ga3 Ga7 2.953267 1_455
Ga4 Ga5 3.002569 1_645
Ga4 Ga5 3.002569 1_655
Ga4 Ga5 3.002569 1_545
Ga4 Ga5 3.002569 1_555
Ga4 Ga6 3.056135 1_545
Ga4 Ga6 3.056135 1_555
Ga4 Ga7 3.056135 1_545
Ga4 Ga7 3.056135 1_555
Ga5 Ga6 3.056135 1_455
Ga5 Ga6 3.056135 1_555
Ga5 Ga7 3.056135 1_555
Ga5 Ga7 3.056135 1_455
Fe0 Ga3 2.474266 1_545
Fe0 Ga2 2.474266 1_455
Fe0 Ga3 2.474266 1_555
Fe0 Ga2 2.474266 1_555
Fe0 Ga0 2.474266 1_454
Fe0 Ga1 2.474266 1_554
Fe0 Ga1 2.474266 1_544
Fe0 Ga0 2.474266 1_554
