# generated using pymatgen
data_CsMg14Cu
_symmetry_space_group_name_H-M   'P 1'
_cell_length_a   6.55683007
_cell_length_b   6.36848654
_cell_length_c   10.71628345
_cell_angle_alpha   90.00000000
_cell_angle_beta   90.00000000
_cell_angle_gamma   119.05426077
_symmetry_Int_Tables_number   1
_chemical_formula_structural   CsMg14Cu
_chemical_formula_sum   'Cs1 Mg14 Cu1'
_cell_volume   391.16985488
_cell_formula_units_Z   1
loop_
 _symmetry_equiv_pos_site_id
 _symmetry_equiv_pos_as_xyz
  1  'x, y, z'
loop_
 _atom_site_type_symbol
 _atom_site_label
 _atom_site_symmetry_multiplicity
 _atom_site_fract_x
 _atom_site_fract_y
 _atom_site_fract_z
 _atom_site_occupancy
  Cs  Cs0  1  0.16278240  0.83139070  0.12500000  1
  Mg  Mg0  1  0.15989228  0.32994564  0.62500000  1
  Mg  Mg1  1  0.16568933  0.83284416  0.62500000  1
  Mg  Mg2  1  0.65986767  0.33798802  0.12500000  1
  Mg  Mg3  1  0.66466751  0.32884502  0.62500000  1
  Mg  Mg4  1  0.65986767  0.82187866  0.12500000  1
  Mg  Mg5  1  0.66466751  0.83582149  0.62500000  1
  Mg  Mg6  1  0.34046237  0.17951422  0.39069994  1
  Mg  Mg7  1  0.34046237  0.17951422  0.85930006  1
  Mg  Mg8  1  0.34046237  0.66094915  0.39069994  1
  Mg  Mg9  1  0.34046237  0.66094915  0.85930006  1
  Mg  Mg10  1  0.84365432  0.17182766  0.36148792  1
  Mg  Mg11  1  0.84365432  0.17182766  0.88851208  1
  Mg  Mg12  1  0.82250780  0.66125440  0.39462830  1
  Mg  Mg13  1  0.82250780  0.66125440  0.85537170  1
  Cu  Cu0  1  0.16839190  0.33419545  0.12500000  1
loop_
_geom_bond_atom_site_label_1
_geom_bond_atom_site_label_2
_geom_bond_distance
_geom_bond_site_symmetry_2
Cs0 Cu0 3.184406 1_565
Cs0 Cu0 3.184406 1_555
Cs0 Mg2 3.268537 1_455
Cs0 Mg4 3.268537 1_455
Cs0 Mg2 3.289148 1_565
Cs0 Mg4 3.289149 1_555
Cs0 Mg9 3.445422 1_554
Cs0 Mg8 3.445422 1_555
Cs0 Mg7 3.445428 1_564
Cs0 Mg6 3.445428 1_565
Cs0 Mg12 3.486059 1_455
Cs0 Mg13 3.486059 1_454
Mg0 Mg7 3.118575 1_555
Mg0 Mg6 3.118575 1_555
Mg0 Mg8 3.118582 1_555
Mg0 Mg9 3.118582 1_555
Mg0 Mg1 3.184417 1_555
Mg0 Mg1 3.184417 1_545
Mg0 Mg5 3.243706 1_445
Mg0 Mg3 3.243706 1_455
Mg0 Mg5 3.313135 1_555
Mg0 Mg3 3.313135 1_555
Mg0 Mg10 3.355550 1_455
Mg0 Mg11 3.355550 1_455
Mg1 Mg13 3.156547 1_455
Mg1 Mg12 3.156547 1_455
Mg1 Mg8 3.167698 1_555
Mg1 Mg9 3.167698 1_555
Mg1 Mg6 3.167705 1_565
Mg1 Mg7 3.167705 1_565
Mg1 Mg3 3.262549 1_565
Mg1 Mg5 3.262549 1_555
Mg1 Mg3 3.294365 1_455
Mg1 Mg5 3.294365 1_455
Mg2 Mg4 3.081651 1_555
Mg2 Mg4 3.286836 1_545
Mg2 Mg7 3.385097 1_554
Mg2 Mg6 3.385097 1_555
Mg3 Mg6 3.124735 1_555
Mg3 Mg7 3.124735 1_555
Mg3 Mg5 3.139814 1_545
Mg3 Mg5 3.228673 1_555
Mg4 Mg9 3.385097 1_554
Mg4 Mg8 3.385097 1_555
Mg5 Mg8 3.124734 1_555
Mg5 Mg9 3.124734 1_555
Mg6 Mg8 3.066012 1_555
Mg6 Mg8 3.302475 1_545
Mg7 Mg9 3.066012 1_555
Mg7 Mg9 3.302475 1_545
Mg10 Mg2 3.198908 1_555
Mg10 Mg4 3.198915 1_545
Mg10 Mg12 3.206278 1_545
Mg10 Mg12 3.206278 1_555
Mg10 Mg8 3.249112 1_655
Mg10 Mg6 3.249112 1_655
Mg10 Mg8 3.338103 1_545
Mg10 Mg6 3.338103 1_555
Mg10 Mg3 3.389883 1_555
Mg10 Mg5 3.389889 1_545
Mg11 Mg2 3.198908 1_556
Mg11 Mg4 3.198915 1_546
Mg11 Mg13 3.206278 1_545
Mg11 Mg13 3.206278 1_555
Mg11 Mg9 3.249112 1_655
Mg11 Mg7 3.249112 1_655
Mg11 Mg9 3.338103 1_545
Mg11 Mg7 3.338103 1_555
Mg11 Mg3 3.389883 1_555
Mg11 Mg5 3.389889 1_545
Mg12 Mg5 3.085313 1_555
Mg12 Mg3 3.085320 1_555
Mg12 Mg6 3.160027 1_555
Mg12 Mg8 3.160027 1_555
Mg12 Mg6 3.397345 1_665
Mg12 Mg8 3.397345 1_655
Mg12 Mg4 3.404680 1_555
Mg12 Mg2 3.404685 1_555
Mg13 Mg5 3.085313 1_555
Mg13 Mg3 3.085320 1_555
Mg13 Mg7 3.160027 1_555
Mg13 Mg9 3.160027 1_555
Mg13 Mg7 3.397345 1_665
Mg13 Mg9 3.397345 1_655
Mg13 Mg4 3.404680 1_556
Mg13 Mg2 3.404685 1_556
Cu0 Mg11 3.144358 1_454
Cu0 Mg10 3.144358 1_455
Cu0 Mg4 3.210863 1_555
Cu0 Mg2 3.210863 1_555
Cu0 Mg4 3.346103 1_445
Cu0 Mg2 3.346103 1_455
Cu0 Mg7 3.380829 1_554
Cu0 Mg6 3.380829 1_555
Cu0 Mg9 3.380835 1_554
Cu0 Mg8 3.380835 1_555
