# generated using pymatgen
data_SmTlCd
_symmetry_space_group_name_H-M   'P 1'
_cell_length_a   4.93072322
_cell_length_b   4.93038338
_cell_length_c   7.46563114
_cell_angle_alpha   90.00000000
_cell_angle_beta   90.00000000
_cell_angle_gamma   120.00228013
_symmetry_Int_Tables_number   1
_chemical_formula_structural   SmTlCd
_chemical_formula_sum   'Sm2 Tl2 Cd2'
_cell_volume   157.17320054
_cell_formula_units_Z   2
loop_
 _symmetry_equiv_pos_site_id
 _symmetry_equiv_pos_as_xyz
  1  'x, y, z'
loop_
 _atom_site_type_symbol
 _atom_site_label
 _atom_site_symmetry_multiplicity
 _atom_site_fract_x
 _atom_site_fract_y
 _atom_site_fract_z
 _atom_site_occupancy
  Sm  Sm0  1  -0.00000000  -0.00000000  0.50000000  1
  Sm  Sm1  1  -0.00000000  -0.00000000  -0.00000000  1
  Tl  Tl0  1  0.33330572  0.66660944  0.75000000  1
  Tl  Tl1  1  0.66669428  0.33339056  0.25000000  1
  Cd  Cd0  1  0.33332088  0.66664176  0.25000000  1
  Cd  Cd1  1  0.66667912  0.33335824  0.75000000  1
loop_
_geom_bond_atom_site_label_1
_geom_bond_atom_site_label_2
_geom_bond_distance
_geom_bond_site_symmetry_2
Sm0 Tl0 3.403617 1_555
Sm0 Tl1 3.403617 1_445
Sm0 Tl0 3.404084 1_445
Sm0 Tl1 3.404084 1_555
Sm0 Tl0 3.404091 1_545
Sm0 Tl1 3.404091 1_455
Sm0 Sm1 3.732816 1_556
Sm0 Sm1 3.732816 1_555
Sm1 Tl0 3.403617 1_554
Sm1 Tl1 3.403617 1_445
Sm1 Tl1 3.404084 1_555
Sm1 Tl0 3.404084 1_444
Sm1 Tl0 3.404091 1_544
Sm1 Tl1 3.404091 1_455
Cd0 Tl1 2.846509 1_555
Cd0 Tl1 2.846518 1_455
Cd0 Tl1 2.846843 1_565
Cd0 Sm0 3.403732 1_555
Cd0 Sm1 3.403732 1_555
Cd0 Sm1 3.404030 1_565
Cd0 Sm1 3.404030 1_665
Cd0 Sm0 3.404030 1_565
Cd0 Sm0 3.404030 1_665
Cd1 Tl0 2.846509 1_555
Cd1 Tl0 2.846518 1_655
Cd1 Tl0 2.846843 1_545
Cd1 Sm1 3.403732 1_666
Cd1 Sm0 3.403732 1_665
Cd1 Sm0 3.404030 1_655
Cd1 Sm1 3.404030 1_556
Cd1 Sm1 3.404030 1_656
Cd1 Sm0 3.404030 1_555
