# generated using pymatgen
data_Sn2W3Cl14
_symmetry_space_group_name_H-M   'P 1'
_cell_length_a   9.63603752
_cell_length_b   9.63602182
_cell_length_c   12.37449331
_cell_angle_alpha   90.00009989
_cell_angle_beta   89.99961774
_cell_angle_gamma   120.00034617
_symmetry_Int_Tables_number   1
_chemical_formula_structural   Sn2W3Cl14
_chemical_formula_sum   'Sn4 W6 Cl28'
_cell_volume   995.06808900
_cell_formula_units_Z   2
loop_
 _symmetry_equiv_pos_site_id
 _symmetry_equiv_pos_as_xyz
  1  'x, y, z'
loop_
 _atom_site_type_symbol
 _atom_site_label
 _atom_site_symmetry_multiplicity
 _atom_site_fract_x
 _atom_site_fract_y
 _atom_site_fract_z
 _atom_site_occupancy
  Sn  Sn0  1  0.33333086  0.66665281  0.30348674  1
  Sn  Sn1  1  0.66667441  0.33333813  0.80349496  1
  Sn  Sn2  1  0.00000067  0.00000137  0.26201302  1
  Sn  Sn3  1  0.00000041  0.00000090  0.76201402  1
  W  W0  1  0.85241536  0.40639677  0.33743174  1
  W  W1  1  0.59357339  0.44598877  0.33744153  1
  W  W2  1  0.55400401  0.14760995  0.33743498  1
  W  W3  1  0.14758102  0.59360172  0.83745418  1
  W  W4  1  0.40641463  0.55399271  0.83745614  1
  W  W5  1  0.44600635  0.85240489  0.83743748  1
  Cl  Cl0  1  0.66666225  0.33333214  0.18958602  1
  Cl  Cl1  1  0.33333069  0.66666335  0.68959493  1
  Cl  Cl2  1  0.75467337  0.19660075  0.47094932  1
  Cl  Cl3  1  0.80340023  0.55807073  0.47095690  1
  Cl  Cl4  1  0.44193410  0.24532786  0.47095059  1
  Cl  Cl5  1  0.24533558  0.80341390  0.97096322  1
  Cl  Cl6  1  0.19659845  0.44193497  0.97096657  1
  Cl  Cl7  1  0.55806929  0.75467336  0.97095648  1
  Cl  Cl8  1  0.97234807  0.29144300  0.22604323  1
  Cl  Cl9  1  0.70855236  0.68091313  0.22605135  1
  Cl  Cl10  1  0.31908360  0.02764625  0.22604285  1
  Cl  Cl11  1  0.02765212  0.70855956  0.72605327  1
  Cl  Cl12  1  0.29144263  0.31908534  0.72605507  1
  Cl  Cl13  1  0.68091150  0.97234578  0.72605049  1
  Cl  Cl14  1  0.10066856  0.49604169  0.44781265  1
  Cl  Cl15  1  0.50395509  0.60462511  0.44781988  1
  Cl  Cl16  1  0.39536856  0.89932962  0.44781612  1
  Cl  Cl17  1  0.89933428  0.50397070  0.94782375  1
  Cl  Cl18  1  0.49603957  0.39536959  0.94782652  1
  Cl  Cl19  1  0.60463868  0.10067108  0.94781975  1
  Cl  Cl20  1  0.01794790  0.64630729  0.23811845  1
  Cl  Cl21  1  0.35368941  0.37164311  0.23813027  1
  Cl  Cl22  1  0.62835748  0.98205616  0.23811518  1
  Cl  Cl23  1  0.98204982  0.35369642  0.73813568  1
  Cl  Cl24  1  0.64630603  0.62834860  0.73813882  1
  Cl  Cl25  1  0.37164916  0.01794284  0.73812158  1
  Cl  Cl26  1  -0.00000094  -0.00000170  0.06895809  1
  Cl  Cl27  1  0.00000307  0.00000131  0.56895916  1
loop_
_geom_bond_atom_site_label_1
_geom_bond_atom_site_label_2
_geom_bond_distance
_geom_bond_site_symmetry_2
Cl0 W2 2.405347 1_555
Cl0 W0 2.405509 1_555
Cl0 W1 2.405528 1_555
Cl1 W5 2.405403 1_555
Cl1 W3 2.405602 1_555
Cl1 W4 2.405648 1_555
Cl2 W2 2.403905 1_555
Cl2 W0 2.408252 1_555
Cl3 W0 2.404072 1_555
Cl3 W1 2.408435 1_555
Cl4 W1 2.403722 1_555
Cl4 W2 2.408195 1_555
Cl5 W5 2.403994 1_555
Cl5 W3 2.408280 1_555
Cl6 W3 2.403933 1_555
Cl6 W4 2.408307 1_555
Cl7 W4 2.403783 1_555
Cl7 W5 2.408273 1_555
Cl8 W0 2.396378 1_555
Cl8 Sn2 2.983993 1_655
Cl9 W1 2.396642 1_555
Cl9 Sn2 2.983959 1_665
Cl10 W2 2.396642 1_555
Cl10 Sn2 2.983916 1_555
Cl11 W3 2.396479 1_555
Cl11 Sn3 2.983966 1_565
Cl12 W4 2.396607 1_555
Cl12 Sn3 2.983905 1_555
Cl13 W5 2.396485 1_555
Cl13 Sn3 2.983924 1_665
Cl14 W0 2.503599 1_455
Cl14 Sn0 2.689400 1_555
Cl15 W1 2.503619 1_555
Cl15 Sn0 2.689457 1_555
Cl16 W2 2.503788 1_565
Cl16 Sn0 2.689566 1_555
Cl17 W3 2.503476 1_655
Cl17 Sn1 2.689468 1_555
Cl18 W4 2.503516 1_555
Cl18 Sn1 2.689521 1_555
Cl19 W5 2.503710 1_545
Cl19 Sn1 2.689463 1_555
Cl20 W0 2.389855 1_455
Cl20 Sn0 3.054955 1_555
Cl21 W1 2.389708 1_555
Cl21 Sn0 3.054716 1_555
Cl22 W2 2.389925 1_565
Cl22 Sn0 3.055000 1_555
Cl23 W3 2.389861 1_655
Cl23 Sn1 3.054792 1_555
Cl24 W4 2.389772 1_555
Cl24 Sn1 3.054776 1_555
Cl25 W5 2.389806 1_545
Cl25 Sn1 3.054966 1_555
Cl26 Sn2 2.388957 1_555
Cl27 Sn3 2.388956 1_555
