# generated using pymatgen
data_SiPN3
_symmetry_space_group_name_H-M   'P 1'
_cell_length_a   4.69664000
_cell_length_b   5.27599500
_cell_length_c   5.29304605
_cell_angle_alpha   60.27041811
_cell_angle_beta   90.00000000
_cell_angle_gamma   90.00000000
_symmetry_Int_Tables_number   1
_chemical_formula_structural   SiPN3
_chemical_formula_sum   'Si2 P2 N6'
_cell_volume   113.89507069
_cell_formula_units_Z   2
loop_
 _symmetry_equiv_pos_site_id
 _symmetry_equiv_pos_as_xyz
  1  'x, y, z'
loop_
 _atom_site_type_symbol
 _atom_site_label
 _atom_site_symmetry_multiplicity
 _atom_site_fract_x
 _atom_site_fract_y
 _atom_site_fract_z
 _atom_site_occupancy
  Si  Si0  1  0.50372800  0.32536500  0.67607500  1
  Si  Si1  1  0.00372800  0.67463500  0.32392500  1
  P  P0  1  0.49539500  0.99392600  0.33438000  1
  P  P1  1  0.99539500  0.00607400  0.66562000  1
  N  N0  1  0.85854700  0.33245800  0.57281400  1
  N  N1  1  0.84225800  0.91546000  0.43066600  1
  N  N2  1  0.35854700  0.66754200  0.42718600  1
  N  N3  1  0.34225800  0.08454000  0.56933400  1
  N  N4  1  0.93327200  0.76919200  0.98323600  1
  N  N5  1  0.43327200  0.23080800  0.01676400  1
loop_
_geom_bond_atom_site_label_1
_geom_bond_atom_site_label_2
_geom_bond_distance
_geom_bond_site_symmetry_2
N0 P1 1.667548 1_555
N0 Si0 1.748407 1_555
N0 Si1 1.760907 1_655
N1 P0 1.695819 1_555
N1 P1 1.697684 1_565
N1 Si1 1.794636 1_655
N2 P0 1.667548 1_555
N2 Si1 1.748407 1_555
N2 Si0 1.760907 1_555
N3 P1 1.695819 1_455
N3 P0 1.697684 1_545
N3 Si0 1.794636 1_555
N4 P1 1.545799 1_565
N4 Si1 1.648620 1_656
N5 P0 1.545799 1_545
N5 Si0 1.648620 1_554
