# generated using pymatgen
data_LiPrO2
_symmetry_space_group_name_H-M   'P 1'
_cell_length_a   6.13305472
_cell_length_b   5.80412305
_cell_length_c   5.81416608
_cell_angle_alpha   77.68114338
_cell_angle_beta   90.00000000
_cell_angle_gamma   90.00000000
_symmetry_Int_Tables_number   1
_chemical_formula_structural   LiPrO2
_chemical_formula_sum   'Li4 Pr4 O8'
_cell_volume   202.20156709
_cell_formula_units_Z   4
loop_
 _symmetry_equiv_pos_site_id
 _symmetry_equiv_pos_as_xyz
  1  'x, y, z'
loop_
 _atom_site_type_symbol
 _atom_site_label
 _atom_site_symmetry_multiplicity
 _atom_site_fract_x
 _atom_site_fract_y
 _atom_site_fract_z
 _atom_site_occupancy
  Li  Li0  1  0.35816895  0.33561921  0.69028945  1
  Li  Li1  1  0.64183105  0.66438079  0.30971055  1
  Li  Li2  1  0.14183105  0.33561921  0.19028945  1
  Li  Li3  1  0.85816895  0.66438079  0.80971055  1
  Pr  Pr0  1  0.56992548  0.20131121  0.19855178  1
  Pr  Pr1  1  0.06992548  0.79868879  0.30144822  1
  Pr  Pr2  1  0.43007452  0.79868879  0.80144822  1
  Pr  Pr3  1  0.93007452  0.20131121  0.69855178  1
  O  O0  1  0.73894956  0.90824698  0.51650735  1
  O  O1  1  0.76105044  0.90824698  0.01650735  1
  O  O2  1  0.23894956  0.09175302  0.98349265  1
  O  O3  1  0.26105044  0.09175302  0.48349265  1
  O  O4  1  0.86902361  0.42680910  0.29638046  1
  O  O5  1  0.36902361  0.57319090  0.20361954  1
  O  O6  1  0.13097639  0.57319090  0.70361954  1
  O  O7  1  0.63097639  0.42680910  0.79638046  1
loop_
_geom_bond_atom_site_label_1
_geom_bond_atom_site_label_2
_geom_bond_distance
_geom_bond_site_symmetry_2
Li0 O7 1.897190 1_555
Li0 O6 1.973444 1_555
Li0 O2 2.101088 1_555
Li0 O3 2.128391 1_555
Li1 O5 1.897190 1_555
Li1 O4 1.973444 1_555
Li1 O1 2.101088 1_555
Li1 O0 2.128391 1_555
Li2 O4 1.897190 1_455
Li2 O5 1.973444 1_555
Li2 O3 2.101088 1_555
Li2 O2 2.128391 1_554
Li3 O6 1.897190 1_655
Li3 O7 1.973444 1_555
Li3 O0 2.101088 1_555
Li3 O1 2.128391 1_556
O0 Pr0 2.458386 1_565
O0 Pr3 2.481100 1_565
O0 Pr2 2.507592 1_555
O0 Pr1 2.535266 1_655
O1 Pr3 2.458386 1_564
O1 Pr0 2.481100 1_565
O1 Pr1 2.507592 1_655
O1 Pr2 2.535266 1_554
O2 Pr1 2.458386 1_546
O2 Pr2 2.481100 1_545
O2 Pr3 2.507592 1_455
O2 Pr0 2.535266 1_556
O3 Pr2 2.458386 1_545
O3 Pr1 2.481100 1_545
O3 Pr0 2.507592 1_555
O3 Pr3 2.535266 1_455
O4 Pr0 2.391475 1_555
O4 Pr3 2.452534 1_555
O4 Pr1 2.490988 1_655
O5 Pr1 2.391475 1_555
O5 Pr2 2.452534 1_554
O5 Pr0 2.490988 1_555
O6 Pr2 2.391475 1_555
O6 Pr1 2.452534 1_555
O6 Pr3 2.490988 1_455
O7 Pr3 2.391475 1_555
O7 Pr0 2.452534 1_556
O7 Pr2 2.490988 1_555
