# generated using pymatgen
data_SrLaTlCuO5
_symmetry_space_group_name_H-M   'P 1'
_cell_length_a   3.80831400
_cell_length_b   3.80831400
_cell_length_c   8.94021800
_cell_angle_alpha   90.00000000
_cell_angle_beta   90.00000000
_cell_angle_gamma   90.00000000
_symmetry_Int_Tables_number   1
_chemical_formula_structural   SrLaTlCuO5
_chemical_formula_sum   'Sr1 La1 Tl1 Cu1 O5'
_cell_volume   129.66226608
_cell_formula_units_Z   1
loop_
 _symmetry_equiv_pos_site_id
 _symmetry_equiv_pos_as_xyz
  1  'x, y, z'
loop_
 _atom_site_type_symbol
 _atom_site_label
 _atom_site_symmetry_multiplicity
 _atom_site_fract_x
 _atom_site_fract_y
 _atom_site_fract_z
 _atom_site_occupancy
  Sr  Sr0  1  0.50000000  0.50000000  0.78365600  1
  La  La0  1  0.50000000  0.50000000  0.19691400  1
  Tl  Tl0  1  0.00000000  0.00000000  0.49663800  1
  Cu  Cu0  1  0.00000000  0.00000000  0.99149200  1
  O  O0  1  0.00000000  0.00000000  0.73047500  1
  O  O1  1  0.00000000  0.00000000  0.26206200  1
  O  O2  1  0.00000000  0.50000000  0.01020500  1
  O  O3  1  0.50000000  0.00000000  0.01020500  1
  O  O4  1  0.50000000  0.50000000  0.47835400  1
loop_
_geom_bond_atom_site_label_1
_geom_bond_atom_site_label_2
_geom_bond_distance
_geom_bond_site_symmetry_2
La0 O4 2.516135 1_555
La0 O2 2.532214 1_655
La0 O3 2.532214 1_555
La0 O2 2.532214 1_555
La0 O3 2.532214 1_565
La0 O1 2.755152 1_665
La0 O1 2.755152 1_555
La0 O1 2.755152 1_655
La0 O1 2.755152 1_565
Cu0 O2 1.911492 1_546
Cu0 O3 1.911492 1_556
Cu0 O2 1.911492 1_556
Cu0 O3 1.911492 1_456
Cu0 O0 2.333549 1_555
Cu0 O1 2.418955 1_556
O0 Tl0 2.090554 1_555
O0 Sr0 2.734535 1_545
O0 Sr0 2.734535 1_555
O0 Sr0 2.734535 1_455
O0 Sr0 2.734535 1_445
O1 Tl0 2.097161 1_555
O2 Sr0 2.779937 1_454
O2 Sr0 2.779937 1_554
O3 Sr0 2.779937 1_544
O3 Sr0 2.779937 1_554
O4 Tl0 2.697841 1_665
O4 Tl0 2.697841 1_555
O4 Tl0 2.697841 1_565
O4 Tl0 2.697841 1_655
O4 Sr0 2.729466 1_555
