# generated using pymatgen
data_YGaO3
_symmetry_space_group_name_H-M   'P 1'
_cell_length_a   6.13362246
_cell_length_b   6.13362246
_cell_length_c   11.73154400
_cell_angle_alpha   90.00000000
_cell_angle_beta   90.00000000
_cell_angle_gamma   120.00000496
_symmetry_Int_Tables_number   1
_chemical_formula_structural   YGaO3
_chemical_formula_sum   'Y6 Ga6 O18'
_cell_volume   382.22568253
_cell_formula_units_Z   6
loop_
 _symmetry_equiv_pos_site_id
 _symmetry_equiv_pos_as_xyz
  1  'x, y, z'
loop_
 _atom_site_type_symbol
 _atom_site_label
 _atom_site_symmetry_multiplicity
 _atom_site_fract_x
 _atom_site_fract_y
 _atom_site_fract_z
 _atom_site_occupancy
  Y  Y0  1  0.66666700  0.33333300  0.23001500  1
  Y  Y1  1  0.33333300  0.66666700  0.73001500  1
  Y  Y2  1  0.66666700  0.33333300  0.73001500  1
  Y  Y3  1  0.33333300  0.66666700  0.23001500  1
  Y  Y4  1  0.00000000  0.00000000  0.77087400  1
  Y  Y5  1  0.00000000  0.00000000  0.27087400  1
  Ga  Ga0  1  0.66571600  0.00000000  0.49674100  1
  Ga  Ga1  1  0.66571600  0.66571600  0.99674100  1
  Ga  Ga2  1  0.00000000  0.33428400  0.99674100  1
  Ga  Ga3  1  0.00000000  0.66571600  0.49674100  1
  Ga  Ga4  1  0.33428400  0.33428400  0.49674100  1
  Ga  Ga5  1  0.33428400  0.00000000  0.99674100  1
  O  O0  1  0.66666700  0.33333300  0.01583600  1
  O  O1  1  0.33333300  0.66666700  0.51583600  1
  O  O2  1  0.66666700  0.33333300  0.51583600  1
  O  O3  1  0.33333300  0.66666700  0.01583600  1
  O  O4  1  0.00000000  0.00000000  0.97440600  1
  O  O5  1  0.00000000  0.00000000  0.47440600  1
  O  O6  1  0.35884800  0.00000000  0.83535700  1
  O  O7  1  0.35884800  0.35884800  0.33535700  1
  O  O8  1  0.00000000  0.64115200  0.33535700  1
  O  O9  1  0.00000000  0.35884800  0.83535700  1
  O  O10  1  0.64115200  0.64115200  0.83535700  1
  O  O11  1  0.64115200  0.00000000  0.33535700  1
  O  O12  1  0.30737900  0.00000000  0.15924200  1
  O  O13  1  0.30737900  0.30737900  0.65924200  1
  O  O14  1  0.00000000  0.69262100  0.65924200  1
  O  O15  1  0.00000000  0.30737900  0.15924200  1
  O  O16  1  0.69262100  0.69262100  0.15924200  1
  O  O17  1  0.69262100  0.00000000  0.65924200  1
loop_
_geom_bond_atom_site_label_1
_geom_bond_atom_site_label_2
_geom_bond_distance
_geom_bond_site_symmetry_2
Ga0 O11 1.899269 1_555
Ga0 O17 1.913517 1_555
Ga0 O2 2.053881 1_555
Ga0 O1 2.053884 1_545
Ga0 O5 2.067047 1_655
Ga1 O10 1.899269 1_555
Ga1 O16 1.913517 1_556
Ga1 O0 2.053888 1_556
Ga1 O3 2.053888 1_556
Ga1 O4 2.067046 1_665
Ga2 O9 1.899269 1_555
Ga2 O15 1.913517 1_556
Ga2 O0 2.053881 1_456
Ga2 O3 2.053884 1_556
Ga2 O4 2.067047 1_555
Ga3 O8 1.899269 1_555
Ga3 O14 1.913517 1_555
Ga3 O1 2.053881 1_555
Ga3 O2 2.053884 1_455
Ga3 O5 2.067047 1_565
Ga4 O7 1.899269 1_555
Ga4 O13 1.913517 1_555
Ga4 O1 2.053888 1_555
Ga4 O2 2.053888 1_555
Ga4 O5 2.067046 1_555
Ga5 O6 1.899269 1_555
Ga5 O12 1.913517 1_556
Ga5 O3 2.053881 1_546
Ga5 O0 2.053884 1_556
Ga5 O4 2.067047 1_555
O0 Y0 2.512650 1_555
O1 Y1 2.512650 1_555
O2 Y2 2.512650 1_555
O3 Y3 2.512650 1_555
O4 Y4 2.387745 1_555
O5 Y5 2.387745 1_555
O6 Y1 2.326354 1_545
O6 Y2 2.326356 1_555
O6 Y4 2.327410 1_555
O7 Y3 2.326359 1_555
O7 Y0 2.326359 1_555
O7 Y5 2.327410 1_555
O8 Y3 2.326354 1_555
O8 Y0 2.326356 1_455
O8 Y5 2.327410 1_565
O9 Y2 2.326354 1_455
O9 Y1 2.326356 1_555
O9 Y4 2.327410 1_555
O10 Y1 2.326359 1_555
O10 Y2 2.326359 1_555
O10 Y4 2.327410 1_665
O11 Y0 2.326354 1_555
O11 Y3 2.326356 1_545
O11 Y5 2.327410 1_655
O12 Y3 2.284801 1_545
O12 Y0 2.284804 1_555
O12 Y5 2.295567 1_555
O13 Y1 2.284806 1_555
O13 Y2 2.284806 1_555
O13 Y4 2.295566 1_555
O14 Y1 2.284801 1_555
O14 Y2 2.284804 1_455
O14 Y4 2.295567 1_565
O15 Y0 2.284801 1_455
O15 Y3 2.284804 1_555
O15 Y5 2.295567 1_555
O16 Y3 2.284806 1_555
O16 Y0 2.284806 1_555
O16 Y5 2.295566 1_665
O17 Y2 2.284801 1_555
O17 Y1 2.284804 1_545
O17 Y4 2.295567 1_655
