# generated using pymatgen
data_Li3Co2(CO3)4
_symmetry_space_group_name_H-M   'P 1'
_cell_length_a   5.41552152
_cell_length_b   6.34721315
_cell_length_c   16.16216876
_cell_angle_alpha   88.13544715
_cell_angle_beta   91.63464193
_cell_angle_gamma   114.81279541
_symmetry_Int_Tables_number   1
_chemical_formula_structural   Li3Co2(CO3)4
_chemical_formula_sum   'Li6 Co4 C8 O24'
_cell_volume   503.92884329
_cell_formula_units_Z   2
loop_
 _symmetry_equiv_pos_site_id
 _symmetry_equiv_pos_as_xyz
  1  'x, y, z'
loop_
 _atom_site_type_symbol
 _atom_site_label
 _atom_site_symmetry_multiplicity
 _atom_site_fract_x
 _atom_site_fract_y
 _atom_site_fract_z
 _atom_site_occupancy
  Li  Li0  1  0.62630900  0.95304600  0.15537600  1
  Li  Li1  1  0.13448600  0.95756100  0.65845500  1
  Li  Li2  1  0.17460000  0.05154500  0.33739900  1
  Li  Li3  1  0.67787800  0.05006900  0.83759600  1
  Li  Li4  1  0.16856500  0.52781200  0.42153700  1
  Li  Li5  1  0.66442600  0.52126600  0.92936700  1
  Co  Co0  1  0.63610300  0.00287100  0.50108300  1
  Co  Co1  1  0.12513600  0.51604900  0.73928500  1
  Co  Co2  1  0.13488800  0.99396500  0.00073400  1
  Co  Co3  1  0.58552800  0.50702700  0.24677200  1
  C  C0  1  0.77583100  0.61113300  0.10683400  1
  C  C1  1  0.28209500  0.61149900  0.60268400  1
  C  C2  1  0.22736000  0.12487500  0.14847700  1
  C  C3  1  0.74176700  0.12345200  0.64962600  1
  C  C4  1  0.61075100  0.88454500  0.34851200  1
  C  C5  1  0.11365000  0.87341600  0.84876200  1
  C  C6  1  0.66153700  0.39704100  0.39412800  1
  C  C7  1  0.13760900  0.38331100  0.89738700  1
  O  O0  1  0.87337200  0.65827500  0.03385800  1
  O  O1  1  0.36413700  0.66148000  0.52864900  1
  O  O2  1  0.54736700  0.61898600  0.12559300  1
  O  O3  1  0.05094200  0.60820300  0.62709000  1
  O  O4  1  0.99401100  0.08653600  0.11761500  1
  O  O5  1  0.50329200  0.08148600  0.62119500  1
  O  O6  1  0.39751900  0.08475500  0.10386400  1
  O  O7  1  0.90629400  0.08489600  0.60121000  1
  O  O8  1  0.29653900  0.19952500  0.22488700  1
  O  O9  1  0.82210400  0.19845300  0.72480600  1
  O  O10  1  0.89571000  0.55441700  0.16868100  1
  O  O11  1  0.41571300  0.56227400  0.66250200  1
  O  O12  1  0.61094900  0.81926300  0.27253300  1
  O  O13  1  0.12055500  0.81521800  0.77221900  1
  O  O14  1  0.42029800  0.38687300  0.37496400  1
  O  O15  1  0.89361200  0.36464800  0.88937500  1
  O  O16  1  0.82589400  0.94565600  0.39520600  1
  O  O17  1  0.32542600  0.93131100  0.89699000  1
  O  O18  1  0.84040100  0.47217400  0.33498300  1
  O  O19  1  0.30001600  0.45575300  0.83283400  1
  O  O20  1  0.39456300  0.88819100  0.37921300  1
  O  O21  1  0.89543300  0.87672000  0.87858100  1
  O  O22  1  0.73064200  0.33870000  0.46422400  1
  O  O23  1  0.24553600  0.33462400  0.96272900  1
loop_
_geom_bond_atom_site_label_1
_geom_bond_atom_site_label_2
_geom_bond_distance
_geom_bond_site_symmetry_2
Li0 O4 1.917089 1_565
Li0 O6 1.921557 1_565
Li0 O12 2.039223 1_555
Li0 O2 2.050419 1_555
Li1 O5 1.920858 1_565
Li1 O7 1.939271 1_465
Li1 O13 2.011291 1_555
Li1 O3 2.144010 1_555
Li2 O16 1.971115 1_445
Li2 O20 1.973792 1_545
Li2 O8 2.015388 1_555
Li2 O14 2.080915 1_555
Li3 O17 1.995678 1_545
Li3 O21 2.008373 1_545
Li3 O15 2.036453 1_555
Li3 O9 2.042611 1_555
Li4 O1 2.018729 1_555
Li4 O14 2.085969 1_555
Li4 O18 2.145590 1_455
Li4 O20 2.189592 1_555
Li4 O22 2.278461 1_455
Li5 O0 2.012299 1_556
Li5 O15 2.017328 1_555
Li5 O23 2.147774 1_555
Li5 O21 2.213166 1_555
Li5 O19 2.383163 1_555
Co0 O22 2.044369 1_555
Co0 O7 2.076349 1_555
Co0 O1 2.087848 1_545
Co0 O16 2.137888 1_545
Co0 O5 2.231309 1_555
Co0 O20 2.295145 1_545
Co1 O19 1.874639 1_555
Co1 O11 1.950031 1_555
Co1 O3 1.969353 1_555
Co1 O13 1.998947 1_555
Co1 O9 2.010910 1_455
Co2 O23 2.063671 1_564
Co2 O0 2.066049 1_455
Co2 O6 2.091065 1_565
Co2 O17 2.126221 1_554
Co2 O4 2.241983 1_465
Co2 O21 2.296236 1_454
Co3 O8 1.957923 1_555
Co3 O12 1.985291 1_555
Co3 O18 2.027347 1_555
Co3 O10 2.043848 1_555
Co3 O2 2.095969 1_555
Co3 O14 2.259446 1_555
C0 O0 1.280464 1_555
C0 O10 1.298437 1_555
C0 O2 1.303589 1_555
C1 O1 1.271669 1_555
C1 O11 1.298499 1_555
C1 O3 1.314810 1_555
C2 O4 1.272322 1_455
C2 O6 1.296426 1_555
C2 O8 1.323880 1_555
C3 O5 1.278814 1_555
C3 O7 1.304353 1_555
C3 O9 1.313755 1_555
C4 O16 1.291143 1_555
C4 O20 1.293862 1_555
C4 O12 1.308893 1_555
C5 O17 1.293000 1_555
C5 O21 1.297386 1_455
C5 O13 1.308526 1_555
C6 O22 1.274941 1_555
C6 O14 1.309320 1_555
C6 O18 1.309547 1_555
C7 O15 1.279329 1_455
C7 O23 1.283565 1_555
C7 O19 1.324838 1_555
