# generated using pymatgen
data_Cd3Hg
_symmetry_space_group_name_H-M   'P 1'
_cell_length_a   6.27490315
_cell_length_b   6.27490315
_cell_length_c   5.19844378
_cell_angle_alpha   90.00000000
_cell_angle_beta   90.00000000
_cell_angle_gamma   120.00001019
_symmetry_Int_Tables_number   1
_chemical_formula_structural   Cd3Hg
_chemical_formula_sum   'Cd6 Hg2'
_cell_volume   177.26295807
_cell_formula_units_Z   2
loop_
 _symmetry_equiv_pos_site_id
 _symmetry_equiv_pos_as_xyz
  1  'x, y, z'
loop_
 _atom_site_type_symbol
 _atom_site_label
 _atom_site_symmetry_multiplicity
 _atom_site_fract_x
 _atom_site_fract_y
 _atom_site_fract_z
 _atom_site_occupancy
  Cd  Cd0  1  0.16633421  0.33267041  0.25000000  1
  Cd  Cd1  1  0.66732959  0.83366579  0.25000000  1
  Cd  Cd2  1  0.16633421  0.83366579  0.25000000  1
  Cd  Cd3  1  0.83366579  0.66732959  0.75000000  1
  Cd  Cd4  1  0.33267041  0.16633421  0.75000000  1
  Cd  Cd5  1  0.83366579  0.16633421  0.75000000  1
  Hg  Hg0  1  0.33333300  0.66666700  0.75000000  1
  Hg  Hg1  1  0.66666700  0.33333300  0.25000000  1
loop_
_geom_bond_atom_site_label_1
_geom_bond_atom_site_label_2
_geom_bond_distance
_geom_bond_site_symmetry_2
Cd0 Cd1 3.131205 1_445
Cd0 Cd2 3.131206 1_545
Cd0 Hg1 3.137444 1_455
Cd0 Hg1 3.137463 1_555
Cd0 Cd1 3.143697 1_555
Cd0 Cd2 3.143697 1_555
Cd0 Cd5 3.166082 1_455
Cd0 Cd5 3.166082 1_454
Cd0 Cd4 3.166095 1_555
Cd0 Cd4 3.166095 1_554
Cd0 Hg0 3.170209 1_555
Cd0 Hg0 3.170209 1_554
Cd1 Cd2 3.131206 1_655
Cd1 Hg1 3.137444 1_565
Cd1 Hg1 3.137463 1_555
Cd1 Cd2 3.143697 1_555
Cd1 Cd5 3.166082 1_564
Cd1 Cd5 3.166082 1_565
Cd1 Cd3 3.166095 1_555
Cd1 Cd3 3.166095 1_554
Cd1 Hg0 3.170209 1_555
Cd1 Hg0 3.170209 1_554
Cd2 Hg1 3.137453 1_455
Cd2 Hg1 3.137453 1_565
Cd2 Cd3 3.166082 1_454
Cd2 Cd3 3.166082 1_455
Cd2 Cd4 3.166082 1_565
Cd2 Cd4 3.166082 1_564
Cd2 Hg0 3.170212 1_555
Cd2 Hg0 3.170212 1_554
Cd3 Cd4 3.131205 1_665
Cd3 Cd5 3.131206 1_565
Cd3 Hg0 3.137444 1_655
Cd3 Hg0 3.137463 1_555
Cd3 Cd4 3.143697 1_555
Cd3 Cd5 3.143697 1_555
Cd3 Hg1 3.170209 1_556
Cd3 Hg1 3.170209 1_555
Cd4 Cd5 3.131206 1_455
Cd4 Hg0 3.137444 1_545
Cd4 Hg0 3.137463 1_555
Cd4 Cd5 3.143697 1_555
Cd4 Hg1 3.170209 1_556
Cd4 Hg1 3.170209 1_555
Cd5 Hg0 3.137453 1_655
Cd5 Hg0 3.137453 1_545
Cd5 Hg1 3.170212 1_556
Cd5 Hg1 3.170212 1_555
