# generated using pymatgen
data_MgMn4O8
_symmetry_space_group_name_H-M   'P 1'
_cell_length_a   5.27966830
_cell_length_b   5.81958106
_cell_length_c   5.97625402
_cell_angle_alpha   62.40228677
_cell_angle_beta   89.56145398
_cell_angle_gamma   71.90099791
_symmetry_Int_Tables_number   1
_chemical_formula_structural   MgMn4O8
_chemical_formula_sum   'Mg1 Mn4 O8'
_cell_volume   152.64202791
_cell_formula_units_Z   1
loop_
 _symmetry_equiv_pos_site_id
 _symmetry_equiv_pos_as_xyz
  1  'x, y, z'
loop_
 _atom_site_type_symbol
 _atom_site_label
 _atom_site_symmetry_multiplicity
 _atom_site_fract_x
 _atom_site_fract_y
 _atom_site_fract_z
 _atom_site_occupancy
  Mg  Mg0  1  0.50000700  0.49997900  0.25001400  1
  Mn  Mn0  1  0.04194900  0.98424800  0.50720500  1
  Mn  Mn1  1  0.99781000  0.50152400  0.99627000  1
  Mn  Mn2  1  0.95798900  0.01583900  0.99279500  1
  Mn  Mn3  1  0.00217400  0.49844800  0.50370900  1
  O  O0  1  0.21895900  0.73091700  0.38489300  1
  O  O1  1  0.20442800  0.74355800  0.91499300  1
  O  O2  1  0.18076400  0.26660300  0.85711600  1
  O  O3  1  0.21574100  0.28083100  0.34699600  1
  O  O4  1  0.81925000  0.73340900  0.64288400  1
  O  O5  1  0.78426100  0.71916800  0.15300900  1
  O  O6  1  0.78106800  0.26905400  0.11509900  1
  O  O7  1  0.79561100  0.25640700  0.58501700  1
loop_
_geom_bond_atom_site_label_1
_geom_bond_atom_site_label_2
_geom_bond_distance
_geom_bond_site_symmetry_2
Mg0 O0 2.098603 1_555
Mg0 O6 2.098738 1_555
Mg0 O1 2.120663 1_554
Mg0 O7 2.120665 1_555
Mg0 O3 2.169334 1_555
Mg0 O5 2.169439 1_555
Mn0 O0 1.926958 1_555
Mn0 O7 1.951826 1_465
Mn0 O4 2.031260 1_455
Mn0 O3 2.043793 1_565
Mn0 O1 2.181680 1_555
Mn0 O6 2.273297 1_465
Mn1 O6 1.924414 1_556
Mn1 O2 1.927254 1_655
Mn1 O1 1.929401 1_655
Mn1 O4 1.941525 1_555
Mn1 O5 1.987133 1_556
Mn1 O3 1.997823 1_656
Mn2 O6 1.926274 1_556
Mn2 O1 1.952517 1_645
Mn2 O2 2.031269 1_655
Mn2 O5 2.043949 1_546
Mn2 O7 2.181522 1_555
Mn2 O0 2.273489 1_646
Mn3 O0 1.924590 1_555
Mn3 O4 1.927480 1_455
Mn3 O7 1.929187 1_455
Mn3 O2 1.941657 1_555
Mn3 O3 1.986943 1_555
Mn3 O5 1.997665 1_455
