# generated using pymatgen
data_CaTiBiO5
_symmetry_space_group_name_H-M   'P 1'
_cell_length_a   5.59250100
_cell_length_b   11.34420300
_cell_length_c   16.01546600
_cell_angle_alpha   90.00000000
_cell_angle_beta   90.00000000
_cell_angle_gamma   90.00000000
_symmetry_Int_Tables_number   1
_chemical_formula_structural   CaTiBiO5
_chemical_formula_sum   'Ca8 Ti8 Bi8 O40'
_cell_volume   1016.06066714
_cell_formula_units_Z   8
loop_
 _symmetry_equiv_pos_site_id
 _symmetry_equiv_pos_as_xyz
  1  'x, y, z'
loop_
 _atom_site_type_symbol
 _atom_site_label
 _atom_site_symmetry_multiplicity
 _atom_site_fract_x
 _atom_site_fract_y
 _atom_site_fract_z
 _atom_site_occupancy
  Ca  Ca0  1  0.49513500  0.36043800  0.45389600  1
  Ca  Ca1  1  0.99513500  0.13956200  0.45389600  1
  Ca  Ca2  1  0.99513500  0.63956200  0.04610400  1
  Ca  Ca3  1  0.00486500  0.36043800  0.95389600  1
  Ca  Ca4  1  0.50486500  0.13956200  0.95389600  1
  Ca  Ca5  1  0.00486500  0.86043800  0.54610400  1
  Ca  Ca6  1  0.50486500  0.63956200  0.54610400  1
  Ca  Ca7  1  0.49513500  0.86043800  0.04610400  1
  Ti  Ti0  1  0.98667700  0.39974500  0.59821300  1
  Ti  Ti1  1  0.51332300  0.89974500  0.40178700  1
  Ti  Ti2  1  0.01332300  0.60025500  0.40178700  1
  Ti  Ti3  1  0.48667700  0.10025500  0.59821300  1
  Ti  Ti4  1  0.01332300  0.10025500  0.09821300  1
  Ti  Ti5  1  0.98667700  0.89974500  0.90178700  1
  Ti  Ti6  1  0.51332300  0.39974500  0.09821300  1
  Ti  Ti7  1  0.48667700  0.60025500  0.90178700  1
  Bi  Bi0  1  0.93734100  0.84207400  0.22895400  1
  Bi  Bi1  1  0.06265900  0.15792600  0.77104600  1
  Bi  Bi2  1  0.56265900  0.34207400  0.77104600  1
  Bi  Bi3  1  0.06265900  0.65792600  0.72895400  1
  Bi  Bi4  1  0.43734100  0.15792600  0.27104600  1
  Bi  Bi5  1  0.43734100  0.65792600  0.22895400  1
  Bi  Bi6  1  0.56265900  0.84207400  0.72895400  1
  Bi  Bi7  1  0.93734100  0.34207400  0.27104600  1
  O  O0  1  0.89126900  0.30639000  0.69369000  1
  O  O1  1  0.28353900  0.03914700  0.05772400  1
  O  O2  1  0.21646200  0.53914700  0.94227600  1
  O  O3  1  0.24387900  0.77995900  0.15422800  1
  O  O4  1  0.25612100  0.27995900  0.84577200  1
  O  O5  1  0.89126900  0.80639000  0.80631000  1
  O  O6  1  0.25612100  0.77995900  0.65422800  1
  O  O7  1  0.60873100  0.80639000  0.30631000  1
  O  O8  1  0.28353900  0.53914700  0.44227600  1
  O  O9  1  0.10873100  0.69361000  0.30631000  1
  O  O10  1  0.60873100  0.30639000  0.19369000  1
  O  O11  1  0.63699100  0.19012800  0.52508200  1
  O  O12  1  0.78353900  0.96085300  0.44227600  1
  O  O13  1  0.75612100  0.72004100  0.65422800  1
  O  O14  1  0.19249100  0.01845200  0.85591000  1
  O  O15  1  0.78353900  0.46085300  0.05772400  1
  O  O16  1  0.10873100  0.19361000  0.19369000  1
  O  O17  1  0.74387900  0.22004100  0.34577200  1
  O  O18  1  0.13699100  0.80987200  0.97491800  1
  O  O19  1  0.21646200  0.03914700  0.55772400  1
  O  O20  1  0.36300900  0.80987200  0.47491800  1
  O  O21  1  0.80750900  0.98154800  0.14409000  1
  O  O22  1  0.75612100  0.22004100  0.84577200  1
  O  O23  1  0.69249100  0.98154800  0.64409000  1
  O  O24  1  0.36300900  0.30987200  0.02508200  1
  O  O25  1  0.13699100  0.30987200  0.52508200  1
  O  O26  1  0.71646100  0.46085300  0.55772400  1
  O  O27  1  0.71646100  0.96085300  0.94227600  1
  O  O28  1  0.69249100  0.48154800  0.85591000  1
  O  O29  1  0.86300900  0.69012800  0.47491800  1
  O  O30  1  0.86300900  0.19012800  0.02508200  1
  O  O31  1  0.63699100  0.69012800  0.97491800  1
  O  O32  1  0.80750900  0.48154800  0.35591000  1
  O  O33  1  0.74387900  0.72004100  0.15422800  1
  O  O34  1  0.24387900  0.27995900  0.34577200  1
  O  O35  1  0.19249100  0.51845200  0.64409000  1
  O  O36  1  0.30750900  0.51845200  0.14409000  1
  O  O37  1  0.39126900  0.19361000  0.69369000  1
  O  O38  1  0.30750900  0.01845200  0.35591000  1
  O  O39  1  0.39126900  0.69361000  0.80631000  1
loop_
_geom_bond_atom_site_label_1
_geom_bond_atom_site_label_2
_geom_bond_distance
_geom_bond_site_symmetry_2
Ca0 O8 2.354770 1_555
Ca0 O26 2.365325 1_555
Ca0 O25 2.374978 1_555
Ca0 O11 2.379473 1_555
Ca0 O34 2.409687 1_555
Ca0 O32 2.720682 1_555
Ca0 O17 2.733215 1_555
Ca1 O12 2.354770 1_545
Ca1 O19 2.365327 1_655
Ca1 O11 2.374978 1_555
Ca1 O25 2.379473 1_655
Ca1 O17 2.409687 1_555
Ca1 O38 2.720682 1_655
Ca1 O34 2.733215 1_655
Ca2 O15 2.354770 1_555
Ca2 O2 2.365327 1_654
Ca2 O31 2.374978 1_554
Ca2 O18 2.379473 1_654
Ca2 O33 2.409687 1_555
Ca2 O36 2.720682 1_655
Ca2 O3 2.733215 1_655
Ca3 O2 2.354773 1_555
Ca3 O15 2.365325 1_456
Ca3 O24 2.374978 1_556
Ca3 O30 2.379473 1_456
Ca3 O4 2.409687 1_555
Ca3 O28 2.720682 1_455
Ca3 O22 2.733215 1_455
Ca4 O27 2.354770 1_545
Ca4 O1 2.365325 1_556
Ca4 O30 2.374978 1_556
Ca4 O24 2.379473 1_556
Ca4 O22 2.409687 1_555
Ca4 O14 2.720682 1_555
Ca4 O4 2.733215 1_555
Ca5 O19 2.354773 1_565
Ca5 O12 2.365325 1_455
Ca5 O20 2.374978 1_555
Ca5 O29 2.379473 1_455
Ca5 O6 2.409687 1_555
Ca5 O23 2.720682 1_455
Ca5 O13 2.733215 1_455
Ca6 O26 2.354770 1_555
Ca6 O8 2.365325 1_555
Ca6 O29 2.374978 1_555
Ca6 O20 2.379473 1_555
Ca6 O13 2.409687 1_555
Ca6 O35 2.720682 1_555
Ca6 O6 2.733215 1_555
Ca7 O1 2.354770 1_565
Ca7 O27 2.365325 1_554
Ca7 O18 2.374978 1_554
Ca7 O31 2.379473 1_554
Ca7 O3 2.409687 1_555
Ca7 O21 2.720682 1_555
Ca7 O33 2.733215 1_555
Bi0 O33 2.125870 1_555
Bi0 O3 2.206277 1_655
Bi0 O21 2.208592 1_555
Bi0 O7 2.253010 1_555
Bi0 O9 2.300027 1_655
Bi1 O4 2.125870 1_555
Bi1 O22 2.206277 1_455
Bi1 O14 2.208592 1_555
Bi1 O37 2.253010 1_555
Bi1 O0 2.300027 1_455
Bi2 O22 2.125870 1_555
Bi2 O4 2.206277 1_555
Bi2 O28 2.208592 1_555
Bi2 O0 2.253010 1_555
Bi2 O37 2.300027 1_555
Bi3 O6 2.125870 1_555
Bi3 O13 2.206277 1_455
Bi3 O35 2.208592 1_555
Bi3 O39 2.253010 1_555
Bi3 O5 2.300027 1_455
Bi4 O34 2.125870 1_555
Bi4 O17 2.206277 1_555
Bi4 O38 2.208592 1_555
Bi4 O16 2.253010 1_555
Bi4 O10 2.300027 1_555
Bi5 O3 2.125870 1_555
Bi5 O33 2.206277 1_555
Bi5 O36 2.208592 1_555
Bi5 O9 2.253010 1_555
Bi5 O7 2.300027 1_555
Bi6 O13 2.125870 1_555
Bi6 O6 2.206277 1_555
Bi6 O23 2.208592 1_555
Bi6 O5 2.253010 1_555
Bi6 O39 2.300027 1_555
Bi7 O17 2.125870 1_555
Bi7 O34 2.206277 1_655
Bi7 O32 2.208592 1_555
Bi7 O10 2.253010 1_555
Bi7 O16 2.300027 1_655
O0 Ti0 1.935053 1_555
O1 Ti4 1.784578 1_555
O2 Ti7 1.784573 1_555
O5 Ti5 1.935053 1_555
O7 Ti1 1.935053 1_555
O8 Ti2 1.784578 1_555
O9 Ti2 1.935053 1_555
O10 Ti6 1.935053 1_555
O11 Ti3 1.765755 1_555
O12 Ti1 1.784578 1_555
O14 Ti5 1.917840 1_445
O15 Ti6 1.784578 1_555
O16 Ti4 1.935053 1_555
O18 Ti5 1.765755 1_455
O19 Ti3 1.784573 1_555
O20 Ti1 1.765755 1_555
O21 Ti4 1.917840 1_665
O23 Ti3 1.917840 1_565
O24 Ti6 1.765755 1_555
O25 Ti0 1.765755 1_455
O26 Ti0 1.784578 1_555
O27 Ti5 1.784578 1_555
O28 Ti7 1.917840 1_555
O29 Ti2 1.765755 1_655
O30 Ti4 1.765755 1_655
O31 Ti7 1.765755 1_555
O32 Ti2 1.917840 1_655
O35 Ti0 1.917840 1_455
O36 Ti6 1.917840 1_555
O37 Ti3 1.935053 1_555
O38 Ti1 1.917840 1_545
O39 Ti7 1.935053 1_555
