# generated using pymatgen
data_Mg17Al11Hg
_symmetry_space_group_name_H-M   'P 1'
_cell_length_a   9.17907482
_cell_length_b   9.21277570
_cell_length_c   9.10584764
_cell_angle_alpha   109.60437381
_cell_angle_beta   109.45385387
_cell_angle_gamma   109.75371768
_symmetry_Int_Tables_number   1
_chemical_formula_structural   Mg17Al11Hg
_chemical_formula_sum   'Mg17 Al11 Hg1'
_cell_volume   589.83759570
_cell_formula_units_Z   1
loop_
 _symmetry_equiv_pos_site_id
 _symmetry_equiv_pos_as_xyz
  1  'x, y, z'
loop_
 _atom_site_type_symbol
 _atom_site_label
 _atom_site_symmetry_multiplicity
 _atom_site_fract_x
 _atom_site_fract_y
 _atom_site_fract_z
 _atom_site_occupancy
  Mg  Mg0  1  0.59831100  0.31078000  0.00000000  1
  Mg  Mg1  1  0.34241800  0.99842200  0.00000100  1
  Mg  Mg2  1  0.31498400  0.60329700  0.00000000  1
  Mg  Mg3  1  0.00233000  0.00188900  0.00000000  1
  Mg  Mg4  1  0.00357100  0.34104800  0.00000000  1
  Mg  Mg5  1  0.68410400  0.68474700  0.28862100  1
  Mg  Mg6  1  0.00049300  0.60084200  0.31521900  1
  Mg  Mg7  1  0.60324300  0.00032200  0.31656800  1
  Mg  Mg8  1  0.00105200  0.00323600  0.34577800  1
  Mg  Mg9  1  0.39631200  0.71272300  0.39614600  1
  Mg  Mg10  1  0.71464200  0.39800100  0.39913900  1
  Mg  Mg11  1  0.31550400  0.99886100  0.60086200  1
  Mg  Mg12  1  0.00016700  0.31657800  0.60385500  1
  Mg  Mg13  1  0.65527400  0.65745900  0.65422200  1
  Mg  Mg14  1  0.28667400  0.68375400  0.68343200  1
  Mg  Mg15  1  0.68527300  0.28562300  0.68478000  1
  Mg  Mg16  1  0.39548200  0.39612600  0.71138000  1
  Al  Al0  1  0.62846500  0.82081600  0.00000100  1
  Al  Al1  1  0.36777400  0.36681700  0.18218900  1
  Al  Al2  1  0.18955800  0.82102300  0.18632700  1
  Al  Al3  1  0.82065200  0.18721300  0.18663800  1
  Al  Al4  1  0.18251400  0.36646300  0.36486400  1
  Al  Al5  1  0.36667400  0.18146200  0.36543500  1
  Al  Al6  1  0.00123800  0.81602700  0.63456600  1
  Al  Al7  1  0.81765000  0.00159900  0.63513700  1
  Al  Al8  1  0.63401500  0.00057600  0.81336200  1
  Al  Al9  1  0.00323100  0.63469700  0.81367300  1
  Al  Al10  1  0.18558400  0.18462600  0.81781000  1
  Hg  Hg0  1  0.80281700  0.62497500  0.99999900  1
loop_
_geom_bond_atom_site_label_1
_geom_bond_atom_site_label_2
_geom_bond_distance
_geom_bond_site_symmetry_2
Mg0 Mg1 3.037972 1_545
Mg0 Mg11 3.141751 1_544
Mg0 Mg10 3.141755 1_555
Mg0 Mg16 3.179387 1_554
Mg0 Mg5 3.179390 1_555
Mg0 Mg6 3.183480 1_655
Mg0 Mg15 3.183483 1_554
Mg1 Mg7 3.063083 1_565
Mg1 Mg14 3.063090 1_554
Mg1 Mg3 3.132630 1_565
Mg2 Mg4 3.056123 1_555
Mg2 Mg9 3.137373 1_555
Mg2 Mg5 3.158590 1_555
Mg2 Mg7 3.160937 1_565
Mg3 Mg4 3.120764 1_555
Mg3 Mg8 3.148407 1_555
Mg4 Mg6 3.075351 1_555
Mg5 Mg8 3.088792 1_665
Mg5 Mg9 3.164994 1_555
Mg5 Mg7 3.186873 1_565
Mg5 Mg6 3.203887 1_655
Mg6 Mg9 3.159349 1_555
Mg7 Mg9 3.155396 1_545
Mg10 Mg13 3.066539 1_555
Mg10 Mg12 3.149525 1_655
Mg10 Mg6 3.152792 1_655
Mg10 Mg15 3.161517 1_555
Mg10 Mg7 3.184469 1_555
Mg10 Mg5 3.188526 1_555
Mg11 Mg8 3.066550 1_565
Mg11 Mg9 3.149512 1_555
Mg11 Mg15 3.152790 1_565
Mg11 Mg6 3.161522 1_555
Mg11 Mg14 3.184452 1_555
Mg11 Mg16 3.188540 1_565
Mg12 Mg8 3.054864 1_555
Mg12 Mg2 3.137365 1_556
Mg12 Mg14 3.155386 1_555
Mg12 Mg7 3.157208 1_455
Mg12 Mg15 3.159355 1_455
Mg12 Mg16 3.164979 1_555
Mg13 Mg9 3.054852 1_555
Mg13 Mg16 3.088809 1_555
Mg13 Mg3 3.148404 1_666
Mg14 Mg6 3.127963 1_555
Mg14 Mg9 3.157204 1_555
Mg14 Mg2 3.160936 1_556
Mg14 Mg16 3.186876 1_555
Mg15 Mg4 3.075362 1_656
Mg15 Mg7 3.127964 1_555
Mg15 Mg16 3.203892 1_555
Mg16 Mg2 3.158577 1_556
Al0 Al3 2.742770 1_565
Al0 Al8 2.742785 1_564
Al0 Hg0 2.787174 1_554
Al0 Mg2 2.897903 1_555
Al0 Mg7 2.932968 1_565
Al0 Mg14 2.932986 1_554
Al0 Mg8 3.134616 1_665
Al0 Mg13 3.134626 1_554
Al0 Mg5 3.238650 1_555
Al0 Mg16 3.238658 1_554
Al0 Mg3 3.269555 1_665
Al1 Al10 2.700447 1_554
Al1 Al4 2.746406 1_555
Al1 Al5 2.758987 1_555
Al1 Mg5 2.901941 1_555
Al1 Mg10 2.988940 1_555
Al1 Mg9 2.991529 1_555
Al1 Mg4 3.080516 1_555
Al1 Mg1 3.123420 1_545
Al1 Mg0 3.162092 1_555
Al1 Mg3 3.199186 1_555
Al1 Mg2 3.215122 1_555
Al2 Al5 2.698174 1_565
Al2 Al9 2.761774 1_554
Al2 Hg0 2.887992 1_454
Al2 Mg9 2.896795 1_555
Al2 Mg2 2.967492 1_555
Al2 Mg6 3.013096 1_555
Al2 Mg1 3.068356 1_555
Al2 Mg8 3.149819 1_565
Al2 Mg11 3.151517 1_555
Al2 Mg7 3.162277 1_565
Al2 Mg3 3.240255 1_565
Al3 Al4 2.701267 1_655
Al3 Al8 2.766383 1_554
Al3 Mg10 2.910702 1_555
Al3 Mg0 2.984603 1_555
Al3 Mg7 2.993972 1_555
Al3 Mg4 3.102338 1_655
Al3 Mg8 3.108337 1_655
Al3 Mg12 3.167520 1_655
Al3 Mg6 3.175465 1_655
Al3 Mg3 3.232587 1_655
Al4 Al5 2.776692 1_555
Al4 Mg14 2.906362 1_555
Al4 Mg16 2.967127 1_555
Al4 Mg9 2.982418 1_555
Al4 Mg4 3.061714 1_555
Al4 Mg8 3.106732 1_555
Al4 Mg3 3.186137 1_555
Al4 Mg6 3.201397 1_555
Al4 Mg12 3.213422 1_555
Al5 Mg15 2.914650 1_555
Al5 Mg16 2.969081 1_555
Al5 Mg10 2.984097 1_555
Al5 Mg1 3.074619 1_545
Al5 Mg8 3.109510 1_555
Al5 Mg3 3.185540 1_555
Al5 Mg11 3.194209 1_545
Al5 Mg7 3.208283 1_555
Al6 Al9 2.698159 1_555
Al6 Al7 2.776684 1_465
Al6 Mg6 2.914672 1_555
Al6 Mg5 2.969070 1_455
Al6 Mg11 2.984109 1_555
Al6 Mg1 3.074631 1_556
Al6 Mg13 3.109496 1_455
Al6 Mg3 3.185527 1_566
Al6 Mg10 3.194195 1_455
Al6 Mg14 3.208283 1_555
Al7 Al8 2.701252 1_555
Al7 Mg7 2.906366 1_555
Al7 Mg5 2.967127 1_545
Al7 Mg12 2.982428 1_655
Al7 Mg4 3.061709 1_656
Al7 Mg13 3.106718 1_545
Al7 Mg3 3.186129 1_656
Al7 Mg15 3.201403 1_555
Al7 Mg9 3.213423 1_545
Al8 Mg11 2.910689 1_545
Al8 Mg0 2.984601 1_556
Al8 Mg14 2.993987 1_545
Al8 Mg4 3.102329 1_656
Al8 Mg13 3.108332 1_545
Al8 Mg9 3.167516 1_545
Al8 Mg15 3.175463 1_555
Al8 Mg3 3.232584 1_656
Al9 Hg0 2.887985 1_455
Al9 Mg12 2.896797 1_555
Al9 Mg2 2.967497 1_556
Al9 Mg15 3.013104 1_455
Al9 Mg1 3.068358 1_556
Al9 Mg13 3.149819 1_455
Al9 Mg10 3.151510 1_455
Al9 Mg14 3.162268 1_555
Al9 Mg3 3.240247 1_566
Al10 Al7 2.746399 1_455
Al10 Al6 2.758972 1_545
Al10 Mg16 2.901937 1_555
Al10 Mg11 2.988939 1_545
Al10 Mg12 2.991531 1_555
Al10 Mg4 3.080522 1_556
Al10 Mg1 3.123420 1_546
Al10 Mg0 3.162097 1_556
Al10 Mg3 3.199180 1_556
Al10 Mg2 3.215137 1_556
Hg0 Mg0 2.868735 1_556
Hg0 Mg15 2.968566 1_555
Hg0 Mg6 2.968576 1_656
Hg0 Mg16 3.120862 1_555
Hg0 Mg5 3.120868 1_556
Hg0 Mg13 3.146948 1_555
Hg0 Mg8 3.146955 1_666
Hg0 Mg3 3.333614 1_666
