# generated using pymatgen
data_Sr2LiV2(Si2O7)2
_symmetry_space_group_name_H-M   'P 1'
_cell_length_a   5.46990499
_cell_length_b   7.19340953
_cell_length_c   7.86962486
_cell_angle_alpha   91.56028546
_cell_angle_beta   110.33648331
_cell_angle_gamma   90.00000424
_symmetry_Int_Tables_number   1
_chemical_formula_structural   Sr2LiV2(Si2O7)2
_chemical_formula_sum   'Sr2 Li1 V2 Si4 O14'
_cell_volume   290.22473873
_cell_formula_units_Z   1
loop_
 _symmetry_equiv_pos_site_id
 _symmetry_equiv_pos_as_xyz
  1  'x, y, z'
loop_
 _atom_site_type_symbol
 _atom_site_label
 _atom_site_symmetry_multiplicity
 _atom_site_fract_x
 _atom_site_fract_y
 _atom_site_fract_z
 _atom_site_occupancy
  Sr  Sr0  1  0.20041500  0.75772600  0.39638900  1
  Sr  Sr1  1  0.80402700  0.24227400  0.60361100  1
  Li  Li0  1  0.12375300  0.50000000  0.00000000  1
  V  V0  1  0.88361600  0.75968200  0.77719600  1
  V  V1  1  0.10642000  0.24031800  0.22280400  1
  Si  Si0  1  0.39861100  0.47516100  0.78020700  1
  Si  Si1  1  0.61840400  0.52483900  0.21979300  1
  Si  Si2  1  0.60796800  0.97420300  0.21660400  1
  Si  Si3  1  0.39136400  0.02579700  0.78339600  1
  O  O0  1  0.64394000  0.75109900  0.27492400  1
  O  O1  1  0.36901600  0.24890100  0.72507600  1
  O  O2  1  0.50888000  0.50000000  0.00000000  1
  O  O3  1  0.50151000  0.00000000  0.00000000  1
  O  O4  1  0.59180400  0.56188300  0.68648700  1
  O  O5  1  0.90531700  0.43811700  0.31351300  1
  O  O6  1  0.40382700  0.05892700  0.30739900  1
  O  O7  1  0.09642800  0.94107300  0.69260100  1
  O  O8  1  0.99342300  0.25626000  0.98845400  1
  O  O9  1  0.00497000  0.74374000  0.01154600  1
  O  O10  1  0.90072700  0.05862200  0.31197800  1
  O  O11  1  0.58874900  0.94137800  0.68802200  1
  O  O12  1  0.10135200  0.55118200  0.71462400  1
  O  O13  1  0.38672800  0.44881800  0.28537600  1
loop_
_geom_bond_atom_site_label_1
_geom_bond_atom_site_label_2
_geom_bond_distance
_geom_bond_site_symmetry_2
Li0 O9 1.880666 1_555
Li0 O8 1.880667 1_454
Li0 O2 2.106608 1_555
Li0 O13 2.246765 1_555
Li0 O12 2.246765 1_554
O0 Si1 1.666190 1_555
O0 Si2 1.674018 1_555
O0 Sr0 2.855919 1_655
O0 Sr0 2.900179 1_555
O1 Si0 1.666190 1_555
O1 Si3 1.674018 1_555
O1 Sr1 2.855924 1_555
O1 Sr1 2.900174 1_455
O2 Si0 1.626521 1_554
O2 Si1 1.626521 1_555
O3 Si3 1.614453 1_554
O3 Si2 1.614453 1_545
O4 Si0 1.617600 1_555
O4 V0 2.057812 1_555
O4 Sr1 2.739208 1_555
O4 Sr0 2.925384 1_555
O5 Si1 1.617600 1_555
O5 V1 2.057812 1_655
O5 Sr0 2.739205 1_655
O5 Sr1 2.925381 1_555
O6 Si2 1.630857 1_545
O6 V1 2.021568 1_555
O6 Sr0 2.654633 1_545
O6 Sr1 2.872475 1_555
O7 Si3 1.630857 1_565
O7 V0 2.021568 1_455
O7 Sr1 2.654630 1_465
O7 Sr0 2.872472 1_555
O8 V1 1.736559 1_656
O8 Sr1 2.838701 1_555
O9 V0 1.736559 1_454
O9 Sr0 2.838701 1_555
O10 Si2 1.623649 1_545
O10 V1 2.016286 1_655
O10 Sr0 2.671105 1_645
O10 Sr1 2.823281 1_555
O11 Si3 1.623649 1_565
O11 V0 2.016287 1_555
O11 Sr1 2.671108 1_565
O11 Sr0 2.823283 1_555
O12 Si0 1.625208 1_555
O12 V0 2.068293 1_455
O12 Sr1 2.693077 1_455
O12 Sr0 3.149432 1_555
O13 Si1 1.625208 1_555
O13 V1 2.068293 1_555
O13 Sr0 2.693080 1_555
O13 Sr1 3.149434 1_555
