# generated using pymatgen
data_Pr6OsI10
_symmetry_space_group_name_H-M   'P 1'
_cell_length_a   8.04586004
_cell_length_b   9.98679360
_cell_length_c   10.04918650
_cell_angle_alpha   107.53700404
_cell_angle_beta   97.11908430
_cell_angle_gamma   105.34423854
_symmetry_Int_Tables_number   1
_chemical_formula_structural   Pr6OsI10
_chemical_formula_sum   'Pr6 Os1 I10'
_cell_volume   724.05859687
_cell_formula_units_Z   1
loop_
 _symmetry_equiv_pos_site_id
 _symmetry_equiv_pos_as_xyz
  1  'x, y, z'
loop_
 _atom_site_type_symbol
 _atom_site_label
 _atom_site_symmetry_multiplicity
 _atom_site_fract_x
 _atom_site_fract_y
 _atom_site_fract_z
 _atom_site_occupancy
  Pr  Pr0  1  0.53170335  0.21775097  0.41650603  1
  Pr  Pr1  1  0.46829665  0.78224903  0.58349397  1
  Pr  Pr2  1  0.13745111  0.36514889  0.32456299  1
  Pr  Pr3  1  0.86254889  0.63485111  0.67543701  1
  Pr  Pr4  1  0.61569440  0.54224115  0.25932775  1
  Pr  Pr5  1  0.38430560  0.45775885  0.74067225  1
  Os  Os0  1  0.50000000  0.50000000  0.50000000  1
  I  I0  1  0.14612014  0.04042984  0.22312029  1
  I  I1  1  0.85387986  0.95957016  0.77687971  1
  I  I2  1  0.23617262  0.41144625  0.03908848  1
  I  I3  1  0.76382738  0.58855375  0.96091152  1
  I  I4  1  0.70547114  0.23588427  0.14581731  1
  I  I5  1  0.29452886  0.76411573  0.85418269  1
  I  I6  1  0.04677210  0.68481290  0.40831057  1
  I  I7  1  0.95322790  0.31518710  0.59168943  1
  I  I8  1  0.41046450  0.12861334  0.68029494  1
  I  I9  1  0.58953550  0.87138666  0.31970506  1
loop_
_geom_bond_atom_site_label_1
_geom_bond_atom_site_label_2
_geom_bond_distance
_geom_bond_site_symmetry_2
Os0 Pr1 2.778987 1_555
Os0 Pr0 2.778987 1_555
Os0 Pr4 2.803384 1_555
Os0 Pr5 2.803384 1_555
Os0 Pr2 2.940448 1_555
Os0 Pr3 2.940448 1_555
I0 Pr2 3.115375 1_555
I0 Pr0 3.171962 1_555
I1 Pr3 3.115375 1_555
I1 Pr1 3.171962 1_555
I2 Pr2 3.200691 1_555
I2 Pr4 3.225003 1_555
I2 Pr5 3.472395 1_554
I3 Pr3 3.200691 1_555
I3 Pr5 3.225003 1_555
I3 Pr4 3.472395 1_556
I4 Pr4 3.233302 1_555
I4 Pr0 3.239219 1_555
I4 Pr2 3.413750 1_655
I5 Pr5 3.233302 1_555
I5 Pr1 3.239219 1_555
I5 Pr3 3.413750 1_455
I6 Pr3 3.324756 1_455
I6 Pr4 3.333645 1_455
I6 Pr2 3.346319 1_555
I6 Pr1 3.360011 1_555
I7 Pr2 3.324756 1_655
I7 Pr5 3.333645 1_655
I7 Pr3 3.346319 1_555
I7 Pr0 3.360011 1_555
I8 Pr0 3.220957 1_555
I8 Pr5 3.226978 1_555
I8 Pr1 3.473348 1_545
I9 Pr1 3.220957 1_555
I9 Pr4 3.226978 1_555
I9 Pr0 3.473348 1_565
