# generated using pymatgen
data_LaCuSb2
_symmetry_space_group_name_H-M   'P 1'
_cell_length_a   4.39654810
_cell_length_b   4.39654810
_cell_length_c   10.37948639
_cell_angle_alpha   90.00000000
_cell_angle_beta   90.00000000
_cell_angle_gamma   90.00000000
_symmetry_Int_Tables_number   1
_chemical_formula_structural   LaCuSb2
_chemical_formula_sum   'La2 Cu2 Sb4'
_cell_volume   200.63168544
_cell_formula_units_Z   2
loop_
 _symmetry_equiv_pos_site_id
 _symmetry_equiv_pos_as_xyz
  1  'x, y, z'
loop_
 _atom_site_type_symbol
 _atom_site_label
 _atom_site_symmetry_multiplicity
 _atom_site_fract_x
 _atom_site_fract_y
 _atom_site_fract_z
 _atom_site_occupancy
  La  La0  1  -0.00000000  0.50000000  0.75071427  1
  La  La1  1  0.50000000  0.00000000  0.24928573  1
  Cu  Cu0  1  0.50000000  0.50000000  0.50000000  1
  Cu  Cu1  1  -0.00000000  0.00000000  0.50000000  1
  Sb  Sb0  1  0.50000000  0.50000000  -0.00000000  1
  Sb  Sb1  1  0.00000000  -0.00000000  -0.00000000  1
  Sb  Sb2  1  -0.00000000  0.50000000  0.35664302  1
  Sb  Sb3  1  0.50000000  0.00000000  0.64335698  1
loop_
_geom_bond_atom_site_label_1
_geom_bond_atom_site_label_2
_geom_bond_distance
_geom_bond_site_symmetry_2
La0 Sb3 3.302501 1_465
La0 Sb3 3.302501 1_555
La0 Sb3 3.302501 1_565
La0 Sb3 3.302501 1_455
La0 Sb1 3.395195 1_566
La0 Sb0 3.395195 1_556
La0 Sb1 3.395195 1_556
La0 Sb0 3.395195 1_456
La1 Sb2 3.302501 1_645
La1 Sb2 3.302501 1_545
La1 Sb2 3.302501 1_555
La1 Sb2 3.302501 1_655
La1 Sb0 3.395195 1_545
La1 Sb1 3.395195 1_655
La1 Sb1 3.395195 1_555
La1 Sb0 3.395195 1_555
Cu0 Sb3 2.654519 1_565
Cu0 Sb3 2.654519 1_555
Cu0 Sb2 2.654519 1_655
Cu0 Sb2 2.654519 1_555
Cu0 La0 3.406508 1_655
Cu0 La1 3.406508 1_565
Cu0 La0 3.406508 1_555
Cu0 La1 3.406508 1_555
Cu1 Sb3 2.654519 1_555
Cu1 Sb3 2.654519 1_455
Cu1 Sb2 2.654519 1_545
Cu1 Sb2 2.654519 1_555
Cu1 La0 3.406508 1_545
Cu1 La1 3.406508 1_455
Cu1 La0 3.406508 1_555
Cu1 La1 3.406508 1_555
Sb0 Sb1 3.108829 1_565
Sb0 Sb1 3.108829 1_655
Sb0 Sb1 3.108829 1_555
Sb0 Sb1 3.108829 1_665
