# generated using pymatgen
data_NaCdIn2(PO4)3
_symmetry_space_group_name_H-M   'P 1'
_cell_length_a   6.69403788
_cell_length_b   9.13587038
_cell_length_c   9.13587001
_cell_angle_alpha   91.62272668
_cell_angle_beta   107.44731963
_cell_angle_gamma   107.44731934
_symmetry_Int_Tables_number   1
_chemical_formula_structural   NaCdIn2(PO4)3
_chemical_formula_sum   'Na2 Cd2 In4 P6 O24'
_cell_volume   504.17747070
_cell_formula_units_Z   2
loop_
 _symmetry_equiv_pos_site_id
 _symmetry_equiv_pos_as_xyz
  1  'x, y, z'
loop_
 _atom_site_type_symbol
 _atom_site_label
 _atom_site_symmetry_multiplicity
 _atom_site_fract_x
 _atom_site_fract_y
 _atom_site_fract_z
 _atom_site_occupancy
  Na  Na0  1  0.00000000  0.50000000  0.50000000  1
  Na  Na1  1  0.50000000  0.50000000  0.50000000  1
  Cd  Cd0  1  0.25000000  0.26048600  0.73951400  1
  Cd  Cd1  1  0.75000000  0.73951400  0.26048600  1
  In  In0  1  0.36884800  0.93040600  0.62900800  1
  In  In1  1  0.13115200  0.37099200  0.06959400  1
  In  In2  1  0.86884800  0.62900800  0.93040600  1
  In  In3  1  0.63115200  0.06959400  0.37099200  1
  P  P0  1  0.36607400  0.64749000  0.86564000  1
  P  P1  1  0.75000000  0.28715000  0.71285000  1
  P  P2  1  0.13392600  0.13436000  0.35251000  1
  P  P3  1  0.86607400  0.86564000  0.64749000  1
  P  P4  1  0.25000000  0.71285000  0.28715000  1
  P  P5  1  0.63392600  0.35251000  0.13436000  1
  O  O0  1  0.96004700  0.26430000  0.82824400  1
  O  O1  1  0.18056900  0.27191000  0.47361500  1
  O  O2  1  0.18744200  0.59138900  0.95038200  1
  O  O3  1  0.26091000  0.54652100  0.26720100  1
  O  O4  1  0.14204500  0.18498300  0.19542600  1
  O  O5  1  0.40496800  0.33388700  0.01008600  1
  O  O6  1  0.46004700  0.82824400  0.26430000  1
  O  O7  1  0.68056900  0.47361500  0.27191000  1
  O  O8  1  0.68744200  0.95038200  0.59138900  1
  O  O9  1  0.76091000  0.26720100  0.54652100  1
  O  O10  1  0.64204500  0.19542600  0.18498300  1
  O  O11  1  0.09503200  0.98991400  0.66611300  1
  O  O12  1  0.90496800  0.01008600  0.33388700  1
  O  O13  1  0.35795500  0.80457400  0.81501700  1
  O  O14  1  0.23909000  0.73279900  0.45347900  1
  O  O15  1  0.31255800  0.04961800  0.40861100  1
  O  O16  1  0.31943100  0.52638500  0.72809000  1
  O  O17  1  0.53995300  0.17175600  0.73570000  1
  O  O18  1  0.59503200  0.66611300  0.98991400  1
  O  O19  1  0.85795500  0.81501700  0.80457400  1
  O  O20  1  0.73909000  0.45347900  0.73279900  1
  O  O21  1  0.81255800  0.40861100  0.04961800  1
  O  O22  1  0.81943100  0.72809000  0.52638500  1
  O  O23  1  0.03995300  0.73570000  0.17175600  1
loop_
_geom_bond_atom_site_label_1
_geom_bond_atom_site_label_2
_geom_bond_distance
_geom_bond_site_symmetry_2
Na0 O14 2.383995 1_555
Na0 O9 2.383995 1_455
Na0 O7 2.441951 1_455
Na0 O16 2.441951 1_555
Na0 O22 2.741904 1_455
Na0 O1 2.741904 1_555
Na1 O20 2.383995 1_555
Na1 O3 2.383995 1_555
Na1 O1 2.441951 1_555
Na1 O22 2.441951 1_555
Na1 O7 2.741904 1_555
Na1 O16 2.741904 1_555
Cd0 O0 2.325530 1_455
Cd0 O17 2.325530 1_555
Cd0 O1 2.344018 1_555
Cd0 O16 2.344019 1_555
Cd0 O5 2.363776 1_556
Cd0 O11 2.363776 1_545
Cd1 O23 2.325530 1_655
Cd1 O6 2.325530 1_555
Cd1 O22 2.344018 1_555
Cd1 O7 2.344019 1_555
Cd1 O18 2.363776 1_554
Cd1 O12 2.363776 1_565
In0 O13 2.085509 1_555
In0 O14 2.155374 1_555
In0 O11 2.174817 1_555
In0 O17 2.195022 1_565
In0 O8 2.215725 1_555
In0 O15 2.301676 1_565
In1 O4 2.085509 1_555
In1 O3 2.155374 1_555
In1 O5 2.174817 1_555
In1 O0 2.195022 1_454
In1 O21 2.215725 1_455
In1 O2 2.301676 1_554
In2 O19 2.085509 1_555
In2 O20 2.155374 1_555
In2 O18 2.174817 1_555
In2 O23 2.195022 1_656
In2 O2 2.215725 1_655
In2 O21 2.301676 1_556
In3 O10 2.085509 1_555
In3 O9 2.155374 1_555
In3 O12 2.174817 1_555
In3 O6 2.195022 1_545
In3 O15 2.215725 1_555
In3 O8 2.301676 1_545
O0 P1 1.559353 1_555
O1 P2 1.542586 1_555
O2 P0 1.581779 1_555
O3 P4 1.551276 1_555
O4 P2 1.531549 1_555
O5 P5 1.567234 1_555
O6 P4 1.559353 1_555
O7 P5 1.542586 1_555
O8 P3 1.581779 1_555
O9 P1 1.551276 1_555
O10 P5 1.531550 1_555
O11 P3 1.567234 1_455
O12 P2 1.567234 1_655
O13 P0 1.531550 1_555
O14 P4 1.551276 1_555
O15 P2 1.581779 1_555
O16 P0 1.542586 1_555
O17 P1 1.559353 1_555
O18 P0 1.567234 1_555
O19 P3 1.531549 1_555
O20 P1 1.551276 1_555
O21 P5 1.581779 1_555
O22 P3 1.542586 1_555
O23 P4 1.559353 1_555
