# generated using pymatgen
data_CrN2
_symmetry_space_group_name_H-M   'P 1'
_cell_length_a   4.40521300
_cell_length_b   4.81774200
_cell_length_c   5.57642500
_cell_angle_alpha   90.00000000
_cell_angle_beta   90.00000000
_cell_angle_gamma   90.00000000
_symmetry_Int_Tables_number   1
_chemical_formula_structural   CrN2
_chemical_formula_sum   'Cr4 N8'
_cell_volume   118.34946980
_cell_formula_units_Z   4
loop_
 _symmetry_equiv_pos_site_id
 _symmetry_equiv_pos_as_xyz
  1  'x, y, z'
loop_
 _atom_site_type_symbol
 _atom_site_label
 _atom_site_symmetry_multiplicity
 _atom_site_fract_x
 _atom_site_fract_y
 _atom_site_fract_z
 _atom_site_occupancy
  Cr  Cr0  1  0.00000000  0.25000000  0.91670000  1
  Cr  Cr1  1  0.50000000  0.75000000  0.58330000  1
  Cr  Cr2  1  0.00000000  0.75000000  0.08330000  1
  Cr  Cr3  1  0.50000000  0.25000000  0.41670000  1
  N  N0  1  0.28025600  0.42474400  0.63646200  1
  N  N1  1  0.21974400  0.92474400  0.86353800  1
  N  N2  1  0.78025600  0.57525600  0.86353800  1
  N  N3  1  0.71974400  0.07525600  0.63646200  1
  N  N4  1  0.71974400  0.57525600  0.36353800  1
  N  N5  1  0.78025600  0.07525600  0.13646200  1
  N  N6  1  0.21974400  0.42474400  0.13646200  1
  N  N7  1  0.28025600  0.92474400  0.36353800  1
loop_
_geom_bond_atom_site_label_1
_geom_bond_atom_site_label_2
_geom_bond_distance
_geom_bond_site_symmetry_2
Cr0 N6 1.774155 1_556
Cr0 N5 1.774155 1_456
Cr0 N1 1.865592 1_545
Cr0 N2 1.865592 1_455
Cr0 N0 2.162190 1_555
Cr0 N3 2.162190 1_455
Cr1 N7 1.774155 1_555
Cr1 N4 1.774155 1_555
Cr1 N0 1.865592 1_555
Cr1 N3 1.865592 1_565
Cr1 N1 2.162190 1_555
Cr1 N2 2.162190 1_555
Cr2 N1 1.774155 1_554
Cr2 N2 1.774155 1_454
Cr2 N6 1.865592 1_555
Cr2 N5 1.865592 1_465
Cr2 N4 2.162190 1_455
Cr2 N7 2.162190 1_555
Cr3 N0 1.774155 1_555
Cr3 N3 1.774155 1_555
Cr3 N4 1.865592 1_555
Cr3 N7 1.865592 1_545
Cr3 N5 2.162190 1_555
Cr3 N6 2.162190 1_555
