# generated using pymatgen
data_SrSnS3
_symmetry_space_group_name_H-M   'P 1'
_cell_length_a   3.89318425
_cell_length_b   8.30673434
_cell_length_c   14.20450190
_cell_angle_alpha   90.00000000
_cell_angle_beta   90.00000000
_cell_angle_gamma   90.00000000
_symmetry_Int_Tables_number   1
_chemical_formula_structural   SrSnS3
_chemical_formula_sum   'Sr4 Sn4 S12'
_cell_volume   459.36858154
_cell_formula_units_Z   4
loop_
 _symmetry_equiv_pos_site_id
 _symmetry_equiv_pos_as_xyz
  1  'x, y, z'
loop_
 _atom_site_type_symbol
 _atom_site_label
 _atom_site_symmetry_multiplicity
 _atom_site_fract_x
 _atom_site_fract_y
 _atom_site_fract_z
 _atom_site_occupancy
  Sr  Sr0  1  0.25000000  0.92144579  0.17634532  1
  Sr  Sr1  1  0.75000000  0.07855421  0.82365468  1
  Sr  Sr2  1  0.75000000  0.57855421  0.67634532  1
  Sr  Sr3  1  0.25000000  0.42144579  0.32365468  1
  Sn  Sn0  1  0.25000000  0.67215771  0.94180441  1
  Sn  Sn1  1  0.75000000  0.32784229  0.05819559  1
  Sn  Sn2  1  0.75000000  0.82784229  0.44180441  1
  Sn  Sn3  1  0.25000000  0.17215771  0.55819559  1
  S  S0  1  0.25000000  0.52721967  0.10432809  1
  S  S1  1  0.75000000  0.47278033  0.89567191  1
  S  S2  1  0.75000000  0.97278033  0.60432809  1
  S  S3  1  0.25000000  0.02721967  0.39567191  1
  S  S4  1  0.25000000  0.65270442  0.50440530  1
  S  S5  1  0.75000000  0.34729558  0.49559470  1
  S  S6  1  0.75000000  0.84729558  0.00440530  1
  S  S7  1  0.25000000  0.15270442  0.99559470  1
  S  S8  1  0.25000000  0.79807352  0.78546545  1
  S  S9  1  0.75000000  0.20192648  0.21453455  1
  S  S10  1  0.75000000  0.70192648  0.28546545  1
  S  S11  1  0.25000000  0.29807352  0.71453455  1
loop_
_geom_bond_atom_site_label_1
_geom_bond_atom_site_label_2
_geom_bond_distance
_geom_bond_site_symmetry_2
S0 Sn0 2.603653 1_554
S0 Sn1 2.638473 1_555
S0 Sn1 2.638473 1_455
S0 Sr3 3.236954 1_555
S0 Sr0 3.430792 1_555
S1 Sn1 2.603653 1_556
S1 Sn0 2.638473 1_555
S1 Sn0 2.638473 1_655
S1 Sr2 3.236954 1_555
S1 Sr1 3.430792 1_555
S2 Sn2 2.603653 1_555
S2 Sn3 2.638473 1_665
S2 Sn3 2.638473 1_565
S2 Sr1 3.236954 1_565
S2 Sr2 3.430792 1_555
S3 Sn3 2.603653 1_555
S3 Sn2 2.638473 1_545
S3 Sn2 2.638473 1_445
S3 Sr0 3.236954 1_545
S3 Sr3 3.430792 1_555
S4 Sn2 2.587747 1_455
S4 Sn2 2.587747 1_555
S4 Sr2 3.183324 1_555
S4 Sr2 3.183324 1_455
S4 Sr3 3.206583 1_555
S5 Sn3 2.587747 1_655
S5 Sn3 2.587747 1_555
S5 Sr3 3.183324 1_555
S5 Sr3 3.183324 1_655
S5 Sr2 3.206583 1_555
S6 Sn0 2.587747 1_654
S6 Sn0 2.587747 1_554
S6 Sr0 3.183324 1_555
S6 Sr0 3.183324 1_655
S6 Sr1 3.206583 1_564
S7 Sn1 2.587747 1_556
S7 Sn1 2.587747 1_456
S7 Sr1 3.183324 1_555
S7 Sr1 3.183324 1_455
S7 Sr0 3.206583 1_546
S8 Sn0 2.454709 1_555
S8 Sr1 3.084123 1_565
S8 Sr1 3.084123 1_465
S8 Sr2 3.084935 1_455
S8 Sr2 3.084935 1_555
S9 Sn1 2.454709 1_555
S9 Sr0 3.084123 1_545
S9 Sr0 3.084123 1_645
S9 Sr3 3.084935 1_655
S9 Sr3 3.084935 1_555
S10 Sn2 2.454709 1_555
S10 Sr3 3.084123 1_555
S10 Sr3 3.084123 1_655
S10 Sr0 3.084935 1_655
S10 Sr0 3.084935 1_555
S11 Sn3 2.454709 1_555
S11 Sr2 3.084123 1_555
S11 Sr2 3.084123 1_455
S11 Sr1 3.084935 1_555
S11 Sr1 3.084935 1_455
