# generated using pymatgen
data_KU(SeO4)2
_symmetry_space_group_name_H-M   'P 1'
_cell_length_a   10.24024100
_cell_length_b   9.05021600
_cell_length_c   12.85625632
_cell_angle_alpha   49.27693035
_cell_angle_beta   90.00000000
_cell_angle_gamma   90.00000000
_symmetry_Int_Tables_number   1
_chemical_formula_structural   KU(SeO4)2
_chemical_formula_sum   'K4 U4 Se8 O32'
_cell_volume   902.98251826
_cell_formula_units_Z   4
loop_
 _symmetry_equiv_pos_site_id
 _symmetry_equiv_pos_as_xyz
  1  'x, y, z'
loop_
 _atom_site_type_symbol
 _atom_site_label
 _atom_site_symmetry_multiplicity
 _atom_site_fract_x
 _atom_site_fract_y
 _atom_site_fract_z
 _atom_site_occupancy
  K  K0  1  0.55122300  0.28199700  0.44125400  1
  K  K1  1  0.94877700  0.28199700  0.94125400  1
  K  K2  1  0.44877700  0.71800300  0.55874600  1
  K  K3  1  0.05122300  0.71800300  0.05874600  1
  U  U0  1  0.79681200  0.80976700  0.30975700  1
  U  U1  1  0.70318800  0.80976700  0.80975700  1
  U  U2  1  0.20318800  0.19023300  0.69024300  1
  U  U3  1  0.29681200  0.19023300  0.19024300  1
  Se  Se0  1  0.95937900  0.20453300  0.30313200  1
  Se  Se1  1  0.54062100  0.20453300  0.80313200  1
  Se  Se2  1  0.04062100  0.79546700  0.69686800  1
  Se  Se3  1  0.45937900  0.79546700  0.19686800  1
  Se  Se4  1  0.12976500  0.71875700  0.40023100  1
  Se  Se5  1  0.37023500  0.71875700  0.90023100  1
  Se  Se6  1  0.87023500  0.28124300  0.59976900  1
  Se  Se7  1  0.62976500  0.28124300  0.09976900  1
  O  O0  1  0.85960400  0.38537600  0.25447300  1
  O  O1  1  0.64039600  0.38537600  0.75447300  1
  O  O2  1  0.14039600  0.61462400  0.74552700  1
  O  O3  1  0.35960400  0.61462400  0.24552700  1
  O  O4  1  0.90646100  0.10931100  0.23085500  1
  O  O5  1  0.59353900  0.10931100  0.73085500  1
  O  O6  1  0.09353900  0.89068900  0.76914500  1
  O  O7  1  0.40646100  0.89068900  0.26914500  1
  O  O8  1  0.97315300  0.70544100  0.45803200  1
  O  O9  1  0.52684700  0.70544100  0.95803200  1
  O  O10  1  0.02684700  0.29455900  0.54196800  1
  O  O11  1  0.47315300  0.29455900  0.04196800  1
  O  O12  1  0.19120100  0.91143900  0.38474700  1
  O  O13  1  0.30879900  0.91143900  0.88474700  1
  O  O14  1  0.80879900  0.08856100  0.61525300  1
  O  O15  1  0.69120100  0.08856100  0.11525300  1
  O  O16  1  0.78797900  0.47152400  0.45468400  1
  O  O17  1  0.71202100  0.47152400  0.95468400  1
  O  O18  1  0.21202100  0.52847600  0.54531600  1
  O  O19  1  0.28797900  0.52847600  0.04531600  1
  O  O20  1  0.60776800  0.68978500  0.26997500  1
  O  O21  1  0.89223200  0.68978500  0.76997500  1
  O  O22  1  0.39223200  0.31021500  0.73002500  1
  O  O23  1  0.10776800  0.31021500  0.23002500  1
  O  O24  1  0.90607200  0.82695200  0.18867400  1
  O  O25  1  0.59392800  0.82695200  0.68867400  1
  O  O26  1  0.09392800  0.17304800  0.81132600  1
  O  O27  1  0.40607200  0.17304800  0.31132600  1
  O  O28  1  0.69469700  0.81739300  0.42226600  1
  O  O29  1  0.80530300  0.81739300  0.92226600  1
  O  O30  1  0.30530300  0.18260700  0.57773400  1
  O  O31  1  0.19469700  0.18260700  0.07773400  1
loop_
_geom_bond_atom_site_label_1
_geom_bond_atom_site_label_2
_geom_bond_distance
_geom_bond_site_symmetry_2
K0 O27 2.849700 1_555
K0 O30 2.858352 1_555
K0 O20 2.863685 1_555
K0 O5 2.983287 1_555
K0 O16 3.039121 1_555
K0 O3 3.059488 1_555
K0 O14 3.148990 1_555
K0 O25 3.190098 1_545
K1 O26 2.849700 1_655
K1 O31 2.858352 1_656
K1 O21 2.863685 1_555
K1 O4 2.983287 1_556
K1 O17 3.039121 1_555
K1 O2 3.059488 1_655
K1 O15 3.148990 1_556
K1 O24 3.190098 1_546
K2 O25 2.849700 1_555
K2 O28 2.858352 1_555
K2 O22 2.863685 1_555
K2 O7 2.983287 1_555
K2 O18 3.039121 1_555
K2 O1 3.059488 1_555
K2 O12 3.148990 1_555
K2 O27 3.190098 1_565
K3 O24 2.849700 1_455
K3 O29 2.858352 1_454
K3 O23 2.863685 1_555
K3 O6 2.983287 1_554
K3 O19 3.039121 1_555
K3 O0 3.059488 1_455
K3 O13 3.148990 1_554
K3 O26 3.190098 1_564
O0 Se0 1.666734 1_555
O1 Se1 1.666734 1_555
O2 Se2 1.666734 1_555
O3 Se3 1.666734 1_555
O4 Se0 1.715985 1_555
O4 U0 2.459833 1_545
O5 Se1 1.715985 1_555
O5 U1 2.459833 1_545
O6 Se2 1.715985 1_555
O6 U2 2.459833 1_565
O7 Se3 1.715985 1_555
O7 U3 2.459833 1_565
O8 Se4 1.738354 1_655
O8 U0 2.331881 1_555
O9 Se5 1.738354 1_555
O9 U1 2.331881 1_555
O10 Se6 1.738354 1_455
O10 U2 2.331881 1_555
O11 Se7 1.738354 1_555
O11 U3 2.331881 1_555
O12 Se4 1.738782 1_555
O12 U3 2.357188 1_565
O13 Se5 1.738782 1_555
O13 U2 2.357188 1_565
O14 Se6 1.738782 1_555
O14 U1 2.357188 1_545
O15 Se7 1.738782 1_555
O15 U0 2.357188 1_545
O16 Se6 1.721349 1_555
O16 U0 2.325596 1_555
O17 Se7 1.721349 1_556
O17 U1 2.325596 1_555
O18 Se4 1.721349 1_555
O18 U2 2.325596 1_555
O19 Se5 1.721349 1_554
O19 U3 2.325596 1_555
O20 Se3 1.712955 1_555
O20 U0 2.431637 1_555
O21 Se2 1.712955 1_655
O21 U1 2.431637 1_555
O22 Se1 1.712955 1_555
O22 U2 2.431637 1_555
O23 Se0 1.712955 1_455
O23 U3 2.431637 1_555
O24 U0 1.839387 1_555
O25 U1 1.839387 1_555
O26 U2 1.839387 1_555
O27 U3 1.839387 1_555
O28 U0 1.822272 1_555
O29 U1 1.822272 1_555
O30 U2 1.822272 1_555
O31 U3 1.822272 1_555
