# generated using pymatgen
data_Mg2Si
_symmetry_space_group_name_H-M   'P 1'
_cell_length_a   5.76788200
_cell_length_b   6.03025915
_cell_length_c   7.60496358
_cell_angle_alpha   87.17860596
_cell_angle_beta   110.99682688
_cell_angle_gamma   107.91513689
_symmetry_Int_Tables_number   1
_chemical_formula_structural   Mg2Si
_chemical_formula_sum   'Mg8 Si4'
_cell_volume   234.42233183
_cell_formula_units_Z   4
loop_
 _symmetry_equiv_pos_site_id
 _symmetry_equiv_pos_as_xyz
  1  'x, y, z'
loop_
 _atom_site_type_symbol
 _atom_site_label
 _atom_site_symmetry_multiplicity
 _atom_site_fract_x
 _atom_site_fract_y
 _atom_site_fract_z
 _atom_site_occupancy
  Mg  Mg0  1  0.23398300  0.18297400  0.49131900  1
  Mg  Mg1  1  0.81943800  0.82343400  0.12723000  1
  Mg  Mg2  1  0.76601700  0.81702600  0.50868100  1
  Mg  Mg3  1  0.81842000  0.32064300  0.10287700  1
  Mg  Mg4  1  0.22023100  0.67851900  0.46223600  1
  Mg  Mg5  1  0.18158000  0.67935700  0.89712300  1
  Mg  Mg6  1  0.18056200  0.17656600  0.87277000  1
  Mg  Mg7  1  0.77976900  0.32148100  0.53776400  1
  Si  Si0  1  0.60367500  0.56573800  0.78261500  1
  Si  Si1  1  0.39632500  0.43426200  0.21738500  1
  Si  Si2  1  0.39498000  0.01657300  0.21769800  1
  Si  Si3  1  0.60502000  0.98342700  0.78230200  1
loop_
_geom_bond_atom_site_label_1
_geom_bond_atom_site_label_2
_geom_bond_distance
_geom_bond_site_symmetry_2
Mg0 Si1 2.779785 1_555
Mg0 Si2 2.891860 1_555
Mg0 Si3 2.975449 1_545
Mg0 Si0 2.978632 1_555
Mg1 Si3 2.738869 1_554
Mg1 Si0 2.775957 1_554
Mg1 Si2 2.985543 1_665
Mg1 Si1 3.074188 1_555
Mg2 Si0 2.779785 1_555
Mg2 Si3 2.891860 1_555
Mg2 Si2 2.975449 1_565
Mg2 Si1 2.978632 1_555
Mg3 Si0 2.874135 1_554
Mg3 Si3 2.896812 1_544
Mg3 Si2 2.950478 1_555
Mg3 Si1 2.985314 1_655
Mg3 Si1 3.123992 1_555
Mg4 Si0 2.861980 1_555
Mg4 Si3 2.879223 1_555
Mg4 Si2 2.887230 1_565
Mg4 Si1 3.035502 1_555
Mg5 Si1 2.874135 1_556
Mg5 Si2 2.896812 1_566
Mg5 Si3 2.950478 1_555
Mg5 Si0 2.985314 1_455
Mg5 Si0 3.123992 1_555
Mg6 Si2 2.738869 1_556
Mg6 Si1 2.775957 1_556
Mg6 Si3 2.985543 1_445
Mg6 Si0 3.074188 1_555
Mg7 Si1 2.861980 1_555
Mg7 Si2 2.879223 1_555
Mg7 Si3 2.887230 1_545
Mg7 Si0 3.035502 1_555
Si0 Si3 2.516284 1_555
Si1 Si2 2.516284 1_555
