# generated using pymatgen
data_K3Ba3Li2Al4B6O20F
_symmetry_space_group_name_H-M   'P 1'
_cell_length_a   8.77547583
_cell_length_b   8.77547583
_cell_length_c   16.44718417
_cell_angle_alpha   90.00000000
_cell_angle_beta   90.00000000
_cell_angle_gamma   119.99999603
_symmetry_Int_Tables_number   1
_chemical_formula_structural   K3Ba3Li2Al4B6O20F
_chemical_formula_sum   'K6 Ba6 Li4 Al8 B12 O40 F2'
_cell_volume   1096.89120363
_cell_formula_units_Z   2
loop_
 _symmetry_equiv_pos_site_id
 _symmetry_equiv_pos_as_xyz
  1  'x, y, z'
loop_
 _atom_site_type_symbol
 _atom_site_label
 _atom_site_symmetry_multiplicity
 _atom_site_fract_x
 _atom_site_fract_y
 _atom_site_fract_z
 _atom_site_occupancy
  K  K0  1  1.00000000  0.29380830  0.50000000  1
  K  K1  1  0.70619170  0.70619170  0.50000000  1
  K  K2  1  0.29380830  1.00000000  0.50000000  1
  K  K3  1  1.00000000  0.29380830  0.00000000  1
  K  K4  1  0.70619170  0.70619170  0.00000000  1
  K  K5  1  0.29380830  1.00000000  0.00000000  1
  Ba  Ba0  1  0.98811560  0.30461720  0.25000000  1
  Ba  Ba1  1  0.69538280  0.68349840  0.25000000  1
  Ba  Ba2  1  0.31650160  0.01188440  0.25000000  1
  Ba  Ba3  1  0.30461720  0.98811560  0.75000000  1
  Ba  Ba4  1  0.68349840  0.69538280  0.75000000  1
  Ba  Ba5  1  0.01188440  0.31650160  0.75000000  1
  Li  Li0  1  -0.00000000  -0.00000000  0.11067300  1
  Li  Li1  1  -0.00000000  -0.00000000  0.38932700  1
  Li  Li2  1  -0.00000000  -0.00000000  0.61067300  1
  Li  Li3  1  -0.00000000  -0.00000000  0.88932700  1
  Al  Al0  1  0.66666700  0.33333300  0.10375874  1
  Al  Al1  1  0.66666700  0.33333300  0.39624126  1
  Al  Al2  1  0.33333300  0.66666700  0.60375874  1
  Al  Al3  1  0.33333300  0.66666700  0.89624126  1
  Al  Al4  1  0.33333300  0.66666700  0.10431607  1
  Al  Al5  1  0.33333300  0.66666700  0.39568393  1
  Al  Al6  1  0.66666700  0.33333300  0.60431607  1
  Al  Al7  1  0.66666700  0.33333300  0.89568393  1
  B  B0  1  0.65094072  0.99417917  0.14084464  1
  B  B1  1  0.00582083  0.65676155  0.14084464  1
  B  B2  1  0.34323845  0.34905928  0.14084464  1
  B  B3  1  0.65094072  0.99417917  0.35915536  1
  B  B4  1  0.00582083  0.65676155  0.35915536  1
  B  B5  1  0.34323845  0.34905928  0.35915536  1
  B  B6  1  0.99417917  0.65094072  0.64084464  1
  B  B7  1  0.65676155  0.00582083  0.64084464  1
  B  B8  1  0.34905928  0.34323845  0.64084464  1
  B  B9  1  0.99417917  0.65094072  0.85915536  1
  B  B10  1  0.65676155  0.00582083  0.85915536  1
  B  B11  1  0.34905928  0.34323845  0.85915536  1
  O  O0  1  0.46868882  0.88202000  0.14085467  1
  O  O1  1  0.11798000  0.58666882  0.14085467  1
  O  O2  1  0.41333118  0.53131118  0.14085467  1
  O  O3  1  0.46868882  0.88202000  0.35914533  1
  O  O4  1  0.11798000  0.58666882  0.35914533  1
  O  O5  1  0.41333118  0.53131118  0.35914533  1
  O  O6  1  0.88202000  0.46868882  0.64085467  1
  O  O7  1  0.58666882  0.11798000  0.64085467  1
  O  O8  1  0.53131118  0.41333118  0.64085467  1
  O  O9  1  0.88202000  0.46868882  0.85914533  1
  O  O10  1  0.58666882  0.11798000  0.85914533  1
  O  O11  1  0.53131118  0.41333118  0.85914533  1
  O  O12  1  0.70937487  0.17392395  0.14336381  1
  O  O13  1  0.82607605  0.53545092  0.14336381  1
  O  O14  1  0.46454908  0.29062513  0.14336381  1
  O  O15  1  0.70937487  0.17392395  0.35663619  1
  O  O16  1  0.82607605  0.53545092  0.35663619  1
  O  O17  1  0.46454908  0.29062513  0.35663619  1
  O  O18  1  0.17392395  0.70937487  0.64336381  1
  O  O19  1  0.53545092  0.82607605  0.64336381  1
  O  O20  1  0.29062513  0.46454908  0.64336381  1
  O  O21  1  0.17392395  0.70937487  0.85663619  1
  O  O22  1  0.53545092  0.82607605  0.85663619  1
  O  O23  1  0.29062513  0.46454908  0.85663619  1
  O  O24  1  0.33333300  0.66666700  0.00006726  1
  O  O25  1  0.33333300  0.66666700  0.49993274  1
  O  O26  1  0.66666700  0.33333300  0.50006726  1
  O  O27  1  0.66666700  0.33333300  -0.00006726  1
  O  O28  1  0.76702082  0.93728931  0.14360372  1
  O  O29  1  0.06271069  0.82973151  0.14360372  1
  O  O30  1  0.17026849  0.23297918  0.14360372  1
  O  O31  1  0.76702082  0.93728931  0.35639628  1
  O  O32  1  0.06271069  0.82973151  0.35639628  1
  O  O33  1  0.17026849  0.23297918  0.35639628  1
  O  O34  1  0.93728931  0.76702082  0.64360372  1
  O  O35  1  0.82973151  0.06271069  0.64360372  1
  O  O36  1  0.23297918  0.17026849  0.64360372  1
  O  O37  1  0.93728931  0.76702082  0.85639628  1
  O  O38  1  0.82973151  0.06271069  0.85639628  1
  O  O39  1  0.23297918  0.17026849  0.85639628  1
  F  F0  1  -0.00000000  -0.00000000  0.00000000  1
  F  F1  1  -0.00000000  -0.00000000  0.50000000  1
loop_
_geom_bond_atom_site_label_1
_geom_bond_atom_site_label_2
_geom_bond_distance
_geom_bond_site_symmetry_2
K0 O33 2.982215 1_655
K0 O35 2.982215 1_555
K0 O26 3.113105 1_555
K0 O25 3.113111 1_655
K0 O6 3.222250 1_555
K0 O4 3.222250 1_655
K0 O15 3.238509 1_555
K0 O20 3.238509 1_655
K1 O34 2.982215 1_555
K1 O31 2.982215 1_555
K1 O26 3.113114 1_555
K1 O25 3.113114 1_555
K1 O8 3.222250 1_555
K1 O5 3.222250 1_555
K1 O19 3.238508 1_555
K1 O16 3.238508 1_555
K2 O36 2.982215 1_565
K2 O32 2.982215 1_555
K2 O25 3.113105 1_555
K2 O26 3.113111 1_565
K2 O3 3.222250 1_555
K2 O7 3.222250 1_565
K2 O18 3.238509 1_555
K2 O17 3.238509 1_565
K3 O30 2.982215 1_655
K3 O38 2.982215 1_554
K3 O27 3.113105 1_555
K3 O24 3.113111 1_655
K3 O9 3.222250 1_554
K3 O1 3.222250 1_655
K3 O12 3.238509 1_555
K3 O23 3.238509 1_654
K4 O37 2.982215 1_554
K4 O28 2.982215 1_555
K4 O27 3.113114 1_555
K4 O24 3.113114 1_555
K4 O11 3.222250 1_554
K4 O2 3.222250 1_555
K4 O22 3.238508 1_554
K4 O13 3.238508 1_555
K5 O39 2.982215 1_564
K5 O29 2.982215 1_555
K5 O24 3.113105 1_555
K5 O27 3.113111 1_565
K5 O0 3.222250 1_555
K5 O10 3.222250 1_564
K5 O21 3.238509 1_554
K5 O14 3.238509 1_565
Ba0 O33 2.649048 1_655
Ba0 O30 2.649048 1_655
Ba0 O12 2.751242 1_555
Ba0 O15 2.751242 1_555
Ba0 O4 2.797646 1_655
Ba0 O1 2.797646 1_655
Ba1 O28 2.649048 1_555
Ba1 O31 2.649048 1_555
Ba1 O13 2.751242 1_555
Ba1 O16 2.751242 1_555
Ba1 O5 2.797646 1_555
Ba1 O2 2.797646 1_555
Ba2 O32 2.649048 1_545
Ba2 O29 2.649048 1_545
Ba2 O14 2.751242 1_555
Ba2 O17 2.751242 1_555
Ba2 O3 2.797646 1_545
Ba2 O0 2.797646 1_545
Ba3 O39 2.649048 1_565
Ba3 O36 2.649048 1_565
Ba3 O18 2.751242 1_555
Ba3 O21 2.751242 1_555
Ba3 O10 2.797646 1_565
Ba3 O7 2.797646 1_565
Ba4 O34 2.649048 1_555
Ba4 O37 2.649048 1_555
Ba4 O22 2.751242 1_555
Ba4 O19 2.751242 1_555
Ba4 O11 2.797646 1_555
Ba4 O8 2.797646 1_555
Ba5 O38 2.649048 1_455
Ba5 O35 2.649048 1_455
Ba5 O20 2.751242 1_555
Ba5 O23 2.751242 1_555
Ba5 O9 2.797646 1_455
Ba5 O6 2.797646 1_455
Li0 O29 1.910777 1_545
Li0 O28 1.910777 1_445
Li0 O30 1.910777 1_555
Li1 O32 1.910777 1_545
Li1 O31 1.910777 1_445
Li1 O33 1.910777 1_555
Li2 O35 1.910777 1_455
Li2 O34 1.910777 1_445
Li2 O36 1.910777 1_555
Li3 O38 1.910777 1_455
Li3 O37 1.910777 1_445
Li3 O39 1.910777 1_555
Al0 O27 1.707645 1_555
Al0 O12 1.745264 1_555
Al0 O13 1.745269 1_555
Al0 O14 1.745272 1_555
Al1 O26 1.707645 1_555
Al1 O15 1.745264 1_555
Al1 O16 1.745269 1_555
Al1 O17 1.745272 1_555
Al2 O25 1.707645 1_555
Al2 O18 1.745264 1_555
Al2 O19 1.745269 1_555
Al2 O20 1.745272 1_555
Al3 O24 1.707645 1_556
Al3 O21 1.745264 1_555
Al3 O22 1.745269 1_555
Al3 O23 1.745272 1_555
Al4 O24 1.714599 1_555
Al4 O1 1.760319 1_555
Al4 O0 1.760321 1_555
Al4 O2 1.760327 1_555
Al5 O25 1.714599 1_555
Al5 O4 1.760319 1_555
Al5 O3 1.760321 1_555
Al5 O5 1.760327 1_555
Al6 O26 1.714599 1_555
Al6 O7 1.760319 1_555
Al6 O6 1.760321 1_555
Al6 O8 1.760327 1_555
Al7 O27 1.714599 1_556
Al7 O10 1.760319 1_555
Al7 O9 1.760321 1_555
Al7 O11 1.760327 1_555
B0 O28 1.340713 1_555
B0 O12 1.394218 1_565
B0 O0 1.397320 1_555
B1 O29 1.340713 1_555
B1 O13 1.394218 1_455
B1 O1 1.397320 1_555
B2 O30 1.340713 1_555
B2 O14 1.394218 1_555
B2 O2 1.397320 1_555
B3 O31 1.340713 1_555
B3 O15 1.394218 1_565
B3 O3 1.397320 1_555
B4 O32 1.340713 1_555
B4 O16 1.394218 1_455
B4 O4 1.397320 1_555
B5 O33 1.340713 1_555
B5 O17 1.394218 1_555
B5 O5 1.397320 1_555
B6 O34 1.340713 1_555
B6 O18 1.394218 1_655
B6 O6 1.397320 1_555
B7 O35 1.340713 1_555
B7 O19 1.394218 1_545
B7 O7 1.397320 1_555
B8 O36 1.340713 1_555
B8 O20 1.394218 1_555
B8 O8 1.397320 1_555
B9 O37 1.340713 1_555
B9 O21 1.394218 1_655
B9 O9 1.397320 1_555
B10 O38 1.340713 1_555
B10 O22 1.394218 1_545
B10 O10 1.397320 1_555
B11 O39 1.340713 1_555
B11 O23 1.394218 1_555
B11 O11 1.397320 1_555
F0 Li0 1.820259 1_555
F0 Li3 1.820259 1_554
F0 K5 2.578308 1_545
F0 K3 2.578308 1_455
F0 K4 2.578308 1_445
F1 Li2 1.820259 1_555
F1 Li1 1.820259 1_555
F1 K2 2.578308 1_545
F1 K0 2.578308 1_455
F1 K1 2.578308 1_445
