# generated using pymatgen
data_Si3Ru2
_symmetry_space_group_name_H-M   'P 1'
_cell_length_a   5.26502500
_cell_length_b   8.61642700
_cell_length_c   13.04666000
_cell_angle_alpha   90.00000000
_cell_angle_beta   90.00000000
_cell_angle_gamma   90.00000000
_symmetry_Int_Tables_number   1
_chemical_formula_structural   Si3Ru2
_chemical_formula_sum   'Si24 Ru16'
_cell_volume   591.87091008
_cell_formula_units_Z   8
loop_
 _symmetry_equiv_pos_site_id
 _symmetry_equiv_pos_as_xyz
  1  'x, y, z'
loop_
 _atom_site_type_symbol
 _atom_site_label
 _atom_site_symmetry_multiplicity
 _atom_site_fract_x
 _atom_site_fract_y
 _atom_site_fract_z
 _atom_site_occupancy
  Si  Si0  1  0.04123300  0.78638800  0.62194000  1
  Si  Si1  1  0.54123300  0.71361200  0.87806000  1
  Si  Si2  1  0.50547600  0.67857800  0.65647800  1
  Si  Si3  1  0.00547600  0.32142200  0.65647800  1
  Si  Si4  1  0.95876700  0.71361200  0.12194000  1
  Si  Si5  1  0.45876700  0.78638800  0.37806000  1
  Si  Si6  1  0.81227000  0.96236100  0.26276600  1
  Si  Si7  1  0.49452400  0.82142200  0.15647900  1
  Si  Si8  1  0.99452400  0.67857800  0.34352100  1
  Si  Si9  1  0.49452400  0.32142200  0.34352100  1
  Si  Si10  1  0.68773000  0.46236100  0.76276600  1
  Si  Si11  1  0.04123300  0.28638800  0.87806000  1
  Si  Si12  1  0.31227000  0.03763900  0.26276600  1
  Si  Si13  1  0.99452400  0.17857800  0.15647900  1
  Si  Si14  1  0.81227000  0.46236100  0.23723400  1
  Si  Si15  1  0.95876700  0.21361300  0.37806000  1
  Si  Si16  1  0.31227000  0.53763900  0.23723400  1
  Si  Si17  1  0.18773000  0.03763900  0.73723400  1
  Si  Si18  1  0.18773000  0.53763900  0.76276600  1
  Si  Si19  1  0.68773000  0.96236100  0.73723400  1
  Si  Si20  1  0.50547600  0.17857800  0.84352200  1
  Si  Si21  1  0.00547600  0.82142200  0.84352200  1
  Si  Si22  1  0.54123300  0.21361300  0.62194000  1
  Si  Si23  1  0.45876700  0.28638800  0.12194000  1
  Ru  Ru0  1  0.25000000  0.59241700  0.50000000  1
  Ru  Ru1  1  0.75000000  0.90758300  0.00000000  1
  Ru  Ru2  1  0.25000000  0.29942300  0.50000000  1
  Ru  Ru3  1  0.91243100  0.56269000  0.91045800  1
  Ru  Ru4  1  0.58756900  0.06269000  0.41045800  1
  Ru  Ru5  1  0.75000000  0.70057700  0.50000000  1
  Ru  Ru6  1  0.08756900  0.43731000  0.08954200  1
  Ru  Ru7  1  0.75000000  0.20057700  0.00000000  1
  Ru  Ru8  1  0.91243100  0.06269000  0.58954200  1
  Ru  Ru9  1  0.25000000  0.79942300  0.00000000  1
  Ru  Ru10  1  0.58756900  0.56269000  0.08954200  1
  Ru  Ru11  1  0.25000000  0.09241700  0.00000000  1
  Ru  Ru12  1  0.41243100  0.93731000  0.58954200  1
  Ru  Ru13  1  0.08756900  0.93731000  0.41045800  1
  Ru  Ru14  1  0.75000000  0.40758300  0.50000000  1
  Ru  Ru15  1  0.41243100  0.43731000  0.91045800  1
loop_
_geom_bond_atom_site_label_1
_geom_bond_atom_site_label_2
_geom_bond_distance
_geom_bond_site_symmetry_2
Ru0 Ru2 2.524561 1_555
Ru0 Si2 2.555035 1_555
Ru0 Si8 2.555045 1_455
Ru0 Si5 2.555880 1_555
Ru0 Si0 2.555880 1_555
Ru1 Ru7 2.524561 1_565
Ru1 Si21 2.555035 1_654
Ru1 Si7 2.555045 1_555
Ru1 Si4 2.555880 1_555
Ru1 Si1 2.555880 1_554
Ru2 Si15 2.329985 1_455
Ru2 Si22 2.329985 1_555
Ru2 Si3 2.420987 1_555
Ru2 Si9 2.420998 1_555
Ru3 Si1 2.385220 1_555
Ru3 Si10 2.420710 1_555
Ru3 Si18 2.420828 1_655
Ru3 Si21 2.443891 1_655
Ru3 Si11 2.511264 1_655
Ru4 Si15 2.385225 1_555
Ru4 Si6 2.420710 1_545
Ru4 Si12 2.420828 1_555
Ru4 Si9 2.443896 1_555
Ru4 Si5 2.511264 1_545
Ru5 Si5 2.329988 1_555
Ru5 Si0 2.329988 1_655
Ru5 Si2 2.420987 1_555
Ru5 Si8 2.420998 1_555
Ru6 Si23 2.385220 1_555
Ru6 Si16 2.420710 1_555
Ru6 Si14 2.420828 1_455
Ru6 Si13 2.443896 1_455
Ru6 Si4 2.511264 1_455
Ru7 Si23 2.329988 1_555
Ru7 Si11 2.329988 1_654
Ru7 Si20 2.420987 1_554
Ru7 Si13 2.420998 1_555
Ru8 Si22 2.385225 1_555
Ru8 Si19 2.420710 1_545
Ru8 Si17 2.420828 1_655
Ru8 Si3 2.443891 1_655
Ru8 Si0 2.511264 1_645
Ru9 Si4 2.329988 1_455
Ru9 Si1 2.329988 1_554
Ru9 Si21 2.420987 1_554
Ru9 Si7 2.420998 1_555
Ru10 Si4 2.385220 1_555
Ru10 Si14 2.420710 1_555
Ru10 Si16 2.420828 1_555
Ru10 Si7 2.443896 1_555
Ru10 Si23 2.511264 1_555
Ru11 Ru9 2.524561 1_545
Ru11 Si20 2.555035 1_554
Ru11 Si13 2.555045 1_455
Ru11 Si11 2.555880 1_554
Ru11 Si23 2.555880 1_555
Ru12 Si0 2.385220 1_555
Ru12 Si17 2.420710 1_565
Ru12 Si19 2.420828 1_555
Ru12 Si2 2.443891 1_555
Ru12 Si22 2.511273 1_565
Ru13 Si5 2.385220 1_555
Ru13 Si12 2.420710 1_565
Ru13 Si6 2.420828 1_455
Ru13 Si8 2.443896 1_455
Ru13 Si15 2.511273 1_465
Ru14 Ru5 2.524561 1_555
Ru14 Si3 2.555035 1_655
Ru14 Si9 2.555045 1_555
Ru14 Si15 2.555874 1_555
Ru14 Si22 2.555874 1_555
Ru15 Si11 2.385220 1_555
Ru15 Si18 2.420710 1_555
Ru15 Si10 2.420828 1_555
Ru15 Si20 2.443891 1_555
Ru15 Si1 2.511264 1_555
