# generated using pymatgen
data_LaMgCrWO6
_symmetry_space_group_name_H-M   'P 1'
_cell_length_a   5.65278900
_cell_length_b   5.45614200
_cell_length_c   9.44273816
_cell_angle_alpha   55.89948140
_cell_angle_beta   90.00000000
_cell_angle_gamma   90.00000000
_symmetry_Int_Tables_number   1
_chemical_formula_structural   LaMgCrWO6
_chemical_formula_sum   'La2 Mg2 Cr2 W2 O12'
_cell_volume   241.16023974
_cell_formula_units_Z   2
loop_
 _symmetry_equiv_pos_site_id
 _symmetry_equiv_pos_as_xyz
  1  'x, y, z'
loop_
 _atom_site_type_symbol
 _atom_site_label
 _atom_site_symmetry_multiplicity
 _atom_site_fract_x
 _atom_site_fract_y
 _atom_site_fract_z
 _atom_site_occupancy
  La  La0  1  0.29202100  0.76685400  0.24605200  1
  La  La1  1  0.70797900  0.76685400  0.74605200  1
  Mg  Mg0  1  0.80159600  0.22448200  0.25024400  1
  Mg  Mg1  1  0.19840400  0.22448200  0.75024400  1
  Cr  Cr0  1  0.25042800  0.99981600  0.50065900  1
  Cr  Cr1  1  0.74957200  0.99981600  0.00065900  1
  W  W0  1  0.24702100  0.50080100  0.99769200  1
  W  W1  1  0.75297900  0.50080100  0.49769200  1
  O  O0  1  0.80203900  0.33856000  0.75224700  1
  O  O1  1  0.02426700  0.14272600  0.06521400  1
  O  O2  1  0.03508000  0.77141300  0.44380700  1
  O  O3  1  0.55835900  0.25333000  0.06055300  1
  O  O4  1  0.55722900  0.88747500  0.43438400  1
  O  O5  1  0.27592900  0.61454100  0.74914800  1
  O  O6  1  0.19796100  0.33856000  0.25224700  1
  O  O7  1  0.97573300  0.14272600  0.56521400  1
  O  O8  1  0.96492000  0.77141300  0.94380700  1
  O  O9  1  0.44164100  0.25333000  0.56055300  1
  O  O10  1  0.44277100  0.88747500  0.93438400  1
  O  O11  1  0.72407100  0.61454100  0.24914800  1
loop_
_geom_bond_atom_site_label_1
_geom_bond_atom_site_label_2
_geom_bond_distance
_geom_bond_site_symmetry_2
La0 O1 2.342190 1_565
La0 O6 2.365087 1_555
La0 O2 2.376816 1_555
La0 O11 2.574686 1_555
La0 O4 2.674990 1_555
La0 O3 2.677098 1_565
La0 O10 2.765639 1_554
La0 O9 2.838148 1_555
La1 O7 2.342190 1_565
La1 O0 2.365087 1_555
La1 O8 2.376816 1_555
La1 O5 2.574686 1_555
La1 O10 2.674990 1_555
La1 O9 2.677098 1_565
La1 O4 2.765639 1_555
La1 O3 2.838148 1_556
Mg0 O11 2.167203 1_555
Mg0 O4 2.174292 1_545
Mg0 O3 2.192621 1_555
Mg0 O6 2.328329 1_655
Mg0 O1 2.389543 1_655
Mg0 O2 2.475325 1_645
Mg1 O5 2.167203 1_555
Mg1 O10 2.174292 1_545
Mg1 O9 2.192621 1_555
Mg1 O0 2.328329 1_455
Mg1 O7 2.389543 1_455
Mg1 O8 2.475325 1_445
Cr0 O7 1.980833 1_465
Cr0 O2 2.018222 1_555
Cr0 O6 2.035917 1_565
Cr0 O4 2.050660 1_555
Cr0 O9 2.068483 1_565
Cr0 O5 2.101102 1_555
Cr1 O1 1.980833 1_665
Cr1 O8 2.018222 1_554
Cr1 O0 2.035917 1_564
Cr1 O10 2.050660 1_554
Cr1 O3 2.068483 1_565
Cr1 O11 2.101102 1_555
O0 W1 2.062135 1_555
O1 W0 2.100542 1_554
O2 W1 2.034571 1_455
O3 W0 2.091444 1_554
O4 W1 2.149101 1_555
O5 W0 2.070461 1_555
O6 W0 2.062135 1_554
O7 W1 2.100542 1_555
O8 W0 2.034571 1_655
O9 W1 2.091444 1_555
O10 W0 2.149101 1_555
O11 W1 2.070461 1_555
