# generated using pymatgen
data_Hf(GaFe)6
_symmetry_space_group_name_H-M   'P 1'
_cell_length_a   4.98791100
_cell_length_b   6.50755884
_cell_length_c   6.50755884
_cell_angle_alpha   80.42937739
_cell_angle_beta   67.46549696
_cell_angle_gamma   67.46549696
_symmetry_Int_Tables_number   1
_chemical_formula_structural   Hf(GaFe)6
_chemical_formula_sum   'Hf1 Ga6 Fe6'
_cell_volume   180.15924255
_cell_formula_units_Z   1
loop_
 _symmetry_equiv_pos_site_id
 _symmetry_equiv_pos_as_xyz
  1  'x, y, z'
loop_
 _atom_site_type_symbol
 _atom_site_label
 _atom_site_symmetry_multiplicity
 _atom_site_fract_x
 _atom_site_fract_y
 _atom_site_fract_z
 _atom_site_occupancy
  Hf  Hf0  1  0.00000000  0.00000000  0.00000000  1
  Ga  Ga0  1  0.00000000  0.66876300  0.33123700  1
  Ga  Ga1  1  0.00000000  0.33123700  0.66876300  1
  Ga  Ga2  1  0.34057000  0.65943000  0.65943000  1
  Ga  Ga3  1  0.65943000  0.34057000  0.34057000  1
  Ga  Ga4  1  0.32685300  0.17314700  0.17314700  1
  Ga  Ga5  1  0.67314700  0.82685300  0.82685300  1
  Fe  Fe0  1  0.50000000  0.24412000  0.75588000  1
  Fe  Fe1  1  0.50000000  0.75588000  0.24412000  1
  Fe  Fe2  1  0.00000000  0.50000000  0.00000000  1
  Fe  Fe3  1  0.50000000  0.50000000  0.00000000  1
  Fe  Fe4  1  0.00000000  0.00000000  0.50000000  1
  Fe  Fe5  1  0.50000000  0.00000000  0.50000000  1
loop_
_geom_bond_atom_site_label_1
_geom_bond_atom_site_label_2
_geom_bond_distance
_geom_bond_site_symmetry_2
Ga0 Hf0 2.783469 1_565
Ga0 Ga1 2.836317 1_555
Ga1 Hf0 2.783469 1_556
Ga2 Ga3 2.741071 1_555
Ga2 Ga5 2.879452 1_555
Ga2 Ga5 2.879453 1_455
Ga2 Hf0 2.927700 1_566
Ga3 Ga4 2.879452 1_555
Ga3 Ga4 2.879453 1_655
Ga3 Hf0 2.927700 1_655
Ga4 Hf0 2.904360 1_555
Ga4 Hf0 2.904360 1_655
Ga4 Ga5 2.976907 1_544
Ga5 Hf0 2.904360 1_666
Ga5 Hf0 2.904360 1_566
Fe0 Fe3 2.485177 1_556
Fe0 Fe5 2.485177 1_555
Fe0 Fe4 2.485177 1_655
Fe0 Fe2 2.485177 1_556
Fe0 Ga4 2.534511 1_556
Fe0 Ga5 2.534511 1_545
Fe0 Ga2 2.549870 1_555
Fe0 Ga3 2.549870 1_555
Fe0 Ga1 2.599180 1_655
Fe0 Ga1 2.599180 1_555
Fe1 Fe5 2.485177 1_565
Fe1 Fe3 2.485177 1_555
Fe1 Fe4 2.485177 1_565
Fe1 Fe2 2.485177 1_655
Fe1 Ga4 2.534511 1_565
Fe1 Ga5 2.534511 1_554
Fe1 Ga2 2.549870 1_555
Fe1 Ga3 2.549870 1_555
Fe1 Ga0 2.599180 1_655
Fe1 Ga0 2.599180 1_555
Fe2 Fe3 2.493956 1_455
Fe2 Fe3 2.493956 1_555
Fe2 Ga4 2.530781 1_555
Fe2 Ga5 2.530781 1_454
Fe2 Ga3 2.564091 1_455
Fe2 Ga2 2.564091 1_554
Fe2 Ga1 2.576758 1_554
Fe2 Ga0 2.576758 1_555
Fe3 Ga5 2.530781 1_554
Fe3 Ga4 2.530781 1_555
Fe3 Ga2 2.564091 1_554
Fe3 Ga3 2.564091 1_555
Fe3 Ga1 2.576758 1_654
Fe3 Ga0 2.576758 1_555
Fe4 Fe5 2.493956 1_555
Fe4 Fe5 2.493956 1_455
Fe4 Ga4 2.530781 1_555
Fe4 Ga5 2.530781 1_445
Fe4 Ga3 2.564091 1_455
Fe4 Ga2 2.564091 1_545
Fe4 Ga0 2.576758 1_545
Fe4 Ga1 2.576758 1_555
Fe5 Ga5 2.530781 1_545
Fe5 Ga4 2.530781 1_555
Fe5 Ga2 2.564091 1_545
Fe5 Ga3 2.564091 1_555
Fe5 Ga1 2.576758 1_555
Fe5 Ga0 2.576758 1_645
