# generated using pymatgen
data_La2Zn5Sn
_symmetry_space_group_name_H-M   'P 1'
_cell_length_a   8.66354084
_cell_length_b   8.66354084
_cell_length_c   9.10674771
_cell_angle_alpha   90.00000000
_cell_angle_beta   90.00000000
_cell_angle_gamma   149.61701675
_symmetry_Int_Tables_number   1
_chemical_formula_structural   La2Zn5Sn
_chemical_formula_sum   'La4 Zn10 Sn2'
_cell_volume   345.71142339
_cell_formula_units_Z   2
loop_
 _symmetry_equiv_pos_site_id
 _symmetry_equiv_pos_as_xyz
  1  'x, y, z'
loop_
 _atom_site_type_symbol
 _atom_site_label
 _atom_site_symmetry_multiplicity
 _atom_site_fract_x
 _atom_site_fract_y
 _atom_site_fract_z
 _atom_site_occupancy
  La  La0  1  0.20771058  0.79228942  0.25000000  1
  La  La1  1  0.79228942  0.20771058  0.75000000  1
  La  La2  1  0.00000000  -0.00000000  0.50000000  1
  La  La3  1  0.00000000  -0.00000000  -0.00000000  1
  Zn  Zn0  1  0.81513737  0.18486263  0.39022579  1
  Zn  Zn1  1  0.18486263  0.81513737  0.60977421  1
  Zn  Zn2  1  0.81513737  0.18486263  0.10977421  1
  Zn  Zn3  1  0.18486263  0.81513737  0.89022579  1
  Zn  Zn4  1  0.65661171  0.34338829  0.48682455  1
  Zn  Zn5  1  0.34338829  0.65661171  0.51317545  1
  Zn  Zn6  1  0.65661171  0.34338829  0.01317545  1
  Zn  Zn7  1  0.34338829  0.65661171  0.98682455  1
  Zn  Zn8  1  0.39677435  0.60322565  0.25000000  1
  Zn  Zn9  1  0.60322565  0.39677435  0.75000000  1
  Sn  Sn0  1  0.55691514  0.44308486  0.25000000  1
  Sn  Sn1  1  0.44308486  0.55691514  0.75000000  1
loop_
_geom_bond_atom_site_label_1
_geom_bond_atom_site_label_2
_geom_bond_distance
_geom_bond_site_symmetry_2
La0 Zn8 3.161448 1_555
La0 Zn2 3.164112 1_565
La0 Zn0 3.164112 1_565
La0 Zn2 3.164112 1_455
La0 Zn0 3.164112 1_455
La0 Zn4 3.245838 1_455
La0 Zn4 3.245838 1_565
La0 Zn6 3.245838 1_565
La0 Zn6 3.245838 1_455
La0 Zn3 3.298573 1_554
La0 Zn1 3.298573 1_555
La0 Zn5 3.300190 1_555
La0 Zn7 3.300190 1_554
La0 Sn0 3.392960 1_565
La0 Sn0 3.392960 1_455
La1 Zn9 3.161448 1_555
La1 Zn1 3.164112 1_545
La1 Zn3 3.164112 1_545
La1 Zn3 3.164112 1_655
La1 Zn1 3.164112 1_655
La1 Zn7 3.245838 1_545
La1 Zn5 3.245838 1_545
La1 Zn5 3.245838 1_655
La1 Zn7 3.245838 1_655
La1 Zn0 3.298573 1_555
La1 Zn2 3.298573 1_556
La1 Zn4 3.300190 1_555
La1 Zn6 3.300190 1_556
La1 Sn1 3.392960 1_545
La1 Sn1 3.392960 1_655
La2 Zn1 3.248827 1_545
La2 Zn0 3.248827 1_455
La2 Sn0 3.353069 1_555
La2 Sn0 3.353069 1_445
La2 Sn1 3.353069 1_555
La2 Sn1 3.353069 1_445
La2 Zn5 3.467926 1_445
La2 Zn4 3.467926 1_445
La2 Zn4 3.467926 1_555
La2 Zn5 3.467926 1_555
La2 Zn8 3.649209 1_445
La2 Zn9 3.649209 1_555
La2 Zn9 3.649209 1_445
La2 Zn8 3.649209 1_555
La3 Zn2 3.248827 1_455
La3 Zn3 3.248827 1_544
La3 Sn1 3.353069 1_554
La3 Sn0 3.353069 1_555
La3 Sn0 3.353069 1_445
La3 Sn1 3.353069 1_444
La3 Zn6 3.467926 1_445
La3 Zn7 3.467926 1_444
La3 Zn7 3.467926 1_554
La3 Zn6 3.467926 1_555
La3 Zn9 3.649209 1_554
La3 Zn8 3.649209 1_445
La3 Zn9 3.649209 1_444
La3 Zn8 3.649209 1_555
Zn0 Zn2 2.554002 1_555
Zn0 Zn5 2.575042 1_545
Zn0 Zn5 2.575042 1_655
Zn0 Zn4 2.792960 1_555
Zn0 Zn8 2.940790 1_545
Zn0 Zn8 2.940790 1_655
Zn1 Zn3 2.554002 1_555
Zn1 Zn4 2.575042 1_565
Zn1 Zn4 2.575042 1_455
Zn1 Zn5 2.792960 1_555
Zn1 Zn9 2.940790 1_455
Zn1 Zn9 2.940790 1_565
Zn2 Zn7 2.575042 1_654
Zn2 Zn7 2.575042 1_544
Zn2 Zn6 2.792960 1_555
Zn2 Zn8 2.940790 1_545
Zn2 Zn8 2.940790 1_655
Zn3 Zn6 2.575042 1_566
Zn3 Zn6 2.575042 1_456
Zn3 Zn7 2.792960 1_555
Zn3 Zn9 2.940790 1_455
Zn3 Zn9 2.940790 1_565
Zn4 Zn9 2.557529 1_555
Zn5 Zn8 2.557529 1_555
Zn6 Zn9 2.557529 1_554
Zn7 Zn8 2.557529 1_556
Sn0 Zn8 2.677809 1_555
Sn0 Zn6 2.725901 1_555
Sn0 Zn4 2.725901 1_555
Sn1 Zn9 2.677809 1_555
Sn1 Zn5 2.725901 1_555
Sn1 Zn7 2.725901 1_555
