# generated using pymatgen
data_LaHo3Mn8O20
_symmetry_space_group_name_H-M   'P 1'
_cell_length_a   5.79355800
_cell_length_b   7.43443500
_cell_length_c   8.61955642
_cell_angle_alpha   89.62316841
_cell_angle_beta   90.00000000
_cell_angle_gamma   90.00000000
_symmetry_Int_Tables_number   1
_chemical_formula_structural   LaHo3Mn8O20
_chemical_formula_sum   'La1 Ho3 Mn8 O20'
_cell_volume   371.25204253
_cell_formula_units_Z   1
loop_
 _symmetry_equiv_pos_site_id
 _symmetry_equiv_pos_as_xyz
  1  'x, y, z'
loop_
 _atom_site_type_symbol
 _atom_site_label
 _atom_site_symmetry_multiplicity
 _atom_site_fract_x
 _atom_site_fract_y
 _atom_site_fract_z
 _atom_site_occupancy
  La  La0  1  0.00000000  0.36225100  0.67039000  1
  Ho  Ho0  1  0.00000000  0.64294400  0.32709500  1
  Ho  Ho1  1  0.00000000  0.86042500  0.83037200  1
  Ho  Ho2  1  0.00000000  0.13892200  0.17000100  1
  Mn  Mn0  1  0.50000000  0.08545100  0.85144600  1
  Mn  Mn1  1  0.50000000  0.91033000  0.15122900  1
  Mn  Mn2  1  0.50000000  0.59567100  0.64934500  1
  Mn  Mn3  1  0.50000000  0.41300500  0.34704300  1
  Mn  Mn4  1  0.74480200  0.50117100  0.00230500  1
  Mn  Mn5  1  0.25440000  0.99651400  0.49846000  1
  Mn  Mn6  1  0.25519800  0.50117100  0.00230500  1
  Mn  Mn7  1  0.74560000  0.99651400  0.49846000  1
  O  O0  1  0.00000000  0.33805400  0.95137900  1
  O  O1  1  0.00000000  0.66324500  0.05793600  1
  O  O2  1  0.00000000  0.83433800  0.55642100  1
  O  O3  1  0.00000000  0.15647800  0.43774600  1
  O  O4  1  0.75663800  0.09170900  0.70840200  1
  O  O5  1  0.75959300  0.89335200  0.29216600  1
  O  O6  1  0.24607900  0.61382500  0.79591900  1
  O  O7  1  0.23989900  0.39325900  0.20726400  1
  O  O8  1  0.24040700  0.89335200  0.29216600  1
  O  O9  1  0.24336200  0.09170900  0.70840200  1
  O  O10  1  0.76010100  0.39325900  0.20726400  1
  O  O11  1  0.75392100  0.61382500  0.79591900  1
  O  O12  1  0.50000000  0.34875300  0.93291900  1
  O  O13  1  0.50000000  0.65149300  0.06908300  1
  O  O14  1  0.50000000  0.84686100  0.56256800  1
  O  O15  1  0.50000000  0.15180100  0.43422100  1
  O  O16  1  0.72503700  0.50964600  0.49379600  1
  O  O17  1  0.26862100  0.00051300  0.00209100  1
  O  O18  1  0.27496300  0.50964600  0.49379600  1
  O  O19  1  0.73137900  0.00051300  0.00209100  1
loop_
_geom_bond_atom_site_label_1
_geom_bond_atom_site_label_2
_geom_bond_distance
_geom_bond_site_symmetry_2
La0 O0 2.427492 1_555
La0 O18 2.456319 1_555
La0 O16 2.456319 1_455
La0 O9 2.476293 1_555
La0 O4 2.476293 1_455
La0 O3 2.530185 1_555
La0 O6 2.593831 1_555
La0 O11 2.593831 1_455
Ho0 O1 2.323944 1_555
Ho0 O8 2.342842 1_555
Ho0 O5 2.342842 1_455
Ho0 O18 2.359170 1_555
Ho0 O16 2.359170 1_455
Ho0 O2 2.443145 1_555
Ho0 O7 2.543530 1_555
Ho0 O10 2.543530 1_455
Ho1 O6 2.342862 1_555
Ho1 O11 2.342862 1_455
Ho1 O2 2.370558 1_555
Ho1 O19 2.391181 1_466
Ho1 O17 2.391181 1_566
Ho1 O1 2.441022 1_556
Ho1 O9 2.454787 1_565
Ho1 O4 2.454787 1_465
Ho2 O3 2.312388 1_555
Ho2 O19 2.365397 1_455
Ho2 O17 2.365397 1_555
Ho2 O7 2.370276 1_555
Ho2 O10 2.370276 1_455
Ho2 O0 2.388733 1_554
Ho2 O8 2.521220 1_545
Ho2 O5 2.521220 1_445
Mn0 O4 1.931930 1_555
Mn0 O9 1.931930 1_555
Mn0 O19 1.967488 1_556
Mn0 O17 1.967488 1_556
Mn0 O12 2.084002 1_555
Mn1 O5 1.936906 1_555
Mn1 O8 1.936906 1_555
Mn1 O19 1.971715 1_565
Mn1 O17 1.971715 1_565
Mn1 O13 2.054807 1_555
Mn2 O11 1.944427 1_555
Mn2 O6 1.944427 1_555
Mn2 O16 1.979331 1_555
Mn2 O18 1.979331 1_555
Mn2 O14 2.007110 1_555
Mn3 O10 1.935530 1_555
Mn3 O7 1.935530 1_555
Mn3 O16 1.956539 1_555
Mn3 O18 1.956539 1_555
Mn3 O15 2.077608 1_555
Mn4 O13 1.897423 1_555
Mn4 O12 1.913667 1_554
Mn4 O10 1.937502 1_555
Mn4 O11 1.961967 1_554
Mn4 O0 1.963737 1_654
Mn4 O1 1.968594 1_655
Mn5 O14 1.886729 1_555
Mn5 O15 1.911970 1_565
Mn5 O8 1.942830 1_555
Mn5 O9 1.948456 1_565
Mn5 O3 1.962730 1_565
Mn5 O2 1.966642 1_555
Mn6 O13 1.897423 1_555
Mn6 O12 1.913667 1_554
Mn6 O7 1.937502 1_555
Mn6 O6 1.961967 1_554
Mn6 O0 1.963737 1_554
Mn6 O1 1.968594 1_555
Mn7 O14 1.886729 1_555
Mn7 O15 1.911970 1_565
Mn7 O5 1.942830 1_555
Mn7 O4 1.948456 1_565
Mn7 O3 1.962730 1_665
Mn7 O2 1.966642 1_655
