# generated using pymatgen
data_Zr6Al16Co7
_symmetry_space_group_name_H-M   'P 1'
_cell_length_a   8.51438165
_cell_length_b   8.51438165
_cell_length_c   8.51438165
_cell_angle_alpha   60.00000000
_cell_angle_beta   60.00000000
_cell_angle_gamma   60.00000000
_symmetry_Int_Tables_number   1
_chemical_formula_structural   Zr6Al16Co7
_chemical_formula_sum   'Zr6 Al16 Co7'
_cell_volume   436.45989229
_cell_formula_units_Z   1
loop_
 _symmetry_equiv_pos_site_id
 _symmetry_equiv_pos_as_xyz
  1  'x, y, z'
loop_
 _atom_site_type_symbol
 _atom_site_label
 _atom_site_symmetry_multiplicity
 _atom_site_fract_x
 _atom_site_fract_y
 _atom_site_fract_z
 _atom_site_occupancy
  Zr  Zr0  1  0.69523500  0.30476500  0.30476500  1
  Zr  Zr1  1  0.69523500  0.30476500  0.69523500  1
  Zr  Zr2  1  0.69523500  0.69523500  0.30476500  1
  Zr  Zr3  1  0.30476500  0.69523500  0.69523500  1
  Zr  Zr4  1  0.30476500  0.69523500  0.30476500  1
  Zr  Zr5  1  0.30476500  0.30476500  0.69523500  1
  Al  Al0  1  0.64445000  0.11851700  0.11851700  1
  Al  Al1  1  0.11851700  0.64445000  0.11851700  1
  Al  Al2  1  0.11851700  0.11851700  0.64445000  1
  Al  Al3  1  0.11851700  0.11851700  0.11851700  1
  Al  Al4  1  0.35555000  0.88148300  0.88148300  1
  Al  Al5  1  0.88148300  0.35555000  0.88148300  1
  Al  Al6  1  0.88148300  0.88148300  0.35555000  1
  Al  Al7  1  0.88148300  0.88148300  0.88148300  1
  Al  Al8  1  0.99570000  0.33476700  0.33476700  1
  Al  Al9  1  0.33476700  0.99570000  0.33476700  1
  Al  Al10  1  0.33476700  0.33476700  0.99570000  1
  Al  Al11  1  0.33476700  0.33476700  0.33476700  1
  Al  Al12  1  0.00430000  0.66523300  0.66523300  1
  Al  Al13  1  0.66523300  0.00430000  0.66523300  1
  Al  Al14  1  0.66523300  0.66523300  0.00430000  1
  Al  Al15  1  0.66523300  0.66523300  0.66523300  1
  Co  Co0  1  0.00000000  0.00000000  0.00000000  1
  Co  Co1  1  0.50000000  0.00000000  0.00000000  1
  Co  Co2  1  0.50000000  0.00000000  0.50000000  1
  Co  Co3  1  0.50000000  0.50000000  0.00000000  1
  Co  Co4  1  0.00000000  0.50000000  0.50000000  1
  Co  Co5  1  0.00000000  0.50000000  0.00000000  1
  Co  Co6  1  0.00000000  0.00000000  0.50000000  1
loop_
_geom_bond_atom_site_label_1
_geom_bond_atom_site_label_2
_geom_bond_distance
_geom_bond_site_symmetry_2
Zr0 Zr5 3.324611 1_555
Zr0 Zr2 3.324611 1_555
Zr0 Zr1 3.324611 1_555
Zr0 Zr4 3.324611 1_555
Zr1 Zr5 3.324611 1_555
Zr1 Zr2 3.324611 1_555
Zr1 Zr3 3.324611 1_555
Zr2 Zr3 3.324611 1_555
Zr2 Zr4 3.324611 1_555
Zr3 Zr5 3.324611 1_555
Zr3 Zr4 3.324611 1_555
Zr4 Zr5 3.324611 1_555
Al0 Co0 2.471771 1_655
Al0 Co2 2.655118 1_555
Al0 Co3 2.655118 1_555
Al0 Co1 2.655125 1_555
Al0 Al11 2.722710 1_555
Al0 Al10 2.722710 1_554
Al0 Al9 2.722710 1_545
Al0 Al5 2.854151 1_554
Al0 Al6 2.854151 1_545
Al0 Al7 2.854163 1_544
Al0 Zr0 3.017039 1_555
Al0 Zr2 3.017047 1_545
Al0 Zr1 3.017047 1_554
Al1 Co0 2.471771 1_565
Al1 Co4 2.655118 1_555
Al1 Co3 2.655118 1_555
Al1 Co5 2.655125 1_555
Al1 Al11 2.722710 1_555
Al1 Al10 2.722710 1_554
Al1 Al8 2.722710 1_455
Al1 Al6 2.854151 1_455
Al1 Al4 2.854151 1_554
Al1 Al7 2.854163 1_454
Al1 Zr4 3.017039 1_555
Al1 Zr2 3.017047 1_455
Al1 Zr3 3.017047 1_554
Al2 Co0 2.471771 1_556
Al2 Co4 2.655118 1_555
Al2 Co2 2.655118 1_555
Al2 Co6 2.655125 1_555
Al2 Al8 2.722710 1_455
Al2 Al9 2.722710 1_545
Al2 Al4 2.854151 1_545
Al2 Al5 2.854151 1_455
Al2 Al7 2.854163 1_445
Al2 Zr5 3.017039 1_555
Al2 Zr3 3.017047 1_545
Al2 Zr1 3.017047 1_455
Al3 Co0 2.471778 1_555
Al3 Co5 2.655118 1_555
Al3 Co6 2.655118 1_555
Al3 Co1 2.655118 1_555
Al3 Al8 2.722710 1_455
Al3 Al9 2.722710 1_545
Al3 Al6 2.854163 1_445
Al3 Al5 2.854163 1_454
Al3 Al4 2.854163 1_544
Al3 Zr5 3.017045 1_554
Al3 Zr0 3.017045 1_455
Al3 Zr4 3.017045 1_545
Al4 Co0 2.471771 1_566
Al4 Co3 2.655118 1_556
Al4 Co2 2.655118 1_565
Al4 Co1 2.655125 1_566
Al4 Zr3 3.017039 1_555
Al4 Zr5 3.017047 1_565
Al4 Zr4 3.017047 1_556
Al5 Co0 2.471771 1_656
Al5 Co3 2.655118 1_556
Al5 Co4 2.655118 1_655
Al5 Co5 2.655125 1_656
Al5 Zr1 3.017039 1_555
Al5 Zr5 3.017047 1_655
Al5 Zr0 3.017047 1_556
Al6 Co0 2.471771 1_665
Al6 Co4 2.655118 1_655
Al6 Co2 2.655118 1_565
Al6 Co6 2.655125 1_665
Al6 Zr2 3.017039 1_555
Al6 Zr4 3.017047 1_655
Al6 Zr0 3.017047 1_565
Al7 Co0 2.471778 1_666
Al7 Co1 2.655118 1_566
Al7 Co5 2.655118 1_656
Al7 Co6 2.655118 1_665
Al7 Zr1 3.017045 1_565
Al7 Zr3 3.017045 1_655
Al7 Zr2 3.017045 1_556
Al8 Co4 2.458067 1_655
Al8 Co5 2.458075 1_655
Al8 Co6 2.458075 1_655
Al8 Zr2 2.836814 1_555
Al8 Zr1 2.836814 1_555
Al8 Zr0 2.836819 1_555
Al8 Al9 2.886946 1_645
Al9 Co2 2.458067 1_565
Al9 Co6 2.458075 1_565
Al9 Co1 2.458075 1_565
Al9 Zr2 2.836814 1_555
Al9 Zr3 2.836814 1_555
Al9 Zr4 2.836819 1_555
Al10 Co3 2.458067 1_556
Al10 Co1 2.458075 1_556
Al10 Co5 2.458075 1_556
Al10 Al3 2.722710 1_556
Al10 Zr1 2.836814 1_555
Al10 Zr3 2.836814 1_555
Al10 Zr5 2.836819 1_555
Al10 Al8 2.886946 1_456
Al10 Al9 2.886946 1_546
Al10 Al11 2.886946 1_556
Al11 Co3 2.458072 1_555
Al11 Co4 2.458072 1_555
Al11 Co2 2.458072 1_555
Al11 Al2 2.722710 1_555
Al11 Zr5 2.836810 1_555
Al11 Zr0 2.836810 1_555
Al11 Zr4 2.836810 1_555
Al11 Al8 2.886946 1_455
Al11 Al9 2.886946 1_545
Al12 Co4 2.458067 1_555
Al12 Co6 2.458075 1_565
Al12 Co5 2.458075 1_556
Al12 Al7 2.722710 1_455
Al12 Al5 2.722710 1_455
Al12 Al6 2.722710 1_455
Al12 Zr5 2.836814 1_555
Al12 Zr4 2.836814 1_555
Al12 Zr3 2.836819 1_555
Al12 Al13 2.886946 1_465
Al12 Al14 2.886946 1_456
Al12 Al15 2.886946 1_455
Al13 Co2 2.458067 1_555
Al13 Co6 2.458075 1_655
Al13 Co1 2.458075 1_556
Al13 Al7 2.722710 1_545
Al13 Al4 2.722710 1_545
Al13 Al6 2.722710 1_545
Al13 Zr0 2.836814 1_555
Al13 Zr5 2.836814 1_555
Al13 Zr1 2.836819 1_555
Al13 Al14 2.886946 1_546
Al13 Al15 2.886946 1_545
Al14 Co3 2.458067 1_555
Al14 Co5 2.458075 1_655
Al14 Co1 2.458075 1_565
Al14 Al7 2.722710 1_554
Al14 Al4 2.722710 1_554
Al14 Al5 2.722710 1_554
Al14 Zr0 2.836814 1_555
Al14 Zr4 2.836814 1_555
Al14 Zr2 2.836819 1_555
Al14 Al15 2.886946 1_554
Al15 Co4 2.458072 1_655
Al15 Co2 2.458072 1_565
Al15 Co3 2.458072 1_556
Al15 Al4 2.722710 1_555
Al15 Al5 2.722710 1_555
Al15 Al6 2.722710 1_555
Al15 Zr2 2.836810 1_555
Al15 Zr1 2.836810 1_555
Al15 Zr3 2.836810 1_555
Co1 Zr2 3.081670 1_545
Co1 Zr1 3.081670 1_554
Co1 Zr4 3.081670 1_545
Co1 Zr5 3.081670 1_554
Co2 Zr5 3.081670 1_555
Co2 Zr0 3.081670 1_555
Co2 Zr2 3.081670 1_545
Co2 Zr3 3.081670 1_545
Co3 Zr0 3.081670 1_555
Co3 Zr4 3.081670 1_555
Co3 Zr1 3.081670 1_554
Co3 Zr3 3.081670 1_554
Co4 Zr5 3.081670 1_555
Co4 Zr4 3.081670 1_555
Co4 Zr2 3.081670 1_455
Co4 Zr1 3.081670 1_455
Co5 Zr2 3.081670 1_455
Co5 Zr3 3.081670 1_554
Co5 Zr0 3.081670 1_455
Co5 Zr5 3.081670 1_554
Co6 Zr3 3.081670 1_545
Co6 Zr1 3.081670 1_455
Co6 Zr4 3.081670 1_545
Co6 Zr0 3.081670 1_455
