# generated using pymatgen
data_Hg
_symmetry_space_group_name_H-M   'P 1'
_cell_length_a   6.27852056
_cell_length_b   8.67539219
_cell_length_c   8.67538715
_cell_angle_alpha   93.86159370
_cell_angle_beta   73.67348036
_cell_angle_gamma   106.32634726
_symmetry_Int_Tables_number   1
_chemical_formula_structural   Hg
_chemical_formula_sum   Hg16
_cell_volume   435.16043119
_cell_formula_units_Z   16
loop_
 _symmetry_equiv_pos_site_id
 _symmetry_equiv_pos_as_xyz
  1  'x, y, z'
loop_
 _atom_site_type_symbol
 _atom_site_label
 _atom_site_symmetry_multiplicity
 _atom_site_fract_x
 _atom_site_fract_y
 _atom_site_fract_z
 _atom_site_occupancy
  Hg  Hg0_0  1  0.49866343  0.49720315  0.00279634  1
  Hg  Hg0_1  1  0.49866343  0.49720315  0.50279635  1
  Hg  Hg0_2  1  0.49866344  0.99720316  0.00279634  1
  Hg  Hg0_3  1  0.49866343  0.99720316  0.50279635  1
  Hg  Hg0_4  1  0.99866343  0.49720315  0.00279634  1
  Hg  Hg0_5  1  0.99866343  0.49720315  0.50279635  1
  Hg  Hg0_6  1  0.99866343  0.99720315  0.00279634  1
  Hg  Hg0_7  1  0.99866343  0.99720316  0.50279635  1
  Hg  Hg1_0  1  0.12633756  0.25279634  0.24720316  1
  Hg  Hg1_1  1  0.12633756  0.25279634  0.74720316  1
  Hg  Hg1_2  1  0.12633757  0.75279634  0.24720316  1
  Hg  Hg1_3  1  0.12633756  0.75279635  0.74720316  1
  Hg  Hg1_4  1  0.62633757  0.25279634  0.24720316  1
  Hg  Hg1_5  1  0.62633757  0.25279634  0.74720316  1
  Hg  Hg1_6  1  0.62633757  0.75279634  0.24720316  1
  Hg  Hg1_7  1  0.62633756  0.75279635  0.74720316  1
loop_
_geom_bond_atom_site_label_1
_geom_bond_atom_site_label_2
_geom_bond_distance
_geom_bond_site_symmetry_2
Hg0_0 Hg1_7 3.023185 1_554
Hg0_0 Hg1_5 3.062363 1_554
Hg0_0 Hg1_6 3.062366 1_555
Hg0_0 Hg1_0 3.080318 1_555
Hg0_0 Hg0_4 3.139260 1_455
Hg0_0 Hg0_4 3.139260 1_555
Hg0_1 Hg1_6 3.023185 1_555
Hg0_1 Hg1_4 3.062363 1_555
Hg0_1 Hg1_7 3.062366 1_555
Hg0_1 Hg1_1 3.080318 1_555
Hg0_1 Hg0_5 3.139260 1_555
Hg0_1 Hg0_5 3.139260 1_455
Hg0_2 Hg1_5 3.023185 1_564
Hg0_2 Hg1_7 3.062363 1_554
Hg0_2 Hg1_4 3.062366 1_565
Hg0_2 Hg1_2 3.080318 1_555
Hg0_2 Hg0_6 3.139260 1_455
Hg0_2 Hg0_6 3.139260 1_555
Hg0_3 Hg1_4 3.023185 1_565
Hg0_3 Hg1_6 3.062363 1_555
Hg0_3 Hg1_5 3.062366 1_565
Hg0_3 Hg1_3 3.080318 1_555
Hg0_3 Hg0_7 3.139260 1_555
Hg0_3 Hg0_7 3.139260 1_455
Hg0_4 Hg1_3 3.023185 1_654
Hg0_4 Hg1_1 3.062363 1_654
Hg0_4 Hg1_2 3.062366 1_655
Hg0_4 Hg1_4 3.080318 1_555
Hg0_5 Hg1_2 3.023185 1_655
Hg0_5 Hg1_0 3.062363 1_655
Hg0_5 Hg1_3 3.062366 1_655
Hg0_5 Hg1_5 3.080318 1_555
Hg0_6 Hg1_1 3.023185 1_664
Hg0_6 Hg1_3 3.062363 1_654
Hg0_6 Hg1_0 3.062366 1_665
Hg0_6 Hg1_6 3.080318 1_555
Hg0_7 Hg1_0 3.023185 1_665
Hg0_7 Hg1_2 3.062363 1_655
Hg0_7 Hg1_1 3.062366 1_665
Hg0_7 Hg1_7 3.080318 1_555
Hg1_0 Hg1_4 3.139260 1_455
Hg1_0 Hg1_4 3.139260 1_555
Hg1_1 Hg1_5 3.139260 1_455
Hg1_1 Hg1_5 3.139260 1_555
Hg1_2 Hg1_6 3.139260 1_555
Hg1_2 Hg1_6 3.139260 1_455
Hg1_3 Hg1_7 3.139260 1_455
Hg1_3 Hg1_7 3.139260 1_555
