# generated using pymatgen
data_NpSeO
_symmetry_space_group_name_H-M   'P 1'
_cell_length_a   3.89997047
_cell_length_b   3.89996727
_cell_length_c   6.93797366
_cell_angle_alpha   90.00000000
_cell_angle_beta   90.00000000
_cell_angle_gamma   90.00000000
_symmetry_Int_Tables_number   1
_chemical_formula_structural   NpSeO
_chemical_formula_sum   'Np2 Se2 O2'
_cell_volume   105.52489474
_cell_formula_units_Z   2
loop_
 _symmetry_equiv_pos_site_id
 _symmetry_equiv_pos_as_xyz
  1  'x, y, z'
loop_
 _atom_site_type_symbol
 _atom_site_label
 _atom_site_symmetry_multiplicity
 _atom_site_fract_x
 _atom_site_fract_y
 _atom_site_fract_z
 _atom_site_occupancy
  Np  Np0  1  0.75000000  0.75000000  0.81882516  1
  Np  Np1  1  0.25000000  0.25000000  0.18122261  1
  Se  Se0  1  0.75000000  0.75000000  0.36404458  1
  Se  Se1  1  0.25000000  0.25000000  0.63600126  1
  O  O0  1  0.75000000  0.25000000  -0.00004630  1
  O  O1  1  0.25000000  0.75000000  -0.00004630  1
loop_
_geom_bond_atom_site_label_1
_geom_bond_atom_site_label_2
_geom_bond_distance
_geom_bond_site_symmetry_2
Np0 O0 2.319837 1_566
Np0 O0 2.319837 1_556
Np0 O1 2.319838 1_556
Np0 O1 2.319838 1_656
Np0 Se1 3.035422 1_565
Np0 Se1 3.035422 1_555
Np0 Se1 3.035422 1_655
Np0 Se1 3.035422 1_665
Np0 Se0 3.155256 1_555
Np1 O1 2.320365 1_555
Np1 O1 2.320365 1_545
Np1 O0 2.320366 1_455
Np1 O0 2.320366 1_555
Np1 Se0 3.035416 1_445
Np1 Se0 3.035416 1_455
Np1 Se0 3.035416 1_545
Np1 Se0 3.035416 1_555
Np1 Se1 3.155242 1_555
