# generated using pymatgen
data_MnCd4S5
_symmetry_space_group_name_H-M   'P 1'
_cell_length_a   10.92715653
_cell_length_b   10.92715653
_cell_length_c   6.70728087
_cell_angle_alpha   89.99759813
_cell_angle_beta   89.99759813
_cell_angle_gamma   141.80337446
_symmetry_Int_Tables_number   1
_chemical_formula_structural   MnCd4S5
_chemical_formula_sum   'Mn2 Cd8 S10'
_cell_volume   495.22628660
_cell_formula_units_Z   2
loop_
 _symmetry_equiv_pos_site_id
 _symmetry_equiv_pos_as_xyz
  1  'x, y, z'
loop_
 _atom_site_type_symbol
 _atom_site_label
 _atom_site_symmetry_multiplicity
 _atom_site_fract_x
 _atom_site_fract_y
 _atom_site_fract_z
 _atom_site_occupancy
  Mn  Mn0  1  0.33427517  0.93195763  0.37696643  1
  Mn  Mn1  1  0.93195763  0.33427517  0.37696643  1
  Cd  Cd0  1  0.66575744  0.26261431  0.87372649  1
  Cd  Cd1  1  0.26261431  0.66575744  0.87372649  1
  Cd  Cd2  1  0.86711581  0.07039507  0.87446486  1
  Cd  Cd3  1  0.46739644  0.46739644  0.87598260  1
  Cd  Cd4  1  0.07039507  0.86711581  0.87446486  1
  Cd  Cd5  1  0.73646658  0.53016094  0.37736204  1
  Cd  Cd6  1  0.53016094  0.73646658  0.37736204  1
  Cd  Cd7  1  0.13243269  0.13243269  0.37761202  1
  S  S0  1  0.66205842  0.25274302  0.49272521  1
  S  S1  1  0.25274302  0.66205842  0.49272521  1
  S  S2  1  0.86977139  0.07875236  0.49393758  1
  S  S3  1  0.47149220  0.47149220  0.49610415  1
  S  S4  1  0.07875236  0.86977139  0.49393758  1
  S  S5  1  0.73423363  0.53200856  0.99669353  1
  S  S6  1  0.33464722  0.93375202  0.01573035  1
  S  S7  1  0.93375202  0.33464722  0.01573035  1
  S  S8  1  0.53200856  0.73423363  0.99669353  1
  S  S9  1  0.13142912  0.13142912  0.99710526  1
loop_
_geom_bond_atom_site_label_1
_geom_bond_atom_site_label_2
_geom_bond_distance
_geom_bond_site_symmetry_2
Mn0 S6 2.422968 1_555
Mn0 S4 2.427121 1_555
Mn0 S1 2.442210 1_555
Mn0 S0 2.446498 1_565
Mn1 S7 2.422968 1_555
Mn1 S2 2.427121 1_555
Mn1 S0 2.442210 1_555
Mn1 S1 2.446498 1_655
Cd0 S5 2.538457 1_555
Cd0 S6 2.544547 1_546
Cd0 S7 2.545524 1_556
Cd0 S0 2.556744 1_555
Cd1 S8 2.538457 1_555
Cd1 S7 2.544547 1_456
Cd1 S6 2.545524 1_556
Cd1 S1 2.556744 1_555
Cd2 S8 2.536044 1_545
Cd2 S9 2.536875 1_655
Cd2 S7 2.541912 1_556
Cd2 S2 2.553281 1_555
Cd3 S8 2.533824 1_555
Cd3 S5 2.533824 1_555
Cd3 S9 2.535889 1_555
Cd3 S3 2.548116 1_555
Cd4 S5 2.536044 1_455
Cd4 S9 2.536875 1_565
Cd4 S6 2.541912 1_556
Cd4 S4 2.553281 1_555
Cd5 S3 2.551656 1_555
Cd5 S5 2.553599 1_554
Cd5 S4 2.560517 1_655
Cd5 S0 2.564146 1_555
Cd6 S3 2.551656 1_555
Cd6 S8 2.553599 1_554
Cd6 S2 2.560517 1_565
Cd6 S1 2.564146 1_555
Cd7 S3 2.551489 1_555
Cd7 S9 2.552177 1_554
Cd7 S2 2.558150 1_455
Cd7 S4 2.558150 1_545
