# generated using pymatgen
data_Re2O7
_symmetry_space_group_name_H-M   'P 1'
_cell_length_a   5.55836400
_cell_length_b   12.74065800
_cell_length_c   15.56604400
_cell_angle_alpha   90.00000000
_cell_angle_beta   90.00000000
_cell_angle_gamma   90.00000000
_symmetry_Int_Tables_number   1
_chemical_formula_structural   Re2O7
_chemical_formula_sum   'Re16 O56'
_cell_volume   1102.34388097
_cell_formula_units_Z   8
loop_
 _symmetry_equiv_pos_site_id
 _symmetry_equiv_pos_as_xyz
  1  'x, y, z'
loop_
 _atom_site_type_symbol
 _atom_site_label
 _atom_site_symmetry_multiplicity
 _atom_site_fract_x
 _atom_site_fract_y
 _atom_site_fract_z
 _atom_site_occupancy
  Re  Re0  1  0.06669800  0.02382100  0.63036400  1
  Re  Re1  1  0.67242400  0.02554900  0.35646400  1
  Re  Re2  1  0.81408000  0.21999000  0.13665800  1
  Re  Re3  1  0.56251900  0.23208700  0.63646500  1
  Re  Re4  1  0.06251900  0.26791300  0.36353500  1
  Re  Re5  1  0.31408000  0.28001000  0.86334200  1
  Re  Re6  1  0.17242400  0.47445100  0.64353600  1
  Re  Re7  1  0.56669800  0.47617900  0.36963600  1
  Re  Re8  1  0.93330200  0.52382100  0.86963600  1
  Re  Re9  1  0.32757600  0.52554900  0.14353600  1
  Re  Re10  1  0.18592000  0.71999000  0.36334200  1
  Re  Re11  1  0.43748100  0.73208700  0.86353500  1
  Re  Re12  1  0.93748100  0.76791300  0.13646500  1
  Re  Re13  1  0.68592000  0.78001000  0.63665800  1
  Re  Re14  1  0.82757600  0.97445100  0.85646400  1
  Re  Re15  1  0.43330200  0.97617900  0.13036400  1
  O  O0  1  0.48341400  0.00318400  0.26453100  1
  O  O1  1  0.96593800  0.01330000  0.95042900  1
  O  O2  1  0.01236400  0.05396000  0.52423200  1
  O  O3  1  0.57296800  0.04888000  0.84355300  1
  O  O4  1  0.23588700  0.07997500  0.12182700  1
  O  O5  1  0.72295400  0.08416500  0.13026700  1
  O  O6  1  0.76185100  0.12638300  0.66085600  1
  O  O7  1  0.26379600  0.12836500  0.66089900  1
  O  O8  1  0.25533900  0.16189400  0.36259800  1
  O  O9  1  0.76752400  0.16035500  0.36085600  1
  O  O10  1  0.05417300  0.20873900  0.85064700  1
  O  O11  1  0.51550500  0.21348800  0.52822500  1
  O  O12  1  0.45416100  0.23797400  0.95586200  1
  O  O13  1  0.00216600  0.24436600  0.22793000  1
  O  O14  1  0.50216600  0.25563400  0.77207000  1
  O  O15  1  0.95416100  0.26202600  0.04413800  1
  O  O16  1  0.01550500  0.28651200  0.47177500  1
  O  O17  1  0.55417300  0.29126100  0.14935300  1
  O  O18  1  0.26752400  0.33964500  0.63914400  1
  O  O19  1  0.75533900  0.33810600  0.63740200  1
  O  O20  1  0.76379600  0.37163500  0.33910100  1
  O  O21  1  0.26185100  0.37361700  0.33914400  1
  O  O22  1  0.22295400  0.41583500  0.86973300  1
  O  O23  1  0.73588700  0.42002500  0.87817300  1
  O  O24  1  0.07296800  0.45112000  0.15644700  1
  O  O25  1  0.51236400  0.44604000  0.47576800  1
  O  O26  1  0.46593800  0.48670000  0.04957100  1
  O  O27  1  0.98341400  0.49681600  0.73546900  1
  O  O28  1  0.51658600  0.50318400  0.23546900  1
  O  O29  1  0.03406200  0.51330000  0.54957100  1
  O  O30  1  0.98763600  0.55396000  0.97576800  1
  O  O31  1  0.42703200  0.54888000  0.65644700  1
  O  O32  1  0.76411300  0.57997500  0.37817300  1
  O  O33  1  0.27704600  0.58416500  0.36973300  1
  O  O34  1  0.23814900  0.62638300  0.83914400  1
  O  O35  1  0.73620400  0.62836500  0.83910100  1
  O  O36  1  0.74466100  0.66189400  0.13740200  1
  O  O37  1  0.23247600  0.66035500  0.13914400  1
  O  O38  1  0.94582700  0.70873900  0.64935300  1
  O  O39  1  0.48449500  0.71348800  0.97177500  1
  O  O40  1  0.54583900  0.73797400  0.54413800  1
  O  O41  1  0.99783400  0.74436600  0.27207000  1
  O  O42  1  0.49783400  0.75563400  0.72793000  1
  O  O43  1  0.04583900  0.76202600  0.45586200  1
  O  O44  1  0.98449500  0.78651200  0.02822500  1
  O  O45  1  0.44582700  0.79126100  0.35064700  1
  O  O46  1  0.73247600  0.83964500  0.86085600  1
  O  O47  1  0.24466100  0.83810600  0.86259800  1
  O  O48  1  0.23620400  0.87163500  0.16089900  1
  O  O49  1  0.73814900  0.87361700  0.16085600  1
  O  O50  1  0.77704600  0.91583500  0.63026700  1
  O  O51  1  0.26411300  0.92002500  0.62182700  1
  O  O52  1  0.92703200  0.95112000  0.34355300  1
  O  O53  1  0.48763600  0.94604000  0.02423200  1
  O  O54  1  0.53406200  0.98670000  0.45042900  1
  O  O55  1  0.01658600  0.99681600  0.76453100  1
loop_
_geom_bond_atom_site_label_1
_geom_bond_atom_site_label_2
_geom_bond_distance
_geom_bond_site_symmetry_2
O0 Re1 1.797994 1_555
O0 Re15 2.134850 1_545
O1 Re14 1.725061 1_545
O2 Re0 1.722772 1_555
O3 Re14 1.715347 1_545
O4 Re15 1.723530 1_545
O5 Re2 1.805846 1_555
O5 Re15 2.117766 1_545
O6 Re3 1.784777 1_555
O6 Re0 2.191787 1_655
O7 Re0 1.788924 1_555
O7 Re3 2.155911 1_555
O8 Re4 1.724361 1_555
O9 Re1 1.798321 1_555
O9 Re4 2.137336 1_655
O10 Re5 1.717737 1_555
O11 Re3 1.721401 1_555
O12 Re5 1.722548 1_555
O13 Re2 1.791070 1_455
O13 Re4 2.158276 1_555
O14 Re5 1.791070 1_555
O14 Re3 2.158276 1_555
O15 Re2 1.722548 1_555
O16 Re4 1.721401 1_555
O17 Re2 1.717737 1_555
O18 Re6 1.798321 1_555
O18 Re3 2.137336 1_555
O19 Re3 1.724361 1_555
O20 Re7 1.788924 1_555
O20 Re4 2.155911 1_655
O21 Re4 1.784777 1_555
O21 Re7 2.191787 1_555
O22 Re5 1.805846 1_555
O22 Re8 2.117766 1_455
O23 Re8 1.723530 1_555
O24 Re9 1.715347 1_555
O25 Re7 1.722772 1_555
O26 Re9 1.725061 1_555
O27 Re6 1.797994 1_655
O27 Re8 2.134850 1_555
O28 Re9 1.797994 1_555
O28 Re7 2.134850 1_555
O29 Re6 1.725061 1_555
O30 Re8 1.722772 1_555
O31 Re6 1.715347 1_555
O32 Re7 1.723530 1_555
O33 Re10 1.805846 1_555
O33 Re7 2.117766 1_555
O34 Re11 1.784777 1_555
O34 Re8 2.191787 1_455
O35 Re8 1.788924 1_555
O35 Re11 2.155911 1_555
O36 Re12 1.724361 1_555
O37 Re9 1.798321 1_555
O37 Re12 2.137336 1_455
O38 Re13 1.717737 1_555
O39 Re11 1.721401 1_555
O40 Re13 1.722548 1_555
O41 Re10 1.791070 1_655
O41 Re12 2.158276 1_555
O42 Re13 1.791070 1_555
O42 Re11 2.158276 1_555
O43 Re10 1.722548 1_555
O44 Re12 1.721401 1_555
O45 Re10 1.717737 1_555
O46 Re14 1.798321 1_555
O46 Re11 2.137336 1_555
O47 Re11 1.724361 1_555
O48 Re15 1.788924 1_555
O48 Re12 2.155911 1_455
O49 Re12 1.784777 1_555
O49 Re15 2.191787 1_555
O50 Re13 1.805846 1_555
O50 Re0 2.117766 1_665
O51 Re0 1.723530 1_565
O52 Re1 1.715347 1_565
O53 Re15 1.722772 1_555
O54 Re1 1.725061 1_565
O55 Re14 1.797994 1_455
O55 Re0 2.134850 1_565
