# generated using pymatgen
data_HfMg6Mn
_symmetry_space_group_name_H-M   'P 1'
_cell_length_a   4.90821400
_cell_length_b   6.17113600
_cell_length_c   11.11869400
_cell_angle_alpha   90.00000000
_cell_angle_beta   90.00000000
_cell_angle_gamma   90.00000000
_symmetry_Int_Tables_number   1
_chemical_formula_structural   HfMg6Mn
_chemical_formula_sum   'Hf2 Mg12 Mn2'
_cell_volume   336.77697019
_cell_formula_units_Z   2
loop_
 _symmetry_equiv_pos_site_id
 _symmetry_equiv_pos_as_xyz
  1  'x, y, z'
loop_
 _atom_site_type_symbol
 _atom_site_label
 _atom_site_symmetry_multiplicity
 _atom_site_fract_x
 _atom_site_fract_y
 _atom_site_fract_z
 _atom_site_occupancy
  Hf  Hf0  1  0.50000000  0.50000000  0.18721600  1
  Hf  Hf1  1  0.50000000  0.00000000  0.68721600  1
  Mg  Mg0  1  0.00000000  0.74363600  0.08014000  1
  Mg  Mg1  1  0.00000000  0.25636400  0.08014000  1
  Mg  Mg2  1  0.00000000  0.00000000  0.32886100  1
  Mg  Mg3  1  0.50000000  0.25740300  0.42308000  1
  Mg  Mg4  1  0.50000000  0.74259700  0.42308000  1
  Mg  Mg5  1  0.50000000  0.00000000  0.16650200  1
  Mg  Mg6  1  0.00000000  0.24363600  0.58014000  1
  Mg  Mg7  1  0.00000000  0.75636400  0.58014000  1
  Mg  Mg8  1  0.00000000  0.50000000  0.82886100  1
  Mg  Mg9  1  0.50000000  0.75740300  0.92308000  1
  Mg  Mg10  1  0.50000000  0.24259700  0.92308000  1
  Mg  Mg11  1  0.50000000  0.50000000  0.66650200  1
  Mn  Mn0  1  0.00000000  0.50000000  0.31098200  1
  Mn  Mn1  1  0.00000000  0.00000000  0.81098200  1
loop_
_geom_bond_atom_site_label_1
_geom_bond_atom_site_label_2
_geom_bond_distance
_geom_bond_site_symmetry_2
Hf0 Mn0 2.813599 1_555
Hf0 Mn0 2.813599 1_655
Hf0 Mg4 3.019737 1_555
Hf0 Mg3 3.019737 1_555
Hf0 Mg5 3.094152 1_555
Hf0 Mg5 3.094152 1_565
Hf0 Mg0 3.114576 1_655
Hf0 Mg1 3.114576 1_555
Hf0 Mg1 3.114576 1_655
Hf0 Mg0 3.114576 1_555
Hf0 Mg10 3.338908 1_554
Hf0 Mg9 3.338908 1_554
Hf1 Mn1 2.813599 1_555
Hf1 Mn1 2.813599 1_655
Hf1 Mg9 3.019737 1_545
Hf1 Mg10 3.019737 1_555
Hf1 Mg11 3.094152 1_545
Hf1 Mg11 3.094152 1_555
Hf1 Mg7 3.114576 1_645
Hf1 Mg6 3.114576 1_655
Hf1 Mg7 3.114576 1_545
Hf1 Mg6 3.114576 1_555
Hf1 Mg3 3.338908 1_555
Hf1 Mg4 3.338908 1_545
Mg0 Mn0 2.974609 1_555
Mg0 Mg1 3.007022 1_555
Mg0 Mg9 3.013209 1_554
Mg0 Mg9 3.013209 1_454
Mg0 Mg5 3.073694 1_565
Mg0 Mg5 3.073694 1_465
Mg0 Mg1 3.164114 1_565
Mg0 Mg8 3.172758 1_554
Mg0 Mg2 3.186006 1_565
Mg0 Mn1 3.385125 1_564
Mg1 Mn0 2.974609 1_555
Mg1 Mg10 3.013209 1_554
Mg1 Mg10 3.013209 1_454
Mg1 Mg5 3.073694 1_455
Mg1 Mg5 3.073694 1_555
Mg1 Mg8 3.172758 1_554
Mg1 Mg2 3.186006 1_555
Mg1 Mn1 3.385125 1_554
Mg2 Mg5 3.046549 1_455
Mg2 Mg5 3.046549 1_555
Mg2 Mn0 3.091965 1_545
Mg2 Mn0 3.091965 1_555
Mg2 Mg3 3.105370 1_455
Mg2 Mg4 3.105370 1_445
Mg2 Mg3 3.105370 1_555
Mg2 Mg4 3.105370 1_545
Mg2 Mg6 3.172758 1_555
Mg2 Mg7 3.172758 1_545
Mg3 Mg4 2.994198 1_555
Mg3 Mg6 3.013209 1_655
Mg3 Mg6 3.013209 1_555
Mg3 Mn0 3.133276 1_555
Mg3 Mn0 3.133276 1_655
Mg3 Mg4 3.176938 1_545
Mg3 Mg5 3.265237 1_555
Mg4 Mg7 3.013209 1_555
Mg4 Mg7 3.013209 1_655
Mg4 Mn0 3.133276 1_555
Mg4 Mn0 3.133276 1_655
Mg4 Mg5 3.265237 1_565
Mg5 Mg9 3.092998 1_544
Mg6 Mn1 2.974609 1_555
Mg6 Mg7 3.007022 1_545
Mg6 Mg7 3.164114 1_555
Mg6 Mg8 3.186006 1_555
Mg6 Mn0 3.385125 1_555
Mg7 Mn1 2.974609 1_565
Mg7 Mg8 3.186006 1_555
Mg7 Mn0 3.385125 1_555
Mg8 Mn1 3.091965 1_555
Mg8 Mn1 3.091965 1_565
Mg8 Mg9 3.105370 1_455
Mg8 Mg9 3.105370 1_555
Mg9 Mn1 3.133276 1_665
Mg9 Mn1 3.133276 1_565
Mg10 Mg9 2.994198 1_545
Mg10 Mg5 3.092998 1_556
Mg10 Mg8 3.105370 1_655
Mg10 Mg8 3.105370 1_555
Mg10 Mn1 3.133276 1_555
Mg10 Mn1 3.133276 1_655
Mg10 Mg9 3.176938 1_555
Mg10 Mg11 3.265237 1_555
Mg11 Mg8 3.046549 1_555
Mg11 Mg8 3.046549 1_655
Mg11 Mg6 3.073694 1_655
Mg11 Mg7 3.073694 1_555
Mg11 Mg7 3.073694 1_655
Mg11 Mg6 3.073694 1_555
Mg11 Mg4 3.092998 1_555
Mg11 Mg3 3.092998 1_555
Mg11 Mg9 3.265237 1_555
