# generated using pymatgen
data_La5Al15Cu4Au
_symmetry_space_group_name_H-M   'P 1'
_cell_length_a   4.33094068
_cell_length_b   4.33094068
_cell_length_c   27.02900384
_cell_angle_alpha   85.40473536
_cell_angle_beta   85.40473536
_cell_angle_gamma   90.00000000
_symmetry_Int_Tables_number   1
_chemical_formula_structural   La5Al15Cu4Au
_chemical_formula_sum   'La5 Al15 Cu4 Au1'
_cell_volume   503.71962871
_cell_formula_units_Z   1
loop_
 _symmetry_equiv_pos_site_id
 _symmetry_equiv_pos_as_xyz
  1  'x, y, z'
loop_
 _atom_site_type_symbol
 _atom_site_label
 _atom_site_symmetry_multiplicity
 _atom_site_fract_x
 _atom_site_fract_y
 _atom_site_fract_z
 _atom_site_occupancy
  La  La0  1  0.00051609  0.00051609  0.99896782  1
  La  La1  1  0.40069746  0.40069746  0.19860507  1
  La  La2  1  0.80073988  0.80073988  0.39852024  1
  La  La3  1  0.20087551  0.20087551  0.59824897  1
  La  La4  1  0.60179779  0.60179779  0.79640442  1
  Al  Al0  1  0.45101715  0.95101715  0.09796570  1
  Al  Al1  1  0.85108822  0.35108822  0.29782355  1
  Al  Al2  1  0.25108219  0.75108219  0.49783561  1
  Al  Al3  1  0.65156154  0.15156154  0.69687692  1
  Al  Al4  1  0.04945216  0.54945216  0.90109567  1
  Al  Al5  1  0.95101715  0.45101715  0.09796570  1
  Al  Al6  1  0.35108822  0.85108822  0.29782355  1
  Al  Al7  1  0.75108219  0.25108219  0.49783561  1
  Al  Al8  1  0.15156154  0.65156154  0.69687692  1
  Al  Al9  1  0.54945216  0.04945216  0.90109567  1
  Al  Al10  1  0.91992615  0.91992615  0.16014769  1
  Al  Al11  1  0.31999715  0.31999715  0.36000571  1
  Al  Al12  1  0.72000380  0.72000380  0.55999240  1
  Al  Al13  1  0.12157743  0.12157743  0.75684514  1
  Al  Al14  1  0.51923242  0.51923242  0.96153515  1
  Cu  Cu0  1  0.47410151  0.47410151  0.05179698  1
  Cu  Cu1  1  0.87432671  0.87432671  0.25134659  1
  Cu  Cu2  1  0.27435023  0.27435023  0.45129954  1
  Cu  Cu3  1  0.67447636  0.67447636  0.65104729  1
  Au  Au0  1  0.07497896  0.07497896  0.85004207  1
loop_
_geom_bond_atom_site_label_1
_geom_bond_atom_site_label_2
_geom_bond_distance
_geom_bond_site_symmetry_2
Al0 Cu0 2.495298 1_555
Al0 Cu0 2.495298 1_565
Al0 Al10 2.734558 1_555
Al0 Al10 2.734558 1_455
Al0 La0 3.428896 1_564
Al0 La0 3.428896 1_664
Al0 La1 3.463187 1_565
Al0 La1 3.463187 1_555
Al1 Cu1 2.499421 1_545
Al1 Cu1 2.499421 1_555
Al1 Al11 2.734561 1_555
Al1 Al11 2.734561 1_655
Al1 La1 3.433491 1_555
Al1 La1 3.433491 1_655
Al1 La2 3.464388 1_545
Al1 La2 3.464388 1_555
Al2 Cu2 2.500214 1_555
Al2 Cu2 2.500214 1_565
Al2 La2 3.435511 1_455
Al2 La2 3.435511 1_555
Al2 La3 3.458452 1_565
Al2 La3 3.458452 1_555
Al3 Cu3 2.490786 1_545
Al3 Cu3 2.490786 1_555
Al3 La3 3.421199 1_655
Al3 La3 3.421199 1_555
Al3 La4 3.439935 1_545
Al3 La4 3.439935 1_555
Al4 Au0 2.563010 1_565
Al4 Au0 2.563010 1_555
Al4 La0 3.405510 1_555
Al4 La0 3.405510 1_565
Al4 La4 3.548757 1_455
Al4 La4 3.548757 1_555
Al5 Cu0 2.495298 1_555
Al5 Cu0 2.495298 1_655
Al5 La0 3.428896 1_654
Al5 La0 3.428896 1_664
Al5 La1 3.463187 1_655
Al5 La1 3.463187 1_555
Al6 Cu1 2.499421 1_455
Al6 Cu1 2.499421 1_555
Al6 La1 3.433491 1_555
Al6 La1 3.433491 1_565
Al6 La2 3.464388 1_455
Al6 La2 3.464388 1_555
Al7 Cu2 2.500214 1_555
Al7 Cu2 2.500214 1_655
Al7 La2 3.435511 1_545
Al7 La2 3.435511 1_555
Al7 La3 3.458452 1_555
Al7 La3 3.458452 1_655
Al8 Cu3 2.490786 1_455
Al8 Cu3 2.490786 1_555
Al8 La3 3.421199 1_565
Al8 La3 3.421199 1_555
Al8 La4 3.439935 1_455
Al8 La4 3.439935 1_555
Al9 Au0 2.563010 1_655
Al9 Au0 2.563010 1_555
Al9 La0 3.405510 1_555
Al9 La0 3.405510 1_655
Al9 La4 3.548757 1_545
Al9 La4 3.548757 1_555
Al10 Cu1 2.449142 1_555
Al10 Al5 2.734558 1_555
Al10 Al5 2.734558 1_565
Al10 La1 3.231894 1_665
Al10 La1 3.231894 1_655
Al10 La1 3.231894 1_565
Al10 La1 3.231894 1_555
Al11 Cu2 2.451692 1_555
Al11 Al6 2.734561 1_555
Al11 Al6 2.734561 1_545
Al11 La2 3.232385 1_555
Al11 La2 3.232385 1_455
Al11 La2 3.232385 1_545
Al11 La2 3.232385 1_445
Al12 Cu3 2.445275 1_555
Al12 Al7 2.734145 1_565
Al12 Al2 2.734145 1_655
Al12 Al7 2.734145 1_555
Al12 Al2 2.734145 1_555
Al12 La3 3.230175 1_665
Al12 La3 3.230175 1_565
Al12 La3 3.230175 1_655
Al12 La3 3.230175 1_555
Al13 Au0 2.502799 1_555
Al13 La4 3.241472 1_455
Al13 La4 3.241472 1_545
Al13 La4 3.241472 1_555
Al13 La4 3.241472 1_445
Al14 Cu0 2.423977 1_556
Al14 La0 3.223206 1_555
Al14 La0 3.223206 1_655
Al14 La0 3.223206 1_565
Al14 La0 3.223206 1_665
Cu0 La0 3.375100 1_564
Cu0 La0 3.375100 1_654
Cu0 La0 3.375100 1_664
Cu0 La0 3.375100 1_554
Cu1 La1 3.374112 1_665
Cu1 La1 3.374112 1_655
Cu1 La1 3.374112 1_565
Cu1 La1 3.374112 1_555
Cu2 La2 3.374538 1_555
Cu2 La2 3.374538 1_545
Cu2 La2 3.374538 1_445
Cu2 La2 3.374538 1_455
Cu3 La3 3.374752 1_665
Cu3 La3 3.374752 1_655
Cu3 La3 3.374752 1_565
Cu3 La3 3.374752 1_555
Au0 La4 3.384284 1_445
Au0 La4 3.384284 1_455
Au0 La4 3.384284 1_545
Au0 La4 3.384284 1_555
