# generated using pymatgen
data_Sr5Mn5O13
_symmetry_space_group_name_H-M   'P 1'
_cell_length_a   7.76679000
_cell_length_b   9.57573763
_cell_length_c   8.73836218
_cell_angle_alpha   89.88492927
_cell_angle_beta   89.99945188
_cell_angle_gamma   66.07509485
_symmetry_Int_Tables_number   1
_chemical_formula_structural   Sr5Mn5O13
_chemical_formula_sum   'Sr10 Mn10 O26'
_cell_volume   594.05402350
_cell_formula_units_Z   2
loop_
 _symmetry_equiv_pos_site_id
 _symmetry_equiv_pos_as_xyz
  1  'x, y, z'
loop_
 _atom_site_type_symbol
 _atom_site_label
 _atom_site_symmetry_multiplicity
 _atom_site_fract_x
 _atom_site_fract_y
 _atom_site_fract_z
 _atom_site_occupancy
  Sr  Sr0  1  0.99887800  0.50120800  0.49946500  1
  Sr  Sr1  1  0.49991800  0.50119000  0.49946400  1
  Sr  Sr2  1  0.19199400  0.11571900  0.28219300  1
  Sr  Sr3  1  0.69228200  0.11572200  0.28218800  1
  Sr  Sr4  1  0.10841300  0.28243700  0.88573500  1
  Sr  Sr5  1  0.60912600  0.28244200  0.88574400  1
  Sr  Sr6  1  0.89067400  0.71750500  0.11422600  1
  Sr  Sr7  1  0.39184400  0.71748900  0.11422300  1
  Sr  Sr8  1  0.80783200  0.88473000  0.71797700  1
  Sr  Sr9  1  0.30744800  0.88472300  0.71796900  1
  Mn  Mn0  1  0.49978400  0.00035600  0.99987500  1
  Mn  Mn1  1  0.00013900  0.99977900  0.00000900  1
  Mn  Mn2  1  0.29969400  0.40062500  0.19557800  1
  Mn  Mn3  1  0.70024700  0.59950500  0.80478500  1
  Mn  Mn4  1  0.09793200  0.80417800  0.39908800  1
  Mn  Mn5  1  0.79970800  0.40060400  0.19443800  1
  Mn  Mn6  1  0.20017400  0.59961000  0.80559000  1
  Mn  Mn7  1  0.40238000  0.19521000  0.60030300  1
  Mn  Mn8  1  0.90237800  0.19521600  0.60013500  1
  Mn  Mn9  1  0.59753400  0.80496900  0.39903700  1
  O  O0  1  0.25026800  0.99954600  0.00044100  1
  O  O1  1  0.75018500  0.99956200  0.00044700  1
  O  O2  1  0.29885300  0.40230500  0.71389600  1
  O  O3  1  0.79870400  0.40262100  0.71698800  1
  O  O4  1  0.14036400  0.71924900  0.59704300  1
  O  O5  1  0.64065400  0.71867400  0.59682500  1
  O  O6  1  0.20042900  0.59910100  0.28513200  1
  O  O7  1  0.70121500  0.59754800  0.28557000  1
  O  O8  1  0.35815200  0.28370900  0.40368700  1
  O  O9  1  0.85641500  0.28713700  0.40326600  1
  O  O10  1  0.46401300  0.07199500  0.78863700  1
  O  O11  1  0.96420100  0.07163400  0.78980900  1
  O  O12  1  0.39373800  0.21251700  0.07002700  1
  O  O13  1  0.89444300  0.21112400  0.07198800  1
  O  O14  1  0.03431400  0.93135100  0.21451600  1
  O  O15  1  0.53558100  0.92884500  0.21243500  1
  O  O16  1  0.10541900  0.78914300  0.93009200  1
  O  O17  1  0.60704000  0.78595800  0.93009500  1
  O  O18  1  0.95541400  0.58848300  0.83380100  1
  O  O19  1  0.45609900  0.58849600  0.83378900  1
  O  O20  1  0.04335600  0.41248000  0.16629100  1
  O  O21  1  0.54416500  0.41248200  0.16629000  1
  O  O22  1  0.83430700  0.83147400  0.40885400  1
  O  O23  1  0.33423100  0.83147000  0.40884800  1
  O  O24  1  0.17116900  0.15993800  0.58659500  1
  O  O25  1  0.66889100  0.15994300  0.58661700  1
loop_
_geom_bond_atom_site_label_1
_geom_bond_atom_site_label_2
_geom_bond_distance
_geom_bond_site_symmetry_2
Mn0 O0 1.941103 1_546
Mn0 O1 1.941747 1_546
Mn0 O10 1.948171 1_555
Mn0 O12 1.956878 1_556
Mn0 O15 1.958756 1_546
Mn0 O17 1.974469 1_545
Mn1 O11 1.940194 1_464
Mn1 O0 1.941799 1_555
Mn1 O1 1.942188 1_455
Mn1 O16 1.943555 1_554
Mn1 O13 1.955207 1_465
Mn1 O14 1.966555 1_555
Mn2 O6 1.906937 1_555
Mn2 O21 1.964279 1_555
Mn2 O20 1.964367 1_555
Mn2 O12 1.980542 1_555
Mn2 O8 2.084746 1_555
Mn3 O3 1.887916 1_555
Mn3 O19 1.957835 1_555
Mn3 O18 1.957887 1_555
Mn3 O17 1.967321 1_555
Mn3 O5 2.093330 1_555
Mn4 O4 1.881274 1_555
Mn4 O14 1.957682 1_555
Mn4 O23 1.957794 1_555
Mn4 O22 1.958049 1_455
Mn4 O6 2.054648 1_555
Mn5 O7 1.900480 1_555
Mn5 O20 1.956755 1_655
Mn5 O21 1.956902 1_555
Mn5 O13 1.975696 1_555
Mn5 O9 2.075667 1_555
Mn6 O2 1.905420 1_555
Mn6 O18 1.962165 1_455
Mn6 O19 1.962495 1_555
Mn6 O16 1.985885 1_555
Mn6 O4 2.099820 1_555
Mn7 O8 1.883106 1_555
Mn7 O24 1.960948 1_555
Mn7 O25 1.961165 1_555
Mn7 O10 1.965655 1_555
Mn7 O2 2.068586 1_555
Mn8 O9 1.897566 1_555
Mn8 O11 1.977205 1_555
Mn8 O25 1.978278 1_555
Mn8 O24 1.978517 1_655
Mn8 O3 2.084825 1_555
Mn9 O5 1.884670 1_555
Mn9 O15 1.956210 1_555
Mn9 O22 1.957607 1_555
Mn9 O23 1.957810 1_555
Mn9 O7 2.070560 1_555
O0 Sr7 2.659506 1_555
O0 Sr2 2.665836 1_565
O0 Sr9 2.667154 1_554
O0 Sr4 2.669282 1_564
O1 Sr6 2.659496 1_555
O1 Sr3 2.665703 1_565
O1 Sr8 2.667167 1_554
O1 Sr5 2.669183 1_564
O2 Sr5 2.670096 1_555
O2 Sr4 2.670222 1_555
O2 Sr1 2.835230 1_555
O2 Sr0 2.835390 1_455
O3 Sr4 2.651966 1_655
O3 Sr5 2.652248 1_555
O3 Sr0 2.846845 1_555
O3 Sr1 2.847016 1_555
O4 Sr8 2.642986 1_455
O4 Sr9 2.643093 1_555
O4 Sr0 2.856929 1_455
O4 Sr1 2.857139 1_555
O5 Sr9 2.648676 1_555
O5 Sr8 2.648877 1_555
O5 Sr0 2.847629 1_555
O5 Sr1 2.847661 1_555
O6 Sr6 2.661698 1_455
O6 Sr7 2.661945 1_555
O6 Sr0 2.831979 1_455
O6 Sr1 2.832245 1_555
O7 Sr7 2.662586 1_555
O7 Sr6 2.662804 1_555
O7 Sr1 2.819969 1_555
O7 Sr0 2.820051 1_555
O8 Sr3 2.659022 1_555
O8 Sr2 2.659113 1_555
O8 Sr1 2.848968 1_555
O8 Sr0 2.849178 1_455
O9 Sr3 2.672625 1_555
O9 Sr2 2.672789 1_655
O9 Sr1 2.824565 1_555
O9 Sr0 2.824814 1_555
O10 Sr8 2.616917 1_545
O10 Sr9 2.617047 1_545
O10 Sr5 2.810752 1_555
O10 Sr4 2.810934 1_555
O11 Sr9 2.615167 1_645
O11 Sr8 2.615274 1_545
O11 Sr4 2.805803 1_655
O11 Sr5 2.806171 1_555
O12 Sr5 2.596949 1_554
O12 Sr4 2.597101 1_554
O12 Sr2 2.814719 1_555
O12 Sr3 2.814734 1_555
O13 Sr4 2.606325 1_654
O13 Sr5 2.606498 1_554
O13 Sr2 2.798276 1_655
O13 Sr3 2.798279 1_555
O14 Sr3 2.593026 1_465
O14 Sr2 2.593113 1_565
O14 Sr6 2.840067 1_455
O14 Sr7 2.840365 1_555
O15 Sr3 2.612639 1_565
O15 Sr2 2.612701 1_565
O15 Sr6 2.813934 1_555
O15 Sr7 2.813985 1_555
O16 Sr6 2.600938 1_456
O16 Sr7 2.601183 1_556
O16 Sr8 2.809426 1_455
O16 Sr9 2.809558 1_555
O17 Sr6 2.587679 1_556
O17 Sr7 2.587799 1_556
O17 Sr8 2.819855 1_555
O17 Sr9 2.820083 1_555
O18 Sr6 2.700416 1_556
O18 Sr4 2.715999 1_655
O18 Sr8 2.781499 1_555
O18 Sr0 3.021391 1_555
O19 Sr7 2.700381 1_556
O19 Sr5 2.716098 1_555
O19 Sr9 2.781324 1_555
O19 Sr1 3.021368 1_555
O20 Sr4 2.705221 1_554
O20 Sr6 2.707378 1_455
O20 Sr2 2.785934 1_555
O20 Sr0 3.014846 1_455
O21 Sr5 2.705131 1_554
O21 Sr7 2.707225 1_555
O21 Sr3 2.785914 1_555
O21 Sr1 3.014801 1_555
O22 Sr3 2.720893 1_565
O22 Sr8 2.742162 1_555
O22 Sr6 2.763118 1_555
O22 Sr0 2.995611 1_555
O23 Sr2 2.720862 1_565
O23 Sr9 2.742141 1_555
O23 Sr7 2.763131 1_555
O23 Sr1 2.995741 1_555
O24 Sr9 2.666252 1_545
O24 Sr2 2.688845 1_555
O24 Sr4 2.827555 1_555
O24 Sr0 3.081039 1_455
O25 Sr8 2.666184 1_545
O25 Sr3 2.689081 1_555
O25 Sr5 2.827450 1_555
O25 Sr1 3.080893 1_555
