# generated using pymatgen
data_Li9Mn2Co5O16
_symmetry_space_group_name_H-M   'P 1'
_cell_length_a   3.02523300
_cell_length_b   9.91016951
_cell_length_c   10.21325548
_cell_angle_alpha   73.44969125
_cell_angle_beta   82.54637535
_cell_angle_gamma   87.11476521
_symmetry_Int_Tables_number   1
_chemical_formula_structural   Li9Mn2Co5O16
_chemical_formula_sum   'Li9 Mn2 Co5 O16'
_cell_volume   291.00441594
_cell_formula_units_Z   1
loop_
 _symmetry_equiv_pos_site_id
 _symmetry_equiv_pos_as_xyz
  1  'x, y, z'
loop_
 _atom_site_type_symbol
 _atom_site_label
 _atom_site_symmetry_multiplicity
 _atom_site_fract_x
 _atom_site_fract_y
 _atom_site_fract_z
 _atom_site_occupancy
  Li  Li0  1  0.94036800  0.68461400  0.12263300  1
  Li  Li1  1  0.44083900  0.18940900  0.12599000  1
  Li  Li2  1  0.30758900  0.56246900  0.37762000  1
  Li  Li3  1  0.81017300  0.06295100  0.37626500  1
  Li  Li4  1  0.68525300  0.44286800  0.62633600  1
  Li  Li5  1  0.18343900  0.93645400  0.62335600  1
  Li  Li6  1  0.06743700  0.31431400  0.87590700  1
  Li  Li7  1  0.56487900  0.80563800  0.87266500  1
  Li  Li8  1  0.12455300  0.62383400  0.75092700  1
  Mn  Mn0  1  0.00411800  0.00051900  0.99692300  1
  Mn  Mn1  1  0.36984500  0.87378100  0.25356500  1
  Co  Co0  1  0.50522600  0.50622700  0.99069700  1
  Co  Co1  1  0.87447500  0.37558600  0.24826700  1
  Co  Co2  1  0.73539800  0.74251400  0.51250700  1
  Co  Co3  1  0.24584300  0.25089200  0.50039900  1
  Co  Co4  1  0.63420900  0.12568400  0.74709800  1
  O  O0  1  0.43301100  0.84876400  0.06867400  1
  O  O1  1  0.93497900  0.35271200  0.06795300  1
  O  O2  1  0.80838100  0.72533900  0.32626800  1
  O  O3  1  0.34831200  0.22542000  0.31844000  1
  O  O4  1  0.19048500  0.60538300  0.55943600  1
  O  O5  1  0.73460800  0.10496900  0.56775600  1
  O  O6  1  0.58220500  0.46838400  0.83299800  1
  O  O7  1  0.05573800  0.97689700  0.81296500  1
  O  O8  1  0.40108900  0.52267500  0.17553400  1
  O  O9  1  0.94071800  0.02620800  0.18213800  1
  O  O10  1  0.77691000  0.40128600  0.42905600  1
  O  O11  1  0.30763300  0.89632100  0.43609000  1
  O  O12  1  0.20802000  0.27505400  0.68191400  1
  O  O13  1  0.66810300  0.78041100  0.66965200  1
  O  O14  1  0.56525700  0.14916100  0.92799100  1
  O  O15  1  0.05090600  0.64326400  0.94197800  1
loop_
_geom_bond_atom_site_label_1
_geom_bond_atom_site_label_2
_geom_bond_distance
_geom_bond_site_symmetry_2
Li0 O15 1.985178 1_654
Li0 O8 2.070335 1_655
Li0 O0 2.165973 1_655
Li0 O0 2.182480 1_555
Li0 O2 2.212311 1_555
Li0 O8 2.251654 1_555
Li1 O3 2.077472 1_555
Li1 O14 2.153381 1_554
Li1 O1 2.161544 1_555
Li1 O9 2.163780 1_555
Li1 O9 2.174082 1_455
Li1 O1 2.179885 1_455
Li2 O4 2.004656 1_555
Li2 O10 2.080980 1_555
Li2 O2 2.153805 1_455
Li2 O2 2.175613 1_555
Li2 O8 2.190085 1_555
Li2 O10 2.228493 1_455
Li3 O3 2.083109 1_555
Li3 O5 2.094990 1_555
Li3 O9 2.100764 1_555
Li3 O11 2.186002 1_645
Li3 O11 2.201918 1_545
Li3 O3 2.250391 1_655
Li4 O10 2.150112 1_555
Li4 O12 2.159551 1_555
Li4 O4 2.167216 1_555
Li4 O6 2.177514 1_555
Li4 O4 2.178716 1_655
Li4 O12 2.240407 1_655
Li5 O11 2.046769 1_555
Li5 O7 2.071838 1_555
Li5 O13 2.073597 1_555
Li5 O5 2.094413 1_465
Li5 O13 2.163414 1_455
Li5 O5 2.320790 1_565
Li6 O6 2.058703 1_455
Li6 O1 2.087697 1_456
Li6 O12 2.112274 1_555
Li6 O6 2.151653 1_555
Li6 O14 2.166455 1_555
Li6 O14 2.194168 1_455
Li7 O13 2.139761 1_555
Li7 O0 2.147660 1_556
Li7 O15 2.152977 1_655
Li7 O15 2.196705 1_555
Li7 O7 2.210575 1_655
Li7 O7 2.239562 1_555
Li8 O15 1.997761 1_555
Li8 O4 1.999255 1_555
Li8 O6 2.084083 1_555
Li8 O13 2.086021 1_455
Li8 O6 2.220319 1_455
Li8 O13 2.229278 1_555
Mn0 O7 1.944194 1_545
Mn0 O9 1.963478 1_456
Mn0 O14 1.970541 1_455
Mn0 O0 1.976021 1_546
Mn0 O14 2.213182 1_555
Mn0 O0 2.255894 1_446
Mn1 O11 1.924173 1_555
Mn1 O0 1.957584 1_555
Mn1 O2 1.977954 1_555
Mn1 O9 1.979860 1_465
Mn1 O2 2.214173 1_455
Mn1 O9 2.259332 1_565
Co0 O6 1.739827 1_555
Co0 O15 1.893541 1_555
Co0 O8 1.924942 1_556
Co0 O1 2.002628 1_556
Co0 O15 2.108242 1_655
Co0 O1 2.267235 1_456
Co1 O1 1.903301 1_555
Co1 O10 1.918410 1_555
Co1 O8 2.043650 1_555
Co1 O3 2.056036 1_655
Co1 O8 2.127097 1_655
Co1 O3 2.144033 1_555
Co2 O13 1.734743 1_555
Co2 O4 1.893084 1_655
Co2 O2 1.940987 1_555
Co2 O11 1.998214 1_555
Co2 O4 2.107972 1_555
Co2 O11 2.273035 1_655
Co3 O12 1.924143 1_555
Co3 O3 1.929602 1_555
Co3 O10 2.049742 1_455
Co3 O5 2.057362 1_555
Co3 O5 2.082991 1_455
Co3 O10 2.156874 1_555
Co4 O5 1.884941 1_555
Co4 O14 1.910743 1_555
Co4 O7 1.929007 1_645
Co4 O12 1.940595 1_555
Co4 O12 2.246162 1_655
Co4 O7 2.253545 1_545
