# generated using pymatgen
data_FeRe2(H2O3)4
_symmetry_space_group_name_H-M   'P 1'
_cell_length_a   7.03268956
_cell_length_b   7.17982176
_cell_length_c   7.57087520
_cell_angle_alpha   61.28661045
_cell_angle_beta   66.83641121
_cell_angle_gamma   69.25236356
_symmetry_Int_Tables_number   1
_chemical_formula_structural   FeRe2(H2O3)4
_chemical_formula_sum   'Fe1 Re2 H8 O12'
_cell_volume   301.69999949
_cell_formula_units_Z   1
loop_
 _symmetry_equiv_pos_site_id
 _symmetry_equiv_pos_as_xyz
  1  'x, y, z'
loop_
 _atom_site_type_symbol
 _atom_site_label
 _atom_site_symmetry_multiplicity
 _atom_site_fract_x
 _atom_site_fract_y
 _atom_site_fract_z
 _atom_site_occupancy
  Fe  Fe0  1  0.50000000  0.00000000  0.00000000  1
  Re  Re0  1  0.92441100  0.66437000  0.70187200  1
  Re  Re1  1  0.07558900  0.33563000  0.29812800  1
  H  H0  1  0.75434600  0.18667600  0.03915100  1
  H  H1  1  0.24565400  0.81332400  0.96084900  1
  H  H2  1  0.76282600  0.94689400  0.22145100  1
  H  H3  1  0.23717400  0.05310600  0.77854900  1
  H  H4  1  0.60594600  0.57237000  0.27451400  1
  H  H5  1  0.39405400  0.42763000  0.72548600  1
  H  H6  1  0.37765200  0.68357700  0.37716500  1
  H  H7  1  0.62234800  0.31642300  0.62283400  1
  O  O0  1  0.19997700  0.64700900  0.62553500  1
  O  O1  1  0.80002300  0.35299100  0.37446500  1
  O  O2  1  0.84363700  0.73010000  0.48447100  1
  O  O3  1  0.15636300  0.26990000  0.51552900  1
  O  O4  1  0.86430400  0.41694100  0.89885500  1
  O  O5  1  0.13569600  0.58305900  0.10114500  1
  O  O6  1  0.79434700  0.86920700  0.79902700  1
  O  O7  1  0.20565300  0.13079300  0.20097300  1
  O  O8  1  0.68776500  0.05867400  0.11776100  1
  O  O9  1  0.31223500  0.94132600  0.88223900  1
  O  O10  1  0.48382600  0.69195800  0.24235500  1
  O  O11  1  0.51617400  0.30804200  0.75764500  1
loop_
_geom_bond_atom_site_label_1
_geom_bond_atom_site_label_2
_geom_bond_distance
_geom_bond_site_symmetry_2
Fe0 O11 2.094262 1_554
Fe0 O10 2.094262 1_545
Fe0 O8 2.096960 1_555
Fe0 O9 2.096960 1_544
Fe0 O7 2.236020 1_555
Fe0 O6 2.236020 1_544
H0 O8 0.989028 1_555
H1 O9 0.989028 1_555
H2 O8 0.979545 1_565
H3 O9 0.979545 1_545
H4 O10 0.987561 1_555
H5 O11 0.987561 1_555
H6 O10 0.987989 1_555
H7 O11 0.987994 1_555
O0 Re0 1.766976 1_455
O1 Re1 1.766976 1_655
O2 Re0 1.747489 1_555
O3 Re1 1.747489 1_555
O4 Re0 1.746184 1_555
O5 Re1 1.746184 1_555
O6 Re0 1.760014 1_555
O7 Re1 1.760014 1_555
