# generated using pymatgen
data_Ba6MgSc2C2(O3F7)2
_symmetry_space_group_name_H-M   'P 1'
_cell_length_a   6.38778558
_cell_length_b   9.11859636
_cell_length_c   9.11859691
_cell_angle_alpha   96.04581234
_cell_angle_beta   92.46422102
_cell_angle_gamma   87.53577916
_symmetry_Int_Tables_number   1
_chemical_formula_structural   Ba6MgSc2C2(O3F7)2
_chemical_formula_sum   'Ba6 Mg1 Sc2 C2 O6 F14'
_cell_volume   527.29844573
_cell_formula_units_Z   1
loop_
 _symmetry_equiv_pos_site_id
 _symmetry_equiv_pos_as_xyz
  1  'x, y, z'
loop_
 _atom_site_type_symbol
 _atom_site_label
 _atom_site_symmetry_multiplicity
 _atom_site_fract_x
 _atom_site_fract_y
 _atom_site_fract_z
 _atom_site_occupancy
  Ba  Ba0  1  0.27515317  0.87312387  0.61997158  1
  Ba  Ba1  1  0.78188736  0.61017848  0.84450277  1
  Ba  Ba2  1  0.27515317  0.38002842  0.12687613  1
  Ba  Ba3  1  0.79388990  0.10666186  0.89333814  1
  Ba  Ba4  1  0.32327119  0.93152675  0.06847325  1
  Ba  Ba5  1  0.78188736  0.15549723  0.38982152  1
  Mg  Mg0  1  0.95829200  0.75078463  0.24921537  1
  Sc  Sc0  1  0.26846030  0.28596465  0.71403535  1
  Sc  Sc1  1  0.51294223  0.68607024  0.31392976  1
  C  C0  1  0.23298582  0.48108701  0.51891299  1
  C  C1  1  0.68612694  0.50864958  0.49135042  1
  O  O0  1  0.23094296  0.57684132  0.42315868  1
  O  O1  1  0.64265763  0.64880209  0.53526021  1
  O  O2  1  0.23562538  0.52141977  0.66071544  1
  O  O3  1  0.23562538  0.33928456  0.47858023  1
  O  O4  1  0.76776138  0.42083648  0.57916352  1
  O  O5  1  0.64265763  0.46473979  0.35119791  1
  F  F0  1  0.55686220  0.16354289  0.13830502  1
  F  F1  1  0.28636577  0.12651193  0.87348807  1
  F  F2  1  0.81882224  0.88546692  0.11453308  1
  F  F3  1  0.55686220  0.86169498  0.83645711  1
  F  F4  1  0.50313979  0.13631636  0.63111953  1
  F  F5  1  0.49453357  0.63890384  0.09112525  1
  F  F6  1  0.03843566  0.36008098  0.86428088  1
  F  F7  1  0.50313979  0.36888047  0.86368364  1
  F  F8  1  0.03843566  0.13571912  0.63991902  1
  F  F9  1  0.98654919  0.90466821  0.41503782  1
  F  F10  1  0.04001718  0.85096966  0.83951802  1
  F  F11  1  0.04001718  0.16048198  0.14903034  1
  F  F12  1  0.98654919  0.58496218  0.09533179  1
  F  F13  1  0.49453357  0.90887475  0.36109616  1
loop_
_geom_bond_atom_site_label_1
_geom_bond_atom_site_label_2
_geom_bond_distance
_geom_bond_site_symmetry_2
Ba0 F10 2.583503 1_555
Ba0 F9 2.597082 1_455
Ba0 F3 2.620619 1_555
Ba0 F8 2.770148 1_565
Ba0 F4 2.850859 1_565
Ba0 F13 2.851010 1_555
Ba0 F1 3.092349 1_565
Ba0 O0 3.098437 1_555
Ba0 O1 3.114782 1_555
Ba0 O2 3.288712 1_555
Ba1 F12 2.611729 1_556
Ba1 F3 2.659787 1_555
Ba1 F6 2.767456 1_655
Ba1 F10 2.807250 1_655
Ba1 O4 2.820960 1_555
Ba1 F7 2.913265 1_555
Ba1 F5 2.946988 1_556
Ba1 O1 2.972075 1_555
Ba2 F11 2.583503 1_555
Ba2 F12 2.597082 1_455
Ba2 F0 2.620619 1_555
Ba2 F6 2.770148 1_554
Ba2 F7 2.850859 1_554
Ba2 F5 2.851010 1_555
Ba2 F1 3.092349 1_554
Ba2 O0 3.098437 1_555
Ba2 O5 3.114783 1_555
Ba2 O3 3.288712 1_555
Ba3 F3 2.744152 1_545
Ba3 F0 2.744152 1_556
Ba3 F10 2.767478 1_645
Ba3 F11 2.767478 1_656
Ba3 F6 2.885355 1_655
Ba3 F8 2.885355 1_655
Ba3 F7 2.991794 1_555
Ba3 F4 2.991794 1_555
Ba3 F2 2.993920 1_546
Ba3 F1 3.172791 1_655
Ba3 F1 3.237558 1_555
Ba4 F1 2.640436 1_564
Ba4 F0 2.648381 1_565
Ba4 F3 2.648381 1_554
Ba4 F11 2.763785 1_565
Ba4 F10 2.763785 1_554
Ba4 F5 2.864438 1_555
Ba4 F13 2.864438 1_555
Ba5 F9 2.611729 1_545
Ba5 F0 2.659787 1_555
Ba5 F8 2.767456 1_655
Ba5 F11 2.807250 1_655
Ba5 O4 2.820959 1_555
Ba5 F4 2.913265 1_555
Ba5 F13 2.946987 1_545
Ba5 O5 2.972075 1_555
C0 O0 1.297524 1_555
C0 O3 1.306132 1_555
C0 O2 1.306132 1_555
C1 O4 1.271817 1_555
C1 O1 1.319827 1_555
C1 O5 1.319827 1_555
O0 Sc1 2.397184 1_555
O1 Sc1 2.202666 1_555
O2 Sc0 2.249996 1_555
O3 Sc0 2.249996 1_555
O5 Sc1 2.202666 1_555
F1 Sc0 2.158228 1_555
F2 Mg0 1.984886 1_555
F4 Sc0 2.094090 1_555
F5 Sc1 2.031307 1_555
F6 Sc0 2.094132 1_555
F7 Sc0 2.094090 1_555
F8 Sc0 2.094132 1_555
F9 Mg0 1.959408 1_555
F12 Mg0 1.959408 1_555
F13 Sc1 2.031307 1_555
