# generated using pymatgen
data_NdV2IO9
_symmetry_space_group_name_H-M   'P 1'
_cell_length_a   7.10460300
_cell_length_b   7.31132300
_cell_length_c   14.69715300
_cell_angle_alpha   90.00000000
_cell_angle_beta   90.00000000
_cell_angle_gamma   90.00000000
_symmetry_Int_Tables_number   1
_chemical_formula_structural   NdV2IO9
_chemical_formula_sum   'Nd4 V8 I4 O36'
_cell_volume   763.42961090
_cell_formula_units_Z   4
loop_
 _symmetry_equiv_pos_site_id
 _symmetry_equiv_pos_as_xyz
  1  'x, y, z'
loop_
 _atom_site_type_symbol
 _atom_site_label
 _atom_site_symmetry_multiplicity
 _atom_site_fract_x
 _atom_site_fract_y
 _atom_site_fract_z
 _atom_site_occupancy
  Nd  Nd0  1  0.85099900  0.25000000  0.95164400  1
  Nd  Nd1  1  0.14900100  0.75000000  0.04835600  1
  Nd  Nd2  1  0.85099900  0.75000000  0.54835600  1
  Nd  Nd3  1  0.14900100  0.25000000  0.45164400  1
  V  V0  1  0.46260500  0.00000000  0.25000000  1
  V  V1  1  0.53739500  0.50000000  0.75000000  1
  V  V2  1  0.53739500  0.00000000  0.75000000  1
  V  V3  1  0.46260500  0.50000000  0.25000000  1
  V  V4  1  0.81800100  0.25000000  0.22845000  1
  V  V5  1  0.18199900  0.75000000  0.77155000  1
  V  V6  1  0.81800100  0.75000000  0.27155000  1
  V  V7  1  0.18199900  0.25000000  0.72845000  1
  I  I0  1  0.29832800  0.25000000  0.05540200  1
  I  I1  1  0.70167200  0.75000000  0.94459800  1
  I  I2  1  0.29832800  0.75000000  0.44459800  1
  I  I3  1  0.70167200  0.25000000  0.55540200  1
  O  O0  1  0.17314200  0.07005800  0.99046900  1
  O  O1  1  0.82685800  0.57005800  0.00953100  1
  O  O2  1  0.17314200  0.92994200  0.50953100  1
  O  O3  1  0.82685800  0.42994200  0.49046900  1
  O  O4  1  0.82685800  0.92994200  0.00953100  1
  O  O5  1  0.17314200  0.42994200  0.99046900  1
  O  O6  1  0.82685800  0.07005800  0.49046900  1
  O  O7  1  0.17314200  0.57005800  0.50953100  1
  O  O8  1  0.52620900  0.25000000  0.00012100  1
  O  O9  1  0.47379100  0.75000000  0.99987900  1
  O  O10  1  0.52620900  0.75000000  0.49987900  1
  O  O11  1  0.47379100  0.25000000  0.50012100  1
  O  O12  1  0.32812700  0.95433300  0.15766800  1
  O  O13  1  0.67187300  0.45433300  0.84233200  1
  O  O14  1  0.32812700  0.04566700  0.34233200  1
  O  O15  1  0.67187300  0.54566700  0.65766800  1
  O  O16  1  0.67187300  0.04566700  0.84233200  1
  O  O17  1  0.32812700  0.54566700  0.15766800  1
  O  O18  1  0.67187300  0.95433300  0.65766800  1
  O  O19  1  0.32812700  0.45433300  0.34233200  1
  O  O20  1  0.52969800  0.75000000  0.28017000  1
  O  O21  1  0.47030200  0.25000000  0.71983000  1
  O  O22  1  0.52969800  0.25000000  0.21983000  1
  O  O23  1  0.47030200  0.75000000  0.78017000  1
  O  O24  1  0.73809200  0.00000000  0.25000000  1
  O  O25  1  0.26190800  0.50000000  0.75000000  1
  O  O26  1  0.26190800  0.00000000  0.75000000  1
  O  O27  1  0.73809200  0.50000000  0.25000000  1
  O  O28  1  0.98765300  0.25000000  0.30772000  1
  O  O29  1  0.01234700  0.75000000  0.69228000  1
  O  O30  1  0.98765300  0.75000000  0.19228000  1
  O  O31  1  0.01234700  0.25000000  0.80772000  1
  O  O32  1  0.91664800  0.25000000  0.12428900  1
  O  O33  1  0.08335200  0.75000000  0.87571100  1
  O  O34  1  0.91664800  0.75000000  0.37571100  1
  O  O35  1  0.08335200  0.25000000  0.62428900  1
loop_
_geom_bond_atom_site_label_1
_geom_bond_atom_site_label_2
_geom_bond_distance
_geom_bond_site_symmetry_2
Nd0 O31 2.405912 1_655
Nd0 O8 2.414994 1_556
Nd0 O1 2.495807 1_556
Nd0 O4 2.495807 1_546
Nd0 O16 2.536240 1_555
Nd0 O13 2.536240 1_555
Nd0 O32 2.579900 1_556
Nd0 O0 2.700849 1_655
Nd0 O5 2.700849 1_655
Nd1 O30 2.405912 1_455
Nd1 O9 2.414994 1_554
Nd1 O0 2.495807 1_564
Nd1 O5 2.495807 1_554
Nd1 O17 2.536240 1_555
Nd1 O12 2.536240 1_555
Nd1 O33 2.579900 1_554
Nd1 O4 2.700849 1_455
Nd1 O1 2.700849 1_455
Nd2 O29 2.405912 1_655
Nd2 O10 2.414994 1_555
Nd2 O6 2.495807 1_565
Nd2 O3 2.495807 1_555
Nd2 O18 2.536240 1_555
Nd2 O15 2.536240 1_555
Nd2 O34 2.579900 1_555
Nd2 O7 2.700849 1_655
Nd2 O2 2.700849 1_655
Nd3 O28 2.405912 1_455
Nd3 O11 2.414994 1_555
Nd3 O7 2.495807 1_555
Nd3 O2 2.495807 1_545
Nd3 O14 2.536240 1_555
Nd3 O19 2.536240 1_555
Nd3 O35 2.579900 1_555
Nd3 O3 2.700849 1_455
Nd3 O6 2.700849 1_455
I0 O8 1.811432 1_555
I0 O5 1.852731 1_554
I0 O0 1.852731 1_554
I1 O9 1.811432 1_555
I1 O4 1.852731 1_556
I1 O1 1.852731 1_556
I2 O10 1.811432 1_555
I2 O7 1.852731 1_555
I2 O2 1.852731 1_555
I3 O11 1.811432 1_555
I3 O3 1.852731 1_555
I3 O6 1.852731 1_555
O12 V0 1.692864 1_565
O13 V1 1.692864 1_555
O14 V0 1.692864 1_555
O15 V1 1.692864 1_555
O16 V2 1.692864 1_555
O17 V3 1.692864 1_555
O18 V2 1.692864 1_565
O19 V3 1.692864 1_555
O20 V3 1.940308 1_555
O20 V0 1.940308 1_565
O20 V6 2.052193 1_555
O21 V1 1.940308 1_555
O21 V2 1.940308 1_555
O21 V7 2.052193 1_555
O22 V3 1.940308 1_555
O22 V0 1.940308 1_555
O22 V4 2.052193 1_555
O23 V2 1.940308 1_565
O23 V1 1.940308 1_555
O23 V5 2.052193 1_555
O24 V6 1.939997 1_545
O24 V4 1.939997 1_555
O24 V0 1.957226 1_555
O25 V7 1.939997 1_555
O25 V5 1.939997 1_555
O25 V1 1.957226 1_555
O26 V7 1.939997 1_555
O26 V5 1.939997 1_545
O26 V2 1.957226 1_555
O27 V4 1.939997 1_555
O27 V6 1.939997 1_555
O27 V3 1.957226 1_555
O28 V4 1.676335 1_555
O29 V5 1.676335 1_555
O30 V6 1.676335 1_555
O31 V7 1.676335 1_555
O32 V4 1.683672 1_555
O33 V5 1.683672 1_555
O34 V6 1.683672 1_555
O35 V7 1.683672 1_555
