# generated using pymatgen
data_BiI3
_symmetry_space_group_name_H-M   'P 1'
_cell_length_a   5.75037619
_cell_length_b   5.75037619
_cell_length_c   5.75037619
_cell_angle_alpha   60.00000000
_cell_angle_beta   60.00000000
_cell_angle_gamma   60.00000000
_symmetry_Int_Tables_number   1
_chemical_formula_structural   BiI3
_chemical_formula_sum   'Bi1 I3'
_cell_volume   134.45401464
_cell_formula_units_Z   1
loop_
 _symmetry_equiv_pos_site_id
 _symmetry_equiv_pos_as_xyz
  1  'x, y, z'
loop_
 _atom_site_type_symbol
 _atom_site_label
 _atom_site_symmetry_multiplicity
 _atom_site_fract_x
 _atom_site_fract_y
 _atom_site_fract_z
 _atom_site_occupancy
  Bi  Bi0  1  0.00000000  0.00000000  0.00000000  1
  I  I0  1  0.50000000  0.50000000  0.50000000  1
  I  I1  1  0.75000000  0.75000000  0.75000000  1
  I  I2  1  0.25000000  0.25000000  0.25000000  1
loop_
_geom_bond_atom_site_label_1
_geom_bond_atom_site_label_2
_geom_bond_distance
_geom_bond_site_symmetry_2
Bi0 I1 3.521372 1_544
Bi0 I2 3.521372 1_545
Bi0 I2 3.521372 1_455
Bi0 I1 3.521372 1_454
Bi0 I1 3.521372 1_445
Bi0 I1 3.521372 1_444
Bi0 I2 3.521372 1_555
Bi0 I2 3.521372 1_554
I0 I2 3.521372 1_565
I0 I2 3.521372 1_655
I0 I1 3.521372 1_545
I0 I1 3.521372 1_455
I0 I1 3.521372 1_555
I0 I2 3.521372 1_556
I0 I2 3.521372 1_555
I0 I1 3.521372 1_554
