# generated using pymatgen
data_TmMnSi2
_symmetry_space_group_name_H-M   'P 1'
_cell_length_a   8.11683011
_cell_length_b   8.11683011
_cell_length_c   4.20251100
_cell_angle_alpha   90.00000000
_cell_angle_beta   90.00000000
_cell_angle_gamma   150.47192198
_symmetry_Int_Tables_number   1
_chemical_formula_structural   TmMnSi2
_chemical_formula_sum   'Tm2 Mn2 Si4'
_cell_volume   136.45723021
_cell_formula_units_Z   2
loop_
 _symmetry_equiv_pos_site_id
 _symmetry_equiv_pos_as_xyz
  1  'x, y, z'
loop_
 _atom_site_type_symbol
 _atom_site_label
 _atom_site_symmetry_multiplicity
 _atom_site_fract_x
 _atom_site_fract_y
 _atom_site_fract_z
 _atom_site_occupancy
  Tm  Tm0  1  0.60500300  0.39499700  0.75000000  1
  Tm  Tm1  1  0.39499700  0.60500300  0.25000000  1
  Mn  Mn0  1  0.81234000  0.18766000  0.75000000  1
  Mn  Mn1  1  0.18766000  0.81234000  0.25000000  1
  Si  Si0  1  0.95739300  0.04260700  0.75000000  1
  Si  Si1  1  0.04260700  0.95739300  0.25000000  1
  Si  Si2  1  0.24712700  0.75287300  0.75000000  1
  Si  Si3  1  0.75287300  0.24712700  0.25000000  1
loop_
_geom_bond_atom_site_label_1
_geom_bond_atom_site_label_2
_geom_bond_distance
_geom_bond_site_symmetry_2
Mn0 Si0 2.276996 1_555
Mn0 Si3 2.299279 1_555
Mn0 Si3 2.299279 1_556
Mn0 Si2 2.307937 1_655
Mn0 Si2 2.307937 1_545
Mn1 Si1 2.276996 1_555
Mn1 Si2 2.299279 1_555
Mn1 Si2 2.299279 1_554
Mn1 Si3 2.307937 1_565
Mn1 Si3 2.307937 1_455
Si0 Si1 2.490906 1_645
Si0 Si1 2.490906 1_646
Si0 Tm0 3.106081 1_545
Si0 Tm0 3.106081 1_655
Si0 Tm1 3.106971 1_545
Si0 Tm1 3.106971 1_546
Si0 Tm1 3.106971 1_656
Si0 Tm1 3.106971 1_655
Si1 Tm1 3.106081 1_455
Si1 Tm1 3.106081 1_565
Si1 Tm0 3.106971 1_455
Si1 Tm0 3.106971 1_454
Si1 Tm0 3.106971 1_565
Si1 Tm0 3.106971 1_564
Si2 Tm0 3.042378 1_455
Si2 Tm0 3.042378 1_565
Si2 Tm1 3.131025 1_555
Si2 Tm1 3.131025 1_556
Si3 Tm1 3.042378 1_545
Si3 Tm1 3.042378 1_655
Si3 Tm0 3.131025 1_555
Si3 Tm0 3.131025 1_554
