# generated using pymatgen
data_Tb2GaCo2
_symmetry_space_group_name_H-M   'P 1'
_cell_length_a   4.10967588
_cell_length_b   5.36103794
_cell_length_c   5.36103794
_cell_angle_alpha   59.71516334
_cell_angle_beta   67.46231162
_cell_angle_gamma   67.46231162
_symmetry_Int_Tables_number   1
_chemical_formula_structural   Tb2GaCo2
_chemical_formula_sum   'Tb2 Ga1 Co2'
_cell_volume   91.49410222
_cell_formula_units_Z   1
loop_
 _symmetry_equiv_pos_site_id
 _symmetry_equiv_pos_as_xyz
  1  'x, y, z'
loop_
 _atom_site_type_symbol
 _atom_site_label
 _atom_site_symmetry_multiplicity
 _atom_site_fract_x
 _atom_site_fract_y
 _atom_site_fract_z
 _atom_site_occupancy
  Tb  Tb0  1  0.20586308  0.29413692  0.29413692  1
  Tb  Tb1  1  0.79413692  0.70586308  0.70586308  1
  Ga  Ga0  1  0.00000000  -0.00000000  -0.00000000  1
  Co  Co0  1  0.50000000  0.28641430  0.71358570  1
  Co  Co1  1  0.50000000  0.71358570  0.28641430  1
loop_
_geom_bond_atom_site_label_1
_geom_bond_atom_site_label_2
_geom_bond_distance
_geom_bond_site_symmetry_2
Tb0 Tb1 3.434395 1_455
Tb0 Tb1 3.447890 1_554
Tb0 Tb1 3.447890 1_545
Tb0 Tb1 3.447890 1_454
Tb0 Tb1 3.447890 1_445
Ga0 Tb0 3.173668 1_545
Ga0 Tb0 3.173668 1_554
Ga0 Tb1 3.173668 1_454
Ga0 Tb1 3.173668 1_445
Ga0 Tb0 3.200339 1_455
Ga0 Tb1 3.200339 1_444
Ga0 Tb1 3.200339 1_544
Ga0 Tb0 3.200339 1_555
Co0 Co1 2.280216 1_555
Co0 Ga0 2.561207 1_556
Co0 Ga0 2.561207 1_656
Co0 Tb1 2.890887 1_545
Co0 Tb0 2.890887 1_556
Co0 Tb1 2.910493 1_455
Co0 Tb0 2.910493 1_555
Co0 Tb1 2.910493 1_555
Co0 Tb0 2.910493 1_655
Co0 Co1 3.057725 1_546
Co1 Ga0 2.561207 1_565
Co1 Ga0 2.561207 1_665
Co1 Tb1 2.890887 1_554
Co1 Tb0 2.890887 1_565
Co1 Tb1 2.910493 1_455
Co1 Tb0 2.910493 1_555
Co1 Tb1 2.910493 1_555
Co1 Tb0 2.910493 1_655
