# generated using pymatgen
data_Yb3Ga8
_symmetry_space_group_name_H-M   'P 1'
_cell_length_a   4.03858793
_cell_length_b   4.18043546
_cell_length_c   12.79763818
_cell_angle_alpha   80.59985859
_cell_angle_beta   80.92156054
_cell_angle_gamma   90.00000000
_symmetry_Int_Tables_number   1
_chemical_formula_structural   Yb3Ga8
_chemical_formula_sum   'Yb3 Ga8'
_cell_volume   210.41800928
_cell_formula_units_Z   1
loop_
 _symmetry_equiv_pos_site_id
 _symmetry_equiv_pos_as_xyz
  1  'x, y, z'
loop_
 _atom_site_type_symbol
 _atom_site_label
 _atom_site_symmetry_multiplicity
 _atom_site_fract_x
 _atom_site_fract_y
 _atom_site_fract_z
 _atom_site_occupancy
  Yb  Yb0  1  0.85797964  0.35797964  0.28404071  1
  Yb  Yb1  1  0.14202036  0.64202036  0.71595929  1
  Yb  Yb2  1  0.00000000  0.00000000  0.00000000  1
  Ga  Ga0  1  0.25158520  0.25158520  0.49682960  1
  Ga  Ga1  1  0.74841480  0.74841480  0.50317040  1
  Ga  Ga2  1  0.59424951  0.09424951  0.81150097  1
  Ga  Ga3  1  0.40575049  0.90575049  0.18849903  1
  Ga  Ga4  1  0.68949791  0.18949791  0.62100518  1
  Ga  Ga5  1  0.31050209  0.81050209  0.37899482  1
  Ga  Ga6  1  0.45224124  0.45224124  0.09551752  1
  Ga  Ga7  1  0.54775876  0.54775876  0.90448248  1
loop_
_geom_bond_atom_site_label_1
_geom_bond_atom_site_label_2
_geom_bond_distance
_geom_bond_site_symmetry_2
Ga0 Ga4 2.544152 1_455
Ga0 Ga4 2.544155 1_555
Ga0 Ga5 2.554566 1_555
Ga0 Ga5 2.554569 1_545
Ga0 Ga1 2.907371 1_455
Ga0 Ga1 2.907371 1_445
Ga0 Ga1 2.907371 1_555
Ga0 Ga1 2.907371 1_545
Ga0 Yb0 3.333300 1_555
Ga0 Yb0 3.333300 1_455
Ga0 Yb1 3.439151 1_555
Ga0 Yb1 3.439151 1_545
Ga1 Ga5 2.544152 1_655
Ga1 Ga5 2.544155 1_555
Ga1 Ga4 2.554566 1_555
Ga1 Ga4 2.554569 1_565
Ga1 Yb1 3.333300 1_555
Ga1 Yb1 3.333300 1_655
Ga1 Yb0 3.439151 1_555
Ga1 Yb0 3.439151 1_565
Ga2 Ga4 2.374200 1_555
Ga2 Ga7 2.389969 1_555
Ga2 Ga7 2.389969 1_545
Ga2 Yb2 3.097874 1_556
Ga2 Yb2 3.097874 1_656
Ga2 Yb1 3.140776 1_655
Ga2 Yb1 3.140776 1_645
Ga2 Yb1 3.140776 1_555
Ga2 Yb1 3.140776 1_545
Ga3 Ga5 2.374200 1_555
Ga3 Ga6 2.389969 1_555
Ga3 Ga6 2.389969 1_565
Ga3 Yb2 3.097874 1_665
Ga3 Yb2 3.097874 1_565
Ga3 Yb0 3.140776 1_455
Ga3 Yb0 3.140776 1_465
Ga3 Yb0 3.140776 1_555
Ga3 Yb0 3.140776 1_565
Ga4 Yb1 3.138004 1_655
Ga4 Yb1 3.138006 1_555
Ga4 Yb1 3.138007 1_645
Ga4 Yb1 3.138009 1_545
Ga5 Yb0 3.138004 1_455
Ga5 Yb0 3.138006 1_555
Ga5 Yb0 3.138007 1_465
Ga5 Yb0 3.138009 1_565
Ga6 Ga7 2.380920 1_554
Ga6 Yb0 3.098102 1_455
Ga6 Yb0 3.098102 1_555
Ga6 Yb2 3.140661 1_665
Ga6 Yb2 3.140661 1_655
Ga6 Yb2 3.140661 1_565
Ga6 Yb2 3.140661 1_555
Ga7 Yb1 3.098102 1_655
Ga7 Yb1 3.098102 1_555
Ga7 Yb2 3.140661 1_556
Ga7 Yb2 3.140661 1_566
Ga7 Yb2 3.140661 1_656
Ga7 Yb2 3.140661 1_666
