# generated using pymatgen
data_Sr5Cd5P6(O12F)2
_symmetry_space_group_name_H-M   'P 1'
_cell_length_a   7.07598300
_cell_length_b   9.65511000
_cell_length_c   9.70506578
_cell_angle_alpha   60.17536199
_cell_angle_beta   90.00000000
_cell_angle_gamma   90.00000000
_symmetry_Int_Tables_number   1
_chemical_formula_structural   Sr5Cd5P6(O12F)2
_chemical_formula_sum   'Sr5 Cd5 P6 O24 F2'
_cell_volume   575.22511429
_cell_formula_units_Z   1
loop_
 _symmetry_equiv_pos_site_id
 _symmetry_equiv_pos_as_xyz
  1  'x, y, z'
loop_
 _atom_site_type_symbol
 _atom_site_label
 _atom_site_symmetry_multiplicity
 _atom_site_fract_x
 _atom_site_fract_y
 _atom_site_fract_z
 _atom_site_occupancy
  Sr  Sr0  1  0.50000000  0.74956300  0.23970100  1
  Sr  Sr1  1  0.50000000  0.01064300  0.75003100  1
  Sr  Sr2  1  0.50000000  0.24437700  0.00935700  1
  Sr  Sr3  1  0.00000000  0.24523000  0.76018100  1
  Sr  Sr4  1  0.00000000  0.98911100  0.24761200  1
  Cd  Cd0  1  0.00000000  0.73851900  0.01088300  1
  Cd  Cd1  1  0.74944800  0.33104400  0.33555500  1
  Cd  Cd2  1  0.24863800  0.66824000  0.66739600  1
  Cd  Cd3  1  0.75136200  0.66824000  0.66739600  1
  Cd  Cd4  1  0.25055200  0.33104400  0.33555500  1
  P  P0  1  0.50000000  0.97330300  0.40076300  1
  P  P1  1  0.50000000  0.62860700  0.97618800  1
  P  P2  1  0.50000000  0.40142200  0.62618900  1
  P  P3  1  0.00000000  0.02673900  0.59920500  1
  P  P4  1  0.00000000  0.37721700  0.02336300  1
  P  P5  1  0.00000000  0.59976900  0.37179600  1
  O  O0  1  0.50000000  0.86859700  0.58684400  1
  O  O1  1  0.50000000  0.54960600  0.86844600  1
  O  O2  1  0.50000000  0.58838400  0.54532800  1
  O  O3  1  0.00000000  0.13057900  0.41200300  1
  O  O4  1  0.00000000  0.46368800  0.12456100  1
  O  O5  1  0.00000000  0.41281900  0.45329300  1
  O  O6  1  0.50000000  0.15621000  0.34726900  1
  O  O7  1  0.50000000  0.49703300  0.15664700  1
  O  O8  1  0.50000000  0.34839500  0.49704100  1
  O  O9  1  0.00000000  0.84358100  0.65389400  1
  O  O10  1  0.00000000  0.50080100  0.84072100  1
  O  O11  1  0.00000000  0.65525800  0.49890400  1
  O  O12  1  0.67534300  0.93191500  0.33431600  1
  O  O13  1  0.67750900  0.73695700  0.93660200  1
  O  O14  1  0.67523000  0.33466700  0.73400600  1
  O  O15  1  0.17617900  0.07222800  0.66115500  1
  O  O16  1  0.17460300  0.26756100  0.06888800  1
  O  O17  1  0.17475000  0.66617300  0.26297700  1
  O  O18  1  0.82382100  0.07222800  0.66115500  1
  O  O19  1  0.82539700  0.26756100  0.06888800  1
  O  O20  1  0.82525000  0.66617300  0.26297700  1
  O  O21  1  0.32465700  0.93191500  0.33431600  1
  O  O22  1  0.32249100  0.73695700  0.93660200  1
  O  O23  1  0.32477000  0.33466700  0.73400600  1
  F  F0  1  0.50000000  0.00244800  0.00051600  1
  F  F1  1  0.00000000  0.98053000  0.99747200  1
loop_
_geom_bond_atom_site_label_1
_geom_bond_atom_site_label_2
_geom_bond_distance
_geom_bond_site_symmetry_2
Cd0 F1 2.274715 1_554
Cd0 O4 2.312224 1_555
Cd0 O22 2.395411 1_554
Cd0 O13 2.395411 1_454
Cd0 O20 2.510541 1_455
Cd0 O17 2.510541 1_555
Cd1 O6 2.405632 1_555
Cd1 O8 2.420947 1_555
Cd1 O7 2.435337 1_555
Cd1 O5 2.443280 1_655
Cd1 O3 2.451826 1_655
Cd1 O4 2.523470 1_655
Cd2 O9 2.399559 1_555
Cd2 O10 2.415256 1_555
Cd2 O11 2.447221 1_555
Cd2 O0 2.452058 1_555
Cd2 O1 2.461632 1_555
Cd2 O2 2.463743 1_555
Cd3 O9 2.399559 1_655
Cd3 O10 2.415256 1_655
Cd3 O11 2.447221 1_655
Cd3 O0 2.452058 1_555
Cd3 O1 2.461632 1_555
Cd3 O2 2.463743 1_555
Cd4 O6 2.405632 1_555
Cd4 O8 2.420947 1_555
Cd4 O7 2.435337 1_555
Cd4 O5 2.443280 1_555
Cd4 O3 2.451826 1_555
Cd4 O4 2.523470 1_555
O0 P0 1.570790 1_555
O0 Sr1 2.559236 1_565
O1 P1 1.571154 1_555
O1 Sr2 2.558575 1_556
O2 P2 1.570124 1_555
O2 Sr0 2.574546 1_555
O3 P3 1.579281 1_555
O3 Sr4 2.564887 1_545
O4 P4 1.573926 1_555
O5 P5 1.569588 1_555
O5 Sr3 2.587508 1_555
O6 P0 1.573617 1_545
O6 Sr2 2.950022 1_555
O7 P1 1.570999 1_554
O7 Sr0 2.923940 1_555
O8 P2 1.572075 1_555
O8 Sr1 2.949318 1_555
O9 P3 1.573328 1_565
O10 P4 1.569042 1_556
O10 Sr3 2.935708 1_555
O11 P5 1.570405 1_555
O11 Sr4 2.918646 1_555
O12 P0 1.539893 1_555
O12 Sr4 2.414176 1_655
O12 Sr0 2.662798 1_555
O13 P1 1.555595 1_555
O13 Sr1 2.660750 1_565
O14 P2 1.541715 1_555
O14 Sr3 2.423452 1_655
O14 Sr2 2.668580 1_556
O15 P3 1.539852 1_555
O15 Sr1 2.416130 1_555
O15 Sr3 2.620038 1_555
O16 P4 1.541842 1_555
O16 Sr2 2.411238 1_555
O16 Sr4 2.669155 1_545
O17 P5 1.543336 1_555
O17 Sr0 2.411452 1_555
O18 P3 1.539852 1_655
O18 Sr1 2.416130 1_555
O18 Sr3 2.620038 1_655
O19 P4 1.541842 1_655
O19 Sr2 2.411238 1_555
O19 Sr4 2.669155 1_645
O20 P5 1.543336 1_655
O20 Sr0 2.411452 1_555
O21 P0 1.539893 1_555
O21 Sr4 2.414176 1_555
O21 Sr0 2.662798 1_555
O22 P1 1.555595 1_555
O22 Sr1 2.660750 1_565
O23 P2 1.541715 1_555
O23 Sr3 2.423452 1_555
O23 Sr2 2.668580 1_556
F0 Sr2 2.379689 1_555
F0 Sr0 2.390048 1_545
F0 Sr1 2.392606 1_554
F1 Sr3 2.445553 1_565
F1 Sr4 2.469877 1_556
