# generated using pymatgen
data_KCo(N3O4)2
_symmetry_space_group_name_H-M   'P 1'
_cell_length_a   6.85766200
_cell_length_b   11.44507500
_cell_length_c   13.00427600
_cell_angle_alpha   90.00000000
_cell_angle_beta   90.00000000
_cell_angle_gamma   90.00000000
_symmetry_Int_Tables_number   1
_chemical_formula_structural   KCo(N3O4)2
_chemical_formula_sum   'K4 Co4 N24 O32'
_cell_volume   1020.65953498
_cell_formula_units_Z   4
loop_
 _symmetry_equiv_pos_site_id
 _symmetry_equiv_pos_as_xyz
  1  'x, y, z'
loop_
 _atom_site_type_symbol
 _atom_site_label
 _atom_site_symmetry_multiplicity
 _atom_site_fract_x
 _atom_site_fract_y
 _atom_site_fract_z
 _atom_site_occupancy
  K  K0  1  0.78203500  0.62286200  0.97516900  1
  K  K1  1  0.28203500  0.87713800  0.02483100  1
  K  K2  1  0.21796500  0.12286200  0.52483100  1
  K  K3  1  0.71796500  0.37713800  0.47516900  1
  Co  Co0  1  0.24478500  0.58484400  0.68886300  1
  Co  Co1  1  0.74478500  0.91515600  0.31113700  1
  Co  Co2  1  0.75521500  0.08484400  0.81113700  1
  Co  Co3  1  0.25521500  0.41515600  0.18886300  1
  N  N0  1  0.01766400  0.49653600  0.76599800  1
  N  N1  1  0.51766400  0.00346400  0.23400200  1
  N  N2  1  0.98233600  0.99653600  0.73400200  1
  N  N3  1  0.48233600  0.50346400  0.26599800  1
  N  N4  1  0.26020100  0.69492700  0.81177200  1
  N  N5  1  0.76020100  0.80507300  0.18822800  1
  N  N6  1  0.73979900  0.19492700  0.68822800  1
  N  N7  1  0.23979900  0.30507300  0.31177200  1
  N  N8  1  0.48190200  0.66604000  0.61044900  1
  N  N9  1  0.98190200  0.83396000  0.38955100  1
  N  N10  1  0.51809800  0.16604000  0.88955100  1
  N  N11  1  0.01809800  0.33396000  0.11044900  1
  N  N12  1  0.21538900  0.46716300  0.57298400  1
  N  N13  1  0.71538900  0.03283700  0.42701600  1
  N  N14  1  0.78461100  0.96716300  0.92701600  1
  N  N15  1  0.28461100  0.53283700  0.07298400  1
  N  N16  1  0.41224800  0.49668100  0.74785400  1
  N  N17  1  0.91224800  0.00331900  0.25214600  1
  N  N18  1  0.58775200  0.99668100  0.75214600  1
  N  N19  1  0.08775200  0.50331900  0.24785400  1
  N  N20  1  0.08963900  0.67606800  0.62733900  1
  N  N21  1  0.58963900  0.82393200  0.37266100  1
  N  N22  1  0.91036100  0.17606800  0.87266100  1
  N  N23  1  0.41036100  0.32393200  0.12733900  1
  O  O0  1  0.85888500  0.48885500  0.72266700  1
  O  O1  1  0.35888500  0.01114500  0.27733300  1
  O  O2  1  0.14111500  0.98885500  0.77733300  1
  O  O3  1  0.64111500  0.51114500  0.22266700  1
  O  O4  1  0.05299200  0.46154600  0.85374600  1
  O  O5  1  0.55299200  0.03845400  0.14625400  1
  O  O6  1  0.94700800  0.96154600  0.64625400  1
  O  O7  1  0.44700800  0.53845400  0.35374600  1
  O  O8  1  0.41959200  0.71118100  0.85394600  1
  O  O9  1  0.91959200  0.78881900  0.14605400  1
  O  O10  1  0.58040800  0.21118100  0.64605400  1
  O  O11  1  0.08040800  0.28881900  0.35394600  1
  O  O12  1  0.10699900  0.73976900  0.84495300  1
  O  O13  1  0.60699900  0.76023100  0.15504700  1
  O  O14  1  0.89300100  0.23976900  0.65504700  1
  O  O15  1  0.39300100  0.26023100  0.34495300  1
  O  O16  1  0.48776200  0.77232300  0.61493600  1
  O  O17  1  0.98776200  0.72767700  0.38506400  1
  O  O18  1  0.51223800  0.27232300  0.88506400  1
  O  O19  1  0.01223800  0.22767700  0.11493600  1
  O  O20  1  0.59764400  0.60120200  0.56634900  1
  O  O21  1  0.09764400  0.89879800  0.43365100  1
  O  O22  1  0.40235600  0.10120200  0.93365100  1
  O  O23  1  0.90235600  0.39879800  0.06634900  1
  O  O24  1  0.08570100  0.48417700  0.50889200  1
  O  O25  1  0.58570100  0.01582300  0.49110800  1
  O  O26  1  0.91429900  0.98417700  0.99110800  1
  O  O27  1  0.41429900  0.51582300  0.00889200  1
  O  O28  1  0.32320500  0.37996300  0.57161300  1
  O  O29  1  0.82320500  0.12003700  0.42838700  1
  O  O30  1  0.67679500  0.87996300  0.92838700  1
  O  O31  1  0.17679500  0.62003700  0.07161300  1
loop_
_geom_bond_atom_site_label_1
_geom_bond_atom_site_label_2
_geom_bond_distance
_geom_bond_site_symmetry_2
K0 O27 2.837717 1_556
K0 O23 2.943311 1_556
K0 O31 2.983719 1_656
K0 O4 3.058542 1_655
K0 O13 3.063396 1_556
K0 O9 3.071786 1_556
K0 O30 3.090227 1_555
K0 O12 3.102247 1_655
K0 O8 3.112011 1_555
K1 O26 2.837717 1_454
K1 O22 2.943311 1_564
K1 O30 2.983719 1_554
K1 O5 3.058542 1_565
K1 O12 3.063396 1_554
K1 O8 3.071786 1_554
K1 O31 3.090227 1_555
K1 O13 3.102247 1_555
K1 O9 3.112011 1_455
K2 O25 2.837717 1_555
K2 O21 2.943311 1_545
K2 O29 2.983719 1_455
K2 O6 3.058542 1_445
K2 O15 3.063396 1_555
K2 O11 3.071786 1_555
K2 O28 3.090227 1_555
K2 O14 3.102247 1_455
K2 O10 3.112011 1_555
K3 O24 2.837717 1_655
K3 O20 2.943311 1_555
K3 O28 2.983719 1_555
K3 O7 3.058542 1_555
K3 O14 3.063396 1_555
K3 O10 3.071786 1_555
K3 O29 3.090227 1_555
K3 O15 3.102247 1_555
K3 O11 3.112011 1_655
Co0 N20 1.691792 1_555
Co0 N16 1.710402 1_555
Co0 N12 2.031134 1_555
Co0 N4 2.037951 1_555
Co0 N0 2.110342 1_555
Co0 N8 2.132489 1_555
Co1 N21 1.691792 1_555
Co1 N17 1.710402 1_565
Co1 N13 2.031134 1_565
Co1 N5 2.037951 1_555
Co1 N1 2.110342 1_565
Co1 N9 2.132489 1_555
Co2 N22 1.691792 1_555
Co2 N18 1.710402 1_545
Co2 N14 2.031134 1_545
Co2 N6 2.037951 1_555
Co2 N2 2.110342 1_545
Co2 N10 2.132489 1_555
Co3 N23 1.691792 1_555
Co3 N19 1.710402 1_555
Co3 N15 2.031134 1_555
Co3 N7 2.037951 1_555
Co3 N3 2.110342 1_555
Co3 N11 2.132489 1_555
N0 O0 1.229165 1_455
N0 O4 1.233358 1_555
N1 O1 1.229165 1_555
N1 O5 1.233358 1_555
N2 O2 1.229165 1_655
N2 O6 1.233358 1_555
N3 O3 1.229165 1_555
N3 O7 1.233358 1_555
N4 O8 1.236994 1_555
N4 O12 1.246338 1_555
N5 O9 1.236994 1_555
N5 O13 1.246338 1_555
N6 O10 1.236994 1_555
N6 O14 1.246338 1_555
N7 O11 1.236994 1_555
N7 O15 1.246338 1_555
N8 O16 1.218478 1_555
N8 O20 1.228640 1_555
N9 O17 1.218478 1_555
N9 O21 1.228640 1_655
N10 O18 1.218478 1_555
N10 O22 1.228640 1_555
N11 O19 1.218478 1_555
N11 O23 1.228640 1_455
N12 O24 1.234320 1_555
N12 O28 1.242177 1_555
N13 O25 1.234320 1_555
N13 O29 1.242177 1_555
N14 O26 1.234320 1_555
N14 O30 1.242177 1_555
N15 O27 1.234320 1_555
N15 O31 1.242177 1_555
