# generated using pymatgen
data_ThMn2
_symmetry_space_group_name_H-M   'P 1'
_cell_length_a   5.34255445
_cell_length_b   5.34255445
_cell_length_c   8.46999500
_cell_angle_alpha   90.00000000
_cell_angle_beta   90.00000000
_cell_angle_gamma   120.00000552
_symmetry_Int_Tables_number   1
_chemical_formula_structural   ThMn2
_chemical_formula_sum   'Th4 Mn8'
_cell_volume   209.36866072
_cell_formula_units_Z   4
loop_
 _symmetry_equiv_pos_site_id
 _symmetry_equiv_pos_as_xyz
  1  'x, y, z'
loop_
 _atom_site_type_symbol
 _atom_site_label
 _atom_site_symmetry_multiplicity
 _atom_site_fract_x
 _atom_site_fract_y
 _atom_site_fract_z
 _atom_site_occupancy
  Th  Th0  1  0.33333300  0.66666700  0.43918100  1
  Th  Th1  1  0.66666700  0.33333300  0.56081900  1
  Th  Th2  1  0.66666700  0.33333300  0.93918100  1
  Th  Th3  1  0.33333300  0.66666700  0.06081900  1
  Mn  Mn0  1  0.00000000  0.00000000  0.50000000  1
  Mn  Mn1  1  0.00000000  0.00000000  0.00000000  1
  Mn  Mn2  1  0.83988600  0.16011400  0.25000000  1
  Mn  Mn3  1  0.83988600  0.67977200  0.25000000  1
  Mn  Mn4  1  0.32022800  0.16011400  0.25000000  1
  Mn  Mn5  1  0.16011400  0.83988600  0.75000000  1
  Mn  Mn6  1  0.16011400  0.32022800  0.75000000  1
  Mn  Mn7  1  0.67977200  0.83988600  0.75000000  1
loop_
_geom_bond_atom_site_label_1
_geom_bond_atom_site_label_2
_geom_bond_distance
_geom_bond_site_symmetry_2
Th0 Th3 3.204724 1_555
Th0 Th1 3.252036 1_455
Th0 Th1 3.252036 1_565
Th0 Th1 3.252045 1_555
Th1 Th2 3.204724 1_555
Th2 Th3 3.252036 1_546
Th2 Th3 3.252036 1_656
Th2 Th3 3.252045 1_556
Mn0 Mn6 2.584380 1_555
Mn0 Mn3 2.584380 1_445
Mn0 Mn4 2.584380 1_555
Mn0 Mn7 2.584380 1_445
Mn0 Mn5 2.584380 1_545
Mn0 Mn2 2.584380 1_455
Mn0 Th1 3.127242 1_455
Mn0 Th0 3.127242 1_545
Mn0 Th0 3.127246 1_445
Mn0 Th0 3.127246 1_555
Mn0 Th1 3.127246 1_445
Mn0 Th1 3.127246 1_555
Mn1 Mn7 2.584380 1_444
Mn1 Mn3 2.584380 1_445
Mn1 Mn4 2.584380 1_555
Mn1 Mn6 2.584380 1_554
Mn1 Mn2 2.584380 1_455
Mn1 Mn5 2.584380 1_544
Mn1 Th3 3.127242 1_545
Mn1 Th2 3.127242 1_454
Mn1 Th2 3.127246 1_444
Mn1 Th3 3.127246 1_445
Mn1 Th2 3.127246 1_554
Mn1 Th3 3.127246 1_555
Mn2 Mn4 2.566253 1_655
Mn2 Mn3 2.566253 1_545
Mn2 Mn4 2.776301 1_555
Mn2 Mn3 2.776301 1_555
Mn2 Th1 3.082214 1_555
Mn2 Th2 3.082214 1_554
Mn2 Th3 3.115600 1_655
Mn2 Th3 3.115600 1_545
Mn2 Th0 3.115600 1_655
Mn2 Th0 3.115600 1_545
Mn3 Mn4 2.566253 1_665
Mn3 Mn4 2.776301 1_555
Mn3 Th1 3.082216 1_555
Mn3 Th2 3.082216 1_554
Mn3 Th3 3.115598 1_655
Mn3 Th0 3.115598 1_655
Mn3 Th3 3.115602 1_555
Mn3 Th0 3.115602 1_555
Mn4 Th1 3.082216 1_555
Mn4 Th2 3.082216 1_554
Mn4 Th3 3.115598 1_545
Mn4 Th0 3.115598 1_545
Mn4 Th3 3.115602 1_555
Mn4 Th0 3.115602 1_555
Mn5 Mn7 2.566253 1_455
Mn5 Mn6 2.566253 1_565
Mn5 Mn6 2.776301 1_555
Mn5 Mn7 2.776301 1_555
Mn5 Th3 3.082214 1_556
Mn5 Th0 3.082214 1_555
Mn5 Th2 3.115600 1_455
Mn5 Th1 3.115600 1_455
Mn5 Th1 3.115600 1_565
Mn5 Th2 3.115600 1_565
Mn6 Mn7 2.566253 1_445
Mn6 Mn7 2.776301 1_555
Mn6 Th3 3.082216 1_556
Mn6 Th0 3.082216 1_555
Mn6 Th1 3.115598 1_455
Mn6 Th2 3.115598 1_455
Mn6 Th1 3.115602 1_555
Mn6 Th2 3.115602 1_555
Mn7 Th3 3.082216 1_556
Mn7 Th0 3.082216 1_555
Mn7 Th2 3.115598 1_565
Mn7 Th1 3.115598 1_565
Mn7 Th1 3.115602 1_555
Mn7 Th2 3.115602 1_555
