# generated using pymatgen
data_Sr2EuBeO5
_symmetry_space_group_name_H-M   'P 1'
_cell_length_a   6.71200800
_cell_length_b   7.38254500
_cell_length_c   9.72852100
_cell_angle_alpha   90.00000000
_cell_angle_beta   90.00000000
_cell_angle_gamma   90.00000000
_symmetry_Int_Tables_number   1
_chemical_formula_structural   Sr2EuBeO5
_chemical_formula_sum   'Sr8 Eu4 Be4 O20'
_cell_volume   482.06476474
_cell_formula_units_Z   4
loop_
 _symmetry_equiv_pos_site_id
 _symmetry_equiv_pos_as_xyz
  1  'x, y, z'
loop_
 _atom_site_type_symbol
 _atom_site_label
 _atom_site_symmetry_multiplicity
 _atom_site_fract_x
 _atom_site_fract_y
 _atom_site_fract_z
 _atom_site_occupancy
  Sr  Sr0  1  0.91120100  0.97751900  0.67294300  1
  Sr  Sr1  1  0.08879900  0.02248100  0.32705700  1
  Sr  Sr2  1  0.41120100  0.02248100  0.82705700  1
  Sr  Sr3  1  0.08879900  0.47751900  0.32705700  1
  Sr  Sr4  1  0.58879900  0.97751900  0.17294300  1
  Sr  Sr5  1  0.91120100  0.52248100  0.67294300  1
  Sr  Sr6  1  0.58879900  0.52248100  0.17294300  1
  Sr  Sr7  1  0.41120100  0.47751900  0.82705700  1
  Eu  Eu0  1  0.41738800  0.75000000  0.52225400  1
  Eu  Eu1  1  0.58261200  0.25000000  0.47774600  1
  Eu  Eu2  1  0.91738800  0.25000000  0.97774600  1
  Eu  Eu3  1  0.08261200  0.75000000  0.02225400  1
  Be  Be0  1  0.68576700  0.75000000  0.89798700  1
  Be  Be1  1  0.31423300  0.25000000  0.10201300  1
  Be  Be2  1  0.18576700  0.25000000  0.60201300  1
  Be  Be3  1  0.81423300  0.75000000  0.39798700  1
  O  O0  1  0.81326600  0.93674400  0.93460100  1
  O  O1  1  0.18673400  0.06325600  0.06539900  1
  O  O2  1  0.31326600  0.06325600  0.56539900  1
  O  O3  1  0.18673400  0.43674400  0.06539900  1
  O  O4  1  0.68673400  0.93674400  0.43460100  1
  O  O5  1  0.81326600  0.56325600  0.93460100  1
  O  O6  1  0.68673400  0.56325600  0.43460100  1
  O  O7  1  0.31326600  0.43674400  0.56539900  1
  O  O8  1  0.16215000  0.75000000  0.79231300  1
  O  O9  1  0.83785000  0.25000000  0.20768700  1
  O  O10  1  0.66215000  0.25000000  0.70768700  1
  O  O11  1  0.33785000  0.75000000  0.29231300  1
  O  O12  1  0.47728800  0.75000000  0.98974300  1
  O  O13  1  0.52271200  0.25000000  0.01025600  1
  O  O14  1  0.97728800  0.25000000  0.51025700  1
  O  O15  1  0.02271200  0.75000000  0.48974300  1
  O  O16  1  0.62367800  0.75000000  0.72829600  1
  O  O17  1  0.37632200  0.25000000  0.27170400  1
  O  O18  1  0.12367800  0.25000000  0.77170400  1
  O  O19  1  0.87632200  0.75000000  0.22829600  1
loop_
_geom_bond_atom_site_label_1
_geom_bond_atom_site_label_2
_geom_bond_distance
_geom_bond_site_symmetry_2
Eu0 O11 2.299807 1_555
Eu0 O4 2.428199 1_555
Eu0 O6 2.428199 1_555
Eu0 O16 2.436212 1_555
Eu0 O7 2.452109 1_555
Eu0 O2 2.452109 1_565
Eu0 O15 2.667883 1_555
Eu0 O8 3.136477 1_555
Eu1 O10 2.299807 1_555
Eu1 O7 2.428199 1_555
Eu1 O2 2.428199 1_555
Eu1 O17 2.436212 1_555
Eu1 O6 2.452109 1_555
Eu1 O4 2.452109 1_545
Eu1 O14 2.667883 1_555
Eu1 O9 3.136477 1_555
Eu2 O9 2.299807 1_556
Eu2 O3 2.428199 1_656
Eu2 O1 2.428199 1_656
Eu2 O18 2.436212 1_655
Eu2 O0 2.452109 1_545
Eu2 O5 2.452109 1_555
Eu2 O13 2.667882 1_556
Eu2 O10 3.136477 1_555
Eu3 O8 2.299807 1_554
Eu3 O0 2.428199 1_454
Eu3 O5 2.428199 1_454
Eu3 O19 2.436212 1_455
Eu3 O3 2.452109 1_555
Eu3 O1 2.452109 1_565
Eu3 O12 2.667883 1_554
Eu3 O11 3.136477 1_555
Be0 O12 1.659789 1_555
Be0 O5 1.661293 1_555
Be0 O0 1.661293 1_555
Be0 O16 1.702632 1_555
Be1 O13 1.659794 1_555
Be1 O3 1.661293 1_555
Be1 O1 1.661293 1_555
Be1 O17 1.702632 1_555
Be2 O14 1.659789 1_455
Be2 O2 1.661293 1_555
Be2 O7 1.661293 1_555
Be2 O18 1.702632 1_555
Be3 O15 1.659789 1_655
Be3 O6 1.661293 1_555
Be3 O4 1.661293 1_555
Be3 O19 1.702632 1_555
O0 Sr0 2.646226 1_555
O0 Sr4 2.781541 1_556
O1 Sr1 2.646226 1_555
O1 Sr2 2.781541 1_554
O2 Sr2 2.646226 1_555
O2 Sr1 2.781541 1_555
O3 Sr3 2.646226 1_555
O3 Sr7 2.781541 1_554
O4 Sr4 2.646226 1_555
O4 Sr0 2.781541 1_555
O5 Sr5 2.646226 1_555
O5 Sr6 2.781541 1_556
O6 Sr6 2.646226 1_555
O6 Sr5 2.781541 1_555
O7 Sr7 2.646226 1_555
O7 Sr3 2.781541 1_555
O8 Sr7 2.637262 1_555
O8 Sr2 2.637262 1_565
O8 Sr5 2.647074 1_455
O8 Sr0 2.647074 1_455
O9 Sr4 2.637262 1_545
O9 Sr6 2.637262 1_555
O9 Sr1 2.647074 1_655
O9 Sr3 2.647074 1_655
O10 Sr0 2.637262 1_545
O10 Sr5 2.637262 1_555
O10 Sr7 2.647074 1_555
O10 Sr2 2.647074 1_555
O11 Sr3 2.637262 1_555
O11 Sr1 2.637262 1_565
O11 Sr6 2.647074 1_555
O11 Sr4 2.647074 1_555
O12 Sr4 2.560850 1_556
O12 Sr6 2.560850 1_556
O12 Sr7 2.597735 1_555
O12 Sr2 2.597735 1_565
O13 Sr7 2.560843 1_554
O13 Sr2 2.560843 1_554
O13 Sr6 2.597741 1_555
O13 Sr4 2.597741 1_545
O14 Sr1 2.560850 1_655
O14 Sr3 2.560850 1_655
O14 Sr0 2.597735 1_545
O14 Sr5 2.597735 1_555
O15 Sr5 2.560850 1_455
O15 Sr0 2.560850 1_455
O15 Sr1 2.597735 1_565
O15 Sr3 2.597735 1_555
O16 Sr0 2.614502 1_555
O16 Sr5 2.614502 1_555
O16 Sr2 2.646427 1_565
O16 Sr7 2.646427 1_555
O17 Sr1 2.614502 1_555
O17 Sr3 2.614502 1_555
O17 Sr4 2.646427 1_545
O17 Sr6 2.646427 1_555
O18 Sr7 2.614502 1_555
O18 Sr2 2.614502 1_555
O18 Sr0 2.646427 1_445
O18 Sr5 2.646427 1_455
O19 Sr6 2.614502 1_555
O19 Sr4 2.614502 1_555
O19 Sr1 2.646427 1_665
O19 Sr3 2.646427 1_655
