# generated using pymatgen
data_Al2O3
_symmetry_space_group_name_H-M   'P 1'
_cell_length_a   10.53287227
_cell_length_b   10.30228396
_cell_length_c   10.36690122
_cell_angle_alpha   87.30611125
_cell_angle_beta   93.54363346
_cell_angle_gamma   83.96976239
_symmetry_Int_Tables_number   1
_chemical_formula_structural   Al2O3
_chemical_formula_sum   'Al40 O60'
_cell_volume   1114.95336630
_cell_formula_units_Z   20
loop_
 _symmetry_equiv_pos_site_id
 _symmetry_equiv_pos_as_xyz
  1  'x, y, z'
loop_
 _atom_site_type_symbol
 _atom_site_label
 _atom_site_symmetry_multiplicity
 _atom_site_fract_x
 _atom_site_fract_y
 _atom_site_fract_z
 _atom_site_occupancy
  Al  Al0  1  0.10694400  0.32413100  0.57036400  1
  Al  Al1  1  0.86502300  0.20788600  0.44415900  1
  Al  Al2  1  0.12458600  0.74058700  0.61110500  1
  Al  Al3  1  0.00849300  0.58076400  0.82678600  1
  Al  Al4  1  0.69202200  0.79181800  0.41553600  1
  Al  Al5  1  0.30905300  0.32966600  0.74447800  1
  Al  Al6  1  0.37226900  0.14473200  0.50535900  1
  Al  Al7  1  0.08765200  0.92459600  0.82344500  1
  Al  Al8  1  0.19890100  0.42379900  0.07322300  1
  Al  Al9  1  0.74401800  0.59525300  0.89141800  1
  Al  Al10  1  0.47475100  0.69025800  0.36658300  1
  Al  Al11  1  0.54444900  0.19893100  0.88870200  1
  Al  Al12  1  0.62916800  0.12916300  0.39162600  1
  Al  Al13  1  0.77667000  0.07124000  0.69969100  1
  Al  Al14  1  0.27013000  0.65933100  0.94860900  1
  Al  Al15  1  0.89079800  0.08626000  0.97948500  1
  Al  Al16  1  0.36574600  0.02604300  0.75999200  1
  Al  Al17  1  0.17598900  0.92304400  0.11506100  1
  Al  Al18  1  0.43064300  0.91257900  0.99648700  1
  Al  Al19  1  0.55260300  0.82691300  0.69746600  1
  Al  Al20  1  0.60434600  0.31409200  0.58976900  1
  Al  Al21  1  0.96946500  0.76833100  0.29183100  1
  Al  Al22  1  0.95119500  0.43329000  0.27635800  1
  Al  Al23  1  0.98519400  0.10724300  0.25313500  1
  Al  Al24  1  0.31678100  0.85747700  0.49864400  1
  Al  Al25  1  0.08170500  0.07111000  0.52060600  1
  Al  Al26  1  0.71247900  0.98178000  0.13408100  1
  Al  Al27  1  0.50456700  0.47034300  0.95119600  1
  Al  Al28  1  0.75923900  0.33104200  0.80362000  1
  Al  Al29  1  0.65322000  0.57787400  0.61063800  1
  Al  Al30  1  0.40121800  0.45100000  0.21969200  1
  Al  Al31  1  0.81363000  0.85689700  0.83801600  1
  Al  Al32  1  0.47212200  0.97339200  0.25732900  1
  Al  Al33  1  0.94215700  0.59698500  0.51032100  1
  Al  Al34  1  0.12816800  0.19475300  0.89391900  1
  Al  Al35  1  0.68135200  0.28511000  0.16102200  1
  Al  Al36  1  0.27562200  0.16582400  0.18749000  1
  Al  Al37  1  0.92754000  0.37962000  0.03314500  1
  Al  Al38  1  0.74169200  0.68060700  0.18871100  1
  Al  Al39  1  0.35662800  0.52836300  0.52933100  1
  O  O0  1  0.22859600  0.25513200  0.01719000  1
  O  O1  1  0.51533300  0.47712400  0.59336500  1
  O  O2  1  0.88222500  0.69727500  0.86643100  1
  O  O3  1  0.65412800  0.67499500  0.74956300  1
  O  O4  1  0.88958100  0.45765400  0.87290300  1
  O  O5  1  0.00824300  0.44692600  0.45502300  1
  O  O6  1  0.96720800  0.26308700  0.31761300  1
  O  O7  1  0.19927900  0.18249100  0.49853400  1
  O  O8  1  0.60567500  0.11070600  0.21524300  1
  O  O9  1  0.62256900  0.67884300  0.30247000  1
  O  O10  1  0.42816900  0.34259900  0.87119100  1
  O  O11  1  0.40899700  0.96251400  0.59153800  1
  O  O12  1  0.98254300  0.20934200  0.58026800  1
  O  O13  1  0.25977500  0.41760800  0.59017400  1
  O  O14  1  0.92450900  0.94231200  0.74381900  1
  O  O15  1  0.29301600  0.33326700  0.22796300  1
  O  O16  1  0.44348400  0.86300500  0.81986800  1
  O  O17  1  0.34235400  0.00941500  0.12097600  1
  O  O18  1  0.65718700  0.45149100  0.88275500  1
  O  O19  1  0.28582800  0.69087600  0.55191200  1
  O  O20  1  0.37515400  0.09549000  0.33934200  1
  O  O21  1  0.14838200  0.76596900  0.78620400  1
  O  O22  1  0.13849200  0.07523100  0.20647100  1
  O  O23  1  0.85070800  0.16959700  0.81531900  1
  O  O24  1  0.62767800  0.22151000  0.74203400  1
  O  O25  1  0.54561000  0.72983800  0.52930700  1
  O  O26  1  0.77872300  0.65711500  0.51847800  1
  O  O27  1  0.01578400  0.73686700  0.45904400  1
  O  O28  1  0.16221900  0.91236400  0.55531600  1
  O  O29  1  0.45290600  0.07032800  0.90960200  1
  O  O30  1  0.61004200  0.95089200  0.40298900  1
  O  O31  1  0.30317800  0.55126000  0.10388700  1
  O  O32  1  0.53719600  0.40963000  0.12795700  1
  O  O33  1  0.78254400  0.95059300  0.97381400  1
  O  O34  1  0.89457300  0.60961700  0.27104300  1
  O  O35  1  0.81022000  0.39557500  0.14533900  1
  O  O36  1  0.79551600  0.83648400  0.25949400  1
  O  O37  1  0.40301400  0.54358200  0.36286300  1
  O  O38  1  0.14229000  0.30942000  0.75773700  1
  O  O39  1  0.56463600  0.89219000  0.12318200  1
  O  O40  1  0.14788200  0.53822000  0.92551300  1
  O  O41  1  0.98931600  0.22483900  0.99257900  1
  O  O42  1  0.51145600  0.23127100  0.47709100  1
  O  O43  1  0.71953800  0.26755400  0.34100000  1
  O  O44  1  0.74519400  0.13608500  0.53989100  1
  O  O45  1  0.08457800  0.82138400  0.20301700  1
  O  O46  1  0.37746300  0.83803000  0.34003700  1
  O  O47  1  0.95373100  0.03970400  0.40794600  1
  O  O48  1  0.04510400  0.44136900  0.13608000  1
  O  O49  1  0.05034100  0.98103500  0.97722800  1
  O  O50  1  0.03165400  0.59769400  0.66125500  1
  O  O51  1  0.28273200  0.81891900  0.01438700  1
  O  O52  1  0.67523900  0.21601900  0.99997000  1
  O  O53  1  0.68461900  0.92869400  0.72095600  1
  O  O54  1  0.19473900  0.04930500  0.80113300  1
  O  O55  1  0.70119200  0.66235600  0.03243900  1
  O  O56  1  0.41181200  0.60540600  0.88321200  1
  O  O57  1  0.74307200  0.40829900  0.63556300  1
  O  O58  1  0.37827000  0.18331100  0.68073600  1
  O  O59  1  0.85429900  0.07976900  0.15059300  1
loop_
_geom_bond_atom_site_label_1
_geom_bond_atom_site_label_2
_geom_bond_distance
_geom_bond_site_symmetry_2
Al0 O12 1.859229 1_455
Al0 O7 1.877011 1_555
Al0 O5 1.881159 1_555
Al0 O38 1.950863 1_555
Al0 O13 1.965789 1_555
Al1 O12 1.820278 1_555
Al1 O44 1.845840 1_555
Al1 O43 1.845930 1_555
Al1 O6 1.853622 1_555
Al1 O47 1.944329 1_555
Al2 O21 1.851599 1_555
Al2 O19 1.870518 1_555
Al2 O27 1.895101 1_555
Al2 O50 1.920755 1_555
Al2 O28 1.924306 1_555
Al3 O40 1.741273 1_555
Al3 O50 1.751369 1_555
Al3 O2 1.776807 1_455
Al3 O4 1.938220 1_455
Al4 O30 1.765511 1_555
Al4 O26 1.836501 1_555
Al4 O9 1.861416 1_555
Al4 O36 2.066474 1_555
Al4 O25 2.130252 1_555
Al5 O58 1.778727 1_555
Al5 O10 1.779129 1_555
Al5 O38 1.803274 1_555
Al5 O13 1.819743 1_555
Al6 O20 1.818159 1_555
Al6 O7 1.819028 1_555
Al6 O42 1.825699 1_555
Al6 O58 1.877900 1_555
Al6 O11 2.029528 1_545
Al7 O21 1.760425 1_555
Al7 O49 1.775034 1_555
Al7 O54 1.812515 1_565
Al7 O14 1.847185 1_455
Al8 O48 1.778064 1_555
Al8 O31 1.825059 1_555
Al8 O0 1.859531 1_555
Al8 O40 1.902290 1_554
Al8 O15 1.973443 1_555
Al9 O55 1.711635 1_556
Al9 O3 1.812423 1_555
Al9 O18 1.823476 1_555
Al9 O2 1.906156 1_555
Al9 O4 2.000595 1_555
Al10 O9 1.725248 1_555
Al10 O46 1.743974 1_555
Al10 O37 1.760000 1_555
Al10 O25 1.882033 1_555
Al11 O29 1.731840 1_555
Al11 O52 1.770011 1_555
Al11 O10 1.813863 1_555
Al11 O24 1.819032 1_555
Al12 O42 1.837985 1_555
Al12 O8 1.851378 1_555
Al12 O30 1.867588 1_545
Al12 O43 1.868362 1_555
Al12 O44 1.912462 1_555
Al13 O44 1.755612 1_555
Al13 O23 1.799016 1_555
Al13 O53 1.854841 1_545
Al13 O14 1.954115 1_545
Al13 O24 2.165805 1_555
Al14 O56 1.726722 1_555
Al14 O51 1.823680 1_556
Al14 O40 1.897270 1_555
Al14 O31 1.906019 1_556
Al14 O21 2.224694 1_555
Al15 O59 1.837769 1_556
Al15 O41 1.856217 1_555
Al15 O23 1.873369 1_555
Al15 O33 1.895088 1_545
Al15 O49 1.903712 1_645
Al16 O58 1.802990 1_555
Al16 O16 1.851274 1_545
Al16 O29 1.853385 1_555
Al16 O54 1.870166 1_555
Al16 O11 1.956721 1_545
Al17 O45 1.756698 1_555
Al17 O51 1.871087 1_555
Al17 O22 1.888930 1_565
Al17 O49 1.915733 1_554
Al17 O17 2.045861 1_565
Al18 O39 1.855726 1_556
Al18 O29 1.864423 1_565
Al18 O17 1.897385 1_566
Al18 O51 1.930643 1_556
Al18 O16 1.932787 1_555
Al19 O16 1.790045 1_555
Al19 O53 1.838700 1_555
Al19 O3 1.839090 1_555
Al19 O25 2.051379 1_555
Al19 O11 2.156833 1_555
Al20 O42 1.782585 1_555
Al20 O24 1.795306 1_555
Al20 O1 1.838701 1_555
Al20 O57 1.886245 1_555
Al20 O44 2.333174 1_555
Al21 O45 1.687154 1_655
Al21 O27 1.776923 1_655
Al21 O36 1.895765 1_555
Al21 O34 1.904051 1_555
Al22 O6 1.773275 1_555
Al22 O48 1.812149 1_655
Al22 O34 1.848662 1_555
Al22 O5 1.927708 1_655
Al22 O35 2.030320 1_555
Al23 O22 1.717445 1_655
Al23 O59 1.743585 1_555
Al23 O6 1.764402 1_555
Al23 O47 1.782956 1_555
Al24 O11 1.801384 1_555
Al24 O28 1.808671 1_555
Al24 O46 1.812798 1_555
Al24 O19 1.846051 1_555
Al25 O28 1.771694 1_545
Al25 O7 1.792092 1_555
Al25 O47 1.793942 1_455
Al25 O12 1.830756 1_455
Al26 O33 1.886870 1_554
Al26 O39 1.891984 1_555
Al26 O59 1.892416 1_565
Al26 O8 1.909395 1_565
Al26 O36 2.024205 1_555
Al27 O56 1.710097 1_555
Al27 O18 1.792661 1_555
Al27 O10 1.819353 1_555
Al27 O32 1.906963 1_556
Al28 O18 1.814588 1_555
Al28 O23 1.827356 1_555
Al28 O57 1.871459 1_555
Al28 O24 1.971822 1_555
Al28 O4 2.108207 1_555
Al29 O3 1.791991 1_555
Al29 O1 1.876373 1_555
Al29 O57 1.895900 1_555
Al29 O26 1.906895 1_555
Al29 O25 1.957441 1_555
Al30 O15 1.752179 1_555
Al30 O31 1.755170 1_555
Al30 O32 1.793208 1_555
Al30 O37 1.801795 1_555
Al31 O2 1.729621 1_555
Al31 O33 1.771780 1_555
Al31 O53 1.834912 1_555
Al31 O14 1.835217 1_555
Al32 O20 1.812805 1_565
Al32 O17 1.899834 1_565
Al32 O39 1.920675 1_555
Al32 O46 1.989824 1_555
Al32 O30 2.017289 1_555
Al32 O8 2.146239 1_565
Al33 O5 1.763423 1_655
Al33 O26 1.775693 1_555
Al33 O50 1.776848 1_655
Al33 O27 1.781721 1_655
Al34 O0 1.784617 1_556
Al34 O38 1.821240 1_555
Al34 O41 1.844070 1_455
Al34 O54 1.913208 1_555
Al35 O52 1.845656 1_554
Al35 O35 1.870405 1_555
Al35 O43 1.880418 1_555
Al35 O32 1.885131 1_555
Al35 O8 2.107375 1_555
Al36 O22 1.815796 1_555
Al36 O15 1.819431 1_555
Al36 O17 1.868800 1_555
Al36 O20 1.905642 1_555
Al36 O0 1.962720 1_555
Al37 O41 1.738345 1_554
Al37 O35 1.749226 1_555
Al37 O48 1.772783 1_655
Al37 O4 1.814004 1_554
Al38 O55 1.673907 1_555
Al38 O9 1.775142 1_555
Al38 O34 1.838577 1_555
Al38 O36 1.920773 1_555
Al39 O13 1.731167 1_555
Al39 O1 1.777112 1_555
Al39 O19 1.791685 1_555
Al39 O37 1.826587 1_555
