# generated using pymatgen
data_YSn3
_symmetry_space_group_name_H-M   'P 1'
_cell_length_a   11.35792423
_cell_length_b   11.35792423
_cell_length_c   4.43955100
_cell_angle_alpha   90.00000000
_cell_angle_beta   90.00000000
_cell_angle_gamma   157.39140341
_symmetry_Int_Tables_number   1
_chemical_formula_structural   YSn3
_chemical_formula_sum   'Y2 Sn6'
_cell_volume   220.17022608
_cell_formula_units_Z   2
loop_
 _symmetry_equiv_pos_site_id
 _symmetry_equiv_pos_as_xyz
  1  'x, y, z'
loop_
 _atom_site_type_symbol
 _atom_site_label
 _atom_site_symmetry_multiplicity
 _atom_site_fract_x
 _atom_site_fract_y
 _atom_site_fract_z
 _atom_site_occupancy
  Y  Y0  1  0.51659400  0.48340600  0.50000000  1
  Y  Y1  1  0.78830300  0.21169700  0.00000000  1
  Sn  Sn0  1  0.90009700  0.09990300  0.50000000  1
  Sn  Sn1  1  0.27007700  0.72992300  0.50000000  1
  Sn  Sn2  1  0.13475700  0.86524300  0.50000000  1
  Sn  Sn3  1  0.02586400  0.97413600  0.00000000  1
  Sn  Sn4  1  0.63701800  0.36298200  0.00000000  1
  Sn  Sn5  1  0.40129100  0.59870900  0.00000000  1
loop_
_geom_bond_atom_site_label_1
_geom_bond_atom_site_label_2
_geom_bond_distance
_geom_bond_site_symmetry_2
Sn0 Sn5 3.144021 1_545
Sn0 Sn5 3.144021 1_655
Sn0 Sn5 3.144021 1_546
Sn0 Sn5 3.144021 1_656
Sn0 Y1 3.335962 1_556
Sn0 Y1 3.335962 1_555
Sn0 Y0 3.419170 1_545
Sn0 Y0 3.419170 1_655
Sn1 Sn2 3.014275 1_555
Sn1 Y1 3.170013 1_566
Sn1 Y1 3.170013 1_565
Sn1 Y1 3.170013 1_456
Sn1 Y1 3.170013 1_455
Sn2 Sn4 3.144311 1_455
Sn2 Sn4 3.144311 1_456
Sn2 Sn4 3.144311 1_565
Sn2 Sn4 3.144311 1_566
Sn2 Sn3 3.288006 1_556
Sn2 Sn3 3.288006 1_555
Sn2 Y0 3.447420 1_455
Sn2 Y0 3.447420 1_565
Sn3 Y0 3.150682 1_454
Sn3 Y0 3.150682 1_565
Sn3 Y0 3.150682 1_564
Sn3 Y0 3.150682 1_455
Sn3 Sn4 3.329744 1_565
Sn3 Sn4 3.329744 1_455
Sn4 Y1 3.369898 1_555
Sn4 Y0 3.481812 1_554
Sn4 Y0 3.481812 1_555
Sn5 Y1 3.360233 1_565
Sn5 Y1 3.360233 1_455
Sn5 Y0 3.394708 1_554
Sn5 Y0 3.394708 1_555
