# generated using pymatgen
data_Na2BiWO6
_symmetry_space_group_name_H-M   'P 1'
_cell_length_a   5.87140786
_cell_length_b   5.87140786
_cell_length_c   5.87140786
_cell_angle_alpha   60.00000000
_cell_angle_beta   60.00000000
_cell_angle_gamma   60.00000000
_symmetry_Int_Tables_number   1
_chemical_formula_structural   Na2BiWO6
_chemical_formula_sum   'Na2 Bi1 W1 O6'
_cell_volume   143.12376457
_cell_formula_units_Z   1
loop_
 _symmetry_equiv_pos_site_id
 _symmetry_equiv_pos_as_xyz
  1  'x, y, z'
loop_
 _atom_site_type_symbol
 _atom_site_label
 _atom_site_symmetry_multiplicity
 _atom_site_fract_x
 _atom_site_fract_y
 _atom_site_fract_z
 _atom_site_occupancy
  Na  Na0  1  0.25000000  0.25000000  0.25000000  1
  Na  Na1  1  0.75000000  0.75000000  0.75000000  1
  Bi  Bi0  1  0.00000000  0.00000000  0.00000000  1
  W  W0  1  0.50000000  0.50000000  0.50000000  1
  O  O0  1  0.73367503  0.26632497  0.26632497  1
  O  O1  1  0.26632497  0.73367503  0.73367503  1
  O  O2  1  0.73367503  0.26632497  0.73367503  1
  O  O3  1  0.26632497  0.73367503  0.26632497  1
  O  O4  1  0.73367503  0.73367503  0.26632497  1
  O  O5  1  0.26632497  0.26632497  0.73367503  1
loop_
_geom_bond_atom_site_label_1
_geom_bond_atom_site_label_2
_geom_bond_distance
_geom_bond_site_symmetry_2
Na0 O3 2.938832 1_545
Na0 O2 2.938832 1_455
Na0 O5 2.938832 1_555
Na0 O2 2.938832 1_554
Na0 O5 2.938832 1_554
Na0 O4 2.938832 1_545
Na0 O1 2.938832 1_545
Na0 O0 2.938832 1_455
Na0 O0 2.938832 1_555
Na0 O3 2.938832 1_555
Na0 O4 2.938832 1_455
Na0 O1 2.938832 1_554
Na1 O4 2.938832 1_556
Na1 O1 2.938832 1_655
Na1 O2 2.938832 1_565
Na1 O3 2.938832 1_556
Na1 O0 2.938832 1_556
Na1 O3 2.938832 1_655
Na1 O0 2.938832 1_565
Na1 O5 2.938832 1_655
Na1 O5 2.938832 1_565
Na1 O2 2.938832 1_555
Na1 O4 2.938832 1_555
Na1 O1 2.938832 1_555
Bi0 O3 2.211409 1_545
Bi0 O5 2.211409 1_554
Bi0 O2 2.211409 1_454
Bi0 O1 2.211409 1_544
Bi0 O0 2.211409 1_455
Bi0 O4 2.211409 1_445
O0 W0 1.940303 1_555
O1 W0 1.940303 1_555
O2 W0 1.940303 1_555
O3 W0 1.940303 1_555
O4 W0 1.940303 1_555
O5 W0 1.940303 1_555
