# generated using pymatgen
data_Ba2V2F11
_symmetry_space_group_name_H-M   'P 1'
_cell_length_a   7.84871562
_cell_length_b   7.84871562
_cell_length_c   14.38830900
_cell_angle_alpha   90.00000000
_cell_angle_beta   90.00000000
_cell_angle_gamma   119.99999677
_symmetry_Int_Tables_number   1
_chemical_formula_structural   Ba2V2F11
_chemical_formula_sum   'Ba6 V6 F33'
_cell_volume   767.60463583
_cell_formula_units_Z   3
loop_
 _symmetry_equiv_pos_site_id
 _symmetry_equiv_pos_as_xyz
  1  'x, y, z'
loop_
 _atom_site_type_symbol
 _atom_site_label
 _atom_site_symmetry_multiplicity
 _atom_site_fract_x
 _atom_site_fract_y
 _atom_site_fract_z
 _atom_site_occupancy
  Ba  Ba0  1  0.58467200  0.17109800  0.65571900  1
  Ba  Ba1  1  0.15438600  0.45917600  0.80966800  1
  Ba  Ba2  1  0.58642600  0.41532800  0.98905300  1
  Ba  Ba3  1  0.54082400  0.69520900  0.47633500  1
  Ba  Ba4  1  0.30479100  0.84561400  0.14300200  1
  Ba  Ba5  1  0.82890200  0.41357400  0.32238600  1
  V  V0  1  0.63440400  0.97341900  0.88656900  1
  V  V1  1  0.84706700  0.77464100  0.72729800  1
  V  V2  1  0.22535900  0.07242600  0.39396500  1
  V  V3  1  0.33901500  0.36559600  0.21990300  1
  V  V4  1  0.92757400  0.15293300  0.06063100  1
  V  V5  1  0.02658100  0.66098500  0.55323600  1
  F  F0  1  0.65704800  0.06067800  0.02817700  1
  F  F1  1  0.51581000  0.71691500  0.94087000  1
  F  F2  1  0.40363000  0.34295200  0.36151000  1
  F  F3  1  0.11068600  0.50332200  0.48857500  1
  F  F4  1  0.52174600  0.27748300  0.18218100  1
  F  F5  1  0.95949600  0.60556100  0.17446000  1
  F  F6  1  0.49667800  0.60736400  0.15524200  1
  F  F7  1  0.39443900  0.35393500  0.84112600  1
  F  F8  1  0.75573700  0.47825400  0.51551500  1
  F  F9  1  0.20420900  0.28689200  0.09215400  1
  F  F10  1  0.39263600  0.88931400  0.82190800  1
  F  F11  1  0.93932200  0.59637000  0.69484300  1
  F  F12  1  0.33071000  0.05066700  0.00913800  1
  F  F13  1  0.98415700  0.39715500  0.01433100  1
  F  F14  1  0.71995700  0.66929000  0.34247100  1
  F  F15  1  0.28308500  0.79889500  0.60753700  1
  F  F16  1  0.92412200  0.09289200  0.92262700  1
  F  F17  1  0.08268300  0.79579100  0.42548700  1
  F  F18  1  0.01658700  0.10056600  0.40634500  1
  F  F19  1  0.94933300  0.28004300  0.67580400  1
  F  F20  1  0.08397900  0.98341300  0.73967900  1
  F  F21  1  0.60284500  0.58700200  0.68099700  1
  F  F22  1  0.41299800  0.01584300  0.34766400  1
  F  F23  1  0.16877000  0.07587800  0.25596000  1
  F  F24  1  0.71310800  0.91731700  0.75882100  1
  F  F25  1  0.72251700  0.24426300  0.84884800  1
  F  F26  1  0.20110500  0.48419000  0.27420400  1
  F  F27  1  0.82323800  0.68947500  0.84795400  1
  F  F28  1  0.86623700  0.17676200  0.18128800  1
  F  F29  1  0.89943400  0.91602100  0.07301200  1
  F  F30  1  0.64606500  0.04050400  0.50779300  1
  F  F31  1  0.90710800  0.83123000  0.58929400  1
  F  F32  1  0.31052500  0.13376300  0.51462100  1
loop_
_geom_bond_atom_site_label_1
_geom_bond_atom_site_label_2
_geom_bond_distance
_geom_bond_site_symmetry_2
Ba0 F30 2.511336 1_555
Ba0 F19 2.561068 1_555
Ba0 F15 2.775384 1_545
Ba0 F32 2.864739 1_555
Ba0 F8 2.906411 1_555
Ba0 F25 2.932700 1_555
Ba0 F24 3.031870 1_545
Ba0 F10 3.089885 1_545
Ba0 F11 3.148835 1_555
Ba0 F21 3.216016 1_555
Ba1 F7 2.448123 1_555
Ba1 F19 2.452330 1_455
Ba1 F11 2.925050 1_455
Ba1 F10 2.934673 1_555
Ba1 F25 2.989145 1_455
Ba1 F16 2.996158 1_455
Ba1 F1 3.156644 1_555
Ba1 F13 3.169111 1_456
Ba2 F7 2.511348 1_555
Ba2 F12 2.561068 1_556
Ba2 F1 2.775387 1_555
Ba2 F27 2.864749 1_555
Ba2 F25 2.906421 1_555
Ba2 F4 2.932686 1_556
Ba2 F9 3.031863 1_556
Ba2 F6 3.089885 1_556
Ba2 F0 3.148835 1_556
Ba2 F13 3.216016 1_556
Ba3 F30 2.448130 1_565
Ba3 F14 2.452327 1_555
Ba3 F2 2.925045 1_555
Ba3 F3 2.934674 1_555
Ba3 F8 2.989138 1_555
Ba3 F31 2.996157 1_555
Ba3 F15 3.156648 1_555
Ba3 F21 3.169095 1_555
Ba4 F5 2.448129 1_455
Ba4 F12 2.452332 1_565
Ba4 F0 2.925045 1_565
Ba4 F6 2.934667 1_555
Ba4 F4 2.989142 1_565
Ba4 F23 2.996155 1_565
Ba4 F26 3.156643 1_555
Ba4 F22 3.169097 1_565
Ba5 F5 2.511336 1_555
Ba5 F14 2.561068 1_555
Ba5 F26 2.775383 1_655
Ba5 F28 2.864739 1_555
Ba5 F4 2.906421 1_555
Ba5 F8 2.932700 1_555
Ba5 F17 3.031863 1_655
Ba5 F3 3.089885 1_655
Ba5 F2 3.148835 1_555
Ba5 F22 3.216016 1_555
F0 V4 1.926977 1_555
F0 V0 2.128455 1_544
F1 V0 1.912064 1_555
F2 V2 1.926980 1_555
F2 V3 2.128441 1_555
F3 V5 1.910361 1_555
F4 V3 1.954906 1_555
F6 V3 1.910361 1_555
F8 V5 1.954902 1_655
F9 V4 1.934572 1_455
F9 V3 2.055738 1_555
F10 V0 1.910361 1_555
F11 V1 1.926980 1_555
F11 V5 2.128441 1_655
F13 V4 1.861178 1_555
F15 V5 1.912064 1_555
F16 V4 2.037847 1_556
F16 V0 2.046187 1_545
F17 V2 1.934568 1_565
F17 V5 2.055738 1_555
F18 V2 1.768445 1_555
F20 V1 1.768447 1_455
F21 V1 1.861184 1_555
F22 V2 1.861183 1_555
F23 V2 2.037861 1_555
F23 V3 2.046183 1_555
F24 V1 1.934572 1_555
F24 V0 2.055725 1_555
F25 V0 1.954902 1_545
F26 V3 1.912064 1_555
F27 V1 1.835919 1_555
F28 V4 1.835933 1_555
F29 V4 1.768446 1_565
F31 V1 2.037847 1_555
F31 V5 2.046187 1_655
F32 V2 1.835919 1_555
