# generated using pymatgen
data_BaPa3
_symmetry_space_group_name_H-M   'P 1'
_cell_length_a   5.90174805
_cell_length_b   5.90174805
_cell_length_c   5.90174805
_cell_angle_alpha   132.07370258
_cell_angle_beta   132.07370258
_cell_angle_gamma   70.11264656
_symmetry_Int_Tables_number   1
_chemical_formula_structural   BaPa3
_chemical_formula_sum   'Ba1 Pa3'
_cell_volume   111.02940453
_cell_formula_units_Z   1
loop_
 _symmetry_equiv_pos_site_id
 _symmetry_equiv_pos_as_xyz
  1  'x, y, z'
loop_
 _atom_site_type_symbol
 _atom_site_label
 _atom_site_symmetry_multiplicity
 _atom_site_fract_x
 _atom_site_fract_y
 _atom_site_fract_z
 _atom_site_occupancy
  Ba  Ba0  1  0.00000000  0.00000000  0.00000000  1
  Pa  Pa0  1  0.75000000  0.25000100  0.49999900  1
  Pa  Pa1  1  0.25000100  0.75000000  0.49999900  1
  Pa  Pa2  1  0.50000000  0.50000000  0.00000000  1
loop_
_geom_bond_atom_site_label_1
_geom_bond_atom_site_label_2
_geom_bond_distance
_geom_bond_site_symmetry_2
Ba0 Pa2 3.389854 1_556
Ba0 Pa2 3.389854 1_444
Ba0 Pa2 3.389854 1_545
Ba0 Pa2 3.389854 1_455
Ba0 Pa1 3.402997 1_444
Ba0 Pa0 3.402997 1_455
Ba0 Pa1 3.402997 1_545
Ba0 Pa0 3.402997 1_444
Ba0 Pa0 3.403007 1_555
Ba0 Pa1 3.403007 1_555
Ba0 Pa1 3.403014 1_544
Ba0 Pa0 3.403014 1_454
Pa0 Pa1 3.389848 1_555
Pa0 Pa1 3.389854 1_544
Pa0 Pa1 3.389854 1_656
Pa0 Pa1 3.389861 1_645
Pa0 Pa2 3.402994 1_555
Pa0 Pa2 3.403000 1_656
Pa0 Pa2 3.403011 1_556
Pa0 Pa2 3.403011 1_545
Pa1 Pa2 3.402994 1_555
Pa1 Pa2 3.403000 1_566
Pa1 Pa2 3.403011 1_556
Pa1 Pa2 3.403011 1_455
