# generated using pymatgen
data_Tb11O20
_symmetry_space_group_name_H-M   'P 1'
_cell_length_a   6.59599600
_cell_length_b   6.64951859
_cell_length_c   10.29961335
_cell_angle_alpha   94.66635340
_cell_angle_beta   92.87323226
_cell_angle_gamma   98.87922946
_symmetry_Int_Tables_number   1
_chemical_formula_structural   Tb11O20
_chemical_formula_sum   'Tb11 O20'
_cell_volume   443.94774382
_cell_formula_units_Z   1
loop_
 _symmetry_equiv_pos_site_id
 _symmetry_equiv_pos_as_xyz
  1  'x, y, z'
loop_
 _atom_site_type_symbol
 _atom_site_label
 _atom_site_symmetry_multiplicity
 _atom_site_fract_x
 _atom_site_fract_y
 _atom_site_fract_z
 _atom_site_occupancy
  Tb  Tb0  1  0.00000000  0.00000000  0.00000000  1
  Tb  Tb1  1  0.58562200  0.28831400  0.08458900  1
  Tb  Tb2  1  0.41437800  0.71168600  0.91541100  1
  Tb  Tb3  1  0.08784800  0.58105900  0.18363300  1
  Tb  Tb4  1  0.91215200  0.41894100  0.81636700  1
  Tb  Tb5  1  0.18725500  0.08874900  0.38371700  1
  Tb  Tb6  1  0.81274500  0.91125100  0.61628300  1
  Tb  Tb7  1  0.64729200  0.84065100  0.26259300  1
  Tb  Tb8  1  0.35270800  0.15934900  0.73740700  1
  Tb  Tb9  1  0.72490800  0.36852300  0.43853000  1
  Tb  Tb10  1  0.27509200  0.63147700  0.56147000  1
  O  O0  1  0.66034200  0.93758300  0.04678800  1
  O  O1  1  0.33965800  0.06241700  0.95321200  1
  O  O2  1  0.67855900  0.22544100  0.65069800  1
  O  O3  1  0.32144100  0.77455900  0.34930200  1
  O  O4  1  0.83798400  0.05964800  0.42582100  1
  O  O5  1  0.16201600  0.94035200  0.57417900  1
  O  O6  1  0.59367700  0.43741800  0.88637300  1
  O  O7  1  0.40632300  0.56258200  0.11362700  1
  O  O8  1  0.92712700  0.31615900  0.03986800  1
  O  O9  1  0.07287300  0.68384100  0.96013200  1
  O  O10  1  0.59021700  0.68970300  0.46528200  1
  O  O11  1  0.40978300  0.31029700  0.53471800  1
  O  O12  1  0.75678600  0.52557100  0.24616500  1
  O  O13  1  0.24321400  0.47442900  0.75383500  1
  O  O14  1  0.99006100  0.09609300  0.79429000  1
  O  O15  1  0.00993900  0.90390700  0.20571000  1
  O  O16  1  0.50480500  0.84911000  0.72399200  1
  O  O17  1  0.49519500  0.15089000  0.27600800  1
  O  O18  1  0.09333700  0.41285800  0.37856600  1
  O  O19  1  0.90666300  0.58714200  0.62143400  1
loop_
_geom_bond_atom_site_label_1
_geom_bond_atom_site_label_2
_geom_bond_distance
_geom_bond_site_symmetry_2
O0 Tb0 2.297288 1_665
O0 Tb2 2.327294 1_554
O0 Tb7 2.366103 1_555
O0 Tb1 2.461694 1_565
O1 Tb0 2.297288 1_556
O1 Tb1 2.327294 1_556
O1 Tb8 2.366103 1_555
O1 Tb2 2.461694 1_545
O2 Tb8 2.361134 1_555
O2 Tb4 2.389205 1_555
O2 Tb6 2.399090 1_545
O2 Tb9 2.467682 1_555
O3 Tb7 2.361134 1_555
O3 Tb3 2.389205 1_555
O3 Tb5 2.399090 1_565
O3 Tb10 2.467682 1_555
O4 Tb6 2.268616 1_545
O4 Tb9 2.287083 1_555
O4 Tb7 2.313715 1_545
O4 Tb5 2.347156 1_655
O5 Tb5 2.268616 1_565
O5 Tb10 2.287083 1_555
O5 Tb8 2.313715 1_565
O5 Tb6 2.347156 1_455
O6 Tb4 2.272634 1_555
O6 Tb2 2.329535 1_555
O6 Tb1 2.340450 1_556
O6 Tb8 2.585714 1_555
O7 Tb3 2.272634 1_555
O7 Tb1 2.329535 1_555
O7 Tb2 2.340450 1_554
O7 Tb7 2.585714 1_555
O8 Tb0 2.238442 1_655
O8 Tb3 2.293668 1_655
O8 Tb1 2.304265 1_555
O8 Tb4 2.455601 1_554
O9 Tb0 2.238442 1_566
O9 Tb4 2.293668 1_455
O9 Tb2 2.304265 1_555
O9 Tb3 2.455601 1_556
O10 Tb10 2.339280 1_555
O10 Tb6 2.339731 1_555
O10 Tb7 2.410483 1_555
O10 Tb9 2.437401 1_555
O11 Tb9 2.339280 1_555
O11 Tb5 2.339731 1_555
O11 Tb8 2.410483 1_555
O11 Tb10 2.437401 1_555
O12 Tb3 2.291365 1_655
O12 Tb7 2.315490 1_555
O12 Tb1 2.316823 1_555
O12 Tb9 2.317516 1_555
O13 Tb4 2.291365 1_455
O13 Tb8 2.315490 1_555
O13 Tb2 2.316823 1_555
O13 Tb10 2.317516 1_555
O14 Tb0 2.262939 1_656
O14 Tb4 2.279763 1_555
O14 Tb6 2.283547 1_545
O14 Tb8 2.472229 1_655
O15 Tb0 2.262939 1_565
O15 Tb3 2.279763 1_555
O15 Tb5 2.283547 1_565
O15 Tb7 2.472229 1_455
O16 Tb2 2.306629 1_555
O16 Tb6 2.359760 1_555
O16 Tb10 2.422132 1_555
O16 Tb8 2.426459 1_565
O17 Tb1 2.306629 1_555
O17 Tb5 2.359760 1_555
O17 Tb9 2.422132 1_555
O17 Tb7 2.426459 1_545
O18 Tb5 2.336404 1_555
O18 Tb3 2.377779 1_555
O18 Tb10 2.426805 1_555
O18 Tb9 2.516532 1_455
O19 Tb6 2.336404 1_555
O19 Tb4 2.377779 1_555
O19 Tb9 2.426805 1_555
O19 Tb10 2.516532 1_655
