# generated using pymatgen
data_MgAl4(HO)12
_symmetry_space_group_name_H-M   'P 1'
_cell_length_a   6.59327221
_cell_length_b   7.82160896
_cell_length_c   7.87887899
_cell_angle_alpha   107.55651208
_cell_angle_beta   138.79883022
_cell_angle_gamma   91.11007703
_symmetry_Int_Tables_number   1
_chemical_formula_structural   MgAl4(HO)12
_chemical_formula_sum   'Mg1 Al4 H12 O12'
_cell_volume   234.72571608
_cell_formula_units_Z   1
loop_
 _symmetry_equiv_pos_site_id
 _symmetry_equiv_pos_as_xyz
  1  'x, y, z'
loop_
 _atom_site_type_symbol
 _atom_site_label
 _atom_site_symmetry_multiplicity
 _atom_site_fract_x
 _atom_site_fract_y
 _atom_site_fract_z
 _atom_site_occupancy
  Mg  Mg0  1  0.31994387  0.16591385  0.02607980  1
  Al  Al0  1  0.44253115  0.82164188  0.27139521  1
  Al  Al1  1  0.59416351  0.16837149  0.77999839  1
  Al  Al2  1  0.93038362  0.65754160  0.61233894  1
  Al  Al3  1  0.03890541  0.32806819  0.41091064  1
  H  H0  1  0.02374056  0.94256699  0.54804930  1
  H  H1  1  0.98677682  0.97045814  0.26354553  1
  H  H2  1  0.61576275  0.51583756  0.92843514  1
  H  H3  1  0.36478597  0.43013610  0.01983073  1
  H  H4  1  0.19071895  0.66390807  0.47206394  1
  H  H5  1  0.80398450  0.30722031  0.55476901  1
  H  H6  1  0.28922672  0.10074222  0.27711861  1
  H  H7  1  0.65930550  0.85363127  0.70284353  1
  H  H8  1  0.51331808  0.88074081  0.00922751  1
  H  H9  1  0.31752268  0.34675557  0.89844219  1
  H  H10  1  0.17813856  0.41602924  0.13389791  1
  H  H11  1  0.80981612  0.60882504  0.83647972  1
  O  O0  1  0.95359201  0.91901746  0.61592239  1
  O  O1  1  0.12817284  0.09603474  0.43788569  1
  O  O2  1  0.51475308  0.41364319  0.74891839  1
  O  O3  1  0.48438791  0.60285879  0.30397531  1
  O  O4  1  0.02612192  0.57069312  0.41556320  1
  O  O5  1  0.86650853  0.38987330  0.51712536  1
  O  O6  1  0.45536994  0.07391145  0.30668169  1
  O  O7  1  0.50532864  0.91127208  0.57988660  1
  O  O8  1  0.40964762  0.77034032  0.98769226  1
  O  O9  1  0.63625790  0.16439251  0.02935317  1
  O  O10  1  0.03373922  0.27254039  0.02524244  1
  O  O11  1  0.96077962  0.72029532  0.89850738  1
loop_
_geom_bond_atom_site_label_1
_geom_bond_atom_site_label_2
_geom_bond_distance
_geom_bond_site_symmetry_2
Mg0 O6 2.053534 1_555
Mg0 O9 2.066521 1_555
Mg0 O10 2.074129 1_555
Mg0 O0 2.077270 1_444
Al0 O3 1.801967 1_555
Al0 O6 1.898673 1_565
Al0 O11 1.950314 1_454
Al0 O8 1.982590 1_554
Al0 O7 2.004236 1_555
Al0 O0 2.047410 1_555
Al1 O9 1.776091 1_556
Al1 O10 1.824521 1_656
Al1 O7 1.877420 1_545
Al1 O1 1.890975 1_555
Al1 O2 2.035639 1_555
Al2 O3 1.818313 1_555
Al2 O5 1.914728 1_555
Al2 O8 1.940343 1_655
Al2 O11 2.003315 1_555
Al2 O4 2.029151 1_655
Al2 O0 2.037998 1_555
Al3 O9 1.805837 1_455
Al3 O5 1.853276 1_455
Al3 O4 1.891734 1_555
Al3 O2 1.911464 1_555
Al3 O1 1.941959 1_555
H0 O0 0.980880 1_455
H1 O1 0.971714 1_665
H2 O2 0.981227 1_555
H3 H9 0.777489 1_554
H3 O3 1.713599 1_555
H4 O4 0.976745 1_555
H5 O5 0.982433 1_555
H6 O6 0.976064 1_555
H7 O7 0.986748 1_555
H8 O8 0.977683 1_554
H9 Mg0 1.961422 1_556
H10 O10 1.025362 1_555
H10 O3 1.625079 1_555
H11 O11 0.983384 1_555
