# generated using pymatgen
data_ThN4O17
_symmetry_space_group_name_H-M   'P 1'
_cell_length_a   11.98243239
_cell_length_b   11.75336663
_cell_length_c   7.56917690
_cell_angle_alpha   73.05566373
_cell_angle_beta   69.76823435
_cell_angle_gamma   37.17610192
_symmetry_Int_Tables_number   1
_chemical_formula_structural   ThN4O17
_chemical_formula_sum   'Th2 N8 O34'
_cell_volume   604.16591016
_cell_formula_units_Z   2
loop_
 _symmetry_equiv_pos_site_id
 _symmetry_equiv_pos_as_xyz
  1  'x, y, z'
loop_
 _atom_site_type_symbol
 _atom_site_label
 _atom_site_symmetry_multiplicity
 _atom_site_fract_x
 _atom_site_fract_y
 _atom_site_fract_z
 _atom_site_occupancy
  Th  Th0  1  0.99322700  0.00677300  0.00677300  1
  Th  Th1  1  0.24322700  0.25677300  0.25677300  1
  N  N0  1  0.21745200  0.78888100  0.32170600  1
  N  N1  1  0.67196000  0.32170600  0.78888100  1
  N  N2  1  0.46111900  0.03254800  0.57804000  1
  N  N3  1  0.92829400  0.57804000  0.03254800  1
  N  N4  1  0.45653800  0.88068500  0.15306000  1
  N  N5  1  0.50971700  0.15306000  0.88068500  1
  N  N6  1  0.36931500  0.79346200  0.74028300  1
  N  N7  1  0.09694000  0.74028300  0.79346200  1
  O  O0  1  0.77124700  0.39515800  0.35089200  1
  O  O1  1  0.48270400  0.35089200  0.39515800  1
  O  O2  1  0.85484200  0.47875300  0.76729600  1
  O  O3  1  0.89910800  0.76729600  0.47875300  1
  O  O4  1  0.01514900  0.27655100  0.38284600  1
  O  O5  1  0.32545500  0.38284600  0.27655100  1
  O  O6  1  0.97344900  0.23485100  0.92454500  1
  O  O7  1  0.86715400  0.92454500  0.23485100  1
  O  O8  1  0.33246400  0.27868500  0.89301400  1
  O  O9  1  0.49583700  0.89301400  0.27868500  1
  O  O10  1  0.97131500  0.91753600  0.75416300  1
  O  O11  1  0.35698600  0.75416300  0.91753600  1
  O  O12  1  0.52079200  0.70653100  0.63278500  1
  O  O13  1  0.13989100  0.63278500  0.70653100  1
  O  O14  1  0.54346900  0.72920800  0.11010900  1
  O  O15  1  0.61721500  0.11010900  0.72920800  1
  O  O16  1  0.98428300  0.42440200  0.07815400  1
  O  O17  1  0.51316100  0.07815400  0.42440200  1
  O  O18  1  0.82559800  0.26571700  0.73683900  1
  O  O19  1  0.17184600  0.73683900  0.26571700  1
  O  O20  1  0.12941300  0.95490200  0.26851900  1
  O  O21  1  0.64716600  0.26851900  0.95490200  1
  O  O22  1  0.29509800  0.12058700  0.60283400  1
  O  O23  1  0.98148100  0.60283400  0.12058700  1
  O  O24  1  0.75971800  0.24028200  0.24028200  1
  O  O25  1  0.00971800  0.49028200  0.49028200  1
  O  O26  1  0.32099400  0.03719000  0.07344500  1
  O  O27  1  0.56837100  0.07344500  0.03719000  1
  O  O28  1  0.21281000  0.92900600  0.68162900  1
  O  O29  1  0.17655500  0.68162900  0.92900600  1
  O  O30  1  0.34057800  0.68113800  0.41430200  1
  O  O31  1  0.56398200  0.41430200  0.68113800  1
  O  O32  1  0.56886200  0.90942200  0.68601800  1
  O  O33  1  0.83569800  0.68601800  0.90942200  1
loop_
_geom_bond_atom_site_label_1
_geom_bond_atom_site_label_2
_geom_bond_distance
_geom_bond_site_symmetry_2
N0 O30 1.221512 1_555
N0 O20 1.279866 1_555
N0 O19 1.302421 1_555
N1 O31 1.221505 1_555
N1 O21 1.279862 1_555
N1 O18 1.302432 1_555
N2 O32 1.221507 1_545
N2 O22 1.279867 1_555
N2 O17 1.302426 1_555
N3 O33 1.221511 1_554
N3 O23 1.279857 1_555
N3 O16 1.302432 1_555
N4 O14 1.228127 1_555
N4 O9 1.282832 1_555
N4 O26 1.286301 1_565
N5 O15 1.228132 1_555
N5 O8 1.282832 1_555
N5 O27 1.286301 1_556
N6 O12 1.228130 1_555
N6 O11 1.282832 1_555
N6 O28 1.286301 1_555
N7 O13 1.228137 1_555
N7 O10 1.282832 1_455
N7 O29 1.286301 1_555
O0 O4 2.084001 1_655
O1 O5 2.084001 1_555
O2 O6 2.084001 1_555
O3 O7 2.084001 1_555
O4 Th1 2.397235 1_555
O5 Th1 2.397246 1_555
O6 Th0 2.397235 1_556
O7 Th0 2.397243 1_565
O8 Th1 2.603827 1_556
O9 Th1 2.603827 1_565
O10 Th0 2.603827 1_566
O11 Th0 2.603827 1_466
O16 Th1 2.635139 1_655
O17 Th1 2.635139 1_555
O18 Th0 2.635139 1_556
O19 Th0 2.635139 1_465
O20 Th0 2.628000 1_465
O21 Th0 2.628000 1_556
O22 Th1 2.628000 1_555
O23 Th1 2.628000 1_655
O24 Th0 2.378020 1_555
O25 Th1 2.378020 1_555
O26 Th1 2.610623 1_555
O27 Th1 2.610623 1_555
O28 Th0 2.610623 1_466
O29 Th0 2.610623 1_466
