# generated using pymatgen
data_CaO
_symmetry_space_group_name_H-M   'P 1'
_cell_length_a   12.08329920
_cell_length_b   11.73812587
_cell_length_c   11.81033359
_cell_angle_alpha   87.31984067
_cell_angle_beta   86.93998073
_cell_angle_gamma   98.08408244
_symmetry_Int_Tables_number   1
_chemical_formula_structural   CaO
_chemical_formula_sum   'Ca50 O50'
_cell_volume   1653.61447638
_cell_formula_units_Z   50
loop_
 _symmetry_equiv_pos_site_id
 _symmetry_equiv_pos_as_xyz
  1  'x, y, z'
loop_
 _atom_site_type_symbol
 _atom_site_label
 _atom_site_symmetry_multiplicity
 _atom_site_fract_x
 _atom_site_fract_y
 _atom_site_fract_z
 _atom_site_occupancy
  Ca  Ca0  1  0.54980112  0.15044751  0.71031644  1
  Ca  Ca1  1  0.04425345  0.14568693  0.65541228  1
  Ca  Ca2  1  0.09308514  0.01147996  0.42250995  1
  Ca  Ca3  1  0.12776757  0.19904914  0.93236760  1
  Ca  Ca4  1  0.62833447  0.16224864  0.40048237  1
  Ca  Ca5  1  0.93217533  0.71601055  0.94716502  1
  Ca  Ca6  1  0.99071504  0.60754463  0.67621122  1
  Ca  Ca7  1  0.26231935  0.81447022  0.36992211  1
  Ca  Ca8  1  0.22099091  0.41840271  0.74794183  1
  Ca  Ca9  1  0.15003827  0.92118034  0.92435789  1
  Ca  Ca10  1  0.56057600  0.72575516  0.01152953  1
  Ca  Ca11  1  0.04277915  0.63124493  0.41276929  1
  Ca  Ca12  1  0.96156160  0.40029631  0.92101040  1
  Ca  Ca13  1  0.30391116  0.16415189  0.67916903  1
  Ca  Ca14  1  0.75982544  0.92517224  0.21940574  1
  Ca  Ca15  1  0.20928529  0.35844751  0.11252424  1
  Ca  Ca16  1  0.28174221  0.65259086  0.57801231  1
  Ca  Ca17  1  0.72075715  0.50418822  0.92883365  1
  Ca  Ca18  1  0.47282061  0.36464642  0.55934253  1
  Ca  Ca19  1  0.06776447  0.87668861  0.66940297  1
  Ca  Ca20  1  0.45420536  0.02173436  0.16406038  1
  Ca  Ca21  1  0.83369858  0.40489615  0.45437176  1
  Ca  Ca22  1  0.53945524  0.80897176  0.33868055  1
  Ca  Ca23  1  0.84457787  0.37712032  0.18987656  1
  Ca  Ca24  1  0.51026719  0.73296598  0.76253162  1
  Ca  Ca25  1  0.65096643  0.98051549  0.98750659  1
  Ca  Ca26  1  0.82961928  0.24298287  0.71556345  1
  Ca  Ca27  1  0.39284821  0.94306262  0.88911761  1
  Ca  Ca28  1  0.45152241  0.45697762  0.85825627  1
  Ca  Ca29  1  0.22922744  0.66317227  0.86762905  1
  Ca  Ca30  1  0.91456304  0.03259390  0.95132408  1
  Ca  Ca31  1  0.06043643  0.57987307  0.14429935  1
  Ca  Ca32  1  0.71845063  0.58498040  0.65164509  1
  Ca  Ca33  1  0.28371752  0.74864304  0.11293254  1
  Ca  Ca34  1  0.01728402  0.86444661  0.17209846  1
  Ca  Ca35  1  0.81172193  0.80353051  0.46600493  1
  Ca  Ca36  1  0.60718916  0.53090779  0.37333423  1
  Ca  Ca37  1  0.96189113  0.15638654  0.21164924  1
  Ca  Ca38  1  0.80518272  0.62706686  0.20612054  1
  Ca  Ca39  1  0.39447838  0.22038865  0.94930070  1
  Ca  Ca40  1  0.67242458  0.23630363  0.99265588  1
  Ca  Ca41  1  0.59498226  0.92831042  0.57626659  1
  Ca  Ca42  1  0.11304271  0.33669235  0.46033455  1
  Ca  Ca43  1  0.21400562  0.07286968  0.17166903  1
  Ca  Ca44  1  0.84047593  0.09194334  0.47437280  1
  Ca  Ca45  1  0.31956462  0.92054672  0.61053867  1
  Ca  Ca46  1  0.79855977  0.83587770  0.75212159  1
  Ca  Ca47  1  0.35498459  0.18420588  0.36905971  1
  Ca  Ca48  1  0.31528168  0.54045606  0.31233043  1
  Ca  Ca49  1  0.50945662  0.34772730  0.18709433  1
  O  O0  1  0.38393277  0.72198023  0.26969224  1
  O  O1  1  0.92560270  0.95475869  0.57401522  1
  O  O2  1  0.19503853  0.28699451  0.61844438  1
  O  O3  1  0.57835512  0.88772542  0.14627857  1
  O  O4  1  0.11003029  0.73340930  0.00982828  1
  O  O5  1  0.69636508  0.71710281  0.33040476  1
  O  O6  1  0.25813762  0.09452469  0.86133800  1
  O  O7  1  0.78602735  0.09207321  0.07040549  1
  O  O8  1  0.53188102  0.09983590  0.94349198  1
  O  O9  1  0.88143473  0.53067831  0.04087447  1
  O  O10  1  0.67811498  0.97073984  0.40141840  1
  O  O11  1  0.45562296  0.17483801  0.53118586  1
  O  O12  1  0.23265394  0.53787426  0.14956740  1
  O  O13  1  0.84836367  0.64958168  0.78524210  1
  O  O14  1  0.08702674  0.52163088  0.80000444  1
  O  O15  1  0.70680575  0.12026596  0.61628007  1
  O  O16  1  0.46769239  0.96751547  0.71083655  1
  O  O17  1  0.22470458  0.83081064  0.77190140  1
  O  O18  1  0.65635311  0.43879479  0.53098441  1
  O  O19  1  0.43607736  0.41538844  0.36489117  1
  O  O20  1  0.85429946  0.79811262  0.10320585  1
  O  O21  1  0.97032199  0.89553865  0.84230786  1
  O  O22  1  0.67706009  0.76782302  0.61754867  1
  O  O23  1  0.44684499  0.30103877  0.74659452  1
  O  O24  1  0.17607327  0.03399727  0.59434606  1
  O  O25  1  0.26328574  0.35536245  0.92339603  1
  O  O26  1  0.06075442  0.04331573  0.06244309  1
  O  O27  1  0.65207208  0.84724681  0.87055176  1
  O  O28  1  0.11619520  0.74331436  0.26178134  1
  O  O29  1  0.30026826  0.94548094  0.07075435  1
  O  O30  1  0.41524256  0.80522837  0.50721179  1
  O  O31  1  0.93147304  0.51205106  0.29698316  1
  O  O32  1  0.87857700  0.61085657  0.52992214  1
  O  O33  1  0.93451406  0.96639567  0.30838815  1
  O  O34  1  0.35747547  0.57663110  0.73043667  1
  O  O35  1  0.94193827  0.27535547  0.55594487  1
  O  O36  1  0.01938570  0.31625776  0.08408622  1
  O  O37  1  0.59178688  0.59985950  0.85608163  1
  O  O38  1  0.68187636  0.45828692  0.22419619  1
  O  O39  1  0.13664137  0.75778620  0.54112731  1
  O  O40  1  0.12033792  0.19162635  0.32772303  1
  O  O41  1  0.39916605  0.74733158  0.94138177  1
  O  O42  1  0.81646857  0.23805585  0.33560253  1
  O  O43  1  0.33475390  0.23016574  0.13996109  1
  O  O44  1  0.18535581  0.52837758  0.45958102  1
  O  O45  1  0.78221797  0.34696556  0.85828822  1
  O  O46  1  0.27455505  0.00148492  0.33403597  1
  O  O47  1  0.97582355  0.19210815  0.82572808  1
  O  O48  1  0.52044969  0.17081651  0.26259612  1
  O  O49  1  0.55546249  0.36735781  0.99635839  1
loop_
_geom_bond_atom_site_label_1
_geom_bond_atom_site_label_2
_geom_bond_distance
_geom_bond_site_symmetry_2
Ca0 O15 2.226868 1_555
Ca0 O16 2.234755 1_545
Ca0 O23 2.342705 1_555
Ca0 O11 2.478855 1_555
Ca0 O8 2.780438 1_555
Ca1 O47 2.253517 1_455
Ca1 O2 2.293218 1_555
Ca1 O24 2.308486 1_555
Ca1 O35 2.396297 1_455
Ca1 O1 2.728969 1_445
Ca2 O40 2.318730 1_555
Ca2 O24 2.320977 1_555
Ca2 O46 2.398535 1_555
Ca2 O33 2.413545 1_445
Ca2 O1 2.619833 1_445
Ca3 O25 2.275412 1_555
Ca3 O47 2.275541 1_455
Ca3 O6 2.278025 1_555
Ca3 O26 2.354908 1_556
Ca3 O36 2.702854 1_556
Ca4 O48 2.147012 1_555
Ca4 O42 2.393342 1_555
Ca4 O10 2.407058 1_545
Ca4 O11 2.554229 1_555
Ca4 O15 2.812377 1_555
Ca5 O4 2.295308 1_656
Ca5 O13 2.326989 1_555
Ca5 O20 2.333776 1_556
Ca5 O21 2.368271 1_555
Ca5 O9 2.379208 1_556
Ca6 O14 2.209696 1_655
Ca6 O13 2.218545 1_555
Ca6 O32 2.254114 1_555
Ca6 O39 2.706742 1_655
Ca7 O46 2.198958 1_565
Ca7 O0 2.263292 1_555
Ca7 O28 2.317782 1_555
Ca7 O39 2.469713 1_555
Ca7 O30 2.532797 1_555
Ca8 O2 2.225416 1_555
Ca8 O14 2.231962 1_555
Ca8 O25 2.275669 1_555
Ca8 O34 2.297462 1_555
Ca9 O6 2.325369 1_565
Ca9 O17 2.335724 1_555
Ca9 O4 2.356009 1_556
Ca9 O21 2.411107 1_455
Ca9 O26 2.518861 1_566
Ca9 O29 2.569353 1_556
Ca10 O41 2.201418 1_554
Ca10 O27 2.272927 1_554
Ca10 O37 2.456239 1_554
Ca10 O3 2.529439 1_555
Ca11 O28 2.231780 1_555
Ca11 O44 2.314302 1_555
Ca11 O32 2.334678 1_455
Ca11 O31 2.341457 1_455
Ca11 O39 2.389783 1_555
Ca12 O36 2.308793 1_656
Ca12 O14 2.310899 1_655
Ca12 O45 2.338802 1_555
Ca12 O9 2.399315 1_556
Ca12 O47 2.760945 1_555
Ca13 O2 2.204931 1_555
Ca13 O6 2.276862 1_555
Ca13 O24 2.316976 1_555
Ca13 O23 2.384286 1_555
Ca13 O11 2.450226 1_555
Ca14 O3 2.390380 1_555
Ca14 O33 2.406496 1_555
Ca14 O10 2.431315 1_555
Ca14 O20 2.431858 1_555
Ca14 O7 2.545324 1_565
Ca14 O5 2.708895 1_555
Ca15 O12 2.153841 1_555
Ca15 O25 2.296725 1_554
Ca15 O43 2.306461 1_555
Ca15 O36 2.324121 1_555
Ca16 O34 2.264581 1_555
Ca16 O44 2.307758 1_555
Ca16 O30 2.326904 1_555
Ca16 O39 2.329953 1_555
Ca17 O37 2.230000 1_555
Ca17 O45 2.261586 1_555
Ca17 O9 2.400022 1_556
Ca17 O49 2.452100 1_555
Ca17 O13 2.622235 1_555
Ca18 O11 2.250373 1_555
Ca18 O18 2.266797 1_555
Ca18 O23 2.291792 1_555
Ca18 O19 2.425131 1_555
Ca19 O24 2.225207 1_565
Ca19 O39 2.307726 1_555
Ca19 O21 2.337551 1_455
Ca19 O1 2.369072 1_455
Ca19 O17 2.413072 1_555
Ca20 O48 2.225593 1_555
Ca20 O29 2.306119 1_545
Ca20 O3 2.330200 1_545
Ca20 O8 2.789437 1_554
Ca20 O46 2.853711 1_555
Ca20 O43 3.020277 1_555
Ca21 O31 2.358384 1_555
Ca21 O18 2.373944 1_555
Ca21 O35 2.453166 1_555
Ca21 O42 2.453495 1_555
Ca21 O32 2.611443 1_555
Ca22 O0 2.222522 1_555
Ca22 O5 2.309182 1_555
Ca22 O3 2.409624 1_555
Ca22 O30 2.422950 1_555
Ca22 O10 2.516183 1_555
Ca23 O31 2.252238 1_555
Ca23 O42 2.293677 1_555
Ca23 O38 2.326993 1_555
Ca23 O9 2.436794 1_555
Ca23 O36 2.599844 1_655
Ca24 O37 2.240480 1_555
Ca24 O41 2.467106 1_555
Ca24 O34 2.471162 1_555
Ca24 O27 2.471834 1_555
Ca24 O22 2.548599 1_555
Ca24 O16 2.914111 1_555
Ca25 O27 2.135696 1_555
Ca25 O3 2.199290 1_556
Ca25 O8 2.209312 1_565
Ca25 O7 2.241897 1_566
Ca26 O45 2.223764 1_555
Ca26 O35 2.248318 1_555
Ca26 O15 2.322632 1_555
Ca26 O47 2.374840 1_555
Ca27 O16 2.236250 1_555
Ca27 O41 2.363714 1_555
Ca27 O29 2.369070 1_556
Ca27 O8 2.444859 1_565
Ca27 O6 2.595084 1_565
Ca27 O17 2.738335 1_555
Ca28 O37 2.208605 1_555
Ca28 O23 2.301611 1_555
Ca28 O49 2.402940 1_555
Ca28 O34 2.444724 1_555
Ca28 O25 2.480390 1_555
Ca29 O17 2.232052 1_555
Ca29 O41 2.377404 1_555
Ca29 O4 2.404129 1_556
Ca29 O14 2.412120 1_555
Ca29 O34 2.527309 1_555
Ca30 O7 2.245265 1_556
Ca30 O26 2.249214 1_656
Ca30 O21 2.259589 1_545
Ca30 O47 2.342498 1_555
Ca31 O12 2.208341 1_555
Ca31 O4 2.335875 1_555
Ca31 O31 2.351725 1_455
Ca31 O28 2.458644 1_555
Ca31 O9 2.549607 1_455
Ca32 O22 2.293724 1_555
Ca32 O32 2.323680 1_555
Ca32 O18 2.349245 1_555
Ca32 O13 2.360147 1_555
Ca32 O37 2.814730 1_555
Ca33 O0 2.298627 1_555
Ca33 O29 2.319127 1_555
Ca33 O41 2.399673 1_554
Ca33 O4 2.471239 1_555
Ca33 O12 2.476044 1_555
Ca33 O28 2.601149 1_555
Ca34 O20 2.223924 1_455
Ca34 O28 2.245947 1_555
Ca34 O33 2.316921 1_455
Ca34 O26 2.392546 1_565
Ca34 O4 2.797464 1_555
Ca35 O22 2.335326 1_555
Ca35 O5 2.351477 1_555
Ca35 O1 2.526669 1_555
Ca35 O32 2.599366 1_555
Ca35 O33 2.809969 1_555
Ca35 O10 2.814802 1_555
Ca36 O38 2.197860 1_555
Ca36 O18 2.258124 1_555
Ca36 O19 2.317263 1_555
Ca36 O5 2.317454 1_555
Ca37 O36 2.351837 1_655
Ca37 O40 2.413801 1_655
Ca37 O33 2.429436 1_545
Ca37 O42 2.545617 1_555
Ca37 O26 2.594955 1_655
Ca37 O7 2.813060 1_555
Ca38 O20 2.284793 1_555
Ca38 O38 2.299303 1_555
Ca38 O5 2.308732 1_555
Ca38 O31 2.433463 1_555
Ca38 O9 2.499110 1_555
Ca39 O8 2.328373 1_555
Ca39 O43 2.340594 1_556
Ca39 O6 2.370183 1_555
Ca39 O25 2.414446 1_555
Ca39 O49 2.515976 1_555
Ca39 O23 2.546723 1_555
Ca40 O49 2.230901 1_555
Ca40 O45 2.250212 1_555
Ca40 O8 2.283482 1_555
Ca40 O7 2.497302 1_556
Ca41 O10 2.250118 1_555
Ca41 O16 2.260507 1_555
Ca41 O22 2.293753 1_555
Ca41 O15 2.537211 1_565
Ca41 O30 2.624151 1_555
Ca42 O2 2.251018 1_555
Ca42 O44 2.295764 1_555
Ca42 O35 2.307396 1_455
Ca42 O40 2.374266 1_555
Ca43 O43 2.190299 1_555
Ca43 O46 2.255342 1_555
Ca43 O29 2.283698 1_545
Ca43 O26 2.308622 1_555
Ca43 O40 2.661263 1_555
Ca44 O15 2.332880 1_555
Ca44 O1 2.335344 1_545
Ca44 O42 2.374775 1_555
Ca44 O10 2.474962 1_545
Ca44 O35 2.577588 1_555
Ca44 O33 2.794489 1_545
Ca45 O16 2.218256 1_555
Ca45 O30 2.258774 1_555
Ca45 O17 2.301019 1_555
Ca45 O24 2.340343 1_565
Ca45 O39 2.891330 1_555
Ca46 O27 2.219647 1_555
Ca46 O22 2.314638 1_555
Ca46 O13 2.369045 1_555
Ca46 O21 2.414421 1_555
Ca46 O1 2.739841 1_555
Ca47 O46 2.292468 1_555
Ca47 O11 2.328881 1_555
Ca47 O48 2.332724 1_555
Ca47 O19 2.749720 1_555
Ca47 O43 2.764593 1_555
Ca47 O40 2.915159 1_555
Ca48 O0 2.199943 1_555
Ca48 O12 2.212415 1_555
Ca48 O44 2.265399 1_555
Ca48 O19 2.298952 1_555
Ca49 O48 2.245462 1_555
Ca49 O49 2.284362 1_554
Ca49 O38 2.367901 1_555
Ca49 O19 2.445716 1_555
Ca49 O43 2.459347 1_555
