# generated using pymatgen
data_NaLiLu2F8
_symmetry_space_group_name_H-M   'P 1'
_cell_length_a   6.63257864
_cell_length_b   6.63257864
_cell_length_c   6.98972500
_cell_angle_alpha   90.00000000
_cell_angle_beta   90.00000000
_cell_angle_gamma   103.20499327
_symmetry_Int_Tables_number   1
_chemical_formula_structural   NaLiLu2F8
_chemical_formula_sum   'Na2 Li2 Lu4 F16'
_cell_volume   299.35545796
_cell_formula_units_Z   2
loop_
 _symmetry_equiv_pos_site_id
 _symmetry_equiv_pos_as_xyz
  1  'x, y, z'
loop_
 _atom_site_type_symbol
 _atom_site_label
 _atom_site_symmetry_multiplicity
 _atom_site_fract_x
 _atom_site_fract_y
 _atom_site_fract_z
 _atom_site_occupancy
  Na  Na0  1  0.65512500  0.65512500  0.25000000  1
  Na  Na1  1  0.34487500  0.34487500  0.75000000  1
  Li  Li0  1  0.00000000  0.00000000  0.00000000  1
  Li  Li1  1  0.00000000  0.00000000  0.50000000  1
  Lu  Lu0  1  0.07528300  0.45010500  0.25000000  1
  Lu  Lu1  1  0.92471700  0.54989500  0.75000000  1
  Lu  Lu2  1  0.45010500  0.07528300  0.25000000  1
  Lu  Lu3  1  0.54989500  0.92471700  0.75000000  1
  F  F0  1  0.08954200  0.08954200  0.25000000  1
  F  F1  1  0.91045800  0.91045800  0.75000000  1
  F  F2  1  0.93536100  0.65575800  0.04934200  1
  F  F3  1  0.06463900  0.34424200  0.95065800  1
  F  F4  1  0.65575800  0.93536100  0.45065800  1
  F  F5  1  0.34424200  0.06463900  0.54934200  1
  F  F6  1  0.38653800  0.38653800  0.25000000  1
  F  F7  1  0.61346200  0.61346200  0.75000000  1
  F  F8  1  0.74592800  0.30545300  0.25000000  1
  F  F9  1  0.25407200  0.69454700  0.75000000  1
  F  F10  1  0.30545300  0.74592800  0.25000000  1
  F  F11  1  0.69454700  0.25407200  0.75000000  1
  F  F12  1  0.06463900  0.34424200  0.54934200  1
  F  F13  1  0.93536100  0.65575800  0.45065800  1
  F  F14  1  0.34424200  0.06463900  0.95065800  1
  F  F15  1  0.65575800  0.93536100  0.04934200  1
loop_
_geom_bond_atom_site_label_1
_geom_bond_atom_site_label_2
_geom_bond_distance
_geom_bond_site_symmetry_2
F0 Li0 1.896785 1_555
F0 Li1 1.896785 1_555
F0 Lu2 2.414822 1_555
F0 Lu0 2.414822 1_555
F1 Li0 1.896785 1_666
F1 Li1 1.896785 1_665
F1 Lu1 2.414822 1_555
F1 Lu3 2.414822 1_555
F2 Lu1 2.202984 1_554
F2 Li0 2.251353 1_665
F2 Lu0 2.295050 1_655
F2 Na0 2.327724 1_555
F3 Lu0 2.202984 1_556
F3 Li0 2.251353 1_556
F3 Lu1 2.295050 1_455
F3 Na1 2.327724 1_555
F4 Lu3 2.202984 1_555
F4 Li1 2.251353 1_665
F4 Lu2 2.295050 1_565
F4 Na0 2.327724 1_555
F5 Lu2 2.202984 1_555
F5 Li1 2.251353 1_555
F5 Lu3 2.295050 1_545
F5 Na1 2.327724 1_555
F6 Lu0 2.199376 1_555
F6 Lu2 2.199376 1_555
F6 Na0 2.212934 1_555
F7 Lu1 2.199376 1_555
F7 Lu3 2.199376 1_555
F7 Na1 2.212934 1_555
F8 Lu0 2.175978 1_655
F8 Lu2 2.193582 1_555
F8 Na0 2.525802 1_555
F9 Lu1 2.175978 1_455
F9 Lu3 2.193582 1_555
F9 Na1 2.525802 1_555
F10 Lu2 2.175978 1_565
F10 Lu0 2.193582 1_555
F10 Na0 2.525802 1_555
F11 Lu3 2.175978 1_545
F11 Lu1 2.193582 1_555
F11 Na1 2.525802 1_555
F12 Lu0 2.202984 1_555
F12 Li1 2.251353 1_555
F12 Lu1 2.295050 1_455
F12 Na1 2.327724 1_555
F13 Lu1 2.202984 1_555
F13 Li1 2.251353 1_665
F13 Lu0 2.295050 1_655
F13 Na0 2.327724 1_555
F14 Lu2 2.202984 1_556
F14 Li0 2.251353 1_556
F14 Lu3 2.295050 1_545
F14 Na1 2.327724 1_555
F15 Lu3 2.202984 1_554
F15 Li0 2.251353 1_665
F15 Lu2 2.295050 1_565
F15 Na0 2.327724 1_555
