# generated using pymatgen
data_NaLiTm2F8
_symmetry_space_group_name_H-M   'P 1'
_cell_length_a   6.65348576
_cell_length_b   6.65348576
_cell_length_c   7.00904900
_cell_angle_alpha   90.00000000
_cell_angle_beta   90.00000000
_cell_angle_gamma   103.18125099
_symmetry_Int_Tables_number   1
_chemical_formula_structural   NaLiTm2F8
_chemical_formula_sum   'Na2 Li2 Tm4 F16'
_cell_volume   302.10785870
_cell_formula_units_Z   2
loop_
 _symmetry_equiv_pos_site_id
 _symmetry_equiv_pos_as_xyz
  1  'x, y, z'
loop_
 _atom_site_type_symbol
 _atom_site_label
 _atom_site_symmetry_multiplicity
 _atom_site_fract_x
 _atom_site_fract_y
 _atom_site_fract_z
 _atom_site_occupancy
  Na  Na0  1  0.65591800  0.65591800  0.25000000  1
  Na  Na1  1  0.34408200  0.34408200  0.75000000  1
  Li  Li0  1  0.00000000  0.00000000  0.00000000  1
  Li  Li1  1  0.00000000  0.00000000  0.50000000  1
  Tm  Tm0  1  0.07540700  0.45014600  0.25000000  1
  Tm  Tm1  1  0.92459300  0.54985400  0.75000000  1
  Tm  Tm2  1  0.45014600  0.07540700  0.25000000  1
  Tm  Tm3  1  0.54985400  0.92459300  0.75000000  1
  F  F0  1  0.08774400  0.08774400  0.25000000  1
  F  F1  1  0.91225600  0.91225600  0.75000000  1
  F  F2  1  0.93466800  0.65759400  0.05017600  1
  F  F3  1  0.06533200  0.34240600  0.94982400  1
  F  F4  1  0.65759400  0.93466800  0.44982400  1
  F  F5  1  0.34240600  0.06533200  0.55017600  1
  F  F6  1  0.38818400  0.38818400  0.25000000  1
  F  F7  1  0.61181600  0.61181600  0.75000000  1
  F  F8  1  0.74604400  0.30453800  0.25000000  1
  F  F9  1  0.25395600  0.69546200  0.75000000  1
  F  F10  1  0.30453800  0.74604400  0.25000000  1
  F  F11  1  0.69546200  0.25395600  0.75000000  1
  F  F12  1  0.06533200  0.34240600  0.55017600  1
  F  F13  1  0.93466800  0.65759400  0.44982400  1
  F  F14  1  0.34240600  0.06533200  0.94982400  1
  F  F15  1  0.65759400  0.93466800  0.05017600  1
loop_
_geom_bond_atom_site_label_1
_geom_bond_atom_site_label_2
_geom_bond_distance
_geom_bond_site_symmetry_2
F0 Li1 1.896480 1_555
F0 Li0 1.896480 1_555
F0 Tm2 2.431268 1_555
F0 Tm0 2.431268 1_555
F1 Li1 1.896480 1_665
F1 Li0 1.896480 1_666
F1 Tm3 2.431268 1_555
F1 Tm1 2.431268 1_555
F2 Tm1 2.218794 1_554
F2 Li0 2.247479 1_665
F2 Tm0 2.309332 1_655
F2 Na0 2.322082 1_555
F3 Tm0 2.218794 1_556
F3 Li0 2.247479 1_556
F3 Tm1 2.309332 1_455
F3 Na1 2.322082 1_555
F4 Tm3 2.218794 1_555
F4 Li1 2.247479 1_665
F4 Tm2 2.309332 1_565
F4 Na0 2.322082 1_555
F5 Tm2 2.218794 1_555
F5 Li1 2.247479 1_555
F5 Tm3 2.309332 1_545
F5 Na1 2.322082 1_555
F6 Tm0 2.211795 1_555
F6 Tm2 2.211795 1_555
F6 Na0 2.213438 1_555
F7 Tm3 2.211795 1_555
F7 Tm1 2.211795 1_555
F7 Na1 2.213438 1_555
F8 Tm0 2.184632 1_655
F8 Tm2 2.198025 1_555
F8 Na0 2.542585 1_555
F9 Tm1 2.184632 1_455
F9 Tm3 2.198025 1_555
F9 Na1 2.542585 1_555
F10 Tm2 2.184632 1_565
F10 Tm0 2.198025 1_555
F10 Na0 2.542585 1_555
F11 Tm3 2.184632 1_545
F11 Tm1 2.198025 1_555
F11 Na1 2.542585 1_555
F12 Tm0 2.218794 1_555
F12 Li1 2.247479 1_555
F12 Tm1 2.309332 1_455
F12 Na1 2.322082 1_555
F13 Tm1 2.218794 1_555
F13 Li1 2.247479 1_665
F13 Tm0 2.309332 1_655
F13 Na0 2.322082 1_555
F14 Tm2 2.218794 1_556
F14 Li0 2.247479 1_556
F14 Tm3 2.309332 1_545
F14 Na1 2.322082 1_555
F15 Tm3 2.218794 1_554
F15 Li0 2.247479 1_665
F15 Tm2 2.309332 1_565
F15 Na0 2.322082 1_555
