# generated using pymatgen
data_MnTeO3
_symmetry_space_group_name_H-M   'P 1'
_cell_length_a   5.58730700
_cell_length_b   5.74639800
_cell_length_c   8.22700300
_cell_angle_alpha   90.00000000
_cell_angle_beta   90.00000000
_cell_angle_gamma   90.00000000
_symmetry_Int_Tables_number   1
_chemical_formula_structural   MnTeO3
_chemical_formula_sum   'Mn4 Te4 O12'
_cell_volume   264.14347846
_cell_formula_units_Z   4
loop_
 _symmetry_equiv_pos_site_id
 _symmetry_equiv_pos_as_xyz
  1  'x, y, z'
loop_
 _atom_site_type_symbol
 _atom_site_label
 _atom_site_symmetry_multiplicity
 _atom_site_fract_x
 _atom_site_fract_y
 _atom_site_fract_z
 _atom_site_occupancy
  Mn  Mn0  1  0.00516500  0.45561500  0.25000000  1
  Mn  Mn1  1  0.99483500  0.54438500  0.75000000  1
  Mn  Mn2  1  0.50516500  0.04438500  0.75000000  1
  Mn  Mn3  1  0.49483500  0.95561500  0.25000000  1
  Te  Te0  1  0.00000000  0.00000000  0.00000000  1
  Te  Te1  1  0.50000000  0.50000000  0.00000000  1
  Te  Te2  1  0.00000000  0.00000000  0.50000000  1
  Te  Te3  1  0.50000000  0.50000000  0.50000000  1
  O  O0  1  0.32533000  0.17951200  0.07441000  1
  O  O1  1  0.67467000  0.82048800  0.92559000  1
  O  O2  1  0.82533000  0.32048800  0.92559000  1
  O  O3  1  0.67467000  0.82048800  0.57441000  1
  O  O4  1  0.17467000  0.67951200  0.07441000  1
  O  O5  1  0.32533000  0.17951200  0.42559000  1
  O  O6  1  0.17467000  0.67951200  0.42559000  1
  O  O7  1  0.82533000  0.32048800  0.57441000  1
  O  O8  1  0.64090400  0.59474600  0.25000000  1
  O  O9  1  0.35909600  0.40525400  0.75000000  1
  O  O10  1  0.14090400  0.90525400  0.75000000  1
  O  O11  1  0.85909600  0.09474600  0.25000000  1
loop_
_geom_bond_atom_site_label_1
_geom_bond_atom_site_label_2
_geom_bond_distance
_geom_bond_site_symmetry_2
Mn0 O4 2.153859 1_555
Mn0 O6 2.153859 1_555
Mn0 O8 2.186641 1_455
Mn0 O11 2.228518 1_455
Mn1 O7 2.153859 1_555
Mn1 O2 2.153859 1_555
Mn1 O9 2.186641 1_655
Mn1 O10 2.228518 1_655
Mn2 O3 2.153859 1_545
Mn2 O1 2.153859 1_545
Mn2 O10 2.186641 1_545
Mn2 O9 2.228518 1_555
Mn3 O0 2.153859 1_565
Mn3 O5 2.153859 1_565
Mn3 O11 2.186641 1_565
Mn3 O8 2.228518 1_555
O0 Te1 2.172299 1_555
O0 Te0 2.177830 1_555
O1 Te1 2.172299 1_556
O1 Te0 2.177830 1_666
O2 Te0 2.172299 1_656
O2 Te1 2.177830 1_556
O3 Te3 2.172299 1_555
O3 Te2 2.177830 1_665
O4 Te0 2.172299 1_565
O4 Te1 2.177830 1_555
O5 Te3 2.172299 1_555
O5 Te2 2.177830 1_555
O6 Te2 2.172299 1_565
O6 Te3 2.177830 1_555
O7 Te2 2.172299 1_655
O7 Te3 2.177830 1_555
O8 Te1 2.268578 1_555
O8 Te3 2.268578 1_555
O9 Te3 2.268578 1_555
O9 Te1 2.268578 1_556
O10 Te2 2.268578 1_565
O10 Te0 2.268578 1_566
O11 Te2 2.268578 1_655
O11 Te0 2.268578 1_655
