# generated using pymatgen
data_Gd2MgS4
_symmetry_space_group_name_H-M   'P 1'
_cell_length_a   12.74155466
_cell_length_b   7.62094900
_cell_length_c   12.81986348
_cell_angle_alpha   90.00000000
_cell_angle_beta   90.00000000
_cell_angle_gamma   90.00000000
_symmetry_Int_Tables_number   1
_chemical_formula_structural   Gd2MgS4
_chemical_formula_sum   'Gd16 Mg8 S32'
_cell_volume   1244.84384783
_cell_formula_units_Z   8
loop_
 _symmetry_equiv_pos_site_id
 _symmetry_equiv_pos_as_xyz
  1  'x, y, z'
loop_
 _atom_site_type_symbol
 _atom_site_label
 _atom_site_symmetry_multiplicity
 _atom_site_fract_x
 _atom_site_fract_y
 _atom_site_fract_z
 _atom_site_occupancy
  Gd  Gd0  1  0.10944239  0.88056387  0.68528907  1
  Gd  Gd1  1  0.89055761  0.11943613  0.18528907  1
  Gd  Gd2  1  0.39055761  0.88056387  0.18528907  1
  Gd  Gd3  1  0.60944239  0.11943613  0.68528907  1
  Gd  Gd4  1  0.12863019  0.38003295  0.32601457  1
  Gd  Gd5  1  0.87136981  0.61996705  0.82601457  1
  Gd  Gd6  1  0.37136981  0.38003295  0.82601457  1
  Gd  Gd7  1  0.62863019  0.61996705  0.32601457  1
  Gd  Gd8  1  0.13307815  0.62460095  0.99228299  1
  Gd  Gd9  1  0.86692185  0.37539905  0.49228299  1
  Gd  Gd10  1  0.36692185  0.62460095  0.49228299  1
  Gd  Gd11  1  0.63307815  0.37539905  0.99228299  1
  Gd  Gd12  1  0.13424174  0.12478980  0.99119191  1
  Gd  Gd13  1  0.86575826  0.87521020  0.49119191  1
  Gd  Gd14  1  0.36575826  0.12478980  0.49119191  1
  Gd  Gd15  1  0.63424174  0.87521020  0.99119191  1
  Mg  Mg0  1  0.10676860  0.37494131  0.69065235  1
  Mg  Mg1  1  0.89323140  0.62505869  0.19065235  1
  Mg  Mg2  1  0.39323140  0.37494131  0.19065235  1
  Mg  Mg3  1  0.60676860  0.62505869  0.69065235  1
  Mg  Mg4  1  0.12539738  0.87410859  0.32185244  1
  Mg  Mg5  1  0.87460262  0.12589141  0.82185244  1
  Mg  Mg6  1  0.37460262  0.87410859  0.82185244  1
  Mg  Mg7  1  0.62539738  0.12589141  0.32185244  1
  S  S0  1  0.01164235  0.87915236  0.87797364  1
  S  S1  1  0.98835765  0.12084764  0.37797364  1
  S  S2  1  0.48835765  0.87915236  0.37797364  1
  S  S3  1  0.51164235  0.12084764  0.87797364  1
  S  S4  1  0.03215016  0.37813607  0.13048216  1
  S  S5  1  0.96784984  0.62186393  0.63048216  1
  S  S6  1  0.46784984  0.37813607  0.63048216  1
  S  S7  1  0.53215016  0.62186393  0.13048216  1
  S  S8  1  0.01975901  0.36997354  0.86920655  1
  S  S9  1  0.98024099  0.63002646  0.36920655  1
  S  S10  1  0.48024099  0.36997354  0.36920655  1
  S  S11  1  0.51975901  0.63002646  0.86920655  1
  S  S12  1  0.04154723  0.86981453  0.13835886  1
  S  S13  1  0.95845277  0.13018547  0.63835886  1
  S  S14  1  0.45845277  0.86981453  0.63835886  1
  S  S15  1  0.54154723  0.13018547  0.13835886  1
  S  S16  1  0.21223670  0.87413680  0.50056152  1
  S  S17  1  0.78776330  0.12586320  0.00056152  1
  S  S18  1  0.28776330  0.87413680  0.00056152  1
  S  S19  1  0.71223670  0.12586320  0.50056152  1
  S  S20  1  0.21196873  0.37524748  0.52096085  1
  S  S21  1  0.78803127  0.62475252  0.02096085  1
  S  S22  1  0.28803127  0.37524748  0.02096085  1
  S  S23  1  0.71196873  0.62475252  0.52096085  1
  S  S24  1  0.23275844  0.12557847  0.77579132  1
  S  S25  1  0.76724156  0.87442153  0.27579132  1
  S  S26  1  0.26724156  0.12557847  0.27579132  1
  S  S27  1  0.73275844  0.87442153  0.77579132  1
  S  S28  1  0.23010497  0.62785000  0.77638274  1
  S  S29  1  0.76989503  0.37215000  0.27638274  1
  S  S30  1  0.26989503  0.62785000  0.27638274  1
  S  S31  1  0.73010497  0.37215000  0.77638274  1
loop_
_geom_bond_atom_site_label_1
_geom_bond_atom_site_label_2
_geom_bond_distance
_geom_bond_site_symmetry_2
Gd0 S24 2.702131 1_565
Gd0 S16 2.706687 1_555
Gd0 S28 2.727019 1_555
Gd0 S5 2.763231 1_455
Gd0 S0 2.766727 1_555
Gd0 S13 2.771658 1_465
Gd1 S25 2.702131 1_545
Gd1 S17 2.706687 1_555
Gd1 S29 2.727019 1_555
Gd1 S4 2.763231 1_655
Gd1 S1 2.766727 1_555
Gd1 S12 2.771658 1_645
Gd2 S26 2.702131 1_565
Gd2 S18 2.706687 1_555
Gd2 S30 2.727019 1_555
Gd2 S7 2.763231 1_555
Gd2 S2 2.766727 1_555
Gd2 S15 2.771658 1_565
Gd3 S27 2.702131 1_545
Gd3 S19 2.706687 1_555
Gd3 S31 2.727019 1_555
Gd3 S6 2.763231 1_555
Gd3 S3 2.766727 1_555
Gd3 S14 2.771658 1_545
Gd4 S30 2.685409 1_555
Gd4 S26 2.700774 1_555
Gd4 S20 2.715659 1_555
Gd4 S9 2.740643 1_455
Gd4 S1 2.745846 1_455
Gd4 S4 2.791942 1_555
Gd5 S31 2.685409 1_555
Gd5 S27 2.700774 1_555
Gd5 S21 2.715659 1_556
Gd5 S8 2.740643 1_655
Gd5 S0 2.745846 1_655
Gd5 S5 2.791942 1_555
Gd6 S28 2.685409 1_555
Gd6 S24 2.700774 1_555
Gd6 S22 2.715659 1_556
Gd6 S11 2.740643 1_555
Gd6 S3 2.745846 1_555
Gd6 S6 2.791942 1_555
Gd7 S29 2.685409 1_555
Gd7 S25 2.700774 1_555
Gd7 S23 2.715659 1_555
Gd7 S10 2.740643 1_555
Gd7 S2 2.745846 1_555
Gd7 S7 2.791942 1_555
Gd8 S18 2.740855 1_556
Gd8 S22 2.764846 1_556
Gd8 S0 2.881817 1_555
Gd8 S4 2.884552 1_556
Gd8 S8 2.887874 1_555
Gd8 S12 2.891245 1_556
Gd8 S28 3.031462 1_555
Gd9 S19 2.740855 1_555
Gd9 S23 2.764846 1_555
Gd9 S1 2.881817 1_555
Gd9 S5 2.884552 1_555
Gd9 S9 2.887874 1_555
Gd9 S13 2.891245 1_555
Gd9 S29 3.031462 1_555
Gd10 S16 2.740855 1_555
Gd10 S20 2.764846 1_555
Gd10 S2 2.881817 1_555
Gd10 S6 2.884552 1_555
Gd10 S10 2.887874 1_555
Gd10 S14 2.891245 1_555
Gd10 S30 3.031462 1_555
Gd11 S17 2.740855 1_556
Gd11 S21 2.764846 1_556
Gd11 S3 2.881817 1_555
Gd11 S7 2.884552 1_556
Gd11 S11 2.887874 1_555
Gd11 S15 2.891245 1_556
Gd11 S31 3.031462 1_555
Gd12 S18 2.736729 1_546
Gd12 S22 2.761989 1_556
Gd12 S0 2.837466 1_545
Gd12 S8 2.839853 1_555
Gd12 S4 2.934026 1_556
Gd12 S12 2.954702 1_546
Gd12 S24 3.033326 1_555
Gd13 S19 2.736729 1_565
Gd13 S23 2.761989 1_555
Gd13 S1 2.837466 1_565
Gd13 S9 2.839853 1_555
Gd13 S5 2.934026 1_555
Gd13 S13 2.954702 1_565
Gd13 S25 3.033326 1_555
Gd14 S16 2.736729 1_545
Gd14 S20 2.761989 1_555
Gd14 S2 2.837466 1_545
Gd14 S10 2.839853 1_555
Gd14 S6 2.934026 1_555
Gd14 S14 2.954702 1_545
Gd14 S26 3.033326 1_555
Gd15 S17 2.736729 1_566
Gd15 S21 2.761989 1_556
Gd15 S3 2.837466 1_565
Gd15 S11 2.839853 1_555
Gd15 S7 2.934026 1_556
Gd15 S15 2.954702 1_566
Gd15 S27 3.033326 1_555
Mg0 S8 2.543662 1_555
Mg0 S20 2.555225 1_555
Mg0 S5 2.696141 1_455
Mg0 S24 2.716572 1_555
Mg0 S28 2.718898 1_555
Mg0 S13 2.738597 1_455
Mg1 S9 2.543662 1_555
Mg1 S21 2.555225 1_555
Mg1 S4 2.696141 1_655
Mg1 S25 2.716572 1_555
Mg1 S29 2.718898 1_555
Mg1 S12 2.738597 1_655
Mg2 S10 2.543662 1_555
Mg2 S22 2.555225 1_555
Mg2 S7 2.696141 1_555
Mg2 S26 2.716572 1_555
Mg2 S30 2.718898 1_555
Mg2 S15 2.738597 1_555
Mg3 S11 2.543662 1_555
Mg3 S23 2.555225 1_555
Mg3 S6 2.696141 1_555
Mg3 S27 2.716572 1_555
Mg3 S31 2.718898 1_555
Mg3 S14 2.738597 1_555
Mg4 S16 2.544223 1_555
Mg4 S12 2.583819 1_555
Mg4 S1 2.665022 1_465
Mg4 S9 2.692465 1_455
Mg4 S30 2.692884 1_555
Mg4 S26 2.699595 1_565
Mg5 S17 2.544223 1_556
Mg5 S13 2.583819 1_555
Mg5 S0 2.665022 1_645
Mg5 S8 2.692465 1_655
Mg5 S31 2.692884 1_555
Mg5 S27 2.699595 1_545
Mg6 S18 2.544223 1_556
Mg6 S14 2.583819 1_555
Mg6 S3 2.665022 1_565
Mg6 S11 2.692465 1_555
Mg6 S28 2.692884 1_555
Mg6 S24 2.699595 1_565
Mg7 S19 2.544223 1_555
Mg7 S15 2.583819 1_555
Mg7 S2 2.665022 1_545
Mg7 S10 2.692465 1_555
Mg7 S29 2.692884 1_555
Mg7 S25 2.699595 1_545
