# generated using pymatgen
data_Nb(ZnGa)3
_symmetry_space_group_name_H-M   'P 1'
_cell_length_a   5.59496554
_cell_length_b   5.59496554
_cell_length_c   5.59496601
_cell_angle_alpha   57.77825786
_cell_angle_beta   57.77825786
_cell_angle_gamma   57.77825958
_symmetry_Int_Tables_number   1
_chemical_formula_structural   Nb(ZnGa)3
_chemical_formula_sum   'Nb1 Zn3 Ga3'
_cell_volume   117.52553767
_cell_formula_units_Z   1
loop_
 _symmetry_equiv_pos_site_id
 _symmetry_equiv_pos_as_xyz
  1  'x, y, z'
loop_
 _atom_site_type_symbol
 _atom_site_label
 _atom_site_symmetry_multiplicity
 _atom_site_fract_x
 _atom_site_fract_y
 _atom_site_fract_z
 _atom_site_occupancy
  Nb  Nb0  1  -0.00000000  -0.00000000  0.00000000  1
  Zn  Zn0  1  -0.00000000  -0.00000000  0.50000000  1
  Zn  Zn1  1  0.50000000  -0.00000000  0.00000000  1
  Zn  Zn2  1  -0.00000000  0.50000000  -0.00000000  1
  Ga  Ga0  1  0.50000000  0.50000000  -0.00000000  1
  Ga  Ga1  1  0.00000000  0.50000000  0.50000000  1
  Ga  Ga2  1  0.50000000  -0.00000000  0.50000000  1
loop_
_geom_bond_atom_site_label_1
_geom_bond_atom_site_label_2
_geom_bond_distance
_geom_bond_site_symmetry_2
Nb0 Zn1 2.797483 1_555
Nb0 Zn2 2.797483 1_555
Nb0 Zn1 2.797483 1_455
Nb0 Zn2 2.797483 1_545
Nb0 Zn0 2.797483 1_554
Nb0 Zn0 2.797483 1_555
Zn0 Zn1 2.703019 1_456
Zn0 Zn2 2.703019 1_555
Zn0 Zn2 2.703019 1_546
Zn0 Zn1 2.703019 1_555
Zn1 Zn2 2.703019 1_645
Zn1 Zn2 2.703019 1_555
Ga0 Nb0 2.703019 1_565
Ga0 Nb0 2.703019 1_655
Ga0 Ga2 2.703019 1_564
Ga0 Ga2 2.703019 1_555
Ga0 Ga1 2.703019 1_555
Ga0 Ga1 2.703019 1_654
Ga0 Zn1 2.797483 1_555
Ga0 Zn2 2.797483 1_555
Ga0 Zn2 2.797483 1_655
Ga0 Zn1 2.797483 1_565
Ga1 Ga2 2.703019 1_465
Ga1 Ga2 2.703019 1_555
Ga1 Nb0 2.703019 1_556
Ga1 Nb0 2.703019 1_565
Ga1 Zn0 2.797483 1_565
Ga1 Zn0 2.797483 1_555
Ga1 Zn2 2.797483 1_555
Ga1 Zn2 2.797483 1_556
Ga2 Nb0 2.703019 1_556
Ga2 Nb0 2.703019 1_655
Ga2 Zn0 2.797483 1_555
Ga2 Zn0 2.797483 1_655
Ga2 Zn1 2.797483 1_556
Ga2 Zn1 2.797483 1_555
