# generated using pymatgen
data_Eu2(ZrSe2)5
_symmetry_space_group_name_H-M   'P 1'
_cell_length_a   6.52085965
_cell_length_b   10.64267776
_cell_length_c   8.34825734
_cell_angle_alpha   62.44141880
_cell_angle_beta   66.96028860
_cell_angle_gamma   90.03379907
_symmetry_Int_Tables_number   1
_chemical_formula_structural   Eu2(ZrSe2)5
_chemical_formula_sum   'Eu2 Zr5 Se10'
_cell_volume   460.79170451
_cell_formula_units_Z   1
loop_
 _symmetry_equiv_pos_site_id
 _symmetry_equiv_pos_as_xyz
  1  'x, y, z'
loop_
 _atom_site_type_symbol
 _atom_site_label
 _atom_site_symmetry_multiplicity
 _atom_site_fract_x
 _atom_site_fract_y
 _atom_site_fract_z
 _atom_site_occupancy
  Eu  Eu0  1  0.79304400  0.08755000  0.41230800  1
  Eu  Eu1  1  0.00695600  0.51245000  0.98769200  1
  Zr  Zr0  1  0.40000000  0.80000000  0.20000000  1
  Zr  Zr1  1  0.80234400  0.60207800  0.39957700  1
  Zr  Zr2  1  0.19193000  0.40089100  0.59865700  1
  Zr  Zr3  1  0.60807000  0.19910900  0.80134300  1
  Zr  Zr4  1  0.99765600  0.99792200  0.00042300  1
  Se  Se0  1  0.97945200  0.84137700  0.38119500  1
  Se  Se1  1  0.57254600  0.04390800  0.17837500  1
  Se  Se2  1  0.17693300  0.24528100  0.97822900  1
  Se  Se3  1  0.77003800  0.44441400  0.78109100  1
  Se  Se4  1  0.38216500  0.64795900  0.57263200  1
  Se  Se5  1  0.41783500  0.95204100  0.82736800  1
  Se  Se6  1  0.02996200  0.15558600  0.61890900  1
  Se  Se7  1  0.62306700  0.35471900  0.42177100  1
  Se  Se8  1  0.22745400  0.55609200  0.22162500  1
  Se  Se9  1  0.82054800  0.75862300  0.01880500  1
loop_
_geom_bond_atom_site_label_1
_geom_bond_atom_site_label_2
_geom_bond_distance
_geom_bond_site_symmetry_2
Eu0 Se0 2.965703 1_545
Eu0 Se5 2.967916 1_545
Eu0 Se6 3.020892 1_655
Eu0 Se1 3.022171 1_555
Eu0 Se7 3.076150 1_555
Eu0 Se2 3.079286 1_654
Eu1 Se9 2.965703 1_456
Eu1 Se4 2.967916 1_555
Eu1 Se3 3.020892 1_455
Eu1 Se8 3.022171 1_556
Eu1 Se2 3.076150 1_555
Eu1 Se7 3.079286 1_456
Se0 Zr1 2.709171 1_555
Se0 Zr0 2.715379 1_655
Se0 Zr4 2.774604 1_555
Se1 Zr3 2.703190 1_554
Se1 Zr0 2.727790 1_545
Se1 Zr4 2.753517 1_545
Se2 Zr2 2.773935 1_555
Se2 Zr4 2.776123 1_446
Se2 Zr3 2.783785 1_555
Se3 Zr3 2.721838 1_555
Se3 Zr2 2.734464 1_655
Se3 Zr1 2.744687 1_555
Se4 Zr0 2.714397 1_555
Se4 Zr1 2.718229 1_555
Se4 Zr2 2.785084 1_555
Se5 Zr0 2.714397 1_556
Se5 Zr4 2.718229 1_456
Se5 Zr3 2.785084 1_565
Se6 Zr2 2.721838 1_555
Se6 Zr3 2.734464 1_455
Se6 Zr4 2.744687 1_446
Se7 Zr3 2.773935 1_555
Se7 Zr1 2.776123 1_555
Se7 Zr2 2.783785 1_555
Se8 Zr2 2.703190 1_555
Se8 Zr0 2.727790 1_555
Se8 Zr1 2.753517 1_455
Se9 Zr4 2.709171 1_555
Se9 Zr0 2.715379 1_555
Se9 Zr1 2.774604 1_555
