# generated using pymatgen
data_Tb6Mn23
_symmetry_space_group_name_H-M   'P 1'
_cell_length_a   8.52676733
_cell_length_b   8.52676733
_cell_length_c   8.52676733
_cell_angle_alpha   60.00000000
_cell_angle_beta   60.00000000
_cell_angle_gamma   60.00000000
_symmetry_Int_Tables_number   1
_chemical_formula_structural   Tb6Mn23
_chemical_formula_sum   'Tb6 Mn23'
_cell_volume   438.36739001
_cell_formula_units_Z   1
loop_
 _symmetry_equiv_pos_site_id
 _symmetry_equiv_pos_as_xyz
  1  'x, y, z'
loop_
 _atom_site_type_symbol
 _atom_site_label
 _atom_site_symmetry_multiplicity
 _atom_site_fract_x
 _atom_site_fract_y
 _atom_site_fract_z
 _atom_site_occupancy
  Tb  Tb0  1  0.70477700  0.70477700  0.29522300  1
  Tb  Tb1  1  0.29522300  0.70477700  0.29522300  1
  Tb  Tb2  1  0.70477700  0.29522300  0.29522300  1
  Tb  Tb3  1  0.29522300  0.29522300  0.70477700  1
  Tb  Tb4  1  0.70477700  0.29522300  0.70477700  1
  Tb  Tb5  1  0.29522300  0.70477700  0.70477700  1
  Mn  Mn0  1  0.00000000  0.00000000  0.00000000  1
  Mn  Mn1  1  0.00000000  0.00000000  0.50000000  1
  Mn  Mn2  1  0.50000000  0.00000000  0.50000000  1
  Mn  Mn3  1  0.00000000  0.50000000  0.50000000  1
  Mn  Mn4  1  0.50000000  0.50000000  0.00000000  1
  Mn  Mn5  1  0.00000000  0.50000000  0.00000000  1
  Mn  Mn6  1  0.50000000  0.00000000  0.00000000  1
  Mn  Mn7  1  0.87790100  0.87790100  0.36629700  1
  Mn  Mn8  1  0.87790100  0.36629700  0.87790100  1
  Mn  Mn9  1  0.36629700  0.87790100  0.87790100  1
  Mn  Mn10  1  0.87790100  0.87790100  0.87790100  1
  Mn  Mn11  1  0.12209900  0.12209900  0.63370300  1
  Mn  Mn12  1  0.12209900  0.63370300  0.12209900  1
  Mn  Mn13  1  0.63370300  0.12209900  0.12209900  1
  Mn  Mn14  1  0.12209900  0.12209900  0.12209900  1
  Mn  Mn15  1  0.67767900  0.67767900  0.96696400  1
  Mn  Mn16  1  0.67767900  0.96696400  0.67767900  1
  Mn  Mn17  1  0.96696400  0.67767900  0.67767900  1
  Mn  Mn18  1  0.67767900  0.67767900  0.67767900  1
  Mn  Mn19  1  0.32232100  0.32232100  0.03303600  1
  Mn  Mn20  1  0.32232100  0.03303600  0.32232100  1
  Mn  Mn21  1  0.03303600  0.32232100  0.32232100  1
  Mn  Mn22  1  0.32232100  0.32232100  0.32232100  1
loop_
_geom_bond_atom_site_label_1
_geom_bond_atom_site_label_2
_geom_bond_distance
_geom_bond_site_symmetry_2
Tb0 Tb4 3.492172 1_555
Tb0 Tb1 3.492172 1_555
Tb0 Tb5 3.492172 1_555
Tb0 Tb2 3.492172 1_555
Tb1 Tb3 3.492172 1_555
Tb1 Tb5 3.492172 1_555
Tb1 Tb2 3.492172 1_555
Tb2 Tb3 3.492172 1_555
Tb2 Tb4 3.492172 1_555
Tb3 Tb4 3.492172 1_555
Tb3 Tb5 3.492172 1_555
Tb4 Tb5 3.492172 1_555
Mn0 Mn11 2.550188 1_554
Mn0 Mn12 2.550188 1_545
Mn0 Mn7 2.550188 1_445
Mn0 Mn8 2.550188 1_454
Mn0 Mn9 2.550188 1_544
Mn0 Mn14 2.550188 1_555
Mn0 Mn13 2.550188 1_455
Mn0 Mn10 2.550188 1_444
Mn1 Mn21 2.472185 1_555
Mn1 Mn20 2.472185 1_555
Mn1 Mn16 2.472185 1_445
Mn1 Mn17 2.472185 1_445
Mn1 Mn10 2.631596 1_445
Mn1 Mn14 2.631596 1_555
Mn1 Mn11 2.631596 1_555
Mn1 Mn7 2.631596 1_445
Mn1 Tb5 3.063593 1_545
Mn1 Tb4 3.063593 1_455
Mn1 Tb2 3.063593 1_455
Mn1 Tb1 3.063593 1_545
Mn2 Mn22 2.472189 1_555
Mn2 Mn20 2.472193 1_555
Mn2 Mn9 2.631596 1_545
Mn2 Mn7 2.631596 1_545
Mn2 Tb5 3.063593 1_545
Mn2 Tb2 3.063593 1_555
Mn2 Tb3 3.063593 1_555
Mn2 Tb0 3.063593 1_545
Mn3 Mn7 2.631596 1_455
Mn3 Mn8 2.631596 1_455
Mn3 Tb1 3.063593 1_555
Mn3 Tb3 3.063593 1_555
Mn3 Tb4 3.063593 1_455
Mn3 Tb0 3.063593 1_455
Mn4 Mn9 2.631596 1_554
Mn4 Mn8 2.631596 1_554
Mn4 Tb5 3.063593 1_554
Mn4 Tb1 3.063593 1_555
Mn4 Tb4 3.063593 1_554
Mn4 Tb2 3.063593 1_555
Mn5 Mn8 2.631596 1_454
Mn5 Tb5 3.063593 1_554
Mn5 Tb2 3.063593 1_455
Mn5 Tb3 3.063593 1_554
Mn5 Tb0 3.063593 1_455
Mn6 Mn9 2.631596 1_544
Mn6 Tb4 3.063593 1_554
Mn6 Tb1 3.063593 1_545
Mn6 Tb3 3.063593 1_554
Mn6 Tb0 3.063593 1_545
Mn7 Tb0 2.948542 1_555
Mn7 Tb2 2.948542 1_565
Mn7 Tb1 2.948542 1_655
Mn8 Tb4 2.948542 1_555
Mn8 Tb2 2.948542 1_556
Mn8 Tb3 2.948542 1_655
Mn9 Tb5 2.948542 1_555
Mn9 Tb1 2.948542 1_556
Mn9 Tb3 2.948542 1_565
Mn10 Mn15 2.593792 1_555
Mn10 Mn17 2.593792 1_555
Mn10 Mn16 2.593792 1_555
Mn10 Mn5 2.631596 1_656
Mn10 Mn6 2.631596 1_566
Mn10 Mn11 2.944703 1_665
Mn10 Mn13 2.944703 1_566
Mn10 Mn12 2.944703 1_656
Mn10 Tb0 2.948542 1_556
Mn10 Tb4 2.948542 1_565
Mn10 Tb5 2.948542 1_655
Mn11 Mn22 2.593795 1_555
Mn11 Mn21 2.593799 1_555
Mn11 Mn20 2.593799 1_555
Mn11 Mn3 2.631596 1_555
Mn11 Mn2 2.631596 1_555
Mn11 Mn8 2.944703 1_455
Mn11 Mn9 2.944703 1_545
Mn11 Tb3 2.948542 1_555
Mn11 Tb5 2.948542 1_545
Mn11 Tb4 2.948542 1_455
Mn12 Mn22 2.593795 1_555
Mn12 Mn21 2.593799 1_555
Mn12 Mn19 2.593799 1_555
Mn12 Mn5 2.631596 1_555
Mn12 Mn3 2.631596 1_555
Mn12 Mn4 2.631596 1_555
Mn12 Mn9 2.944703 1_554
Mn12 Mn7 2.944703 1_455
Mn12 Tb1 2.948542 1_555
Mn12 Tb0 2.948542 1_455
Mn12 Tb5 2.948542 1_554
Mn13 Mn22 2.593795 1_555
Mn13 Mn20 2.593799 1_555
Mn13 Mn19 2.593799 1_555
Mn13 Mn2 2.631596 1_555
Mn13 Mn6 2.631596 1_555
Mn13 Mn4 2.631596 1_555
Mn13 Mn7 2.944703 1_545
Mn13 Mn8 2.944703 1_554
Mn13 Tb2 2.948542 1_555
Mn13 Tb0 2.948542 1_545
Mn13 Tb4 2.948542 1_554
Mn14 Mn21 2.593792 1_555
Mn14 Mn20 2.593792 1_555
Mn14 Mn19 2.593792 1_555
Mn14 Mn5 2.631596 1_555
Mn14 Mn6 2.631596 1_555
Mn14 Mn7 2.944703 1_445
Mn14 Mn8 2.944703 1_454
Mn14 Mn9 2.944703 1_544
Mn14 Tb3 2.948542 1_554
Mn14 Tb1 2.948542 1_545
Mn14 Tb2 2.948542 1_455
Mn15 Mn16 2.466666 1_555
Mn15 Mn18 2.466666 1_555
Mn15 Mn17 2.466666 1_555
Mn15 Mn5 2.472185 1_656
Mn15 Mn6 2.472185 1_566
Mn15 Mn4 2.472193 1_556
Mn15 Mn8 2.593799 1_555
Mn15 Mn9 2.593799 1_555
Mn15 Tb0 3.047615 1_556
Mn15 Tb1 3.047620 1_556
Mn15 Tb2 3.047620 1_556
Mn16 Mn18 2.466666 1_555
Mn16 Mn17 2.466666 1_555
Mn16 Mn6 2.472185 1_566
Mn16 Mn2 2.472193 1_565
Mn16 Mn9 2.593799 1_555
Mn16 Mn7 2.593799 1_555
Mn16 Tb4 3.047615 1_565
Mn16 Tb2 3.047620 1_565
Mn16 Tb3 3.047620 1_565
Mn17 Mn18 2.466666 1_555
Mn17 Mn5 2.472185 1_656
Mn17 Mn3 2.472193 1_655
Mn17 Mn8 2.593799 1_555
Mn17 Mn7 2.593799 1_555
Mn17 Tb5 3.047615 1_655
Mn17 Tb1 3.047620 1_655
Mn17 Tb3 3.047620 1_655
Mn18 Mn2 2.472189 1_565
Mn18 Mn4 2.472189 1_556
Mn18 Mn3 2.472189 1_655
Mn18 Mn7 2.593795 1_555
Mn18 Mn9 2.593795 1_555
Mn18 Mn8 2.593795 1_555
Mn18 Tb0 3.047624 1_555
Mn18 Tb4 3.047624 1_555
Mn18 Tb5 3.047624 1_555
Mn19 Mn20 2.466666 1_555
Mn19 Mn21 2.466666 1_555
Mn19 Mn22 2.466666 1_555
Mn19 Mn6 2.472185 1_555
Mn19 Mn5 2.472185 1_555
Mn19 Mn4 2.472193 1_555
Mn19 Tb3 3.047615 1_554
Mn19 Tb5 3.047620 1_554
Mn19 Tb4 3.047620 1_554
Mn20 Mn21 2.466666 1_555
Mn20 Mn22 2.466666 1_555
Mn20 Mn6 2.472185 1_555
Mn20 Tb1 3.047615 1_545
Mn20 Tb0 3.047620 1_545
Mn20 Tb5 3.047620 1_545
Mn21 Mn22 2.466666 1_555
Mn21 Mn5 2.472185 1_555
Mn21 Mn3 2.472193 1_555
Mn21 Tb2 3.047615 1_455
Mn21 Tb4 3.047620 1_455
Mn21 Tb0 3.047620 1_455
Mn22 Mn3 2.472189 1_555
Mn22 Mn4 2.472189 1_555
Mn22 Tb2 3.047624 1_555
Mn22 Tb3 3.047624 1_555
Mn22 Tb1 3.047624 1_555
