# generated using pymatgen
data_SrCaNi(PO4)2
_symmetry_space_group_name_H-M   'P 1'
_cell_length_a   5.72020415
_cell_length_b   6.92796947
_cell_length_c   9.44796263
_cell_angle_alpha   109.40931397
_cell_angle_beta   101.90167117
_cell_angle_gamma   98.52376799
_symmetry_Int_Tables_number   1
_chemical_formula_structural   SrCaNi(PO4)2
_chemical_formula_sum   'Sr2 Ca2 Ni2 P4 O16'
_cell_volume   335.88152928
_cell_formula_units_Z   2
loop_
 _symmetry_equiv_pos_site_id
 _symmetry_equiv_pos_as_xyz
  1  'x, y, z'
loop_
 _atom_site_type_symbol
 _atom_site_label
 _atom_site_symmetry_multiplicity
 _atom_site_fract_x
 _atom_site_fract_y
 _atom_site_fract_z
 _atom_site_occupancy
  Sr  Sr0  1  0.26328500  0.80828000  0.06018600  1
  Sr  Sr1  1  0.73671500  0.19172000  0.93981400  1
  Ca  Ca0  1  0.99558300  0.41928700  0.66106400  1
  Ca  Ca1  1  0.00441700  0.58071300  0.33893600  1
  Ni  Ni0  1  0.65274900  0.85036900  0.55954400  1
  Ni  Ni1  1  0.34725100  0.14963100  0.44045600  1
  P  P0  1  0.39609800  0.41725100  0.22800800  1
  P  P1  1  0.60390200  0.58274900  0.77199200  1
  P  P2  1  0.84105900  0.03077000  0.29957800  1
  P  P3  1  0.15894100  0.96923000  0.70042200  1
  O  O0  1  0.83754600  0.55985900  0.87913800  1
  O  O1  1  0.62380800  0.45091400  0.16798100  1
  O  O2  1  0.65199600  0.80113300  0.75857700  1
  O  O3  1  0.95934600  0.10339600  0.69628100  1
  O  O4  1  0.37619200  0.54908600  0.83201900  1
  O  O5  1  0.00726100  0.73814200  0.59402000  1
  O  O6  1  0.99273900  0.26185800  0.40598000  1
  O  O7  1  0.27393500  0.99723600  0.86888600  1
  O  O8  1  0.34800400  0.19886700  0.24142300  1
  O  O9  1  0.72606500  0.00276400  0.13111400  1
  O  O10  1  0.16245400  0.44014100  0.12086200  1
  O  O11  1  0.42618200  0.59035400  0.39158800  1
  O  O12  1  0.57381800  0.40964600  0.60841200  1
  O  O13  1  0.63843500  0.96667400  0.37633400  1
  O  O14  1  0.04065400  0.89660400  0.30371900  1
  O  O15  1  0.36156500  0.03332600  0.62366600  1
loop_
_geom_bond_atom_site_label_1
_geom_bond_atom_site_label_2
_geom_bond_distance
_geom_bond_site_symmetry_2
Ca0 O4 2.271856 1_655
Ca0 O6 2.286832 1_555
Ca0 O3 2.306744 1_555
Ca0 O12 2.346828 1_555
Ca0 O0 2.388797 1_555
Ca0 O5 2.487800 1_655
Ca1 O1 2.271856 1_455
Ca1 O5 2.286832 1_555
Ca1 O14 2.306744 1_555
Ca1 O11 2.346828 1_555
Ca1 O10 2.388797 1_555
Ca1 O6 2.487800 1_455
Ni0 O11 2.000623 1_555
Ni0 O2 2.020324 1_555
Ni0 O3 2.113442 1_565
Ni0 O13 2.130788 1_555
Ni0 O5 2.277318 1_655
Ni0 O15 2.297750 1_565
Ni1 O12 2.000623 1_555
Ni1 O8 2.020324 1_555
Ni1 O14 2.113442 1_545
Ni1 O15 2.130788 1_555
Ni1 O6 2.277318 1_455
Ni1 O13 2.297750 1_545
O0 P1 1.564484 1_555
O0 Sr0 2.627056 1_656
O0 Sr1 2.799674 1_555
O1 P0 1.541172 1_555
O1 Sr1 2.575656 1_554
O2 P1 1.548946 1_555
O2 Sr1 2.584305 1_565
O3 P3 1.577773 1_645
O3 Sr1 2.791803 1_555
O4 P1 1.541172 1_555
O4 Sr0 2.575656 1_556
O5 P3 1.576481 1_555
O6 P2 1.576481 1_555
O7 P3 1.526019 1_555
O7 Sr0 2.564837 1_556
O7 Sr1 2.623550 1_565
O8 P0 1.548946 1_555
O8 Sr0 2.584305 1_545
O9 P2 1.526019 1_555
O9 Sr1 2.564837 1_554
O9 Sr0 2.623550 1_545
O10 P0 1.564484 1_555
O10 Sr1 2.627056 1_454
O10 Sr0 2.799674 1_555
O11 P0 1.566415 1_555
O12 P1 1.566415 1_555
O13 P2 1.573094 1_565
O13 Sr0 3.034920 1_555
O14 P2 1.577773 1_465
O14 Sr0 2.791803 1_555
O15 P3 1.573094 1_545
O15 Sr1 3.034920 1_555
