# generated using pymatgen
data_Ba5Al3Cu2
_symmetry_space_group_name_H-M   'P 1'
_cell_length_a   5.64851793
_cell_length_b   5.64851800
_cell_length_c   13.19100484
_cell_angle_alpha   77.63697992
_cell_angle_beta   102.36302131
_cell_angle_gamma   120.00000041
_symmetry_Int_Tables_number   1
_chemical_formula_structural   Ba5Al3Cu2
_chemical_formula_sum   'Ba5 Al3 Cu2'
_cell_volume   353.16877452
_cell_formula_units_Z   1
loop_
 _symmetry_equiv_pos_site_id
 _symmetry_equiv_pos_as_xyz
  1  'x, y, z'
loop_
 _atom_site_type_symbol
 _atom_site_label
 _atom_site_symmetry_multiplicity
 _atom_site_fract_x
 _atom_site_fract_y
 _atom_site_fract_z
 _atom_site_occupancy
  Ba  Ba0  1  0.82670000  0.17330000  0.48010100  1
  Ba  Ba1  1  0.09341400  0.90658600  0.28024100  1
  Ba  Ba2  1  0.99915300  0.00084700  0.99745900  1
  Ba  Ba3  1  0.63276800  0.36723200  0.89830300  1
  Ba  Ba4  1  0.52896000  0.47104000  0.58688000  1
  Al  Al0  1  0.07872700  0.92127300  0.73807100  1
  Al  Al1  1  0.58061700  0.92127300  0.73807100  1
  Al  Al2  1  0.07872700  0.41938300  0.73807100  1
  Cu  Cu0  1  0.19093900  0.80906100  0.57281800  1
  Cu  Cu1  1  0.36139500  0.63860500  0.08418400  1
loop_
_geom_bond_atom_site_label_1
_geom_bond_atom_site_label_2
_geom_bond_distance
_geom_bond_site_symmetry_2
Ba0 Cu0 3.469817 1_645
Ba0 Cu0 3.469817 1_655
Ba0 Cu0 3.469817 1_545
Ba0 Ba1 4.142557 1_545
Ba0 Ba1 4.142557 1_655
Ba0 Ba1 4.142565 1_645
Ba1 Ba2 3.614385 1_464
Ba1 Cu0 3.739580 1_555
Ba1 Cu1 4.112763 1_455
Ba1 Cu1 4.112763 1_555
Ba1 Cu1 4.112763 1_565
Ba2 Cu1 3.444411 1_656
Ba2 Cu1 3.444411 1_546
Ba2 Cu1 3.444415 1_646
Ba2 Ba3 3.498777 1_555
Ba2 Ba3 3.498782 1_545
Ba2 Ba3 3.498782 1_655
Ba3 Cu1 4.034833 1_656
Ba3 Cu1 4.034833 1_556
Ba3 Cu1 4.034833 1_546
Ba4 Cu0 3.266121 1_655
Ba4 Cu0 3.266121 1_545
Ba4 Cu0 3.266126 1_555
Al0 Cu0 2.672128 1_555
Al0 Al1 2.813583 1_455
Al0 Al2 2.813583 1_565
Al0 Al1 2.834935 1_555
Al0 Al2 2.834935 1_555
Al0 Ba4 3.422111 1_455
Al0 Ba4 3.422111 1_565
Al0 Ba3 3.488670 1_565
Al0 Ba3 3.488670 1_455
Al0 Ba0 3.675679 1_465
Al0 Ba2 3.691945 1_465
Al1 Cu0 2.672131 1_555
Al1 Al2 2.813583 1_665
Al1 Al2 2.834935 1_555
Al1 Ba4 3.422111 1_565
Al1 Ba4 3.422111 1_555
Al1 Ba3 3.488668 1_565
Al1 Ba3 3.488672 1_555
Al1 Ba0 3.675677 1_565
Al1 Ba2 3.691945 1_565
Al2 Cu0 2.672131 1_555
Al2 Ba4 3.422111 1_455
Al2 Ba4 3.422111 1_555
Al2 Ba3 3.488668 1_455
Al2 Ba3 3.488672 1_555
Al2 Ba0 3.675677 1_455
Al2 Ba2 3.691945 1_455
