# generated using pymatgen
data_Na2Ga2As3
_symmetry_space_group_name_H-M   'P 1'
_cell_length_a   6.71269833
_cell_length_b   13.18905531
_cell_length_c   14.35348495
_cell_angle_alpha   89.75731121
_cell_angle_beta   90.00000000
_cell_angle_gamma   90.00000000
_symmetry_Int_Tables_number   1
_chemical_formula_structural   Na2Ga2As3
_chemical_formula_sum   'Na16 Ga16 As24'
_cell_volume   1270.76218341
_cell_formula_units_Z   8
loop_
 _symmetry_equiv_pos_site_id
 _symmetry_equiv_pos_as_xyz
  1  'x, y, z'
loop_
 _atom_site_type_symbol
 _atom_site_label
 _atom_site_symmetry_multiplicity
 _atom_site_fract_x
 _atom_site_fract_y
 _atom_site_fract_z
 _atom_site_occupancy
  Na  Na0  1  0.04855158  0.85929337  0.01109480  1
  Na  Na1  1  0.54855158  0.14070663  0.48890520  1
  Na  Na2  1  0.95144842  0.14070663  0.98890520  1
  Na  Na3  1  0.45144842  0.85929337  0.51109480  1
  Na  Na4  1  0.41982741  0.34652060  0.97770358  1
  Na  Na5  1  0.91982741  0.65347940  0.52229642  1
  Na  Na6  1  0.58017259  0.65347940  0.02229642  1
  Na  Na7  1  0.08017259  0.34652060  0.47770358  1
  Na  Na8  1  0.45430723  0.08544979  0.88897271  1
  Na  Na9  1  0.95430723  0.91455021  0.61102729  1
  Na  Na10  1  0.54569277  0.91455021  0.11102729  1
  Na  Na11  1  0.04569277  0.08544979  0.38897271  1
  Na  Na12  1  0.08955843  0.56505896  0.09057820  1
  Na  Na13  1  0.58955843  0.43494104  0.40942180  1
  Na  Na14  1  0.91044157  0.43494104  0.90942180  1
  Na  Na15  1  0.41044157  0.56505896  0.59057820  1
  Ga  Ga0  1  0.71692182  0.31718289  0.16044222  1
  Ga  Ga1  1  0.21692182  0.68281711  0.33955778  1
  Ga  Ga2  1  0.28307818  0.68281711  0.83955778  1
  Ga  Ga3  1  0.78307818  0.31718289  0.66044222  1
  Ga  Ga4  1  0.20964651  0.90972034  0.27092464  1
  Ga  Ga5  1  0.70964651  0.09027966  0.22907536  1
  Ga  Ga6  1  0.79035349  0.09027966  0.72907536  1
  Ga  Ga7  1  0.29035349  0.90972034  0.77092464  1
  Ga  Ga8  1  0.23779895  0.18747096  0.16911550  1
  Ga  Ga9  1  0.73779895  0.81252904  0.33088450  1
  Ga  Ga10  1  0.76220105  0.81252904  0.83088450  1
  Ga  Ga11  1  0.26220105  0.18747096  0.66911550  1
  Ga  Ga12  1  0.23709875  0.41328002  0.24117578  1
  Ga  Ga13  1  0.73709875  0.58671998  0.25882422  1
  Ga  Ga14  1  0.76290125  0.58671998  0.75882422  1
  Ga  Ga15  1  0.26290125  0.41328002  0.74117578  1
  As  As0  1  0.03376716  0.03148996  0.16897036  1
  As  As1  1  0.53376716  0.96851004  0.33102964  1
  As  As2  1  0.96623284  0.96851004  0.83102964  1
  As  As3  1  0.46623284  0.03148996  0.66897036  1
  As  As4  1  0.54978128  0.16005715  0.08504878  1
  As  As5  1  0.04978128  0.83994285  0.41495122  1
  As  As6  1  0.45021872  0.83994285  0.91495122  1
  As  As7  1  0.95021872  0.16005715  0.58504878  1
  As  As8  1  0.05475183  0.34024306  0.10242070  1
  As  As9  1  0.55475183  0.65975694  0.39757930  1
  As  As10  1  0.94524817  0.65975694  0.89757930  1
  As  As11  1  0.44524817  0.34024306  0.60242070  1
  As  As12  1  0.16395275  0.25251641  0.82728312  1
  As  As13  1  0.66395275  0.74748359  0.67271688  1
  As  As14  1  0.83604725  0.74748359  0.17271688  1
  As  As15  1  0.33604725  0.25251641  0.32728312  1
  As  As16  1  0.53003001  0.47932308  0.15533172  1
  As  As17  1  0.03003001  0.52067692  0.34466828  1
  As  As18  1  0.46996999  0.52067692  0.84466828  1
  As  As19  1  0.96996999  0.47932308  0.65533172  1
  As  As20  1  0.79354264  0.24998196  0.82150213  1
  As  As21  1  0.29354264  0.75001804  0.67849787  1
  As  As22  1  0.20645736  0.75001804  0.17849787  1
  As  As23  1  0.70645736  0.24998196  0.32150213  1
loop_
_geom_bond_atom_site_label_1
_geom_bond_atom_site_label_2
_geom_bond_distance
_geom_bond_site_symmetry_2
Ga4 Na11 3.080143 1_565
Ga4 Na10 3.218503 1_555
Ga5 Na10 3.080143 1_545
Ga5 Na11 3.218503 1_655
Ga6 Na9 3.080143 1_545
Ga6 Na8 3.218503 1_555
Ga7 Na8 3.080143 1_565
Ga7 Na9 3.218503 1_455
Ga8 Na2 3.283209 1_454
Ga9 Na3 3.283209 1_555
Ga10 Na0 3.283209 1_656
Ga11 Na1 3.283209 1_555
Ga12 Na12 3.102261 1_555
Ga12 Na13 3.393675 1_555
Ga13 Na13 3.102261 1_555
Ga13 Na12 3.393675 1_655
Ga14 Na14 3.102261 1_555
Ga14 Na15 3.393675 1_555
Ga15 Na15 3.102261 1_555
Ga15 Na14 3.393675 1_455
As0 Ga5 2.466766 1_455
As0 Ga4 2.468770 1_545
As0 Ga8 2.471457 1_555
As0 Na2 3.004781 1_454
As0 Na0 3.216588 1_545
As0 Na11 3.240932 1_555
As1 Ga4 2.466766 1_555
As1 Ga5 2.468770 1_565
As1 Ga9 2.471457 1_555
As1 Na3 3.004781 1_555
As1 Na1 3.216588 1_565
As1 Na10 3.240932 1_555
As2 Ga7 2.466766 1_655
As2 Ga6 2.468770 1_565
As2 Ga10 2.471457 1_555
As2 Na0 3.004781 1_656
As2 Na2 3.216588 1_565
As2 Na9 3.240932 1_555
As3 Ga6 2.466766 1_555
As3 Ga7 2.468770 1_545
As3 Ga11 2.471457 1_555
As3 Na1 3.004781 1_555
As3 Na3 3.216588 1_545
As3 Na8 3.240932 1_555
As4 Ga8 2.444644 1_555
As4 Ga5 2.501219 1_555
As4 Ga0 2.596818 1_555
As4 Na4 3.025048 1_554
As4 Na2 3.040128 1_554
As4 Na8 3.053385 1_554
As4 Na10 3.257950 1_545
As5 Ga9 2.444644 1_455
As5 Ga4 2.501219 1_555
As5 Ga1 2.596818 1_555
As5 Na5 3.025048 1_455
As5 Na3 3.040128 1_555
As5 Na9 3.053385 1_455
As5 Na11 3.257950 1_565
As6 Ga10 2.444644 1_555
As6 Ga7 2.501219 1_555
As6 Ga2 2.596818 1_555
As6 Na6 3.025048 1_556
As6 Na0 3.040128 1_556
As6 Na10 3.053385 1_556
As6 Na8 3.257950 1_565
As7 Ga11 2.444644 1_655
As7 Ga6 2.501219 1_555
As7 Ga3 2.596818 1_555
As7 Na7 3.025048 1_655
As7 Na1 3.040128 1_555
As7 Na11 3.053385 1_655
As7 Na9 3.257950 1_545
As8 Ga0 2.434466 1_455
As8 Ga12 2.531600 1_555
As8 Ga8 2.543579 1_555
As8 Na12 2.978437 1_555
As8 Na4 3.035753 1_554
As8 Na2 3.177700 1_454
As8 Na14 3.184820 1_454
As9 Ga1 2.434466 1_555
As9 Ga13 2.531600 1_555
As9 Ga9 2.543579 1_555
As9 Na13 2.978437 1_555
As9 Na5 3.035753 1_555
As9 Na3 3.177700 1_555
As9 Na15 3.184820 1_555
As10 Ga2 2.434466 1_655
As10 Ga14 2.531600 1_555
As10 Ga10 2.543579 1_555
As10 Na14 2.978437 1_555
As10 Na6 3.035753 1_556
As10 Na0 3.177700 1_656
As10 Na12 3.184820 1_656
As11 Ga3 2.434466 1_555
As11 Ga15 2.531600 1_555
As11 Ga11 2.543579 1_555
As11 Na15 2.978437 1_555
As11 Na7 3.035753 1_555
As11 Na1 3.177700 1_555
As11 Na13 3.184820 1_555
As12 As20 2.488065 1_455
As12 Ga11 2.518232 1_555
As12 Ga15 2.538165 1_555
As12 Na4 3.028458 1_555
As12 Na8 3.069454 1_555
As12 Na2 3.092273 1_455
As12 Na14 3.177865 1_455
As13 As21 2.488065 1_555
As13 Ga10 2.518232 1_555
As13 Ga14 2.538165 1_555
As13 Na5 3.028458 1_555
As13 Na9 3.069454 1_555
As13 Na3 3.092273 1_555
As13 Na15 3.177865 1_555
As14 As22 2.488065 1_655
As14 Ga9 2.518232 1_555
As14 Ga13 2.538165 1_555
As14 Na6 3.028458 1_555
As14 Na10 3.069454 1_555
As14 Na0 3.092273 1_655
As14 Na12 3.177865 1_655
As15 As23 2.488065 1_555
As15 Ga8 2.518232 1_555
As15 Ga12 2.538165 1_555
As15 Na7 3.028458 1_555
As15 Na11 3.069454 1_555
As15 Na1 3.092273 1_555
As15 Na13 3.177865 1_555
As16 Ga12 2.476776 1_555
As16 Ga0 2.480126 1_555
As16 Ga13 2.482521 1_555
As16 Na6 2.999736 1_555
As16 Na4 3.186430 1_554
As16 Na12 3.297877 1_555
As17 Ga13 2.476776 1_455
As17 Ga1 2.480126 1_555
As17 Ga12 2.482521 1_555
As17 Na7 2.999736 1_555
As17 Na5 3.186430 1_455
As17 Na13 3.297877 1_455
As18 Ga14 2.476776 1_555
As18 Ga2 2.480126 1_555
As18 Ga15 2.482521 1_555
As18 Na4 2.999736 1_555
As18 Na6 3.186430 1_556
As18 Na14 3.297877 1_555
As19 Ga15 2.476776 1_655
As19 Ga3 2.480126 1_555
As19 Ga14 2.482521 1_555
As19 Na5 2.999736 1_555
As19 Na7 3.186430 1_655
As19 Na15 3.297877 1_655
As20 Ga3 2.473342 1_555
As20 Ga6 2.494136 1_555
As20 Na14 2.860982 1_555
As20 Na2 2.990804 1_555
As20 Na8 3.288563 1_555
As21 Ga2 2.473342 1_555
As21 Ga7 2.494136 1_555
As21 Na15 2.860982 1_555
As21 Na3 2.990804 1_555
As21 Na9 3.288563 1_455
As22 Ga1 2.473342 1_555
As22 Ga4 2.494136 1_555
As22 Na12 2.860982 1_555
As22 Na0 2.990804 1_555
As22 Na10 3.288563 1_555
As23 Ga0 2.473342 1_555
As23 Ga5 2.494136 1_555
As23 Na13 2.860982 1_555
As23 Na1 2.990804 1_555
As23 Na11 3.288563 1_655
