# generated using pymatgen
data_MnH3C2N9O
_symmetry_space_group_name_H-M   'P 1'
_cell_length_a   6.76049776
_cell_length_b   9.66724100
_cell_length_c   10.62107106
_cell_angle_alpha   90.00000000
_cell_angle_beta   93.23810952
_cell_angle_gamma   90.00000000
_symmetry_Int_Tables_number   1
_chemical_formula_structural   MnH3C2N9O
_chemical_formula_sum   'Mn4 H12 C8 N36 O4'
_cell_volume   693.03567377
_cell_formula_units_Z   4
loop_
 _symmetry_equiv_pos_site_id
 _symmetry_equiv_pos_as_xyz
  1  'x, y, z'
loop_
 _atom_site_type_symbol
 _atom_site_label
 _atom_site_symmetry_multiplicity
 _atom_site_fract_x
 _atom_site_fract_y
 _atom_site_fract_z
 _atom_site_occupancy
  Mn  Mn0  1  0.96848100  0.66393300  0.13616400  1
  Mn  Mn1  1  0.03151900  0.33606700  0.86383600  1
  Mn  Mn2  1  0.53151900  0.16393300  0.36383600  1
  Mn  Mn3  1  0.46848100  0.83606700  0.63616400  1
  H  H0  1  0.25868700  0.47984500  0.62543000  1
  H  H1  1  0.74131300  0.52015500  0.37457000  1
  H  H2  1  0.24131300  0.97984500  0.87457000  1
  H  H3  1  0.75868700  0.02015500  0.12543000  1
  H  H4  1  0.17636400  0.87673200  0.44217900  1
  H  H5  1  0.82363600  0.12326800  0.55782100  1
  H  H6  1  0.32363600  0.37673200  0.05782100  1
  H  H7  1  0.67636400  0.62326800  0.94217900  1
  H  H8  1  0.17033000  0.71873600  0.47139000  1
  H  H9  1  0.82967000  0.28126400  0.52861000  1
  H  H10  1  0.32967000  0.21873600  0.02861000  1
  H  H11  1  0.67033000  0.78126400  0.97139000  1
  C  C0  1  0.70485600  0.72919400  0.39451800  1
  C  C1  1  0.29514400  0.27080600  0.60548200  1
  C  C2  1  0.79514400  0.22919400  0.10548200  1
  C  C3  1  0.20485600  0.77080600  0.89451800  1
  C  C4  1  0.27893500  0.43780700  0.43500400  1
  C  C5  1  0.72106500  0.56219300  0.56499600  1
  C  C6  1  0.22106500  0.93780700  0.06499600  1
  C  C7  1  0.77893500  0.06219300  0.93500400  1
  N  N0  1  0.14575400  0.86296400  0.15798100  1
  N  N1  1  0.85424600  0.13703600  0.84201900  1
  N  N2  1  0.35424600  0.36296400  0.34201900  1
  N  N3  1  0.64575400  0.63703600  0.65798100  1
  N  N4  1  0.77352100  0.76422500  0.28194800  1
  N  N5  1  0.22647900  0.23577500  0.71805200  1
  N  N6  1  0.72647900  0.26422500  0.21805200  1
  N  N7  1  0.27352100  0.73577500  0.78194800  1
  N  N8  1  0.19380400  0.93462100  0.26472600  1
  N  N9  1  0.80619600  0.06537900  0.73527400  1
  N  N10  1  0.30619600  0.43462100  0.23527400  1
  N  N11  1  0.69380400  0.56537900  0.76472600  1
  N  N12  1  0.21043800  0.54679400  0.26448500  1
  N  N13  1  0.78956200  0.45320600  0.73551500  1
  N  N14  1  0.28956200  0.04679400  0.23551500  1
  N  N15  1  0.71043800  0.95320600  0.76448500  1
  N  N16  1  0.87359700  0.33902700  0.04886600  1
  N  N17  1  0.12640300  0.66097300  0.95113400  1
  N  N18  1  0.62640300  0.83902700  0.45113400  1
  N  N19  1  0.37359700  0.16097300  0.54886600  1
  N  N20  1  0.29033000  0.40389500  0.56081800  1
  N  N21  1  0.70967000  0.59610500  0.43918200  1
  N  N22  1  0.20967000  0.90389500  0.93918200  1
  N  N23  1  0.79033000  0.09610500  0.06081800  1
  N  N24  1  0.72880900  0.89955400  0.26802700  1
  N  N25  1  0.27119100  0.10044600  0.73197300  1
  N  N26  1  0.77119100  0.39955400  0.23197300  1
  N  N27  1  0.22880900  0.60044600  0.76802700  1
  N  N28  1  0.85549500  0.44353700  0.13217400  1
  N  N29  1  0.14450500  0.55646300  0.86782600  1
  N  N30  1  0.64450500  0.94353700  0.36782600  1
  N  N31  1  0.35549500  0.05646300  0.63217400  1
  N  N32  1  0.18935400  0.55325900  0.39004500  1
  N  N33  1  0.81064600  0.44674100  0.60995500  1
  N  N34  1  0.31064600  0.05325900  0.10995500  1
  N  N35  1  0.68935400  0.94674100  0.89004500  1
  O  O0  1  0.68960300  0.68923800  0.01362500  1
  O  O1  1  0.31039700  0.31076200  0.98637500  1
  O  O2  1  0.81039700  0.18923800  0.48637500  1
  O  O3  1  0.18960300  0.81076200  0.51362500  1
loop_
_geom_bond_atom_site_label_1
_geom_bond_atom_site_label_2
_geom_bond_distance
_geom_bond_site_symmetry_2
Mn0 O0 2.243009 1_555
Mn0 N28 2.262994 1_555
Mn0 N0 2.271717 1_655
Mn0 N17 2.289052 1_654
Mn0 N4 2.303314 1_555
Mn0 N12 2.358748 1_655
Mn1 O1 2.243009 1_555
Mn1 N29 2.262994 1_555
Mn1 N1 2.271717 1_455
Mn1 N16 2.289052 1_456
Mn1 N5 2.303314 1_555
Mn1 N13 2.358748 1_455
Mn2 O2 2.243009 1_555
Mn2 N30 2.262994 1_545
Mn2 N2 2.271717 1_555
Mn2 N19 2.289052 1_555
Mn2 N6 2.303314 1_555
Mn2 N14 2.358748 1_555
Mn3 O3 2.243009 1_555
Mn3 N31 2.262994 1_565
Mn3 N3 2.271717 1_555
Mn3 N18 2.289052 1_555
Mn3 N7 2.303314 1_555
Mn3 N15 2.358748 1_555
H0 N20 1.035555 1_555
H1 N21 1.035555 1_555
H2 N22 1.035555 1_555
H3 N23 1.035555 1_555
H4 O3 0.991407 1_555
H5 O2 0.991407 1_555
H6 O1 0.991407 1_554
H7 O0 0.991407 1_556
H8 O3 1.001526 1_555
H9 O2 1.001526 1_555
H10 O1 1.001526 1_554
H11 O0 1.001526 1_556
C0 N18 1.343988 1_555
C0 N4 1.349952 1_555
C0 N21 1.371021 1_555
C1 N19 1.343988 1_555
C1 N5 1.349952 1_555
C1 N20 1.371021 1_555
C2 N16 1.343988 1_555
C2 N6 1.349952 1_555
C2 N23 1.371021 1_555
C3 N17 1.343988 1_555
C3 N7 1.349952 1_555
C3 N22 1.371021 1_555
C4 N32 1.344544 1_555
C4 N2 1.347172 1_555
C4 N20 1.373835 1_555
C5 N33 1.344544 1_555
C5 N3 1.347172 1_555
C5 N21 1.373835 1_555
C6 N34 1.344544 1_565
C6 N0 1.347172 1_555
C6 N22 1.373835 1_554
C7 N35 1.344544 1_545
C7 N1 1.347172 1_555
C7 N23 1.373835 1_556
N0 N8 1.352466 1_555
N1 N9 1.352466 1_555
N10 N12 1.309186 1_555
N10 N2 1.352466 1_555
N11 N13 1.309186 1_555
N11 N3 1.352466 1_555
N12 N32 1.350606 1_555
N13 N33 1.350606 1_555
N14 N8 1.309186 1_545
N14 N34 1.350606 1_555
N15 N9 1.309186 1_565
N15 N35 1.350606 1_555
N16 N28 1.353096 1_555
N17 N29 1.353096 1_555
N18 N30 1.353096 1_555
N19 N31 1.353096 1_555
N24 N30 1.302846 1_555
N24 N4 1.348971 1_555
N25 N31 1.302846 1_555
N25 N5 1.348971 1_555
N26 N28 1.302846 1_555
N26 N6 1.348971 1_555
N27 N29 1.302846 1_555
N27 N7 1.348971 1_555
