# generated using pymatgen
data_Cu4As
_symmetry_space_group_name_H-M   'P 1'
_cell_length_a   6.39621000
_cell_length_b   6.39621000
_cell_length_c   6.39621000
_cell_angle_alpha   90.00000000
_cell_angle_beta   90.00000000
_cell_angle_gamma   90.00000000
_symmetry_Int_Tables_number   1
_chemical_formula_structural   Cu4As
_chemical_formula_sum   'Cu16 As4'
_cell_volume   261.67856054
_cell_formula_units_Z   4
loop_
 _symmetry_equiv_pos_site_id
 _symmetry_equiv_pos_as_xyz
  1  'x, y, z'
loop_
 _atom_site_type_symbol
 _atom_site_label
 _atom_site_symmetry_multiplicity
 _atom_site_fract_x
 _atom_site_fract_y
 _atom_site_fract_z
 _atom_site_occupancy
  Cu  Cu0  1  0.81005400  0.31005400  0.18994600  1
  Cu  Cu1  1  0.31005400  0.18994600  0.81005400  1
  Cu  Cu2  1  0.18994600  0.81005400  0.31005400  1
  Cu  Cu3  1  0.68994600  0.68994600  0.68994600  1
  Cu  Cu4  1  0.04378500  0.87994900  0.70319800  1
  Cu  Cu5  1  0.29680200  0.54378500  0.62005100  1
  Cu  Cu6  1  0.37994900  0.79680200  0.95621500  1
  Cu  Cu7  1  0.54378500  0.62005100  0.29680200  1
  Cu  Cu8  1  0.79680200  0.95621500  0.37994900  1
  Cu  Cu9  1  0.87994900  0.70319800  0.04378500  1
  Cu  Cu10  1  0.95621500  0.37994900  0.79680200  1
  Cu  Cu11  1  0.70319800  0.04378500  0.87994900  1
  Cu  Cu12  1  0.62005100  0.29680200  0.54378500  1
  Cu  Cu13  1  0.45621500  0.12005100  0.20319800  1
  Cu  Cu14  1  0.20319800  0.45621500  0.12005100  1
  Cu  Cu15  1  0.12005100  0.20319800  0.45621500  1
  As  As0  1  0.43988000  0.93988000  0.56012000  1
  As  As1  1  0.93988000  0.56012000  0.43988000  1
  As  As2  1  0.56012000  0.43988000  0.93988000  1
  As  As3  1  0.06012000  0.06012000  0.06012000  1
loop_
_geom_bond_atom_site_label_1
_geom_bond_atom_site_label_2
_geom_bond_distance
_geom_bond_site_symmetry_2
Cu0 Cu12 2.570280 1_555
Cu0 Cu13 2.570280 1_555
Cu0 Cu8 2.570280 1_545
Cu0 Cu7 2.701712 1_555
Cu0 Cu11 2.701712 1_554
Cu0 Cu15 2.701712 1_655
Cu0 Cu10 2.719785 1_554
Cu0 Cu9 2.719785 1_555
Cu0 Cu14 2.719785 1_655
Cu1 Cu5 2.570280 1_555
Cu1 Cu15 2.570280 1_555
Cu1 Cu10 2.570280 1_455
Cu1 Cu12 2.701712 1_555
Cu1 Cu4 2.701712 1_545
Cu1 Cu14 2.701712 1_556
Cu1 Cu6 2.719785 1_545
Cu1 Cu11 2.719785 1_555
Cu1 Cu13 2.719785 1_556
Cu2 Cu7 2.570280 1_555
Cu2 Cu6 2.570280 1_554
Cu2 Cu5 2.701712 1_555
Cu2 Cu9 2.701712 1_455
Cu2 Cu8 2.719785 1_455
Cu2 Cu4 2.719785 1_555
Cu3 Cu4 2.570280 1_655
Cu3 Cu9 2.570280 1_556
Cu3 Cu8 2.701712 1_555
Cu3 Cu6 2.701712 1_555
Cu3 Cu5 2.719785 1_555
Cu3 Cu7 2.719785 1_555
Cu4 Cu8 2.647343 1_455
Cu4 Cu9 2.668704 1_456
Cu4 Cu6 2.743201 1_555
Cu4 Cu5 2.743201 1_555
Cu5 Cu7 2.647343 1_555
Cu5 Cu6 2.743201 1_555
Cu6 Cu7 2.668704 1_556
Cu7 Cu8 2.743201 1_555
Cu7 Cu9 2.743201 1_555
Cu8 Cu9 2.743201 1_555
Cu10 Cu9 2.647343 1_556
Cu10 Cu14 2.647343 1_656
Cu10 Cu15 2.668704 1_655
Cu10 Cu5 2.668704 1_655
Cu10 Cu3 2.701712 1_555
Cu10 Cu12 2.743201 1_555
Cu10 Cu11 2.743201 1_555
Cu11 Cu3 2.570280 1_545
Cu11 Cu13 2.647343 1_556
Cu11 Cu6 2.647343 1_545
Cu11 Cu4 2.668704 1_645
Cu11 Cu9 2.668704 1_546
Cu11 Cu12 2.743201 1_555
Cu12 Cu7 2.647343 1_555
Cu12 Cu5 2.647343 1_555
Cu12 Cu13 2.668704 1_555
Cu12 Cu8 2.668704 1_545
Cu12 Cu3 2.719785 1_555
Cu13 Cu6 2.647343 1_544
Cu13 Cu8 2.668704 1_545
Cu13 Cu2 2.701712 1_545
Cu13 Cu15 2.743201 1_555
Cu13 Cu14 2.743201 1_555
Cu14 Cu2 2.570280 1_555
Cu14 Cu9 2.647343 1_455
Cu14 Cu6 2.668704 1_554
Cu14 Cu7 2.668704 1_555
Cu14 Cu15 2.743201 1_555
Cu15 Cu4 2.647343 1_545
Cu15 Cu8 2.647343 1_445
Cu15 Cu5 2.668704 1_555
Cu15 Cu2 2.719785 1_545
As0 Cu1 2.409044 1_565
As0 Cu3 2.409044 1_555
As0 Cu2 2.409044 1_555
As0 Cu13 2.559457 1_565
As0 Cu8 2.559457 1_555
As0 Cu12 2.559457 1_565
As0 Cu6 2.720866 1_555
As0 Cu4 2.720866 1_555
As0 Cu5 2.720866 1_555
As0 Cu11 2.731887 1_565
As0 Cu7 2.731887 1_555
As0 Cu15 2.731887 1_565
As1 Cu2 2.409044 1_655
As1 Cu3 2.409044 1_555
As1 Cu0 2.409044 1_555
As1 Cu15 2.559457 1_655
As1 Cu10 2.559457 1_555
As1 Cu5 2.559457 1_655
As1 Cu8 2.720866 1_555
As1 Cu9 2.720866 1_555
As1 Cu7 2.720866 1_555
As1 Cu4 2.731887 1_655
As1 Cu12 2.731887 1_555
As1 Cu14 2.731887 1_655
As2 Cu0 2.409044 1_556
As2 Cu3 2.409044 1_555
As2 Cu1 2.409044 1_555
As2 Cu14 2.559457 1_556
As2 Cu6 2.559457 1_555
As2 Cu7 2.559457 1_556
As2 Cu10 2.720866 1_555
As2 Cu11 2.720866 1_555
As2 Cu12 2.720866 1_555
As2 Cu9 2.731887 1_556
As2 Cu5 2.731887 1_555
As2 Cu13 2.731887 1_556
As3 Cu0 2.409044 1_455
As3 Cu2 2.409044 1_545
As3 Cu1 2.409044 1_554
As3 Cu9 2.559457 1_445
As3 Cu11 2.559457 1_454
As3 Cu4 2.559457 1_544
As3 Cu14 2.720866 1_555
As3 Cu15 2.720866 1_555
As3 Cu13 2.720866 1_555
As3 Cu6 2.731887 1_544
As3 Cu10 2.731887 1_454
As3 Cu8 2.731887 1_445
