# generated using pymatgen
data_LiY5(MoO6)2
_symmetry_space_group_name_H-M   'P 1'
_cell_length_a   6.00323210
_cell_length_b   6.95544847
_cell_length_c   7.41038738
_cell_angle_alpha   105.10897981
_cell_angle_beta   90.01953136
_cell_angle_gamma   115.56859642
_symmetry_Int_Tables_number   1
_chemical_formula_structural   LiY5(MoO6)2
_chemical_formula_sum   'Li1 Y5 Mo2 O12'
_cell_volume   267.19993111
_cell_formula_units_Z   1
loop_
 _symmetry_equiv_pos_site_id
 _symmetry_equiv_pos_as_xyz
  1  'x, y, z'
loop_
 _atom_site_type_symbol
 _atom_site_label
 _atom_site_symmetry_multiplicity
 _atom_site_fract_x
 _atom_site_fract_y
 _atom_site_fract_z
 _atom_site_occupancy
  Li  Li0  1  0.65436300  0.31354500  0.86417100  1
  Y  Y0  1  0.49641000  0.99243700  0.49224300  1
  Y  Y1  1  0.19660700  0.39444400  0.83123000  1
  Y  Y2  1  0.82044900  0.64062400  0.18760600  1
  Y  Y3  1  0.80676400  0.61354600  0.63604700  1
  Y  Y4  1  0.19642200  0.39296100  0.36045800  1
  Mo  Mo0  1  0.74535300  0.99845100  0.99961000  1
  Mo  Mo1  1  0.25280500  0.99847800  0.99958800  1
  O  O0  1  0.00343600  0.00740300  0.81065600  1
  O  O1  1  0.00471200  0.00935800  0.20343200  1
  O  O2  1  0.49569200  0.99159900  0.18425200  1
  O  O3  1  0.50084900  0.00205500  0.79779800  1
  O  O4  1  0.59312500  0.69052300  0.42475600  1
  O  O5  1  0.89981500  0.31070400  0.58043800  1
  O  O6  1  0.41143800  0.31046100  0.58125500  1
  O  O7  1  0.41702800  0.33744900  0.07397700  1
  O  O8  1  0.05928100  0.66430800  0.91071900  1
  O  O9  1  0.60432300  0.66431200  0.91070900  1
  O  O10  1  0.92043200  0.33757100  0.07434400  1
  O  O11  1  0.09777800  0.69088300  0.42492500  1
loop_
_geom_bond_atom_site_label_1
_geom_bond_atom_site_label_2
_geom_bond_distance
_geom_bond_site_symmetry_2
Li0 O3 1.872398 1_555
Li0 O7 2.132157 1_556
Li0 O10 2.153398 1_556
Li0 O9 2.521030 1_555
Li0 O8 2.534102 1_655
Li0 O6 2.543630 1_555
Li0 O5 2.568658 1_555
Mo0 O9 2.013747 1_555
Mo0 O2 2.023484 1_556
Mo0 O10 2.038060 1_566
Mo0 O0 2.080526 1_665
Mo0 O3 2.107475 1_565
Mo0 O1 2.132603 1_666
Mo1 O8 2.014062 1_555
Mo1 O2 2.023355 1_556
Mo1 O7 2.037221 1_566
Mo1 O0 2.080669 1_565
Mo1 O3 2.107823 1_565
Mo1 O1 2.131889 1_566
O0 Y1 2.388795 1_555
O0 Y3 2.435578 1_445
O1 Y2 2.282403 1_445
O1 Y4 2.351056 1_555
O2 Y0 2.280818 1_555
O3 Y0 2.247578 1_545
O4 Y2 2.272372 1_555
O4 Y3 2.326259 1_555
O4 Y4 2.326520 1_555
O4 Y0 2.345661 1_555
O5 Y3 2.341388 1_555
O5 Y1 2.346339 1_655
O5 Y4 2.400843 1_655
O5 Y0 2.410303 1_545
O6 Y3 2.340038 1_555
O6 Y1 2.350264 1_555
O6 Y4 2.408298 1_555
O6 Y0 2.408697 1_545
O7 Y2 2.384470 1_555
O7 Y1 2.442724 1_554
O7 Y4 2.534921 1_555
O8 Y1 2.304231 1_555
O8 Y3 2.393090 1_455
O8 Y2 2.503438 1_456
O9 Y1 2.306079 1_555
O9 Y3 2.396191 1_555
O9 Y2 2.505960 1_556
O10 Y2 2.382850 1_555
O10 Y1 2.440972 1_654
O10 Y4 2.531724 1_655
O11 Y2 2.271983 1_455
O11 Y4 2.327270 1_555
O11 Y3 2.327767 1_455
O11 Y0 2.344370 1_555
