# generated using pymatgen
data_Li9Mn2Co5O16
_symmetry_space_group_name_H-M   'P 1'
_cell_length_a   5.12187037
_cell_length_b   7.79287881
_cell_length_c   7.79287780
_cell_angle_alpha   96.64226990
_cell_angle_beta   76.51498980
_cell_angle_gamma   76.51499694
_symmetry_Int_Tables_number   1
_chemical_formula_structural   Li9Mn2Co5O16
_chemical_formula_sum   'Li9 Mn2 Co5 O16'
_cell_volume   289.33693251
_cell_formula_units_Z   1
loop_
 _symmetry_equiv_pos_site_id
 _symmetry_equiv_pos_as_xyz
  1  'x, y, z'
loop_
 _atom_site_type_symbol
 _atom_site_label
 _atom_site_symmetry_multiplicity
 _atom_site_fract_x
 _atom_site_fract_y
 _atom_site_fract_z
 _atom_site_occupancy
  Li  Li0  1  0.99907200  0.11512900  0.37333400  1
  Li  Li1  1  0.00092800  0.62666600  0.88487100  1
  Li  Li2  1  0.51470200  0.99027500  0.49027500  1
  Li  Li3  1  0.48529800  0.50972500  0.00972500  1
  Li  Li4  1  0.99907200  0.87333400  0.61512900  1
  Li  Li5  1  0.00092800  0.38487100  0.12666600  1
  Li  Li6  1  0.50000000  0.75000000  0.75000000  1
  Li  Li7  1  0.50000000  0.25000000  0.25000000  1
  Li  Li8  1  0.00000000  0.75000000  0.25000000  1
  Mn  Mn0  1  0.00000000  0.99482000  0.00518000  1
  Mn  Mn1  1  0.00000000  0.50518000  0.49482000  1
  Co  Co0  1  0.50000000  0.87055300  0.12944700  1
  Co  Co1  1  0.50000000  0.37491500  0.62508500  1
  Co  Co2  1  0.00000000  0.25000000  0.75000000  1
  Co  Co3  1  0.50000000  0.62944700  0.37055300  1
  Co  Co4  1  0.50000000  0.12508500  0.87491500  1
  O  O0  1  0.76592400  0.00497100  0.23344600  1
  O  O1  1  0.76582400  0.48963700  0.73496900  1
  O  O2  1  0.27852800  0.86587900  0.36587900  1
  O  O3  1  0.26540600  0.36488000  0.86488000  1
  O  O4  1  0.76592400  0.73344600  0.50497100  1
  O  O5  1  0.76582400  0.23496900  0.98963700  1
  O  O6  1  0.24807800  0.60787500  0.60446300  1
  O  O7  1  0.24807800  0.10446300  0.10787500  1
  O  O8  1  0.23417600  0.26503100  0.51036300  1
  O  O9  1  0.23407600  0.76655400  0.99502900  1
  O  O10  1  0.73459400  0.13512000  0.63512000  1
  O  O11  1  0.72147200  0.63412100  0.13412100  1
  O  O12  1  0.23417600  0.01036300  0.76503100  1
  O  O13  1  0.23407600  0.49502900  0.26655400  1
  O  O14  1  0.75192200  0.89212500  0.89553700  1
  O  O15  1  0.75192200  0.39553700  0.39212500  1
loop_
_geom_bond_atom_site_label_1
_geom_bond_atom_site_label_2
_geom_bond_distance
_geom_bond_site_symmetry_2
Li0 O0 2.054277 1_555
Li0 O2 2.112677 1_645
Li0 O10 2.135495 1_555
Li0 O7 2.143191 1_655
Li0 O8 2.218587 1_655
Li0 O15 2.224487 1_555
Li1 O9 2.054277 1_555
Li1 O11 2.112677 1_456
Li1 O3 2.135496 1_555
Li1 O14 2.143192 1_455
Li1 O1 2.218587 1_455
Li1 O6 2.224486 1_555
Li2 O2 2.054055 1_555
Li2 O0 2.143644 1_565
Li2 O4 2.143644 1_555
Li2 O10 2.169724 1_565
Li2 O12 2.248599 1_565
Li2 O8 2.248600 1_565
Li3 O11 2.054055 1_555
Li3 O13 2.143644 1_555
Li3 O9 2.143644 1_554
Li3 O3 2.169724 1_554
Li3 O1 2.248599 1_554
Li3 O5 2.248600 1_554
Li4 O4 2.054277 1_555
Li4 O2 2.112677 1_655
Li4 O10 2.135496 1_565
Li4 O6 2.143192 1_655
Li4 O12 2.218587 1_665
Li4 O14 2.224486 1_555
Li5 O13 2.054277 1_555
Li5 O11 2.112677 1_455
Li5 O3 2.135495 1_554
Li5 O15 2.143191 1_455
Li5 O5 2.218587 1_454
Li5 O7 2.224487 1_555
Li6 O4 2.041078 1_555
Li6 O9 2.041078 1_555
Li6 O12 2.136928 1_565
Li6 O1 2.136928 1_555
Li6 O6 2.288301 1_555
Li6 O14 2.288301 1_555
Li7 O13 2.041078 1_555
Li7 O0 2.041078 1_555
Li7 O8 2.136928 1_555
Li7 O5 2.136928 1_554
Li7 O7 2.288301 1_555
Li7 O15 2.288301 1_555
Li8 O4 2.102961 1_455
Li8 O9 2.102961 1_554
Li8 O0 2.102962 1_465
Li8 O13 2.102962 1_555
Li8 O2 2.163112 1_555
Li8 O11 2.163112 1_455
Mn0 O0 1.880562 1_465
Mn0 O9 1.880562 1_554
Mn0 O14 1.951256 1_454
Mn0 O7 1.951256 1_565
Mn0 O12 2.007222 1_564
Mn0 O5 2.007222 1_464
Mn1 O13 1.880562 1_555
Mn1 O4 1.880562 1_455
Mn1 O6 1.951256 1_555
Mn1 O15 1.951256 1_455
Mn1 O1 2.007222 1_455
Mn1 O8 2.007222 1_555
Co0 O2 1.934652 1_555
Co0 O11 1.934652 1_555
Co0 O14 2.022621 1_554
Co0 O7 2.022621 1_565
Co0 O9 2.143138 1_554
Co0 O0 2.143138 1_565
Co1 O3 1.993067 1_555
Co1 O10 1.993067 1_555
Co1 O15 2.014505 1_555
Co1 O6 2.014505 1_555
Co1 O8 2.078603 1_555
Co1 O1 2.078603 1_555
Co2 O8 2.002807 1_555
Co2 O5 2.002807 1_455
Co2 O12 2.002807 1_555
Co2 O1 2.002807 1_455
Co2 O3 2.097754 1_555
Co2 O10 2.097754 1_455
Co3 O11 1.934652 1_555
Co3 O2 1.934652 1_555
Co3 O6 2.022621 1_555
Co3 O15 2.022621 1_555
Co3 O4 2.143138 1_555
Co3 O13 2.143138 1_555
Co4 O10 1.993067 1_555
Co4 O3 1.993067 1_555
Co4 O7 2.014505 1_556
Co4 O14 2.014505 1_545
Co4 O5 2.078603 1_555
Co4 O12 2.078603 1_555
