# generated using pymatgen
data_SrCuTeF
_symmetry_space_group_name_H-M   'P 1'
_cell_length_a   4.27636600
_cell_length_b   4.27636600
_cell_length_c   9.22155300
_cell_angle_alpha   90.00000000
_cell_angle_beta   90.00000000
_cell_angle_gamma   90.00000000
_symmetry_Int_Tables_number   1
_chemical_formula_structural   SrCuTeF
_chemical_formula_sum   'Sr2 Cu2 Te2 F2'
_cell_volume   168.63736304
_cell_formula_units_Z   2
loop_
 _symmetry_equiv_pos_site_id
 _symmetry_equiv_pos_as_xyz
  1  'x, y, z'
loop_
 _atom_site_type_symbol
 _atom_site_label
 _atom_site_symmetry_multiplicity
 _atom_site_fract_x
 _atom_site_fract_y
 _atom_site_fract_z
 _atom_site_occupancy
  Sr  Sr0  1  0.00000000  0.50000000  0.85253400  1
  Sr  Sr1  1  0.50000000  0.00000000  0.14746600  1
  Cu  Cu0  1  0.50000000  0.50000000  0.50000000  1
  Cu  Cu1  1  0.00000000  0.00000000  0.50000000  1
  Te  Te0  1  0.00000000  0.50000000  0.32625700  1
  Te  Te1  1  0.50000000  0.00000000  0.67374300  1
  F  F0  1  0.50000000  0.50000000  0.00000000  1
  F  F1  1  0.00000000  0.00000000  0.00000000  1
loop_
_geom_bond_atom_site_label_1
_geom_bond_atom_site_label_2
_geom_bond_distance
_geom_bond_site_symmetry_2
Sr0 Te1 3.444120 1_555
Sr0 Te1 3.444120 1_565
Sr0 Te1 3.444120 1_465
Sr0 Te1 3.444120 1_455
Sr1 Te0 3.444120 1_545
Sr1 Te0 3.444120 1_655
Sr1 Te0 3.444120 1_645
Sr1 Te0 3.444120 1_555
Cu0 Te0 2.671855 1_655
Cu0 Te1 2.671855 1_555
Cu0 Te1 2.671855 1_565
Cu0 Te0 2.671855 1_555
Cu1 Te1 2.671855 1_555
Cu1 Te1 2.671855 1_455
Cu1 Te0 2.671855 1_555
Cu1 Te0 2.671855 1_545
F0 Sr0 2.533981 1_654
F0 Sr0 2.533981 1_554
F0 Sr1 2.533981 1_555
F0 Sr1 2.533981 1_565
F1 Sr0 2.533981 1_544
F1 Sr0 2.533981 1_554
F1 Sr1 2.533981 1_455
F1 Sr1 2.533981 1_555
