# generated using pymatgen
data_BH6N
_symmetry_space_group_name_H-M   'P 1'
_cell_length_a   5.19096200
_cell_length_b   6.88858900
_cell_length_c   7.09728431
_cell_angle_alpha   81.63727344
_cell_angle_beta   90.00000000
_cell_angle_gamma   90.00000000
_symmetry_Int_Tables_number   1
_chemical_formula_structural   BH6N
_chemical_formula_sum   'B4 H24 N4'
_cell_volume   251.08907450
_cell_formula_units_Z   4
loop_
 _symmetry_equiv_pos_site_id
 _symmetry_equiv_pos_as_xyz
  1  'x, y, z'
loop_
 _atom_site_type_symbol
 _atom_site_label
 _atom_site_symmetry_multiplicity
 _atom_site_fract_x
 _atom_site_fract_y
 _atom_site_fract_z
 _atom_site_occupancy
  B  B0  1  0.60153700  0.09443100  0.76323200  1
  B  B1  1  0.10153700  0.90556900  0.23676800  1
  B  B2  1  0.09690000  0.48482200  0.78033700  1
  B  B3  1  0.59690000  0.51517800  0.21966300  1
  H  H0  1  0.89349100  0.93341100  0.61163500  1
  H  H1  1  0.39349100  0.06658900  0.38836500  1
  H  H2  1  0.90473800  0.87046900  0.84408300  1
  H  H3  1  0.40473800  0.12953100  0.15591700  1
  H  H4  1  0.02321900  0.08420400  0.74763400  1
  H  H5  1  0.52321900  0.91579600  0.25236600  1
  H  H6  1  0.63818100  0.21888700  0.86534800  1
  H  H7  1  0.13818100  0.78111300  0.13465200  1
  H  H8  1  0.52519200  0.17110400  0.60603900  1
  H  H9  1  0.02519200  0.82889600  0.39396100  1
  H  H10  1  0.44761600  0.97284800  0.83841100  1
  H  H11  1  0.94761600  0.02715200  0.16158900  1
  H  H12  1  0.36555600  0.66373400  0.58731700  1
  H  H13  1  0.86555600  0.33626600  0.41268300  1
  H  H14  1  0.52127900  0.51032700  0.74681400  1
  H  H15  1  0.02127900  0.48967300  0.25318600  1
  H  H16  1  0.39600600  0.71183200  0.80861300  1
  H  H17  1  0.89600600  0.28816800  0.19138700  1
  H  H18  1  0.14865900  0.32379800  0.86813100  1
  H  H19  1  0.64865900  0.67620200  0.13186900  1
  H  H20  1  0.96671800  0.57799100  0.87903400  1
  H  H21  1  0.46671800  0.42200900  0.12096600  1
  H  H22  1  0.98431300  0.47124200  0.63162400  1
  H  H23  1  0.48431300  0.52875800  0.36837600  1
  N  N0  1  0.87307800  0.98774700  0.73824400  1
  N  N1  1  0.37307800  0.01225300  0.26175600  1
  N  N2  1  0.36421700  0.60191900  0.72775100  1
  N  N3  1  0.86421700  0.39808100  0.27224900  1
loop_
_geom_bond_atom_site_label_1
_geom_bond_atom_site_label_2
_geom_bond_distance
_geom_bond_site_symmetry_2
B0 H6 1.215395 1_555
B0 H10 1.222525 1_545
B0 H8 1.228527 1_555
B0 N0 1.611304 1_545
B1 H7 1.215395 1_555
B1 H11 1.222525 1_465
B1 H9 1.228527 1_555
B1 N1 1.611304 1_565
B2 H18 1.220567 1_555
B2 H20 1.220664 1_455
B2 H22 1.221895 1_455
B2 N2 1.621081 1_555
B3 H19 1.220567 1_555
B3 H21 1.220664 1_555
B3 H23 1.221895 1_555
B3 N3 1.621081 1_555
H0 N0 1.027914 1_555
H1 N1 1.027914 1_555
H2 N0 1.033157 1_555
H3 N1 1.033157 1_555
H4 N0 1.032592 1_445
H5 N1 1.032592 1_565
H12 N2 1.025343 1_555
H13 N3 1.025343 1_555
H14 N2 1.027754 1_555
H15 N3 1.027754 1_455
H16 N2 1.027743 1_555
H17 N3 1.027743 1_555
