# generated using pymatgen
data_KYTa2O7
_symmetry_space_group_name_H-M   'P 1'
_cell_length_a   7.54824449
_cell_length_b   7.54824449
_cell_length_c   7.54824449
_cell_angle_alpha   121.02674505
_cell_angle_beta   119.99995169
_cell_angle_gamma   89.11546671
_symmetry_Int_Tables_number   1
_chemical_formula_structural   KYTa2O7
_chemical_formula_sum   'K2 Y2 Ta4 O14'
_cell_volume   301.67504588
_cell_formula_units_Z   2
loop_
 _symmetry_equiv_pos_site_id
 _symmetry_equiv_pos_as_xyz
  1  'x, y, z'
loop_
 _atom_site_type_symbol
 _atom_site_label
 _atom_site_symmetry_multiplicity
 _atom_site_fract_x
 _atom_site_fract_y
 _atom_site_fract_z
 _atom_site_occupancy
  K  K0  1  0.00000000  0.00000000  0.50000000  1
  K  K1  1  0.00000000  0.50000000  0.00000000  1
  Y  Y0  1  0.00000000  0.00000000  0.00000000  1
  Y  Y1  1  0.50000000  0.00000000  0.50000000  1
  Ta  Ta0  1  0.50000000  0.50000000  0.50000000  1
  Ta  Ta1  1  0.50000000  0.00000000  0.00000000  1
  Ta  Ta2  1  0.50000000  0.50000000  0.00000000  1
  Ta  Ta3  1  0.00000000  0.50000000  0.50000000  1
  O  O0  1  0.15972600  0.90972600  0.25000000  1
  O  O1  1  0.84027400  0.09027400  0.75000000  1
  O  O2  1  0.43402100  0.18402100  0.25000000  1
  O  O3  1  0.80753600  0.55753600  0.25000000  1
  O  O4  1  0.44309200  0.57424400  0.26062000  1
  O  O5  1  0.81362500  0.18247200  0.23938000  1
  O  O6  1  0.44309200  0.18247200  0.86884700  1
  O  O7  1  0.81362500  0.57424400  0.63115300  1
  O  O8  1  0.56597900  0.81597900  0.75000000  1
  O  O9  1  0.19246400  0.44246400  0.75000000  1
  O  O10  1  0.55690800  0.42575600  0.73938000  1
  O  O11  1  0.18637500  0.81752800  0.76062000  1
  O  O12  1  0.55690800  0.81752800  0.13115300  1
  O  O13  1  0.18637500  0.42575600  0.36884700  1
loop_
_geom_bond_atom_site_label_1
_geom_bond_atom_site_label_2
_geom_bond_distance
_geom_bond_site_symmetry_2
K0 O0 2.530438 1_545
K0 O1 2.530438 1_455
K0 O6 2.777053 1_555
K0 O12 2.777053 1_445
K0 O5 2.777053 1_455
K0 O11 2.777053 1_545
K0 O9 2.781594 1_555
K0 O3 2.781594 1_445
K1 O0 2.530438 1_555
K1 O1 2.530438 1_454
K1 O7 2.777048 1_454
K1 O13 2.777048 1_555
K1 O10 2.777054 1_454
K1 O4 2.777054 1_555
K1 O9 2.781594 1_554
K1 O3 2.781594 1_455
O0 Y1 2.122258 1_565
O0 Y0 2.122258 1_565
O1 Y1 2.122258 1_555
O1 Y0 2.122258 1_656
O2 Ta0 1.988659 1_555
O2 Ta1 1.988659 1_555
O2 Y1 2.734852 1_555
O2 Y0 2.734852 1_555
O3 Ta2 1.985964 1_555
O3 Ta3 1.985964 1_655
O4 Ta0 2.005926 1_555
O4 Ta2 2.017337 1_555
O4 Y1 2.656624 1_565
O5 Ta1 2.005932 1_555
O5 Ta3 2.017336 1_655
O5 Y0 2.656618 1_655
O6 Ta1 2.005932 1_556
O6 Ta2 2.017336 1_556
O6 Y1 2.656618 1_555
O7 Ta0 2.005932 1_555
O7 Ta3 2.017336 1_655
O7 Y0 2.656623 1_666
O8 Ta0 1.988659 1_555
O8 Ta1 1.988659 1_566
O8 Y1 2.734852 1_565
O8 Y0 2.734852 1_666
O9 Ta2 1.985964 1_556
O9 Ta3 1.985964 1_555
O10 Ta0 2.005926 1_555
O10 Ta2 2.017337 1_556
O10 Y1 2.656624 1_555
O11 Ta1 2.005932 1_566
O11 Ta3 2.017336 1_555
O11 Y0 2.656618 1_566
O12 Ta1 2.005932 1_565
O12 Ta2 2.017336 1_555
O12 Y1 2.656618 1_565
O13 Ta0 2.005932 1_555
O13 Ta3 2.017336 1_555
O13 Y0 2.656623 1_555
