# generated using pymatgen
data_Ca2Si3Pb3O11
_symmetry_space_group_name_H-M   'P 1'
_cell_length_a   10.05227294
_cell_length_b   10.05227294
_cell_length_c   10.31903800
_cell_angle_alpha   90.00000000
_cell_angle_beta   90.00000000
_cell_angle_gamma   120.00000617
_symmetry_Int_Tables_number   1
_chemical_formula_structural   Ca2Si3Pb3O11
_chemical_formula_sum   'Ca6 Si9 Pb9 O33'
_cell_volume   903.02206105
_cell_formula_units_Z   3
loop_
 _symmetry_equiv_pos_site_id
 _symmetry_equiv_pos_as_xyz
  1  'x, y, z'
loop_
 _atom_site_type_symbol
 _atom_site_label
 _atom_site_symmetry_multiplicity
 _atom_site_fract_x
 _atom_site_fract_y
 _atom_site_fract_z
 _atom_site_occupancy
  Ca  Ca0  1  0.00000000  0.00000000  0.83928600  1
  Ca  Ca1  1  0.00000000  0.00000000  0.16071400  1
  Ca  Ca2  1  0.66666700  0.33333300  0.82225000  1
  Ca  Ca3  1  0.66666700  0.33333300  0.17775000  1
  Ca  Ca4  1  0.66666700  0.33333300  0.50000000  1
  Ca  Ca5  1  0.00000000  0.00000000  0.50000000  1
  Si  Si0  1  0.92513700  0.28162700  0.00000000  1
  Si  Si1  1  0.35649000  0.07486300  0.00000000  1
  Si  Si2  1  0.71837300  0.64351000  0.00000000  1
  Si  Si3  1  0.74037200  0.04954100  0.64933500  1
  Si  Si4  1  0.30916900  0.25962800  0.64933500  1
  Si  Si5  1  0.74037200  0.04954100  0.35066500  1
  Si  Si6  1  0.95045900  0.69083100  0.64933500  1
  Si  Si7  1  0.30916900  0.25962800  0.35066500  1
  Si  Si8  1  0.95045900  0.69083100  0.35066500  1
  Pb  Pb0  1  0.60738000  0.67176100  0.67881000  1
  Pb  Pb1  1  0.06438100  0.39262000  0.67881000  1
  Pb  Pb2  1  0.60738000  0.67176100  0.32119000  1
  Pb  Pb3  1  0.32823900  0.93561900  0.67881000  1
  Pb  Pb4  1  0.06438100  0.39262000  0.32119000  1
  Pb  Pb5  1  0.32823900  0.93561900  0.32119000  1
  Pb  Pb6  1  0.58788100  0.93779200  0.00000000  1
  Pb  Pb7  1  0.34991000  0.41211900  0.00000000  1
  Pb  Pb8  1  0.06220800  0.65009000  0.00000000  1
  O  O0  1  0.65125100  0.90810600  0.75341300  1
  O  O1  1  0.25685400  0.34874900  0.75341300  1
  O  O2  1  0.65125100  0.90810600  0.24658700  1
  O  O3  1  0.09189400  0.74314600  0.75341300  1
  O  O4  1  0.25685400  0.34874900  0.24658700  1
  O  O5  1  0.09189400  0.74314600  0.24658700  1
  O  O6  1  0.98302500  0.40303700  0.87610700  1
  O  O7  1  0.42001200  0.01697500  0.87610700  1
  O  O8  1  0.98302500  0.40303700  0.12389300  1
  O  O9  1  0.59696300  0.57998800  0.87610700  1
  O  O10  1  0.42001200  0.01697500  0.12389300  1
  O  O11  1  0.59696300  0.57998800  0.12389300  1
  O  O12  1  0.70760100  0.96756800  0.50000000  1
  O  O13  1  0.25996700  0.29239900  0.50000000  1
  O  O14  1  0.03243200  0.74003300  0.50000000  1
  O  O15  1  0.83699400  0.82620400  0.00000000  1
  O  O16  1  0.98920900  0.16300600  0.00000000  1
  O  O17  1  0.17379600  0.01079100  0.00000000  1
  O  O18  1  0.69067900  0.17870000  0.65730200  1
  O  O19  1  0.48802200  0.30932100  0.65730200  1
  O  O20  1  0.69067900  0.17870000  0.34269800  1
  O  O21  1  0.82130000  0.51197800  0.65730200  1
  O  O22  1  0.48802200  0.30932100  0.34269800  1
  O  O23  1  0.82130000  0.51197800  0.34269800  1
  O  O24  1  0.73468700  0.19619500  0.00000000  1
  O  O25  1  0.46150900  0.26531300  0.00000000  1
  O  O26  1  0.80380500  0.53849100  0.00000000  1
  O  O27  1  0.92927600  0.12653200  0.66785700  1
  O  O28  1  0.19725600  0.07072400  0.66785700  1
  O  O29  1  0.92927600  0.12653200  0.33214300  1
  O  O30  1  0.87346800  0.80274400  0.66785700  1
  O  O31  1  0.19725600  0.07072400  0.33214300  1
  O  O32  1  0.87346800  0.80274400  0.33214300  1
loop_
_geom_bond_atom_site_label_1
_geom_bond_atom_site_label_2
_geom_bond_distance
_geom_bond_site_symmetry_2
Ca0 O17 2.371658 1_556
Ca0 O15 2.371661 1_446
Ca0 O16 2.371665 1_456
Ca0 O30 2.481292 1_445
Ca0 O28 2.481292 1_555
Ca0 O27 2.481292 1_455
Ca1 O17 2.371658 1_555
Ca1 O15 2.371661 1_445
Ca1 O16 2.371665 1_455
Ca1 O32 2.481292 1_445
Ca1 O31 2.481292 1_555
Ca1 O29 2.481292 1_455
Ca2 O21 2.397252 1_555
Ca2 O19 2.397252 1_555
Ca2 O18 2.397252 1_555
Ca2 O26 2.583569 1_556
Ca2 O25 2.583569 1_556
Ca2 O24 2.583569 1_556
Ca2 O6 2.946983 1_555
Ca2 O7 2.946985 1_555
Ca2 O9 2.946992 1_555
Ca3 O23 2.397252 1_555
Ca3 O22 2.397252 1_555
Ca3 O20 2.397252 1_555
Ca3 O26 2.583569 1_555
Ca3 O25 2.583569 1_555
Ca3 O24 2.583569 1_555
Ca3 O8 2.946983 1_555
Ca3 O10 2.946985 1_555
Ca3 O11 2.946992 1_555
Ca4 O23 2.341891 1_555
Ca4 O21 2.341891 1_555
Ca4 O22 2.341891 1_555
Ca4 O19 2.341891 1_555
Ca4 O20 2.341891 1_555
Ca4 O18 2.341891 1_555
Ca5 O32 2.455150 1_445
Ca5 O30 2.455150 1_445
Ca5 O31 2.455150 1_555
Ca5 O28 2.455150 1_555
Ca5 O29 2.455150 1_455
Ca5 O27 2.455150 1_455
Ca5 O13 2.790586 1_555
Ca5 O12 2.790586 1_445
Ca5 O14 2.790586 1_545
O0 Si3 1.644288 1_565
O0 Pb0 2.320309 1_555
O0 Pb6 2.675745 1_556
O1 Si4 1.644294 1_555
O1 Pb1 2.320300 1_555
O1 Pb7 2.675745 1_556
O2 Si5 1.644288 1_565
O2 Pb2 2.320309 1_555
O2 Pb6 2.675745 1_555
O3 Si6 1.644287 1_455
O3 Pb3 2.320305 1_555
O3 Pb8 2.675745 1_556
O4 Si7 1.644294 1_555
O4 Pb4 2.320300 1_555
O4 Pb7 2.675745 1_555
O5 Si8 1.644287 1_455
O5 Pb5 2.320305 1_555
O5 Pb8 2.675745 1_555
O6 Si0 1.659027 1_556
O6 Pb1 2.215936 1_655
O6 Pb8 2.541411 1_656
O7 Si1 1.659027 1_556
O7 Pb3 2.215936 1_545
O7 Pb6 2.541402 1_546
O8 Si0 1.659027 1_555
O8 Pb4 2.215936 1_655
O8 Pb8 2.541411 1_655
O9 Si2 1.659027 1_556
O9 Pb0 2.215936 1_555
O9 Pb7 2.541409 1_556
O10 Si1 1.659027 1_555
O10 Pb5 2.215936 1_545
O10 Pb6 2.541402 1_545
O11 Si2 1.659027 1_555
O11 Pb2 2.215936 1_555
O11 Pb7 2.541409 1_555
O12 Si5 1.700215 1_565
O12 Si3 1.700215 1_565
O13 Si7 1.700215 1_555
O13 Si4 1.700215 1_555
O14 Si8 1.700215 1_455
O14 Si6 1.700215 1_455
O15 Si2 1.613905 1_555
O16 Si0 1.613897 1_555
O17 Si1 1.613906 1_555
O18 Si3 1.609514 1_555
O19 Si4 1.609523 1_555
O20 Si5 1.609514 1_555
O21 Si6 1.609521 1_555
O22 Si7 1.609523 1_555
O23 Si8 1.609521 1_555
O24 Si0 1.660887 1_555
O24 Pb6 2.256483 1_545
O25 Si1 1.660887 1_555
O25 Pb7 2.256500 1_555
O26 Si2 1.660896 1_555
O26 Pb8 2.256482 1_655
O27 Si3 1.664856 1_555
O27 Pb1 2.319284 1_655
O28 Si4 1.664856 1_555
O28 Pb3 2.319284 1_545
O29 Si5 1.664856 1_555
O29 Pb4 2.319284 1_655
O30 Si6 1.664856 1_555
O30 Pb0 2.319284 1_555
O31 Si7 1.664856 1_555
O31 Pb5 2.319284 1_545
O32 Si8 1.664856 1_555
O32 Pb2 2.319284 1_555
