# generated using pymatgen
data_In10(Sn2S7)3
_symmetry_space_group_name_H-M   'P 1'
_cell_length_a   3.90900200
_cell_length_b   15.75168569
_cell_length_c   27.95671040
_cell_angle_alpha   84.57440026
_cell_angle_beta   89.53000543
_cell_angle_gamma   89.50844152
_symmetry_Int_Tables_number   1
_chemical_formula_structural   In10(Sn2S7)3
_chemical_formula_sum   'In20 Sn12 S42'
_cell_volume   1713.56645535
_cell_formula_units_Z   2
loop_
 _symmetry_equiv_pos_site_id
 _symmetry_equiv_pos_as_xyz
  1  'x, y, z'
loop_
 _atom_site_type_symbol
 _atom_site_label
 _atom_site_symmetry_multiplicity
 _atom_site_fract_x
 _atom_site_fract_y
 _atom_site_fract_z
 _atom_site_occupancy
  In  In0  1  0.49911800  0.91148800  0.95325300  1
  In  In1  1  0.50070900  0.08847700  0.04638700  1
  In  In2  1  0.00134600  0.52699900  0.24935400  1
  In  In3  1  0.99871500  0.47401700  0.75025200  1
  In  In4  1  0.99907900  0.91376100  0.45095800  1
  In  In5  1  0.00063200  0.09022500  0.54911100  1
  In  In6  1  0.49958200  0.70703200  0.48228700  1
  In  In7  1  0.50021800  0.28986600  0.51663500  1
  In  In8  1  0.00015000  0.49979700  0.50026700  1
  In  In9  1  0.99744100  0.69897800  0.96789700  1
  In  In10  1  0.00243900  0.30034400  0.03182500  1
  In  In11  1  0.49950900  0.62167800  0.83236300  1
  In  In12  1  0.50028500  0.37826500  0.16683700  1
  In  In13  1  0.00165400  0.73969800  0.72276300  1
  In  In14  1  0.99858000  0.26342600  0.27560200  1
  In  In15  1  0.50074500  0.58687000  0.64034700  1
  In  In16  1  0.49953900  0.41692200  0.36041400  1
  In  In17  1  0.50004600  0.50011100  0.99991300  1
  In  In18  1  0.00089000  0.87521300  0.07697600  1
  In  In19  1  0.99890900  0.12547400  0.92256600  1
  Sn  Sn0  1  0.50163200  0.90385300  0.80412800  1
  Sn  Sn1  1  0.49863300  0.09287900  0.19381400  1
  Sn  Sn2  1  0.49730400  0.69399700  0.34491700  1
  Sn  Sn3  1  0.50229300  0.30712100  0.65549900  1
  Sn  Sn4  1  0.49454600  0.64217800  0.13558400  1
  Sn  Sn5  1  0.50520800  0.35854000  0.86362700  1
  Sn  Sn6  1  0.49296600  0.86528300  0.58535000  1
  Sn  Sn7  1  0.37355200  0.82623100  0.21919000  1
  Sn  Sn8  1  0.62688200  0.17372500  0.78032400  1
  Sn  Sn9  1  0.58002900  0.95521500  0.31861500  1
  Sn  Sn10  1  0.42125400  0.04136800  0.68215300  1
  Sn  Sn11  1  0.50619200  0.15399200  0.39429700  1
  S  S0  1  0.49861000  0.60123500  0.73801800  1
  S  S1  1  0.50086300  0.39766000  0.26295700  1
  S  S2  1  0.00497100  0.98943000  0.22985200  1
  S  S3  1  0.99506700  0.01118500  0.76941000  1
  S  S4  1  0.99619900  0.73125400  0.81521700  1
  S  S5  1  0.00357800  0.26827500  0.18461000  1
  S  S6  1  0.00517800  0.79727400  0.52147800  1
  S  S7  1  0.99759600  0.20009200  0.47660200  1
  S  S8  1  0.99671300  0.79659500  0.30171800  1
  S  S9  1  0.00297700  0.20360600  0.69827400  1
  S  S10  1  0.00355800  0.83555500  0.91528800  1
  S  S11  1  0.99648100  0.16398500  0.08521400  1
  S  S12  1  0.00256300  0.63665800  0.43843400  1
  S  S13  1  0.99747200  0.36333000  0.56012000  1
  S  S14  1  0.99383800  0.97202300  0.61943400  1
  S  S15  1  0.00546600  0.03000500  0.37879800  1
  S  S16  1  0.99418100  0.76177300  0.15061900  1
  S  S17  1  0.00596100  0.23822800  0.84948200  1
  S  S18  1  0.49312900  0.63630200  0.23496500  1
  S  S19  1  0.50692100  0.36372900  0.76532200  1
  S  S20  1  0.49784600  0.96144700  0.11264500  1
  S  S21  1  0.50252100  0.03943100  0.88840600  1
  S  S22  1  0.99734300  0.52665100  0.34053600  1
  S  S23  1  0.00235300  0.47294600  0.65915200  1
  S  S24  1  0.50265800  0.62470900  0.92782000  1
  S  S25  1  0.49739600  0.37513500  0.07252100  1
  S  S26  1  0.49595600  0.84842300  0.71495500  1
  S  S27  1  0.50400400  0.15422900  0.28796200  1
  S  S28  1  0.00107000  0.70154700  0.63630500  1
  S  S29  1  0.99673000  0.29702600  0.36335900  1
  S  S30  1  0.50453600  0.83557200  0.40874200  1
  S  S31  1  0.49568800  0.16655100  0.59069300  1
  S  S32  1  0.49892900  0.57522100  0.54614300  1
  S  S33  1  0.50111500  0.42461300  0.45292700  1
  S  S34  1  0.99670700  0.50312000  0.84027700  1
  S  S35  1  0.00303800  0.49640100  0.16027700  1
  S  S36  1  0.99998400  0.58899300  0.03842300  1
  S  S37  1  0.00022400  0.41154600  0.96207700  1
  S  S38  1  0.50252300  0.80057600  0.02899600  1
  S  S39  1  0.49770000  0.20034600  0.97190400  1
  S  S40  1  0.00015800  0.99984000  0.00044400  1
  S  S41  1  0.50011900  0.99226200  0.50361700  1
loop_
_geom_bond_atom_site_label_1
_geom_bond_atom_site_label_2
_geom_bond_distance
_geom_bond_site_symmetry_2
In0 S10 2.571108 1_655
In0 S10 2.573557 1_555
In0 S21 2.580207 1_565
In0 S38 2.614719 1_556
In0 S40 2.782085 1_556
In0 S40 2.819527 1_656
In1 S11 2.578110 1_455
In1 S11 2.582019 1_555
In1 S20 2.595039 1_545
In1 S39 2.597568 1_554
In1 S40 2.768017 1_645
In1 S40 2.802636 1_545
In2 S22 2.548556 1_455
In2 S35 2.580810 1_555
In2 S18 2.595144 1_555
In2 S18 2.626063 1_455
In2 S1 2.811646 1_555
In2 S1 2.834144 1_455
In3 S23 2.548429 1_655
In3 S34 2.600443 1_555
In3 S19 2.607060 1_555
In3 S19 2.637810 1_655
In3 S0 2.787186 1_555
In3 S0 2.806719 1_655
In4 S6 2.563217 1_655
In4 S15 2.593160 1_665
In4 S30 2.645768 1_555
In4 S30 2.647369 1_655
In4 S41 2.785002 1_555
In4 S41 2.822298 1_655
In5 S7 2.537895 1_455
In5 S14 2.576866 1_445
In5 S31 2.622740 1_455
In5 S31 2.623521 1_555
In5 S41 2.844236 1_545
In5 S41 2.879309 1_445
In6 S12 2.603392 1_655
In6 S32 2.607076 1_555
In6 S12 2.615248 1_555
In6 S6 2.677443 1_555
In6 S6 2.739584 1_655
In6 S30 2.745924 1_555
In7 S13 2.620488 1_455
In7 S13 2.634125 1_555
In7 S33 2.638623 1_555
In7 S7 2.692354 1_555
In7 S31 2.701742 1_555
In7 S7 2.737795 1_455
In8 S13 2.596274 1_455
In8 S12 2.632699 1_555
In8 S32 2.664981 1_455
In8 S33 2.683840 1_555
In8 S32 2.688261 1_555
In8 S33 2.708840 1_455
In9 S10 2.488749 1_655
In9 S36 2.498610 1_556
In9 S24 2.585911 1_555
In9 S24 2.587673 1_655
In9 S38 3.103417 1_556
In9 S38 3.162813 1_656
In10 S37 2.494909 1_554
In10 S11 2.497154 1_455
In10 S25 2.598922 1_555
In10 S25 2.599334 1_455
In10 S39 3.070634 1_554
In10 S39 3.128370 1_454
In11 S4 2.619983 1_555
In11 S4 2.623059 1_455
In11 S24 2.673732 1_555
In11 S34 2.679643 1_555
In11 S0 2.687247 1_555
In11 S34 2.716097 1_455
In12 S5 2.626321 1_555
In12 S5 2.629421 1_655
In12 S25 2.642001 1_555
In12 S35 2.674647 1_555
In12 S35 2.711258 1_655
In12 S1 2.733081 1_555
In13 S28 2.545234 1_555
In13 S4 2.575462 1_455
In13 S26 2.587146 1_555
In13 S26 2.601267 1_455
In13 S0 2.911607 1_555
In13 S0 2.947782 1_455
In14 S5 2.537674 1_655
In14 S29 2.558225 1_555
In14 S27 2.597936 1_555
In14 S27 2.611863 1_655
In14 S1 2.860127 1_555
In14 S1 2.892964 1_655
In15 S28 2.644860 1_555
In15 S32 2.657341 1_555
In15 S28 2.668169 1_655
In15 S23 2.668224 1_655
In15 S23 2.675242 1_555
In15 S0 2.761098 1_555
In16 S33 2.600672 1_555
In16 S22 2.632108 1_455
In16 S22 2.634611 1_555
In16 S29 2.694618 1_555
In16 S29 2.732801 1_455
In16 S1 2.769742 1_555
In17 S37 2.661983 1_655
In17 S36 2.672787 1_456
In17 S24 2.676968 1_555
In17 S25 2.690758 1_556
In17 S37 2.691118 1_555
In17 S36 2.702747 1_556
In18 S16 2.595486 1_455
In18 S20 2.623799 1_455
In18 S20 2.635593 1_555
In18 S38 2.691098 1_555
In18 S38 2.712375 1_455
In18 S40 2.763558 1_555
In19 S17 2.577492 1_655
In19 S21 2.606249 1_655
In19 S21 2.614249 1_555
In19 S39 2.712130 1_555
In19 S39 2.736103 1_655
In19 S40 2.800310 1_646
S2 Sn1 2.665663 1_565
S2 Sn1 2.693468 1_465
S2 Sn7 2.974441 1_555
S2 Sn9 2.983703 1_455
S3 Sn0 2.689933 1_545
S3 Sn0 2.717576 1_645
S3 Sn10 2.946157 1_655
S3 Sn8 2.965944 1_555
S6 Sn6 2.902505 1_555
S6 Sn6 2.934515 1_455
S7 Sn11 3.150248 1_555
S7 Sn11 3.160775 1_655
S8 Sn7 2.731927 1_655
S8 Sn2 2.741318 1_655
S8 Sn2 2.743667 1_555
S8 Sn9 3.042960 1_555
S9 Sn8 2.719745 1_455
S9 Sn3 2.744839 1_455
S9 Sn3 2.746982 1_555
S9 Sn10 3.088884 1_555
S14 Sn10 2.738727 1_665
S14 Sn6 2.785283 1_655
S14 Sn6 2.821051 1_555
S14 Sn10 3.087576 1_565
S15 Sn9 2.727407 1_445
S15 Sn11 2.809220 1_455
S15 Sn11 2.841247 1_555
S15 Sn9 3.087155 1_545
S16 Sn7 2.710271 1_655
S16 Sn4 2.761186 1_655
S16 Sn4 2.786808 1_555
S17 Sn8 2.722239 1_455
S17 Sn5 2.764924 1_455
S17 Sn5 2.788237 1_555
S18 Sn4 2.771108 1_555
S18 Sn7 3.015484 1_555
S19 Sn5 2.741719 1_555
S19 Sn8 3.015778 1_555
S26 Sn0 2.718575 1_555
S26 Sn10 3.102439 1_565
S27 Sn1 2.888657 1_555
S27 Sn11 2.972509 1_555
S27 Sn9 3.182747 1_545
S29 Sn11 3.029768 1_555
S29 Sn11 3.061537 1_655
S30 Sn2 2.985322 1_555
S30 Sn9 3.014425 1_555
S31 Sn3 2.991031 1_555
S31 Sn10 3.091094 1_555
S34 Sn5 3.012845 1_555
S34 Sn5 3.037457 1_655
S35 Sn4 3.032299 1_555
S35 Sn4 3.056897 1_455
S41 Sn6 2.891041 1_555
