# generated using pymatgen
data_Ti2FeSi
_symmetry_space_group_name_H-M   'P 1'
_cell_length_a   4.24521456
_cell_length_b   4.24521456
_cell_length_c   4.24521456
_cell_angle_alpha   60.00000000
_cell_angle_beta   60.00000000
_cell_angle_gamma   60.00000000
_symmetry_Int_Tables_number   1
_chemical_formula_structural   Ti2FeSi
_chemical_formula_sum   'Ti2 Fe1 Si1'
_cell_volume   54.09833964
_cell_formula_units_Z   1
loop_
 _symmetry_equiv_pos_site_id
 _symmetry_equiv_pos_as_xyz
  1  'x, y, z'
loop_
 _atom_site_type_symbol
 _atom_site_label
 _atom_site_symmetry_multiplicity
 _atom_site_fract_x
 _atom_site_fract_y
 _atom_site_fract_z
 _atom_site_occupancy
  Ti  Ti0  1  0.00000000  0.00000000  0.00000000  1
  Ti  Ti1  1  0.75000000  0.75000000  0.75000000  1
  Fe  Fe0  1  0.25000000  0.25000000  0.25000000  1
  Si  Si0  1  0.50000000  0.50000000  0.50000000  1
loop_
_geom_bond_atom_site_label_1
_geom_bond_atom_site_label_2
_geom_bond_distance
_geom_bond_site_symmetry_2
Ti0 Ti1 2.599652 1_544
Ti0 Ti1 2.599652 1_444
Ti0 Ti1 2.599652 1_445
Ti0 Ti1 2.599652 1_454
Fe0 Si0 2.599652 1_455
Fe0 Ti0 2.599652 1_655
Fe0 Ti0 2.599652 1_555
Fe0 Ti0 2.599652 1_556
Fe0 Si0 2.599652 1_555
Fe0 Ti0 2.599652 1_565
Fe0 Si0 2.599652 1_545
Fe0 Si0 2.599652 1_554
Fe0 Ti1 3.001820 1_554
Fe0 Ti1 3.001820 1_544
Fe0 Ti1 3.001820 1_545
Fe0 Ti1 3.001820 1_455
Fe0 Ti1 3.001820 1_454
Fe0 Ti1 3.001820 1_445
Si0 Ti1 2.599652 1_455
Si0 Ti1 2.599652 1_545
Si0 Ti1 2.599652 1_555
Si0 Ti1 2.599652 1_554
Si0 Ti0 3.001820 1_556
Si0 Ti0 3.001820 1_565
Si0 Ti0 3.001820 1_655
Si0 Ti0 3.001820 1_566
Si0 Ti0 3.001820 1_665
Si0 Ti0 3.001820 1_656
