# generated using pymatgen
data_Rb2MgCu4H5(SO5)4
_symmetry_space_group_name_H-M   'P 1'
_cell_length_a   11.57144087
_cell_length_b   6.37290428
_cell_length_c   8.44838076
_cell_angle_alpha   90.25180724
_cell_angle_beta   67.76887538
_cell_angle_gamma   54.61421632
_symmetry_Int_Tables_number   1
_chemical_formula_structural   Rb2MgCu4H5(SO5)4
_chemical_formula_sum   'Rb2 Mg1 Cu4 H5 S4 O20'
_cell_volume   449.08024379
_cell_formula_units_Z   1
loop_
 _symmetry_equiv_pos_site_id
 _symmetry_equiv_pos_as_xyz
  1  'x, y, z'
loop_
 _atom_site_type_symbol
 _atom_site_label
 _atom_site_symmetry_multiplicity
 _atom_site_fract_x
 _atom_site_fract_y
 _atom_site_fract_z
 _atom_site_occupancy
  Rb  Rb0  1  0.98256816  0.48422961  0.48807604  1
  Rb  Rb1  1  0.53133698  0.50738601  0.47760727  1
  Mg  Mg0  1  0.24200799  0.40580443  0.71544087  1
  Cu  Cu0  1  0.25600721  0.98777447  0.99219917  1
  Cu  Cu1  1  0.25391074  0.47151777  0.03491249  1
  Cu  Cu2  1  0.76005059  0.99068694  0.99059152  1
  Cu  Cu3  1  0.75890246  0.48650042  0.00196745  1
  H  H0  1  0.03763103  0.45522956  0.00438469  1
  H  H1  1  0.30835639  0.70606022  0.20890637  1
  H  H2  1  0.48006089  0.52069888  0.02472933  1
  H  H3  1  0.70690943  0.30148142  0.81044050  1
  H  H4  1  0.78620806  0.72344189  0.18596953  1
  S  S0  1  0.43188363  0.08516323  0.27779102  1
  S  S1  1  0.08804158  0.90876245  0.67949637  1
  S  S2  1  0.93872744  0.06077859  0.26209386  1
  S  S3  1  0.56229044  0.93356950  0.72323591  1
  O  O0  1  0.04636072  0.13755843  0.19498720  1
  O  O1  1  0.03964572  0.76024287  0.22971532  1
  O  O2  1  0.32097252  0.19522383  0.19866184  1
  O  O3  1  0.33296136  0.18047432  0.47828347  1
  O  O4  1  0.15800699  0.34036520  0.94355064  1
  O  O5  1  0.35541134  0.64422297  0.07740333  1
  O  O6  1  0.16597559  0.85799666  0.48562424  1
  O  O7  1  0.52907629  0.17822642  0.22940531  1
  O  O8  1  0.21492701  0.75590961  0.74196784  1
  O  O9  1  0.43630289  0.24419028  0.77409784  1
  O  O10  1  0.53645887  0.78421160  0.22139224  1
  O  O11  1  0.84263699  0.14398396  0.16384184  1
  O  O12  1  0.47016251  0.82716475  0.78706549  1
  O  O13  1  0.83598810  0.19286600  0.45547409  1
  O  O14  1  0.66658242  0.33662474  0.94011742  1
  O  O15  1  0.84091560  0.65841272  0.05484598  1
  O  O16  1  0.65439034  0.83281511  0.52796496  1
  O  O17  1  0.66130016  0.86721128  0.81271820  1
  O  O18  1  0.97682346  0.20228930  0.77270894  1
  O  O19  1  0.00449510  0.78404955  0.73155042  1
loop_
_geom_bond_atom_site_label_1
_geom_bond_atom_site_label_2
_geom_bond_distance
_geom_bond_site_symmetry_2
Mg0 O3 1.952663 1_555
Mg0 O4 1.972756 1_555
Mg0 O8 2.063813 1_555
Mg0 O9 2.127629 1_555
Mg0 O19 2.328935 1_555
Cu0 O0 1.972358 1_566
Cu0 O4 1.978298 1_565
Cu0 O12 1.997278 1_555
Cu0 O5 2.087703 1_556
Cu1 O1 1.960510 1_555
Cu1 O4 2.059765 1_554
Cu1 O9 2.078516 1_554
Cu1 O5 2.128955 1_555
Cu1 O2 2.206281 1_555
Cu2 O15 1.937506 1_556
Cu2 O14 1.951331 1_565
Cu2 O7 2.200303 1_566
Cu2 O19 2.345420 1_655
Cu2 O11 2.477333 1_566
Cu2 O17 2.552159 1_555
Cu3 O15 1.954776 1_555
Cu3 O14 1.981487 1_554
Cu3 O10 2.089048 1_555
Cu3 O18 2.091539 1_554
Cu3 O11 2.480568 1_555
H0 O4 1.007128 1_554
H1 O5 0.987911 1_555
H2 O5 1.046122 1_555
H2 O14 1.561511 1_554
H3 O14 0.978838 1_555
H4 O15 0.980383 1_555
O0 S2 1.511949 1_455
O0 Rb0 2.870048 1_455
O1 S2 1.506705 1_465
O1 Rb0 2.929681 1_455
O2 S0 1.482154 1_555
O2 Rb0 3.011148 1_455
O3 S0 1.505616 1_555
O3 Rb0 3.293659 1_455
O3 Rb1 3.500762 1_545
O6 S1 1.463016 1_555
O6 Rb0 3.254004 1_465
O6 Rb1 3.422355 1_555
O7 S0 1.486765 1_555
O7 Rb1 2.977322 1_555
O8 S1 1.522382 1_555
O8 Rb1 2.822619 1_555
O9 S3 1.550741 1_545
O9 Rb1 3.222715 1_555
O10 S0 1.495849 1_565
O10 Rb1 2.803380 1_555
O11 S2 1.491958 1_555
O11 Rb1 2.902568 1_555
O12 S3 1.514113 1_555
O12 Rb1 2.893341 1_555
O13 S2 1.466383 1_555
O13 Rb1 2.791834 1_555
O13 Rb0 3.224463 1_555
O16 S3 1.461998 1_555
O16 Rb0 2.953685 1_555
O16 Rb1 3.221870 1_555
O17 S3 1.469693 1_555
O17 Rb0 3.002830 1_555
O18 S1 1.485811 1_645
O18 Rb0 3.011761 1_555
O19 S1 1.526741 1_555
O19 Rb0 2.977951 1_455
