# generated using pymatgen
data_BaEuVBiO6
_symmetry_space_group_name_H-M   'P 1'
_cell_length_a   5.89375140
_cell_length_b   5.89371351
_cell_length_c   5.89368439
_cell_angle_alpha   59.99975183
_cell_angle_beta   59.99999373
_cell_angle_gamma   60.00014204
_symmetry_Int_Tables_number   1
_chemical_formula_structural   BaEuVBiO6
_chemical_formula_sum   'Ba1 Eu1 V1 Bi1 O6'
_cell_volume   144.76125623
_cell_formula_units_Z   1
loop_
 _symmetry_equiv_pos_site_id
 _symmetry_equiv_pos_as_xyz
  1  'x, y, z'
loop_
 _atom_site_type_symbol
 _atom_site_label
 _atom_site_symmetry_multiplicity
 _atom_site_fract_x
 _atom_site_fract_y
 _atom_site_fract_z
 _atom_site_occupancy
  Ba  Ba0  1  0.74999839  0.75000059  0.75000124  1
  Eu  Eu0  1  0.25000169  0.24999989  0.24999689  1
  V  V0  1  0.50000316  0.49999809  0.49999763  1
  Bi  Bi0  1  0.00000337  0.00000008  -0.00000267  1
  O  O0  1  0.72650728  0.27349225  0.27349077  1
  O  O1  1  0.27349122  0.72650823  0.72651041  1
  O  O2  1  0.72650582  0.27349183  0.72651147  1
  O  O3  1  0.27349342  0.72650994  0.27348969  1
  O  O4  1  0.72650453  0.72650840  0.27349328  1
  O  O5  1  0.27349112  0.27349068  0.72651128  1
loop_
_geom_bond_atom_site_label_1
_geom_bond_atom_site_label_2
_geom_bond_distance
_geom_bond_site_symmetry_2
Ba0 O0 2.953328 1_556
Ba0 O4 2.953333 1_556
Ba0 O3 2.953334 1_556
Ba0 O0 2.953343 1_565
Ba0 O4 2.953348 1_555
Ba0 O2 2.953354 1_555
Ba0 O2 2.953354 1_565
Ba0 O5 2.953361 1_565
Ba0 O1 2.953365 1_555
Ba0 O3 2.953379 1_655
Ba0 O5 2.953380 1_655
Ba0 O1 2.953382 1_655
Eu0 O5 2.953311 1_554
Eu0 O1 2.953318 1_554
Eu0 O2 2.953322 1_554
Eu0 O3 2.953341 1_545
Eu0 O1 2.953351 1_545
Eu0 O4 2.953353 1_545
Eu0 O0 2.953365 1_555
Eu0 O5 2.953367 1_555
Eu0 O3 2.953369 1_555
Eu0 O0 2.953383 1_455
Eu0 O2 2.953390 1_455
Eu0 O4 2.953390 1_455
Bi0 O5 2.279524 1_554
Bi0 O1 2.279527 1_544
Bi0 O3 2.279541 1_545
Bi0 O2 2.279545 1_454
Bi0 O0 2.279555 1_455
Bi0 O4 2.279575 1_445
O0 V0 1.887924 1_555
O1 V0 1.887967 1_555
O2 V0 1.887939 1_555
O3 V0 1.887944 1_555
O4 V0 1.887920 1_555
O5 V0 1.887952 1_555
