# generated using pymatgen
data_Te6MoW3Se2
_symmetry_space_group_name_H-M   'P 1'
_cell_length_a   3.49783838
_cell_length_b   3.49783838
_cell_length_c   39.65236500
_cell_angle_alpha   90.00000000
_cell_angle_beta   90.00000000
_cell_angle_gamma   120.00000710
_symmetry_Int_Tables_number   1
_chemical_formula_structural   Te6MoW3Se2
_chemical_formula_sum   'Te6 Mo1 W3 Se2'
_cell_volume   420.14497355
_cell_formula_units_Z   1
loop_
 _symmetry_equiv_pos_site_id
 _symmetry_equiv_pos_as_xyz
  1  'x, y, z'
loop_
 _atom_site_type_symbol
 _atom_site_label
 _atom_site_symmetry_multiplicity
 _atom_site_fract_x
 _atom_site_fract_y
 _atom_site_fract_z
 _atom_site_occupancy
  Te  Te0  1  0.00000000  0.00000000  0.32825700  1
  Te  Te1  1  0.00000000  0.00000000  0.70398700  1
  Te  Te2  1  0.33333300  0.66666700  0.04774500  1
  Te  Te3  1  0.33333300  0.66666700  0.14010300  1
  Te  Te4  1  0.00000000  0.00000000  0.23534400  1
  Te  Te5  1  0.00000000  0.00000000  0.61107200  1
  Mo  Mo0  1  0.00000000  0.00000000  0.09390300  1
  W  W0  1  0.00000000  0.00000000  0.46966300  1
  W  W1  1  0.33333300  0.66666700  0.28182100  1
  W  W2  1  0.33333300  0.66666700  0.65753300  1
  Se  Se0  1  0.33333300  0.66666700  0.42871000  1
  Se  Se1  1  0.33333300  0.66666700  0.51060900  1
loop_
_geom_bond_atom_site_label_1
_geom_bond_atom_site_label_2
_geom_bond_distance
_geom_bond_site_symmetry_2
Te0 W1 2.732885 1_545
Te0 W1 2.732887 1_445
Te0 W1 2.732887 1_555
Te1 W2 2.733366 1_545
Te1 W2 2.733368 1_555
Te1 W2 2.733368 1_445
Te4 W1 2.733980 1_545
Te4 W1 2.733982 1_555
Te4 W1 2.733982 1_445
Te5 W2 2.733553 1_545
Te5 W2 2.733555 1_555
Te5 W2 2.733555 1_445
Mo0 Te2 2.725470 1_545
Mo0 Te2 2.725472 1_445
Mo0 Te2 2.725472 1_555
Mo0 Te3 2.726588 1_545
Mo0 Te3 2.726591 1_445
Mo0 Te3 2.726591 1_555
Se0 W0 2.591386 1_565
Se0 W0 2.591388 1_665
Se0 W0 2.591388 1_555
Se1 W0 2.591212 1_565
Se1 W0 2.591214 1_665
Se1 W0 2.591214 1_555
