# generated using pymatgen
data_Dy2In3Cu
_symmetry_space_group_name_H-M   'P 1'
_cell_length_a   4.71639758
_cell_length_b   4.71639758
_cell_length_c   7.45043000
_cell_angle_alpha   90.00000000
_cell_angle_beta   90.00000000
_cell_angle_gamma   119.99999414
_symmetry_Int_Tables_number   1
_chemical_formula_structural   Dy2In3Cu
_chemical_formula_sum   'Dy2 In3 Cu1'
_cell_volume   143.52673721
_cell_formula_units_Z   1
loop_
 _symmetry_equiv_pos_site_id
 _symmetry_equiv_pos_as_xyz
  1  'x, y, z'
loop_
 _atom_site_type_symbol
 _atom_site_label
 _atom_site_symmetry_multiplicity
 _atom_site_fract_x
 _atom_site_fract_y
 _atom_site_fract_z
 _atom_site_occupancy
  Dy  Dy0  1  0.00000000  0.00000000  0.27702800  1
  Dy  Dy1  1  0.00000000  0.00000000  0.73716300  1
  In  In0  1  0.33333300  0.66666700  0.51645900  1
  In  In1  1  0.33333300  0.66666700  0.94772500  1
  In  In2  1  0.66666700  0.33333300  0.06707000  1
  Cu  Cu0  1  0.66666700  0.33333300  0.45455500  1
loop_
_geom_bond_atom_site_label_1
_geom_bond_atom_site_label_2
_geom_bond_distance
_geom_bond_site_symmetry_2
Dy0 In2 3.140342 1_455
Dy0 In2 3.140346 1_445
Dy0 In2 3.140346 1_555
Dy0 In0 3.255297 1_545
Dy0 In0 3.255300 1_445
Dy0 In0 3.255300 1_555
Dy0 Dy1 3.428204 1_555
Dy0 In1 3.665269 1_544
Dy0 In1 3.665272 1_554
Dy0 In1 3.665272 1_444
Dy0 Dy1 4.022226 1_554
Dy1 In1 3.142586 1_545
Dy1 In1 3.142590 1_555
Dy1 In1 3.142590 1_445
Dy1 In0 3.180981 1_545
Dy1 In0 3.180985 1_445
Dy1 In0 3.180985 1_555
In0 In1 3.213117 1_555
In1 In2 2.864509 1_456
In1 In2 2.864509 1_566
In1 In2 2.864517 1_556
Cu0 In0 2.761794 1_545
Cu0 In0 2.761794 1_655
Cu0 In0 2.761801 1_555
Cu0 In2 2.886930 1_555
Cu0 Dy0 3.027242 1_655
Cu0 Dy0 3.027246 1_665
Cu0 Dy0 3.027246 1_555
Cu0 Dy1 3.442112 1_655
Cu0 Dy1 3.442115 1_665
Cu0 Dy1 3.442115 1_555
