# generated using pymatgen
data_Cd3S3O20
_symmetry_space_group_name_H-M   'P 1'
_cell_length_a   9.92480082
_cell_length_b   9.92480082
_cell_length_c   9.76193782
_cell_angle_alpha   86.12685998
_cell_angle_beta   86.12685998
_cell_angle_gamma   84.04991365
_symmetry_Int_Tables_number   1
_chemical_formula_structural   Cd3S3O20
_chemical_formula_sum   'Cd6 S6 O40'
_cell_volume   952.42479538
_cell_formula_units_Z   2
loop_
 _symmetry_equiv_pos_site_id
 _symmetry_equiv_pos_as_xyz
  1  'x, y, z'
loop_
 _atom_site_type_symbol
 _atom_site_label
 _atom_site_symmetry_multiplicity
 _atom_site_fract_x
 _atom_site_fract_y
 _atom_site_fract_z
 _atom_site_occupancy
  Cd  Cd0  1  0.01389000  0.98611000  0.75000000  1
  Cd  Cd1  1  0.98611000  0.01389000  0.25000000  1
  Cd  Cd2  1  0.25078400  0.49258800  0.99850900  1
  Cd  Cd3  1  0.50741200  0.74921600  0.50149100  1
  Cd  Cd4  1  0.74921600  0.50741200  0.00149100  1
  Cd  Cd5  1  0.49258800  0.25078400  0.49850900  1
  S  S0  1  0.51001700  0.48998300  0.75000000  1
  S  S1  1  0.48998300  0.51001700  0.25000000  1
  S  S2  1  0.99391000  0.75206600  0.03175900  1
  S  S3  1  0.24793400  0.00609000  0.46824100  1
  S  S4  1  0.00609000  0.24793400  0.96824100  1
  S  S5  1  0.75206600  0.99391000  0.53175900  1
  O  O0  1  0.54985600  0.40016100  0.63500500  1
  O  O1  1  0.59983900  0.45014400  0.86499500  1
  O  O2  1  0.45014400  0.59983900  0.36499500  1
  O  O3  1  0.40016100  0.54985600  0.13500500  1
  O  O4  1  0.36625500  0.47552800  0.79802000  1
  O  O5  1  0.52447200  0.63374500  0.70198000  1
  O  O6  1  0.63374500  0.52447200  0.20198000  1
  O  O7  1  0.47552800  0.36625500  0.29802000  1
  O  O8  1  0.94683700  0.86327400  0.92972800  1
  O  O9  1  0.13672600  0.05316300  0.57027200  1
  O  O10  1  0.05316300  0.13672600  0.07027200  1
  O  O11  1  0.86327400  0.94683700  0.42972800  1
  O  O12  1  0.13027100  0.69058000  0.98205700  1
  O  O13  1  0.30942000  0.86972900  0.51794300  1
  O  O14  1  0.86972900  0.30942000  0.01794300  1
  O  O15  1  0.69058000  0.13027100  0.48205700  1
  O  O16  1  0.00136200  0.80856900  0.16739300  1
  O  O17  1  0.19143100  0.99863800  0.33260700  1
  O  O18  1  0.99863800  0.19143100  0.83260700  1
  O  O19  1  0.80856900  0.00136200  0.66739300  1
  O  O20  1  0.89611700  0.64781200  0.04757200  1
  O  O21  1  0.35218800  0.10388300  0.45242800  1
  O  O22  1  0.10388300  0.35218800  0.95242800  1
  O  O23  1  0.64781200  0.89611700  0.54757200  1
  O  O24  1  0.07533300  0.68980800  0.63206500  1
  O  O25  1  0.31019200  0.92466700  0.86793500  1
  O  O26  1  0.92466700  0.31019200  0.36793500  1
  O  O27  1  0.68980800  0.07533300  0.13206500  1
  O  O28  1  0.20464400  0.33170300  0.63357800  1
  O  O29  1  0.66829700  0.79535600  0.86642200  1
  O  O30  1  0.79535600  0.66829700  0.36642200  1
  O  O31  1  0.33170300  0.20464400  0.13357800  1
  O  O32  1  0.27007300  0.24538000  0.70568200  1
  O  O33  1  0.75462000  0.72992700  0.79431800  1
  O  O34  1  0.72992700  0.75462000  0.29431800  1
  O  O35  1  0.24538000  0.27007300  0.20568200  1
  O  O36  1  0.12164700  0.64735400  0.52118100  1
  O  O37  1  0.35264600  0.87835300  0.97881900  1
  O  O38  1  0.87835300  0.35264600  0.47881900  1
  O  O39  1  0.64735400  0.12164700  0.02118100  1
loop_
_geom_bond_atom_site_label_1
_geom_bond_atom_site_label_2
_geom_bond_distance
_geom_bond_site_symmetry_2
Cd0 O8 2.174601 1_455
Cd0 O9 2.174601 1_565
Cd0 O18 2.228736 1_465
Cd0 O19 2.228736 1_465
Cd1 O10 2.174601 1_655
Cd1 O11 2.174601 1_545
Cd1 O17 2.228736 1_645
Cd1 O16 2.228736 1_645
Cd2 O12 2.194028 1_555
Cd2 O3 2.200071 1_556
Cd2 O22 2.205487 1_555
Cd2 O4 2.207725 1_555
Cd3 O13 2.194028 1_555
Cd3 O2 2.200071 1_555
Cd3 O23 2.205487 1_555
Cd3 O5 2.207725 1_555
Cd4 O14 2.194028 1_555
Cd4 O1 2.200071 1_554
Cd4 O20 2.205487 1_555
Cd4 O6 2.207725 1_555
Cd5 O15 2.194028 1_555
Cd5 O0 2.200071 1_555
Cd5 O21 2.205487 1_555
Cd5 O7 2.207725 1_555
O0 S0 1.487741 1_555
O1 S0 1.487741 1_555
O2 S1 1.487741 1_555
O3 S1 1.487741 1_555
O4 S0 1.489666 1_555
O5 S0 1.489666 1_555
O6 S1 1.489666 1_555
O7 S1 1.489666 1_555
O8 S2 1.495313 1_556
O9 S3 1.495313 1_555
O10 S4 1.495313 1_554
O11 S5 1.495313 1_555
O12 S2 1.489777 1_456
O13 S3 1.489777 1_565
O14 S4 1.489777 1_654
O15 S5 1.489777 1_545
O16 S2 1.481618 1_455
O17 S3 1.481618 1_565
O18 S4 1.481618 1_655
O19 S5 1.481618 1_545
O20 S2 1.484196 1_555
O21 S3 1.484196 1_555
O22 S4 1.484196 1_555
O23 S5 1.484196 1_555
O24 O36 1.230750 1_555
O25 O37 1.230750 1_555
O26 O38 1.230750 1_555
O27 O39 1.230750 1_555
O28 O32 1.231284 1_555
O29 O33 1.231284 1_555
O30 O34 1.231284 1_555
O31 O35 1.231284 1_555
