# generated using pymatgen
data_NaMg14Sn
_symmetry_space_group_name_H-M   'P 1'
_cell_length_a   6.41409076
_cell_length_b   6.38046955
_cell_length_c   10.54055633
_cell_angle_alpha   90.00000000
_cell_angle_beta   90.00000000
_cell_angle_gamma   119.82675991
_symmetry_Int_Tables_number   1
_chemical_formula_structural   NaMg14Sn
_chemical_formula_sum   'Na1 Mg14 Sn1'
_cell_volume   374.22896845
_cell_formula_units_Z   1
loop_
 _symmetry_equiv_pos_site_id
 _symmetry_equiv_pos_as_xyz
  1  'x, y, z'
loop_
 _atom_site_type_symbol
 _atom_site_label
 _atom_site_symmetry_multiplicity
 _atom_site_fract_x
 _atom_site_fract_y
 _atom_site_fract_z
 _atom_site_occupancy
  Na  Na0  1  0.16638336  0.83319118  0.12500000  1
  Mg  Mg0  1  0.16650695  0.33325297  0.62500000  1
  Mg  Mg1  1  0.16676893  0.83338396  0.62500000  1
  Mg  Mg2  1  0.66722000  0.33524154  0.12500000  1
  Mg  Mg3  1  0.66675093  0.33289515  0.62500000  1
  Mg  Mg4  1  0.66722000  0.83197746  0.12500000  1
  Mg  Mg5  1  0.66675093  0.83385478  0.62500000  1
  Mg  Mg6  1  0.33440417  0.16862514  0.37842780  1
  Mg  Mg7  1  0.33440417  0.16862514  0.87157220  1
  Mg  Mg8  1  0.33440417  0.66578003  0.37842780  1
  Mg  Mg9  1  0.33440417  0.66578003  0.87157220  1
  Mg  Mg10  1  0.83239840  0.16619970  0.37503986  1
  Mg  Mg11  1  0.83239840  0.16619970  0.87496014  1
  Mg  Mg12  1  0.83030675  0.66515387  0.37942046  1
  Mg  Mg13  1  0.83030675  0.66515387  0.87057954  1
  Sn  Sn0  1  0.16937194  0.33468547  0.12500000  1
loop_
_geom_bond_atom_site_label_1
_geom_bond_atom_site_label_2
_geom_bond_distance
_geom_bond_site_symmetry_2
Na0 Sn0 3.190278 1_565
Na0 Sn0 3.190278 1_555
Mg0 Mg7 3.184836 1_555
Mg0 Mg6 3.184836 1_555
Mg0 Mg9 3.184842 1_555
Mg0 Mg8 3.184842 1_555
Mg0 Mg1 3.190235 1_555
Mg0 Mg1 3.190235 1_545
Mg0 Mg5 3.204345 1_445
Mg0 Mg3 3.204346 1_455
Mg0 Mg5 3.209746 1_555
Mg0 Mg3 3.209746 1_555
Mg0 Mg11 3.224607 1_455
Mg0 Mg10 3.224607 1_455
Mg1 Mg9 3.193489 1_555
Mg1 Mg8 3.193489 1_555
Mg1 Mg7 3.193495 1_565
Mg1 Mg6 3.193495 1_565
Mg1 Mg13 3.194649 1_455
Mg1 Mg12 3.194649 1_455
Mg1 Mg3 3.205437 1_565
Mg1 Mg5 3.205437 1_555
Mg1 Mg3 3.208656 1_455
Mg1 Mg5 3.208656 1_455
Mg2 Mg4 3.169408 1_555
Mg2 Sn0 3.191479 1_555
Mg2 Na0 3.197834 1_655
Mg2 Mg4 3.211061 1_545
Mg2 Na0 3.216270 1_545
Mg2 Sn0 3.222614 1_655
Mg2 Mg6 3.250437 1_555
Mg2 Mg7 3.250437 1_554
Mg3 Mg5 3.184112 1_545
Mg3 Mg7 3.189825 1_555
Mg3 Mg6 3.189825 1_555
Mg3 Mg5 3.196358 1_555
Mg4 Sn0 3.191479 1_555
Mg4 Na0 3.197834 1_655
Mg4 Na0 3.216270 1_555
Mg4 Sn0 3.222614 1_665
Mg4 Mg8 3.250437 1_555
Mg4 Mg9 3.250437 1_554
Mg5 Mg9 3.189825 1_555
Mg5 Mg8 3.189825 1_555
Mg6 Mg8 3.172082 1_555
Mg6 Mg8 3.208388 1_545
Mg6 Sn0 3.239519 1_555
Mg6 Na0 3.253192 1_545
Mg7 Mg9 3.172082 1_555
Mg7 Mg9 3.208388 1_545
Mg7 Sn0 3.239519 1_556
Mg7 Na0 3.253192 1_546
Mg8 Sn0 3.239525 1_555
Mg8 Na0 3.253186 1_555
Mg9 Sn0 3.239525 1_556
Mg9 Na0 3.253186 1_556
Mg10 Mg12 3.190590 1_555
Mg10 Mg12 3.190590 1_545
Mg10 Mg8 3.202104 1_545
Mg10 Mg6 3.202105 1_555
Mg10 Mg8 3.212440 1_655
Mg10 Mg6 3.212440 1_655
Mg10 Mg3 3.213403 1_555
Mg10 Mg5 3.213410 1_545
Mg10 Mg2 3.220042 1_555
Mg10 Mg4 3.220048 1_545
Mg10 Sn0 3.234510 1_655
Mg11 Mg13 3.190590 1_555
Mg11 Mg13 3.190590 1_545
Mg11 Mg9 3.202104 1_545
Mg11 Mg7 3.202105 1_555
Mg11 Mg9 3.212440 1_655
Mg11 Mg7 3.212440 1_655
Mg11 Mg3 3.213403 1_555
Mg11 Mg5 3.213410 1_545
Mg11 Mg2 3.220042 1_556
Mg11 Mg4 3.220048 1_546
Mg11 Sn0 3.234510 1_656
Mg12 Mg5 3.175373 1_555
Mg12 Mg3 3.175380 1_555
Mg12 Mg6 3.182770 1_555
Mg12 Mg8 3.182770 1_555
Mg12 Mg6 3.231358 1_665
Mg12 Mg8 3.231358 1_655
Mg12 Mg4 3.244455 1_555
Mg12 Mg2 3.244462 1_555
Mg12 Na0 3.269385 1_655
Mg13 Mg5 3.175373 1_555
Mg13 Mg3 3.175380 1_555
Mg13 Mg7 3.182770 1_555
Mg13 Mg9 3.182770 1_555
Mg13 Mg7 3.231358 1_665
Mg13 Mg9 3.231358 1_655
Mg13 Mg4 3.244455 1_556
Mg13 Mg2 3.244462 1_556
Mg13 Na0 3.269385 1_656
