# generated using pymatgen
data_SrAlSiN3
_symmetry_space_group_name_H-M   'P 1'
_cell_length_a   5.19754600
_cell_length_b   5.74821633
_cell_length_c   5.75486891
_cell_angle_alpha   119.41001328
_cell_angle_beta   90.00000000
_cell_angle_gamma   90.00000000
_symmetry_Int_Tables_number   1
_chemical_formula_structural   SrAlSiN3
_chemical_formula_sum   'Sr2 Al2 Si2 N6'
_cell_volume   149.77828617
_cell_formula_units_Z   2
loop_
 _symmetry_equiv_pos_site_id
 _symmetry_equiv_pos_as_xyz
  1  'x, y, z'
loop_
 _atom_site_type_symbol
 _atom_site_label
 _atom_site_symmetry_multiplicity
 _atom_site_fract_x
 _atom_site_fract_y
 _atom_site_fract_z
 _atom_site_occupancy
  Sr  Sr0  1  0.00891800  0.68718500  0.68860900  1
  Sr  Sr1  1  0.50891800  0.31281500  0.31139100  1
  Al  Al0  1  0.52733500  0.02533800  0.67368200  1
  Al  Al1  1  0.02733500  0.97466200  0.32631800  1
  Si  Si0  1  0.52244900  0.66957700  0.02713100  1
  Si  Si1  1  0.02244900  0.33042300  0.97286900  1
  N  N0  1  0.51013900  0.78094700  0.79827100  1
  N  N1  1  0.01013900  0.21905300  0.20172900  1
  N  N2  1  0.87596300  0.11838900  0.66521500  1
  N  N3  1  0.85339600  0.63939000  0.10299100  1
  N  N4  1  0.37596300  0.88161100  0.33478500  1
  N  N5  1  0.35339600  0.36061000  0.89700900  1
loop_
_geom_bond_atom_site_label_1
_geom_bond_atom_site_label_2
_geom_bond_distance
_geom_bond_site_symmetry_2
Al0 N0 1.866759 1_545
Al0 N4 1.876909 1_545
Al0 N2 1.896693 1_555
Al0 N5 1.936667 1_555
Al1 N1 1.866759 1_565
Al1 N2 1.876909 1_465
Al1 N4 1.896693 1_555
Al1 N3 1.936667 1_455
N0 Si0 1.725294 1_556
N0 Sr0 2.659959 1_655
N0 Sr0 2.672331 1_555
N0 Sr1 2.772547 1_555
N1 Si1 1.725294 1_554
N1 Sr1 2.659959 1_555
N1 Sr1 2.672331 1_455
N1 Sr0 2.772547 1_555
N2 Si1 1.755156 1_655
N2 Sr0 2.639530 1_645
N3 Si1 1.783496 1_654
N3 Si0 1.803852 1_555
N3 Sr0 2.656914 1_654
N4 Si0 1.755156 1_555
N4 Sr1 2.639530 1_565
N5 Si0 1.783496 1_556
N5 Si1 1.803852 1_555
N5 Sr1 2.656914 1_556
