# generated using pymatgen
data_Sc8CuTe3
_symmetry_space_group_name_H-M   'P 1'
_cell_length_a   3.85188100
_cell_length_b   10.74650100
_cell_length_c   20.20460739
_cell_angle_alpha   89.96224161
_cell_angle_beta   90.00000000
_cell_angle_gamma   90.00000000
_symmetry_Int_Tables_number   1
_chemical_formula_structural   Sc8CuTe3
_chemical_formula_sum   'Sc24 Cu3 Te9'
_cell_volume   836.35424667
_cell_formula_units_Z   3
loop_
 _symmetry_equiv_pos_site_id
 _symmetry_equiv_pos_as_xyz
  1  'x, y, z'
loop_
 _atom_site_type_symbol
 _atom_site_label
 _atom_site_symmetry_multiplicity
 _atom_site_fract_x
 _atom_site_fract_y
 _atom_site_fract_z
 _atom_site_occupancy
  Sc  Sc0  1  0.50000000  0.12108300  0.02339900  1
  Sc  Sc1  1  0.50000000  0.37368900  0.52388800  1
  Sc  Sc2  1  0.00000000  0.87977400  0.97629000  1
  Sc  Sc3  1  0.00000000  0.60927500  0.46601400  1
  Sc  Sc4  1  0.50000000  0.60993000  0.99293700  1
  Sc  Sc5  1  0.50000000  0.89251300  0.49074300  1
  Sc  Sc6  1  0.00000000  0.38973700  0.00714700  1
  Sc  Sc7  1  0.00000000  0.11048000  0.50794100  1
  Sc  Sc8  1  0.50000000  0.04005900  0.84569400  1
  Sc  Sc9  1  0.50000000  0.46022500  0.34530000  1
  Sc  Sc10  1  0.00000000  0.95940700  0.15449500  1
  Sc  Sc11  1  0.00000000  0.52936100  0.66261200  1
  Sc  Sc12  1  0.50000000  0.06730700  0.63846600  1
  Sc  Sc13  1  0.50000000  0.43376000  0.13848000  1
  Sc  Sc14  1  0.00000000  0.93544700  0.36210700  1
  Sc  Sc15  1  0.00000000  0.56809600  0.86252700  1
  Sc  Sc16  1  0.50000000  0.74896500  0.72981900  1
  Sc  Sc17  1  0.50000000  0.75117000  0.22900200  1
  Sc  Sc18  1  0.00000000  0.25192600  0.26987600  1
  Sc  Sc19  1  0.00000000  0.24880500  0.77042300  1
  Sc  Sc20  1  0.50000000  0.32073100  0.89339300  1
  Sc  Sc21  1  0.50000000  0.17746300  0.39278200  1
  Sc  Sc22  1  0.00000000  0.67801300  0.10761300  1
  Sc  Sc23  1  0.00000000  0.84127600  0.60847900  1
  Cu  Cu0  1  0.50000000  0.85559300  0.07595900  1
  Cu  Cu1  1  0.00000000  0.35277700  0.42362100  1
  Cu  Cu2  1  0.00000000  0.14398400  0.92398600  1
  Te  Te0  1  0.50000000  0.03490500  0.26286500  1
  Te  Te1  1  0.50000000  0.46331000  0.76492100  1
  Te  Te2  1  0.00000000  0.96704300  0.73848900  1
  Te  Te3  1  0.00000000  0.53442400  0.23756900  1
  Te  Te4  1  0.50000000  0.77438400  0.87511400  1
  Te  Te5  1  0.50000000  0.72825700  0.37358500  1
  Te  Te6  1  0.00000000  0.22594700  0.12522800  1
  Te  Te7  1  0.00000000  0.27571500  0.62518000  1
  Te  Te8  1  0.50000000  0.64516800  0.57405600  1
loop_
_geom_bond_atom_site_label_1
_geom_bond_atom_site_label_2
_geom_bond_distance
_geom_bond_site_symmetry_2
Sc0 Te6 3.035656 1_555
Sc0 Te6 3.035656 1_655
Sc1 Te7 3.000564 1_655
Sc1 Te7 3.000564 1_555
Sc1 Te8 3.089149 1_555
Sc2 Te4 3.028838 1_555
Sc2 Te4 3.028838 1_455
Sc3 Te8 2.936732 1_455
Sc3 Te8 2.936732 1_555
Sc3 Te5 2.971287 1_555
Sc3 Te5 2.971287 1_455
Sc4 Te4 2.963937 1_555
Sc5 Te5 2.953755 1_555
Sc5 Te8 3.145327 1_555
Sc6 Te6 2.963884 1_555
Sc7 Te7 2.961369 1_555
Sc8 Te4 2.915915 1_545
Sc8 Te2 3.003148 1_645
Sc8 Te2 3.003148 1_545
Sc9 Te5 2.936921 1_555
Sc9 Te3 3.013409 1_555
Sc9 Te3 3.013409 1_655
Sc10 Te6 2.924392 1_565
Sc10 Te0 3.027225 1_565
Sc10 Te0 3.027225 1_465
Sc11 Te7 2.829263 1_555
Sc11 Te8 2.908009 1_455
Sc11 Te8 2.908009 1_555
Sc11 Te1 2.912750 1_455
Sc11 Te1 2.912750 1_555
Sc12 Te7 2.965902 1_555
Sc12 Te7 2.965902 1_655
Sc12 Te2 2.991905 1_645
Sc12 Te2 2.991905 1_545
Sc13 Te6 2.961281 1_555
Sc13 Te6 2.961281 1_655
Sc13 Te3 2.981708 1_655
Sc13 Te3 2.981708 1_555
Sc14 Te5 2.952956 1_455
Sc14 Te5 2.952956 1_555
Sc14 Te0 2.978157 1_565
Sc14 Te0 2.978157 1_465
Sc15 Te4 2.947744 1_555
Sc15 Te4 2.947744 1_455
Sc15 Te1 2.978150 1_555
Sc15 Te1 2.978150 1_455
Sc16 Te4 2.948490 1_555
Sc16 Te2 3.038556 1_655
Sc16 Te2 3.038556 1_555
Sc16 Te1 3.150198 1_555
Sc16 Te8 3.339655 1_555
Sc17 Te5 2.931440 1_555
Sc17 Te3 3.027232 1_655
Sc17 Te3 3.027232 1_555
Sc17 Te0 3.125417 1_565
Sc18 Te6 2.936044 1_555
Sc18 Te0 3.028033 1_455
Sc18 Te0 3.028033 1_555
Sc18 Te3 3.104826 1_555
Sc19 Te7 2.948603 1_555
Sc19 Te1 3.005847 1_455
Sc19 Te1 3.005847 1_555
Sc19 Te2 3.096351 1_545
Sc20 Te1 3.013348 1_555
Sc21 Te0 3.040154 1_555
Sc22 Te3 3.044685 1_555
Sc23 Te8 2.938767 1_555
Sc23 Te8 2.938767 1_455
Sc23 Te2 2.954905 1_555
Cu0 Sc10 2.733885 1_555
Cu0 Sc10 2.733885 1_655
Cu0 Sc22 2.785412 1_555
Cu0 Sc22 2.785412 1_655
Cu0 Sc2 2.798458 1_554
Cu0 Sc2 2.798458 1_654
Cu0 Sc0 3.043660 1_565
Cu0 Sc4 3.128784 1_554
Cu0 Sc17 3.288808 1_555
Cu1 Sc9 2.746685 1_555
Cu1 Sc9 2.746685 1_455
Cu1 Sc21 2.765599 1_555
Cu1 Sc21 2.765599 1_455
Cu1 Sc1 2.804361 1_555
Cu1 Sc1 2.804361 1_455
Cu1 Sc3 2.887007 1_555
Cu1 Sc7 3.110722 1_555
Cu1 Sc18 3.290670 1_555
Cu2 Sc8 2.731513 1_555
Cu2 Sc8 2.731513 1_455
Cu2 Sc20 2.774443 1_555
Cu2 Sc20 2.774443 1_455
Cu2 Sc0 2.793500 1_456
Cu2 Sc0 2.793500 1_556
Cu2 Sc2 3.028968 1_545
Cu2 Sc6 3.131109 1_556
Cu2 Sc19 3.300140 1_555
