# generated using pymatgen
data_Na5Ce3Ti6Nb2O24
_symmetry_space_group_name_H-M   'P 1'
_cell_length_a   5.53853843
_cell_length_b   5.51219945
_cell_length_c   15.52114946
_cell_angle_alpha   89.94664857
_cell_angle_beta   90.00032967
_cell_angle_gamma   90.04470471
_symmetry_Int_Tables_number   1
_chemical_formula_structural   Na5Ce3Ti6Nb2O24
_chemical_formula_sum   'Na5 Ce3 Ti6 Nb2 O24'
_cell_volume   473.85302484
_cell_formula_units_Z   1
loop_
 _symmetry_equiv_pos_site_id
 _symmetry_equiv_pos_as_xyz
  1  'x, y, z'
loop_
 _atom_site_type_symbol
 _atom_site_label
 _atom_site_symmetry_multiplicity
 _atom_site_fract_x
 _atom_site_fract_y
 _atom_site_fract_z
 _atom_site_occupancy
  Na  Na0  1  0.99289500  0.50985500  0.12499100  1
  Na  Na1  1  0.99710500  0.51274300  0.62589500  1
  Na  Na2  1  0.50468300  0.00468700  0.37361800  1
  Na  Na3  1  0.50577500  0.01334100  0.87669900  1
  Na  Na4  1  0.49644600  0.98124400  0.62491300  1
  Ce  Ce0  1  0.48618100  0.98886800  0.12578100  1
  Ce  Ce1  1  0.00994500  0.48873300  0.37278100  1
  Ce  Ce2  1  0.01190200  0.49595500  0.87749200  1
  Ti  Ti0  1  0.99806800  0.00624800  0.00183800  1
  Ti  Ti1  1  0.99793000  0.00518900  0.24725300  1
  Ti  Ti2  1  0.00078300  0.99666800  0.49612500  1
  Ti  Ti3  1  0.50022400  0.50445800  0.25146700  1
  Ti  Ti4  1  0.50127000  0.50446700  0.75476300  1
  Ti  Ti5  1  0.50064300  0.50481800  0.00087800  1
  Nb  Nb0  1  0.99970800  0.00202700  0.74357400  1
  Nb  Nb1  1  0.50156100  0.49639000  0.50689100  1
  O  O0  1  0.99670600  0.90852600  0.37219800  1
  O  O1  1  0.99603800  0.91407700  0.87875100  1
  O  O2  1  0.24681600  0.74530500  0.22708900  1
  O  O3  1  0.23717800  0.73579300  0.51506400  1
  O  O4  1  0.24242400  0.73834500  0.73459300  1
  O  O5  1  0.24743700  0.75035700  0.02258000  1
  O  O6  1  0.24663800  0.24187100  0.47220700  1
  O  O7  1  0.25248600  0.24483400  0.26992900  1
  O  O8  1  0.24946200  0.25378300  0.77714800  1
  O  O9  1  0.25238900  0.25135200  0.97981100  1
  O  O10  1  0.50365800  0.40837700  0.12438200  1
  O  O11  1  0.50168400  0.41344600  0.62692300  1
  O  O12  1  0.49495400  0.57856900  0.87693500  1
  O  O13  1  0.49568300  0.57197700  0.37153200  1
  O  O14  1  0.73600500  0.76691400  0.02400700  1
  O  O15  1  0.73704100  0.76134500  0.22579700  1
  O  O16  1  0.75191000  0.74685500  0.51618800  1
  O  O17  1  0.74357100  0.75166200  0.73346900  1
  O  O18  1  0.76317700  0.25203500  0.47223700  1
  O  O19  1  0.76298300  0.26003600  0.27063400  1
  O  O20  1  0.76252100  0.26665000  0.77709500  1
  O  O21  1  0.76375900  0.26732700  0.97898900  1
  O  O22  1  0.00759200  0.07757400  0.12507100  1
  O  O23  1  0.00276800  0.07729900  0.62241000  1
loop_
_geom_bond_atom_site_label_1
_geom_bond_atom_site_label_2
_geom_bond_distance
_geom_bond_site_symmetry_2
Na0 O22 2.384272 1_655
Na0 O2 2.484833 1_655
Na0 O5 2.502956 1_655
Na0 O15 2.526847 1_555
Na0 O14 2.547118 1_555
Na1 O23 2.401143 1_655
Na1 O3 2.496467 1_655
Na1 O4 2.498029 1_655
Na1 O16 2.531326 1_555
Na1 O17 2.549710 1_555
Na1 O11 2.797591 1_555
Na1 O11 2.848187 1_655
Na2 O13 2.385916 1_545
Na2 O6 2.469843 1_555
Na2 O18 2.500489 1_555
Na2 O7 2.508448 1_555
Na2 O19 2.564265 1_555
Na3 O12 2.397252 1_545
Na3 O8 2.481618 1_555
Na3 O9 2.501778 1_555
Na3 O20 2.520839 1_555
Na3 O21 2.554082 1_555
Na4 O11 2.382771 1_565
Na4 O17 2.512470 1_555
Na4 O16 2.554587 1_555
Na4 O4 2.581268 1_555
Na4 O3 2.607823 1_555
Na4 O23 2.785717 1_565
Na4 O23 2.853683 1_665
Ce0 O10 2.314449 1_565
Ce0 O15 2.431507 1_555
Ce0 O14 2.431648 1_555
Ce0 O2 2.454763 1_555
Ce0 O5 2.458432 1_555
Ce1 O0 2.315211 1_455
Ce1 O18 2.438583 1_455
Ce1 O6 2.439370 1_555
Ce1 O19 2.444319 1_455
Ce1 O7 2.483396 1_555
Ce2 O1 2.306615 1_455
Ce2 O20 2.436085 1_455
Ce2 O8 2.438323 1_555
Ce2 O21 2.439755 1_455
Ce2 O9 2.472423 1_555
Nb0 O23 1.925526 1_655
Nb0 O17 1.984694 1_545
Nb0 O4 1.985585 1_645
Nb0 O8 2.027099 1_655
Nb0 O20 2.031873 1_555
Nb0 O1 2.153037 1_545
Nb1 O11 1.917902 1_555
Nb1 O16 1.961343 1_555
Nb1 O3 1.976113 1_555
Nb1 O18 2.051208 1_555
Nb1 O6 2.061522 1_555
Nb1 O13 2.141715 1_555
O0 Ti2 1.984465 1_655
O0 Ti1 2.010688 1_565
O1 Ti0 1.977342 1_566
O2 Ti3 1.969133 1_555
O2 Ti1 2.013501 1_465
O3 Ti2 1.967386 1_555
O4 Ti4 1.953821 1_555
O5 Ti5 1.978846 1_555
O5 Ti0 2.000738 1_465
O6 Ti2 1.953209 1_545
O7 Ti1 1.963293 1_455
O7 Ti3 2.002251 1_555
O8 Ti4 1.992810 1_555
O9 Ti0 1.980528 1_456
O9 Ti5 1.986790 1_556
O10 Ti5 1.988867 1_555
O10 Ti3 2.042938 1_555
O11 Ti4 2.047128 1_555
O12 Ti4 1.940437 1_555
O12 Ti5 1.966110 1_556
O13 Ti3 1.900858 1_555
O14 Ti5 1.978231 1_555
O14 Ti0 1.990403 1_565
O15 Ti3 1.969833 1_555
O15 Ti1 2.000803 1_565
O16 Ti2 1.972147 1_655
O17 Ti4 1.939882 1_555
O18 Ti2 1.962816 1_645
O19 Ti1 1.949913 1_555
O19 Ti3 2.005975 1_555
O20 Ti4 1.983522 1_555
O21 Ti0 1.970507 1_556
O21 Ti5 1.989129 1_556
O22 Ti1 1.938292 1_455
O22 Ti0 1.953770 1_455
O23 Ti2 2.010279 1_545
