# generated using pymatgen
data_Sr10Sb16H6Se7O30
_symmetry_space_group_name_H-M   'P 1'
_cell_length_a   11.52648900
_cell_length_b   18.93023600
_cell_length_c   14.61857543
_cell_angle_alpha   90.00000000
_cell_angle_beta   120.17675226
_cell_angle_gamma   90.00000000
_symmetry_Int_Tables_number   1
_chemical_formula_structural   Sr10Sb16H6Se7O30
_chemical_formula_sum   'Sr20 Sb32 H12 Se14 O60'
_cell_volume   2757.48071870
_cell_formula_units_Z   2
loop_
 _symmetry_equiv_pos_site_id
 _symmetry_equiv_pos_as_xyz
  1  'x, y, z'
loop_
 _atom_site_type_symbol
 _atom_site_label
 _atom_site_symmetry_multiplicity
 _atom_site_fract_x
 _atom_site_fract_y
 _atom_site_fract_z
 _atom_site_occupancy
  Sr  Sr0  1  0.18489600  0.26620200  0.34039100  1
  Sr  Sr1  1  0.18489600  0.23379800  0.84039100  1
  Sr  Sr2  1  0.81510400  0.73379800  0.65960900  1
  Sr  Sr3  1  0.81510400  0.76620200  0.15960900  1
  Sr  Sr4  1  0.54857100  0.15719100  0.45255100  1
  Sr  Sr5  1  0.54857100  0.34280900  0.95255100  1
  Sr  Sr6  1  0.45142900  0.84280900  0.54744900  1
  Sr  Sr7  1  0.45142900  0.65719100  0.04744900  1
  Sr  Sr8  1  0.73996400  0.27507300  0.72345300  1
  Sr  Sr9  1  0.73996400  0.22492700  0.22345300  1
  Sr  Sr10  1  0.26003600  0.72492700  0.27654700  1
  Sr  Sr11  1  0.26003600  0.77507300  0.77654700  1
  Sr  Sr12  1  0.35012300  0.25577500  0.17039500  1
  Sr  Sr13  1  0.35012300  0.24422500  0.67039500  1
  Sr  Sr14  1  0.64987700  0.74422500  0.82960500  1
  Sr  Sr15  1  0.64987700  0.75577500  0.32960500  1
  Sr  Sr16  1  0.90678000  0.27315500  0.55348100  1
  Sr  Sr17  1  0.90678000  0.22684500  0.05348100  1
  Sr  Sr18  1  0.09322000  0.72684500  0.44651900  1
  Sr  Sr19  1  0.09322000  0.77315500  0.94651900  1
  Sb  Sb0  1  0.25187000  0.40857100  0.98300000  1
  Sb  Sb1  1  0.25187000  0.09142900  0.48300000  1
  Sb  Sb2  1  0.74813000  0.59142900  0.01700000  1
  Sb  Sb3  1  0.74813000  0.90857100  0.51700000  1
  Sb  Sb4  1  0.20851500  0.40020400  0.72004900  1
  Sb  Sb5  1  0.20851500  0.09979600  0.22004900  1
  Sb  Sb6  1  0.79148500  0.59979600  0.27995100  1
  Sb  Sb7  1  0.79148500  0.90020400  0.77995100  1
  Sb  Sb8  1  0.49835600  0.41070300  0.67882600  1
  Sb  Sb9  1  0.49835600  0.08929700  0.17882600  1
  Sb  Sb10  1  0.50164400  0.58929700  0.32117400  1
  Sb  Sb11  1  0.50164400  0.91070300  0.82117400  1
  Sb  Sb12  1  0.85940700  0.40329700  0.92979000  1
  Sb  Sb13  1  0.85940700  0.09670300  0.42979000  1
  Sb  Sb14  1  0.14059300  0.59670300  0.07021000  1
  Sb  Sb15  1  0.14059300  0.90329700  0.57021000  1
  Sb  Sb16  1  0.11138800  0.61217400  0.80825000  1
  Sb  Sb17  1  0.11138800  0.88782600  0.30825000  1
  Sb  Sb18  1  0.88861200  0.38782600  0.19175000  1
  Sb  Sb19  1  0.88861200  0.11217400  0.69175000  1
  Sb  Sb20  1  0.58401900  0.41008000  0.21355700  1
  Sb  Sb21  1  0.58401900  0.08992000  0.71355700  1
  Sb  Sb22  1  0.41598100  0.58992000  0.78644300  1
  Sb  Sb23  1  0.41598100  0.91008000  0.28644300  1
  Sb  Sb24  1  0.54445200  0.34230500  0.42676800  1
  Sb  Sb25  1  0.54445200  0.15769500  0.92676800  1
  Sb  Sb26  1  0.45554800  0.65769500  0.57323200  1
  Sb  Sb27  1  0.45554800  0.84230500  0.07323200  1
  Sb  Sb28  1  0.75537700  0.51302200  0.64657700  1
  Sb  Sb29  1  0.75537700  0.98697800  0.14657700  1
  Sb  Sb30  1  0.24462300  0.48697800  0.35342300  1
  Sb  Sb31  1  0.24462300  0.01302200  0.85342300  1
  H  H0  1  0.07365900  0.30865800  0.95973800  1
  H  H1  1  0.07365900  0.19134200  0.45973800  1
  H  H2  1  0.92634100  0.69134200  0.04026200  1
  H  H3  1  0.92634100  0.80865800  0.54026200  1
  H  H4  1  0.13484700  0.56307100  0.50691300  1
  H  H5  1  0.13484700  0.93692900  0.00691300  1
  H  H6  1  0.86515300  0.43692900  0.49308700  1
  H  H7  1  0.86515300  0.06307100  0.99308700  1
  H  H8  1  0.04177100  0.58987200  0.54877000  1
  H  H9  1  0.04177100  0.91012800  0.04877000  1
  H  H10  1  0.95822900  0.41012800  0.45123000  1
  H  H11  1  0.95822900  0.08987200  0.95123000  1
  Se  Se0  1  0.82749500  0.58633000  0.53215100  1
  Se  Se1  1  0.82749500  0.91367000  0.03215100  1
  Se  Se2  1  0.17250500  0.41367000  0.46784900  1
  Se  Se3  1  0.17250500  0.08633000  0.96784900  1
  Se  Se4  1  0.93030600  0.41218400  0.72967900  1
  Se  Se5  1  0.93030600  0.08781600  0.22967900  1
  Se  Se6  1  0.06969400  0.58781600  0.27032100  1
  Se  Se7  1  0.06969400  0.91218400  0.77032100  1
  Se  Se8  1  0.83743900  0.59610100  0.80962600  1
  Se  Se9  1  0.83743900  0.90389900  0.30962600  1
  Se  Se10  1  0.16256100  0.40389900  0.19037400  1
  Se  Se11  1  0.16256100  0.09610100  0.69037400  1
  Se  Se12  1  0.50000000  0.50000000  0.00000000  1
  Se  Se13  1  0.50000000  0.00000000  0.50000000  1
  O  O0  1  0.41972800  0.36155400  0.09677300  1
  O  O1  1  0.41972800  0.13844600  0.59677300  1
  O  O2  1  0.58027200  0.63844600  0.90322700  1
  O  O3  1  0.58027200  0.86155400  0.40322700  1
  O  O4  1  0.27946500  0.36486600  0.87115300  1
  O  O5  1  0.27946500  0.13513400  0.37115300  1
  O  O6  1  0.72053500  0.63513400  0.12884700  1
  O  O7  1  0.72053500  0.86486600  0.62884700  1
  O  O8  1  0.39836300  0.37477700  0.75043800  1
  O  O9  1  0.39836300  0.12522300  0.25043800  1
  O  O10  1  0.60163700  0.62522300  0.24956200  1
  O  O11  1  0.60163700  0.87477700  0.74956200  1
  O  O12  1  0.66882400  0.38175400  0.81539900  1
  O  O13  1  0.66882400  0.11824600  0.31539900  1
  O  O14  1  0.33117600  0.61824600  0.18460100  1
  O  O15  1  0.33117600  0.88175400  0.68460100  1
  O  O16  1  0.79933800  0.37268000  0.03423100  1
  O  O17  1  0.79933800  0.12732000  0.53423100  1
  O  O18  1  0.20066200  0.62732000  0.96576900  1
  O  O19  1  0.20066200  0.87268000  0.46576900  1
  O  O20  1  0.30114300  0.64384700  0.82724200  1
  O  O21  1  0.30114300  0.85615300  0.32724200  1
  O  O22  1  0.69885700  0.35615300  0.17275800  1
  O  O23  1  0.69885700  0.14384700  0.67275800  1
  O  O24  1  0.05916700  0.71134600  0.77713100  1
  O  O25  1  0.05916700  0.78865400  0.27713100  1
  O  O26  1  0.94083300  0.28865400  0.22286900  1
  O  O27  1  0.94083300  0.21134600  0.72286900  1
  O  O28  1  0.91159300  0.30574700  0.92130600  1
  O  O29  1  0.91159300  0.19425300  0.42130600  1
  O  O30  1  0.08840700  0.69425300  0.07869400  1
  O  O31  1  0.08840700  0.80574700  0.57869400  1
  O  O32  1  0.49782700  0.31835600  0.62196200  1
  O  O33  1  0.49782700  0.18164400  0.12196200  1
  O  O34  1  0.50217300  0.68164400  0.37803800  1
  O  O35  1  0.50217300  0.81835600  0.87803800  1
  O  O36  1  0.14701600  0.30422600  0.67055100  1
  O  O37  1  0.14701600  0.19577400  0.17055100  1
  O  O38  1  0.85298400  0.69577400  0.32944900  1
  O  O39  1  0.85298400  0.80422600  0.82944900  1
  O  O40  1  0.58561800  0.32757900  0.30422200  1
  O  O41  1  0.58561800  0.17242100  0.80422200  1
  O  O42  1  0.41438200  0.67242100  0.69577800  1
  O  O43  1  0.41438200  0.82757900  0.19577800  1
  O  O44  1  0.40912800  0.26845600  0.36228400  1
  O  O45  1  0.40912800  0.23154400  0.86228400  1
  O  O46  1  0.59087200  0.73154400  0.63771600  1
  O  O47  1  0.59087200  0.76845600  0.13771600  1
  O  O48  1  0.68040500  0.27695100  0.52550800  1
  O  O49  1  0.68040500  0.22304900  0.02550800  1
  O  O50  1  0.31959500  0.72304900  0.47449200  1
  O  O51  1  0.31959500  0.77695100  0.97449200  1
  O  O52  1  0.17386200  0.30838200  0.98444400  1
  O  O53  1  0.17386200  0.19161800  0.48444400  1
  O  O54  1  0.82613800  0.69161800  0.01555600  1
  O  O55  1  0.82613800  0.80838200  0.51555600  1
  O  O56  1  0.12390500  0.60223400  0.54560400  1
  O  O57  1  0.12390500  0.89776600  0.04560400  1
  O  O58  1  0.87609500  0.39776600  0.45439600  1
  O  O59  1  0.87609500  0.10223400  0.95439600  1
loop_
_geom_bond_atom_site_label_1
_geom_bond_atom_site_label_2
_geom_bond_distance
_geom_bond_site_symmetry_2
Sb0 Se12 3.243880 1_556
Sb1 Se13 3.243880 1_555
Sb2 Se12 3.243880 1_555
Sb3 Se13 3.243880 1_565
Sb16 Se8 3.182408 1_455
Sb17 Se9 3.182408 1_455
Sb18 Se10 3.182408 1_655
Sb19 Se11 3.182408 1_655
Sb20 Se12 3.246863 1_555
Sb21 Se13 3.246863 1_555
Sb22 Se12 3.246863 1_556
Sb23 Se13 3.246863 1_565
Sb28 Se4 2.592805 1_555
Sb28 Se8 2.604378 1_555
Sb28 Se0 2.610138 1_555
Sb29 Se5 2.592805 1_565
Sb29 Se9 2.604378 1_555
Sb29 Se1 2.610138 1_555
Sb30 Se6 2.592805 1_555
Sb30 Se10 2.604378 1_555
Sb30 Se2 2.610138 1_555
Sb31 Se7 2.592805 1_545
Sb31 Se11 2.604378 1_555
Sb31 Se3 2.610138 1_555
H0 O52 1.022300 1_555
H0 O28 1.659272 1_455
H1 O53 1.022300 1_555
H1 O29 1.659272 1_455
H2 O54 1.022300 1_555
H2 O30 1.659272 1_655
H3 O55 1.022300 1_555
H3 O31 1.659272 1_655
H4 O56 0.978344 1_555
H5 O57 0.978344 1_555
H6 O58 0.978344 1_555
H7 O59 0.978344 1_555
H8 O56 0.998613 1_555
H9 O57 0.998613 1_555
H10 O58 0.998613 1_555
H11 O59 0.998613 1_555
Se0 Sr2 3.398928 1_555
Se1 Sr3 3.398928 1_555
Se2 Sr0 3.398928 1_555
Se3 Sr1 3.398928 1_555
Se4 Sr8 3.370149 1_555
Se5 Sr9 3.370149 1_555
Se6 Sr10 3.370149 1_555
Se7 Sr11 3.370149 1_555
Se8 Sr2 3.332062 1_555
Se8 Sr14 3.640959 1_555
Se9 Sr3 3.332062 1_555
Se9 Sr15 3.640959 1_555
Se10 Sr0 3.332062 1_555
Se10 Sr12 3.640959 1_555
Se11 Sr1 3.332062 1_555
Se11 Sr13 3.640959 1_555
Se12 Sr5 3.168524 1_554
Se12 Sr7 3.168524 1_555
Se13 Sr4 3.168524 1_555
Se13 Sr6 3.168524 1_545
O0 Sb0 2.016619 1_554
O0 Sb20 2.023440 1_555
O0 Sr12 2.584526 1_555
O0 Sr5 3.150281 1_554
O1 Sb1 2.016619 1_555
O1 Sb21 2.023440 1_555
O1 Sr13 2.584526 1_555
O1 Sr4 3.150281 1_555
O2 Sb2 2.016619 1_556
O2 Sb22 2.023440 1_555
O2 Sr14 2.584526 1_555
O2 Sr7 3.150281 1_556
O3 Sb3 2.016619 1_555
O3 Sb23 2.023440 1_555
O3 Sr15 2.584526 1_555
O3 Sr6 3.150281 1_555
O4 Sb0 1.995465 1_555
O4 Sb4 2.044394 1_555
O4 Sr1 2.655884 1_555
O4 Sr5 2.738805 1_555
O5 Sb1 1.995465 1_555
O5 Sb5 2.044394 1_555
O5 Sr0 2.655884 1_555
O5 Sr4 2.738805 1_555
O6 Sb2 1.995465 1_555
O6 Sb6 2.044394 1_555
O6 Sr3 2.655884 1_555
O6 Sr7 2.738805 1_555
O7 Sb3 1.995465 1_555
O7 Sb7 2.044394 1_555
O7 Sr2 2.655884 1_555
O7 Sr6 2.738805 1_555
O8 Sb8 2.024817 1_555
O8 Sb4 2.059197 1_555
O8 Sr5 2.636423 1_555
O8 Sr13 2.670574 1_555
O9 Sb9 2.024817 1_555
O9 Sb5 2.059197 1_555
O9 Sr4 2.636423 1_555
O9 Sr12 2.670574 1_555
O10 Sb10 2.024817 1_555
O10 Sb6 2.059197 1_555
O10 Sr7 2.636423 1_555
O10 Sr15 2.670574 1_555
O11 Sb11 2.024817 1_555
O11 Sb7 2.059197 1_555
O11 Sr6 2.636423 1_555
O11 Sr14 2.670574 1_555
O12 Sb12 2.023686 1_555
O12 Sb8 2.050194 1_555
O12 Sr8 2.768658 1_555
O12 Sr5 3.046076 1_555
O13 Sb13 2.023686 1_555
O13 Sb9 2.050194 1_555
O13 Sr9 2.768658 1_555
O13 Sr4 3.046076 1_555
O14 Sb14 2.023686 1_555
O14 Sb10 2.050194 1_555
O14 Sr10 2.768658 1_555
O14 Sr7 3.046076 1_555
O15 Sb15 2.023686 1_555
O15 Sb11 2.050194 1_555
O15 Sr11 2.768658 1_555
O15 Sr6 3.046076 1_555
O16 Sb18 2.015281 1_555
O16 Sb12 2.051617 1_554
O16 Sr5 2.574976 1_554
O16 Sr17 2.980595 1_555
O17 Sb19 2.015281 1_555
O17 Sb13 2.051617 1_555
O17 Sr4 2.574976 1_555
O17 Sr16 2.980595 1_555
O18 Sb16 2.015281 1_555
O18 Sb14 2.051617 1_556
O18 Sr7 2.574976 1_556
O18 Sr19 2.980595 1_555
O19 Sb17 2.015281 1_555
O19 Sb15 2.051617 1_555
O19 Sr6 2.574976 1_555
O19 Sr18 2.980595 1_555
O20 Sb22 1.985868 1_555
O20 Sb16 2.147084 1_555
O20 Sr11 2.567420 1_555
O20 Sr7 2.796625 1_556
O21 Sb23 1.985868 1_555
O21 Sb17 2.147084 1_555
O21 Sr10 2.567420 1_555
O21 Sr6 2.796625 1_555
O22 Sb20 1.985868 1_555
O22 Sb18 2.147084 1_555
O22 Sr9 2.567420 1_555
O22 Sr5 2.796625 1_554
O23 Sb21 1.985868 1_555
O23 Sb19 2.147084 1_555
O23 Sr8 2.567420 1_555
O23 Sr4 2.796625 1_555
O24 Sb16 1.954077 1_555
O24 Sr2 2.487437 1_455
O24 Sr19 2.584104 1_555
O24 Sr11 2.614564 1_555
O25 Sb17 1.954077 1_555
O25 Sr3 2.487437 1_455
O25 Sr18 2.584104 1_555
O25 Sr10 2.614564 1_555
O26 Sb18 1.954077 1_555
O26 Sr0 2.487437 1_655
O26 Sr17 2.584104 1_555
O26 Sr9 2.614564 1_555
O27 Sb19 1.954077 1_555
O27 Sr1 2.487437 1_655
O27 Sr16 2.584104 1_555
O27 Sr8 2.614564 1_555
O28 Sb12 1.965275 1_555
O28 Sr17 2.464796 1_556
O28 Sr8 2.619914 1_555
O29 Sb13 1.965275 1_555
O29 Sr16 2.464796 1_555
O29 Sr9 2.619914 1_555
O30 Sb14 1.965275 1_555
O30 Sr19 2.464796 1_554
O30 Sr10 2.619914 1_555
O31 Sb15 1.965275 1_555
O31 Sr18 2.464796 1_555
O31 Sr11 2.619914 1_555
O32 Sb8 1.934420 1_555
O32 Sr8 2.549359 1_555
O32 Sr13 2.565341 1_555
O33 Sb9 1.934420 1_555
O33 Sr9 2.549359 1_555
O33 Sr12 2.565341 1_555
O34 Sb10 1.934420 1_555
O34 Sr10 2.549359 1_555
O34 Sr15 2.565341 1_555
O35 Sb11 1.934420 1_555
O35 Sr11 2.549359 1_555
O35 Sr14 2.565341 1_555
O36 Sb4 1.952302 1_555
O36 Sr16 2.485626 1_455
O36 Sr13 2.603130 1_555
O36 Sr1 2.653801 1_555
O37 Sb5 1.952302 1_555
O37 Sr17 2.485626 1_455
O37 Sr12 2.603130 1_555
O37 Sr0 2.653801 1_555
O38 Sb6 1.952302 1_555
O38 Sr18 2.485626 1_655
O38 Sr15 2.603130 1_555
O38 Sr3 2.653801 1_555
O39 Sb7 1.952302 1_555
O39 Sr19 2.485626 1_655
O39 Sr14 2.603130 1_555
O39 Sr2 2.653801 1_555
O40 Sb20 2.042438 1_555
O40 Sb24 2.089671 1_555
O40 Sr12 2.775668 1_555
O40 Sr9 3.232203 1_555
O41 Sb21 2.042438 1_555
O41 Sb25 2.089671 1_555
O41 Sr13 2.775668 1_555
O41 Sr8 3.232203 1_555
O42 Sb22 2.042438 1_555
O42 Sb26 2.089671 1_555
O42 Sr14 2.775668 1_555
O42 Sr11 3.232203 1_555
O43 Sb23 2.042438 1_555
O43 Sb27 2.089671 1_555
O43 Sr15 2.775668 1_555
O43 Sr10 3.232203 1_555
O44 Sb24 1.948780 1_555
O44 Sr0 2.439844 1_555
O44 Sr12 2.543816 1_555
O44 Sr4 2.574641 1_555
O45 Sb25 1.948780 1_555
O45 Sr1 2.439844 1_555
O45 Sr13 2.543816 1_555
O45 Sr5 2.574641 1_555
O46 Sb26 1.948780 1_555
O46 Sr2 2.439844 1_555
O46 Sr14 2.543816 1_555
O46 Sr6 2.574641 1_555
O47 Sb27 1.948780 1_555
O47 Sr3 2.439844 1_555
O47 Sr15 2.543816 1_555
O47 Sr7 2.574641 1_555
O48 Sb24 1.948267 1_555
O48 Sr16 2.430672 1_555
O48 Sr8 2.617016 1_555
O48 Sr4 2.637605 1_555
O49 Sb25 1.948267 1_554
O49 Sr17 2.430672 1_555
O49 Sr9 2.617016 1_555
O49 Sr5 2.637605 1_554
O50 Sb26 1.948267 1_555
O50 Sr18 2.430672 1_555
O50 Sr10 2.617016 1_555
O50 Sr6 2.637605 1_555
O51 Sb27 1.948267 1_556
O51 Sr19 2.430672 1_555
O51 Sr11 2.617016 1_555
O51 Sr7 2.637605 1_556
O52 Sb0 2.103595 1_555
O52 Sr1 2.591038 1_555
O52 Sr12 2.637526 1_556
O53 Sb1 2.103595 1_555
O53 Sr0 2.591038 1_555
O53 Sr13 2.637526 1_555
O54 Sb2 2.103595 1_555
O54 Sr3 2.591038 1_555
O54 Sr14 2.637526 1_554
O55 Sb3 2.103595 1_555
O55 Sr2 2.591038 1_555
O55 Sr15 2.637526 1_555
O56 Sr18 2.696781 1_555
O57 Sr19 2.696781 1_554
O58 Sr16 2.696781 1_555
O59 Sr17 2.696781 1_556
