# generated using pymatgen
data_TaCr3S8
_symmetry_space_group_name_H-M   'P 1'
_cell_length_a   6.77277692
_cell_length_b   6.92385750
_cell_length_c   6.90297265
_cell_angle_alpha   60.05015606
_cell_angle_beta   59.35053931
_cell_angle_gamma   59.43052664
_symmetry_Int_Tables_number   1
_chemical_formula_structural   TaCr3S8
_chemical_formula_sum   'Ta1 Cr3 S8'
_cell_volume   226.84753474
_cell_formula_units_Z   1
loop_
 _symmetry_equiv_pos_site_id
 _symmetry_equiv_pos_as_xyz
  1  'x, y, z'
loop_
 _atom_site_type_symbol
 _atom_site_label
 _atom_site_symmetry_multiplicity
 _atom_site_fract_x
 _atom_site_fract_y
 _atom_site_fract_z
 _atom_site_occupancy
  Ta  Ta0  1  0.99993100  0.49986800  0.50031300  1
  Cr  Cr0  1  0.49987400  0.50040800  0.49959100  1
  Cr  Cr1  1  0.49979400  0.49993200  0.00003500  1
  Cr  Cr2  1  0.50050000  0.99952500  0.50008400  1
  S  S0  1  0.74059200  0.75297600  0.75347200  1
  S  S1  1  0.25957800  0.24699900  0.74669500  1
  S  S2  1  0.25930000  0.74714400  0.24668100  1
  S  S3  1  0.73300300  0.25553500  0.25592100  1
  S  S4  1  0.74067000  0.25298300  0.75332400  1
  S  S5  1  0.26683200  0.74450700  0.74431800  1
  S  S6  1  0.25946000  0.24714000  0.24643700  1
  S  S7  1  0.74046100  0.75298800  0.25311900  1
loop_
_geom_bond_atom_site_label_1
_geom_bond_atom_site_label_2
_geom_bond_distance
_geom_bond_site_symmetry_2
Cr0 S3 2.369315 1_555
Cr0 S5 2.370749 1_555
Cr0 S7 2.389403 1_555
Cr0 S2 2.390014 1_555
Cr0 S1 2.392192 1_555
Cr0 S4 2.395166 1_555
Cr1 S5 2.368603 1_554
Cr1 S3 2.370590 1_555
Cr1 S6 2.389281 1_555
Cr1 S4 2.392247 1_554
Cr1 S0 2.392714 1_554
Cr1 S2 2.393359 1_555
Cr2 S3 2.369080 1_565
Cr2 S5 2.369454 1_555
Cr2 S0 2.390137 1_555
Cr2 S7 2.391732 1_555
Cr2 S1 2.394366 1_565
Cr2 S6 2.395884 1_565
S0 Ta0 2.451044 1_555
S1 Ta0 2.448438 1_455
S2 Ta0 2.452116 1_455
S4 Ta0 2.449688 1_555
S6 Ta0 2.452662 1_455
S7 Ta0 2.451541 1_555
