# generated using pymatgen
data_Nb16Bi47O111
_symmetry_space_group_name_H-M   'P 1'
_cell_length_a   13.53711811
_cell_length_b   13.53711882
_cell_length_c   17.35650685
_cell_angle_alpha   110.36891823
_cell_angle_beta   110.36891807
_cell_angle_gamma   91.20053197
_symmetry_Int_Tables_number   1
_chemical_formula_structural   Nb16Bi47O111
_chemical_formula_sum   'Nb16 Bi47 O111'
_cell_volume   2758.53181652
_cell_formula_units_Z   1
loop_
 _symmetry_equiv_pos_site_id
 _symmetry_equiv_pos_as_xyz
  1  'x, y, z'
loop_
 _atom_site_type_symbol
 _atom_site_label
 _atom_site_symmetry_multiplicity
 _atom_site_fract_x
 _atom_site_fract_y
 _atom_site_fract_z
 _atom_site_occupancy
  Nb  Nb0  1  0.62230151  0.29736550  0.58661208  1
  Nb  Nb1  1  0.20564440  0.87491403  0.72767771  1
  Nb  Nb2  1  0.46666714  0.78362263  0.88846709  1
  Nb  Nb3  1  0.59250002  0.56913672  0.16639465  1
  Nb  Nb4  1  0.88981943  0.58986321  0.11911716  1
  Nb  Nb5  1  0.89224984  0.80117144  0.67462725  1
  Nb  Nb6  1  0.19882856  0.10775016  0.32537275  1
  Nb  Nb7  1  0.12040320  0.50123639  0.27041369  1
  Nb  Nb8  1  0.12508597  0.79435560  0.27232229  1
  Nb  Nb9  1  0.21637737  0.53333286  0.11153291  1
  Nb  Nb10  1  0.73355046  0.04117303  0.47018313  1
  Nb  Nb11  1  0.70263450  0.37769849  0.41338792  1
  Nb  Nb12  1  0.95882697  0.26644954  0.52981687  1
  Nb  Nb13  1  0.43086328  0.40749998  0.83360535  1
  Nb  Nb14  1  0.41013679  0.11018057  0.88088284  1
  Nb  Nb15  1  0.49876361  0.87959680  0.72958631  1
  Bi  Bi0  1  0.50943077  0.10652950  0.32081004  1
  Bi  Bi1  1  0.97809654  0.58049980  0.55437272  1
  Bi  Bi2  1  0.97360196  0.95768230  0.56762426  1
  Bi  Bi3  1  0.76217293  0.39036332  0.84732699  1
  Bi  Bi4  1  0.06206383  0.70463274  0.43149504  1
  Bi  Bi5  1  0.68923132  0.00914212  0.99430877  1
  Bi  Bi6  1  0.36038228  0.33933500  0.03664844  1
  Bi  Bi7  1  0.42694640  0.48798360  0.30147874  1
  Bi  Bi8  1  0.53969484  0.79377786  0.31646542  1
  Bi  Bi9  1  0.74981648  0.77874633  0.84514064  1
  Bi  Bi10  1  0.78890505  0.04444359  0.81549338  1
  Bi  Bi11  1  0.87663785  0.90242846  0.12878103  1
  Bi  Bi12  1  0.95555641  0.21109495  0.18450662  1
  Bi  Bi13  1  0.74280233  0.66219008  0.40819503  1
  Bi  Bi14  1  0.32615043  0.03512548  0.05101603  1
  Bi  Bi15  1  0.11036442  0.38879328  0.42506069  1
  Bi  Bi16  1  0.04231770  0.02639804  0.43237574  1
  Bi  Bi17  1  0.66066500  0.63961772  0.96335156  1
  Bi  Bi18  1  0.64963937  0.35036063  0.00000000  1
  Bi  Bi19  1  0.03663497  0.96336503  0.00000000  1
  Bi  Bi20  1  0.19018473  0.17648743  0.71724897  1
  Bi  Bi21  1  0.20622214  0.46030516  0.68353558  1
  Bi  Bi22  1  0.84735900  0.48664200  0.26048414  1
  Bi  Bi23  1  0.82351257  0.80981527  0.28275103  1
  Bi  Bi24  1  0.40372037  0.59627963  0.00000000  1
  Bi  Bi25  1  0.33780992  0.25719767  0.59180497  1
  Bi  Bi26  1  0.27970241  0.64555547  0.58785985  1
  Bi  Bi27  1  0.29536726  0.93793617  0.56850496  1
  Bi  Bi28  1  0.15267307  0.77646007  0.84321093  1
  Bi  Bi29  1  0.09757154  0.12336215  0.87121897  1
  Bi  Bi30  1  0.22353993  0.84732693  0.15678907  1
  Bi  Bi31  1  0.22125367  0.25018352  0.15485936  1
  Bi  Bi32  1  0.54525785  0.90746824  0.11287552  1
  Bi  Bi33  1  0.60963668  0.23782707  0.15267301  1
  Bi  Bi34  1  0.37646785  0.36841805  0.43657038  1
  Bi  Bi35  1  0.41950020  0.02190346  0.44562728  1
  Bi  Bi36  1  0.76708760  0.11016013  0.28899211  1
  Bi  Bi37  1  0.51335800  0.15264100  0.73951586  1
  Bi  Bi38  1  0.51201640  0.57305360  0.69852126  1
  Bi  Bi39  1  0.88983987  0.23291240  0.71100789  1
  Bi  Bi40  1  0.89347050  0.49056923  0.67918996  1
  Bi  Bi41  1  0.09253176  0.45474215  0.88712448  1
  Bi  Bi42  1  0.96487452  0.67384957  0.94898397  1
  Bi  Bi43  1  0.99085788  0.31076868  0.00569123  1
  Bi  Bi44  1  0.35444453  0.72029759  0.41214015  1
  Bi  Bi45  1  0.63158195  0.62353215  0.56342962  1
  Bi  Bi46  1  0.61120672  0.88963558  0.57493931  1
  O  O0  1  0.38448888  0.53906620  0.84278419  1
  O  O1  1  0.53420188  0.41295149  0.12033008  1
  O  O2  1  0.69520502  0.53692193  0.27323415  1
  O  O3  1  0.55533375  0.86689247  0.84849029  1
  O  O4  1  0.49610251  0.03392849  0.81181028  1
  O  O5  1  0.46403673  0.22620717  0.53251440  1
  O  O6  1  0.46307807  0.30479498  0.72676585  1
  O  O7  1  0.66063835  0.22938362  0.32803870  1
  O  O8  1  0.58704851  0.46579812  0.87966992  1
  O  O9  1  0.77379283  0.53596327  0.46748560  1
  O  O10  1  0.56139750  0.67299576  0.84350280  1
  O  O11  1  0.49084798  0.23819668  0.86745632  1
  O  O12  1  0.45782575  0.72788026  0.67220134  1
  O  O13  1  0.47087638  0.93875732  0.62699275  1
  O  O14  1  0.88311545  0.95960261  0.42633874  1
  O  O15  1  0.80004641  0.37703019  0.33953771  1
  O  O16  1  0.62296981  0.19995359  0.66046229  1
  O  O17  1  0.58406963  0.42127386  0.64447903  1
  O  O18  1  0.58143191  0.57929644  0.05719482  1
  O  O19  1  0.88882552  0.38257838  0.51270231  1
  O  O20  1  0.65821186  0.34178814  0.50000000  1
  O  O21  1  0.61742162  0.11117448  0.48729769  1
  O  O22  1  0.63792691  0.89646910  0.72747446  1
  O  O23  1  0.81864003  0.71327076  0.13986897  1
  O  O24  1  0.76180332  0.50915202  0.13254368  1
  O  O25  1  0.06989817  0.21355132  0.78731790  1
  O  O26  1  0.97970234  0.55235799  0.82428847  1
  O  O27  1  0.15335081  0.92945974  0.93852554  1
  O  O28  1  0.14716771  0.26212745  0.99748019  1
  O  O29  1  0.15988960  0.63813717  0.96510985  1
  O  O30  1  0.77061638  0.33936165  0.67196130  1
  O  O31  1  0.06054882  0.11617349  0.24030645  1
  O  O32  1  0.74300592  0.78820065  0.59092644  1
  O  O33  1  0.81368208  0.03828409  0.58275841  1
  O  O34  1  0.13667069  0.51598799  0.56590679  1
  O  O35  1  0.09002919  0.90997081  0.50000000  1
  O  O36  1  0.02382832  0.68364367  0.15521546  1
  O  O37  1  0.96607151  0.50389749  0.18818972  1
  O  O38  1  0.96171591  0.18631792  0.41724159  1
  O  O39  1  0.86449882  0.68528584  0.69933673  1
  O  O40  1  0.88382651  0.93945118  0.75969355  1
  O  O41  1  0.01325832  0.85815358  0.30628128  1
  O  O42  1  0.06124268  0.52912362  0.37300725  1
  O  O43  1  0.82698427  0.17301573  0.50000000  1
  O  O44  1  0.01182696  0.20312132  0.08305208  1
  O  O45  1  0.07054026  0.84664919  0.06147446  1
  O  O46  1  0.07244971  0.48621902  0.01075469  1
  O  O47  1  0.15560167  0.94108065  0.25858027  1
  O  O48  1  0.10353090  0.36207309  0.27252554  1
  O  O49  1  0.11455495  0.67312839  0.31927760  1
  O  O50  1  0.24370035  0.07460860  0.43300510  1
  O  O51  1  0.26442979  0.47474732  0.46742900  1
  O  O52  1  0.26437349  0.73562651  0.50000000  1
  O  O53  1  0.05891935  0.84439833  0.74141973  1
  O  O54  1  0.97569892  0.34220867  0.67272152  1
  O  O55  1  0.04039739  0.11688455  0.57366126  1
  O  O56  1  0.33597856  0.11035204  0.66323031  1
  O  O57  1  0.33759542  0.43346696  0.64053753  1
  O  O58  1  0.25616349  0.65574030  0.21417063  1
  O  O59  1  0.13310753  0.44466625  0.15150971  1
  O  O60  1  0.31471416  0.13550118  0.30066327  1
  O  O61  1  0.21179935  0.25699408  0.40907356  1
  O  O62  1  0.26146145  0.84475975  0.37468798  1
  O  O63  1  0.27211974  0.54217425  0.32779866  1
  O  O64  1  0.11438317  0.31643937  0.57520944  1
  O  O65  1  0.19999007  0.06948232  0.10333094  1
  O  O66  1  0.21208487  0.66388813  0.06092119  1
  O  O67  1  0.32700424  0.43860250  0.15649720  1
  O  O68  1  0.15524025  0.73853855  0.62531202  1
  O  O69  1  0.14184642  0.98674168  0.69371872  1
  O  O70  1  0.47632796  0.52367204  0.50000000  1
  O  O71  1  0.48401201  0.86332931  0.43409321  1
  O  O72  1  0.27391341  0.33987761  0.74833733  1
  O  O73  1  0.34425970  0.74383651  0.78582937  1
  O  O74  1  0.31635633  0.97617168  0.84478454  1
  O  O75  1  0.35343903  0.21645341  0.10979433  1
  O  O76  1  0.36186283  0.84011040  0.03489015  1
  O  O77  1  0.27304825  0.47782693  0.01165963  1
  O  O78  1  0.33611187  0.78791513  0.93907881  1
  O  O79  1  0.28672924  0.18135997  0.86013103  1
  O  O80  1  0.35141609  0.34529537  0.29921986  1
  O  O81  1  0.44764201  0.02029766  0.17571153  1
  O  O82  1  0.46093380  0.61551112  0.15721581  1
  O  O83  1  0.56653304  0.66240458  0.35946247  1
  O  O84  1  0.32687161  0.88544505  0.68072240  1
  O  O85  1  0.52525268  0.73557021  0.53257100  1
  O  O86  1  0.65779133  0.02430108  0.32727848  1
  O  O87  1  0.57872614  0.41593037  0.35552097  1
  O  O88  1  0.42070356  0.41856809  0.94280518  1
  O  O89  1  0.51378098  0.92755029  0.98924531  1
  O  O90  1  0.47275637  0.15423433  0.00206429  1
  O  O91  1  0.52217307  0.72695175  0.98834037  1
  O  O92  1  0.71256334  0.21250034  0.74303273  1
  O  O93  1  0.65470463  0.64858391  0.70078014  1
  O  O94  1  0.75917917  0.30314269  0.93061370  1
  O  O95  1  0.78354659  0.64656097  0.89020567  1
  O  O96  1  0.79687868  0.98817304  0.91694792  1
  O  O97  1  0.64747055  0.07644566  0.15041671  1
  O  O98  1  0.66012239  0.72608659  0.25166267  1
  O  O99  1  0.68356063  0.88561683  0.42479056  1
  O  O100  1  0.92355534  0.35252945  0.84958329  1
  O  O101  1  0.69685731  0.24082083  0.06938630  1
  O  O102  1  0.73787255  0.85283229  0.00251981  1
  O  O103  1  0.94736821  0.15124268  0.88806323  1
  O  O104  1  0.93051768  0.80000993  0.89666906  1
  O  O105  1  0.84576567  0.52724363  0.99793571  1
  O  O106  1  0.78749966  0.28743666  0.25696727  1
  O  O107  1  0.78644868  0.93010183  0.21268210  1
  O  O108  1  0.88964796  0.66402144  0.33676969  1
  O  O109  1  0.92539140  0.75629965  0.56699490  1
  O  O110  1  0.84875732  0.05263179  0.11193677  1
loop_
_geom_bond_atom_site_label_1
_geom_bond_atom_site_label_2
_geom_bond_distance
_geom_bond_site_symmetry_2
Nb0 O17 1.820887 1_555
Nb0 O30 1.960665 1_555
Nb0 O20 1.995889 1_555
Nb0 O5 2.069577 1_555
Nb0 O16 2.133311 1_555
Nb0 O21 2.493561 1_555
Nb1 O69 1.925227 1_555
Nb1 O68 1.962256 1_555
Nb1 O74 2.027377 1_555
Nb1 O84 2.092778 1_555
Nb1 O53 2.129942 1_555
Nb2 O73 1.857193 1_555
Nb2 O89 2.015289 1_555
Nb2 O91 2.049673 1_555
Nb2 O3 2.064054 1_555
Nb2 O10 2.111830 1_555
Nb2 O78 2.224421 1_555
Nb3 O82 1.873632 1_555
Nb3 O18 1.902175 1_555
Nb3 O1 2.011567 1_555
Nb3 O98 2.080600 1_555
Nb3 O2 2.086975 1_555
Nb3 O24 2.634488 1_555
Nb4 O105 1.833723 1_554
Nb4 O23 1.933704 1_555
Nb4 O36 1.963094 1_655
Nb4 O37 2.004272 1_555
Nb4 O24 2.151811 1_555
Nb5 O39 1.828077 1_555
Nb5 O109 1.965973 1_555
Nb5 O40 1.974628 1_555
Nb5 O32 1.996864 1_555
Nb5 O53 2.104414 1_655
Nb6 O60 1.828077 1_555
Nb6 O50 1.965973 1_555
Nb6 O31 1.974628 1_555
Nb6 O61 1.996864 1_555
Nb6 O47 2.104414 1_545
Nb7 O48 1.907444 1_555
Nb7 O63 1.913459 1_555
Nb7 O59 2.006872 1_555
Nb7 O37 2.089536 1_455
Nb7 O42 2.119460 1_555
Nb7 O49 2.195629 1_555
Nb8 O41 1.925227 1_555
Nb8 O62 1.962256 1_555
Nb8 O36 2.027377 1_555
Nb8 O49 2.092778 1_555
Nb8 O47 2.129943 1_555
Nb9 O58 1.857193 1_555
Nb9 O46 2.015289 1_555
Nb9 O77 2.049673 1_555
Nb9 O59 2.064054 1_555
Nb9 O67 2.111830 1_555
Nb9 O66 2.224421 1_555
Nb10 O33 1.890903 1_555
Nb10 O21 1.910263 1_555
Nb10 O43 1.964631 1_555
Nb10 O99 1.981720 1_545
Nb10 O86 2.254114 1_555
Nb10 O14 2.545394 1_545
Nb11 O87 1.820887 1_555
Nb11 O7 1.960665 1_555
Nb11 O20 1.995889 1_555
Nb11 O9 2.069577 1_555
Nb11 O15 2.133311 1_555
Nb11 O19 2.493560 1_555
Nb12 O38 1.890903 1_555
Nb12 O19 1.910263 1_555
Nb12 O43 1.964631 1_555
Nb12 O64 1.981720 1_655
Nb12 O54 2.254114 1_555
Nb12 O55 2.545394 1_655
Nb13 O0 1.873632 1_555
Nb13 O88 1.902175 1_555
Nb13 O8 2.011567 1_555
Nb13 O72 2.080600 1_555
Nb13 O6 2.086975 1_555
Nb13 O11 2.634488 1_555
Nb14 O90 1.833723 1_556
Nb14 O79 1.933704 1_555
Nb14 O74 1.963094 1_545
Nb14 O4 2.004272 1_555
Nb14 O11 2.151811 1_555
Nb15 O22 1.907444 1_555
Nb15 O12 1.913459 1_555
Nb15 O3 2.006872 1_555
Nb15 O4 2.089536 1_565
Nb15 O13 2.119460 1_555
Nb15 O84 2.195629 1_555
Bi0 O81 2.202468 1_555
Bi0 O86 2.304117 1_555
Bi0 O7 2.550450 1_555
Bi0 O60 2.592532 1_555
Bi0 O21 2.723986 1_555
Bi1 O34 2.304754 1_655
Bi1 O109 2.457158 1_555
Bi1 O9 2.584670 1_555
Bi1 O19 2.658760 1_555
Bi1 O68 2.781981 1_655
Bi2 O35 2.254225 1_655
Bi2 O55 2.273413 1_665
Bi2 O14 2.338634 1_555
Bi2 O69 2.454590 1_655
Bi2 O33 2.498289 1_565
Bi2 O109 2.785255 1_555
Bi3 O94 2.170789 1_555
Bi3 O100 2.244514 1_555
Bi3 O92 2.361562 1_555
Bi3 O105 2.455264 1_555
Bi3 O8 2.758050 1_555
Bi4 O49 2.208675 1_555
Bi4 O42 2.233283 1_555
Bi4 O108 2.258023 1_455
Bi4 O52 2.535342 1_555
Bi4 O35 2.574009 1_555
Bi5 O96 2.262980 1_545
Bi5 O102 2.265890 1_546
Bi5 O110 2.284550 1_556
Bi5 O89 2.558504 1_545
Bi5 O3 2.581988 1_545
Bi5 O97 2.803642 1_556
Bi6 O67 2.251854 1_555
Bi6 O1 2.270336 1_555
Bi6 O77 2.324350 1_555
Bi6 O75 2.436054 1_555
Bi6 O88 2.564278 1_554
Bi6 O28 2.810404 1_554
Bi7 O80 2.148166 1_555
Bi7 O67 2.242897 1_555
Bi7 O87 2.330687 1_555
Bi7 O63 2.374303 1_555
Bi7 O83 2.644530 1_555
Bi8 O99 2.143794 1_555
Bi8 O83 2.148003 1_555
Bi8 O98 2.320344 1_555
Bi8 O71 2.320720 1_555
Bi9 O95 2.186825 1_555
Bi9 O104 2.266016 1_555
Bi9 O93 2.371990 1_555
Bi9 O102 2.626890 1_556
Bi9 O96 2.628408 1_555
Bi10 O96 2.120740 1_545
Bi10 O40 2.143314 1_545
Bi10 O103 2.236023 1_555
Bi10 O22 2.459317 1_545
Bi11 O107 2.151419 1_555
Bi11 O110 2.175195 1_565
Bi11 O102 2.199812 1_555
Bi11 O23 2.752157 1_555
Bi12 O44 2.120740 1_655
Bi12 O31 2.143314 1_655
Bi12 O110 2.236023 1_555
Bi12 O48 2.459317 1_655
Bi13 O2 2.217254 1_555
Bi13 O83 2.237474 1_555
Bi13 O9 2.260180 1_555
Bi13 O108 2.687731 1_555
Bi13 O109 2.830269 1_555
Bi14 O65 2.185484 1_555
Bi14 O75 2.271343 1_555
Bi14 O81 2.295138 1_555
Bi14 O27 2.462990 1_544
Bi14 O76 2.629574 1_545
Bi15 O51 2.116465 1_555
Bi15 O61 2.273558 1_555
Bi15 O34 2.346438 1_555
Bi15 O42 2.386764 1_555
Bi15 O48 2.511973 1_555
Bi16 O35 2.254225 1_545
Bi16 O14 2.273413 1_445
Bi16 O55 2.338634 1_555
Bi16 O41 2.454590 1_545
Bi16 O38 2.498289 1_455
Bi16 O50 2.785255 1_555
Bi17 O10 2.251854 1_555
Bi17 O8 2.270336 1_555
Bi17 O91 2.324350 1_555
Bi17 O95 2.436053 1_555
Bi17 O18 2.564278 1_556
Bi17 O102 2.810404 1_556
Bi18 O94 2.191978 1_554
Bi18 O101 2.191978 1_555
Bi18 O11 2.491519 1_554
Bi18 O24 2.491519 1_555
Bi19 O27 2.169914 1_554
Bi19 O45 2.169915 1_555
Bi19 O65 2.341537 1_565
Bi19 O104 2.341537 1_454
Bi20 O72 2.259745 1_555
Bi20 O25 2.317378 1_555
Bi20 O79 2.342817 1_555
Bi20 O55 2.446910 1_555
Bi20 O69 2.491188 1_545
Bi20 O56 2.520642 1_555
Bi21 O64 2.143801 1_555
Bi21 O57 2.148013 1_555
Bi21 O72 2.320333 1_555
Bi21 O34 2.320735 1_555
Bi22 O2 2.241856 1_555
Bi22 O108 2.246812 1_555
Bi22 O24 2.249620 1_555
Bi22 O37 2.409063 1_555
Bi22 O15 2.546332 1_555
Bi22 O106 2.773405 1_555
Bi22 O42 2.782108 1_655
Bi23 O98 2.259745 1_555
Bi23 O107 2.317378 1_555
Bi23 O23 2.342817 1_555
Bi23 O14 2.446910 1_555
Bi23 O41 2.491188 1_655
Bi23 O108 2.520642 1_555
Bi24 O18 2.311993 1_555
Bi24 O88 2.311993 1_554
Bi24 O77 2.469316 1_555
Bi24 O91 2.469316 1_554
Bi24 O0 2.477774 1_554
Bi24 O82 2.477774 1_555
Bi25 O6 2.217254 1_555
Bi25 O57 2.237474 1_555
Bi25 O5 2.260180 1_555
Bi25 O56 2.687731 1_555
Bi25 O50 2.830269 1_555
Bi26 O52 2.222583 1_555
Bi26 O68 2.264372 1_555
Bi26 O12 2.343865 1_555
Bi26 O34 2.418573 1_555
Bi26 O51 2.464354 1_555
Bi27 O84 2.208675 1_555
Bi27 O13 2.233283 1_555
Bi27 O56 2.258023 1_565
Bi27 O52 2.535342 1_555
Bi27 O35 2.574009 1_555
Bi28 O27 2.151762 1_555
Bi28 O53 2.279706 1_555
Bi28 O78 2.426326 1_555
Bi29 O25 2.151419 1_555
Bi29 O103 2.175195 1_455
Bi29 O28 2.199812 1_555
Bi29 O79 2.752157 1_555
Bi30 O45 2.151761 1_555
Bi30 O47 2.279706 1_555
Bi30 O66 2.426326 1_555
Bi31 O75 2.186825 1_555
Bi31 O65 2.266016 1_555
Bi31 O80 2.371990 1_555
Bi31 O28 2.626890 1_554
Bi31 O44 2.628407 1_555
Bi32 O89 2.152747 1_554
Bi32 O81 2.279640 1_565
Bi32 O76 2.352395 1_555
Bi32 O97 2.402873 1_565
Bi32 O91 2.561662 1_554
Bi33 O101 2.170789 1_555
Bi33 O97 2.244501 1_555
Bi33 O106 2.361562 1_555
Bi33 O90 2.455264 1_555
Bi33 O1 2.758050 1_555
Bi34 O70 2.165824 1_555
Bi34 O51 2.186161 1_555
Bi34 O80 2.193034 1_555
Bi34 O61 2.467667 1_555
Bi35 O71 2.304754 1_545
Bi35 O50 2.457158 1_555
Bi35 O5 2.584671 1_555
Bi35 O21 2.658760 1_555
Bi35 O62 2.781981 1_545
Bi36 O97 2.260301 1_555
Bi36 O86 2.265304 1_555
Bi36 O7 2.270794 1_555
Bi36 O107 2.405256 1_545
Bi36 O106 2.674344 1_555
Bi36 O38 2.676845 1_555
Bi37 O6 2.241856 1_555
Bi37 O56 2.246812 1_555
Bi37 O11 2.249620 1_555
Bi37 O4 2.409063 1_555
Bi37 O16 2.546332 1_555
Bi37 O92 2.773405 1_555
Bi37 O13 2.782108 1_545
Bi38 O93 2.148166 1_555
Bi38 O10 2.242897 1_555
Bi38 O17 2.330687 1_555
Bi38 O12 2.374303 1_555
Bi38 O57 2.644530 1_555
Bi39 O100 2.260299 1_555
Bi39 O54 2.265304 1_555
Bi39 O30 2.270794 1_555
Bi39 O25 2.405256 1_655
Bi39 O92 2.674344 1_555
Bi39 O33 2.676845 1_555
Bi40 O26 2.202468 1_555
Bi40 O54 2.304117 1_555
Bi40 O30 2.550450 1_555
Bi40 O39 2.592532 1_555
Bi40 O19 2.723986 1_555
Bi41 O46 2.152747 1_556
Bi41 O26 2.279640 1_455
Bi41 O29 2.352395 1_555
Bi41 O100 2.402862 1_455
Bi41 O77 2.561661 1_556
Bi42 O104 2.185484 1_555
Bi42 O95 2.271342 1_555
Bi42 O26 2.295138 1_555
Bi42 O45 2.462990 1_656
Bi42 O29 2.629574 1_655
Bi43 O44 2.262980 1_655
Bi43 O28 2.265890 1_654
Bi43 O103 2.284550 1_554
Bi43 O46 2.558504 1_655
Bi43 O59 2.581988 1_655
Bi43 O100 2.803642 1_554
Bi44 O52 2.222583 1_555
Bi44 O62 2.264372 1_555
Bi44 O63 2.343865 1_555
Bi44 O71 2.418573 1_555
Bi44 O85 2.464353 1_555
Bi45 O70 2.165824 1_555
Bi45 O85 2.186161 1_555
Bi45 O93 2.193034 1_555
Bi45 O32 2.467667 1_555
Bi46 O85 2.116465 1_555
Bi46 O32 2.273558 1_555
Bi46 O71 2.346438 1_555
Bi46 O13 2.386764 1_555
Bi46 O22 2.511973 1_555
O16 O92 1.471611 1_555
O29 O66 1.467773 1_556
O76 O78 1.467773 1_554
O106 O15 1.471611 1_555
