# generated using pymatgen
data_LaTiNO2
_symmetry_space_group_name_H-M   'P 1'
_cell_length_a   5.61987524
_cell_length_b   5.61987524
_cell_length_c   5.61987524
_cell_angle_alpha   120.76493013
_cell_angle_beta   120.04050761
_cell_angle_gamma   89.30503328
_symmetry_Int_Tables_number   1
_chemical_formula_structural   LaTiNO2
_chemical_formula_sum   'La2 Ti2 N2 O4'
_cell_volume   124.72591522
_cell_formula_units_Z   2
loop_
 _symmetry_equiv_pos_site_id
 _symmetry_equiv_pos_as_xyz
  1  'x, y, z'
loop_
 _atom_site_type_symbol
 _atom_site_label
 _atom_site_symmetry_multiplicity
 _atom_site_fract_x
 _atom_site_fract_y
 _atom_site_fract_z
 _atom_site_occupancy
  La  La0  1  0.24964900  0.25000000  0.99964900  1
  La  La1  1  0.75035100  0.75000000  0.00035100  1
  Ti  Ti0  1  0.50000000  0.00000000  0.50000000  1
  Ti  Ti1  1  0.00000000  0.50000000  0.50000000  1
  N  N0  1  0.68229000  0.25000000  0.43229000  1
  N  N1  1  0.31771000  0.75000000  0.56771000  1
  O  O0  1  0.78510000  0.78510000  0.50000000  1
  O  O1  1  0.21490000  0.71490000  0.00000000  1
  O  O2  1  0.78510000  0.28510000  0.00000000  1
  O  O3  1  0.21490000  0.21490000  0.50000000  1
loop_
_geom_bond_atom_site_label_1
_geom_bond_atom_site_label_2
_geom_bond_distance
_geom_bond_site_symmetry_2
La0 N0 2.429900 1_556
La0 O3 2.616672 1_555
La0 O2 2.616672 1_456
La0 O1 2.616672 1_556
La0 O0 2.616672 1_445
La0 N1 2.803569 1_545
La0 N1 2.803569 1_556
La0 O1 3.016963 1_546
La0 O0 3.016963 1_556
La0 O3 3.016963 1_556
La0 O2 3.016963 1_556
La0 N0 3.186534 1_455
La1 N1 2.429900 1_554
La1 O0 2.616672 1_555
La1 O2 2.616672 1_555
La1 O3 2.616672 1_665
La1 O1 2.616672 1_655
La1 N0 2.803569 1_554
La1 N0 2.803569 1_565
La1 O2 3.016963 1_565
La1 O3 3.016963 1_554
La1 O0 3.016963 1_554
La1 O1 3.016963 1_555
La1 N1 3.186534 1_655
N0 Ti0 2.034792 1_555
N0 Ti1 2.034792 1_655
N1 Ti1 2.034792 1_555
N1 Ti0 2.034792 1_565
O0 Ti0 1.994682 1_565
O0 Ti1 1.994682 1_655
O1 Ti0 1.994682 1_565
O1 Ti1 1.994682 1_554
O2 Ti1 1.994682 1_655
O2 Ti0 1.994682 1_554
O3 Ti0 1.994682 1_555
O3 Ti1 1.994682 1_555
