# generated using pymatgen
data_CaMg6Zn
_symmetry_space_group_name_H-M   'P 1'
_cell_length_a   5.09972200
_cell_length_b   6.58874200
_cell_length_c   11.34972600
_cell_angle_alpha   90.00000000
_cell_angle_beta   90.00000000
_cell_angle_gamma   90.00000000
_symmetry_Int_Tables_number   1
_chemical_formula_structural   CaMg6Zn
_chemical_formula_sum   'Ca2 Mg12 Zn2'
_cell_volume   381.35933461
_cell_formula_units_Z   2
loop_
 _symmetry_equiv_pos_site_id
 _symmetry_equiv_pos_as_xyz
  1  'x, y, z'
loop_
 _atom_site_type_symbol
 _atom_site_label
 _atom_site_symmetry_multiplicity
 _atom_site_fract_x
 _atom_site_fract_y
 _atom_site_fract_z
 _atom_site_occupancy
  Ca  Ca0  1  0.00000000  0.50000000  0.32716300  1
  Ca  Ca1  1  0.00000000  0.00000000  0.82716300  1
  Mg  Mg0  1  0.00000000  0.25755400  0.08161400  1
  Mg  Mg1  1  0.00000000  0.74244600  0.08161400  1
  Mg  Mg2  1  0.00000000  0.50000000  0.83611700  1
  Mg  Mg3  1  0.50000000  0.25928900  0.92067700  1
  Mg  Mg4  1  0.50000000  0.74071100  0.92067700  1
  Mg  Mg5  1  0.50000000  0.50000000  0.66715000  1
  Mg  Mg6  1  0.00000000  0.75755400  0.58161400  1
  Mg  Mg7  1  0.00000000  0.24244600  0.58161400  1
  Mg  Mg8  1  0.00000000  0.00000000  0.33611700  1
  Mg  Mg9  1  0.50000000  0.75928900  0.42067700  1
  Mg  Mg10  1  0.50000000  0.24071100  0.42067700  1
  Mg  Mg11  1  0.50000000  0.00000000  0.16715000  1
  Zn  Zn0  1  0.50000000  0.50000000  0.16498900  1
  Zn  Zn1  1  0.50000000  0.00000000  0.66498900  1
loop_
_geom_bond_atom_site_label_1
_geom_bond_atom_site_label_2
_geom_bond_distance
_geom_bond_site_symmetry_2
Ca0 Zn0 3.144791 1_555
Ca0 Zn0 3.144791 1_455
Ca0 Mg1 3.212261 1_555
Ca0 Mg0 3.212261 1_555
Ca0 Mg9 3.247593 1_455
Ca0 Mg10 3.247593 1_455
Ca0 Mg9 3.247593 1_555
Ca0 Mg10 3.247593 1_555
Ca0 Mg8 3.295938 1_565
Ca0 Mg8 3.295938 1_555
Ca0 Mg6 3.349614 1_555
Ca0 Mg7 3.349614 1_555
Ca1 Zn1 3.144791 1_555
Ca1 Zn1 3.144791 1_455
Ca1 Mg7 3.212261 1_555
Ca1 Mg6 3.212261 1_545
Ca1 Mg4 3.247593 1_445
Ca1 Mg3 3.247593 1_555
Ca1 Mg4 3.247593 1_545
Ca1 Mg3 3.247593 1_455
Ca1 Mg2 3.295938 1_545
Ca1 Mg2 3.295938 1_555
Ca1 Mg1 3.349614 1_546
Ca1 Mg0 3.349614 1_556
Mg0 Mg3 3.136615 1_554
Mg0 Mg3 3.136615 1_454
Mg0 Zn0 3.154200 1_455
Mg0 Zn0 3.154200 1_555
Mg0 Mg1 3.194828 1_555
Mg0 Mg2 3.211749 1_554
Mg0 Mg11 3.213087 1_455
Mg0 Mg11 3.213087 1_555
Mg0 Mg8 3.350123 1_555
Mg0 Mg1 3.393914 1_545
Mg1 Mg4 3.136615 1_554
Mg1 Mg4 3.136615 1_454
Mg1 Zn0 3.154200 1_455
Mg1 Zn0 3.154200 1_555
Mg1 Mg2 3.211749 1_554
Mg1 Mg11 3.213087 1_565
Mg1 Mg11 3.213087 1_465
Mg1 Mg8 3.350123 1_565
Mg2 Mg3 3.152494 1_455
Mg2 Mg4 3.152494 1_455
Mg2 Mg3 3.152494 1_555
Mg2 Mg4 3.152494 1_555
Mg2 Mg5 3.190529 1_455
Mg2 Mg5 3.190529 1_555
Mg2 Mg6 3.350123 1_555
Mg2 Mg7 3.350123 1_555
Mg3 Mg4 3.171965 1_555
Mg3 Zn0 3.194397 1_556
Mg3 Mg5 3.285594 1_555
Mg3 Zn1 3.367511 1_555
Mg3 Mg4 3.416777 1_545
Mg4 Zn0 3.194397 1_556
Mg4 Mg5 3.285594 1_555
Mg4 Zn1 3.367511 1_565
Mg5 Mg6 3.213087 1_555
Mg5 Mg6 3.213087 1_655
Mg5 Mg7 3.213087 1_655
Mg5 Mg7 3.213087 1_555
Mg5 Mg9 3.277811 1_555
Mg5 Zn1 3.294462 1_565
Mg5 Zn1 3.294462 1_555
Mg6 Mg9 3.136615 1_455
Mg6 Mg9 3.136615 1_555
Mg6 Zn1 3.154200 1_465
Mg6 Zn1 3.154200 1_565
Mg6 Mg7 3.194828 1_565
Mg6 Mg8 3.211749 1_565
Mg6 Mg7 3.393914 1_555
Mg7 Zn1 3.154200 1_455
Mg7 Zn1 3.154200 1_555
Mg7 Mg8 3.211749 1_555
Mg8 Mg9 3.152494 1_445
Mg8 Mg9 3.152494 1_545
Mg9 Zn1 3.194397 1_565
Mg9 Zn0 3.367511 1_555
Mg10 Mg7 3.136615 1_655
Mg10 Mg7 3.136615 1_555
Mg10 Mg8 3.152494 1_555
Mg10 Mg8 3.152494 1_655
Mg10 Mg9 3.171965 1_545
Mg10 Zn1 3.194397 1_555
Mg10 Mg5 3.277811 1_555
Mg10 Mg11 3.285594 1_555
Mg10 Zn0 3.367511 1_555
Mg10 Mg9 3.416777 1_555
Mg11 Mg8 3.190529 1_555
Mg11 Mg8 3.190529 1_655
Mg11 Mg3 3.277811 1_554
Mg11 Mg4 3.277811 1_544
Mg11 Mg9 3.285594 1_545
Mg11 Zn0 3.294462 1_545
Mg11 Zn0 3.294462 1_555
