# generated using pymatgen
data_Sr2SiO4
_symmetry_space_group_name_H-M   'P 1'
_cell_length_a   5.61288342
_cell_length_b   7.08271096
_cell_length_c   9.81411804
_cell_angle_alpha   90.00000000
_cell_angle_beta   90.00000000
_cell_angle_gamma   90.00000000
_symmetry_Int_Tables_number   1
_chemical_formula_structural   Sr2SiO4
_chemical_formula_sum   'Sr8 Si4 O16'
_cell_volume   390.15467762
_cell_formula_units_Z   4
loop_
 _symmetry_equiv_pos_site_id
 _symmetry_equiv_pos_as_xyz
  1  'x, y, z'
loop_
 _atom_site_type_symbol
 _atom_site_label
 _atom_site_symmetry_multiplicity
 _atom_site_fract_x
 _atom_site_fract_y
 _atom_site_fract_z
 _atom_site_occupancy
  Sr  Sr0  1  0.25000000  0.99772595  0.69651237  1
  Sr  Sr1  1  0.75000000  0.00227405  0.30348763  1
  Sr  Sr2  1  0.25000000  0.49772595  0.80348763  1
  Sr  Sr3  1  0.75000000  0.50227405  0.19651237  1
  Sr  Sr4  1  0.25000000  0.65515813  0.42470013  1
  Sr  Sr5  1  0.75000000  0.34484187  0.57529987  1
  Sr  Sr6  1  0.25000000  0.15515813  0.07529987  1
  Sr  Sr7  1  0.75000000  0.84484187  0.92470013  1
  Si  Si0  1  0.25000000  0.22095222  0.41945953  1
  Si  Si1  1  0.75000000  0.77904778  0.58054047  1
  Si  Si2  1  0.25000000  0.72095222  0.08054047  1
  Si  Si3  1  0.75000000  0.27904778  0.91945953  1
  O  O0  1  0.98755926  0.70025442  0.65712713  1
  O  O1  1  0.48755926  0.29974558  0.34287287  1
  O  O2  1  0.51244074  0.20025442  0.84287287  1
  O  O3  1  0.01244074  0.79974558  0.15712713  1
  O  O4  1  0.01244074  0.29974558  0.34287287  1
  O  O5  1  0.51244074  0.70025442  0.65712713  1
  O  O6  1  0.48755926  0.79974558  0.15712713  1
  O  O7  1  0.98755926  0.20025442  0.84287287  1
  O  O8  1  0.25000000  0.31837888  0.57216076  1
  O  O9  1  0.75000000  0.68162112  0.42783924  1
  O  O10  1  0.25000000  0.81837888  0.92783924  1
  O  O11  1  0.75000000  0.18162112  0.07216076  1
  O  O12  1  0.75000000  0.50732191  0.92707117  1
  O  O13  1  0.25000000  0.49267809  0.07292883  1
  O  O14  1  0.75000000  0.00732191  0.57292883  1
  O  O15  1  0.25000000  0.99267809  0.42707117  1
loop_
_geom_bond_atom_site_label_1
_geom_bond_atom_site_label_2
_geom_bond_distance
_geom_bond_site_symmetry_2
O0 Si1 1.629210 1_555
O0 Sr2 2.508140 1_655
O0 Sr0 2.599679 1_655
O0 Sr4 2.734073 1_655
O0 Sr5 2.959656 1_555
O0 Sr7 3.118092 1_555
O1 Si0 1.629210 1_555
O1 Sr3 2.508140 1_555
O1 Sr1 2.599679 1_555
O1 Sr5 2.734073 1_555
O1 Sr4 2.959656 1_555
O1 Sr6 3.118092 1_555
O2 Si3 1.629210 1_555
O2 Sr0 2.508140 1_545
O2 Sr2 2.599679 1_555
O2 Sr6 2.734073 1_556
O2 Sr7 2.959656 1_545
O2 Sr5 3.118092 1_555
O3 Si2 1.629210 1_555
O3 Sr1 2.508140 1_465
O3 Sr3 2.599679 1_455
O3 Sr7 2.734073 1_454
O3 Sr6 2.959656 1_565
O3 Sr4 3.118092 1_555
O4 Si0 1.629210 1_555
O4 Sr3 2.508140 1_455
O4 Sr1 2.599679 1_455
O4 Sr5 2.734073 1_455
O4 Sr4 2.959656 1_555
O4 Sr6 3.118092 1_555
O5 Si1 1.629210 1_555
O5 Sr2 2.508140 1_555
O5 Sr0 2.599679 1_555
O5 Sr4 2.734073 1_555
O5 Sr5 2.959656 1_555
O5 Sr7 3.118092 1_555
O6 Si2 1.629210 1_555
O6 Sr1 2.508140 1_565
O6 Sr3 2.599679 1_555
O6 Sr7 2.734073 1_554
O6 Sr6 2.959656 1_565
O6 Sr4 3.118092 1_555
O7 Si3 1.629210 1_555
O7 Sr0 2.508140 1_645
O7 Sr2 2.599679 1_655
O7 Sr6 2.734073 1_656
O7 Sr7 2.959656 1_545
O7 Sr5 3.118092 1_555
O8 Si0 1.649863 1_555
O8 Sr0 2.578224 1_545
O8 Sr2 2.601479 1_555
O8 Sr4 2.789997 1_555
O8 Sr5 2.812862 1_555
O8 Sr5 2.812862 1_455
O9 Si1 1.649863 1_555
O9 Sr1 2.578224 1_565
O9 Sr3 2.601479 1_555
O9 Sr5 2.789997 1_555
O9 Sr4 2.812862 1_555
O9 Sr4 2.812862 1_655
O10 Si2 1.649863 1_556
O10 Sr2 2.578224 1_555
O10 Sr0 2.601479 1_555
O10 Sr6 2.789997 1_566
O10 Sr7 2.812862 1_455
O10 Sr7 2.812862 1_555
O11 Si3 1.649863 1_554
O11 Sr3 2.578224 1_555
O11 Sr1 2.601479 1_555
O11 Sr7 2.789997 1_544
O11 Sr6 2.812862 1_555
O11 Sr6 2.812862 1_655
O12 Si3 1.618524 1_555
O12 Sr7 2.390670 1_555
O12 Sr3 2.644569 1_556
O12 Sr2 3.058067 1_555
O12 Sr2 3.058067 1_655
O13 Si2 1.618524 1_555
O13 Sr6 2.390670 1_555
O13 Sr2 2.644569 1_554
O13 Sr3 3.058067 1_455
O13 Sr3 3.058067 1_555
O14 Si1 1.618524 1_545
O14 Sr5 2.390670 1_555
O14 Sr1 2.644569 1_555
O14 Sr0 3.058067 1_645
O14 Sr0 3.058067 1_545
O15 Si0 1.618524 1_565
O15 Sr4 2.390670 1_555
O15 Sr0 2.644569 1_555
O15 Sr1 3.058067 1_565
O15 Sr1 3.058067 1_465
