# generated using pymatgen
data_AsPb3
_symmetry_space_group_name_H-M   'P 1'
_cell_length_a   7.05552485
_cell_length_b   7.05552485
_cell_length_c   5.34228700
_cell_angle_alpha   90.00000000
_cell_angle_beta   90.00000000
_cell_angle_gamma   120.00000795
_symmetry_Int_Tables_number   1
_chemical_formula_structural   AsPb3
_chemical_formula_sum   'As2 Pb6'
_cell_volume   230.31194547
_cell_formula_units_Z   2
loop_
 _symmetry_equiv_pos_site_id
 _symmetry_equiv_pos_as_xyz
  1  'x, y, z'
loop_
 _atom_site_type_symbol
 _atom_site_label
 _atom_site_symmetry_multiplicity
 _atom_site_fract_x
 _atom_site_fract_y
 _atom_site_fract_z
 _atom_site_occupancy
  As  As0  1  0.33333300  0.66666700  0.75000000  1
  As  As1  1  0.66666700  0.33333300  0.25000000  1
  Pb  Pb0  1  0.17407100  0.34814100  0.25000000  1
  Pb  Pb1  1  0.65185900  0.82592900  0.25000000  1
  Pb  Pb2  1  0.17407100  0.82592900  0.25000000  1
  Pb  Pb3  1  0.82592900  0.65185900  0.75000000  1
  Pb  Pb4  1  0.34814100  0.17407100  0.75000000  1
  Pb  Pb5  1  0.82592900  0.17407100  0.75000000  1
loop_
_geom_bond_atom_site_label_1
_geom_bond_atom_site_label_2
_geom_bond_distance
_geom_bond_site_symmetry_2
As0 Pb2 3.304990 1_555
As0 Pb2 3.304990 1_556
As0 Pb1 3.304997 1_555
As0 Pb0 3.304997 1_556
As0 Pb1 3.304997 1_556
As0 Pb0 3.304997 1_555
As1 Pb5 3.304990 1_555
As1 Pb5 3.304990 1_554
As1 Pb3 3.304997 1_555
As1 Pb3 3.304997 1_554
As1 Pb4 3.304997 1_555
As1 Pb4 3.304997 1_554
Pb0 Pb1 3.371045 1_555
Pb0 Pb2 3.371045 1_555
Pb0 Pb4 3.414689 1_555
Pb0 Pb4 3.414689 1_554
Pb0 Pb5 3.414697 1_454
Pb0 Pb5 3.414697 1_455
Pb1 Pb2 3.371045 1_555
Pb1 Pb3 3.414689 1_555
Pb1 Pb3 3.414689 1_554
Pb1 Pb5 3.414697 1_565
Pb1 Pb5 3.414697 1_564
Pb2 Pb3 3.414697 1_455
Pb2 Pb4 3.414697 1_564
Pb2 Pb3 3.414697 1_454
Pb2 Pb4 3.414697 1_565
Pb3 Pb4 3.371045 1_555
Pb3 Pb5 3.371045 1_555
Pb4 Pb5 3.371045 1_555
