# generated using pymatgen
data_IrO2
_symmetry_space_group_name_H-M   'P 1'
_cell_length_a   4.90361452
_cell_length_b   4.90167494
_cell_length_c   4.90483427
_cell_angle_alpha   90.01746595
_cell_angle_beta   90.01909361
_cell_angle_gamma   89.98506713
_symmetry_Int_Tables_number   1
_chemical_formula_structural   IrO2
_chemical_formula_sum   'Ir4 O8'
_cell_volume   117.89220981
_cell_formula_units_Z   4
loop_
 _symmetry_equiv_pos_site_id
 _symmetry_equiv_pos_as_xyz
  1  'x, y, z'
loop_
 _atom_site_type_symbol
 _atom_site_label
 _atom_site_symmetry_multiplicity
 _atom_site_fract_x
 _atom_site_fract_y
 _atom_site_fract_z
 _atom_site_occupancy
  Ir  Ir0  1  0.50000000  0.50000000  0.00000000  1
  Ir  Ir1  1  0.50000000  0.00000000  0.50000000  1
  Ir  Ir2  1  0.00000000  0.50000000  0.50000000  1
  Ir  Ir3  1  0.00000000  0.00000000  0.00000000  1
  O  O0  1  0.15019635  0.84994823  0.34984421  1
  O  O1  1  0.84976298  0.34994789  0.15027260  1
  O  O2  1  0.34976937  0.14994498  0.84976184  1
  O  O3  1  0.65012250  0.64999671  0.65025894  1
  O  O4  1  0.84980365  0.15005177  0.65015579  1
  O  O5  1  0.15023702  0.65005211  0.84972740  1
  O  O6  1  0.65023063  0.85005502  0.15023816  1
  O  O7  1  0.34987750  0.35000329  0.34974106  1
loop_
_geom_bond_atom_site_label_1
_geom_bond_atom_site_label_2
_geom_bond_distance
_geom_bond_site_symmetry_2
Ir0 O5 2.006150 1_554
Ir0 O1 2.006150 1_555
Ir0 O7 2.006749 1_555
Ir0 O3 2.006749 1_554
Ir0 O2 2.007333 1_554
Ir0 O6 2.007333 1_555
Ir1 O0 2.006273 1_545
Ir1 O4 2.006273 1_555
Ir1 O6 2.006414 1_545
Ir1 O2 2.006414 1_555
Ir1 O7 2.007015 1_555
Ir1 O3 2.007015 1_545
Ir2 O5 2.006195 1_555
Ir2 O1 2.006195 1_455
Ir2 O3 2.006762 1_455
Ir2 O7 2.006762 1_555
Ir2 O0 2.007240 1_555
Ir2 O4 2.007240 1_455
Ir3 O6 2.006670 1_445
Ir3 O2 2.006670 1_554
Ir3 O5 2.006810 1_544
Ir3 O1 2.006810 1_455
Ir3 O4 2.006853 1_454
Ir3 O0 2.006853 1_545
