# generated using pymatgen
data_Na4W4O15
_symmetry_space_group_name_H-M   'P 1'
_cell_length_a   5.29731200
_cell_length_b   7.73992006
_cell_length_c   8.92151052
_cell_angle_alpha   112.86404599
_cell_angle_beta   96.30716677
_cell_angle_gamma   92.84355576
_symmetry_Int_Tables_number   1
_chemical_formula_structural   Na4W4O15
_chemical_formula_sum   'Na4 W4 O15'
_cell_volume   333.30307315
_cell_formula_units_Z   1
loop_
 _symmetry_equiv_pos_site_id
 _symmetry_equiv_pos_as_xyz
  1  'x, y, z'
loop_
 _atom_site_type_symbol
 _atom_site_label
 _atom_site_symmetry_multiplicity
 _atom_site_fract_x
 _atom_site_fract_y
 _atom_site_fract_z
 _atom_site_occupancy
  Na  Na0  1  0.73053500  0.22593800  0.12546200  1
  Na  Na1  1  0.26946500  0.77406200  0.87453800  1
  Na  Na2  1  0.32607800  0.51494500  0.31127600  1
  Na  Na3  1  0.67392200  0.48505500  0.68872400  1
  W  W0  1  0.34978300  0.03511800  0.34429000  1
  W  W1  1  0.65021700  0.96488200  0.65571000  1
  W  W2  1  0.18487200  0.23339100  0.81467700  1
  W  W3  1  0.81512800  0.76660900  0.18532300  1
  O  O0  1  0.33641600  0.08515800  0.57554300  1
  O  O1  1  0.66358400  0.91484200  0.42445700  1
  O  O2  1  0.01237500  0.06144900  0.27510000  1
  O  O3  1  0.98762500  0.93855100  0.72490000  1
  O  O4  1  0.00000000  0.00000000  0.00000000  1
  O  O5  1  0.13245500  0.30956300  0.02604200  1
  O  O6  1  0.86754500  0.69043700  0.97395800  1
  O  O7  1  0.48778300  0.26641700  0.37494800  1
  O  O8  1  0.51221700  0.73358300  0.62505200  1
  O  O9  1  0.67601400  0.55404200  0.19001700  1
  O  O10  1  0.32398600  0.44595800  0.80998300  1
  O  O11  1  0.49351600  0.09845500  0.85007900  1
  O  O12  1  0.50648400  0.90154500  0.14992100  1
  O  O13  1  0.14396100  0.76711900  0.29355100  1
  O  O14  1  0.85603900  0.23288100  0.70644900  1
loop_
_geom_bond_atom_site_label_1
_geom_bond_atom_site_label_2
_geom_bond_distance
_geom_bond_site_symmetry_2
Na0 O4 2.329420 1_655
Na0 O9 2.415974 1_555
Na0 O11 2.429314 1_554
Na0 O5 2.542250 1_655
Na0 O2 2.589120 1_655
Na0 O7 2.613978 1_555
Na0 O12 2.819088 1_545
Na1 O4 2.329420 1_566
Na1 O10 2.415974 1_555
Na1 O12 2.429314 1_556
Na1 O6 2.542250 1_455
Na1 O3 2.589120 1_455
Na1 O8 2.613978 1_555
Na1 O11 2.819088 1_565
Na2 O13 2.271214 1_555
Na2 O9 2.310308 1_555
Na2 O7 2.379565 1_555
Na2 O5 2.485124 1_555
Na2 O8 2.686834 1_555
Na3 O14 2.271214 1_555
Na3 O10 2.310308 1_555
Na3 O8 2.379565 1_555
Na3 O6 2.485124 1_555
Na3 O7 2.686834 1_555
O0 W0 1.955859 1_555
O0 W1 2.133333 1_545
O0 W2 2.253422 1_555
O1 W1 1.955859 1_555
O1 W0 2.133333 1_565
O1 W3 2.253422 1_555
O2 W0 1.873151 1_555
O2 W3 2.258354 1_445
O3 W1 1.873151 1_555
O3 W2 2.258354 1_665
O5 W2 1.802192 1_554
O6 W3 1.802192 1_556
O7 W0 1.805511 1_555
O8 W1 1.805511 1_555
O9 W3 1.786533 1_555
O10 W2 1.786533 1_555
O11 W1 1.942461 1_545
O11 W2 2.043521 1_555
O12 W0 1.942461 1_565
O12 W3 2.043521 1_555
O13 W3 1.895639 1_455
O13 W0 2.152640 1_565
O14 W2 1.895639 1_655
O14 W1 2.152640 1_545
