# generated using pymatgen
data_Na2Al3Si3HNO12
_symmetry_space_group_name_H-M   'P 1'
_cell_length_a   5.37556641
_cell_length_b   15.56297286
_cell_length_c   17.69707318
_cell_angle_alpha   90.00000000
_cell_angle_beta   90.00000000
_cell_angle_gamma   90.00000000
_symmetry_Int_Tables_number   1
_chemical_formula_structural   Na2Al3Si3HNO12
_chemical_formula_sum   'Na8 Al12 Si12 H4 N4 O48'
_cell_volume   1480.53349922
_cell_formula_units_Z   4
loop_
 _symmetry_equiv_pos_site_id
 _symmetry_equiv_pos_as_xyz
  1  'x, y, z'
loop_
 _atom_site_type_symbol
 _atom_site_label
 _atom_site_symmetry_multiplicity
 _atom_site_fract_x
 _atom_site_fract_y
 _atom_site_fract_z
 _atom_site_occupancy
  Na  Na0  1  0.69174151  0.72464339  0.59528987  1
  Na  Na1  1  0.19174151  0.27535661  0.40471013  1
  Na  Na2  1  0.69174151  0.77535661  0.09528987  1
  Na  Na3  1  0.19174151  0.22464339  0.90471013  1
  Na  Na4  1  0.19571586  0.76990829  0.91023170  1
  Na  Na5  1  0.69571586  0.23009171  0.08976830  1
  Na  Na6  1  0.19571586  0.73009171  0.41023170  1
  Na  Na7  1  0.69571586  0.26990829  0.58976830  1
  Al  Al0  1  0.72212911  0.75661840  0.80866477  1
  Al  Al1  1  0.22212911  0.24338160  0.19133523  1
  Al  Al2  1  0.72212911  0.74338160  0.30866477  1
  Al  Al3  1  0.22212911  0.25661840  0.69133523  1
  Al  Al4  1  0.75942028  0.39503003  0.96036502  1
  Al  Al5  1  0.25942028  0.60496997  0.03963498  1
  Al  Al6  1  0.75942028  0.10496997  0.46036502  1
  Al  Al7  1  0.25942028  0.89503003  0.53963498  1
  Al  Al8  1  0.74590623  0.39854876  0.45554227  1
  Al  Al9  1  0.24590623  0.60145124  0.54445773  1
  Al  Al10  1  0.74590623  0.10145124  0.95554227  1
  Al  Al11  1  0.24590623  0.89854876  0.04445773  1
  Si  Si0  1  0.78896255  0.45362805  0.82494129  1
  Si  Si1  1  0.28896255  0.54637195  0.17505871  1
  Si  Si2  1  0.78896255  0.04637195  0.32494129  1
  Si  Si3  1  0.28896255  0.95362805  0.67505871  1
  Si  Si4  1  0.74879897  0.89164680  0.94655186  1
  Si  Si5  1  0.24879897  0.10835320  0.05344814  1
  Si  Si6  1  0.74879897  0.60835320  0.44655186  1
  Si  Si7  1  0.24879897  0.39164680  0.55344814  1
  Si  Si8  1  0.75832729  0.61259575  0.93750810  1
  Si  Si9  1  0.25832729  0.38740425  0.06249190  1
  Si  Si10  1  0.75832729  0.88740425  0.43750810  1
  Si  Si11  1  0.25832729  0.11259575  0.56249190  1
  H  H0  1  0.56305488  0.47387114  0.77985255  1
  H  H1  1  0.06305488  0.52612886  0.22014745  1
  H  H2  1  0.56305488  0.02612886  0.27985255  1
  H  H3  1  0.06305488  0.97387114  0.72014745  1
  N  N0  1  0.56411559  0.99484563  0.71937815  1
  N  N1  1  0.06411559  0.00515437  0.28062185  1
  N  N2  1  0.56411559  0.50515437  0.21937815  1
  N  N3  1  0.06411559  0.49484563  0.78062185  1
  O  O0  1  0.81231968  0.84090547  0.86801242  1
  O  O1  1  0.31231968  0.15909453  0.13198758  1
  O  O2  1  0.81231968  0.65909453  0.36801242  1
  O  O3  1  0.31231968  0.34090547  0.63198758  1
  O  O4  1  0.39963900  0.77811094  0.79649900  1
  O  O5  1  0.89963900  0.22188906  0.20350100  1
  O  O6  1  0.39963900  0.72188906  0.29649900  1
  O  O7  1  0.89963900  0.27811094  0.70350100  1
  O  O8  1  0.76589446  0.50571305  0.91468535  1
  O  O9  1  0.26589446  0.49428695  0.08531465  1
  O  O10  1  0.76589446  0.99428695  0.41468535  1
  O  O11  1  0.26589446  0.00571305  0.58531465  1
  O  O12  1  0.76185813  0.99406803  0.93494532  1
  O  O13  1  0.26185813  0.00593197  0.06505468  1
  O  O14  1  0.76185813  0.50593197  0.43494532  1
  O  O15  1  0.26185813  0.49406803  0.56505468  1
  O  O16  1  0.47710467  0.86036917  0.97996260  1
  O  O17  1  0.97710467  0.13963083  0.02003740  1
  O  O18  1  0.47710467  0.63963083  0.47996260  1
  O  O19  1  0.97710467  0.36036917  0.52003740  1
  O  O20  1  0.80789735  0.66327454  0.85969749  1
  O  O21  1  0.30789735  0.33672546  0.14030251  1
  O  O22  1  0.80789735  0.83672546  0.35969749  1
  O  O23  1  0.30789735  0.16327454  0.64030251  1
  O  O24  1  0.97462512  0.62775717  0.99994238  1
  O  O25  1  0.47462512  0.37224283  0.00005762  1
  O  O26  1  0.97462512  0.87224283  0.49994238  1
  O  O27  1  0.47462512  0.12775717  0.50005762  1
  O  O28  1  0.96312787  0.85833572  0.00756897  1
  O  O29  1  0.46312787  0.14166428  0.99243103  1
  O  O30  1  0.96312787  0.64166428  0.50756897  1
  O  O31  1  0.46312787  0.35833572  0.49243103  1
  O  O32  1  0.48959743  0.63155551  0.97536927  1
  O  O33  1  0.98959743  0.36844449  0.02463073  1
  O  O34  1  0.48959743  0.86844449  0.47536927  1
  O  O35  1  0.98959743  0.13155551  0.52463073  1
  O  O36  1  0.81059485  0.36063300  0.86687732  1
  O  O37  1  0.31059485  0.63936700  0.13312268  1
  O  O38  1  0.81059485  0.13936700  0.36687732  1
  O  O39  1  0.31059485  0.86063300  0.63312268  1
  O  O40  1  0.80793003  0.15870762  0.86963659  1
  O  O41  1  0.30793003  0.84129238  0.13036341  1
  O  O42  1  0.80793003  0.34129238  0.36963659  1
  O  O43  1  0.30793003  0.65870762  0.63036341  1
  O  O44  1  0.80093915  0.76006826  0.71276818  1
  O  O45  1  0.30093915  0.23993174  0.28723182  1
  O  O46  1  0.80093915  0.73993174  0.21276818  1
  O  O47  1  0.30093915  0.26006826  0.78723182  1
loop_
_geom_bond_atom_site_label_1
_geom_bond_atom_site_label_2
_geom_bond_distance
_geom_bond_site_symmetry_2
Na0 O44 2.229541 1_555
Na0 O43 2.386436 1_555
Na0 O30 2.491171 1_555
Na0 O18 2.692062 1_555
Na1 O45 2.229541 1_555
Na1 O42 2.386436 1_455
Na1 O31 2.491171 1_555
Na1 O19 2.692062 1_455
Na2 O46 2.229541 1_555
Na2 O41 2.386436 1_555
Na2 O28 2.491171 1_555
Na2 O16 2.692062 1_554
Na3 O47 2.229541 1_555
Na3 O40 2.386436 1_455
Na3 O29 2.491171 1_555
Na3 O17 2.692062 1_456
Na4 O4 2.295444 1_555
Na4 O16 2.406841 1_555
Na4 O0 2.454936 1_455
Na4 O28 2.534648 1_456
Na4 O20 2.810696 1_455
Na4 O32 2.908730 1_555
Na4 O24 2.971073 1_455
Na5 O5 2.295444 1_555
Na5 O17 2.406841 1_555
Na5 O1 2.454936 1_555
Na5 O29 2.534648 1_554
Na5 O21 2.810696 1_555
Na5 O33 2.908730 1_555
Na5 O25 2.971073 1_555
Na6 O6 2.295444 1_555
Na6 O18 2.406841 1_555
Na6 O2 2.454936 1_455
Na6 O30 2.534648 1_455
Na6 O22 2.810696 1_455
Na6 O34 2.908730 1_555
Na6 O26 2.971073 1_455
Na7 O7 2.295444 1_555
Na7 O19 2.406841 1_555
Na7 O3 2.454936 1_555
Na7 O31 2.534648 1_555
Na7 O23 2.810696 1_555
Na7 O35 2.908730 1_555
Na7 O27 2.971073 1_555
Al0 O0 1.748957 1_555
Al0 O44 1.749992 1_555
Al0 O20 1.771602 1_555
Al0 O4 1.778620 1_555
Al1 O1 1.748957 1_555
Al1 O45 1.749992 1_555
Al1 O21 1.771602 1_555
Al1 O5 1.778620 1_455
Al2 O2 1.748957 1_555
Al2 O46 1.749992 1_555
Al2 O22 1.771602 1_555
Al2 O6 1.778620 1_555
Al3 O3 1.748957 1_555
Al3 O47 1.749992 1_555
Al3 O23 1.771602 1_555
Al3 O7 1.778620 1_455
Al4 O25 1.721324 1_556
Al4 O33 1.730799 1_556
Al4 O36 1.760533 1_555
Al4 O8 1.903134 1_555
Al5 O24 1.721324 1_454
Al5 O32 1.730799 1_554
Al5 O37 1.760533 1_555
Al5 O9 1.903134 1_555
Al6 O27 1.721324 1_555
Al6 O35 1.730799 1_555
Al6 O38 1.760533 1_555
Al6 O10 1.903134 1_545
Al7 O26 1.721324 1_455
Al7 O34 1.730799 1_555
Al7 O39 1.760533 1_555
Al7 O11 1.903134 1_565
Al8 O14 1.712639 1_555
Al8 O31 1.768766 1_555
Al8 O19 1.788967 1_555
Al8 O42 1.793442 1_555
Al9 O15 1.712639 1_555
Al9 O30 1.768766 1_455
Al9 O18 1.788967 1_555
Al9 O43 1.793442 1_555
Al10 O12 1.712639 1_545
Al10 O29 1.768766 1_555
Al10 O17 1.788967 1_556
Al10 O40 1.793442 1_555
Al11 O13 1.712639 1_565
Al11 O28 1.768766 1_455
Al11 O16 1.788967 1_554
Al11 O41 1.793442 1_555
H0 Si0 1.486836 1_555
H1 Si1 1.486836 1_555
H2 Si2 1.486836 1_555
H3 Si3 1.486836 1_555
N0 Si3 1.792873 1_555
N1 Si2 1.792873 1_455
N2 Si1 1.792873 1_555
N3 Si0 1.792873 1_455
O0 Si4 1.634647 1_555
O1 Si5 1.634647 1_555
O2 Si6 1.634647 1_555
O3 Si7 1.634647 1_555
O8 Si8 1.712229 1_555
O8 Si0 1.787414 1_555
O9 Si9 1.712229 1_555
O9 Si1 1.787414 1_555
O10 Si10 1.712229 1_555
O10 Si2 1.787414 1_565
O11 Si11 1.712229 1_555
O11 Si3 1.787414 1_545
O12 Si4 1.608691 1_555
O13 Si5 1.608691 1_555
O14 Si6 1.608691 1_555
O15 Si7 1.608691 1_555
O16 Si4 1.649134 1_555
O17 Si5 1.649134 1_655
O18 Si6 1.649134 1_555
O19 Si7 1.649134 1_655
O20 Si8 1.609117 1_555
O21 Si9 1.609117 1_555
O22 Si10 1.609117 1_555
O23 Si11 1.609117 1_555
O24 Si8 1.621238 1_555
O25 Si9 1.621238 1_555
O26 Si10 1.621238 1_555
O27 Si11 1.621238 1_555
O28 Si4 1.661988 1_554
O29 Si5 1.661988 1_556
O30 Si6 1.661988 1_555
O31 Si7 1.661988 1_555
O32 Si8 1.619508 1_555
O33 Si9 1.619508 1_655
O34 Si10 1.619508 1_555
O35 Si11 1.619508 1_655
O36 Si0 1.630619 1_555
O37 Si1 1.630619 1_555
O38 Si2 1.630619 1_555
O39 Si3 1.630619 1_555
