# generated using pymatgen
data_Eu2BIN2
_symmetry_space_group_name_H-M   'P 1'
_cell_length_a   4.13402000
_cell_length_b   10.31057628
_cell_length_c   13.12721903
_cell_angle_alpha   92.14765583
_cell_angle_beta   90.00000000
_cell_angle_gamma   90.00000000
_symmetry_Int_Tables_number   1
_chemical_formula_structural   Eu2BIN2
_chemical_formula_sum   'Eu8 B4 I4 N8'
_cell_volume   559.14323639
_cell_formula_units_Z   4
loop_
 _symmetry_equiv_pos_site_id
 _symmetry_equiv_pos_as_xyz
  1  'x, y, z'
loop_
 _atom_site_type_symbol
 _atom_site_label
 _atom_site_symmetry_multiplicity
 _atom_site_fract_x
 _atom_site_fract_y
 _atom_site_fract_z
 _atom_site_occupancy
  Eu  Eu0  1  0.75000000  0.92185900  0.09576600  1
  Eu  Eu1  1  0.25000000  0.07814100  0.90423400  1
  Eu  Eu2  1  0.75000000  0.34748700  0.63095900  1
  Eu  Eu3  1  0.25000000  0.65251300  0.36904100  1
  Eu  Eu4  1  0.75000000  0.80413700  0.61652000  1
  Eu  Eu5  1  0.25000000  0.19586300  0.38348000  1
  Eu  Eu6  1  0.75000000  0.39773100  0.17363200  1
  Eu  Eu7  1  0.25000000  0.60226900  0.82636800  1
  B  B0  1  0.75000000  0.83925800  0.85158900  1
  B  B1  1  0.25000000  0.16074200  0.14841100  1
  B  B2  1  0.75000000  0.41905500  0.39554000  1
  B  B3  1  0.25000000  0.58094500  0.60446000  1
  I  I0  1  0.75000000  0.92179300  0.35820100  1
  I  I1  1  0.25000000  0.07820700  0.64179900  1
  I  I2  1  0.75000000  0.34670200  0.90415900  1
  I  I3  1  0.25000000  0.65329800  0.09584100  1
  N  N0  1  0.75000000  0.52479300  0.33791900  1
  N  N1  1  0.25000000  0.47520700  0.66208100  1
  N  N2  1  0.75000000  0.30740800  0.44571300  1
  N  N3  1  0.25000000  0.69259200  0.55428700  1
  N  N4  1  0.75000000  0.94953400  0.90958300  1
  N  N5  1  0.25000000  0.05046600  0.09041700  1
  N  N6  1  0.75000000  0.72906500  0.79249100  1
  N  N7  1  0.25000000  0.27093500  0.20750900  1
loop_
_geom_bond_atom_site_label_1
_geom_bond_atom_site_label_2
_geom_bond_distance
_geom_bond_site_symmetry_2
Eu0 N5 2.458200 1_565
Eu0 N5 2.458200 1_665
Eu0 N4 2.471264 1_554
Eu0 I0 3.445067 1_555
Eu0 I3 3.455459 1_655
Eu0 I3 3.455459 1_555
Eu1 N4 2.458200 1_445
Eu1 N4 2.458200 1_545
Eu1 N5 2.471264 1_556
Eu1 I1 3.445067 1_555
Eu1 I2 3.455459 1_455
Eu1 I2 3.455459 1_555
Eu2 N2 2.451312 1_555
Eu2 N1 2.476541 1_555
Eu2 N1 2.476541 1_655
Eu2 I1 3.468568 1_655
Eu2 I1 3.468568 1_555
Eu2 I2 3.586669 1_555
Eu3 N3 2.451312 1_555
Eu3 N0 2.476541 1_555
Eu3 N0 2.476541 1_455
Eu3 I0 3.468568 1_555
Eu3 I0 3.468568 1_455
Eu3 I3 3.586669 1_555
Eu4 N6 2.463593 1_555
Eu4 N3 2.488418 1_655
Eu4 N3 2.488418 1_555
Eu4 I1 3.506797 1_565
Eu4 I1 3.506797 1_665
Eu4 I0 3.644020 1_555
Eu5 N7 2.463593 1_555
Eu5 N2 2.488418 1_455
Eu5 N2 2.488418 1_555
Eu5 I0 3.506797 1_545
Eu5 I0 3.506797 1_445
Eu5 I1 3.644020 1_555
Eu6 N0 2.481051 1_555
Eu6 N7 2.494596 1_555
Eu6 N7 2.494596 1_655
Eu6 I3 3.529939 1_555
Eu6 I3 3.529939 1_655
Eu6 I2 3.556789 1_554
Eu7 N1 2.481051 1_555
Eu7 N6 2.494596 1_455
Eu7 N6 2.494596 1_555
Eu7 I2 3.529939 1_455
Eu7 I2 3.529939 1_555
Eu7 I3 3.556789 1_556
B0 N4 1.344429 1_555
B0 N6 1.351531 1_555
B1 N5 1.344429 1_555
B1 N7 1.351531 1_555
B2 N2 1.347500 1_555
B2 N0 1.350012 1_555
B3 N3 1.347500 1_555
B3 N1 1.350012 1_555
