# generated using pymatgen
data_H7C4(N3O2)3
_symmetry_space_group_name_H-M   'P 1'
_cell_length_a   6.35882061
_cell_length_b   7.91368115
_cell_length_c   23.57849200
_cell_angle_alpha   90.00000000
_cell_angle_beta   90.00000000
_cell_angle_gamma   105.65112045
_symmetry_Int_Tables_number   1
_chemical_formula_structural   H7C4(N3O2)3
_chemical_formula_sum   'H28 C16 N36 O24'
_cell_volume   1142.51620320
_cell_formula_units_Z   4
loop_
 _symmetry_equiv_pos_site_id
 _symmetry_equiv_pos_as_xyz
  1  'x, y, z'
loop_
 _atom_site_type_symbol
 _atom_site_label
 _atom_site_symmetry_multiplicity
 _atom_site_fract_x
 _atom_site_fract_y
 _atom_site_fract_z
 _atom_site_occupancy
  H  H0  1  0.64055200  0.58128700  0.61413500  1
  H  H1  1  0.35944800  0.41871300  0.38586500  1
  H  H2  1  0.85944800  0.91871300  0.11413500  1
  H  H3  1  0.14055200  0.08128700  0.88586500  1
  H  H4  1  0.01324200  0.49697300  0.05434600  1
  H  H5  1  0.98675800  0.50302700  0.94565400  1
  H  H6  1  0.48675800  0.00302700  0.55434600  1
  H  H7  1  0.51324200  0.99697300  0.44565400  1
  H  H8  1  0.15733300  0.80412300  0.38335400  1
  H  H9  1  0.84266700  0.19587700  0.61664600  1
  H  H10  1  0.34266700  0.69587700  0.88335400  1
  H  H11  1  0.65733300  0.30412300  0.11664600  1
  H  H12  1  0.15468600  0.56546900  0.11801400  1
  H  H13  1  0.84531400  0.43453100  0.88198600  1
  H  H14  1  0.34531400  0.93453100  0.61801400  1
  H  H15  1  0.65468600  0.06546900  0.38198600  1
  H  H16  1  0.98486100  0.74707300  0.61609800  1
  H  H17  1  0.01513900  0.25292700  0.38390200  1
  H  H18  1  0.51513900  0.75292700  0.11609800  1
  H  H19  1  0.48486100  0.24707300  0.88390200  1
  H  H20  1  0.89781300  0.65138600  0.38219500  1
  H  H21  1  0.10218700  0.34861400  0.61780500  1
  H  H22  1  0.60218700  0.84861400  0.88219500  1
  H  H23  1  0.39781300  0.15138600  0.11780500  1
  H  H24  1  0.50664400  0.50284200  0.55028900  1
  H  H25  1  0.49335600  0.49715800  0.44971100  1
  H  H26  1  0.99335600  0.99715800  0.05028900  1
  H  H27  1  0.00664400  0.00284200  0.94971100  1
  C  C0  1  0.01138400  0.74347400  0.46055500  1
  C  C1  1  0.98861600  0.25652600  0.53944500  1
  C  C2  1  0.48861600  0.75652600  0.96055500  1
  C  C3  1  0.51138400  0.24347400  0.03944500  1
  C  C4  1  0.81917800  0.65717300  0.54184100  1
  C  C5  1  0.18082200  0.34282700  0.45815900  1
  C  C6  1  0.68082200  0.84282700  0.04184100  1
  C  C7  1  0.31917800  0.15717300  0.95815900  1
  C  C8  1  0.18021500  0.84312400  0.54420000  1
  C  C9  1  0.81978500  0.15687600  0.45580000  1
  C  C10  1  0.31978500  0.65687600  0.04420000  1
  C  C11  1  0.68021500  0.34312400  0.95580000  1
  C  C12  1  0.68112900  0.62470400  0.26279600  1
  C  C13  1  0.31887100  0.37529600  0.73720400  1
  C  C14  1  0.81887100  0.87529600  0.76279600  1
  C  C15  1  0.18112900  0.12470400  0.23720400  1
  N  N0  1  0.99771400  0.74855000  0.57238100  1
  N  N1  1  0.00228600  0.25145000  0.42761900  1
  N  N2  1  0.50228600  0.75145000  0.07238100  1
  N  N3  1  0.49771400  0.24855000  0.92761900  1
  N  N4  1  0.70264500  0.66215700  0.20506900  1
  N  N5  1  0.29735500  0.33784300  0.79493100  1
  N  N6  1  0.79735500  0.83784300  0.70506900  1
  N  N7  1  0.20264500  0.16215700  0.29493100  1
  N  N8  1  0.34914700  0.93323000  0.57494700  1
  N  N9  1  0.65085300  0.06677000  0.42505300  1
  N  N10  1  0.15085300  0.56677000  0.07494700  1
  N  N11  1  0.84914700  0.43323000  0.92505300  1
  N  N12  1  0.18968900  0.84504300  0.48777000  1
  N  N13  1  0.81031100  0.15495700  0.51223000  1
  N  N14  1  0.31031100  0.65495700  0.98777000  1
  N  N15  1  0.68968900  0.34504300  0.01223000  1
  N  N16  1  0.64193300  0.57530700  0.57103000  1
  N  N17  1  0.35806700  0.42469300  0.42897000  1
  N  N18  1  0.85806700  0.92469300  0.07103000  1
  N  N19  1  0.14193300  0.07530700  0.92897000  1
  N  N20  1  0.19651400  0.96321100  0.21465500  1
  N  N21  1  0.80348600  0.03678900  0.78534500  1
  N  N22  1  0.30348600  0.53678900  0.71465500  1
  N  N23  1  0.69651400  0.46321100  0.28534500  1
  N  N24  1  0.82294500  0.64972000  0.48554200  1
  N  N25  1  0.17705500  0.35028000  0.51445800  1
  N  N26  1  0.67705500  0.85028000  0.98554200  1
  N  N27  1  0.32294500  0.14972000  0.01445800  1
  N  N28  1  0.02166700  0.73518400  0.40414800  1
  N  N29  1  0.97833300  0.26481600  0.59585200  1
  N  N30  1  0.47833300  0.76481600  0.90414800  1
  N  N31  1  0.52166700  0.23518400  0.09585200  1
  N  N32  1  0.86257100  0.74840600  0.80222100  1
  N  N33  1  0.13742900  0.25159400  0.19777900  1
  N  N34  1  0.63742900  0.75159400  0.30222100  1
  N  N35  1  0.36257100  0.24840600  0.69777900  1
  O  O0  1  0.23051400  0.95968600  0.16171000  1
  O  O1  1  0.76948600  0.04031400  0.83829000  1
  O  O2  1  0.26948600  0.54031400  0.66171000  1
  O  O3  1  0.73051400  0.45968600  0.33829000  1
  O  O4  1  0.00116600  0.80485200  0.84003600  1
  O  O5  1  0.99883400  0.19514800  0.15996400  1
  O  O6  1  0.49883400  0.69514800  0.34003600  1
  O  O7  1  0.50116600  0.30485200  0.65996400  1
  O  O8  1  0.74087200  0.90800900  0.29776200  1
  O  O9  1  0.25912800  0.09199100  0.70223800  1
  O  O10  1  0.75912800  0.59199100  0.79776200  1
  O  O11  1  0.24087200  0.40800900  0.20223800  1
  O  O12  1  0.17660100  0.83258700  0.24521900  1
  O  O13  1  0.82339900  0.16741300  0.75478100  1
  O  O14  1  0.32339900  0.66741300  0.74521900  1
  O  O15  1  0.67660100  0.33258700  0.25478100  1
  O  O16  1  0.76961000  0.56472900  0.17195900  1
  O  O17  1  0.23039000  0.43527100  0.82804100  1
  O  O18  1  0.73039000  0.93527100  0.67195900  1
  O  O19  1  0.26961000  0.06472900  0.32804100  1
  O  O20  1  0.84966300  0.70225700  0.68784600  1
  O  O21  1  0.15033700  0.29774300  0.31215400  1
  O  O22  1  0.65033700  0.79774300  0.18784600  1
  O  O23  1  0.34966300  0.20225700  0.81215400  1
loop_
_geom_bond_atom_site_label_1
_geom_bond_atom_site_label_2
_geom_bond_distance
_geom_bond_site_symmetry_2
H0 N16 1.017600 1_555
H1 N17 1.017600 1_555
H2 N18 1.017600 1_555
H3 N19 1.017600 1_555
H4 N10 1.022718 1_555
H5 N11 1.022718 1_555
H6 N8 1.022718 1_545
H7 N9 1.022718 1_565
H8 N28 1.014048 1_555
H9 N29 1.014048 1_555
H10 N30 1.014048 1_555
H11 N31 1.014048 1_555
H12 N10 1.015866 1_555
H13 N11 1.015866 1_555
H14 N8 1.015866 1_555
H15 N9 1.015866 1_555
H16 N0 1.033833 1_555
H17 N1 1.033833 1_555
H18 N2 1.033833 1_555
H19 N3 1.033833 1_555
H20 N28 1.022819 1_655
H21 N29 1.022819 1_455
H22 N30 1.022819 1_555
H23 N31 1.022819 1_555
H24 N16 1.020744 1_555
H25 N17 1.020744 1_555
H26 N18 1.020744 1_555
H27 N19 1.020744 1_555
C0 N28 1.334081 1_555
C0 N12 1.360749 1_555
C0 N24 1.361506 1_455
C1 N29 1.334081 1_555
C1 N13 1.360749 1_555
C1 N25 1.361506 1_655
C2 N30 1.334081 1_555
C2 N14 1.360749 1_555
C2 N26 1.361506 1_555
C3 N31 1.334081 1_555
C3 N15 1.360749 1_555
C3 N27 1.361506 1_555
C4 N24 1.329258 1_555
C4 N16 1.330299 1_555
C4 N0 1.373807 1_555
C5 N25 1.329258 1_555
C5 N17 1.330299 1_555
C5 N1 1.373807 1_555
C6 N26 1.329258 1_554
C6 N18 1.330299 1_555
C6 N2 1.373807 1_555
C7 N27 1.329258 1_556
C7 N19 1.330299 1_555
C7 N3 1.373807 1_555
C8 N12 1.331799 1_555
C8 N8 1.332170 1_555
C8 N0 1.371047 1_455
C9 N13 1.331799 1_555
C9 N9 1.332170 1_555
C9 N1 1.371047 1_655
C10 N14 1.331799 1_554
C10 N10 1.332170 1_555
C10 N2 1.371047 1_555
C11 N15 1.331799 1_556
C11 N11 1.332170 1_555
C11 N3 1.371047 1_555
C12 N4 1.391877 1_555
C12 N23 1.411736 1_555
C12 N34 1.449224 1_555
C13 N5 1.391877 1_555
C13 N22 1.411736 1_555
C13 N35 1.449224 1_555
C14 N6 1.391877 1_555
C14 N21 1.411736 1_565
C14 N32 1.449224 1_555
C15 N7 1.391877 1_555
C15 N20 1.411736 1_545
C15 N33 1.449224 1_555
N4 O16 1.249958 1_555
N4 O22 1.272559 1_555
N5 O17 1.249958 1_555
N5 O23 1.272559 1_555
N6 O18 1.249958 1_555
N6 O20 1.272559 1_555
N7 O19 1.249958 1_555
N7 O21 1.272559 1_555
N20 O12 1.238273 1_555
N20 O0 1.268537 1_555
N21 O13 1.238273 1_555
N21 O1 1.268537 1_555
N22 O14 1.238273 1_555
N22 O2 1.268537 1_555
N23 O15 1.238273 1_555
N23 O3 1.268537 1_555
N32 O10 1.239599 1_555
N32 O4 1.248521 1_655
N33 O11 1.239599 1_555
N33 O5 1.248521 1_455
N34 O8 1.239599 1_555
N34 O6 1.248521 1_555
N35 O9 1.239599 1_555
N35 O7 1.248521 1_555
