# generated using pymatgen
data_KMg6BO8
_symmetry_space_group_name_H-M   'P 1'
_cell_length_a   4.48894500
_cell_length_b   4.48894500
_cell_length_c   8.53103000
_cell_angle_alpha   90.00000000
_cell_angle_beta   90.00000000
_cell_angle_gamma   90.00000000
_symmetry_Int_Tables_number   1
_chemical_formula_structural   KMg6BO8
_chemical_formula_sum   'K1 Mg6 B1 O8'
_cell_volume   171.90560527
_cell_formula_units_Z   1
loop_
 _symmetry_equiv_pos_site_id
 _symmetry_equiv_pos_as_xyz
  1  'x, y, z'
loop_
 _atom_site_type_symbol
 _atom_site_label
 _atom_site_symmetry_multiplicity
 _atom_site_fract_x
 _atom_site_fract_y
 _atom_site_fract_z
 _atom_site_occupancy
  K  K0  1  0.00000000  0.00000000  0.00000000  1
  Mg  Mg0  1  0.00000000  0.00000000  0.50000000  1
  Mg  Mg1  1  0.50000000  0.50000000  0.50000000  1
  Mg  Mg2  1  0.00000000  0.50000000  0.22958000  1
  Mg  Mg3  1  0.00000000  0.50000000  0.77042000  1
  Mg  Mg4  1  0.50000000  0.00000000  0.22958000  1
  Mg  Mg5  1  0.50000000  0.00000000  0.77042000  1
  B  B0  1  0.50000000  0.50000000  0.00000000  1
  O  O0  1  0.00000000  0.00000000  0.27554800  1
  O  O1  1  0.00000000  0.00000000  0.72445200  1
  O  O2  1  0.50000000  0.50000000  0.17209400  1
  O  O3  1  0.50000000  0.50000000  0.82790600  1
  O  O4  1  0.00000000  0.50000000  0.00000000  1
  O  O5  1  0.00000000  0.50000000  0.50000000  1
  O  O6  1  0.50000000  0.00000000  0.00000000  1
  O  O7  1  0.50000000  0.00000000  0.50000000  1
loop_
_geom_bond_atom_site_label_1
_geom_bond_atom_site_label_2
_geom_bond_distance
_geom_bond_site_symmetry_2
K0 O4 2.244473 1_555
K0 O6 2.244473 1_455
K0 O4 2.244473 1_545
K0 O6 2.244473 1_555
K0 O0 2.350708 1_555
K0 O1 2.350708 1_554
Mg0 O0 1.914807 1_555
Mg0 O1 1.914807 1_555
Mg0 O7 2.244473 1_555
Mg0 O5 2.244473 1_545
Mg0 O5 2.244473 1_555
Mg0 O7 2.244473 1_455
Mg1 O7 2.244473 1_555
Mg1 O7 2.244473 1_565
Mg1 O5 2.244473 1_655
Mg1 O5 2.244473 1_555
Mg2 O4 1.958554 1_555
Mg2 O0 2.278474 1_565
Mg2 O0 2.278474 1_555
Mg2 O2 2.297425 1_455
Mg2 O2 2.297425 1_555
Mg2 O5 2.306961 1_555
Mg3 O4 1.958554 1_556
Mg3 O1 2.278474 1_555
Mg3 O1 2.278474 1_565
Mg3 O3 2.297425 1_555
Mg3 O3 2.297425 1_455
Mg3 O5 2.306961 1_555
Mg4 O6 1.958554 1_555
Mg4 O0 2.278474 1_655
Mg4 O0 2.278474 1_555
Mg4 O2 2.297425 1_555
Mg4 O2 2.297425 1_545
Mg4 O7 2.306961 1_555
Mg5 O6 1.958554 1_556
Mg5 O1 2.278474 1_555
Mg5 O1 2.278474 1_655
Mg5 O3 2.297425 1_555
Mg5 O3 2.297425 1_545
Mg5 O7 2.306961 1_555
B0 O2 1.468139 1_555
B0 O3 1.468139 1_554
