# generated using pymatgen
data_GdInNi4
_symmetry_space_group_name_H-M   'P 1'
_cell_length_a   4.95682625
_cell_length_b   4.95682938
_cell_length_c   4.95676965
_cell_angle_alpha   60.00090278
_cell_angle_beta   60.00085134
_cell_angle_gamma   60.00125731
_symmetry_Int_Tables_number   1
_chemical_formula_structural   GdInNi4
_chemical_formula_sum   'Gd1 In1 Ni4'
_cell_volume   86.11945816
_cell_formula_units_Z   1
loop_
 _symmetry_equiv_pos_site_id
 _symmetry_equiv_pos_as_xyz
  1  'x, y, z'
loop_
 _atom_site_type_symbol
 _atom_site_label
 _atom_site_symmetry_multiplicity
 _atom_site_fract_x
 _atom_site_fract_y
 _atom_site_fract_z
 _atom_site_occupancy
  Gd  Gd0  1  0.25000176  0.25000234  0.24997762  1
  In  In0  1  0.00000028  -0.00000286  0.00001820  1
  Ni  Ni0  1  0.62611081  0.62611284  0.62611294  1
  Ni  Ni1  1  0.62611128  0.62611212  0.12166458  1
  Ni  Ni2  1  0.62611106  0.12166277  0.62611303  1
  Ni  Ni3  1  0.12166382  0.62611179  0.62611264  1
loop_
_geom_bond_atom_site_label_1
_geom_bond_atom_site_label_2
_geom_bond_distance
_geom_bond_site_symmetry_2
Gd0 Ni2 2.908481 1_554
Gd0 Ni3 2.908481 1_554
Gd0 Ni0 2.908535 1_554
Gd0 Ni1 2.908570 1_545
Gd0 Ni1 2.908571 1_455
Gd0 Ni1 2.908598 1_555
Gd0 Ni3 2.908614 1_545
Gd0 Ni2 2.908615 1_455
Gd0 Ni2 2.908637 1_555
Gd0 Ni3 2.908640 1_555
Gd0 Ni0 2.908665 1_545
Gd0 Ni0 2.908669 1_455
Gd0 In0 3.035253 1_555
Gd0 In0 3.035448 1_565
Gd0 In0 3.035459 1_655
Gd0 In0 3.035584 1_556
In0 Ni3 2.903798 1_545
In0 Ni2 2.903802 1_455
In0 Ni0 2.903851 1_445
In0 Ni1 2.903868 1_545
In0 Ni1 2.903885 1_455
In0 Ni2 2.903894 1_554
In0 Ni1 2.903898 1_445
In0 Ni3 2.903909 1_554
In0 Ni3 2.903920 1_544
In0 Ni2 2.903931 1_454
In0 Ni0 2.903941 1_544
In0 Ni0 2.903966 1_454
Ni0 Ni1 2.456335 1_556
Ni0 Ni2 2.456357 1_565
Ni0 Ni3 2.456367 1_655
Ni0 Ni1 2.500435 1_555
Ni0 Ni3 2.500459 1_555
Ni0 Ni2 2.500472 1_555
Ni1 Ni2 2.456381 1_564
Ni1 Ni3 2.456384 1_654
Ni1 Ni3 2.500478 1_555
Ni1 Ni2 2.500486 1_555
Ni2 Ni3 2.456412 1_645
Ni2 Ni3 2.500510 1_555
