# generated using pymatgen
data_NaTh3F13
_symmetry_space_group_name_H-M   'P 1'
_cell_length_a   8.37739758
_cell_length_b   8.37739758
_cell_length_c   16.87622400
_cell_angle_alpha   90.00000000
_cell_angle_beta   90.00000000
_cell_angle_gamma   119.99999668
_symmetry_Int_Tables_number   1
_chemical_formula_structural   NaTh3F13
_chemical_formula_sum   'Na4 Th12 F52'
_cell_volume   1025.70903559
_cell_formula_units_Z   4
loop_
 _symmetry_equiv_pos_site_id
 _symmetry_equiv_pos_as_xyz
  1  'x, y, z'
loop_
 _atom_site_type_symbol
 _atom_site_label
 _atom_site_symmetry_multiplicity
 _atom_site_fract_x
 _atom_site_fract_y
 _atom_site_fract_z
 _atom_site_occupancy
  Na  Na0  1  0.33333300  0.66666700  0.36980200  1
  Na  Na1  1  0.66666700  0.33333300  0.63019800  1
  Na  Na2  1  0.66666700  0.33333300  0.86980200  1
  Na  Na3  1  0.33333300  0.66666700  0.13019800  1
  Th  Th0  1  0.33250800  0.16625400  0.38667600  1
  Th  Th1  1  0.83374600  0.16625400  0.38667600  1
  Th  Th2  1  0.83374600  0.66749200  0.38667600  1
  Th  Th3  1  0.66749200  0.83374600  0.61332400  1
  Th  Th4  1  0.16625400  0.83374600  0.61332400  1
  Th  Th5  1  0.16625400  0.33250800  0.61332400  1
  Th  Th6  1  0.66749200  0.83374600  0.88667600  1
  Th  Th7  1  0.16625400  0.83374600  0.88667600  1
  Th  Th8  1  0.16625400  0.33250800  0.88667600  1
  Th  Th9  1  0.33250800  0.16625400  0.11332400  1
  Th  Th10  1  0.83374600  0.16625400  0.11332400  1
  Th  Th11  1  0.83374600  0.66749200  0.11332400  1
  F  F0  1  0.15714700  0.31429500  0.36077800  1
  F  F1  1  0.68570500  0.84285300  0.36077800  1
  F  F2  1  0.15714700  0.84285300  0.36077800  1
  F  F3  1  0.84285300  0.68570500  0.63922200  1
  F  F4  1  0.31429500  0.15714700  0.63922200  1
  F  F5  1  0.84285300  0.15714700  0.63922200  1
  F  F6  1  0.84285300  0.68570500  0.86077800  1
  F  F7  1  0.31429500  0.15714700  0.86077800  1
  F  F8  1  0.84285300  0.15714700  0.86077800  1
  F  F9  1  0.15714700  0.31429500  0.13922200  1
  F  F10  1  0.68570500  0.84285300  0.13922200  1
  F  F11  1  0.15714700  0.84285300  0.13922200  1
  F  F12  1  0.54088600  0.08177100  0.34053200  1
  F  F13  1  0.91822900  0.45911400  0.34053200  1
  F  F14  1  0.54088600  0.45911400  0.34053200  1
  F  F15  1  0.45911400  0.91822900  0.65946800  1
  F  F16  1  0.08177100  0.54088600  0.65946800  1
  F  F17  1  0.45911400  0.54088600  0.65946800  1
  F  F18  1  0.45911400  0.91822900  0.84053200  1
  F  F19  1  0.08177100  0.54088600  0.84053200  1
  F  F20  1  0.45911400  0.54088600  0.84053200  1
  F  F21  1  0.54088600  0.08177100  0.15946800  1
  F  F22  1  0.91822900  0.45911400  0.15946800  1
  F  F23  1  0.54088600  0.45911400  0.15946800  1
  F  F24  1  0.32693200  0.32693200  0.50000000  1
  F  F25  1  0.67306800  0.00000000  0.50000000  1
  F  F26  1  0.00000000  0.67306800  0.50000000  1
  F  F27  1  0.67306800  0.67306800  0.50000000  1
  F  F28  1  0.00000000  0.32693200  0.50000000  1
  F  F29  1  0.32693200  0.00000000  0.50000000  1
  F  F30  1  0.67306800  0.67306800  0.00000000  1
  F  F31  1  0.32693200  0.00000000  0.00000000  1
  F  F32  1  0.00000000  0.32693200  0.00000000  1
  F  F33  1  0.32693200  0.32693200  0.00000000  1
  F  F34  1  0.00000000  0.67306800  0.00000000  1
  F  F35  1  0.67306800  0.00000000  0.00000000  1
  F  F36  1  0.27618000  0.13809000  0.25000000  1
  F  F37  1  0.86191000  0.13809000  0.25000000  1
  F  F38  1  0.86191000  0.72382000  0.25000000  1
  F  F39  1  0.72382000  0.86191000  0.75000000  1
  F  F40  1  0.13809000  0.86191000  0.75000000  1
  F  F41  1  0.13809000  0.27618000  0.75000000  1
  F  F42  1  0.00000000  0.00000000  0.42165700  1
  F  F43  1  0.00000000  0.00000000  0.57834300  1
  F  F44  1  0.00000000  0.00000000  0.92165700  1
  F  F45  1  0.00000000  0.00000000  0.07834300  1
  F  F46  1  0.66666700  0.33333300  0.44829000  1
  F  F47  1  0.33333300  0.66666700  0.55171000  1
  F  F48  1  0.33333300  0.66666700  0.94829000  1
  F  F49  1  0.66666700  0.33333300  0.05171000  1
  F  F50  1  0.33333300  0.66666700  0.25000000  1
  F  F51  1  0.66666700  0.33333300  0.75000000  1
loop_
_geom_bond_atom_site_label_1
_geom_bond_atom_site_label_2
_geom_bond_distance
_geom_bond_site_symmetry_2
F0 Th1 2.389389 1_455
F0 Th0 2.389396 1_555
F0 Na0 2.561005 1_555
F1 Th1 2.389389 1_565
F1 Th2 2.389396 1_555
F1 Na0 2.561005 1_555
F2 Th0 2.389389 1_565
F2 Th2 2.389389 1_455
F2 Na0 2.561005 1_555
F3 Th4 2.389389 1_655
F3 Th3 2.389396 1_555
F3 Na1 2.561005 1_555
F4 Th4 2.389389 1_545
F4 Th5 2.389396 1_555
F4 Na1 2.561005 1_555
F5 Th5 2.389389 1_655
F5 Th3 2.389389 1_545
F5 Na1 2.561005 1_555
F6 Th7 2.389389 1_655
F6 Th6 2.389396 1_555
F6 Na2 2.561005 1_555
F7 Th7 2.389389 1_545
F7 Th8 2.389396 1_555
F7 Na2 2.561005 1_555
F8 Th8 2.389389 1_655
F8 Th6 2.389389 1_545
F8 Na2 2.561005 1_555
F9 Th10 2.389389 1_455
F9 Th9 2.389396 1_555
F9 Na3 2.561005 1_555
F10 Th10 2.389389 1_565
F10 Th11 2.389396 1_555
F10 Na3 2.561005 1_555
F11 Th9 2.389389 1_565
F11 Th11 2.389389 1_455
F11 Na3 2.561005 1_555
F12 Th1 2.321668 1_555
F12 Th0 2.321675 1_555
F13 Th1 2.321668 1_555
F13 Th2 2.321675 1_555
F14 Th0 2.321670 1_555
F14 Th2 2.321670 1_555
F15 Th4 2.321668 1_555
F15 Th3 2.321675 1_555
F16 Th4 2.321668 1_555
F16 Th5 2.321675 1_555
F17 Th5 2.321670 1_555
F17 Th3 2.321670 1_555
F18 Th7 2.321668 1_555
F18 Th6 2.321675 1_555
F19 Th7 2.321668 1_555
F19 Th8 2.321675 1_555
F20 Th8 2.321670 1_555
F20 Th6 2.321670 1_555
F21 Th10 2.321668 1_555
F21 Th9 2.321675 1_555
F22 Th10 2.321668 1_555
F22 Th11 2.321675 1_555
F23 Th11 2.321670 1_555
F23 Th9 2.321670 1_555
F24 Th5 2.352558 1_555
F24 Th0 2.352558 1_555
F25 Th3 2.352558 1_545
F25 Th1 2.352558 1_555
F26 Th2 2.352558 1_455
F26 Th4 2.352558 1_555
F27 Th3 2.352558 1_555
F27 Th2 2.352558 1_555
F28 Th5 2.352558 1_555
F28 Th1 2.352558 1_455
F29 Th0 2.352558 1_555
F29 Th4 2.352558 1_545
F30 Th6 2.352558 1_554
F30 Th11 2.352558 1_555
F31 Th9 2.352558 1_555
F31 Th7 2.352558 1_544
F32 Th8 2.352558 1_554
F32 Th10 2.352558 1_455
F33 Th8 2.352558 1_554
F33 Th9 2.352558 1_555
F34 Th11 2.352558 1_455
F34 Th7 2.352558 1_554
F35 Th6 2.352558 1_544
F35 Th10 2.352558 1_555
F36 Th9 2.342497 1_555
F36 Th0 2.342497 1_555
F37 Th10 2.342497 1_555
F37 Th1 2.342497 1_555
F38 Th11 2.342497 1_555
F38 Th2 2.342497 1_555
F39 Th6 2.342497 1_555
F39 Th3 2.342497 1_555
F40 Th4 2.342497 1_555
F40 Th7 2.342497 1_555
F41 Th8 2.342497 1_555
F41 Th5 2.342497 1_555
F42 Th1 2.483543 1_455
F42 Th0 2.483543 1_555
F42 Th2 2.483543 1_445
F43 Th4 2.483543 1_545
F43 Th5 2.483543 1_555
F43 Th3 2.483543 1_445
F44 Th7 2.483543 1_545
F44 Th6 2.483543 1_445
F44 Th8 2.483543 1_555
F45 Th10 2.483543 1_455
F45 Th9 2.483543 1_555
F45 Th11 2.483543 1_445
F46 Th1 2.637912 1_555
F46 Th0 2.637919 1_555
F46 Th2 2.637919 1_555
F47 Th4 2.637912 1_555
F47 Th3 2.637919 1_555
F47 Th5 2.637919 1_555
F48 Th7 2.637912 1_555
F48 Th8 2.637919 1_555
F48 Th6 2.637919 1_555
F49 Th10 2.637912 1_555
F49 Th9 2.637919 1_555
F49 Th11 2.637919 1_555
F50 Na3 2.021805 1_555
F50 Na0 2.021805 1_555
F51 Na1 2.021805 1_555
F51 Na2 2.021805 1_555
