# generated using pymatgen
data_SrCu9Sn4
_symmetry_space_group_name_H-M   'P 1'
_cell_length_a   8.79784516
_cell_length_b   8.79784516
_cell_length_c   8.79784516
_cell_angle_alpha   120.76557414
_cell_angle_beta   120.76557414
_cell_angle_gamma   88.67902377
_symmetry_Int_Tables_number   1
_chemical_formula_structural   SrCu9Sn4
_chemical_formula_sum   'Sr2 Cu18 Sn8'
_cell_volume   475.81040605
_cell_formula_units_Z   2
loop_
 _symmetry_equiv_pos_site_id
 _symmetry_equiv_pos_as_xyz
  1  'x, y, z'
loop_
 _atom_site_type_symbol
 _atom_site_label
 _atom_site_symmetry_multiplicity
 _atom_site_fract_x
 _atom_site_fract_y
 _atom_site_fract_z
 _atom_site_occupancy
  Sr  Sr0  1  0.75000000  0.75000000  0.00000000  1
  Sr  Sr1  1  0.25000000  0.25000000  0.00000000  1
  Cu  Cu0  1  0.43437100  0.93437100  0.71781900  1
  Cu  Cu1  1  0.21655200  0.71655200  0.28218100  1
  Cu  Cu2  1  0.93437100  0.21655200  0.50000000  1
  Cu  Cu3  1  0.71655200  0.43437100  0.50000000  1
  Cu  Cu4  1  0.56562900  0.06562900  0.28218100  1
  Cu  Cu5  1  0.78344800  0.28344800  0.71781900  1
  Cu  Cu6  1  0.06562900  0.78344800  0.50000000  1
  Cu  Cu7  1  0.28344800  0.56562900  0.50000000  1
  Cu  Cu8  1  0.05614500  0.20274400  0.25888900  1
  Cu  Cu9  1  0.94385500  0.79725600  0.74111100  1
  Cu  Cu10  1  0.55614500  0.29725600  0.85340100  1
  Cu  Cu11  1  0.44385500  0.70274400  0.14659900  1
  Cu  Cu12  1  0.79725600  0.05614500  0.85340100  1
  Cu  Cu13  1  0.20274400  0.94385500  0.14659900  1
  Cu  Cu14  1  0.70274400  0.55614500  0.25888900  1
  Cu  Cu15  1  0.29725600  0.44385500  0.74111100  1
  Cu  Cu16  1  0.00000000  0.50000000  0.50000000  1
  Cu  Cu17  1  0.50000000  0.00000000  0.50000000  1
  Sn  Sn0  1  0.05932500  0.55932500  0.86888900  1
  Sn  Sn1  1  0.69043500  0.19043500  0.13111100  1
  Sn  Sn2  1  0.55932500  0.69043500  0.50000000  1
  Sn  Sn3  1  0.19043500  0.05932500  0.50000000  1
  Sn  Sn4  1  0.94067500  0.44067500  0.13111100  1
  Sn  Sn5  1  0.30956500  0.80956500  0.86888900  1
  Sn  Sn6  1  0.44067500  0.30956500  0.50000000  1
  Sn  Sn7  1  0.80956500  0.94067500  0.50000000  1
loop_
_geom_bond_atom_site_label_1
_geom_bond_atom_site_label_2
_geom_bond_distance
_geom_bond_site_symmetry_2
Cu0 Cu17 2.572638 1_565
Cu0 Sn1 2.616278 1_566
Cu0 Cu1 2.678690 1_555
Cu0 Cu7 2.682363 1_555
Cu0 Cu6 2.682363 1_555
Cu0 Sn5 2.686897 1_555
Cu0 Sn3 2.706593 1_565
Cu0 Sn2 2.706593 1_555
Cu0 Cu10 2.778065 1_565
Cu0 Cu12 2.778065 1_565
Cu0 Sr0 3.655767 1_556
Cu0 Sr1 3.655767 1_566
Cu1 Cu17 2.572638 1_565
Cu1 Sn0 2.616281 1_554
Cu1 Cu7 2.682363 1_555
Cu1 Cu6 2.682363 1_555
Cu1 Sn4 2.686909 1_455
Cu1 Sn3 2.706593 1_565
Cu1 Sn2 2.706593 1_555
Cu1 Cu13 2.778065 1_555
Cu1 Cu11 2.778065 1_555
Cu1 Sr0 3.655767 1_455
Cu1 Sr1 3.655767 1_555
Cu2 Sn3 2.616273 1_655
Cu2 Cu3 2.678690 1_555
Cu2 Cu5 2.682363 1_555
Cu2 Cu4 2.682363 1_555
Cu2 Sn7 2.686905 1_545
Cu2 Sn1 2.706586 1_555
Cu2 Sn0 2.706589 1_655
Cu2 Cu8 2.778065 1_655
Cu2 Sr0 3.655767 1_545
Cu2 Sr1 3.655767 1_656
Cu3 Sn2 2.616273 1_555
Cu3 Cu5 2.682363 1_555
Cu3 Cu4 2.682363 1_555
Cu3 Sn6 2.686905 1_555
Cu3 Sn1 2.706586 1_555
Cu3 Sn0 2.706589 1_655
Cu3 Cu9 2.778065 1_555
Cu3 Sr0 3.655767 1_556
Cu3 Sr1 3.655767 1_555
Cu4 Sn5 2.616278 1_544
Cu4 Cu5 2.678690 1_555
Cu4 Sn1 2.686897 1_555
Cu4 Sn6 2.706593 1_555
Cu4 Sn7 2.706593 1_545
Cu4 Sr0 3.655767 1_545
Cu4 Sr1 3.655767 1_555
Cu5 Sn4 2.616281 1_556
Cu5 Sn0 2.686909 1_655
Cu5 Sn6 2.706593 1_555
Cu5 Sn7 2.706593 1_545
Cu5 Sr0 3.655767 1_556
Cu5 Sr1 3.655767 1_656
Cu6 Sn7 2.616273 1_455
Cu6 Cu7 2.678690 1_555
Cu6 Sn3 2.686905 1_565
Cu6 Sn5 2.706586 1_555
Cu6 Sn4 2.706589 1_455
Cu6 Cu9 2.778065 1_455
Cu6 Sr1 3.655767 1_566
Cu6 Sr0 3.655767 1_455
Cu7 Sn6 2.616273 1_555
Cu7 Sn2 2.686905 1_555
Cu7 Sn5 2.706586 1_555
Cu7 Sn4 2.706589 1_455
Cu7 Cu8 2.778065 1_555
Cu7 Sr1 3.655767 1_555
Cu7 Sr0 3.655767 1_556
Cu8 Sn6 2.755582 1_555
Cu8 Sn3 2.755582 1_555
Cu8 Sn4 2.796186 1_455
Cu8 Sn1 2.796193 1_455
Cu8 Sr0 3.639361 1_445
Cu8 Sr1 3.639361 1_555
Cu9 Sn7 2.755582 1_555
Cu9 Sn2 2.755582 1_555
Cu9 Sn0 2.796186 1_655
Cu9 Sn5 2.796193 1_655
Cu9 Sr1 3.639361 1_666
Cu9 Sr0 3.639361 1_556
Cu10 Cu14 2.587138 1_556
Cu10 Cu15 2.587138 1_555
Cu10 Cu17 2.630595 1_555
Cu10 Sn4 2.755583 1_556
Cu10 Sn1 2.755590 1_556
Cu10 Cu5 2.778065 1_555
Cu10 Sn3 2.796191 1_555
Cu10 Sn6 2.796191 1_555
Cu10 Cu12 2.965130 1_555
Cu10 Sr1 3.639361 1_556
Cu10 Sr0 3.639361 1_556
Cu11 Cu14 2.587138 1_555
Cu11 Cu15 2.587138 1_554
Cu11 Cu17 2.630595 1_565
Cu11 Sn0 2.755583 1_554
Cu11 Sn5 2.755590 1_554
Cu11 Cu4 2.778065 1_565
Cu11 Sn2 2.796191 1_555
Cu11 Sn7 2.796191 1_555
Cu11 Cu13 2.965130 1_555
Cu11 Sr1 3.639361 1_555
Cu11 Sr0 3.639361 1_555
Cu12 Cu9 2.587138 1_545
Cu12 Cu8 2.587138 1_656
Cu12 Cu17 2.630595 1_555
Cu12 Sn4 2.755583 1_556
Cu12 Sn1 2.755590 1_556
Cu12 Cu5 2.778065 1_555
Cu12 Sn7 2.796191 1_545
Cu12 Sn2 2.796191 1_545
Cu12 Sr1 3.639361 1_656
Cu12 Sr0 3.639361 1_546
Cu13 Cu8 2.587138 1_565
Cu13 Cu9 2.587138 1_454
Cu13 Cu17 2.630595 1_565
Cu13 Sn0 2.755583 1_554
Cu13 Sn5 2.755590 1_554
Cu13 Cu4 2.778065 1_565
Cu13 Sn3 2.796191 1_565
Cu13 Sn6 2.796191 1_565
Cu13 Sr0 3.639361 1_455
Cu13 Sr1 3.639361 1_565
Cu14 Cu16 2.630595 1_655
Cu14 Sn7 2.755582 1_555
Cu14 Sn2 2.755582 1_555
Cu14 Cu6 2.778065 1_655
Cu14 Cu3 2.778065 1_555
Cu14 Sn4 2.796186 1_555
Cu14 Sn1 2.796193 1_555
Cu14 Cu9 2.965130 1_555
Cu14 Sr1 3.639361 1_555
Cu14 Sr0 3.639361 1_555
Cu15 Cu16 2.630595 1_555
Cu15 Sn6 2.755582 1_555
Cu15 Sn3 2.755582 1_555
Cu15 Cu2 2.778065 1_455
Cu15 Cu7 2.778065 1_555
Cu15 Sn0 2.796186 1_555
Cu15 Sn5 2.796193 1_555
Cu15 Cu8 2.965130 1_555
Cu15 Sr1 3.639361 1_556
Cu15 Sr0 3.639361 1_556
Cu16 Cu6 2.572638 1_555
Cu16 Cu7 2.572638 1_555
Cu16 Cu2 2.572638 1_455
Cu16 Cu3 2.572638 1_455
Cu16 Cu9 2.630595 1_455
Cu16 Cu8 2.630595 1_555
Cu16 Sn0 2.761214 1_555
Cu16 Sn4 2.761214 1_455
Cu16 Sn5 2.761222 1_555
Cu16 Sn1 2.761222 1_455
Cu17 Cu5 2.572638 1_555
Cu17 Cu4 2.572638 1_555
Cu17 Sn3 2.761223 1_555
Cu17 Sn2 2.761223 1_545
Cu17 Sn6 2.761223 1_555
Cu17 Sn7 2.761223 1_545
Sn0 Sr0 3.545701 1_456
Sn0 Sr1 3.545701 1_556
Sn1 Sr1 3.545696 1_555
Sn1 Sr0 3.545696 1_545
Sn2 Sr1 3.545697 1_555
Sn2 Sr0 3.545697 1_556
Sn3 Sr0 3.545697 1_445
Sn3 Sr1 3.545697 1_556
Sn4 Sr0 3.545701 1_555
Sn4 Sr1 3.545701 1_655
Sn5 Sr1 3.545696 1_566
Sn5 Sr0 3.545696 1_556
Sn6 Sr1 3.545697 1_555
Sn6 Sr0 3.545697 1_556
Sn7 Sr1 3.545697 1_666
Sn7 Sr0 3.545697 1_555
