# generated using pymatgen
data_Li2MnPCO7
_symmetry_space_group_name_H-M   'P 1'
_cell_length_a   5.02914800
_cell_length_b   8.42840826
_cell_length_c   13.06263465
_cell_angle_alpha   90.30566135
_cell_angle_beta   90.02648847
_cell_angle_gamma   94.19336493
_symmetry_Int_Tables_number   1
_chemical_formula_structural   Li2MnPCO7
_chemical_formula_sum   'Li8 Mn4 P4 C4 O28'
_cell_volume   552.20487396
_cell_formula_units_Z   4
loop_
 _symmetry_equiv_pos_site_id
 _symmetry_equiv_pos_as_xyz
  1  'x, y, z'
loop_
 _atom_site_type_symbol
 _atom_site_label
 _atom_site_symmetry_multiplicity
 _atom_site_fract_x
 _atom_site_fract_y
 _atom_site_fract_z
 _atom_site_occupancy
  Li  Li0  1  0.26412700  0.73202100  0.01832400  1
  Li  Li1  1  0.27394300  0.74657500  0.73504100  1
  Li  Li2  1  0.23609600  0.74388000  0.24147700  1
  Li  Li3  1  0.24356200  0.75254900  0.51168500  1
  Li  Li4  1  0.75696800  0.23540000  0.24834200  1
  Li  Li5  1  0.75247200  0.24606800  0.49389000  1
  Li  Li6  1  0.74744600  0.26574100  0.76886600  1
  Li  Li7  1  0.22016000  0.10574200  0.88311000  1
  Mn  Mn0  1  0.78602000  0.65934900  0.37646100  1
  Mn  Mn1  1  0.81434400  0.65826900  0.87521200  1
  Mn  Mn2  1  0.20286900  0.33296200  0.12297500  1
  Mn  Mn3  1  0.19566500  0.34080800  0.62621800  1
  P  P0  1  0.73474900  0.57960500  0.12249800  1
  P  P1  1  0.73950300  0.58895700  0.63117900  1
  P  P2  1  0.26359600  0.42158600  0.37653600  1
  P  P3  1  0.28718300  0.41289400  0.87111000  1
  C  C0  1  0.71890900  0.94474100  0.37660300  1
  C  C1  1  0.70347900  0.95116000  0.86605800  1
  C  C2  1  0.26669800  0.05147300  0.62003300  1
  C  C3  1  0.27488500  0.04860200  0.13376900  1
  O  O0  1  0.95427200  0.93159200  0.87322900  1
  O  O1  1  0.95119100  0.88330800  0.37570700  1
  O  O2  1  0.32064600  0.90352900  0.13034200  1
  O  O3  1  0.33653200  0.91067400  0.62259100  1
  O  O4  1  0.51980200  0.83315300  0.37881200  1
  O  O5  1  0.54008000  0.81774100  0.87266200  1
  O  O6  1  0.84792400  0.67683500  0.53614900  1
  O  O7  1  0.84214600  0.67130400  0.02580600  1
  O  O8  1  0.83148900  0.68003600  0.21528700  1
  O  O9  1  0.86262800  0.68198000  0.72526700  1
  O  O10  1  0.16465100  0.59329200  0.37379900  1
  O  O11  1  0.17283300  0.57991200  0.87848600  1
  O  O12  1  0.42929800  0.57378100  0.63463300  1
  O  O13  1  0.42142600  0.55814700  0.11960600  1
  O  O14  1  0.58861900  0.44218900  0.85141900  1
  O  O15  1  0.57770800  0.44566200  0.37913300  1
  O  O16  1  0.84110500  0.41161500  0.12647300  1
  O  O17  1  0.83172300  0.41449200  0.63168400  1
  O  O18  1  0.15726500  0.33406900  0.47320700  1
  O  O19  1  0.16199400  0.32468500  0.28391800  1
  O  O20  1  0.15703300  0.31106900  0.78127200  1
  O  O21  1  0.22306400  0.30994600  0.96513400  1
  O  O22  1  0.46481200  0.16465300  0.14179800  1
  O  O23  1  0.45430600  0.17520900  0.61864400  1
  O  O24  1  0.68922000  0.09119500  0.37487000  1
  O  O25  1  0.60119500  0.08238300  0.85263500  1
  O  O26  1  0.03861700  0.10204300  0.12602000  1
  O  O27  1  0.02608000  0.09334900  0.62012100  1
loop_
_geom_bond_atom_site_label_1
_geom_bond_atom_site_label_2
_geom_bond_distance
_geom_bond_site_symmetry_2
Li0 O2 2.056316 1_555
Li0 O7 2.148741 1_455
Li0 O13 2.170958 1_555
Li0 O11 2.253716 1_554
Li0 O5 2.436975 1_554
Li1 O3 2.031775 1_555
Li1 O9 2.103801 1_455
Li1 O12 2.144464 1_555
Li1 O5 2.291674 1_555
Li1 O11 2.380604 1_555
Li2 O2 2.009136 1_555
Li2 O8 2.093892 1_455
Li2 O10 2.164468 1_555
Li2 O4 2.376219 1_555
Li2 O13 2.458006 1_555
Li2 O1 2.595184 1_455
Li3 O3 1.995309 1_555
Li3 O6 2.070125 1_455
Li3 O10 2.258100 1_555
Li3 O4 2.298020 1_555
Li3 O12 2.439742 1_555
Li3 O1 2.605200 1_455
Li4 O24 2.070370 1_555
Li4 O22 2.076648 1_555
Li4 O19 2.168546 1_655
Li4 O16 2.202971 1_555
Li4 O26 2.457351 1_655
Li4 O15 2.659888 1_555
Li5 O24 2.034548 1_555
Li5 O18 2.132905 1_655
Li5 O23 2.267723 1_555
Li5 O17 2.302852 1_555
Li5 O15 2.468096 1_555
Li5 O27 2.559047 1_655
Li6 O25 1.994798 1_555
Li6 O14 2.042055 1_555
Li6 O20 2.073461 1_655
Li6 O17 2.215754 1_555
Li6 O23 2.534377 1_555
Li7 O0 1.915717 1_445
Li7 O25 1.981013 1_555
Li7 O21 2.021655 1_555
Li7 O20 2.229315 1_555
Mn0 O1 2.006017 1_555
Mn0 O15 2.016746 1_555
Mn0 O10 2.022877 1_655
Mn0 O4 2.055663 1_555
Mn0 O6 2.111687 1_555
Mn0 O8 2.124559 1_555
Mn1 O11 1.965395 1_655
Mn1 O7 1.973958 1_556
Mn1 O9 1.983138 1_555
Mn1 O5 1.995438 1_555
Mn1 O14 2.096037 1_555
Mn1 O0 2.359320 1_555
Mn2 O16 1.981862 1_455
Mn2 O22 2.021125 1_555
Mn2 O26 2.058562 1_555
Mn2 O21 2.073126 1_554
Mn2 O19 2.113486 1_555
Mn2 O13 2.123239 1_555
Mn3 O17 1.976547 1_455
Mn3 O23 1.978372 1_555
Mn3 O18 2.008048 1_555
Mn3 O20 2.049764 1_555
Mn3 O27 2.195867 1_555
Mn3 O12 2.215515 1_555
C0 O24 1.254486 1_565
C0 O1 1.311979 1_555
C0 O4 1.323124 1_555
C1 O25 1.266404 1_565
C1 O0 1.287349 1_555
C1 O5 1.346554 1_555
C2 O3 1.262581 1_545
C2 O27 1.285062 1_555
C2 O23 1.354432 1_555
C3 O2 1.261200 1_545
C3 O26 1.305242 1_555
C3 O22 1.319947 1_555
O6 P1 1.529121 1_555
O7 P0 1.560244 1_555
O8 P0 1.533170 1_555
O9 P1 1.557782 1_555
O10 P2 1.564979 1_555
O11 P3 1.561604 1_555
O12 P1 1.556647 1_555
O13 P0 1.573312 1_555
O14 P3 1.539992 1_555
O15 P2 1.578235 1_555
O16 P0 1.550821 1_555
O17 P1 1.573925 1_555
O18 P2 1.541928 1_555
O19 P2 1.523050 1_555
O20 P3 1.564774 1_555
O21 P3 1.528450 1_555
