# generated using pymatgen
data_Sm11Hg45
_symmetry_space_group_name_H-M   'P 1'
_cell_length_a   15.69922457
_cell_length_b   15.69922457
_cell_length_c   15.69922457
_cell_angle_alpha   60.00000000
_cell_angle_beta   60.00000000
_cell_angle_gamma   60.00000000
_symmetry_Int_Tables_number   1
_chemical_formula_structural   Sm11Hg45
_chemical_formula_sum   'Sm22 Hg90'
_cell_volume   2736.02214057
_cell_formula_units_Z   2
loop_
 _symmetry_equiv_pos_site_id
 _symmetry_equiv_pos_as_xyz
  1  'x, y, z'
loop_
 _atom_site_type_symbol
 _atom_site_label
 _atom_site_symmetry_multiplicity
 _atom_site_fract_x
 _atom_site_fract_y
 _atom_site_fract_z
 _atom_site_occupancy
  Sm  Sm0  1  -0.00000000  -0.00000000  -0.00000000  1
  Sm  Sm1  1  0.36192399  0.66919640  0.98443981  1
  Sm  Sm2  1  0.36192399  0.98443981  0.98443981  1
  Sm  Sm3  1  0.36192399  0.98443981  0.66919640  1
  Sm  Sm4  1  0.66919640  0.36192399  0.98443981  1
  Sm  Sm5  1  0.98443981  0.36192399  0.66919640  1
  Sm  Sm6  1  0.98443981  0.36192399  0.98443981  1
  Sm  Sm7  1  0.98443981  0.98443981  0.36192399  1
  Sm  Sm8  1  0.98443981  0.66919640  0.36192399  1
  Sm  Sm9  1  0.66919640  0.98443981  0.36192399  1
  Sm  Sm10  1  0.98443981  0.98443981  0.66919640  1
  Sm  Sm11  1  0.66919640  0.98443981  0.98443981  1
  Sm  Sm12  1  0.98443981  0.66919640  0.98443981  1
  Sm  Sm13  1  0.75000000  0.75000000  0.75000000  1
  Sm  Sm14  1  0.21708318  0.59430561  0.59430561  1
  Sm  Sm15  1  0.59430561  0.21708318  0.59430561  1
  Sm  Sm16  1  0.59430561  0.59430561  0.21708318  1
  Sm  Sm17  1  0.59430561  0.59430561  0.59430561  1
  Sm  Sm18  1  0.98733910  0.33755363  0.33755363  1
  Sm  Sm19  1  0.33755363  0.98733910  0.33755363  1
  Sm  Sm20  1  0.33755363  0.33755363  0.98733910  1
  Sm  Sm21  1  0.33755363  0.33755363  0.33755363  1
  Hg  Hg0  1  0.24905861  0.91698046  0.91698046  1
  Hg  Hg1  1  0.91698046  0.24905861  0.91698046  1
  Hg  Hg2  1  0.91698046  0.91698046  0.24905861  1
  Hg  Hg3  1  0.91698046  0.91698046  0.91698046  1
  Hg  Hg4  1  0.74412941  0.08529020  0.08529020  1
  Hg  Hg5  1  0.08529020  0.74412941  0.08529020  1
  Hg  Hg6  1  0.08529020  0.08529020  0.74412941  1
  Hg  Hg7  1  0.08529020  0.08529020  0.08529020  1
  Hg  Hg8  1  0.15250235  0.84749765  0.84749765  1
  Hg  Hg9  1  0.15250235  0.84749765  0.15250235  1
  Hg  Hg10  1  0.15250235  0.15250235  0.84749765  1
  Hg  Hg11  1  0.84749765  0.15250235  0.15250235  1
  Hg  Hg12  1  0.84749765  0.15250235  0.84749765  1
  Hg  Hg13  1  0.84749765  0.84749765  0.15250235  1
  Hg  Hg14  1  0.98379714  0.80047681  0.60786303  1
  Hg  Hg15  1  0.98379714  0.60786303  0.60786303  1
  Hg  Hg16  1  0.98379714  0.60786303  0.80047681  1
  Hg  Hg17  1  0.80047681  0.98379714  0.60786303  1
  Hg  Hg18  1  0.60786303  0.98379714  0.80047681  1
  Hg  Hg19  1  0.60786303  0.98379714  0.60786303  1
  Hg  Hg20  1  0.60786303  0.60786303  0.98379714  1
  Hg  Hg21  1  0.60786303  0.80047681  0.98379714  1
  Hg  Hg22  1  0.80047681  0.60786303  0.98379714  1
  Hg  Hg23  1  0.60786303  0.60786303  0.80047681  1
  Hg  Hg24  1  0.80047681  0.60786303  0.60786303  1
  Hg  Hg25  1  0.60786303  0.80047681  0.60786303  1
  Hg  Hg26  1  0.48537727  0.83820758  0.83820758  1
  Hg  Hg27  1  0.83820758  0.48537727  0.83820758  1
  Hg  Hg28  1  0.83820758  0.83820758  0.48537727  1
  Hg  Hg29  1  0.83820758  0.83820758  0.83820758  1
  Hg  Hg30  1  0.12870226  0.38851242  0.74139266  1
  Hg  Hg31  1  0.12870226  0.74139266  0.74139266  1
  Hg  Hg32  1  0.12870226  0.74139266  0.38851242  1
  Hg  Hg33  1  0.38851242  0.12870226  0.74139266  1
  Hg  Hg34  1  0.74139266  0.12870226  0.38851242  1
  Hg  Hg35  1  0.74139266  0.12870226  0.74139266  1
  Hg  Hg36  1  0.74139266  0.74139266  0.12870226  1
  Hg  Hg37  1  0.74139266  0.38851242  0.12870226  1
  Hg  Hg38  1  0.38851242  0.74139266  0.12870226  1
  Hg  Hg39  1  0.74139266  0.74139266  0.38851242  1
  Hg  Hg40  1  0.38851242  0.74139266  0.74139266  1
  Hg  Hg41  1  0.74139266  0.38851242  0.74139266  1
  Hg  Hg42  1  0.50000000  0.50000000  0.50000000  1
  Hg  Hg43  1  0.73434506  0.55196842  0.35684326  1
  Hg  Hg44  1  0.73434506  0.35684326  0.35684326  1
  Hg  Hg45  1  0.73434506  0.35684326  0.55196842  1
  Hg  Hg46  1  0.55196842  0.73434506  0.35684326  1
  Hg  Hg47  1  0.35684326  0.73434506  0.55196842  1
  Hg  Hg48  1  0.35684326  0.73434506  0.35684326  1
  Hg  Hg49  1  0.35684326  0.35684326  0.73434506  1
  Hg  Hg50  1  0.35684326  0.55196842  0.73434506  1
  Hg  Hg51  1  0.55196842  0.35684326  0.73434506  1
  Hg  Hg52  1  0.35684326  0.35684326  0.55196842  1
  Hg  Hg53  1  0.55196842  0.35684326  0.35684326  1
  Hg  Hg54  1  0.35684326  0.55196842  0.35684326  1
  Hg  Hg55  1  0.86205764  0.16366425  0.48713906  1
  Hg  Hg56  1  0.86205764  0.48713906  0.48713906  1
  Hg  Hg57  1  0.86205764  0.48713906  0.16366425  1
  Hg  Hg58  1  0.16366425  0.86205764  0.48713906  1
  Hg  Hg59  1  0.48713906  0.86205764  0.16366425  1
  Hg  Hg60  1  0.48713906  0.86205764  0.48713906  1
  Hg  Hg61  1  0.48713906  0.48713906  0.86205764  1
  Hg  Hg62  1  0.48713906  0.16366425  0.86205764  1
  Hg  Hg63  1  0.16366425  0.48713906  0.86205764  1
  Hg  Hg64  1  0.48713906  0.48713906  0.16366425  1
  Hg  Hg65  1  0.16366425  0.48713906  0.48713906  1
  Hg  Hg66  1  0.48713906  0.16366425  0.48713906  1
  Hg  Hg67  1  0.25000000  0.25000000  0.25000000  1
  Hg  Hg68  1  0.48133526  0.17288825  0.17288825  1
  Hg  Hg69  1  0.17288825  0.48133526  0.17288825  1
  Hg  Hg70  1  0.17288825  0.17288825  0.48133526  1
  Hg  Hg71  1  0.17288825  0.17288825  0.17288825  1
  Hg  Hg72  1  0.41185066  0.08814934  0.08814934  1
  Hg  Hg73  1  0.41185066  0.08814934  0.41185066  1
  Hg  Hg74  1  0.41185066  0.41185066  0.08814934  1
  Hg  Hg75  1  0.08814934  0.41185066  0.41185066  1
  Hg  Hg76  1  0.08814934  0.41185066  0.08814934  1
  Hg  Hg77  1  0.08814934  0.08814934  0.41185066  1
  Hg  Hg78  1  0.59588087  0.93643668  0.23384122  1
  Hg  Hg79  1  0.59588087  0.23384122  0.23384122  1
  Hg  Hg80  1  0.59588087  0.23384122  0.93643668  1
  Hg  Hg81  1  0.93643668  0.59588087  0.23384122  1
  Hg  Hg82  1  0.23384122  0.59588087  0.93643668  1
  Hg  Hg83  1  0.23384122  0.59588087  0.23384122  1
  Hg  Hg84  1  0.23384122  0.23384122  0.59588087  1
  Hg  Hg85  1  0.23384122  0.93643668  0.59588087  1
  Hg  Hg86  1  0.93643668  0.23384122  0.59588087  1
  Hg  Hg87  1  0.23384122  0.23384122  0.93643668  1
  Hg  Hg88  1  0.93643668  0.23384122  0.23384122  1
  Hg  Hg89  1  0.23384122  0.93643668  0.23384122  1
loop_
_geom_bond_atom_site_label_1
_geom_bond_atom_site_label_2
_geom_bond_distance
_geom_bond_site_symmetry_2
Hg0 Hg8 3.028962 1_555
Hg0 Hg10 3.028962 1_565
Hg0 Hg9 3.028962 1_556
Hg0 Hg26 3.029218 1_555
Hg0 Sm0 3.192524 1_566
Hg0 Sm3 3.202739 1_555
Hg0 Sm1 3.202739 1_555
Hg0 Sm2 3.202739 1_555
Hg1 Hg12 3.028962 1_555
Hg1 Hg11 3.028962 1_556
Hg1 Hg10 3.028962 1_655
Hg1 Hg27 3.029218 1_555
Hg1 Sm0 3.192524 1_656
Hg1 Sm4 3.202739 1_555
Hg1 Sm5 3.202739 1_555
Hg1 Sm6 3.202739 1_555
Hg2 Hg9 3.028962 1_655
Hg2 Hg28 3.029218 1_555
Hg2 Sm0 3.192524 1_665
Hg2 Sm9 3.202739 1_555
Hg2 Sm8 3.202739 1_555
Hg2 Sm7 3.202739 1_555
Hg3 Hg8 3.028962 1_655
Hg3 Sm0 3.192524 1_666
Hg3 Sm12 3.202739 1_555
Hg3 Sm11 3.202739 1_555
Hg3 Sm10 3.202739 1_555
Hg4 Sm0 3.279842 1_655
Hg4 Hg79 3.298142 1_555
Hg4 Hg80 3.298142 1_554
Hg4 Hg78 3.298142 1_545
Hg4 Hg68 3.368591 1_555
Hg4 Sm11 3.553765 1_544
Hg4 Sm4 3.553765 1_554
Hg4 Sm9 3.553765 1_545
Hg5 Hg9 3.065678 1_555
Hg5 Hg8 3.065678 1_554
Hg5 Sm0 3.279842 1_565
Hg5 Hg83 3.298142 1_555
Hg5 Hg82 3.298142 1_554
Hg5 Hg81 3.298142 1_455
Hg5 Hg69 3.368591 1_555
Hg5 Sm12 3.553765 1_454
Hg5 Sm8 3.553765 1_455
Hg5 Sm1 3.553765 1_554
Hg6 Hg8 3.065678 1_545
Hg6 Sm0 3.279842 1_556
Hg6 Hg84 3.298142 1_555
Hg6 Hg86 3.298142 1_455
Hg6 Hg85 3.298142 1_545
Hg6 Hg70 3.368591 1_555
Hg6 Sm10 3.553765 1_445
Hg6 Sm3 3.553765 1_545
Hg6 Sm5 3.553765 1_455
Hg7 Hg9 3.065678 1_545
Hg7 Sm0 3.279842 1_555
Hg7 Hg87 3.298142 1_554
Hg7 Hg89 3.298142 1_545
Hg7 Hg88 3.298142 1_455
Hg7 Hg71 3.368591 1_555
Hg7 Sm7 3.553765 1_445
Hg7 Sm2 3.553765 1_544
Hg7 Sm6 3.553765 1_454
Hg8 Hg82 3.226051 1_555
Hg8 Hg85 3.226051 1_555
Hg8 Sm0 3.385866 1_566
Hg9 Sm0 3.385866 1_565
Hg10 Hg6 3.065678 1_555
Hg10 Hg7 3.065678 1_556
Hg10 Hg33 3.115885 1_555
Hg10 Hg30 3.115885 1_555
Hg10 Hg87 3.226051 1_555
Hg10 Hg84 3.226051 1_555
Hg10 Sm0 3.385866 1_556
Hg11 Hg2 3.028962 1_545
Hg11 Hg4 3.065678 1_555
Hg11 Hg7 3.065678 1_655
Hg11 Hg37 3.115885 1_555
Hg11 Hg34 3.115885 1_555
Hg11 Hg88 3.226051 1_555
Hg11 Hg79 3.226051 1_555
Hg11 Sm0 3.385866 1_655
Hg12 Hg3 3.028962 1_545
Hg12 Hg4 3.065678 1_556
Hg12 Hg6 3.065678 1_655
Hg12 Hg35 3.115885 1_555
Hg12 Hg41 3.115885 1_555
Hg12 Hg80 3.226051 1_555
Hg12 Hg86 3.226051 1_555
Hg12 Sm0 3.385866 1_656
Hg13 Hg2 3.028962 1_555
Hg13 Hg3 3.028962 1_554
Hg13 Hg4 3.065678 1_565
Hg13 Hg5 3.065678 1_655
Hg13 Hg36 3.115885 1_555
Hg13 Hg39 3.115885 1_555
Hg13 Hg81 3.226051 1_555
Hg13 Hg78 3.226051 1_555
Hg13 Sm0 3.385866 1_665
Hg14 Hg58 2.836588 1_655
Hg14 Hg17 2.877987 1_555
Hg14 Hg16 3.023887 1_555
Hg14 Hg15 3.023887 1_555
Hg14 Hg31 3.338315 1_655
Hg14 Hg32 3.338315 1_655
Hg14 Hg28 3.342890 1_555
Hg14 Hg29 3.342890 1_555
Hg14 Sm14 3.462676 1_655
Hg14 Sm13 3.468336 1_555
Hg14 Sm7 3.476777 1_555
Hg14 Sm10 3.476777 1_555
Hg15 Hg65 2.836588 1_655
Hg15 Hg24 2.877987 1_555
Hg15 Hg16 3.023887 1_555
Hg15 Hg32 3.338315 1_655
Hg15 Hg30 3.338315 1_655
Hg15 Hg27 3.342890 1_555
Hg15 Hg28 3.342890 1_555
Hg15 Sm14 3.462676 1_655
Hg15 Sm13 3.468336 1_555
Hg15 Sm8 3.476777 1_555
Hg15 Sm5 3.476777 1_555
Hg16 Hg63 2.836588 1_655
Hg16 Hg22 2.877987 1_555
Hg16 Hg31 3.338315 1_655
Hg16 Hg30 3.338315 1_655
Hg16 Hg27 3.342890 1_555
Hg16 Hg29 3.342890 1_555
Hg16 Sm14 3.462676 1_655
Hg16 Sm13 3.468336 1_555
Hg16 Sm6 3.476777 1_555
Hg16 Sm12 3.476777 1_555
Hg17 Hg55 2.836588 1_565
Hg17 Hg18 3.023887 1_555
Hg17 Hg19 3.023887 1_555
Hg17 Hg35 3.338315 1_565
Hg17 Hg34 3.338315 1_565
Hg17 Hg28 3.342890 1_555
Hg17 Hg29 3.342890 1_555
Hg17 Sm15 3.462676 1_565
Hg17 Sm13 3.468336 1_555
Hg17 Sm7 3.476777 1_555
Hg17 Sm10 3.476777 1_555
Hg18 Hg62 2.836588 1_565
Hg18 Hg21 2.877987 1_555
Hg18 Hg19 3.023887 1_555
Hg18 Hg35 3.338315 1_565
Hg18 Hg33 3.338315 1_565
Hg18 Hg26 3.342890 1_555
Hg18 Hg29 3.342890 1_555
Hg18 Sm15 3.462676 1_565
Hg18 Sm13 3.468336 1_555
Hg18 Sm2 3.476777 1_555
Hg18 Sm11 3.476777 1_555
Hg19 Hg66 2.836588 1_565
Hg19 Hg25 2.877987 1_555
Hg19 Hg34 3.338315 1_565
Hg19 Hg33 3.338315 1_565
Hg19 Hg26 3.342890 1_555
Hg19 Hg28 3.342890 1_555
Hg19 Sm15 3.462676 1_565
Hg19 Sm13 3.468336 1_555
Hg19 Sm9 3.476777 1_555
Hg19 Sm3 3.476777 1_555
Hg20 Hg64 2.836588 1_556
Hg20 Hg23 2.877987 1_555
Hg20 Hg22 3.023887 1_555
Hg20 Hg21 3.023887 1_555
Hg20 Hg38 3.338315 1_556
Hg20 Hg37 3.338315 1_556
Hg20 Hg27 3.342890 1_555
Hg20 Hg26 3.342890 1_555
Hg20 Sm16 3.462676 1_556
Hg20 Sm13 3.468336 1_555
Hg20 Sm4 3.476777 1_555
Hg20 Sm1 3.476777 1_555
Hg21 Hg59 2.836588 1_556
Hg21 Hg22 3.023887 1_555
Hg21 Hg36 3.338315 1_556
Hg21 Hg38 3.338315 1_556
Hg21 Hg26 3.342890 1_555
Hg21 Hg29 3.342890 1_555
Hg21 Sm16 3.462676 1_556
Hg21 Sm13 3.468336 1_555
Hg21 Sm2 3.476777 1_555
Hg21 Sm11 3.476777 1_555
Hg22 Hg57 2.836588 1_556
Hg22 Hg36 3.338315 1_556
Hg22 Hg37 3.338315 1_556
Hg22 Hg27 3.342890 1_555
Hg22 Hg29 3.342890 1_555
Hg22 Sm16 3.462676 1_556
Hg22 Sm13 3.468336 1_555
Hg22 Sm6 3.476777 1_555
Hg22 Sm12 3.476777 1_555
Hg23 Hg61 2.836588 1_555
Hg23 Hg24 3.023887 1_555
Hg23 Hg25 3.023887 1_555
Hg23 Hg40 3.338315 1_555
Hg23 Hg41 3.338315 1_555
Hg23 Hg26 3.342890 1_555
Hg23 Hg27 3.342890 1_555
Hg23 Sm17 3.462676 1_555
Hg23 Sm13 3.468336 1_555
Hg23 Sm4 3.476777 1_555
Hg23 Sm1 3.476777 1_555
Hg24 Hg56 2.836588 1_555
Hg24 Hg25 3.023887 1_555
Hg24 Hg39 3.338315 1_555
Hg24 Hg41 3.338315 1_555
Hg24 Hg27 3.342890 1_555
Hg24 Hg28 3.342890 1_555
Hg24 Sm17 3.462676 1_555
Hg24 Sm13 3.468336 1_555
Hg24 Sm8 3.476777 1_555
Hg24 Sm5 3.476777 1_555
Hg25 Hg60 2.836588 1_555
Hg25 Hg39 3.338315 1_555
Hg25 Hg40 3.338315 1_555
Hg25 Hg26 3.342890 1_555
Hg25 Hg28 3.342890 1_555
Hg25 Sm17 3.462676 1_555
Hg25 Sm13 3.468336 1_555
Hg25 Sm3 3.476777 1_555
Hg25 Sm9 3.476777 1_555
Hg26 Sm2 3.266292 1_555
Hg26 Sm1 3.266292 1_555
Hg26 Sm3 3.266292 1_555
Hg26 Sm13 3.392030 1_555
Hg27 Sm6 3.266292 1_555
Hg27 Sm4 3.266292 1_555
Hg27 Sm5 3.266292 1_555
Hg27 Sm13 3.392030 1_555
Hg28 Sm7 3.266292 1_555
Hg28 Sm9 3.266292 1_555
Hg28 Sm8 3.266292 1_555
Hg28 Sm13 3.392030 1_555
Hg29 Hg3 3.029218 1_555
Hg29 Sm11 3.266292 1_555
Hg29 Sm12 3.266292 1_555
Hg29 Sm10 3.266292 1_555
Hg29 Sm13 3.392030 1_555
Hg30 Sm5 3.251726 1_455
Hg30 Sm6 3.251726 1_455
Hg30 Hg49 3.311429 1_555
Hg30 Hg52 3.311429 1_555
Hg30 Hg65 3.333165 1_555
Hg30 Hg63 3.333166 1_555
Hg30 Sm14 3.393198 1_555
Hg30 Hg87 3.407007 1_555
Hg30 Hg84 3.407007 1_555
Hg31 Hg8 3.115885 1_555
Hg31 Sm10 3.251726 1_455
Hg31 Sm12 3.251726 1_455
Hg31 Hg50 3.311429 1_555
Hg31 Hg47 3.311429 1_555
Hg31 Hg58 3.333165 1_555
Hg31 Hg63 3.333165 1_555
Hg31 Sm14 3.393198 1_555
Hg31 Hg85 3.407007 1_555
Hg31 Hg82 3.407007 1_555
Hg32 Hg9 3.115885 1_555
Hg32 Sm8 3.251726 1_455
Hg32 Sm7 3.251726 1_455
Hg32 Hg48 3.311429 1_555
Hg32 Hg54 3.311429 1_555
Hg32 Hg65 3.333165 1_555
Hg32 Hg58 3.333166 1_555
Hg32 Sm14 3.393198 1_555
Hg32 Hg89 3.407007 1_555
Hg32 Hg83 3.407007 1_555
Hg33 Sm3 3.251726 1_545
Hg33 Sm2 3.251726 1_545
Hg33 Hg49 3.311429 1_555
Hg33 Hg52 3.311429 1_555
Hg33 Hg66 3.333165 1_555
Hg33 Hg62 3.333166 1_555
Hg33 Sm15 3.393198 1_555
Hg33 Hg87 3.407007 1_555
Hg33 Hg84 3.407007 1_555
Hg34 Sm9 3.251726 1_545
Hg34 Sm7 3.251726 1_545
Hg34 Hg44 3.311429 1_555
Hg34 Hg53 3.311429 1_555
Hg34 Hg66 3.333165 1_555
Hg34 Hg55 3.333166 1_555
Hg34 Sm15 3.393198 1_555
Hg34 Hg88 3.407007 1_555
Hg34 Hg79 3.407007 1_555
Hg35 Sm10 3.251726 1_545
Hg35 Sm11 3.251726 1_545
Hg35 Hg51 3.311429 1_555
Hg35 Hg45 3.311429 1_555
Hg35 Hg62 3.333165 1_555
Hg35 Hg55 3.333165 1_555
Hg35 Sm15 3.393198 1_555
Hg35 Hg86 3.407007 1_555
Hg35 Hg80 3.407007 1_555
Hg36 Sm12 3.251726 1_554
Hg36 Sm11 3.251726 1_554
Hg36 Hg46 3.311429 1_555
Hg36 Hg43 3.311429 1_555
Hg36 Hg57 3.333165 1_555
Hg36 Hg59 3.333165 1_555
Hg36 Sm16 3.393198 1_555
Hg36 Hg81 3.407007 1_555
Hg36 Hg78 3.407007 1_555
Hg37 Sm4 3.251726 1_554
Hg37 Sm6 3.251726 1_554
Hg37 Hg44 3.311429 1_555
Hg37 Hg53 3.311429 1_555
Hg37 Hg64 3.333165 1_555
Hg37 Hg57 3.333166 1_555
Hg37 Sm16 3.393198 1_555
Hg37 Hg88 3.407007 1_555
Hg37 Hg79 3.407007 1_555
Hg38 Hg9 3.115885 1_555
Hg38 Sm1 3.251726 1_554
Hg38 Sm2 3.251726 1_554
Hg38 Hg48 3.311429 1_555
Hg38 Hg54 3.311429 1_555
Hg38 Hg64 3.333165 1_555
Hg38 Hg59 3.333166 1_555
Hg38 Sm16 3.393198 1_555
Hg38 Hg89 3.407007 1_555
Hg38 Hg83 3.407007 1_555
Hg39 Sm8 3.251726 1_555
Hg39 Sm9 3.251726 1_555
Hg39 Hg46 3.311429 1_555
Hg39 Hg43 3.311429 1_555
Hg39 Hg60 3.333165 1_555
Hg39 Hg56 3.333165 1_555
Hg39 Sm17 3.393198 1_555
Hg39 Hg78 3.407007 1_555
Hg39 Hg81 3.407007 1_555
Hg40 Hg8 3.115885 1_555
Hg40 Sm3 3.251726 1_555
Hg40 Sm1 3.251726 1_555
Hg40 Hg50 3.311429 1_555
Hg40 Hg47 3.311429 1_555
Hg40 Hg60 3.333165 1_555
Hg40 Hg61 3.333165 1_555
Hg40 Sm17 3.393198 1_555
Hg40 Hg85 3.407007 1_555
Hg40 Hg82 3.407007 1_555
Hg41 Sm5 3.251726 1_555
Hg41 Sm4 3.251726 1_555
Hg41 Hg51 3.311429 1_555
Hg41 Hg45 3.311429 1_555
Hg41 Hg61 3.333165 1_555
Hg41 Hg56 3.333165 1_555
Hg41 Sm17 3.393198 1_555
Hg41 Hg80 3.407007 1_555
Hg41 Hg86 3.407007 1_555
Hg42 Sm15 3.626531 1_555
Hg42 Sm14 3.626531 1_555
Hg42 Sm16 3.626531 1_555
Hg42 Sm17 3.626531 1_555
Hg43 Hg46 2.863172 1_555
Hg43 Hg81 2.999915 1_555
Hg43 Hg57 3.036257 1_555
Hg43 Hg56 3.036258 1_555
Hg43 Hg44 3.063314 1_555
Hg43 Hg45 3.063314 1_555
Hg43 Sm16 3.463178 1_555
Hg43 Sm17 3.463178 1_555
Hg43 Sm18 3.693889 1_555
Hg44 Hg53 2.863172 1_555
Hg44 Hg88 2.999915 1_555
Hg44 Hg57 3.036258 1_555
Hg44 Hg55 3.036258 1_555
Hg44 Hg45 3.063314 1_555
Hg44 Sm15 3.463178 1_555
Hg44 Sm16 3.463178 1_555
Hg44 Sm18 3.693889 1_555
Hg45 Hg51 2.863172 1_555
Hg45 Hg86 2.999915 1_555
Hg45 Hg55 3.036257 1_555
Hg45 Hg56 3.036258 1_555
Hg45 Sm15 3.463178 1_555
Hg45 Sm17 3.463178 1_555
Hg45 Sm18 3.693889 1_555
Hg46 Hg78 2.999915 1_555
Hg46 Hg59 3.036257 1_555
Hg46 Hg60 3.036258 1_555
Hg46 Hg47 3.063314 1_555
Hg46 Hg48 3.063314 1_555
Hg46 Sm16 3.463178 1_555
Hg46 Sm17 3.463178 1_555
Hg46 Sm19 3.693889 1_555
Hg47 Hg50 2.863172 1_555
Hg47 Hg85 2.999915 1_555
Hg47 Hg58 3.036257 1_555
Hg47 Hg60 3.036258 1_555
Hg47 Hg48 3.063314 1_555
Hg47 Sm14 3.463178 1_555
Hg47 Sm17 3.463178 1_555
Hg47 Sm19 3.693889 1_555
Hg48 Hg54 2.863172 1_555
Hg48 Hg89 2.999915 1_555
Hg48 Hg58 3.036258 1_555
Hg48 Hg59 3.036258 1_555
Hg48 Sm14 3.463178 1_555
Hg48 Sm16 3.463178 1_555
Hg48 Sm19 3.693889 1_555
Hg49 Hg52 2.863172 1_555
Hg49 Hg87 2.999915 1_555
Hg49 Hg62 3.036258 1_555
Hg49 Hg63 3.036258 1_555
Hg49 Hg50 3.063314 1_555
Hg49 Hg51 3.063314 1_555
Hg49 Sm15 3.463178 1_555
Hg49 Sm14 3.463178 1_555
Hg49 Sm20 3.693889 1_555
Hg50 Hg82 2.999915 1_555
Hg50 Hg63 3.036257 1_555
Hg50 Hg61 3.036258 1_555
Hg50 Hg51 3.063314 1_555
Hg50 Sm14 3.463178 1_555
Hg50 Sm17 3.463178 1_555
Hg50 Sm20 3.693889 1_555
Hg51 Hg80 2.999915 1_555
Hg51 Hg62 3.036257 1_555
Hg51 Hg61 3.036258 1_555
Hg51 Sm15 3.463178 1_555
Hg51 Sm17 3.463178 1_555
Hg51 Sm20 3.693889 1_555
Hg52 Hg84 2.999915 1_555
Hg52 Hg66 3.036257 1_555
Hg52 Hg65 3.036257 1_555
Hg52 Hg54 3.063314 1_555
Hg52 Hg53 3.063314 1_555
Hg52 Sm14 3.463178 1_555
Hg52 Sm15 3.463178 1_555
Hg52 Sm21 3.693889 1_555
Hg53 Hg79 2.999915 1_555
Hg53 Hg66 3.036257 1_555
Hg53 Hg64 3.036257 1_555
Hg53 Hg54 3.063314 1_555
Hg53 Sm15 3.463178 1_555
Hg53 Sm16 3.463178 1_555
Hg53 Sm21 3.693889 1_555
Hg54 Hg83 2.999915 1_555
Hg54 Hg65 3.036257 1_555
Hg54 Hg64 3.036257 1_555
Hg54 Sm14 3.463178 1_555
Hg54 Sm16 3.463178 1_555
Hg54 Sm21 3.693889 1_555
Hg55 Hg77 2.898126 1_655
Hg55 Hg86 3.263808 1_555
Hg55 Hg88 3.263809 1_555
Hg55 Sm18 3.342950 1_555
Hg55 Sm10 3.438139 1_545
Hg55 Sm7 3.438139 1_545
Hg55 Sm15 3.466545 1_555
Hg56 Hg75 2.898126 1_655
Hg56 Hg81 3.263809 1_555
Hg56 Hg86 3.263809 1_555
Hg56 Sm18 3.342950 1_555
Hg56 Sm8 3.438139 1_555
Hg56 Sm5 3.438139 1_555
Hg56 Sm17 3.466545 1_555
Hg57 Hg76 2.898126 1_655
Hg57 Hg81 3.263808 1_555
Hg57 Hg88 3.263809 1_555
Hg57 Sm18 3.342950 1_555
Hg57 Sm12 3.438139 1_554
Hg57 Sm6 3.438139 1_554
Hg57 Sm16 3.466545 1_555
Hg58 Hg77 2.898126 1_565
Hg58 Hg85 3.263808 1_555
Hg58 Hg89 3.263809 1_555
Hg58 Sm19 3.342950 1_555
Hg58 Sm10 3.438139 1_455
Hg58 Sm7 3.438139 1_455
Hg58 Sm14 3.466545 1_555
Hg59 Hg72 2.898126 1_565
Hg59 Hg78 3.263808 1_555
Hg59 Hg89 3.263809 1_555
Hg59 Sm19 3.342950 1_555
Hg59 Sm2 3.438139 1_554
Hg59 Sm11 3.438139 1_554
Hg59 Sm16 3.466545 1_555
Hg60 Hg73 2.898126 1_565
Hg60 Hg85 3.263809 1_555
Hg60 Hg78 3.263809 1_555
Hg60 Sm19 3.342950 1_555
Hg60 Sm9 3.438139 1_555
Hg60 Sm3 3.438139 1_555
Hg60 Sm17 3.466545 1_555
Hg61 Hg74 2.898126 1_556
Hg61 Hg82 3.263809 1_555
Hg61 Hg80 3.263809 1_555
Hg61 Sm20 3.342950 1_555
Hg61 Sm1 3.438139 1_555
Hg61 Sm4 3.438139 1_555
Hg61 Sm17 3.466545 1_555
Hg62 Hg72 2.898126 1_556
Hg62 Hg80 3.263808 1_555
Hg62 Hg87 3.263809 1_555
Hg62 Sm20 3.342950 1_555
Hg62 Sm2 3.438139 1_545
Hg62 Sm11 3.438139 1_545
Hg62 Sm15 3.466545 1_555
Hg63 Hg76 2.898126 1_556
Hg63 Hg82 3.263808 1_555
Hg63 Hg87 3.263809 1_555
Hg63 Sm20 3.342950 1_555
Hg63 Sm12 3.438139 1_455
Hg63 Sm6 3.438139 1_455
Hg63 Sm14 3.466545 1_555
Hg64 Hg74 2.898126 1_555
Hg64 Hg83 3.263809 1_555
Hg64 Hg79 3.263809 1_555
Hg64 Sm21 3.342950 1_555
Hg64 Sm4 3.438139 1_554
Hg64 Sm1 3.438139 1_554
Hg64 Sm16 3.466545 1_555
Hg65 Hg75 2.898126 1_555
Hg65 Hg83 3.263809 1_555
Hg65 Hg84 3.263809 1_555
Hg65 Sm21 3.342950 1_555
Hg65 Sm8 3.438139 1_455
Hg65 Sm5 3.438139 1_455
Hg65 Sm14 3.466545 1_555
Hg66 Hg73 2.898126 1_555
Hg66 Hg84 3.263809 1_555
Hg66 Hg79 3.263809 1_555
Hg66 Sm21 3.342950 1_555
Hg66 Sm9 3.438139 1_545
Hg66 Sm3 3.438139 1_545
Hg66 Sm15 3.466545 1_555
Hg67 Hg71 2.965339 1_555
Hg67 Hg69 2.965339 1_555
Hg67 Hg70 2.965339 1_555
Hg67 Hg68 2.965339 1_555
Hg67 Sm21 3.366883 1_555
Hg67 Sm18 3.366883 1_455
Hg67 Sm20 3.366883 1_554
Hg67 Sm19 3.366883 1_545
Hg68 Hg73 3.066226 1_555
Hg68 Hg74 3.066226 1_555
Hg68 Hg72 3.066226 1_555
Hg68 Hg79 3.069601 1_555
Hg68 Hg80 3.069601 1_554
Hg68 Hg78 3.069601 1_545
Hg68 Sm21 3.670582 1_555
Hg68 Sm20 3.670582 1_554
Hg68 Sm19 3.670582 1_545
Hg69 Hg74 3.066226 1_555
Hg69 Hg75 3.066226 1_555
Hg69 Hg76 3.066226 1_555
Hg69 Hg83 3.069601 1_555
Hg69 Hg81 3.069601 1_455
Hg69 Hg82 3.069601 1_554
Hg69 Sm21 3.670582 1_555
Hg69 Sm20 3.670582 1_554
Hg69 Sm18 3.670582 1_455
Hg70 Hg73 3.066226 1_555
Hg70 Hg75 3.066226 1_555
Hg70 Hg77 3.066226 1_555
Hg70 Hg84 3.069601 1_555
Hg70 Hg85 3.069601 1_545
Hg70 Hg86 3.069601 1_455
Hg70 Sm21 3.670582 1_555
Hg70 Sm19 3.670582 1_545
Hg70 Sm18 3.670582 1_455
Hg71 Hg72 3.066226 1_555
Hg71 Hg76 3.066226 1_555
Hg71 Hg77 3.066226 1_555
Hg71 Hg88 3.069601 1_455
Hg71 Hg87 3.069601 1_554
Hg71 Hg89 3.069601 1_545
Hg71 Sm20 3.670582 1_554
Hg71 Sm18 3.670582 1_455
Hg71 Sm19 3.670582 1_545
Hg72 Sm19 3.205974 1_545
Hg72 Sm20 3.205974 1_554
Hg72 Sm2 3.334576 1_544
Hg72 Sm11 3.334577 1_544
Hg73 Sm21 3.205974 1_555
Hg73 Sm19 3.205974 1_545
Hg73 Sm3 3.334577 1_545
Hg73 Sm9 3.334577 1_545
Hg74 Sm21 3.205974 1_555
Hg74 Sm20 3.205974 1_554
Hg74 Sm1 3.334577 1_554
Hg74 Sm4 3.334577 1_554
Hg75 Sm21 3.205974 1_555
Hg75 Sm18 3.205974 1_455
Hg75 Sm8 3.334577 1_455
Hg75 Sm5 3.334577 1_455
Hg76 Sm20 3.205974 1_554
Hg76 Sm18 3.205974 1_455
Hg76 Sm6 3.334576 1_454
Hg76 Sm12 3.334577 1_454
Hg77 Sm18 3.205974 1_455
Hg77 Sm19 3.205974 1_545
Hg77 Sm7 3.334576 1_445
Hg77 Sm10 3.334577 1_445
Hg78 Sm11 3.260864 1_554
Hg78 Sm9 3.260864 1_555
Hg78 Sm19 3.345750 1_555
Hg79 Sm4 3.260864 1_554
Hg79 Sm9 3.260864 1_545
Hg79 Sm21 3.345750 1_555
Hg80 Sm11 3.260864 1_545
Hg80 Sm4 3.260864 1_555
Hg80 Sm20 3.345750 1_555
Hg81 Sm12 3.260864 1_554
Hg81 Sm8 3.260864 1_555
Hg81 Sm18 3.345750 1_555
Hg82 Sm12 3.260864 1_455
Hg82 Sm1 3.260864 1_555
Hg82 Sm20 3.345750 1_555
Hg83 Hg9 3.226051 1_555
Hg83 Sm1 3.260864 1_554
Hg83 Sm8 3.260864 1_455
Hg83 Sm21 3.345750 1_555
Hg84 Sm5 3.260864 1_455
Hg84 Sm3 3.260864 1_545
Hg84 Sm21 3.345750 1_555
Hg85 Sm10 3.260864 1_455
Hg85 Sm3 3.260864 1_555
Hg85 Sm19 3.345750 1_555
Hg86 Sm10 3.260864 1_545
Hg86 Sm5 3.260864 1_555
Hg86 Sm18 3.345750 1_555
Hg87 Sm2 3.260864 1_545
Hg87 Sm6 3.260864 1_455
Hg87 Sm20 3.345750 1_555
Hg88 Sm6 3.260864 1_554
Hg88 Sm7 3.260864 1_545
Hg88 Sm18 3.345750 1_555
Hg89 Hg9 3.226051 1_555
Hg89 Sm7 3.260864 1_455
Hg89 Sm2 3.260864 1_554
Hg89 Sm19 3.345750 1_555
