# generated using pymatgen
data_Hg2GeS6Cl2O21
_symmetry_space_group_name_H-M   'P 1'
_cell_length_a   11.71820100
_cell_length_b   12.52484800
_cell_length_c   17.01738448
_cell_angle_alpha   90.00000000
_cell_angle_beta   127.98238154
_cell_angle_gamma   90.00000000
_symmetry_Int_Tables_number   1
_chemical_formula_structural   Hg2GeS6Cl2O21
_chemical_formula_sum   'Hg8 Ge4 S24 Cl8 O84'
_cell_volume   1968.62350730
_cell_formula_units_Z   4
loop_
 _symmetry_equiv_pos_site_id
 _symmetry_equiv_pos_as_xyz
  1  'x, y, z'
loop_
 _atom_site_type_symbol
 _atom_site_label
 _atom_site_symmetry_multiplicity
 _atom_site_fract_x
 _atom_site_fract_y
 _atom_site_fract_z
 _atom_site_occupancy
  Hg  Hg0  1  0.83682200  0.35023600  0.63239100  1
  Hg  Hg1  1  0.83682200  0.14976400  0.13239100  1
  Hg  Hg2  1  0.16317800  0.64976400  0.36760900  1
  Hg  Hg3  1  0.16317800  0.85023600  0.86760900  1
  Hg  Hg4  1  0.87467400  0.08820400  0.78416000  1
  Hg  Hg5  1  0.87467400  0.41179600  0.28416000  1
  Hg  Hg6  1  0.12532600  0.91179600  0.21584000  1
  Hg  Hg7  1  0.12532600  0.58820400  0.71584000  1
  Ge  Ge0  1  0.71941000  0.55132600  0.86995100  1
  Ge  Ge1  1  0.71941000  0.94867400  0.36995100  1
  Ge  Ge2  1  0.28059000  0.44867400  0.13004900  1
  Ge  Ge3  1  0.28059000  0.05132600  0.63004900  1
  S  S0  1  0.47885700  0.42188200  0.86002700  1
  S  S1  1  0.47885700  0.07811800  0.36002700  1
  S  S2  1  0.52114300  0.57811800  0.13997300  1
  S  S3  1  0.52114300  0.92188200  0.63997300  1
  S  S4  1  0.84645500  0.65258200  0.76655700  1
  S  S5  1  0.84645500  0.84741800  0.26655700  1
  S  S6  1  0.15354500  0.34741800  0.23344300  1
  S  S7  1  0.15354500  0.15258200  0.73344300  1
  S  S8  1  0.72407600  0.30823200  0.89899900  1
  S  S9  1  0.72407600  0.19176800  0.39899900  1
  S  S10  1  0.27592400  0.69176800  0.10100100  1
  S  S11  1  0.27592400  0.80823200  0.60100100  1
  S  S12  1  0.56127500  0.56289300  0.64125500  1
  S  S13  1  0.56127500  0.93710700  0.14125500  1
  S  S14  1  0.43872500  0.43710700  0.35874500  1
  S  S15  1  0.43872500  0.06289300  0.85874500  1
  S  S16  1  0.87244000  0.60133000  0.09515000  1
  S  S17  1  0.87244000  0.89867000  0.59515000  1
  S  S18  1  0.12756000  0.39867000  0.90485000  1
  S  S19  1  0.12756000  0.10133000  0.40485000  1
  S  S20  1  0.74923100  0.77506400  0.95691400  1
  S  S21  1  0.74923100  0.72493600  0.45691400  1
  S  S22  1  0.25076900  0.22493600  0.04308600  1
  S  S23  1  0.25076900  0.27506400  0.54308600  1
  Cl  Cl0  1  0.70957100  0.21728400  0.65961700  1
  Cl  Cl1  1  0.70957100  0.28271600  0.15961700  1
  Cl  Cl2  1  0.29042900  0.78271600  0.34038300  1
  Cl  Cl3  1  0.29042900  0.71728400  0.84038300  1
  Cl  Cl4  1  0.94955500  0.46857600  0.58299800  1
  Cl  Cl5  1  0.94955500  0.03142400  0.08299800  1
  Cl  Cl6  1  0.05044500  0.53142400  0.41700200  1
  Cl  Cl7  1  0.05044500  0.96857600  0.91700200  1
  O  O0  1  0.54778500  0.32619600  0.83138500  1
  O  O1  1  0.54778500  0.17380400  0.33138500  1
  O  O2  1  0.45221500  0.67380400  0.16861500  1
  O  O3  1  0.45221500  0.82619600  0.66861500  1
  O  O4  1  0.34275500  0.44604300  0.76470200  1
  O  O5  1  0.34275500  0.05395700  0.26470200  1
  O  O6  1  0.65724500  0.55395700  0.23529800  1
  O  O7  1  0.65724500  0.94604300  0.73529800  1
  O  O8  1  0.85604600  0.58718700  0.84586900  1
  O  O9  1  0.85604600  0.91281300  0.34586900  1
  O  O10  1  0.14395400  0.41281300  0.15413100  1
  O  O11  1  0.14395400  0.08718700  0.65413100  1
  O  O12  1  0.67289900  0.66788700  0.67894600  1
  O  O13  1  0.67289900  0.83211300  0.17894600  1
  O  O14  1  0.32710100  0.33211300  0.32105400  1
  O  O15  1  0.32710100  0.16788700  0.82105400  1
  O  O16  1  0.77012700  0.40635100  0.87047600  1
  O  O17  1  0.77012700  0.09364900  0.37047600  1
  O  O18  1  0.22987300  0.59364900  0.12952400  1
  O  O19  1  0.22987300  0.90635100  0.62952400  1
  O  O20  1  0.48029000  0.38400900  0.93931200  1
  O  O21  1  0.48029000  0.11599100  0.43931200  1
  O  O22  1  0.51971000  0.61599100  0.06068800  1
  O  O23  1  0.51971000  0.88400900  0.56068800  1
  O  O24  1  0.73746300  0.21392200  0.85796200  1
  O  O25  1  0.73746300  0.28607800  0.35796200  1
  O  O26  1  0.26253700  0.78607800  0.14203800  1
  O  O27  1  0.26253700  0.71392200  0.64203800  1
  O  O28  1  0.78689200  0.30934500  0.00318400  1
  O  O29  1  0.78689200  0.19065500  0.50318400  1
  O  O30  1  0.21310800  0.69065500  0.99681600  1
  O  O31  1  0.21310800  0.80934500  0.49681600  1
  O  O32  1  0.58850700  0.51273700  0.89619400  1
  O  O33  1  0.58850700  0.98726300  0.39619400  1
  O  O34  1  0.41149300  0.48726300  0.10380600  1
  O  O35  1  0.41149300  0.01273700  0.60380600  1
  O  O36  1  0.90453400  0.59146700  0.72647500  1
  O  O37  1  0.90453400  0.90853300  0.22647500  1
  O  O38  1  0.09546600  0.40853300  0.27352500  1
  O  O39  1  0.09546600  0.09146700  0.77352500  1
  O  O40  1  0.89810700  0.76000200  0.79716300  1
  O  O41  1  0.89810700  0.73999800  0.29716300  1
  O  O42  1  0.10189300  0.23999800  0.20283700  1
  O  O43  1  0.10189300  0.26000200  0.70283700  1
  O  O44  1  0.87517500  0.55957600  0.01202000  1
  O  O45  1  0.87517500  0.94042400  0.51202000  1
  O  O46  1  0.12482500  0.44042400  0.98798000  1
  O  O47  1  0.12482500  0.05957600  0.48798000  1
  O  O48  1  0.67329300  0.69767900  0.86797700  1
  O  O49  1  0.67329300  0.80232100  0.36797700  1
  O  O50  1  0.32670700  0.30232100  0.13202300  1
  O  O51  1  0.32670700  0.19767900  0.63202300  1
  O  O52  1  0.56156800  0.54705100  0.73031700  1
  O  O53  1  0.56156800  0.95294900  0.23031700  1
  O  O54  1  0.43843200  0.45294900  0.26968300  1
  O  O55  1  0.43843200  0.04705100  0.76968300  1
  O  O56  1  0.42490000  0.60610000  0.55987700  1
  O  O57  1  0.42490000  0.89390000  0.05987700  1
  O  O58  1  0.57510000  0.39390000  0.44012300  1
  O  O59  1  0.57510000  0.10610000  0.94012300  1
  O  O60  1  0.62514600  0.47565300  0.62656400  1
  O  O61  1  0.62514600  0.02434700  0.12656400  1
  O  O62  1  0.37485400  0.52434700  0.37343600  1
  O  O63  1  0.37485400  0.97565300  0.87343600  1
  O  O64  1  0.75705000  0.69996700  0.04225800  1
  O  O65  1  0.75705000  0.80003300  0.54225800  1
  O  O66  1  0.24295000  0.30003300  0.95774200  1
  O  O67  1  0.24295000  0.19996700  0.45774200  1
  O  O68  1  0.01304500  0.64601900  0.17318100  1
  O  O69  1  0.01304500  0.85398100  0.67318100  1
  O  O70  1  0.98695500  0.35398100  0.82681900  1
  O  O71  1  0.98695500  0.14601900  0.32681900  1
  O  O72  1  0.89580400  0.79779000  0.99626500  1
  O  O73  1  0.89580400  0.70221000  0.49626500  1
  O  O74  1  0.10419600  0.20221000  0.00373500  1
  O  O75  1  0.10419600  0.29779000  0.50373500  1
  O  O76  1  0.81081900  0.52811900  0.12439400  1
  O  O77  1  0.81081900  0.97188100  0.62439400  1
  O  O78  1  0.18918100  0.47188100  0.87560600  1
  O  O79  1  0.18918100  0.02811900  0.37560600  1
  O  O80  1  0.65193700  0.85805800  0.93707100  1
  O  O81  1  0.65193700  0.64194200  0.43707100  1
  O  O82  1  0.34806300  0.14194200  0.06292900  1
  O  O83  1  0.34806300  0.35805800  0.56292900  1
loop_
_geom_bond_atom_site_label_1
_geom_bond_atom_site_label_2
_geom_bond_distance
_geom_bond_site_symmetry_2
Hg0 O70 2.622964 1_555
Hg1 O71 2.622964 1_555
Hg2 O68 2.622964 1_555
Hg3 O69 2.622964 1_555
Ge0 O32 1.905049 1_555
Ge0 O48 1.905491 1_555
Ge0 O16 1.908886 1_555
Ge0 O52 1.913292 1_555
Ge0 O8 1.934148 1_555
Ge0 O44 1.937986 1_556
Ge1 O33 1.905049 1_555
Ge1 O49 1.905491 1_555
Ge1 O17 1.908886 1_565
Ge1 O53 1.913292 1_555
Ge1 O9 1.934148 1_555
Ge1 O45 1.937986 1_555
Ge2 O34 1.905049 1_555
Ge2 O50 1.905491 1_555
Ge2 O18 1.908886 1_555
Ge2 O54 1.913292 1_555
Ge2 O10 1.934148 1_555
Ge2 O46 1.937986 1_554
Ge3 O35 1.905049 1_555
Ge3 O51 1.905491 1_555
Ge3 O19 1.908886 1_545
Ge3 O55 1.913292 1_555
Ge3 O11 1.934148 1_555
Ge3 O47 1.937986 1_555
Cl0 Hg4 2.408679 1_555
Cl0 Hg0 2.462002 1_555
Cl1 Hg5 2.408679 1_555
Cl1 Hg1 2.462002 1_555
Cl2 Hg6 2.408679 1_555
Cl2 Hg2 2.462002 1_555
Cl3 Hg7 2.408679 1_555
Cl3 Hg3 2.462002 1_555
Cl4 Hg7 2.422136 1_655
Cl4 Hg0 2.452591 1_555
Cl5 Hg6 2.422136 1_645
Cl5 Hg1 2.452591 1_555
Cl6 Hg5 2.422136 1_455
Cl6 Hg2 2.452591 1_555
Cl7 Hg4 2.422136 1_465
Cl7 Hg3 2.452591 1_555
O0 S8 1.648173 1_555
O0 S0 1.676551 1_555
O1 S9 1.648173 1_555
O1 S1 1.676551 1_555
O2 S10 1.648173 1_555
O2 S2 1.676551 1_555
O3 S11 1.648173 1_555
O3 S3 1.676551 1_555
O4 S0 1.443008 1_555
O5 S1 1.443008 1_555
O6 S2 1.443008 1_555
O7 S3 1.443008 1_555
O8 S4 1.522640 1_555
O9 S5 1.522640 1_555
O10 S6 1.522640 1_555
O11 S7 1.522640 1_555
O12 S4 1.632072 1_555
O12 S12 1.678993 1_555
O13 S5 1.632072 1_555
O13 S13 1.678993 1_555
O14 S6 1.632072 1_555
O14 S14 1.678993 1_555
O15 S7 1.632072 1_555
O15 S15 1.678993 1_555
O16 S8 1.536053 1_555
O17 S9 1.536053 1_555
O18 S10 1.536053 1_555
O19 S11 1.536053 1_555
O20 S0 1.420497 1_555
O21 S1 1.420497 1_555
O22 S2 1.420497 1_555
O23 S3 1.420497 1_555
O24 S8 1.429128 1_555
O25 S9 1.429128 1_555
O26 S10 1.429128 1_555
O27 S11 1.429128 1_555
O28 S8 1.441903 1_554
O29 S9 1.441903 1_555
O30 S10 1.441903 1_556
O31 S11 1.441903 1_555
O32 S0 1.533403 1_555
O33 S1 1.533403 1_565
O34 S2 1.533403 1_555
O35 S3 1.533403 1_545
O36 S4 1.444209 1_555
O37 S5 1.444209 1_555
O38 S6 1.444209 1_555
O39 S7 1.444209 1_555
O40 S4 1.435185 1_555
O41 S5 1.435185 1_555
O42 S6 1.435185 1_555
O43 S7 1.435185 1_555
O44 S16 1.526948 1_555
O45 S17 1.526948 1_555
O46 S18 1.526948 1_555
O47 S19 1.526948 1_555
O48 S20 1.537597 1_555
O49 S21 1.537597 1_555
O50 S22 1.537597 1_555
O51 S23 1.537597 1_555
O52 S12 1.526443 1_555
O53 S13 1.526443 1_555
O54 S14 1.526443 1_555
O55 S15 1.526443 1_555
O56 S12 1.428472 1_555
O57 S13 1.428472 1_555
O58 S14 1.428472 1_555
O59 S15 1.428472 1_555
O60 S12 1.430704 1_555
O61 S13 1.430704 1_545
O62 S14 1.430704 1_555
O63 S15 1.430704 1_565
O64 S16 1.633015 1_555
O64 S20 1.684804 1_554
O65 S17 1.633015 1_555
O65 S21 1.684804 1_555
O66 S18 1.633015 1_555
O66 S22 1.684804 1_556
O67 S19 1.633015 1_555
O67 S23 1.684804 1_555
O68 S16 1.448571 1_455
O69 S17 1.448571 1_455
O70 S18 1.448571 1_655
O71 S19 1.448571 1_655
O72 S20 1.436603 1_555
O73 S21 1.436603 1_555
O74 S22 1.436603 1_555
O75 S23 1.436603 1_555
O76 S16 1.432545 1_555
O77 S17 1.432545 1_555
O78 S18 1.432545 1_555
O79 S19 1.432545 1_555
O80 S20 1.421462 1_555
O81 S21 1.421462 1_555
O82 S22 1.421462 1_555
O83 S23 1.421462 1_555
