# generated using pymatgen
data_LiMg6Co
_symmetry_space_group_name_H-M   'P 1'
_cell_length_a   4.82348100
_cell_length_b   6.29152800
_cell_length_c   10.38622000
_cell_angle_alpha   90.00000000
_cell_angle_beta   90.00000000
_cell_angle_gamma   90.00000000
_symmetry_Int_Tables_number   1
_chemical_formula_structural   LiMg6Co
_chemical_formula_sum   'Li2 Mg12 Co2'
_cell_volume   315.19130143
_cell_formula_units_Z   2
loop_
 _symmetry_equiv_pos_site_id
 _symmetry_equiv_pos_as_xyz
  1  'x, y, z'
loop_
 _atom_site_type_symbol
 _atom_site_label
 _atom_site_symmetry_multiplicity
 _atom_site_fract_x
 _atom_site_fract_y
 _atom_site_fract_z
 _atom_site_occupancy
  Li  Li0  1  0.50000000  0.50000000  0.83557800  1
  Li  Li1  1  0.50000000  0.00000000  0.33557800  1
  Mg  Mg0  1  0.50000000  0.25072100  0.08506600  1
  Mg  Mg1  1  0.50000000  0.74927900  0.08506600  1
  Mg  Mg2  1  0.00000000  0.23752100  0.90885200  1
  Mg  Mg3  1  0.00000000  0.76247900  0.90885200  1
  Mg  Mg4  1  0.00000000  0.50000000  0.17361400  1
  Mg  Mg5  1  0.00000000  0.50000000  0.66771000  1
  Mg  Mg6  1  0.50000000  0.75072100  0.58506600  1
  Mg  Mg7  1  0.50000000  0.24927900  0.58506600  1
  Mg  Mg8  1  0.00000000  0.73752100  0.40885200  1
  Mg  Mg9  1  0.00000000  0.26247900  0.40885200  1
  Mg  Mg10  1  0.00000000  0.00000000  0.67361400  1
  Mg  Mg11  1  0.00000000  0.00000000  0.16771000  1
  Co  Co0  1  0.50000000  0.50000000  0.33526600  1
  Co  Co1  1  0.50000000  0.00000000  0.83526600  1
loop_
_geom_bond_atom_site_label_1
_geom_bond_atom_site_label_2
_geom_bond_distance
_geom_bond_site_symmetry_2
Li0 Mg5 2.975959 1_555
Li0 Mg5 2.975959 1_655
Li0 Mg3 3.020393 1_555
Li0 Mg3 3.020393 1_655
Li0 Mg2 3.020393 1_655
Li0 Mg2 3.020393 1_555
Li0 Mg1 3.028897 1_556
Li0 Mg0 3.028897 1_556
Li0 Mg6 3.042695 1_555
Li0 Mg7 3.042695 1_555
Li1 Mg11 2.975959 1_655
Li1 Mg11 2.975959 1_555
Li1 Mg9 3.020393 1_555
Li1 Mg9 3.020393 1_655
Li1 Mg8 3.020393 1_545
Li1 Mg8 3.020393 1_645
Li1 Mg7 3.028897 1_555
Li1 Mg6 3.028897 1_545
Li1 Mg0 3.042695 1_555
Li1 Mg1 3.042695 1_545
Mg0 Mg11 3.006912 1_555
Mg0 Mg11 3.006912 1_655
Mg0 Mg4 3.020267 1_555
Mg0 Mg4 3.020267 1_655
Mg0 Mg2 3.028698 1_554
Mg0 Mg2 3.028698 1_654
Mg0 Mg1 3.136692 1_555
Mg0 Mg1 3.154836 1_545
Mg1 Mg11 3.006912 1_565
Mg1 Mg11 3.006912 1_665
Mg1 Mg4 3.020267 1_555
Mg1 Mg4 3.020267 1_655
Mg1 Mg3 3.028698 1_554
Mg1 Mg3 3.028698 1_654
Mg2 Mg3 2.988740 1_545
Mg2 Mg5 2.999982 1_555
Mg2 Mg4 3.207635 1_556
Mg2 Mg3 3.302788 1_555
Mg3 Mg5 2.999982 1_555
Mg3 Mg4 3.207635 1_556
Mg4 Mg8 2.864006 1_555
Mg4 Mg9 2.864006 1_555
Mg5 Mg6 3.006912 1_555
Mg5 Mg7 3.006912 1_455
Mg5 Mg7 3.006912 1_555
Mg5 Mg6 3.006912 1_455
Mg5 Mg8 3.075951 1_555
Mg5 Mg9 3.075951 1_555
Mg6 Mg8 3.028698 1_555
Mg6 Mg8 3.028698 1_655
Mg6 Mg7 3.136692 1_565
Mg6 Mg7 3.154836 1_555
Mg7 Mg9 3.028698 1_555
Mg7 Mg9 3.028698 1_655
Mg8 Mg9 2.988740 1_555
Mg8 Mg9 3.302788 1_565
Mg10 Mg2 2.864006 1_555
Mg10 Mg3 2.864006 1_545
Mg10 Mg7 3.020267 1_555
Mg10 Mg6 3.020267 1_445
Mg10 Mg6 3.020267 1_545
Mg10 Mg7 3.020267 1_455
Mg10 Mg5 3.146362 1_555
Mg10 Mg5 3.146362 1_545
Mg10 Mg9 3.207635 1_555
Mg10 Mg8 3.207635 1_545
Mg11 Mg9 2.999982 1_555
Mg11 Mg8 2.999982 1_545
Mg11 Mg2 3.075951 1_554
Mg11 Mg3 3.075951 1_544
Mg11 Mg4 3.146362 1_555
Mg11 Mg4 3.146362 1_545
Co0 Mg8 2.938326 1_555
Co0 Mg8 2.938326 1_655
Co0 Mg9 2.938326 1_555
Co0 Mg9 2.938326 1_655
Co0 Mg4 2.938601 1_555
Co0 Mg4 2.938601 1_655
Co0 Mg1 3.035226 1_555
Co0 Mg0 3.035226 1_555
Co0 Mg7 3.036373 1_555
Co0 Mg6 3.036373 1_555
Co0 Li1 3.145766 1_565
Co0 Li1 3.145766 1_555
Co1 Mg2 2.938326 1_555
Co1 Mg2 2.938326 1_655
Co1 Mg3 2.938326 1_645
Co1 Mg3 2.938326 1_545
Co1 Mg10 2.938601 1_555
Co1 Mg10 2.938601 1_655
Co1 Mg6 3.035226 1_545
Co1 Mg7 3.035226 1_555
Co1 Mg0 3.036373 1_556
Co1 Mg1 3.036373 1_546
Co1 Li0 3.145766 1_545
Co1 Li0 3.145766 1_555
