# generated using pymatgen
data_RbUAgSe3
_symmetry_space_group_name_H-M   'P 1'
_cell_length_a   8.00599875
_cell_length_b   8.00599875
_cell_length_c   10.92069600
_cell_angle_alpha   90.00000000
_cell_angle_beta   90.00000000
_cell_angle_gamma   149.02361782
_symmetry_Int_Tables_number   1
_chemical_formula_structural   RbUAgSe3
_chemical_formula_sum   'Rb2 U2 Ag2 Se6'
_cell_volume   360.26544709
_cell_formula_units_Z   2
loop_
 _symmetry_equiv_pos_site_id
 _symmetry_equiv_pos_as_xyz
  1  'x, y, z'
loop_
 _atom_site_type_symbol
 _atom_site_label
 _atom_site_symmetry_multiplicity
 _atom_site_fract_x
 _atom_site_fract_y
 _atom_site_fract_z
 _atom_site_occupancy
  Rb  Rb0  1  0.74605700  0.25394300  0.25000000  1
  Rb  Rb1  1  0.25394300  0.74605700  0.75000000  1
  U  U0  1  0.00000000  0.00000000  0.50000000  1
  U  U1  1  0.00000000  0.00000000  0.00000000  1
  Ag  Ag0  1  0.54138700  0.45861300  0.75000000  1
  Ag  Ag1  1  0.45861300  0.54138700  0.25000000  1
  Se  Se0  1  0.62190200  0.37809800  0.53967200  1
  Se  Se1  1  0.37809800  0.62190200  0.46032800  1
  Se  Se2  1  0.37809800  0.62190200  0.03967200  1
  Se  Se3  1  0.93716300  0.06283700  0.75000000  1
  Se  Se4  1  0.06283700  0.93716300  0.25000000  1
  Se  Se5  1  0.62190200  0.37809800  0.96032800  1
loop_
_geom_bond_atom_site_label_1
_geom_bond_atom_site_label_2
_geom_bond_distance
_geom_bond_site_symmetry_2
Rb0 Se4 3.544525 1_545
Rb0 Se4 3.544525 1_655
Rb0 Se0 3.698301 1_555
Rb0 Se5 3.698301 1_554
Rb0 Se2 3.741368 1_655
Rb0 Se1 3.741368 1_655
Rb0 Se1 3.741368 1_545
Rb0 Se2 3.741368 1_545
Rb1 Se3 3.544525 1_565
Rb1 Se3 3.544525 1_455
Rb1 Se2 3.698301 1_556
Rb1 Se1 3.698301 1_555
Rb1 Se5 3.741368 1_455
Rb1 Se0 3.741368 1_455
Rb1 Se0 3.741368 1_565
Rb1 Se5 3.741368 1_565
Ag0 Se5 2.611400 1_555
Ag0 Se0 2.611400 1_555
Ag0 Se3 2.675278 1_455
Ag0 Se3 2.675278 1_565
Ag1 Se2 2.611400 1_555
Ag1 Se1 2.611400 1_555
Ag1 Se4 2.675278 1_545
Ag1 Se4 2.675278 1_655
Se0 U0 2.880384 1_555
Se0 U0 2.880384 1_665
Se1 U0 2.880384 1_555
Se1 U0 2.880384 1_665
Se2 U1 2.880384 1_665
Se2 U1 2.880384 1_555
Se3 U0 2.897238 1_655
Se3 U1 2.897238 1_656
Se4 U0 2.897238 1_565
Se4 U1 2.897238 1_565
Se5 U1 2.880384 1_666
Se5 U1 2.880384 1_556
