# generated using pymatgen
data_HgH12C12S2(NO2)2
_symmetry_space_group_name_H-M   'P 1'
_cell_length_a   15.84217467
_cell_length_b   15.84217467
_cell_length_c   17.97992243
_cell_angle_alpha   116.13909244
_cell_angle_beta   116.13909244
_cell_angle_gamma   90.00000000
_symmetry_Int_Tables_number   1
_chemical_formula_structural   HgH12C12S2(NO2)2
_chemical_formula_sum   'Hg8 H96 C96 S16 N16 O32'
_cell_volume   3529.65429803
_cell_formula_units_Z   8
loop_
 _symmetry_equiv_pos_site_id
 _symmetry_equiv_pos_as_xyz
  1  'x, y, z'
loop_
 _atom_site_type_symbol
 _atom_site_label
 _atom_site_symmetry_multiplicity
 _atom_site_fract_x
 _atom_site_fract_y
 _atom_site_fract_z
 _atom_site_occupancy
  Hg  Hg0  1  0.00000000  -0.00000000  0.50000000  1
  Hg  Hg1  1  0.00000000  0.50000000  0.50000000  1
  Hg  Hg2  1  0.00000000  0.50000000  0.00000000  1
  Hg  Hg3  1  0.50000000  -0.00000000  0.00000000  1
  Hg  Hg4  1  0.50000000  0.50000000  0.50000000  1
  Hg  Hg5  1  0.50000000  -0.00000000  0.50000000  1
  Hg  Hg6  1  0.50000000  0.50000000  0.00000000  1
  Hg  Hg7  1  0.00000000  -0.00000000  0.00000000  1
  H  H0  1  0.78883064  0.19126363  0.62439870  1
  H  H1  1  0.33556805  0.69126363  0.62439870  1
  H  H2  1  0.93313507  0.83556805  0.12439870  1
  H  H3  1  0.69126363  0.33556805  0.12439870  1
  H  H4  1  0.21116936  0.80873637  0.37560130  1
  H  H5  1  0.66443195  0.30873637  0.37560130  1
  H  H6  1  0.06686493  0.16443195  0.87560130  1
  H  H7  1  0.30873637  0.66443195  0.87560130  1
  H  H8  1  0.28883064  0.43313507  0.62439870  1
  H  H9  1  0.83556805  0.93313507  0.62439870  1
  H  H10  1  0.43313507  0.28883064  0.12439870  1
  H  H11  1  0.19126363  0.78883064  0.12439870  1
  H  H12  1  0.71116936  0.56686493  0.37560130  1
  H  H13  1  0.16443195  0.06686493  0.37560130  1
  H  H14  1  0.56686493  0.71116936  0.87560130  1
  H  H15  1  0.80873637  0.21116936  0.87560130  1
  H  H16  1  0.70662788  0.26216381  0.59093699  1
  H  H17  1  0.38430911  0.76216381  0.59093699  1
  H  H18  1  0.82877319  0.88430911  0.09093699  1
  H  H19  1  0.76216381  0.38430911  0.09093699  1
  H  H20  1  0.29337212  0.73783619  0.40906301  1
  H  H21  1  0.61569089  0.23783619  0.40906301  1
  H  H22  1  0.17122681  0.11569089  0.90906301  1
  H  H23  1  0.23783619  0.61569089  0.90906301  1
  H  H24  1  0.20662788  0.32877319  0.59093699  1
  H  H25  1  0.88430911  0.82877319  0.59093699  1
  H  H26  1  0.32877319  0.20662788  0.09093699  1
  H  H27  1  0.26216381  0.70662788  0.09093699  1
  H  H28  1  0.79337212  0.67122681  0.40906301  1
  H  H29  1  0.11569089  0.17122681  0.40906301  1
  H  H30  1  0.67122681  0.79337212  0.90906301  1
  H  H31  1  0.73783619  0.29337212  0.90906301  1
  H  H32  1  0.78043306  0.29753049  0.71329626  1
  H  H33  1  0.43286319  0.79753049  0.71329626  1
  H  H34  1  0.91576576  0.93286319  0.21329626  1
  H  H35  1  0.79753049  0.43286319  0.21329626  1
  H  H36  1  0.21956694  0.70246951  0.28670374  1
  H  H37  1  0.56713681  0.20246951  0.28670374  1
  H  H38  1  0.08423424  0.06713681  0.78670374  1
  H  H39  1  0.20246951  0.56713681  0.78670374  1
  H  H40  1  0.28043306  0.41576576  0.71329626  1
  H  H41  1  0.93286319  0.91576576  0.71329626  1
  H  H42  1  0.41576576  0.28043306  0.21329626  1
  H  H43  1  0.29753049  0.78043306  0.21329626  1
  H  H44  1  0.71956694  0.58423424  0.28670374  1
  H  H45  1  0.06713681  0.08423424  0.28670374  1
  H  H46  1  0.58423424  0.71956694  0.78670374  1
  H  H47  1  0.70246951  0.21956694  0.78670374  1
  H  H48  1  0.90339776  0.45997001  0.67194579  1
  H  H49  1  0.26854803  0.95997001  0.67194579  1
  H  H50  1  0.71197578  0.76854803  0.17194579  1
  H  H51  1  0.95997001  0.26854803  0.17194579  1
  H  H52  1  0.09660224  0.54002999  0.32805421  1
  H  H53  1  0.73145197  0.04002999  0.32805421  1
  H  H54  1  0.28802422  0.23145197  0.82805421  1
  H  H55  1  0.04002999  0.73145197  0.82805421  1
  H  H56  1  0.40339776  0.21197578  0.67194579  1
  H  H57  1  0.76854803  0.71197578  0.67194579  1
  H  H58  1  0.21197578  0.40339776  0.17194579  1
  H  H59  1  0.45997001  0.90339776  0.17194579  1
  H  H60  1  0.59660224  0.78802422  0.32805421  1
  H  H61  1  0.23145197  0.28802422  0.32805421  1
  H  H62  1  0.78802422  0.59660224  0.82805421  1
  H  H63  1  0.54002999  0.09660224  0.82805421  1
  H  H64  1  0.86403805  0.46242992  0.75249406  1
  H  H65  1  0.38845602  0.96242992  0.75249406  1
  H  H66  1  0.79006415  0.88845602  0.25249406  1
  H  H67  1  0.96242992  0.38845602  0.25249406  1
  H  H68  1  0.13596195  0.53757008  0.24750594  1
  H  H69  1  0.61154398  0.03757008  0.24750594  1
  H  H70  1  0.20993585  0.11154398  0.74750594  1
  H  H71  1  0.03757008  0.61154398  0.74750594  1
  H  H72  1  0.36403805  0.29006415  0.75249406  1
  H  H73  1  0.88845602  0.79006415  0.75249406  1
  H  H74  1  0.29006415  0.36403805  0.25249406  1
  H  H75  1  0.46242992  0.86403805  0.25249406  1
  H  H76  1  0.63596195  0.70993585  0.24750594  1
  H  H77  1  0.11154398  0.20993585  0.24750594  1
  H  H78  1  0.70993585  0.63596195  0.74750594  1
  H  H79  1  0.53757008  0.13596195  0.74750594  1
  H  H80  1  0.77652505  0.42684333  0.63286544  1
  H  H81  1  0.35634039  0.92684333  0.63286544  1
  H  H82  1  0.70602211  0.85634039  0.13286544  1
  H  H83  1  0.92684333  0.35634039  0.13286544  1
  H  H84  1  0.22347495  0.57315667  0.36713456  1
  H  H85  1  0.64365961  0.07315667  0.36713456  1
  H  H86  1  0.29397789  0.14365961  0.86713456  1
  H  H87  1  0.07315667  0.64365961  0.86713456  1
  H  H88  1  0.27652505  0.20602211  0.63286544  1
  H  H89  1  0.85634039  0.70602211  0.63286544  1
  H  H90  1  0.20602211  0.27652505  0.13286544  1
  H  H91  1  0.42684333  0.77652505  0.13286544  1
  H  H92  1  0.72347495  0.79397789  0.36713456  1
  H  H93  1  0.14365961  0.29397789  0.36713456  1
  H  H94  1  0.79397789  0.72347495  0.86713456  1
  H  H95  1  0.57315667  0.22347495  0.86713456  1
  C  C0  1  0.94843209  0.19815328  0.60354155  1
  C  C1  1  0.15510947  0.69815328  0.60354155  1
  C  C2  1  0.90538828  0.65510947  0.10354155  1
  C  C3  1  0.69815328  0.15510947  0.10354155  1
  C  C4  1  0.05156791  0.80184672  0.39645845  1
  C  C5  1  0.84489053  0.30184672  0.39645845  1
  C  C6  1  0.09461172  0.34489053  0.89645845  1
  C  C7  1  0.30184672  0.84489053  0.89645845  1
  C  C8  1  0.44843209  0.40538828  0.60354155  1
  C  C9  1  0.65510947  0.90538828  0.60354155  1
  C  C10  1  0.40538828  0.44843209  0.10354155  1
  C  C11  1  0.19815328  0.94843209  0.10354155  1
  C  C12  1  0.55156791  0.59461172  0.39645845  1
  C  C13  1  0.34489053  0.09461172  0.39645845  1
  C  C14  1  0.59461172  0.55156791  0.89645845  1
  C  C15  1  0.80184672  0.05156791  0.89645845  1
  C  C16  1  0.92333085  0.28943551  0.63281361  1
  C  C17  1  0.20948276  0.78943551  0.63281361  1
  C  C18  1  0.84337810  0.70948276  0.13281361  1
  C  C19  1  0.78943551  0.20948276  0.13281361  1
  C  C20  1  0.07666915  0.71056449  0.36718639  1
  C  C21  1  0.79051724  0.21056449  0.36718639  1
  C  C22  1  0.15662190  0.29051724  0.86718639  1
  C  C23  1  0.21056449  0.79051724  0.86718639  1
  C  C24  1  0.42333085  0.34337810  0.63281361  1
  C  C25  1  0.70948276  0.84337810  0.63281361  1
  C  C26  1  0.34337810  0.42333085  0.13281361  1
  C  C27  1  0.28943551  0.92333085  0.13281361  1
  C  C28  1  0.57666915  0.65662190  0.36718639  1
  C  C29  1  0.29051724  0.15662190  0.36718639  1
  C  C30  1  0.65662190  0.57666915  0.86718639  1
  C  C31  1  0.71056449  0.07666915  0.86718639  1
  C  C32  1  0.00819175  0.33506546  0.63464366  1
  C  C33  1  0.12645191  0.83506546  0.63464366  1
  C  C34  1  0.79957820  0.62645191  0.13464366  1
  C  C35  1  0.83506546  0.12645191  0.13464366  1
  C  C36  1  0.99180825  0.66493454  0.36535634  1
  C  C37  1  0.87354809  0.16493454  0.36535634  1
  C  C38  1  0.20042180  0.37354809  0.86535634  1
  C  C39  1  0.16493454  0.87354809  0.86535634  1
  C  C40  1  0.50819175  0.29957820  0.63464366  1
  C  C41  1  0.62645191  0.79957820  0.63464366  1
  C  C42  1  0.29957820  0.50819175  0.13464366  1
  C  C43  1  0.33506546  0.00819175  0.13464366  1
  C  C44  1  0.49180825  0.70042180  0.36535634  1
  C  C45  1  0.37354809  0.20042180  0.36535634  1
  C  C46  1  0.70042180  0.49180825  0.86535634  1
  C  C47  1  0.66493454  0.99180825  0.86535634  1
  C  C48  1  0.03304021  0.23651569  0.60465731  1
  C  C49  1  0.07161710  0.73651569  0.60465731  1
  C  C50  1  0.86814163  0.57161710  0.10465731  1
  C  C51  1  0.73651569  0.07161710  0.10465731  1
  C  C52  1  0.96695979  0.76348431  0.39534269  1
  C  C53  1  0.92838290  0.26348431  0.39534269  1
  C  C54  1  0.13185837  0.42838290  0.89534269  1
  C  C55  1  0.26348431  0.92838290  0.89534269  1
  C  C56  1  0.53304021  0.36814163  0.60465731  1
  C  C57  1  0.57161710  0.86814163  0.60465731  1
  C  C58  1  0.36814163  0.53304021  0.10465731  1
  C  C59  1  0.23651569  0.03304021  0.10465731  1
  C  C60  1  0.46695979  0.63185837  0.39534269  1
  C  C61  1  0.42838290  0.13185837  0.39534269  1
  C  C62  1  0.63185837  0.46695979  0.89534269  1
  C  C63  1  0.76348431  0.96695979  0.89534269  1
  C  C64  1  0.77801909  0.26458405  0.64402982  1
  C  C65  1  0.36601073  0.76458405  0.64402982  1
  C  C66  1  0.87944577  0.86601073  0.14402982  1
  C  C67  1  0.76458405  0.36601073  0.14402982  1
  C  C68  1  0.22198091  0.73541595  0.35597018  1
  C  C69  1  0.63398927  0.23541595  0.35597018  1
  C  C70  1  0.12055423  0.13398927  0.85597018  1
  C  C71  1  0.23541595  0.63398927  0.85597018  1
  C  C72  1  0.27801909  0.37944577  0.64402982  1
  C  C73  1  0.86601073  0.87944577  0.64402982  1
  C  C74  1  0.37944577  0.27801909  0.14402982  1
  C  C75  1  0.26458405  0.77801909  0.14402982  1
  C  C76  1  0.72198091  0.62055423  0.35597018  1
  C  C77  1  0.13398927  0.12055423  0.35597018  1
  C  C78  1  0.62055423  0.72198091  0.85597018  1
  C  C79  1  0.73541595  0.22198091  0.85597018  1
  C  C80  1  0.84979429  0.42475812  0.67856957  1
  C  C81  1  0.32877528  0.92475812  0.67856957  1
  C  C82  1  0.75381145  0.82877528  0.17856957  1
  C  C83  1  0.92475812  0.32877528  0.17856957  1
  C  C84  1  0.15020571  0.57524188  0.32143043  1
  C  C85  1  0.67122472  0.07524188  0.32143043  1
  C  C86  1  0.24618855  0.17122472  0.82143043  1
  C  C87  1  0.07524188  0.67122472  0.82143043  1
  C  C88  1  0.34979429  0.25381145  0.67856957  1
  C  C89  1  0.82877528  0.75381145  0.67856957  1
  C  C90  1  0.25381145  0.34979429  0.17856957  1
  C  C91  1  0.42475812  0.84979429  0.17856957  1
  C  C92  1  0.65020571  0.74618855  0.32143043  1
  C  C93  1  0.17122472  0.24618855  0.32143043  1
  C  C94  1  0.74618855  0.65020571  0.82143043  1
  C  C95  1  0.57524188  0.15020571  0.82143043  1
  S  S0  1  0.90359850  0.08301643  0.57217778  1
  S  S1  1  0.16857928  0.58301643  0.57217778  1
  S  S2  1  0.98916135  0.66857928  0.07217778  1
  S  S3  1  0.58301643  0.16857928  0.07217778  1
  S  S4  1  0.09640150  0.91698357  0.42782222  1
  S  S5  1  0.83142072  0.41698357  0.42782222  1
  S  S6  1  0.01083865  0.33142072  0.92782222  1
  S  S7  1  0.41698357  0.83142072  0.92782222  1
  S  S8  1  0.40359850  0.48916135  0.57217778  1
  S  S9  1  0.66857928  0.98916135  0.57217778  1
  S  S10  1  0.48916135  0.40359850  0.07217778  1
  S  S11  1  0.08301643  0.90359850  0.07217778  1
  S  S12  1  0.59640150  0.51083865  0.42782222  1
  S  S13  1  0.33142072  0.01083865  0.42782222  1
  S  S14  1  0.51083865  0.59640150  0.92782222  1
  S  S15  1  0.91698357  0.09640150  0.92782222  1
  N  N0  1  0.85390910  0.32352143  0.64987097  1
  N  N1  1  0.29596187  0.82352143  0.64987097  1
  N  N2  1  0.82634954  0.79596187  0.14987097  1
  N  N3  1  0.82352143  0.29596187  0.14987097  1
  N  N4  1  0.14609090  0.67647857  0.35012903  1
  N  N5  1  0.70403813  0.17647857  0.35012903  1
  N  N6  1  0.17365046  0.20403813  0.85012903  1
  N  N7  1  0.17647857  0.70403813  0.85012903  1
  N  N8  1  0.35390910  0.32634954  0.64987097  1
  N  N9  1  0.79596187  0.82634954  0.64987097  1
  N  N10  1  0.32634954  0.35390910  0.14987097  1
  N  N11  1  0.32352143  0.85390910  0.14987097  1
  N  N12  1  0.64609090  0.67365046  0.35012903  1
  N  N13  1  0.20403813  0.17365046  0.35012903  1
  N  N14  1  0.67365046  0.64609090  0.85012903  1
  N  N15  1  0.67647857  0.14609090  0.85012903  1
  O  O0  1  0.03919636  0.41562503  0.65092310  1
  O  O1  1  0.11172674  0.91562503  0.65092310  1
  O  O2  1  0.73529807  0.61172674  0.15092310  1
  O  O3  1  0.91562503  0.11172674  0.15092310  1
  O  O4  1  0.96080364  0.58437497  0.34907690  1
  O  O5  1  0.88827326  0.08437497  0.34907690  1
  O  O6  1  0.26470193  0.38827326  0.84907690  1
  O  O7  1  0.08437497  0.88827326  0.84907690  1
  O  O8  1  0.53919636  0.23529807  0.65092310  1
  O  O9  1  0.61172674  0.73529807  0.65092310  1
  O  O10  1  0.23529807  0.53919636  0.15092310  1
  O  O11  1  0.41562503  0.03919636  0.15092310  1
  O  O12  1  0.46080364  0.76470193  0.34907690  1
  O  O13  1  0.38827326  0.26470193  0.34907690  1
  O  O14  1  0.76470193  0.46080364  0.84907690  1
  O  O15  1  0.58437497  0.96080364  0.84907690  1
  O  O16  1  0.09423740  0.19835733  0.58537415  1
  O  O17  1  0.99113675  0.69835733  0.58537415  1
  O  O18  1  0.88701683  0.49113675  0.08537415  1
  O  O19  1  0.69835733  0.99113675  0.08537415  1
  O  O20  1  0.90576260  0.80164267  0.41462585  1
  O  O21  1  0.00886325  0.30164267  0.41462585  1
  O  O22  1  0.11298317  0.50886325  0.91462585  1
  O  O23  1  0.30164267  0.00886325  0.91462585  1
  O  O24  1  0.59423740  0.38701683  0.58537415  1
  O  O25  1  0.49113675  0.88701683  0.58537415  1
  O  O26  1  0.38701683  0.59423740  0.08537415  1
  O  O27  1  0.19835733  0.09423740  0.08537415  1
  O  O28  1  0.40576260  0.61298317  0.41462585  1
  O  O29  1  0.50886325  0.11298317  0.41462585  1
  O  O30  1  0.61298317  0.40576260  0.91462585  1
  O  O31  1  0.80164267  0.90576260  0.91462585  1
loop_
_geom_bond_atom_site_label_1
_geom_bond_atom_site_label_2
_geom_bond_distance
_geom_bond_site_symmetry_2
Hg0 S0 2.447170 1_455
Hg0 S4 2.447170 1_545
Hg1 S5 2.447170 1_455
Hg1 S1 2.447170 1_555
Hg2 S2 2.447170 1_455
Hg2 S6 2.447170 1_554
Hg3 S7 2.447170 1_544
Hg3 S3 2.447170 1_555
Hg4 S8 2.447170 1_555
Hg4 S12 2.447170 1_555
Hg5 S9 2.447170 1_545
Hg5 S13 2.447170 1_555
Hg6 S10 2.447170 1_555
Hg6 S14 2.447170 1_554
Hg7 S15 2.447170 1_454
Hg7 S11 2.447170 1_545
C0 C16 1.428343 1_555
C0 C48 1.460113 1_655
C0 S0 1.700091 1_555
C1 C17 1.428343 1_555
C1 C49 1.460113 1_555
C1 S1 1.700091 1_555
C2 C50 1.460113 1_555
C2 S2 1.700091 1_555
C3 C51 1.460113 1_555
C3 S3 1.700091 1_555
C4 C52 1.460113 1_455
C4 S4 1.700091 1_555
C5 C53 1.460113 1_555
C5 S5 1.700091 1_555
C6 S6 1.700091 1_555
C7 S7 1.700091 1_555
C8 S8 1.700091 1_555
C9 S9 1.700091 1_555
C10 C26 1.428343 1_555
C10 C58 1.460113 1_555
C10 S10 1.700091 1_555
C11 C27 1.428343 1_555
C11 C59 1.460113 1_565
C11 S11 1.700091 1_555
C12 C28 1.428343 1_555
C12 C60 1.460113 1_555
C12 S12 1.700091 1_555
C13 C29 1.428343 1_555
C13 C61 1.460113 1_555
C13 S13 1.700091 1_555
C14 C30 1.428343 1_555
C14 C62 1.460113 1_555
C14 S14 1.700091 1_555
C15 C31 1.428343 1_555
C15 C63 1.460113 1_545
C15 S15 1.700091 1_555
C16 N0 1.321539 1_555
C16 C32 1.507004 1_655
C17 N1 1.321539 1_555
C17 C33 1.507004 1_555
C18 N2 1.321539 1_555
C18 C2 1.428343 1_555
C18 C34 1.507004 1_555
C19 N3 1.321539 1_555
C19 C3 1.428343 1_555
C19 C35 1.507004 1_555
C20 N4 1.321539 1_555
C20 C4 1.428343 1_555
C20 C36 1.507004 1_455
C21 N5 1.321539 1_555
C21 C5 1.428343 1_555
C21 C37 1.507004 1_555
C22 N6 1.321539 1_555
C22 C6 1.428343 1_555
C22 C38 1.507004 1_555
C23 N7 1.321539 1_555
C23 C7 1.428343 1_555
C23 C39 1.507004 1_555
C24 N8 1.321539 1_555
C24 C8 1.428343 1_555
C24 C40 1.507004 1_555
C25 N9 1.321539 1_555
C25 C9 1.428343 1_555
C25 C41 1.507004 1_555
C26 N10 1.321539 1_555
C26 C42 1.507004 1_555
C27 N11 1.321539 1_555
C27 C43 1.507004 1_565
C28 N12 1.321539 1_555
C28 C44 1.507004 1_555
C29 N13 1.321539 1_555
C29 C45 1.507004 1_555
C30 N14 1.321539 1_555
C30 C46 1.507004 1_555
C31 N15 1.321539 1_555
C31 C47 1.507004 1_545
C32 O0 1.224703 1_555
C33 O1 1.224703 1_555
C34 O2 1.224703 1_555
C35 O3 1.224703 1_555
C36 O4 1.224703 1_555
C37 O5 1.224703 1_555
C38 O6 1.224703 1_555
C39 O7 1.224703 1_555
C40 O8 1.224703 1_555
C41 O9 1.224703 1_555
C42 O10 1.224703 1_555
C43 O11 1.224703 1_555
C44 O12 1.224703 1_555
C45 O13 1.224703 1_555
C46 O14 1.224703 1_555
C47 O15 1.224703 1_555
C48 O16 1.239784 1_555
C49 O17 1.239784 1_455
C50 O18 1.239784 1_555
C51 O19 1.239784 1_545
C52 O20 1.239784 1_555
C53 O21 1.239784 1_655
C54 O22 1.239784 1_555
C54 C6 1.460113 1_555
C55 O23 1.239784 1_565
C55 C7 1.460113 1_555
C56 O24 1.239784 1_555
C56 C8 1.460113 1_555
C57 O25 1.239784 1_555
C57 C9 1.460113 1_555
C58 O26 1.239784 1_555
C59 O27 1.239784 1_555
C60 O28 1.239784 1_555
C61 O29 1.239784 1_555
C62 O30 1.239784 1_555
C63 O31 1.239784 1_555
C64 H0 1.093232 1_555
C64 H16 1.099250 1_555
C64 H32 1.100096 1_555
C64 N0 1.459658 1_555
C65 H1 1.093232 1_555
C65 H17 1.099250 1_555
C65 H33 1.100096 1_555
C65 N1 1.459658 1_555
C66 H2 1.093232 1_555
C66 H18 1.099250 1_555
C66 H34 1.100096 1_555
C66 N2 1.459658 1_555
C67 H3 1.093232 1_555
C67 H19 1.099250 1_555
C67 H35 1.100096 1_555
C67 N3 1.459658 1_555
C68 H4 1.093232 1_555
C68 H20 1.099250 1_555
C68 H36 1.100096 1_555
C68 N4 1.459658 1_555
C69 H5 1.093232 1_555
C69 H21 1.099250 1_555
C69 H37 1.100096 1_555
C69 N5 1.459658 1_555
C70 H6 1.093232 1_555
C70 H22 1.099250 1_555
C70 H38 1.100096 1_555
C70 N6 1.459658 1_555
C71 H7 1.093232 1_555
C71 H23 1.099250 1_555
C71 H39 1.100096 1_555
C71 N7 1.459658 1_555
C72 H8 1.093232 1_555
C72 H24 1.099250 1_555
C72 H40 1.100096 1_555
C72 N8 1.459658 1_555
C73 H9 1.093232 1_555
C73 H25 1.099250 1_555
C73 H41 1.100096 1_555
C73 N9 1.459658 1_555
C74 H10 1.093232 1_555
C74 H26 1.099250 1_555
C74 H42 1.100096 1_555
C74 N10 1.459658 1_555
C75 H11 1.093232 1_555
C75 H27 1.099250 1_555
C75 H43 1.100096 1_555
C75 N11 1.459658 1_555
C76 H12 1.093232 1_555
C76 H28 1.099250 1_555
C76 H44 1.100096 1_555
C76 N12 1.459658 1_555
C77 H13 1.093232 1_555
C77 H29 1.099250 1_555
C77 H45 1.100096 1_555
C77 N13 1.459658 1_555
C78 H14 1.093232 1_555
C78 H30 1.099250 1_555
C78 H46 1.100096 1_555
C78 N14 1.459658 1_555
C79 H15 1.093232 1_555
C79 H31 1.099250 1_555
C79 H47 1.100096 1_555
C79 N15 1.459658 1_555
C80 H48 1.092768 1_555
C80 H80 1.098718 1_555
C80 H64 1.100251 1_555
C80 N0 1.463959 1_555
C81 H49 1.092768 1_555
C81 H81 1.098718 1_555
C81 H65 1.100251 1_555
C81 N1 1.463959 1_555
C82 H50 1.092768 1_555
C82 H82 1.098718 1_555
C82 H66 1.100251 1_555
C82 N2 1.463959 1_555
C83 H51 1.092768 1_555
C83 H83 1.098718 1_555
C83 H67 1.100251 1_555
C83 N3 1.463959 1_555
C84 H52 1.092768 1_555
C84 H84 1.098718 1_555
C84 H68 1.100251 1_555
C84 N4 1.463959 1_555
C85 H53 1.092768 1_555
C85 H85 1.098718 1_555
C85 H69 1.100251 1_555
C85 N5 1.463959 1_555
C86 H54 1.092768 1_555
C86 H86 1.098718 1_555
C86 H70 1.100251 1_555
C86 N6 1.463959 1_555
C87 H55 1.092768 1_555
C87 H87 1.098718 1_555
C87 H71 1.100251 1_555
C87 N7 1.463959 1_555
C88 H56 1.092768 1_555
C88 H88 1.098718 1_555
C88 H72 1.100251 1_555
C88 N8 1.463959 1_555
C89 H57 1.092768 1_555
C89 H89 1.098718 1_555
C89 H73 1.100251 1_555
C89 N9 1.463959 1_555
C90 H58 1.092768 1_555
C90 H90 1.098718 1_555
C90 H74 1.100251 1_555
C90 N10 1.463959 1_555
C91 H59 1.092768 1_555
C91 H91 1.098718 1_555
C91 H75 1.100251 1_555
C91 N11 1.463959 1_555
C92 H60 1.092768 1_555
C92 H92 1.098718 1_555
C92 H76 1.100251 1_555
C92 N12 1.463959 1_555
C93 H61 1.092768 1_555
C93 H93 1.098718 1_555
C93 H77 1.100251 1_555
C93 N13 1.463959 1_555
C94 H62 1.092768 1_555
C94 H94 1.098718 1_555
C94 H78 1.100251 1_555
C94 N14 1.463959 1_555
C95 H63 1.092768 1_555
C95 H95 1.098718 1_555
C95 H79 1.100251 1_555
C95 N15 1.463959 1_555
