# generated using pymatgen
data_Ti2(InBr3)3
_symmetry_space_group_name_H-M   'P 1'
_cell_length_a   7.51836604
_cell_length_b   7.51836604
_cell_length_c   18.44810500
_cell_angle_alpha   90.00000000
_cell_angle_beta   90.00000000
_cell_angle_gamma   120.00000037
_symmetry_Int_Tables_number   1
_chemical_formula_structural   Ti2(InBr3)3
_chemical_formula_sum   'Ti4 In6 Br18'
_cell_volume   903.08644590
_cell_formula_units_Z   2
loop_
 _symmetry_equiv_pos_site_id
 _symmetry_equiv_pos_as_xyz
  1  'x, y, z'
loop_
 _atom_site_type_symbol
 _atom_site_label
 _atom_site_symmetry_multiplicity
 _atom_site_fract_x
 _atom_site_fract_y
 _atom_site_fract_z
 _atom_site_occupancy
  Ti  Ti0  1  0.66666700  0.33333300  0.16226700  1
  Ti  Ti1  1  0.33333300  0.66666700  0.83472000  1
  Ti  Ti2  1  0.33333300  0.66666700  0.66226700  1
  Ti  Ti3  1  0.66666700  0.33333300  0.33472000  1
  In  In0  1  0.66666700  0.33333300  0.95195400  1
  In  In1  1  0.33333300  0.66666700  0.05327000  1
  In  In2  1  0.33333300  0.66666700  0.45195400  1
  In  In3  1  0.66666700  0.33333300  0.55327000  1
  In  In4  1  0.00000000  0.00000000  0.77352900  1
  In  In5  1  0.00000000  0.00000000  0.27352900  1
  Br  Br0  1  0.49432100  0.98864200  0.74908900  1
  Br  Br1  1  0.49432100  0.50567900  0.74908900  1
  Br  Br2  1  0.01135800  0.50567900  0.74908900  1
  Br  Br3  1  0.50567900  0.01135800  0.24908900  1
  Br  Br4  1  0.50567900  0.49432100  0.24908900  1
  Br  Br5  1  0.98864200  0.49432100  0.24908900  1
  Br  Br6  1  0.82685800  0.65371500  0.08546000  1
  Br  Br7  1  0.82685800  0.17314200  0.08546000  1
  Br  Br8  1  0.34628500  0.17314200  0.08546000  1
  Br  Br9  1  0.17195100  0.34390100  0.91252000  1
  Br  Br10  1  0.17195100  0.82804900  0.91252000  1
  Br  Br11  1  0.65609900  0.82804900  0.91252000  1
  Br  Br12  1  0.17314200  0.34628500  0.58546000  1
  Br  Br13  1  0.17314200  0.82685800  0.58546000  1
  Br  Br14  1  0.65371500  0.82685800  0.58546000  1
  Br  Br15  1  0.82804900  0.65609900  0.41252000  1
  Br  Br16  1  0.82804900  0.17195100  0.41252000  1
  Br  Br17  1  0.34390100  0.17195100  0.41252000  1
loop_
_geom_bond_atom_site_label_1
_geom_bond_atom_site_label_2
_geom_bond_distance
_geom_bond_site_symmetry_2
Br0 Ti1 2.624973 1_555
Br0 Ti2 2.638254 1_555
Br1 Ti1 2.624978 1_555
Br1 Ti2 2.638259 1_555
Br2 Ti1 2.624973 1_555
Br2 Ti2 2.638254 1_555
Br3 Ti3 2.624973 1_555
Br3 Ti0 2.638254 1_555
Br4 Ti3 2.624978 1_555
Br4 Ti0 2.638259 1_555
Br5 Ti3 2.624973 1_555
Br5 Ti0 2.638254 1_555
Br6 Ti0 2.521762 1_555
Br6 In0 3.227629 1_554
Br7 Ti0 2.521762 1_555
Br7 In0 3.227629 1_554
Br8 Ti0 2.521762 1_555
Br8 In0 3.227629 1_554
Br9 Ti1 2.544904 1_555
Br9 In1 3.340469 1_556
Br10 Ti1 2.544893 1_555
Br10 In1 3.340461 1_556
Br11 Ti1 2.544904 1_555
Br11 In1 3.340469 1_556
Br12 Ti2 2.521762 1_555
Br12 In2 3.227629 1_555
Br13 Ti2 2.521762 1_555
Br13 In2 3.227629 1_555
Br14 Ti2 2.521762 1_555
Br14 In2 3.227629 1_555
Br15 Ti3 2.544904 1_555
Br15 In3 3.340469 1_555
Br16 Ti3 2.544893 1_555
Br16 In3 3.340461 1_555
Br17 Ti3 2.544904 1_555
Br17 In3 3.340469 1_555
