# generated using pymatgen
data_LiFeF3
_symmetry_space_group_name_H-M   'P 1'
_cell_length_a   5.06967402
_cell_length_b   5.06967402
_cell_length_c   4.83185900
_cell_angle_alpha   90.00000000
_cell_angle_beta   90.00000000
_cell_angle_gamma   118.73318338
_symmetry_Int_Tables_number   1
_chemical_formula_structural   LiFeF3
_chemical_formula_sum   'Li2 Fe2 F6'
_cell_volume   108.89513820
_cell_formula_units_Z   2
loop_
 _symmetry_equiv_pos_site_id
 _symmetry_equiv_pos_as_xyz
  1  'x, y, z'
loop_
 _atom_site_type_symbol
 _atom_site_label
 _atom_site_symmetry_multiplicity
 _atom_site_fract_x
 _atom_site_fract_y
 _atom_site_fract_z
 _atom_site_occupancy
  Li  Li0  1  0.49857200  0.50142800  0.25000000  1
  Li  Li1  1  0.50142800  0.49857200  0.75000000  1
  Fe  Fe0  1  0.16544200  0.83455800  0.75000000  1
  Fe  Fe1  1  0.83455800  0.16544200  0.25000000  1
  F  F0  1  0.81750500  0.81750500  0.50000000  1
  F  F1  1  0.18614400  0.50807600  0.50055400  1
  F  F2  1  0.49192400  0.81385600  0.99944600  1
  F  F3  1  0.50807600  0.18614400  0.49944600  1
  F  F4  1  0.81385600  0.49192400  0.00055400  1
  F  F5  1  0.18249500  0.18249500  0.00000000  1
loop_
_geom_bond_atom_site_label_1
_geom_bond_atom_site_label_2
_geom_bond_distance
_geom_bond_site_symmetry_2
F0 Li0 2.037191 1_555
F0 Li1 2.037191 1_555
F0 Fe1 2.105106 1_565
F0 Fe0 2.105106 1_655
F1 Li0 2.006709 1_555
F1 Li1 2.020873 1_555
F1 Fe0 2.090526 1_555
F1 Fe1 2.164066 1_455
F2 Li0 2.006709 1_556
F2 Li1 2.020873 1_555
F2 Fe0 2.090526 1_555
F2 Fe1 2.164066 1_566
F3 Li1 2.006709 1_555
F3 Li0 2.020873 1_555
F3 Fe1 2.090526 1_555
F3 Fe0 2.164066 1_545
F4 Li1 2.006709 1_554
F4 Li0 2.020873 1_555
F4 Fe1 2.090526 1_555
F4 Fe0 2.164066 1_654
F5 Li1 2.037191 1_554
F5 Li0 2.037191 1_555
F5 Fe1 2.105106 1_455
F5 Fe0 2.105106 1_544
