# generated using pymatgen
data_Ho3(FeGe)4
_symmetry_space_group_name_H-M   'P 1'
_cell_length_a   7.83821650
_cell_length_b   7.83821650
_cell_length_c   7.83821650
_cell_angle_alpha   148.97574402
_cell_angle_beta   129.25793893
_cell_angle_gamma   60.67507296
_symmetry_Int_Tables_number   1
_chemical_formula_structural   Ho3(FeGe)4
_chemical_formula_sum   'Ho3 Fe4 Ge4'
_cell_volume   190.50844015
_cell_formula_units_Z   1
loop_
 _symmetry_equiv_pos_site_id
 _symmetry_equiv_pos_as_xyz
  1  'x, y, z'
loop_
 _atom_site_type_symbol
 _atom_site_label
 _atom_site_symmetry_multiplicity
 _atom_site_fract_x
 _atom_site_fract_y
 _atom_site_fract_z
 _atom_site_occupancy
  Ho  Ho0  1  0.37135400  0.87135400  0.50000000  1
  Ho  Ho1  1  0.62864600  0.12864600  0.50000000  1
  Ho  Ho2  1  0.00000000  0.00000000  0.00000000  1
  Fe  Fe0  1  0.64419700  0.32502400  0.31917300  1
  Fe  Fe1  1  0.35580300  0.67497600  0.68082700  1
  Fe  Fe2  1  0.00585000  0.32502400  0.68082700  1
  Fe  Fe3  1  0.99415000  0.67497600  0.31917300  1
  Ge  Ge0  1  0.22060900  0.22060900  0.00000000  1
  Ge  Ge1  1  0.77939100  0.77939100  0.00000000  1
  Ge  Ge2  1  0.69583600  0.50000000  0.19583600  1
  Ge  Ge3  1  0.30416400  0.50000000  0.80416400  1
loop_
_geom_bond_atom_site_label_1
_geom_bond_atom_site_label_2
_geom_bond_distance
_geom_bond_site_symmetry_2
Fe0 Fe2 2.429231 1_655
Fe0 Ge1 2.500167 1_556
Fe0 Ge1 2.500167 1_545
Fe0 Ge2 2.508158 1_555
Fe0 Ge0 2.567492 1_555
Fe0 Ho1 2.921418 1_555
Fe0 Ho0 3.063255 1_544
Fe0 Ho0 3.063255 1_555
Fe1 Fe3 2.429231 1_455
Fe1 Ge0 2.500167 1_555
Fe1 Ge0 2.500167 1_566
Fe1 Ge3 2.508158 1_555
Fe1 Ge1 2.567492 1_556
Fe1 Ho0 2.921418 1_555
Fe1 Ho1 3.063255 1_555
Fe1 Ho1 3.063255 1_566
Fe2 Ge1 2.500162 1_456
Fe2 Ge1 2.500165 1_445
Fe2 Ge3 2.508166 1_555
Fe2 Ge0 2.567491 1_556
Fe2 Ho1 2.921410 1_455
Fe2 Ho0 3.063258 1_556
Fe2 Ho0 3.063261 1_545
Fe3 Ge0 2.500162 1_655
Fe3 Ge0 2.500165 1_666
Fe3 Ge2 2.508166 1_555
Fe3 Ge1 2.567491 1_555
Fe3 Ho0 2.921410 1_655
Fe3 Ho1 3.063258 1_554
Fe3 Ho1 3.063261 1_565
Ge0 Ho0 2.924740 1_544
Ge0 Ho0 2.924740 1_555
Ge0 Ho2 2.984791 1_555
Ge1 Ho1 2.924740 1_554
Ge1 Ho1 2.924740 1_565
Ge1 Ho2 2.984791 1_665
Ge2 Ge3 2.630866 1_554
Ge2 Ho2 2.927200 1_655
Ge2 Ho2 2.927200 1_666
Ge2 Ho1 3.025597 1_554
Ge2 Ho1 3.025597 1_565
Ge2 Ho0 3.025597 1_544
Ge2 Ho0 3.025597 1_555
Ge3 Ho2 2.927200 1_566
Ge3 Ho2 2.927200 1_555
Ge3 Ho1 3.025597 1_555
Ge3 Ho1 3.025597 1_566
Ge3 Ho0 3.025597 1_545
Ge3 Ho0 3.025597 1_556
