# generated using pymatgen
data_PrNdAl4
_symmetry_space_group_name_H-M   'P 1'
_cell_length_a   5.68511664
_cell_length_b   5.68511664
_cell_length_c   5.68511664
_cell_angle_alpha   60.00000000
_cell_angle_beta   60.00000000
_cell_angle_gamma   60.00000000
_symmetry_Int_Tables_number   1
_chemical_formula_structural   PrNdAl4
_chemical_formula_sum   'Pr1 Nd1 Al4'
_cell_volume   129.92811600
_cell_formula_units_Z   1
loop_
 _symmetry_equiv_pos_site_id
 _symmetry_equiv_pos_as_xyz
  1  'x, y, z'
loop_
 _atom_site_type_symbol
 _atom_site_label
 _atom_site_symmetry_multiplicity
 _atom_site_fract_x
 _atom_site_fract_y
 _atom_site_fract_z
 _atom_site_occupancy
  Pr  Pr0  1  0.00000000  -0.00000000  -0.00000000  1
  Nd  Nd0  1  0.25000000  0.25000000  0.25000000  1
  Al  Al0  1  0.62493569  0.62493569  0.12519292  1
  Al  Al1  1  0.62493569  0.12519292  0.62493569  1
  Al  Al2  1  0.12519292  0.62493569  0.62493569  1
  Al  Al3  1  0.62493569  0.62493569  0.62493569  1
loop_
_geom_bond_atom_site_label_1
_geom_bond_atom_site_label_2
_geom_bond_distance
_geom_bond_site_symmetry_2
Nd0 Pr0 3.481409 1_655
Nd0 Pr0 3.481409 1_565
Nd0 Pr0 3.481409 1_556
Nd0 Pr0 3.481409 1_555
Al0 Al2 2.841096 1_555
Al0 Al3 2.841096 1_555
Al0 Al1 2.841096 1_555
Al0 Al2 2.844021 1_654
Al0 Al1 2.844021 1_564
Al0 Al3 2.844021 1_554
Al0 Nd0 3.333039 1_555
Al0 Nd0 3.333039 1_655
Al0 Nd0 3.333039 1_565
Al0 Pr0 3.333351 1_655
Al0 Pr0 3.333351 1_565
Al0 Pr0 3.333351 1_665
Al1 Al2 2.841096 1_555
Al1 Al3 2.841096 1_555
Al1 Al2 2.844021 1_645
Al1 Al3 2.844021 1_545
Al1 Nd0 3.333039 1_555
Al1 Nd0 3.333039 1_556
Al1 Nd0 3.333039 1_655
Al1 Pr0 3.333351 1_655
Al1 Pr0 3.333351 1_556
Al1 Pr0 3.333351 1_656
Al2 Al3 2.841096 1_555
Al2 Al3 2.844021 1_455
Al2 Nd0 3.333039 1_555
Al2 Nd0 3.333039 1_556
Al2 Nd0 3.333039 1_565
Al2 Pr0 3.333351 1_565
Al2 Pr0 3.333351 1_556
Al2 Pr0 3.333351 1_566
Al3 Nd0 3.333039 1_556
Al3 Nd0 3.333039 1_565
Al3 Nd0 3.333039 1_655
Al3 Pr0 3.333351 1_566
Al3 Pr0 3.333351 1_656
Al3 Pr0 3.333351 1_665
