# generated using pymatgen
data_Zn2W9O13
_symmetry_space_group_name_H-M   'P 1'
_cell_length_a   3.17031300
_cell_length_b   5.58877627
_cell_length_c   17.93290102
_cell_angle_alpha   91.26557243
_cell_angle_beta   91.56479360
_cell_angle_gamma   99.60800397
_symmetry_Int_Tables_number   1
_chemical_formula_structural   Zn2W9O13
_chemical_formula_sum   'Zn2 W9 O13'
_cell_volume   313.04991001
_cell_formula_units_Z   1
loop_
 _symmetry_equiv_pos_site_id
 _symmetry_equiv_pos_as_xyz
  1  'x, y, z'
loop_
 _atom_site_type_symbol
 _atom_site_label
 _atom_site_symmetry_multiplicity
 _atom_site_fract_x
 _atom_site_fract_y
 _atom_site_fract_z
 _atom_site_occupancy
  Zn  Zn0  1  0.63625900  0.52615500  0.74954700  1
  Zn  Zn1  1  0.36374100  0.47384500  0.25045300  1
  W  W0  1  0.50000000  0.00000000  0.50000000  1
  W  W1  1  0.26587900  0.69756100  0.94741500  1
  W  W2  1  0.73412100  0.30243900  0.05258500  1
  W  W3  1  0.11322000  0.38075200  0.55547300  1
  W  W4  1  0.88678000  0.61924800  0.44452700  1
  W  W5  1  0.06813100  0.22168800  0.88349600  1
  W  W6  1  0.93186900  0.77831200  0.11650400  1
  W  W7  1  0.04845300  0.04422500  0.67573200  1
  W  W8  1  0.95154700  0.95577500  0.32426800  1
  O  O0  1  0.00000000  0.00000000  0.00000000  1
  O  O1  1  0.08120700  0.29869400  0.76970800  1
  O  O2  1  0.91879300  0.70130600  0.23029200  1
  O  O3  1  0.68092200  0.51366000  0.87799200  1
  O  O4  1  0.31907800  0.48634000  0.12200800  1
  O  O5  1  0.49229400  0.98565300  0.87422900  1
  O  O6  1  0.50770600  0.01434700  0.12577100  1
  O  O7  1  0.49169100  0.82018100  0.70554700  1
  O  O8  1  0.50830900  0.17981900  0.29445300  1
  O  O9  1  0.62520500  0.33095600  0.64411700  1
  O  O10  1  0.37479500  0.66904400  0.35588300  1
  O  O11  1  0.98275900  0.78851700  0.56039200  1
  O  O12  1  0.01724100  0.21148300  0.43960800  1
loop_
_geom_bond_atom_site_label_1
_geom_bond_atom_site_label_2
_geom_bond_distance
_geom_bond_site_symmetry_2
O0 W1 2.214805 1_544
O0 W2 2.214805 1_455
O0 W6 2.448740 1_445
O0 W5 2.448740 1_554
O0 W2 2.767587 1_555
O0 W1 2.767587 1_444
O1 Zn0 2.037538 1_555
O1 Zn0 2.080300 1_455
O1 W5 2.094811 1_555
O1 W7 2.169962 1_555
O2 Zn1 2.037538 1_555
O2 Zn1 2.080300 1_655
O2 W6 2.094811 1_555
O2 W8 2.169962 1_555
O3 W1 2.195907 1_555
O3 W5 2.201932 1_655
O3 W1 2.286163 1_655
O3 Zn0 2.307191 1_555
O3 W5 2.325082 1_555
O4 W2 2.195907 1_555
O4 W6 2.201932 1_455
O4 W2 2.286163 1_455
O4 Zn1 2.307191 1_555
O4 W6 2.325082 1_555
O5 W5 2.042237 1_565
O5 W5 2.066489 1_665
O5 W1 2.142218 1_555
O6 W6 2.042237 1_545
O6 W6 2.066489 1_445
O6 W2 2.142218 1_555
O7 Zn0 1.954955 1_555
O7 W7 2.076694 1_665
O7 W7 2.098615 1_565
O8 Zn1 1.954955 1_555
O8 W8 2.076694 1_445
O8 W8 2.098615 1_545
O9 Zn0 2.158348 1_555
O9 W3 2.237913 1_655
O9 W3 2.295312 1_555
O9 W7 2.313300 1_555
O9 W7 2.325129 1_655
O10 Zn1 2.158348 1_555
O10 W4 2.237913 1_455
O10 W4 2.295312 1_555
O10 W8 2.313300 1_555
O10 W8 2.325129 1_455
O11 W0 2.182982 1_665
O11 W4 2.255505 1_555
O11 W0 2.341398 1_565
O11 W3 2.383279 1_655
O11 W7 2.471929 1_665
O12 W0 2.182982 1_455
O12 W3 2.255505 1_555
O12 W0 2.341398 1_555
O12 W4 2.383279 1_455
O12 W8 2.471929 1_445
