# generated using pymatgen
data_LiTi2O4
_symmetry_space_group_name_H-M   'P 1'
_cell_length_a   5.94685205
_cell_length_b   5.94685205
_cell_length_c   5.94685205
_cell_angle_alpha   120.86618986
_cell_angle_beta   119.33236767
_cell_angle_gamma   89.83327792
_symmetry_Int_Tables_number   1
_chemical_formula_structural   LiTi2O4
_chemical_formula_sum   'Li2 Ti4 O8'
_cell_volume   148.45491937
_cell_formula_units_Z   2
loop_
 _symmetry_equiv_pos_site_id
 _symmetry_equiv_pos_as_xyz
  1  'x, y, z'
loop_
 _atom_site_type_symbol
 _atom_site_label
 _atom_site_symmetry_multiplicity
 _atom_site_fract_x
 _atom_site_fract_y
 _atom_site_fract_z
 _atom_site_occupancy
  Li  Li0  1  0.50000000  0.50000000  0.00000000  1
  Li  Li1  1  0.00000000  0.50000000  0.50000000  1
  Ti  Ti0  1  0.86856200  0.11856200  0.75000000  1
  Ti  Ti1  1  0.13143800  0.88143800  0.25000000  1
  Ti  Ti2  1  0.50000000  0.50000000  0.50000000  1
  Ti  Ti3  1  0.50000000  0.00000000  0.00000000  1
  O  O0  1  0.25801300  0.75126900  0.50674400  1
  O  O1  1  0.74452500  0.75126900  0.99325600  1
  O  O2  1  0.26389100  0.76675000  0.00285900  1
  O  O3  1  0.74198700  0.24873100  0.49325600  1
  O  O4  1  0.73610900  0.73896800  0.50285900  1
  O  O5  1  0.25547500  0.24873100  0.00674400  1
  O  O6  1  0.26389100  0.26103200  0.49714100  1
  O  O7  1  0.73610900  0.23325000  0.99714100  1
loop_
_geom_bond_atom_site_label_1
_geom_bond_atom_site_label_2
_geom_bond_distance
_geom_bond_site_symmetry_2
Li0 O6 2.114468 1_554
Li0 O7 2.114468 1_554
Li0 O4 2.114468 1_555
Li0 O2 2.114468 1_555
Li0 O1 2.116662 1_554
Li0 O5 2.116662 1_555
Li1 O2 2.114468 1_556
Li1 O6 2.114468 1_555
Li1 O4 2.114468 1_455
Li1 O7 2.114468 1_454
Li1 O0 2.116662 1_555
Li1 O3 2.116662 1_455
O0 Ti1 1.892173 1_555
O0 Ti2 2.070714 1_555
O0 Ti3 2.070714 1_566
O1 Ti1 1.892173 1_656
O1 Ti2 2.070714 1_555
O1 Ti3 2.070714 1_566
O2 Ti1 1.829815 1_555
O2 Ti3 1.988662 1_565
O3 Ti0 1.892173 1_555
O3 Ti3 2.070714 1_555
O3 Ti2 2.070714 1_555
O4 Ti0 1.829815 1_565
O4 Ti2 1.988662 1_555
O5 Ti0 1.892173 1_454
O5 Ti3 2.070714 1_555
O5 Ti2 2.070714 1_555
O6 Ti1 1.829815 1_545
O6 Ti2 1.988662 1_555
O7 Ti0 1.829815 1_555
O7 Ti3 1.988662 1_556
