# generated using pymatgen
data_TbEr(TiFe11)2
_symmetry_space_group_name_H-M   'P 1'
_cell_length_a   4.71180600
_cell_length_b   6.43091283
_cell_length_c   11.96836624
_cell_angle_alpha   89.91070746
_cell_angle_beta   90.00000000
_cell_angle_gamma   111.49009482
_symmetry_Int_Tables_number   1
_chemical_formula_structural   TbEr(TiFe11)2
_chemical_formula_sum   'Tb1 Er1 Ti2 Fe22'
_cell_volume   337.44403379
_cell_formula_units_Z   1
loop_
 _symmetry_equiv_pos_site_id
 _symmetry_equiv_pos_as_xyz
  1  'x, y, z'
loop_
 _atom_site_type_symbol
 _atom_site_label
 _atom_site_symmetry_multiplicity
 _atom_site_fract_x
 _atom_site_fract_y
 _atom_site_fract_z
 _atom_site_occupancy
  Tb  Tb0  1  0.50287600  0.00575300  0.50303600  1
  Er  Er0  1  0.00313800  0.00627600  0.00295900  1
  Ti  Ti0  1  0.31616100  0.63232300  0.31560800  1
  Ti  Ti1  1  0.81620400  0.63240800  0.81664400  1
  Fe  Fe0  1  0.39043500  0.78087000  0.10842300  1
  Fe  Fe1  1  0.88916000  0.77832100  0.61053400  1
  Fe  Fe2  1  0.11008200  0.22016400  0.38867900  1
  Fe  Fe3  1  0.60891500  0.21783100  0.89050500  1
  Fe  Fe4  1  0.88725800  0.77451600  0.38679800  1
  Fe  Fe5  1  0.38823400  0.77646800  0.88853600  1
  Fe  Fe6  1  0.61492600  0.22985200  0.11469100  1
  Fe  Fe7  1  0.11575400  0.23150800  0.61629500  1
  Fe  Fe8  1  0.25060400  0.00188900  0.24936800  1
  Fe  Fe9  1  0.75109900  0.00194800  0.75073400  1
  Fe  Fe10  1  0.75128500  0.00188900  0.24936800  1
  Fe  Fe11  1  0.25084900  0.00194800  0.75073400  1
  Fe  Fe12  1  0.00032900  0.49987800  0.00106000  1
  Fe  Fe13  1  0.50020800  0.49986300  0.50099400  1
  Fe  Fe14  1  0.49954900  0.49987800  0.00106000  1
  Fe  Fe15  1  0.99965500  0.49986300  0.50099400  1
  Fe  Fe16  1  0.67833600  0.35667100  0.32102300  1
  Fe  Fe17  1  0.17813300  0.35626500  0.82245800  1
  Fe  Fe18  1  0.82186700  0.64373400  0.17750300  1
  Fe  Fe19  1  0.32172700  0.64345400  0.67869200  1
  Fe  Fe20  1  0.17655100  0.35310100  0.17607900  1
  Fe  Fe21  1  0.67666500  0.35333000  0.67722500  1
loop_
_geom_bond_atom_site_label_1
_geom_bond_atom_site_label_2
_geom_bond_distance
_geom_bond_site_symmetry_2
Tb0 Ti0 3.168906 1_545
Er0 Fe20 2.935046 1_555
Er0 Fe0 2.992833 1_445
Er0 Fe0 2.992833 1_545
Er0 Fe3 2.993078 1_554
Er0 Fe3 2.993081 1_454
Er0 Fe17 3.006286 1_554
Er0 Fe18 3.009159 1_445
Er0 Fe6 3.022306 1_555
Er0 Fe6 3.022306 1_455
Er0 Fe5 3.053358 1_544
Er0 Fe5 3.053358 1_444
Er0 Ti1 3.161332 1_444
Er0 Fe10 3.175136 1_455
Er0 Fe8 3.175136 1_555
Er0 Fe14 3.179230 1_555
Er0 Fe12 3.179230 1_555
Er0 Fe9 3.240338 1_454
Er0 Fe11 3.240338 1_554
Er0 Fe14 3.251891 1_445
Er0 Fe12 3.251891 1_545
Fe0 Fe14 2.422550 1_555
Fe0 Fe12 2.422550 1_555
Fe0 Fe10 2.448165 1_565
Fe0 Fe8 2.448165 1_565
Fe0 Fe18 2.627727 1_455
Fe0 Fe18 2.627727 1_555
Fe0 Fe5 2.631864 1_554
Fe0 Ti0 2.632769 1_555
Fe0 Fe20 2.683430 1_555
Fe0 Fe6 2.687810 1_565
Fe1 Fe13 2.426305 1_555
Fe1 Fe15 2.426308 1_555
Fe1 Fe9 2.449471 1_565
Fe1 Fe11 2.449473 1_665
Fe1 Ti1 2.615383 1_555
Fe1 Fe19 2.620073 1_555
Fe1 Fe19 2.620077 1_655
Fe1 Fe21 2.664122 1_555
Fe1 Fe4 2.677889 1_555
Fe1 Fe7 2.712791 1_665
Fe1 Tb0 3.008619 1_565
Fe1 Tb0 3.008619 1_665
Fe2 Fe8 2.424256 1_555
Fe2 Ti0 2.615378 1_555
Fe2 Fe20 2.664648 1_555
Fe2 Fe4 2.666820 1_445
Fe2 Fe7 2.725151 1_555
Fe2 Tb0 3.010602 1_555
Fe2 Tb0 3.010606 1_455
Fe3 Fe9 2.421433 1_555
Fe3 Ti1 2.632164 1_555
Fe3 Fe5 2.641191 1_545
Fe3 Fe6 2.684225 1_556
Fe4 Fe8 2.435742 1_665
Fe4 Ti0 2.646245 1_655
Fe4 Ti0 2.646249 1_555
Fe4 Tb0 3.067031 1_665
Fe4 Tb0 3.067035 1_565
Fe5 Fe9 2.433520 1_565
Fe5 Ti1 2.652584 1_555
Fe5 Ti1 2.652584 1_455
Fe6 Fe8 2.417198 1_555
Fe7 Fe9 2.419633 1_455
Fe7 Tb0 3.036237 1_555
Fe7 Tb0 3.036240 1_455
Fe8 Ti0 2.627619 1_545
Fe8 Tb0 3.257201 1_555
Fe9 Ti1 2.625321 1_545
Fe9 Tb0 3.190259 1_555
Fe10 Fe8 2.352694 1_655
Fe10 Fe8 2.359112 1_555
Fe10 Fe6 2.417198 1_555
Fe10 Fe2 2.424256 1_655
Fe10 Fe4 2.435742 1_545
Fe10 Fe20 2.561977 1_655
Fe10 Fe16 2.576794 1_555
Fe10 Fe18 2.592839 1_545
Fe10 Ti0 2.627621 1_545
Fe10 Tb0 3.257203 1_555
Fe11 Fe9 2.354725 1_455
Fe11 Fe9 2.357081 1_555
Fe11 Fe7 2.419633 1_555
Fe11 Fe3 2.421430 1_555
Fe11 Fe5 2.433520 1_545
Fe11 Fe21 2.564715 1_555
Fe11 Fe17 2.573773 1_555
Fe11 Fe19 2.596218 1_545
Fe11 Ti1 2.625321 1_445
Fe11 Tb0 3.190258 1_555
Fe12 Fe14 2.352228 1_555
Fe12 Fe14 2.359578 1_455
Fe12 Fe6 2.417616 1_455
Fe12 Fe5 2.434895 1_554
Fe12 Fe3 2.449196 1_454
Fe12 Fe20 2.556602 1_555
Fe12 Fe18 2.568737 1_455
Fe12 Fe17 2.587880 1_554
Fe12 Ti1 2.624214 1_454
Fe13 Fe15 2.353297 1_555
Fe13 Fe15 2.358509 1_455
Fe13 Fe7 2.422002 1_555
Fe13 Fe4 2.438438 1_555
Fe13 Fe2 2.450777 1_555
Fe13 Fe21 2.568239 1_555
Fe13 Fe19 2.580333 1_555
Fe13 Fe16 2.600846 1_555
Fe13 Ti0 2.633616 1_555
Fe13 Tb0 3.182261 1_555
Fe13 Tb0 3.248880 1_565
Fe14 Fe6 2.417616 1_555
Fe14 Fe5 2.434895 1_554
Fe14 Fe3 2.449194 1_554
Fe14 Fe20 2.556600 1_555
Fe14 Fe18 2.568737 1_555
Fe14 Fe17 2.587878 1_554
Fe14 Ti1 2.624214 1_554
Fe15 Fe7 2.422002 1_655
Fe15 Fe4 2.438438 1_555
Fe15 Fe2 2.450777 1_655
Fe15 Fe21 2.568239 1_555
Fe15 Fe19 2.580333 1_655
Fe15 Fe16 2.600844 1_555
Fe15 Ti0 2.633613 1_655
Fe15 Tb0 3.182263 1_555
Fe15 Tb0 3.248879 1_665
Fe16 Fe18 2.427187 1_555
Fe16 Fe8 2.576796 1_555
Fe16 Fe6 2.584641 1_555
Fe16 Fe2 2.621248 1_655
Fe16 Fe2 2.621252 1_555
Fe16 Fe4 2.622575 1_555
Fe16 Ti0 2.876597 1_655
Fe16 Ti0 2.876605 1_555
Fe16 Fe20 2.925781 1_655
Fe16 Fe20 2.925781 1_555
Fe16 Tb0 3.023146 1_555
Fe17 Fe19 2.429801 1_555
Fe17 Fe9 2.573775 1_455
Fe17 Fe7 2.579090 1_555
Fe17 Fe3 2.626301 1_555
Fe17 Fe3 2.626309 1_455
Fe17 Fe5 2.637129 1_555
Fe17 Ti1 2.878391 1_555
Fe17 Ti1 2.878395 1_455
Fe17 Fe21 2.927802 1_555
Fe17 Fe21 2.927806 1_455
Fe18 Fe6 2.589391 1_555
Fe18 Fe8 2.592839 1_665
Fe18 Fe4 2.625570 1_555
Fe18 Ti0 2.878646 1_655
Fe18 Ti0 2.878650 1_555
Fe18 Fe20 2.928333 1_555
Fe18 Fe20 2.928337 1_655
Fe19 Fe7 2.576855 1_555
Fe19 Fe9 2.596218 1_565
Fe19 Fe5 2.635866 1_555
Fe19 Ti1 2.877548 1_455
Fe19 Ti1 2.877548 1_555
Fe19 Fe21 2.926530 1_555
Fe19 Fe21 2.926530 1_455
Fe19 Tb0 3.017354 1_565
Fe20 Ti0 2.364248 1_555
Fe20 Fe8 2.561974 1_555
Fe20 Fe6 2.576004 1_555
Fe20 Fe6 2.576009 1_455
Fe21 Ti1 2.362706 1_555
Fe21 Fe9 2.564715 1_555
Fe21 Fe7 2.572008 1_555
Fe21 Fe7 2.572008 1_655
Fe21 Fe3 2.676996 1_555
Fe21 Tb0 2.947286 1_555
