# generated using pymatgen
data_LiMg14CO16
_symmetry_space_group_name_H-M   'P 1'
_cell_length_a   8.48803504
_cell_length_b   8.41625428
_cell_length_c   4.22933532
_cell_angle_alpha   90.00000000
_cell_angle_beta   90.00000000
_cell_angle_gamma   90.00000000
_symmetry_Int_Tables_number   1
_chemical_formula_structural   LiMg14CO16
_chemical_formula_sum   'Li1 Mg14 C1 O16'
_cell_volume   302.13297797
_cell_formula_units_Z   1
loop_
 _symmetry_equiv_pos_site_id
 _symmetry_equiv_pos_as_xyz
  1  'x, y, z'
loop_
 _atom_site_type_symbol
 _atom_site_label
 _atom_site_symmetry_multiplicity
 _atom_site_fract_x
 _atom_site_fract_y
 _atom_site_fract_z
 _atom_site_occupancy
  Li  Li0  1  -0.00000000  0.00000000  -0.00000000  1
  Mg  Mg0  1  0.50000000  0.00000000  -0.00000000  1
  Mg  Mg1  1  0.50000000  0.50000000  -0.00000000  1
  Mg  Mg2  1  -0.00000000  0.24821254  0.50000000  1
  Mg  Mg3  1  -0.00000000  0.75178746  0.50000000  1
  Mg  Mg4  1  0.50000000  0.24853200  0.50000000  1
  Mg  Mg5  1  0.50000000  0.75146800  0.50000000  1
  Mg  Mg6  1  0.24399893  0.00000000  0.50000000  1
  Mg  Mg7  1  0.24445497  0.50000000  0.50000000  1
  Mg  Mg8  1  0.75600107  0.00000000  0.50000000  1
  Mg  Mg9  1  0.75554503  0.50000000  0.50000000  1
  Mg  Mg10  1  0.24761865  0.24774166  -0.00000000  1
  Mg  Mg11  1  0.24761865  0.75225834  0.00000000  1
  Mg  Mg12  1  0.75238135  0.24774166  -0.00000000  1
  Mg  Mg13  1  0.75238135  0.75225834  0.00000000  1
  C  C0  1  -0.00000000  0.50000000  -0.00000000  1
  O  O0  1  0.25238475  -0.00000000  -0.00000000  1
  O  O1  1  0.23920628  0.50000000  0.00000000  1
  O  O2  1  0.74761525  0.00000000  -0.00000000  1
  O  O3  1  0.76079372  0.50000000  -0.00000000  1
  O  O4  1  0.24808104  0.25121275  0.50000000  1
  O  O5  1  0.24808104  0.74878725  0.50000000  1
  O  O6  1  0.75191896  0.25121275  0.50000000  1
  O  O7  1  0.75191896  0.74878725  0.50000000  1
  O  O8  1  -0.00000000  0.00000000  0.50000000  1
  O  O9  1  -0.00000000  0.50000000  0.50000000  1
  O  O10  1  0.50000000  0.00000000  0.50000000  1
  O  O11  1  0.50000000  0.50000000  0.50000000  1
  O  O12  1  -0.00000000  0.28501139  0.00000000  1
  O  O13  1  -0.00000000  0.71498861  -0.00000000  1
  O  O14  1  0.50000000  0.25455349  0.00000000  1
  O  O15  1  0.50000000  0.74544651  -0.00000000  1
loop_
_geom_bond_atom_site_label_1
_geom_bond_atom_site_label_2
_geom_bond_distance
_geom_bond_site_symmetry_2
Li0 O8 2.114668 1_554
Li0 O8 2.114668 1_555
Li0 O2 2.142251 1_455
Li0 O0 2.142251 1_555
Li0 O13 2.398728 1_545
Li0 O12 2.398728 1_555
Mg0 O0 2.101767 1_555
Mg0 O2 2.101767 1_555
Mg0 O10 2.114668 1_555
Mg0 O10 2.114668 1_554
Mg0 O15 2.142387 1_545
Mg0 O14 2.142387 1_555
Mg1 O14 2.065740 1_555
Mg1 O15 2.065740 1_555
Mg1 O11 2.114668 1_554
Mg1 O11 2.114668 1_555
Mg1 O3 2.213626 1_555
Mg1 O1 2.213626 1_555
Mg2 O8 2.089020 1_555
Mg2 O6 2.105872 1_455
Mg2 O4 2.105872 1_555
Mg2 O9 2.119107 1_555
Mg2 O12 2.137227 1_556
Mg2 O12 2.137227 1_555
Mg3 O8 2.089020 1_565
Mg3 O7 2.105872 1_455
Mg3 O5 2.105872 1_555
Mg3 O9 2.119107 1_555
Mg3 O13 2.137227 1_555
Mg3 O13 2.137227 1_556
Mg4 O10 2.091709 1_555
Mg4 O14 2.115275 1_555
Mg4 O14 2.115275 1_556
Mg4 O11 2.116419 1_555
Mg4 O6 2.138416 1_555
Mg4 O4 2.138416 1_555
Mg5 O10 2.091709 1_565
Mg5 O15 2.115275 1_556
Mg5 O15 2.115275 1_555
Mg5 O11 2.116419 1_555
Mg5 O5 2.138416 1_555
Mg5 O7 2.138416 1_555
Mg6 O8 2.071071 1_555
Mg6 O4 2.114554 1_555
Mg6 O5 2.114554 1_545
Mg6 O0 2.115865 1_555
Mg6 O0 2.115865 1_556
Mg6 O10 2.172946 1_555
Mg7 O9 2.074942 1_555
Mg7 O4 2.094083 1_555
Mg7 O5 2.094083 1_555
Mg7 O1 2.115137 1_556
Mg7 O1 2.115137 1_555
Mg7 O11 2.169075 1_555
Mg8 O8 2.071071 1_655
Mg8 O6 2.114554 1_555
Mg8 O7 2.114554 1_545
Mg8 O2 2.115865 1_556
Mg8 O2 2.115865 1_555
Mg8 O10 2.172946 1_555
Mg9 O9 2.074942 1_655
Mg9 O6 2.094083 1_555
Mg9 O7 2.094083 1_555
Mg9 O3 2.115137 1_556
Mg9 O3 2.115137 1_555
Mg9 O11 2.169075 1_555
Mg10 O0 2.085449 1_555
Mg10 O4 2.114873 1_554
Mg10 O4 2.114873 1_555
Mg10 O1 2.124271 1_555
Mg10 O12 2.125073 1_555
Mg10 O14 2.142989 1_555
Mg11 O0 2.085449 1_565
Mg11 O5 2.114873 1_554
Mg11 O5 2.114873 1_555
Mg11 O1 2.124271 1_555
Mg11 O13 2.125073 1_555
Mg11 O15 2.142989 1_555
Mg12 O2 2.085449 1_555
Mg12 O6 2.114873 1_555
Mg12 O6 2.114873 1_554
Mg12 O3 2.124271 1_555
Mg12 O12 2.125073 1_655
Mg12 O14 2.142989 1_555
Mg13 O2 2.085449 1_565
Mg13 O7 2.114873 1_555
Mg13 O7 2.114873 1_554
Mg13 O3 2.124271 1_555
Mg13 O13 2.125073 1_655
Mg13 O15 2.142989 1_555
C0 O12 1.809399 1_555
C0 O13 1.809399 1_555
C0 O1 2.030391 1_555
C0 O3 2.030391 1_455
C0 O9 2.114668 1_554
C0 O9 2.114668 1_555
