# generated using pymatgen
data_Ag2Hg
_symmetry_space_group_name_H-M   'P 1'
_cell_length_a   6.11343917
_cell_length_b   6.11343917
_cell_length_c   14.19086786
_cell_angle_alpha   90.00000000
_cell_angle_beta   90.00000000
_cell_angle_gamma   120.00000138
_symmetry_Int_Tables_number   1
_chemical_formula_structural   Ag2Hg
_chemical_formula_sum   'Ag16 Hg8'
_cell_volume   459.31515155
_cell_formula_units_Z   8
loop_
 _symmetry_equiv_pos_site_id
 _symmetry_equiv_pos_as_xyz
  1  'x, y, z'
loop_
 _atom_site_type_symbol
 _atom_site_label
 _atom_site_symmetry_multiplicity
 _atom_site_fract_x
 _atom_site_fract_y
 _atom_site_fract_z
 _atom_site_occupancy
  Ag  Ag0_0  1  0.16666650  0.33333350  0.32892203  1
  Ag  Ag0_1  1  0.16666650  0.33333350  0.82892203  1
  Ag  Ag0_2  1  0.16666650  0.83333350  0.32892203  1
  Ag  Ag0_3  1  0.16666650  0.83333350  0.82892203  1
  Ag  Ag0_4  1  0.66666650  0.33333350  0.32892203  1
  Ag  Ag0_5  1  0.66666650  0.33333350  0.82892203  1
  Ag  Ag0_6  1  0.66666650  0.83333350  0.32892203  1
  Ag  Ag0_7  1  0.66666650  0.83333350  0.82892203  1
  Ag  Ag1_0  1  0.33333350  0.16666650  0.17107797  1
  Ag  Ag1_1  1  0.33333350  0.16666650  0.67107797  1
  Ag  Ag1_2  1  0.33333350  0.66666650  0.17107797  1
  Ag  Ag1_3  1  0.33333350  0.66666650  0.67107797  1
  Ag  Ag1_4  1  0.83333350  0.16666650  0.17107797  1
  Ag  Ag1_5  1  0.83333350  0.16666650  0.67107797  1
  Ag  Ag1_6  1  0.83333350  0.66666650  0.17107797  1
  Ag  Ag1_7  1  0.83333350  0.66666650  0.67107797  1
  Hg  Hg0_0  1  0.00000000  0.00000000  0.00000000  1
  Hg  Hg0_1  1  0.00000000  0.00000000  0.50000000  1
  Hg  Hg0_2  1  0.00000000  0.50000000  0.00000000  1
  Hg  Hg0_3  1  0.00000000  0.50000000  0.50000000  1
  Hg  Hg0_4  1  0.50000000  0.00000000  0.00000000  1
  Hg  Hg0_5  1  0.50000000  0.00000000  0.50000000  1
  Hg  Hg0_6  1  0.50000000  0.50000000  0.00000000  1
  Hg  Hg0_7  1  0.50000000  0.50000000  0.50000000  1
loop_
_geom_bond_atom_site_label_1
_geom_bond_atom_site_label_2
_geom_bond_distance
_geom_bond_site_symmetry_2
Ag0_0 Ag1_2 2.851641 1_555
Ag0_0 Ag1_4 2.851641 1_455
Ag0_0 Ag1_0 2.851644 1_555
Ag0_0 Hg0_3 3.001408 1_555
Ag0_0 Hg0_1 3.001410 1_555
Ag0_0 Hg0_7 3.001410 1_555
Ag0_0 Ag0_6 3.056720 1_445
Ag0_0 Ag0_6 3.056720 1_555
Ag0_0 Ag0_2 3.056720 1_555
Ag0_0 Ag0_4 3.056720 1_555
Ag0_0 Ag0_4 3.056720 1_455
Ag0_0 Ag0_2 3.056720 1_545
Ag0_1 Ag1_3 2.851641 1_555
Ag0_1 Ag1_5 2.851641 1_455
Ag0_1 Ag1_1 2.851644 1_555
Ag0_1 Hg0_2 3.001408 1_556
Ag0_1 Hg0_6 3.001410 1_556
Ag0_1 Hg0_0 3.001410 1_556
Ag0_1 Ag0_7 3.056720 1_445
Ag0_1 Ag0_7 3.056720 1_555
Ag0_1 Ag0_3 3.056720 1_555
Ag0_1 Ag0_5 3.056720 1_555
Ag0_1 Ag0_5 3.056720 1_455
Ag0_1 Ag0_3 3.056720 1_545
Ag0_2 Ag1_6 2.851641 1_455
Ag0_2 Ag1_0 2.851641 1_565
Ag0_2 Ag1_2 2.851644 1_555
Ag0_2 Hg0_1 3.001408 1_565
Ag0_2 Hg0_5 3.001410 1_565
Ag0_2 Hg0_3 3.001410 1_555
Ag0_2 Ag0_4 3.056720 1_565
Ag0_2 Ag0_4 3.056720 1_455
Ag0_2 Ag0_6 3.056720 1_455
Ag0_2 Ag0_6 3.056720 1_555
Ag0_3 Ag1_7 2.851641 1_455
Ag0_3 Ag1_1 2.851641 1_565
Ag0_3 Ag1_3 2.851644 1_555
Ag0_3 Hg0_0 3.001408 1_566
Ag0_3 Hg0_4 3.001410 1_566
Ag0_3 Hg0_2 3.001410 1_556
Ag0_3 Ag0_5 3.056720 1_565
Ag0_3 Ag0_5 3.056720 1_455
Ag0_3 Ag0_7 3.056720 1_455
Ag0_3 Ag0_7 3.056720 1_555
Ag0_4 Ag1_0 2.851641 1_555
Ag0_4 Ag1_6 2.851641 1_555
Ag0_4 Ag1_4 2.851644 1_555
Ag0_4 Hg0_7 3.001408 1_555
Ag0_4 Hg0_5 3.001410 1_555
Ag0_4 Hg0_3 3.001410 1_655
Ag0_4 Ag0_6 3.056720 1_555
Ag0_4 Ag0_6 3.056720 1_545
Ag0_5 Ag1_1 2.851641 1_555
Ag0_5 Ag1_7 2.851641 1_555
Ag0_5 Ag1_5 2.851644 1_555
Ag0_5 Hg0_6 3.001408 1_556
Ag0_5 Hg0_4 3.001410 1_556
Ag0_5 Hg0_2 3.001410 1_656
Ag0_5 Ag0_7 3.056720 1_555
Ag0_5 Ag0_7 3.056720 1_545
Ag0_6 Ag1_4 2.851641 1_565
Ag0_6 Ag1_2 2.851641 1_555
Ag0_6 Ag1_6 2.851644 1_555
Ag0_6 Hg0_5 3.001408 1_565
Ag0_6 Hg0_1 3.001410 1_665
Ag0_6 Hg0_7 3.001410 1_555
Ag0_7 Ag1_5 2.851641 1_565
Ag0_7 Ag1_3 2.851641 1_555
Ag0_7 Ag1_7 2.851644 1_555
Ag0_7 Hg0_4 3.001408 1_566
Ag0_7 Hg0_0 3.001410 1_666
Ag0_7 Hg0_6 3.001410 1_556
Ag1_0 Hg0_4 3.001408 1_555
Ag1_0 Hg0_6 3.001410 1_555
Ag1_0 Hg0_0 3.001410 1_555
Ag1_0 Ag1_6 3.056720 1_445
Ag1_0 Ag1_6 3.056720 1_555
Ag1_0 Ag1_2 3.056720 1_555
Ag1_0 Ag1_4 3.056720 1_555
Ag1_0 Ag1_4 3.056720 1_455
Ag1_0 Ag1_2 3.056720 1_545
Ag1_1 Hg0_5 3.001408 1_555
Ag1_1 Hg0_1 3.001410 1_555
Ag1_1 Hg0_7 3.001410 1_555
Ag1_1 Ag1_7 3.056720 1_445
Ag1_1 Ag1_7 3.056720 1_555
Ag1_1 Ag1_3 3.056720 1_555
Ag1_1 Ag1_5 3.056720 1_555
Ag1_1 Ag1_5 3.056720 1_455
Ag1_1 Ag1_3 3.056720 1_545
Ag1_2 Hg0_6 3.001408 1_555
Ag1_2 Hg0_2 3.001410 1_555
Ag1_2 Hg0_4 3.001410 1_565
Ag1_2 Ag1_4 3.056720 1_455
Ag1_2 Ag1_4 3.056720 1_565
Ag1_2 Ag1_6 3.056720 1_555
Ag1_2 Ag1_6 3.056720 1_455
Ag1_3 Hg0_7 3.001408 1_555
Ag1_3 Hg0_3 3.001410 1_555
Ag1_3 Hg0_5 3.001410 1_565
Ag1_3 Ag1_5 3.056720 1_455
Ag1_3 Ag1_5 3.056720 1_565
Ag1_3 Ag1_7 3.056720 1_555
Ag1_3 Ag1_7 3.056720 1_455
Ag1_4 Hg0_0 3.001408 1_655
Ag1_4 Hg0_4 3.001410 1_555
Ag1_4 Hg0_2 3.001410 1_655
Ag1_4 Ag1_6 3.056720 1_545
Ag1_4 Ag1_6 3.056720 1_555
Ag1_5 Hg0_1 3.001408 1_655
Ag1_5 Hg0_3 3.001410 1_655
Ag1_5 Hg0_5 3.001410 1_555
Ag1_5 Ag1_7 3.056720 1_545
Ag1_5 Ag1_7 3.056720 1_555
Ag1_6 Hg0_2 3.001408 1_655
Ag1_6 Hg0_0 3.001410 1_665
Ag1_6 Hg0_6 3.001410 1_555
Ag1_7 Hg0_3 3.001408 1_655
Ag1_7 Hg0_1 3.001410 1_665
Ag1_7 Hg0_7 3.001410 1_555
Hg0_0 Hg0_6 3.056720 1_445
Hg0_0 Hg0_6 3.056720 1_555
Hg0_0 Hg0_2 3.056720 1_545
Hg0_0 Hg0_2 3.056720 1_555
Hg0_0 Hg0_4 3.056720 1_455
Hg0_0 Hg0_4 3.056720 1_555
Hg0_1 Hg0_7 3.056720 1_555
Hg0_1 Hg0_7 3.056720 1_445
Hg0_1 Hg0_3 3.056720 1_545
Hg0_1 Hg0_5 3.056720 1_455
Hg0_1 Hg0_5 3.056720 1_555
Hg0_1 Hg0_3 3.056720 1_555
Hg0_2 Hg0_4 3.056720 1_455
Hg0_2 Hg0_4 3.056720 1_565
Hg0_2 Hg0_6 3.056720 1_555
Hg0_2 Hg0_6 3.056720 1_455
Hg0_3 Hg0_5 3.056720 1_455
Hg0_3 Hg0_5 3.056720 1_565
Hg0_3 Hg0_7 3.056720 1_455
Hg0_3 Hg0_7 3.056720 1_555
Hg0_4 Hg0_6 3.056720 1_545
Hg0_4 Hg0_6 3.056720 1_555
Hg0_5 Hg0_7 3.056720 1_545
Hg0_5 Hg0_7 3.056720 1_555
