# generated using pymatgen
data_K5Na3Nb7WO20
_symmetry_space_group_name_H-M   'P 1'
_cell_length_a   11.59205169
_cell_length_b   11.76466710
_cell_length_c   17.75724606
_cell_angle_alpha   109.48198844
_cell_angle_beta   108.95697956
_cell_angle_gamma   90.23762809
_symmetry_Int_Tables_number   1
_chemical_formula_structural   K5Na3Nb7WO20
_chemical_formula_sum   'K20 Na12 Nb28 W4 O80'
_cell_volume   2141.94517569
_cell_formula_units_Z   4
loop_
 _symmetry_equiv_pos_site_id
 _symmetry_equiv_pos_as_xyz
  1  'x, y, z'
loop_
 _atom_site_type_symbol
 _atom_site_label
 _atom_site_symmetry_multiplicity
 _atom_site_fract_x
 _atom_site_fract_y
 _atom_site_fract_z
 _atom_site_occupancy
  K  K0  1  0.30539800  0.06215100  0.11229100  1
  K  K1  1  0.30248200  0.56289900  0.10570800  1
  K  K2  1  0.79760900  0.06099600  0.10397500  1
  K  K3  1  0.81238400  0.55943900  0.11801900  1
  K  K4  1  0.81266900  0.57182200  0.62173300  1
  K  K5  1  0.20423800  0.93662500  0.39542800  1
  K  K6  1  0.19660000  0.93002300  0.88055700  1
  K  K7  1  0.69815400  0.44051400  0.38922900  1
  K  K8  1  0.68700500  0.42648600  0.88029300  1
  K  K9  1  0.69259000  0.92900000  0.38302100  1
  K  K10  1  0.69021400  0.92053000  0.87588800  1
  K  K11  1  0.04834600  0.29077800  0.10786900  1
  K  K12  1  0.06006900  0.79111000  0.10739300  1
  K  K13  1  0.55661800  0.30364400  0.11377800  1
  K  K14  1  0.56022600  0.80016400  0.11900600  1
  K  K15  1  0.44322500  0.20274200  0.38861500  1
  K  K16  1  0.45408800  0.71444500  0.39747900  1
  K  K17  1  0.44762000  0.70751300  0.89149800  1
  K  K18  1  0.94827200  0.69382400  0.38449400  1
  K  K19  1  0.94022800  0.69644800  0.87944700  1
  Na  Na0  1  0.29736000  0.07898400  0.60469200  1
  Na  Na1  1  0.30365900  0.57182300  0.60292200  1
  Na  Na2  1  0.80181400  0.06408800  0.59766500  1
  Na  Na3  1  0.20344000  0.43677000  0.40555800  1
  Na  Na4  1  0.19718500  0.43057700  0.89671900  1
  Na  Na5  1  0.04821100  0.27722600  0.60449500  1
  Na  Na6  1  0.06075800  0.79200400  0.60787100  1
  Na  Na7  1  0.55228400  0.28943400  0.60324500  1
  Na  Na8  1  0.55632300  0.79062600  0.60970200  1
  Na  Na9  1  0.44368900  0.21424700  0.89666100  1
  Na  Na10  1  0.95475900  0.22156500  0.40694200  1
  Na  Na11  1  0.94695000  0.21378700  0.89870100  1
  Nb  Nb0  1  0.00534600  0.00010600  0.50193300  1
  Nb  Nb1  1  0.00953100  0.50324100  0.50503700  1
  Nb  Nb2  1  0.50855600  0.00577400  0.50828800  1
  Nb  Nb3  1  0.50013700  0.49909900  0.99740800  1
  Nb  Nb4  1  0.50680800  0.50322100  0.50341400  1
  Nb  Nb5  1  0.24854500  0.24750000  0.99637000  1
  Nb  Nb6  1  0.25562900  0.25451200  0.50454300  1
  Nb  Nb7  1  0.25941200  0.75271300  0.50469300  1
  Nb  Nb8  1  0.74625300  0.24430500  0.99432700  1
  Nb  Nb9  1  0.75696600  0.24935400  0.50122700  1
  Nb  Nb10  1  0.75217800  0.74518100  0.99912600  1
  Nb  Nb11  1  0.75934800  0.75199300  0.50467900  1
  Nb  Nb12  1  0.09096400  0.08428800  0.25350300  1
  Nb  Nb13  1  0.08514300  0.08437800  0.74577700  1
  Nb  Nb14  1  0.14828000  0.57196600  0.25451500  1
  Nb  Nb15  1  0.13852700  0.56695500  0.74854200  1
  Nb  Nb16  1  0.62335200  0.10251700  0.25040500  1
  Nb  Nb17  1  0.58207200  0.08129000  0.74485700  1
  Nb  Nb18  1  0.60377400  0.59485100  0.25126000  1
  Nb  Nb19  1  0.58930900  0.57477400  0.74478800  1
  Nb  Nb20  1  0.34768700  0.42336500  0.25366900  1
  Nb  Nb21  1  0.33943800  0.42447700  0.74616900  1
  Nb  Nb22  1  0.36131100  0.90465300  0.25160600  1
  Nb  Nb23  1  0.37232300  0.92802400  0.74440200  1
  Nb  Nb24  1  0.87098000  0.39649000  0.25181000  1
  Nb  Nb25  1  0.86575000  0.39274300  0.74647000  1
  Nb  Nb26  1  0.89381100  0.93037000  0.25405000  1
  Nb  Nb27  1  0.87534900  0.93593500  0.74743000  1
  W  W0  1  0.99847400  0.99527600  0.99498900  1
  W  W1  1  0.00064500  0.49438100  0.99713400  1
  W  W2  1  0.49986800  0.99851000  0.99511100  1
  W  W3  1  0.25113300  0.74608700  0.99516000  1
  O  O0  1  0.12555000  0.12586700  0.49938000  1
  O  O1  1  0.12168200  0.12096500  0.99361300  1
  O  O2  1  0.13197300  0.62212900  0.49857500  1
  O  O3  1  0.12255300  0.61276900  0.97933200  1
  O  O4  1  0.63096900  0.12789600  0.50204100  1
  O  O5  1  0.62214800  0.12577000  0.98752300  1
  O  O6  1  0.63182600  0.63080900  0.50672900  1
  O  O7  1  0.62735900  0.62211500  0.00109900  1
  O  O8  1  0.12808300  0.36397200  0.99644500  1
  O  O9  1  0.13426800  0.37952900  0.50832300  1
  O  O10  1  0.12467500  0.87361600  0.99880200  1
  O  O11  1  0.13886800  0.88010900  0.51405200  1
  O  O12  1  0.61927400  0.37145100  0.99551700  1
  O  O13  1  0.63385200  0.38048800  0.51256800  1
  O  O14  1  0.63561600  0.86812500  0.00339000  1
  O  O15  1  0.64025100  0.88771600  0.51801900  1
  O  O16  1  0.37856600  0.12896800  0.50293200  1
  O  O17  1  0.36795400  0.12863200  0.99110600  1
  O  O18  1  0.37857800  0.62246400  0.49917500  1
  O  O19  1  0.37550800  0.61747000  0.99278400  1
  O  O20  1  0.87673400  0.11968100  0.49054600  1
  O  O21  1  0.86953300  0.11654800  0.98651500  1
  O  O22  1  0.88484700  0.62666500  0.50326700  1
  O  O23  1  0.86811600  0.62355700  0.99433400  1
  O  O24  1  0.37015200  0.37052800  0.99380500  1
  O  O25  1  0.37964500  0.38008700  0.50765000  1
  O  O26  1  0.37775700  0.87438600  0.00636700  1
  O  O27  1  0.38910300  0.88435700  0.51659500  1
  O  O28  1  0.86959800  0.36600000  0.99971000  1
  O  O29  1  0.89032500  0.37848200  0.51570500  1
  O  O30  1  0.87408900  0.87014500  0.99625800  1
  O  O31  1  0.88452900  0.87803500  0.50608200  1
  O  O32  1  0.05822700  0.07158300  0.13719700  1
  O  O33  1  0.06019300  0.08896400  0.63399900  1
  O  O34  1  0.08729700  0.57712500  0.14140500  1
  O  O35  1  0.09407500  0.59282900  0.64301800  1
  O  O36  1  0.57025900  0.08420800  0.13296500  1
  O  O37  1  0.56937900  0.10717800  0.64209400  1
  O  O38  1  0.55912100  0.55948500  0.12846400  1
  O  O39  1  0.56669800  0.58644000  0.63622800  1
  O  O40  1  0.44435600  0.42889500  0.36837600  1
  O  O41  1  0.42938000  0.43108900  0.85905200  1
  O  O42  1  0.44020000  0.93370400  0.37508100  1
  O  O43  1  0.43528500  0.91475300  0.85271500  1
  O  O44  1  0.93820100  0.41740800  0.37330800  1
  O  O45  1  0.92811300  0.39007100  0.85794800  1
  O  O46  1  0.95255900  0.91121000  0.36260300  1
  O  O47  1  0.93752500  0.91591000  0.85423000  1
  O  O48  1  0.31295200  0.31748600  0.13551500  1
  O  O49  1  0.31768900  0.30342300  0.63586300  1
  O  O50  1  0.31491700  0.80675800  0.13325100  1
  O  O51  1  0.33684200  0.79426600  0.64009700  1
  O  O52  1  0.81217900  0.30113000  0.12873300  1
  O  O53  1  0.83840700  0.27559500  0.63738800  1
  O  O54  1  0.83900400  0.81009700  0.14113300  1
  O  O55  1  0.85010200  0.80632400  0.64466900  1
  O  O56  1  0.18596000  0.19408700  0.36735100  1
  O  O57  1  0.17637000  0.18704500  0.85967900  1
  O  O58  1  0.19998600  0.69482100  0.36865400  1
  O  O59  1  0.19690100  0.69229800  0.85522300  1
  O  O60  1  0.69070900  0.20285700  0.37306200  1
  O  O61  1  0.67423600  0.18580200  0.85710300  1
  O  O62  1  0.68504000  0.68801500  0.37566000  1
  O  O63  1  0.67306000  0.67415900  0.86311900  1
  O  O64  1  0.47124100  0.03644100  0.25385200  1
  O  O65  1  0.40990200  0.09721200  0.74650600  1
  O  O66  1  0.44146700  0.56550700  0.25285900  1
  O  O67  1  0.41723300  0.57102300  0.73692000  1
  O  O68  1  0.92784600  0.10632100  0.26483100  1
  O  O69  1  0.91240200  0.10275200  0.74700600  1
  O  O70  1  0.98492100  0.51709000  0.25382600  1
  O  O71  1  0.96865900  0.52075200  0.74831300  1
  O  O72  1  0.18505300  0.40835200  0.26574800  1
  O  O73  1  0.16605000  0.39569400  0.74686100  1
  O  O74  1  0.20363300  0.95355300  0.25447300  1
  O  O75  1  0.19683700  0.95457700  0.73411000  1
  O  O76  1  0.73554000  0.48711900  0.25324900  1
  O  O77  1  0.71128300  0.45429300  0.73570800  1
  O  O78  1  0.73009700  0.97913700  0.25456900  1
  O  O79  1  0.69926600  0.95521700  0.73415900  1
loop_
_geom_bond_atom_site_label_1
_geom_bond_atom_site_label_2
_geom_bond_distance
_geom_bond_site_symmetry_2
K0 O26 2.718467 1_545
K0 O64 2.734664 1_555
K0 O1 2.743025 1_554
K0 O10 2.758029 1_544
K0 O17 2.810710 1_554
K0 O48 2.889531 1_555
K0 O36 2.970904 1_555
K0 O32 3.034897 1_555
K0 O50 3.146490 1_545
K1 O66 2.575909 1_555
K1 O19 2.665847 1_554
K1 O50 2.739620 1_555
K1 O3 2.752780 1_554
K1 O34 2.758992 1_555
K1 O8 2.777061 1_554
K1 O24 2.777341 1_554
K1 O38 2.871607 1_555
K1 O48 3.100210 1_555
K2 O68 2.626401 1_555
K2 O14 2.635771 1_545
K2 O52 2.705980 1_555
K2 O5 2.706480 1_554
K2 O21 2.739940 1_554
K2 O30 2.782016 1_544
K2 O36 2.842332 1_555
K2 O32 2.877582 1_655
K2 O54 3.237833 1_545
K3 O7 2.755997 1_555
K3 O70 2.782087 1_555
K3 O28 2.785894 1_554
K3 O23 2.798762 1_554
K3 O54 2.839467 1_555
K3 O12 2.867123 1_554
K3 O38 3.001212 1_555
K3 O34 3.073843 1_655
K3 O52 3.107589 1_555
K3 O76 3.167010 1_555
K4 O71 2.636671 1_555
K4 O55 2.662916 1_555
K4 O6 2.687473 1_555
K4 O13 2.749804 1_555
K4 O22 2.754273 1_555
K4 O29 2.791148 1_555
K4 O39 2.945701 1_555
K4 O35 3.158322 1_655
K4 O77 3.284468 1_555
K5 O74 2.574040 1_555
K5 O58 2.720755 1_555
K5 O11 2.724053 1_555
K5 O16 2.724465 1_565
K5 O27 2.738156 1_555
K5 O0 2.750577 1_565
K5 O46 2.777132 1_455
K5 O42 2.871950 1_555
K6 O59 2.680693 1_555
K6 O75 2.711408 1_555
K6 O10 2.757997 1_555
K6 O17 2.761748 1_565
K6 O26 2.787107 1_556
K6 O1 2.823395 1_565
K6 O47 2.880502 1_455
K6 O43 2.960709 1_555
K6 O57 3.167462 1_565
K7 O60 2.711777 1_555
K7 O22 2.781294 1_555
K7 O76 2.807115 1_555
K7 O6 2.810239 1_555
K7 O13 2.817638 1_555
K7 O40 2.840157 1_555
K7 O44 2.891890 1_555
K7 O29 2.897437 1_555
K7 O62 3.001233 1_555
K8 O12 2.673048 1_555
K8 O61 2.718165 1_555
K8 O28 2.754256 1_555
K8 O77 2.794076 1_555
K8 O23 2.819490 1_555
K8 O7 2.839102 1_556
K8 O41 2.889102 1_555
K8 O45 2.961371 1_555
K8 O63 3.028845 1_555
K9 O78 2.698023 1_555
K9 O20 2.773042 1_565
K9 O62 2.793906 1_555
K9 O31 2.794861 1_555
K9 O15 2.840715 1_555
K9 O4 2.854536 1_565
K9 O42 2.884667 1_555
K9 O46 3.149825 1_555
K10 O30 2.712709 1_555
K10 O79 2.714346 1_555
K10 O14 2.786682 1_556
K10 O21 2.789872 1_565
K10 O63 2.831899 1_555
K10 O43 2.845430 1_555
K10 O5 2.867355 1_565
K10 O47 3.012198 1_555
K10 O61 3.247188 1_565
K11 O72 2.606318 1_555
K11 O21 2.694083 1_454
K11 O1 2.694677 1_554
K11 O28 2.707140 1_454
K11 O32 2.791739 1_555
K11 O8 2.797985 1_554
K11 O52 2.877244 1_455
K11 O48 2.942616 1_555
K11 O34 3.222067 1_555
K12 O74 2.657700 1_555
K12 O23 2.699794 1_454
K12 O10 2.720661 1_554
K12 O34 2.774691 1_555
K12 O30 2.807717 1_454
K12 O54 2.808694 1_455
K12 O3 2.828105 1_554
K12 O50 2.833702 1_555
K12 O32 3.164093 1_565
K13 O36 2.713075 1_555
K13 O17 2.764622 1_554
K13 O12 2.770818 1_554
K13 O24 2.823171 1_554
K13 O5 2.823605 1_554
K13 O76 2.855579 1_555
K13 O52 2.888336 1_555
K13 O38 2.932414 1_555
K13 O48 2.970532 1_555
K14 O7 2.742941 1_555
K14 O78 2.758744 1_555
K14 O26 2.769236 1_555
K14 O19 2.803321 1_554
K14 O14 2.805836 1_555
K14 O38 2.892076 1_555
K14 O50 2.934680 1_555
K14 O54 3.122915 1_555
K14 O36 3.266092 1_565
K15 O64 2.654638 1_555
K15 O25 2.729002 1_555
K15 O16 2.755750 1_555
K15 O13 2.798568 1_555
K15 O40 2.801567 1_555
K15 O4 2.814145 1_555
K15 O56 2.878689 1_555
K15 O60 2.970111 1_555
K15 O42 3.092464 1_545
K16 O66 2.537491 1_555
K16 O27 2.695318 1_555
K16 O15 2.728726 1_555
K16 O42 2.735715 1_555
K16 O18 2.742413 1_555
K16 O6 2.769445 1_555
K16 O58 2.815600 1_555
K16 O62 2.831028 1_555
K17 O67 2.581481 1_555
K17 O14 2.629770 1_556
K17 O26 2.661963 1_556
K17 O19 2.701128 1_555
K17 O43 2.738247 1_555
K17 O59 2.756131 1_555
K17 O7 2.797368 1_556
K17 O63 2.823042 1_555
K17 O41 3.101253 1_555
K18 O70 2.705039 1_555
K18 O46 2.714565 1_555
K18 O2 2.775189 1_655
K18 O22 2.779789 1_555
K18 O31 2.798750 1_555
K18 O11 2.876021 1_655
K18 O62 3.003404 1_555
K18 O58 3.021331 1_655
K18 O76 3.140426 1_555
K18 O44 3.190476 1_555
K19 O71 2.664053 1_555
K19 O30 2.699087 1_555
K19 O3 2.707106 1_655
K19 O10 2.734974 1_655
K19 O47 2.762319 1_555
K19 O23 2.804465 1_555
K19 O63 3.017205 1_555
K19 O59 3.139898 1_655
Na0 O65 2.364825 1_555
Na0 O0 2.458695 1_555
Na0 O49 2.503820 1_555
Na0 O16 2.511260 1_555
Na0 O11 2.640347 1_545
Na0 O27 2.744621 1_545
Na0 O33 2.955419 1_555
Na0 O37 2.996310 1_555
Na1 O67 2.318366 1_555
Na1 O2 2.467739 1_555
Na1 O51 2.471158 1_555
Na1 O18 2.504081 1_555
Na1 O9 2.660944 1_555
Na1 O25 2.676826 1_555
Na1 O35 2.735327 1_555
Na1 O39 2.903944 1_555
Na2 O53 2.344199 1_555
Na2 O69 2.421691 1_555
Na2 O4 2.458988 1_555
Na2 O15 2.470348 1_545
Na2 O20 2.588156 1_555
Na2 O31 2.647892 1_545
Na2 O33 2.843245 1_655
Na3 O72 2.328664 1_555
Na3 O9 2.488437 1_555
Na3 O25 2.512996 1_555
Na3 O2 2.582909 1_555
Na3 O18 2.646862 1_555
Na3 O56 2.695682 1_555
Na3 O44 2.931992 1_455
Na4 O73 2.454849 1_555
Na4 O24 2.463669 1_555
Na4 O8 2.496719 1_555
Na4 O3 2.497475 1_555
Na4 O19 2.680828 1_555
Na4 O57 2.708074 1_555
Na4 O45 2.967065 1_455
Na4 O41 2.977325 1_555
Na5 O73 2.364264 1_555
Na5 O33 2.434863 1_555
Na5 O20 2.517033 1_455
Na5 O0 2.518349 1_555
Na5 O29 2.578890 1_455
Na5 O53 2.680760 1_455
Na5 O9 2.797859 1_555
Na5 O49 2.985029 1_555
Na6 O75 2.447276 1_555
Na6 O22 2.547201 1_455
Na6 O11 2.606490 1_555
Na6 O35 2.618353 1_555
Na6 O2 2.628638 1_555
Na6 O31 2.702416 1_455
Na6 O55 2.717554 1_455
Na7 O37 2.452349 1_555
Na7 O16 2.487351 1_555
Na7 O4 2.544510 1_555
Na7 O13 2.601060 1_555
Na7 O77 2.608093 1_555
Na7 O25 2.653681 1_555
Na7 O49 2.953204 1_555
Na8 O79 2.473660 1_555
Na8 O6 2.530788 1_555
Na8 O39 2.593670 1_555
Na8 O18 2.600034 1_555
Na8 O27 2.618876 1_555
Na8 O15 2.676191 1_555
Na8 O51 2.764770 1_555
Na9 O24 2.436313 1_555
Na9 O65 2.454954 1_555
Na9 O12 2.475200 1_555
Na9 O17 2.583387 1_555
Na9 O5 2.633583 1_555
Na9 O41 2.837151 1_555
Na9 O57 2.943726 1_555
Na9 O61 2.969522 1_555
Na10 O68 2.346583 1_555
Na10 O29 2.503284 1_555
Na10 O9 2.515359 1_655
Na10 O20 2.551295 1_555
Na10 O44 2.559130 1_555
Na10 O0 2.649775 1_655
Na10 O60 2.913594 1_555
Na10 O56 2.976815 1_655
Na11 O45 2.403058 1_555
Na11 O69 2.463821 1_555
Na11 O8 2.469614 1_655
Na11 O28 2.478654 1_555
Na11 O21 2.576072 1_555
Na11 O1 2.676505 1_655
Na11 O57 2.951374 1_655
Na11 O61 2.993309 1_555
Nb0 O31 2.037219 1_445
Nb0 O0 2.049721 1_555
Nb0 O20 2.062484 1_455
Nb0 O33 2.094564 1_555
Nb0 O11 2.106965 1_545
Nb0 O46 2.207848 1_445
Nb1 O2 2.044611 1_555
Nb1 O22 2.053477 1_455
Nb1 O9 2.057125 1_555
Nb1 O44 2.082275 1_455
Nb1 O29 2.106744 1_455
Nb1 O35 2.187101 1_555
Nb2 O27 2.058259 1_545
Nb2 O4 2.069242 1_555
Nb2 O15 2.072625 1_545
Nb2 O42 2.093024 1_545
Nb2 O16 2.096942 1_555
Nb2 O37 2.140023 1_555
Nb3 O19 2.012244 1_555
Nb3 O7 2.032230 1_556
Nb3 O12 2.043848 1_555
Nb3 O38 2.060921 1_556
Nb3 O24 2.101516 1_555
Nb3 O41 2.173251 1_555
Nb4 O18 2.048959 1_555
Nb4 O6 2.055328 1_555
Nb4 O13 2.073358 1_555
Nb4 O39 2.095956 1_555
Nb4 O25 2.098597 1_555
Nb4 O40 2.122952 1_555
Nb5 O8 1.960459 1_555
Nb5 O17 1.973146 1_555
Nb5 O24 2.037877 1_555
Nb5 O1 2.065811 1_555
Nb5 O57 2.149777 1_555
Nb5 O48 2.186257 1_556
Nb6 O25 2.031940 1_555
Nb6 O9 2.039491 1_555
Nb6 O16 2.056441 1_555
Nb6 O49 2.073145 1_555
Nb6 O0 2.090787 1_555
Nb6 O56 2.157363 1_555
Nb7 O11 2.056366 1_555
Nb7 O27 2.063824 1_555
Nb7 O18 2.066691 1_555
Nb7 O2 2.078432 1_555
Nb7 O58 2.142757 1_555
Nb7 O51 2.153122 1_555
Nb8 O5 1.946022 1_555
Nb8 O28 1.976419 1_555
Nb8 O21 2.080406 1_555
Nb8 O12 2.102848 1_555
Nb8 O52 2.115099 1_556
Nb8 O61 2.159430 1_555
Nb9 O60 2.024620 1_555
Nb9 O4 2.045832 1_555
Nb9 O29 2.055606 1_555
Nb9 O20 2.070385 1_555
Nb9 O13 2.110717 1_555
Nb9 O53 2.202088 1_555
Nb10 O23 1.967202 1_555
Nb10 O14 1.983216 1_556
Nb10 O7 2.059218 1_556
Nb10 O30 2.059263 1_555
Nb10 O63 2.140224 1_555
Nb10 O54 2.239439 1_556
Nb11 O62 2.029659 1_555
Nb11 O31 2.058924 1_555
Nb11 O6 2.066691 1_555
Nb11 O22 2.075538 1_555
Nb11 O15 2.118997 1_555
Nb11 O55 2.220399 1_555
Nb12 O32 1.927724 1_555
Nb12 O56 1.941170 1_555
Nb12 O68 1.974705 1_455
Nb12 O74 2.022728 1_545
Nb13 O57 1.907427 1_555
Nb13 O33 1.929986 1_555
Nb13 O75 2.007714 1_545
Nb13 O69 2.021320 1_455
Nb14 O34 1.922691 1_555
Nb14 O58 1.950826 1_555
Nb14 O70 1.993102 1_455
Nb14 O72 2.033289 1_555
Nb15 O59 1.875252 1_555
Nb15 O35 1.903626 1_555
Nb15 O73 2.033131 1_555
Nb15 O71 2.038958 1_455
Nb16 O36 1.907748 1_555
Nb16 O78 1.915875 1_545
Nb16 O64 1.951328 1_555
Nb16 O60 1.979773 1_555
Nb17 O61 1.896538 1_555
Nb17 O37 1.908112 1_555
Nb17 O65 2.014098 1_555
Nb17 O79 2.019409 1_545
Nb18 O66 1.922441 1_555
Nb18 O38 1.963529 1_555
Nb18 O76 1.987854 1_555
Nb18 O62 1.998216 1_555
Nb19 O39 1.911062 1_555
Nb19 O63 1.936814 1_555
Nb19 O67 1.953059 1_555
Nb19 O77 2.011609 1_555
Nb20 O48 1.954340 1_555
Nb20 O40 1.958790 1_555
Nb20 O72 1.979052 1_555
Nb20 O66 1.997387 1_555
Nb21 O41 1.910118 1_555
Nb21 O49 1.934918 1_555
Nb21 O67 2.021095 1_555
Nb21 O73 2.041515 1_555
Nb22 O50 1.917970 1_555
Nb22 O74 1.929791 1_555
Nb22 O64 1.984611 1_565
Nb22 O42 1.988797 1_555
Nb23 O43 1.882951 1_555
Nb23 O51 1.905663 1_555
Nb23 O75 2.017656 1_555
Nb23 O65 2.021297 1_565
Nb24 O76 1.903744 1_555
Nb24 O70 1.918000 1_555
Nb24 O44 1.968354 1_555
Nb24 O52 1.972307 1_555
Nb25 O45 1.885234 1_555
Nb25 O53 1.889097 1_555
Nb25 O71 1.902364 1_555
Nb25 O77 1.909923 1_555
Nb26 O46 1.915317 1_555
Nb26 O54 1.923181 1_555
Nb26 O78 1.986879 1_555
Nb26 O68 2.038885 1_565
Nb27 O55 1.879856 1_555
Nb27 O47 1.892863 1_555
Nb27 O79 2.000079 1_555
Nb27 O69 2.010248 1_565
O1 W0 2.063062 1_445
O3 W3 2.043281 1_555
O3 W1 2.145794 1_555
O5 W2 2.123668 1_545
O8 W1 2.134085 1_555
O10 W0 2.052069 1_455
O10 W3 2.102188 1_555
O14 W2 2.207016 1_554
O17 W2 2.169845 1_545
O19 W3 2.094056 1_555
O21 W0 2.075342 1_545
O23 W1 2.166172 1_655
O26 W3 2.015908 1_554
O26 W2 2.130120 1_554
O28 W1 2.159434 1_655
O30 W0 2.066954 1_555
O32 W0 2.238021 1_444
O34 W1 2.275126 1_554
O36 W2 2.173420 1_544
O43 W2 2.242117 1_555
O45 W1 2.222540 1_655
O47 W0 2.215608 1_555
O50 W3 2.172378 1_554
O59 W3 2.214327 1_555
