# generated using pymatgen
data_Ca(MoO2)2
_symmetry_space_group_name_H-M   'P 1'
_cell_length_a   5.51427407
_cell_length_b   5.51427407
_cell_length_c   10.51628800
_cell_angle_alpha   90.00000000
_cell_angle_beta   90.00000000
_cell_angle_gamma   146.02150618
_symmetry_Int_Tables_number   1
_chemical_formula_structural   Ca(MoO2)2
_chemical_formula_sum   'Ca2 Mo4 O8'
_cell_volume   178.71419172
_cell_formula_units_Z   2
loop_
 _symmetry_equiv_pos_site_id
 _symmetry_equiv_pos_as_xyz
  1  'x, y, z'
loop_
 _atom_site_type_symbol
 _atom_site_label
 _atom_site_symmetry_multiplicity
 _atom_site_fract_x
 _atom_site_fract_y
 _atom_site_fract_z
 _atom_site_occupancy
  Ca  Ca0  1  0.61498100  0.38501900  0.75000000  1
  Ca  Ca1  1  0.38501900  0.61498100  0.25000000  1
  Mo  Mo0  1  0.13268800  0.86731200  0.07156700  1
  Mo  Mo1  1  0.86731200  0.13268800  0.92843300  1
  Mo  Mo2  1  0.13268800  0.86731200  0.42843300  1
  Mo  Mo3  1  0.86731200  0.13268800  0.57156700  1
  O  O0  1  0.76475300  0.23524700  0.38923300  1
  O  O1  1  0.23524700  0.76475300  0.61076700  1
  O  O2  1  0.23524700  0.76475300  0.88923300  1
  O  O3  1  0.76475300  0.23524700  0.11076700  1
  O  O4  1  0.03797200  0.96202800  0.25000000  1
  O  O5  1  0.96202800  0.03797200  0.75000000  1
  O  O6  1  0.50000000  0.50000000  0.00000000  1
  O  O7  1  0.50000000  0.50000000  0.50000000  1
loop_
_geom_bond_atom_site_label_1
_geom_bond_atom_site_label_2
_geom_bond_distance
_geom_bond_site_symmetry_2
Ca0 O5 2.280040 1_565
Ca0 O5 2.280040 1_455
Ca0 O1 2.519725 1_655
Ca0 O1 2.519725 1_545
Ca0 O2 2.519725 1_655
Ca0 O2 2.519725 1_545
Ca0 O6 2.895297 1_556
Ca0 O7 2.895297 1_555
Ca1 O4 2.280040 1_655
Ca1 O4 2.280040 1_545
Ca1 O0 2.519725 1_565
Ca1 O3 2.519725 1_455
Ca1 O0 2.519725 1_455
Ca1 O3 2.519725 1_565
Ca1 O7 2.895297 1_555
Ca1 O6 2.895297 1_555
Mo0 O4 2.125809 1_555
Mo0 O3 2.169385 1_455
Mo0 O3 2.169385 1_565
Mo0 O2 2.201551 1_554
Mo0 O6 2.262980 1_565
Mo0 O6 2.262980 1_455
Mo1 O5 2.125809 1_555
Mo1 O2 2.169385 1_655
Mo1 O2 2.169385 1_545
Mo1 O3 2.201551 1_556
Mo1 O6 2.262980 1_656
Mo1 O6 2.262980 1_546
Mo2 O4 2.125809 1_555
Mo2 O0 2.169385 1_455
Mo2 O0 2.169385 1_565
Mo2 O1 2.201551 1_555
Mo2 O7 2.262980 1_565
Mo2 O7 2.262980 1_455
Mo3 O5 2.125809 1_555
Mo3 O1 2.169385 1_655
Mo3 O1 2.169385 1_545
Mo3 O0 2.201551 1_555
Mo3 O7 2.262980 1_545
Mo3 O7 2.262980 1_655
