# generated using pymatgen
data_Sr4LaMn5O15
_symmetry_space_group_name_H-M   'P 1'
_cell_length_a   5.51658226
_cell_length_b   13.42986382
_cell_length_c   8.61547253
_cell_angle_alpha   104.25001400
_cell_angle_beta   108.63989096
_cell_angle_gamma   89.98748683
_symmetry_Int_Tables_number   1
_chemical_formula_structural   Sr4LaMn5O15
_chemical_formula_sum   'Sr8 La2 Mn10 O30'
_cell_volume   584.06048591
_cell_formula_units_Z   2
loop_
 _symmetry_equiv_pos_site_id
 _symmetry_equiv_pos_as_xyz
  1  'x, y, z'
loop_
 _atom_site_type_symbol
 _atom_site_label
 _atom_site_symmetry_multiplicity
 _atom_site_fract_x
 _atom_site_fract_y
 _atom_site_fract_z
 _atom_site_occupancy
  Sr  Sr0  1  0.60038200  0.20036500  0.20076000  1
  Sr  Sr1  1  0.60038300  0.70036300  0.20075700  1
  Sr  Sr2  1  0.39961900  0.29964200  0.79923800  1
  Sr  Sr3  1  0.39962400  0.79964900  0.79925900  1
  Sr  Sr4  1  0.20021500  0.39983200  0.40034200  1
  Sr  Sr5  1  0.20019400  0.89983500  0.40032900  1
  Sr  Sr6  1  0.79978500  0.10016800  0.59965500  1
  Sr  Sr7  1  0.79979000  0.60015800  0.59966100  1
  La  La0  1  0.00000000  0.99999100  0.00000600  1
  La  La1  1  0.00000200  0.49999600  0.00000200  1
  Mn  Mn0  1  0.00000200  0.24999000  0.99999400  1
  Mn  Mn1  1  0.79886800  0.84890200  0.59803600  1
  Mn  Mn2  1  0.20113500  0.65109600  0.40196800  1
  Mn  Mn3  1  0.60111600  0.45035300  0.20203900  1
  Mn  Mn4  1  0.39889600  0.04964100  0.79800000  1
  Mn  Mn5  1  0.00000200  0.74998800  0.99999500  1
  Mn  Mn6  1  0.79888300  0.34889400  0.59802200  1
  Mn  Mn7  1  0.20112300  0.15112000  0.40196600  1
  Mn  Mn8  1  0.60109800  0.95035300  0.20199900  1
  Mn  Mn9  1  0.39888700  0.54964800  0.79795900  1
  O  O0  1  0.50000200  0.00000400  0.00000100  1
  O  O1  1  0.50000300  0.50000300  0.00000400  1
  O  O2  1  0.00000800  0.24999700  0.49999700  1
  O  O3  1  0.99999800  0.75000100  0.50000000  1
  O  O4  1  0.49999400  0.24999700  0.49999700  1
  O  O5  1  0.49999400  0.75000000  0.50000000  1
  O  O6  1  0.90161400  0.30294800  0.80309800  1
  O  O7  1  0.90161400  0.80294100  0.80311200  1
  O  O8  1  0.09837900  0.19704800  0.19688700  1
  O  O9  1  0.09838200  0.69705800  0.19688800  1
  O  O10  1  0.70088300  0.40180700  0.40197500  1
  O  O11  1  0.70086500  0.90180300  0.40195700  1
  O  O12  1  0.29911900  0.09819800  0.59802600  1
  O  O13  1  0.29913800  0.59819700  0.59806000  1
  O  O14  1  0.60749500  0.45222400  0.70985900  1
  O  O15  1  0.60749300  0.95221900  0.70984700  1
  O  O16  1  0.39250500  0.04778000  0.29015100  1
  O  O17  1  0.39250100  0.54778400  0.29015400  1
  O  O18  1  0.89755400  0.04767400  0.29012100  1
  O  O19  1  0.89755600  0.54767800  0.29012200  1
  O  O20  1  0.10245800  0.45232900  0.70989500  1
  O  O21  1  0.10244700  0.95232400  0.70987600  1
  O  O22  1  0.19592200  0.14763500  0.90307700  1
  O  O23  1  0.19592700  0.64763800  0.90308800  1
  O  O24  1  0.80408000  0.35236400  0.09691200  1
  O  O25  1  0.80408200  0.85236200  0.09691300  1
  O  O26  1  0.29244800  0.35239400  0.09692200  1
  O  O27  1  0.29244800  0.85239300  0.09691800  1
  O  O28  1  0.70754200  0.14760700  0.90307200  1
  O  O29  1  0.70755000  0.64760600  0.90308400  1
loop_
_geom_bond_atom_site_label_1
_geom_bond_atom_site_label_2
_geom_bond_distance
_geom_bond_site_symmetry_2
La0 O18 2.663024 1_465
La0 O21 2.663147 1_554
La0 O16 2.664558 1_565
La0 O15 2.664636 1_454
La0 O27 2.679819 1_555
La0 O28 2.680102 1_464
La0 O25 2.681176 1_455
La0 O22 2.681470 1_564
La0 O7 2.716136 1_454
La0 O8 2.716177 1_565
La0 O0 2.758266 1_465
La0 O0 2.758316 1_565
La1 O20 2.662985 1_554
La1 O19 2.663065 1_455
La1 O14 2.664550 1_454
La1 O17 2.664578 1_555
La1 O26 2.679878 1_555
La1 O29 2.679978 1_454
La1 O24 2.681236 1_455
La1 O23 2.681376 1_554
La1 O6 2.716142 1_454
La1 O9 2.716246 1_555
La1 O1 2.758291 1_455
La1 O1 2.758291 1_555
Mn0 O8 1.919034 1_556
Mn0 O6 1.919183 1_455
Mn0 O28 1.940462 1_455
Mn0 O26 1.940578 1_556
Mn0 O22 1.940641 1_555
Mn0 O24 1.940806 1_456
Mn1 O11 1.912506 1_555
Mn1 O7 1.928866 1_555
Mn1 O5 1.937652 1_555
Mn1 O3 1.937732 1_555
Mn1 O15 1.989779 1_555
Mn1 O21 1.993215 1_655
Mn2 O13 1.912589 1_555
Mn2 O9 1.928904 1_555
Mn2 O5 1.937608 1_555
Mn2 O3 1.937775 1_455
Mn2 O17 1.989718 1_555
Mn2 O19 1.993186 1_455
Mn3 O10 1.908357 1_555
Mn3 O19 1.917794 1_555
Mn3 O17 1.918769 1_555
Mn3 O1 1.932903 1_555
Mn3 O24 1.966369 1_555
Mn3 O26 1.969536 1_555
Mn4 O12 1.908733 1_555
Mn4 O21 1.917752 1_545
Mn4 O15 1.918764 1_545
Mn4 O0 1.932542 1_556
Mn4 O22 1.966240 1_555
Mn4 O28 1.969493 1_555
Mn5 O9 1.918939 1_556
Mn5 O7 1.919045 1_455
Mn5 O29 1.940425 1_455
Mn5 O23 1.940582 1_555
Mn5 O27 1.940587 1_556
Mn5 O25 1.940799 1_456
Mn6 O10 1.912357 1_555
Mn6 O6 1.928756 1_555
Mn6 O2 1.937639 1_655
Mn6 O4 1.937672 1_555
Mn6 O14 1.990037 1_555
Mn6 O20 1.993313 1_655
Mn7 O12 1.912528 1_555
Mn7 O8 1.928647 1_555
Mn7 O4 1.937446 1_555
Mn7 O2 1.937468 1_555
Mn7 O16 1.990000 1_555
Mn7 O18 1.993365 1_455
Mn8 O11 1.908556 1_555
Mn8 O18 1.917812 1_565
Mn8 O16 1.918784 1_565
Mn8 O0 1.932626 1_565
Mn8 O25 1.966295 1_555
Mn8 O27 1.969466 1_555
Mn9 O13 1.908094 1_555
Mn9 O20 1.917710 1_555
Mn9 O14 1.918632 1_555
Mn9 O1 1.932942 1_556
Mn9 O23 1.966369 1_555
Mn9 O29 1.969510 1_555
O0 Sr3 2.763204 1_544
O0 Sr0 2.763318 1_555
O1 Sr1 2.763290 1_555
O1 Sr2 2.763337 1_554
O2 Sr6 2.732003 1_455
O2 Sr4 2.732008 1_555
O2 Sr2 2.733547 1_555
O2 Sr0 2.733565 1_455
O3 Sr5 2.732053 1_655
O3 Sr7 2.732131 1_555
O3 Sr1 2.733568 1_555
O3 Sr3 2.733686 1_655
O4 Sr6 2.731774 1_555
O4 Sr4 2.731798 1_555
O4 Sr2 2.732018 1_555
O4 Sr0 2.732019 1_555
O5 Sr5 2.731898 1_555
O5 Sr7 2.731938 1_555
O5 Sr1 2.732072 1_555
O5 Sr3 2.732152 1_555
O6 Sr2 2.758311 1_655
O6 Sr2 2.759083 1_555
O6 Sr6 2.797403 1_555
O7 Sr3 2.758316 1_655
O7 Sr3 2.759072 1_555
O7 Sr7 2.797459 1_555
O8 Sr0 2.758305 1_455
O8 Sr0 2.759094 1_555
O8 Sr4 2.797481 1_555
O9 Sr1 2.758303 1_455
O9 Sr1 2.759091 1_555
O9 Sr5 2.797365 1_555
O10 Sr7 2.732667 1_555
O10 Sr4 2.757612 1_555
O10 Sr4 2.759223 1_655
O10 Sr0 2.776489 1_555
O11 Sr6 2.732855 1_565
O11 Sr5 2.757641 1_555
O11 Sr5 2.759192 1_655
O11 Sr1 2.776425 1_555
O12 Sr5 2.732830 1_545
O12 Sr6 2.757611 1_555
O12 Sr6 2.759223 1_455
O12 Sr2 2.776502 1_555
O13 Sr4 2.732910 1_555
O13 Sr7 2.757609 1_555
O13 Sr7 2.759221 1_455
O13 Sr3 2.776555 1_555
O14 Sr2 2.729361 1_555
O14 Sr7 2.747204 1_555
O14 Sr4 2.810901 1_555
O15 Sr3 2.729380 1_555
O15 Sr6 2.747325 1_565
O15 Sr5 2.810956 1_555
O16 Sr0 2.729459 1_555
O16 Sr5 2.747256 1_545
O16 Sr6 2.810829 1_555
O17 Sr1 2.729438 1_555
O17 Sr4 2.747319 1_555
O17 Sr7 2.810867 1_555
O18 Sr0 2.730251 1_555
O18 Sr5 2.746679 1_645
O18 Sr6 2.809509 1_555
O19 Sr1 2.730197 1_555
O19 Sr4 2.746842 1_655
O19 Sr7 2.809538 1_555
O20 Sr2 2.730133 1_555
O20 Sr7 2.746722 1_455
O20 Sr4 2.809632 1_555
O21 Sr3 2.730140 1_555
O21 Sr6 2.746831 1_465
O21 Sr5 2.809554 1_555
O22 Sr0 2.739721 1_556
O22 Sr6 2.746649 1_455
O22 Sr2 2.788056 1_555
O23 Sr1 2.739633 1_556
O23 Sr7 2.746677 1_455
O23 Sr3 2.788046 1_555
O24 Sr2 2.739673 1_554
O24 Sr4 2.746688 1_655
O24 Sr0 2.788021 1_555
O25 Sr3 2.739555 1_554
O25 Sr5 2.746548 1_655
O25 Sr1 2.788002 1_555
O26 Sr2 2.739280 1_554
O26 Sr4 2.743816 1_555
O26 Sr0 2.789439 1_555
O27 Sr3 2.739088 1_554
O27 Sr5 2.743799 1_555
O27 Sr1 2.789455 1_555
O28 Sr0 2.739283 1_556
O28 Sr6 2.743819 1_555
O28 Sr2 2.789463 1_555
O29 Sr1 2.739181 1_556
O29 Sr7 2.743860 1_555
O29 Sr3 2.789535 1_555
