# generated using pymatgen
data_Ti2ZnSn2O7
_symmetry_space_group_name_H-M   'P 1'
_cell_length_a   6.89701268
_cell_length_b   6.89701268
_cell_length_c   9.26656297
_cell_angle_alpha   76.46268647
_cell_angle_beta   76.46268647
_cell_angle_gamma   98.60674882
_symmetry_Int_Tables_number   1
_chemical_formula_structural   Ti2ZnSn2O7
_chemical_formula_sum   'Ti4 Zn2 Sn4 O14'
_cell_volume   406.78359460
_cell_formula_units_Z   2
loop_
 _symmetry_equiv_pos_site_id
 _symmetry_equiv_pos_as_xyz
  1  'x, y, z'
loop_
 _atom_site_type_symbol
 _atom_site_label
 _atom_site_symmetry_multiplicity
 _atom_site_fract_x
 _atom_site_fract_y
 _atom_site_fract_z
 _atom_site_occupancy
  Ti  Ti0  1  0.17437800  0.59786500  0.62689000  1
  Ti  Ti1  1  0.40213500  0.82562200  0.87311000  1
  Ti  Ti2  1  0.82562200  0.40213500  0.37311000  1
  Ti  Ti3  1  0.59786500  0.17437800  0.12689000  1
  Zn  Zn0  1  0.73392600  0.26607400  0.75000000  1
  Zn  Zn1  1  0.26607400  0.73392600  0.25000000  1
  Sn  Sn0  1  0.78388500  0.77627800  0.98368300  1
  Sn  Sn1  1  0.22372200  0.21611500  0.51631700  1
  Sn  Sn2  1  0.21611500  0.22372200  0.01631700  1
  Sn  Sn3  1  0.77627800  0.78388500  0.48368300  1
  O  O0  1  0.00354500  0.76842600  0.59948200  1
  O  O1  1  0.23157400  0.99645500  0.90051800  1
  O  O2  1  0.99645500  0.23157400  0.40051800  1
  O  O3  1  0.76842600  0.00354500  0.09948200  1
  O  O4  1  0.03884200  0.32732800  0.70632600  1
  O  O5  1  0.67267200  0.96115800  0.79367400  1
  O  O6  1  0.96115800  0.67267200  0.29367400  1
  O  O7  1  0.32732800  0.03884200  0.20632600  1
  O  O8  1  0.68254300  0.42605800  0.56037600  1
  O  O9  1  0.57394200  0.31745700  0.93962400  1
  O  O10  1  0.31745700  0.57394200  0.43962400  1
  O  O11  1  0.42605800  0.68254300  0.06037600  1
  O  O12  1  0.33531400  0.66468600  0.75000000  1
  O  O13  1  0.66468600  0.33531400  0.25000000  1
loop_
_geom_bond_atom_site_label_1
_geom_bond_atom_site_label_2
_geom_bond_distance
_geom_bond_site_symmetry_2
O0 Ti0 1.803231 1_555
O0 Sn3 2.098489 1_455
O1 Ti1 1.803231 1_555
O1 Sn2 2.098489 1_566
O2 Ti2 1.803231 1_555
O2 Sn1 2.098489 1_655
O3 Ti3 1.803231 1_555
O3 Sn0 2.098489 1_544
O4 Ti0 1.846633 1_555
O4 Zn0 2.005120 1_455
O4 Sn1 2.277800 1_555
O5 Ti1 1.846633 1_555
O5 Zn0 2.005120 1_565
O5 Sn0 2.277800 1_555
O6 Ti2 1.846633 1_555
O6 Zn1 2.005120 1_655
O6 Sn3 2.277800 1_555
O7 Ti3 1.846633 1_555
O7 Zn1 2.005120 1_545
O7 Sn2 2.277800 1_555
O8 Ti2 1.842126 1_555
O8 Zn0 1.982827 1_555
O8 Sn3 2.345206 1_555
O9 Ti3 1.842126 1_556
O9 Zn0 1.982827 1_555
O9 Sn2 2.345206 1_556
O10 Ti0 1.842126 1_555
O10 Zn1 1.982827 1_555
O10 Sn1 2.345206 1_555
O11 Ti1 1.842126 1_554
O11 Zn1 1.982827 1_555
O11 Sn0 2.345206 1_554
O12 Ti1 1.852493 1_555
O12 Ti0 1.852493 1_555
O13 Ti2 1.852493 1_555
O13 Ti3 1.852493 1_555
