# generated using pymatgen
data_CaMg6Nb
_symmetry_space_group_name_H-M   'P 1'
_cell_length_a   6.36483700
_cell_length_b   6.36483700
_cell_length_c   4.56750100
_cell_angle_alpha   90.00000000
_cell_angle_beta   90.00000000
_cell_angle_gamma   90.00000000
_symmetry_Int_Tables_number   1
_chemical_formula_structural   CaMg6Nb
_chemical_formula_sum   'Ca1 Mg6 Nb1'
_cell_volume   185.03471830
_cell_formula_units_Z   1
loop_
 _symmetry_equiv_pos_site_id
 _symmetry_equiv_pos_as_xyz
  1  'x, y, z'
loop_
 _atom_site_type_symbol
 _atom_site_label
 _atom_site_symmetry_multiplicity
 _atom_site_fract_x
 _atom_site_fract_y
 _atom_site_fract_z
 _atom_site_occupancy
  Ca  Ca0  1  0.50000000  0.50000000  0.50000000  1
  Mg  Mg0  1  0.50000000  0.00000000  0.50000000  1
  Mg  Mg1  1  0.00000000  0.50000000  0.50000000  1
  Mg  Mg2  1  0.22893800  0.77106200  0.00000000  1
  Mg  Mg3  1  0.77106200  0.22893800  0.00000000  1
  Mg  Mg4  1  0.22893800  0.22893800  0.00000000  1
  Mg  Mg5  1  0.77106200  0.77106200  0.00000000  1
  Nb  Nb0  1  0.00000000  0.00000000  0.50000000  1
loop_
_geom_bond_atom_site_label_1
_geom_bond_atom_site_label_2
_geom_bond_distance
_geom_bond_site_symmetry_2
Ca0 Mg1 3.182418 1_655
Ca0 Mg0 3.182418 1_555
Ca0 Mg1 3.182418 1_555
Ca0 Mg0 3.182418 1_565
Ca0 Mg4 3.341945 1_555
Ca0 Mg5 3.341945 1_555
Ca0 Mg2 3.341945 1_555
Ca0 Mg3 3.341945 1_555
Ca0 Mg3 3.341945 1_556
Ca0 Mg5 3.341945 1_556
Ca0 Mg4 3.341945 1_556
Ca0 Mg2 3.341945 1_556
Mg0 Nb0 3.182418 1_555
Mg0 Nb0 3.182418 1_655
Mg0 Mg2 3.211752 1_545
Mg0 Mg5 3.211752 1_545
Mg0 Mg5 3.211752 1_546
Mg0 Mg2 3.211752 1_546
Mg0 Mg3 3.211752 1_555
Mg0 Mg3 3.211752 1_556
Mg0 Mg4 3.211752 1_556
Mg0 Mg4 3.211752 1_555
Mg1 Nb0 3.182418 1_555
Mg1 Nb0 3.182418 1_565
Mg1 Mg5 3.211752 1_455
Mg1 Mg3 3.211752 1_456
Mg1 Mg3 3.211752 1_455
Mg1 Mg5 3.211752 1_456
Mg1 Mg2 3.211752 1_555
Mg1 Mg4 3.211752 1_556
Mg1 Mg2 3.211752 1_556
Mg1 Mg4 3.211752 1_555
Mg2 Mg5 2.914306 1_455
Mg2 Mg4 2.914306 1_565
Mg2 Nb0 3.076054 1_565
Mg2 Nb0 3.076054 1_564
Mg2 Mg5 3.450531 1_555
Mg2 Mg4 3.450531 1_555
Mg3 Mg5 2.914306 1_545
Mg3 Mg4 2.914306 1_655
Mg3 Nb0 3.076054 1_655
Mg3 Nb0 3.076054 1_654
Mg3 Mg5 3.450531 1_555
Mg3 Mg4 3.450531 1_555
Mg4 Nb0 3.076054 1_554
Mg4 Nb0 3.076054 1_555
Mg5 Nb0 3.076054 1_665
Mg5 Nb0 3.076054 1_664
