# generated using pymatgen
data_Tb3Co
_symmetry_space_group_name_H-M   'P 1'
_cell_length_a   6.24442493
_cell_length_b   6.87717322
_cell_length_c   9.52427733
_cell_angle_alpha   90.00000000
_cell_angle_beta   90.00000000
_cell_angle_gamma   89.99854520
_symmetry_Int_Tables_number   1
_chemical_formula_structural   Tb3Co
_chemical_formula_sum   'Tb12 Co4'
_cell_volume   409.01048847
_cell_formula_units_Z   4
loop_
 _symmetry_equiv_pos_site_id
 _symmetry_equiv_pos_as_xyz
  1  'x, y, z'
loop_
 _atom_site_type_symbol
 _atom_site_label
 _atom_site_symmetry_multiplicity
 _atom_site_fract_x
 _atom_site_fract_y
 _atom_site_fract_z
 _atom_site_occupancy
  Tb  Tb0  1  0.32057933  0.67110804  0.06963172  1
  Tb  Tb1  1  0.17942709  0.17104091  0.43036089  1
  Tb  Tb2  1  0.67942067  0.32889196  0.56963172  1
  Tb  Tb3  1  0.82057291  0.82895909  0.93036089  1
  Tb  Tb4  1  0.67941967  0.32889096  0.93036828  1
  Tb  Tb5  1  0.82057291  0.82895909  0.56963911  1
  Tb  Tb6  1  0.32058033  0.67110904  0.43036828  1
  Tb  Tb7  1  0.17942709  0.17104091  0.06963911  1
  Tb  Tb8  1  0.85769050  0.54613067  0.25000000  1
  Tb  Tb9  1  0.64231187  0.04612026  0.25000000  1
  Tb  Tb10  1  0.14230950  0.45386933  0.75000000  1
  Tb  Tb11  1  0.35768813  0.95387974  0.75000000  1
  Co  Co0  1  0.04353009  0.88873788  0.25000000  1
  Co  Co1  1  0.45646098  0.38870182  0.25000000  1
  Co  Co2  1  0.95646991  0.11126212  0.75000000  1
  Co  Co3  1  0.54353902  0.61129818  0.75000000  1
loop_
_geom_bond_atom_site_label_1
_geom_bond_atom_site_label_2
_geom_bond_distance
_geom_bond_site_symmetry_2
Co0 Tb8 2.626470 1_455
Co0 Tb7 2.727688 1_565
Co0 Tb1 2.727688 1_565
Co0 Tb9 2.729148 1_465
Co0 Tb0 2.860763 1_555
Co0 Tb6 2.860763 1_555
Co1 Tb9 2.626290 1_555
Co1 Tb0 2.728177 1_555
Co1 Tb6 2.728180 1_555
Co1 Tb8 2.729390 1_555
Co1 Tb7 2.860820 1_555
Co1 Tb1 2.860820 1_555
Co2 Tb10 2.626470 1_655
Co2 Tb5 2.727688 1_545
Co2 Tb3 2.727688 1_545
Co2 Tb11 2.729148 1_645
Co2 Tb2 2.860763 1_555
Co2 Tb4 2.860763 1_555
Co3 Tb11 2.626290 1_555
Co3 Tb2 2.728177 1_555
Co3 Tb4 2.728180 1_555
Co3 Tb10 2.729390 1_555
Co3 Tb5 2.860820 1_555
Co3 Tb3 2.860820 1_555
