# generated using pymatgen
data_Sm2Al2Fe15
_symmetry_space_group_name_H-M   'P 1'
_cell_length_a   6.44534969
_cell_length_b   6.44534969
_cell_length_c   6.44534909
_cell_angle_alpha   82.37573597
_cell_angle_beta   82.37573597
_cell_angle_gamma   82.37573723
_symmetry_Int_Tables_number   1
_chemical_formula_structural   Sm2Al2Fe15
_chemical_formula_sum   'Sm2 Al2 Fe15'
_cell_volume   261.23203540
_cell_formula_units_Z   1
loop_
 _symmetry_equiv_pos_site_id
 _symmetry_equiv_pos_as_xyz
  1  'x, y, z'
loop_
 _atom_site_type_symbol
 _atom_site_label
 _atom_site_symmetry_multiplicity
 _atom_site_fract_x
 _atom_site_fract_y
 _atom_site_fract_z
 _atom_site_occupancy
  Sm  Sm0  1  0.65323200  0.65323200  0.65323200  1
  Sm  Sm1  1  0.34676800  0.34676800  0.34676800  1
  Al  Al0  1  0.89821600  0.89821600  0.89821600  1
  Al  Al1  1  0.10178400  0.10178400  0.10178400  1
  Fe  Fe0  1  0.00000000  0.00000000  0.50000000  1
  Fe  Fe1  1  0.50000000  0.00000000  0.00000000  1
  Fe  Fe2  1  0.00000000  0.50000000  0.00000000  1
  Fe  Fe3  1  0.70936000  0.29064000  0.00000000  1
  Fe  Fe4  1  0.00000000  0.70936000  0.29064000  1
  Fe  Fe5  1  0.29064000  0.00000000  0.70936000  1
  Fe  Fe6  1  0.00000000  0.29064000  0.70936000  1
  Fe  Fe7  1  0.70936000  0.00000000  0.29064000  1
  Fe  Fe8  1  0.29064000  0.70936000  0.00000000  1
  Fe  Fe9  1  0.34114500  0.34114500  0.84194600  1
  Fe  Fe10  1  0.84194600  0.34114500  0.34114500  1
  Fe  Fe11  1  0.34114500  0.84194600  0.34114500  1
  Fe  Fe12  1  0.65885500  0.65885500  0.15805400  1
  Fe  Fe13  1  0.15805400  0.65885500  0.65885500  1
  Fe  Fe14  1  0.65885500  0.15805400  0.65885500  1
loop_
_geom_bond_atom_site_label_1
_geom_bond_atom_site_label_2
_geom_bond_distance
_geom_bond_site_symmetry_2
Al0 Al1 2.556362 1_666
Al0 Fe0 2.582442 1_665
Al0 Fe1 2.582442 1_566
Al0 Fe2 2.582442 1_656
Al0 Fe12 2.612546 1_556
Al0 Fe13 2.612546 1_655
Al0 Fe14 2.612546 1_565
Al0 Fe4 2.778653 1_656
Al0 Fe7 2.778653 1_566
Al0 Fe5 2.778653 1_665
Al0 Fe6 2.778653 1_665
Al0 Fe3 2.778653 1_566
Al0 Fe8 2.778653 1_656
Al0 Sm0 3.076455 1_555
Al1 Fe0 2.582442 1_555
Al1 Fe2 2.582442 1_555
Al1 Fe1 2.582442 1_555
Al1 Fe9 2.612546 1_554
Al1 Fe11 2.612546 1_545
Al1 Fe10 2.612546 1_455
Al1 Fe5 2.778653 1_554
Al1 Fe6 2.778653 1_554
Al1 Fe4 2.778653 1_545
Al1 Fe7 2.778653 1_455
Al1 Fe3 2.778653 1_455
Al1 Fe8 2.778653 1_545
Al1 Sm1 3.076455 1_555
Fe0 Fe4 2.449652 1_545
Fe0 Fe7 2.449652 1_455
Fe0 Fe6 2.449652 1_555
Fe0 Fe5 2.449652 1_555
Fe0 Fe11 2.450679 1_545
Fe0 Fe10 2.450679 1_455
Fe0 Fe13 2.450679 1_545
Fe0 Fe14 2.450679 1_455
Fe0 Sm1 3.334712 1_555
Fe0 Sm0 3.334712 1_445
Fe1 Fe5 2.449652 1_554
Fe1 Fe7 2.449652 1_555
Fe1 Fe8 2.449652 1_545
Fe1 Fe3 2.449652 1_555
Fe1 Fe11 2.450678 1_545
Fe1 Fe14 2.450678 1_554
Fe1 Fe9 2.450679 1_554
Fe1 Fe12 2.450679 1_545
Fe1 Sm1 3.334712 1_555
Fe1 Sm0 3.334712 1_544
Fe2 Fe6 2.449652 1_554
Fe2 Fe4 2.449652 1_555
Fe2 Fe3 2.449652 1_455
Fe2 Fe8 2.449652 1_555
Fe2 Fe9 2.450679 1_554
Fe2 Sm1 3.334712 1_555
Fe2 Sm0 3.334712 1_454
Fe3 Fe6 2.467218 1_654
Fe3 Fe7 2.467218 1_555
Fe3 Fe9 2.669217 1_554
Fe3 Sm1 3.031861 1_555
Fe3 Sm0 3.031861 1_554
Fe4 Fe8 2.467218 1_555
Fe4 Fe7 2.467218 1_465
Fe4 Sm0 3.031861 1_455
Fe4 Sm1 3.031861 1_555
Fe5 Fe8 2.467218 1_546
Fe5 Fe6 2.467218 1_555
Fe5 Fe9 2.536396 1_555
Fe5 Sm1 3.031861 1_555
Fe5 Sm0 3.031861 1_545
Fe6 Fe9 2.536396 1_555
Fe6 Sm1 3.031861 1_555
Fe6 Sm0 3.031861 1_455
Fe7 Sm0 3.031861 1_545
Fe7 Sm1 3.031861 1_555
Fe8 Fe9 2.669217 1_554
Fe8 Sm1 3.031861 1_555
Fe8 Sm0 3.031861 1_554
Fe9 Sm0 3.057287 1_555
Fe9 Sm1 3.182431 1_555
Fe9 Sm1 3.263813 1_556
Fe10 Fe2 2.450678 1_655
Fe10 Fe14 2.462836 1_555
Fe10 Fe12 2.462836 1_555
Fe10 Fe3 2.536395 1_555
Fe10 Fe7 2.536396 1_555
Fe10 Fe6 2.669217 1_655
Fe10 Fe4 2.669217 1_655
Fe10 Sm0 3.057287 1_555
Fe10 Sm1 3.182431 1_555
Fe10 Sm1 3.263813 1_655
Fe11 Fe13 2.462836 1_555
Fe11 Fe12 2.462836 1_555
Fe11 Fe8 2.536395 1_555
Fe11 Fe4 2.536396 1_555
Fe11 Fe5 2.669217 1_565
Fe11 Fe7 2.669217 1_565
Fe11 Sm0 3.057287 1_555
Fe11 Sm1 3.182431 1_555
Fe11 Sm1 3.263813 1_565
Fe12 Fe2 2.450679 1_655
Fe12 Fe4 2.536396 1_655
Fe12 Fe7 2.536396 1_565
Fe12 Fe3 2.669217 1_555
Fe12 Fe8 2.669217 1_555
Fe12 Sm1 3.057287 1_555
Fe12 Sm0 3.182431 1_555
Fe12 Sm0 3.263813 1_554
Fe13 Fe2 2.450678 1_556
Fe13 Fe9 2.462836 1_555
Fe13 Fe8 2.536395 1_556
Fe13 Fe5 2.536396 1_565
Fe13 Fe4 2.669217 1_555
Fe13 Fe6 2.669217 1_555
Fe13 Sm1 3.057287 1_555
Fe13 Sm0 3.182431 1_555
Fe13 Sm0 3.263813 1_455
Fe14 Fe9 2.462836 1_555
Fe14 Fe3 2.536395 1_556
Fe14 Fe6 2.536396 1_655
Fe14 Fe7 2.669217 1_555
Fe14 Fe5 2.669217 1_555
Fe14 Sm1 3.057287 1_555
Fe14 Sm0 3.182431 1_555
Fe14 Sm0 3.263813 1_545
