# generated using pymatgen
data_HgWO4
_symmetry_space_group_name_H-M   'P 1'
_cell_length_a   6.58503242
_cell_length_b   6.58503242
_cell_length_c   5.27409946
_cell_angle_alpha   69.22287503
_cell_angle_beta   69.22287503
_cell_angle_gamma   56.33518303
_symmetry_Int_Tables_number   1
_chemical_formula_structural   HgWO4
_chemical_formula_sum   'Hg2 W2 O8'
_cell_volume   174.25487960
_cell_formula_units_Z   2
loop_
 _symmetry_equiv_pos_site_id
 _symmetry_equiv_pos_as_xyz
  1  'x, y, z'
loop_
 _atom_site_type_symbol
 _atom_site_label
 _atom_site_symmetry_multiplicity
 _atom_site_fract_x
 _atom_site_fract_y
 _atom_site_fract_z
 _atom_site_occupancy
  Hg  Hg0  1  0.00000000  0.50000000  0.00000000  1
  Hg  Hg1  1  0.50000000  0.00000000  0.50000000  1
  W  W0  1  0.81930100  0.18069900  0.75000000  1
  W  W1  1  0.18069900  0.81930100  0.25000000  1
  O  O0  1  0.47604800  0.75762100  0.02425600  1
  O  O1  1  0.24237900  0.52395200  0.47574400  1
  O  O2  1  0.52395200  0.24237900  0.97574400  1
  O  O3  1  0.75762100  0.47604800  0.52425600  1
  O  O4  1  0.00307800  0.18754500  0.97288900  1
  O  O5  1  0.81245500  0.99692200  0.52711100  1
  O  O6  1  0.99692200  0.81245500  0.02711100  1
  O  O7  1  0.18754500  0.00307800  0.47288900  1
loop_
_geom_bond_atom_site_label_1
_geom_bond_atom_site_label_2
_geom_bond_distance
_geom_bond_site_symmetry_2
Hg0 O6 2.101119 1_455
Hg0 O4 2.101119 1_554
Hg1 O5 2.101119 1_545
Hg1 O7 2.101119 1_555
O0 W1 1.785927 1_555
O1 W1 1.785927 1_555
O2 W0 1.785927 1_555
O3 W0 1.785927 1_555
O4 W0 1.988927 1_455
O4 W1 2.222199 1_546
O5 W0 1.988927 1_565
O5 W1 2.222199 1_655
O6 W1 1.988927 1_655
O6 W0 2.222199 1_564
O7 W1 1.988927 1_545
O7 W0 2.222199 1_455
