# generated using pymatgen
data_K3Ge17
_symmetry_space_group_name_H-M   'P 1'
_cell_length_a   11.08820773
_cell_length_b   11.08820773
_cell_length_c   11.08820773
_cell_angle_alpha   60.00000000
_cell_angle_beta   60.00000000
_cell_angle_gamma   60.00000000
_symmetry_Int_Tables_number   1
_chemical_formula_structural   K3Ge17
_chemical_formula_sum   'K6 Ge34'
_cell_volume   963.98230791
_cell_formula_units_Z   2
loop_
 _symmetry_equiv_pos_site_id
 _symmetry_equiv_pos_as_xyz
  1  'x, y, z'
loop_
 _atom_site_type_symbol
 _atom_site_label
 _atom_site_symmetry_multiplicity
 _atom_site_fract_x
 _atom_site_fract_y
 _atom_site_fract_z
 _atom_site_occupancy
  K  K0  1  -0.00000000  0.00000000  0.50000000  1
  K  K1  1  -0.00000000  0.50000000  -0.00000000  1
  K  K2  1  0.50000000  0.00000000  -0.00000000  1
  K  K3  1  -0.00000000  0.00000000  -0.00000000  1
  K  K4  1  0.37500000  0.37500000  0.37500000  1
  K  K5  1  0.62500000  0.62500000  0.62500000  1
  Ge  Ge0  1  0.87500000  0.87500000  0.87500000  1
  Ge  Ge1  1  0.12500000  0.12500000  0.12500000  1
  Ge  Ge2  1  0.78089645  0.78089645  0.15731064  1
  Ge  Ge3  1  0.78089645  0.15731064  0.78089645  1
  Ge  Ge4  1  0.15731064  0.78089645  0.78089645  1
  Ge  Ge5  1  0.78089645  0.78089645  0.78089645  1
  Ge  Ge6  1  0.21910355  0.21910355  0.84268936  1
  Ge  Ge7  1  0.21910355  0.84268936  0.21910355  1
  Ge  Ge8  1  0.84268936  0.21910355  0.21910355  1
  Ge  Ge9  1  0.21910355  0.21910355  0.21910355  1
  Ge  Ge10  1  0.62820855  0.62820855  0.23728133  1
  Ge  Ge11  1  0.00630256  0.23728133  0.62820855  1
  Ge  Ge12  1  0.23728133  0.00630256  0.62820855  1
  Ge  Ge13  1  0.62820855  0.62820855  0.00630256  1
  Ge  Ge14  1  0.23728133  0.62820855  0.62820855  1
  Ge  Ge15  1  0.62820855  0.00630256  0.23728133  1
  Ge  Ge16  1  0.62820855  0.23728133  0.00630256  1
  Ge  Ge17  1  0.00630256  0.62820855  0.62820855  1
  Ge  Ge18  1  0.62820855  0.23728133  0.62820855  1
  Ge  Ge19  1  0.23728133  0.62820855  0.00630256  1
  Ge  Ge20  1  0.00630256  0.62820855  0.23728133  1
  Ge  Ge21  1  0.62820855  0.00630256  0.62820855  1
  Ge  Ge22  1  0.37179145  0.37179145  0.76271867  1
  Ge  Ge23  1  0.99369744  0.76271867  0.37179145  1
  Ge  Ge24  1  0.76271867  0.99369744  0.37179145  1
  Ge  Ge25  1  0.37179145  0.37179145  0.99369744  1
  Ge  Ge26  1  0.76271867  0.37179145  0.37179145  1
  Ge  Ge27  1  0.37179145  0.99369744  0.76271867  1
  Ge  Ge28  1  0.37179145  0.76271867  0.99369744  1
  Ge  Ge29  1  0.99369744  0.37179145  0.37179145  1
  Ge  Ge30  1  0.37179145  0.76271867  0.37179145  1
  Ge  Ge31  1  0.76271867  0.37179145  0.99369744  1
  Ge  Ge32  1  0.99369744  0.37179145  0.76271867  1
  Ge  Ge33  1  0.37179145  0.99369744  0.37179145  1
loop_
_geom_bond_atom_site_label_1
_geom_bond_atom_site_label_2
_geom_bond_distance
_geom_bond_site_symmetry_2
Ge0 Ge2 2.555895 1_556
Ge0 Ge4 2.555895 1_655
Ge0 Ge3 2.555895 1_565
Ge0 Ge5 2.555895 1_555
Ge0 K3 3.395056 1_666
Ge0 K0 3.395056 1_665
Ge0 K1 3.395056 1_656
Ge0 K2 3.395056 1_566
Ge1 Ge7 2.555895 1_545
Ge1 Ge6 2.555895 1_554
Ge1 Ge8 2.555895 1_455
Ge1 Ge9 2.555895 1_555
Ge1 K3 3.395056 1_555
Ge1 K0 3.395056 1_555
Ge1 K2 3.395056 1_555
Ge1 K1 3.395056 1_555
Ge2 Ge20 2.526442 1_655
Ge2 K2 3.503437 1_565
Ge2 K1 3.503437 1_655
Ge2 K3 3.503437 1_665
Ge3 K2 3.503437 1_556
Ge3 K0 3.503437 1_655
Ge3 K3 3.503437 1_656
Ge4 K1 3.503437 1_556
Ge4 K0 3.503437 1_565
Ge4 K3 3.503437 1_566
Ge5 K2 3.503437 1_566
Ge5 K0 3.503437 1_665
Ge5 K1 3.503437 1_656
Ge6 K1 3.503437 1_556
Ge6 K2 3.503437 1_556
Ge6 K3 3.503437 1_556
Ge7 K2 3.503437 1_565
Ge7 K0 3.503437 1_565
Ge7 K3 3.503437 1_565
Ge8 K0 3.503437 1_655
Ge8 K1 3.503437 1_655
Ge8 K3 3.503437 1_655
Ge9 K1 3.503437 1_555
Ge9 K2 3.503437 1_555
Ge9 K0 3.503437 1_555
Ge10 Ge26 2.505230 1_555
Ge10 Ge30 2.505230 1_555
Ge10 Ge2 2.526433 1_555
Ge10 Ge13 2.561141 1_555
Ge10 K2 3.601607 1_565
Ge10 K1 3.601607 1_655
Ge11 Ge32 2.505218 1_455
Ge11 Ge29 2.505237 1_455
Ge11 Ge3 2.526442 1_455
Ge11 Ge12 2.561141 1_555
Ge11 K3 3.601605 1_556
Ge11 K0 3.601613 1_555
Ge12 Ge27 2.505218 1_545
Ge12 Ge33 2.505237 1_545
Ge12 Ge4 2.526442 1_545
Ge12 K3 3.601605 1_556
Ge12 K0 3.601613 1_555
Ge13 Ge31 2.505237 1_554
Ge13 Ge28 2.505237 1_554
Ge13 Ge5 2.526436 1_554
Ge13 K1 3.601603 1_655
Ge13 K2 3.601603 1_565
Ge14 Ge30 2.505230 1_555
Ge14 Ge22 2.505230 1_555
Ge14 Ge4 2.526433 1_555
Ge14 Ge17 2.561141 1_555
Ge14 K0 3.601607 1_565
Ge14 K1 3.601607 1_556
Ge15 Ge24 2.505218 1_545
Ge15 Ge33 2.505237 1_545
Ge15 Ge2 2.526442 1_545
Ge15 Ge16 2.561141 1_555
Ge15 K3 3.601605 1_655
Ge15 K2 3.601613 1_555
Ge16 Ge31 2.505218 1_554
Ge16 Ge25 2.505237 1_554
Ge16 Ge3 2.526442 1_554
Ge16 K3 3.601605 1_655
Ge16 K2 3.601613 1_555
Ge17 Ge32 2.505237 1_455
Ge17 Ge23 2.505237 1_455
Ge17 Ge5 2.526436 1_455
Ge17 K0 3.601603 1_565
Ge17 K1 3.601603 1_556
Ge18 Ge26 2.505230 1_555
Ge18 Ge22 2.505230 1_555
Ge18 Ge3 2.526433 1_555
Ge18 Ge21 2.561141 1_555
Ge18 K0 3.601607 1_655
Ge18 K2 3.601607 1_556
Ge19 Ge28 2.505218 1_554
Ge19 Ge25 2.505237 1_554
Ge19 Ge4 2.526442 1_554
Ge19 Ge20 2.561141 1_555
Ge19 K3 3.601605 1_565
Ge19 K1 3.601613 1_555
Ge20 Ge23 2.505218 1_455
Ge20 Ge29 2.505237 1_455
Ge20 K3 3.601605 1_565
Ge20 K1 3.601613 1_555
Ge21 Ge24 2.505237 1_545
Ge21 Ge27 2.505237 1_545
Ge21 Ge5 2.526436 1_545
Ge21 K2 3.601603 1_556
Ge21 K0 3.601603 1_655
Ge22 Ge6 2.526433 1_555
Ge22 Ge25 2.561141 1_555
Ge22 K1 3.601607 1_556
Ge22 K2 3.601607 1_556
Ge23 Ge7 2.526442 1_655
Ge23 Ge24 2.561141 1_555
Ge23 K3 3.601605 1_665
Ge23 K0 3.601613 1_665
Ge24 Ge8 2.526442 1_565
Ge24 K3 3.601605 1_665
Ge24 K0 3.601613 1_665
Ge25 Ge9 2.526436 1_556
Ge25 K1 3.601603 1_556
Ge25 K2 3.601603 1_556
Ge26 Ge8 2.526433 1_555
Ge26 Ge29 2.561141 1_555
Ge26 K1 3.601607 1_655
Ge26 K0 3.601607 1_655
Ge27 Ge6 2.526442 1_565
Ge27 Ge28 2.561141 1_555
Ge27 K3 3.601605 1_566
Ge27 K2 3.601613 1_566
Ge28 Ge7 2.526442 1_556
Ge28 K3 3.601605 1_566
Ge28 K2 3.601613 1_566
Ge29 Ge9 2.526436 1_655
Ge29 K0 3.601603 1_655
Ge29 K1 3.601603 1_655
Ge30 Ge7 2.526433 1_555
Ge30 Ge33 2.561141 1_555
Ge30 K2 3.601607 1_565
Ge30 K0 3.601607 1_565
Ge31 Ge8 2.526442 1_556
Ge31 Ge32 2.561141 1_555
Ge31 K3 3.601605 1_656
Ge31 K1 3.601613 1_656
Ge32 Ge6 2.526442 1_655
Ge32 K3 3.601605 1_656
Ge32 K1 3.601613 1_656
Ge33 Ge9 2.526436 1_565
Ge33 K0 3.601603 1_565
Ge33 K2 3.601603 1_565
