# generated using pymatgen
data_Ba5V4(ClO7)2
_symmetry_space_group_name_H-M   'P 1'
_cell_length_a   10.23295100
_cell_length_b   11.80302300
_cell_length_c   15.39930000
_cell_angle_alpha   90.00000000
_cell_angle_beta   90.00000000
_cell_angle_gamma   90.00000000
_symmetry_Int_Tables_number   1
_chemical_formula_structural   Ba5V4(ClO7)2
_chemical_formula_sum   'Ba20 V16 Cl8 O56'
_cell_volume   1859.92369674
_cell_formula_units_Z   4
loop_
 _symmetry_equiv_pos_site_id
 _symmetry_equiv_pos_as_xyz
  1  'x, y, z'
loop_
 _atom_site_type_symbol
 _atom_site_label
 _atom_site_symmetry_multiplicity
 _atom_site_fract_x
 _atom_site_fract_y
 _atom_site_fract_z
 _atom_site_occupancy
  Ba  Ba0  1  0.82058700  0.27578200  0.79170800  1
  Ba  Ba1  1  0.82058700  0.72421800  0.79170800  1
  Ba  Ba2  1  0.82058700  0.27578200  0.20829200  1
  Ba  Ba3  1  0.82058700  0.72421800  0.20829200  1
  Ba  Ba4  1  0.17941300  0.22421800  0.70829200  1
  Ba  Ba5  1  0.17941300  0.77578200  0.70829200  1
  Ba  Ba6  1  0.17941300  0.22421800  0.29170800  1
  Ba  Ba7  1  0.17941300  0.77578200  0.29170800  1
  Ba  Ba8  1  0.63491600  0.00000000  0.29422600  1
  Ba  Ba9  1  0.63491600  0.00000000  0.70577400  1
  Ba  Ba10  1  0.36508400  0.50000000  0.20577400  1
  Ba  Ba11  1  0.36508400  0.50000000  0.79422600  1
  Ba  Ba12  1  0.35217200  0.50000000  0.50000000  1
  Ba  Ba13  1  0.64782800  0.00000000  0.00000000  1
  Ba  Ba14  1  0.83264500  0.26424000  0.50000000  1
  Ba  Ba15  1  0.83264500  0.73576000  0.50000000  1
  Ba  Ba16  1  0.16735500  0.23576000  0.00000000  1
  Ba  Ba17  1  0.16735500  0.76424000  0.00000000  1
  Ba  Ba18  1  0.32544500  0.00000000  0.50000000  1
  Ba  Ba19  1  0.67455500  0.50000000  0.00000000  1
  V  V0  1  0.01707500  0.50000000  0.38141800  1
  V  V1  1  0.01707500  0.50000000  0.61858200  1
  V  V2  1  0.98292500  0.00000000  0.11858200  1
  V  V3  1  0.98292500  0.00000000  0.88141800  1
  V  V4  1  0.50156600  0.25266600  0.38349500  1
  V  V5  1  0.50156600  0.74733400  0.38349500  1
  V  V6  1  0.50156600  0.25266600  0.61650500  1
  V  V7  1  0.50156600  0.74733400  0.61650500  1
  V  V8  1  0.49843400  0.24733400  0.11650500  1
  V  V9  1  0.49843400  0.75266600  0.11650500  1
  V  V10  1  0.49843400  0.24733400  0.88349500  1
  V  V11  1  0.49843400  0.75266600  0.88349500  1
  V  V12  1  0.01646300  0.50000000  0.88259800  1
  V  V13  1  0.01646300  0.50000000  0.11740200  1
  V  V14  1  0.98353700  0.00000000  0.61740200  1
  V  V15  1  0.98353700  0.00000000  0.38259800  1
  Cl  Cl0  1  0.65575600  0.00000000  0.50000000  1
  Cl  Cl1  1  0.34424400  0.50000000  0.00000000  1
  Cl  Cl2  1  0.67891000  0.50000000  0.50000000  1
  Cl  Cl3  1  0.32109000  0.00000000  0.00000000  1
  Cl  Cl4  1  0.16699900  0.75415700  0.50000000  1
  Cl  Cl5  1  0.16699900  0.24584300  0.50000000  1
  Cl  Cl6  1  0.83300100  0.74584300  0.00000000  1
  Cl  Cl7  1  0.83300100  0.25415700  0.00000000  1
  O  O0  1  0.01186400  0.50000000  0.50000000  1
  O  O1  1  0.98813600  0.00000000  0.00000000  1
  O  O2  1  0.94432200  0.37616500  0.34601100  1
  O  O3  1  0.94432200  0.62383500  0.34601100  1
  O  O4  1  0.94432200  0.37616500  0.65398900  1
  O  O5  1  0.94432200  0.62383500  0.65398900  1
  O  O6  1  0.05567800  0.12383500  0.15398900  1
  O  O7  1  0.05567800  0.87616500  0.15398900  1
  O  O8  1  0.05567800  0.12383500  0.84601100  1
  O  O9  1  0.05567800  0.87616500  0.84601100  1
  O  O10  1  0.17686000  0.50000000  0.34847300  1
  O  O11  1  0.17686000  0.50000000  0.65152700  1
  O  O12  1  0.82314000  0.00000000  0.15152700  1
  O  O13  1  0.82314000  0.00000000  0.84847300  1
  O  O14  1  0.65857400  0.23918300  0.34496900  1
  O  O15  1  0.65857400  0.76081700  0.34496900  1
  O  O16  1  0.65857400  0.23918300  0.65503100  1
  O  O17  1  0.65857400  0.76081700  0.65503100  1
  O  O18  1  0.34142600  0.26081700  0.15503100  1
  O  O19  1  0.34142600  0.73918300  0.15503100  1
  O  O20  1  0.34142600  0.26081700  0.84496900  1
  O  O21  1  0.34142600  0.73918300  0.84496900  1
  O  O22  1  0.41842400  0.13016000  0.35927100  1
  O  O23  1  0.41842400  0.86984000  0.35927100  1
  O  O24  1  0.41842400  0.13016000  0.64072900  1
  O  O25  1  0.41842400  0.86984000  0.64072900  1
  O  O26  1  0.58157600  0.36984000  0.14072900  1
  O  O27  1  0.58157600  0.63016000  0.14072900  1
  O  O28  1  0.58157600  0.36984000  0.85927100  1
  O  O29  1  0.58157600  0.63016000  0.85927100  1
  O  O30  1  0.41284400  0.36297600  0.34191800  1
  O  O31  1  0.41284400  0.63702400  0.34191800  1
  O  O32  1  0.41284400  0.36297600  0.65808200  1
  O  O33  1  0.41284400  0.63702400  0.65808200  1
  O  O34  1  0.58715600  0.13702400  0.15808200  1
  O  O35  1  0.58715600  0.86297600  0.15808200  1
  O  O36  1  0.58715600  0.13702400  0.84191800  1
  O  O37  1  0.58715600  0.86297600  0.84191800  1
  O  O38  1  0.50774800  0.27313600  0.50000000  1
  O  O39  1  0.50774800  0.72686400  0.50000000  1
  O  O40  1  0.49225200  0.22686400  0.00000000  1
  O  O41  1  0.49225200  0.77313600  0.00000000  1
  O  O42  1  0.08836000  0.37951900  0.84226500  1
  O  O43  1  0.08836000  0.62048100  0.84226500  1
  O  O44  1  0.08836000  0.37951900  0.15773500  1
  O  O45  1  0.08836000  0.62048100  0.15773500  1
  O  O46  1  0.91164000  0.12048100  0.65773500  1
  O  O47  1  0.91164000  0.87951900  0.65773500  1
  O  O48  1  0.91164000  0.12048100  0.34226500  1
  O  O49  1  0.91164000  0.87951900  0.34226500  1
  O  O50  1  0.85295300  0.50000000  0.85525000  1
  O  O51  1  0.85295300  0.50000000  0.14475000  1
  O  O52  1  0.14704700  0.00000000  0.64475000  1
  O  O53  1  0.14704700  0.00000000  0.35525000  1
  O  O54  1  0.03025400  0.50000000  0.00000000  1
  O  O55  1  0.96974600  0.00000000  0.50000000  1
loop_
_geom_bond_atom_site_label_1
_geom_bond_atom_site_label_2
_geom_bond_distance
_geom_bond_site_symmetry_2
Ba0 O16 2.713859 1_555
Ba0 O4 2.739470 1_555
Ba0 O50 2.840926 1_555
Ba0 O28 2.880422 1_555
Ba0 O46 2.912808 1_555
Ba0 O36 2.997655 1_555
Ba0 O42 3.100565 1_655
Ba0 O8 3.114956 1_655
Ba0 Cl7 3.220197 1_556
Ba0 O13 3.370494 1_555
Ba1 O17 2.713859 1_555
Ba1 O5 2.739470 1_555
Ba1 O50 2.840926 1_555
Ba1 O29 2.880422 1_555
Ba1 O47 2.912808 1_555
Ba1 O37 2.997655 1_555
Ba1 O43 3.100565 1_655
Ba1 O9 3.114956 1_655
Ba1 Cl6 3.220197 1_556
Ba1 O13 3.370494 1_565
Ba2 O14 2.713859 1_555
Ba2 O2 2.739470 1_555
Ba2 O51 2.840926 1_555
Ba2 O26 2.880422 1_555
Ba2 O48 2.912808 1_555
Ba2 O34 2.997655 1_555
Ba2 O44 3.100565 1_655
Ba2 O6 3.114956 1_655
Ba2 Cl7 3.220197 1_555
Ba2 O12 3.370494 1_555
Ba3 O15 2.713859 1_555
Ba3 O3 2.739470 1_555
Ba3 O51 2.840926 1_555
Ba3 O27 2.880422 1_555
Ba3 O49 2.912808 1_555
Ba3 O35 2.997655 1_555
Ba3 O45 3.100565 1_655
Ba3 O7 3.114956 1_655
Ba3 Cl6 3.220197 1_555
Ba3 O12 3.370494 1_565
Ba4 O20 2.713859 1_555
Ba4 O8 2.739470 1_555
Ba4 O52 2.840926 1_555
Ba4 O24 2.880422 1_555
Ba4 O42 2.912808 1_555
Ba4 O32 2.997655 1_555
Ba4 O46 3.100565 1_455
Ba4 O4 3.114956 1_455
Ba4 Cl5 3.220197 1_555
Ba4 O11 3.370494 1_555
Ba5 O21 2.713859 1_555
Ba5 O9 2.739470 1_555
Ba5 O52 2.840926 1_565
Ba5 O25 2.880422 1_555
Ba5 O43 2.912808 1_555
Ba5 O33 2.997655 1_555
Ba5 O47 3.100565 1_455
Ba5 O5 3.114956 1_455
Ba5 Cl4 3.220197 1_555
Ba5 O11 3.370494 1_555
Ba6 O18 2.713859 1_555
Ba6 O6 2.739470 1_555
Ba6 O53 2.840926 1_555
Ba6 O22 2.880422 1_555
Ba6 O44 2.912808 1_555
Ba6 O30 2.997655 1_555
Ba6 O48 3.100565 1_455
Ba6 O2 3.114956 1_455
Ba6 Cl5 3.220197 1_555
Ba6 O10 3.370494 1_555
Ba7 O19 2.713859 1_555
Ba7 O7 2.739470 1_555
Ba7 O53 2.840926 1_565
Ba7 O23 2.880422 1_555
Ba7 O45 2.912808 1_555
Ba7 O31 2.997655 1_555
Ba7 O49 3.100565 1_455
Ba7 O3 3.114956 1_455
Ba7 Cl4 3.220197 1_555
Ba7 O10 3.370494 1_555
Ba8 O34 2.692566 1_555
Ba8 O35 2.692566 1_545
Ba8 O23 2.875977 1_545
Ba8 O22 2.875977 1_555
Ba8 O12 2.922099 1_555
Ba8 O14 2.939217 1_555
Ba8 O15 2.939217 1_545
Ba8 Cl0 3.175943 1_555
Ba8 O48 3.253920 1_555
Ba8 O49 3.253920 1_545
Ba9 O36 2.692566 1_555
Ba9 O37 2.692566 1_545
Ba9 O25 2.875977 1_545
Ba9 O24 2.875977 1_555
Ba9 O13 2.922099 1_555
Ba9 O16 2.939217 1_555
Ba9 O17 2.939217 1_545
Ba9 Cl0 3.175943 1_555
Ba9 O46 3.253920 1_555
Ba9 O47 3.253920 1_545
Ba10 O31 2.692566 1_555
Ba10 O30 2.692566 1_555
Ba10 O26 2.875977 1_555
Ba10 O27 2.875977 1_555
Ba10 O10 2.922099 1_555
Ba10 O19 2.939217 1_555
Ba10 O18 2.939217 1_555
Ba10 Cl1 3.175943 1_555
Ba10 O44 3.253920 1_555
Ba10 O45 3.253920 1_555
Ba11 O33 2.692566 1_555
Ba11 O32 2.692566 1_555
Ba11 O28 2.875977 1_555
Ba11 O29 2.875977 1_555
Ba11 O11 2.922099 1_555
Ba11 O21 2.939217 1_555
Ba11 O20 2.939217 1_555
Ba11 Cl1 3.175943 1_556
Ba11 O43 3.253920 1_555
Ba11 O42 3.253920 1_555
Ba12 O11 2.943313 1_555
Ba12 O10 2.943313 1_555
Ba12 O33 2.987839 1_555
Ba12 O31 2.987839 1_555
Ba12 O32 2.987839 1_555
Ba12 O30 2.987839 1_555
Ba12 O39 3.115196 1_555
Ba12 O38 3.115196 1_555
Ba12 Cl2 3.343494 1_555
Ba12 O0 3.482355 1_555
Ba12 Cl4 3.548161 1_555
Ba12 Cl5 3.548161 1_555
Ba13 O12 2.943313 1_555
Ba13 O13 2.943313 1_554
Ba13 O34 2.987839 1_555
Ba13 O35 2.987839 1_545
Ba13 O36 2.987839 1_554
Ba13 O37 2.987839 1_544
Ba13 O40 3.115196 1_555
Ba13 O41 3.115196 1_545
Ba13 Cl3 3.343494 1_555
Ba13 O1 3.482355 1_555
Ba13 Cl7 3.548161 1_555
Ba13 Cl6 3.548161 1_545
Ba14 O4 2.945218 1_555
Ba14 O2 2.945218 1_555
Ba14 O16 2.993307 1_555
Ba14 O14 2.993307 1_555
Ba14 O46 3.071256 1_555
Ba14 O48 3.071256 1_555
Ba14 Cl2 3.196585 1_555
Ba14 O38 3.326313 1_555
Ba14 O0 3.332663 1_655
Ba14 O55 3.419849 1_555
Ba14 Cl5 3.428312 1_655
Ba14 Cl0 3.606044 1_555
Ba15 O5 2.945218 1_555
Ba15 O3 2.945218 1_555
Ba15 O17 2.993307 1_555
Ba15 O15 2.993307 1_555
Ba15 O47 3.071256 1_555
Ba15 O49 3.071256 1_555
Ba15 Cl2 3.196585 1_555
Ba15 O39 3.326313 1_555
Ba15 O0 3.332663 1_655
Ba15 O55 3.419849 1_565
Ba15 Cl4 3.428312 1_655
Ba15 Cl0 3.606044 1_565
Ba16 O6 2.945218 1_555
Ba16 O8 2.945218 1_554
Ba16 O18 2.993307 1_555
Ba16 O20 2.993307 1_554
Ba16 O44 3.071256 1_555
Ba16 O42 3.071256 1_554
Ba16 Cl3 3.196585 1_555
Ba16 O40 3.326313 1_555
Ba16 O1 3.332663 1_455
Ba16 O54 3.419849 1_555
Ba16 Cl7 3.428312 1_455
Ba16 Cl1 3.606044 1_555
Ba17 O7 2.945218 1_555
Ba17 O9 2.945218 1_554
Ba17 O21 2.993307 1_554
Ba17 O19 2.993307 1_555
Ba17 O45 3.071256 1_555
Ba17 O43 3.071256 1_554
Ba17 Cl3 3.196585 1_565
Ba17 O41 3.326313 1_555
Ba17 O1 3.332663 1_465
Ba17 O54 3.419849 1_555
Ba17 Cl6 3.428312 1_455
Ba17 Cl1 3.606044 1_555
Ba18 O23 2.821677 1_545
Ba18 O25 2.821677 1_545
Ba18 O24 2.821677 1_555
Ba18 O22 2.821677 1_555
Ba18 O53 2.881188 1_555
Ba18 O52 2.881188 1_555
Ba18 Cl5 3.323951 1_555
Ba18 Cl4 3.323951 1_545
Ba18 Cl0 3.380056 1_555
Ba19 O28 2.821677 1_554
Ba19 O26 2.821677 1_555
Ba19 O27 2.821677 1_555
Ba19 O29 2.821677 1_554
Ba19 O50 2.881188 1_554
Ba19 O51 2.881188 1_555
Ba19 Cl6 3.323951 1_555
Ba19 Cl7 3.323951 1_555
Ba19 Cl1 3.380056 1_555
O0 V1 1.826858 1_555
O0 V0 1.826858 1_555
O1 V2 1.826858 1_555
O1 V3 1.826858 1_554
O2 V0 1.728552 1_655
O3 V0 1.728552 1_655
O4 V1 1.728552 1_655
O5 V1 1.728552 1_655
O6 V2 1.728552 1_455
O7 V2 1.728552 1_465
O8 V3 1.728552 1_455
O9 V3 1.728552 1_465
O10 V0 1.711971 1_555
O11 V1 1.711971 1_555
O12 V2 1.711971 1_555
O13 V3 1.711971 1_555
O14 V4 1.720070 1_555
O15 V5 1.720070 1_555
O16 V6 1.720070 1_555
O17 V7 1.720070 1_555
O18 V8 1.720070 1_555
O19 V9 1.720070 1_555
O20 V10 1.720070 1_555
O21 V11 1.720070 1_555
O22 V4 1.718645 1_555
O23 V5 1.718645 1_555
O24 V6 1.718645 1_555
O25 V7 1.718645 1_555
O26 V8 1.718645 1_555
O27 V9 1.718645 1_555
O28 V10 1.718645 1_555
O29 V11 1.718645 1_555
O30 V4 1.711540 1_555
O31 V5 1.711540 1_555
O32 V6 1.711540 1_555
O33 V7 1.711540 1_555
O34 V8 1.711540 1_555
O35 V9 1.711540 1_555
O36 V10 1.711540 1_555
O37 V11 1.711540 1_555
O38 V6 1.811396 1_555
O38 V4 1.811396 1_555
O39 V7 1.811396 1_555
O39 V5 1.811396 1_555
O40 V8 1.811396 1_555
O40 V10 1.811396 1_554
O41 V9 1.811396 1_555
O41 V11 1.811396 1_554
O42 V12 1.717336 1_555
O43 V12 1.717336 1_555
O44 V13 1.717336 1_555
O45 V13 1.717336 1_555
O46 V14 1.717336 1_555
O47 V14 1.717336 1_565
O48 V15 1.717336 1_555
O49 V15 1.717336 1_565
O50 V12 1.725376 1_655
O51 V13 1.725376 1_655
O52 V14 1.725376 1_455
O53 V15 1.725376 1_455
O54 V13 1.813408 1_555
O54 V12 1.813408 1_554
O55 V14 1.813408 1_555
O55 V15 1.813408 1_555
