# generated using pymatgen
data_La4CdPd
_symmetry_space_group_name_H-M   'P 1'
_cell_length_a   10.18955361
_cell_length_b   10.18954614
_cell_length_c   10.18955379
_cell_angle_alpha   59.99999020
_cell_angle_beta   60.00001657
_cell_angle_gamma   59.99995007
_symmetry_Int_Tables_number   1
_chemical_formula_structural   La4CdPd
_chemical_formula_sum   'La16 Cd4 Pd4'
_cell_volume   748.08341336
_cell_formula_units_Z   4
loop_
 _symmetry_equiv_pos_site_id
 _symmetry_equiv_pos_as_xyz
  1  'x, y, z'
loop_
 _atom_site_type_symbol
 _atom_site_label
 _atom_site_symmetry_multiplicity
 _atom_site_fract_x
 _atom_site_fract_y
 _atom_site_fract_z
 _atom_site_occupancy
  La  La0  1  0.35052578  0.35052687  0.35052498  1
  La  La1  1  0.35052567  0.35052756  0.94842084  1
  La  La2  1  0.35052743  0.94842142  0.35052492  1
  La  La3  1  0.94842090  0.35052724  0.35052551  1
  La  La4  1  0.80588935  0.19410976  0.19411100  1
  La  La5  1  0.19411023  0.80588846  0.80588957  1
  La  La6  1  0.19410852  0.80589010  0.19411083  1
  La  La7  1  0.80589084  0.19410819  0.80589056  1
  La  La8  1  0.19411140  0.19411075  0.80588873  1
  La  La9  1  0.80588968  0.80588995  0.19410958  1
  La  La10  1  0.93626786  0.56374041  0.56373357  1
  La  La11  1  0.56373682  0.93626002  0.93626755  1
  La  La12  1  0.56373678  0.93626690  0.56373481  1
  La  La13  1  0.93626303  0.56373950  0.93626097  1
  La  La14  1  0.56373459  0.56373783  0.93626585  1
  La  La15  1  0.93626631  0.93626286  0.56373582  1
  Cd  Cd0  1  0.57882506  0.57882780  0.57882834  1
  Cd  Cd1  1  0.57882644  0.57882526  0.26352406  1
  Cd  Cd2  1  0.57882876  0.26351904  0.57882556  1
  Cd  Cd3  1  0.26351601  0.57882983  0.57883062  1
  Pd  Pd0  1  0.14321194  0.14320831  0.14321077  1
  Pd  Pd1  1  0.14321358  0.14320334  0.57036660  1
  Pd  Pd2  1  0.14320620  0.57037047  0.14320920  1
  Pd  Pd3  1  0.57036881  0.14320912  0.14320976  1
loop_
_geom_bond_atom_site_label_1
_geom_bond_atom_site_label_2
_geom_bond_distance
_geom_bond_site_symmetry_2
La0 Pd3 2.990197 1_555
La0 Pd2 2.990214 1_555
La0 Pd1 2.990217 1_555
La0 La10 3.692749 1_455
La0 La14 3.692751 1_554
La0 La12 3.692754 1_545
La1 Pd2 2.990185 1_556
La1 Pd3 2.990190 1_556
La1 Pd0 2.990199 1_556
La1 La14 3.692776 1_555
La1 La13 3.692776 1_455
La1 La11 3.692796 1_545
La2 Pd1 2.990131 1_565
La2 Pd3 2.990171 1_565
La2 Pd0 2.990174 1_565
La3 Pd2 2.990168 1_655
La3 Pd1 2.990202 1_655
La3 Pd0 2.990202 1_655
La4 Pd3 3.009268 1_555
La4 Pd0 3.009270 1_655
La5 Pd1 3.009223 1_565
La5 Pd2 3.009241 1_556
La6 Pd0 3.009240 1_565
La6 Pd2 3.009272 1_555
La7 Pd3 3.009252 1_556
La7 Pd1 3.009282 1_655
La8 Pd0 3.009265 1_556
La8 Pd1 3.009306 1_555
La9 Pd2 3.009223 1_655
La9 Pd3 3.009244 1_565
La10 Pd2 3.691791 1_655
La10 Pd1 3.691889 1_655
La10 La3 3.692804 1_555
La10 La15 3.795838 1_555
La10 La13 3.795859 1_555
La10 La12 3.795898 1_555
La10 La14 3.795944 1_555
La10 La6 3.803960 1_655
La10 La8 3.804022 1_655
La10 La9 3.804025 1_555
La10 La7 3.804087 1_555
La11 Pd3 3.691774 1_566
La11 Pd0 3.691784 1_566
La11 La2 3.692737 1_556
La11 La13 3.795843 1_555
La11 La14 3.795852 1_555
La11 La12 3.795908 1_555
La11 La15 3.795922 1_555
La11 La9 3.803989 1_556
La11 La6 3.804019 1_556
La11 La7 3.804029 1_565
La11 La8 3.804039 1_565
La12 Pd1 3.691773 1_565
La12 Pd3 3.691791 1_565
La12 La2 3.692779 1_555
La12 La15 3.795894 1_555
La12 La14 3.795913 1_555
La12 La4 3.803990 1_565
La12 La8 3.804004 1_565
La12 La9 3.804029 1_555
La12 La5 3.804049 1_555
La13 Pd2 3.691770 1_656
La13 Pd0 3.691839 1_656
La13 La3 3.692788 1_556
La13 La15 3.795854 1_555
La13 La14 3.795882 1_555
La13 La5 3.803997 1_655
La13 La9 3.804014 1_556
La13 La8 3.804031 1_655
La13 La4 3.804049 1_556
La14 Pd3 3.691814 1_556
La14 Pd2 3.691819 1_556
La14 La6 3.804005 1_556
La14 La5 3.804017 1_555
La14 La4 3.804023 1_556
La14 La7 3.804054 1_555
La15 Pd1 3.691736 1_665
La15 Pd0 3.691786 1_665
La15 La2 3.692761 1_655
La15 La3 3.692774 1_565
La15 La5 3.803998 1_655
La15 La6 3.804005 1_655
La15 La7 3.804014 1_565
La15 La4 3.804024 1_565
Cd0 Cd1 3.212816 1_555
Cd0 Cd3 3.212837 1_555
Cd0 Cd2 3.212848 1_555
Cd0 La14 3.495137 1_555
Cd0 La12 3.495144 1_555
Cd0 La10 3.495183 1_555
Cd0 La1 3.591081 1_555
Cd0 La2 3.591088 1_555
Cd0 La3 3.591109 1_555
Cd0 La5 3.645069 1_555
Cd0 La9 3.645110 1_555
Cd0 La7 3.645115 1_555
Cd1 Cd2 3.212804 1_555
Cd1 Cd3 3.212854 1_555
Cd1 La11 3.495117 1_554
Cd1 La14 3.495142 1_554
Cd1 La13 3.495161 1_554
Cd1 La3 3.591069 1_555
Cd1 La2 3.591079 1_555
Cd1 La0 3.591100 1_555
Cd1 La9 3.645090 1_555
Cd1 La4 3.645098 1_555
Cd1 La6 3.645122 1_555
Cd2 Cd3 3.212883 1_555
Cd2 La12 3.495097 1_545
Cd2 La15 3.495130 1_545
Cd2 La11 3.495170 1_545
Cd2 La3 3.591083 1_555
Cd2 La1 3.591111 1_555
Cd2 La0 3.591111 1_555
Cd2 La4 3.645078 1_555
Cd2 La7 3.645099 1_555
Cd2 La8 3.645099 1_555
Cd3 La15 3.495074 1_455
Cd3 La13 3.495080 1_455
Cd3 La10 3.495080 1_455
Cd3 La1 3.591071 1_555
Cd3 La2 3.591090 1_555
Cd3 La0 3.591145 1_555
Cd3 La5 3.645038 1_555
Cd3 La8 3.645096 1_555
Cd3 La6 3.645115 1_555
