# generated using pymatgen
data_LaMgFeMoO6
_symmetry_space_group_name_H-M   'P 1'
_cell_length_a   5.62452700
_cell_length_b   5.45196900
_cell_length_c   9.46700928
_cell_angle_alpha   55.86001537
_cell_angle_beta   90.00000000
_cell_angle_gamma   90.00000000
_symmetry_Int_Tables_number   1
_chemical_formula_structural   LaMgFeMoO6
_chemical_formula_sum   'La2 Mg2 Fe2 Mo2 O12'
_cell_volume   240.27512647
_cell_formula_units_Z   2
loop_
 _symmetry_equiv_pos_site_id
 _symmetry_equiv_pos_as_xyz
  1  'x, y, z'
loop_
 _atom_site_type_symbol
 _atom_site_label
 _atom_site_symmetry_multiplicity
 _atom_site_fract_x
 _atom_site_fract_y
 _atom_site_fract_z
 _atom_site_occupancy
  La  La0  1  0.29544300  0.23393600  0.75342200  1
  La  La1  1  0.70455700  0.23393600  0.25342200  1
  Mg  Mg0  1  0.80396000  0.77670000  0.75098600  1
  Mg  Mg1  1  0.19604000  0.77670000  0.25098600  1
  Fe  Fe0  1  0.74944200  0.99770600  0.00105200  1
  Fe  Fe1  1  0.25055800  0.99770600  0.50105200  1
  Mo  Mo0  1  0.75561500  0.49820300  0.50321700  1
  Mo  Mo1  1  0.24438500  0.49820300  0.00321700  1
  O  O0  1  0.27965100  0.39384100  0.24813000  1
  O  O1  1  0.44393500  0.11181800  0.06713600  1
  O  O2  1  0.44693600  0.74728900  0.43704100  1
  O  O3  1  0.55306400  0.74728900  0.93704100  1
  O  O4  1  0.55606500  0.11181800  0.56713600  1
  O  O5  1  0.72034900  0.39384100  0.74813000  1
  O  O6  1  0.80758000  0.65852200  0.24954200  1
  O  O7  1  0.98288600  0.85593300  0.43203000  1
  O  O8  1  0.96602100  0.22605100  0.05744200  1
  O  O9  1  0.03397900  0.22605100  0.55744200  1
  O  O10  1  0.01711400  0.85593300  0.93203000  1
  O  O11  1  0.19242000  0.65852200  0.74954200  1
loop_
_geom_bond_atom_site_label_1
_geom_bond_atom_site_label_2
_geom_bond_distance
_geom_bond_site_symmetry_2
La0 O11 2.366456 1_555
La0 O10 2.376049 1_545
La0 O9 2.386708 1_555
La0 O5 2.534781 1_555
La0 O3 2.642722 1_545
La0 O4 2.649558 1_555
La0 O1 2.782427 1_556
La0 O2 2.849760 1_555
La1 O6 2.366456 1_555
La1 O7 2.376049 1_545
La1 O8 2.386708 1_555
La1 O0 2.534781 1_555
La1 O2 2.642722 1_545
La1 O1 2.649558 1_555
La1 O4 2.782427 1_555
La1 O3 2.849760 1_554
Mg0 O5 2.154577 1_555
Mg0 O4 2.177660 1_565
Mg0 O3 2.191478 1_555
Mg0 O11 2.280132 1_655
Mg0 O10 2.322193 1_655
Mg0 O9 2.448347 1_665
Mg1 O0 2.154577 1_555
Mg1 O1 2.177660 1_565
Mg1 O2 2.191478 1_555
Mg1 O6 2.280132 1_455
Mg1 O7 2.322193 1_455
Mg1 O8 2.448347 1_465
Fe0 O10 1.964161 1_654
Fe0 O8 2.016112 1_565
Fe0 O1 2.041565 1_565
Fe0 O6 2.043961 1_555
Fe0 O3 2.092799 1_554
Fe0 O5 2.149414 1_564
Fe1 O7 1.964161 1_455
Fe1 O9 2.016112 1_565
Fe1 O4 2.041565 1_565
Fe1 O11 2.043961 1_555
Fe1 O2 2.092799 1_555
Fe1 O0 2.149414 1_565
Mo0 O9 2.015304 1_655
Mo0 O5 2.063543 1_555
Mo0 O6 2.064154 1_555
Mo0 O2 2.072688 1_555
Mo0 O7 2.101594 1_555
Mo0 O4 2.152369 1_555
Mo1 O8 2.015304 1_455
Mo1 O0 2.063543 1_555
Mo1 O11 2.064154 1_554
Mo1 O3 2.072688 1_554
Mo1 O10 2.101594 1_554
Mo1 O1 2.152369 1_555
