# generated using pymatgen
data_K3CrO8
_symmetry_space_group_name_H-M   'P 1'
_cell_length_a   6.20976519
_cell_length_b   6.20976519
_cell_length_c   6.20976519
_cell_angle_alpha   113.39083236
_cell_angle_beta   113.39083236
_cell_angle_gamma   101.88792260
_symmetry_Int_Tables_number   1
_chemical_formula_structural   K3CrO8
_chemical_formula_sum   'K3 Cr1 O8'
_cell_volume   181.95664324
_cell_formula_units_Z   1
loop_
 _symmetry_equiv_pos_site_id
 _symmetry_equiv_pos_as_xyz
  1  'x, y, z'
loop_
 _atom_site_type_symbol
 _atom_site_label
 _atom_site_symmetry_multiplicity
 _atom_site_fract_x
 _atom_site_fract_y
 _atom_site_fract_z
 _atom_site_occupancy
  K  K0  1  0.75000000  0.25000000  0.50000000  1
  K  K1  1  0.25000000  0.75000000  0.50000000  1
  K  K2  1  0.50000000  0.50000000  0.00000000  1
  Cr  Cr0  1  0.00000000  0.00000000  0.00000000  1
  O  O0  1  0.22256200  0.80993400  0.00000000  1
  O  O1  1  0.19006600  0.19006600  0.41262800  1
  O  O2  1  0.77743800  0.77743800  0.58737200  1
  O  O3  1  0.80993400  0.22256200  0.00000000  1
  O  O4  1  0.04485000  0.31322200  0.00000000  1
  O  O5  1  0.68677800  0.68677800  0.73162800  1
  O  O6  1  0.95515000  0.95515000  0.26837200  1
  O  O7  1  0.31322200  0.04485000  0.00000000  1
loop_
_geom_bond_atom_site_label_1
_geom_bond_atom_site_label_2
_geom_bond_distance
_geom_bond_site_symmetry_2
K0 O7 2.714588 1_555
K0 O6 2.714588 1_545
K0 O5 2.714588 1_555
K0 O4 2.714588 1_656
K0 O0 3.055567 1_545
K0 O3 3.055567 1_556
K0 O2 3.055567 1_555
K0 O1 3.055567 1_655
K0 O3 3.214256 1_555
K0 O2 3.214256 1_545
K0 O0 3.214256 1_656
K0 O1 3.214256 1_555
K1 O4 2.714588 1_555
K1 O6 2.714588 1_455
K1 O5 2.714588 1_555
K1 O7 2.714588 1_566
K1 O3 3.055567 1_455
K1 O0 3.055567 1_556
K1 O2 3.055567 1_555
K1 O1 3.055567 1_565
K1 O1 3.214256 1_555
K1 O2 3.214256 1_455
K1 O3 3.214256 1_566
K1 O0 3.214256 1_555
K2 O7 2.825429 1_555
K2 O4 2.825429 1_555
K2 O5 2.825429 1_554
K2 O6 2.825429 1_555
K2 O1 2.835201 1_554
K2 O3 2.835201 1_555
K2 O0 2.835201 1_555
K2 O2 2.835201 1_555
Cr0 O6 1.907235 1_445
Cr0 O7 1.907235 1_555
Cr0 O4 1.907235 1_555
Cr0 O5 1.907235 1_444
Cr0 O3 1.993779 1_455
Cr0 O0 1.993779 1_545
Cr0 O2 1.993779 1_444
Cr0 O1 1.993779 1_555
O0 O7 1.451416 1_565
O1 O6 1.451416 1_445
O2 O5 1.451416 1_555
O3 O4 1.451416 1_655
