# generated using pymatgen
data_Li2Fe3NiO8
_symmetry_space_group_name_H-M   'P 1'
_cell_length_a   8.38819589
_cell_length_b   8.34529261
_cell_length_c   8.40217692
_cell_angle_alpha   90.10061293
_cell_angle_beta   90.15363345
_cell_angle_gamma   90.35163064
_symmetry_Int_Tables_number   1
_chemical_formula_structural   Li2Fe3NiO8
_chemical_formula_sum   'Li8 Fe12 Ni4 O32'
_cell_volume   588.15464699
_cell_formula_units_Z   4
loop_
 _symmetry_equiv_pos_site_id
 _symmetry_equiv_pos_as_xyz
  1  'x, y, z'
loop_
 _atom_site_type_symbol
 _atom_site_label
 _atom_site_symmetry_multiplicity
 _atom_site_fract_x
 _atom_site_fract_y
 _atom_site_fract_z
 _atom_site_occupancy
  Li  Li0  1  0.12200400  0.87773500  0.37670900  1
  Li  Li1  1  0.25210800  0.75072900  0.74693900  1
  Li  Li2  1  0.24979500  0.25080100  0.24831000  1
  Li  Li3  1  0.37518300  0.12382000  0.87883400  1
  Li  Li4  1  0.62369100  0.62184200  0.62287700  1
  Li  Li5  1  0.75075300  0.75086700  0.24731600  1
  Li  Li6  1  0.75239400  0.24941000  0.74734000  1
  Li  Li7  1  0.87644400  0.37596000  0.12379800  1
  Fe  Fe0  1  0.11794400  0.62372700  0.12754400  1
  Fe  Fe1  1  0.12363900  0.37643900  0.87956800  1
  Fe  Fe2  1  0.12604800  0.12013500  0.62204400  1
  Fe  Fe3  1  0.37320600  0.88179400  0.12479800  1
  Fe  Fe4  1  0.37658400  0.62525300  0.38452400  1
  Fe  Fe5  1  0.38424500  0.37574200  0.62597300  1
  Fe  Fe6  1  0.61831500  0.87585900  0.87350000  1
  Fe  Fe7  1  0.62231400  0.12582600  0.11857800  1
  Fe  Fe8  1  0.62582700  0.38185100  0.37721900  1
  Fe  Fe9  1  0.87370200  0.61727800  0.87607700  1
  Fe  Fe10  1  0.87518400  0.87317600  0.61806400  1
  Fe  Fe11  1  0.88068300  0.12310300  0.37415700  1
  Ni  Ni0  1  0.99950600  0.49992000  0.50043600  1
  Ni  Ni1  1  0.49689100  0.50225700  0.00223600  1
  Ni  Ni2  1  0.49988700  0.99985900  0.50151000  1
  Ni  Ni3  1  0.99923700  0.00179400  0.00104500  1
  O  O0  1  0.10539600  0.12760400  0.38768400  1
  O  O1  1  0.10961500  0.89507100  0.62934000  1
  O  O2  1  0.11702500  0.60884500  0.88344300  1
  O  O3  1  0.12628300  0.38955200  0.10377600  1
  O  O4  1  0.12144600  0.14763800  0.86191900  1
  O  O5  1  0.13509500  0.36473100  0.63470800  1
  O  O6  1  0.13350800  0.61496700  0.36703000  1
  O  O7  1  0.13778300  0.85772000  0.12293900  1
  O  O8  1  0.36369600  0.13432400  0.61614900  1
  O  O9  1  0.35640900  0.37512500  0.85942200  1
  O  O10  1  0.35424100  0.63966200  0.14850400  1
  O  O11  1  0.38313900  0.86307600  0.36862000  1
  O  O12  1  0.37615800  0.61171100  0.60551500  1
  O  O13  1  0.38577700  0.38674300  0.38569800  1
  O  O14  1  0.38895400  0.10712100  0.12702000  1
  O  O15  1  0.39624000  0.87241500  0.88777900  1
  O  O16  1  0.60965200  0.37483100  0.60938400  1
  O  O17  1  0.61239400  0.60663500  0.37242300  1
  O  O18  1  0.61347500  0.88782400  0.11371200  1
  O  O19  1  0.62655800  0.10966600  0.89274600  1
  O  O20  1  0.62504000  0.35712900  0.13987900  1
  O  O21  1  0.63410500  0.13565700  0.36756200  1
  O  O22  1  0.63354600  0.88155900  0.63534500  1
  O  O23  1  0.64164400  0.63695500  0.87313100  1
  O  O24  1  0.86364400  0.36473800  0.38246200  1
  O  O25  1  0.85978900  0.12369600  0.14336900  1
  O  O26  1  0.85814300  0.86494100  0.86136200  1
  O  O27  1  0.88268000  0.63528900  0.63325300  1
  O  O28  1  0.87355200  0.89038500  0.39191700  1
  O  O29  1  0.88504200  0.11513100  0.60976000  1
  O  O30  1  0.89726000  0.38819500  0.87389800  1
  O  O31  1  0.89712900  0.62597000  0.11093000  1
loop_
_geom_bond_atom_site_label_1
_geom_bond_atom_site_label_2
_geom_bond_distance
_geom_bond_site_symmetry_2
Li0 O28 2.091621 1_455
Li0 O0 2.092619 1_565
Li0 O1 2.130179 1_555
Li0 O7 2.142969 1_555
Li0 O11 2.195842 1_555
Li0 O6 2.196962 1_555
Li1 O12 1.963997 1_555
Li1 O15 1.966300 1_555
Li1 O1 1.967609 1_555
Li1 O2 1.999162 1_555
Li2 O14 1.964212 1_555
Li2 O0 1.972825 1_555
Li2 O13 1.973095 1_555
Li2 O3 1.975308 1_555
Li3 O14 2.093126 1_556
Li3 O15 2.108005 1_545
Li3 O9 2.110646 1_555
Li3 O19 2.115543 1_555
Li3 O4 2.143232 1_555
Li3 O8 2.210886 1_555
Li4 O16 2.066914 1_555
Li4 O12 2.082272 1_555
Li4 O17 2.109800 1_555
Li4 O23 2.111156 1_555
Li4 O22 2.170818 1_555
Li4 O27 2.176165 1_555
Li5 O28 1.966317 1_555
Li5 O17 1.973460 1_555
Li5 O18 1.976409 1_555
Li5 O31 1.981463 1_555
Li6 O29 1.961559 1_555
Li6 O16 1.971029 1_555
Li6 O30 1.979966 1_555
Li6 O19 1.990884 1_555
Li7 O31 2.095552 1_555
Li7 O3 2.105269 1_655
Li7 O30 2.110017 1_554
Li7 O25 2.115709 1_555
Li7 O20 2.118404 1_555
Li7 O24 2.178429 1_555
Fe0 O31 1.857330 1_455
Fe0 O7 1.959259 1_555
Fe0 O3 1.965778 1_555
Fe0 O10 1.993051 1_555
Fe0 O6 2.017567 1_555
Fe0 O2 2.054510 1_554
Fe1 O3 1.886882 1_556
Fe1 O30 1.902519 1_455
Fe1 O4 1.914873 1_555
Fe1 O2 1.940848 1_555
Fe1 O9 1.960392 1_555
Fe1 O5 2.062030 1_555
Fe2 O1 1.883550 1_545
Fe2 O0 1.977402 1_555
Fe2 O8 1.996978 1_555
Fe2 O29 2.024133 1_455
Fe2 O4 2.028595 1_555
Fe2 O5 2.044743 1_555
Fe3 O14 1.884301 1_565
Fe3 O7 1.983758 1_555
Fe3 O15 2.002782 1_554
Fe3 O18 2.018147 1_555
Fe3 O10 2.036098 1_555
Fe3 O11 2.056361 1_555
Fe4 O12 1.860451 1_555
Fe4 O17 1.987923 1_555
Fe4 O11 1.989863 1_555
Fe4 O13 1.992442 1_555
Fe4 O10 1.995324 1_555
Fe4 O6 2.045133 1_555
Fe5 O16 1.896322 1_555
Fe5 O9 1.975962 1_555
Fe5 O12 1.978581 1_555
Fe5 O13 2.021152 1_555
Fe5 O8 2.022531 1_555
Fe5 O5 2.092864 1_555
Fe6 O15 1.867038 1_555
Fe6 O19 1.958377 1_565
Fe6 O23 2.004497 1_555
Fe6 O22 2.006066 1_555
Fe6 O26 2.017190 1_555
Fe6 O18 2.021126 1_556
Fe7 O19 1.902474 1_554
Fe7 O20 1.938247 1_555
Fe7 O14 1.964209 1_555
Fe7 O18 1.987470 1_545
Fe7 O25 2.002483 1_555
Fe7 O21 2.095518 1_555
Fe8 O17 1.880455 1_555
Fe8 O16 1.956722 1_555
Fe8 O24 2.001208 1_555
Fe8 O20 2.004445 1_555
Fe8 O13 2.015699 1_555
Fe8 O21 2.057625 1_555
Fe9 O30 1.923217 1_555
Fe9 O23 1.954560 1_555
Fe9 O31 1.983669 1_556
Fe9 O2 2.043461 1_655
Fe9 O27 2.047595 1_555
Fe9 O26 2.075617 1_555
Fe10 O28 1.905817 1_555
Fe10 O1 1.975811 1_655
Fe10 O27 1.990925 1_555
Fe10 O29 2.021705 1_565
Fe10 O22 2.034112 1_555
Fe10 O26 2.050849 1_555
Fe11 O0 1.888195 1_655
Fe11 O25 1.946575 1_555
Fe11 O28 1.948650 1_545
Fe11 O29 1.981059 1_555
Fe11 O24 2.023543 1_555
Fe11 O21 2.072236 1_555
Ni0 O6 1.854443 1_655
Ni0 O27 1.870001 1_555
Ni0 O24 1.878362 1_555
Ni0 O5 1.962778 1_655
Ni1 O23 1.977173 1_554
Ni1 O9 1.981591 1_554
Ni1 O20 1.993507 1_555
Ni1 O10 2.068049 1_555
Ni2 O11 1.866736 1_555
Ni2 O22 1.872669 1_555
Ni2 O8 1.873477 1_565
Ni2 O21 1.952973 1_565
Ni3 O25 1.962397 1_555
Ni3 O7 1.964750 1_645
Ni3 O4 1.973523 1_654
Ni3 O26 2.013395 1_544
