# generated using pymatgen
data_Li4V3Ni(PO4)4
_symmetry_space_group_name_H-M   'P 1'
_cell_length_a   6.07463400
_cell_length_b   4.75658600
_cell_length_c   10.42929134
_cell_angle_alpha   89.91186395
_cell_angle_beta   90.00000000
_cell_angle_gamma   90.00000000
_symmetry_Int_Tables_number   1
_chemical_formula_structural   Li4V3Ni(PO4)4
_chemical_formula_sum   'Li4 V3 Ni1 P4 O16'
_cell_volume   301.34900063
_cell_formula_units_Z   1
loop_
 _symmetry_equiv_pos_site_id
 _symmetry_equiv_pos_as_xyz
  1  'x, y, z'
loop_
 _atom_site_type_symbol
 _atom_site_label
 _atom_site_symmetry_multiplicity
 _atom_site_fract_x
 _atom_site_fract_y
 _atom_site_fract_z
 _atom_site_occupancy
  Li  Li0  1  0.24924000  0.00021900  0.00198700  1
  Li  Li1  1  0.75076000  0.00021900  0.00198700  1
  Li  Li2  1  0.74940300  0.49960900  0.49884100  1
  Li  Li3  1  0.25059700  0.49960900  0.49884100  1
  V  V0  1  0.00000000  0.48474800  0.77490600  1
  V  V1  1  0.50000000  0.51729300  0.22535900  1
  V  V2  1  0.50000000  0.98348400  0.72358000  1
  Ni  Ni0  1  0.00000000  0.01605100  0.27632700  1
  P  P0  1  0.50000000  0.08187200  0.40585900  1
  P  P1  1  0.50000000  0.41322600  0.90825100  1
  P  P2  1  0.00000000  0.58816200  0.09635300  1
  P  P3  1  0.00000000  0.91594700  0.58868500  1
  O  O0  1  0.50000000  0.20924000  0.54328200  1
  O  O1  1  0.29466200  0.21467700  0.33528200  1
  O  O2  1  0.70533800  0.21467700  0.33528200  1
  O  O3  1  0.00000000  0.23874800  0.59472700  1
  O  O4  1  0.00000000  0.26479000  0.10292100  1
  O  O5  1  0.29664500  0.27670000  0.83806300  1
  O  O6  1  0.70335500  0.27670000  0.83806300  1
  O  O7  1  0.50000000  0.29150600  0.04602300  1
  O  O8  1  0.00000000  0.70525300  0.95685500  1
  O  O9  1  0.79831200  0.72920100  0.16575800  1
  O  O10  1  0.20168800  0.72920100  0.16575800  1
  O  O11  1  0.50000000  0.73629200  0.90395900  1
  O  O12  1  0.50000000  0.75933200  0.40521100  1
  O  O13  1  0.79722000  0.77762600  0.65897700  1
  O  O14  1  0.20278000  0.77762600  0.65897700  1
  O  O15  1  0.00000000  0.79799100  0.44988800  1
loop_
_geom_bond_atom_site_label_1
_geom_bond_atom_site_label_2
_geom_bond_distance
_geom_bond_site_symmetry_2
Li0 O7 2.110201 1_555
Li0 O8 2.117641 1_544
Li0 O10 2.157734 1_545
Li0 O5 2.174461 1_554
Li0 O11 2.223859 1_544
Li0 O4 2.233432 1_555
Li1 O7 2.110201 1_555
Li1 O8 2.117641 1_644
Li1 O9 2.157734 1_545
Li1 O6 2.174461 1_554
Li1 O11 2.223859 1_544
Li1 O4 2.233432 1_655
Li2 O0 2.101378 1_555
Li2 O15 2.142460 1_655
Li2 O13 2.151556 1_555
Li2 O12 2.184343 1_555
Li2 O2 2.196675 1_555
Li2 O3 2.202994 1_655
Li3 O0 2.101378 1_555
Li3 O15 2.142460 1_555
Li3 O14 2.151556 1_555
Li3 O12 2.184343 1_555
Li3 O1 2.196675 1_555
Li3 O3 2.202994 1_555
Ni0 O15 2.084845 1_545
Ni0 O2 2.115756 1_455
Ni0 O1 2.115756 1_555
Ni0 O4 2.159615 1_555
Ni0 O9 2.167334 1_445
Ni0 O10 2.167334 1_545
O0 P0 1.556869 1_555
O0 V2 2.163960 1_545
O1 P0 1.579651 1_555
O1 V1 2.221940 1_555
O2 P0 1.579651 1_555
O2 V1 2.221940 1_555
O3 P3 1.536820 1_545
O3 V0 2.215200 1_555
O4 P2 1.539566 1_555
O5 P1 1.576390 1_555
O5 V0 2.158333 1_555
O5 V2 2.214022 1_545
O6 P1 1.576390 1_555
O6 V0 2.158333 1_655
O6 V2 2.214022 1_545
O7 P1 1.548298 1_554
O7 V1 2.158194 1_555
O8 P2 1.557028 1_556
O8 V0 2.169584 1_555
O9 P2 1.573713 1_655
O9 V1 2.164318 1_555
O10 P2 1.573713 1_555
O10 V1 2.164318 1_555
O11 P1 1.537274 1_555
O11 V2 2.216909 1_555
O12 P0 1.534215 1_565
O12 V1 2.202373 1_555
O13 P3 1.576766 1_655
O13 V2 2.162088 1_555
O13 V0 2.216919 1_655
O14 P3 1.576766 1_555
O14 V2 2.162088 1_555
O14 V0 2.216919 1_555
O15 P3 1.553290 1_555
