# generated using pymatgen
data_U2Nb3Si4
_symmetry_space_group_name_H-M   'P 1'
_cell_length_a   7.05412000
_cell_length_b   7.05412000
_cell_length_c   12.99670900
_cell_angle_alpha   90.00000000
_cell_angle_beta   90.00000000
_cell_angle_gamma   90.00000000
_symmetry_Int_Tables_number   1
_chemical_formula_structural   U2Nb3Si4
_chemical_formula_sum   'U8 Nb12 Si16'
_cell_volume   646.72415450
_cell_formula_units_Z   4
loop_
 _symmetry_equiv_pos_site_id
 _symmetry_equiv_pos_as_xyz
  1  'x, y, z'
loop_
 _atom_site_type_symbol
 _atom_site_label
 _atom_site_symmetry_multiplicity
 _atom_site_fract_x
 _atom_site_fract_y
 _atom_site_fract_z
 _atom_site_occupancy
  U  U0  1  0.99542700  0.33347800  0.21879200  1
  U  U1  1  0.00457300  0.66652200  0.71879200  1
  U  U2  1  0.16652200  0.49542700  0.46879200  1
  U  U3  1  0.50457300  0.83347800  0.03120800  1
  U  U4  1  0.83347800  0.50457300  0.96879200  1
  U  U5  1  0.49542700  0.16652200  0.53120800  1
  U  U6  1  0.33347800  0.99542700  0.78120800  1
  U  U7  1  0.66652200  0.00457300  0.28120800  1
  Nb  Nb0  1  0.16830000  0.16830000  0.00000000  1
  Nb  Nb1  1  0.83170000  0.83170000  0.50000000  1
  Nb  Nb2  1  0.33170000  0.66830000  0.25000000  1
  Nb  Nb3  1  0.66830000  0.33170000  0.75000000  1
  Nb  Nb4  1  0.15657800  0.99883400  0.37517100  1
  Nb  Nb5  1  0.84342200  0.00116600  0.87517100  1
  Nb  Nb6  1  0.50116600  0.65657800  0.62517100  1
  Nb  Nb7  1  0.34342200  0.49883400  0.87482900  1
  Nb  Nb8  1  0.49883400  0.34342200  0.12517100  1
  Nb  Nb9  1  0.65657800  0.50116600  0.37482900  1
  Nb  Nb10  1  0.99883400  0.15657800  0.62482900  1
  Nb  Nb11  1  0.00116600  0.84342200  0.12482900  1
  Si  Si0  1  0.29529800  0.04049600  0.18543200  1
  Si  Si1  1  0.70470200  0.95950400  0.68543200  1
  Si  Si2  1  0.45950400  0.79529800  0.43543200  1
  Si  Si3  1  0.20470200  0.54049600  0.06456800  1
  Si  Si4  1  0.54049600  0.20470200  0.93543200  1
  Si  Si5  1  0.79529800  0.45950400  0.56456800  1
  Si  Si6  1  0.04049600  0.29529800  0.81456800  1
  Si  Si7  1  0.95950400  0.70470200  0.31456800  1
  Si  Si8  1  0.37077300  0.29279400  0.31701100  1
  Si  Si9  1  0.62922700  0.70720600  0.81701100  1
  Si  Si10  1  0.20720600  0.87077300  0.56701100  1
  Si  Si11  1  0.12922700  0.79279400  0.93298900  1
  Si  Si12  1  0.79279400  0.12922700  0.06701100  1
  Si  Si13  1  0.87077300  0.20720600  0.43298900  1
  Si  Si14  1  0.29279400  0.37077300  0.68298900  1
  Si  Si15  1  0.70720600  0.62922700  0.18298900  1
loop_
_geom_bond_atom_site_label_1
_geom_bond_atom_site_label_2
_geom_bond_distance
_geom_bond_site_symmetry_2
Nb0 Si0 2.724605 1_555
Nb0 Si6 2.724605 1_554
Nb0 Si4 2.768299 1_554
Nb0 Si3 2.768299 1_555
Nb0 Si12 2.801956 1_455
Nb0 Si11 2.801956 1_544
Nb1 Si7 2.724605 1_555
Nb1 Si1 2.724605 1_555
Nb1 Si5 2.768299 1_555
Nb1 Si2 2.768299 1_555
Nb1 Si13 2.801956 1_565
Nb1 Si10 2.801956 1_655
Nb2 Si2 2.724605 1_555
Nb2 Si3 2.724605 1_555
Nb2 Si7 2.768299 1_455
Nb2 Si0 2.768299 1_565
Nb2 Si8 2.801956 1_555
Nb2 Si15 2.801956 1_555
Nb3 Si4 2.724605 1_555
Nb3 Si5 2.724605 1_555
Nb3 Si1 2.768299 1_545
Nb3 Si6 2.768299 1_655
Nb3 Si9 2.801956 1_555
Nb3 Si14 2.801956 1_555
Nb4 Si13 2.605741 1_465
Nb4 Si7 2.618770 1_455
Nb4 Si0 2.669269 1_565
Nb4 Si8 2.674752 1_565
Nb4 Si10 2.675834 1_555
Nb4 Si2 2.690922 1_555
Nb5 Si11 2.605741 1_645
Nb5 Si6 2.618770 1_655
Nb5 Si1 2.669269 1_545
Nb5 Si9 2.674752 1_545
Nb5 Si12 2.675834 1_556
Nb5 Si4 2.690922 1_555
Nb6 Si14 2.605741 1_555
Nb6 Si5 2.618770 1_555
Nb6 Si2 2.669269 1_555
Nb6 Si10 2.674752 1_555
Nb6 Si9 2.675834 1_555
Nb6 Si1 2.690922 1_555
Nb7 Si9 2.605741 1_555
Nb7 Si4 2.618770 1_555
Nb7 Si3 2.669269 1_556
Nb7 Si11 2.674752 1_555
Nb7 Si14 2.675834 1_555
Nb7 Si6 2.690922 1_555
Nb8 Si15 2.605741 1_555
Nb8 Si3 2.618770 1_555
Nb8 Si4 2.669269 1_554
Nb8 Si12 2.674752 1_555
Nb8 Si8 2.675834 1_555
Nb8 Si0 2.690922 1_555
Nb9 Si8 2.605741 1_555
Nb9 Si2 2.618770 1_555
Nb9 Si5 2.669269 1_555
Nb9 Si13 2.674752 1_555
Nb9 Si15 2.675834 1_555
Nb9 Si7 2.690922 1_555
Nb10 Si10 2.605741 1_645
Nb10 Si1 2.618770 1_545
Nb10 Si6 2.669269 1_655
Nb10 Si14 2.674752 1_655
Nb10 Si13 2.675834 1_555
Nb10 Si5 2.690922 1_555
Nb11 Si12 2.605741 1_465
Nb11 Si0 2.618770 1_565
Nb11 Si7 2.669269 1_455
Nb11 Si15 2.674752 1_455
Nb11 Si11 2.675834 1_554
Nb11 Si3 2.690922 1_555
Si0 Si8 2.524947 1_555
Si0 U3 2.886090 1_545
Si0 U7 2.910506 1_555
Si0 U0 2.988973 1_455
Si1 Si9 2.524947 1_555
Si1 U5 2.886090 1_565
Si1 U6 2.910506 1_555
Si1 U1 2.988973 1_655
Si2 U7 2.886090 1_565
Si2 U5 2.910506 1_565
Si2 U2 2.988973 1_555
Si3 U0 2.886090 1_455
Si3 U4 2.910506 1_454
Si3 U3 2.988973 1_555
Si4 U6 2.886090 1_545
Si4 U3 2.910506 1_546
Si4 U4 2.988973 1_555
Si5 U1 2.886090 1_655
Si5 U2 2.910506 1_655
Si5 U5 2.988973 1_555
Si6 U4 2.886090 1_455
Si6 U1 2.910506 1_555
Si6 U6 2.988973 1_545
Si7 U2 2.886090 1_655
Si7 U0 2.910506 1_555
Si7 U7 2.988973 1_565
Si8 U2 2.830278 1_555
Si8 U7 2.950024 1_555
Si8 U0 2.953368 1_455
Si8 U5 3.052291 1_555
Si9 U4 2.830278 1_555
Si9 U6 2.950024 1_555
Si9 U1 2.953368 1_655
Si9 U3 3.052291 1_556
Si10 Si2 2.524947 1_555
Si10 U1 2.830278 1_555
Si10 U5 2.950024 1_565
Si10 U2 2.953368 1_555
Si10 U6 3.052291 1_555
Si11 Si3 2.524947 1_556
Si11 U6 2.830278 1_555
Si11 U4 2.950024 1_455
Si11 U3 2.953368 1_556
Si11 U1 3.052291 1_555
Si12 Si4 2.524947 1_554
Si12 U0 2.830278 1_555
Si12 U3 2.950024 1_545
Si12 U4 2.953368 1_554
Si12 U7 3.052291 1_555
Si13 Si5 2.524947 1_555
Si13 U7 2.830278 1_555
Si13 U2 2.950024 1_655
Si13 U5 2.953368 1_555
Si13 U0 3.052291 1_555
Si14 Si6 2.524947 1_555
Si14 U5 2.830278 1_555
Si14 U1 2.950024 1_555
Si14 U6 2.953368 1_545
Si14 U2 3.052291 1_555
Si15 Si7 2.524947 1_555
Si15 U3 2.830278 1_555
Si15 U0 2.950024 1_555
Si15 U7 2.953368 1_565
Si15 U4 3.052291 1_554
