# generated using pymatgen
data_Al4Si2Sn13(SbO14)2
_symmetry_space_group_name_H-M   'P 1'
_cell_length_a   14.66050448
_cell_length_b   14.66050448
_cell_length_c   10.09293926
_cell_angle_alpha   87.86388840
_cell_angle_beta   87.86388840
_cell_angle_gamma   158.37237644
_symmetry_Int_Tables_number   1
_chemical_formula_structural   Al4Si2Sn13(SbO14)2
_chemical_formula_sum   'Al4 Si2 Sn13 Sb2 O28'
_cell_volume   783.60017101
_cell_formula_units_Z   1
loop_
 _symmetry_equiv_pos_site_id
 _symmetry_equiv_pos_as_xyz
  1  'x, y, z'
loop_
 _atom_site_type_symbol
 _atom_site_label
 _atom_site_symmetry_multiplicity
 _atom_site_fract_x
 _atom_site_fract_y
 _atom_site_fract_z
 _atom_site_occupancy
  Al  Al0  1  0.01447500  0.44909700  0.71566800  1
  Al  Al1  1  0.55090300  0.98552500  0.28433200  1
  Al  Al2  1  0.98552500  0.55090300  0.28433200  1
  Al  Al3  1  0.44909700  0.01447500  0.71566800  1
  Si  Si0  1  0.25580900  0.25580900  0.28405200  1
  Si  Si1  1  0.74419100  0.74419100  0.71594800  1
  Sn  Sn0  1  0.91016200  0.58898000  0.62437700  1
  Sn  Sn1  1  0.66853900  0.81005000  0.33881700  1
  Sn  Sn2  1  0.41102000  0.08983800  0.37562300  1
  Sn  Sn3  1  0.08983800  0.41102000  0.37562300  1
  Sn  Sn4  1  0.33146100  0.18995000  0.66118300  1
  Sn  Sn5  1  0.29630900  0.70369100  0.00000000  1
  Sn  Sn6  1  0.18995000  0.33146100  0.66118300  1
  Sn  Sn7  1  0.00000000  0.00000000  0.00000000  1
  Sn  Sn8  1  0.42628100  0.57371900  0.00000000  1
  Sn  Sn9  1  0.81005000  0.66853900  0.33881700  1
  Sn  Sn10  1  0.58898000  0.91016200  0.62437700  1
  Sn  Sn11  1  0.57371900  0.42628100  0.00000000  1
  Sn  Sn12  1  0.70369100  0.29630900  0.00000000  1
  Sb  Sb0  1  0.86068100  0.13931900  0.00000000  1
  Sb  Sb1  1  0.13931900  0.86068100  0.00000000  1
  O  O0  1  0.68618600  0.04425600  0.40148100  1
  O  O1  1  0.20834500  0.66943000  0.30718400  1
  O  O2  1  0.93916900  0.93916900  0.31400000  1
  O  O3  1  0.33540900  0.33540900  0.11806700  1
  O  O4  1  0.79165500  0.33057000  0.69281600  1
  O  O5  1  0.31381400  0.95574400  0.59851900  1
  O  O6  1  0.99721300  0.62189300  0.12640800  1
  O  O7  1  0.00278700  0.37810700  0.87359200  1
  O  O8  1  0.66459100  0.66459100  0.88193300  1
  O  O9  1  0.07635300  0.24532800  0.88050700  1
  O  O10  1  0.32228800  0.41628900  0.34096400  1
  O  O11  1  0.95574400  0.31381400  0.59851900  1
  O  O12  1  0.37810700  0.00278700  0.87359200  1
  O  O13  1  0.75467200  0.92364700  0.11949300  1
  O  O14  1  0.58371100  0.67771200  0.65903600  1
  O  O15  1  0.06083100  0.06083100  0.68600000  1
  O  O16  1  0.24532800  0.07635300  0.88050700  1
  O  O17  1  0.92364700  0.75467200  0.11949300  1
  O  O18  1  0.62189300  0.99721300  0.12640800  1
  O  O19  1  0.12856800  0.41981200  0.10181900  1
  O  O20  1  0.87143200  0.58018800  0.89818100  1
  O  O21  1  0.41628900  0.32228800  0.34096400  1
  O  O22  1  0.41981200  0.12856800  0.10181900  1
  O  O23  1  0.66943000  0.20834500  0.30718400  1
  O  O24  1  0.67771200  0.58371100  0.65903600  1
  O  O25  1  0.58018800  0.87143200  0.89818100  1
  O  O26  1  0.04425600  0.68618600  0.40148100  1
  O  O27  1  0.33057000  0.79165500  0.69281600  1
loop_
_geom_bond_atom_site_label_1
_geom_bond_atom_site_label_2
_geom_bond_distance
_geom_bond_site_symmetry_2
Al0 O11 1.774460 1_455
Al0 O7 1.782557 1_555
Al0 O4 1.810052 1_455
Al0 O27 1.820591 1_555
Al1 O0 1.774460 1_565
Al1 O18 1.782557 1_555
Al1 O23 1.810052 1_565
Al1 O1 1.820591 1_555
Al2 O26 1.774460 1_655
Al2 O6 1.782557 1_555
Al2 O1 1.810052 1_655
Al2 O23 1.820591 1_555
Al3 O5 1.774460 1_545
Al3 O12 1.782557 1_555
Al3 O27 1.810052 1_545
Al3 O4 1.820591 1_555
O0 Sn3 2.149667 1_655
O0 Sn10 2.275803 1_545
O1 Sn3 2.307843 1_555
O2 Si0 1.707725 1_665
O2 Sn1 2.305396 1_555
O2 Sn9 2.305396 1_555
O3 Si0 1.645242 1_555
O3 Sn7 2.387085 1_555
O3 Sn11 2.513725 1_555
O3 Sn8 2.513725 1_555
O4 Sn0 2.307843 1_555
O5 Sn0 2.149667 1_455
O5 Sn2 2.275803 1_565
O6 Sb1 2.032877 1_655
O6 Sn12 2.367280 1_555
O7 Sb0 2.032877 1_456
O7 Sn5 2.367280 1_556
O8 Si1 1.645242 1_555
O8 Sn7 2.387085 1_666
O8 Sn11 2.513725 1_556
O8 Sn8 2.513725 1_556
O9 Sb0 2.075372 1_456
O9 Sn6 2.207974 1_555
O9 Sn8 2.434311 1_556
O10 Si0 1.641478 1_555
O10 Sn1 2.143386 1_555
O11 Sn10 2.149667 1_545
O11 Sn3 2.275803 1_655
O12 Sb1 2.032877 1_546
O12 Sn12 2.367280 1_556
O13 Sb0 2.075372 1_565
O13 Sn1 2.207974 1_555
O13 Sn8 2.434311 1_555
O14 Si1 1.641478 1_555
O14 Sn6 2.143386 1_555
O15 Si1 1.707725 1_445
O15 Sn4 2.305396 1_555
O15 Sn6 2.305396 1_555
O16 Sb1 2.075372 1_546
O16 Sn4 2.207974 1_555
O16 Sn11 2.434311 1_556
O17 Sb1 2.075372 1_655
O17 Sn9 2.207974 1_555
O17 Sn11 2.434311 1_555
O18 Sb0 2.032877 1_565
O18 Sn5 2.367280 1_555
O19 Sb0 1.995012 1_455
O19 Sn5 2.211083 1_555
O19 Sn8 2.525922 1_555
O19 Sn3 2.774217 1_555
O20 Sb1 1.995012 1_656
O20 Sn12 2.211083 1_556
O20 Sn11 2.525922 1_556
O20 Sn0 2.774217 1_555
O21 Si0 1.641478 1_555
O21 Sn9 2.143386 1_555
O22 Sb1 1.995012 1_545
O22 Sn12 2.211083 1_555
O22 Sn11 2.525922 1_555
O22 Sn2 2.774217 1_555
O23 Sn2 2.307843 1_555
O24 Si1 1.641478 1_555
O24 Sn4 2.143386 1_555
O25 Sb0 1.995012 1_566
O25 Sn5 2.211083 1_556
O25 Sn8 2.525922 1_556
O25 Sn10 2.774217 1_555
O26 Sn2 2.149667 1_565
O26 Sn0 2.275803 1_455
O27 Sn10 2.307843 1_555
