# generated using pymatgen
data_GdCu4Au
_symmetry_space_group_name_H-M   'P 1'
_cell_length_a   5.01713428
_cell_length_b   5.01712639
_cell_length_c   5.01712854
_cell_angle_alpha   60.00189299
_cell_angle_beta   60.00203165
_cell_angle_gamma   60.00184753
_symmetry_Int_Tables_number   1
_chemical_formula_structural   GdCu4Au
_chemical_formula_sum   'Gd1 Cu4 Au1'
_cell_volume   89.30380046
_cell_formula_units_Z   1
loop_
 _symmetry_equiv_pos_site_id
 _symmetry_equiv_pos_as_xyz
  1  'x, y, z'
loop_
 _atom_site_type_symbol
 _atom_site_label
 _atom_site_symmetry_multiplicity
 _atom_site_fract_x
 _atom_site_fract_y
 _atom_site_fract_z
 _atom_site_occupancy
  Gd  Gd0  1  0.99999823  0.00000015  0.99999791  1
  Cu  Cu0  1  0.62391981  0.62392091  0.12823510  1
  Cu  Cu1  1  0.62392197  0.12823434  0.62392084  1
  Cu  Cu2  1  0.12823717  0.62392112  0.62392185  1
  Cu  Cu3  1  0.62392228  0.62392597  0.62392669  1
  Au  Au0  1  0.25000154  0.24999950  0.24999861  1
loop_
_geom_bond_atom_site_label_1
_geom_bond_atom_site_label_2
_geom_bond_distance
_geom_bond_site_symmetry_2
Cu0 Cu3 2.486967 1_555
Cu0 Cu2 2.486992 1_555
Cu0 Cu1 2.486992 1_555
Cu0 Cu3 2.530161 1_554
Cu0 Cu1 2.530279 1_564
Cu0 Cu2 2.530294 1_654
Cu0 Gd0 2.943880 1_564
Cu0 Gd0 2.943937 1_554
Cu0 Gd0 2.943942 1_464
Cu1 Cu3 2.486963 1_555
Cu1 Cu2 2.486990 1_555
Cu1 Cu3 2.530163 1_545
Cu1 Cu2 2.530281 1_645
Cu1 Gd0 2.943864 1_555
Cu1 Gd0 2.943945 1_554
Cu1 Gd0 2.943953 1_455
Cu2 Cu3 2.486943 1_555
Cu2 Cu3 2.530191 1_455
Cu2 Gd0 2.943862 1_465
Cu2 Gd0 2.943944 1_455
Cu2 Gd0 2.943955 1_464
Cu3 Gd0 2.943953 1_465
Cu3 Gd0 2.943953 1_555
Cu3 Gd0 2.943975 1_564
Au0 Cu0 2.939253 1_555
Au0 Cu1 2.939258 1_555
Au0 Cu2 2.939270 1_555
Au0 Cu2 2.939315 1_554
Au0 Cu0 2.939320 1_545
Au0 Cu2 2.939324 1_545
Au0 Cu1 2.939326 1_554
Au0 Cu0 2.939336 1_455
Au0 Cu1 2.939338 1_455
Au0 Cu3 2.939353 1_545
Au0 Cu3 2.939355 1_554
Au0 Cu3 2.939385 1_455
Au0 Gd0 3.072321 1_454
Au0 Gd0 3.072417 1_554
Au0 Gd0 3.072424 1_464
Au0 Gd0 3.072425 1_455
