# generated using pymatgen
data_CsH3(SeO3)2
_symmetry_space_group_name_H-M   'P 1'
_cell_length_a   5.95659200
_cell_length_b   6.73072792
_cell_length_c   9.52245678
_cell_angle_alpha   92.14647256
_cell_angle_beta   105.61269207
_cell_angle_gamma   91.48610348
_symmetry_Int_Tables_number   1
_chemical_formula_structural   CsH3(SeO3)2
_chemical_formula_sum   'Cs2 H6 Se4 O12'
_cell_volume   367.17449289
_cell_formula_units_Z   2
loop_
 _symmetry_equiv_pos_site_id
 _symmetry_equiv_pos_as_xyz
  1  'x, y, z'
loop_
 _atom_site_type_symbol
 _atom_site_label
 _atom_site_symmetry_multiplicity
 _atom_site_fract_x
 _atom_site_fract_y
 _atom_site_fract_z
 _atom_site_occupancy
  Cs  Cs0  1  0.88578900  0.23528600  0.83199300  1
  Cs  Cs1  1  0.11266200  0.75933600  0.16549200  1
  H  H0  1  0.52718600  0.01013900  0.02845200  1
  H  H1  1  0.47334500  0.51789800  0.97573300  1
  H  H2  1  0.53088300  0.52246800  0.48112400  1
  H  H3  1  0.45283200  0.00798400  0.49864500  1
  H  H4  1  0.21730100  0.29206500  0.24564800  1
  H  H5  1  0.78692200  0.70617300  0.75744900  1
  Se  Se0  1  0.19533700  0.26177300  0.52740300  1
  Se  Se1  1  0.83399300  0.76143600  0.48185700  1
  Se  Se2  1  0.59942200  0.26796600  0.21264700  1
  Se  Se3  1  0.40283700  0.74923300  0.78336200  1
  O  O0  1  0.09029000  0.34464700  0.35535000  1
  O  O1  1  0.93052100  0.66356500  0.64991700  1
  O  O2  1  0.46060800  0.37966300  0.59419100  1
  O  O3  1  0.56933000  0.60793700  0.40304600  1
  O  O4  1  0.66213100  0.42208000  0.09287600  1
  O  O5  1  0.33018900  0.57270300  0.90144700  1
  O  O6  1  0.28465500  0.26253500  0.15509900  1
  O  O7  1  0.71712400  0.73608300  0.84579900  1
  O  O8  1  0.27595200  0.01080500  0.48471900  1
  O  O9  1  0.72442900  0.98267900  0.51493400  1
  O  O10  1  0.63402400  0.02732900  0.13357200  1
  O  O11  1  0.36553800  0.96531600  0.86794400  1
loop_
_geom_bond_atom_site_label_1
_geom_bond_atom_site_label_2
_geom_bond_distance
_geom_bond_site_symmetry_2
Cs0 O2 3.113170 1_555
Cs0 O9 3.301327 1_545
Cs0 O6 3.338459 1_656
Cs0 O4 3.340870 1_556
Cs0 O5 3.351959 1_655
Cs0 O11 3.372633 1_645
Cs1 O3 3.249497 1_555
Cs1 O7 3.305682 1_454
Cs1 O8 3.314980 1_565
Cs1 O5 3.343696 1_554
Cs1 O10 3.363910 1_465
Cs1 O4 3.376449 1_455
H0 O10 1.031987 1_555
H0 O11 1.585078 1_544
H1 O5 1.036715 1_555
H1 O4 1.530066 1_556
H2 O3 1.026168 1_555
H2 O2 1.599241 1_555
H3 O8 1.026666 1_555
H3 O9 1.597348 1_545
H4 O6 1.058982 1_555
H4 O0 1.483402 1_555
H5 O7 1.049340 1_555
H5 O1 1.524655 1_555
O0 Se0 1.709289 1_555
O1 Se1 1.711422 1_555
O2 Se0 1.699145 1_555
O3 Se1 1.826624 1_555
O4 Se2 1.677535 1_555
O5 Se3 1.788507 1_555
O6 Se2 1.805250 1_555
O7 Se3 1.810919 1_555
O8 Se0 1.828900 1_555
O9 Se1 1.693679 1_555
O10 Se2 1.800632 1_555
O11 Se3 1.684837 1_555
