# generated using pymatgen
data_Eu3Ga5O12
_symmetry_space_group_name_H-M   'P 1'
_cell_length_a   10.94301040
_cell_length_b   10.94301040
_cell_length_c   10.94301040
_cell_angle_alpha   109.47122063
_cell_angle_beta   109.47122063
_cell_angle_gamma   109.47122063
_symmetry_Int_Tables_number   1
_chemical_formula_structural   Eu3Ga5O12
_chemical_formula_sum   'Eu12 Ga20 O48'
_cell_volume   1008.76160764
_cell_formula_units_Z   4
loop_
 _symmetry_equiv_pos_site_id
 _symmetry_equiv_pos_as_xyz
  1  'x, y, z'
loop_
 _atom_site_type_symbol
 _atom_site_label
 _atom_site_symmetry_multiplicity
 _atom_site_fract_x
 _atom_site_fract_y
 _atom_site_fract_z
 _atom_site_occupancy
  Eu  Eu0  1  0.25000000  0.37500000  0.12500000  1
  Eu  Eu1  1  0.75000000  0.62500000  0.87500000  1
  Eu  Eu2  1  0.75000000  0.12500000  0.37500000  1
  Eu  Eu3  1  0.12500000  0.25000000  0.37500000  1
  Eu  Eu4  1  0.37500000  0.75000000  0.12500000  1
  Eu  Eu5  1  0.25000000  0.87500000  0.62500000  1
  Eu  Eu6  1  0.87500000  0.75000000  0.62500000  1
  Eu  Eu7  1  0.62500000  0.25000000  0.87500000  1
  Eu  Eu8  1  0.37500000  0.12500000  0.25000000  1
  Eu  Eu9  1  0.62500000  0.87500000  0.75000000  1
  Eu  Eu10  1  0.12500000  0.37500000  0.75000000  1
  Eu  Eu11  1  0.87500000  0.62500000  0.25000000  1
  Ga  Ga0  1  0.25000000  0.62500000  0.37500000  1
  Ga  Ga1  1  0.75000000  0.37500000  0.62500000  1
  Ga  Ga2  1  0.75000000  0.87500000  0.12500000  1
  Ga  Ga3  1  0.37500000  0.25000000  0.62500000  1
  Ga  Ga4  1  0.62500000  0.75000000  0.37500000  1
  Ga  Ga5  1  0.25000000  0.12500000  0.87500000  1
  Ga  Ga6  1  0.12500000  0.75000000  0.87500000  1
  Ga  Ga7  1  0.87500000  0.25000000  0.12500000  1
  Ga  Ga8  1  0.62500000  0.37500000  0.25000000  1
  Ga  Ga9  1  0.37500000  0.62500000  0.75000000  1
  Ga  Ga10  1  0.87500000  0.12500000  0.75000000  1
  Ga  Ga11  1  0.12500000  0.87500000  0.25000000  1
  Ga  Ga12  1  0.00000000  0.00000000  0.00000000  1
  Ga  Ga13  1  0.50000000  0.00000000  0.50000000  1
  Ga  Ga14  1  0.00000000  0.50000000  0.50000000  1
  Ga  Ga15  1  0.50000000  0.00000000  0.00000000  1
  Ga  Ga16  1  0.50000000  0.50000000  0.00000000  1
  Ga  Ga17  1  0.50000000  0.50000000  0.50000000  1
  Ga  Ga18  1  0.00000000  0.00000000  0.50000000  1
  Ga  Ga19  1  0.00000000  0.50000000  0.00000000  1
  O  O0  1  0.47624400  0.38012900  0.29811300  1
  O  O1  1  0.52375600  0.61987100  0.70188700  1
  O  O2  1  0.58201700  0.17813100  0.20188700  1
  O  O3  1  0.91798300  0.11987100  0.59611400  1
  O  O4  1  0.29811300  0.47624400  0.38012900  1
  O  O5  1  0.32186900  0.91798300  0.29811300  1
  O  O6  1  0.41798300  0.82186900  0.79811300  1
  O  O7  1  0.08201700  0.88012900  0.40388600  1
  O  O8  1  0.70188700  0.52375600  0.61987100  1
  O  O9  1  0.67813100  0.08201700  0.70188700  1
  O  O10  1  0.02375600  0.32186900  0.90388600  1
  O  O11  1  0.20188700  0.58201700  0.17813100  1
  O  O12  1  0.11987100  0.02375600  0.20188700  1
  O  O13  1  0.97624400  0.67813100  0.09611400  1
  O  O14  1  0.79811300  0.41798300  0.82186900  1
  O  O15  1  0.88012900  0.97624400  0.79811300  1
  O  O16  1  0.59611400  0.91798300  0.11987100  1
  O  O17  1  0.17813100  0.47624400  0.59611400  1
  O  O18  1  0.40388600  0.08201700  0.88012900  1
  O  O19  1  0.82186900  0.52375600  0.40388600  1
  O  O20  1  0.90388600  0.02375600  0.32186900  1
  O  O21  1  0.38012900  0.58201700  0.90388600  1
  O  O22  1  0.09611400  0.97624400  0.67813100  1
  O  O23  1  0.61987100  0.41798300  0.09611400  1
  O  O24  1  0.38012900  0.29811300  0.47624400  1
  O  O25  1  0.58201700  0.90388600  0.38012900  1
  O  O26  1  0.61987100  0.70188700  0.52375600  1
  O  O27  1  0.41798300  0.09611400  0.61987100  1
  O  O28  1  0.11987100  0.59611400  0.91798300  1
  O  O29  1  0.02375600  0.20188700  0.11987100  1
  O  O30  1  0.88012900  0.40388600  0.08201700  1
  O  O31  1  0.97624400  0.79811300  0.88012900  1
  O  O32  1  0.32186900  0.90388600  0.02375600  1
  O  O33  1  0.91798300  0.29811300  0.32186900  1
  O  O34  1  0.67813100  0.09611400  0.97624400  1
  O  O35  1  0.08201700  0.70188700  0.67813100  1
  O  O36  1  0.17813100  0.20188700  0.58201700  1
  O  O37  1  0.47624400  0.59611400  0.17813100  1
  O  O38  1  0.82186900  0.79811300  0.41798300  1
  O  O39  1  0.52375600  0.40388600  0.82186900  1
  O  O40  1  0.29811300  0.32186900  0.91798300  1
  O  O41  1  0.70188700  0.67813100  0.08201700  1
  O  O42  1  0.20188700  0.11987100  0.02375600  1
  O  O43  1  0.79811300  0.88012900  0.97624400  1
  O  O44  1  0.90388600  0.38012900  0.58201700  1
  O  O45  1  0.09611400  0.61987100  0.41798300  1
  O  O46  1  0.59611400  0.17813100  0.47624400  1
  O  O47  1  0.40388600  0.82186900  0.52375600  1
loop_
_geom_bond_atom_site_label_1
_geom_bond_atom_site_label_2
_geom_bond_distance
_geom_bond_site_symmetry_2
Eu0 O4 2.422463 1_555
Eu0 O42 2.422463 1_555
Eu0 O40 2.422473 1_554
Eu0 O11 2.422473 1_555
Eu0 O37 2.535958 1_555
Eu0 O10 2.535958 1_554
Eu0 O29 2.535964 1_555
Eu0 O0 2.535964 1_555
Eu1 O8 2.422463 1_555
Eu1 O43 2.422463 1_555
Eu1 O41 2.422473 1_556
Eu1 O14 2.422473 1_555
Eu1 O13 2.535958 1_556
Eu1 O39 2.535958 1_555
Eu1 O31 2.535964 1_555
Eu1 O1 2.535964 1_555
Eu2 O44 2.422467 1_555
Eu2 O16 2.422467 1_545
Eu2 O20 2.422473 1_555
Eu2 O46 2.422473 1_555
Eu2 O3 2.535951 1_555
Eu2 O25 2.535951 1_545
Eu2 O2 2.535958 1_555
Eu2 O33 2.535958 1_555
Eu3 O24 2.422463 1_555
Eu3 O29 2.422463 1_555
Eu3 O36 2.422473 1_555
Eu3 O33 2.422473 1_455
Eu3 O20 2.535958 1_455
Eu3 O17 2.535958 1_555
Eu3 O4 2.535964 1_555
Eu3 O12 2.535964 1_555
Eu4 O28 2.422467 1_554
Eu4 O25 2.422467 1_555
Eu4 O32 2.422473 1_555
Eu4 O37 2.422473 1_555
Eu4 O16 2.535951 1_555
Eu4 O21 2.535951 1_554
Eu4 O11 2.535958 1_555
Eu4 O5 2.535958 1_555
Eu5 O18 2.422467 1_565
Eu5 O45 2.422467 1_555
Eu5 O22 2.422473 1_555
Eu5 O47 2.422473 1_555
Eu5 O7 2.535951 1_555
Eu5 O27 2.535951 1_565
Eu5 O6 2.535958 1_555
Eu5 O35 2.535958 1_555
Eu6 O31 2.422463 1_555
Eu6 O26 2.422463 1_555
Eu6 O38 2.422473 1_555
Eu6 O35 2.422473 1_655
Eu6 O19 2.535958 1_555
Eu6 O22 2.535958 1_655
Eu6 O15 2.535964 1_555
Eu6 O8 2.535964 1_555
Eu7 O27 2.422467 1_555
Eu7 O30 2.422467 1_556
Eu7 O39 2.422473 1_555
Eu7 O34 2.422473 1_555
Eu7 O18 2.535951 1_555
Eu7 O23 2.535951 1_556
Eu7 O9 2.535958 1_555
Eu7 O14 2.535958 1_555
Eu8 O0 2.422463 1_555
Eu8 O12 2.422463 1_555
Eu8 O5 2.422473 1_545
Eu8 O2 2.422473 1_555
Eu8 O46 2.535958 1_555
Eu8 O32 2.535958 1_545
Eu8 O42 2.535964 1_555
Eu8 O24 2.535964 1_555
Eu9 O15 2.422463 1_555
Eu9 O1 2.422463 1_555
Eu9 O9 2.422473 1_565
Eu9 O6 2.422473 1_555
Eu9 O34 2.535958 1_565
Eu9 O47 2.535958 1_555
Eu9 O43 2.535964 1_555
Eu9 O26 2.535964 1_555
Eu10 O21 2.422467 1_555
Eu10 O3 2.422467 1_455
Eu10 O10 2.422473 1_555
Eu10 O17 2.422473 1_555
Eu10 O28 2.535951 1_555
Eu10 O44 2.535951 1_455
Eu10 O40 2.535958 1_555
Eu10 O36 2.535958 1_555
Eu11 O7 2.422467 1_655
Eu11 O23 2.422467 1_555
Eu11 O13 2.422473 1_555
Eu11 O19 2.422473 1_555
Eu11 O30 2.535951 1_555
Eu11 O45 2.535951 1_655
Eu11 O41 2.535958 1_555
Eu11 O38 2.535958 1_555
Ga0 O4 1.882231 1_555
Ga0 O47 1.882233 1_555
Ga0 O11 1.882233 1_555
Ga0 O45 1.882236 1_555
Ga1 O8 1.882231 1_555
Ga1 O14 1.882233 1_555
Ga1 O46 1.882233 1_555
Ga1 O44 1.882236 1_555
Ga2 O43 1.882231 1_554
Ga2 O41 1.882233 1_555
Ga2 O20 1.882233 1_565
Ga2 O16 1.882236 1_555
Ga3 O24 1.882231 1_555
Ga3 O39 1.882233 1_555
Ga3 O36 1.882233 1_555
Ga3 O27 1.882236 1_555
Ga4 O26 1.882231 1_555
Ga4 O38 1.882233 1_555
Ga4 O37 1.882233 1_555
Ga4 O25 1.882236 1_555
Ga5 O42 1.882231 1_556
Ga5 O22 1.882233 1_545
Ga5 O40 1.882233 1_555
Ga5 O18 1.882236 1_555
Ga6 O31 1.882231 1_455
Ga6 O35 1.882233 1_555
Ga6 O32 1.882233 1_556
Ga6 O28 1.882236 1_555
Ga7 O29 1.882231 1_655
Ga7 O34 1.882233 1_554
Ga7 O33 1.882233 1_555
Ga7 O30 1.882236 1_555
Ga8 O0 1.882231 1_555
Ga8 O19 1.882233 1_555
Ga8 O2 1.882233 1_555
Ga8 O23 1.882236 1_555
Ga9 O1 1.882231 1_555
Ga9 O6 1.882233 1_555
Ga9 O17 1.882233 1_555
Ga9 O21 1.882236 1_555
Ga10 O15 1.882231 1_545
Ga10 O9 1.882233 1_555
Ga10 O10 1.882233 1_655
Ga10 O3 1.882236 1_555
Ga11 O12 1.882231 1_565
Ga11 O13 1.882233 1_455
Ga11 O5 1.882233 1_555
Ga11 O7 1.882236 1_555
Ga12 O15 2.031465 1_444
Ga12 O12 2.031465 1_555
Ga12 O29 2.031465 1_555
Ga12 O42 2.031465 1_555
Ga12 O31 2.031465 1_444
Ga12 O43 2.031465 1_444
Ga13 O5 2.031463 1_545
Ga13 O47 2.031463 1_545
Ga13 O46 2.031463 1_555
Ga13 O9 2.031463 1_555
Ga13 O27 2.031470 1_555
Ga13 O25 2.031470 1_545
Ga14 O33 2.031463 1_455
Ga14 O17 2.031463 1_555
Ga14 O19 2.031463 1_455
Ga14 O35 2.031463 1_555
Ga14 O45 2.031470 1_555
Ga14 O44 2.031470 1_455
Ga15 O32 2.031463 1_545
Ga15 O2 2.031463 1_555
Ga15 O34 2.031463 1_554
Ga15 O6 2.031463 1_544
Ga15 O18 2.031470 1_554
Ga15 O16 2.031470 1_545
Ga16 O40 2.031463 1_554
Ga16 O37 2.031463 1_555
Ga16 O39 2.031463 1_554
Ga16 O41 2.031463 1_555
Ga16 O23 2.031470 1_555
Ga16 O21 2.031470 1_554
Ga17 O0 2.031465 1_555
Ga17 O26 2.031465 1_555
Ga17 O4 2.031465 1_555
Ga17 O8 2.031465 1_555
Ga17 O24 2.031465 1_555
Ga17 O1 2.031465 1_555
Ga18 O36 2.031463 1_555
Ga18 O20 2.031463 1_455
Ga18 O38 2.031463 1_445
Ga18 O22 2.031463 1_545
Ga18 O7 2.031470 1_545
Ga18 O3 2.031470 1_455
Ga19 O13 2.031463 1_455
Ga19 O10 2.031463 1_554
Ga19 O11 2.031463 1_555
Ga19 O14 2.031463 1_454
Ga19 O30 2.031470 1_455
Ga19 O28 2.031470 1_554
