# generated using pymatgen
data_BaMn9V6(HO13)2
_symmetry_space_group_name_H-M   'P 1'
_cell_length_a   13.02619170
_cell_length_b   13.02619170
_cell_length_c   13.02619170
_cell_angle_alpha   90.00000000
_cell_angle_beta   90.00000000
_cell_angle_gamma   90.00000000
_symmetry_Int_Tables_number   1
_chemical_formula_structural   BaMn9V6(HO13)2
_chemical_formula_sum   'Ba4 Mn36 V24 H8 O104'
_cell_volume   2210.30596407
_cell_formula_units_Z   4
loop_
 _symmetry_equiv_pos_site_id
 _symmetry_equiv_pos_as_xyz
  1  'x, y, z'
loop_
 _atom_site_type_symbol
 _atom_site_label
 _atom_site_symmetry_multiplicity
 _atom_site_fract_x
 _atom_site_fract_y
 _atom_site_fract_z
 _atom_site_occupancy
  Ba  Ba0  1  0.50000000  0.00000000  0.00000000  1
  Ba  Ba1  1  0.50000000  0.50000000  0.50000000  1
  Ba  Ba2  1  0.00000000  0.00000000  0.50000000  1
  Ba  Ba3  1  0.00000000  0.50000000  0.00000000  1
  Mn  Mn0  1  0.17531423  0.82468577  0.32468577  1
  Mn  Mn1  1  0.82468577  0.32468577  0.17531423  1
  Mn  Mn2  1  0.32468577  0.17531423  0.82468577  1
  Mn  Mn3  1  0.67531423  0.67531423  0.67531423  1
  Mn  Mn4  1  0.82468577  0.17531423  0.67531423  1
  Mn  Mn5  1  0.17531423  0.67531423  0.82468577  1
  Mn  Mn6  1  0.67531423  0.82468577  0.17531423  1
  Mn  Mn7  1  0.32468577  0.32468577  0.32468577  1
  Mn  Mn8  1  0.00000000  0.00000000  0.00000000  1
  Mn  Mn9  1  0.00000000  0.50000000  0.50000000  1
  Mn  Mn10  1  0.50000000  0.00000000  0.50000000  1
  Mn  Mn11  1  0.50000000  0.50000000  0.00000000  1
  Mn  Mn12  1  0.19451901  0.99410806  0.15970410  1
  Mn  Mn13  1  0.80548099  0.49410806  0.34029590  1
  Mn  Mn14  1  0.30548099  0.00589194  0.65970410  1
  Mn  Mn15  1  0.69451901  0.50589194  0.84029590  1
  Mn  Mn16  1  0.15970410  0.19451901  0.99410806  1
  Mn  Mn17  1  0.34029590  0.80548099  0.49410806  1
  Mn  Mn18  1  0.65970410  0.30548099  0.00589194  1
  Mn  Mn19  1  0.84029590  0.69451901  0.50589194  1
  Mn  Mn20  1  0.99410806  0.15970410  0.19451901  1
  Mn  Mn21  1  0.49410806  0.34029590  0.80548099  1
  Mn  Mn22  1  0.00589194  0.65970410  0.30548099  1
  Mn  Mn23  1  0.50589194  0.84029590  0.69451901  1
  Mn  Mn24  1  0.80548099  0.00589194  0.84029590  1
  Mn  Mn25  1  0.19451901  0.50589194  0.65970410  1
  Mn  Mn26  1  0.69451901  0.99410806  0.34029590  1
  Mn  Mn27  1  0.30548099  0.49410806  0.15970410  1
  Mn  Mn28  1  0.84029590  0.80548099  0.00589194  1
  Mn  Mn29  1  0.65970410  0.19451901  0.50589194  1
  Mn  Mn30  1  0.34029590  0.69451901  0.99410806  1
  Mn  Mn31  1  0.15970410  0.30548099  0.49410806  1
  Mn  Mn32  1  0.00589194  0.84029590  0.80548099  1
  Mn  Mn33  1  0.50589194  0.65970410  0.19451901  1
  Mn  Mn34  1  0.99410806  0.34029590  0.69451901  1
  Mn  Mn35  1  0.49410806  0.15970410  0.30548099  1
  V  V0  1  0.42734027  0.90755906  0.25455569  1
  V  V1  1  0.57265973  0.40755906  0.24544431  1
  V  V2  1  0.07265973  0.09244094  0.75455569  1
  V  V3  1  0.92734027  0.59244094  0.74544431  1
  V  V4  1  0.25455569  0.42734027  0.90755906  1
  V  V5  1  0.24544431  0.57265973  0.40755906  1
  V  V6  1  0.75455569  0.07265973  0.09244094  1
  V  V7  1  0.74544431  0.92734027  0.59244094  1
  V  V8  1  0.90755906  0.25455569  0.42734027  1
  V  V9  1  0.40755906  0.24544431  0.57265973  1
  V  V10  1  0.09244094  0.75455569  0.07265973  1
  V  V11  1  0.59244094  0.74544431  0.92734027  1
  V  V12  1  0.57265973  0.09244094  0.74544431  1
  V  V13  1  0.42734027  0.59244094  0.75455569  1
  V  V14  1  0.92734027  0.90755906  0.24544431  1
  V  V15  1  0.07265973  0.40755906  0.25455569  1
  V  V16  1  0.74544431  0.57265973  0.09244094  1
  V  V17  1  0.75455569  0.42734027  0.59244094  1
  V  V18  1  0.24544431  0.92734027  0.90755906  1
  V  V19  1  0.25455569  0.07265973  0.40755906  1
  V  V20  1  0.09244094  0.74544431  0.57265973  1
  V  V21  1  0.59244094  0.75455569  0.42734027  1
  V  V22  1  0.90755906  0.24544431  0.92734027  1
  V  V23  1  0.40755906  0.25455569  0.07265973  1
  H  H0  1  0.19763920  0.19763920  0.19763920  1
  H  H1  1  0.80236080  0.69763920  0.30236080  1
  H  H2  1  0.30236080  0.80236080  0.69763920  1
  H  H3  1  0.69763920  0.30236080  0.80236080  1
  H  H4  1  0.80236080  0.80236080  0.80236080  1
  H  H5  1  0.19763920  0.30236080  0.69763920  1
  H  H6  1  0.69763920  0.19763920  0.30236080  1
  H  H7  1  0.30236080  0.69763920  0.19763920  1
  O  O0  1  0.35697689  0.97946613  0.16992441  1
  O  O1  1  0.64302311  0.47946613  0.33007559  1
  O  O2  1  0.14302311  0.02053387  0.66992441  1
  O  O3  1  0.85697689  0.52053387  0.83007559  1
  O  O4  1  0.16992441  0.35697689  0.97946613  1
  O  O5  1  0.33007559  0.64302311  0.47946613  1
  O  O6  1  0.66992441  0.14302311  0.02053387  1
  O  O7  1  0.83007559  0.85697689  0.52053387  1
  O  O8  1  0.97946613  0.16992441  0.35697689  1
  O  O9  1  0.47946613  0.33007559  0.64302311  1
  O  O10  1  0.02053387  0.66992441  0.14302311  1
  O  O11  1  0.52053387  0.83007559  0.85697689  1
  O  O12  1  0.64302311  0.02053387  0.83007559  1
  O  O13  1  0.35697689  0.52053387  0.66992441  1
  O  O14  1  0.85697689  0.97946613  0.33007559  1
  O  O15  1  0.14302311  0.47946613  0.16992441  1
  O  O16  1  0.83007559  0.64302311  0.02053387  1
  O  O17  1  0.66992441  0.35697689  0.52053387  1
  O  O18  1  0.33007559  0.85697689  0.97946613  1
  O  O19  1  0.16992441  0.14302311  0.47946613  1
  O  O20  1  0.02053387  0.83007559  0.64302311  1
  O  O21  1  0.52053387  0.66992441  0.35697689  1
  O  O22  1  0.97946613  0.33007559  0.85697689  1
  O  O23  1  0.47946613  0.16992441  0.14302311  1
  O  O24  1  0.17975244  0.99081557  0.32972924  1
  O  O25  1  0.82024756  0.49081557  0.17027076  1
  O  O26  1  0.32024756  0.00918443  0.82972924  1
  O  O27  1  0.67975244  0.50918443  0.67027076  1
  O  O28  1  0.32972924  0.17975244  0.99081557  1
  O  O29  1  0.17027076  0.82024756  0.49081557  1
  O  O30  1  0.82972924  0.32024756  0.00918443  1
  O  O31  1  0.67027076  0.67975244  0.50918443  1
  O  O32  1  0.99081557  0.32972924  0.17975244  1
  O  O33  1  0.49081557  0.17027076  0.82024756  1
  O  O34  1  0.00918443  0.82972924  0.32024756  1
  O  O35  1  0.50918443  0.67027076  0.67975244  1
  O  O36  1  0.82024756  0.00918443  0.67027076  1
  O  O37  1  0.17975244  0.50918443  0.82972924  1
  O  O38  1  0.67975244  0.99081557  0.17027076  1
  O  O39  1  0.32024756  0.49081557  0.32972924  1
  O  O40  1  0.67027076  0.82024756  0.00918443  1
  O  O41  1  0.82972924  0.17975244  0.50918443  1
  O  O42  1  0.17027076  0.67975244  0.99081557  1
  O  O43  1  0.32972924  0.32024756  0.49081557  1
  O  O44  1  0.00918443  0.67027076  0.82024756  1
  O  O45  1  0.50918443  0.82972924  0.17975244  1
  O  O46  1  0.99081557  0.17027076  0.67975244  1
  O  O47  1  0.49081557  0.32972924  0.32024756  1
  O  O48  1  0.16834504  0.00263126  0.99385446  1
  O  O49  1  0.83165496  0.50263126  0.50614554  1
  O  O50  1  0.33165496  0.99736874  0.49385446  1
  O  O51  1  0.66834504  0.49736874  0.00614554  1
  O  O52  1  0.99385446  0.16834504  0.00263126  1
  O  O53  1  0.50614554  0.83165496  0.50263126  1
  O  O54  1  0.49385446  0.33165496  0.99736874  1
  O  O55  1  0.00614554  0.66834504  0.49736874  1
  O  O56  1  0.00263126  0.99385446  0.16834504  1
  O  O57  1  0.50263126  0.50614554  0.83165496  1
  O  O58  1  0.99736874  0.49385446  0.33165496  1
  O  O59  1  0.49736874  0.00614554  0.66834504  1
  O  O60  1  0.83165496  0.99736874  0.00614554  1
  O  O61  1  0.16834504  0.49736874  0.49385446  1
  O  O62  1  0.66834504  0.00263126  0.50614554  1
  O  O63  1  0.33165496  0.50263126  0.99385446  1
  O  O64  1  0.00614554  0.83165496  0.99736874  1
  O  O65  1  0.49385446  0.16834504  0.49736874  1
  O  O66  1  0.50614554  0.66834504  0.00263126  1
  O  O67  1  0.99385446  0.33165496  0.50263126  1
  O  O68  1  0.99736874  0.00614554  0.83165496  1
  O  O69  1  0.49736874  0.49385446  0.16834504  1
  O  O70  1  0.00263126  0.50614554  0.66834504  1
  O  O71  1  0.50263126  0.99385446  0.33165496  1
  O  O72  1  0.16673288  0.82852906  0.15734301  1
  O  O73  1  0.83326712  0.32852906  0.34265699  1
  O  O74  1  0.33326712  0.17147094  0.65734301  1
  O  O75  1  0.66673288  0.67147094  0.84265699  1
  O  O76  1  0.15734301  0.16673288  0.82852906  1
  O  O77  1  0.34265699  0.83326712  0.32852906  1
  O  O78  1  0.65734301  0.33326712  0.17147094  1
  O  O79  1  0.84265699  0.66673288  0.67147094  1
  O  O80  1  0.82852906  0.15734301  0.16673288  1
  O  O81  1  0.32852906  0.34265699  0.83326712  1
  O  O82  1  0.17147094  0.65734301  0.33326712  1
  O  O83  1  0.67147094  0.84265699  0.66673288  1
  O  O84  1  0.83326712  0.17147094  0.84265699  1
  O  O85  1  0.16673288  0.67147094  0.65734301  1
  O  O86  1  0.66673288  0.82852906  0.34265699  1
  O  O87  1  0.33326712  0.32852906  0.15734301  1
  O  O88  1  0.84265699  0.83326712  0.17147094  1
  O  O89  1  0.65734301  0.16673288  0.67147094  1
  O  O90  1  0.34265699  0.66673288  0.82852906  1
  O  O91  1  0.15734301  0.33326712  0.32852906  1
  O  O92  1  0.17147094  0.84265699  0.83326712  1
  O  O93  1  0.67147094  0.65734301  0.16673288  1
  O  O94  1  0.82852906  0.34265699  0.66673288  1
  O  O95  1  0.32852906  0.15734301  0.33326712  1
  O  O96  1  0.15433746  0.15433746  0.15433746  1
  O  O97  1  0.84566254  0.65433746  0.34566254  1
  O  O98  1  0.34566254  0.84566254  0.65433746  1
  O  O99  1  0.65433746  0.34566254  0.84566254  1
  O  O100  1  0.84566254  0.84566254  0.84566254  1
  O  O101  1  0.15433746  0.34566254  0.65433746  1
  O  O102  1  0.65433746  0.15433746  0.34566254  1
  O  O103  1  0.34566254  0.65433746  0.15433746  1
loop_
_geom_bond_atom_site_label_1
_geom_bond_atom_site_label_2
_geom_bond_distance
_geom_bond_site_symmetry_2
Ba0 O12 2.905499 1_554
Ba0 O11 2.905499 1_544
Ba0 O0 2.905499 1_545
Ba0 O18 2.905499 1_544
Ba0 O23 2.905499 1_555
Ba0 O6 2.905499 1_555
Ba0 O40 3.227433 1_545
Ba0 O38 3.227433 1_545
Ba0 O45 3.227433 1_545
Ba0 O26 3.227433 1_554
Ba0 O33 3.227433 1_554
Ba0 O28 3.227433 1_554
Ba1 O17 2.905499 1_555
Ba1 O9 2.905499 1_555
Ba1 O21 2.905499 1_555
Ba1 O13 2.905499 1_555
Ba1 O1 2.905499 1_555
Ba1 O5 2.905499 1_555
Ba1 O31 3.227433 1_555
Ba1 O35 3.227433 1_555
Ba1 O27 3.227433 1_555
Ba1 O39 3.227433 1_555
Ba1 O47 3.227433 1_555
Ba1 O43 3.227433 1_555
Ba2 O8 2.905499 1_455
Ba2 O2 2.905499 1_555
Ba2 O7 2.905499 1_445
Ba2 O14 2.905499 1_445
Ba2 O19 2.905499 1_555
Ba2 O20 2.905499 1_545
Ba2 O34 3.227433 1_545
Ba2 O36 3.227433 1_455
Ba2 O46 3.227433 1_455
Ba2 O29 3.227433 1_545
Ba2 O41 3.227433 1_455
Ba2 O24 3.227433 1_545
Ba3 O4 2.905499 1_554
Ba3 O22 2.905499 1_454
Ba3 O15 2.905499 1_555
Ba3 O3 2.905499 1_454
Ba3 O10 2.905499 1_555
Ba3 O16 2.905499 1_455
Ba3 O37 3.227433 1_554
Ba3 O30 3.227433 1_455
Ba3 O44 3.227433 1_554
Ba3 O25 3.227433 1_455
Ba3 O42 3.227433 1_554
Ba3 O32 3.227433 1_455
Mn0 O34 2.165807 1_555
Mn0 O29 2.165807 1_555
Mn0 O24 2.165807 1_555
Mn0 O72 2.183277 1_555
Mn0 O77 2.183277 1_555
Mn0 O82 2.183277 1_555
Mn1 O32 2.165807 1_555
Mn1 O30 2.165807 1_555
Mn1 O25 2.165807 1_555
Mn1 O80 2.183277 1_555
Mn1 O73 2.183277 1_555
Mn1 O78 2.183277 1_555
Mn2 O26 2.165807 1_555
Mn2 O33 2.165807 1_555
Mn2 O28 2.165807 1_555
Mn2 O76 2.183277 1_555
Mn2 O74 2.183277 1_555
Mn2 O81 2.183277 1_555
Mn3 O35 2.165807 1_555
Mn3 O27 2.165807 1_555
Mn3 O31 2.165807 1_555
Mn3 O83 2.183277 1_555
Mn3 O75 2.183277 1_555
Mn3 O79 2.183277 1_555
Mn4 O41 2.165807 1_555
Mn4 O36 2.165807 1_555
Mn4 O46 2.165807 1_555
Mn4 O94 2.183277 1_555
Mn4 O89 2.183277 1_555
Mn4 O84 2.183277 1_555
Mn5 O42 2.165807 1_555
Mn5 O44 2.165807 1_555
Mn5 O37 2.165807 1_555
Mn5 O90 2.183277 1_555
Mn5 O92 2.183277 1_555
Mn5 O85 2.183277 1_555
Mn6 O45 2.165807 1_555
Mn6 O40 2.165807 1_555
Mn6 O38 2.165807 1_555
Mn6 O86 2.183277 1_555
Mn6 O93 2.183277 1_555
Mn6 O88 2.183277 1_555
Mn7 O39 2.165807 1_555
Mn7 O43 2.165807 1_555
Mn7 O47 2.165807 1_555
Mn7 O87 2.183277 1_555
Mn7 O91 2.183277 1_555
Mn7 O95 2.183277 1_555
Mn8 O68 2.194623 1_454
Mn8 O64 2.194623 1_544
Mn8 O60 2.194623 1_445
Mn8 O52 2.194623 1_455
Mn8 O48 2.194623 1_554
Mn8 O56 2.194623 1_545
Mn9 O49 2.194623 1_455
Mn9 O70 2.194623 1_555
Mn9 O55 2.194623 1_555
Mn9 O61 2.194623 1_555
Mn9 O67 2.194623 1_455
Mn9 O58 2.194623 1_455
Mn10 O62 2.194623 1_555
Mn10 O59 2.194623 1_555
Mn10 O53 2.194623 1_545
Mn10 O71 2.194623 1_545
Mn10 O65 2.194623 1_555
Mn10 O50 2.194623 1_545
Mn11 O57 2.194623 1_554
Mn11 O66 2.194623 1_555
Mn11 O51 2.194623 1_555
Mn11 O54 2.194623 1_554
Mn11 O69 2.194623 1_555
Mn11 O63 2.194623 1_554
Mn12 O0 2.128952 1_555
Mn12 O96 2.152943 1_565
Mn12 O72 2.187239 1_555
Mn12 O48 2.189944 1_564
Mn12 O24 2.223531 1_555
Mn12 O56 2.502102 1_555
Mn13 O1 2.128952 1_555
Mn13 O97 2.152943 1_555
Mn13 O73 2.187239 1_555
Mn13 O49 2.189944 1_555
Mn13 O25 2.223531 1_555
Mn13 O58 2.502102 1_555
Mn14 O2 2.128952 1_555
Mn14 O98 2.152943 1_545
Mn14 O74 2.187239 1_555
Mn14 O50 2.189944 1_545
Mn14 O26 2.223531 1_555
Mn14 O59 2.502102 1_555
Mn15 O3 2.128952 1_555
Mn15 O99 2.152943 1_555
Mn15 O75 2.187239 1_555
Mn15 O51 2.189944 1_556
Mn15 O27 2.223531 1_555
Mn15 O57 2.502102 1_555
Mn16 O4 2.128952 1_555
Mn16 O96 2.152943 1_556
Mn16 O76 2.187239 1_555
Mn16 O52 2.189944 1_456
Mn16 O28 2.223531 1_555
Mn16 O48 2.502102 1_555
Mn17 O5 2.128952 1_555
Mn17 O98 2.152943 1_555
Mn17 O77 2.187239 1_555
Mn17 O53 2.189944 1_555
Mn17 O29 2.223531 1_555
Mn17 O50 2.502102 1_555
Mn18 O6 2.128952 1_555
Mn18 O99 2.152943 1_554
Mn18 O78 2.187239 1_555
Mn18 O54 2.189944 1_554
Mn18 O30 2.223531 1_555
Mn18 O51 2.502102 1_555
Mn19 O7 2.128952 1_555
Mn19 O97 2.152943 1_555
Mn19 O79 2.187239 1_555
Mn19 O55 2.189944 1_655
Mn19 O31 2.223531 1_555
Mn19 O49 2.502102 1_555
Mn20 O8 2.128952 1_555
Mn20 O96 2.152943 1_655
Mn20 O80 2.187239 1_555
Mn20 O56 2.189944 1_645
Mn20 O32 2.223531 1_555
Mn20 O52 2.502102 1_555
Mn21 O9 2.128952 1_555
Mn21 O99 2.152943 1_555
Mn21 O81 2.187239 1_555
Mn21 O57 2.189944 1_555
Mn21 O33 2.223531 1_555
Mn21 O54 2.502102 1_555
Mn22 O10 2.128952 1_555
Mn22 O97 2.152943 1_455
Mn22 O82 2.187239 1_555
Mn22 O58 2.189944 1_455
Mn22 O34 2.223531 1_555
Mn22 O55 2.502102 1_555
Mn23 O11 2.128952 1_555
Mn23 O98 2.152943 1_555
Mn23 O83 2.187239 1_555
Mn23 O59 2.189944 1_565
Mn23 O35 2.223531 1_555
Mn23 O53 2.502102 1_555
Mn24 O12 2.128952 1_555
Mn24 O100 2.152943 1_545
Mn24 O84 2.187239 1_555
Mn24 O60 2.189944 1_546
Mn24 O36 2.223531 1_555
Mn24 O68 2.502102 1_555
Mn25 O13 2.128952 1_555
Mn25 O101 2.152943 1_555
Mn25 O85 2.187239 1_555
Mn25 O61 2.189944 1_555
Mn25 O37 2.223531 1_555
Mn25 O70 2.502102 1_555
Mn26 O14 2.128952 1_555
Mn26 O102 2.152943 1_565
Mn26 O86 2.187239 1_555
Mn26 O62 2.189944 1_565
Mn26 O38 2.223531 1_555
Mn26 O71 2.502102 1_555
Mn27 O15 2.128952 1_555
Mn27 O103 2.152943 1_555
Mn27 O87 2.187239 1_555
Mn27 O63 2.189944 1_554
Mn27 O39 2.223531 1_555
Mn27 O69 2.502102 1_555
Mn28 O16 2.128952 1_555
Mn28 O100 2.152943 1_554
Mn28 O88 2.187239 1_555
Mn28 O64 2.189944 1_654
Mn28 O40 2.223531 1_555
Mn28 O60 2.502102 1_555
Mn29 O17 2.128952 1_555
Mn29 O102 2.152943 1_555
Mn29 O89 2.187239 1_555
Mn29 O65 2.189944 1_555
Mn29 O41 2.223531 1_555
Mn29 O62 2.502102 1_555
Mn30 O18 2.128952 1_555
Mn30 O103 2.152943 1_556
Mn30 O90 2.187239 1_555
Mn30 O66 2.189944 1_556
Mn30 O42 2.223531 1_555
Mn30 O63 2.502102 1_555
Mn31 O19 2.128952 1_555
Mn31 O101 2.152943 1_555
Mn31 O91 2.187239 1_555
Mn31 O67 2.189944 1_455
Mn31 O43 2.223531 1_555
Mn31 O61 2.502102 1_555
Mn32 O20 2.128952 1_555
Mn32 O100 2.152943 1_455
Mn32 O92 2.187239 1_555
Mn32 O68 2.189944 1_465
Mn32 O44 2.223531 1_555
Mn32 O64 2.502102 1_555
Mn33 O21 2.128952 1_555
Mn33 O103 2.152943 1_555
Mn33 O93 2.187239 1_555
Mn33 O69 2.189944 1_555
Mn33 O45 2.223531 1_555
Mn33 O66 2.502102 1_555
Mn34 O22 2.128952 1_555
Mn34 O101 2.152943 1_655
Mn34 O94 2.187239 1_555
Mn34 O70 2.189944 1_655
Mn34 O46 2.223531 1_555
Mn34 O67 2.502102 1_555
Mn35 O23 2.128952 1_555
Mn35 O102 2.152943 1_555
Mn35 O95 2.187239 1_555
Mn35 O71 2.189944 1_545
Mn35 O47 2.223531 1_555
Mn35 O65 2.502102 1_555
H0 O96 0.976975 1_555
H1 O97 0.976975 1_555
H2 O98 0.976975 1_555
H3 O99 0.976975 1_555
H4 O100 0.976975 1_555
H5 O101 0.976975 1_555
H6 O102 0.976975 1_555
H7 O103 0.976975 1_555
O0 V0 1.712540 1_555
O1 V1 1.712540 1_555
O2 V2 1.712540 1_555
O3 V3 1.712540 1_555
O4 V4 1.712540 1_555
O5 V5 1.712540 1_555
O6 V6 1.712540 1_555
O7 V7 1.712540 1_555
O8 V8 1.712540 1_555
O9 V9 1.712540 1_555
O10 V10 1.712540 1_555
O11 V11 1.712540 1_555
O12 V12 1.712540 1_555
O13 V13 1.712540 1_555
O14 V14 1.712540 1_555
O15 V15 1.712540 1_555
O16 V16 1.712540 1_555
O17 V17 1.712540 1_555
O18 V18 1.712540 1_555
O19 V19 1.712540 1_555
O20 V20 1.712540 1_555
O21 V21 1.712540 1_555
O22 V22 1.712540 1_555
O23 V23 1.712540 1_555
O24 V19 1.764627 1_565
O25 V16 1.764627 1_555
O26 V18 1.764627 1_545
O27 V17 1.764627 1_555
O28 V23 1.764627 1_556
O29 V20 1.764627 1_555
O30 V22 1.764627 1_554
O31 V21 1.764627 1_555
O32 V15 1.764627 1_655
O33 V12 1.764627 1_555
O34 V14 1.764627 1_455
O35 V13 1.764627 1_555
O36 V7 1.764627 1_545
O37 V4 1.764627 1_555
O38 V6 1.764627 1_565
O39 V5 1.764627 1_555
O40 V11 1.764627 1_554
O41 V8 1.764627 1_555
O42 V10 1.764627 1_556
O43 V9 1.764627 1_555
O44 V3 1.764627 1_455
O45 V0 1.764627 1_555
O46 V2 1.764627 1_655
O47 V1 1.764627 1_555
O48 V18 1.798366 1_545
O49 V17 1.798366 1_555
O50 V19 1.798366 1_565
O51 V16 1.798366 1_555
O52 V22 1.798366 1_554
O53 V21 1.798366 1_555
O54 V23 1.798366 1_556
O55 V20 1.798366 1_555
O56 V14 1.798366 1_455
O57 V13 1.798366 1_555
O58 V15 1.798366 1_655
O59 V12 1.798366 1_555
O60 V6 1.798366 1_565
O61 V5 1.798366 1_555
O62 V7 1.798366 1_545
O63 V4 1.798366 1_555
O64 V10 1.798366 1_556
O65 V9 1.798366 1_555
O66 V11 1.798366 1_554
O67 V8 1.798366 1_555
O68 V2 1.798366 1_655
O69 V1 1.798366 1_555
O70 V3 1.798366 1_455
O71 V0 1.798366 1_555
O72 V10 1.755523 1_555
O73 V8 1.755523 1_555
O74 V9 1.755523 1_555
O75 V11 1.755523 1_555
O76 V2 1.755523 1_555
O77 V0 1.755523 1_555
O78 V1 1.755523 1_555
O79 V3 1.755523 1_555
O80 V6 1.755523 1_555
O81 V4 1.755523 1_555
O82 V5 1.755523 1_555
O83 V7 1.755523 1_555
O84 V22 1.755523 1_555
O85 V20 1.755523 1_555
O86 V21 1.755523 1_555
O87 V23 1.755523 1_555
O88 V14 1.755523 1_555
O89 V12 1.755523 1_555
O90 V13 1.755523 1_555
O91 V15 1.755523 1_555
O92 V18 1.755523 1_555
O93 V16 1.755523 1_555
O94 V17 1.755523 1_555
O95 V19 1.755523 1_555
