# generated using pymatgen
data_NaCeP2H2CO7
_symmetry_space_group_name_H-M   'P 1'
_cell_length_a   15.59672600
_cell_length_b   6.67957000
_cell_length_c   6.75262101
_cell_angle_alpha   89.72108948
_cell_angle_beta   90.00000000
_cell_angle_gamma   90.00000000
_symmetry_Int_Tables_number   1
_chemical_formula_structural   NaCeP2H2CO7
_chemical_formula_sum   'Na4 Ce4 P8 H8 C4 O28'
_cell_volume   703.47582576
_cell_formula_units_Z   4
loop_
 _symmetry_equiv_pos_site_id
 _symmetry_equiv_pos_as_xyz
  1  'x, y, z'
loop_
 _atom_site_type_symbol
 _atom_site_label
 _atom_site_symmetry_multiplicity
 _atom_site_fract_x
 _atom_site_fract_y
 _atom_site_fract_z
 _atom_site_occupancy
  Na  Na0  1  0.96829300  0.14201800  0.19073900  1
  Na  Na1  1  0.46829300  0.35798200  0.80926100  1
  Na  Na2  1  0.03170700  0.85798200  0.80926100  1
  Na  Na3  1  0.53170700  0.64201800  0.19073900  1
  Ce  Ce0  1  0.89048300  0.38528800  0.69390800  1
  Ce  Ce1  1  0.39048300  0.11471200  0.30609200  1
  Ce  Ce2  1  0.10951700  0.61471200  0.30609200  1
  Ce  Ce3  1  0.60951700  0.88528800  0.69390800  1
  P  P0  1  0.09507800  0.36890600  0.81272000  1
  P  P1  1  0.59507800  0.13109400  0.18728000  1
  P  P2  1  0.90492200  0.63109400  0.18728000  1
  P  P3  1  0.40492200  0.86890600  0.81272000  1
  P  P4  1  0.83843300  0.88910500  0.52823800  1
  P  P5  1  0.33843300  0.61089500  0.47176200  1
  P  P6  1  0.16156700  0.11089500  0.47176200  1
  P  P7  1  0.66156700  0.38910500  0.52823800  1
  H  H0  1  0.23742700  0.32588800  0.68787000  1
  H  H1  1  0.73742700  0.17411200  0.31213000  1
  H  H2  1  0.76257300  0.67411200  0.31213000  1
  H  H3  1  0.26257300  0.82588800  0.68787000  1
  H  H4  1  0.20226000  0.11294300  0.82202600  1
  H  H5  1  0.70226000  0.38705700  0.17797400  1
  H  H6  1  0.79774000  0.88705700  0.17797400  1
  H  H7  1  0.29774000  0.61294300  0.82202600  1
  C  C0  1  0.18258500  0.22577500  0.71169100  1
  C  C1  1  0.68258500  0.27422500  0.28830900  1
  C  C2  1  0.81741500  0.77422500  0.28830900  1
  C  C3  1  0.31741500  0.72577500  0.71169100  1
  O  O0  1  0.89361600  0.74430000  0.65008200  1
  O  O1  1  0.39361600  0.75570000  0.34991800  1
  O  O2  1  0.10638400  0.25570000  0.34991800  1
  O  O3  1  0.60638400  0.24430000  0.65008200  1
  O  O4  1  0.02129300  0.22270500  0.86023000  1
  O  O5  1  0.52129300  0.27729500  0.13977000  1
  O  O6  1  0.97870700  0.77729500  0.13977000  1
  O  O7  1  0.47870700  0.72270500  0.86023000  1
  O  O8  1  0.88674100  0.08955500  0.49693300  1
  O  O9  1  0.38674100  0.41044500  0.50306700  1
  O  O10  1  0.11325900  0.91044500  0.50306700  1
  O  O11  1  0.61325900  0.58955500  0.49693300  1
  O  O12  1  0.06161700  0.52656200  0.66335200  1
  O  O13  1  0.56161700  0.97343800  0.33664800  1
  O  O14  1  0.93838300  0.47343800  0.33664800  1
  O  O15  1  0.43838300  0.02656200  0.66335200  1
  O  O16  1  0.74807800  0.92792300  0.61203000  1
  O  O17  1  0.24807800  0.57207700  0.38797000  1
  O  O18  1  0.25192200  0.07207700  0.38797000  1
  O  O19  1  0.75192200  0.42792300  0.61203000  1
  O  O20  1  0.12835900  0.47534200  0.00061400  1
  O  O21  1  0.62835900  0.02465800  0.99938600  1
  O  O22  1  0.87164100  0.52465800  0.99938600  1
  O  O23  1  0.37164100  0.97534200  0.00061400  1
  O  O24  1  0.84760700  0.18073600  0.91593200  1
  O  O25  1  0.34760700  0.31926400  0.08406800  1
  O  O26  1  0.15239300  0.81926400  0.08406800  1
  O  O27  1  0.65239300  0.68073600  0.91593200  1
loop_
_geom_bond_atom_site_label_1
_geom_bond_atom_site_label_2
_geom_bond_distance
_geom_bond_site_symmetry_2
Na0 O4 2.437830 1_654
Na0 O8 2.451246 1_555
Na0 O6 2.467395 1_545
Na0 O14 2.471895 1_555
Na0 O2 2.525594 1_655
Na0 O24 2.654956 1_554
Na1 O5 2.437830 1_556
Na1 O9 2.451246 1_555
Na1 O7 2.467395 1_555
Na1 O15 2.471895 1_555
Na1 O3 2.525594 1_555
Na1 O25 2.654956 1_556
Na2 O6 2.437830 1_456
Na2 O10 2.451246 1_555
Na2 O4 2.467395 1_565
Na2 O12 2.471895 1_555
Na2 O0 2.525594 1_455
Na2 O26 2.654956 1_556
Na3 O7 2.437830 1_554
Na3 O11 2.451246 1_555
Na3 O5 2.467395 1_555
Na3 O13 2.471895 1_555
Na3 O1 2.525594 1_555
Na3 O27 2.654956 1_554
Ce0 O24 2.131153 1_555
Ce0 O19 2.248467 1_555
Ce0 O22 2.286207 1_555
Ce0 O8 2.387515 1_555
Ce0 O0 2.415302 1_555
Ce0 O4 2.567355 1_655
Ce0 O14 2.590534 1_555
Ce0 O12 2.838205 1_655
Ce1 O25 2.131153 1_555
Ce1 O18 2.248467 1_555
Ce1 O23 2.286207 1_545
Ce1 O9 2.387515 1_555
Ce1 O1 2.415302 1_545
Ce1 O5 2.567355 1_555
Ce1 O15 2.590534 1_555
Ce1 O13 2.838205 1_545
Ce2 O26 2.131153 1_555
Ce2 O17 2.248467 1_555
Ce2 O20 2.286207 1_555
Ce2 O10 2.387515 1_555
Ce2 O2 2.415302 1_555
Ce2 O6 2.567355 1_455
Ce2 O12 2.590534 1_555
Ce2 O14 2.838205 1_455
Ce3 O27 2.131153 1_555
Ce3 O16 2.248467 1_555
Ce3 O21 2.286207 1_565
Ce3 O11 2.387515 1_555
Ce3 O3 2.415302 1_565
Ce3 O7 2.567355 1_555
Ce3 O13 2.590534 1_555
Ce3 O15 2.838205 1_565
C0 H0 1.097103 1_555
C0 H4 1.100826 1_555
C0 P0 1.802371 1_555
C0 P6 1.825726 1_555
C1 H1 1.097103 1_555
C1 H5 1.100826 1_555
C1 P1 1.802371 1_555
C1 P7 1.825726 1_555
C2 H2 1.097103 1_555
C2 H6 1.100826 1_555
C2 P2 1.802371 1_555
C2 P4 1.825726 1_555
C3 H3 1.097103 1_555
C3 H7 1.100826 1_555
C3 P3 1.802371 1_555
C3 P5 1.825726 1_555
O0 P4 1.531503 1_555
O1 P5 1.531503 1_555
O2 P6 1.531503 1_555
O3 P7 1.531503 1_555
O4 P0 1.542042 1_555
O5 P1 1.542042 1_555
O6 P2 1.542042 1_555
O7 P3 1.542042 1_555
O8 P4 1.549941 1_545
O9 P5 1.549941 1_555
O10 P6 1.549941 1_565
O11 P7 1.549941 1_555
O12 P0 1.545416 1_555
O13 P1 1.545416 1_565
O14 P2 1.545416 1_555
O15 P3 1.545416 1_545
O16 P4 1.541029 1_555
O17 P5 1.541029 1_555
O18 P6 1.541029 1_555
O19 P7 1.541029 1_555
O20 P0 1.547081 1_554
O21 P1 1.547081 1_556
O22 P2 1.547081 1_556
O23 P3 1.547081 1_554
