# generated using pymatgen
data_Mg2Ge
_symmetry_space_group_name_H-M   'P 1'
_cell_length_a   4.73685992
_cell_length_b   4.73685992
_cell_length_c   6.09886800
_cell_angle_alpha   90.00000000
_cell_angle_beta   90.00000000
_cell_angle_gamma   119.99999886
_symmetry_Int_Tables_number   1
_chemical_formula_structural   Mg2Ge
_chemical_formula_sum   'Mg4 Ge2'
_cell_volume   118.51162522
_cell_formula_units_Z   2
loop_
 _symmetry_equiv_pos_site_id
 _symmetry_equiv_pos_as_xyz
  1  'x, y, z'
loop_
 _atom_site_type_symbol
 _atom_site_label
 _atom_site_symmetry_multiplicity
 _atom_site_fract_x
 _atom_site_fract_y
 _atom_site_fract_z
 _atom_site_occupancy
  Mg  Mg0  1  0.00000000  0.00000000  0.50000000  1
  Mg  Mg1  1  0.00000000  0.00000000  0.00000000  1
  Mg  Mg2  1  0.33333300  0.66666700  0.75000000  1
  Mg  Mg3  1  0.66666700  0.33333300  0.25000000  1
  Ge  Ge0  1  0.33333300  0.66666700  0.25000000  1
  Ge  Ge1  1  0.66666700  0.33333300  0.75000000  1
loop_
_geom_bond_atom_site_label_1
_geom_bond_atom_site_label_2
_geom_bond_distance
_geom_bond_site_symmetry_2
Mg0 Mg1 3.049434 1_556
Mg0 Mg1 3.049434 1_555
Mg0 Mg3 3.131138 1_455
Mg0 Mg2 3.131138 1_545
Mg0 Mg3 3.131142 1_445
Mg0 Mg3 3.131142 1_555
Mg0 Mg2 3.131142 1_445
Mg0 Mg2 3.131142 1_555
Mg1 Mg3 3.131138 1_455
Mg1 Mg2 3.131138 1_544
Mg1 Mg3 3.131142 1_445
Mg1 Mg2 3.131142 1_554
Mg1 Mg3 3.131142 1_555
Mg1 Mg2 3.131142 1_444
Ge0 Mg3 2.734825 1_455
Ge0 Mg3 2.734825 1_565
Ge0 Mg3 2.734833 1_555
Ge0 Mg2 3.049434 1_554
Ge0 Mg2 3.049434 1_555
Ge0 Mg1 3.131138 1_565
Ge0 Mg0 3.131138 1_565
Ge0 Mg0 3.131142 1_555
Ge0 Mg1 3.131142 1_665
Ge0 Mg0 3.131142 1_665
Ge0 Mg1 3.131142 1_555
Ge1 Mg2 2.734825 1_545
Ge1 Mg2 2.734825 1_655
Ge1 Mg2 2.734833 1_555
Ge1 Mg3 3.049434 1_555
Ge1 Mg3 3.049434 1_556
Ge1 Mg0 3.131138 1_655
Ge1 Mg1 3.131138 1_656
Ge1 Mg0 3.131142 1_555
Ge1 Mg1 3.131142 1_556
Ge1 Mg0 3.131142 1_665
Ge1 Mg1 3.131142 1_666
