# generated using pymatgen
data_Ba(V5S8)2
_symmetry_space_group_name_H-M   'P 1'
_cell_length_a   6.76807687
_cell_length_b   9.09062558
_cell_length_c   9.26976911
_cell_angle_alpha   72.44141353
_cell_angle_beta   68.06302157
_cell_angle_gamma   78.89240750
_symmetry_Int_Tables_number   1
_chemical_formula_structural   Ba(V5S8)2
_chemical_formula_sum   'Ba1 V10 S16'
_cell_volume   502.32395858
_cell_formula_units_Z   1
loop_
 _symmetry_equiv_pos_site_id
 _symmetry_equiv_pos_as_xyz
  1  'x, y, z'
loop_
 _atom_site_type_symbol
 _atom_site_label
 _atom_site_symmetry_multiplicity
 _atom_site_fract_x
 _atom_site_fract_y
 _atom_site_fract_z
 _atom_site_occupancy
  Ba  Ba0  1  0.00000000  -0.00000000  -0.00000000  1
  V  V0  1  0.82326259  0.41784757  0.15587603  1
  V  V1  1  0.32762583  0.41381071  0.15221290  1
  V  V2  1  0.67237417  0.58618929  0.84778710  1
  V  V3  1  0.17673741  0.58215243  0.84412397  1
  V  V4  1  0.50000000  -0.00000000  0.50000000  1
  V  V5  1  0.00000000  -0.00000000  0.50000000  1
  V  V6  1  0.81944923  0.69368459  0.48226715  1
  V  V7  1  0.34232344  0.69497359  0.48364787  1
  V  V8  1  0.65767656  0.30502641  0.51635213  1
  V  V9  1  0.18055077  0.30631541  0.51773285  1
  S  S0  1  0.63228189  0.83412622  0.31215619  1
  S  S1  1  0.13088976  0.82646277  0.32260723  1
  S  S2  1  0.86911024  0.17353723  0.67739277  1
  S  S3  1  0.36771811  0.16587378  0.68784381  1
  S  S4  1  0.95883836  0.47561050  0.34608902  1
  S  S5  1  0.46265028  0.47908724  0.34424555  1
  S  S6  1  0.53734972  0.52091276  0.65575445  1
  S  S7  1  0.04116164  0.52438950  0.65391098  1
  S  S8  1  0.32975153  0.66845122  0.00078660  1
  S  S9  1  0.82931342  0.67185666  -0.00231090  1
  S  S10  1  0.17068658  0.32814334  0.00231090  1
  S  S11  1  0.67024847  0.33154878  0.99921340  1
  S  S12  1  0.79618515  0.14969371  0.33145145  1
  S  S13  1  0.29856796  0.14814676  0.33317634  1
  S  S14  1  0.70143204  0.85185324  0.66682366  1
  S  S15  1  0.20381485  0.85030629  0.66854855  1
loop_
_geom_bond_atom_site_label_1
_geom_bond_atom_site_label_2
_geom_bond_distance
_geom_bond_site_symmetry_2
Ba0 S0 3.205182 1_445
Ba0 S3 3.205182 1_554
Ba0 S2 3.288007 1_454
Ba0 S1 3.288007 1_545
Ba0 S8 3.387056 1_545
Ba0 S11 3.387056 1_454
Ba0 S9 3.408559 1_445
Ba0 S10 3.408559 1_555
Ba0 S12 3.439106 1_455
Ba0 S15 3.439106 1_544
S0 V6 2.318600 1_555
S0 V7 2.321806 1_555
S0 V4 2.450831 1_565
S1 V7 2.359121 1_555
S1 V6 2.379485 1_455
S1 V5 2.432241 1_565
S2 V8 2.359121 1_555
S2 V9 2.379485 1_655
S2 V5 2.432241 1_655
S3 V9 2.318600 1_555
S3 V8 2.321806 1_555
S3 V4 2.450831 1_555
S4 V0 2.485927 1_555
S4 V6 2.512576 1_555
S4 V8 2.527416 1_555
S4 V1 2.548077 1_655
S4 V9 2.562901 1_655
S5 V9 2.456754 1_555
S5 V8 2.456996 1_555
S5 V0 2.488869 1_555
S5 V7 2.512505 1_555
S5 V1 2.533331 1_555
S6 V6 2.456754 1_555
S6 V7 2.456996 1_555
S6 V3 2.488869 1_555
S6 V8 2.512505 1_555
S6 V2 2.533331 1_555
S7 V3 2.485927 1_555
S7 V9 2.512576 1_555
S7 V7 2.527416 1_555
S7 V2 2.548077 1_455
S7 V6 2.562901 1_455
S8 V1 2.316521 1_555
S8 V2 2.337187 1_554
S8 V3 2.433322 1_554
S9 V0 2.330758 1_555
S9 V3 2.383494 1_654
S9 V2 2.395832 1_554
S10 V3 2.330758 1_554
S10 V0 2.383494 1_455
S10 V1 2.395832 1_555
S11 V2 2.316521 1_555
S11 V1 2.337187 1_556
S11 V0 2.433322 1_556
S12 V8 2.358012 1_555
S12 V4 2.395712 1_555
S12 V5 2.408316 1_655
S12 V0 2.486014 1_555
S13 V9 2.377585 1_555
S13 V4 2.382215 1_555
S13 V5 2.397007 1_555
S13 V1 2.485413 1_555
S14 V6 2.377585 1_555
S14 V4 2.382215 1_565
S14 V5 2.397007 1_665
S14 V2 2.485413 1_555
S15 V7 2.358012 1_555
S15 V4 2.395712 1_565
S15 V5 2.408316 1_565
S15 V3 2.486014 1_555
