# generated using pymatgen
data_LaNdCo10
_symmetry_space_group_name_H-M   'P 1'
_cell_length_a   3.97810300
_cell_length_b   5.02112900
_cell_length_c   8.70554600
_cell_angle_alpha   90.00000000
_cell_angle_beta   90.00000000
_cell_angle_gamma   90.00000000
_symmetry_Int_Tables_number   1
_chemical_formula_structural   LaNdCo10
_chemical_formula_sum   'La1 Nd1 Co10'
_cell_volume   173.88952350
_cell_formula_units_Z   1
loop_
 _symmetry_equiv_pos_site_id
 _symmetry_equiv_pos_as_xyz
  1  'x, y, z'
loop_
 _atom_site_type_symbol
 _atom_site_label
 _atom_site_symmetry_multiplicity
 _atom_site_fract_x
 _atom_site_fract_y
 _atom_site_fract_z
 _atom_site_occupancy
  La  La0  1  0.00000000  0.00000000  0.00000000  1
  Nd  Nd0  1  0.00000000  0.50000000  0.50000000  1
  Co  Co0  1  0.00000000  0.00000000  0.33295100  1
  Co  Co1  1  0.00000000  0.50000000  0.83306100  1
  Co  Co2  1  0.00000000  0.50000000  0.16693900  1
  Co  Co3  1  0.00000000  0.00000000  0.66704900  1
  Co  Co4  1  0.50000000  0.00000000  0.50000000  1
  Co  Co5  1  0.50000000  0.50000000  0.00000000  1
  Co  Co6  1  0.50000000  0.25147600  0.25153900  1
  Co  Co7  1  0.50000000  0.74852400  0.74846100  1
  Co  Co8  1  0.50000000  0.74852400  0.25153900  1
  Co  Co9  1  0.50000000  0.25147600  0.74846100  1
loop_
_geom_bond_atom_site_label_1
_geom_bond_atom_site_label_2
_geom_bond_distance
_geom_bond_site_symmetry_2
Co0 Co8 2.460290 1_445
Co0 Co6 2.460290 1_555
Co0 Co6 2.460290 1_455
Co0 Co8 2.460290 1_545
Co0 Co4 2.463976 1_555
Co0 Co4 2.463976 1_455
Co0 La0 2.898520 1_555
Co0 Nd0 2.901342 1_555
Co0 Nd0 2.901342 1_545
Co1 Co7 2.460879 1_555
Co1 Co9 2.460879 1_455
Co1 Co9 2.460879 1_555
Co1 Co7 2.460879 1_455
Co1 Co5 2.463411 1_456
Co1 Co5 2.463411 1_556
Co1 Nd0 2.899478 1_555
Co1 La0 2.900862 1_556
Co1 La0 2.900862 1_566
Co2 Co6 2.460879 1_555
Co2 Co8 2.460879 1_455
Co2 Co8 2.460879 1_555
Co2 Co6 2.460879 1_455
Co2 Co5 2.463411 1_455
Co2 Co5 2.463411 1_555
Co2 Nd0 2.899478 1_555
Co2 La0 2.900862 1_555
Co2 La0 2.900862 1_565
Co3 Co9 2.460290 1_455
Co3 Co9 2.460290 1_555
Co3 Co7 2.460290 1_445
Co3 Co7 2.460290 1_545
Co3 Co4 2.463976 1_555
Co3 Co4 2.463976 1_455
Co3 La0 2.898520 1_556
Co3 Nd0 2.901342 1_555
Co3 Nd0 2.901342 1_545
Co4 Co7 2.504579 1_545
Co4 Co9 2.504579 1_555
Co4 Co6 2.504579 1_555
Co4 Co8 2.504579 1_545
Co4 Nd0 3.203008 1_655
Co4 Nd0 3.203008 1_645
Co4 Nd0 3.203008 1_555
Co4 Nd0 3.203008 1_545
Co5 Co8 2.520384 1_555
Co5 Co6 2.520384 1_555
Co5 Co9 2.520384 1_554
Co5 Co7 2.520384 1_554
Co5 La0 3.203008 1_665
Co5 La0 3.203008 1_565
Co5 La0 3.203008 1_555
Co5 La0 3.203008 1_655
Co6 Co8 2.495742 1_555
Co6 Co8 2.525387 1_545
Co6 Nd0 3.192496 1_555
Co6 Nd0 3.192496 1_655
Co6 La0 3.216501 1_655
Co6 La0 3.216501 1_555
Co7 Co9 2.495742 1_555
Co7 Co9 2.525387 1_565
Co7 Nd0 3.192496 1_655
Co7 Nd0 3.192496 1_555
Co7 La0 3.216501 1_566
Co7 La0 3.216501 1_666
Co8 Nd0 3.192496 1_555
Co8 Nd0 3.192496 1_655
Co8 La0 3.216501 1_565
Co8 La0 3.216501 1_665
Co9 Nd0 3.192496 1_655
Co9 Nd0 3.192496 1_555
Co9 La0 3.216501 1_656
Co9 La0 3.216501 1_556
