# generated using pymatgen
data_BaSrCa2
_symmetry_space_group_name_H-M   'P 1'
_cell_length_a   15.21188371
_cell_length_b   15.21188371
_cell_length_c   15.21188371
_cell_angle_alpha   120.28590935
_cell_angle_beta   119.16547898
_cell_angle_gamma   90.47848803
_symmetry_Int_Tables_number   1
_chemical_formula_structural   BaSrCa2
_chemical_formula_sum   'Ba1 Sr1 Ca2'
_cell_volume   2498.98206502
_cell_formula_units_Z   1
loop_
 _symmetry_equiv_pos_site_id
 _symmetry_equiv_pos_as_xyz
  1  'x, y, z'
loop_
 _atom_site_type_symbol
 _atom_site_label
 _atom_site_symmetry_multiplicity
 _atom_site_fract_x
 _atom_site_fract_y
 _atom_site_fract_z
 _atom_site_occupancy
  Ba  Ba0  1  0.50000000  0.00000000  0.50000000  1
  Sr  Sr0  1  0.00000000  0.00000000  0.00000000  1
  Ca  Ca0  1  0.26803600  0.00000000  0.26803600  1
  Ca  Ca1  1  0.73196400  0.00000000  0.73196400  1
loop_
_geom_bond_atom_site_label_1
_geom_bond_atom_site_label_2
_geom_bond_distance
_geom_bond_site_symmetry_2
Ba0 Ca1 3.573025 1_555
Ba0 Ca0 3.573025 1_555
Ca0 Sr0 4.128654 1_555
Ca1 Sr0 4.128654 1_656
