# generated using pymatgen
data_Li9Co7O16
_symmetry_space_group_name_H-M   'P 1'
_cell_length_a   2.87929800
_cell_length_b   10.02173400
_cell_length_c   10.11429584
_cell_angle_alpha   71.36663787
_cell_angle_beta   90.00000000
_cell_angle_gamma   90.00000000
_symmetry_Int_Tables_number   1
_chemical_formula_structural   Li9Co7O16
_chemical_formula_sum   'Li9 Co7 O16'
_cell_volume   276.55542545
_cell_formula_units_Z   1
loop_
 _symmetry_equiv_pos_site_id
 _symmetry_equiv_pos_as_xyz
  1  'x, y, z'
loop_
 _atom_site_type_symbol
 _atom_site_label
 _atom_site_symmetry_multiplicity
 _atom_site_fract_x
 _atom_site_fract_y
 _atom_site_fract_z
 _atom_site_occupancy
  Li  Li0  1  0.50000000  0.24902400  0.75082600  1
  Li  Li1  1  0.50000000  0.25332700  0.24539100  1
  Li  Li2  1  0.00000000  0.99992300  0.74892700  1
  Li  Li3  1  0.00000000  0.00007700  0.25107300  1
  Li  Li4  1  0.50000000  0.74667300  0.75460900  1
  Li  Li5  1  0.50000000  0.75097600  0.24917400  1
  Li  Li6  1  0.00000000  0.50175200  0.75551200  1
  Li  Li7  1  0.00000000  0.49824800  0.24448800  1
  Li  Li8  1  0.50000000  0.50000000  0.00000000  1
  Co  Co0  1  0.00000000  0.25466300  0.00002100  1
  Co  Co1  1  0.00000000  0.74533700  0.99997900  1
  Co  Co2  1  0.00000000  0.24882200  0.50109100  1
  Co  Co3  1  0.50000000  0.00000000  0.00000000  1
  Co  Co4  1  0.50000000  0.00000000  0.50000000  1
  Co  Co5  1  0.00000000  0.75117800  0.49890900  1
  Co  Co6  1  0.50000000  0.50000000  0.50000000  1
  O  O0  1  0.50000000  0.35669500  0.89108800  1
  O  O1  1  0.50000000  0.37985800  0.38533100  1
  O  O2  1  0.00000000  0.11768200  0.89640800  1
  O  O3  1  0.00000000  0.12326900  0.37948400  1
  O  O4  1  0.50000000  0.86712700  0.89698600  1
  O  O5  1  0.50000000  0.87262600  0.37783900  1
  O  O6  1  0.00000000  0.64000400  0.88573100  1
  O  O7  1  0.00000000  0.61781000  0.38427400  1
  O  O8  1  0.50000000  0.12737400  0.62216100  1
  O  O9  1  0.50000000  0.13287300  0.10301400  1
  O  O10  1  0.00000000  0.87673100  0.62051600  1
  O  O11  1  0.00000000  0.88231800  0.10359200  1
  O  O12  1  0.50000000  0.62014200  0.61466900  1
  O  O13  1  0.50000000  0.64330500  0.10891200  1
  O  O14  1  0.00000000  0.38219000  0.61572600  1
  O  O15  1  0.00000000  0.35999600  0.11426900  1
loop_
_geom_bond_atom_site_label_1
_geom_bond_atom_site_label_2
_geom_bond_distance
_geom_bond_site_symmetry_2
Li0 O0 2.038414 1_555
Li0 O8 2.047846 1_555
Li0 O14 2.134355 1_655
Li0 O14 2.134355 1_555
Li0 O2 2.175954 1_655
Li0 O2 2.175954 1_555
Li1 O15 2.016986 1_555
Li1 O15 2.016986 1_655
Li1 O3 2.116898 1_655
Li1 O3 2.116898 1_555
Li1 O9 2.154485 1_555
Li1 O1 2.181339 1_555
Li2 O10 2.058091 1_555
Li2 O8 2.073990 1_465
Li2 O8 2.073990 1_565
Li2 O2 2.177785 1_565
Li2 O4 2.193796 1_455
Li2 O4 2.193796 1_555
Li3 O3 2.058091 1_555
Li3 O5 2.073990 1_545
Li3 O5 2.073990 1_445
Li3 O11 2.177785 1_545
Li3 O9 2.193796 1_455
Li3 O9 2.193796 1_555
Li4 O6 2.016986 1_655
Li4 O6 2.016986 1_555
Li4 O10 2.116898 1_655
Li4 O10 2.116898 1_555
Li4 O4 2.154485 1_555
Li4 O12 2.181339 1_555
Li5 O13 2.038414 1_555
Li5 O5 2.047846 1_555
Li5 O7 2.134355 1_555
Li5 O7 2.134355 1_655
Li5 O11 2.175954 1_655
Li5 O11 2.175954 1_555
Li6 O12 2.104646 1_455
Li6 O12 2.104646 1_555
Li6 O14 2.125376 1_555
Li6 O0 2.189155 1_455
Li6 O0 2.189155 1_555
Li6 O6 2.195558 1_555
Li7 O1 2.104646 1_455
Li7 O1 2.104646 1_555
Li7 O7 2.125376 1_555
Li7 O13 2.189155 1_455
Li7 O13 2.189155 1_555
Li7 O15 2.195558 1_555
Li8 O0 2.070501 1_554
Li8 O13 2.070501 1_555
Li8 O6 2.083445 1_554
Li8 O6 2.083445 1_654
Li8 O15 2.083445 1_555
Li8 O15 2.083445 1_655
Co0 O15 1.796965 1_555
Co0 O0 1.900569 1_554
Co0 O0 1.900569 1_454
Co0 O9 1.958312 1_455
Co0 O9 1.958312 1_555
Co0 O2 1.975377 1_554
Co1 O6 1.796965 1_555
Co1 O13 1.900569 1_456
Co1 O13 1.900569 1_556
Co1 O4 1.958312 1_455
Co1 O4 1.958312 1_555
Co1 O11 1.975377 1_556
Co2 O3 2.021139 1_555
Co2 O8 2.025107 1_555
Co2 O8 2.025107 1_455
Co2 O14 2.030040 1_555
Co2 O1 2.045831 1_555
Co2 O1 2.045831 1_455
Co3 O9 1.935301 1_555
Co3 O4 1.935301 1_544
Co3 O11 1.942081 1_645
Co3 O11 1.942081 1_545
Co3 O2 1.942081 1_554
Co3 O2 1.942081 1_654
Co4 O10 2.030336 1_645
Co4 O10 2.030336 1_545
Co4 O3 2.030336 1_655
Co4 O3 2.030336 1_555
Co4 O8 2.040586 1_555
Co4 O5 2.040586 1_545
Co5 O10 2.021139 1_555
Co5 O5 2.025107 1_455
Co5 O5 2.025107 1_555
Co5 O7 2.030040 1_555
Co5 O12 2.045831 1_555
Co5 O12 2.045831 1_455
Co6 O12 1.920200 1_555
Co6 O1 1.920200 1_555
Co6 O7 1.988339 1_655
Co6 O14 1.988339 1_555
Co6 O14 1.988339 1_655
Co6 O7 1.988339 1_555
