# generated using pymatgen
data_Be3Nb
_symmetry_space_group_name_H-M   'P 1'
_cell_length_a   7.50463959
_cell_length_b   7.50464903
_cell_length_c   7.50463619
_cell_angle_alpha   35.46560816
_cell_angle_beta   35.46568641
_cell_angle_gamma   35.46559875
_symmetry_Int_Tables_number   1
_chemical_formula_structural   Be3Nb
_chemical_formula_sum   'Be9 Nb3'
_cell_volume   127.14756366
_cell_formula_units_Z   3
loop_
 _symmetry_equiv_pos_site_id
 _symmetry_equiv_pos_as_xyz
  1  'x, y, z'
loop_
 _atom_site_type_symbol
 _atom_site_label
 _atom_site_symmetry_multiplicity
 _atom_site_fract_x
 _atom_site_fract_y
 _atom_site_fract_z
 _atom_site_occupancy
  Be  Be0  1  0.50000000  0.50000000  0.50000000  1
  Be  Be1  1  0.33419633  0.33419533  0.33419633  1
  Be  Be2  1  0.66580267  0.66580367  0.66580267  1
  Be  Be3  1  0.58365177  0.07573599  0.58365177  1
  Be  Be4  1  0.58365077  0.58365277  0.07573599  1
  Be  Be5  1  0.07573599  0.58365277  0.58365077  1
  Be  Be6  1  0.92426401  0.41634723  0.41634923  1
  Be  Be7  1  0.41634823  0.92426401  0.41634823  1
  Be  Be8  1  0.41634923  0.41634723  0.92426401  1
  Nb  Nb0  1  0.00000000  -0.00000000  -0.00000000  1
  Nb  Nb1  1  0.13991463  0.13991463  0.13991463  1
  Nb  Nb2  1  0.86008537  0.86008537  0.86008537  1
loop_
_geom_bond_atom_site_label_1
_geom_bond_atom_site_label_2
_geom_bond_distance
_geom_bond_site_symmetry_2
Be0 Be8 2.248526 1_555
Be0 Be4 2.248526 1_555
Be0 Be5 2.248527 1_555
Be0 Be6 2.248527 1_555
Be0 Be3 2.248531 1_555
Be0 Be7 2.248531 1_555
Be0 Nb1 2.698905 1_565
Be0 Nb2 2.698905 1_545
Be0 Nb1 2.698911 1_655
Be0 Nb2 2.698911 1_455
Be0 Nb1 2.698912 1_556
Be0 Nb2 2.698912 1_554
Be1 Be3 2.156519 1_555
Be1 Be5 2.156527 1_555
Be1 Be4 2.156529 1_555
Be1 Be8 2.159740 1_554
Be1 Be6 2.159742 1_455
Be1 Be7 2.159743 1_545
Be1 Nb0 2.639423 1_565
Be1 Nb0 2.639423 1_655
Be1 Nb0 2.639424 1_556
Be2 Be7 2.156502 1_555
Be2 Be6 2.156511 1_555
Be2 Be8 2.156512 1_555
Be2 Be4 2.159757 1_556
Be2 Be5 2.159759 1_655
Be2 Be3 2.159760 1_565
Be2 Nb0 2.639423 1_656
Be2 Nb0 2.639424 1_566
Be2 Nb0 2.639424 1_665
Be3 Be5 2.249563 1_645
Be3 Be4 2.249563 1_546
Be3 Be5 2.321942 1_555
Be3 Be4 2.321942 1_555
Be3 Nb1 2.601181 1_556
Be3 Nb1 2.601183 1_655
Be3 Nb2 2.701676 1_545
Be3 Nb0 2.853126 1_655
Be3 Nb0 2.853128 1_556
Be4 Be5 2.249573 1_654
Be4 Be5 2.321938 1_555
Be4 Nb1 2.601178 1_565
Be4 Nb1 2.601180 1_655
Be4 Nb2 2.701683 1_554
Be4 Nb0 2.853117 1_565
Be4 Nb0 2.853131 1_655
Be5 Nb1 2.601179 1_565
Be5 Nb1 2.601179 1_556
Be5 Nb2 2.701681 1_455
Be5 Nb0 2.853116 1_565
Be5 Nb0 2.853133 1_556
Be6 Be7 2.249563 1_645
Be6 Be8 2.249573 1_654
Be6 Be8 2.321938 1_555
Be6 Be7 2.321942 1_555
Be6 Nb2 2.601179 1_545
Be6 Nb2 2.601179 1_554
Be6 Nb1 2.701681 1_655
Be6 Nb0 2.853116 1_656
Be6 Nb0 2.853133 1_665
Be7 Be8 2.249563 1_564
Be7 Be8 2.321942 1_555
Be7 Nb2 2.601181 1_554
Be7 Nb2 2.601183 1_455
Be7 Nb1 2.701676 1_565
Be7 Nb0 2.853126 1_566
Be7 Nb0 2.853128 1_665
Be8 Nb2 2.601178 1_545
Be8 Nb2 2.601180 1_455
Be8 Nb1 2.701683 1_556
Be8 Nb0 2.853117 1_656
Be8 Nb0 2.853131 1_566
Nb0 Nb2 2.948784 1_444
Nb0 Nb1 2.948784 1_555
Nb1 Nb2 2.870151 1_445
Nb1 Nb2 2.870153 1_544
Nb1 Nb2 2.870154 1_454
