# generated using pymatgen
data_NaSr4(BN2)3
_symmetry_space_group_name_H-M   'P 1'
_cell_length_a   6.57442319
_cell_length_b   6.57442319
_cell_length_c   6.57442319
_cell_angle_alpha   109.47122063
_cell_angle_beta   109.47122063
_cell_angle_gamma   109.47122063
_symmetry_Int_Tables_number   1
_chemical_formula_structural   NaSr4(BN2)3
_chemical_formula_sum   'Na1 Sr4 B3 N6'
_cell_volume   218.75151888
_cell_formula_units_Z   1
loop_
 _symmetry_equiv_pos_site_id
 _symmetry_equiv_pos_as_xyz
  1  'x, y, z'
loop_
 _atom_site_type_symbol
 _atom_site_label
 _atom_site_symmetry_multiplicity
 _atom_site_fract_x
 _atom_site_fract_y
 _atom_site_fract_z
 _atom_site_occupancy
  Na  Na0  1  0.00000000  0.00000000  0.00000000  1
  Sr  Sr0  1  0.50000000  0.00000000  0.00000000  1
  Sr  Sr1  1  0.00000000  0.00000000  0.50000000  1
  Sr  Sr2  1  0.50000000  0.50000000  0.50000000  1
  Sr  Sr3  1  0.00000000  0.50000000  0.00000000  1
  B  B0  1  0.50000000  0.00000000  0.50000000  1
  B  B1  1  0.00000000  0.50000000  0.50000000  1
  B  B2  1  0.50000000  0.50000000  0.00000000  1
  N  N0  1  0.00000000  0.67754500  0.67754500  1
  N  N1  1  0.00000000  0.32245500  0.32245500  1
  N  N2  1  0.67754500  0.00000000  0.67754500  1
  N  N3  1  0.32245500  0.00000000  0.32245500  1
  N  N4  1  0.67754500  0.67754500  0.00000000  1
  N  N5  1  0.32245500  0.32245500  0.00000000  1
loop_
_geom_bond_atom_site_label_1
_geom_bond_atom_site_label_2
_geom_bond_distance
_geom_bond_site_symmetry_2
B0 N2 1.347831 1_555
B0 N3 1.347831 1_555
B1 N0 1.347831 1_555
B1 N1 1.347831 1_555
B2 N4 1.347831 1_555
B2 N5 1.347831 1_555
N0 Na0 2.447914 1_566
N0 Sr1 2.739778 1_565
N0 Sr2 2.739778 1_455
N0 Sr0 2.739778 1_566
N0 Sr3 2.739778 1_556
N1 Na0 2.447914 1_555
N1 Sr1 2.739778 1_555
N1 Sr2 2.739778 1_555
N1 Sr3 2.739778 1_555
N1 Sr0 2.739778 1_455
N2 Na0 2.447914 1_656
N2 Sr3 2.739778 1_656
N2 Sr1 2.739778 1_655
N2 Sr2 2.739778 1_545
N2 Sr0 2.739778 1_556
N3 Na0 2.447914 1_555
N3 Sr1 2.739778 1_555
N3 Sr3 2.739778 1_545
N3 Sr2 2.739778 1_555
N3 Sr0 2.739778 1_555
N4 Na0 2.447914 1_665
N4 Sr0 2.739778 1_565
N4 Sr3 2.739778 1_655
N4 Sr2 2.739778 1_554
N4 Sr1 2.739778 1_665
N5 Na0 2.447914 1_555
N5 Sr1 2.739778 1_554
N5 Sr2 2.739778 1_555
N5 Sr3 2.739778 1_555
N5 Sr0 2.739778 1_555
