# generated using pymatgen
data_Mg6NbFe
_symmetry_space_group_name_H-M   'P 1'
_cell_length_a   4.83071900
_cell_length_b   5.72614800
_cell_length_c   10.90853200
_cell_angle_alpha   90.00000000
_cell_angle_beta   90.00000000
_cell_angle_gamma   90.00000000
_symmetry_Int_Tables_number   1
_chemical_formula_structural   Mg6NbFe
_chemical_formula_sum   'Mg12 Nb2 Fe2'
_cell_volume   301.74539732
_cell_formula_units_Z   2
loop_
 _symmetry_equiv_pos_site_id
 _symmetry_equiv_pos_as_xyz
  1  'x, y, z'
loop_
 _atom_site_type_symbol
 _atom_site_label
 _atom_site_symmetry_multiplicity
 _atom_site_fract_x
 _atom_site_fract_y
 _atom_site_fract_z
 _atom_site_occupancy
  Mg  Mg0  1  0.50000000  0.25101200  0.42609700  1
  Mg  Mg1  1  0.50000000  0.74898800  0.42609700  1
  Mg  Mg2  1  0.00000000  0.75126000  0.08453300  1
  Mg  Mg3  1  0.00000000  0.24874000  0.08453300  1
  Mg  Mg4  1  0.00000000  0.00000000  0.30750600  1
  Mg  Mg5  1  0.00000000  0.50000000  0.32551900  1
  Mg  Mg6  1  0.50000000  0.75101200  0.92609700  1
  Mg  Mg7  1  0.50000000  0.24898800  0.92609700  1
  Mg  Mg8  1  0.00000000  0.25126000  0.58453300  1
  Mg  Mg9  1  0.00000000  0.74874000  0.58453300  1
  Mg  Mg10  1  0.00000000  0.50000000  0.80750600  1
  Mg  Mg11  1  0.00000000  0.00000000  0.82551900  1
  Nb  Nb0  1  0.50000000  0.50000000  0.17883600  1
  Nb  Nb1  1  0.50000000  0.00000000  0.67883600  1
  Fe  Fe0  1  0.50000000  0.00000000  0.16687500  1
  Fe  Fe1  1  0.50000000  0.50000000  0.66687500  1
loop_
_geom_bond_atom_site_label_1
_geom_bond_atom_site_label_2
_geom_bond_distance
_geom_bond_site_symmetry_2
Mg0 Mg1 2.851484 1_555
Mg0 Mg1 2.874664 1_545
Mg0 Mg8 2.970017 1_655
Mg0 Mg8 2.970017 1_555
Mg0 Mg5 3.011720 1_555
Mg0 Mg5 3.011720 1_655
Mg0 Nb0 3.050889 1_555
Mg0 Mg4 3.094095 1_555
Mg0 Mg4 3.094095 1_655
Mg0 Nb1 3.109186 1_555
Mg1 Mg9 2.970017 1_655
Mg1 Mg9 2.970017 1_555
Mg1 Mg5 3.011720 1_555
Mg1 Mg5 3.011720 1_655
Mg1 Nb0 3.050889 1_555
Mg1 Mg4 3.094095 1_665
Mg1 Mg4 3.094095 1_565
Mg1 Nb1 3.109186 1_565
Mg2 Mg4 2.818655 1_565
Mg2 Mg3 2.848644 1_565
Mg2 Mg3 2.877504 1_555
Mg2 Mg6 2.970017 1_454
Mg2 Mg6 2.970017 1_554
Mg2 Nb0 2.993695 1_555
Mg2 Nb0 2.993695 1_455
Mg2 Mg5 2.996767 1_555
Mg3 Mg4 2.818655 1_555
Mg3 Mg7 2.970017 1_554
Mg3 Mg7 2.970017 1_454
Mg3 Nb0 2.993695 1_555
Mg3 Nb0 2.993695 1_455
Mg3 Mg5 2.996767 1_555
Mg4 Mg5 2.869809 1_545
Mg4 Mg5 2.869809 1_555
Mg4 Mg8 3.346974 1_555
Mg4 Mg9 3.346974 1_545
Mg5 Nb0 2.897287 1_455
Mg5 Nb0 2.897287 1_555
Mg5 Mg8 3.164164 1_555
Mg5 Mg9 3.164164 1_555
Mg6 Mg7 2.851484 1_565
Mg6 Mg7 2.874664 1_555
Mg6 Nb1 3.050889 1_565
Mg6 Nb0 3.109186 1_556
Mg7 Nb1 3.050889 1_555
Mg7 Nb0 3.109186 1_556
Mg8 Mg9 2.848644 1_555
Mg8 Mg9 2.877504 1_545
Mg8 Nb1 2.993695 1_455
Mg8 Nb1 2.993695 1_555
Mg9 Nb1 2.993695 1_465
Mg9 Nb1 2.993695 1_565
Mg10 Mg8 2.818655 1_555
Mg10 Mg9 2.818655 1_555
Mg10 Mg11 2.869809 1_555
Mg10 Mg11 2.869809 1_565
Mg10 Mg7 3.094095 1_555
Mg10 Mg6 3.094095 1_455
Mg10 Mg6 3.094095 1_555
Mg10 Mg7 3.094095 1_455
Mg10 Mg3 3.346974 1_556
Mg10 Mg2 3.346974 1_556
Mg11 Nb1 2.897287 1_555
Mg11 Nb1 2.897287 1_455
Mg11 Mg9 2.996767 1_545
Mg11 Mg8 2.996767 1_555
Mg11 Mg6 3.011720 1_545
Mg11 Mg7 3.011720 1_555
Mg11 Mg6 3.011720 1_445
Mg11 Mg7 3.011720 1_455
Mg11 Mg2 3.164164 1_546
Mg11 Mg3 3.164164 1_556
Fe0 Mg4 2.861356 1_555
Fe0 Mg4 2.861356 1_655
Fe0 Nb0 2.866046 1_555
Fe0 Nb0 2.866046 1_545
Fe0 Mg2 2.944397 1_645
Fe0 Mg2 2.944397 1_545
Fe0 Mg3 2.944397 1_555
Fe0 Mg3 2.944397 1_655
Fe0 Mg7 2.988549 1_554
Fe0 Mg6 2.988549 1_544
Fe0 Mg1 3.172064 1_545
Fe0 Mg0 3.172064 1_555
Fe1 Mg10 2.861356 1_655
Fe1 Mg10 2.861356 1_555
Fe1 Nb1 2.866046 1_555
Fe1 Nb1 2.866046 1_565
Fe1 Mg8 2.944397 1_555
Fe1 Mg8 2.944397 1_655
Fe1 Mg9 2.944397 1_555
Fe1 Mg9 2.944397 1_655
Fe1 Mg1 2.988549 1_555
Fe1 Mg0 2.988549 1_555
Fe1 Mg6 3.172064 1_555
Fe1 Mg7 3.172064 1_555
