# generated using pymatgen
data_Fe2Te2(PbO4)3
_symmetry_space_group_name_H-M   'P 1'
_cell_length_a   9.28978592
_cell_length_b   9.28978592
_cell_length_c   7.31896852
_cell_angle_alpha   78.58901637
_cell_angle_beta   78.58901637
_cell_angle_gamma   114.57205769
_symmetry_Int_Tables_number   1
_chemical_formula_structural   Fe2Te2(PbO4)3
_chemical_formula_sum   'Fe4 Te4 Pb6 O24'
_cell_volume   534.55268716
_cell_formula_units_Z   2
loop_
 _symmetry_equiv_pos_site_id
 _symmetry_equiv_pos_as_xyz
  1  'x, y, z'
loop_
 _atom_site_type_symbol
 _atom_site_label
 _atom_site_symmetry_multiplicity
 _atom_site_fract_x
 _atom_site_fract_y
 _atom_site_fract_z
 _atom_site_occupancy
  Fe  Fe0  1  0.47925500  0.47180100  0.87701700  1
  Fe  Fe1  1  0.47180100  0.47925500  0.37701700  1
  Fe  Fe2  1  0.82153000  0.14443300  0.33750900  1
  Fe  Fe3  1  0.14443300  0.82153000  0.83750900  1
  Te  Te0  1  0.09021400  0.09880000  0.60493700  1
  Te  Te1  1  0.09880000  0.09021400  0.10493700  1
  Te  Te2  1  0.75494600  0.42940000  0.13502300  1
  Te  Te3  1  0.42940000  0.75494600  0.63502300  1
  Pb  Pb0  1  0.69819900  0.82988400  0.99231100  1
  Pb  Pb1  1  0.82988400  0.69819900  0.49231100  1
  Pb  Pb2  1  0.02660800  0.40874100  0.76132700  1
  Pb  Pb3  1  0.40874100  0.02660800  0.26132700  1
  Pb  Pb4  1  0.55035000  0.19864300  0.68587100  1
  Pb  Pb5  1  0.19864300  0.55035000  0.18587100  1
  O  O0  1  0.29285800  0.52205400  0.80734200  1
  O  O1  1  0.52205400  0.29285800  0.30734200  1
  O  O2  1  0.57321400  0.99388700  0.48246400  1
  O  O3  1  0.99388700  0.57321400  0.98246400  1
  O  O4  1  0.06381900  0.27289700  0.15750400  1
  O  O5  1  0.27289700  0.06381900  0.65750400  1
  O  O6  1  0.14089800  0.03595900  0.36405900  1
  O  O7  1  0.03595900  0.14089800  0.86405900  1
  O  O8  1  0.33640400  0.22393800  0.98906100  1
  O  O9  1  0.22393800  0.33640400  0.48906100  1
  O  O10  1  0.75797400  0.22905800  0.08889600  1
  O  O11  1  0.22905800  0.75797400  0.58889600  1
  O  O12  1  0.54908800  0.44859200  0.60810600  1
  O  O13  1  0.44859200  0.54908800  0.10810600  1
  O  O14  1  0.89349500  0.11044600  0.57980900  1
  O  O15  1  0.11044600  0.89349500  0.07980900  1
  O  O16  1  0.61399200  0.73393300  0.70771200  1
  O  O17  1  0.73393300  0.61399200  0.20771200  1
  O  O18  1  0.69391900  0.47066700  0.89816300  1
  O  O19  1  0.47066700  0.69391900  0.39816300  1
  O  O20  1  0.85979200  0.95943300  0.25259800  1
  O  O21  1  0.95943300  0.85979200  0.75259800  1
  O  O22  1  0.82090300  0.36149400  0.36707000  1
  O  O23  1  0.36149400  0.82090300  0.86707000  1
loop_
_geom_bond_atom_site_label_1
_geom_bond_atom_site_label_2
_geom_bond_distance
_geom_bond_site_symmetry_2
Fe0 O13 1.979193 1_556
Fe0 O8 2.004097 1_555
Fe0 O12 2.029773 1_555
Fe0 O18 2.034644 1_555
Fe0 O0 2.098545 1_555
Fe0 O16 2.165513 1_555
Fe1 O12 1.979193 1_555
Fe1 O9 2.004097 1_555
Fe1 O13 2.029773 1_555
Fe1 O19 2.034644 1_555
Fe1 O1 2.098545 1_555
Fe1 O17 2.165513 1_555
Fe2 O14 2.028460 1_555
Fe2 O2 2.040638 1_545
Fe2 O4 2.048556 1_655
Fe2 O22 2.072393 1_555
Fe2 O20 2.075918 1_545
Fe2 O10 2.126651 1_555
Fe3 O15 2.028460 1_556
Fe3 O3 2.040638 1_455
Fe3 O5 2.048556 1_565
Fe3 O23 2.072393 1_555
Fe3 O21 2.075918 1_455
Fe3 O11 2.126651 1_555
O0 Te3 1.971119 1_555
O0 Pb2 2.375657 1_555
O0 Pb5 2.833817 1_556
O1 Te2 1.971119 1_555
O1 Pb3 2.375657 1_555
O1 Pb4 2.833817 1_555
O2 Te3 1.980256 1_555
O2 Pb3 2.493305 1_565
O2 Pb4 2.685323 1_565
O3 Te2 1.980256 1_556
O3 Pb2 2.493305 1_655
O3 Pb5 2.685323 1_656
O4 Te1 1.949686 1_555
O4 Pb5 2.425903 1_555
O5 Te0 1.949686 1_555
O5 Pb4 2.425903 1_555
O6 Te0 1.994485 1_555
O6 Te1 2.020617 1_555
O6 Pb3 2.495872 1_555
O7 Te1 1.994485 1_556
O7 Te0 2.020617 1_555
O7 Pb2 2.495872 1_555
O8 Te1 1.922634 1_556
O8 Pb4 2.789115 1_555
O8 Pb3 2.809245 1_556
O9 Te0 1.922634 1_555
O9 Pb5 2.789115 1_555
O9 Pb2 2.809245 1_555
O10 Te2 1.966467 1_555
O10 Pb2 2.710451 1_654
O10 Pb3 2.832215 1_555
O11 Te3 1.966467 1_555
O11 Pb3 2.710451 1_565
O11 Pb2 2.832215 1_555
O12 Pb4 2.284291 1_555
O12 Pb1 2.493319 1_555
O13 Pb5 2.284291 1_555
O13 Pb0 2.493319 1_554
O14 Te0 1.916964 1_655
O15 Te1 1.916964 1_565
O16 Te3 1.964698 1_555
O16 Pb1 2.475413 1_555
O16 Pb0 2.558271 1_555
O17 Te2 1.964698 1_555
O17 Pb0 2.475413 1_554
O17 Pb1 2.558271 1_555
O18 Te2 1.944303 1_556
O19 Te3 1.944303 1_555
O20 Te1 1.965041 1_665
O20 Pb1 2.570274 1_555
O20 Pb0 2.804864 1_554
O21 Te0 1.965041 1_665
O21 Pb0 2.570274 1_555
O21 Pb1 2.804864 1_555
O22 Te2 1.991747 1_555
O22 Pb4 2.677771 1_555
O23 Te3 1.991747 1_555
O23 Pb5 2.677771 1_556
