# generated using pymatgen
data_Hf9Mo4S
_symmetry_space_group_name_H-M   'P 1'
_cell_length_a   8.68352950
_cell_length_b   8.68352950
_cell_length_c   8.53005200
_cell_angle_alpha   90.00000000
_cell_angle_beta   90.00000000
_cell_angle_gamma   119.99999621
_symmetry_Int_Tables_number   1
_chemical_formula_structural   Hf9Mo4S
_chemical_formula_sum   'Hf18 Mo8 S2'
_cell_volume   557.02526672
_cell_formula_units_Z   2
loop_
 _symmetry_equiv_pos_site_id
 _symmetry_equiv_pos_as_xyz
  1  'x, y, z'
loop_
 _atom_site_type_symbol
 _atom_site_label
 _atom_site_symmetry_multiplicity
 _atom_site_fract_x
 _atom_site_fract_y
 _atom_site_fract_z
 _atom_site_occupancy
  Hf  Hf0  1  0.19718300  0.80281700  0.44937000  1
  Hf  Hf1  1  0.19718300  0.39436600  0.44937000  1
  Hf  Hf2  1  0.60563400  0.80281700  0.44937000  1
  Hf  Hf3  1  0.80281700  0.19718300  0.55063000  1
  Hf  Hf4  1  0.80281700  0.60563400  0.55063000  1
  Hf  Hf5  1  0.39436600  0.19718300  0.55063000  1
  Hf  Hf6  1  0.80281700  0.19718300  0.94937000  1
  Hf  Hf7  1  0.80281700  0.60563400  0.94937000  1
  Hf  Hf8  1  0.39436600  0.19718300  0.94937000  1
  Hf  Hf9  1  0.19718300  0.80281700  0.05063000  1
  Hf  Hf10  1  0.19718300  0.39436600  0.05063000  1
  Hf  Hf11  1  0.60563400  0.80281700  0.05063000  1
  Hf  Hf12  1  0.54244200  0.45755800  0.25000000  1
  Hf  Hf13  1  0.54244200  0.08488400  0.25000000  1
  Hf  Hf14  1  0.91511600  0.45755800  0.25000000  1
  Hf  Hf15  1  0.45755800  0.54244200  0.75000000  1
  Hf  Hf16  1  0.45755800  0.91511600  0.75000000  1
  Hf  Hf17  1  0.08488400  0.54244200  0.75000000  1
  Mo  Mo0  1  0.88912900  0.11087100  0.25000000  1
  Mo  Mo1  1  0.88912900  0.77825700  0.25000000  1
  Mo  Mo2  1  0.22174300  0.11087100  0.25000000  1
  Mo  Mo3  1  0.11087100  0.88912900  0.75000000  1
  Mo  Mo4  1  0.11087100  0.22174300  0.75000000  1
  Mo  Mo5  1  0.77825700  0.88912900  0.75000000  1
  Mo  Mo6  1  0.00000000  0.00000000  0.50000000  1
  Mo  Mo7  1  0.00000000  0.00000000  0.00000000  1
  S  S0  1  0.33333300  0.66666700  0.25000000  1
  S  S1  1  0.66666700  0.33333300  0.75000000  1
loop_
_geom_bond_atom_site_label_1
_geom_bond_atom_site_label_2
_geom_bond_distance
_geom_bond_site_symmetry_2
Hf0 S0 2.661841 1_555
Hf0 Mo3 2.874250 1_555
Hf0 Mo6 2.996975 1_565
Hf0 Mo2 3.085897 1_565
Hf0 Mo1 3.085897 1_455
Hf1 S0 2.661847 1_555
Hf1 Mo4 2.874246 1_555
Hf1 Mo6 2.996975 1_555
Hf1 Mo0 3.085900 1_455
Hf1 Mo2 3.085904 1_555
Hf2 S0 2.661847 1_555
Hf2 Mo5 2.874246 1_555
Hf2 Mo6 2.996975 1_665
Hf2 Mo0 3.085900 1_565
Hf2 Mo1 3.085904 1_555
Hf3 S1 2.661841 1_555
Hf3 Mo0 2.874250 1_555
Hf3 Mo6 2.996975 1_655
Hf3 Mo4 3.085897 1_655
Hf3 Mo5 3.085897 1_545
Hf4 S1 2.661847 1_555
Hf4 Mo1 2.874246 1_555
Hf4 Mo6 2.996975 1_665
Hf4 Mo3 3.085900 1_655
Hf4 Mo5 3.085904 1_555
Hf5 S1 2.661847 1_555
Hf5 Mo2 2.874246 1_555
Hf5 Mo6 2.996975 1_555
Hf5 Mo3 3.085900 1_545
Hf5 Mo4 3.085904 1_555
Hf6 S1 2.661841 1_555
Hf6 Mo0 2.874250 1_556
Hf6 Mo7 2.996975 1_656
Hf6 Mo4 3.085897 1_655
Hf6 Mo5 3.085897 1_545
Hf7 S1 2.661847 1_555
Hf7 Mo1 2.874246 1_556
Hf7 Mo7 2.996975 1_666
Hf7 Mo3 3.085900 1_655
Hf7 Mo5 3.085904 1_555
Hf8 S1 2.661847 1_555
Hf8 Mo2 2.874246 1_556
Hf8 Mo7 2.996975 1_556
Hf8 Mo3 3.085900 1_545
Hf8 Mo4 3.085904 1_555
Hf9 S0 2.661841 1_555
Hf9 Mo3 2.874250 1_554
Hf9 Mo7 2.996975 1_565
Hf9 Mo2 3.085897 1_565
Hf9 Mo1 3.085897 1_455
Hf10 S0 2.661847 1_555
Hf10 Mo4 2.874246 1_554
Hf10 Mo7 2.996975 1_555
Hf10 Mo0 3.085900 1_455
Hf10 Mo2 3.085904 1_555
Hf11 S0 2.661847 1_555
Hf11 Mo5 2.874246 1_554
Hf11 Mo7 2.996975 1_665
Hf11 Mo0 3.085900 1_565
Hf11 Mo1 3.085904 1_555
Hf12 Mo2 2.904216 1_555
Hf12 Mo1 2.904216 1_555
Hf12 S0 3.145065 1_555
Hf13 Mo2 2.904211 1_555
Hf13 Mo0 2.904220 1_555
Hf13 S0 3.145058 1_545
Hf14 Mo1 2.904211 1_555
Hf14 Mo0 2.904220 1_555
Hf14 S0 3.145058 1_655
Hf15 Mo4 2.904216 1_555
Hf15 Mo5 2.904216 1_555
Hf15 S1 3.145065 1_555
Hf16 Mo5 2.904211 1_555
Hf16 Mo3 2.904220 1_555
Hf16 S1 3.145058 1_565
Hf17 Mo4 2.904211 1_555
Hf17 Mo3 2.904220 1_555
Hf17 S1 3.145058 1_455
Mo0 Mo7 2.707080 1_655
Mo0 Mo6 2.707080 1_655
Mo0 Mo1 2.888263 1_545
Mo0 Mo2 2.888263 1_655
Mo1 Mo6 2.707085 1_665
Mo1 Mo7 2.707085 1_665
Mo1 Mo2 2.888264 1_665
Mo2 Mo6 2.707085 1_555
Mo2 Mo7 2.707085 1_555
Mo3 Mo7 2.707080 1_566
Mo3 Mo6 2.707080 1_565
Mo3 Mo5 2.888263 1_455
Mo3 Mo4 2.888263 1_565
Mo4 Mo7 2.707085 1_556
Mo4 Mo6 2.707085 1_555
Mo4 Mo5 2.888264 1_445
Mo5 Mo7 2.707085 1_666
Mo5 Mo6 2.707085 1_665
