# generated using pymatgen
data_KAl2NiP3O14
_symmetry_space_group_name_H-M   'P 1'
_cell_length_a   8.34128655
_cell_length_b   8.34128655
_cell_length_c   8.81443501
_cell_angle_alpha   74.94332140
_cell_angle_beta   74.94332140
_cell_angle_gamma   77.67585520
_symmetry_Int_Tables_number   1
_chemical_formula_structural   KAl2NiP3O14
_chemical_formula_sum   'K2 Al4 Ni2 P6 O28'
_cell_volume   564.84757662
_cell_formula_units_Z   2
loop_
 _symmetry_equiv_pos_site_id
 _symmetry_equiv_pos_as_xyz
  1  'x, y, z'
loop_
 _atom_site_type_symbol
 _atom_site_label
 _atom_site_symmetry_multiplicity
 _atom_site_fract_x
 _atom_site_fract_y
 _atom_site_fract_z
 _atom_site_occupancy
  K  K0  1  0.12837400  0.87162600  0.25000000  1
  K  K1  1  0.87162600  0.12837400  0.75000000  1
  Al  Al0  1  0.40118500  0.24684600  0.07878300  1
  Al  Al1  1  0.59881500  0.75315400  0.92121700  1
  Al  Al2  1  0.75315400  0.59881500  0.42121700  1
  Al  Al3  1  0.24684600  0.40118500  0.57878300  1
  Ni  Ni0  1  0.76418500  0.23581500  0.25000000  1
  Ni  Ni1  1  0.23581500  0.76418500  0.75000000  1
  P  P0  1  0.66451500  0.92373100  0.16810900  1
  P  P1  1  0.33548500  0.07626900  0.83189100  1
  P  P2  1  0.07626900  0.33548500  0.33189100  1
  P  P3  1  0.92373100  0.66451500  0.66810900  1
  P  P4  1  0.49880100  0.50119900  0.25000000  1
  P  P5  1  0.50119900  0.49880100  0.75000000  1
  O  O0  1  0.47401900  0.65257600  0.10984000  1
  O  O1  1  0.52598100  0.34742400  0.89016000  1
  O  O2  1  0.34742400  0.52598100  0.39016000  1
  O  O3  1  0.65257600  0.47401900  0.60984000  1
  O  O4  1  0.52012800  0.33109200  0.19834300  1
  O  O5  1  0.47987200  0.66890800  0.80165700  1
  O  O6  1  0.66890800  0.47987200  0.30165700  1
  O  O7  1  0.33109200  0.52012800  0.69834300  1
  O  O8  1  0.80785400  0.01765400  0.16818900  1
  O  O9  1  0.19214600  0.98234600  0.83181100  1
  O  O10  1  0.98234600  0.19214600  0.33181100  1
  O  O11  1  0.01765400  0.80785400  0.66818900  1
  O  O12  1  0.49460200  0.04051900  0.16499400  1
  O  O13  1  0.50539800  0.95948100  0.83500600  1
  O  O14  1  0.95948100  0.50539800  0.33500600  1
  O  O15  1  0.04051900  0.49460200  0.66499400  1
  O  O16  1  0.72164300  0.84292600  0.02027700  1
  O  O17  1  0.27835700  0.15707400  0.97972300  1
  O  O18  1  0.15707400  0.27835700  0.47972300  1
  O  O19  1  0.84292600  0.72164300  0.52027700  1
  O  O20  1  0.71155600  0.13113000  0.47138800  1
  O  O21  1  0.28844400  0.86887000  0.52861200  1
  O  O22  1  0.86887000  0.28844400  0.02861200  1
  O  O23  1  0.13113000  0.71155600  0.97138800  1
  O  O24  1  0.63851800  0.78969900  0.32674300  1
  O  O25  1  0.36148200  0.21030100  0.67325700  1
  O  O26  1  0.21030100  0.36148200  0.17325700  1
  O  O27  1  0.78969900  0.63851800  0.82674300  1
loop_
_geom_bond_atom_site_label_1
_geom_bond_atom_site_label_2
_geom_bond_distance
_geom_bond_site_symmetry_2
K0 O10 2.882133 1_465
K0 O8 2.882133 1_465
K0 O21 3.078214 1_555
K0 O23 3.078214 1_554
K0 O17 3.112216 1_564
K0 O19 3.112216 1_455
K0 O0 3.201659 1_555
K0 O2 3.201659 1_555
K1 O9 2.882133 1_645
K1 O11 2.882133 1_645
K1 O20 3.078214 1_555
K1 O22 3.078214 1_556
K1 O18 3.112216 1_655
K1 O16 3.112216 1_546
K1 O3 3.201659 1_555
K1 O1 3.201659 1_555
Al0 O12 1.789490 1_555
Al0 O26 1.793837 1_555
Al0 O1 1.816760 1_554
Al0 O17 1.872111 1_554
Al0 O4 1.953040 1_555
Al1 O13 1.789490 1_555
Al1 O27 1.793837 1_555
Al1 O0 1.816760 1_556
Al1 O16 1.872111 1_556
Al1 O5 1.953040 1_555
Al2 O14 1.789490 1_555
Al2 O24 1.793837 1_555
Al2 O3 1.816760 1_555
Al2 O19 1.872111 1_555
Al2 O6 1.953040 1_555
Al3 O15 1.789490 1_555
Al3 O25 1.793837 1_555
Al3 O2 1.816760 1_555
Al3 O18 1.872111 1_555
Al3 O7 1.953040 1_555
Ni0 O20 1.896436 1_555
Ni0 O22 1.896436 1_555
Ni0 O10 2.055847 1_555
Ni0 O8 2.055847 1_555
Ni0 O6 2.141526 1_555
Ni0 O4 2.141526 1_555
Ni1 O23 1.896436 1_555
Ni1 O21 1.896436 1_555
Ni1 O9 2.055847 1_555
Ni1 O11 2.055847 1_555
Ni1 O5 2.141526 1_555
Ni1 O7 2.141526 1_555
O0 P4 1.540833 1_555
O1 P5 1.540833 1_555
O2 P4 1.540833 1_555
O3 P5 1.540833 1_555
O4 P4 1.561444 1_555
O5 P5 1.561444 1_555
O6 P4 1.561444 1_555
O7 P5 1.561444 1_555
O8 P0 1.563298 1_545
O9 P1 1.563298 1_565
O10 P2 1.563298 1_655
O11 P3 1.563298 1_455
O12 P0 1.541233 1_545
O13 P1 1.541233 1_565
O14 P2 1.541233 1_655
O15 P3 1.541233 1_455
O16 P0 1.541403 1_555
O17 P1 1.541403 1_555
O18 P2 1.541403 1_555
O19 P3 1.541403 1_555
O24 P0 1.544626 1_555
O25 P1 1.544626 1_555
O26 P2 1.544626 1_555
O27 P3 1.544626 1_555
