# generated using pymatgen
data_Y2Cu3(WO4)6
_symmetry_space_group_name_H-M   'P 1'
_cell_length_a   6.02397300
_cell_length_b   9.91546200
_cell_length_c   17.56977840
_cell_angle_alpha   59.48751549
_cell_angle_beta   90.00000000
_cell_angle_gamma   90.00000000
_symmetry_Int_Tables_number   1
_chemical_formula_structural   Y2Cu3(WO4)6
_chemical_formula_sum   'Y4 Cu6 W12 O48'
_cell_volume   904.12168924
_cell_formula_units_Z   2
loop_
 _symmetry_equiv_pos_site_id
 _symmetry_equiv_pos_as_xyz
  1  'x, y, z'
loop_
 _atom_site_type_symbol
 _atom_site_label
 _atom_site_symmetry_multiplicity
 _atom_site_fract_x
 _atom_site_fract_y
 _atom_site_fract_z
 _atom_site_occupancy
  Y  Y0  1  0.33442500  0.16755800  0.58532000  1
  Y  Y1  1  0.33442500  0.83244200  0.91468000  1
  Y  Y2  1  0.66557500  0.83244200  0.41468000  1
  Y  Y3  1  0.66557500  0.16755800  0.08532000  1
  Cu  Cu0  1  0.71304100  0.33372300  0.41818800  1
  Cu  Cu1  1  0.71304100  0.66627700  0.08181200  1
  Cu  Cu2  1  0.73635200  0.00000000  0.75000000  1
  Cu  Cu3  1  0.28695900  0.66627700  0.58181200  1
  Cu  Cu4  1  0.26364800  0.00000000  0.25000000  1
  Cu  Cu5  1  0.28695900  0.33372300  0.91818800  1
  W  W0  1  0.83391700  0.91685600  0.58614500  1
  W  W1  1  0.83580400  0.26058700  0.25217000  1
  W  W2  1  0.82422000  0.58394000  0.91505500  1
  W  W3  1  0.82422000  0.41606000  0.58494500  1
  W  W4  1  0.83580400  0.73941300  0.24783000  1
  W  W5  1  0.83391700  0.08314400  0.91385500  1
  W  W6  1  0.16608300  0.08314400  0.41385500  1
  W  W7  1  0.17578000  0.41606000  0.08494500  1
  W  W8  1  0.16419600  0.73941300  0.74783000  1
  W  W9  1  0.17578000  0.58394000  0.41505500  1
  W  W10  1  0.16608300  0.91685600  0.08614500  1
  W  W11  1  0.16419600  0.26058700  0.75217000  1
  O  O0  1  0.65300300  0.33271600  0.52718200  1
  O  O1  1  0.67079700  0.67314900  0.18694800  1
  O  O2  1  0.65617900  0.99730800  0.86026500  1
  O  O3  1  0.65617900  0.00269200  0.63973500  1
  O  O4  1  0.67079700  0.32685100  0.31305200  1
  O  O5  1  0.65300300  0.66728400  0.97281800  1
  O  O6  1  0.34699700  0.66728400  0.47281800  1
  O  O7  1  0.34382100  0.00269200  0.13973500  1
  O  O8  1  0.32920300  0.32685100  0.81305200  1
  O  O9  1  0.34382100  0.99730800  0.36026500  1
  O  O10  1  0.34699700  0.33271600  0.02718200  1
  O  O11  1  0.32920300  0.67314900  0.68694800  1
  O  O12  1  0.08554900  0.87349300  0.51822100  1
  O  O13  1  0.09470800  0.20789400  0.18583800  1
  O  O14  1  0.09137400  0.54135900  0.85410300  1
  O  O15  1  0.09137400  0.45864100  0.64589700  1
  O  O16  1  0.09470800  0.79210600  0.31416200  1
  O  O17  1  0.08554900  0.12650700  0.98177900  1
  O  O18  1  0.91445100  0.12650700  0.48177900  1
  O  O19  1  0.90862600  0.45864100  0.14589700  1
  O  O20  1  0.90529200  0.79210600  0.81416200  1
  O  O21  1  0.90862600  0.54135900  0.35410300  1
  O  O22  1  0.91445100  0.87349300  0.01822100  1
  O  O23  1  0.90529200  0.20789400  0.68583800  1
  O  O24  1  0.39263300  0.52191900  0.37262900  1
  O  O25  1  0.37778900  0.85848900  0.03402700  1
  O  O26  1  0.37244300  0.18658500  0.70538900  1
  O  O27  1  0.37778900  0.14151100  0.46597300  1
  O  O28  1  0.39263300  0.47808100  0.12737100  1
  O  O29  1  0.37244300  0.81341500  0.79461100  1
  O  O30  1  0.60736700  0.47808100  0.62737100  1
  O  O31  1  0.62755700  0.81341500  0.29461100  1
  O  O32  1  0.62221100  0.14151100  0.96597300  1
  O  O33  1  0.62221100  0.85848900  0.53402700  1
  O  O34  1  0.62755700  0.18658500  0.20538900  1
  O  O35  1  0.60736700  0.52191900  0.87262900  1
  O  O36  1  0.11371900  0.38003200  0.51704400  1
  O  O37  1  0.11056600  0.72009800  0.18443900  1
  O  O38  1  0.11237300  0.04317200  0.85233900  1
  O  O39  1  0.88628100  0.61996800  0.48295600  1
  O  O40  1  0.88762700  0.95682800  0.14766100  1
  O  O41  1  0.88943400  0.27990200  0.81556100  1
  O  O42  1  0.11237300  0.95682800  0.64766100  1
  O  O43  1  0.11056600  0.27990200  0.31556100  1
  O  O44  1  0.11371900  0.61996800  0.98295600  1
  O  O45  1  0.88762700  0.04317200  0.35233900  1
  O  O46  1  0.88628100  0.38003200  0.01704400  1
  O  O47  1  0.88943400  0.72009800  0.68443900  1
loop_
_geom_bond_atom_site_label_1
_geom_bond_atom_site_label_2
_geom_bond_distance
_geom_bond_site_symmetry_2
Cu0 O4 1.899848 1_555
Cu0 O0 1.943891 1_555
Cu0 O21 2.130885 1_555
Cu0 O18 2.147290 1_555
Cu0 O24 2.516247 1_555
Cu0 O27 2.605947 1_555
Cu1 O1 1.899848 1_555
Cu1 O5 1.943891 1_554
Cu1 O19 2.130885 1_555
Cu1 O22 2.147290 1_555
Cu1 O28 2.516247 1_555
Cu1 O25 2.605947 1_555
Cu2 O2 1.983609 1_545
Cu2 O3 1.983609 1_555
Cu2 O23 2.048424 1_555
Cu2 O20 2.048424 1_545
Cu3 O11 1.899848 1_555
Cu3 O6 1.943891 1_555
Cu3 O15 2.130885 1_555
Cu3 O12 2.147290 1_555
Cu3 O30 2.516247 1_555
Cu3 O33 2.605947 1_555
Cu4 O9 1.983609 1_545
Cu4 O7 1.983609 1_555
Cu4 O13 2.048424 1_555
Cu4 O16 2.048424 1_545
Cu5 O8 1.899848 1_555
Cu5 O10 1.943891 1_556
Cu5 O14 2.130885 1_555
Cu5 O17 2.147290 1_555
Cu5 O35 2.516247 1_555
Cu5 O32 2.605947 1_555
O0 W3 1.904828 1_555
O0 Y0 2.389463 1_555
O1 W4 1.810424 1_555
O2 W5 1.889722 1_565
O2 Y1 2.399185 1_555
O3 W0 1.889722 1_545
O3 Y0 2.399185 1_555
O4 W1 1.810424 1_555
O5 W2 1.904828 1_555
O5 Y1 2.389463 1_555
O6 W9 1.904828 1_555
O6 Y2 2.389463 1_555
O7 W10 1.889722 1_545
O7 Y3 2.399185 1_555
O8 W11 1.810424 1_555
O9 W6 1.889722 1_565
O9 Y2 2.399185 1_555
O10 W7 1.904828 1_555
O10 Y3 2.389463 1_555
O11 W8 1.810424 1_555
O12 W6 2.012057 1_565
O12 W0 2.104251 1_455
O13 W7 1.981358 1_555
O13 W1 2.163792 1_455
O14 W8 1.952408 1_555
O14 W2 2.091457 1_455
O15 W11 1.952408 1_555
O15 W3 2.091457 1_455
O16 W9 1.981358 1_555
O16 W4 2.163792 1_455
O17 W10 2.012057 1_546
O17 W5 2.104251 1_455
O18 W0 2.012057 1_545
O18 W6 2.104251 1_655
O19 W1 1.952408 1_555
O19 W7 2.091457 1_655
O20 W2 1.981358 1_555
O20 W8 2.163792 1_655
O21 W4 1.952408 1_555
O21 W9 2.091457 1_655
O22 W5 2.012057 1_564
O22 W10 2.104251 1_655
O23 W3 1.981358 1_555
O23 W11 2.163792 1_655
O24 W9 1.762323 1_555
O25 W10 1.827020 1_555
O25 Y1 2.254299 1_554
O26 W11 1.843939 1_555
O26 Y0 2.223183 1_555
O27 W6 1.827020 1_555
O27 Y0 2.254299 1_555
O28 W7 1.762323 1_555
O29 W8 1.843939 1_555
O29 Y1 2.223183 1_555
O30 W3 1.762323 1_555
O31 W4 1.843939 1_555
O31 Y2 2.223183 1_555
O32 W5 1.827020 1_555
O32 Y3 2.254299 1_556
O33 W0 1.827020 1_555
O33 Y2 2.254299 1_555
O34 W1 1.843939 1_555
O34 Y3 2.223183 1_555
O35 W2 1.762323 1_555
O36 W9 1.938977 1_555
O36 W3 2.241641 1_455
O36 Y0 2.253631 1_555
O37 W10 1.865268 1_555
O37 W4 2.057500 1_455
O38 W11 1.997385 1_555
O38 W5 2.138683 1_455
O38 Y1 2.242972 1_545
O39 W3 1.938977 1_555
O39 W9 2.241641 1_655
O39 Y2 2.253631 1_555
O40 W4 1.997385 1_555
O40 W10 2.138683 1_655
O40 Y3 2.242972 1_565
O41 W5 1.865268 1_555
O41 W11 2.057500 1_655
O42 W8 1.997385 1_555
O42 W0 2.138683 1_455
O42 Y0 2.242972 1_565
O43 W6 1.865268 1_555
O43 W1 2.057500 1_455
O44 W7 1.938977 1_556
O44 W2 2.241641 1_455
O44 Y1 2.253631 1_555
O45 W1 1.997385 1_555
O45 W6 2.138683 1_655
O45 Y2 2.242972 1_545
O46 W2 1.938977 1_554
O46 W7 2.241641 1_655
O46 Y3 2.253631 1_555
O47 W0 1.865268 1_555
O47 W8 2.057500 1_655
