# generated using pymatgen
data_Mn3CuAs2
_symmetry_space_group_name_H-M   'P 1'
_cell_length_a   3.54790600
_cell_length_b   7.28942600
_cell_length_c   12.70097600
_cell_angle_alpha   90.00000000
_cell_angle_beta   90.00000000
_cell_angle_gamma   90.00000000
_symmetry_Int_Tables_number   1
_chemical_formula_structural   Mn3CuAs2
_chemical_formula_sum   'Mn12 Cu4 As8'
_cell_volume   328.47515918
_cell_formula_units_Z   4
loop_
 _symmetry_equiv_pos_site_id
 _symmetry_equiv_pos_as_xyz
  1  'x, y, z'
loop_
 _atom_site_type_symbol
 _atom_site_label
 _atom_site_symmetry_multiplicity
 _atom_site_fract_x
 _atom_site_fract_y
 _atom_site_fract_z
 _atom_site_occupancy
  Mn  Mn0  1  0.25000000  0.19174500  0.81025500  1
  Mn  Mn1  1  0.25000000  0.30825500  0.31025500  1
  Mn  Mn2  1  0.75000000  0.80825500  0.18974500  1
  Mn  Mn3  1  0.75000000  0.69174500  0.68974500  1
  Mn  Mn4  1  0.25000000  0.80033500  0.84796400  1
  Mn  Mn5  1  0.25000000  0.69966500  0.34796400  1
  Mn  Mn6  1  0.75000000  0.19966500  0.15203600  1
  Mn  Mn7  1  0.75000000  0.30033500  0.65203600  1
  Mn  Mn8  1  0.75000000  0.44769400  0.89316500  1
  Mn  Mn9  1  0.75000000  0.05230600  0.39316500  1
  Mn  Mn10  1  0.25000000  0.55230600  0.10683500  1
  Mn  Mn11  1  0.25000000  0.94769400  0.60683500  1
  Cu  Cu0  1  0.75000000  0.05959000  0.94106900  1
  Cu  Cu1  1  0.75000000  0.44041000  0.44106900  1
  Cu  Cu2  1  0.25000000  0.94041000  0.05893100  1
  Cu  Cu3  1  0.25000000  0.55959000  0.55893100  1
  As  As0  1  0.75000000  0.99837500  0.74715500  1
  As  As1  1  0.75000000  0.50162500  0.24715500  1
  As  As2  1  0.25000000  0.00162500  0.25284500  1
  As  As3  1  0.25000000  0.49837500  0.75284500  1
  As  As4  1  0.25000000  0.27548500  0.00165300  1
  As  As5  1  0.25000000  0.22451500  0.50165300  1
  As  As6  1  0.75000000  0.72451500  0.99834700  1
  As  As7  1  0.75000000  0.77548500  0.49834700  1
loop_
_geom_bond_atom_site_label_1
_geom_bond_atom_site_label_2
_geom_bond_distance
_geom_bond_site_symmetry_2
Cu0 Cu2 2.478415 1_546
Cu0 Cu2 2.478415 1_646
Cu0 Mn0 2.614458 1_655
Cu0 Mn0 2.614458 1_555
Cu0 Mn4 2.848981 1_545
Cu0 Mn4 2.848981 1_645
Cu0 Mn6 2.867442 1_556
Cu0 Mn8 2.893741 1_555
Cu1 Cu3 2.478415 1_655
Cu1 Cu3 2.478415 1_555
Cu1 Mn1 2.614458 1_555
Cu1 Mn1 2.614458 1_655
Cu1 Mn5 2.848981 1_655
Cu1 Mn5 2.848981 1_555
Cu1 Mn7 2.867442 1_555
Cu1 Mn9 2.893741 1_555
Cu2 Mn2 2.614458 1_455
Cu2 Mn2 2.614458 1_555
Cu2 Mn6 2.848981 1_565
Cu2 Mn6 2.848981 1_465
Cu2 Mn4 2.867442 1_554
Cu2 Mn10 2.893741 1_555
Cu3 Mn3 2.614458 1_555
Cu3 Mn3 2.614458 1_455
Cu3 Mn7 2.848981 1_555
Cu3 Mn7 2.848981 1_455
Cu3 Mn5 2.867442 1_555
Cu3 Mn11 2.893741 1_555
As0 Mn3 2.351086 1_555
As0 Mn0 2.403342 1_565
As0 Mn0 2.403342 1_665
As0 Cu0 2.502993 1_565
As0 Mn7 2.510861 1_565
As0 Mn11 2.541581 1_555
As0 Mn11 2.541581 1_655
As0 Mn4 2.621114 1_655
As0 Mn4 2.621114 1_555
As1 Mn2 2.351086 1_555
As1 Mn1 2.403342 1_655
As1 Mn1 2.403342 1_555
As1 Cu1 2.502993 1_555
As1 Mn6 2.510861 1_555
As1 Mn10 2.541581 1_655
As1 Mn10 2.541581 1_555
As1 Mn5 2.621114 1_555
As1 Mn5 2.621114 1_655
As2 Mn1 2.351086 1_555
As2 Mn2 2.403342 1_445
As2 Mn2 2.403342 1_545
As2 Cu2 2.502993 1_545
As2 Mn5 2.510861 1_545
As2 Mn9 2.541581 1_455
As2 Mn9 2.541581 1_555
As2 Mn6 2.621114 1_455
As2 Mn6 2.621114 1_555
As3 Mn0 2.351086 1_555
As3 Mn3 2.403342 1_555
As3 Mn3 2.403342 1_455
As3 Cu3 2.502993 1_555
As3 Mn4 2.510861 1_555
As3 Mn8 2.541581 1_555
As3 Mn8 2.541581 1_455
As3 Mn7 2.621114 1_555
As3 Mn7 2.621114 1_455
As4 Mn10 2.420010 1_555
As4 Cu0 2.493129 1_554
As4 Cu0 2.493129 1_454
As4 Mn0 2.506409 1_554
As4 Cu2 2.548542 1_545
As4 Mn8 2.573192 1_554
As4 Mn8 2.573192 1_454
As4 Mn6 2.664678 1_455
As4 Mn6 2.664678 1_555
As5 Mn11 2.420010 1_545
As5 Cu1 2.493129 1_455
As5 Cu1 2.493129 1_555
As5 Mn1 2.506409 1_555
As5 Cu3 2.548542 1_555
As5 Mn9 2.573192 1_555
As5 Mn9 2.573192 1_455
As5 Mn7 2.664678 1_455
As5 Mn7 2.664678 1_555
As6 Mn8 2.420010 1_555
As6 Cu2 2.493129 1_656
As6 Cu2 2.493129 1_556
As6 Mn2 2.506409 1_556
As6 Cu0 2.548542 1_565
As6 Mn10 2.573192 1_656
As6 Mn10 2.573192 1_556
As6 Mn4 2.664678 1_555
As6 Mn4 2.664678 1_655
As7 Mn9 2.420010 1_565
As7 Cu3 2.493129 1_655
As7 Cu3 2.493129 1_555
As7 Mn3 2.506409 1_555
As7 Cu1 2.548542 1_555
As7 Mn11 2.573192 1_555
As7 Mn11 2.573192 1_655
As7 Mn5 2.664678 1_555
As7 Mn5 2.664678 1_655
