# generated using pymatgen
data_CrN2
_symmetry_space_group_name_H-M   'P 1'
_cell_length_a   13.45817129
_cell_length_b   13.45817129
_cell_length_c   13.45817129
_cell_angle_alpha   144.94929660
_cell_angle_beta   110.24875781
_cell_angle_gamma   80.51781923
_symmetry_Int_Tables_number   1
_chemical_formula_structural   CrN2
_chemical_formula_sum   'Cr18 N36'
_cell_volume   1281.18062175
_cell_formula_units_Z   18
loop_
 _symmetry_equiv_pos_site_id
 _symmetry_equiv_pos_as_xyz
  1  'x, y, z'
loop_
 _atom_site_type_symbol
 _atom_site_label
 _atom_site_symmetry_multiplicity
 _atom_site_fract_x
 _atom_site_fract_y
 _atom_site_fract_z
 _atom_site_occupancy
  Cr  Cr0  1  0.12210300  0.11727800  0.59173000  1
  Cr  Cr1  1  0.52554800  0.53037300  0.40827000  1
  Cr  Cr2  1  0.47445200  0.88272200  0.00482500  1
  Cr  Cr3  1  0.87789700  0.46962700  0.99517500  1
  Cr  Cr4  1  0.87789700  0.88272200  0.40827000  1
  Cr  Cr5  1  0.47445200  0.46962700  0.59173000  1
  Cr  Cr6  1  0.52554800  0.11727800  0.99517500  1
  Cr  Cr7  1  0.12210300  0.53037300  0.00482500  1
  Cr  Cr8  1  0.27056600  0.97934600  0.70878000  1
  Cr  Cr9  1  0.27056600  0.56178600  0.29122000  1
  Cr  Cr10  1  0.72943400  0.02065400  0.29122000  1
  Cr  Cr11  1  0.72943400  0.43821400  0.70878000  1
  Cr  Cr12  1  0.88041600  0.08313400  0.79728200  1
  Cr  Cr13  1  0.28585200  0.08313400  0.20271800  1
  Cr  Cr14  1  0.71414800  0.91686600  0.79728200  1
  Cr  Cr15  1  0.11958400  0.91686600  0.20271800  1
  Cr  Cr16  1  0.15108600  0.15108600  0.00000000  1
  Cr  Cr17  1  0.84891400  0.84891400  0.00000000  1
  N  N0  1  0.25186300  0.75186300  0.50000000  1
  N  N1  1  0.74813700  0.24813700  0.50000000  1
  N  N2  1  0.78170100  0.00000000  0.78170100  1
  N  N3  1  0.21829900  0.00000000  0.21829900  1
  N  N4  1  0.00905300  0.10342200  0.90563100  1
  N  N5  1  0.19779100  0.10342200  0.09436900  1
  N  N6  1  0.80220900  0.89657800  0.90563100  1
  N  N7  1  0.99094700  0.89657800  0.09436900  1
  N  N8  1  0.00000000  0.00000000  0.50000000  1
  N  N9  1  0.50000000  0.50000000  0.50000000  1
  N  N10  1  0.50000000  0.00000000  0.00000000  1
  N  N11  1  0.00000000  0.50000000  0.00000000  1
  N  N12  1  0.20034400  0.02995100  0.82960700  1
  N  N13  1  0.20034400  0.37073700  0.17039300  1
  N  N14  1  0.79965600  0.97004900  0.17039300  1
  N  N15  1  0.79965600  0.62926300  0.82960700  1
  N  N16  1  0.87483500  0.65872300  0.21611200  1
  N  N17  1  0.44261200  0.65872300  0.78388800  1
  N  N18  1  0.55738800  0.34127700  0.21611200  1
  N  N19  1  0.12516500  0.34127700  0.78388800  1
  N  N20  1  0.86213300  0.94433900  0.57448300  1
  N  N21  1  0.36985600  0.28764900  0.42551700  1
  N  N22  1  0.63014400  0.05566100  0.91779400  1
  N  N23  1  0.13786700  0.71235100  0.08220600  1
  N  N24  1  0.13786700  0.05566100  0.42551700  1
  N  N25  1  0.63014400  0.71235100  0.57448300  1
  N  N26  1  0.36985600  0.94433900  0.08220600  1
  N  N27  1  0.86213300  0.28764900  0.91779400  1
  N  N28  1  0.22381400  0.06964400  0.66291100  1
  N  N29  1  0.40673400  0.56090400  0.33708900  1
  N  N30  1  0.59326600  0.93035600  0.15417000  1
  N  N31  1  0.77618600  0.43909600  0.84583000  1
  N  N32  1  0.77618600  0.93035600  0.33708900  1
  N  N33  1  0.59326600  0.43909600  0.66291100  1
  N  N34  1  0.40673400  0.06964400  0.84583000  1
  N  N35  1  0.22381400  0.56090400  0.15417000  1
loop_
_geom_bond_atom_site_label_1
_geom_bond_atom_site_label_2
_geom_bond_distance
_geom_bond_site_symmetry_2
Cr0 N24 1.723339 1_555
Cr0 N8 1.725016 1_555
Cr0 N19 1.726333 1_555
Cr0 N28 1.735248 1_555
Cr1 N25 1.723346 1_555
Cr1 N9 1.725016 1_555
Cr1 N18 1.726326 1_555
Cr1 N29 1.735246 1_555
Cr2 N26 1.723339 1_555
Cr2 N10 1.725016 1_565
Cr2 N17 1.726334 1_554
Cr2 N30 1.735240 1_555
Cr3 N27 1.723352 1_555
Cr3 N11 1.725016 1_656
Cr3 N16 1.726333 1_556
Cr3 N31 1.735240 1_555
Cr4 N20 1.723339 1_555
Cr4 N8 1.725016 1_665
Cr4 N16 1.726333 1_555
Cr4 N32 1.735248 1_555
Cr5 N21 1.723346 1_555
Cr5 N9 1.725016 1_555
Cr5 N17 1.726326 1_555
Cr5 N33 1.735246 1_555
Cr6 N22 1.723339 1_555
Cr6 N10 1.725016 1_556
Cr6 N18 1.726334 1_556
Cr6 N34 1.735240 1_555
Cr7 N23 1.723352 1_555
Cr7 N11 1.725016 1_555
Cr7 N19 1.726333 1_554
Cr7 N35 1.735240 1_555
Cr8 N28 1.720835 1_565
Cr8 N34 1.720845 1_565
Cr8 N0 1.735276 1_555
Cr8 N12 1.743457 1_565
Cr9 N35 1.720845 1_555
Cr9 N29 1.720846 1_555
Cr9 N0 1.735276 1_555
Cr9 N13 1.743457 1_555
Cr10 N32 1.720835 1_545
Cr10 N30 1.720845 1_545
Cr10 N1 1.735276 1_555
Cr10 N14 1.743457 1_545
Cr11 N31 1.720845 1_555
Cr11 N33 1.720846 1_555
Cr11 N1 1.735276 1_555
Cr11 N15 1.743457 1_555
Cr12 N4 1.718847 1_655
Cr12 N2 1.724388 1_555
Cr12 N27 1.735191 1_555
Cr12 N20 1.735201 1_545
Cr13 N5 1.718847 1_555
Cr13 N3 1.724388 1_555
Cr13 N21 1.735198 1_555
Cr13 N26 1.735201 1_545
Cr14 N6 1.718847 1_555
Cr14 N2 1.724388 1_565
Cr14 N25 1.735198 1_555
Cr14 N22 1.735201 1_565
Cr15 N7 1.718847 1_455
Cr15 N3 1.724388 1_565
Cr15 N23 1.735191 1_555
Cr15 N24 1.735201 1_565
Cr16 N13 1.712048 1_555
Cr16 N12 1.712048 1_554
Cr16 N5 1.751576 1_555
Cr16 N4 1.751576 1_554
Cr17 N14 1.712048 1_555
Cr17 N15 1.712048 1_554
Cr17 N7 1.751576 1_555
Cr17 N6 1.751576 1_554
