# generated using pymatgen
data_Li2VFeP2(HO5)2
_symmetry_space_group_name_H-M   'P 1'
_cell_length_a   6.94886900
_cell_length_b   7.52793164
_cell_length_c   7.87220286
_cell_angle_alpha   117.39529514
_cell_angle_beta   92.03176794
_cell_angle_gamma   90.87291184
_symmetry_Int_Tables_number   1
_chemical_formula_structural   Li2VFeP2(HO5)2
_chemical_formula_sum   'Li4 V2 Fe2 P4 H4 O20'
_cell_volume   365.15682336
_cell_formula_units_Z   2
loop_
 _symmetry_equiv_pos_site_id
 _symmetry_equiv_pos_as_xyz
  1  'x, y, z'
loop_
 _atom_site_type_symbol
 _atom_site_label
 _atom_site_symmetry_multiplicity
 _atom_site_fract_x
 _atom_site_fract_y
 _atom_site_fract_z
 _atom_site_occupancy
  Li  Li0  1  0.16116000  0.58592300  0.76317600  1
  Li  Li1  1  0.33863400  0.91394800  0.73596400  1
  Li  Li2  1  0.66093800  0.08591100  0.26380700  1
  Li  Li3  1  0.83937100  0.41419900  0.23714600  1
  V  V0  1  0.00003500  0.00042900  0.99992700  1
  V  V1  1  0.75051400  0.25001500  0.75042600  1
  Fe  Fe0  1  0.24968000  0.74975100  0.24979300  1
  Fe  Fe1  1  0.49982500  0.49930500  0.49974600  1
  P  P0  1  0.59626700  0.72668200  0.95890200  1
  P  P1  1  0.09677400  0.22676800  0.45877900  1
  P  P2  1  0.90339000  0.77264900  0.54060300  1
  P  P3  1  0.40347200  0.27369100  0.04144400  1
  H  H0  1  0.04127700  0.32255800  0.98337300  1
  H  H1  1  0.53988900  0.82003600  0.48072600  1
  H  H2  1  0.45872500  0.17973200  0.51741200  1
  H  H3  1  0.96024000  0.67791000  0.01877400  1
  O  O0  1  0.05510300  0.83187600  0.71089600  1
  O  O1  1  0.00374800  0.68881700  0.34738200  1
  O  O2  1  0.44587200  0.66766500  0.78795500  1
  O  O3  1  0.72531700  0.90523600  0.97788700  1
  O  O4  1  0.08232300  0.75423600  0.03193200  1
  O  O5  1  0.22531100  0.40572300  0.47644200  1
  O  O6  1  0.41773700  0.74410600  0.46844200  1
  O  O7  1  0.72456500  0.54936400  0.92984700  1
  O  O8  1  0.50388300  0.18998600  0.84738300  1
  O  O9  1  0.77562000  0.95028100  0.57024900  1
  O  O10  1  0.22377200  0.04880200  0.42882300  1
  O  O11  1  0.49507000  0.81065900  0.15180800  1
  O  O12  1  0.27596600  0.45137200  0.07082100  1
  O  O13  1  0.58014400  0.25608800  0.52885000  1
  O  O14  1  0.77392200  0.59457300  0.52379800  1
  O  O15  1  0.91980600  0.24619900  0.97133100  1
  O  O16  1  0.27534800  0.09458600  0.02201900  1
  O  O17  1  0.55436900  0.33257900  0.21158800  1
  O  O18  1  0.99728500  0.31036000  0.65321700  1
  O  O19  1  0.94464500  0.16798600  0.28933400  1
loop_
_geom_bond_atom_site_label_1
_geom_bond_atom_site_label_2
_geom_bond_distance
_geom_bond_site_symmetry_2
Li0 O4 2.004528 1_556
Li0 O2 2.038616 1_555
Li0 O5 2.099031 1_555
Li0 O18 2.134227 1_455
Li0 O0 2.204981 1_555
Li1 O6 1.999409 1_555
Li1 O0 2.031149 1_555
Li1 O16 2.093793 1_566
Li1 O8 2.141159 1_565
Li1 O2 2.208824 1_555
Li2 O13 1.988700 1_555
Li2 O19 2.032056 1_555
Li2 O3 2.094977 1_544
Li2 O11 2.138527 1_545
Li2 O17 2.210933 1_555
Li3 O15 1.989899 1_554
Li3 O17 2.039868 1_555
Li3 O14 2.101094 1_555
Li3 O1 2.130341 1_655
Li3 O19 2.204551 1_555
Fe0 O11 2.026768 1_555
Fe0 O1 2.028452 1_555
Fe0 O12 2.045032 1_555
Fe0 O10 2.048738 1_565
Fe0 O4 2.051345 1_555
Fe0 O6 2.062661 1_555
Fe1 O5 1.996007 1_555
Fe1 O14 1.996441 1_555
Fe1 O13 2.030855 1_555
Fe1 O6 2.054791 1_555
Fe1 O17 2.078493 1_555
Fe1 O2 2.079200 1_555
H0 O15 0.990600 1_455
H1 O6 0.992520 1_555
H2 O13 0.991254 1_555
H3 O4 0.992318 1_655
O0 P2 1.562939 1_455
O0 V0 2.086428 1_565
O1 P2 1.550328 1_455
O2 P0 1.560924 1_555
O3 P0 1.549878 1_555
O3 V0 2.002060 1_665
O4 V0 2.068100 1_564
O5 P1 1.553741 1_555
O7 P0 1.548767 1_555
O7 V1 2.051104 1_555
O8 P3 1.555906 1_556
O8 V1 2.027432 1_555
O9 P2 1.547431 1_555
O9 V1 2.053739 1_565
O10 P1 1.545731 1_555
O11 P0 1.551154 1_554
O12 P3 1.547123 1_555
O13 V1 2.091607 1_555
O14 P2 1.554205 1_555
O15 V0 2.047024 1_655
O15 V1 2.076249 1_555
O16 P3 1.548538 1_555
O16 V0 2.003574 1_554
O17 P3 1.558799 1_555
O18 P1 1.555229 1_655
O18 V1 2.030187 1_555
O19 P1 1.560512 1_655
O19 V0 2.088567 1_654
