# generated using pymatgen
data_Zr2Zn
_symmetry_space_group_name_H-M   'P 1'
_cell_length_a   6.57460184
_cell_length_b   6.57460184
_cell_length_c   12.25549413
_cell_angle_alpha   105.55901587
_cell_angle_beta   105.55901587
_cell_angle_gamma   90.00000000
_symmetry_Int_Tables_number   1
_chemical_formula_structural   Zr2Zn
_chemical_formula_sum   'Zr16 Zn8'
_cell_volume   490.15464839
_cell_formula_units_Z   8
loop_
 _symmetry_equiv_pos_site_id
 _symmetry_equiv_pos_as_xyz
  1  'x, y, z'
loop_
 _atom_site_type_symbol
 _atom_site_label
 _atom_site_symmetry_multiplicity
 _atom_site_fract_x
 _atom_site_fract_y
 _atom_site_fract_z
 _atom_site_occupancy
  Zr  Zr0_0  1  0.32806918  0.32806918  0.15613787  1
  Zr  Zr0_1  1  0.32806918  0.32806918  0.65613787  1
  Zr  Zr0_2  1  0.32806918  0.82806918  0.15613787  1
  Zr  Zr0_3  1  0.32806918  0.82806918  0.65613787  1
  Zr  Zr0_4  1  0.82806918  0.32806918  0.15613787  1
  Zr  Zr0_5  1  0.82806918  0.32806918  0.65613787  1
  Zr  Zr0_6  1  0.82806918  0.82806918  0.15613787  1
  Zr  Zr0_7  1  0.82806918  0.82806918  0.65613787  1
  Zr  Zr1_0  1  0.17193081  0.17193081  0.34386213  1
  Zr  Zr1_1  1  0.17193081  0.17193081  0.84386213  1
  Zr  Zr1_2  1  0.17193081  0.67193081  0.34386213  1
  Zr  Zr1_3  1  0.17193081  0.67193081  0.84386213  1
  Zr  Zr1_4  1  0.67193081  0.17193081  0.34386213  1
  Zr  Zr1_5  1  0.67193081  0.17193081  0.84386213  1
  Zr  Zr1_6  1  0.67193081  0.67193081  0.34386213  1
  Zr  Zr1_7  1  0.67193081  0.67193081  0.84386213  1
  Zn  Zn0_0  1  0.00000000  0.00000000  0.00000000  1
  Zn  Zn0_1  1  0.00000000  0.00000000  0.50000000  1
  Zn  Zn0_2  1  0.00000000  0.50000000  0.00000000  1
  Zn  Zn0_3  1  0.00000000  0.50000000  0.50000000  1
  Zn  Zn0_4  1  0.50000000  0.00000000  0.00000000  1
  Zn  Zn0_5  1  0.50000000  0.00000000  0.50000000  1
  Zn  Zn0_6  1  0.50000000  0.50000000  0.00000000  1
  Zn  Zn0_7  1  0.50000000  0.50000000  0.50000000  1
loop_
_geom_bond_atom_site_label_1
_geom_bond_atom_site_label_2
_geom_bond_distance
_geom_bond_site_symmetry_2
Zr0_0 Zr1_6 3.151907 1_555
Zr0_0 Zr1_2 3.151911 1_555
Zr0_0 Zr1_4 3.151911 1_555
Zr0_0 Zr1_0 3.151914 1_555
Zr0_0 Zr0_2 3.287301 1_555
Zr0_0 Zr0_4 3.287301 1_455
Zr0_0 Zr0_2 3.287301 1_545
Zr0_0 Zr0_4 3.287301 1_555
Zr0_1 Zr1_7 3.151907 1_555
Zr0_1 Zr1_3 3.151911 1_555
Zr0_1 Zr1_5 3.151911 1_555
Zr0_1 Zr1_1 3.151914 1_555
Zr0_1 Zr0_5 3.287301 1_555
Zr0_1 Zr0_3 3.287301 1_555
Zr0_1 Zr0_5 3.287301 1_455
Zr0_1 Zr0_3 3.287301 1_545
Zr0_2 Zr1_4 3.151907 1_565
Zr0_2 Zr1_6 3.151911 1_555
Zr0_2 Zr1_0 3.151911 1_565
Zr0_2 Zr1_2 3.151914 1_555
Zr0_2 Zr0_6 3.287301 1_555
Zr0_2 Zr0_6 3.287301 1_455
Zr0_3 Zr1_5 3.151907 1_565
Zr0_3 Zr1_7 3.151911 1_555
Zr0_3 Zr1_1 3.151911 1_565
Zr0_3 Zr1_3 3.151914 1_555
Zr0_3 Zr0_7 3.287301 1_555
Zr0_3 Zr0_7 3.287301 1_455
Zr0_4 Zr1_2 3.151907 1_655
Zr0_4 Zr1_6 3.151911 1_555
Zr0_4 Zr1_0 3.151911 1_655
Zr0_4 Zr1_4 3.151914 1_555
Zr0_4 Zr0_6 3.287301 1_545
Zr0_4 Zr0_6 3.287301 1_555
Zr0_5 Zr1_3 3.151907 1_655
Zr0_5 Zr1_7 3.151911 1_555
Zr0_5 Zr1_1 3.151911 1_655
Zr0_5 Zr1_5 3.151914 1_555
Zr0_5 Zr0_7 3.287301 1_555
Zr0_5 Zr0_7 3.287301 1_545
Zr0_6 Zr1_0 3.151907 1_665
Zr0_6 Zr1_2 3.151911 1_655
Zr0_6 Zr1_4 3.151911 1_565
Zr0_6 Zr1_6 3.151914 1_555
Zr0_7 Zr1_1 3.151907 1_665
Zr0_7 Zr1_5 3.151911 1_565
Zr0_7 Zr1_3 3.151911 1_655
Zr0_7 Zr1_7 3.151914 1_555
Zr1_0 Zr1_4 3.287301 1_455
Zr1_0 Zr1_4 3.287301 1_555
Zr1_0 Zr1_2 3.287301 1_555
Zr1_0 Zr1_2 3.287301 1_545
Zr1_1 Zr1_5 3.287301 1_555
Zr1_1 Zr1_3 3.287301 1_555
Zr1_1 Zr1_3 3.287301 1_545
Zr1_1 Zr1_5 3.287301 1_455
Zr1_2 Zr1_6 3.287301 1_455
Zr1_2 Zr1_6 3.287301 1_555
Zr1_3 Zr1_7 3.287301 1_555
Zr1_3 Zr1_7 3.287301 1_455
Zr1_4 Zr1_6 3.287301 1_545
Zr1_4 Zr1_6 3.287301 1_555
Zr1_5 Zr1_7 3.287301 1_555
Zr1_5 Zr1_7 3.287301 1_545
Zn0_0 Zr1_1 2.921973 1_554
Zn0_0 Zr0_6 2.921973 1_445
Zn0_0 Zr0_2 2.921975 1_545
Zn0_0 Zr0_4 2.921975 1_455
Zn0_0 Zr1_3 2.921975 1_544
Zn0_0 Zr1_5 2.921975 1_454
Zn0_0 Zr0_0 2.921977 1_555
Zn0_0 Zr1_7 2.921977 1_444
Zn0_1 Zr1_0 2.921973 1_555
Zn0_1 Zr0_7 2.921973 1_445
Zn0_1 Zr1_4 2.921975 1_455
Zn0_1 Zr1_2 2.921975 1_545
Zn0_1 Zr0_5 2.921975 1_455
Zn0_1 Zr0_3 2.921975 1_545
Zn0_1 Zr0_1 2.921977 1_555
Zn0_1 Zr1_6 2.921977 1_445
Zn0_2 Zr0_4 2.921973 1_455
Zn0_2 Zr1_3 2.921973 1_554
Zn0_2 Zr0_0 2.921975 1_555
Zn0_2 Zr0_6 2.921975 1_455
Zn0_2 Zr1_1 2.921975 1_554
Zn0_2 Zr1_7 2.921975 1_454
Zn0_2 Zr0_2 2.921977 1_555
Zn0_2 Zr1_5 2.921977 1_454
Zn0_3 Zr1_2 2.921973 1_555
Zn0_3 Zr0_5 2.921973 1_455
Zn0_3 Zr1_0 2.921975 1_555
Zn0_3 Zr0_1 2.921975 1_555
Zn0_3 Zr1_6 2.921975 1_455
Zn0_3 Zr0_7 2.921975 1_455
Zn0_3 Zr0_3 2.921977 1_555
Zn0_3 Zr1_4 2.921977 1_455
Zn0_4 Zr0_2 2.921973 1_545
Zn0_4 Zr1_5 2.921973 1_554
Zn0_4 Zr0_0 2.921975 1_555
Zn0_4 Zr1_1 2.921975 1_554
Zn0_4 Zr0_6 2.921975 1_545
Zn0_4 Zr1_7 2.921975 1_544
Zn0_4 Zr0_4 2.921977 1_555
Zn0_4 Zr1_3 2.921977 1_544
Zn0_5 Zr1_4 2.921973 1_555
Zn0_5 Zr0_3 2.921973 1_545
Zn0_5 Zr1_0 2.921975 1_555
Zn0_5 Zr0_1 2.921975 1_555
Zn0_5 Zr1_6 2.921975 1_545
Zn0_5 Zr0_7 2.921975 1_545
Zn0_5 Zr0_5 2.921977 1_555
Zn0_5 Zr1_2 2.921977 1_545
Zn0_6 Zr0_0 2.921973 1_555
Zn0_6 Zr1_7 2.921973 1_554
Zn0_6 Zr0_2 2.921975 1_555
Zn0_6 Zr0_4 2.921975 1_555
Zn0_6 Zr1_3 2.921975 1_554
Zn0_6 Zr1_5 2.921975 1_554
Zn0_6 Zr0_6 2.921977 1_555
Zn0_6 Zr1_1 2.921977 1_554
Zn0_7 Zr1_6 2.921973 1_555
Zn0_7 Zr0_1 2.921973 1_555
Zn0_7 Zr1_4 2.921975 1_555
Zn0_7 Zr1_2 2.921975 1_555
Zn0_7 Zr0_5 2.921975 1_555
Zn0_7 Zr0_3 2.921975 1_555
Zn0_7 Zr1_0 2.921977 1_555
Zn0_7 Zr0_7 2.921977 1_555
