# generated using pymatgen
data_Na5Si51
_symmetry_space_group_name_H-M   'P 1'
_cell_length_a   10.41495540
_cell_length_b   10.42030226
_cell_length_c   25.58443286
_cell_angle_alpha   90.01927780
_cell_angle_beta   90.00000000
_cell_angle_gamma   119.98302759
_symmetry_Int_Tables_number   1
_chemical_formula_structural   Na5Si51
_chemical_formula_sum   'Na10 Si102'
_cell_volume   2405.01824045
_cell_formula_units_Z   2
loop_
 _symmetry_equiv_pos_site_id
 _symmetry_equiv_pos_as_xyz
  1  'x, y, z'
loop_
 _atom_site_type_symbol
 _atom_site_label
 _atom_site_symmetry_multiplicity
 _atom_site_fract_x
 _atom_site_fract_y
 _atom_site_fract_z
 _atom_site_occupancy
  Na  Na0  1  0.33332716  0.16665533  0.79169807  1
  Na  Na1  1  0.00001268  0.50002536  0.12498653  1
  Na  Na2  1  0.66666926  0.83333752  0.45833824  1
  Na  Na3  1  0.99998732  0.49997464  0.87501347  1
  Na  Na4  1  0.66667284  0.83334467  0.20830193  1
  Na  Na5  1  0.33333074  0.16666248  0.54166176  1
  Na  Na6  1  0.33331317  0.16662735  0.16672227  1
  Na  Na7  1  0.00000000  0.50000000  0.50000000  1
  Na  Na8  1  0.66668683  0.83337265  0.83327773  1
  Na  Na9  1  0.50000000  0.50000000  0.00000000  1
  Si  Si0  1  0.33307511  0.16615122  0.94888122  1
  Si  Si1  1  0.00006207  0.50012414  0.28233506  1
  Si  Si2  1  0.66667259  0.83334418  0.61562595  1
  Si  Si3  1  0.54303227  0.58606555  0.73914647  1
  Si  Si4  1  0.20925703  0.91851405  0.07251010  1
  Si  Si5  1  0.87638641  0.25277181  0.40581008  1
  Si  Si6  1  0.54308015  0.95714119  0.73916040  1
  Si  Si7  1  0.20924042  0.29041892  0.07253946  1
  Si  Si8  1  0.87634333  0.62364256  0.40579727  1
  Si  Si9  1  0.91406004  0.95714119  0.73916040  1
  Si  Si10  1  0.58117850  0.29041892  0.07253946  1
  Si  Si11  1  0.24730023  0.62364256  0.40579727  1
  Si  Si12  1  0.99993793  0.49987586  0.71766494  1
  Si  Si13  1  0.66692489  0.83384878  0.05111878  1
  Si  Si14  1  0.33332741  0.16665582  0.38437405  1
  Si  Si15  1  0.79074297  0.08148595  0.92748990  1
  Si  Si16  1  0.45696773  0.41393445  0.26085353  1
  Si  Si17  1  0.12361359  0.74722819  0.59418992  1
  Si  Si18  1  0.79075958  0.70958108  0.92746054  1
  Si  Si19  1  0.45691985  0.04285881  0.26083960  1
  Si  Si20  1  0.12365667  0.37635744  0.59420273  1
  Si  Si21  1  0.41882150  0.70958108  0.92746054  1
  Si  Si22  1  0.08593996  0.04285881  0.26083960  1
  Si  Si23  1  0.75269977  0.37635744  0.59420273  1
  Si  Si24  1  0.66670464  0.83340828  0.70799522  1
  Si  Si25  1  0.33300939  0.16601979  0.04131943  1
  Si  Si26  1  0.99996286  0.49992573  0.37462712  1
  Si  Si27  1  0.66699061  0.83398021  0.95868057  1
  Si  Si28  1  0.33329536  0.16659172  0.29200478  1
  Si  Si29  1  0.00003714  0.50007427  0.62537288  1
  Si  Si30  1  0.58442050  0.29215700  0.92131359  1
  Si  Si31  1  0.25084681  0.62559627  0.25477994  1
  Si  Si32  1  0.91759389  0.95877537  0.58807028  1
  Si  Si33  1  0.33839485  0.55367231  0.79025941  1
  Si  Si34  1  0.00535178  0.88738076  0.12377034  1
  Si  Si35  1  0.67177363  0.22029454  0.45703863  1
  Si  Si36  1  0.33848464  0.78486534  0.79039835  1
  Si  Si37  1  0.00467120  0.11767179  0.12378704  1
  Si  Si38  1  0.67178558  0.45149765  0.45703772  1
  Si  Si39  1  0.73858181  0.36943336  0.99802594  1
  Si  Si40  1  0.40507325  0.70258887  0.33130031  1
  Si  Si41  1  0.07186566  0.03599929  0.66464900  1
  Si  Si42  1  0.71533429  0.16164686  0.79028619  1
  Si  Si43  1  0.38182765  0.49501313  0.12376384  1
  Si  Si44  1  0.04848073  0.82824080  0.45704426  1
  Si  Si45  1  0.20759664  0.91519427  0.92134168  1
  Si  Si46  1  0.87458744  0.24917489  0.25472779  1
  Si  Si47  1  0.54123796  0.58247492  0.58804802  1
  Si  Si48  1  0.13106791  0.76213481  0.99802587  1
  Si  Si49  1  0.79741121  0.09482343  0.33133286  1
  Si  Si50  1  0.46400812  0.42801624  0.66465621  1
  Si  Si51  1  0.94631257  0.16164686  0.79028619  1
  Si  Si52  1  0.61318648  0.49501313  0.12376384  1
  Si  Si53  1  0.27975908  0.82824080  0.45704426  1
  Si  Si54  1  0.71527747  0.55367231  0.79025941  1
  Si  Si55  1  0.38202998  0.88738076  0.12377034  1
  Si  Si56  1  0.04851992  0.22029454  0.45703863  1
  Si  Si57  1  0.13085254  0.36943336  0.99802594  1
  Si  Si58  1  0.79751462  0.70258887  0.33130031  1
  Si  Si59  1  0.46413363  0.03599929  0.66464900  1
  Si  Si60  1  0.20773550  0.29215700  0.92131359  1
  Si  Si61  1  0.87474946  0.62559627  0.25477994  1
  Si  Si62  1  0.54118249  0.95877537  0.58807028  1
  Si  Si63  1  0.94638070  0.78486534  0.79039835  1
  Si  Si64  1  0.61300159  0.11767179  0.12378704  1
  Si  Si65  1  0.27971107  0.45149765  0.45703772  1
  Si  Si66  1  0.74915319  0.37440373  0.74522006  1
  Si  Si67  1  0.41557950  0.70784300  0.07868641  1
  Si  Si68  1  0.08240611  0.04122463  0.41192972  1
  Si  Si69  1  0.99464822  0.11261924  0.87622966  1
  Si  Si70  1  0.66160515  0.44632769  0.20974059  1
  Si  Si71  1  0.32822637  0.77970546  0.54296137  1
  Si  Si72  1  0.99532880  0.88232821  0.87621296  1
  Si  Si73  1  0.66151536  0.21513466  0.20960165  1
  Si  Si74  1  0.32821442  0.54850235  0.54296228  1
  Si  Si75  1  0.59492675  0.29741113  0.66869969  1
  Si  Si76  1  0.26141819  0.63056664  0.00197406  1
  Si  Si77  1  0.92813434  0.96400071  0.33535100  1
  Si  Si78  1  0.61817235  0.50498687  0.87623616  1
  Si  Si79  1  0.28466571  0.83835314  0.20971381  1
  Si  Si80  1  0.95151927  0.17175920  0.54295574  1
  Si  Si81  1  0.12541256  0.75082511  0.74527221  1
  Si  Si82  1  0.79240336  0.08480573  0.07865832  1
  Si  Si83  1  0.45876204  0.41752508  0.41195198  1
  Si  Si84  1  0.20258879  0.90517657  0.66866714  1
  Si  Si85  1  0.86893209  0.23786519  0.00197413  1
  Si  Si86  1  0.53599188  0.57198376  0.33534379  1
  Si  Si87  1  0.38681352  0.50498687  0.87623616  1
  Si  Si88  1  0.05368743  0.83835314  0.20971381  1
  Si  Si89  1  0.72024092  0.17175920  0.54295574  1
  Si  Si90  1  0.61797002  0.11261924  0.87622966  1
  Si  Si91  1  0.28472253  0.44632769  0.20974059  1
  Si  Si92  1  0.95148008  0.77970546  0.54296137  1
  Si  Si93  1  0.20248538  0.29741113  0.66869969  1
  Si  Si94  1  0.86914746  0.63056664  0.00197406  1
  Si  Si95  1  0.53586637  0.96400071  0.33535100  1
  Si  Si96  1  0.12525054  0.37440373  0.74522006  1
  Si  Si97  1  0.79226450  0.70784300  0.07868641  1
  Si  Si98  1  0.45881751  0.04122463  0.41192972  1
  Si  Si99  1  0.38699841  0.88232821  0.87621296  1
  Si  Si100  1  0.05361930  0.21513466  0.20960165  1
  Si  Si101  1  0.72028893  0.54850235  0.54296228  1
loop_
_geom_bond_atom_site_label_1
_geom_bond_atom_site_label_2
_geom_bond_distance
_geom_bond_site_symmetry_2
Na6 Si28 3.205282 1_555
Na6 Si25 3.208363 1_555
Na6 Si16 3.283012 1_555
Na6 Si22 3.283332 1_555
Na6 Si19 3.283344 1_555
Na6 Si7 3.287572 1_555
Na6 Si10 3.287578 1_555
Na6 Si4 3.289477 1_545
Na6 Si34 3.377212 1_545
Na6 Si55 3.377225 1_545
Na6 Si100 3.378734 1_555
Na6 Si73 3.378743 1_555
Na6 Si91 3.381442 1_555
Na6 Si70 3.381448 1_555
Na6 Si37 3.381837 1_555
Na6 Si64 3.381857 1_555
Na6 Si88 3.382022 1_545
Na6 Si79 3.382025 1_545
Na6 Si43 3.383332 1_555
Na6 Si52 3.383339 1_555
Na7 Si29 3.207594 1_555
Na7 Si26 3.207594 1_455
Na7 Si5 3.283628 1_455
Na7 Si17 3.283628 1_555
Na7 Si8 3.284481 1_455
Na7 Si20 3.284481 1_555
Na7 Si23 3.284487 1_455
Na7 Si11 3.284487 1_555
Na7 Si101 3.379560 1_455
Na7 Si65 3.379560 1_555
Na7 Si38 3.379570 1_455
Na7 Si74 3.379570 1_555
Na7 Si56 3.380591 1_555
Na7 Si92 3.380591 1_455
Na7 Si71 3.380597 1_555
Na7 Si35 3.380597 1_455
Na7 Si53 3.382015 1_555
Na7 Si89 3.382015 1_455
Na7 Si44 3.382019 1_555
Na7 Si80 3.382019 1_455
Na8 Si24 3.205282 1_555
Na8 Si27 3.208363 1_555
Na8 Si3 3.283012 1_555
Na8 Si9 3.283332 1_555
Na8 Si6 3.283344 1_555
Na8 Si18 3.287572 1_555
Na8 Si21 3.287578 1_555
Na8 Si15 3.289477 1_565
Na8 Si69 3.377212 1_565
Na8 Si90 3.377225 1_565
Na8 Si63 3.378734 1_555
Na8 Si36 3.378743 1_555
Na8 Si54 3.381442 1_555
Na8 Si33 3.381448 1_555
Na8 Si72 3.381837 1_555
Na8 Si99 3.381857 1_555
Na8 Si51 3.382022 1_565
Na8 Si42 3.382025 1_565
Na8 Si78 3.383332 1_555
Na8 Si87 3.383339 1_555
Na9 Si27 3.194813 1_554
Na9 Si25 3.194813 1_555
Na9 Si21 3.282793 1_554
Na9 Si10 3.282793 1_555
Na9 Si7 3.282793 1_555
Na9 Si18 3.282793 1_554
Na9 Si13 3.284367 1_555
Na9 Si0 3.284367 1_554
Na9 Si57 3.377398 1_554
Na9 Si94 3.377398 1_555
Na9 Si39 3.377407 1_554
Na9 Si76 3.377407 1_555
Na9 Si30 3.378872 1_554
Na9 Si67 3.378872 1_555
Na9 Si60 3.378878 1_554
Na9 Si97 3.378878 1_555
Na9 Si78 3.388203 1_554
Na9 Si43 3.388203 1_555
Na9 Si87 3.388207 1_554
Na9 Si52 3.388207 1_555
Si0 Si25 2.364980 1_556
Si0 Si45 2.371878 1_545
Si0 Si30 2.374725 1_555
Si0 Si60 2.374725 1_555
Si1 Si26 2.361241 1_455
Si1 Si31 2.369797 1_555
Si1 Si61 2.369797 1_455
Si1 Si46 2.372327 1_455
Si2 Si24 2.363215 1_555
Si2 Si62 2.370976 1_555
Si2 Si32 2.370976 1_555
Si2 Si47 2.371414 1_555
Si3 Si33 2.376480 1_555
Si3 Si54 2.376489 1_555
Si3 Si50 2.380102 1_555
Si4 Si48 2.370979 1_554
Si4 Si55 2.376312 1_555
Si5 Si56 2.377612 1_655
Si10 Si25 2.376852 1_555
Si10 Si39 2.377324 1_554
Si10 Si52 2.379408 1_555
Si10 Si64 2.380569 1_555
Si11 Si26 2.369353 1_455
Si11 Si53 2.378321 1_555
Si11 Si65 2.378458 1_555
Si11 Si40 2.378975 1_555
Si12 Si29 2.361241 1_655
Si12 Si96 2.369797 1_655
Si12 Si66 2.369797 1_555
Si12 Si81 2.372327 1_655
Si13 Si27 2.364980 1_554
Si13 Si82 2.371878 1_565
Si13 Si97 2.374725 1_555
Si13 Si67 2.374725 1_555
Si14 Si28 2.363215 1_555
Si14 Si98 2.370976 1_555
Si14 Si68 2.370976 1_555
Si14 Si83 2.371414 1_555
Si15 Si85 2.370979 1_556
Si15 Si27 2.372477 1_545
Si15 Si69 2.376304 1_555
Si15 Si90 2.376312 1_555
Si16 Si28 2.370752 1_555
Si16 Si70 2.376480 1_555
Si16 Si91 2.376489 1_555
Si16 Si86 2.380102 1_555
Si17 Si29 2.369420 1_555
Si17 Si92 2.377612 1_455
Si17 Si71 2.377629 1_555
Si17 Si84 2.379289 1_555
Si18 Si27 2.376843 1_555
Si18 Si94 2.377318 1_556
Si18 Si78 2.379411 1_555
Si18 Si72 2.380564 1_555
Si19 Si28 2.369481 1_555
Si19 Si79 2.376479 1_545
Si19 Si73 2.379057 1_555
Si19 Si95 2.379440 1_545
Si20 Si29 2.369345 1_555
Si20 Si80 2.378315 1_455
Si20 Si74 2.378469 1_555
Si20 Si93 2.378985 1_555
Si21 Si27 2.376852 1_555
Si21 Si76 2.377324 1_556
Si21 Si87 2.379408 1_555
Si21 Si99 2.380569 1_555
Si22 Si28 2.369464 1_555
Si22 Si88 2.376476 1_545
Si22 Si77 2.379446 1_445
Si23 Si29 2.369353 1_655
Si23 Si89 2.378321 1_555
Si23 Si75 2.378975 1_555
Si24 Si9 2.369464 1_555
Si24 Si6 2.369481 1_555
Si24 Si3 2.370752 1_555
Si25 Si4 2.372477 1_545
Si25 Si7 2.376843 1_555
Si26 Si8 2.369345 1_555
Si26 Si5 2.369420 1_555
Si30 Si78 2.365285 1_555
Si30 Si90 2.367378 1_555
Si30 Si39 2.405201 1_555
Si31 Si79 2.364264 1_555
Si31 Si91 2.366245 1_555
Si31 Si40 2.401535 1_555
Si32 Si92 2.365384 1_555
Si32 Si80 2.366556 1_565
Si32 Si41 2.402989 1_665
Si33 Si96 2.366245 1_555
Si33 Si87 2.367836 1_555
Si33 Si36 2.408635 1_555
Si34 Si97 2.367378 1_455
Si34 Si88 2.367915 1_555
Si34 Si4 2.376304 1_555
Si34 Si37 2.403252 1_565
Si35 Si98 2.365384 1_555
Si35 Si89 2.366079 1_555
Si35 Si5 2.377629 1_555
Si35 Si38 2.409144 1_555
Si36 Si99 2.364876 1_555
Si36 Si81 2.365649 1_555
Si36 Si6 2.379057 1_555
Si37 Si82 2.362377 1_455
Si37 Si7 2.380564 1_555
Si38 Si83 2.364934 1_555
Si38 Si8 2.378469 1_555
Si39 Si94 2.359058 1_556
Si39 Si85 2.364998 1_556
Si40 Si86 2.361534 1_555
Si40 Si95 2.361683 1_555
Si41 Si93 2.361683 1_555
Si41 Si84 2.361706 1_545
Si41 Si9 2.379446 1_445
Si42 Si66 2.364264 1_555
Si42 Si90 2.367919 1_555
Si42 Si6 2.376479 1_545
Si42 Si51 2.405628 1_555
Si43 Si67 2.365285 1_555
Si43 Si91 2.367840 1_555
Si43 Si7 2.379411 1_555
Si43 Si52 2.409592 1_555
Si44 Si92 2.366072 1_455
Si44 Si68 2.366556 1_565
Si44 Si8 2.378315 1_455
Si44 Si53 2.408754 1_555
Si45 Si99 2.362377 1_555
Si45 Si72 2.362377 1_455
Si45 Si48 2.399945 1_555
Si46 Si73 2.365649 1_555
Si46 Si49 2.405030 1_555
Si47 Si74 2.364934 1_555
Si47 Si50 2.405656 1_555
Si48 Si76 2.364998 1_556
Si48 Si94 2.365016 1_456
Si49 Si95 2.361697 1_545
Si49 Si77 2.361706 1_545
Si49 Si5 2.379289 1_555
Si50 Si93 2.361525 1_555
Si50 Si75 2.361534 1_555
Si51 Si96 2.364264 1_655
Si51 Si69 2.367915 1_555
Si51 Si9 2.376476 1_545
Si52 Si97 2.365285 1_555
Si52 Si70 2.367836 1_555
Si53 Si71 2.366079 1_555
Si53 Si98 2.366556 1_565
Si54 Si66 2.366245 1_555
Si54 Si78 2.367840 1_555
Si54 Si63 2.408635 1_555
Si55 Si67 2.367378 1_555
Si55 Si79 2.367919 1_555
Si55 Si64 2.403252 1_565
Si56 Si68 2.365384 1_555
Si56 Si80 2.366072 1_455
Si56 Si65 2.409144 1_555
Si57 Si76 2.359058 1_556
Si57 Si85 2.365016 1_456
Si57 Si7 2.377318 1_556
Si57 Si60 2.405191 1_555
Si58 Si86 2.361525 1_555
Si58 Si77 2.361683 1_555
Si58 Si8 2.378985 1_555
Si58 Si61 2.401540 1_555
Si59 Si75 2.361683 1_555
Si59 Si84 2.361697 1_545
Si59 Si6 2.379440 1_545
Si59 Si62 2.402994 1_545
Si60 Si87 2.365285 1_555
Si60 Si69 2.367378 1_455
Si61 Si88 2.364264 1_655
Si61 Si70 2.366245 1_555
Si62 Si71 2.365384 1_555
Si62 Si89 2.366556 1_565
Si63 Si72 2.364876 1_555
Si63 Si81 2.365649 1_655
Si63 Si9 2.379062 1_555
Si64 Si82 2.362377 1_555
Si64 Si73 2.364876 1_555
Si65 Si83 2.364934 1_555
Si65 Si74 2.365955 1_555
Si66 Si75 2.401535 1_555
Si67 Si76 2.405201 1_555
Si68 Si77 2.402989 1_445
Si69 Si72 2.403252 1_545
Si70 Si73 2.408635 1_555
Si71 Si74 2.409144 1_555
Si78 Si87 2.409592 1_555
Si79 Si88 2.405628 1_555
Si80 Si89 2.408754 1_555
Si81 Si84 2.405030 1_555
Si82 Si85 2.399945 1_555
Si83 Si86 2.405656 1_555
Si90 Si99 2.403252 1_545
Si93 Si96 2.401540 1_555
Si94 Si97 2.405191 1_555
Si95 Si98 2.402994 1_565
Si100 Si37 2.364876 1_555
Si100 Si46 2.365649 1_455
Si100 Si22 2.379062 1_555
Si100 Si91 2.408635 1_555
Si101 Si47 2.364934 1_555
Si101 Si38 2.365955 1_555
Si101 Si23 2.378458 1_555
Si101 Si92 2.409144 1_555
