# generated using pymatgen
data_GaCu3
_symmetry_space_group_name_H-M   'P 1'
_cell_length_a   4.48729716
_cell_length_b   4.48729716
_cell_length_c   4.48729758
_cell_angle_alpha   132.23636459
_cell_angle_beta   132.23637884
_cell_angle_gamma   69.85595115
_symmetry_Int_Tables_number   1
_chemical_formula_structural   GaCu3
_chemical_formula_sum   'Ga1 Cu3'
_cell_volume   48.56820437
_cell_formula_units_Z   1
loop_
 _symmetry_equiv_pos_site_id
 _symmetry_equiv_pos_as_xyz
  1  'x, y, z'
loop_
 _atom_site_type_symbol
 _atom_site_label
 _atom_site_symmetry_multiplicity
 _atom_site_fract_x
 _atom_site_fract_y
 _atom_site_fract_z
 _atom_site_occupancy
  Ga  Ga0  1  0.00000000  0.00000000  0.00000000  1
  Cu  Cu0  1  0.75000000  0.25000000  0.50000000  1
  Cu  Cu1  1  0.25000000  0.75000000  0.50000000  1
  Cu  Cu2  1  0.50000000  0.50000000  0.00000000  1
loop_
_geom_bond_atom_site_label_1
_geom_bond_atom_site_label_2
_geom_bond_distance
_geom_bond_site_symmetry_2
Cu0 Cu1 2.569185 1_645
Cu0 Cu1 2.569185 1_555
Cu0 Cu1 2.569186 1_656
Cu0 Cu1 2.569186 1_544
Cu0 Cu2 2.585370 1_656
Cu0 Cu2 2.585370 1_555
Cu0 Ga0 2.585370 1_656
Cu0 Ga0 2.585370 1_555
Cu0 Ga0 2.585370 1_655
Cu0 Ga0 2.585370 1_666
Cu0 Cu2 2.585370 1_556
Cu0 Cu2 2.585370 1_545
Cu1 Cu2 2.585370 1_455
Cu1 Ga0 2.585370 1_565
Cu1 Ga0 2.585370 1_666
Cu1 Cu2 2.585370 1_556
Cu1 Ga0 2.585370 1_555
Cu1 Ga0 2.585370 1_566
Cu1 Cu2 2.585370 1_555
Cu1 Cu2 2.585370 1_566
Cu2 Ga0 2.569185 1_565
Cu2 Ga0 2.569185 1_655
Cu2 Ga0 2.569186 1_666
Cu2 Ga0 2.569186 1_554
