# generated using pymatgen
data_K3ErSi2O7
_symmetry_space_group_name_H-M   'P 1'
_cell_length_a   9.90896662
_cell_length_b   9.90896662
_cell_length_c   14.43615300
_cell_angle_alpha   90.00000000
_cell_angle_beta   90.00000000
_cell_angle_gamma   120.00000416
_symmetry_Int_Tables_number   1
_chemical_formula_structural   K3ErSi2O7
_chemical_formula_sum   'K18 Er6 Si12 O42'
_cell_volume   1227.54895464
_cell_formula_units_Z   6
loop_
 _symmetry_equiv_pos_site_id
 _symmetry_equiv_pos_as_xyz
  1  'x, y, z'
loop_
 _atom_site_type_symbol
 _atom_site_label
 _atom_site_symmetry_multiplicity
 _atom_site_fract_x
 _atom_site_fract_y
 _atom_site_fract_z
 _atom_site_occupancy
  K  K0  1  0.00000000  0.00000000  0.50000000  1
  K  K1  1  0.33210200  0.00000000  0.09198400  1
  K  K2  1  0.33210200  0.33210200  0.59198400  1
  K  K3  1  0.00000000  0.66789800  0.59198400  1
  K  K4  1  0.00000000  0.33210200  0.09198400  1
  K  K5  1  0.66789800  0.66789800  0.09198400  1
  K  K6  1  0.33210200  0.00000000  0.40801600  1
  K  K7  1  0.00000000  0.00000000  0.00000000  1
  K  K8  1  0.33333300  0.66666700  0.75000000  1
  K  K9  1  0.66666700  0.33333300  0.25000000  1
  K  K10  1  0.66666700  0.33333300  0.75000000  1
  K  K11  1  0.33333300  0.66666700  0.25000000  1
  K  K12  1  0.66789800  0.66789800  0.40801600  1
  K  K13  1  0.66789800  0.00000000  0.90801600  1
  K  K14  1  0.00000000  0.66789800  0.90801600  1
  K  K15  1  0.00000000  0.33210200  0.40801600  1
  K  K16  1  0.66789800  0.00000000  0.59198400  1
  K  K17  1  0.33210200  0.33210200  0.90801600  1
  Er  Er0  1  0.00000000  0.00000000  0.75000000  1
  Er  Er1  1  0.33333300  0.66666700  0.00000000  1
  Er  Er2  1  0.66666700  0.33333300  0.50000000  1
  Er  Er3  1  0.66666700  0.33333300  0.00000000  1
  Er  Er4  1  0.33333300  0.66666700  0.50000000  1
  Er  Er5  1  0.00000000  0.00000000  0.25000000  1
  Si  Si0  1  0.65807500  0.65807500  0.85745200  1
  Si  Si1  1  0.34192500  0.00000000  0.85745200  1
  Si  Si2  1  0.00000000  0.34192500  0.85745200  1
  Si  Si3  1  0.00000000  0.65807500  0.35745200  1
  Si  Si4  1  0.34192500  0.00000000  0.64254800  1
  Si  Si5  1  0.34192500  0.34192500  0.35745200  1
  Si  Si6  1  0.65807500  0.00000000  0.35745200  1
  Si  Si7  1  0.34192500  0.34192500  0.14254800  1
  Si  Si8  1  0.00000000  0.65807500  0.14254800  1
  Si  Si9  1  0.00000000  0.34192500  0.64254800  1
  Si  Si10  1  0.65807500  0.65807500  0.64254800  1
  Si  Si11  1  0.65807500  0.00000000  0.14254800  1
  O  O0  1  0.40939400  0.00000000  0.75000000  1
  O  O1  1  0.40939400  0.40939400  0.25000000  1
  O  O2  1  0.00000000  0.59060600  0.25000000  1
  O  O3  1  0.00000000  0.40939400  0.75000000  1
  O  O4  1  0.59060600  0.59060600  0.75000000  1
  O  O5  1  0.59060600  0.00000000  0.25000000  1
  O  O6  1  0.82320400  0.82320400  0.85141000  1
  O  O7  1  0.17679600  0.00000000  0.85141000  1
  O  O8  1  0.00000000  0.17679600  0.85141000  1
  O  O9  1  0.00000000  0.82320400  0.35141000  1
  O  O10  1  0.17679600  0.00000000  0.64859000  1
  O  O11  1  0.17679600  0.17679600  0.35141000  1
  O  O12  1  0.82320400  0.00000000  0.35141000  1
  O  O13  1  0.17679600  0.17679600  0.14859000  1
  O  O14  1  0.00000000  0.82320400  0.14859000  1
  O  O15  1  0.00000000  0.17679600  0.64859000  1
  O  O16  1  0.82320400  0.82320400  0.64859000  1
  O  O17  1  0.82320400  0.00000000  0.14859000  1
  O  O18  1  0.32200200  0.84387600  0.90895800  1
  O  O19  1  0.15612400  0.47812600  0.90895800  1
  O  O20  1  0.52187400  0.67799800  0.90895800  1
  O  O21  1  0.47812600  0.32200200  0.40895800  1
  O  O22  1  0.67799800  0.52187400  0.59104200  1
  O  O23  1  0.67799800  0.15612400  0.40895800  1
  O  O24  1  0.84387600  0.52187400  0.40895800  1
  O  O25  1  0.15612400  0.67799800  0.09104200  1
  O  O26  1  0.52187400  0.84387600  0.09104200  1
  O  O27  1  0.47812600  0.15612400  0.59104200  1
  O  O28  1  0.84387600  0.32200200  0.59104200  1
  O  O29  1  0.32200200  0.47812600  0.09104200  1
  O  O30  1  0.67799800  0.15612400  0.09104200  1
  O  O31  1  0.84387600  0.52187400  0.09104200  1
  O  O32  1  0.47812600  0.32200200  0.09104200  1
  O  O33  1  0.52187400  0.67799800  0.59104200  1
  O  O34  1  0.32200200  0.47812600  0.40895800  1
  O  O35  1  0.32200200  0.84387600  0.59104200  1
  O  O36  1  0.67799800  0.52187400  0.90895800  1
  O  O37  1  0.15612400  0.67799800  0.40895800  1
  O  O38  1  0.52187400  0.84387600  0.40895800  1
  O  O39  1  0.47812600  0.15612400  0.90895800  1
  O  O40  1  0.84387600  0.32200200  0.90895800  1
  O  O41  1  0.15612400  0.47812600  0.59104200  1
loop_
_geom_bond_atom_site_label_1
_geom_bond_atom_site_label_2
_geom_bond_distance
_geom_bond_site_symmetry_2
K0 O11 2.769540 1_555
K0 O16 2.769540 1_445
K0 O15 2.769540 1_555
K0 O10 2.769540 1_555
K0 O9 2.769540 1_545
K0 O12 2.769540 1_455
K1 O25 2.767249 1_545
K1 O32 2.767249 1_555
K1 O14 2.966660 1_545
K1 O13 2.966660 1_555
K1 O30 2.972987 1_555
K1 O26 2.972987 1_545
K1 O39 3.038035 1_554
K1 O18 3.038035 1_544
K2 O27 2.767249 1_555
K2 O41 2.767249 1_555
K2 O10 2.966660 1_555
K2 O15 2.966660 1_555
K2 O33 2.972986 1_555
K2 O22 2.972986 1_555
K2 O21 3.038035 1_555
K2 O34 3.038035 1_555
K3 O35 2.767249 1_555
K3 O22 2.767249 1_455
K3 O10 2.966660 1_565
K3 O16 2.966660 1_455
K3 O28 2.972987 1_455
K3 O41 2.972987 1_555
K3 O24 3.038035 1_455
K3 O37 3.038035 1_555
K4 O30 2.767249 1_455
K4 O29 2.767249 1_555
K4 O17 2.966660 1_455
K4 O13 2.966660 1_555
K4 O25 2.972987 1_555
K4 O31 2.972987 1_455
K4 O19 3.038035 1_554
K4 O40 3.038035 1_454
K5 O26 2.767249 1_555
K5 O31 2.767249 1_555
K5 O17 2.966660 1_565
K5 O14 2.966660 1_655
K5 O29 2.972986 1_555
K5 O32 2.972986 1_555
K5 O20 3.038035 1_554
K5 O36 3.038035 1_554
K6 O37 2.767249 1_545
K6 O21 2.767249 1_555
K6 O9 2.966660 1_545
K6 O11 2.966660 1_555
K6 O23 2.972987 1_555
K6 O38 2.972987 1_545
K6 O27 3.038035 1_555
K6 O35 3.038035 1_545
K7 O13 2.769540 1_555
K7 O6 2.769540 1_444
K7 O7 2.769540 1_554
K7 O8 2.769540 1_554
K7 O14 2.769540 1_545
K7 O17 2.769540 1_455
K8 O18 2.925576 1_555
K8 O35 2.925576 1_555
K8 O19 2.925579 1_555
K8 O41 2.925579 1_555
K8 O20 2.925582 1_555
K8 O33 2.925582 1_555
K8 O0 2.998056 1_565
K8 O3 2.998059 1_555
K8 O4 2.998066 1_555
K9 O23 2.925576 1_555
K9 O30 2.925576 1_555
K9 O24 2.925579 1_555
K9 O31 2.925579 1_555
K9 O32 2.925582 1_555
K9 O21 2.925582 1_555
K9 O5 2.998056 1_555
K9 O2 2.998059 1_655
K9 O1 2.998066 1_555
K10 O40 2.925576 1_555
K10 O28 2.925576 1_555
K10 O39 2.925579 1_555
K10 O27 2.925579 1_555
K10 O36 2.925582 1_555
K10 O22 2.925582 1_555
K10 O3 2.998056 1_655
K10 O0 2.998059 1_555
K10 O4 2.998066 1_555
K11 O37 2.925576 1_555
K11 O25 2.925576 1_555
K11 O38 2.925579 1_555
K11 O26 2.925579 1_555
K11 O29 2.925582 1_555
K11 O34 2.925582 1_555
K11 O2 2.998056 1_555
K11 O5 2.998059 1_565
K11 O1 2.998066 1_555
K12 O38 2.767249 1_555
K12 O24 2.767249 1_555
K12 O12 2.966660 1_565
K12 O9 2.966660 1_655
K12 O34 2.972986 1_555
K12 O21 2.972986 1_555
K12 O22 3.038035 1_555
K12 O33 3.038035 1_555
K13 O40 2.767249 1_555
K13 O20 2.767249 1_545
K13 O8 2.966660 1_655
K13 O6 2.966660 1_545
K13 O18 2.972987 1_545
K13 O39 2.972987 1_555
K13 O26 3.038035 1_546
K13 O30 3.038035 1_556
K14 O18 2.767249 1_555
K14 O36 2.767249 1_455
K14 O7 2.966660 1_565
K14 O6 2.966660 1_455
K14 O40 2.972987 1_455
K14 O19 2.972987 1_555
K14 O31 3.038035 1_456
K14 O25 3.038035 1_556
K15 O23 2.767249 1_455
K15 O34 2.767249 1_555
K15 O12 2.966660 1_455
K15 O11 2.966660 1_555
K15 O37 2.972987 1_555
K15 O24 2.972987 1_455
K15 O41 3.038035 1_555
K15 O28 3.038035 1_455
K16 O28 2.767249 1_555
K16 O33 2.767249 1_545
K16 O15 2.966660 1_655
K16 O16 2.966660 1_545
K16 O35 2.972987 1_545
K16 O27 2.972987 1_555
K16 O38 3.038035 1_545
K16 O23 3.038035 1_555
K17 O19 2.767249 1_555
K17 O39 2.767249 1_555
K17 O7 2.966660 1_555
K17 O8 2.966660 1_555
K17 O20 2.972986 1_555
K17 O36 2.972986 1_555
K17 O32 3.038035 1_556
K17 O29 3.038035 1_556
Er0 O16 2.283033 1_445
Er0 O6 2.283033 1_445
Er0 O10 2.283034 1_555
Er0 O15 2.283034 1_555
Er0 O7 2.283034 1_555
Er0 O8 2.283034 1_555
Er1 O18 2.240653 1_554
Er1 O25 2.240653 1_555
Er1 O26 2.240657 1_555
Er1 O19 2.240657 1_554
Er1 O29 2.240661 1_555
Er1 O20 2.240661 1_554
Er2 O28 2.240653 1_555
Er2 O23 2.240653 1_555
Er2 O24 2.240657 1_555
Er2 O27 2.240657 1_555
Er2 O22 2.240661 1_555
Er2 O21 2.240661 1_555
Er3 O40 2.240653 1_554
Er3 O30 2.240653 1_555
Er3 O31 2.240657 1_555
Er3 O39 2.240657 1_554
Er3 O32 2.240661 1_555
Er3 O36 2.240661 1_554
Er4 O35 2.240653 1_555
Er4 O37 2.240653 1_555
Er4 O38 2.240657 1_555
Er4 O41 2.240657 1_555
Er4 O33 2.240661 1_555
Er4 O34 2.240661 1_555
Er5 O13 2.283033 1_555
Er5 O11 2.283033 1_555
Er5 O14 2.283034 1_545
Er5 O17 2.283034 1_455
Er5 O9 2.283034 1_545
Er5 O12 2.283034 1_455
O0 Si4 1.689129 1_555
O0 Si1 1.689129 1_555
O1 Si5 1.689129 1_555
O1 Si7 1.689129 1_555
O2 Si3 1.689129 1_555
O2 Si8 1.689129 1_555
O3 Si2 1.689129 1_555
O3 Si9 1.689129 1_555
O4 Si10 1.689129 1_555
O4 Si0 1.689129 1_555
O5 Si6 1.689129 1_555
O5 Si11 1.689129 1_555
O6 Si0 1.638581 1_555
O7 Si1 1.638581 1_555
O8 Si2 1.638581 1_555
O9 Si3 1.638581 1_555
O10 Si4 1.638581 1_555
O11 Si5 1.638581 1_555
O12 Si6 1.638581 1_555
O13 Si7 1.638581 1_555
O14 Si8 1.638581 1_555
O15 Si9 1.638581 1_555
O16 Si10 1.638581 1_555
O17 Si11 1.638581 1_555
O18 Si1 1.636986 1_565
O19 Si2 1.636986 1_555
O20 Si0 1.636986 1_555
O21 Si5 1.636986 1_555
O22 Si10 1.636986 1_555
O23 Si6 1.636986 1_555
O24 Si3 1.636986 1_655
O25 Si8 1.636986 1_555
O26 Si11 1.636986 1_565
O27 Si4 1.636986 1_555
O28 Si9 1.636986 1_655
O29 Si7 1.636986 1_555
O30 Si11 1.636986 1_555
O31 Si8 1.636986 1_655
O32 Si7 1.636986 1_555
O33 Si10 1.636986 1_555
O34 Si5 1.636986 1_555
O35 Si4 1.636986 1_565
O36 Si0 1.636986 1_555
O37 Si3 1.636986 1_555
O38 Si6 1.636986 1_565
O39 Si1 1.636986 1_555
O40 Si2 1.636986 1_655
O41 Si9 1.636986 1_555
