# generated using pymatgen
data_Mg2TiW3S8
_symmetry_space_group_name_H-M   'P 1'
_cell_length_a   7.17657862
_cell_length_b   7.30108722
_cell_length_c   7.64076671
_cell_angle_alpha   58.45646459
_cell_angle_beta   57.84627056
_cell_angle_gamma   59.59550162
_symmetry_Int_Tables_number   1
_chemical_formula_structural   Mg2TiW3S8
_chemical_formula_sum   'Mg2 Ti1 W3 S8'
_cell_volume   274.10581847
_cell_formula_units_Z   1
loop_
 _symmetry_equiv_pos_site_id
 _symmetry_equiv_pos_as_xyz
  1  'x, y, z'
loop_
 _atom_site_type_symbol
 _atom_site_label
 _atom_site_symmetry_multiplicity
 _atom_site_fract_x
 _atom_site_fract_y
 _atom_site_fract_z
 _atom_site_occupancy
  Mg  Mg0  1  0.86331993  0.86520265  0.88587182  1
  Mg  Mg1  1  0.13656446  0.13489367  0.11436961  1
  Ti  Ti0  1  0.49997922  0.99994765  0.50008628  1
  W  W0  1  0.49925019  0.49997155  0.49998522  1
  W  W1  1  0.50026534  0.50006944  0.99962759  1
  W  W2  1  0.00055169  0.49997366  0.50019834  1
  S  S0  1  0.74902783  0.74696290  0.72663602  1
  S  S1  1  0.25105002  0.25283192  0.72277295  1
  S  S2  1  0.27638622  0.72513129  0.24902822  1
  S  S3  1  0.72186950  0.27665299  0.25068655  1
  S  S4  1  0.72369795  0.27518914  0.75034045  1
  S  S5  1  0.27799670  0.72333297  0.74925693  1
  S  S6  1  0.25117619  0.25327557  0.27328626  1
  S  S7  1  0.74886876  0.74655959  0.27785475  1
loop_
_geom_bond_atom_site_label_1
_geom_bond_atom_site_label_2
_geom_bond_distance
_geom_bond_site_symmetry_2
Mg0 S5 2.392391 1_655
Mg0 S0 2.403380 1_555
Mg0 S7 2.404698 1_556
Mg0 S4 2.421102 1_565
Mg1 S3 2.392469 1_455
Mg1 S1 2.402693 1_554
Mg1 S6 2.403890 1_555
Mg1 S2 2.419808 1_545
S0 W1 2.479335 1_555
S0 W2 2.479730 1_655
S0 Ti0 2.491736 1_555
S1 W0 2.477591 1_555
S1 W2 2.477878 1_555
S1 Ti0 2.491668 1_545
S2 W0 2.498435 1_555
S2 W2 2.500687 1_555
S2 W1 2.501594 1_554
S3 W0 2.492578 1_555
S3 W1 2.493441 1_554
S3 Ti0 2.499389 1_545
S4 W1 2.500271 1_555
S4 W0 2.503262 1_555
S4 W2 2.504143 1_655
S5 W1 2.492909 1_555
S5 W0 2.493616 1_555
S5 Ti0 2.499328 1_555
S6 W1 2.480763 1_554
S6 W2 2.480782 1_555
S6 Ti0 2.491837 1_545
S7 W0 2.482396 1_555
S7 W2 2.482805 1_655
S7 Ti0 2.491985 1_555
