# generated using pymatgen
data_SmRe2
_symmetry_space_group_name_H-M   'P 1'
_cell_length_a   5.45314126
_cell_length_b   5.45314126
_cell_length_c   8.92563007
_cell_angle_alpha   90.00000000
_cell_angle_beta   90.00000000
_cell_angle_gamma   119.99981490
_symmetry_Int_Tables_number   1
_chemical_formula_structural   SmRe2
_chemical_formula_sum   'Sm4 Re8'
_cell_volume   229.86022174
_cell_formula_units_Z   4
loop_
 _symmetry_equiv_pos_site_id
 _symmetry_equiv_pos_as_xyz
  1  'x, y, z'
loop_
 _atom_site_type_symbol
 _atom_site_label
 _atom_site_symmetry_multiplicity
 _atom_site_fract_x
 _atom_site_fract_y
 _atom_site_fract_z
 _atom_site_occupancy
  Sm  Sm0  1  0.66666361  0.33333639  0.56228186  1
  Sm  Sm1  1  0.33333639  0.66666361  0.43771814  1
  Sm  Sm2  1  0.33333639  0.66666361  0.06228186  1
  Sm  Sm3  1  0.66666361  0.33333639  0.93771814  1
  Re  Re0  1  -0.00000000  -0.00000000  0.50000000  1
  Re  Re1  1  -0.00000000  -0.00000000  0.00000000  1
  Re  Re2  1  0.17013435  0.34028261  0.75000000  1
  Re  Re3  1  0.17013074  0.82987026  0.75000000  1
  Re  Re4  1  0.65971739  0.82986565  0.75000000  1
  Re  Re5  1  0.82986565  0.65971739  0.25000000  1
  Re  Re6  1  0.82986926  0.17012974  0.25000000  1
  Re  Re7  1  0.34028261  0.17013435  0.25000000  1
loop_
_geom_bond_atom_site_label_1
_geom_bond_atom_site_label_2
_geom_bond_distance
_geom_bond_site_symmetry_2
Re0 Re6 2.749782 1_455
Re0 Re3 2.749782 1_545
Re0 Re7 2.749846 1_555
Re0 Re2 2.749846 1_555
Re0 Re5 2.749846 1_445
Re0 Re4 2.749846 1_445
Re0 Sm0 3.197065 1_555
Re0 Sm1 3.197065 1_555
Re0 Sm0 3.197065 1_445
Re0 Sm1 3.197065 1_445
Re0 Sm0 3.197099 1_455
Re0 Sm1 3.197099 1_545
Re1 Re6 2.749782 1_455
Re1 Re3 2.749782 1_544
Re1 Re7 2.749846 1_555
Re1 Re2 2.749846 1_554
Re1 Re5 2.749846 1_445
Re1 Re4 2.749846 1_444
Re1 Sm2 3.197065 1_555
Re1 Sm3 3.197065 1_554
Re1 Sm3 3.197065 1_444
Re1 Sm2 3.197065 1_445
Re1 Sm3 3.197099 1_454
Re1 Sm2 3.197099 1_545
Re2 Re4 2.669773 1_555
Re2 Re3 2.669800 1_555
Re2 Re3 2.783341 1_545
Re2 Re4 2.783384 1_445
Re2 Sm2 3.185104 1_556
Re2 Sm1 3.185104 1_555
Re2 Sm3 3.200391 1_455
Re2 Sm0 3.200391 1_455
Re2 Sm0 3.200413 1_555
Re2 Sm3 3.200413 1_555
Re3 Re4 2.669798 1_555
Re3 Re4 2.783344 1_455
Re3 Sm2 3.185174 1_556
Re3 Sm1 3.185174 1_555
Re3 Sm3 3.200406 1_565
Re3 Sm0 3.200406 1_565
Re3 Sm3 3.200410 1_455
Re3 Sm0 3.200410 1_455
Re4 Sm2 3.185104 1_556
Re4 Sm1 3.185104 1_555
Re4 Sm0 3.200391 1_565
Re4 Sm3 3.200391 1_565
Re4 Sm3 3.200413 1_555
Re4 Sm0 3.200413 1_555
Re5 Re7 2.669773 1_555
Re5 Re6 2.669800 1_555
Re5 Re6 2.783341 1_565
Re5 Re7 2.783384 1_665
Re5 Sm3 3.185104 1_554
Re5 Sm0 3.185104 1_555
Re5 Sm2 3.200391 1_655
Re5 Sm1 3.200391 1_655
Re5 Sm2 3.200413 1_555
Re5 Sm1 3.200413 1_555
Re6 Re7 2.669798 1_555
Re6 Re7 2.783344 1_655
Re6 Sm3 3.185174 1_554
Re6 Sm0 3.185174 1_555
Re6 Sm2 3.200406 1_545
Re6 Sm1 3.200406 1_545
Re6 Sm1 3.200410 1_655
Re6 Sm2 3.200410 1_655
Re7 Sm3 3.185104 1_554
Re7 Sm0 3.185104 1_555
Re7 Sm1 3.200391 1_545
Re7 Sm2 3.200391 1_545
Re7 Sm1 3.200413 1_555
Re7 Sm2 3.200413 1_555
