# generated using pymatgen
data_Er8Mn3Mo5O28
_symmetry_space_group_name_H-M   'P 1'
_cell_length_a   7.45812329
_cell_length_b   7.45812329
_cell_length_c   11.63295517
_cell_angle_alpha   81.03157157
_cell_angle_beta   81.03157157
_cell_angle_gamma   60.50767626
_symmetry_Int_Tables_number   1
_chemical_formula_structural   Er8Mn3Mo5O28
_chemical_formula_sum   'Er8 Mn3 Mo5 O28'
_cell_volume   553.97322799
_cell_formula_units_Z   1
loop_
 _symmetry_equiv_pos_site_id
 _symmetry_equiv_pos_as_xyz
  1  'x, y, z'
loop_
 _atom_site_type_symbol
 _atom_site_label
 _atom_site_symmetry_multiplicity
 _atom_site_fract_x
 _atom_site_fract_y
 _atom_site_fract_z
 _atom_site_occupancy
  Er  Er0  1  0.73856900  0.50649400  0.24301600  1
  Er  Er1  1  0.49350600  0.26143100  0.75698400  1
  Er  Er2  1  0.25438400  0.50525300  0.25024300  1
  Er  Er3  1  0.49474700  0.74561600  0.74975700  1
  Er  Er4  1  0.01255900  0.75241000  0.72575300  1
  Er  Er5  1  0.24759000  0.98744100  0.27424700  1
  Er  Er6  1  0.99631900  0.24350700  0.78521000  1
  Er  Er7  1  0.75649300  0.00368100  0.21479000  1
  Mn  Mn0  1  0.57826000  0.42174000  0.00000000  1
  Mn  Mn1  1  0.40940400  0.59059600  0.50000000  1
  Mn  Mn2  1  0.14034800  0.85965200  0.00000000  1
  Mo  Mo0  1  0.86368000  0.63492200  0.49554100  1
  Mo  Mo1  1  0.36507800  0.13632000  0.50445900  1
  Mo  Mo2  1  0.12790200  0.37057700  0.00974500  1
  Mo  Mo3  1  0.62942300  0.87209800  0.99025500  1
  Mo  Mo4  1  0.85899800  0.14100200  0.50000000  1
  O  O0  1  0.82640600  0.55919300  0.04205800  1
  O  O1  1  0.44080700  0.17359400  0.95794200  1
  O  O2  1  0.17415200  0.43936800  0.46048600  1
  O  O3  1  0.56063200  0.82584800  0.53951400  1
  O  O4  1  0.95249000  0.83292600  0.53037200  1
  O  O5  1  0.16707400  0.04751000  0.46962800  1
  O  O6  1  0.06023800  0.16700200  0.97802700  1
  O  O7  1  0.83299800  0.93976200  0.02197300  1
  O  O8  1  0.11781500  0.85275000  0.16910200  1
  O  O9  1  0.14725000  0.88218500  0.83089700  1
  O  O10  1  0.87325700  0.13494300  0.33379800  1
  O  O11  1  0.86505700  0.12674300  0.66620200  1
  O  O12  1  0.76184400  0.44510300  0.46266700  1
  O  O13  1  0.55489700  0.23815600  0.53733300  1
  O  O14  1  0.23800800  0.54452200  0.03821300  1
  O  O15  1  0.45547800  0.76199200  0.96178700  1
  O  O16  1  0.45300500  0.12307700  0.33966600  1
  O  O17  1  0.87692300  0.54699500  0.66033400  1
  O  O18  1  0.55531700  0.86649300  0.16621900  1
  O  O19  1  0.13350700  0.44468300  0.83378100  1
  O  O20  1  0.87745200  0.69291500  0.32320300  1
  O  O21  1  0.30708500  0.12254800  0.67679700  1
  O  O22  1  0.10942400  0.31412400  0.19084900  1
  O  O23  1  0.68587600  0.89057600  0.80915100  1
  O  O24  1  0.65159900  0.40844600  0.82904200  1
  O  O25  1  0.59155400  0.34840100  0.17095800  1
  O  O26  1  0.35387700  0.59128400  0.67225700  1
  O  O27  1  0.40871600  0.64612300  0.32774300  1
loop_
_geom_bond_atom_site_label_1
_geom_bond_atom_site_label_2
_geom_bond_distance
_geom_bond_site_symmetry_2
Er0 O27 2.269254 1_555
Er0 O25 2.272162 1_555
Er0 O0 2.353340 1_555
Er0 O18 2.427877 1_555
Er0 O22 2.432638 1_655
Er0 O20 2.449426 1_555
Er0 O12 2.542448 1_555
Er0 O10 2.545732 1_555
Er1 O26 2.269254 1_555
Er1 O24 2.272162 1_555
Er1 O1 2.353340 1_555
Er1 O19 2.427877 1_555
Er1 O23 2.432638 1_545
Er1 O21 2.449426 1_555
Er1 O13 2.542448 1_555
Er1 O11 2.545732 1_555
Er2 O27 2.247449 1_555
Er2 O25 2.293357 1_555
Er2 O8 2.362858 1_555
Er2 O22 2.394897 1_555
Er2 O14 2.453155 1_555
Er2 O2 2.457584 1_555
Er2 O20 2.516854 1_455
Er2 O16 2.607580 1_555
Er3 O26 2.247449 1_555
Er3 O24 2.293357 1_555
Er3 O9 2.362854 1_555
Er3 O23 2.394897 1_555
Er3 O15 2.453155 1_555
Er3 O3 2.457584 1_555
Er3 O21 2.516854 1_565
Er3 O17 2.607580 1_555
Er4 O26 2.244700 1_555
Er4 O23 2.245443 1_455
Er4 O19 2.253014 1_555
Er4 O9 2.269680 1_555
Er4 O4 2.313923 1_455
Er4 O17 2.465554 1_455
Er4 O11 2.468802 1_465
Er5 O27 2.244700 1_555
Er5 O22 2.245443 1_565
Er5 O18 2.253014 1_555
Er5 O8 2.269688 1_555
Er5 O5 2.313923 1_565
Er5 O16 2.465554 1_565
Er5 O10 2.468802 1_465
Er6 O24 2.248544 1_555
Er6 O21 2.271762 1_655
Er6 O6 2.291407 1_655
Er6 O11 2.295908 1_555
Er6 O17 2.328100 1_555
Er6 O9 2.358959 1_645
Er6 O19 2.360804 1_655
Er7 O25 2.248544 1_555
Er7 O20 2.271762 1_545
Er7 O7 2.291407 1_545
Er7 O10 2.295908 1_555
Er7 O16 2.328100 1_555
Er7 O8 2.358961 1_645
Er7 O18 2.360804 1_545
Mn0 O25 1.983192 1_555
Mn0 O24 1.983192 1_554
Mn0 O14 2.227771 1_555
Mn0 O15 2.227771 1_554
Mn0 O1 2.649928 1_554
Mn0 O0 2.649928 1_555
Mn1 O27 1.982260 1_555
Mn1 O26 1.982260 1_555
Mn1 O12 2.293021 1_555
Mn1 O13 2.293021 1_555
Mn1 O2 2.631226 1_555
Mn1 O3 2.631226 1_555
Mn2 O8 1.942800 1_555
Mn2 O9 1.942811 1_554
Mn2 O7 2.047728 1_455
Mn2 O6 2.047728 1_564
Mn2 O14 2.083656 1_555
Mn2 O15 2.083656 1_554
Mo0 O17 1.928239 1_555
Mo0 O20 1.981423 1_555
Mo0 O4 2.004234 1_555
Mo0 O12 2.011298 1_555
Mo0 O3 2.023722 1_555
Mo0 O2 2.054506 1_655
Mo1 O16 1.928239 1_555
Mo1 O21 1.981423 1_555
Mo1 O5 2.004234 1_555
Mo1 O13 2.011298 1_555
Mo1 O2 2.023722 1_555
Mo1 O3 2.054506 1_545
Mo2 O6 1.919149 1_554
Mo2 O14 1.932532 1_555
Mo2 O0 1.990778 1_455
Mo2 O19 2.034867 1_554
Mo2 O22 2.079619 1_555
Mo2 O1 2.104614 1_554
Mo3 O7 1.919149 1_556
Mo3 O15 1.932532 1_555
Mo3 O1 1.990778 1_565
Mo3 O18 2.034867 1_556
Mo3 O23 2.079619 1_555
Mo3 O0 2.104614 1_556
Mo4 O11 1.926102 1_555
Mo4 O10 1.926102 1_555
Mo4 O12 2.007606 1_555
Mo4 O13 2.007606 1_555
Mo4 O5 2.033852 1_655
Mo4 O4 2.033852 1_545
