# generated using pymatgen
data_LaMg
_symmetry_space_group_name_H-M   'P 1'
_cell_length_a   6.12749663
_cell_length_b   6.12749663
_cell_length_c   5.65100000
_cell_angle_alpha   90.00000000
_cell_angle_beta   90.00000000
_cell_angle_gamma   120.55737397
_symmetry_Int_Tables_number   1
_chemical_formula_structural   LaMg
_chemical_formula_sum   'La3 Mg3'
_cell_volume   182.70708822
_cell_formula_units_Z   3
loop_
 _symmetry_equiv_pos_site_id
 _symmetry_equiv_pos_as_xyz
  1  'x, y, z'
loop_
 _atom_site_type_symbol
 _atom_site_label
 _atom_site_symmetry_multiplicity
 _atom_site_fract_x
 _atom_site_fract_y
 _atom_site_fract_z
 _atom_site_occupancy
  La  La0  1  0.99838400  0.64368400  0.00000000  1
  La  La1  1  0.64368400  0.99838400  0.00000000  1
  La  La2  1  0.02581000  0.02581000  0.50000000  1
  Mg  Mg0  1  0.33218700  0.33218700  0.00000000  1
  Mg  Mg1  1  0.33466600  0.66526700  0.50000000  1
  Mg  Mg2  1  0.66526700  0.33466600  0.50000000  1
loop_
_geom_bond_atom_site_label_1
_geom_bond_atom_site_label_2
_geom_bond_distance
_geom_bond_site_symmetry_2
La0 La1 3.408841 1_545
La0 La1 3.408841 1_655
La0 Mg0 3.434572 1_655
La0 Mg2 3.435883 1_554
La0 Mg2 3.435883 1_555
La0 Mg1 3.459738 1_655
La0 Mg1 3.459738 1_654
La0 Mg0 3.519146 1_555
La0 La2 3.618577 1_664
La0 La2 3.618577 1_665
La0 Mg0 3.634256 1_665
La0 La1 3.775006 1_555
La1 Mg0 3.434572 1_565
La1 Mg1 3.435883 1_555
La1 Mg1 3.435883 1_554
La1 Mg2 3.459738 1_564
La1 Mg2 3.459738 1_565
La1 Mg0 3.519146 1_555
La1 La2 3.618577 1_665
La1 La2 3.618577 1_664
La1 Mg0 3.634256 1_665
La2 Mg1 3.375571 1_555
La2 Mg2 3.375571 1_555
La2 Mg0 3.383575 1_556
La2 Mg0 3.383575 1_555
La2 Mg2 3.565604 1_455
La2 Mg1 3.565604 1_545
La2 Mg1 3.647263 1_445
La2 Mg2 3.647263 1_445
Mg0 Mg2 3.481037 1_555
Mg0 Mg1 3.481037 1_555
Mg0 Mg2 3.481037 1_554
Mg0 Mg1 3.481037 1_554
