# generated using pymatgen
data_Mn7PbO12
_symmetry_space_group_name_H-M   'P 1'
_cell_length_a   6.55520609
_cell_length_b   6.55520609
_cell_length_c   6.55520609
_cell_angle_alpha   109.47122063
_cell_angle_beta   109.47122063
_cell_angle_gamma   109.47122063
_symmetry_Int_Tables_number   1
_chemical_formula_structural   Mn7PbO12
_chemical_formula_sum   'Mn7 Pb1 O12'
_cell_volume   216.83888192
_cell_formula_units_Z   1
loop_
 _symmetry_equiv_pos_site_id
 _symmetry_equiv_pos_as_xyz
  1  'x, y, z'
loop_
 _atom_site_type_symbol
 _atom_site_label
 _atom_site_symmetry_multiplicity
 _atom_site_fract_x
 _atom_site_fract_y
 _atom_site_fract_z
 _atom_site_occupancy
  Mn  Mn0  1  0.50000000  0.00000000  0.50000000  1
  Mn  Mn1  1  0.00000000  0.50000000  0.50000000  1
  Mn  Mn2  1  0.50000000  0.50000000  0.00000000  1
  Mn  Mn3  1  0.00000000  0.00000000  0.50000000  1
  Mn  Mn4  1  0.50000000  0.00000000  0.00000000  1
  Mn  Mn5  1  0.00000000  0.50000000  0.00000000  1
  Mn  Mn6  1  0.50000000  0.50000000  0.50000000  1
  Pb  Pb0  1  0.00000000  0.00000000  0.00000000  1
  O  O0  1  0.18158200  0.86878000  0.68719700  1
  O  O1  1  0.81841800  0.13122000  0.31280300  1
  O  O2  1  0.81841800  0.50561500  0.68719700  1
  O  O3  1  0.18158200  0.49438500  0.31280300  1
  O  O4  1  0.86878000  0.68719700  0.18158200  1
  O  O5  1  0.13122000  0.31280300  0.81841800  1
  O  O6  1  0.50561500  0.68719700  0.81841800  1
  O  O7  1  0.49438500  0.31280300  0.18158200  1
  O  O8  1  0.68719700  0.18158200  0.86878000  1
  O  O9  1  0.31280300  0.81841800  0.13122000  1
  O  O10  1  0.68719700  0.81841800  0.50561500  1
  O  O11  1  0.31280300  0.18158200  0.49438500  1
loop_
_geom_bond_atom_site_label_1
_geom_bond_atom_site_label_2
_geom_bond_distance
_geom_bond_site_symmetry_2
Mn0 O10 1.974046 1_545
Mn0 O11 1.974046 1_555
Mn0 O9 1.974051 1_545
Mn0 O8 1.974051 1_555
Mn1 O3 1.974046 1_555
Mn1 O2 1.974046 1_455
Mn1 O0 1.974051 1_555
Mn1 O1 1.974051 1_455
Mn2 O6 1.974046 1_554
Mn2 O7 1.974046 1_555
Mn2 O5 1.974051 1_554
Mn2 O4 1.974051 1_555
Mn3 O0 2.018675 1_545
Mn3 O1 2.018675 1_455
Mn3 O11 2.018681 1_555
Mn3 O10 2.018681 1_445
Mn3 O5 2.018682 1_555
Mn3 O4 2.018682 1_445
Mn4 O8 2.018675 1_554
Mn4 O9 2.018675 1_545
Mn4 O7 2.018681 1_555
Mn4 O6 2.018681 1_544
Mn4 O0 2.018682 1_544
Mn4 O1 2.018682 1_555
Mn5 O4 2.018675 1_455
Mn5 O5 2.018675 1_554
Mn5 O3 2.018681 1_555
Mn5 O2 2.018681 1_454
Mn5 O9 2.018682 1_555
Mn5 O8 2.018682 1_454
Mn6 O2 2.018681 1_555
Mn6 O7 2.018681 1_555
Mn6 O10 2.018681 1_555
Mn6 O6 2.018681 1_555
Mn6 O11 2.018681 1_555
Mn6 O3 2.018681 1_555
O0 Pb0 2.737719 1_566
O1 Pb0 2.737719 1_655
O2 Pb0 2.737720 1_666
O3 Pb0 2.737720 1_555
O4 Pb0 2.737719 1_665
O5 Pb0 2.737719 1_556
O6 Pb0 2.737720 1_666
O7 Pb0 2.737720 1_555
O8 Pb0 2.737719 1_656
O9 Pb0 2.737719 1_565
O10 Pb0 2.737720 1_666
O11 Pb0 2.737720 1_555
