# generated using pymatgen
data_Sr2CrOsO6
_symmetry_space_group_name_H-M   'P 1'
_cell_length_a   5.57719454
_cell_length_b   5.57714305
_cell_length_c   5.57707007
_cell_angle_alpha   60.47161309
_cell_angle_beta   60.47241417
_cell_angle_gamma   60.47128126
_symmetry_Int_Tables_number   1
_chemical_formula_structural   Sr2CrOsO6
_chemical_formula_sum   'Sr2 Cr1 Os1 O6'
_cell_volume   123.97252195
_cell_formula_units_Z   1
loop_
 _symmetry_equiv_pos_site_id
 _symmetry_equiv_pos_as_xyz
  1  'x, y, z'
loop_
 _atom_site_type_symbol
 _atom_site_label
 _atom_site_symmetry_multiplicity
 _atom_site_fract_x
 _atom_site_fract_y
 _atom_site_fract_z
 _atom_site_occupancy
  Sr  Sr0  1  0.74968100  0.74986100  0.74977900  1
  Sr  Sr1  1  0.25011600  0.25026200  0.25018600  1
  Cr  Cr0  1  0.50048700  0.49975000  0.50005800  1
  Os  Os0  1  0.00005300  0.99995500  0.00001700  1
  O  O0  1  0.70904200  0.79402800  0.24819200  1
  O  O1  1  0.79391100  0.24818400  0.70923800  1
  O  O2  1  0.24815600  0.70916000  0.79385600  1
  O  O3  1  0.29079000  0.20618600  0.75171000  1
  O  O4  1  0.20606500  0.75172500  0.29095000  1
  O  O5  1  0.75169900  0.29088800  0.20601300  1
loop_
_geom_bond_atom_site_label_1
_geom_bond_atom_site_label_2
_geom_bond_distance
_geom_bond_site_symmetry_2
Cr0 O1 2.003176 1_555
Cr0 O0 2.004619 1_555
Cr0 O5 2.004661 1_555
Cr0 O2 2.005637 1_555
Cr0 O3 2.005657 1_555
Cr0 O4 2.007169 1_555
O0 Os0 1.981208 1_655
O0 Sr1 2.570183 1_565
O0 Sr0 2.797877 1_555
O0 Sr0 2.799568 1_554
O0 Sr1 3.046712 1_655
O1 Os0 1.980939 1_646
O1 Sr1 2.570485 1_655
O1 Sr0 2.797966 1_555
O1 Sr0 2.799542 1_545
O1 Sr1 3.046474 1_556
O2 Os0 1.981088 1_556
O2 Sr1 2.570356 1_556
O2 Sr0 2.798009 1_555
O2 Sr0 2.799541 1_455
O2 Sr1 3.046501 1_565
O3 Os0 1.981137 1_546
O3 Sr0 2.570338 1_545
O3 Sr1 2.797856 1_555
O3 Sr1 2.799557 1_556
O3 Sr0 3.046553 1_455
O4 Os0 1.981129 1_555
O4 Sr0 2.570355 1_455
O4 Sr1 2.797880 1_555
O4 Sr1 2.799633 1_565
O4 Sr0 3.046592 1_554
O5 Os0 1.981098 1_645
O5 Sr0 2.570300 1_554
O5 Sr1 2.797871 1_555
O5 Sr1 2.799695 1_655
O5 Sr0 3.046563 1_545
