# generated using pymatgen
data_Mg3In
_symmetry_space_group_name_H-M   'P 1'
_cell_length_a   6.31434030
_cell_length_b   6.31433651
_cell_length_c   5.10960684
_cell_angle_alpha   90.00000000
_cell_angle_beta   90.00000000
_cell_angle_gamma   120.00002393
_symmetry_Int_Tables_number   1
_chemical_formula_structural   Mg3In
_chemical_formula_sum   'Mg6 In2'
_cell_volume   176.43052160
_cell_formula_units_Z   2
loop_
 _symmetry_equiv_pos_site_id
 _symmetry_equiv_pos_as_xyz
  1  'x, y, z'
loop_
 _atom_site_type_symbol
 _atom_site_label
 _atom_site_symmetry_multiplicity
 _atom_site_fract_x
 _atom_site_fract_y
 _atom_site_fract_z
 _atom_site_occupancy
  Mg  Mg0  1  0.83345378  0.16654622  0.25000000  1
  Mg  Mg1  1  0.83345378  0.66690756  0.25000000  1
  Mg  Mg2  1  0.33309244  0.16654622  0.25000000  1
  Mg  Mg3  1  0.16654622  0.83345378  0.75000000  1
  Mg  Mg4  1  0.16654622  0.33309244  0.75000000  1
  Mg  Mg5  1  0.66690756  0.83345378  0.75000000  1
  In  In0  1  0.33333300  0.66666700  0.25000000  1
  In  In1  1  0.66666700  0.33333300  0.75000000  1
loop_
_geom_bond_atom_site_label_1
_geom_bond_atom_site_label_2
_geom_bond_distance
_geom_bond_site_symmetry_2
Mg0 Mg5 3.137641 1_544
Mg0 Mg5 3.137641 1_545
Mg0 Mg4 3.137641 1_655
Mg0 Mg4 3.137641 1_654
Mg0 Mg1 3.154887 1_545
Mg0 Mg2 3.154889 1_655
Mg0 Mg1 3.159450 1_555
Mg0 Mg2 3.159452 1_555
Mg1 Mg3 3.137641 1_654
Mg1 Mg3 3.137641 1_655
Mg1 Mg5 3.137641 1_555
Mg1 Mg5 3.137641 1_554
Mg1 Mg2 3.154886 1_665
Mg1 Mg2 3.159450 1_555
Mg2 Mg3 3.137641 1_545
Mg2 Mg3 3.137641 1_544
Mg2 Mg4 3.137641 1_554
Mg2 Mg4 3.137641 1_555
Mg3 Mg4 3.154887 1_565
Mg3 Mg5 3.154889 1_455
Mg3 Mg4 3.159450 1_555
Mg3 Mg5 3.159452 1_555
Mg4 Mg5 3.154886 1_445
Mg4 Mg5 3.159450 1_555
In0 Mg3 3.139169 1_554
In0 Mg3 3.139169 1_555
In0 Mg4 3.139172 1_554
In0 Mg4 3.139172 1_555
In0 Mg5 3.139173 1_554
In0 Mg5 3.139173 1_555
In0 Mg2 3.157165 1_565
In0 Mg1 3.157167 1_455
In0 Mg0 3.157168 1_455
In0 Mg0 3.157168 1_565
In0 Mg2 3.157172 1_555
In0 Mg1 3.157174 1_555
In1 Mg0 3.139169 1_555
In1 Mg0 3.139169 1_556
In1 Mg1 3.139172 1_556
In1 Mg1 3.139172 1_555
In1 Mg2 3.139173 1_556
In1 Mg2 3.139173 1_555
In1 Mg5 3.157165 1_545
In1 Mg4 3.157167 1_655
In1 Mg3 3.157168 1_655
In1 Mg3 3.157168 1_545
In1 Mg5 3.157172 1_555
In1 Mg4 3.157174 1_555
