# generated using pymatgen
data_Ca4TiMn3O11
_symmetry_space_group_name_H-M   'P 1'
_cell_length_a   5.43844805
_cell_length_b   10.89224773
_cell_length_c   15.73654259
_cell_angle_alpha   90.35765761
_cell_angle_beta   89.75298851
_cell_angle_gamma   91.25539032
_symmetry_Int_Tables_number   1
_chemical_formula_structural   Ca4TiMn3O11
_chemical_formula_sum   'Ca16 Ti4 Mn12 O44'
_cell_volume   931.93433510
_cell_formula_units_Z   4
loop_
 _symmetry_equiv_pos_site_id
 _symmetry_equiv_pos_as_xyz
  1  'x, y, z'
loop_
 _atom_site_type_symbol
 _atom_site_label
 _atom_site_symmetry_multiplicity
 _atom_site_fract_x
 _atom_site_fract_y
 _atom_site_fract_z
 _atom_site_occupancy
  Ca  Ca0  1  0.03113200  0.98447400  0.11551400  1
  Ca  Ca1  1  0.99509000  0.01092800  0.62600700  1
  Ca  Ca2  1  0.96740400  0.54402300  0.12135800  1
  Ca  Ca3  1  0.00090400  0.52449500  0.62412400  1
  Ca  Ca4  1  0.99923900  0.49927300  0.39399400  1
  Ca  Ca5  1  0.99311600  0.50036600  0.85353000  1
  Ca  Ca6  1  0.00159400  0.96496600  0.39182700  1
  Ca  Ca7  1  0.01969600  0.96649800  0.86543800  1
  Ca  Ca8  1  0.50680700  0.23721100  0.39854800  1
  Ca  Ca9  1  0.51836800  0.23345000  0.85717700  1
  Ca  Ca10  1  0.50735500  0.73068400  0.39233700  1
  Ca  Ca11  1  0.49522300  0.72803000  0.85981200  1
  Ca  Ca12  1  0.45223400  0.21974500  0.11742300  1
  Ca  Ca13  1  0.52257800  0.26838500  0.62729700  1
  Ca  Ca14  1  0.50519100  0.77432200  0.12022800  1
  Ca  Ca15  1  0.51274900  0.76985600  0.62470000  1
  Ti  Ti0  1  0.52478300  0.98876700  0.98904000  1
  Ti  Ti1  1  0.02016700  0.23342600  0.99130200  1
  Ti  Ti2  1  0.86593400  0.26773500  0.23432500  1
  Ti  Ti3  1  0.54423800  0.98265900  0.25777000  1
  Mn  Mn0  1  0.49801800  0.00249600  0.50311800  1
  Mn  Mn1  1  0.46452400  0.50268800  0.99037800  1
  Mn  Mn2  1  0.50508400  0.49716200  0.50513500  1
  Mn  Mn3  1  0.01246400  0.24999200  0.50962200  1
  Mn  Mn4  1  0.98900200  0.74281500  0.99535800  1
  Mn  Mn5  1  0.00653900  0.74978400  0.50427600  1
  Mn  Mn6  1  0.01567400  0.25006200  0.74794300  1
  Mn  Mn7  1  0.01112500  0.74586300  0.25178300  1
  Mn  Mn8  1  0.00281000  0.75183200  0.74543400  1
  Mn  Mn9  1  0.50294100  0.00217000  0.74676700  1
  Mn  Mn10  1  0.50333800  0.51497200  0.25593400  1
  Mn  Mn11  1  0.50691600  0.49870300  0.74456200  1
  O  O0  1  0.21784700  0.11045800  0.77883100  1
  O  O1  1  0.16640800  0.58256000  0.25438300  1
  O  O2  1  0.22612200  0.61076000  0.76026700  1
  O  O3  1  0.69843700  0.39423400  0.17837800  1
  O  O4  1  0.80367100  0.39542900  0.72902000  1
  O  O5  1  0.84725900  0.91570000  0.24255500  1
  O  O6  1  0.79066200  0.89530700  0.73170600  1
  O  O7  1  0.58869000  0.16960400  0.25304800  1
  O  O8  1  0.71295900  0.15022300  0.73565300  1
  O  O9  1  0.70620700  0.66219400  0.22587000  1
  O  O10  1  0.71772300  0.64386800  0.72623100  1
  O  O11  1  0.29522000  0.35663700  0.76974700  1
  O  O12  1  0.32317800  0.85081900  0.27161200  1
  O  O13  1  0.28892500  0.86057700  0.77069500  1
  O  O14  1  0.28979200  0.35634100  0.48661000  1
  O  O15  1  0.24378600  0.35852200  0.02961700  1
  O  O16  1  0.28651000  0.86082800  0.47972700  1
  O  O17  1  0.29716900  0.85557600  0.97947700  1
  O  O18  1  0.72419500  0.15390400  0.01953100  1
  O  O19  1  0.71027800  0.14997700  0.51521500  1
  O  O20  1  0.69435400  0.63695400  0.02776400  1
  O  O21  1  0.71971200  0.64197600  0.52131500  1
  O  O22  1  0.80134100  0.39260000  0.51786300  1
  O  O23  1  0.79396600  0.89167800  0.01422900  1
  O  O24  1  0.78443700  0.89534700  0.51661800  1
  O  O25  1  0.21020500  0.11119100  0.47305900  1
  O  O26  1  0.22931800  0.10647800  0.98236500  1
  O  O27  1  0.23238400  0.60960700  0.48877800  1
  O  O28  1  0.16092900  0.59674400  0.98456700  1
  O  O29  1  0.57390400  0.01072100  0.37521500  1
  O  O30  1  0.59599800  0.01180000  0.87795500  1
  O  O31  1  0.56216400  0.49664000  0.37976900  1
  O  O32  1  0.56443200  0.50391100  0.86835000  1
  O  O33  1  0.42743100  0.48350400  0.62509200  1
  O  O34  1  0.45778600  0.99570200  0.13295800  1
  O  O35  1  0.42867500  0.99618600  0.62276200  1
  O  O36  1  0.05699700  0.19274900  0.15647400  1
  O  O37  1  0.08788700  0.22947300  0.63117500  1
  O  O38  1  0.07562500  0.75507100  0.12512400  1
  O  O39  1  0.07993600  0.75191800  0.62452000  1
  O  O40  1  0.99735500  0.29934100  0.33599900  1
  O  O41  1  0.94318200  0.28029700  0.88468800  1
  O  O42  1  0.94128000  0.74591000  0.37765400  1
  O  O43  1  0.92716500  0.74807800  0.87033200  1
loop_
_geom_bond_atom_site_label_1
_geom_bond_atom_site_label_2
_geom_bond_distance
_geom_bond_site_symmetry_2
Ca0 O23 2.272923 1_455
Ca0 O34 2.338142 1_555
Ca0 O5 2.350852 1_455
Ca0 O36 2.355901 1_565
Ca0 O38 2.521214 1_555
Ca0 O26 2.696388 1_564
Ca0 O17 2.944842 1_554
Ca1 O6 2.353211 1_545
Ca1 O35 2.367308 1_645
Ca1 O24 2.405694 1_545
Ca1 O37 2.423454 1_655
Ca1 O8 2.771267 1_555
Ca1 O19 2.809245 1_555
Ca1 O25 2.882169 1_655
Ca1 O0 2.891638 1_655
Ca2 O20 2.345708 1_555
Ca2 O3 2.347152 1_555
Ca2 O38 2.360857 1_655
Ca2 O1 2.391296 1_655
Ca2 O28 2.457772 1_654
Ca2 O9 2.532396 1_555
Ca2 O15 2.916156 1_655
Ca3 O33 2.371941 1_555
Ca3 O4 2.408179 1_455
Ca3 O22 2.440357 1_455
Ca3 O39 2.504838 1_555
Ca3 O10 2.585458 1_455
Ca3 O21 2.593540 1_455
Ca3 O2 2.630616 1_555
Ca3 O27 2.632684 1_555
Ca4 O27 2.281211 1_655
Ca4 O40 2.355785 1_555
Ca4 O31 2.388018 1_555
Ca4 O22 2.502680 1_555
Ca4 O1 2.539256 1_655
Ca4 O14 2.683438 1_655
Ca4 O42 2.725585 1_555
Ca5 O2 2.268220 1_655
Ca5 O32 2.343147 1_555
Ca5 O41 2.458656 1_555
Ca5 O28 2.476750 1_655
Ca5 O4 2.478884 1_555
Ca5 O11 2.637583 1_655
Ca5 O43 2.740656 1_555
Ca6 O25 2.316436 1_565
Ca6 O16 2.390821 1_555
Ca6 O29 2.405102 1_465
Ca6 O24 2.405320 1_455
Ca6 O42 2.410412 1_455
Ca6 O5 2.547921 1_455
Ca6 O12 2.867181 1_555
Ca7 O0 2.327558 1_565
Ca7 O30 2.374150 1_465
Ca7 O13 2.394055 1_555
Ca7 O43 2.422541 1_455
Ca7 O6 2.557640 1_455
Ca7 O26 2.630007 1_565
Ca7 O17 2.662272 1_555
Ca7 O23 2.758410 1_456
Ca8 O14 2.242242 1_555
Ca8 O19 2.362910 1_555
Ca8 O25 2.401607 1_555
Ca8 O7 2.442884 1_555
Ca8 O29 2.526059 1_555
Ca8 O31 2.852244 1_555
Ca8 O40 2.907001 1_555
Ca8 O22 2.970409 1_555
Ca8 O40 3.035984 1_455
Ca9 O11 2.296716 1_555
Ca9 O8 2.366819 1_555
Ca9 O41 2.395753 1_555
Ca9 O0 2.426250 1_555
Ca9 O30 2.483857 1_555
Ca9 O26 2.859529 1_555
Ca10 O16 2.319322 1_555
Ca10 O42 2.372456 1_555
Ca10 O27 2.489530 1_555
Ca10 O12 2.535675 1_555
Ca10 O21 2.545686 1_555
Ca10 O31 2.579382 1_555
Ca10 O9 2.928304 1_555
Ca11 O13 2.328014 1_555
Ca11 O43 2.360881 1_555
Ca11 O2 2.477936 1_555
Ca11 O32 2.482695 1_555
Ca11 O17 2.579097 1_555
Ca11 O10 2.593463 1_555
Ca12 O36 2.246670 1_555
Ca12 O18 2.255663 1_555
Ca12 O7 2.334539 1_555
Ca12 O15 2.365159 1_555
Ca12 O34 2.454921 1_545
Ca12 O3 2.490367 1_555
Ca12 O26 2.726325 1_554
Ca13 O37 2.393166 1_555
Ca13 O8 2.395213 1_555
Ca13 O33 2.411123 1_555
Ca13 O19 2.414565 1_555
Ca13 O4 2.591342 1_555
Ca13 O22 2.647886 1_555
Ca13 O11 2.734824 1_555
Ca13 O14 2.743327 1_555
Ca14 O20 2.332736 1_555
Ca14 O38 2.341963 1_555
Ca14 O9 2.355841 1_555
Ca14 O34 2.437592 1_555
Ca14 O23 2.607469 1_555
Ca14 O17 2.656889 1_554
Ca14 O12 2.709298 1_555
Ca15 O39 2.357669 1_555
Ca15 O10 2.405907 1_555
Ca15 O21 2.424571 1_555
Ca15 O35 2.517511 1_555
Ca15 O24 2.619781 1_555
Ca15 O6 2.624843 1_555
Ca15 O13 2.781496 1_555
Ca15 O16 2.793964 1_555
Mn0 O35 1.919940 1_545
Mn0 O16 1.938689 1_545
Mn0 O19 1.966250 1_555
Mn0 O24 1.979696 1_545
Mn0 O25 2.042071 1_555
Mn0 O29 2.054990 1_555
Mn1 O28 1.964840 1_555
Mn1 O20 1.990656 1_556
Mn1 O32 1.993478 1_555
Mn1 O15 2.052158 1_556
Mn2 O14 1.930614 1_555
Mn2 O33 1.938505 1_555
Mn2 O21 1.957599 1_555
Mn2 O27 1.962814 1_555
Mn2 O31 1.995771 1_555
Mn2 O22 2.004789 1_555
Mn3 O14 1.916174 1_555
Mn3 O19 1.953677 1_455
Mn3 O22 1.955070 1_455
Mn3 O25 1.956605 1_555
Mn3 O37 1.973124 1_555
Mn4 O28 1.869478 1_655
Mn4 O23 1.977119 1_556
Mn4 O43 1.998826 1_555
Mn4 O20 2.019090 1_556
Mn4 O17 2.071187 1_655
Mn4 O38 2.100459 1_656
Mn5 O39 1.935444 1_555
Mn5 O21 1.950420 1_455
Mn5 O16 1.962288 1_555
Mn5 O27 1.993554 1_555
Mn5 O24 2.022030 1_455
Mn5 O42 2.025477 1_455
Mn6 O37 1.890375 1_555
Mn6 O11 1.923221 1_555
Mn6 O0 1.960741 1_555
Mn6 O8 1.962644 1_455
Mn6 O4 2.003477 1_455
Mn6 O41 2.209990 1_455
Mn7 O9 1.918775 1_455
Mn7 O1 1.986400 1_555
Mn7 O42 2.015257 1_455
Mn7 O38 2.025038 1_555
Mn7 O12 2.049265 1_555
Mn7 O5 2.077052 1_455
Mn8 O39 1.946686 1_555
Mn8 O10 1.948787 1_455
Mn8 O13 1.975072 1_555
Mn8 O6 1.976215 1_455
Mn8 O2 1.994801 1_555
Mn8 O43 2.006802 1_455
Mn9 O13 1.949329 1_545
Mn9 O8 1.963877 1_555
Mn9 O6 1.983090 1_545
Mn9 O35 1.994851 1_545
Mn9 O0 2.028726 1_555
Mn9 O30 2.129094 1_555
Mn10 O9 1.984942 1_555
Mn10 O31 1.988170 1_555
Mn10 O1 1.989946 1_555
Mn10 O3 2.091597 1_555
Mn11 O33 1.936188 1_555
Mn11 O11 1.950057 1_555
Mn11 O10 1.954766 1_555
Mn11 O32 1.974549 1_555
Mn11 O2 1.989338 1_555
Mn11 O4 2.000632 1_555
O3 Ti2 1.892210 1_555
O5 Ti3 1.830881 1_555
O7 Ti2 1.852610 1_555
O7 Ti3 2.047058 1_545
O12 Ti3 1.865739 1_555
O15 Ti1 1.903316 1_554
O17 Ti0 1.892043 1_555
O18 Ti1 1.864415 1_654
O18 Ti0 2.133063 1_544
O23 Ti0 1.869934 1_554
O26 Ti1 1.814027 1_555
O26 Ti0 2.080951 1_545
O29 Ti3 1.878451 1_545
O30 Ti0 1.806697 1_545
O34 Ti3 2.028136 1_555
O34 Ti0 2.293384 1_554
O36 Ti2 1.805937 1_455
O36 Ti1 2.648624 1_554
O40 Ti2 1.783688 1_555
O41 Ti1 1.810206 1_655
