# generated using pymatgen
data_V3Zn2GaO11
_symmetry_space_group_name_H-M   'P 1'
_cell_length_a   6.56933400
_cell_length_b   6.93187550
_cell_length_c   10.01944435
_cell_angle_alpha   97.76263459
_cell_angle_beta   102.02488488
_cell_angle_gamma   101.31878642
_symmetry_Int_Tables_number   1
_chemical_formula_structural   V3Zn2GaO11
_chemical_formula_sum   'V6 Zn4 Ga2 O22'
_cell_volume   430.14428210
_cell_formula_units_Z   2
loop_
 _symmetry_equiv_pos_site_id
 _symmetry_equiv_pos_as_xyz
  1  'x, y, z'
loop_
 _atom_site_type_symbol
 _atom_site_label
 _atom_site_symmetry_multiplicity
 _atom_site_fract_x
 _atom_site_fract_y
 _atom_site_fract_z
 _atom_site_occupancy
  V  V0  1  0.17313300  0.48598800  0.28953600  1
  V  V1  1  0.82686700  0.51401200  0.71046400  1
  V  V2  1  0.80256500  0.92555200  0.38378000  1
  V  V3  1  0.19743500  0.07444800  0.61622000  1
  V  V4  1  0.74521300  0.82307800  0.02452900  1
  V  V5  1  0.25478700  0.17692200  0.97547100  1
  Zn  Zn0  1  0.28309500  0.00413800  0.27889100  1
  Zn  Zn1  1  0.71690500  0.99586200  0.72110900  1
  Zn  Zn2  1  0.67454200  0.37639900  0.33539000  1
  Zn  Zn3  1  0.32545800  0.62360100  0.66461000  1
  Ga  Ga0  1  0.18976700  0.67538500  0.00434800  1
  Ga  Ga1  1  0.81023300  0.32461500  0.99565200  1
  O  O0  1  0.88640600  0.99407100  0.57803400  1
  O  O1  1  0.11359400  0.00592900  0.42196600  1
  O  O2  1  0.19456500  0.57044200  0.45727800  1
  O  O3  1  0.80543500  0.42955800  0.54272200  1
  O  O4  1  0.24296500  0.69970500  0.21379200  1
  O  O5  1  0.75703500  0.30029500  0.78620800  1
  O  O6  1  0.69054900  0.68256900  0.35723500  1
  O  O7  1  0.30945100  0.31743100  0.64276500  1
  O  O8  1  0.60731100  0.06438200  0.34938300  1
  O  O9  1  0.39268900  0.93561800  0.65061700  1
  O  O10  1  0.48136000  0.71355100  0.99695700  1
  O  O11  1  0.51864000  0.28644900  0.00304300  1
  O  O12  1  0.34515700  0.31782200  0.27855900  1
  O  O13  1  0.65484300  0.68217800  0.72144100  1
  O  O14  1  0.21594300  0.96934900  0.06051600  1
  O  O15  1  0.78405700  0.03065100  0.93948400  1
  O  O16  1  0.85096200  0.92474700  0.19512200  1
  O  O17  1  0.14903800  0.07525300  0.80487800  1
  O  O18  1  0.87610800  0.62293300  0.98678400  1
  O  O19  1  0.12389200  0.37706700  0.01321600  1
  O  O20  1  0.10898600  0.62777000  0.78882900  1
  O  O21  1  0.89101400  0.37223000  0.21117100  1
loop_
_geom_bond_atom_site_label_1
_geom_bond_atom_site_label_2
_geom_bond_distance
_geom_bond_site_symmetry_2
Ga0 O10 1.900095 1_554
Ga0 O18 1.986579 1_454
Ga0 O14 2.002732 1_555
Ga0 O4 2.032249 1_555
Ga0 O19 2.045916 1_555
Ga0 O20 2.077189 1_554
Ga1 O11 1.900095 1_556
Ga1 O19 1.986579 1_656
Ga1 O15 2.002732 1_555
Ga1 O5 2.032249 1_555
Ga1 O18 2.045916 1_555
Ga1 O21 2.077189 1_556
O0 V2 1.875638 1_555
O0 V3 1.949745 1_665
O0 Zn1 1.990177 1_555
O1 V3 1.875638 1_555
O1 V2 1.949745 1_445
O1 Zn0 1.990177 1_555
O2 V0 1.670476 1_555
O2 Zn3 2.028574 1_555
O3 V1 1.670476 1_555
O3 Zn2 2.028574 1_555
O4 V0 1.778519 1_555
O4 Zn0 2.070364 1_565
O5 V1 1.778519 1_555
O5 Zn1 2.070364 1_545
O6 V2 1.661358 1_555
O6 Zn2 2.083405 1_555
O7 V3 1.661358 1_555
O7 Zn3 2.083405 1_555
O8 V2 1.755031 1_545
O8 Zn0 2.038141 1_555
O8 Zn2 2.150685 1_555
O9 V3 1.755031 1_565
O9 Zn1 2.038141 1_555
O9 Zn3 2.150685 1_555
O10 V4 1.698367 1_556
O11 V5 1.698367 1_554
O12 V0 1.783904 1_555
O12 Zn2 2.061691 1_555
O12 Zn0 2.132805 1_555
O13 V1 1.783904 1_555
O13 Zn3 2.061691 1_555
O13 Zn1 2.132805 1_555
O14 V5 1.771786 1_564
O14 Zn0 2.110358 1_565
O15 V4 1.771786 1_546
O15 Zn1 2.110358 1_545
O16 V4 1.699547 1_555
O16 V2 1.980508 1_555
O17 V5 1.699547 1_555
O17 V3 1.980508 1_555
O18 V4 1.808126 1_556
O19 V5 1.808126 1_554
O20 V1 1.823704 1_455
O20 Zn3 2.077517 1_555
O21 V0 1.823704 1_655
O21 Zn2 2.077517 1_555
