# generated using pymatgen
data_TaMn2
_symmetry_space_group_name_H-M   'P 1'
_cell_length_a   4.95169221
_cell_length_b   4.95169156
_cell_length_c   7.86917559
_cell_angle_alpha   90.00001952
_cell_angle_beta   89.99997668
_cell_angle_gamma   119.99953639
_symmetry_Int_Tables_number   1
_chemical_formula_structural   TaMn2
_chemical_formula_sum   'Ta4 Mn8'
_cell_volume   167.09718112
_cell_formula_units_Z   4
loop_
 _symmetry_equiv_pos_site_id
 _symmetry_equiv_pos_as_xyz
  1  'x, y, z'
loop_
 _atom_site_type_symbol
 _atom_site_label
 _atom_site_symmetry_multiplicity
 _atom_site_fract_x
 _atom_site_fract_y
 _atom_site_fract_z
 _atom_site_occupancy
  Ta  Ta0  1  0.33333147  0.66666853  0.06025639  1
  Ta  Ta1  1  0.66666807  0.33333093  0.56027738  1
  Ta  Ta2  1  0.66666753  0.33333147  0.93974361  1
  Ta  Ta3  1  0.33333193  0.66666907  0.43972262  1
  Mn  Mn0  1  0.00000000  0.00000000  0.00000000  1
  Mn  Mn1  1  0.00000000  0.00000000  0.50000000  1
  Mn  Mn2  1  0.83006627  0.66013449  0.24996223  1
  Mn  Mn3  1  0.16993327  0.83006673  0.75003785  1
  Mn  Mn4  1  0.66013349  0.83006627  0.75003777  1
  Mn  Mn5  1  0.33986651  0.16993373  0.24996223  1
  Mn  Mn6  1  0.83006673  0.16993327  0.24996215  1
  Mn  Mn7  1  0.16993373  0.33986551  0.75003777  1
loop_
_geom_bond_atom_site_label_1
_geom_bond_atom_site_label_2
_geom_bond_distance
_geom_bond_site_symmetry_2
Ta0 Ta3 2.986086 1_555
Ta0 Ta2 3.012044 1_564
Ta0 Ta2 3.012049 1_454
Ta0 Ta2 3.012066 1_554
Ta1 Ta2 2.986086 1_555
Ta1 Ta3 3.012144 1_545
Ta1 Ta3 3.012152 1_655
Ta1 Ta3 3.012176 1_555
Mn0 Mn3 2.448104 1_544
Mn0 Mn6 2.448104 1_455
Mn0 Mn2 2.448108 1_445
Mn0 Mn7 2.448108 1_554
Mn0 Mn4 2.448111 1_444
Mn0 Mn5 2.448111 1_555
Mn0 Ta0 2.897894 1_545
Mn0 Ta2 2.897898 1_454
Mn0 Ta2 2.897933 1_554
Mn0 Ta0 2.897937 1_555
Mn0 Ta2 2.897937 1_444
Mn0 Ta0 2.897938 1_445
Mn1 Mn3 2.448583 1_545
Mn1 Mn6 2.448583 1_455
Mn1 Mn2 2.448586 1_445
Mn1 Mn7 2.448586 1_555
Mn1 Mn5 2.448588 1_555
Mn1 Mn4 2.448588 1_445
Mn1 Ta1 2.897921 1_455
Mn1 Ta3 2.897921 1_545
Mn1 Ta1 2.897963 1_555
Mn1 Ta3 2.897963 1_445
Mn1 Ta3 2.897967 1_555
Mn1 Ta1 2.897967 1_445
Mn2 Mn6 2.427326 1_555
Mn2 Mn5 2.427338 1_555
Mn2 Mn6 2.524365 1_565
Mn2 Mn5 2.524389 1_665
Mn2 Ta2 2.814835 1_554
Mn2 Ta1 2.815496 1_555
Mn2 Ta0 2.891209 1_655
Mn2 Ta0 2.891225 1_555
Mn2 Ta3 2.891433 1_655
Mn2 Ta3 2.891445 1_555
Mn3 Mn4 2.427322 1_555
Mn3 Mn7 2.427326 1_555
Mn3 Mn7 2.524365 1_565
Mn3 Mn4 2.524370 1_455
Mn3 Ta0 2.814817 1_556
Mn3 Ta3 2.815475 1_555
Mn3 Ta2 2.891229 1_565
Mn3 Ta2 2.891233 1_455
Mn3 Ta1 2.891451 1_565
Mn3 Ta1 2.891456 1_455
Mn4 Mn7 2.427338 1_555
Mn4 Mn7 2.524389 1_665
Mn4 Ta0 2.814833 1_556
Mn4 Ta3 2.815492 1_555
Mn4 Ta2 2.891209 1_565
Mn4 Ta2 2.891225 1_555
Mn4 Ta1 2.891428 1_565
Mn4 Ta1 2.891449 1_555
Mn5 Mn6 2.427322 1_555
Mn5 Mn6 2.524370 1_455
Mn5 Ta2 2.814831 1_554
Mn5 Ta1 2.815492 1_555
Mn5 Ta0 2.891207 1_545
Mn5 Ta0 2.891227 1_555
Mn5 Ta3 2.891428 1_545
Mn5 Ta3 2.891449 1_555
Mn6 Ta2 2.814819 1_554
Mn6 Ta1 2.815475 1_555
Mn6 Ta0 2.891231 1_655
Mn6 Ta0 2.891231 1_545
Mn6 Ta3 2.891451 1_545
Mn6 Ta3 2.891456 1_655
Mn7 Ta0 2.814835 1_556
Mn7 Ta3 2.815496 1_555
Mn7 Ta2 2.891213 1_455
Mn7 Ta2 2.891221 1_555
Mn7 Ta1 2.891433 1_455
Mn7 Ta1 2.891445 1_555
