# generated using pymatgen
data_SiNiPd
_symmetry_space_group_name_H-M   'P 1'
_cell_length_a   6.10372229
_cell_length_b   6.10372229
_cell_length_c   3.47369797
_cell_angle_alpha   90.00000000
_cell_angle_beta   90.00000000
_cell_angle_gamma   120.00001025
_symmetry_Int_Tables_number   1
_chemical_formula_structural   SiNiPd
_chemical_formula_sum   'Si3 Ni3 Pd3'
_cell_volume   112.07588383
_cell_formula_units_Z   3
loop_
 _symmetry_equiv_pos_site_id
 _symmetry_equiv_pos_as_xyz
  1  'x, y, z'
loop_
 _atom_site_type_symbol
 _atom_site_label
 _atom_site_symmetry_multiplicity
 _atom_site_fract_x
 _atom_site_fract_y
 _atom_site_fract_z
 _atom_site_occupancy
  Si  Si0  1  0.66666700  0.33333300  -0.00000000  1
  Si  Si1  1  0.33333300  0.66666700  -0.00000000  1
  Si  Si2  1  -0.00000000  -0.00000000  0.50000000  1
  Ni  Ni0  1  0.74662171  0.74662171  -0.00000000  1
  Ni  Ni1  1  0.25337829  0.00000000  -0.00000000  1
  Ni  Ni2  1  0.00000000  0.25337829  0.00000000  1
  Pd  Pd0  1  0.40009436  0.40009436  0.50000000  1
  Pd  Pd1  1  0.59990564  0.00000000  0.50000000  1
  Pd  Pd2  1  0.00000000  0.59990564  0.50000000  1
loop_
_geom_bond_atom_site_label_1
_geom_bond_atom_site_label_2
_geom_bond_distance
_geom_bond_site_symmetry_2
Ni0 Si0 2.317453 1_555
Ni0 Si1 2.317453 1_555
Ni0 Si2 2.325610 1_664
Ni0 Si2 2.325610 1_665
Ni0 Ni1 2.678704 1_665
Ni0 Ni2 2.678704 1_665
Ni0 Pd0 2.736845 1_555
Ni0 Pd0 2.736845 1_554
Ni0 Pd1 2.755969 1_565
Ni0 Pd1 2.755969 1_564
Ni0 Pd2 2.755969 1_655
Ni0 Pd2 2.755969 1_654
Ni1 Si1 2.317448 1_545
Ni1 Si0 2.317451 1_555
Ni1 Si2 2.325610 1_555
Ni1 Si2 2.325610 1_554
Ni1 Ni2 2.678705 1_555
Ni1 Pd1 2.736845 1_555
Ni1 Pd1 2.736845 1_554
Ni1 Pd2 2.755969 1_544
Ni1 Pd2 2.755969 1_545
Ni1 Pd0 2.755969 1_554
Ni1 Pd0 2.755969 1_555
Ni2 Si0 2.317448 1_455
Ni2 Si1 2.317451 1_555
Ni2 Si2 2.325610 1_555
Ni2 Si2 2.325610 1_554
Ni2 Pd2 2.736845 1_555
Ni2 Pd2 2.736845 1_554
Ni2 Pd1 2.755969 1_454
Ni2 Pd1 2.755969 1_455
Ni2 Pd0 2.755969 1_554
Ni2 Pd0 2.755969 1_555
Pd0 Si2 2.442064 1_555
Pd0 Si0 2.548162 1_555
Pd0 Si0 2.548162 1_556
Pd0 Si1 2.548162 1_556
Pd0 Si1 2.548162 1_555
Pd1 Si2 2.442065 1_655
Pd1 Si0 2.548157 1_555
Pd1 Si0 2.548157 1_556
Pd1 Si1 2.548158 1_545
Pd1 Si1 2.548158 1_546
Pd2 Si2 2.442065 1_565
Pd2 Si1 2.548157 1_556
Pd2 Si1 2.548157 1_555
Pd2 Si0 2.548158 1_455
Pd2 Si0 2.548158 1_456
