# generated using pymatgen
data_Ca2PdWO6
_symmetry_space_group_name_H-M   'P 1'
_cell_length_a   5.60299200
_cell_length_b   6.12254200
_cell_length_c   8.14415100
_cell_angle_alpha   90.00000000
_cell_angle_beta   90.00000000
_cell_angle_gamma   90.00000000
_symmetry_Int_Tables_number   1
_chemical_formula_structural   Ca2PdWO6
_chemical_formula_sum   'Ca4 Pd2 W2 O12'
_cell_volume   279.38146651
_cell_formula_units_Z   2
loop_
 _symmetry_equiv_pos_site_id
 _symmetry_equiv_pos_as_xyz
  1  'x, y, z'
loop_
 _atom_site_type_symbol
 _atom_site_label
 _atom_site_symmetry_multiplicity
 _atom_site_fract_x
 _atom_site_fract_y
 _atom_site_fract_z
 _atom_site_occupancy
  Ca  Ca0  1  0.00000000  0.57490300  0.73969200  1
  Ca  Ca1  1  0.00000000  0.57490300  0.26030800  1
  Ca  Ca2  1  0.50000000  0.07809300  0.75687700  1
  Ca  Ca3  1  0.50000000  0.07809300  0.24312300  1
  Pd  Pd0  1  0.50000000  0.47777300  0.00000000  1
  Pd  Pd1  1  0.00000000  0.98821400  0.50000000  1
  W  W0  1  0.00000000  0.96528300  0.00000000  1
  W  W1  1  0.50000000  0.47713600  0.50000000  1
  O  O0  1  0.25938100  0.17011900  0.00000000  1
  O  O1  1  0.74061900  0.17011900  0.00000000  1
  O  O2  1  0.77638800  0.71662400  0.00000000  1
  O  O3  1  0.22361200  0.71662400  0.00000000  1
  O  O4  1  0.26966400  0.23476800  0.50000000  1
  O  O5  1  0.73033600  0.23476800  0.50000000  1
  O  O6  1  0.24499300  0.68722600  0.50000000  1
  O  O7  1  0.75500700  0.68722600  0.50000000  1
  O  O8  1  0.00000000  0.95551500  0.76254600  1
  O  O9  1  0.00000000  0.95551500  0.23745400  1
  O  O10  1  0.50000000  0.45854900  0.73743800  1
  O  O11  1  0.50000000  0.45854900  0.26256200  1
loop_
_geom_bond_atom_site_label_1
_geom_bond_atom_site_label_2
_geom_bond_distance
_geom_bond_site_symmetry_2
Ca0 O8 2.337734 1_555
Ca0 O6 2.483520 1_555
Ca0 O7 2.483520 1_455
Ca0 O3 2.610936 1_556
Ca0 O2 2.610936 1_456
Ca0 O10 2.890710 1_555
Ca0 O10 2.890710 1_455
Ca1 O9 2.337734 1_555
Ca1 O6 2.483520 1_555
Ca1 O7 2.483520 1_455
Ca1 O3 2.610936 1_555
Ca1 O2 2.610936 1_455
Ca1 O11 2.890710 1_455
Ca1 O11 2.890710 1_555
Ca2 O10 2.334732 1_555
Ca2 O1 2.460810 1_556
Ca2 O0 2.460810 1_556
Ca2 O4 2.638633 1_555
Ca2 O5 2.638633 1_555
Ca2 O8 2.900646 1_645
Ca2 O8 2.900646 1_545
Ca3 O11 2.334732 1_555
Ca3 O1 2.460810 1_555
Ca3 O0 2.460810 1_555
Ca3 O5 2.638633 1_555
Ca3 O4 2.638633 1_555
Ca3 O9 2.900646 1_545
Ca3 O9 2.900646 1_645
O0 W0 1.919614 1_545
O0 Pd0 2.316387 1_555
O1 W0 1.919614 1_645
O1 Pd0 2.316387 1_555
O2 W0 1.971681 1_655
O2 Pd0 2.129954 1_555
O3 W0 1.971681 1_555
O3 Pd0 2.129954 1_555
O4 W1 1.966610 1_555
O4 Pd1 2.135790 1_545
O5 W1 1.966610 1_555
O5 Pd1 2.135790 1_645
O6 W1 1.922500 1_555
O6 Pd1 2.297878 1_555
O7 W1 1.922500 1_555
O7 Pd1 2.297878 1_655
O8 W0 1.934786 1_556
O8 Pd1 2.147566 1_555
O9 W0 1.934786 1_555
O9 Pd1 2.147566 1_555
O10 W1 1.937077 1_555
O10 Pd0 2.141581 1_556
O11 W1 1.937077 1_555
O11 Pd0 2.141581 1_555
