# generated using pymatgen
data_Li9Mn2Co5O16
_symmetry_space_group_name_H-M   'P 1'
_cell_length_a   2.88768800
_cell_length_b   5.15088200
_cell_length_c   19.30376857
_cell_angle_alpha   83.55000412
_cell_angle_beta   90.00000000
_cell_angle_gamma   90.00000000
_symmetry_Int_Tables_number   1
_chemical_formula_structural   Li9Mn2Co5O16
_chemical_formula_sum   'Li9 Mn2 Co5 O16'
_cell_volume   285.30952392
_cell_formula_units_Z   1
loop_
 _symmetry_equiv_pos_site_id
 _symmetry_equiv_pos_as_xyz
  1  'x, y, z'
loop_
 _atom_site_type_symbol
 _atom_site_label
 _atom_site_symmetry_multiplicity
 _atom_site_fract_x
 _atom_site_fract_y
 _atom_site_fract_z
 _atom_site_occupancy
  Li  Li0  1  0.50000000  0.63142300  0.62136800  1
  Li  Li1  1  0.00000000  0.74643700  0.75083300  1
  Li  Li2  1  0.50000000  0.87530900  0.87467500  1
  Li  Li3  1  0.00000000  0.00000000  0.00000000  1
  Li  Li4  1  0.50000000  0.12469100  0.12532500  1
  Li  Li5  1  0.00000000  0.50000000  0.50000000  1
  Li  Li6  1  0.50000000  0.36857700  0.37863200  1
  Li  Li7  1  0.00000000  0.25356300  0.24916700  1
  Li  Li8  1  0.50000000  0.00000000  0.50000000  1
  Mn  Mn0  1  0.00000000  0.11296900  0.62179300  1
  Mn  Mn1  1  0.00000000  0.88703100  0.37820700  1
  Co  Co0  1  0.50000000  0.24984200  0.75040400  1
  Co  Co1  1  0.00000000  0.37233600  0.87435200  1
  Co  Co2  1  0.50000000  0.50000000  0.00000000  1
  Co  Co3  1  0.00000000  0.62766400  0.12564800  1
  Co  Co4  1  0.50000000  0.75015800  0.24959600  1
  O  O0  1  0.50000000  0.29801900  0.56939500  1
  O  O1  1  0.00000000  0.39893900  0.68937400  1
  O  O2  1  0.50000000  0.55400900  0.81574000  1
  O  O3  1  0.00000000  0.65978300  0.94297000  1
  O  O4  1  0.50000000  0.80371100  0.06683700  1
  O  O5  1  0.00000000  0.15900900  0.43126500  1
  O  O6  1  0.50000000  0.04674200  0.31882300  1
  O  O7  1  0.00000000  0.92035000  0.19101300  1
  O  O8  1  0.50000000  0.95325800  0.68117700  1
  O  O9  1  0.00000000  0.07965000  0.80898700  1
  O  O10  1  0.50000000  0.19628900  0.93316300  1
  O  O11  1  0.00000000  0.34021700  0.05703000  1
  O  O12  1  0.50000000  0.44599100  0.18426000  1
  O  O13  1  0.00000000  0.84099100  0.56873500  1
  O  O14  1  0.50000000  0.70198100  0.43060500  1
  O  O15  1  0.00000000  0.60106100  0.31062600  1
loop_
_geom_bond_atom_site_label_1
_geom_bond_atom_site_label_2
_geom_bond_distance
_geom_bond_site_symmetry_2
Li0 O13 2.008930 1_655
Li0 O13 2.008930 1_555
Li0 O0 2.083954 1_555
Li0 O8 2.123923 1_555
Li0 O1 2.211077 1_555
Li0 O1 2.211077 1_655
Li1 O2 2.087577 1_555
Li1 O2 2.087577 1_455
Li1 O9 2.153816 1_565
Li1 O8 2.169275 1_555
Li1 O8 2.169275 1_455
Li1 O1 2.255757 1_555
Li2 O10 2.104191 1_565
Li2 O2 2.110985 1_555
Li2 O9 2.121450 1_565
Li2 O9 2.121450 1_665
Li2 O3 2.174015 1_555
Li2 O3 2.174015 1_655
Li3 O4 2.116243 1_445
Li3 O4 2.116243 1_545
Li3 O10 2.116243 1_554
Li3 O10 2.116243 1_454
Li3 O3 2.171722 1_544
Li3 O11 2.171722 1_555
Li4 O4 2.104191 1_545
Li4 O12 2.110985 1_555
Li4 O7 2.121450 1_645
Li4 O7 2.121450 1_545
Li4 O11 2.174015 1_555
Li4 O11 2.174015 1_655
Li5 O0 2.156025 1_455
Li5 O0 2.156025 1_555
Li5 O14 2.156025 1_555
Li5 O14 2.156025 1_455
Li5 O13 2.317124 1_555
Li5 O5 2.317124 1_555
Li6 O5 2.008930 1_655
Li6 O5 2.008930 1_555
Li6 O14 2.083954 1_555
Li6 O6 2.123923 1_555
Li6 O15 2.211077 1_555
Li6 O15 2.211077 1_655
Li7 O12 2.087577 1_555
Li7 O12 2.087577 1_455
Li7 O7 2.153816 1_545
Li7 O6 2.169275 1_455
Li7 O6 2.169275 1_555
Li7 O15 2.255757 1_555
Li8 O13 2.066849 1_645
Li8 O13 2.066849 1_545
Li8 O5 2.066849 1_555
Li8 O5 2.066849 1_655
Li8 O0 2.147767 1_555
Li8 O14 2.147767 1_545
Mn0 O13 1.825922 1_545
Mn0 O0 1.949282 1_455
Mn0 O0 1.949282 1_555
Mn0 O8 1.965618 1_445
Mn0 O8 1.965618 1_545
Mn0 O1 2.074453 1_555
Mn1 O5 1.825922 1_565
Mn1 O14 1.949282 1_455
Mn1 O14 1.949282 1_555
Mn1 O6 1.965618 1_465
Mn1 O6 1.965618 1_565
Mn1 O15 2.074453 1_555
Co0 O1 1.964471 1_555
Co0 O1 1.964471 1_655
Co0 O9 1.977200 1_555
Co0 O9 1.977200 1_655
Co0 O2 2.118796 1_555
Co0 O8 2.139684 1_545
Co1 O10 1.991111 1_555
Co1 O10 1.991111 1_455
Co1 O2 2.000657 1_455
Co1 O2 2.000657 1_555
Co1 O9 2.071795 1_555
Co1 O3 2.094599 1_555
Co2 O3 1.941766 1_654
Co2 O3 1.941766 1_554
Co2 O11 1.941766 1_655
Co2 O11 1.941766 1_555
Co2 O4 2.136677 1_555
Co2 O10 2.136677 1_554
Co3 O4 1.991111 1_455
Co3 O4 1.991111 1_555
Co3 O12 2.000657 1_555
Co3 O12 2.000657 1_455
Co3 O7 2.071795 1_555
Co3 O11 2.094599 1_555
Co4 O15 1.964471 1_655
Co4 O15 1.964471 1_555
Co4 O7 1.977200 1_655
Co4 O7 1.977200 1_555
Co4 O12 2.118796 1_555
Co4 O6 2.139684 1_565
