# generated using pymatgen
data_Ca2Al3O8
_symmetry_space_group_name_H-M   'P 1'
_cell_length_a   7.96011361
_cell_length_b   7.96011361
_cell_length_c   12.24119400
_cell_angle_alpha   90.00000000
_cell_angle_beta   90.00000000
_cell_angle_gamma   112.69269895
_symmetry_Int_Tables_number   1
_chemical_formula_structural   Ca2Al3O8
_chemical_formula_sum   'Ca8 Al12 O32'
_cell_volume   715.59906661
_cell_formula_units_Z   4
loop_
 _symmetry_equiv_pos_site_id
 _symmetry_equiv_pos_as_xyz
  1  'x, y, z'
loop_
 _atom_site_type_symbol
 _atom_site_label
 _atom_site_symmetry_multiplicity
 _atom_site_fract_x
 _atom_site_fract_y
 _atom_site_fract_z
 _atom_site_occupancy
  Ca  Ca0  1  0.67415600  0.32584400  0.50000000  1
  Ca  Ca1  1  0.17415600  0.82584400  0.00000000  1
  Ca  Ca2  1  0.32584400  0.67415600  0.50000000  1
  Ca  Ca3  1  0.82584400  0.17415600  0.00000000  1
  Ca  Ca4  1  0.30469400  0.30469400  0.84642200  1
  Ca  Ca5  1  0.69530600  0.69530600  0.15357800  1
  Ca  Ca6  1  0.19530600  0.19530600  0.34642200  1
  Ca  Ca7  1  0.80469400  0.80469400  0.65357800  1
  Al  Al0  1  0.26545100  0.02701300  0.62120300  1
  Al  Al1  1  0.97298700  0.73454900  0.37879700  1
  Al  Al2  1  0.47298700  0.23454900  0.12120300  1
  Al  Al3  1  0.76545100  0.52701300  0.87879700  1
  Al  Al4  1  0.73454900  0.97298700  0.37879700  1
  Al  Al5  1  0.02701300  0.26545100  0.62120300  1
  Al  Al6  1  0.52701300  0.76545100  0.87879700  1
  Al  Al7  1  0.23454900  0.47298700  0.12120300  1
  Al  Al8  1  0.64192400  0.14192400  0.75000000  1
  Al  Al9  1  0.85807600  0.35807600  0.25000000  1
  Al  Al10  1  0.35807600  0.85807600  0.25000000  1
  Al  Al11  1  0.14192400  0.64192400  0.75000000  1
  O  O0  1  0.72389400  0.29322100  0.86271600  1
  O  O1  1  0.70677900  0.27610600  0.13728400  1
  O  O2  1  0.20677900  0.77610600  0.36271600  1
  O  O3  1  0.22389400  0.79322100  0.63728400  1
  O  O4  1  0.27610600  0.70677900  0.13728400  1
  O  O5  1  0.29322100  0.72389400  0.86271600  1
  O  O6  1  0.79322100  0.22389400  0.63728400  1
  O  O7  1  0.77610600  0.20677900  0.36271600  1
  O  O8  1  0.43062900  0.15417000  0.71711200  1
  O  O9  1  0.84583000  0.56937100  0.28288800  1
  O  O10  1  0.34583000  0.06937100  0.21711200  1
  O  O11  1  0.93062900  0.65417000  0.78288800  1
  O  O12  1  0.56937100  0.84583000  0.28288800  1
  O  O13  1  0.15417000  0.43062900  0.71711200  1
  O  O14  1  0.65417000  0.93062900  0.78288800  1
  O  O15  1  0.06937100  0.34583000  0.21711200  1
  O  O16  1  0.35630500  0.10860200  0.48816200  1
  O  O17  1  0.89139800  0.64369500  0.51183800  1
  O  O18  1  0.39139800  0.14369500  0.98816200  1
  O  O19  1  0.85630500  0.60860200  0.01183800  1
  O  O20  1  0.64369500  0.89139800  0.51183800  1
  O  O21  1  0.10860200  0.35630500  0.48816200  1
  O  O22  1  0.60860200  0.85630500  0.01183800  1
  O  O23  1  0.14369500  0.39139800  0.98816200  1
  O  O24  1  0.06398600  0.06398600  0.64771900  1
  O  O25  1  0.93601400  0.93601400  0.35228100  1
  O  O26  1  0.43601400  0.43601400  0.14771900  1
  O  O27  1  0.56398600  0.56398600  0.85228100  1
  O  O28  1  0.03042300  0.03042300  0.95008400  1
  O  O29  1  0.96957700  0.96957700  0.04991600  1
  O  O30  1  0.46957700  0.46957700  0.45008400  1
  O  O31  1  0.53042300  0.53042300  0.54991600  1
loop_
_geom_bond_atom_site_label_1
_geom_bond_atom_site_label_2
_geom_bond_distance
_geom_bond_site_symmetry_2
Ca0 O6 2.230350 1_555
Ca0 O7 2.230350 1_555
Ca0 O30 2.402479 1_555
Ca0 O31 2.402479 1_555
Ca0 O17 2.457045 1_555
Ca0 O16 2.457045 1_555
Ca1 O4 2.230350 1_555
Ca1 O5 2.230350 1_554
Ca1 O29 2.402479 1_455
Ca1 O28 2.402479 1_564
Ca1 O18 2.457045 1_564
Ca1 O19 2.457045 1_455
Ca2 O3 2.230350 1_555
Ca2 O2 2.230350 1_555
Ca2 O30 2.402479 1_555
Ca2 O31 2.402479 1_555
Ca2 O20 2.457045 1_555
Ca2 O21 2.457045 1_555
Ca3 O1 2.230350 1_555
Ca3 O0 2.230350 1_554
Ca3 O29 2.402479 1_545
Ca3 O28 2.402479 1_654
Ca3 O23 2.457045 1_654
Ca3 O22 2.457045 1_545
Ca4 O27 2.288736 1_555
Ca4 O18 2.410743 1_555
Ca4 O23 2.410743 1_555
Ca4 O13 2.423415 1_555
Ca4 O8 2.423415 1_555
Ca4 O28 2.732304 1_555
Ca5 O26 2.288736 1_555
Ca5 O22 2.410743 1_555
Ca5 O19 2.410743 1_555
Ca5 O12 2.423415 1_555
Ca5 O9 2.423415 1_555
Ca5 O29 2.732304 1_555
Ca6 O25 2.288736 1_445
Ca6 O16 2.410743 1_555
Ca6 O21 2.410743 1_555
Ca6 O10 2.423415 1_555
Ca6 O15 2.423415 1_555
Ca6 O30 2.732304 1_555
Ca7 O24 2.288736 1_665
Ca7 O17 2.410743 1_555
Ca7 O20 2.410743 1_555
Ca7 O14 2.423415 1_555
Ca7 O11 2.423415 1_555
Ca7 O31 2.732304 1_555
Al0 O8 1.762051 1_555
Al0 O24 1.768600 1_555
Al0 O3 1.771028 1_545
Al0 O16 1.798526 1_555
Al1 O9 1.762051 1_555
Al1 O25 1.768600 1_555
Al1 O2 1.771028 1_655
Al1 O17 1.798526 1_555
Al2 O10 1.762051 1_555
Al2 O26 1.768600 1_555
Al2 O1 1.771028 1_555
Al2 O18 1.798526 1_554
Al3 O11 1.762051 1_555
Al3 O27 1.768600 1_555
Al3 O0 1.771028 1_555
Al3 O19 1.798526 1_556
Al4 O12 1.762051 1_555
Al4 O25 1.768600 1_555
Al4 O7 1.771028 1_565
Al4 O20 1.798526 1_555
Al5 O13 1.762051 1_555
Al5 O24 1.768600 1_555
Al5 O6 1.771028 1_455
Al5 O21 1.798526 1_555
Al6 O14 1.762051 1_555
Al6 O27 1.768600 1_555
Al6 O5 1.771028 1_555
Al6 O22 1.798526 1_556
Al7 O15 1.762051 1_555
Al7 O26 1.768600 1_555
Al7 O4 1.771028 1_555
Al7 O23 1.798526 1_554
Al8 O14 1.768327 1_545
Al8 O8 1.768327 1_555
Al8 O6 1.781474 1_555
Al8 O0 1.781474 1_555
Al9 O9 1.768327 1_555
Al9 O15 1.768327 1_655
Al9 O1 1.781474 1_555
Al9 O7 1.781474 1_555
Al10 O12 1.768327 1_555
Al10 O10 1.768327 1_565
Al10 O4 1.781474 1_555
Al10 O2 1.781474 1_555
Al11 O11 1.768327 1_455
Al11 O13 1.768327 1_555
Al11 O3 1.781474 1_555
Al11 O5 1.781474 1_555
O28 O29 1.334769 1_446
O30 O31 1.334769 1_555
