# generated using pymatgen
data_Cs2Tm2Mg(WO4)4
_symmetry_space_group_name_H-M   'P 1'
_cell_length_a   7.87692029
_cell_length_b   7.87692029
_cell_length_c   7.71132705
_cell_angle_alpha   61.50966388
_cell_angle_beta   61.50966388
_cell_angle_gamma   86.64459919
_symmetry_Int_Tables_number   1
_chemical_formula_structural   Cs2Tm2Mg(WO4)4
_chemical_formula_sum   'Cs2 Tm2 Mg1 W4 O16'
_cell_volume   360.63387180
_cell_formula_units_Z   1
loop_
 _symmetry_equiv_pos_site_id
 _symmetry_equiv_pos_as_xyz
  1  'x, y, z'
loop_
 _atom_site_type_symbol
 _atom_site_label
 _atom_site_symmetry_multiplicity
 _atom_site_fract_x
 _atom_site_fract_y
 _atom_site_fract_z
 _atom_site_occupancy
  Cs  Cs0  1  0.81801872  0.18198128  0.75000000  1
  Cs  Cs1  1  0.20391938  0.79608062  0.25000000  1
  Tm  Tm0  1  0.22011371  0.77988629  0.75000000  1
  Tm  Tm1  1  0.77167492  0.22832508  0.25000000  1
  Mg  Mg0  1  0.54019034  0.45980966  0.75000000  1
  W  W0  1  0.27936841  0.30091463  0.70772479  1
  W  W1  1  0.70406472  0.70480082  0.28228394  1
  W  W2  1  0.69908537  0.72063159  0.79227521  1
  W  W3  1  0.29519918  0.29593528  0.21771606  1
  O  O0  1  0.34605791  0.22561539  0.96666958  1
  O  O1  1  0.62516368  0.75034735  0.06993899  1
  O  O2  1  0.77438461  0.65394209  0.53333042  1
  O  O3  1  0.24965265  0.37483632  0.43006101  1
  O  O4  1  0.65656166  0.96086682  0.61343183  1
  O  O5  1  0.32446779  0.05018816  0.39129718  1
  O  O6  1  0.03913318  0.34343834  0.88656817  1
  O  O7  1  0.94981184  0.67553221  0.10870282  1
  O  O8  1  0.40828924  0.61920168  0.55785463  1
  O  O9  1  0.60469757  0.38818237  0.46592268  1
  O  O10  1  0.38079832  0.59171076  0.94214537  1
  O  O11  1  0.61181763  0.39530243  0.03407732  1
  O  O12  1  0.25409856  0.03919264  0.77645552  1
  O  O13  1  0.73814193  0.96385169  0.21318054  1
  O  O14  1  0.96080736  0.74590144  0.72354448  1
  O  O15  1  0.03614831  0.26185807  0.28681946  1
loop_
_geom_bond_atom_site_label_1
_geom_bond_atom_site_label_2
_geom_bond_distance
_geom_bond_site_symmetry_2
Cs0 O13 2.869355 1_546
Cs0 O15 2.869355 1_655
Cs0 O3 2.996782 1_655
Cs0 O1 2.996782 1_546
Cs0 Mg0 3.002973 1_555
Cs0 O4 3.007818 1_545
Cs0 O6 3.007818 1_655
Cs0 O9 3.171450 1_555
Cs0 O11 3.171450 1_556
Cs0 O2 3.347051 1_555
Cs0 O0 3.347051 1_555
Cs0 O14 3.619810 1_545
Cs0 O12 3.619810 1_655
Cs1 O2 2.920947 1_455
Cs1 O0 2.920947 1_564
Cs1 O1 3.001575 1_555
Cs1 O3 3.001575 1_555
Cs1 O14 3.032864 1_455
Cs1 O12 3.032864 1_564
Cs1 O5 3.063552 1_565
Cs1 O7 3.063552 1_455
Cs1 O8 3.224323 1_555
Cs1 O10 3.224323 1_554
Mg0 O0 1.866881 1_555
Mg0 O2 1.866881 1_555
Mg0 O8 2.095810 1_555
Mg0 O10 2.095810 1_555
Mg0 O11 2.336439 1_556
Mg0 O9 2.336439 1_555
O0 W0 2.109342 1_555
O0 W3 2.114747 1_556
O1 W1 1.892243 1_555
O1 W2 2.061830 1_554
O2 W2 2.109342 1_555
O2 W1 2.114747 1_555
O3 W3 1.892243 1_555
O3 W0 2.061830 1_555
O4 W2 1.863274 1_555
O4 Tm1 2.298109 1_565
O5 W3 1.833614 1_555
O5 Tm0 2.297224 1_545
O6 W0 1.863274 1_555
O6 Tm1 2.298109 1_456
O7 W1 1.833614 1_555
O7 Tm0 2.297224 1_654
O8 W1 2.119437 1_555
O8 W0 2.250925 1_555
O8 Tm0 2.338537 1_555
O9 W1 2.153981 1_555
O9 W0 2.222844 1_555
O9 Tm1 2.409337 1_555
O10 W3 2.119437 1_556
O10 W2 2.250925 1_555
O10 Tm0 2.338537 1_555
O11 W3 2.153981 1_555
O11 W2 2.222844 1_554
O11 Tm1 2.409337 1_555
O12 W0 1.864285 1_555
O12 Tm0 2.190632 1_545
O13 W1 1.846631 1_555
O13 Tm1 2.278268 1_565
O14 W2 1.864285 1_555
O14 Tm0 2.190632 1_655
O15 W3 1.846631 1_555
O15 Tm1 2.278268 1_455
