# generated using pymatgen
data_TmZnGe
_symmetry_space_group_name_H-M   'P 1'
_cell_length_a   4.15786554
_cell_length_b   4.15786554
_cell_length_c   15.45863407
_cell_angle_alpha   90.00000000
_cell_angle_beta   90.00000000
_cell_angle_gamma   119.99999613
_symmetry_Int_Tables_number   1
_chemical_formula_structural   TmZnGe
_chemical_formula_sum   'Tm4 Zn4 Ge4'
_cell_volume   231.44225186
_cell_formula_units_Z   4
loop_
 _symmetry_equiv_pos_site_id
 _symmetry_equiv_pos_as_xyz
  1  'x, y, z'
loop_
 _atom_site_type_symbol
 _atom_site_label
 _atom_site_symmetry_multiplicity
 _atom_site_fract_x
 _atom_site_fract_y
 _atom_site_fract_z
 _atom_site_occupancy
  Tm  Tm0  1  -0.00000000  -0.00000000  0.25000694  1
  Tm  Tm1  1  -0.00000000  0.00000000  0.74999268  1
  Tm  Tm2  1  -0.00000000  0.00000000  0.00004218  1
  Tm  Tm3  1  -0.00000000  0.00000000  0.49995785  1
  Zn  Zn0  1  0.33333300  0.66666700  0.14916425  1
  Zn  Zn1  1  0.66666700  0.33333300  0.85087422  1
  Zn  Zn2  1  0.66666700  0.33333300  0.64912411  1
  Zn  Zn3  1  0.33333300  0.66666700  0.35083874  1
  Ge  Ge0  1  0.33333300  0.66666700  0.61331425  1
  Ge  Ge1  1  0.66666700  0.33333300  0.38662952  1
  Ge  Ge2  1  0.66666700  0.33333300  0.11336486  1
  Ge  Ge3  1  0.33333300  0.66666700  0.88669041  1
loop_
_geom_bond_atom_site_label_1
_geom_bond_atom_site_label_2
_geom_bond_distance
_geom_bond_site_symmetry_2
Tm0 Zn3 2.862205 1_545
Tm0 Zn3 2.862208 1_445
Tm0 Zn3 2.862208 1_555
Tm0 Zn0 2.862297 1_545
Tm0 Zn0 2.862300 1_445
Tm0 Zn0 2.862300 1_555
Tm1 Zn2 2.862515 1_455
Tm1 Zn2 2.862518 1_445
Tm1 Zn2 2.862518 1_555
Tm1 Zn1 2.862624 1_455
Tm1 Zn1 2.862627 1_555
Tm1 Zn1 2.862627 1_445
Ge0 Zn2 2.463543 1_455
Ge0 Zn2 2.463543 1_565
Ge0 Zn2 2.463550 1_555
Ge0 Tm3 2.972084 1_565
Ge0 Tm3 2.972087 1_555
Ge0 Tm3 2.972087 1_665
Ge0 Tm1 3.197935 1_565
Ge0 Tm1 3.197938 1_665
Ge0 Tm1 3.197938 1_555
Ge1 Zn3 2.463477 1_545
Ge1 Zn3 2.463477 1_655
Ge1 Zn3 2.463484 1_555
Ge1 Tm3 2.971828 1_655
Ge1 Tm3 2.971831 1_665
Ge1 Tm3 2.971831 1_555
Ge1 Tm0 3.197365 1_655
Ge1 Tm0 3.197368 1_665
Ge1 Tm0 3.197368 1_555
Ge2 Zn0 2.463507 1_545
Ge2 Zn0 2.463507 1_655
Ge2 Zn0 2.463514 1_555
Ge2 Tm2 2.971776 1_655
Ge2 Tm2 2.971779 1_665
Ge2 Tm2 2.971779 1_555
Ge2 Tm0 3.197564 1_655
Ge2 Tm0 3.197567 1_665
Ge2 Tm0 3.197567 1_555
Ge3 Zn1 2.463565 1_455
Ge3 Zn1 2.463565 1_565
Ge3 Zn1 2.463572 1_555
Ge3 Tm2 2.972042 1_566
Ge3 Tm2 2.972045 1_666
Ge3 Tm2 2.972045 1_556
Ge3 Tm1 3.198132 1_565
Ge3 Tm1 3.198135 1_555
Ge3 Tm1 3.198135 1_665
