# generated using pymatgen
data_K5V9H20PtO37
_symmetry_space_group_name_H-M   'P 1'
_cell_length_a   10.33825800
_cell_length_b   13.01657601
_cell_length_c   13.91570105
_cell_angle_alpha   103.75638948
_cell_angle_beta   106.64149099
_cell_angle_gamma   92.54055267
_symmetry_Int_Tables_number   1
_chemical_formula_structural   K5V9H20PtO37
_chemical_formula_sum   'K10 V18 H40 Pt2 O74'
_cell_volume   1729.95557156
_cell_formula_units_Z   2
loop_
 _symmetry_equiv_pos_site_id
 _symmetry_equiv_pos_as_xyz
  1  'x, y, z'
loop_
 _atom_site_type_symbol
 _atom_site_label
 _atom_site_symmetry_multiplicity
 _atom_site_fract_x
 _atom_site_fract_y
 _atom_site_fract_z
 _atom_site_occupancy
  K  K0  1  0.80884300  0.04999400  0.19100700  1
  K  K1  1  0.19115700  0.95000600  0.80899300  1
  K  K2  1  0.66955600  0.72682100  0.00151500  1
  K  K3  1  0.33044400  0.27317900  0.99848500  1
  K  K4  1  0.71410900  0.81085300  0.75067300  1
  K  K5  1  0.28589100  0.18914700  0.24932700  1
  K  K6  1  0.85484700  0.84062200  0.48919400  1
  K  K7  1  0.14515300  0.15937800  0.51080600  1
  K  K8  1  0.67025300  0.50285000  0.37679100  1
  K  K9  1  0.32974700  0.49715000  0.62320900  1
  V  V0  1  0.92187800  0.25200800  0.03931900  1
  V  V1  1  0.07812200  0.74799200  0.96068100  1
  V  V2  1  0.93981100  0.42247400  0.64328500  1
  V  V3  1  0.06018900  0.57752600  0.35671500  1
  V  V4  1  0.63014100  0.32525600  0.53229200  1
  V  V5  1  0.36985900  0.67474400  0.46770800  1
  V  V6  1  0.61837200  0.23764900  0.72366300  1
  V  V7  1  0.38162800  0.76235100  0.27633700  1
  V  V8  1  0.61517800  0.15310700  0.91782200  1
  V  V9  1  0.38482200  0.84689300  0.08217800  1
  V  V10  1  0.84957200  0.09202500  0.81064300  1
  V  V11  1  0.15042800  0.90797500  0.18935700  1
  V  V12  1  0.85260800  0.17522200  0.61482800  1
  V  V13  1  0.14739200  0.82477800  0.38517200  1
  V  V14  1  0.71483200  0.48909700  0.75762000  1
  V  V15  1  0.28516800  0.51090300  0.24238000  1
  V  V16  1  0.70146600  0.40220700  0.95188700  1
  V  V17  1  0.29853400  0.59779300  0.04811300  1
  H  H0  1  0.08711200  0.49391300  0.84226700  1
  H  H1  1  0.91288800  0.50608700  0.15773300  1
  H  H2  1  0.07901600  0.41194700  0.02848100  1
  H  H3  1  0.92098400  0.58805300  0.97151900  1
  H  H4  1  0.83891600  0.28592600  0.31281300  1
  H  H5  1  0.16108400  0.71407400  0.68718700  1
  H  H6  1  0.86363900  0.25601400  0.41690700  1
  H  H7  1  0.13636100  0.74398600  0.58309300  1
  H  H8  1  0.65204200  0.10504400  0.38278200  1
  H  H9  1  0.34795800  0.89495600  0.61721800  1
  H  H10  1  0.57406000  0.99497700  0.30205800  1
  H  H11  1  0.42594000  0.00502300  0.69794200  1
  H  H12  1  0.87320000  0.82907300  0.22490200  1
  H  H13  1  0.12680000  0.17092700  0.77509800  1
  H  H14  1  0.73365500  0.79361300  0.23826500  1
  H  H15  1  0.26634500  0.20638700  0.76173500  1
  H  H16  1  0.88666800  0.90625800  0.00548300  1
  H  H17  1  0.11333200  0.09374200  0.99451700  1
  H  H18  1  0.77455100  0.97013100  0.94770900  1
  H  H19  1  0.22544900  0.02986900  0.05229100  1
  H  H20  1  0.45161500  0.87114500  0.77917400  1
  H  H21  1  0.54838500  0.12885500  0.22082600  1
  H  H22  1  0.50556000  0.88172900  0.89983100  1
  H  H23  1  0.49444000  0.11827100  0.10016900  1
  H  H24  1  0.65472600  0.98478900  0.60280200  1
  H  H25  1  0.34527400  0.01521100  0.39719800  1
  H  H26  1  0.56111000  0.88200200  0.52082200  1
  H  H27  1  0.43889000  0.11799800  0.47917800  1
  H  H28  1  0.77111400  0.62335100  0.23159600  1
  H  H29  1  0.22888600  0.37664900  0.76840400  1
  H  H30  1  0.61280700  0.62861800  0.21502800  1
  H  H31  1  0.38719300  0.37138200  0.78497200  1
  H  H32  1  0.62717200  0.28229600  0.19488100  1
  H  H33  1  0.37282800  0.71770400  0.80511900  1
  H  H34  1  0.72848300  0.35259100  0.16392000  1
  H  H35  1  0.27151700  0.64740900  0.83608000  1
  H  H36  1  0.69484400  0.65370800  0.57515100  1
  H  H37  1  0.30515600  0.34629200  0.42484900  1
  H  H38  1  0.84802200  0.64158400  0.62127700  1
  H  H39  1  0.15197800  0.35841600  0.37872300  1
  Pt  Pt0  1  0.92688800  0.33792600  0.84041500  1
  Pt  Pt1  1  0.07311200  0.66207400  0.15958500  1
  O  O0  1  0.77924300  0.25497600  0.86636400  1
  O  O1  1  0.22075700  0.74502400  0.13363600  1
  O  O2  1  0.78547400  0.32467600  0.70372700  1
  O  O3  1  0.21452600  0.67532400  0.29627300  1
  O  O4  1  0.96618800  0.19224200  0.76806200  1
  O  O5  1  0.03381200  0.80775800  0.23193800  1
  O  O6  1  0.84046300  0.46877100  0.89458100  1
  O  O7  1  0.15953700  0.53122900  0.10541900  1
  O  O8  1  0.72125300  0.12103100  0.68051200  1
  O  O9  1  0.27874700  0.87896900  0.31948800  1
  O  O10  1  0.60199700  0.37902600  0.79781600  1
  O  O11  1  0.39800300  0.62097400  0.20218400  1
  O  O12  1  0.06282900  0.42058800  0.79381400  1
  O  O13  1  0.93717100  0.57941200  0.20618600  1
  O  O14  1  0.05104400  0.33607000  0.98450300  1
  O  O15  1  0.94895600  0.66393000  0.01549700  1
  O  O16  1  0.78442400  0.39761500  0.52836400  1
  O  O17  1  0.21557600  0.60238500  0.47163600  1
  O  O18  1  0.52703800  0.24174100  0.60013200  1
  O  O19  1  0.47296200  0.75825900  0.39986800  1
  O  O20  1  0.52025000  0.16344400  0.77025700  1
  O  O21  1  0.47975000  0.83655600  0.22974300  1
  O  O22  1  0.76371100  0.17589700  0.03493400  1
  O  O23  1  0.23628900  0.82410300  0.96506600  1
  O  O24  1  0.95919900  0.13461400  0.94628800  1
  O  O25  1  0.04080100  0.86538600  0.05371200  1
  O  O26  1  0.70245600  0.04817800  0.84710600  1
  O  O27  1  0.29754400  0.95182200  0.15289400  1
  O  O28  1  0.71030800  0.19566000  0.50840200  1
  O  O29  1  0.28969200  0.80434000  0.49159800  1
  O  O30  1  0.97229200  0.27969200  0.60731500  1
  O  O31  1  0.02770800  0.72030800  0.39268500  1
  O  O32  1  0.85839600  0.52727500  0.71770200  1
  O  O33  1  0.14160400  0.47272500  0.28229800  1
  O  O34  1  0.59778600  0.44391400  0.62379000  1
  O  O35  1  0.40221400  0.55608600  0.37621000  1
  O  O36  1  0.84203500  0.38189100  0.06118500  1
  O  O37  1  0.15796500  0.61810900  0.93881500  1
  O  O38  1  0.58230300  0.29546200  0.95654900  1
  O  O39  1  0.41769700  0.70453800  0.04345100  1
  O  O40  1  0.02617100  0.24989200  0.15090000  1
  O  O41  1  0.97382900  0.75010800  0.84910000  1
  O  O42  1  0.05336600  0.48901300  0.61453000  1
  O  O43  1  0.94663400  0.51098700  0.38547000  1
  O  O44  1  0.51488200  0.32146100  0.42177700  1
  O  O45  1  0.48511800  0.67853900  0.57822300  1
  O  O46  1  0.49658000  0.08715100  0.94364100  1
  O  O47  1  0.50342000  0.91284900  0.05635900  1
  O  O48  1  0.90537500  0.98064700  0.76396300  1
  O  O49  1  0.09462500  0.01935300  0.23603700  1
  O  O50  1  0.90587700  0.06539600  0.56210200  1
  O  O51  1  0.09412300  0.93460400  0.43789800  1
  O  O52  1  0.66335700  0.60230500  0.80511700  1
  O  O53  1  0.33664300  0.39769500  0.19488300  1
  O  O54  1  0.65299500  0.51398400  0.00382700  1
  O  O55  1  0.34700500  0.48601600  0.99617300  1
  O  O56  1  0.88516100  0.23642000  0.35154100  1
  O  O57  1  0.11483900  0.76358000  0.64845900  1
  O  O58  1  0.62359700  0.06341000  0.30875100  1
  O  O59  1  0.37640300  0.93659000  0.69124900  1
  O  O60  1  0.77874800  0.84804700  0.21639500  1
  O  O61  1  0.22125200  0.15195300  0.78360500  1
  O  O62  1  0.78797400  0.91426400  0.98507300  1
  O  O63  1  0.21202600  0.08573600  0.01492700  1
  O  O64  1  0.48961700  0.83082000  0.83206800  1
  O  O65  1  0.51038300  0.16918000  0.16793200  1
  O  O66  1  0.64883700  0.90694000  0.57450900  1
  O  O67  1  0.35116300  0.09306000  0.42549100  1
  O  O68  1  0.70375700  0.65497500  0.26427700  1
  O  O69  1  0.29624300  0.34502500  0.73572300  1
  O  O70  1  0.69794500  0.34542100  0.22254800  1
  O  O71  1  0.30205500  0.65457900  0.77745200  1
  O  O72  1  0.78611800  0.67635300  0.57458800  1
  O  O73  1  0.21388200  0.32364700  0.42541200  1
loop_
_geom_bond_atom_site_label_1
_geom_bond_atom_site_label_2
_geom_bond_distance
_geom_bond_site_symmetry_2
K0 O60 2.750198 1_545
K0 O56 2.782827 1_555
K0 O58 2.841423 1_555
K0 O49 2.905799 1_655
K0 O62 2.929921 1_544
K0 O22 2.966579 1_555
K1 O61 2.750198 1_565
K1 O57 2.782827 1_555
K1 O59 2.841423 1_555
K1 O48 2.905799 1_455
K1 O63 2.929921 1_566
K1 O23 2.966579 1_555
K2 O62 2.768606 1_554
K2 O54 2.776510 1_555
K2 O52 2.807880 1_554
K2 O39 2.843980 1_555
K2 O60 2.893141 1_555
K2 O15 3.002494 1_555
K2 O47 3.104267 1_555
K3 O63 2.768606 1_556
K3 O55 2.776510 1_555
K3 O53 2.807880 1_556
K3 O38 2.843980 1_555
K3 O61 2.893141 1_555
K3 O14 3.002494 1_555
K3 O46 3.104267 1_555
K4 O48 2.835060 1_555
K4 O64 2.855870 1_555
K4 O41 2.882285 1_555
K4 O66 2.935094 1_555
K4 O72 2.956955 1_555
K4 O45 2.957784 1_555
K4 O52 3.049225 1_555
K4 O62 3.070616 1_555
K4 O26 3.084196 1_565
K5 O49 2.835060 1_555
K5 O65 2.855870 1_555
K5 O40 2.882285 1_555
K5 O67 2.935094 1_555
K5 O73 2.956955 1_555
K5 O44 2.957784 1_555
K5 O53 3.049225 1_555
K5 O63 3.070616 1_555
K5 O27 3.084196 1_545
K6 O66 2.795437 1_555
K6 O50 2.830681 1_565
K6 O72 2.836597 1_555
K6 O31 2.841193 1_655
K6 O51 3.046906 1_655
K7 O67 2.795437 1_555
K7 O51 2.830681 1_545
K7 O73 2.836597 1_555
K7 O30 2.841193 1_455
K7 O50 3.046906 1_455
K8 O70 2.683339 1_555
K8 O16 2.794621 1_555
K8 O43 2.821239 1_555
K8 O68 2.866480 1_555
K8 O35 2.884279 1_555
K8 O72 3.004463 1_555
K8 O44 3.080466 1_555
K9 O71 2.683339 1_555
K9 O17 2.794621 1_555
K9 O42 2.821239 1_555
K9 O69 2.866480 1_555
K9 O34 2.884279 1_555
K9 O73 3.004463 1_555
K9 O45 3.080466 1_555
H0 O12 1.002173 1_555
H1 O13 1.002173 1_555
H2 O14 1.009691 1_554
H2 O7 1.683539 1_555
H3 O15 1.009691 1_556
H3 O6 1.683539 1_555
H4 O56 0.989527 1_555
H5 O57 0.989527 1_555
H6 O56 0.975997 1_555
H7 O57 0.975997 1_555
H8 O58 0.994133 1_555
H9 O59 0.994133 1_555
H10 O58 0.978360 1_565
H11 O59 0.978360 1_545
H12 O60 0.998789 1_555
H12 O5 1.674603 1_655
H13 O61 0.998789 1_555
H13 O4 1.674603 1_455
H14 O60 0.983115 1_555
H15 O61 0.983115 1_555
H16 O62 0.995042 1_554
H16 O25 1.704416 1_655
H17 O63 0.995042 1_556
H17 O24 1.704416 1_455
H18 O62 0.982781 1_555
H18 K4 2.899499 1_555
H19 O63 0.982781 1_555
H19 K5 2.899499 1_555
H20 O64 1.004011 1_555
H20 K4 2.965599 1_555
H21 O65 1.004011 1_555
H21 K5 2.965599 1_555
H22 O64 0.979589 1_555
H23 O65 0.979589 1_555
H24 O66 0.988236 1_555
H25 O67 0.988236 1_555
H26 O66 0.978029 1_555
H27 O67 0.978029 1_555
H28 O68 0.989416 1_555
H29 O69 0.989416 1_555
H30 O68 0.980804 1_555
H31 O69 0.980804 1_555
H32 O70 0.996804 1_555
H33 O71 0.996804 1_555
H34 O70 0.977303 1_555
H35 O71 0.977303 1_555
H36 O72 0.978789 1_555
H36 K4 2.738377 1_555
H36 K8 2.918201 1_555
H37 O73 0.978789 1_555
H37 K5 2.738377 1_555
H37 K9 2.918201 1_555
H38 O72 0.981776 1_555
H39 O73 0.981776 1_555
O0 Pt0 1.995266 1_555
O0 V6 2.149959 1_555
O0 V10 2.303528 1_555
O0 V16 2.309906 1_555
O0 V0 2.446441 1_556
O0 V8 2.468959 1_555
O1 Pt1 1.995266 1_555
O1 V7 2.149959 1_555
O1 V11 2.303528 1_555
O1 V17 2.309906 1_555
O1 V1 2.446441 1_554
O1 V9 2.468959 1_555
O2 Pt0 2.003496 1_555
O2 V6 2.143611 1_555
O2 V12 2.294236 1_555
O2 V14 2.316284 1_555
O2 V2 2.443692 1_555
O2 V4 2.466884 1_555
O3 Pt1 2.003496 1_555
O3 V7 2.143611 1_555
O3 V13 2.294236 1_555
O3 V15 2.316284 1_555
O3 V3 2.443692 1_555
O3 V5 2.466884 1_555
O4 V10 2.035590 1_555
O4 Pt0 2.041901 1_555
O4 V12 2.071949 1_555
O5 V11 2.035590 1_555
O5 Pt1 2.041901 1_555
O5 V13 2.071949 1_555
O6 Pt0 2.043845 1_555
O6 V14 2.059573 1_555
O6 V16 2.079939 1_555
O7 Pt1 2.043845 1_555
O7 V15 2.059573 1_555
O7 V17 2.079939 1_555
O8 V6 1.967614 1_555
O8 V12 2.027264 1_555
O8 V10 2.043345 1_555
O9 V7 1.967614 1_555
O9 V13 2.027264 1_555
O9 V11 2.043345 1_555
O10 V6 1.924713 1_555
O10 V16 2.036491 1_555
O10 V14 2.081612 1_555
O11 V7 1.924713 1_555
O11 V17 2.036491 1_555
O11 V15 2.081612 1_555
O12 Pt0 2.067167 1_455
O12 V2 2.123028 1_455
O13 Pt1 2.067167 1_655
O13 V3 2.123028 1_655
O14 Pt0 2.054304 1_455
O14 V0 2.100749 1_456
O15 Pt1 2.054304 1_655
O15 V1 2.100749 1_654
O16 V4 1.837231 1_555
O16 V2 1.865250 1_555
O17 V5 1.837231 1_555
O17 V3 1.865250 1_555
O18 V6 1.722720 1_555
O18 V4 2.042255 1_555
O19 V7 1.722720 1_555
O19 V5 2.042255 1_555
O20 V6 1.723398 1_555
O20 V8 2.046171 1_555
O21 V7 1.723398 1_555
O21 V9 2.046171 1_555
O22 V8 1.843430 1_554
O22 V0 1.851888 1_555
O23 V9 1.843430 1_556
O23 V1 1.851888 1_555
O24 V10 1.837427 1_555
O24 V0 1.886099 1_556
O25 V11 1.837427 1_555
O25 V1 1.886099 1_554
O26 V10 1.843693 1_555
O26 V8 1.904362 1_555
O27 V11 1.843693 1_555
O27 V9 1.904362 1_555
O28 V12 1.844591 1_555
O28 V4 1.912609 1_555
O29 V13 1.844591 1_555
O29 V5 1.912609 1_555
O30 V12 1.839460 1_555
O30 V2 1.877929 1_555
O31 V13 1.839460 1_555
O31 V3 1.877929 1_555
O32 V14 1.815624 1_555
O32 V2 1.889688 1_555
O33 V15 1.815624 1_555
O33 V3 1.889688 1_555
O34 V14 1.844908 1_555
O34 V4 1.863620 1_555
O35 V15 1.844908 1_555
O35 V5 1.863620 1_555
O36 V16 1.858632 1_554
O36 V0 1.911829 1_555
O37 V17 1.858632 1_556
O37 V1 1.911829 1_555
O38 V16 1.841022 1_555
O38 V8 1.877571 1_555
O39 V17 1.841022 1_555
O39 V9 1.877571 1_555
O40 V0 1.624292 1_455
O41 V1 1.624292 1_655
O42 V2 1.622403 1_455
O43 V3 1.622403 1_655
O44 V4 1.642091 1_555
O45 V5 1.642091 1_555
O46 V8 1.635591 1_555
O47 V9 1.635591 1_555
O48 V10 1.642405 1_565
O49 V11 1.642405 1_545
O50 V12 1.639405 1_555
O51 V13 1.639405 1_555
O52 V14 1.642945 1_555
O53 V15 1.642945 1_555
O54 V16 1.631674 1_554
O55 V17 1.631674 1_556
