# generated using pymatgen
data_KNd(ClO)4
_symmetry_space_group_name_H-M   'P 1'
_cell_length_a   7.27165300
_cell_length_b   8.21987200
_cell_length_c   8.46929600
_cell_angle_alpha   90.00000000
_cell_angle_beta   90.00000000
_cell_angle_gamma   90.00000000
_symmetry_Int_Tables_number   1
_chemical_formula_structural   KNd(ClO)4
_chemical_formula_sum   'K2 Nd2 Cl8 O8'
_cell_volume   506.22724232
_cell_formula_units_Z   2
loop_
 _symmetry_equiv_pos_site_id
 _symmetry_equiv_pos_as_xyz
  1  'x, y, z'
loop_
 _atom_site_type_symbol
 _atom_site_label
 _atom_site_symmetry_multiplicity
 _atom_site_fract_x
 _atom_site_fract_y
 _atom_site_fract_z
 _atom_site_occupancy
  K  K0  1  0.00000000  0.07603900  0.00000000  1
  K  K1  1  0.50000000  0.92396100  0.50000000  1
  Nd  Nd0  1  0.00000000  0.41877300  0.50000000  1
  Nd  Nd1  1  0.50000000  0.58122700  0.00000000  1
  Cl  Cl0  1  0.16599800  0.60741000  0.19627700  1
  Cl  Cl1  1  0.83400200  0.60741000  0.80372300  1
  Cl  Cl2  1  0.33400200  0.39259000  0.69627700  1
  Cl  Cl3  1  0.66599800  0.39259000  0.30372300  1
  Cl  Cl4  1  0.13809200  0.17047400  0.32654300  1
  Cl  Cl5  1  0.86190800  0.17047400  0.67345700  1
  Cl  Cl6  1  0.36190800  0.82952600  0.82654300  1
  Cl  Cl7  1  0.63809200  0.82952600  0.17345700  1
  O  O0  1  0.43679600  0.17396800  0.04902500  1
  O  O1  1  0.56320400  0.17396800  0.95097500  1
  O  O2  1  0.06320400  0.82603200  0.54902500  1
  O  O3  1  0.93679600  0.82603200  0.45097500  1
  O  O4  1  0.23714600  0.57520900  0.38191100  1
  O  O5  1  0.76285400  0.57520900  0.61808900  1
  O  O6  1  0.26285400  0.42479100  0.88191100  1
  O  O7  1  0.73714600  0.42479100  0.11808900  1
loop_
_geom_bond_atom_site_label_1
_geom_bond_atom_site_label_2
_geom_bond_distance
_geom_bond_site_symmetry_2
K0 O1 3.302846 1_454
K0 O0 3.302846 1_555
K1 O2 3.302846 1_555
K1 O3 3.302846 1_555
Nd0 O5 2.372228 1_455
Nd0 O4 2.372228 1_555
Nd1 O7 2.372228 1_555
Nd1 O6 2.372228 1_554
Cl0 O4 1.676158 1_555
Cl0 Nd1 2.951011 1_555
Cl1 O5 1.676158 1_555
Cl1 Nd1 2.951011 1_556
Cl2 O6 1.676158 1_555
Cl2 Nd0 2.951011 1_555
Cl3 O7 1.676158 1_555
Cl3 Nd0 2.951011 1_655
Cl4 Nd0 2.707783 1_555
Cl4 K0 3.042921 1_555
Cl4 K1 3.631767 1_545
Cl5 Nd0 2.707783 1_655
Cl5 K0 3.042921 1_656
Cl5 K1 3.631767 1_545
Cl6 Nd1 2.707783 1_556
Cl6 K1 3.042921 1_555
Cl6 K0 3.631767 1_566
Cl7 Nd1 2.707783 1_555
Cl7 K1 3.042921 1_555
Cl7 K0 3.631767 1_665
O0 O1 1.238753 1_554
O2 O3 1.238753 1_455
