# generated using pymatgen
data_Li4MnCo2O7
_symmetry_space_group_name_H-M   'P 1'
_cell_length_a   17.02856087
_cell_length_b   17.02856087
_cell_length_c   5.18548734
_cell_angle_alpha   86.69174146
_cell_angle_beta   86.69174146
_cell_angle_gamma   9.81609991
_symmetry_Int_Tables_number   1
_chemical_formula_structural   Li4MnCo2O7
_chemical_formula_sum   'Li8 Mn2 Co4 O14'
_cell_volume   255.92073853
_cell_formula_units_Z   2
loop_
 _symmetry_equiv_pos_site_id
 _symmetry_equiv_pos_as_xyz
  1  'x, y, z'
loop_
 _atom_site_type_symbol
 _atom_site_label
 _atom_site_symmetry_multiplicity
 _atom_site_fract_x
 _atom_site_fract_y
 _atom_site_fract_z
 _atom_site_occupancy
  Li  Li0  1  0.50200600  0.50200600  0.49960500  1
  Li  Li1  1  0.07525300  0.07525300  0.64219900  1
  Li  Li2  1  0.64409800  0.64409800  0.79654700  1
  Li  Li3  1  0.21357000  0.21357000  0.92501700  1
  Li  Li4  1  0.78104200  0.78104200  0.06002900  1
  Li  Li5  1  0.92856000  0.92856000  0.35621500  1
  Li  Li6  1  0.35497100  0.35497100  0.21861200  1
  Li  Li7  1  0.71409300  0.71409300  0.42752200  1
  Mn  Mn0  1  0.00020700  0.00020700  0.00705700  1
  Mn  Mn1  1  0.85676000  0.85676000  0.71488800  1
  Co  Co0  1  0.57536000  0.57536000  0.15202100  1
  Co  Co1  1  0.14829300  0.14829300  0.30684200  1
  Co  Co2  1  0.28019600  0.28019600  0.54423000  1
  Co  Co3  1  0.42871700  0.42871700  0.85475800  1
  O  O0  1  0.46819900  0.46819900  0.16915400  1
  O  O1  1  0.03464400  0.03464400  0.29052700  1
  O  O2  1  0.60538700  0.60538700  0.44054700  1
  O  O3  1  0.17528900  0.17528900  0.59067200  1
  O  O4  1  0.75336100  0.75336100  0.73401500  1
  O  O5  1  0.89234000  0.89234000  0.00186700  1
  O  O6  1  0.32674100  0.32674100  0.87462700  1
  O  O7  1  0.53161600  0.53161600  0.85135600  1
  O  O8  1  0.10408000  0.10408000  0.96979800  1
  O  O9  1  0.67540600  0.67540600  0.11931700  1
  O  O10  1  0.25373700  0.25373700  0.25797500  1
  O  O11  1  0.82159100  0.82159100  0.43648800  1
  O  O12  1  0.96598500  0.96598500  0.71247900  1
  O  O13  1  0.38849600  0.38849600  0.54563700  1
loop_
_geom_bond_atom_site_label_1
_geom_bond_atom_site_label_2
_geom_bond_distance
_geom_bond_site_symmetry_2
Li0 O1 2.094144 1_655
Li0 O1 2.094144 1_565
Li0 O0 2.116579 1_555
Li0 O7 2.132782 1_555
Li0 O12 2.163041 1_545
Li0 O12 2.163041 1_455
Li1 O8 2.008751 1_555
Li1 O2 2.034129 1_455
Li1 O2 2.034129 1_545
Li1 O7 2.303334 1_545
Li1 O7 2.303334 1_455
Li1 O1 2.348474 1_555
Li2 O9 2.033691 1_556
Li2 O3 2.061931 1_565
Li2 O3 2.061931 1_655
Li2 O8 2.152272 1_565
Li2 O8 2.152272 1_655
Li2 O2 2.326833 1_555
Li3 O9 2.159533 1_456
Li3 O9 2.159533 1_546
Li3 O4 2.184418 1_545
Li3 O4 2.184418 1_455
Li3 O3 2.225767 1_555
Li3 O10 2.260801 1_556
Li4 O4 1.980938 1_554
Li4 O10 1.981023 1_655
Li4 O10 1.981023 1_565
Li4 O6 2.297555 1_654
Li4 O6 2.297555 1_564
Li4 O11 2.452566 1_555
Li5 O0 2.172899 1_565
Li5 O0 2.172899 1_655
Li5 O13 2.186515 1_565
Li5 O13 2.186515 1_655
Li5 O5 2.269007 1_555
Li5 O12 2.301596 1_555
Li6 O6 2.072971 1_554
Li6 O13 2.096004 1_555
Li6 O11 2.129249 1_455
Li6 O11 2.129249 1_545
Li6 O5 2.197401 1_545
Li6 O5 2.197401 1_455
Li7 O3 2.107843 1_655
Li7 O3 2.107843 1_565
Li7 O9 2.126155 1_555
Li7 O4 2.132291 1_555
Li7 O10 2.137321 1_655
Li7 O10 2.137321 1_565
Mn0 O1 1.930056 1_555
Mn0 O7 1.952092 1_544
Mn0 O7 1.952092 1_454
Mn0 O12 1.971619 1_444
Mn0 O0 1.975597 1_545
Mn0 O0 1.975597 1_455
Mn1 O11 1.925560 1_555
Mn1 O6 1.936115 1_565
Mn1 O6 1.936115 1_655
Mn1 O5 1.969832 1_556
Mn1 O13 1.985707 1_655
Mn1 O13 1.985707 1_565
Co0 O2 1.858271 1_555
Co0 O8 1.964306 1_564
Co0 O8 1.964306 1_654
Co0 O1 2.105294 1_655
Co0 O1 2.105294 1_565
Co0 O7 2.214068 1_554
Co1 O3 1.778056 1_555
Co1 O9 1.952164 1_455
Co1 O9 1.952164 1_545
Co1 O2 2.146158 1_545
Co1 O2 2.146158 1_455
Co1 O8 2.368346 1_554
Co2 O10 1.778709 1_555
Co2 O4 1.953569 1_545
Co2 O4 1.953569 1_455
Co2 O11 2.077690 1_455
Co2 O11 2.077690 1_545
Co2 O6 2.396492 1_555
Co3 O5 2.029545 1_456
Co3 O5 2.029545 1_546
Co3 O12 2.039122 1_545
Co3 O12 2.039122 1_455
Co3 O13 2.164601 1_555
Co3 O0 2.169264 1_556
