# generated using pymatgen
data_V7S8
_symmetry_space_group_name_H-M   'P 1'
_cell_length_a   6.39090554
_cell_length_b   6.39090554
_cell_length_c   8.17857516
_cell_angle_alpha   54.14249270
_cell_angle_beta   54.14249270
_cell_angle_gamma   59.99141266
_symmetry_Int_Tables_number   1
_chemical_formula_structural   V7S8
_chemical_formula_sum   'V7 S8'
_cell_volume   213.06372239
_cell_formula_units_Z   1
loop_
 _symmetry_equiv_pos_site_id
 _symmetry_equiv_pos_as_xyz
  1  'x, y, z'
loop_
 _atom_site_type_symbol
 _atom_site_label
 _atom_site_symmetry_multiplicity
 _atom_site_fract_x
 _atom_site_fract_y
 _atom_site_fract_z
 _atom_site_occupancy
  V  V0  1  0.75088700  0.24911300  0.50000000  1
  V  V1  1  0.24911300  0.75088700  0.50000000  1
  V  V2  1  0.74741400  0.74741400  0.50551700  1
  V  V3  1  0.25258600  0.25258600  0.49448300  1
  V  V4  1  0.00000000  0.50000000  0.00000000  1
  V  V5  1  0.50000000  0.00000000  0.00000000  1
  V  V6  1  0.00000000  0.00000000  0.00000000  1
  S  S0  1  0.04813000  0.54094800  0.24639800  1
  S  S1  1  0.54094800  0.04813000  0.24639800  1
  S  S2  1  0.04035900  0.04035900  0.25249700  1
  S  S3  1  0.54159400  0.54159400  0.24465400  1
  S  S4  1  0.45840600  0.45840600  0.75534600  1
  S  S5  1  0.95964100  0.95964100  0.74750300  1
  S  S6  1  0.45905200  0.95187000  0.75360200  1
  S  S7  1  0.95187000  0.45905200  0.75360200  1
loop_
_geom_bond_atom_site_label_1
_geom_bond_atom_site_label_2
_geom_bond_distance
_geom_bond_site_symmetry_2
S0 V3 2.353098 1_555
S0 V4 2.376679 1_555
S0 V6 2.379040 1_565
S0 V0 2.405231 1_455
S0 V2 2.427691 1_455
S1 V3 2.353098 1_555
S1 V5 2.376679 1_555
S1 V6 2.379040 1_655
S1 V1 2.405231 1_545
S1 V2 2.427691 1_545
S2 V0 2.368063 1_455
S2 V1 2.368063 1_545
S2 V6 2.390006 1_555
S2 V4 2.391530 1_555
S2 V5 2.391530 1_555
S2 V2 2.391808 1_445
S3 V3 2.359576 1_555
S3 V5 2.373544 1_565
S3 V4 2.373544 1_655
S3 V1 2.417179 1_555
S3 V0 2.417179 1_555
S4 V2 2.359576 1_555
S4 V5 2.373544 1_556
S4 V4 2.373544 1_556
S4 V0 2.417179 1_555
S4 V1 2.417179 1_555
S5 V0 2.368063 1_565
S5 V1 2.368063 1_655
S5 V6 2.390006 1_666
S5 V5 2.391530 1_566
S5 V4 2.391530 1_656
S5 V3 2.391808 1_665
S6 V2 2.353098 1_555
S6 V5 2.376679 1_566
S6 V6 2.379040 1_566
S6 V0 2.405231 1_565
S6 V3 2.427691 1_565
S7 V2 2.353098 1_555
S7 V4 2.376679 1_656
S7 V6 2.379040 1_656
S7 V1 2.405231 1_655
S7 V3 2.427691 1_655
