# generated using pymatgen
data_HfMg14Co
_symmetry_space_group_name_H-M   'P 1'
_cell_length_a   6.35609867
_cell_length_b   6.09259302
_cell_length_c   10.08102228
_cell_angle_alpha   90.00000000
_cell_angle_beta   90.00000000
_cell_angle_gamma   118.63783404
_symmetry_Int_Tables_number   1
_chemical_formula_structural   HfMg14Co
_chemical_formula_sum   'Hf1 Mg14 Co1'
_cell_volume   342.63126505
_cell_formula_units_Z   1
loop_
 _symmetry_equiv_pos_site_id
 _symmetry_equiv_pos_as_xyz
  1  'x, y, z'
loop_
 _atom_site_type_symbol
 _atom_site_label
 _atom_site_symmetry_multiplicity
 _atom_site_fract_x
 _atom_site_fract_y
 _atom_site_fract_z
 _atom_site_occupancy
  Hf  Hf0  1  0.13912956  0.81956428  0.12500000  1
  Mg  Mg0  1  0.16179362  0.33089631  0.62500000  1
  Mg  Mg1  1  0.16865941  0.83432920  0.62500000  1
  Mg  Mg2  1  0.64072876  0.33135511  0.12500000  1
  Mg  Mg3  1  0.66165252  0.32710761  0.62500000  1
  Mg  Mg4  1  0.64072876  0.80937265  0.12500000  1
  Mg  Mg5  1  0.66165252  0.83454391  0.62500000  1
  Mg  Mg6  1  0.33513944  0.16999591  0.36437344  1
  Mg  Mg7  1  0.33513944  0.16999591  0.88562656  1
  Mg  Mg8  1  0.33513944  0.66514454  0.36437344  1
  Mg  Mg9  1  0.33513944  0.66514454  0.88562656  1
  Mg  Mg10  1  0.86444038  0.18222069  0.34732878  1
  Mg  Mg11  1  0.86444038  0.18222069  0.90267122  1
  Mg  Mg12  1  0.84160487  0.67080294  0.38085757  1
  Mg  Mg13  1  0.84160487  0.67080294  0.86914243  1
  Co  Co0  1  0.17300657  0.33650279  0.12500000  1
loop_
_geom_bond_atom_site_label_1
_geom_bond_atom_site_label_2
_geom_bond_distance
_geom_bond_site_symmetry_2
Hf0 Mg9 3.063335 1_554
Hf0 Mg8 3.063335 1_555
Hf0 Mg7 3.063341 1_564
Hf0 Mg6 3.063341 1_565
Hf0 Mg13 3.067180 1_454
Hf0 Mg12 3.067180 1_455
Hf0 Mg2 3.138598 1_455
Hf0 Mg4 3.138598 1_455
Hf0 Mg2 3.218435 1_565
Hf0 Mg4 3.218435 1_555
Mg0 Mg1 3.046537 1_555
Mg0 Mg1 3.046537 1_545
Mg0 Mg5 3.167948 1_445
Mg0 Mg3 3.167948 1_455
Mg0 Mg6 3.180160 1_555
Mg0 Mg7 3.180160 1_555
Mg0 Mg8 3.180166 1_555
Mg0 Mg9 3.180166 1_555
Mg0 Mg5 3.188280 1_555
Mg0 Mg3 3.188280 1_555
Mg0 Mg11 3.253795 1_455
Mg0 Mg10 3.253795 1_455
Mg1 Mg12 3.063703 1_455
Mg1 Mg13 3.063703 1_455
Mg1 Mg3 3.132886 1_565
Mg1 Mg5 3.132886 1_555
Mg1 Mg8 3.182899 1_555
Mg1 Mg9 3.182899 1_555
Mg1 Mg6 3.182905 1_565
Mg1 Mg7 3.182905 1_565
Mg1 Mg3 3.223213 1_455
Mg1 Mg5 3.223213 1_455
Mg2 Mg4 2.912366 1_555
Mg2 Mg7 2.955005 1_554
Mg2 Mg6 2.955005 1_555
Mg2 Mg4 3.180227 1_545
Mg3 Mg5 3.000990 1_545
Mg3 Mg5 3.091603 1_555
Mg3 Mg6 3.197229 1_555
Mg3 Mg7 3.197229 1_555
Mg4 Mg9 2.955006 1_554
Mg4 Mg8 2.955006 1_555
Mg5 Mg8 3.197229 1_555
Mg5 Mg9 3.197229 1_555
Mg6 Mg8 3.016739 1_555
Mg6 Mg8 3.075854 1_545
Mg7 Mg9 3.016739 1_555
Mg7 Mg9 3.075854 1_545
Mg10 Mg2 3.018168 1_555
Mg10 Mg4 3.018174 1_545
Mg10 Mg8 3.033083 1_655
Mg10 Mg6 3.033083 1_655
Mg10 Mg12 3.067637 1_545
Mg10 Mg12 3.067637 1_555
Mg10 Mg8 3.333665 1_545
Mg10 Mg6 3.333666 1_555
Mg10 Mg3 3.371467 1_555
Mg10 Mg5 3.371472 1_545
Mg11 Mg2 3.018168 1_556
Mg11 Mg4 3.018174 1_546
Mg11 Mg9 3.033083 1_655
Mg11 Mg7 3.033083 1_655
Mg11 Mg13 3.067637 1_545
Mg11 Mg13 3.067637 1_555
Mg11 Mg9 3.333665 1_545
Mg11 Mg7 3.333666 1_555
Mg11 Mg3 3.371467 1_555
Mg11 Mg5 3.371472 1_545
Mg12 Mg5 3.074861 1_555
Mg12 Mg3 3.074867 1_555
Mg12 Mg6 3.157997 1_665
Mg12 Mg8 3.157997 1_655
Mg12 Mg4 3.166860 1_555
Mg12 Mg2 3.166866 1_555
Mg12 Mg6 3.207073 1_555
Mg12 Mg8 3.207073 1_555
Mg13 Mg5 3.074861 1_555
Mg13 Mg3 3.074867 1_555
Mg13 Mg7 3.157997 1_665
Mg13 Mg9 3.157997 1_655
Mg13 Mg4 3.166860 1_556
Mg13 Mg2 3.166866 1_556
Mg13 Mg7 3.207073 1_555
Mg13 Mg9 3.207073 1_555
Co0 Mg10 2.826034 1_455
Co0 Mg11 2.826034 1_454
Co0 Mg7 2.986035 1_554
Co0 Mg6 2.986035 1_555
Co0 Mg9 2.986041 1_554
Co0 Mg8 2.986041 1_555
Co0 Mg4 2.988046 1_555
Co0 Mg2 2.988046 1_555
Co0 Hf0 3.052153 1_555
Co0 Hf0 3.052153 1_545
Co0 Mg4 3.368291 1_445
Co0 Mg2 3.368291 1_455
