# generated using pymatgen
data_GaAgO2
_symmetry_space_group_name_H-M   'P 1'
_cell_length_a   5.56504400
_cell_length_b   5.66051200
_cell_length_c   7.23236700
_cell_angle_alpha   90.00000000
_cell_angle_beta   90.00000000
_cell_angle_gamma   90.00000000
_symmetry_Int_Tables_number   1
_chemical_formula_structural   GaAgO2
_chemical_formula_sum   'Ga4 Ag4 O8'
_cell_volume   227.82678088
_cell_formula_units_Z   4
loop_
 _symmetry_equiv_pos_site_id
 _symmetry_equiv_pos_as_xyz
  1  'x, y, z'
loop_
 _atom_site_type_symbol
 _atom_site_label
 _atom_site_symmetry_multiplicity
 _atom_site_fract_x
 _atom_site_fract_y
 _atom_site_fract_z
 _atom_site_occupancy
  Ga  Ga0  1  0.00036400  0.56022000  0.37557000  1
  Ga  Ga1  1  0.50036400  0.43978000  0.62443000  1
  Ga  Ga2  1  0.50036400  0.93978000  0.87557000  1
  Ga  Ga3  1  0.00036400  0.06022000  0.12443000  1
  Ag  Ag0  1  0.49449000  0.94958000  0.37517400  1
  Ag  Ag1  1  0.99449000  0.05042000  0.62482600  1
  Ag  Ag2  1  0.99449000  0.55042000  0.87517400  1
  Ag  Ag3  1  0.49449000  0.44958000  0.12482600  1
  O  O0  1  0.42191100  0.12246400  0.66842400  1
  O  O1  1  0.92191100  0.87753600  0.33157600  1
  O  O2  1  0.92191100  0.37753600  0.16842400  1
  O  O3  1  0.42191100  0.62246400  0.83157600  1
  O  O4  1  0.33173600  0.04095100  0.08341500  1
  O  O5  1  0.83173600  0.95904900  0.91658500  1
  O  O6  1  0.83173600  0.45904900  0.58341500  1
  O  O7  1  0.33173600  0.54095100  0.41658500  1
loop_
_geom_bond_atom_site_label_1
_geom_bond_atom_site_label_2
_geom_bond_distance
_geom_bond_site_symmetry_2
Ga0 O6 1.862322 1_455
Ga0 O7 1.870987 1_555
Ga0 O2 1.872009 1_455
Ga0 O1 1.875656 1_455
Ga1 O7 1.862322 1_555
Ga1 O6 1.870987 1_555
Ga1 O3 1.872009 1_555
Ga1 O0 1.875656 1_555
Ga2 O4 1.862322 1_566
Ga2 O5 1.870987 1_555
Ga2 O0 1.872009 1_565
Ga2 O3 1.875656 1_555
Ga3 O5 1.862322 1_444
Ga3 O4 1.870987 1_555
Ga3 O1 1.872009 1_445
Ga3 O2 1.875656 1_455
Ag0 O4 2.353808 1_565
Ag0 O0 2.370443 1_565
Ag0 O1 2.433834 1_555
Ag0 O7 2.502049 1_555
Ag1 O5 2.353808 1_545
Ag1 O1 2.370443 1_545
Ag1 O0 2.433834 1_655
Ag1 O6 2.502049 1_555
Ag2 O6 2.353808 1_555
Ag2 O2 2.370443 1_556
Ag2 O3 2.433834 1_655
Ag2 O5 2.502049 1_555
Ag3 O7 2.353808 1_555
Ag3 O3 2.370443 1_554
Ag3 O2 2.433834 1_555
Ag3 O4 2.502049 1_555
