# generated using pymatgen
data_Mg(InS2)2
_symmetry_space_group_name_H-M   'P 1'
_cell_length_a   6.80036614
_cell_length_b   7.84756712
_cell_length_c   12.92914105
_cell_angle_alpha   98.75991714
_cell_angle_beta   94.93052826
_cell_angle_gamma   89.98022851
_symmetry_Int_Tables_number   1
_chemical_formula_structural   Mg(InS2)2
_chemical_formula_sum   'Mg4 In8 S16'
_cell_volume   679.35199319
_cell_formula_units_Z   4
loop_
 _symmetry_equiv_pos_site_id
 _symmetry_equiv_pos_as_xyz
  1  'x, y, z'
loop_
 _atom_site_type_symbol
 _atom_site_label
 _atom_site_symmetry_multiplicity
 _atom_site_fract_x
 _atom_site_fract_y
 _atom_site_fract_z
 _atom_site_occupancy
  Mg  Mg0  1  0.86775245  0.80273931  0.70155525  1
  Mg  Mg1  1  0.13224755  0.19726069  0.29844475  1
  Mg  Mg2  1  0.75051255  0.62500534  0.99819039  1
  Mg  Mg3  1  0.24948745  0.37499466  0.00180961  1
  In  In0  1  0.86113677  0.30191516  0.70477080  1
  In  In1  1  0.13886323  0.69808484  0.29522920  1
  In  In2  1  0.76088555  0.12390068  0.00030644  1
  In  In3  1  0.23911445  0.87609932  0.99969356  1
  In  In4  1  0.62976660  0.44389053  0.29367440  1
  In  In5  1  0.37023340  0.55610947  0.70632560  1
  In  In6  1  0.62910634  0.95321725  0.29768787  1
  In  In7  1  0.37089366  0.04678275  0.70231213  1
  S  S0  1  0.90194634  0.35215931  0.89581021  1
  S  S1  1  0.09805366  0.64784069  0.10418979  1
  S  S2  1  0.89563389  0.84690282  0.89241466  1
  S  S3  1  0.10436611  0.15309718  0.10758534  1
  S  S4  1  0.81385367  0.21889064  0.37442415  1
  S  S5  1  0.18614633  0.78110936  0.62557585  1
  S  S6  1  0.81259321  0.71717262  0.37318049  1
  S  S7  1  0.18740679  0.28282738  0.62681951  1
  S  S8  1  0.68979250  0.03075310  0.62428079  1
  S  S9  1  0.31020750  0.96924690  0.37571921  1
  S  S10  1  0.68850486  0.53462072  0.62677859  1
  S  S11  1  0.31149514  0.46537928  0.37322141  1
  S  S12  1  0.59802476  0.89866696  0.10475455  1
  S  S13  1  0.40197524  0.10133304  0.89524545  1
  S  S14  1  0.60147165  0.40083475  0.10229991  1
  S  S15  1  0.39852835  0.59916525  0.89770009  1
loop_
_geom_bond_atom_site_label_1
_geom_bond_atom_site_label_2
_geom_bond_distance
_geom_bond_site_symmetry_2
Mg0 S2 2.429913 1_555
Mg0 S5 2.448768 1_655
Mg0 S8 2.449434 1_565
Mg0 S10 2.455051 1_555
Mg1 S3 2.429913 1_555
Mg1 S4 2.448768 1_455
Mg1 S9 2.449434 1_545
Mg1 S11 2.455051 1_555
Mg2 S0 2.601308 1_555
Mg2 S2 2.614402 1_555
Mg2 S15 2.616125 1_555
Mg2 S1 2.620065 1_656
Mg2 S14 2.625042 1_556
Mg2 S12 2.632204 1_556
Mg3 S1 2.601308 1_555
Mg3 S3 2.614402 1_555
Mg3 S14 2.616125 1_555
Mg3 S0 2.620065 1_454
Mg3 S15 2.625042 1_554
Mg3 S13 2.632204 1_554
In0 S0 2.432873 1_555
In0 S10 2.466946 1_555
In0 S8 2.467321 1_555
In0 S7 2.509828 1_655
In1 S1 2.432873 1_555
In1 S11 2.466946 1_555
In1 S9 2.467321 1_555
In1 S6 2.509828 1_455
In2 S3 2.603638 1_655
In2 S2 2.608742 1_544
In2 S0 2.629692 1_554
In2 S14 2.647340 1_555
In2 S12 2.675797 1_545
In2 S13 2.681553 1_554
In3 S2 2.603638 1_455
In3 S3 2.608742 1_566
In3 S1 2.629692 1_556
In3 S15 2.647340 1_555
In3 S13 2.675797 1_565
In3 S12 2.681553 1_556
In4 S14 2.436586 1_555
In4 S11 2.469863 1_555
In4 S4 2.471871 1_555
In4 S6 2.512453 1_555
In5 S15 2.436586 1_555
In5 S10 2.469863 1_555
In5 S5 2.471871 1_555
In5 S7 2.512453 1_555
In6 S12 2.456512 1_555
In6 S4 2.463131 1_565
In6 S9 2.464519 1_555
In6 S6 2.506130 1_555
In7 S13 2.456512 1_555
In7 S5 2.463131 1_545
In7 S8 2.464519 1_555
In7 S7 2.506130 1_555
