# generated using pymatgen
data_CsMg30BiO32
_symmetry_space_group_name_H-M   'P 1'
_cell_length_a   8.74536000
_cell_length_b   8.74536000
_cell_length_c   8.72954400
_cell_angle_alpha   90.00000000
_cell_angle_beta   90.00000000
_cell_angle_gamma   90.00000000
_symmetry_Int_Tables_number   1
_chemical_formula_structural   CsMg30BiO32
_chemical_formula_sum   'Cs1 Mg30 Bi1 O32'
_cell_volume   667.64706147
_cell_formula_units_Z   1
loop_
 _symmetry_equiv_pos_site_id
 _symmetry_equiv_pos_as_xyz
  1  'x, y, z'
loop_
 _atom_site_type_symbol
 _atom_site_label
 _atom_site_symmetry_multiplicity
 _atom_site_fract_x
 _atom_site_fract_y
 _atom_site_fract_z
 _atom_site_occupancy
  Cs  Cs0  1  0.00000000  0.00000000  0.00000000  1
  Mg  Mg0  1  0.50000000  0.00000000  0.00000000  1
  Mg  Mg1  1  0.00000000  0.50000000  0.00000000  1
  Mg  Mg2  1  0.00000000  0.00000000  0.50000000  1
  Mg  Mg3  1  0.50000000  0.00000000  0.50000000  1
  Mg  Mg4  1  0.00000000  0.50000000  0.50000000  1
  Mg  Mg5  1  0.50000000  0.50000000  0.50000000  1
  Mg  Mg6  1  0.24620000  0.24620000  0.00000000  1
  Mg  Mg7  1  0.75380000  0.24620000  0.00000000  1
  Mg  Mg8  1  0.24620000  0.75380000  0.00000000  1
  Mg  Mg9  1  0.75380000  0.75380000  0.00000000  1
  Mg  Mg10  1  0.24881600  0.24881600  0.50000000  1
  Mg  Mg11  1  0.75118400  0.24881600  0.50000000  1
  Mg  Mg12  1  0.24881600  0.75118400  0.50000000  1
  Mg  Mg13  1  0.75118400  0.75118400  0.50000000  1
  Mg  Mg14  1  0.25363900  0.00000000  0.25548600  1
  Mg  Mg15  1  0.74636100  0.00000000  0.25548600  1
  Mg  Mg16  1  0.24173100  0.50000000  0.25739100  1
  Mg  Mg17  1  0.75826900  0.50000000  0.25739100  1
  Mg  Mg18  1  0.25363900  0.00000000  0.74451400  1
  Mg  Mg19  1  0.74636100  0.00000000  0.74451400  1
  Mg  Mg20  1  0.24173100  0.50000000  0.74260900  1
  Mg  Mg21  1  0.75826900  0.50000000  0.74260900  1
  Mg  Mg22  1  0.00000000  0.25363900  0.25548600  1
  Mg  Mg23  1  0.50000000  0.24173100  0.25739100  1
  Mg  Mg24  1  0.00000000  0.74636100  0.25548600  1
  Mg  Mg25  1  0.50000000  0.75826900  0.25739100  1
  Mg  Mg26  1  0.00000000  0.25363900  0.74451400  1
  Mg  Mg27  1  0.50000000  0.24173100  0.74260900  1
  Mg  Mg28  1  0.00000000  0.74636100  0.74451400  1
  Mg  Mg29  1  0.50000000  0.75826900  0.74260900  1
  Bi  Bi0  1  0.50000000  0.50000000  0.00000000  1
  O  O0  1  0.00000000  0.00000000  0.28506800  1
  O  O1  1  0.50000000  0.00000000  0.25972500  1
  O  O2  1  0.00000000  0.50000000  0.25972500  1
  O  O3  1  0.50000000  0.50000000  0.26657800  1
  O  O4  1  0.00000000  0.00000000  0.71493200  1
  O  O5  1  0.50000000  0.00000000  0.74027500  1
  O  O6  1  0.00000000  0.50000000  0.74027500  1
  O  O7  1  0.50000000  0.50000000  0.73342200  1
  O  O8  1  0.25058200  0.25058200  0.24882800  1
  O  O9  1  0.74941800  0.25058200  0.24882800  1
  O  O10  1  0.25058200  0.74941800  0.24882800  1
  O  O11  1  0.74941800  0.74941800  0.24882800  1
  O  O12  1  0.25058200  0.25058200  0.75117200  1
  O  O13  1  0.74941800  0.25058200  0.75117200  1
  O  O14  1  0.25058200  0.74941800  0.75117200  1
  O  O15  1  0.74941800  0.74941800  0.75117200  1
  O  O16  1  0.28393200  0.00000000  0.00000000  1
  O  O17  1  0.71606800  0.00000000  0.00000000  1
  O  O18  1  0.23832800  0.50000000  0.00000000  1
  O  O19  1  0.76167200  0.50000000  0.00000000  1
  O  O20  1  0.25738400  0.00000000  0.50000000  1
  O  O21  1  0.74261600  0.00000000  0.50000000  1
  O  O22  1  0.24991000  0.50000000  0.50000000  1
  O  O23  1  0.75009000  0.50000000  0.50000000  1
  O  O24  1  0.00000000  0.28393200  0.00000000  1
  O  O25  1  0.50000000  0.23832800  0.00000000  1
  O  O26  1  0.00000000  0.71606800  0.00000000  1
  O  O27  1  0.50000000  0.76167200  0.00000000  1
  O  O28  1  0.00000000  0.25738400  0.50000000  1
  O  O29  1  0.50000000  0.24991000  0.50000000  1
  O  O30  1  0.00000000  0.74261600  0.50000000  1
  O  O31  1  0.50000000  0.75009000  0.50000000  1
loop_
_geom_bond_atom_site_label_1
_geom_bond_atom_site_label_2
_geom_bond_distance
_geom_bond_site_symmetry_2
Cs0 O26 2.483088 1_545
Cs0 O17 2.483088 1_455
Cs0 O24 2.483088 1_555
Cs0 O16 2.483088 1_555
Cs0 O0 2.488514 1_555
Cs0 O4 2.488514 1_554
Mg0 O16 1.889592 1_555
Mg0 O17 1.889592 1_555
Mg0 O25 2.084264 1_555
Mg0 O27 2.084264 1_545
Mg0 O1 2.267281 1_555
Mg0 O5 2.267281 1_554
Mg1 O24 1.889592 1_555
Mg1 O26 1.889592 1_555
Mg1 O19 2.084264 1_455
Mg1 O18 2.084264 1_555
Mg1 O2 2.267281 1_555
Mg1 O6 2.267281 1_554
Mg2 O0 1.876258 1_555
Mg2 O4 1.876258 1_555
Mg2 O21 2.250916 1_455
Mg2 O30 2.250916 1_545
Mg2 O20 2.250916 1_555
Mg2 O28 2.250916 1_555
Mg3 O5 2.097491 1_555
Mg3 O1 2.097491 1_555
Mg3 O20 2.121764 1_555
Mg3 O21 2.121764 1_555
Mg3 O31 2.185553 1_545
Mg3 O29 2.185553 1_555
Mg4 O2 2.097491 1_555
Mg4 O6 2.097491 1_555
Mg4 O28 2.121764 1_555
Mg4 O30 2.121764 1_555
Mg4 O23 2.185553 1_455
Mg4 O22 2.185553 1_555
Mg5 O7 2.037668 1_555
Mg5 O3 2.037668 1_555
Mg5 O31 2.187127 1_555
Mg5 O22 2.187127 1_555
Mg5 O23 2.187127 1_555
Mg5 O29 2.187127 1_555
Mg6 O8 2.172831 1_555
Mg6 O12 2.172831 1_554
Mg6 O24 2.178247 1_555
Mg6 O16 2.178247 1_555
Mg6 O25 2.220640 1_555
Mg6 O18 2.220640 1_555
Mg7 O9 2.172831 1_555
Mg7 O13 2.172831 1_554
Mg7 O17 2.178247 1_555
Mg7 O24 2.178247 1_655
Mg7 O25 2.220640 1_555
Mg7 O19 2.220640 1_555
Mg8 O10 2.172831 1_555
Mg8 O14 2.172831 1_554
Mg8 O16 2.178247 1_565
Mg8 O26 2.178247 1_555
Mg8 O27 2.220640 1_555
Mg8 O18 2.220640 1_555
Mg9 O11 2.172831 1_555
Mg9 O15 2.172831 1_554
Mg9 O17 2.178247 1_565
Mg9 O26 2.178247 1_655
Mg9 O27 2.220640 1_555
Mg9 O19 2.220640 1_555
Mg10 O20 2.177275 1_555
Mg10 O28 2.177275 1_555
Mg10 O12 2.192726 1_555
Mg10 O8 2.192726 1_555
Mg10 O29 2.196715 1_555
Mg10 O22 2.196715 1_555
Mg11 O21 2.177275 1_555
Mg11 O28 2.177275 1_655
Mg11 O13 2.192726 1_555
Mg11 O9 2.192726 1_555
Mg11 O29 2.196715 1_555
Mg11 O23 2.196715 1_555
Mg12 O30 2.177275 1_555
Mg12 O20 2.177275 1_565
Mg12 O14 2.192726 1_555
Mg12 O10 2.192726 1_555
Mg12 O31 2.196715 1_555
Mg12 O22 2.196715 1_555
Mg13 O21 2.177275 1_565
Mg13 O30 2.177275 1_655
Mg13 O15 2.192726 1_555
Mg13 O11 2.192726 1_555
Mg13 O31 2.196715 1_555
Mg13 O23 2.196715 1_555
Mg14 O20 2.134747 1_555
Mg14 O1 2.154833 1_555
Mg14 O10 2.192363 1_545
Mg14 O8 2.192363 1_555
Mg14 O0 2.233146 1_555
Mg14 O16 2.245956 1_555
Mg15 O21 2.134747 1_555
Mg15 O1 2.154833 1_555
Mg15 O11 2.192363 1_545
Mg15 O9 2.192363 1_555
Mg15 O0 2.233146 1_655
Mg15 O17 2.245956 1_555
Mg16 O2 2.114123 1_555
Mg16 O22 2.119073 1_555
Mg16 O8 2.183903 1_555
Mg16 O10 2.183903 1_555
Mg16 O18 2.247103 1_555
Mg16 O3 2.260079 1_555
Mg17 O2 2.114123 1_655
Mg17 O23 2.119073 1_555
Mg17 O9 2.183903 1_555
Mg17 O11 2.183903 1_555
Mg17 O19 2.247103 1_555
Mg17 O3 2.260079 1_555
Mg18 O20 2.134747 1_555
Mg18 O5 2.154833 1_555
Mg18 O14 2.192363 1_545
Mg18 O12 2.192363 1_555
Mg18 O4 2.233146 1_555
Mg18 O16 2.245956 1_556
Mg19 O21 2.134747 1_555
Mg19 O5 2.154833 1_555
Mg19 O15 2.192363 1_545
Mg19 O13 2.192363 1_555
Mg19 O4 2.233146 1_655
Mg19 O17 2.245956 1_556
Mg20 O6 2.114123 1_555
Mg20 O22 2.119073 1_555
Mg20 O12 2.183903 1_555
Mg20 O14 2.183903 1_555
Mg20 O18 2.247103 1_556
Mg20 O7 2.260079 1_555
Mg21 O6 2.114123 1_655
Mg21 O23 2.119073 1_555
Mg21 O13 2.183903 1_555
Mg21 O15 2.183903 1_555
Mg21 O19 2.247103 1_556
Mg21 O7 2.260079 1_555
Mg22 O28 2.134747 1_555
Mg22 O2 2.154833 1_555
Mg22 O9 2.192363 1_455
Mg22 O8 2.192363 1_555
Mg22 O0 2.233146 1_555
Mg22 O24 2.245956 1_555
Mg23 O1 2.114123 1_555
Mg23 O29 2.119073 1_555
Mg23 O8 2.183903 1_555
Mg23 O9 2.183903 1_555
Mg23 O25 2.247103 1_555
Mg23 O3 2.260079 1_555
Mg24 O30 2.134747 1_555
Mg24 O2 2.154833 1_555
Mg24 O11 2.192363 1_455
Mg24 O10 2.192363 1_555
Mg24 O0 2.233146 1_565
Mg24 O26 2.245956 1_555
Mg25 O1 2.114123 1_565
Mg25 O31 2.119073 1_555
Mg25 O10 2.183903 1_555
Mg25 O11 2.183903 1_555
Mg25 O27 2.247103 1_555
Mg25 O3 2.260079 1_555
Mg26 O28 2.134747 1_555
Mg26 O6 2.154833 1_555
Mg26 O13 2.192363 1_455
Mg26 O12 2.192363 1_555
Mg26 O4 2.233146 1_555
Mg26 O24 2.245956 1_556
Mg27 O5 2.114123 1_555
Mg27 O29 2.119073 1_555
Mg27 O12 2.183903 1_555
Mg27 O13 2.183903 1_555
Mg27 O25 2.247103 1_556
Mg27 O7 2.260079 1_555
Mg28 O30 2.134747 1_555
Mg28 O6 2.154833 1_555
Mg28 O15 2.192363 1_455
Mg28 O14 2.192363 1_555
Mg28 O4 2.233146 1_565
Mg28 O26 2.245956 1_556
Mg29 O5 2.114123 1_565
Mg29 O31 2.119073 1_555
Mg29 O14 2.183903 1_555
Mg29 O15 2.183903 1_555
Mg29 O27 2.247103 1_556
Mg29 O7 2.260079 1_555
Bi0 O27 2.288416 1_555
Bi0 O25 2.288416 1_555
Bi0 O18 2.288416 1_555
Bi0 O19 2.288416 1_555
Bi0 O7 2.327104 1_554
Bi0 O3 2.327104 1_555
