# generated using pymatgen
data_RbMg14CoO16
_symmetry_space_group_name_H-M   'P 1'
_cell_length_a   8.79348236
_cell_length_b   8.65852652
_cell_length_c   4.33653134
_cell_angle_alpha   90.00000000
_cell_angle_beta   90.00000000
_cell_angle_gamma   90.00000000
_symmetry_Int_Tables_number   1
_chemical_formula_structural   RbMg14CoO16
_chemical_formula_sum   'Rb1 Mg14 Co1 O16'
_cell_volume   330.17742603
_cell_formula_units_Z   1
loop_
 _symmetry_equiv_pos_site_id
 _symmetry_equiv_pos_as_xyz
  1  'x, y, z'
loop_
 _atom_site_type_symbol
 _atom_site_label
 _atom_site_symmetry_multiplicity
 _atom_site_fract_x
 _atom_site_fract_y
 _atom_site_fract_z
 _atom_site_occupancy
  Rb  Rb0  1  0.00000000  0.50000000  0.00000000  1
  Mg  Mg0  1  0.50000000  0.00000000  0.00000000  1
  Mg  Mg1  1  0.50000000  0.50000000  0.00000000  1
  Mg  Mg2  1  0.00000000  0.23887494  0.50000000  1
  Mg  Mg3  1  0.00000000  0.76112506  0.50000000  1
  Mg  Mg4  1  0.50000000  0.24808253  0.50000000  1
  Mg  Mg5  1  0.50000000  0.75191747  0.50000000  1
  Mg  Mg6  1  0.25218995  0.00000000  0.50000000  1
  Mg  Mg7  1  0.26435337  0.50000000  0.50000000  1
  Mg  Mg8  1  0.74781005  0.00000000  0.50000000  1
  Mg  Mg9  1  0.73564663  0.50000000  0.50000000  1
  Mg  Mg10  1  0.25697020  0.24639882  0.00000000  1
  Mg  Mg11  1  0.25697020  0.75360118  0.00000000  1
  Mg  Mg12  1  0.74302980  0.24639882  0.00000000  1
  Mg  Mg13  1  0.74302980  0.75360118  0.00000000  1
  Co  Co0  1  0.00000000  0.00000000  0.00000000  1
  O  O0  1  0.25926597  0.00000000  0.00000000  1
  O  O1  1  0.27897501  0.50000000  0.00000000  1
  O  O2  1  0.74073403  0.00000000  0.00000000  1
  O  O3  1  0.72102499  0.50000000  0.00000000  1
  O  O4  1  0.24741971  0.25025648  0.50000000  1
  O  O5  1  0.24741971  0.74974352  0.50000000  1
  O  O6  1  0.75258029  0.25025648  0.50000000  1
  O  O7  1  0.75258029  0.74974352  0.50000000  1
  O  O8  1  0.00000000  0.00000000  0.50000000  1
  O  O9  1  0.00000000  0.50000000  0.50000000  1
  O  O10  1  0.50000000  0.00000000  0.50000000  1
  O  O11  1  0.50000000  0.50000000  0.50000000  1
  O  O12  1  0.00000000  0.21741906  0.00000000  1
  O  O13  1  0.00000000  0.78258094  0.00000000  1
  O  O14  1  0.50000000  0.24402664  0.00000000  1
  O  O15  1  0.50000000  0.75597336  0.00000000  1
loop_
_geom_bond_atom_site_label_1
_geom_bond_atom_site_label_2
_geom_bond_distance
_geom_bond_site_symmetry_2
Mg0 O15 2.112911 1_545
Mg0 O14 2.112911 1_555
Mg0 O0 2.116890 1_555
Mg0 O2 2.116890 1_555
Mg0 O10 2.168266 1_554
Mg0 O10 2.168266 1_555
Mg1 O3 1.943579 1_555
Mg1 O1 1.943579 1_555
Mg1 O11 2.168266 1_554
Mg1 O11 2.168266 1_555
Mg1 O14 2.216352 1_555
Mg1 O15 2.216352 1_555
Mg2 O8 2.068305 1_555
Mg2 O12 2.176210 1_555
Mg2 O12 2.176210 1_556
Mg2 O4 2.177912 1_555
Mg2 O6 2.177912 1_455
Mg2 O9 2.260958 1_555
Mg3 O8 2.068305 1_565
Mg3 O13 2.176210 1_556
Mg3 O13 2.176210 1_555
Mg3 O5 2.177912 1_555
Mg3 O7 2.177912 1_455
Mg3 O9 2.260958 1_555
Mg4 O10 2.148029 1_555
Mg4 O14 2.168550 1_556
Mg4 O14 2.168550 1_555
Mg4 O11 2.181234 1_555
Mg4 O6 2.221140 1_555
Mg4 O4 2.221140 1_555
Mg5 O10 2.148029 1_565
Mg5 O15 2.168550 1_556
Mg5 O15 2.168550 1_555
Mg5 O11 2.181234 1_555
Mg5 O5 2.221140 1_555
Mg5 O7 2.221140 1_555
Mg6 O5 2.167258 1_545
Mg6 O4 2.167258 1_555
Mg6 O0 2.169158 1_555
Mg6 O0 2.169158 1_556
Mg6 O10 2.179113 1_555
Mg6 O8 2.217628 1_555
Mg7 O11 2.072154 1_555
Mg7 O5 2.167532 1_555
Mg7 O4 2.167532 1_555
Mg7 O1 2.172074 1_555
Mg7 O1 2.172074 1_556
Mg7 O9 2.324587 1_555
Mg8 O6 2.167258 1_555
Mg8 O7 2.167258 1_545
Mg8 O2 2.169158 1_556
Mg8 O2 2.169158 1_555
Mg8 O10 2.179113 1_555
Mg8 O8 2.217628 1_655
Mg9 O11 2.072154 1_555
Mg9 O6 2.167532 1_555
Mg9 O7 2.167532 1_555
Mg9 O3 2.172074 1_556
Mg9 O3 2.172074 1_555
Mg9 O9 2.324587 1_655
Mg10 O0 2.133546 1_555
Mg10 O14 2.137177 1_555
Mg10 O4 2.170149 1_554
Mg10 O4 2.170149 1_555
Mg10 O1 2.204322 1_555
Mg10 O12 2.273552 1_555
Mg11 O0 2.133546 1_565
Mg11 O15 2.137177 1_555
Mg11 O5 2.170149 1_555
Mg11 O5 2.170149 1_554
Mg11 O1 2.204322 1_555
Mg11 O13 2.273552 1_555
Mg12 O2 2.133546 1_555
Mg12 O14 2.137177 1_555
Mg12 O6 2.170149 1_555
Mg12 O6 2.170149 1_554
Mg12 O3 2.204322 1_555
Mg12 O12 2.273552 1_655
Mg13 O2 2.133546 1_565
Mg13 O15 2.137177 1_555
Mg13 O7 2.170149 1_555
Mg13 O7 2.170149 1_554
Mg13 O3 2.204322 1_555
Mg13 O13 2.273552 1_655
Co0 O13 1.882529 1_545
Co0 O12 1.882529 1_555
Co0 O8 2.168266 1_554
Co0 O8 2.168266 1_555
Co0 O2 2.279851 1_455
Co0 O0 2.279851 1_555
O1 Rb0 2.453162 1_555
O3 Rb0 2.453162 1_655
O9 Rb0 2.168266 1_555
O9 Rb0 2.168266 1_556
O12 Rb0 2.446735 1_555
O13 Rb0 2.446735 1_555
