# generated using pymatgen
data_CsYMg14
_symmetry_space_group_name_H-M   'P 1'
_cell_length_a   6.77284945
_cell_length_b   6.77284884
_cell_length_c   10.55068479
_cell_angle_alpha   90.00000000
_cell_angle_beta   90.00000000
_cell_angle_gamma   120.00000304
_symmetry_Int_Tables_number   1
_chemical_formula_structural   CsYMg14
_chemical_formula_sum   'Cs1 Y1 Mg14'
_cell_volume   419.13513828
_cell_formula_units_Z   1
loop_
 _symmetry_equiv_pos_site_id
 _symmetry_equiv_pos_as_xyz
  1  'x, y, z'
loop_
 _atom_site_type_symbol
 _atom_site_label
 _atom_site_symmetry_multiplicity
 _atom_site_fract_x
 _atom_site_fract_y
 _atom_site_fract_z
 _atom_site_occupancy
  Cs  Cs0  1  0.16666700  0.33333300  0.62500000  1
  Y  Y0  1  0.16666700  0.33333300  0.12500000  1
  Mg  Mg0  1  0.17228791  0.83614345  0.12500000  1
  Mg  Mg1  1  0.17222943  0.83611422  0.62500000  1
  Mg  Mg2  1  0.66385655  0.32771209  0.12500000  1
  Mg  Mg3  1  0.66388578  0.32777057  0.62500000  1
  Mg  Mg4  1  0.66385655  0.83614345  0.12500000  1
  Mg  Mg5  1  0.66388578  0.83611422  0.62500000  1
  Mg  Mg6  1  0.34233736  0.15766264  0.36390381  1
  Mg  Mg7  1  0.34233736  0.15766264  0.88609619  1
  Mg  Mg8  1  0.34233736  0.68467571  0.36390381  1
  Mg  Mg9  1  0.34233736  0.68467571  0.88609619  1
  Mg  Mg10  1  0.81532429  0.15766264  0.36390381  1
  Mg  Mg11  1  0.81532429  0.15766264  0.88609619  1
  Mg  Mg12  1  0.83333300  0.66666700  0.37633309  1
  Mg  Mg13  1  0.83333300  0.66666700  0.87366691  1
loop_
_geom_bond_atom_site_label_1
_geom_bond_atom_site_label_2
_geom_bond_distance
_geom_bond_site_symmetry_2
Cs0 Mg1 3.386582 1_545
Cs0 Mg5 3.386582 1_555
Cs0 Mg5 3.386582 1_445
Cs0 Mg1 3.386582 1_555
Cs0 Mg3 3.386582 1_555
Cs0 Mg3 3.386582 1_455
Cs0 Mg6 3.440262 1_555
Cs0 Mg7 3.440262 1_555
Cs0 Mg8 3.440269 1_555
Cs0 Mg9 3.440269 1_555
Cs0 Mg10 3.440269 1_455
Cs0 Mg11 3.440269 1_455
Mg0 Mg9 3.148618 1_554
Mg0 Mg8 3.148618 1_555
Mg0 Mg7 3.148624 1_564
Mg0 Mg6 3.148624 1_565
Mg0 Mg12 3.314265 1_455
Mg0 Mg13 3.314265 1_454
Mg0 Mg2 3.329320 1_565
Mg0 Mg4 3.329320 1_555
Mg0 Y0 3.386585 1_555
Mg0 Y0 3.386585 1_565
Mg0 Mg2 3.443529 1_455
Mg0 Mg4 3.443529 1_455
Mg1 Mg13 3.291594 1_455
Mg1 Mg12 3.291594 1_455
Mg1 Mg3 3.329914 1_565
Mg1 Mg5 3.329914 1_555
Mg1 Mg8 3.339112 1_555
Mg1 Mg9 3.339112 1_555
Mg1 Mg6 3.339119 1_565
Mg1 Mg7 3.339119 1_565
Mg1 Mg3 3.442935 1_455
Mg1 Mg5 3.442935 1_455
Mg2 Mg6 3.148625 1_555
Mg2 Mg7 3.148625 1_554
Mg2 Mg4 3.329320 1_545
Mg2 Y0 3.386585 1_655
Mg2 Y0 3.386585 1_555
Mg2 Mg4 3.443529 1_555
Mg3 Mg5 3.329914 1_545
Mg3 Mg6 3.339119 1_555
Mg3 Mg7 3.339119 1_555
Mg3 Mg5 3.442935 1_555
Mg4 Mg9 3.148625 1_554
Mg4 Mg8 3.148625 1_555
Mg4 Y0 3.386585 1_555
Mg4 Y0 3.386585 1_665
Mg5 Mg8 3.339119 1_555
Mg5 Mg9 3.339119 1_555
Mg6 Mg8 3.203469 1_545
Mg6 Y0 3.255797 1_555
Mg7 Mg9 3.203469 1_545
Mg7 Y0 3.255797 1_556
Mg8 Y0 3.255804 1_555
Mg9 Y0 3.255804 1_556
Mg10 Mg2 3.148618 1_555
Mg10 Mg4 3.148625 1_545
Mg10 Mg8 3.203469 1_545
Mg10 Mg6 3.203469 1_555
Mg10 Y0 3.255804 1_655
Mg10 Mg3 3.339112 1_555
Mg10 Mg5 3.339119 1_545
Mg10 Mg12 3.390608 1_545
Mg10 Mg12 3.390608 1_555
Mg11 Mg2 3.148618 1_556
Mg11 Mg4 3.148625 1_546
Mg11 Mg9 3.203469 1_545
Mg11 Mg7 3.203469 1_555
Mg11 Y0 3.255804 1_656
Mg11 Mg3 3.339112 1_555
Mg11 Mg5 3.339119 1_545
Mg11 Mg13 3.390608 1_545
Mg11 Mg13 3.390608 1_555
Mg12 Mg5 3.291587 1_555
Mg12 Mg3 3.291594 1_555
Mg12 Mg4 3.314258 1_555
Mg12 Mg2 3.314265 1_555
Mg12 Mg6 3.390608 1_555
Mg12 Mg6 3.390608 1_665
Mg12 Mg8 3.390609 1_555
Mg12 Mg8 3.390609 1_655
Mg13 Mg5 3.291587 1_555
Mg13 Mg3 3.291594 1_555
Mg13 Mg4 3.314258 1_556
Mg13 Mg2 3.314265 1_556
Mg13 Mg7 3.390608 1_555
Mg13 Mg7 3.390608 1_665
Mg13 Mg9 3.390609 1_555
Mg13 Mg9 3.390609 1_655
