# generated using pymatgen
data_KMg14SbO16
_symmetry_space_group_name_H-M   'P 1'
_cell_length_a   8.72876021
_cell_length_b   8.82505939
_cell_length_c   4.45312719
_cell_angle_alpha   90.00000000
_cell_angle_beta   90.00000000
_cell_angle_gamma   90.00000000
_symmetry_Int_Tables_number   1
_chemical_formula_structural   KMg14SbO16
_chemical_formula_sum   'K1 Mg14 Sb1 O16'
_cell_volume   343.03252444
_cell_formula_units_Z   1
loop_
 _symmetry_equiv_pos_site_id
 _symmetry_equiv_pos_as_xyz
  1  'x, y, z'
loop_
 _atom_site_type_symbol
 _atom_site_label
 _atom_site_symmetry_multiplicity
 _atom_site_fract_x
 _atom_site_fract_y
 _atom_site_fract_z
 _atom_site_occupancy
  K  K0  1  -0.00000000  0.00000000  0.00000000  1
  Mg  Mg0  1  0.50000000  0.00000000  0.00000000  1
  Mg  Mg1  1  0.50000000  0.50000000  0.00000000  1
  Mg  Mg2  1  -0.00000000  0.23598252  0.50000000  1
  Mg  Mg3  1  -0.00000000  0.76401748  0.50000000  1
  Mg  Mg4  1  0.50000000  0.24704152  0.50000000  1
  Mg  Mg5  1  0.50000000  0.75295848  0.50000000  1
  Mg  Mg6  1  0.25322008  0.00000000  0.50000000  1
  Mg  Mg7  1  0.26144345  0.50000000  0.50000000  1
  Mg  Mg8  1  0.74677992  0.00000000  0.50000000  1
  Mg  Mg9  1  0.73855655  0.50000000  0.50000000  1
  Mg  Mg10  1  0.25868891  0.24226126  -0.00000000  1
  Mg  Mg11  1  0.25868891  0.75773874  -0.00000000  1
  Mg  Mg12  1  0.74131109  0.24226126  0.00000000  1
  Mg  Mg13  1  0.74131109  0.75773874  0.00000000  1
  Sb  Sb0  1  -0.00000000  0.50000000  0.00000000  1
  O  O0  1  0.27608711  0.00000000  0.00000000  1
  O  O1  1  0.26540339  0.50000000  0.00000000  1
  O  O2  1  0.72391289  0.00000000  -0.00000000  1
  O  O3  1  0.73459661  0.50000000  -0.00000000  1
  O  O4  1  0.24970768  0.25152869  0.50000000  1
  O  O5  1  0.24970768  0.74847131  0.50000000  1
  O  O6  1  0.75029232  0.25152869  0.50000000  1
  O  O7  1  0.75029232  0.74847131  0.50000000  1
  O  O8  1  -0.00000000  0.00000000  0.50000000  1
  O  O9  1  -0.00000000  0.50000000  0.50000000  1
  O  O10  1  0.50000000  0.00000000  0.50000000  1
  O  O11  1  0.50000000  0.50000000  0.50000000  1
  O  O12  1  -0.00000000  0.25968911  0.00000000  1
  O  O13  1  -0.00000000  0.74031089  -0.00000000  1
  O  O14  1  0.50000000  0.25428477  0.00000000  1
  O  O15  1  0.50000000  0.74571523  0.00000000  1
loop_
_geom_bond_atom_site_label_1
_geom_bond_atom_site_label_2
_geom_bond_distance
_geom_bond_site_symmetry_2
K0 O8 2.226564 1_554
K0 O8 2.226564 1_555
K0 O13 2.291772 1_545
K0 O12 2.291772 1_555
K0 O2 2.409898 1_455
K0 O0 2.409898 1_555
Mg0 O0 1.954482 1_555
Mg0 O2 1.954482 1_555
Mg0 O10 2.226564 1_555
Mg0 O10 2.226564 1_554
Mg0 O14 2.244078 1_555
Mg0 O15 2.244078 1_545
Mg1 O3 2.047738 1_555
Mg1 O1 2.047738 1_555
Mg1 O15 2.168451 1_555
Mg1 O14 2.168451 1_555
Mg1 O11 2.226564 1_554
Mg1 O11 2.226564 1_555
Mg2 O8 2.082560 1_555
Mg2 O4 2.183952 1_555
Mg2 O6 2.183952 1_455
Mg2 O12 2.236371 1_556
Mg2 O12 2.236371 1_555
Mg2 O9 2.329970 1_555
Mg3 O8 2.082560 1_565
Mg3 O5 2.183952 1_555
Mg3 O7 2.183952 1_455
Mg3 O13 2.236371 1_555
Mg3 O13 2.236371 1_556
Mg3 O9 2.329970 1_555
Mg4 O10 2.180156 1_555
Mg4 O4 2.185100 1_555
Mg4 O6 2.185100 1_555
Mg4 O14 2.227481 1_555
Mg4 O14 2.227481 1_556
Mg4 O11 2.232374 1_555
Mg5 O10 2.180156 1_565
Mg5 O7 2.185100 1_555
Mg5 O5 2.185100 1_555
Mg5 O15 2.227481 1_556
Mg5 O15 2.227481 1_555
Mg5 O11 2.232374 1_555
Mg6 O10 2.154083 1_555
Mg6 O8 2.210297 1_555
Mg6 O5 2.219967 1_545
Mg6 O4 2.219967 1_555
Mg6 O0 2.235492 1_555
Mg6 O0 2.235492 1_556
Mg7 O11 2.082303 1_555
Mg7 O4 2.195166 1_555
Mg7 O5 2.195166 1_555
Mg7 O1 2.226832 1_556
Mg7 O1 2.226832 1_555
Mg7 O9 2.282077 1_555
Mg8 O10 2.154083 1_555
Mg8 O8 2.210297 1_655
Mg8 O7 2.219967 1_545
Mg8 O6 2.219967 1_555
Mg8 O2 2.235492 1_555
Mg8 O2 2.235492 1_556
Mg9 O11 2.082303 1_555
Mg9 O6 2.195166 1_555
Mg9 O7 2.195166 1_555
Mg9 O3 2.226832 1_556
Mg9 O3 2.226832 1_555
Mg9 O9 2.282077 1_655
Mg10 O14 2.109018 1_555
Mg10 O0 2.143357 1_555
Mg10 O4 2.229444 1_554
Mg10 O4 2.229444 1_555
Mg10 O12 2.263265 1_555
Mg10 O1 2.275315 1_555
Mg11 O15 2.109018 1_555
Mg11 O0 2.143357 1_565
Mg11 O5 2.229444 1_555
Mg11 O5 2.229444 1_554
Mg11 O13 2.263265 1_555
Mg11 O1 2.275315 1_555
Mg12 O14 2.109018 1_555
Mg12 O2 2.143357 1_555
Mg12 O6 2.229444 1_554
Mg12 O6 2.229444 1_555
Mg12 O12 2.263265 1_655
Mg12 O3 2.275315 1_555
Mg13 O15 2.109018 1_555
Mg13 O2 2.143357 1_565
Mg13 O7 2.229444 1_555
Mg13 O7 2.229444 1_554
Mg13 O13 2.263265 1_655
Mg13 O3 2.275315 1_555
O1 Sb0 2.316643 1_555
O3 Sb0 2.316643 1_655
O9 Sb0 2.226564 1_556
O9 Sb0 2.226564 1_555
O12 Sb0 2.120758 1_555
O13 Sb0 2.120758 1_555
