# generated using pymatgen
data_EuLuO3
_symmetry_space_group_name_H-M   'P 1'
_cell_length_a   4.25759400
_cell_length_b   4.25759400
_cell_length_c   4.25759400
_cell_angle_alpha   90.00000000
_cell_angle_beta   90.00000000
_cell_angle_gamma   90.00000000
_symmetry_Int_Tables_number   1
_chemical_formula_structural   EuLuO3
_chemical_formula_sum   'Eu1 Lu1 O3'
_cell_volume   77.17786059
_cell_formula_units_Z   1
loop_
 _symmetry_equiv_pos_site_id
 _symmetry_equiv_pos_as_xyz
  1  'x, y, z'
loop_
 _atom_site_type_symbol
 _atom_site_label
 _atom_site_symmetry_multiplicity
 _atom_site_fract_x
 _atom_site_fract_y
 _atom_site_fract_z
 _atom_site_occupancy
  Eu  Eu0  1  0.00000000  0.00000000  0.00000000  1
  Lu  Lu0  1  0.50000000  0.50000000  0.50000000  1
  O  O0  1  0.50000000  0.50000000  0.00000000  1
  O  O1  1  0.50000000  0.00000000  0.50000000  1
  O  O2  1  0.00000000  0.50000000  0.50000000  1
loop_
_geom_bond_atom_site_label_1
_geom_bond_atom_site_label_2
_geom_bond_distance
_geom_bond_site_symmetry_2
Eu0 O0 3.010574 1_455
Eu0 O2 3.010574 1_544
Eu0 O2 3.010574 1_545
Eu0 O1 3.010574 1_455
Eu0 O1 3.010574 1_454
Eu0 O0 3.010574 1_445
Eu0 O0 3.010574 1_545
Eu0 O1 3.010574 1_555
Eu0 O0 3.010574 1_555
Eu0 O1 3.010574 1_554
Eu0 O2 3.010574 1_555
Eu0 O2 3.010574 1_554
Lu0 O0 2.128797 1_556
Lu0 O2 2.128797 1_655
Lu0 O1 2.128797 1_555
Lu0 O0 2.128797 1_555
Lu0 O2 2.128797 1_555
Lu0 O1 2.128797 1_565
