# generated using pymatgen
data_Sr4MnN4
_symmetry_space_group_name_H-M   'P 1'
_cell_length_a   6.19700519
_cell_length_b   6.79585243
_cell_length_c   9.02116243
_cell_angle_alpha   74.61992203
_cell_angle_beta   95.73309393
_cell_angle_gamma   84.45631151
_symmetry_Int_Tables_number   1
_chemical_formula_structural   Sr4MnN4
_chemical_formula_sum   'Sr8 Mn2 N8'
_cell_volume   361.46578486
_cell_formula_units_Z   2
loop_
 _symmetry_equiv_pos_site_id
 _symmetry_equiv_pos_as_xyz
  1  'x, y, z'
loop_
 _atom_site_type_symbol
 _atom_site_label
 _atom_site_symmetry_multiplicity
 _atom_site_fract_x
 _atom_site_fract_y
 _atom_site_fract_z
 _atom_site_occupancy
  Sr  Sr0  1  0.76192800  0.52559500  0.10488800  1
  Sr  Sr1  1  0.23807200  0.47440500  0.89511200  1
  Sr  Sr2  1  0.75578300  0.11727000  0.90768600  1
  Sr  Sr3  1  0.24421700  0.88273000  0.09231400  1
  Sr  Sr4  1  0.76704900  0.41989900  0.55742200  1
  Sr  Sr5  1  0.23295100  0.58010100  0.44257800  1
  Sr  Sr6  1  0.27261100  0.97137600  0.63012900  1
  Sr  Sr7  1  0.72738900  0.02862400  0.36987100  1
  Mn  Mn0  1  0.79840000  0.77527000  0.73706600  1
  Mn  Mn1  1  0.20160000  0.22473000  0.26293400  1
  N  N0  1  0.97688300  0.69424700  0.61512900  1
  N  N1  1  0.02311700  0.30575300  0.38487100  1
  N  N2  1  0.96256000  0.77547500  0.91092200  1
  N  N3  1  0.03744000  0.22452500  0.08907800  1
  N  N4  1  0.59411200  0.60685300  0.77829100  1
  N  N5  1  0.40588800  0.39314700  0.22170900  1
  N  N6  1  0.31715600  0.96578200  0.34935800  1
  N  N7  1  0.68284400  0.03421800  0.65064200  1
loop_
_geom_bond_atom_site_label_1
_geom_bond_atom_site_label_2
_geom_bond_distance
_geom_bond_site_symmetry_2
Mn0 N7 1.770497 1_565
Mn0 N2 1.782525 1_555
Mn0 N0 1.784174 1_555
Mn0 N4 1.788629 1_555
Mn1 N6 1.770497 1_545
Mn1 N3 1.782525 1_555
Mn1 N1 1.784174 1_555
Mn1 N5 1.788629 1_555
N0 Sr4 2.507191 1_555
N0 Sr5 2.537530 1_655
N0 Sr6 2.770604 1_655
N0 Sr1 2.818829 1_655
N0 Sr7 2.901766 1_565
N1 Sr5 2.507191 1_555
N1 Sr4 2.537530 1_455
N1 Sr7 2.770604 1_455
N1 Sr0 2.818829 1_455
N1 Sr6 2.901766 1_545
N2 Sr2 2.533706 1_565
N2 Sr3 2.561904 1_656
N2 Sr1 2.578782 1_655
N2 Sr0 2.599569 1_556
N3 Sr3 2.533706 1_545
N3 Sr2 2.561904 1_454
N3 Sr0 2.578782 1_455
N3 Sr1 2.599569 1_554
N4 Sr1 2.670957 1_555
N4 Sr4 2.870385 1_555
N4 Sr0 2.912201 1_556
N4 Sr6 2.941208 1_555
N4 Sr2 3.240117 1_555
N5 Sr0 2.670957 1_555
N5 Sr5 2.870385 1_555
N5 Sr1 2.912201 1_554
N5 Sr7 2.941208 1_555
N5 Sr3 3.240117 1_555
N6 Sr3 2.536529 1_555
N6 Sr6 2.584931 1_555
N6 Sr7 2.614802 1_565
N6 Sr5 2.651801 1_555
N7 Sr2 2.536529 1_555
N7 Sr7 2.584931 1_555
N7 Sr6 2.614802 1_545
N7 Sr4 2.651801 1_555
