# generated using pymatgen
data_Sm6Fe13Bi
_symmetry_space_group_name_H-M   'P 1'
_cell_length_a   12.97658832
_cell_length_b   12.97658832
_cell_length_c   12.97658832
_cell_angle_alpha   143.79129599
_cell_angle_beta   143.79129599
_cell_angle_gamma   52.13949216
_symmetry_Int_Tables_number   1
_chemical_formula_structural   Sm6Fe13Bi
_chemical_formula_sum   'Sm12 Fe26 Bi2'
_cell_volume   758.16188758
_cell_formula_units_Z   2
loop_
 _symmetry_equiv_pos_site_id
 _symmetry_equiv_pos_as_xyz
  1  'x, y, z'
loop_
 _atom_site_type_symbol
 _atom_site_label
 _atom_site_symmetry_multiplicity
 _atom_site_fract_x
 _atom_site_fract_y
 _atom_site_fract_z
 _atom_site_occupancy
  Sm  Sm0  1  0.60301700  0.60301700  0.00000000  1
  Sm  Sm1  1  0.10301700  0.10301700  0.00000000  1
  Sm  Sm2  1  0.39698300  0.39698300  0.00000000  1
  Sm  Sm3  1  0.89698300  0.89698300  0.00000000  1
  Sm  Sm4  1  0.47672100  0.97672100  0.82205400  1
  Sm  Sm5  1  0.15466800  0.65466800  0.17794600  1
  Sm  Sm6  1  0.97672100  0.15466800  0.50000000  1
  Sm  Sm7  1  0.65466800  0.47672100  0.50000000  1
  Sm  Sm8  1  0.52327900  0.02327900  0.17794600  1
  Sm  Sm9  1  0.84533200  0.34533200  0.82205400  1
  Sm  Sm10  1  0.02327900  0.84533200  0.50000000  1
  Sm  Sm11  1  0.34533200  0.52327900  0.50000000  1
  Fe  Fe0  1  0.50000000  0.00000000  0.50000000  1
  Fe  Fe1  1  0.00000000  0.50000000  0.50000000  1
  Fe  Fe2  1  0.56676900  0.71022400  0.27699300  1
  Fe  Fe3  1  0.43323100  0.28977600  0.72300700  1
  Fe  Fe4  1  0.06676900  0.78977600  0.85654600  1
  Fe  Fe5  1  0.93323100  0.21022400  0.14345400  1
  Fe  Fe6  1  0.28977600  0.56676900  0.85654600  1
  Fe  Fe7  1  0.71022400  0.43323100  0.14345400  1
  Fe  Fe8  1  0.21022400  0.06676900  0.27699300  1
  Fe  Fe9  1  0.78977600  0.93323100  0.72300700  1
  Fe  Fe10  1  0.62005300  0.12005300  0.85881400  1
  Fe  Fe11  1  0.26123900  0.76123900  0.14118600  1
  Fe  Fe12  1  0.12005300  0.26123900  0.50000000  1
  Fe  Fe13  1  0.76123900  0.62005300  0.50000000  1
  Fe  Fe14  1  0.37994700  0.87994700  0.14118600  1
  Fe  Fe15  1  0.73876100  0.23876100  0.85881400  1
  Fe  Fe16  1  0.87994700  0.73876100  0.50000000  1
  Fe  Fe17  1  0.23876100  0.37994700  0.50000000  1
  Fe  Fe18  1  0.79154800  0.29154800  0.27245600  1
  Fe  Fe19  1  0.01909200  0.51909200  0.72754400  1
  Fe  Fe20  1  0.29154800  0.01909200  0.50000000  1
  Fe  Fe21  1  0.51909200  0.79154800  0.50000000  1
  Fe  Fe22  1  0.20845200  0.70845200  0.72754400  1
  Fe  Fe23  1  0.98090800  0.48090800  0.27245600  1
  Fe  Fe24  1  0.70845200  0.98090800  0.50000000  1
  Fe  Fe25  1  0.48090800  0.20845200  0.50000000  1
  Bi  Bi0  1  0.25000000  0.25000000  0.00000000  1
  Bi  Bi1  1  0.75000000  0.75000000  0.00000000  1
loop_
_geom_bond_atom_site_label_1
_geom_bond_atom_site_label_2
_geom_bond_distance
_geom_bond_site_symmetry_2
Fe0 Fe3 2.398254 1_555
Fe0 Fe2 2.398254 1_545
Fe0 Fe9 2.398254 1_545
Fe0 Fe8 2.398254 1_555
Fe0 Fe14 2.470158 1_545
Fe0 Fe15 2.470158 1_555
Fe0 Fe11 2.470158 1_545
Fe0 Fe10 2.470158 1_555
Fe0 Fe24 2.560424 1_545
Fe0 Fe25 2.560424 1_555
Fe0 Fe20 2.560424 1_555
Fe0 Fe21 2.560424 1_545
Fe1 Fe4 2.398259 1_555
Fe1 Fe6 2.398259 1_555
Fe1 Fe5 2.398259 1_455
Fe1 Fe7 2.398259 1_455
Fe1 Fe16 2.470158 1_455
Fe1 Fe13 2.470158 1_455
Fe1 Fe17 2.470158 1_555
Fe1 Fe12 2.470158 1_555
Fe1 Fe22 2.560424 1_555
Fe1 Fe23 2.560424 1_455
Fe1 Fe18 2.560424 1_455
Fe1 Fe19 2.560424 1_555
Fe2 Fe6 2.515737 1_554
Fe2 Fe7 2.515744 1_555
Fe2 Fe9 2.543509 1_555
Fe2 Fe24 2.651507 1_555
Fe2 Fe21 2.651507 1_555
Fe2 Sm2 2.988675 1_555
Fe2 Sm0 2.988675 1_555
Fe3 Fe7 2.515737 1_556
Fe3 Fe6 2.515744 1_555
Fe3 Fe8 2.543509 1_555
Fe3 Sm2 2.988675 1_556
Fe3 Sm0 2.988675 1_556
Fe4 Fe8 2.515737 1_566
Fe4 Fe9 2.515744 1_455
Fe4 Fe6 2.543509 1_555
Fe4 Sm3 2.988664 1_456
Fe4 Sm1 2.988683 1_566
Fe5 Fe9 2.515737 1_544
Fe5 Fe8 2.515744 1_655
Fe5 Fe7 2.543509 1_555
Fe5 Sm1 2.988664 1_655
Fe5 Sm3 2.988683 1_545
Fe6 Sm2 2.988664 1_556
Fe6 Sm0 2.988683 1_556
Fe7 Sm0 2.988664 1_555
Fe7 Sm2 2.988683 1_555
Fe8 Sm1 2.988675 1_555
Fe8 Sm3 2.988675 1_445
Fe9 Sm3 2.988675 1_556
Fe9 Sm1 2.988675 1_666
Fe10 Fe5 2.483325 1_556
Fe10 Fe7 2.483325 1_556
Fe10 Fe18 2.498526 1_556
Fe10 Fe20 2.559124 1_555
Fe10 Fe21 2.559124 1_545
Fe10 Fe9 2.578508 1_545
Fe10 Fe3 2.578508 1_555
Fe10 Fe15 2.767403 1_555
Fe10 Sm4 2.920501 1_545
Fe10 Sm3 3.132849 1_546
Fe10 Sm2 3.132849 1_556
Fe11 Fe4 2.483312 1_554
Fe11 Fe6 2.483312 1_554
Fe11 Fe19 2.498526 1_554
Fe11 Fe20 2.559124 1_565
Fe11 Fe21 2.559124 1_555
Fe11 Fe2 2.578508 1_555
Fe11 Fe8 2.578508 1_565
Fe11 Fe14 2.767403 1_555
Fe11 Sm5 2.920478 1_555
Fe11 Sm3 3.132849 1_455
Fe11 Sm2 3.132849 1_555
Fe12 Fe3 2.483323 1_555
Fe12 Fe8 2.483323 1_555
Fe12 Fe20 2.498526 1_555
Fe12 Fe19 2.559124 1_555
Fe12 Fe18 2.559124 1_455
Fe12 Fe6 2.578506 1_555
Fe12 Fe5 2.578519 1_455
Fe12 Fe17 2.767403 1_555
Fe12 Sm6 2.920490 1_455
Fe12 Sm2 3.132849 1_556
Fe12 Sm3 3.132849 1_445
Fe13 Fe9 2.483323 1_555
Fe13 Fe2 2.483323 1_555
Fe13 Fe21 2.498526 1_555
Fe13 Fe19 2.559124 1_655
Fe13 Fe18 2.559124 1_555
Fe13 Fe4 2.578506 1_655
Fe13 Fe7 2.578519 1_555
Fe13 Fe16 2.767403 1_555
Fe13 Sm7 2.920490 1_555
Fe13 Sm2 3.132849 1_555
Fe13 Sm3 3.132849 1_556
Fe14 Fe6 2.483325 1_554
Fe14 Fe4 2.483325 1_554
Fe14 Fe22 2.498526 1_554
Fe14 Fe24 2.559124 1_555
Fe14 Fe25 2.559124 1_565
Fe14 Fe2 2.578508 1_555
Fe14 Fe8 2.578508 1_565
Fe14 Sm8 2.920501 1_565
Fe14 Sm0 3.132849 1_555
Fe14 Sm1 3.132849 1_565
Fe15 Fe7 2.483312 1_556
Fe15 Fe5 2.483312 1_556
Fe15 Fe23 2.498526 1_556
Fe15 Fe25 2.559124 1_555
Fe15 Fe24 2.559124 1_545
Fe15 Fe3 2.578508 1_555
Fe15 Fe9 2.578508 1_545
Fe15 Sm9 2.920478 1_555
Fe15 Sm1 3.132849 1_656
Fe15 Sm0 3.132849 1_556
Fe16 Fe2 2.483323 1_555
Fe16 Fe9 2.483323 1_555
Fe16 Fe24 2.498526 1_555
Fe16 Fe23 2.559124 1_555
Fe16 Fe22 2.559124 1_655
Fe16 Fe7 2.578506 1_555
Fe16 Fe4 2.578519 1_655
Fe16 Sm10 2.920490 1_655
Fe16 Sm1 3.132849 1_666
Fe16 Sm0 3.132849 1_555
Fe17 Fe3 2.483323 1_555
Fe17 Fe8 2.483323 1_555
Fe17 Fe25 2.498526 1_555
Fe17 Fe22 2.559124 1_555
Fe17 Fe23 2.559124 1_455
Fe17 Fe5 2.578506 1_455
Fe17 Fe6 2.578519 1_555
Fe17 Sm11 2.920490 1_555
Fe17 Sm1 3.132849 1_555
Fe17 Sm0 3.132849 1_556
Fe18 Fe19 2.595256 1_655
Fe18 Fe5 2.651519 1_555
Fe18 Fe7 2.651519 1_555
Fe18 Sm6 3.069616 1_555
Fe18 Sm7 3.069616 1_555
Fe18 Sm2 3.253040 1_555
Fe18 Sm3 3.253040 1_545
Fe18 Sm4 3.311050 1_544
Fe19 Fe4 2.651499 1_555
Fe19 Fe6 2.651499 1_555
Fe19 Sm6 3.069616 1_455
Fe19 Sm7 3.069616 1_455
Fe19 Sm3 3.253040 1_456
Fe19 Sm2 3.253040 1_556
Fe19 Sm5 3.311035 1_556
Fe20 Fe21 2.595256 1_545
Fe20 Fe3 2.651507 1_555
Fe20 Fe8 2.651507 1_555
Fe20 Sm5 3.069611 1_545
Fe20 Sm4 3.069627 1_545
Fe20 Sm2 3.253040 1_556
Fe20 Sm3 3.253040 1_445
Fe20 Sm6 3.311047 1_455
Fe21 Fe9 2.651507 1_555
Fe21 Sm5 3.069611 1_555
Fe21 Sm4 3.069627 1_555
Fe21 Sm2 3.253040 1_555
Fe21 Sm3 3.253040 1_556
Fe21 Sm7 3.311047 1_555
Fe22 Fe23 2.595256 1_455
Fe22 Fe6 2.651519 1_555
Fe22 Fe4 2.651519 1_555
Fe22 Sm10 3.069616 1_555
Fe22 Sm11 3.069616 1_555
Fe22 Sm1 3.253040 1_566
Fe22 Sm0 3.253040 1_556
Fe22 Sm8 3.311050 1_566
Fe23 Fe7 2.651499 1_555
Fe23 Fe5 2.651499 1_555
Fe23 Sm10 3.069616 1_655
Fe23 Sm11 3.069616 1_655
Fe23 Sm1 3.253040 1_655
Fe23 Sm0 3.253040 1_555
Fe23 Sm9 3.311035 1_554
Fe24 Fe25 2.595256 1_565
Fe24 Fe9 2.651507 1_555
Fe24 Sm9 3.069611 1_565
Fe24 Sm8 3.069627 1_565
Fe24 Sm1 3.253040 1_666
Fe24 Sm0 3.253040 1_555
Fe24 Sm10 3.311047 1_655
Fe25 Fe3 2.651507 1_555
Fe25 Fe8 2.651507 1_555
Fe25 Sm9 3.069611 1_555
Fe25 Sm8 3.069627 1_555
Fe25 Sm1 3.253040 1_555
Fe25 Sm0 3.253040 1_556
Fe25 Sm11 3.311047 1_555
Bi0 Sm4 3.391997 1_544
Bi0 Sm8 3.391997 1_555
Bi0 Sm7 3.392004 1_555
Bi0 Sm6 3.392004 1_454
Bi0 Sm10 3.392004 1_544
Bi0 Sm11 3.392004 1_555
Bi0 Sm5 3.392007 1_555
Bi0 Sm9 3.392007 1_454
Bi0 Sm2 3.426570 1_555
Bi0 Sm1 3.426570 1_555
Bi1 Sm4 3.391997 1_554
Bi1 Sm8 3.391997 1_565
Bi1 Sm7 3.392004 1_554
Bi1 Sm6 3.392004 1_565
Bi1 Sm11 3.392004 1_554
Bi1 Sm10 3.392004 1_655
Bi1 Sm9 3.392007 1_554
Bi1 Sm5 3.392007 1_655
Bi1 Sm3 3.426570 1_555
Bi1 Sm0 3.426570 1_555
