# generated using pymatgen
data_LaThUS5
_symmetry_space_group_name_H-M   'P 1'
_cell_length_a   7.49677200
_cell_length_b   8.11240800
_cell_length_c   12.03483600
_cell_angle_alpha   90.00000000
_cell_angle_beta   90.00000000
_cell_angle_gamma   90.00000000
_symmetry_Int_Tables_number   1
_chemical_formula_structural   LaThUS5
_chemical_formula_sum   'La4 Th4 U4 S20'
_cell_volume   731.92109436
_cell_formula_units_Z   4
loop_
 _symmetry_equiv_pos_site_id
 _symmetry_equiv_pos_as_xyz
  1  'x, y, z'
loop_
 _atom_site_type_symbol
 _atom_site_label
 _atom_site_symmetry_multiplicity
 _atom_site_fract_x
 _atom_site_fract_y
 _atom_site_fract_z
 _atom_site_occupancy
  La  La0  1  0.97586900  0.74984800  0.92876300  1
  La  La1  1  0.52413100  0.25015200  0.42876300  1
  La  La2  1  0.02413100  0.24984800  0.57123700  1
  La  La3  1  0.47586900  0.75015200  0.07123700  1
  Th  Th0  1  0.02345100  0.74998200  0.57337200  1
  Th  Th1  1  0.47654900  0.25001800  0.07337200  1
  Th  Th2  1  0.97654900  0.24998200  0.92662800  1
  Th  Th3  1  0.52345100  0.75001800  0.42662800  1
  U  U0  1  0.42992200  0.49935100  0.75610100  1
  U  U1  1  0.07007800  0.50064900  0.25610100  1
  U  U2  1  0.57007800  0.99935100  0.74389900  1
  U  U3  1  0.92992200  0.00064900  0.24389900  1
  S  S0  1  0.66022100  0.28990700  0.65461200  1
  S  S1  1  0.83977900  0.71009300  0.15461200  1
  S  S2  1  0.33977900  0.78990700  0.84538800  1
  S  S3  1  0.16022100  0.21009300  0.34538800  1
  S  S4  1  0.33575900  0.20963100  0.85007500  1
  S  S5  1  0.16424100  0.79036900  0.35007500  1
  S  S6  1  0.66424100  0.70963100  0.64992500  1
  S  S7  1  0.83575900  0.29036900  0.14992500  1
  S  S8  1  0.30271400  0.50941000  0.53487300  1
  S  S9  1  0.19728600  0.49059000  0.03487300  1
  S  S10  1  0.69728600  0.00941000  0.96512700  1
  S  S11  1  0.80271400  0.99059000  0.46512700  1
  S  S12  1  0.67034100  0.49005100  0.93728400  1
  S  S13  1  0.82965900  0.50994900  0.43728400  1
  S  S14  1  0.32965900  0.99005100  0.56271600  1
  S  S15  1  0.17034100  0.00994900  0.06271600  1
  S  S16  1  0.04115000  0.49986100  0.75062200  1
  S  S17  1  0.45885000  0.50013900  0.25062200  1
  S  S18  1  0.95885000  0.99986100  0.74937800  1
  S  S19  1  0.54115000  0.00013900  0.24937800  1
loop_
_geom_bond_atom_site_label_1
_geom_bond_atom_site_label_2
_geom_bond_distance
_geom_bond_site_symmetry_2
La0 S1 2.921082 1_556
La0 S2 2.924933 1_655
La0 S18 2.964898 1_555
La0 S9 2.968090 1_656
La0 S16 2.991417 1_655
La0 S10 2.997850 1_565
La0 S15 3.029303 1_666
La0 S12 3.114270 1_555
La1 S0 2.921082 1_555
La1 S3 2.924933 1_555
La1 S19 2.964898 1_555
La1 S8 2.968090 1_555
La1 S17 2.991417 1_555
La1 S11 2.997850 1_545
La1 S14 3.029303 1_545
La1 S13 3.114270 1_555
La2 S3 2.921082 1_555
La2 S0 2.924933 1_455
La2 S16 2.964898 1_555
La2 S11 2.968090 1_445
La2 S18 2.991417 1_445
La2 S8 2.997850 1_555
La2 S13 3.029303 1_455
La2 S14 3.114270 1_545
La3 S2 2.921082 1_554
La3 S1 2.924933 1_555
La3 S17 2.964898 1_555
La3 S10 2.968090 1_564
La3 S19 2.991417 1_565
La3 S9 2.997850 1_555
La3 S12 3.029303 1_554
La3 S15 3.114270 1_565
S0 U2 2.677183 1_545
S0 U0 2.712849 1_555
S1 U3 2.677183 1_565
S1 U1 2.712849 1_655
S2 U0 2.677183 1_555
S2 U2 2.712849 1_555
S3 U1 2.677183 1_555
S3 U3 2.712849 1_455
S4 U0 2.702116 1_555
S4 U2 2.761990 1_545
S4 Th2 2.864916 1_455
S4 Th1 2.905714 1_556
S5 U1 2.702116 1_555
S5 U3 2.761990 1_465
S5 Th3 2.864916 1_555
S5 Th0 2.905714 1_555
S6 U2 2.702116 1_555
S6 U0 2.761990 1_555
S6 Th0 2.864916 1_655
S6 Th3 2.905714 1_555
S7 U3 2.702116 1_555
S7 U1 2.761990 1_655
S7 Th1 2.864916 1_555
S7 Th2 2.905714 1_554
S8 U0 2.829259 1_555
S8 Th3 2.871484 1_555
S8 Th0 2.899401 1_555
S9 U1 2.829259 1_555
S9 Th2 2.871484 1_454
S9 Th1 2.899401 1_555
S10 U2 2.829259 1_545
S10 Th1 2.871484 1_556
S10 Th2 2.899401 1_555
S11 U3 2.829259 1_565
S11 Th0 2.871484 1_655
S11 Th3 2.899401 1_555
S12 U0 2.829988 1_555
S12 Th1 2.929985 1_556
S12 Th2 3.013138 1_555
S13 U1 2.829988 1_655
S13 Th0 2.929985 1_655
S13 Th3 3.013138 1_555
S14 U2 2.829988 1_555
S14 Th3 2.929985 1_555
S14 Th0 3.013138 1_555
S15 U3 2.829988 1_455
S15 Th2 2.929985 1_454
S15 Th1 3.013138 1_555
S16 U0 2.915284 1_555
S16 Th0 2.947070 1_555
S16 Th2 2.971624 1_455
S17 U1 2.915284 1_555
S17 Th1 2.947070 1_555
S17 Th3 2.971624 1_555
S18 U2 2.915284 1_555
S18 Th2 2.947070 1_565
S18 Th0 2.971624 1_655
S19 U3 2.915284 1_555
S19 Th3 2.947070 1_545
S19 Th1 2.971624 1_555
