# generated using pymatgen
data_NaLa(MoO4)2
_symmetry_space_group_name_H-M   'P 1'
_cell_length_a   7.09791537
_cell_length_b   7.09791537
_cell_length_c   7.09791537
_cell_angle_alpha   135.39041496
_cell_angle_beta   135.39041496
_cell_angle_gamma   64.92418450
_symmetry_Int_Tables_number   1
_chemical_formula_structural   NaLa(MoO4)2
_chemical_formula_sum   'Na1 La1 Mo2 O8'
_cell_volume   173.84607611
_cell_formula_units_Z   1
loop_
 _symmetry_equiv_pos_site_id
 _symmetry_equiv_pos_as_xyz
  1  'x, y, z'
loop_
 _atom_site_type_symbol
 _atom_site_label
 _atom_site_symmetry_multiplicity
 _atom_site_fract_x
 _atom_site_fract_y
 _atom_site_fract_z
 _atom_site_occupancy
  Na  Na0  1  0.75000000  0.25000000  0.50000000  1
  La  La0  1  0.50000000  0.50000000  0.00000000  1
  Mo  Mo0  1  0.25000000  0.75000000  0.50000000  1
  Mo  Mo1  1  0.00000000  0.00000000  0.00000000  1
  O  O0  1  0.19666700  0.59304500  0.12156000  1
  O  O1  1  0.47148500  0.07510700  0.87844000  1
  O  O2  1  0.77256400  0.67828200  0.60720300  1
  O  O3  1  0.07107800  0.16536100  0.39279700  1
  O  O4  1  0.40695500  0.52851500  0.60362200  1
  O  O5  1  0.92489300  0.80333300  0.39637800  1
  O  O6  1  0.32171800  0.92892200  0.09428300  1
  O  O7  1  0.83463900  0.22743600  0.90571700  1
loop_
_geom_bond_atom_site_label_1
_geom_bond_atom_site_label_2
_geom_bond_distance
_geom_bond_site_symmetry_2
Na0 O0 2.603329 1_656
Na0 O1 2.603329 1_554
Na0 O5 2.603329 1_545
Na0 O4 2.603329 1_555
Na0 O3 2.606025 1_655
Na0 O7 2.606025 1_555
Na0 O6 2.606030 1_545
Na0 O2 2.606032 1_555
La0 O2 2.521342 1_555
La0 O7 2.521344 1_554
La0 O3 2.521344 1_554
La0 O6 2.521346 1_555
La0 O4 2.538617 1_554
La0 O5 2.538617 1_555
La0 O1 2.538617 1_554
La0 O0 2.538617 1_555
Mo0 O0 1.802398 1_555
Mo0 O5 1.802398 1_455
Mo0 O1 1.802398 1_565
Mo0 O4 1.802398 1_555
Mo1 O6 1.801453 1_545
Mo1 O2 1.801455 1_444
Mo1 O7 1.801459 1_454
Mo1 O3 1.801459 1_555
