# generated using pymatgen
data_CaSi7N10
_symmetry_space_group_name_H-M   'P 1'
_cell_length_a   6.85990893
_cell_length_b   6.80786800
_cell_length_c   9.67332633
_cell_angle_alpha   90.00000000
_cell_angle_beta   105.41876907
_cell_angle_gamma   90.00000000
_symmetry_Int_Tables_number   1
_chemical_formula_structural   CaSi7N10
_chemical_formula_sum   'Ca2 Si14 N20'
_cell_volume   435.49795115
_cell_formula_units_Z   2
loop_
 _symmetry_equiv_pos_site_id
 _symmetry_equiv_pos_as_xyz
  1  'x, y, z'
loop_
 _atom_site_type_symbol
 _atom_site_label
 _atom_site_symmetry_multiplicity
 _atom_site_fract_x
 _atom_site_fract_y
 _atom_site_fract_z
 _atom_site_occupancy
  Ca  Ca0  1  0.91118900  0.00543600  0.62351500  1
  Ca  Ca1  1  0.91118900  0.99456400  0.12351500  1
  Si  Si0  1  0.54202000  0.97615800  0.82862300  1
  Si  Si1  1  0.54202000  0.02384200  0.32862300  1
  Si  Si2  1  0.35537900  0.02497500  0.01943500  1
  Si  Si3  1  0.35537900  0.97502500  0.51943500  1
  Si  Si4  1  0.11208900  0.39604800  0.07643300  1
  Si  Si5  1  0.11208900  0.60395200  0.57643300  1
  Si  Si6  1  0.66467600  0.36958900  0.99328100  1
  Si  Si7  1  0.66467600  0.63041100  0.49328100  1
  Si  Si8  1  0.85159700  0.62710500  0.81209400  1
  Si  Si9  1  0.85159700  0.37289500  0.31209400  1
  Si  Si10  1  0.29787900  0.62100400  0.88558100  1
  Si  Si11  1  0.29787900  0.37899600  0.38558100  1
  Si  Si12  1  0.48547000  0.37109500  0.68996300  1
  Si  Si13  1  0.48547000  0.62890500  0.18996300  1
  N  N0  1  0.75680400  0.85126700  0.83561000  1
  N  N1  1  0.75680400  0.14873300  0.33561000  1
  N  N2  1  0.57063500  0.13410500  0.97837800  1
  N  N3  1  0.57063500  0.86589500  0.47837800  1
  N  N4  1  0.32584200  0.87015700  0.86894000  1
  N  N5  1  0.32584200  0.12984300  0.36894000  1
  N  N6  1  0.15921900  0.16310500  0.03221900  1
  N  N7  1  0.15921900  0.83689500  0.53221900  1
  N  N8  1  0.28754700  0.50209700  0.72648000  1
  N  N9  1  0.28754700  0.49790300  0.22648000  1
  N  N10  1  0.45594900  0.11831600  0.67384600  1
  N  N11  1  0.45594900  0.88168400  0.17384600  1
  N  N12  1  0.88629100  0.37618700  0.13338300  1
  N  N13  1  0.88629100  0.62381300  0.63338300  1
  N  N14  1  0.07956600  0.57676100  0.94012000  1
  N  N15  1  0.07956600  0.42323900  0.44012000  1
  N  N16  1  0.70282600  0.42225600  0.82586500  1
  N  N17  1  0.70282600  0.57774400  0.32586500  1
  N  N18  1  0.49732200  0.53826400  0.02553300  1
  N  N19  1  0.49732200  0.46173600  0.52553300  1
loop_
_geom_bond_atom_site_label_1
_geom_bond_atom_site_label_2
_geom_bond_distance
_geom_bond_site_symmetry_2
Ca0 N7 2.406336 1_645
Ca0 N3 2.566551 1_545
Ca0 N13 2.607060 1_545
Ca0 N0 2.754620 1_545
Ca0 N1 2.874223 1_555
Ca1 N6 2.406336 1_665
Ca1 N2 2.566551 1_564
Ca1 N12 2.607060 1_565
Ca1 N1 2.754620 1_565
Ca1 N0 2.874223 1_554
N0 Si0 1.686840 1_555
N0 Si8 1.697684 1_555
N1 Si1 1.686840 1_555
N1 Si9 1.697684 1_555
N2 Si6 1.719759 1_555
N2 Si0 1.772592 1_545
N2 Si2 1.789413 1_556
N3 Si7 1.719759 1_555
N3 Si1 1.772592 1_565
N3 Si3 1.789413 1_555
N4 Si10 1.719368 1_555
N4 Si2 1.764765 1_566
N4 Si0 1.783137 1_555
N5 Si11 1.719368 1_555
N5 Si3 1.764765 1_545
N5 Si1 1.783137 1_555
N6 Si2 1.672968 1_555
N6 Si4 1.695844 1_555
N7 Si3 1.672968 1_555
N7 Si5 1.695844 1_555
N8 Si10 1.723643 1_555
N8 Si12 1.737422 1_555
N8 Si5 1.762753 1_555
N9 Si11 1.723643 1_555
N9 Si13 1.737422 1_555
N9 Si4 1.762753 1_555
N10 Si12 1.734929 1_555
N10 Si0 1.748373 1_545
N10 Si3 1.763708 1_545
N11 Si13 1.734929 1_555
N11 Si1 1.748373 1_565
N11 Si2 1.763708 1_565
N12 Si6 1.747668 1_554
N12 Si4 1.781788 1_655
N12 Si9 1.806773 1_555
N13 Si7 1.747668 1_555
N13 Si5 1.781788 1_655
N13 Si8 1.806773 1_555
N14 Si10 1.741268 1_555
N14 Si8 1.751276 1_455
N14 Si4 1.773588 1_556
N15 Si11 1.741268 1_555
N15 Si9 1.751276 1_455
N15 Si5 1.773588 1_555
N16 Si12 1.740819 1_555
N16 Si6 1.745020 1_555
N16 Si8 1.753977 1_555
N17 Si13 1.740819 1_555
N17 Si7 1.745020 1_555
N17 Si9 1.753977 1_555
N18 Si6 1.710088 1_554
N18 Si13 1.728038 1_555
N18 Si10 1.742706 1_554
N19 Si7 1.710088 1_555
N19 Si12 1.728038 1_555
N19 Si11 1.742706 1_555
