# generated using pymatgen
data_Tl2GaCu3Se4
_symmetry_space_group_name_H-M   'P 1'
_cell_length_a   7.54454038
_cell_length_b   7.54454038
_cell_length_c   5.65248500
_cell_angle_alpha   90.00000000
_cell_angle_beta   90.00000000
_cell_angle_gamma   135.84755474
_symmetry_Int_Tables_number   1
_chemical_formula_structural   Tl2GaCu3Se4
_chemical_formula_sum   'Tl2 Ga1 Cu3 Se4'
_cell_volume   224.11434594
_cell_formula_units_Z   1
loop_
 _symmetry_equiv_pos_site_id
 _symmetry_equiv_pos_as_xyz
  1  'x, y, z'
loop_
 _atom_site_type_symbol
 _atom_site_label
 _atom_site_symmetry_multiplicity
 _atom_site_fract_x
 _atom_site_fract_y
 _atom_site_fract_z
 _atom_site_occupancy
  Tl  Tl0  1  0.50000000  0.00000000  0.24858700  1
  Tl  Tl1  1  0.00000000  0.50000000  0.75141300  1
  Ga  Ga0  1  0.00000000  0.00000000  0.00000000  1
  Cu  Cu0  1  0.50000000  0.50000000  0.50000000  1
  Cu  Cu1  1  0.50000000  0.50000000  0.00000000  1
  Cu  Cu2  1  0.00000000  0.00000000  0.50000000  1
  Se  Se0  1  0.64428400  0.86350500  0.75423300  1
  Se  Se1  1  0.13649500  0.35571600  0.24576700  1
  Se  Se2  1  0.86350500  0.64428500  0.24576700  1
  Se  Se3  1  0.35571500  0.13649500  0.75423300  1
loop_
_geom_bond_atom_site_label_1
_geom_bond_atom_site_label_2
_geom_bond_distance
_geom_bond_site_symmetry_2
Ga0 Se2 2.495360 1_445
Ga0 Se3 2.495360 1_554
Ga0 Se1 2.495366 1_555
Ga0 Se0 2.495366 1_444
Cu0 Se3 2.547025 1_555
Cu0 Se2 2.547025 1_555
Cu0 Se0 2.547027 1_555
Cu0 Se1 2.547027 1_555
Cu1 Se2 2.520335 1_555
Cu1 Se3 2.520335 1_554
Cu1 Se1 2.520338 1_555
Cu1 Se0 2.520338 1_554
Cu2 Se3 2.522314 1_555
Cu2 Se2 2.522314 1_445
Cu2 Se0 2.522320 1_445
Cu2 Se1 2.522320 1_555
