# generated using pymatgen
data_O2
_symmetry_space_group_name_H-M   'P 1'
_cell_length_a   2.35187130
_cell_length_b   2.35140528
_cell_length_c   4.16585629
_cell_angle_alpha   106.38525247
_cell_angle_beta   106.52734754
_cell_angle_gamma   89.84802324
_symmetry_Int_Tables_number   1
_chemical_formula_structural   O2
_chemical_formula_sum   O2
_cell_volume   21.11365299
_cell_formula_units_Z   1
loop_
 _symmetry_equiv_pos_site_id
 _symmetry_equiv_pos_as_xyz
  1  'x, y, z'
loop_
 _atom_site_type_symbol
 _atom_site_label
 _atom_site_symmetry_multiplicity
 _atom_site_fract_x
 _atom_site_fract_y
 _atom_site_fract_z
 _atom_site_occupancy
  O  O0  1  0.90476948  0.91422647  0.82750716  1
  O  O1  1  0.06535952  0.07351353  0.14703684  1
loop_
_geom_bond_atom_site_label_1
_geom_bond_atom_site_label_2
_geom_bond_distance
_geom_bond_site_symmetry_2
O0 O1 1.219930 1_666
