# generated using pymatgen
data_ZnCoBi2O7
_symmetry_space_group_name_H-M   'P 1'
_cell_length_a   15.26010100
_cell_length_b   7.11245800
_cell_length_c   11.59399692
_cell_angle_alpha   77.60763385
_cell_angle_beta   90.00000000
_cell_angle_gamma   90.00000000
_symmetry_Int_Tables_number   1
_chemical_formula_structural   ZnCoBi2O7
_chemical_formula_sum   'Zn8 Co8 Bi16 O56'
_cell_volume   1229.05659851
_cell_formula_units_Z   8
loop_
 _symmetry_equiv_pos_site_id
 _symmetry_equiv_pos_as_xyz
  1  'x, y, z'
loop_
 _atom_site_type_symbol
 _atom_site_label
 _atom_site_symmetry_multiplicity
 _atom_site_fract_x
 _atom_site_fract_y
 _atom_site_fract_z
 _atom_site_occupancy
  Zn  Zn0  1  0.48438600  0.93893600  0.86779400  1
  Zn  Zn1  1  0.89544700  0.79739400  0.87873700  1
  Zn  Zn2  1  0.39544700  0.20260600  0.62126300  1
  Zn  Zn3  1  0.10455300  0.20260600  0.12126300  1
  Zn  Zn4  1  0.60455300  0.79739400  0.37873700  1
  Zn  Zn5  1  0.01561400  0.93893600  0.36779400  1
  Zn  Zn6  1  0.51561400  0.06106400  0.13220600  1
  Zn  Zn7  1  0.98438600  0.06106400  0.63220600  1
  Co  Co0  1  0.67341900  0.34391900  0.08810100  1
  Co  Co1  1  0.17341900  0.65608100  0.41189900  1
  Co  Co2  1  0.32658100  0.65608100  0.91189900  1
  Co  Co3  1  0.82658100  0.34391900  0.58810100  1
  Co  Co4  1  0.74662300  0.00425400  0.25566600  1
  Co  Co5  1  0.24662300  0.99574600  0.24433400  1
  Co  Co6  1  0.25337700  0.99574600  0.74433400  1
  Co  Co7  1  0.75337700  0.00425400  0.75566600  1
  Bi  Bi0  1  0.90040900  0.12365100  0.03381200  1
  Bi  Bi1  1  0.99563400  0.58841000  0.65851800  1
  Bi  Bi2  1  0.50436600  0.58841000  0.15851800  1
  Bi  Bi3  1  0.00436600  0.41159000  0.34148200  1
  Bi  Bi4  1  0.71448200  0.47498700  0.80792700  1
  Bi  Bi5  1  0.21448200  0.52501300  0.69207300  1
  Bi  Bi6  1  0.28551800  0.52501300  0.19207300  1
  Bi  Bi7  1  0.78551800  0.47498700  0.30792700  1
  Bi  Bi8  1  0.49563400  0.41159000  0.84148200  1
  Bi  Bi9  1  0.20037600  0.12734400  0.48765400  1
  Bi  Bi10  1  0.70037600  0.87265600  0.01234600  1
  Bi  Bi11  1  0.79962400  0.87265600  0.51234600  1
  Bi  Bi12  1  0.40040900  0.87634900  0.46618800  1
  Bi  Bi13  1  0.59959100  0.12365100  0.53381200  1
  Bi  Bi14  1  0.09959100  0.87634900  0.96618800  1
  Bi  Bi15  1  0.29962400  0.12734400  0.98765400  1
  O  O0  1  0.04538200  0.16308000  0.98208500  1
  O  O1  1  0.54538200  0.83692000  0.51791500  1
  O  O2  1  0.95461800  0.83692000  0.01791500  1
  O  O3  1  0.45461800  0.16308000  0.48208500  1
  O  O4  1  0.81929300  0.03282900  0.89166500  1
  O  O5  1  0.31929300  0.96717100  0.60833500  1
  O  O6  1  0.18070700  0.96717100  0.10833500  1
  O  O7  1  0.68070700  0.03282900  0.39166500  1
  O  O8  1  0.80681200  0.91396700  0.13992400  1
  O  O9  1  0.30681200  0.08603300  0.36007600  1
  O  O10  1  0.19318800  0.08603300  0.86007600  1
  O  O11  1  0.69318800  0.91396700  0.63992400  1
  O  O12  1  0.31524800  0.41607700  0.87219600  1
  O  O13  1  0.81524800  0.58392300  0.62780400  1
  O  O14  1  0.68475200  0.58392300  0.12780400  1
  O  O15  1  0.18475200  0.41607700  0.37219600  1
  O  O16  1  0.34747000  0.99197300  0.15606500  1
  O  O17  1  0.84747000  0.00802700  0.34393500  1
  O  O18  1  0.65253000  0.00802700  0.84393500  1
  O  O19  1  0.15253000  0.99197300  0.65606500  1
  O  O20  1  0.34687800  0.93986900  0.87389800  1
  O  O21  1  0.43321000  0.68411800  0.81826800  1
  O  O22  1  0.84687800  0.06013100  0.62610200  1
  O  O23  1  0.15312200  0.93986900  0.37389800  1
  O  O24  1  0.48671300  0.18738800  0.74017300  1
  O  O25  1  0.98671300  0.81261200  0.75982700  1
  O  O26  1  0.51328700  0.81261200  0.25982700  1
  O  O27  1  0.01328700  0.18738800  0.24017300  1
  O  O28  1  0.45379900  0.17375200  0.98063300  1
  O  O29  1  0.95379900  0.82624800  0.51936700  1
  O  O30  1  0.54620100  0.82624800  0.01936700  1
  O  O31  1  0.04620100  0.17375200  0.48063300  1
  O  O32  1  0.90549300  0.52930000  0.21484300  1
  O  O33  1  0.40549300  0.47070000  0.28515700  1
  O  O34  1  0.09450700  0.47070000  0.78515700  1
  O  O35  1  0.59450700  0.52930000  0.71484300  1
  O  O36  1  0.76127000  0.26329400  0.19868300  1
  O  O37  1  0.26127000  0.73670600  0.30131700  1
  O  O38  1  0.23873000  0.73670600  0.80131700  1
  O  O39  1  0.73873000  0.26329400  0.69868300  1
  O  O40  1  0.73207800  0.34501100  0.47979400  1
  O  O41  1  0.23207800  0.65498900  0.02020600  1
  O  O42  1  0.26792200  0.65498900  0.52020600  1
  O  O43  1  0.76792200  0.34501100  0.97979400  1
  O  O44  1  0.72691100  0.73733200  0.33973500  1
  O  O45  1  0.22691100  0.26266800  0.16026500  1
  O  O46  1  0.27308900  0.26266800  0.66026500  1
  O  O47  1  0.77308900  0.73733200  0.83973500  1
  O  O48  1  0.89164000  0.44113300  0.44872400  1
  O  O49  1  0.39164000  0.55886700  0.05127600  1
  O  O50  1  0.10836000  0.55886700  0.55127600  1
  O  O51  1  0.60836000  0.44113300  0.94872400  1
  O  O52  1  0.06679000  0.68411800  0.31826800  1
  O  O53  1  0.56679000  0.31588200  0.18173200  1
  O  O54  1  0.93321000  0.31588200  0.68173200  1
  O  O55  1  0.65312200  0.06013100  0.12610200  1
loop_
_geom_bond_atom_site_label_1
_geom_bond_atom_site_label_2
_geom_bond_distance
_geom_bond_site_symmetry_2
Co0 O36 1.858568 1_555
Co0 O14 1.868949 1_555
Co0 O51 1.896163 1_554
Co0 O43 1.911128 1_554
Co0 O53 1.942413 1_555
Co0 O55 1.995600 1_555
Co1 O37 1.858568 1_555
Co1 O15 1.868949 1_555
Co1 O50 1.896163 1_555
Co1 O42 1.911128 1_555
Co1 O52 1.942413 1_555
Co1 O23 1.995600 1_555
Co2 O38 1.858568 1_555
Co2 O12 1.868949 1_555
Co2 O49 1.896163 1_556
Co2 O41 1.911128 1_556
Co2 O21 1.942413 1_555
Co2 O20 1.995600 1_555
Co3 O39 1.858568 1_555
Co3 O13 1.868949 1_555
Co3 O48 1.896163 1_555
Co3 O40 1.911128 1_555
Co3 O54 1.942413 1_555
Co3 O22 1.995600 1_555
Co4 O36 1.832613 1_555
Co4 O8 1.851104 1_545
Co4 O17 1.851529 1_555
Co4 O7 1.917515 1_555
Co4 O44 1.962266 1_545
Co4 O55 2.047942 1_555
Co5 O37 1.832613 1_555
Co5 O9 1.851104 1_565
Co5 O16 1.851529 1_555
Co5 O6 1.917515 1_555
Co5 O45 1.962266 1_565
Co5 O23 2.047942 1_555
Co6 O38 1.832613 1_555
Co6 O10 1.851104 1_565
Co6 O19 1.851529 1_555
Co6 O5 1.917515 1_555
Co6 O46 1.962266 1_565
Co6 O20 2.047942 1_555
Co7 O39 1.832613 1_555
Co7 O11 1.851104 1_545
Co7 O18 1.851529 1_555
Co7 O4 1.917515 1_555
Co7 O47 1.962266 1_545
Co7 O22 2.047942 1_555
Bi0 O8 2.233889 1_545
Bi0 O2 2.244686 1_545
Bi0 O4 2.263300 1_554
Bi0 O0 2.293558 1_654
Bi0 O43 2.556429 1_554
Bi1 O54 2.124415 1_555
Bi1 O34 2.146065 1_655
Bi1 O50 2.159019 1_655
Bi1 O29 2.168074 1_555
Bi1 O25 2.178282 1_555
Bi2 O53 2.124415 1_555
Bi2 O33 2.146065 1_555
Bi2 O49 2.159019 1_555
Bi2 O30 2.168074 1_555
Bi2 O26 2.178282 1_555
Bi3 O52 2.124415 1_555
Bi3 O32 2.146065 1_455
Bi3 O48 2.159019 1_455
Bi3 O31 2.168074 1_555
Bi3 O27 2.178282 1_555
Bi4 O35 2.118239 1_555
Bi4 O43 2.167847 1_555
Bi4 O47 2.170911 1_555
Bi4 O39 2.196964 1_555
Bi4 O51 2.275206 1_555
Bi4 O13 2.575177 1_555
Bi5 O34 2.118239 1_555
Bi5 O42 2.167847 1_555
Bi5 O46 2.170911 1_555
Bi5 O38 2.196964 1_555
Bi5 O50 2.275206 1_555
Bi5 O12 2.575177 1_555
Bi6 O33 2.118239 1_555
Bi6 O41 2.167847 1_555
Bi6 O45 2.170911 1_555
Bi6 O37 2.196964 1_555
Bi6 O49 2.275206 1_555
Bi6 O15 2.575177 1_555
Bi7 O32 2.118239 1_555
Bi7 O40 2.167847 1_555
Bi7 O44 2.170911 1_555
Bi7 O36 2.196964 1_555
Bi7 O48 2.275206 1_555
Bi7 O14 2.575177 1_555
Bi8 O21 2.124415 1_555
Bi8 O35 2.146065 1_555
Bi8 O51 2.159019 1_555
Bi8 O28 2.168074 1_555
Bi8 O24 2.178282 1_555
Bi9 O19 2.113220 1_545
Bi9 O23 2.189119 1_545
Bi9 O15 2.210460 1_555
Bi9 O9 2.258058 1_555
Bi9 O31 2.374734 1_555
Bi9 O5 2.421664 1_545
Bi9 O46 2.643738 1_555
Bi10 O18 2.113220 1_564
Bi10 O55 2.189119 1_565
Bi10 O14 2.210460 1_555
Bi10 O8 2.258058 1_555
Bi10 O30 2.374734 1_555
Bi10 O4 2.421664 1_564
Bi10 O47 2.643738 1_554
Bi11 O17 2.113220 1_565
Bi11 O22 2.189119 1_565
Bi11 O13 2.210460 1_555
Bi11 O11 2.258058 1_555
Bi11 O29 2.374734 1_555
Bi11 O7 2.421664 1_565
Bi11 O44 2.643738 1_555
Bi12 O9 2.233889 1_565
Bi12 O3 2.244686 1_565
Bi12 O5 2.263300 1_555
Bi12 O1 2.293558 1_555
Bi12 O42 2.556429 1_555
Bi13 O11 2.233889 1_545
Bi13 O1 2.244686 1_545
Bi13 O7 2.263300 1_555
Bi13 O3 2.293558 1_555
Bi13 O40 2.556429 1_555
Bi14 O10 2.233889 1_565
Bi14 O0 2.244686 1_565
Bi14 O6 2.263300 1_556
Bi14 O2 2.293558 1_456
Bi14 O41 2.556429 1_556
Bi15 O16 2.113220 1_546
Bi15 O20 2.189119 1_545
Bi15 O12 2.210460 1_555
Bi15 O10 2.258058 1_555
Bi15 O28 2.374734 1_555
Bi15 O6 2.421664 1_546
Bi15 O45 2.643738 1_556
O0 Zn3 1.921683 1_556
O1 Zn4 1.921683 1_555
O2 Zn1 1.921683 1_554
O3 Zn2 1.921683 1_555
O4 Zn1 2.069960 1_545
O5 Zn2 2.069960 1_565
O6 Zn3 2.069960 1_565
O7 Zn4 2.069960 1_545
O20 Zn0 2.099638 1_555
O21 Zn0 2.161248 1_555
O22 Zn7 2.099638 1_555
O23 Zn5 2.099638 1_555
O24 Zn2 1.946282 1_555
O24 Zn0 2.047193 1_545
O25 Zn1 1.946282 1_555
O25 Zn7 2.047193 1_565
O26 Zn4 1.946282 1_555
O26 Zn6 2.047193 1_565
O27 Zn3 1.946282 1_555
O27 Zn5 2.047193 1_545
O28 Zn6 2.003971 1_556
O28 Zn0 2.378338 1_545
O29 Zn5 2.003971 1_655
O29 Zn7 2.378338 1_565
O30 Zn0 2.003971 1_554
O30 Zn6 2.378338 1_565
O31 Zn7 2.003971 1_455
O31 Zn5 2.378338 1_545
O44 Zn4 1.989044 1_555
O45 Zn3 1.989044 1_555
O46 Zn2 1.989044 1_555
O47 Zn1 1.989044 1_555
O52 Zn5 2.161248 1_555
O53 Zn6 2.161248 1_555
O54 Zn7 2.161248 1_555
O55 Zn6 2.099638 1_555
