# generated using pymatgen
data_Sr3H5(OsO4)2
_symmetry_space_group_name_H-M   'P 1'
_cell_length_a   5.87796100
_cell_length_b   9.94345852
_cell_length_c   10.79790845
_cell_angle_alpha   116.61953445
_cell_angle_beta   87.11798932
_cell_angle_gamma   106.68393578
_symmetry_Int_Tables_number   1
_chemical_formula_structural   Sr3H5(OsO4)2
_chemical_formula_sum   'Sr6 H10 Os4 O16'
_cell_volume   538.19296017
_cell_formula_units_Z   2
loop_
 _symmetry_equiv_pos_site_id
 _symmetry_equiv_pos_as_xyz
  1  'x, y, z'
loop_
 _atom_site_type_symbol
 _atom_site_label
 _atom_site_symmetry_multiplicity
 _atom_site_fract_x
 _atom_site_fract_y
 _atom_site_fract_z
 _atom_site_occupancy
  Sr  Sr0  1  0.05445200  0.24115600  0.34672400  1
  Sr  Sr1  1  0.94554800  0.75884400  0.65327600  1
  Sr  Sr2  1  0.74504700  0.35339200  0.59762200  1
  Sr  Sr3  1  0.25495300  0.64660800  0.40237800  1
  Sr  Sr4  1  0.60803100  0.86444700  0.91886500  1
  Sr  Sr5  1  0.39196900  0.13555300  0.08113500  1
  H  H0  1  0.68529200  0.98978900  0.31234200  1
  H  H1  1  0.31470800  0.01021100  0.68765800  1
  H  H2  1  0.23484900  0.24153100  0.62808800  1
  H  H3  1  0.76515100  0.75846900  0.37191200  1
  H  H4  1  0.34647500  0.43095800  0.16500500  1
  H  H5  1  0.65352500  0.56904200  0.83499500  1
  H  H6  1  0.08944800  0.32858100  0.85747100  1
  H  H7  1  0.91055200  0.67141900  0.14252900  1
  H  H8  1  0.49733200  0.75251700  0.61166800  1
  H  H9  1  0.50266800  0.24748300  0.38833200  1
  Os  Os0  1  0.10878600  0.05726000  0.74489000  1
  Os  Os1  1  0.89121400  0.94274000  0.25511000  1
  Os  Os2  1  0.39435400  0.57446200  0.73597500  1
  Os  Os3  1  0.60564600  0.42553800  0.26402500  1
  O  O0  1  0.25814100  0.36148300  0.88545700  1
  O  O1  1  0.74185900  0.63851700  0.11454300  1
  O  O2  1  0.35938000  0.08699500  0.86444800  1
  O  O3  1  0.64062000  0.91300500  0.13555200  1
  O  O4  1  0.06935600  0.55938700  0.62124900  1
  O  O5  1  0.93064400  0.44061300  0.37875100  1
  O  O6  1  0.47287200  0.48955200  0.35750300  1
  O  O7  1  0.52712800  0.51044800  0.64249700  1
  O  O8  1  0.88900700  0.12861700  0.79627400  1
  O  O9  1  0.11099300  0.87138300  0.20372600  1
  O  O10  1  0.33775100  0.68407800  0.81318400  1
  O  O11  1  0.66224900  0.31592200  0.18681600  1
  O  O12  1  0.93326600  0.05653500  0.58449700  1
  O  O13  1  0.06673400  0.94346500  0.41550300  1
  O  O14  1  0.02487400  0.15832600  0.15543700  1
  O  O15  1  0.97512600  0.84167400  0.84456300  1
loop_
_geom_bond_atom_site_label_1
_geom_bond_atom_site_label_2
_geom_bond_distance
_geom_bond_site_symmetry_2
H0 Os1 1.434113 1_555
H0 O3 1.710325 1_555
H0 Sr0 2.688669 1_665
H1 Os0 1.434113 1_555
H1 O2 1.710325 1_555
H1 Sr1 2.688669 1_445
H4 Os3 1.931171 1_555
H4 Sr3 2.656229 1_555
H4 Sr5 2.750003 1_555
H5 Os2 1.931171 1_555
H5 Sr2 2.656229 1_555
H5 Sr4 2.750003 1_555
H6 O0 0.967903 1_555
H7 O1 0.967903 1_555
H8 Sr3 2.361249 1_555
H8 Sr1 2.673095 1_555
H9 Sr2 2.361249 1_555
H9 Sr0 2.673095 1_555
O2 Os0 1.876917 1_555
O2 Sr5 2.173458 1_556
O3 Os1 1.876917 1_555
O3 Sr4 2.173458 1_554
O4 Sr1 2.184363 1_455
O4 Sr2 2.287610 1_455
O5 Sr0 2.184363 1_655
O5 Sr3 2.287610 1_655
O6 Os3 1.289706 1_555
O6 Sr3 2.173120 1_555
O7 Os2 1.289706 1_555
O7 Sr2 2.173120 1_555
O8 Os0 1.606740 1_655
O9 Os1 1.606740 1_455
O10 Os2 1.166098 1_555
O10 Sr4 1.937782 1_555
O11 Os3 1.166098 1_555
O11 Sr5 1.937782 1_555
O12 Os0 2.056255 1_655
O13 Os1 2.056255 1_455
O14 Sr0 1.845068 1_555
O14 Sr5 2.301001 1_555
O15 Sr1 1.845068 1_555
O15 Sr4 2.301001 1_555
