# generated using pymatgen
data_TmFeB4
_symmetry_space_group_name_H-M   'P 1'
_cell_length_a   3.33110528
_cell_length_b   5.83373797
_cell_length_c   11.28140080
_cell_angle_alpha   90.00000000
_cell_angle_beta   90.00000000
_cell_angle_gamma   90.00000000
_symmetry_Int_Tables_number   1
_chemical_formula_structural   TmFeB4
_chemical_formula_sum   'Tm4 Fe4 B16'
_cell_volume   219.22915305
_cell_formula_units_Z   4
loop_
 _symmetry_equiv_pos_site_id
 _symmetry_equiv_pos_as_xyz
  1  'x, y, z'
loop_
 _atom_site_type_symbol
 _atom_site_label
 _atom_site_symmetry_multiplicity
 _atom_site_fract_x
 _atom_site_fract_y
 _atom_site_fract_z
 _atom_site_occupancy
  Tm  Tm0  1  0.50000000  0.37313917  0.15031889  1
  Tm  Tm1  1  0.50000000  0.62686083  0.84968111  1
  Tm  Tm2  1  0.50000000  0.12686083  0.65031889  1
  Tm  Tm3  1  0.50000000  0.87313917  0.34968111  1
  Fe  Fe0  1  0.50000000  0.36642006  0.41116006  1
  Fe  Fe1  1  0.50000000  0.63357994  0.58883994  1
  Fe  Fe2  1  0.50000000  0.13357994  0.91116006  1
  Fe  Fe3  1  0.50000000  0.86642006  0.08883994  1
  B  B0  1  0.00000000  0.11178215  0.04626900  1
  B  B1  1  0.00000000  0.88821785  0.95373100  1
  B  B2  1  0.00000000  0.38821785  0.54626900  1
  B  B3  1  0.00000000  0.61178215  0.45373100  1
  B  B4  1  0.00000000  0.13852574  0.46842283  1
  B  B5  1  0.00000000  0.86147426  0.53157717  1
  B  B6  1  0.00000000  0.36147426  0.96842283  1
  B  B7  1  0.00000000  0.63852574  0.03157717  1
  B  B8  1  0.00000000  0.02434426  0.19074767  1
  B  B9  1  0.00000000  0.97565574  0.80925233  1
  B  B10  1  0.00000000  0.47565574  0.69074767  1
  B  B11  1  0.00000000  0.52434426  0.30925233  1
  B  B12  1  0.00000000  0.21672004  0.31598923  1
  B  B13  1  0.00000000  0.78327996  0.68401077  1
  B  B14  1  0.00000000  0.28327996  0.81598923  1
  B  B15  1  0.00000000  0.71672004  0.18401077  1
loop_
_geom_bond_atom_site_label_1
_geom_bond_atom_site_label_2
_geom_bond_distance
_geom_bond_site_symmetry_2
B0 B1 1.670577 1_544
B0 B6 1.700898 1_554
B0 B8 1.707875 1_555
B0 Fe3 2.248012 1_445
B0 Fe3 2.248012 1_545
B0 Fe2 2.261300 1_454
B0 Fe2 2.261300 1_554
B0 Tm0 2.544919 1_455
B0 Tm0 2.544919 1_555
B1 B7 1.700898 1_556
B1 B9 1.707875 1_555
B1 Fe2 2.248012 1_465
B1 Fe2 2.248012 1_565
B1 Fe3 2.261300 1_456
B1 Fe3 2.261300 1_556
B1 Tm1 2.544919 1_555
B1 Tm1 2.544919 1_455
B2 B3 1.670577 1_555
B2 B4 1.700898 1_555
B2 Fe1 2.248012 1_555
B2 Fe1 2.248012 1_455
B2 Fe0 2.261300 1_455
B2 Fe0 2.261300 1_555
B2 Tm2 2.544919 1_455
B2 Tm2 2.544919 1_555
B3 B5 1.700898 1_555
B3 Fe0 2.248012 1_555
B3 Fe0 2.248012 1_455
B3 Fe1 2.261300 1_555
B3 Fe1 2.261300 1_455
B3 Tm3 2.544919 1_555
B3 Tm3 2.544919 1_455
B4 B5 1.766313 1_545
B4 Fe0 2.226857 1_455
B4 Fe0 2.226857 1_555
B4 Tm3 2.639210 1_445
B4 Tm3 2.639210 1_545
B4 Tm2 2.643780 1_555
B4 Tm2 2.643780 1_455
B5 Fe1 2.226857 1_455
B5 Fe1 2.226857 1_555
B5 Tm2 2.639210 1_465
B5 Tm2 2.639210 1_565
B5 Tm3 2.643780 1_555
B5 Tm3 2.643780 1_455
B6 B7 1.766313 1_556
B6 Fe2 2.226857 1_455
B6 Fe2 2.226857 1_555
B6 Tm1 2.639210 1_555
B6 Tm1 2.639210 1_455
B6 Tm0 2.643780 1_456
B6 Tm0 2.643780 1_556
B7 Fe3 2.226857 1_455
B7 Fe3 2.226857 1_555
B7 Tm0 2.639210 1_455
B7 Tm0 2.639210 1_555
B7 Tm1 2.643780 1_554
B7 Tm1 2.643780 1_454
B8 Fe3 2.223637 1_445
B8 Fe3 2.223637 1_545
B8 Tm3 2.601340 1_445
B8 Tm3 2.601340 1_545
B8 Tm0 2.668784 1_555
B8 Tm0 2.668784 1_455
B9 Fe2 2.223637 1_465
B9 Fe2 2.223637 1_565
B9 Tm2 2.601340 1_465
B9 Tm2 2.601340 1_565
B9 Tm1 2.668784 1_455
B9 Tm1 2.668784 1_555
B10 B2 1.707875 1_555
B10 B13 1.796208 1_555
B10 B14 1.804377 1_555
B10 Fe1 2.223637 1_455
B10 Fe1 2.223637 1_555
B10 Tm1 2.601340 1_455
B10 Tm1 2.601340 1_555
B10 Tm2 2.668784 1_455
B10 Tm2 2.668784 1_555
B11 B3 1.707875 1_555
B11 B12 1.796208 1_555
B11 B15 1.804377 1_555
B11 Fe0 2.223637 1_555
B11 Fe0 2.223637 1_455
B11 Tm0 2.601340 1_455
B11 Tm0 2.601340 1_555
B11 Tm3 2.668784 1_555
B11 Tm3 2.668784 1_455
B12 B4 1.779138 1_555
B12 B8 1.804377 1_555
B12 Fe0 2.165522 1_555
B12 Fe0 2.165522 1_455
B12 Tm3 2.633628 1_545
B12 Tm3 2.633628 1_445
B12 Tm0 2.664559 1_455
B12 Tm0 2.664559 1_555
B13 B5 1.779138 1_555
B13 B9 1.804377 1_555
B13 Fe1 2.165522 1_455
B13 Fe1 2.165522 1_555
B13 Tm2 2.633628 1_465
B13 Tm2 2.633628 1_565
B13 Tm1 2.664559 1_555
B13 Tm1 2.664559 1_455
B14 B6 1.779138 1_555
B14 B9 1.796208 1_545
B14 Fe2 2.165522 1_455
B14 Fe2 2.165522 1_555
B14 Tm1 2.633628 1_555
B14 Tm1 2.633628 1_455
B14 Tm2 2.664559 1_455
B14 Tm2 2.664559 1_555
B15 B7 1.779138 1_555
B15 B8 1.796208 1_565
B15 Fe3 2.165522 1_455
B15 Fe3 2.165522 1_555
B15 Tm0 2.633628 1_455
B15 Tm0 2.633628 1_555
B15 Tm3 2.664559 1_455
B15 Tm3 2.664559 1_555
