# generated using pymatgen
data_MnFeCo(PO4)3
_symmetry_space_group_name_H-M   'P 1'
_cell_length_a   5.93936400
_cell_length_b   9.90590600
_cell_length_c   14.60273339
_cell_angle_alpha   89.87931678
_cell_angle_beta   90.00000000
_cell_angle_gamma   90.00000000
_symmetry_Int_Tables_number   1
_chemical_formula_structural   MnFeCo(PO4)3
_chemical_formula_sum   'Mn4 Fe4 Co4 P12 O48'
_cell_volume   859.14672241
_cell_formula_units_Z   4
loop_
 _symmetry_equiv_pos_site_id
 _symmetry_equiv_pos_as_xyz
  1  'x, y, z'
loop_
 _atom_site_type_symbol
 _atom_site_label
 _atom_site_symmetry_multiplicity
 _atom_site_fract_x
 _atom_site_fract_y
 _atom_site_fract_z
 _atom_site_occupancy
  Mn  Mn0  1  0.50000000  0.78002600  0.14743000  1
  Mn  Mn1  1  0.50000000  0.78464500  0.81246600  1
  Mn  Mn2  1  0.00000000  0.71858100  0.64779200  1
  Mn  Mn3  1  0.50000000  0.28365900  0.02137400  1
  Fe  Fe0  1  0.50000000  0.77397400  0.48802700  1
  Fe  Fe1  1  0.00000000  0.72516600  0.98764900  1
  Fe  Fe2  1  0.00000000  0.72291300  0.32159000  1
  Fe  Fe3  1  0.50000000  0.27598300  0.34619900  1
  Co  Co0  1  0.50000000  0.27854600  0.68350100  1
  Co  Co1  1  0.00000000  0.21701400  0.85035200  1
  Co  Co2  1  0.00000000  0.22219600  0.51646900  1
  Co  Co3  1  0.00000000  0.22311500  0.18291200  1
  P  P0  1  0.00000000  0.90373400  0.80441800  1
  P  P1  1  0.00000000  0.90255100  0.47289300  1
  P  P2  1  0.00000000  0.90523900  0.13917200  1
  P  P3  1  0.50000000  0.59847600  0.30608700  1
  P  P4  1  0.50000000  0.59977800  0.97383600  1
  P  P5  1  0.50000000  0.59622400  0.63966600  1
  P  P6  1  0.00000000  0.40236200  0.02831800  1
  P  P7  1  0.00000000  0.40108300  0.36266800  1
  P  P8  1  0.00000000  0.40253600  0.69268900  1
  P  P9  1  0.50000000  0.09693700  0.19181900  1
  P  P10  1  0.50000000  0.09801900  0.52789400  1
  P  P11  1  0.50000000  0.09731300  0.85738200  1
  O  O0  1  0.50000000  0.94637300  0.21531900  1
  O  O1  1  0.50000000  0.94795500  0.55130100  1
  O  O2  1  0.50000000  0.94655700  0.88427100  1
  O  O3  1  0.00000000  0.88195500  0.57764000  1
  O  O4  1  0.00000000  0.88340700  0.90838300  1
  O  O5  1  0.00000000  0.88269400  0.24233600  1
  O  O6  1  0.20162800  0.82869400  0.75680900  1
  O  O7  1  0.79837200  0.82869400  0.75680900  1
  O  O8  1  0.19974100  0.82935400  0.08937800  1
  O  O9  1  0.80025900  0.82935400  0.08937800  1
  O  O10  1  0.20169700  0.82729800  0.42522400  1
  O  O11  1  0.79830300  0.82729800  0.42522400  1
  O  O12  1  0.70480600  0.67046400  0.92736400  1
  O  O13  1  0.29519400  0.67046400  0.92736400  1
  O  O14  1  0.70475100  0.67155600  0.25965100  1
  O  O15  1  0.29524900  0.67155600  0.25965100  1
  O  O16  1  0.69946200  0.67181800  0.59007000  1
  O  O17  1  0.30053800  0.67181800  0.59007000  1
  O  O18  1  0.50000000  0.61760400  0.41022600  1
  O  O19  1  0.50000000  0.61828700  0.74374500  1
  O  O20  1  0.50000000  0.61689000  0.07931500  1
  O  O21  1  0.00000000  0.55204200  0.05285100  1
  O  O22  1  0.00000000  0.55094100  0.38674200  1
  O  O23  1  0.00000000  0.55368600  0.71812300  1
  O  O24  1  0.50000000  0.44684500  0.95311700  1
  O  O25  1  0.50000000  0.44687600  0.28349400  1
  O  O26  1  0.50000000  0.44659000  0.61581300  1
  O  O27  1  0.00000000  0.38288700  0.25793600  1
  O  O28  1  0.00000000  0.38671000  0.58851700  1
  O  O29  1  0.00000000  0.38161800  0.92469900  1
  O  O30  1  0.19957000  0.32639300  0.07848500  1
  O  O31  1  0.80043000  0.32639300  0.07848500  1
  O  O32  1  0.20239200  0.32539800  0.40993700  1
  O  O33  1  0.79760800  0.32539800  0.40993700  1
  O  O34  1  0.20395700  0.32814500  0.74071500  1
  O  O35  1  0.79604300  0.32814500  0.74071500  1
  O  O36  1  0.70377500  0.17355100  0.57527600  1
  O  O37  1  0.29622500  0.17355100  0.57527600  1
  O  O38  1  0.70212500  0.17171300  0.24027100  1
  O  O39  1  0.29787500  0.17171300  0.24027100  1
  O  O40  1  0.70479700  0.17135500  0.90422300  1
  O  O41  1  0.29520300  0.17135500  0.90422300  1
  O  O42  1  0.50000000  0.11793400  0.42388100  1
  O  O43  1  0.50000000  0.11268500  0.75291800  1
  O  O44  1  0.50000000  0.11663100  0.08747400  1
  O  O45  1  0.00000000  0.05397100  0.77825600  1
  O  O46  1  0.00000000  0.05525300  0.11383600  1
  O  O47  1  0.00000000  0.05293100  0.44965500  1
loop_
_geom_bond_atom_site_label_1
_geom_bond_atom_site_label_2
_geom_bond_distance
_geom_bond_site_symmetry_2
Mn0 O20 1.899373 1_555
Mn0 O0 1.924835 1_555
Mn0 O8 2.033710 1_555
Mn0 O9 2.033710 1_555
Mn0 O14 2.304657 1_555
Mn0 O15 2.304657 1_555
Mn1 O2 1.918069 1_555
Mn1 O19 1.931235 1_555
Mn1 O7 1.997483 1_555
Mn1 O6 1.997483 1_555
Mn1 O12 2.359255 1_555
Mn1 O13 2.359255 1_555
Mn2 O3 1.913517 1_555
Mn2 O23 1.927646 1_555
Mn2 O16 2.028040 1_455
Mn2 O17 2.028040 1_555
Mn2 O7 2.272772 1_455
Mn2 O6 2.272772 1_555
Mn3 O24 1.897311 1_554
Mn3 O44 1.913777 1_555
Mn3 O30 2.014983 1_555
Mn3 O31 2.014983 1_555
Mn3 O41 2.377338 1_554
Mn3 O40 2.377338 1_554
Fe0 O18 1.922892 1_555
Fe0 O1 1.957212 1_555
Fe0 O10 2.063267 1_555
Fe0 O11 2.063267 1_555
Fe0 O16 2.154429 1_555
Fe0 O17 2.154429 1_555
Fe1 O4 1.946608 1_555
Fe1 O21 1.959776 1_556
Fe1 O12 2.035816 1_455
Fe1 O13 2.035816 1_555
Fe1 O9 2.164672 1_456
Fe1 O8 2.164672 1_556
Fe2 O22 1.949454 1_555
Fe2 O5 1.958791 1_555
Fe2 O14 2.038116 1_455
Fe2 O15 2.038116 1_555
Fe2 O10 2.191139 1_555
Fe2 O11 2.191139 1_455
Fe3 O25 1.922928 1_555
Fe3 O42 1.931444 1_555
Fe3 O33 2.057241 1_555
Fe3 O32 2.057241 1_555
Fe3 O38 2.215284 1_555
Fe3 O39 2.215284 1_555
Co0 O43 1.928727 1_555
Co0 O26 1.934179 1_555
Co0 O35 2.008183 1_555
Co0 O34 2.008183 1_555
Co0 O37 2.247462 1_555
Co0 O36 2.247462 1_555
Co1 O45 1.929782 1_555
Co1 O29 1.960825 1_555
Co1 O40 1.973838 1_455
Co1 O41 1.973838 1_555
Co1 O34 2.288030 1_555
Co1 O35 2.288030 1_455
Co2 O28 1.941629 1_555
Co2 O47 1.941705 1_555
Co2 O36 2.015774 1_455
Co2 O37 2.015774 1_555
Co2 O33 2.214382 1_455
Co2 O32 2.214382 1_555
Co3 O27 1.926770 1_555
Co3 O46 1.946670 1_555
Co3 O38 2.022144 1_455
Co3 O39 2.022144 1_555
Co3 O30 2.184135 1_555
Co3 O31 2.184135 1_455
O0 P9 1.529737 1_565
O1 P10 1.524609 1_565
O2 P11 1.543332 1_565
O3 P1 1.542713 1_555
O4 P0 1.531048 1_555
O5 P2 1.522475 1_555
O6 P0 1.572314 1_555
O7 P0 1.572314 1_655
O8 P2 1.582237 1_555
O9 P2 1.582237 1_655
O10 P1 1.574014 1_555
O11 P1 1.574014 1_655
O12 P4 1.558360 1_555
O13 P4 1.558360 1_555
O14 P3 1.568657 1_555
O15 P3 1.568657 1_555
O16 P5 1.576844 1_555
O17 P5 1.576844 1_555
O18 P3 1.532869 1_555
O19 P5 1.535927 1_555
O20 P4 1.549936 1_554
O21 P6 1.526115 1_555
O22 P7 1.526257 1_555
O23 P8 1.543414 1_555
O24 P4 1.545481 1_555
O25 P3 1.538227 1_555
O26 P5 1.523351 1_555
O27 P7 1.540336 1_555
O28 P8 1.529581 1_555
O29 P6 1.527439 1_556
O30 P6 1.582923 1_555
O31 P6 1.582923 1_655
O32 P7 1.575234 1_555
O33 P7 1.575234 1_655
O34 P8 1.581179 1_555
O35 P8 1.581179 1_655
O36 P10 1.582893 1_555
O37 P10 1.582893 1_555
O38 P9 1.578818 1_555
O39 P9 1.578818 1_555
O40 P11 1.577173 1_555
O41 P11 1.577173 1_555
O42 P10 1.531220 1_555
O43 P11 1.532722 1_555
O44 P9 1.535753 1_555
O45 P0 1.535707 1_545
O46 P2 1.530632 1_545
O47 P1 1.527114 1_545
