# generated using pymatgen
data_Ba3Y2N4
_symmetry_space_group_name_H-M   'P 1'
_cell_length_a   7.87511103
_cell_length_b   10.58687029
_cell_length_c   6.97340787
_cell_angle_alpha   90.00000168
_cell_angle_beta   91.47190007
_cell_angle_gamma   132.23498292
_symmetry_Int_Tables_number   1
_chemical_formula_structural   Ba3Y2N4
_chemical_formula_sum   'Ba6 Y4 N8'
_cell_volume   430.20049654
_cell_formula_units_Z   2
loop_
 _symmetry_equiv_pos_site_id
 _symmetry_equiv_pos_as_xyz
  1  'x, y, z'
loop_
 _atom_site_type_symbol
 _atom_site_label
 _atom_site_symmetry_multiplicity
 _atom_site_fract_x
 _atom_site_fract_y
 _atom_site_fract_z
 _atom_site_occupancy
  Ba  Ba0  1  0.22149700  0.91752700  0.08486100  1
  Ba  Ba1  1  0.77850300  0.69602900  0.41513900  1
  Ba  Ba2  1  0.77850300  0.08247300  0.91513900  1
  Ba  Ba3  1  0.22149700  0.30397100  0.58486100  1
  Ba  Ba4  1  0.00000000  0.57360500  0.75000000  1
  Ba  Ba5  1  0.00000000  0.42639500  0.25000000  1
  Y  Y0  1  0.51195000  0.15026900  0.57819600  1
  Y  Y1  1  0.48805000  0.63831900  0.92180400  1
  Y  Y2  1  0.48805000  0.84973100  0.42180400  1
  Y  Y3  1  0.51195000  0.36168100  0.07819600  1
  N  N0  1  0.22321400  0.86345100  0.49372600  1
  N  N1  1  0.77678600  0.64023700  0.00627400  1
  N  N2  1  0.77678600  0.13654900  0.50627400  1
  N  N3  1  0.22321400  0.35976300  0.99372600  1
  N  N4  1  0.59867600  0.22817100  0.90065900  1
  N  N5  1  0.40132400  0.62949500  0.59934100  1
  N  N6  1  0.40132400  0.77182900  0.09934100  1
  N  N7  1  0.59867600  0.37050500  0.40065900  1
loop_
_geom_bond_atom_site_label_1
_geom_bond_atom_site_label_2
_geom_bond_distance
_geom_bond_site_symmetry_2
Ba0 N1 2.695082 1_455
Ba0 N6 2.706327 1_555
Ba0 N4 2.890025 1_564
Ba0 N0 2.909571 1_555
Ba1 N0 2.695079 1_655
Ba1 N7 2.706317 1_555
Ba1 N5 2.890030 1_555
Ba1 N1 2.909568 1_555
Ba2 N3 2.695082 1_655
Ba2 N4 2.706327 1_555
Ba2 N6 2.890025 1_546
Ba2 N2 2.909571 1_555
Ba3 N2 2.695079 1_455
Ba3 N5 2.706317 1_555
Ba3 N7 2.890030 1_555
Ba3 N3 2.909568 1_555
Ba4 N1 2.934237 1_456
Ba4 N0 2.934237 1_555
Ba4 N4 3.016463 1_455
Ba4 N5 3.016463 1_555
Ba4 N7 3.318927 1_455
Ba4 N6 3.318927 1_556
Ba5 N3 2.934237 1_554
Ba5 N2 2.934237 1_455
Ba5 N6 3.016463 1_555
Ba5 N7 3.016463 1_455
Ba5 N5 3.318927 1_555
Ba5 N4 3.318927 1_454
N0 Y2 2.254643 1_555
N0 Y0 2.320948 1_565
N1 Y3 2.254643 1_555
N1 Y1 2.320948 1_554
N2 Y0 2.254643 1_555
N2 Y2 2.320948 1_545
N3 Y1 2.254643 1_555
N3 Y3 2.320948 1_556
N4 Y3 2.310466 1_556
N4 Y0 2.316681 1_555
N5 Y2 2.310467 1_555
N5 Y1 2.316681 1_555
N6 Y1 2.310466 1_554
N6 Y2 2.316681 1_555
N7 Y0 2.310467 1_555
N7 Y3 2.316681 1_555
