# generated using pymatgen
data_Mg5Si9
_symmetry_space_group_name_H-M   'P 1'
_cell_length_a   5.41702400
_cell_length_b   7.45840249
_cell_length_c   13.07139752
_cell_angle_alpha   79.96930950
_cell_angle_beta   79.45699122
_cell_angle_gamma   70.01786877
_symmetry_Int_Tables_number   1
_chemical_formula_structural   Mg5Si9
_chemical_formula_sum   'Mg10 Si18'
_cell_volume   484.36750942
_cell_formula_units_Z   2
loop_
 _symmetry_equiv_pos_site_id
 _symmetry_equiv_pos_as_xyz
  1  'x, y, z'
loop_
 _atom_site_type_symbol
 _atom_site_label
 _atom_site_symmetry_multiplicity
 _atom_site_fract_x
 _atom_site_fract_y
 _atom_site_fract_z
 _atom_site_occupancy
  Mg  Mg0  1  0.74935300  0.93357100  0.28720900  1
  Mg  Mg1  1  0.88265700  0.83131600  0.51078600  1
  Mg  Mg2  1  0.93868200  0.40714700  0.45431500  1
  Mg  Mg3  1  0.71902500  0.50185700  0.68982300  1
  Mg  Mg4  1  0.52591600  0.26791400  0.39925700  1
  Mg  Mg5  1  0.25484500  0.03392000  0.59118400  1
  Mg  Mg6  1  0.61736000  0.89297600  0.94124300  1
  Mg  Mg7  1  0.31105600  0.90488100  0.16505200  1
  Mg  Mg8  1  0.29351200  0.24359500  0.78669600  1
  Mg  Mg9  1  0.98963900  0.66588300  0.10192300  1
  Si  Si0  1  0.33389800  0.67298300  0.88094700  1
  Si  Si1  1  0.58152100  0.53008100  0.05919000  1
  Si  Si2  1  0.89590600  0.08424700  0.77723000  1
  Si  Si3  1  0.17016500  0.61028600  0.29688300  1
  Si  Si4  1  0.11704100  0.71575900  0.72173600  1
  Si  Si5  1  0.84999200  0.29482900  0.20484600  1
  Si  Si6  1  0.67855700  0.18928900  0.60162200  1
  Si  Si7  1  0.61956500  0.60828800  0.29831600  1
  Si  Si8  1  0.64882300  0.32634500  0.90697300  1
  Si  Si9  1  0.18415900  0.04840400  0.36024200  1
  Si  Si10  1  0.69917900  0.10439100  0.09105200  1
  Si  Si11  1  0.06679900  0.99700600  0.95083200  1
  Si  Si12  1  0.63723400  0.87526600  0.73256200  1
  Si  Si13  1  0.29832800  0.31463800  0.20749000  1
  Si  Si14  1  0.25257200  0.22885900  0.00856700  1
  Si  Si15  1  0.96502800  0.52505900  0.91248000  1
  Si  Si16  1  0.45041000  0.72128400  0.47349600  1
  Si  Si17  1  0.26837600  0.47008500  0.58828700  1
loop_
_geom_bond_atom_site_label_1
_geom_bond_atom_site_label_2
_geom_bond_distance
_geom_bond_site_symmetry_2
Mg0 Si10 2.674283 1_565
Mg0 Si3 2.696087 1_655
Mg0 Si7 2.721583 1_555
Mg0 Mg4 2.896410 1_565
Mg0 Si9 2.905471 1_565
Mg0 Si5 2.914574 1_565
Mg0 Mg1 3.043575 1_555
Mg0 Si9 3.111104 1_665
Mg0 Mg7 3.122479 1_655
Mg0 Si16 3.166227 1_555
Mg0 Mg7 3.175875 1_555
Mg0 Si13 3.207343 1_565
Mg0 Mg9 3.209497 1_555
Mg1 Si16 2.869791 1_655
Mg1 Si16 2.874714 1_555
Mg1 Si6 2.892582 1_565
Mg1 Si17 2.937209 1_655
Mg1 Si9 2.946642 1_665
Mg1 Si12 2.983536 1_555
Mg1 Si4 3.108633 1_655
Mg2 Si3 2.714906 1_655
Mg2 Si6 2.795607 1_555
Mg2 Si7 2.801567 1_555
Mg2 Si16 2.876591 1_555
Mg2 Si17 2.912144 1_655
Mg2 Si9 2.924974 1_655
Mg3 Si12 2.805867 1_555
Mg3 Si6 2.861829 1_555
Mg3 Si8 2.926754 1_555
Mg3 Si17 2.975834 1_655
Mg3 Si2 3.007672 1_555
Mg3 Si17 3.076944 1_555
Mg3 Si4 3.087311 1_555
Mg3 Si0 3.099403 1_555
Mg3 Si4 3.206191 1_655
Mg4 Si7 2.812722 1_555
Mg4 Si6 2.820156 1_555
Mg4 Si5 2.830297 1_555
Mg4 Si3 2.900891 1_555
Mg4 Si13 2.908210 1_555
Mg4 Si17 2.987296 1_555
Mg4 Si9 3.012588 1_555
Mg5 Si16 2.809060 1_545
Mg5 Si2 2.815022 1_455
Mg5 Si12 2.840765 1_545
Mg5 Si4 2.904175 1_545
Mg5 Si6 2.921244 1_455
Mg5 Si6 2.935499 1_555
Mg5 Si9 3.090659 1_555
Mg6 Si12 2.734593 1_555
Mg6 Si14 2.775484 1_566
Mg6 Si15 2.790413 1_555
Mg6 Si11 2.797855 1_555
Mg6 Si11 2.825193 1_655
Mg6 Si2 2.851326 1_565
Mg6 Si0 2.878634 1_555
Mg6 Si10 2.896251 1_566
Mg6 Si1 2.921707 1_556
Mg7 Si3 2.779488 1_555
Mg7 Si7 2.813728 1_555
Mg7 Si9 2.816868 1_565
Mg7 Si14 2.848739 1_565
Mg7 Si10 2.909095 1_565
Mg7 Si1 3.111608 1_555
Mg7 Si5 3.170845 1_465
Mg7 Si13 3.175685 1_565
Mg7 Si11 3.182444 1_554
Mg8 Si15 2.802720 1_455
Mg8 Si2 2.822249 1_455
Mg8 Si17 2.836221 1_555
Mg8 Si14 2.853501 1_556
Mg8 Si12 2.865919 1_545
Mg8 Si6 2.878266 1_555
Mg8 Si11 2.949373 1_545
Mg8 Si8 2.968928 1_555
Mg8 Si2 3.054347 1_555
Mg9 Si3 2.808794 1_655
Mg9 Si13 2.855598 1_655
Mg9 Si15 2.894041 1_554
Mg9 Si1 2.899118 1_555
Mg9 Si11 2.979717 1_654
Mg9 Si1 2.989994 1_655
Mg9 Si7 3.019046 1_555
Mg9 Si10 3.097637 1_565
Mg9 Si5 3.130895 1_555
Mg9 Si0 3.141137 1_654
Si0 Si4 2.493987 1_555
Si0 Si15 2.535098 1_455
Si0 Si8 2.569386 1_555
Si0 Si11 2.581451 1_555
Si0 Si1 2.768603 1_556
Si0 Si12 2.871746 1_555
Si1 Si15 2.551231 1_554
Si1 Si8 2.609583 1_554
Si1 Si5 2.631380 1_555
Si1 Si13 2.864351 1_555
Si2 Si8 2.551929 1_555
Si2 Si6 2.645979 1_555
Si2 Si4 2.764213 1_645
Si3 Si7 2.432843 1_555
Si5 Si7 2.638007 1_555
Si10 Si11 2.460118 1_644
Si10 Si13 2.604867 1_555
Si10 Si5 2.621273 1_555
Si10 Si14 2.635932 1_555
Si10 Si8 2.673666 1_554
Si11 Si2 2.504482 1_465
Si11 Si14 2.548421 1_566
Si11 Si8 2.769871 1_465
Si12 Si4 2.449803 1_655
Si12 Si2 2.615896 1_565
Si12 Si6 2.699396 1_565
Si13 Si5 2.489795 1_455
Si13 Si3 2.502812 1_555
Si13 Si9 2.705263 1_555
Si13 Si14 2.855787 1_555
Si13 Si5 2.935243 1_555
Si14 Si15 2.506339 1_454
Si14 Si8 2.566481 1_554
Si15 Si8 2.636874 1_555
Si15 Si4 2.780534 1_655
Si16 Si7 2.483932 1_555
Si16 Si17 2.544774 1_555
Si16 Si9 2.709704 1_565
Si17 Si6 2.487509 1_555
Si17 Si4 2.576004 1_555
