# generated using pymatgen
data_Cr7GeN6
_symmetry_space_group_name_H-M   'P 1'
_cell_length_a   9.21694700
_cell_length_b   5.52268600
_cell_length_c   11.36658800
_cell_angle_alpha   90.00000000
_cell_angle_beta   90.00000000
_cell_angle_gamma   90.00000000
_symmetry_Int_Tables_number   1
_chemical_formula_structural   Cr7GeN6
_chemical_formula_sum   'Cr28 Ge4 N24'
_cell_volume   578.58551963
_cell_formula_units_Z   4
loop_
 _symmetry_equiv_pos_site_id
 _symmetry_equiv_pos_as_xyz
  1  'x, y, z'
loop_
 _atom_site_type_symbol
 _atom_site_label
 _atom_site_symmetry_multiplicity
 _atom_site_fract_x
 _atom_site_fract_y
 _atom_site_fract_z
 _atom_site_occupancy
  Cr  Cr0  1  0.01340100  0.75074200  0.99758400  1
  Cr  Cr1  1  0.48659900  0.74925800  0.49758400  1
  Cr  Cr2  1  0.51340100  0.74925800  0.00241600  1
  Cr  Cr3  1  0.98659900  0.75074200  0.50241600  1
  Cr  Cr4  1  0.98659900  0.24925800  0.00241600  1
  Cr  Cr5  1  0.51340100  0.25074200  0.50241600  1
  Cr  Cr6  1  0.48659900  0.25074200  0.99758400  1
  Cr  Cr7  1  0.01340100  0.24925800  0.49758400  1
  Cr  Cr8  1  0.21893300  0.03663900  0.62951500  1
  Cr  Cr9  1  0.28106700  0.46336100  0.12951500  1
  Cr  Cr10  1  0.71893300  0.46336100  0.37048500  1
  Cr  Cr11  1  0.78106700  0.03663900  0.87048500  1
  Cr  Cr12  1  0.78106700  0.96336100  0.37048500  1
  Cr  Cr13  1  0.71893300  0.53663900  0.87048500  1
  Cr  Cr14  1  0.28106700  0.53663900  0.62951500  1
  Cr  Cr15  1  0.21893300  0.96336100  0.12951500  1
  Cr  Cr16  1  0.24707500  0.46741500  0.90590700  1
  Cr  Cr17  1  0.25292500  0.03258500  0.40590700  1
  Cr  Cr18  1  0.74707500  0.03258500  0.09409300  1
  Cr  Cr19  1  0.75292500  0.46741500  0.59409300  1
  Cr  Cr20  1  0.75292500  0.53258500  0.09409300  1
  Cr  Cr21  1  0.74707500  0.96741500  0.59409300  1
  Cr  Cr22  1  0.25292500  0.96741500  0.90590700  1
  Cr  Cr23  1  0.24707500  0.53258500  0.40590700  1
  Cr  Cr24  1  0.00000000  0.52867200  0.75000000  1
  Cr  Cr25  1  0.50000000  0.97132800  0.25000000  1
  Cr  Cr26  1  0.00000000  0.47132800  0.25000000  1
  Cr  Cr27  1  0.50000000  0.02867200  0.75000000  1
  Ge  Ge0  1  0.00000000  0.00638800  0.75000000  1
  Ge  Ge1  1  0.50000000  0.49361200  0.25000000  1
  Ge  Ge2  1  0.00000000  0.99361200  0.25000000  1
  Ge  Ge3  1  0.50000000  0.50638800  0.75000000  1
  N  N0  1  0.11742100  0.71134800  0.85743900  1
  N  N1  1  0.38257900  0.78865200  0.35743900  1
  N  N2  1  0.61742100  0.78865200  0.14256100  1
  N  N3  1  0.88257900  0.71134800  0.64256100  1
  N  N4  1  0.88257900  0.28865200  0.14256100  1
  N  N5  1  0.61742100  0.21134800  0.64256100  1
  N  N6  1  0.38257900  0.21134800  0.85743900  1
  N  N7  1  0.11742100  0.28865200  0.35743900  1
  N  N8  1  0.18337100  0.77871400  0.51349000  1
  N  N9  1  0.31662900  0.72128600  0.01349000  1
  N  N10  1  0.68337100  0.72128600  0.48651000  1
  N  N11  1  0.81662900  0.77871400  0.98651000  1
  N  N12  1  0.81662900  0.22128600  0.48651000  1
  N  N13  1  0.68337100  0.27871400  0.98651000  1
  N  N14  1  0.31662900  0.27871400  0.51349000  1
  N  N15  1  0.18337100  0.22128600  0.01349000  1
  N  N16  1  0.39641700  0.84587400  0.64029000  1
  N  N17  1  0.10358300  0.65412600  0.14029000  1
  N  N18  1  0.89641700  0.65412600  0.35971000  1
  N  N19  1  0.60358300  0.84587400  0.85971000  1
  N  N20  1  0.60358300  0.15412600  0.35971000  1
  N  N21  1  0.89641700  0.34587400  0.85971000  1
  N  N22  1  0.10358300  0.34587400  0.64029000  1
  N  N23  1  0.39641700  0.15412600  0.14029000  1
loop_
_geom_bond_atom_site_label_1
_geom_bond_atom_site_label_2
_geom_bond_distance
_geom_bond_site_symmetry_2
Cr0 N11 1.824551 1_455
Cr0 N0 1.871920 1_555
Cr0 N17 1.899145 1_556
Cr1 N10 1.824551 1_555
Cr1 N1 1.871920 1_555
Cr1 N16 1.899145 1_555
Cr2 N9 1.824551 1_555
Cr2 N2 1.871920 1_555
Cr2 N19 1.899145 1_554
Cr3 N8 1.824551 1_655
Cr3 N3 1.871920 1_555
Cr3 N18 1.899145 1_555
Cr4 N15 1.824551 1_655
Cr4 N4 1.871920 1_555
Cr4 N21 1.899145 1_554
Cr5 N14 1.824551 1_555
Cr5 N5 1.871920 1_555
Cr5 N20 1.899145 1_555
Cr6 N13 1.824551 1_555
Cr6 N6 1.871920 1_555
Cr6 N23 1.899145 1_556
Cr7 N12 1.824551 1_455
Cr7 N7 1.871920 1_555
Cr7 N22 1.899145 1_555
Cr8 N16 1.949609 1_545
Cr8 N8 1.968684 1_545
Cr8 N22 2.015428 1_555
Cr8 N14 2.082641 1_555
Cr8 Ge0 2.444452 1_555
Cr9 N17 1.949609 1_555
Cr9 N9 1.968684 1_555
Cr9 N23 2.015428 1_555
Cr9 N15 2.082641 1_555
Cr9 Ge1 2.444452 1_555
Cr10 N18 1.949609 1_555
Cr10 N10 1.968684 1_555
Cr10 N20 2.015428 1_555
Cr10 N12 2.082641 1_555
Cr10 Ge1 2.444452 1_555
Cr11 N19 1.949609 1_545
Cr11 N11 1.968684 1_545
Cr11 N21 2.015428 1_555
Cr11 N13 2.082641 1_555
Cr11 Ge0 2.444452 1_655
Cr12 N20 1.949609 1_565
Cr12 N12 1.968684 1_565
Cr12 N18 2.015428 1_555
Cr12 N10 2.082641 1_555
Cr12 Ge2 2.444452 1_655
Cr13 N21 1.949609 1_555
Cr13 N13 1.968684 1_555
Cr13 N19 2.015428 1_555
Cr13 N11 2.082641 1_555
Cr13 Ge3 2.444452 1_555
Cr14 N22 1.949609 1_555
Cr14 N14 1.968684 1_555
Cr14 N16 2.015428 1_555
Cr14 N8 2.082641 1_555
Cr14 Ge3 2.444452 1_555
Cr15 N23 1.949609 1_565
Cr15 N15 1.968684 1_565
Cr15 N17 2.015428 1_555
Cr15 N9 2.082641 1_555
Cr15 Ge2 2.444452 1_555
Cr16 N0 1.883194 1_555
Cr16 N15 1.920364 1_556
Cr16 N6 1.965513 1_555
Cr16 N9 1.967762 1_556
Cr17 N1 1.883194 1_545
Cr17 N14 1.920364 1_555
Cr17 N7 1.965513 1_555
Cr17 N8 1.967762 1_545
Cr18 N2 1.883194 1_545
Cr18 N13 1.920364 1_554
Cr18 N4 1.965513 1_555
Cr18 N11 1.967762 1_544
Cr19 N3 1.883194 1_555
Cr19 N12 1.920364 1_555
Cr19 N5 1.965513 1_555
Cr19 N10 1.967762 1_555
Cr20 N4 1.883194 1_555
Cr20 N11 1.920364 1_554
Cr20 N2 1.965513 1_555
Cr20 N13 1.967762 1_554
Cr21 N5 1.883194 1_565
Cr21 N10 1.920364 1_555
Cr21 N3 1.965513 1_555
Cr21 N12 1.967762 1_565
Cr22 N6 1.883194 1_565
Cr22 N9 1.920364 1_556
Cr22 N0 1.965513 1_555
Cr22 N15 1.967762 1_566
Cr23 N7 1.883194 1_555
Cr23 N8 1.920364 1_555
Cr23 N1 1.965513 1_555
Cr23 N14 1.967762 1_555
Cr24 N22 1.867011 1_555
Cr24 N21 1.867011 1_455
Cr24 N0 1.918453 1_555
Cr24 N3 1.918453 1_455
Cr25 N20 1.867011 1_565
Cr25 N23 1.867011 1_565
Cr25 N1 1.918453 1_555
Cr25 N2 1.918453 1_555
Cr26 N17 1.867011 1_555
Cr26 N18 1.867011 1_455
Cr26 N4 1.918453 1_455
Cr26 N7 1.918453 1_555
Cr27 N19 1.867011 1_545
Cr27 N16 1.867011 1_545
Cr27 N6 1.918453 1_555
Cr27 N5 1.918453 1_555
Ge0 N0 2.306002 1_545
Ge0 N3 2.306002 1_445
Ge0 N22 2.445756 1_555
Ge0 N21 2.445756 1_455
Ge1 N1 2.306002 1_555
Ge1 N2 2.306002 1_555
Ge1 N20 2.445756 1_555
Ge1 N23 2.445756 1_555
Ge2 N7 2.306002 1_565
Ge2 N4 2.306002 1_465
Ge2 N17 2.445756 1_555
Ge2 N18 2.445756 1_455
Ge3 N6 2.306002 1_555
Ge3 N5 2.306002 1_555
Ge3 N19 2.445756 1_555
Ge3 N16 2.445756 1_555
