# generated using pymatgen
data_K2ScAuBr6
_symmetry_space_group_name_H-M   'P 1'
_cell_length_a   7.77905706
_cell_length_b   7.77905706
_cell_length_c   7.77905706
_cell_angle_alpha   60.00000000
_cell_angle_beta   60.00000000
_cell_angle_gamma   60.00000000
_symmetry_Int_Tables_number   1
_chemical_formula_structural   K2ScAuBr6
_chemical_formula_sum   'K2 Sc1 Au1 Br6'
_cell_volume   332.86326885
_cell_formula_units_Z   1
loop_
 _symmetry_equiv_pos_site_id
 _symmetry_equiv_pos_as_xyz
  1  'x, y, z'
loop_
 _atom_site_type_symbol
 _atom_site_label
 _atom_site_symmetry_multiplicity
 _atom_site_fract_x
 _atom_site_fract_y
 _atom_site_fract_z
 _atom_site_occupancy
  K  K0  1  0.75000000  0.75000000  0.75000000  1
  K  K1  1  0.25000000  0.25000000  0.25000000  1
  Sc  Sc0  1  0.00000000  0.00000000  0.00000000  1
  Au  Au0  1  0.50000000  0.50000000  0.50000000  1
  Br  Br0  1  0.75791300  0.24208700  0.24208700  1
  Br  Br1  1  0.24208700  0.24208700  0.75791300  1
  Br  Br2  1  0.24208700  0.75791300  0.75791300  1
  Br  Br3  1  0.24208700  0.75791300  0.24208700  1
  Br  Br4  1  0.75791300  0.24208700  0.75791300  1
  Br  Br5  1  0.75791300  0.75791300  0.24208700  1
loop_
_geom_bond_atom_site_label_1
_geom_bond_atom_site_label_2
_geom_bond_distance
_geom_bond_site_symmetry_2
Au0 Br4 2.837365 1_555
Au0 Br5 2.837365 1_555
Au0 Br2 2.837365 1_555
Au0 Br3 2.837365 1_555
Au0 Br0 2.837365 1_555
Au0 Br1 2.837365 1_555
Br0 Sc0 2.663259 1_655
Br0 K1 3.890503 1_555
Br0 K0 3.890503 1_545
Br0 K1 3.890503 1_655
Br0 K0 3.890503 1_554
Br1 Sc0 2.663259 1_556
Br1 K1 3.890503 1_555
Br1 K0 3.890503 1_545
Br1 K0 3.890503 1_455
Br1 K1 3.890503 1_556
Br2 Sc0 2.663259 1_566
Br2 K1 3.890503 1_556
Br2 K1 3.890503 1_565
Br2 K0 3.890503 1_455
Br2 K0 3.890503 1_555
Br3 Sc0 2.663259 1_565
Br3 K1 3.890503 1_555
Br3 K0 3.890503 1_554
Br3 K1 3.890503 1_565
Br3 K0 3.890503 1_455
Br4 Sc0 2.663259 1_656
Br4 K1 3.890503 1_655
Br4 K0 3.890503 1_545
Br4 K0 3.890503 1_555
Br4 K1 3.890503 1_556
Br5 Sc0 2.663259 1_665
Br5 K0 3.890503 1_554
Br5 K1 3.890503 1_565
Br5 K1 3.890503 1_655
Br5 K0 3.890503 1_555
