# generated using pymatgen
data_Al8BC5
_symmetry_space_group_name_H-M   'P 1'
_cell_length_a   16.94380047
_cell_length_b   16.94380047
_cell_length_c   16.94380007
_cell_angle_alpha   11.47716404
_cell_angle_beta   11.47716404
_cell_angle_gamma   11.47716473
_symmetry_Int_Tables_number   1
_chemical_formula_structural   Al8BC5
_chemical_formula_sum   'Al8 B1 C5'
_cell_volume   167.34786575
_cell_formula_units_Z   1
loop_
 _symmetry_equiv_pos_site_id
 _symmetry_equiv_pos_as_xyz
  1  'x, y, z'
loop_
 _atom_site_type_symbol
 _atom_site_label
 _atom_site_symmetry_multiplicity
 _atom_site_fract_x
 _atom_site_fract_y
 _atom_site_fract_z
 _atom_site_occupancy
  Al  Al0  1  0.35320700  0.35320700  0.35320700  1
  Al  Al1  1  0.85375000  0.85375000  0.85375000  1
  Al  Al2  1  0.14625000  0.14625000  0.14625000  1
  Al  Al3  1  0.64679300  0.64679300  0.64679300  1
  Al  Al4  1  0.43562000  0.43562000  0.43562000  1
  Al  Al5  1  0.93495800  0.93495800  0.93495800  1
  Al  Al6  1  0.06504200  0.06504200  0.06504200  1
  Al  Al7  1  0.56438000  0.56438000  0.56438000  1
  B  B0  1  0.50000000  0.50000000  0.50000000  1
  C  C0  1  0.39143600  0.39143600  0.39143600  1
  C  C1  1  0.89258800  0.89258800  0.89258800  1
  C  C2  1  0.10741200  0.10741200  0.10741200  1
  C  C3  1  0.60856400  0.60856400  0.60856400  1
  C  C4  1  0.00000000  0.00000000  0.00000000  1
loop_
_geom_bond_atom_site_label_1
_geom_bond_atom_site_label_2
_geom_bond_distance
_geom_bond_site_symmetry_2
Al0 C0 1.930238 1_555
Al0 C4 2.198642 1_655
Al0 C4 2.198642 1_565
Al0 C4 2.198643 1_556
Al1 C1 1.960987 1_555
Al1 B0 2.211290 1_655
Al1 B0 2.211290 1_565
Al1 B0 2.211290 1_556
Al2 C2 1.960987 1_555
Al2 B0 2.211290 1_455
Al2 B0 2.211290 1_545
Al2 B0 2.211290 1_554
Al3 C3 1.930238 1_555
Al3 C4 2.198642 1_656
Al3 C4 2.198642 1_566
Al3 C4 2.198643 1_665
Al4 C2 1.973344 1_556
Al4 C2 1.973344 1_565
Al4 C2 1.973344 1_655
Al4 C0 2.230915 1_555
Al5 C3 1.987430 1_556
Al5 C3 1.987431 1_565
Al5 C3 1.987431 1_655
Al5 C1 2.139323 1_555
Al6 C0 1.987430 1_554
Al6 C0 1.987431 1_545
Al6 C0 1.987431 1_455
Al6 C2 2.139323 1_555
Al7 C1 1.973344 1_554
Al7 C1 1.973344 1_455
Al7 C1 1.973344 1_545
Al7 C3 2.230915 1_555
