# generated using pymatgen
data_BN
_symmetry_space_group_name_H-M   'P 1'
_cell_length_a   10.37811437
_cell_length_b   10.42218540
_cell_length_c   10.60926534
_cell_angle_alpha   93.63878104
_cell_angle_beta   97.32584495
_cell_angle_gamma   91.03481494
_symmetry_Int_Tables_number   1
_chemical_formula_structural   BN
_chemical_formula_sum   'B50 N50'
_cell_volume   1135.46777902
_cell_formula_units_Z   50
loop_
 _symmetry_equiv_pos_site_id
 _symmetry_equiv_pos_as_xyz
  1  'x, y, z'
loop_
 _atom_site_type_symbol
 _atom_site_label
 _atom_site_symmetry_multiplicity
 _atom_site_fract_x
 _atom_site_fract_y
 _atom_site_fract_z
 _atom_site_occupancy
  B  B0  1  0.38252000  0.28869900  0.40209900  1
  B  B1  1  0.79974300  0.81605000  0.34912400  1
  B  B2  1  0.35895200  0.90109100  0.21053000  1
  B  B3  1  0.93366600  0.83229100  0.18451500  1
  B  B4  1  0.05820200  0.71636700  0.90095600  1
  B  B5  1  0.57966500  0.12992000  0.41716900  1
  B  B6  1  0.45694300  0.51059700  0.42952900  1
  B  B7  1  0.82083700  0.52914800  0.66002800  1
  B  B8  1  0.10766900  0.08244000  0.71755000  1
  B  B9  1  0.45525900  0.49055900  0.79425700  1
  B  B10  1  0.49165400  0.76503600  0.57780400  1
  B  B11  1  0.97166900  0.04926100  0.23070500  1
  B  B12  1  0.64354500  0.64019700  0.70890300  1
  B  B13  1  0.31881500  0.82317500  0.66549000  1
  B  B14  1  0.89750500  0.42954600  0.47502200  1
  B  B15  1  0.60494400  0.82346900  0.82061600  1
  B  B16  1  0.76219700  0.99428900  0.82309700  1
  B  B17  1  0.24309600  0.68970000  0.19724400  1
  B  B18  1  0.24230600  0.24402300  0.57297900  1
  B  B19  1  0.04007600  0.29610400  0.14629800  1
  B  B20  1  0.57609600  0.89840800  0.37906200  1
  B  B21  1  0.74225700  0.21480300  0.88933900  1
  B  B22  1  0.84461700  0.40825000  0.82749700  1
  B  B23  1  0.30551100  0.13782500  0.78304800  1
  B  B24  1  0.53799400  0.06949000  0.85585700  1
  B  B25  1  0.31969000  0.42440600  0.88315300  1
  B  B26  1  0.86251800  0.41148100  0.25504600  1
  B  B27  1  0.14292400  0.98554800  0.51266000  1
  B  B28  1  0.94491700  0.12085500  0.98769900  1
  B  B29  1  0.13219300  0.24919300  0.92327800  1
  B  B30  1  0.35350000  0.90974700  0.44620000  1
  B  B31  1  0.78027700  0.98579600  0.36550700  1
  B  B32  1  0.86692200  0.44572000  0.02521100  1
  B  B33  1  0.58582800  0.32571500  0.88989500  1
  B  B34  1  0.96802600  0.89193400  0.04526200  1
  B  B35  1  0.15592900  0.89135800  0.29674300  1
  B  B36  1  0.26853800  0.44759700  0.24823400  1
  B  B37  1  0.81724100  0.78560100  0.70323300  1
  B  B38  1  0.03093600  0.38455800  0.56281400  1
  B  B39  1  0.54531300  0.50678300  0.67512000  1
  B  B40  1  0.81689300  0.57918300  0.41409700  1
  B  B41  1  0.63885200  0.74662500  0.41535100  1
  B  B42  1  0.16244200  0.25554800  0.31984700  1
  B  B43  1  0.72975700  0.65699300  0.97534100  1
  B  B44  1  0.81109100  0.62724300  0.18493100  1
  B  B45  1  0.37549100  0.00586700  0.98753800  1
  B  B46  1  0.08877500  0.48002400  0.90012300  1
  B  B47  1  0.91342100  0.20712000  0.33164300  1
  B  B48  1  0.24146300  0.64221300  0.80010000  1
  B  B49  1  0.51363200  0.66427900  0.45028400  1
  N  N0  1  0.65747000  0.73463300  0.90938200  1
  N  N1  1  0.19139300  0.38106800  0.91309200  1
  N  N2  1  0.56712600  0.29568700  0.14693900  1
  N  N3  1  0.81163200  0.53881100  0.28257100  1
  N  N4  1  0.39166900  0.86441100  0.57151000  1
  N  N5  1  0.94896200  0.02348900  0.08129400  1
  N  N6  1  0.91699000  0.37919600  0.14103400  1
  N  N7  1  0.23374700  0.82248400  0.21063600  1
  N  N8  1  0.62289700  0.96483800  0.83789300  1
  N  N9  1  0.65333000  0.01702600  0.40692700  1
  N  N10  1  0.26233900  0.75996600  0.74400600  1
  N  N11  1  0.10536900  0.63550400  0.50418900  1
  N  N12  1  0.85932200  0.07900200  0.31413300  1
  N  N13  1  0.74387800  0.35998900  0.90994100  1
  N  N14  1  0.25549900  0.56771000  0.19086100  1
  N  N15  1  0.13451700  0.32547200  0.59650000  1
  N  N16  1  0.52055700  0.47866700  0.54971200  1
  N  N17  1  0.21746800  0.94602200  0.41924400  1
  N  N18  1  0.95207800  0.45299700  0.91716200  1
  N  N19  1  0.78121000  0.65465600  0.68652900  1
  N  N20  1  0.83295400  0.11361800  0.88520900  1
  N  N21  1  0.43279600  0.90671000  0.34244300  1
  N  N22  1  0.18932100  0.64512400  0.44987400  1
  N  N23  1  0.56282200  0.75308700  0.69895200  1
  N  N24  1  0.46853900  0.39644600  0.88938200  1
  N  N25  1  0.00758500  0.81794800  0.94637500  1
  N  N26  1  0.25651000  0.23779700  0.43041300  1
  N  N27  1  0.82002000  0.90397100  0.74363500  1
  N  N28  1  0.02248500  0.91486400  0.26888200  1
  N  N29  1  0.17110600  0.34492200  0.22403600  1
  N  N30  1  0.86971200  0.33496400  0.36722900  1
  N  N31  1  0.37789900  0.95627500  0.09688300  1
  N  N32  1  0.82703000  0.40997000  0.69185000  1
  N  N33  1  0.39663200  0.06336400  0.87525200  1
  N  N34  1  0.32521100  0.18152700  0.66747100  1
  N  N35  1  0.12125500  0.61018300  0.85818500  1
  N  N36  1  0.60358600  0.19234600  0.86680200  1
  N  N37  1  0.37878700  0.41877900  0.34590600  1
  N  N38  1  0.77494300  0.71552100  0.43611700  1
  N  N39  1  0.07574000  0.01271500  0.60638700  1
  N  N40  1  0.67200700  0.01197800  0.09931200  1
  N  N41  1  0.33155800  0.54190600  0.81598600  1
  N  N42  1  0.80177300  0.57743900  0.05396900  1
  N  N43  1  0.83390300  0.76145700  0.22547000  1
  N  N44  1  0.03251600  0.18857900  0.26522400  1
  N  N45  1  0.46974200  0.24759500  0.14497300  1
  N  N46  1  0.16119700  0.14455800  0.82685200  1
  N  N47  1  0.63467400  0.91803500  0.12579800  1
  N  N48  1  0.04523900  0.22293000  0.01317100  1
  N  N49  1  0.49798200  0.21840000  0.42408700  1
loop_
_geom_bond_atom_site_label_1
_geom_bond_atom_site_label_2
_geom_bond_distance
_geom_bond_site_symmetry_2
B0 N49 1.417466 1_555
B0 N26 1.475543 1_555
B0 N37 1.514425 1_555
B1 N38 1.479651 1_555
B1 N43 1.483775 1_555
B2 N31 1.402707 1_555
B2 N21 1.504592 1_555
B2 N7 1.523693 1_555
B3 N43 1.390534 1_555
B3 N28 1.433388 1_655
B4 N25 1.284082 1_555
B4 N35 1.377304 1_555
B5 N49 1.268814 1_555
B5 N9 1.420603 1_555
B6 N16 1.421084 1_555
B6 N37 1.428781 1_555
B7 N32 1.308239 1_555
B7 N19 1.400520 1_555
B8 N46 1.341594 1_555
B8 N39 1.345963 1_555
B9 N41 1.439533 1_555
B9 N24 1.447289 1_555
B10 N23 1.412282 1_555
B10 N4 1.477768 1_555
B10 B49 1.700615 1_555
B11 N28 1.564731 1_645
B11 N12 1.574913 1_555
B11 N44 1.575306 1_655
B11 N5 1.577580 1_555
B12 N23 1.458109 1_555
B12 N19 1.484418 1_555
B13 N10 1.285153 1_555
B13 N4 1.409043 1_555
B14 N30 1.457824 1_555
B15 N0 1.428022 1_555
B15 N23 1.455879 1_555
B15 N8 1.478593 1_555
B16 N27 1.416184 1_555
B16 N8 1.502259 1_555
B16 N20 1.503250 1_565
B17 N14 1.278602 1_555
B17 N7 1.388591 1_555
B18 N34 1.432717 1_555
B18 N15 1.453559 1_555
B18 N26 1.535711 1_555
B19 N6 1.553297 1_455
B19 N29 1.556912 1_555
B19 N48 1.569506 1_555
B19 N44 1.747992 1_555
B20 N9 1.454507 1_565
B20 N21 1.493889 1_555
B21 N20 1.428467 1_555
B21 N36 1.440854 1_555
B21 N13 1.514549 1_555
B22 N18 1.421456 1_555
B22 N32 1.428668 1_555
B22 N13 1.543091 1_555
B23 N34 1.372679 1_555
B23 N33 1.529833 1_555
B23 N46 1.625172 1_555
B24 N36 1.430331 1_555
B24 N8 1.433005 1_545
B24 N33 1.507973 1_555
B25 N41 1.466398 1_555
B25 N1 1.477188 1_555
B25 N24 1.571074 1_555
B26 N6 1.423197 1_555
B26 N3 1.463113 1_555
B26 N30 1.469024 1_555
B27 N39 1.305107 1_565
B27 N17 1.380452 1_555
B28 N5 1.461616 1_556
B28 N48 1.463059 1_656
B28 N20 1.484042 1_555
B29 N48 1.429167 1_556
B29 N46 1.508369 1_555
B29 N1 1.511118 1_555
B30 N4 1.449066 1_555
B30 N21 1.455165 1_555
B30 N17 1.465542 1_555
B31 N12 1.437397 1_565
B31 N9 1.476398 1_565
B32 N6 1.489617 1_555
B32 N18 1.538767 1_554
B32 N42 1.570917 1_555
B32 N13 1.829312 1_554
B33 N36 1.415493 1_555
B33 N24 1.433999 1_555
B33 N13 1.656356 1_555
B34 N25 1.371999 1_654
B34 N5 1.423981 1_565
B35 N28 1.407970 1_555
B35 N17 1.450082 1_555
B35 N7 1.458726 1_555
B36 N14 1.427496 1_555
B36 N29 1.446826 1_555
B36 N37 1.490862 1_555
B37 N27 1.278653 1_555
B37 N19 1.402746 1_555
B38 N15 1.271370 1_555
B39 N16 1.335174 1_555
B40 N3 1.425610 1_555
B40 N38 1.506431 1_555
B41 N38 1.447293 1_555
B41 B49 1.638794 1_555
B42 N29 1.431584 1_555
B42 N26 1.450965 1_555
B42 N44 1.535096 1_555
B43 N0 1.291194 1_555
B43 N42 1.375894 1_556
B44 N3 1.429137 1_555
B44 N42 1.442783 1_555
B44 N43 1.443393 1_555
B45 N31 1.297193 1_546
B45 N33 1.406726 1_555
B46 N18 1.477173 1_455
B46 N1 1.495690 1_555
B46 N35 1.500045 1_555
B47 N12 1.430913 1_555
B47 N30 1.457836 1_555
B47 N44 1.508306 1_655
B48 N41 1.418817 1_555
B48 N10 1.422396 1_555
B48 N35 1.501550 1_555
B49 B6 1.687667 1_555
B49 N16 2.259385 1_555
N2 N45 1.117183 1_555
N11 N22 1.110596 1_555
N40 N47 1.112060 1_545
