# generated using pymatgen
data_Ba3CoRu2O9
_symmetry_space_group_name_H-M   'P 1'
_cell_length_a   5.80034155
_cell_length_b   5.80034155
_cell_length_c   14.30015100
_cell_angle_alpha   90.00000000
_cell_angle_beta   90.00000000
_cell_angle_gamma   119.99999484
_symmetry_Int_Tables_number   1
_chemical_formula_structural   Ba3CoRu2O9
_chemical_formula_sum   'Ba6 Co2 Ru4 O18'
_cell_volume   416.65674071
_cell_formula_units_Z   2
loop_
 _symmetry_equiv_pos_site_id
 _symmetry_equiv_pos_as_xyz
  1  'x, y, z'
loop_
 _atom_site_type_symbol
 _atom_site_label
 _atom_site_symmetry_multiplicity
 _atom_site_fract_x
 _atom_site_fract_y
 _atom_site_fract_z
 _atom_site_occupancy
  Ba  Ba0  1  0.00000000  0.00000000  0.75000000  1
  Ba  Ba1  1  0.00000000  0.00000000  0.25000000  1
  Ba  Ba2  1  0.33333300  0.66666700  0.91021500  1
  Ba  Ba3  1  0.66666700  0.33333300  0.41021500  1
  Ba  Ba4  1  0.66666700  0.33333300  0.08978500  1
  Ba  Ba5  1  0.33333300  0.66666700  0.58978500  1
  Co  Co0  1  0.00000000  0.00000000  0.00000000  1
  Co  Co1  1  0.00000000  0.00000000  0.50000000  1
  Ru  Ru0  1  0.33333300  0.66666700  0.15329200  1
  Ru  Ru1  1  0.66666700  0.33333300  0.65329200  1
  Ru  Ru2  1  0.66666700  0.33333300  0.84670800  1
  Ru  Ru3  1  0.33333300  0.66666700  0.34670800  1
  O  O0  1  0.51797500  0.48202500  0.75000000  1
  O  O1  1  0.48202500  0.51797500  0.25000000  1
  O  O2  1  0.51797500  0.03595100  0.75000000  1
  O  O3  1  0.48202500  0.96404900  0.25000000  1
  O  O4  1  0.03595100  0.51797500  0.25000000  1
  O  O5  1  0.96404900  0.48202500  0.75000000  1
  O  O6  1  0.83610800  0.16389200  0.91943200  1
  O  O7  1  0.16389200  0.83610800  0.41943200  1
  O  O8  1  0.16389200  0.83610800  0.08056800  1
  O  O9  1  0.83610800  0.16389200  0.58056800  1
  O  O10  1  0.32778500  0.16389200  0.91943200  1
  O  O11  1  0.67221500  0.83610800  0.41943200  1
  O  O12  1  0.16389200  0.32778500  0.08056800  1
  O  O13  1  0.83610800  0.67221500  0.58056800  1
  O  O14  1  0.67221500  0.83610800  0.08056800  1
  O  O15  1  0.32778500  0.16389200  0.58056800  1
  O  O16  1  0.83610800  0.67221500  0.91943200  1
  O  O17  1  0.16389200  0.32778500  0.41943200  1
loop_
_geom_bond_atom_site_label_1
_geom_bond_atom_site_label_2
_geom_bond_distance
_geom_bond_site_symmetry_2
Ba0 O2 2.905785 1_555
Ba0 O5 2.905785 1_445
Ba0 O0 2.905788 1_555
Ba0 O0 2.905788 1_445
Ba0 O5 2.905791 1_455
Ba0 O2 2.905791 1_455
Ba0 O6 2.929428 1_455
Ba0 O9 2.929428 1_455
Ba0 O16 2.929431 1_445
Ba0 O13 2.929431 1_445
Ba0 O15 2.929431 1_555
Ba0 O10 2.929431 1_555
Ba1 O4 2.905785 1_555
Ba1 O3 2.905785 1_445
Ba1 O1 2.905788 1_555
Ba1 O1 2.905788 1_445
Ba1 O3 2.905791 1_545
Ba1 O4 2.905791 1_545
Ba1 O8 2.929428 1_545
Ba1 O7 2.929428 1_545
Ba1 O14 2.929431 1_445
Ba1 O11 2.929431 1_445
Ba1 O12 2.929431 1_555
Ba1 O17 2.929431 1_555
Ba2 O10 2.903292 1_565
Ba2 O16 2.903292 1_455
Ba2 O6 2.903298 1_565
Ba2 O6 2.903298 1_455
Ba2 O16 2.903304 1_555
Ba2 O10 2.903304 1_555
Ba2 O0 2.947909 1_555
Ba2 O5 2.947910 1_455
Ba2 O2 2.947910 1_565
Ba2 O8 2.971908 1_556
Ba2 O14 2.971908 1_556
Ba2 O12 2.971908 1_556
Ba3 O17 2.903292 1_655
Ba3 O11 2.903292 1_545
Ba3 O7 2.903298 1_655
Ba3 O7 2.903298 1_545
Ba3 O11 2.903304 1_555
Ba3 O17 2.903304 1_555
Ba3 O1 2.947909 1_555
Ba3 O3 2.947910 1_545
Ba3 O4 2.947910 1_655
Ba3 O9 2.971908 1_555
Ba3 O13 2.971908 1_555
Ba3 O15 2.971908 1_555
Ba4 O12 2.903292 1_655
Ba4 O14 2.903292 1_545
Ba4 O8 2.903298 1_655
Ba4 O8 2.903298 1_545
Ba4 O12 2.903304 1_555
Ba4 O14 2.903304 1_555
Ba4 O1 2.947909 1_555
Ba4 O3 2.947910 1_545
Ba4 O4 2.947910 1_655
Ba4 O6 2.971908 1_554
Ba4 O16 2.971908 1_554
Ba4 O10 2.971908 1_554
Ba5 O15 2.903292 1_565
Ba5 O13 2.903292 1_455
Ba5 O9 2.903298 1_565
Ba5 O9 2.903298 1_455
Ba5 O13 2.903304 1_555
Ba5 O15 2.903304 1_555
Ba5 O0 2.947909 1_555
Ba5 O5 2.947910 1_455
Ba5 O2 2.947910 1_565
Ba5 O7 2.971908 1_555
Ba5 O11 2.971908 1_555
Ba5 O17 2.971908 1_555
Co0 O6 2.009603 1_454
Co0 O8 2.009603 1_545
Co0 O10 2.009607 1_554
Co0 O14 2.009607 1_445
Co0 O12 2.009607 1_555
Co0 O16 2.009607 1_444
Co1 O7 2.009603 1_545
Co1 O9 2.009603 1_455
Co1 O13 2.009607 1_445
Co1 O15 2.009607 1_555
Co1 O11 2.009607 1_445
Co1 O17 2.009607 1_555
O0 Ru1 2.035695 1_555
O0 Ru2 2.035695 1_555
O1 Ru0 2.035695 1_555
O1 Ru3 2.035695 1_555
O2 Ru1 2.035688 1_555
O2 Ru2 2.035688 1_555
O3 Ru0 2.035688 1_555
O3 Ru3 2.035688 1_555
O4 Ru0 2.035688 1_555
O4 Ru3 2.035688 1_555
O5 Ru2 2.035688 1_555
O5 Ru1 2.035688 1_555
O6 Ru2 1.994820 1_555
O7 Ru3 1.994820 1_555
O8 Ru0 1.994820 1_555
O9 Ru1 1.994820 1_555
O10 Ru2 1.994820 1_555
O11 Ru3 1.994820 1_555
O12 Ru0 1.994820 1_555
O13 Ru1 1.994820 1_555
O14 Ru0 1.994820 1_555
O15 Ru1 1.994820 1_555
O16 Ru2 1.994820 1_555
O17 Ru3 1.994820 1_555
