# generated using pymatgen
data_Cu2ClO3
_symmetry_space_group_name_H-M   'P 1'
_cell_length_a   6.31561400
_cell_length_b   5.84523200
_cell_length_c   9.62661375
_cell_angle_alpha   61.03736616
_cell_angle_beta   90.00000000
_cell_angle_gamma   90.00000000
_symmetry_Int_Tables_number   1
_chemical_formula_structural   Cu2ClO3
_chemical_formula_sum   'Cu8 Cl4 O12'
_cell_volume   310.93314112
_cell_formula_units_Z   4
loop_
 _symmetry_equiv_pos_site_id
 _symmetry_equiv_pos_as_xyz
  1  'x, y, z'
loop_
 _atom_site_type_symbol
 _atom_site_label
 _atom_site_symmetry_multiplicity
 _atom_site_fract_x
 _atom_site_fract_y
 _atom_site_fract_z
 _atom_site_occupancy
  Cu  Cu0  1  0.00000000  0.50000000  0.00000000  1
  Cu  Cu1  1  0.50000000  0.50000000  0.50000000  1
  Cu  Cu2  1  0.50000000  0.00000000  0.50000000  1
  Cu  Cu3  1  0.00000000  0.00000000  0.00000000  1
  Cu  Cu4  1  0.74211900  0.50844200  0.24881600  1
  Cu  Cu5  1  0.75788100  0.50844200  0.74881600  1
  Cu  Cu6  1  0.25788100  0.49155800  0.75118400  1
  Cu  Cu7  1  0.24211900  0.49155800  0.25118400  1
  Cl  Cl0  1  0.49795300  0.80622800  0.80977200  1
  Cl  Cl1  1  0.00204700  0.80622800  0.30977200  1
  Cl  Cl2  1  0.50204700  0.19377200  0.19022800  1
  Cl  Cl3  1  0.99795300  0.19377200  0.69022800  1
  O  O0  1  0.78803400  0.75146300  0.03533200  1
  O  O1  1  0.71196600  0.75146300  0.53533200  1
  O  O2  1  0.21196600  0.24853700  0.96466800  1
  O  O3  1  0.28803400  0.24853700  0.46466800  1
  O  O4  1  0.48694800  0.65809300  0.27284600  1
  O  O5  1  0.01305200  0.65809300  0.77284600  1
  O  O6  1  0.51305200  0.34190700  0.72715400  1
  O  O7  1  0.98694800  0.34190700  0.22715400  1
  O  O8  1  0.18891700  0.72531400  0.03259100  1
  O  O9  1  0.31108300  0.72531400  0.53259100  1
  O  O10  1  0.81108300  0.27468600  0.96740900  1
  O  O11  1  0.68891700  0.27468600  0.46740900  1
loop_
_geom_bond_atom_site_label_1
_geom_bond_atom_site_label_2
_geom_bond_distance
_geom_bond_site_symmetry_2
Cu0 O8 1.912246 1_555
Cu0 O10 1.912246 1_454
Cu0 O5 1.919757 1_554
Cu0 O7 1.919757 1_455
Cu0 O2 2.133649 1_554
Cu0 O0 2.133649 1_455
Cu1 O11 1.912246 1_555
Cu1 O9 1.912246 1_555
Cu1 O6 1.919757 1_555
Cu1 O4 1.919757 1_555
Cu1 O3 2.133649 1_555
Cu1 O1 2.133649 1_555
Cu2 O1 1.881421 1_545
Cu2 O3 1.881421 1_555
Cu2 O11 1.900548 1_555
Cu2 O9 1.900548 1_545
Cu3 O0 1.881421 1_445
Cu3 O2 1.881421 1_554
Cu3 O8 1.900548 1_545
Cu3 O10 1.900548 1_454
Cu4 O0 1.870344 1_555
Cu4 O7 1.891701 1_555
Cu4 O4 1.900472 1_555
Cu4 O11 1.903509 1_555
Cu5 O1 1.870344 1_555
Cu5 O6 1.891701 1_555
Cu5 O5 1.900472 1_655
Cu5 O10 1.903509 1_555
Cu6 O2 1.870344 1_555
Cu6 O5 1.891701 1_555
Cu6 O6 1.900472 1_555
Cu6 O9 1.903509 1_555
Cu7 O3 1.870344 1_555
Cu7 O4 1.891701 1_555
Cu7 O7 1.900472 1_455
Cu7 O8 1.903509 1_555
Cl0 Cu2 2.627654 1_565
Cl0 Cu6 2.646648 1_555
Cl0 Cu5 2.656726 1_555
Cl1 Cu3 2.627654 1_565
Cl1 Cu7 2.646648 1_555
Cl1 Cu4 2.656726 1_455
Cl2 Cu2 2.627654 1_555
Cl2 Cu4 2.646648 1_555
Cl2 Cu7 2.656726 1_555
Cl3 Cu3 2.627654 1_656
Cl3 Cu5 2.646648 1_555
Cl3 Cu6 2.656726 1_655
