# generated using pymatgen
data_LaMg2Ni
_symmetry_space_group_name_H-M   'P 1'
_cell_length_a   4.22003897
_cell_length_b   5.49450059
_cell_length_c   8.29606757
_cell_angle_alpha   90.00000000
_cell_angle_beta   90.00000000
_cell_angle_gamma   112.58315542
_symmetry_Int_Tables_number   1
_chemical_formula_structural   LaMg2Ni
_chemical_formula_sum   'La2 Mg4 Ni2'
_cell_volume   177.61134138
_cell_formula_units_Z   2
loop_
 _symmetry_equiv_pos_site_id
 _symmetry_equiv_pos_as_xyz
  1  'x, y, z'
loop_
 _atom_site_type_symbol
 _atom_site_label
 _atom_site_symmetry_multiplicity
 _atom_site_fract_x
 _atom_site_fract_y
 _atom_site_fract_z
 _atom_site_occupancy
  La  La0  1  0.55891507  0.11783114  0.25000000  1
  La  La1  1  0.44108493  0.88216886  0.75000000  1
  Mg  Mg0  1  0.15552662  0.31105223  0.55523402  1
  Mg  Mg1  1  0.84447338  0.68894777  0.44476598  1
  Mg  Mg2  1  0.15552662  0.31105223  0.94476598  1
  Mg  Mg3  1  0.84447338  0.68894777  0.05523402  1
  Ni  Ni0  1  0.72210115  0.44420330  0.75000000  1
  Ni  Ni1  1  0.27789885  0.55579670  0.25000000  1
loop_
_geom_bond_atom_site_label_1
_geom_bond_atom_site_label_2
_geom_bond_distance
_geom_bond_site_symmetry_2
La0 Ni1 2.851313 1_545
La0 Ni1 3.064139 1_555
La0 Ni1 3.064144 1_655
La0 Mg3 3.317476 1_555
La0 Mg1 3.317476 1_555
La0 Mg3 3.434693 1_545
La0 Mg1 3.434693 1_545
La0 Mg3 3.434693 1_445
La0 Mg1 3.434693 1_445
La0 Mg0 3.438794 1_555
La0 Mg2 3.438794 1_554
La0 Mg2 3.438799 1_654
La0 Mg0 3.438799 1_655
La1 Ni0 2.851313 1_565
La1 Ni0 3.064139 1_555
La1 Ni0 3.064144 1_455
La1 Mg2 3.317476 1_555
La1 Mg0 3.317476 1_555
La1 Mg0 3.434693 1_565
La1 Mg2 3.434693 1_565
La1 Mg0 3.434693 1_665
La1 Mg2 3.434693 1_665
La1 Mg1 3.438794 1_555
La1 Mg3 3.438794 1_556
La1 Mg1 3.438799 1_455
La1 Mg3 3.438799 1_456
Mg0 Ni0 2.742125 1_555
Mg0 Ni0 2.742132 1_455
Mg0 Ni1 2.820268 1_555
Mg0 Mg1 2.994573 1_555
Mg0 Mg1 2.994579 1_455
Mg0 Mg2 3.231583 1_555
Mg0 Mg1 3.286426 1_445
Mg1 Ni1 2.742125 1_555
Mg1 Ni1 2.742132 1_655
Mg1 Ni0 2.820268 1_555
Mg1 Mg3 3.231583 1_555
Mg2 Ni0 2.742125 1_555
Mg2 Ni0 2.742132 1_455
Mg2 Ni1 2.820268 1_556
Mg2 Mg3 2.994573 1_556
Mg2 Mg3 2.994579 1_456
Mg2 Mg3 3.286426 1_446
Mg3 Ni1 2.742125 1_555
Mg3 Ni1 2.742132 1_655
Mg3 Ni0 2.820268 1_554
