# generated using pymatgen
data_Cu2SiS3
_symmetry_space_group_name_H-M   'P 1'
_cell_length_a   6.40795184
_cell_length_b   6.40795184
_cell_length_c   7.07611070
_cell_angle_alpha   63.87503339
_cell_angle_beta   63.87503339
_cell_angle_gamma   59.87922004
_symmetry_Int_Tables_number   1
_chemical_formula_structural   Cu2SiS3
_chemical_formula_sum   'Cu4 Si2 S6'
_cell_volume   216.45877873
_cell_formula_units_Z   2
loop_
 _symmetry_equiv_pos_site_id
 _symmetry_equiv_pos_as_xyz
  1  'x, y, z'
loop_
 _atom_site_type_symbol
 _atom_site_label
 _atom_site_symmetry_multiplicity
 _atom_site_fract_x
 _atom_site_fract_y
 _atom_site_fract_z
 _atom_site_occupancy
  Cu  Cu0  1  0.16666600  0.00764000  0.49805900  1
  Cu  Cu1  1  0.84010800  0.66749000  0.49214900  1
  Cu  Cu2  1  0.00764000  0.16666600  0.99805900  1
  Cu  Cu3  1  0.66749000  0.84010800  0.99214900  1
  Si  Si0  1  0.49044300  0.31982600  0.51242600  1
  Si  Si1  1  0.31982600  0.49044300  0.01242600  1
  S  S0  1  0.29693100  0.13411600  0.12578100  1
  S  S1  1  0.97631400  0.78309500  0.11211500  1
  S  S2  1  0.61035000  0.45711700  0.13448900  1
  S  S3  1  0.13411600  0.29693100  0.62578100  1
  S  S4  1  0.78309500  0.97631400  0.61211500  1
  S  S5  1  0.45711700  0.61035000  0.63448900  1
loop_
_geom_bond_atom_site_label_1
_geom_bond_atom_site_label_2
_geom_bond_distance
_geom_bond_site_symmetry_2
Cu0 S0 2.270539 1_555
Cu0 S3 2.284320 1_555
Cu0 S4 2.310519 1_445
Cu0 S5 2.353637 1_545
Cu1 S3 2.276738 1_655
Cu1 S4 2.291492 1_555
Cu1 S1 2.317261 1_555
Cu1 S5 2.360463 1_555
Cu2 S3 2.270539 1_555
Cu2 S0 2.284320 1_556
Cu2 S1 2.310519 1_446
Cu2 S2 2.353637 1_456
Cu3 S0 2.276738 1_566
Cu3 S1 2.291492 1_556
Cu3 S4 2.317261 1_555
Cu3 S2 2.360463 1_556
S0 Si1 2.120883 1_555
S1 Si1 2.124669 1_655
S2 Si1 2.260987 1_555
S2 Si0 2.305037 1_555
S3 Si0 2.120883 1_555
S4 Si0 2.124669 1_565
S5 Si0 2.260987 1_555
S5 Si1 2.305037 1_556
