# generated using pymatgen
data_Sr2Zn2As3
_symmetry_space_group_name_H-M   'P 1'
_cell_length_a   8.41890662
_cell_length_b   8.41890662
_cell_length_c   11.96797352
_cell_angle_alpha   55.06926896
_cell_angle_beta   55.06926896
_cell_angle_gamma   29.47843732
_symmetry_Int_Tables_number   1
_chemical_formula_structural   Sr2Zn2As3
_chemical_formula_sum   'Sr4 Zn4 As6'
_cell_volume   336.40028742
_cell_formula_units_Z   2
loop_
 _symmetry_equiv_pos_site_id
 _symmetry_equiv_pos_as_xyz
  1  'x, y, z'
loop_
 _atom_site_type_symbol
 _atom_site_label
 _atom_site_symmetry_multiplicity
 _atom_site_fract_x
 _atom_site_fract_y
 _atom_site_fract_z
 _atom_site_occupancy
  Sr  Sr0  1  0.26623085  0.26623085  0.33681439  1
  Sr  Sr1  1  0.73376915  0.73376915  0.66318561  1
  Sr  Sr2  1  0.39332373  0.39332373  0.95035512  1
  Sr  Sr3  1  0.60667627  0.60667627  0.04964488  1
  Zn  Zn0  1  0.03822682  0.03822682  0.68653603  1
  Zn  Zn1  1  0.96177318  0.96177318  0.31346397  1
  Zn  Zn2  1  0.41166614  0.41166614  0.65021910  1
  Zn  Zn3  1  0.58833386  0.58833386  0.34978090  1
  As  As0  1  0.07496865  0.07496865  0.87480470  1
  As  As1  1  0.92503135  0.92503135  0.12519530  1
  As  As2  1  0.15037418  0.15037418  0.20529759  1
  As  As3  1  0.84962582  0.84962582  0.79470241  1
  As  As4  1  0.39116893  0.39116893  0.45657613  1
  As  As5  1  0.60883107  0.60883107  0.54342387  1
loop_
_geom_bond_atom_site_label_1
_geom_bond_atom_site_label_2
_geom_bond_distance
_geom_bond_site_symmetry_2
Sr2 Zn0 3.361937 1_565
Sr2 Zn0 3.361937 1_655
Sr2 Zn2 3.423651 1_555
Sr3 Zn1 3.361937 1_455
Sr3 Zn1 3.361937 1_545
Sr3 Zn3 3.423651 1_555
As0 As1 2.505478 1_446
As0 Zn0 2.651631 1_555
As0 Sr1 3.151809 1_455
As0 Sr1 3.151809 1_545
As0 Sr3 3.242267 1_456
As0 Sr3 3.242267 1_546
As0 Sr2 3.314734 1_455
As0 Sr2 3.314734 1_545
As1 Zn1 2.651631 1_555
As1 Sr0 3.151809 1_565
As1 Sr0 3.151809 1_655
As1 Sr2 3.242267 1_564
As1 Sr2 3.242267 1_654
As1 Sr3 3.314734 1_565
As1 Sr3 3.314734 1_655
As2 Zn1 2.529805 1_445
As2 Zn3 2.555382 1_545
As2 Zn3 2.555382 1_455
As2 Sr0 3.090772 1_555
As2 Sr3 3.183401 1_455
As2 Sr3 3.183401 1_545
As2 Sr2 3.266045 1_554
As3 Zn0 2.529805 1_665
As3 Zn2 2.555382 1_565
As3 Zn2 2.555382 1_655
As3 Sr1 3.090772 1_555
As3 Sr2 3.183401 1_565
As3 Sr2 3.183401 1_655
As3 Sr3 3.266045 1_556
As4 Zn2 2.529472 1_555
As4 Zn1 2.551765 1_455
As4 Zn1 2.551765 1_545
As4 Zn3 2.661262 1_555
As4 Sr0 3.105855 1_555
As4 Sr1 3.125177 1_545
As4 Sr1 3.125177 1_455
As5 Zn3 2.529472 1_555
As5 Zn0 2.551765 1_655
As5 Zn0 2.551765 1_565
As5 Zn2 2.661262 1_555
As5 Sr1 3.105855 1_555
As5 Sr0 3.125177 1_565
As5 Sr0 3.125177 1_655
