# generated using pymatgen
data_K4Yb2Si8O21
_symmetry_space_group_name_H-M   'P 1'
_cell_length_a   10.84423530
_cell_length_b   10.84423530
_cell_length_c   12.91819190
_cell_angle_alpha   56.99645900
_cell_angle_beta   56.99645900
_cell_angle_gamma   68.12787406
_symmetry_Int_Tables_number   1
_chemical_formula_structural   K4Yb2Si8O21
_chemical_formula_sum   'K8 Yb4 Si16 O42'
_cell_volume   1062.20227241
_cell_formula_units_Z   2
loop_
 _symmetry_equiv_pos_site_id
 _symmetry_equiv_pos_as_xyz
  1  'x, y, z'
loop_
 _atom_site_type_symbol
 _atom_site_label
 _atom_site_symmetry_multiplicity
 _atom_site_fract_x
 _atom_site_fract_y
 _atom_site_fract_z
 _atom_site_occupancy
  K  K0  1  0.68377700  0.00713800  0.30882900  1
  K  K1  1  0.99286200  0.31622300  0.19117100  1
  K  K2  1  0.31622300  0.99286200  0.69117100  1
  K  K3  1  0.00713800  0.68377700  0.80882900  1
  K  K4  1  0.77453100  0.47293800  0.49438100  1
  K  K5  1  0.52706200  0.22546900  0.00561900  1
  K  K6  1  0.22546900  0.52706200  0.50561900  1
  K  K7  1  0.47293800  0.77453100  0.99438100  1
  Yb  Yb0  1  0.85715800  0.91491100  0.52743100  1
  Yb  Yb1  1  0.08508900  0.14284200  0.97256900  1
  Yb  Yb2  1  0.14284200  0.08508900  0.47256900  1
  Yb  Yb3  1  0.91491100  0.85715800  0.02743100  1
  Si  Si0  1  0.78381600  0.03689100  0.76759800  1
  Si  Si1  1  0.96310900  0.21618400  0.73240200  1
  Si  Si2  1  0.21618400  0.96310900  0.23240200  1
  Si  Si3  1  0.03689100  0.78381600  0.26759800  1
  Si  Si4  1  0.61240000  0.25658700  0.44250900  1
  Si  Si5  1  0.74341300  0.38760000  0.05749100  1
  Si  Si6  1  0.38760000  0.74341300  0.55749100  1
  Si  Si7  1  0.25658700  0.61240000  0.94250900  1
  Si  Si8  1  0.57038300  0.70823200  0.70130900  1
  Si  Si9  1  0.29176800  0.42961700  0.79869100  1
  Si  Si10  1  0.42961700  0.29176800  0.29869100  1
  Si  Si11  1  0.70823200  0.57038300  0.20130900  1
  Si  Si12  1  0.84222100  0.53036100  0.73107100  1
  Si  Si13  1  0.46963900  0.15777900  0.76892900  1
  Si  Si14  1  0.15777900  0.46963900  0.26892900  1
  Si  Si15  1  0.53036100  0.84222100  0.23107100  1
  O  O0  1  0.89521400  0.01211100  0.63017000  1
  O  O1  1  0.98788900  0.10478600  0.86983000  1
  O  O2  1  0.10478600  0.98788900  0.36983000  1
  O  O3  1  0.01211100  0.89521400  0.13017000  1
  O  O4  1  0.62414800  0.84823400  0.66912000  1
  O  O5  1  0.15176600  0.37585200  0.83088000  1
  O  O6  1  0.37585200  0.15176600  0.33088000  1
  O  O7  1  0.84823400  0.62414800  0.16912000  1
  O  O8  1  0.89153800  0.81896900  0.38989600  1
  O  O9  1  0.18103100  0.10846200  0.11010400  1
  O  O10  1  0.10846200  0.18103100  0.61010400  1
  O  O11  1  0.81896900  0.89153800  0.88989600  1
  O  O12  1  0.75492600  0.14156300  0.41030100  1
  O  O13  1  0.85843700  0.24507400  0.08969900  1
  O  O14  1  0.24507400  0.85843700  0.58969900  1
  O  O15  1  0.14156300  0.75492600  0.91030100  1
  O  O16  1  0.93755200  0.66696200  0.64247400  1
  O  O17  1  0.33303800  0.06244800  0.85752600  1
  O  O18  1  0.06244800  0.33303800  0.35752600  1
  O  O19  1  0.66696200  0.93755200  0.14247400  1
  O  O20  1  0.94625400  0.39230400  0.69240600  1
  O  O21  1  0.60769600  0.05374600  0.80759400  1
  O  O22  1  0.05374600  0.60769600  0.30759400  1
  O  O23  1  0.39230400  0.94625400  0.19240600  1
  O  O24  1  0.19212100  0.80787900  0.25000000  1
  O  O25  1  0.80787900  0.19212100  0.75000000  1
  O  O26  1  0.77123000  0.47443300  0.89686800  1
  O  O27  1  0.52556700  0.22877000  0.60313200  1
  O  O28  1  0.22877000  0.52556700  0.10313200  1
  O  O29  1  0.47443300  0.77123000  0.39686800  1
  O  O30  1  0.42858500  0.65316500  0.85588400  1
  O  O31  1  0.34683500  0.57141500  0.64411600  1
  O  O32  1  0.57141500  0.34683500  0.14411600  1
  O  O33  1  0.65316500  0.42858500  0.35588400  1
  O  O34  1  0.51656300  0.74472500  0.58840600  1
  O  O35  1  0.25527500  0.48343700  0.91159400  1
  O  O36  1  0.48343700  0.25527500  0.41159400  1
  O  O37  1  0.74472500  0.51656300  0.08840600  1
  O  O38  1  0.69906100  0.56404100  0.70128400  1
  O  O39  1  0.43595900  0.30093900  0.79871600  1
  O  O40  1  0.30093900  0.43595900  0.29871600  1
  O  O41  1  0.56404100  0.69906100  0.20128400  1
loop_
_geom_bond_atom_site_label_1
_geom_bond_atom_site_label_2
_geom_bond_distance
_geom_bond_site_symmetry_2
K0 O8 2.674622 1_545
K0 O19 2.741700 1_545
K0 O13 2.846364 1_555
K0 O12 2.908610 1_555
K0 O6 3.039689 1_555
K0 O34 3.153400 1_545
K1 O9 2.674622 1_655
K1 O18 2.741700 1_655
K1 O12 2.846364 1_555
K1 O13 2.908610 1_555
K1 O7 3.039689 1_555
K1 O35 3.153400 1_654
K2 O10 2.674622 1_565
K2 O17 2.741700 1_565
K2 O15 2.846364 1_555
K2 O14 2.908610 1_555
K2 O4 3.039689 1_555
K2 O36 3.153400 1_565
K3 O11 2.674622 1_455
K3 O16 2.741700 1_455
K3 O14 2.846364 1_555
K3 O15 2.908610 1_555
K3 O5 3.039689 1_555
K3 O37 3.153400 1_456
K4 O18 2.924878 1_655
K4 O22 2.936356 1_655
K4 O38 2.946345 1_555
K4 O33 3.023040 1_555
K4 O25 3.135946 1_555
K4 O7 3.285556 1_555
K5 O19 2.924878 1_545
K5 O23 2.936356 1_545
K5 O39 2.946345 1_554
K5 O32 3.023040 1_555
K5 O25 3.135946 1_554
K5 O6 3.285556 1_555
K6 O16 2.924878 1_455
K6 O20 2.936356 1_455
K6 O40 2.946345 1_555
K6 O31 3.023040 1_555
K6 O24 3.135946 1_555
K6 O5 3.285556 1_555
K7 O17 2.924878 1_565
K7 O21 2.936356 1_565
K7 O41 2.946345 1_556
K7 O30 3.023040 1_555
K7 O24 3.135946 1_556
K7 O4 3.285556 1_555
O0 Si0 1.620129 1_555
O0 Yb0 2.342561 1_545
O0 Yb2 2.419645 1_655
O1 Si1 1.620129 1_555
O1 Yb1 2.342561 1_655
O1 Yb3 2.419645 1_546
O2 Si2 1.620129 1_555
O2 Yb2 2.342561 1_565
O2 Yb0 2.419645 1_455
O3 Si3 1.620129 1_555
O3 Yb3 2.342561 1_455
O3 Yb1 2.419645 1_564
O4 Si8 1.589181 1_555
O4 Yb0 2.266933 1_555
O5 Si9 1.589181 1_555
O5 Yb1 2.266933 1_555
O6 Si10 1.589181 1_555
O6 Yb2 2.266933 1_555
O7 Si11 1.589181 1_555
O7 Yb3 2.266933 1_555
O8 Si3 1.619073 1_655
O8 Yb0 2.319755 1_555
O9 Si2 1.619073 1_545
O9 Yb1 2.319755 1_554
O10 Si1 1.619073 1_455
O10 Yb2 2.319755 1_555
O11 Si0 1.619073 1_565
O11 Yb3 2.319755 1_556
O12 Si4 1.595692 1_555
O12 Yb0 2.303350 1_545
O13 Si5 1.595692 1_555
O13 Yb1 2.303350 1_654
O14 Si6 1.595692 1_555
O14 Yb2 2.303350 1_565
O15 Si7 1.595692 1_555
O15 Yb3 2.303350 1_456
O16 Si12 1.605644 1_555
O16 Yb0 2.347376 1_555
O17 Si13 1.605644 1_555
O17 Yb1 2.347376 1_555
O18 Si14 1.605644 1_555
O18 Yb2 2.347376 1_555
O19 Si15 1.605644 1_555
O19 Yb3 2.347376 1_555
O20 Si12 1.644975 1_555
O20 Si1 1.647974 1_555
O21 Si13 1.644975 1_555
O21 Si0 1.647974 1_555
O22 Si14 1.644975 1_555
O22 Si3 1.647974 1_555
O23 Si15 1.644975 1_555
O23 Si2 1.647974 1_555
O24 Si2 1.673085 1_555
O24 Si3 1.673085 1_555
O25 Si1 1.673085 1_555
O25 Si0 1.673085 1_555
O26 Si12 1.638398 1_555
O26 Si5 1.638415 1_556
O27 Si13 1.638398 1_555
O27 Si4 1.638415 1_555
O28 Si14 1.638398 1_555
O28 Si7 1.638415 1_554
O29 Si15 1.638398 1_555
O29 Si6 1.638415 1_555
O30 Si7 1.651741 1_555
O30 Si8 1.657897 1_555
O31 Si6 1.651741 1_555
O31 Si9 1.657897 1_555
O32 Si5 1.651741 1_555
O32 Si10 1.657897 1_555
O33 Si4 1.651741 1_555
O33 Si11 1.657897 1_555
O34 Si6 1.656793 1_555
O34 Si8 1.658592 1_555
O35 Si7 1.656793 1_555
O35 Si9 1.658592 1_555
O36 Si4 1.656793 1_555
O36 Si10 1.658592 1_555
O37 Si5 1.656793 1_555
O37 Si11 1.658592 1_555
O38 Si8 1.663286 1_555
O38 Si12 1.663371 1_555
O39 Si9 1.663286 1_555
O39 Si13 1.663371 1_555
O40 Si10 1.663286 1_555
O40 Si14 1.663371 1_555
O41 Si11 1.663286 1_555
O41 Si15 1.663371 1_555
