# generated using pymatgen
data_Ca5Mg
_symmetry_space_group_name_H-M   'P 1'
_cell_length_a   7.76924463
_cell_length_b   7.76924463
_cell_length_c   36.85081842
_cell_angle_alpha   90.00000000
_cell_angle_beta   90.00000000
_cell_angle_gamma   120.00002955
_symmetry_Int_Tables_number   1
_chemical_formula_structural   Ca5Mg
_chemical_formula_sum   'Ca40 Mg8'
_cell_volume   1926.35015647
_cell_formula_units_Z   8
loop_
 _symmetry_equiv_pos_site_id
 _symmetry_equiv_pos_as_xyz
  1  'x, y, z'
loop_
 _atom_site_type_symbol
 _atom_site_label
 _atom_site_symmetry_multiplicity
 _atom_site_fract_x
 _atom_site_fract_y
 _atom_site_fract_z
 _atom_site_occupancy
  Ca  Ca0_0  1  0.33333350  0.16666650  0.42668521  1
  Ca  Ca0_1  1  0.33333350  0.16666650  0.92668521  1
  Ca  Ca0_2  1  0.33333350  0.66666650  0.42668521  1
  Ca  Ca0_3  1  0.33333350  0.66666650  0.92668521  1
  Ca  Ca0_4  1  0.83333350  0.16666650  0.42668521  1
  Ca  Ca0_5  1  0.83333350  0.16666650  0.92668521  1
  Ca  Ca0_6  1  0.83333350  0.66666650  0.42668521  1
  Ca  Ca0_7  1  0.83333350  0.66666650  0.92668521  1
  Ca  Ca1_0  1  0.00000000  0.00000000  0.33802678  1
  Ca  Ca1_1  1  0.00000000  0.00000000  0.83802678  1
  Ca  Ca1_2  1  1.00000000  0.50000000  0.33802678  1
  Ca  Ca1_3  1  1.00000000  0.50000000  0.83802678  1
  Ca  Ca1_4  1  0.50000000  0.00000000  0.33802678  1
  Ca  Ca1_5  1  0.50000000  0.00000000  0.83802678  1
  Ca  Ca1_6  1  0.50000000  0.50000000  0.33802678  1
  Ca  Ca1_7  1  0.50000000  0.50000000  0.83802678  1
  Ca  Ca2_0  1  0.33333350  0.16666650  0.25000000  1
  Ca  Ca2_1  1  0.33333350  0.16666650  0.75000000  1
  Ca  Ca2_2  1  0.33333350  0.66666650  0.25000000  1
  Ca  Ca2_3  1  0.33333350  0.66666650  0.75000000  1
  Ca  Ca2_4  1  0.83333350  0.16666650  0.25000000  1
  Ca  Ca2_5  1  0.83333350  0.16666650  0.75000000  1
  Ca  Ca2_6  1  0.83333350  0.66666650  0.25000000  1
  Ca  Ca2_7  1  0.83333350  0.66666650  0.75000000  1
  Ca  Ca3_0  1  0.00000000  0.00000000  0.16197322  1
  Ca  Ca3_1  1  0.00000000  0.00000000  0.66197322  1
  Ca  Ca3_2  1  1.00000000  0.50000000  0.16197322  1
  Ca  Ca3_3  1  1.00000000  0.50000000  0.66197322  1
  Ca  Ca3_4  1  0.50000000  0.00000000  0.16197322  1
  Ca  Ca3_5  1  0.50000000  0.00000000  0.66197322  1
  Ca  Ca3_6  1  0.50000000  0.50000000  0.16197322  1
  Ca  Ca3_7  1  0.50000000  0.50000000  0.66197322  1
  Ca  Ca4_0  1  0.33333350  0.16666650  0.07331480  1
  Ca  Ca4_1  1  0.33333350  0.16666650  0.57331479  1
  Ca  Ca4_2  1  0.33333350  0.66666650  0.07331480  1
  Ca  Ca4_3  1  0.33333350  0.66666650  0.57331479  1
  Ca  Ca4_4  1  0.83333350  0.16666650  0.07331480  1
  Ca  Ca4_5  1  0.83333350  0.16666650  0.57331479  1
  Ca  Ca4_6  1  0.83333350  0.66666650  0.07331480  1
  Ca  Ca4_7  1  0.83333350  0.66666650  0.57331479  1
  Mg  Mg0_0  1  0.00000000  0.00000000  0.00000000  1
  Mg  Mg0_1  1  0.00000000  0.00000000  0.50000000  1
  Mg  Mg0_2  1  1.00000000  0.50000000  0.00000000  1
  Mg  Mg0_3  1  1.00000000  0.50000000  0.50000000  1
  Mg  Mg0_4  1  0.50000000  0.00000000  0.00000000  1
  Mg  Mg0_5  1  0.50000000  0.00000000  0.50000000  1
  Mg  Mg0_6  1  0.50000000  0.50000000  0.00000000  1
  Mg  Mg0_7  1  0.50000000  0.50000000  0.50000000  1
loop_
_geom_bond_atom_site_label_1
_geom_bond_atom_site_label_2
_geom_bond_distance
_geom_bond_site_symmetry_2
Ca0_0 Mg0_5 3.511314 1_555
Ca0_0 Mg0_1 3.511316 1_555
Ca0_0 Mg0_7 3.511316 1_555
Ca0_0 Ca1_4 3.962860 1_555
Ca0_0 Ca1_0 3.962862 1_555
Ca0_0 Ca1_6 3.962862 1_555
Ca0_1 Mg0_4 3.511314 1_556
Ca0_1 Mg0_0 3.511316 1_556
Ca0_1 Mg0_6 3.511316 1_556
Ca0_1 Ca1_5 3.962860 1_555
Ca0_1 Ca1_1 3.962862 1_555
Ca0_1 Ca1_7 3.962862 1_555
Ca0_2 Mg0_7 3.511314 1_555
Ca0_2 Mg0_5 3.511316 1_565
Ca0_2 Mg0_3 3.511316 1_455
Ca0_2 Ca1_6 3.962860 1_555
Ca0_2 Ca1_4 3.962862 1_565
Ca0_2 Ca1_2 3.962862 1_455
Ca0_3 Mg0_6 3.511314 1_556
Ca0_3 Mg0_4 3.511316 1_566
Ca0_3 Mg0_2 3.511316 1_456
Ca0_3 Ca1_7 3.962860 1_555
Ca0_3 Ca1_5 3.962862 1_565
Ca0_3 Ca1_3 3.962862 1_455
Ca0_4 Mg0_1 3.511314 1_655
Ca0_4 Mg0_5 3.511316 1_555
Ca0_4 Mg0_3 3.511316 1_555
Ca0_4 Ca1_0 3.962860 1_655
Ca0_4 Ca1_2 3.962862 1_555
Ca0_4 Ca1_4 3.962862 1_555
Ca0_5 Mg0_0 3.511314 1_656
Ca0_5 Mg0_4 3.511316 1_556
Ca0_5 Mg0_2 3.511316 1_556
Ca0_5 Ca1_1 3.962860 1_655
Ca0_5 Ca1_5 3.962862 1_555
Ca0_5 Ca1_3 3.962862 1_555
Ca0_6 Mg0_3 3.511314 1_555
Ca0_6 Mg0_1 3.511316 1_665
Ca0_6 Mg0_7 3.511316 1_555
Ca0_6 Ca1_2 3.962860 1_555
Ca0_6 Ca1_0 3.962862 1_665
Ca0_6 Ca1_6 3.962862 1_555
Ca0_7 Mg0_2 3.511314 1_556
Ca0_7 Mg0_6 3.511316 1_556
Ca0_7 Mg0_0 3.511316 1_666
Ca0_7 Ca1_3 3.962860 1_555
Ca0_7 Ca1_1 3.962862 1_665
Ca0_7 Ca1_7 3.962862 1_555
Ca1_0 Ca1_6 3.884621 1_555
Ca1_0 Ca1_6 3.884621 1_445
Ca1_0 Ca1_4 3.884622 1_555
Ca1_0 Ca1_2 3.884622 1_445
Ca1_0 Ca1_4 3.884622 1_455
Ca1_0 Ca1_2 3.884622 1_455
Ca1_0 Ca2_4 3.943692 1_455
Ca1_0 Ca2_0 3.943694 1_555
Ca1_0 Ca2_6 3.943694 1_445
Ca1_1 Ca1_7 3.884621 1_555
Ca1_1 Ca1_7 3.884621 1_445
Ca1_1 Ca1_5 3.884622 1_555
Ca1_1 Ca1_3 3.884622 1_445
Ca1_1 Ca1_5 3.884622 1_455
Ca1_1 Ca1_3 3.884622 1_455
Ca1_1 Ca2_5 3.943692 1_455
Ca1_1 Ca2_1 3.943694 1_555
Ca1_1 Ca2_7 3.943694 1_445
Ca1_2 Ca1_4 3.884621 1_555
Ca1_2 Ca1_4 3.884621 1_665
Ca1_2 Ca1_6 3.884622 1_555
Ca1_2 Ca1_6 3.884622 1_655
Ca1_2 Ca2_6 3.943692 1_555
Ca1_2 Ca2_2 3.943694 1_655
Ca1_2 Ca2_4 3.943694 1_555
Ca1_3 Ca1_5 3.884621 1_555
Ca1_3 Ca1_5 3.884621 1_665
Ca1_3 Ca1_7 3.884622 1_555
Ca1_3 Ca1_7 3.884622 1_655
Ca1_3 Ca2_7 3.943692 1_555
Ca1_3 Ca2_5 3.943694 1_555
Ca1_3 Ca2_3 3.943694 1_655
Ca1_4 Ca1_6 3.884622 1_545
Ca1_4 Ca1_6 3.884622 1_555
Ca1_4 Ca2_0 3.943692 1_555
Ca1_4 Ca2_2 3.943694 1_545
Ca1_4 Ca2_4 3.943694 1_555
Ca1_5 Ca1_7 3.884622 1_545
Ca1_5 Ca1_7 3.884622 1_555
Ca1_5 Ca2_1 3.943692 1_555
Ca1_5 Ca2_3 3.943694 1_545
Ca1_5 Ca2_5 3.943694 1_555
Ca1_6 Ca2_2 3.943692 1_555
Ca1_6 Ca2_6 3.943694 1_555
Ca1_6 Ca2_0 3.943694 1_555
Ca1_7 Ca2_3 3.943692 1_555
Ca1_7 Ca2_7 3.943694 1_555
Ca1_7 Ca2_1 3.943694 1_555
Ca2_0 Ca2_6 3.884621 1_555
Ca2_0 Ca2_6 3.884621 1_445
Ca2_0 Ca2_2 3.884622 1_545
Ca2_0 Ca2_4 3.884622 1_455
Ca2_0 Ca2_4 3.884622 1_555
Ca2_0 Ca2_2 3.884622 1_555
Ca2_0 Ca3_4 3.943692 1_555
Ca2_0 Ca3_6 3.943694 1_555
Ca2_0 Ca3_0 3.943694 1_555
Ca2_1 Ca2_7 3.884621 1_555
Ca2_1 Ca2_7 3.884621 1_445
Ca2_1 Ca2_3 3.884622 1_545
Ca2_1 Ca2_5 3.884622 1_555
Ca2_1 Ca2_5 3.884622 1_455
Ca2_1 Ca2_3 3.884622 1_555
Ca2_1 Ca3_5 3.943692 1_555
Ca2_1 Ca3_1 3.943694 1_555
Ca2_1 Ca3_7 3.943694 1_555
Ca2_2 Ca2_4 3.884621 1_565
Ca2_2 Ca2_4 3.884621 1_455
Ca2_2 Ca2_6 3.884622 1_455
Ca2_2 Ca2_6 3.884622 1_555
Ca2_2 Ca3_6 3.943692 1_555
Ca2_2 Ca3_2 3.943694 1_455
Ca2_2 Ca3_4 3.943694 1_565
Ca2_3 Ca2_5 3.884621 1_565
Ca2_3 Ca2_5 3.884621 1_455
Ca2_3 Ca2_7 3.884622 1_455
Ca2_3 Ca2_7 3.884622 1_555
Ca2_3 Ca3_7 3.943692 1_555
Ca2_3 Ca3_5 3.943694 1_565
Ca2_3 Ca3_3 3.943694 1_455
Ca2_4 Ca2_6 3.884622 1_555
Ca2_4 Ca2_6 3.884622 1_545
Ca2_4 Ca3_0 3.943692 1_655
Ca2_4 Ca3_4 3.943694 1_555
Ca2_4 Ca3_2 3.943694 1_555
Ca2_5 Ca2_7 3.884622 1_545
Ca2_5 Ca2_7 3.884622 1_555
Ca2_5 Ca3_1 3.943692 1_655
Ca2_5 Ca3_3 3.943694 1_555
Ca2_5 Ca3_5 3.943694 1_555
Ca2_6 Ca3_2 3.943692 1_555
Ca2_6 Ca3_6 3.943694 1_555
Ca2_6 Ca3_0 3.943694 1_665
Ca2_7 Ca3_3 3.943692 1_555
Ca2_7 Ca3_7 3.943694 1_555
Ca2_7 Ca3_1 3.943694 1_665
Ca3_0 Ca3_6 3.884621 1_555
Ca3_0 Ca3_6 3.884621 1_445
Ca3_0 Ca3_4 3.884622 1_555
Ca3_0 Ca3_2 3.884622 1_445
Ca3_0 Ca3_4 3.884622 1_455
Ca3_0 Ca3_2 3.884622 1_455
Ca3_0 Ca4_4 3.962860 1_455
Ca3_0 Ca4_0 3.962862 1_555
Ca3_0 Ca4_6 3.962862 1_445
Ca3_1 Ca3_7 3.884621 1_555
Ca3_1 Ca3_7 3.884621 1_445
Ca3_1 Ca3_5 3.884622 1_555
Ca3_1 Ca3_3 3.884622 1_445
Ca3_1 Ca3_5 3.884622 1_455
Ca3_1 Ca3_3 3.884622 1_455
Ca3_1 Ca4_5 3.962860 1_455
Ca3_1 Ca4_1 3.962862 1_555
Ca3_1 Ca4_7 3.962862 1_445
Ca3_2 Ca3_4 3.884621 1_555
Ca3_2 Ca3_4 3.884621 1_665
Ca3_2 Ca3_6 3.884622 1_555
Ca3_2 Ca3_6 3.884622 1_655
Ca3_2 Ca4_6 3.962860 1_555
Ca3_2 Ca4_2 3.962862 1_655
Ca3_2 Ca4_4 3.962862 1_555
Ca3_3 Ca3_5 3.884621 1_555
Ca3_3 Ca3_5 3.884621 1_665
Ca3_3 Ca3_7 3.884622 1_555
Ca3_3 Ca3_7 3.884622 1_655
Ca3_3 Ca4_7 3.962860 1_555
Ca3_3 Ca4_3 3.962862 1_655
Ca3_3 Ca4_5 3.962862 1_555
Ca3_4 Ca3_6 3.884622 1_545
Ca3_4 Ca3_6 3.884622 1_555
Ca3_4 Ca4_0 3.962860 1_555
Ca3_4 Ca4_4 3.962862 1_555
Ca3_4 Ca4_2 3.962862 1_545
Ca3_5 Ca3_7 3.884622 1_545
Ca3_5 Ca3_7 3.884622 1_555
Ca3_5 Ca4_1 3.962860 1_555
Ca3_5 Ca4_3 3.962862 1_545
Ca3_5 Ca4_5 3.962862 1_555
Ca3_6 Ca4_2 3.962860 1_555
Ca3_6 Ca4_0 3.962862 1_555
Ca3_6 Ca4_6 3.962862 1_555
Ca3_7 Ca4_3 3.962860 1_555
Ca3_7 Ca4_7 3.962862 1_555
Ca3_7 Ca4_1 3.962862 1_555
Ca4_0 Mg0_4 3.511314 1_555
Ca4_0 Mg0_6 3.511316 1_555
Ca4_0 Mg0_0 3.511316 1_555
Ca4_1 Mg0_5 3.511314 1_555
Ca4_1 Mg0_1 3.511316 1_555
Ca4_1 Mg0_7 3.511316 1_555
Ca4_2 Mg0_6 3.511314 1_555
Ca4_2 Mg0_4 3.511316 1_565
Ca4_2 Mg0_2 3.511316 1_455
Ca4_3 Mg0_7 3.511314 1_555
Ca4_3 Mg0_5 3.511316 1_565
Ca4_3 Mg0_3 3.511316 1_455
Ca4_4 Mg0_0 3.511314 1_655
Ca4_4 Mg0_4 3.511316 1_555
Ca4_4 Mg0_2 3.511316 1_555
Ca4_5 Mg0_1 3.511314 1_655
Ca4_5 Mg0_5 3.511316 1_555
Ca4_5 Mg0_3 3.511316 1_555
Ca4_6 Mg0_2 3.511314 1_555
Ca4_6 Mg0_6 3.511316 1_555
Ca4_6 Mg0_0 3.511316 1_665
Ca4_7 Mg0_3 3.511314 1_555
Ca4_7 Mg0_7 3.511316 1_555
Ca4_7 Mg0_1 3.511316 1_665
