# generated using pymatgen
data_Cs2NiH12(SO7)2
_symmetry_space_group_name_H-M   'P 1'
_cell_length_a   14.11897300
_cell_length_b   6.49200300
_cell_length_c   9.30367946
_cell_angle_alpha   75.68774433
_cell_angle_beta   90.00000000
_cell_angle_gamma   90.00000000
_symmetry_Int_Tables_number   1
_chemical_formula_structural   Cs2NiH12(SO7)2
_chemical_formula_sum   'Cs4 Ni2 H24 S4 O28'
_cell_volume   826.31130905
_cell_formula_units_Z   2
loop_
 _symmetry_equiv_pos_site_id
 _symmetry_equiv_pos_as_xyz
  1  'x, y, z'
loop_
 _atom_site_type_symbol
 _atom_site_label
 _atom_site_symmetry_multiplicity
 _atom_site_fract_x
 _atom_site_fract_y
 _atom_site_fract_z
 _atom_site_occupancy
  Cs  Cs0  1  0.13719400  0.66948600  0.64374500  1
  Cs  Cs1  1  0.63719400  0.33051400  0.85625500  1
  Cs  Cs2  1  0.86280600  0.33051400  0.35625500  1
  Cs  Cs3  1  0.36280600  0.66948600  0.14374500  1
  Ni  Ni0  1  0.50000000  0.00000000  0.50000000  1
  Ni  Ni1  1  0.00000000  0.00000000  0.00000000  1
  H  H0  1  0.41313000  0.68128700  0.70102700  1
  H  H1  1  0.91313000  0.31871300  0.79897300  1
  H  H2  1  0.58687000  0.31871300  0.29897300  1
  H  H3  1  0.08687000  0.68128700  0.20102700  1
  H  H4  1  0.37870300  0.90674500  0.72865700  1
  H  H5  1  0.87870300  0.09325500  0.77134300  1
  H  H6  1  0.62129700  0.09325500  0.27134300  1
  H  H7  1  0.12129700  0.90674500  0.22865700  1
  H  H8  1  0.41651200  0.08334700  0.23946300  1
  H  H9  1  0.91651200  0.91665300  0.26053700  1
  H  H10  1  0.58348800  0.91665300  0.76053700  1
  H  H11  1  0.08348800  0.08334700  0.73946300  1
  H  H12  1  0.33514700  0.99339200  0.37339800  1
  H  H13  1  0.83514700  0.00660800  0.12660200  1
  H  H14  1  0.66485300  0.00660800  0.62660200  1
  H  H15  1  0.16485300  0.99339200  0.87339800  1
  H  H16  1  0.56912600  0.66704000  0.40296900  1
  H  H17  1  0.06912600  0.33296000  0.09703100  1
  H  H18  1  0.43087400  0.33296000  0.59703100  1
  H  H19  1  0.93087400  0.66704000  0.90296900  1
  H  H20  1  0.64018100  0.75678900  0.50299200  1
  H  H21  1  0.14018100  0.24321100  0.99700800  1
  H  H22  1  0.35981900  0.24321100  0.49700800  1
  H  H23  1  0.85981900  0.75678900  0.00299200  1
  S  S0  1  0.35988400  0.31625200  0.89469300  1
  S  S1  1  0.85988400  0.68374800  0.60530700  1
  S  S2  1  0.64011600  0.68374800  0.10530700  1
  S  S3  1  0.14011600  0.31625200  0.39469300  1
  O  O0  1  0.24797600  0.00629200  0.94363500  1
  O  O1  1  0.74797600  0.99370800  0.55636500  1
  O  O2  1  0.75202400  0.99370800  0.05636500  1
  O  O3  1  0.25202400  0.00629200  0.44363500  1
  O  O4  1  0.42133200  0.22217200  0.02458300  1
  O  O5  1  0.92133200  0.77782800  0.47541700  1
  O  O6  1  0.57866800  0.77782800  0.97541700  1
  O  O7  1  0.07866800  0.22217200  0.52458300  1
  O  O8  1  0.42307200  0.41344000  0.76208500  1
  O  O9  1  0.92307200  0.58656000  0.73791500  1
  O  O10  1  0.57692800  0.58656000  0.23791500  1
  O  O11  1  0.07692800  0.41344000  0.26208500  1
  O  O12  1  0.31803700  0.10988200  0.82971400  1
  O  O13  1  0.81803700  0.89011800  0.67028600  1
  O  O14  1  0.68196300  0.89011800  0.17028600  1
  O  O15  1  0.18196300  0.10988200  0.32971400  1
  O  O16  1  0.40135300  0.83435200  0.65393500  1
  O  O17  1  0.90135300  0.16564800  0.84606500  1
  O  O18  1  0.59864700  0.16564800  0.34606500  1
  O  O19  1  0.09864700  0.83435200  0.15393500  1
  O  O20  1  0.40790500  0.97509600  0.33321400  1
  O  O21  1  0.90790500  0.02490400  0.16678600  1
  O  O22  1  0.59209500  0.02490400  0.66678600  1
  O  O23  1  0.09209500  0.97509600  0.83321400  1
  O  O24  1  0.57372000  0.71455300  0.49673700  1
  O  O25  1  0.07372000  0.28544700  0.00326300  1
  O  O26  1  0.42628000  0.28544700  0.50326300  1
  O  O27  1  0.92628000  0.71455300  0.99673700  1
loop_
_geom_bond_atom_site_label_1
_geom_bond_atom_site_label_2
_geom_bond_distance
_geom_bond_site_symmetry_2
Cs0 O3 2.977082 1_565
Cs0 O23 3.029562 1_555
Cs0 O9 3.156558 1_455
Cs0 O5 3.419278 1_455
Cs0 O7 3.454947 1_555
Cs1 O2 2.977082 1_546
Cs1 O22 3.029562 1_555
Cs1 O8 3.156558 1_555
Cs1 O4 3.419278 1_556
Cs1 O6 3.454947 1_555
Cs2 O1 2.977082 1_545
Cs2 O21 3.029562 1_555
Cs2 O11 3.156558 1_655
Cs2 O7 3.419278 1_655
Cs2 O5 3.454947 1_555
Cs3 O0 2.977082 1_564
Cs3 O20 3.029562 1_555
Cs3 O10 3.156558 1_555
Cs3 O6 3.419278 1_554
Cs3 O4 3.454947 1_555
Ni0 O22 2.061254 1_555
Ni0 O20 2.061254 1_545
Ni0 O16 2.094269 1_545
Ni0 O18 2.094269 1_555
Ni0 O24 2.132175 1_545
Ni0 O26 2.132175 1_555
Ni1 O21 2.061254 1_455
Ni1 O23 2.061254 1_544
Ni1 O19 2.094269 1_545
Ni1 O17 2.094269 1_454
Ni1 O27 2.132175 1_444
Ni1 O25 2.132175 1_555
H0 O16 0.995887 1_555
H0 O8 1.696371 1_555
H1 O17 0.995887 1_555
H1 O9 1.696371 1_555
H2 O18 0.995887 1_555
H2 O10 1.696371 1_555
H3 O19 0.995887 1_555
H3 O11 1.696371 1_555
H4 O16 0.983855 1_555
H5 O17 0.983855 1_555
H6 O18 0.983855 1_555
H7 O19 0.983855 1_555
H8 O20 0.983041 1_545
H9 O21 0.983041 1_565
H10 O22 0.983041 1_565
H11 O23 0.983041 1_545
H12 O20 1.109556 1_555
H12 O3 1.355894 1_565
H13 O21 1.109556 1_555
H13 O2 1.355894 1_545
H14 O22 1.109556 1_555
H14 O1 1.355894 1_545
H15 O23 1.109556 1_555
H15 O0 1.355894 1_565
H16 O24 0.996721 1_555
H16 O10 1.743528 1_555
H17 O25 0.996721 1_555
H17 O11 1.743528 1_555
H18 O26 0.996721 1_555
H18 O8 1.743528 1_555
H19 O27 0.996721 1_555
H19 O9 1.743528 1_555
H20 O24 0.983352 1_555
H21 O25 0.983352 1_556
H22 O26 0.983352 1_555
H23 O27 0.983352 1_554
O0 O12 1.483816 1_555
O1 O13 1.483816 1_555
O4 S0 1.490363 1_554
O5 S1 1.490363 1_555
O6 S2 1.490363 1_556
O7 S3 1.490363 1_555
O8 S0 1.526853 1_555
O9 S1 1.526853 1_555
O10 S2 1.526853 1_555
O11 S3 1.526853 1_555
O12 S0 1.705857 1_555
O13 S1 1.705857 1_555
O14 O2 1.483816 1_555
O14 S2 1.705857 1_555
O15 O3 1.483816 1_555
O15 S3 1.705857 1_555
