# generated using pymatgen
data_Li9Mn2Co5O16
_symmetry_space_group_name_H-M   'P 1'
_cell_length_a   2.81254872
_cell_length_b   9.52643230
_cell_length_c   10.18145660
_cell_angle_alpha   107.21899877
_cell_angle_beta   97.96340575
_cell_angle_gamma   89.93998122
_symmetry_Int_Tables_number   1
_chemical_formula_structural   Li9Mn2Co5O16
_chemical_formula_sum   'Li9 Mn2 Co5 O16'
_cell_volume   257.82756995
_cell_formula_units_Z   1
loop_
 _symmetry_equiv_pos_site_id
 _symmetry_equiv_pos_as_xyz
  1  'x, y, z'
loop_
 _atom_site_type_symbol
 _atom_site_label
 _atom_site_symmetry_multiplicity
 _atom_site_fract_x
 _atom_site_fract_y
 _atom_site_fract_z
 _atom_site_occupancy
  Li  Li0  1  0.06266118  0.32398727  0.12583666  1
  Li  Li1  1  0.56401700  0.79934551  0.12676047  1
  Li  Li2  1  0.69756556  0.43893460  0.39349922  1
  Li  Li3  1  0.19543360  0.93718949  0.38148414  1
  Li  Li4  1  0.30868008  0.55124408  0.62363426  1
  Li  Li5  1  0.81154938  0.08118894  0.61827608  1
  Li  Li6  1  0.92919299  0.67376406  0.86788374  1
  Li  Li7  1  0.43554946  0.19952205  0.86931972  1
  Li  Li8  1  0.25640905  0.25779983  0.50896033  1
  Mn  Mn0  1  0.99836770  0.99907893  0.99527078  1
  Mn  Mn1  1  0.63155246  0.12605095  0.25920016  1
  Co  Co0  1  0.49896502  0.49955334  0.99969635  1
  Co  Co1  1  0.12433188  0.62310618  0.25082361  1
  Co  Co2  1  0.74905010  0.74969283  0.50016705  1
  Co  Co3  1  0.87204381  0.37465843  0.74523326  1
  Co  Co4  1  0.37339425  0.87518975  0.74774288  1
  O  O0  1  0.53001337  0.14046864  0.05880263  1
  O  O1  1  0.03156593  0.64179818  0.06526143  1
  O  O2  1  0.15201245  0.26209951  0.30130445  1
  O  O3  1  0.65595663  0.76395409  0.31466442  1
  O  O4  1  0.78604786  0.40769198  0.57411753  1
  O  O5  1  0.28146097  0.89108423  0.56569512  1
  O  O6  1  0.40698744  0.51826510  0.81672435  1
  O  O7  1  0.90725897  0.01827882  0.81558063  1
  O  O8  1  0.59228182  0.48273338  0.18612953  1
  O  O9  1  0.09184093  0.97961533  0.18016176  1
  O  O10  1  0.21706879  0.60909498  0.43592483  1
  O  O11  1  0.71186863  0.08814427  0.41852396  1
  O  O12  1  0.84304697  0.73790141  0.68662275  1
  O  O13  1  0.34679086  0.23361949  0.69340357  1
  O  O14  1  0.46885085  0.85565589  0.93592326  1
  O  O15  1  0.96818201  0.35928847  0.93737005  1
loop_
_geom_bond_atom_site_label_1
_geom_bond_atom_site_label_2
_geom_bond_distance
_geom_bond_site_symmetry_2
Li0 O8 2.020996 1_555
Li0 O8 2.021208 1_455
Li0 O2 2.025160 1_555
Li0 O15 2.026408 1_454
Li0 O0 2.186854 1_455
Li0 O0 2.188011 1_555
Li1 O1 2.010352 1_655
Li1 O1 2.018861 1_555
Li1 O3 2.021202 1_555
Li1 O14 2.146474 1_554
Li1 O9 2.156604 1_555
Li1 O9 2.162765 1_655
Li2 O4 1.931157 1_555
Li2 O10 2.089191 1_655
Li2 O10 2.093617 1_555
Li2 O2 2.177960 1_555
Li2 O2 2.178166 1_655
Li2 O8 2.251121 1_555
Li3 O11 1.962526 1_565
Li3 O11 1.968987 1_465
Li3 O5 2.032448 1_555
Li3 O3 2.106892 1_555
Li3 O3 2.131455 1_455
Li3 O9 2.185061 1_555
Li4 O4 1.917215 1_455
Li4 O4 1.924183 1_555
Li4 O6 2.062752 1_555
Li4 O10 2.123552 1_555
Li4 O12 2.200222 1_455
Li4 O12 2.212552 1_555
Li5 O13 1.996961 1_655
Li5 O13 2.004456 1_555
Li5 O11 2.034934 1_555
Li5 O5 2.220399 1_645
Li5 O5 2.235993 1_545
Li5 O7 2.242702 1_555
Li6 O6 1.989631 1_555
Li6 O6 2.001128 1_655
Li6 O12 2.093153 1_555
Li6 O1 2.101405 1_656
Li6 O14 2.166079 1_555
Li6 O14 2.188532 1_655
Li7 O13 1.896365 1_555
Li7 O15 2.033117 1_555
Li7 O15 2.036729 1_455
Li7 O0 2.146894 1_556
Li7 O7 2.162797 1_555
Li7 O7 2.170036 1_455
Li8 O13 1.941110 1_555
Li8 O4 1.966700 1_555
Li8 O4 1.976758 1_455
Li8 O2 2.106451 1_555
Li8 O11 2.130487 1_455
Li8 O11 2.131279 1_555
Mn0 O7 1.874656 1_565
Mn0 O0 1.919479 1_566
Mn0 O0 1.920653 1_666
Mn0 O14 1.926627 1_655
Mn0 O14 1.927702 1_555
Mn0 O9 1.927841 1_656
Mn1 O11 1.748687 1_555
Mn1 O2 1.872822 1_655
Mn1 O2 1.873554 1_555
Mn1 O9 1.972263 1_645
Mn1 O9 1.974636 1_545
Mn1 O0 2.065862 1_555
Co0 O6 1.905820 1_555
Co0 O15 1.912093 1_555
Co0 O15 1.912188 1_455
Co0 O1 1.927139 1_556
Co0 O1 1.928057 1_656
Co0 O8 1.933784 1_556
Co1 O10 1.910555 1_555
Co1 O8 1.915550 1_555
Co1 O8 1.915975 1_455
Co1 O3 1.917135 1_455
Co1 O3 1.917577 1_555
Co1 O1 1.931763 1_555
Co2 O3 1.915456 1_555
Co2 O10 1.915908 1_655
Co2 O12 1.916644 1_555
Co2 O10 1.916988 1_555
Co2 O5 1.922576 1_555
Co2 O5 1.922777 1_655
Co3 O4 1.844044 1_555
Co3 O13 1.906441 1_555
Co3 O13 1.907437 1_655
Co3 O6 1.943296 1_655
Co3 O6 1.944928 1_555
Co3 O15 1.986035 1_555
Co4 O5 1.886419 1_555
Co4 O12 1.893379 1_555
Co4 O12 1.894137 1_455
Co4 O7 1.934866 1_465
Co4 O7 1.936299 1_565
Co4 O14 1.961130 1_555
