# generated using pymatgen
data_Li9Mn2Co5O16
_symmetry_space_group_name_H-M   'P 1'
_cell_length_a   4.87150692
_cell_length_b   5.68870718
_cell_length_c   9.80326224
_cell_angle_alpha   89.19100727
_cell_angle_beta   99.51577875
_cell_angle_gamma   106.70553752
_symmetry_Int_Tables_number   1
_chemical_formula_structural   Li9Mn2Co5O16
_chemical_formula_sum   'Li9 Mn2 Co5 O16'
_cell_volume   256.46667091
_cell_formula_units_Z   1
loop_
 _symmetry_equiv_pos_site_id
 _symmetry_equiv_pos_as_xyz
  1  'x, y, z'
loop_
 _atom_site_type_symbol
 _atom_site_label
 _atom_site_symmetry_multiplicity
 _atom_site_fract_x
 _atom_site_fract_y
 _atom_site_fract_z
 _atom_site_occupancy
  Li  Li0  1  0.99709815  0.25336997  0.25931503  1
  Li  Li1  1  0.50573589  0.87680584  0.62140692  1
  Li  Li2  1  0.99952082  0.00925883  0.50798858  1
  Li  Li3  1  0.48080954  0.61553310  0.86158034  1
  Li  Li4  1  0.00332107  0.73854136  0.73976703  1
  Li  Li5  1  0.50330999  0.38183839  0.13031541  1
  Li  Li6  1  0.00395371  0.49820824  0.99444944  1
  Li  Li7  1  0.50260842  0.12489071  0.38415385  1
  Li  Li8  1  0.99778533  0.25461888  0.74070335  1
  Mn  Mn0  1  0.99903666  0.00024517  0.99927530  1
  Mn  Mn1  1  0.49963942  0.13020177  0.86836958  1
  Co  Co0  1  0.50043357  0.62537390  0.37594543  1
  Co  Co1  1  0.50031713  0.87483457  0.12620828  1
  Co  Co2  1  0.00053926  0.49863361  0.50173159  1
  Co  Co3  1  0.00060681  0.74995539  0.25171470  1
  Co  Co4  1  0.50046922  0.37416263  0.62537639  1
  O  O0  1  0.74732824  0.16772442  0.05595007  1
  O  O1  1  0.23923682  0.79026763  0.42769930  1
  O  O2  1  0.73896777  0.91412239  0.30261808  1
  O  O3  1  0.25136720  0.55375172  0.67511661  1
  O  O4  1  0.73981753  0.66330521  0.55388358  1
  O  O5  1  0.25101806  0.28553347  0.94194248  1
  O  O6  1  0.72349388  0.41825916  0.81124084  1
  O  O7  1  0.24083812  0.04097364  0.18014631  1
  O  O8  1  0.26154998  0.33679207  0.44583129  1
  O  O9  1  0.74975849  0.94664249  0.82940084  1
  O  O10  1  0.27746461  0.07458252  0.69671884  1
  O  O11  1  0.76019094  0.71050439  0.07113536  1
  O  O12  1  0.25243727  0.83214921  0.94470532  1
  O  O13  1  0.76010877  0.46201917  0.31880664  1
  O  O14  1  0.26119831  0.58857748  0.19518018  1
  O  O15  1  0.75003705  0.20831967  0.56132901  1
loop_
_geom_bond_atom_site_label_1
_geom_bond_atom_site_label_2
_geom_bond_distance
_geom_bond_site_symmetry_2
Li0 O13 2.027760 1_555
Li0 O8 2.030356 1_655
Li0 O2 2.060121 1_545
Li0 O14 2.123668 1_655
Li0 O0 2.139400 1_555
Li0 O7 2.151300 1_655
Li1 O10 2.015372 1_565
Li1 O3 2.017249 1_555
Li1 O15 2.056664 1_565
Li1 O4 2.069338 1_555
Li1 O1 2.092299 1_555
Li1 O9 2.162985 1_555
Li2 O15 2.012696 1_555
Li2 O10 2.072778 1_655
Li2 O8 2.080896 1_655
Li2 O4 2.099508 1_545
Li2 O1 2.168675 1_645
Li2 O2 2.179054 1_545
Li3 O3 1.957296 1_555
Li3 O6 1.967721 1_555
Li3 O9 2.016208 1_555
Li3 O5 2.107035 1_555
Li3 O12 2.129903 1_555
Li3 O11 2.246916 1_556
Li4 O3 1.992276 1_555
Li4 O4 2.020980 1_455
Li4 O10 2.076498 1_565
Li4 O6 2.126199 1_455
Li4 O12 2.155272 1_555
Li4 O9 2.219977 1_455
Li5 O5 2.027784 1_554
Li5 O13 2.029521 1_555
Li5 O14 2.060382 1_555
Li5 O11 2.064605 1_555
Li5 O7 2.094741 1_555
Li5 O0 2.138270 1_555
Li6 O6 2.038081 1_455
Li6 O12 2.039340 1_555
Li6 O5 2.058359 1_555
Li6 O0 2.080112 1_456
Li6 O14 2.133038 1_556
Li6 O11 2.139885 1_456
Li7 O15 1.922785 1_555
Li7 O1 2.050853 1_545
Li7 O8 2.065643 1_555
Li7 O13 2.123659 1_555
Li7 O2 2.127757 1_545
Li7 O7 2.165077 1_555
Li8 O15 1.935658 1_555
Li8 O3 1.964265 1_655
Li8 O10 2.024868 1_655
Li8 O6 2.041815 1_555
Li8 O9 2.091123 1_545
Li8 O5 2.127227 1_655
Mn0 O9 1.863803 1_545
Mn0 O5 1.874471 1_655
Mn0 O0 1.905729 1_556
Mn0 O12 1.906798 1_645
Mn0 O11 1.924185 1_546
Mn0 O7 1.936313 1_656
Mn1 O10 1.821845 1_555
Mn1 O6 1.826686 1_555
Mn1 O9 1.901999 1_545
Mn1 O5 1.920947 1_555
Mn1 O12 1.993321 1_545
Mn1 O0 2.003103 1_556
Co0 O4 1.908587 1_555
Co0 O8 1.911072 1_555
Co0 O1 1.915582 1_555
Co0 O13 1.924158 1_555
Co0 O2 1.926314 1_555
Co0 O14 1.931251 1_555
Co1 O2 1.894497 1_555
Co1 O14 1.898598 1_555
Co1 O11 1.920601 1_555
Co1 O7 1.921616 1_565
Co1 O0 1.946137 1_565
Co1 O12 1.953543 1_554
Co2 O3 1.894350 1_555
Co2 O15 1.899437 1_455
Co2 O4 1.914247 1_455
Co2 O8 1.918942 1_555
Co2 O1 1.940922 1_555
Co2 O13 1.951114 1_455
Co3 O1 1.890809 1_555
Co3 O13 1.899815 1_455
Co3 O2 1.911417 1_455
Co3 O14 1.917944 1_555
Co3 O7 1.930648 1_565
Co3 O11 1.931446 1_455
Co4 O3 1.917430 1_555
Co4 O8 1.920642 1_555
Co4 O15 1.921178 1_555
Co4 O4 1.921277 1_555
Co4 O10 1.930515 1_555
Co4 O6 1.940357 1_555
