# generated using pymatgen
data_Zn(NO6)2
_symmetry_space_group_name_H-M   'P 1'
_cell_length_a   5.91025600
_cell_length_b   12.77829500
_cell_length_c   13.29491000
_cell_angle_alpha   90.00000000
_cell_angle_beta   90.00000000
_cell_angle_gamma   90.00000000
_symmetry_Int_Tables_number   1
_chemical_formula_structural   Zn(NO6)2
_chemical_formula_sum   'Zn4 N8 O48'
_cell_volume   1004.07141738
_cell_formula_units_Z   4
loop_
 _symmetry_equiv_pos_site_id
 _symmetry_equiv_pos_as_xyz
  1  'x, y, z'
loop_
 _atom_site_type_symbol
 _atom_site_label
 _atom_site_symmetry_multiplicity
 _atom_site_fract_x
 _atom_site_fract_y
 _atom_site_fract_z
 _atom_site_occupancy
  Zn  Zn0  1  0.12557700  0.05569100  0.25000000  1
  Zn  Zn1  1  0.37442300  0.55569100  0.25000000  1
  Zn  Zn2  1  0.87442300  0.94430900  0.75000000  1
  Zn  Zn3  1  0.62557700  0.44430900  0.75000000  1
  N  N0  1  0.56869200  0.12891400  0.97417200  1
  N  N1  1  0.93130800  0.62891400  0.52582800  1
  N  N2  1  0.43130800  0.87108600  0.47417200  1
  N  N3  1  0.06869200  0.37108600  0.02582800  1
  N  N4  1  0.43130800  0.87108600  0.02582800  1
  N  N5  1  0.06869200  0.37108600  0.47417200  1
  N  N6  1  0.56869200  0.12891400  0.52582800  1
  N  N7  1  0.93130800  0.62891400  0.97417200  1
  O  O0  1  0.36763400  0.96481300  0.25000000  1
  O  O1  1  0.13236600  0.46481300  0.25000000  1
  O  O2  1  0.63236600  0.03518700  0.75000000  1
  O  O3  1  0.86763400  0.53518700  0.75000000  1
  O  O4  1  0.23089600  0.21299900  0.25000000  1
  O  O5  1  0.26910400  0.71299900  0.25000000  1
  O  O6  1  0.76910400  0.78700100  0.75000000  1
  O  O7  1  0.73089600  0.28700100  0.75000000  1
  O  O8  1  0.79760300  0.06557900  0.25000000  1
  O  O9  1  0.70239700  0.56557900  0.25000000  1
  O  O10  1  0.20239700  0.93442100  0.75000000  1
  O  O11  1  0.29760300  0.43442100  0.75000000  1
  O  O12  1  0.85616000  0.23162400  0.25000000  1
  O  O13  1  0.64384000  0.73162400  0.25000000  1
  O  O14  1  0.14384000  0.76837600  0.75000000  1
  O  O15  1  0.35616000  0.26837600  0.75000000  1
  O  O16  1  0.03249900  0.14101800  0.13013600  1
  O  O17  1  0.46750100  0.64101800  0.36986400  1
  O  O18  1  0.96750100  0.85898200  0.63013600  1
  O  O19  1  0.53249900  0.35898200  0.86986400  1
  O  O20  1  0.96750100  0.85898200  0.86986400  1
  O  O21  1  0.53249900  0.35898200  0.63013600  1
  O  O22  1  0.03249900  0.14101800  0.36986400  1
  O  O23  1  0.46750100  0.64101800  0.13013600  1
  O  O24  1  0.56587000  0.15865400  0.06406100  1
  O  O25  1  0.93413000  0.65865400  0.43593900  1
  O  O26  1  0.43413000  0.84134600  0.56406100  1
  O  O27  1  0.06587000  0.34134600  0.93593900  1
  O  O28  1  0.43413000  0.84134600  0.93593900  1
  O  O29  1  0.06587000  0.34134600  0.56406100  1
  O  O30  1  0.56587000  0.15865400  0.43593900  1
  O  O31  1  0.93413000  0.65865400  0.06406100  1
  O  O32  1  0.38369000  0.11272900  0.93087000  1
  O  O33  1  0.11631000  0.61272900  0.56913000  1
  O  O34  1  0.61631000  0.88727100  0.43087000  1
  O  O35  1  0.88369000  0.38727100  0.06913000  1
  O  O36  1  0.61631000  0.88727100  0.06913000  1
  O  O37  1  0.88369000  0.38727100  0.43087000  1
  O  O38  1  0.38369000  0.11272900  0.56913000  1
  O  O39  1  0.11631000  0.61272900  0.93087000  1
  O  O40  1  0.75220300  0.11489400  0.92932400  1
  O  O41  1  0.74779700  0.61489400  0.57067600  1
  O  O42  1  0.24779700  0.88510600  0.42932400  1
  O  O43  1  0.25220300  0.38510600  0.07067600  1
  O  O44  1  0.24779700  0.88510600  0.07067600  1
  O  O45  1  0.25220300  0.38510600  0.42932400  1
  O  O46  1  0.75220300  0.11489400  0.57067600  1
  O  O47  1  0.74779700  0.61489400  0.92932400  1
loop_
_geom_bond_atom_site_label_1
_geom_bond_atom_site_label_2
_geom_bond_distance
_geom_bond_site_symmetry_2
N0 O40 1.250584 1_555
N0 O32 1.252894 1_555
N0 O24 1.254146 1_556
N1 O41 1.250584 1_555
N1 O33 1.252894 1_655
N1 O25 1.254146 1_555
N2 O42 1.250584 1_555
N2 O34 1.252894 1_555
N2 O26 1.254146 1_555
N3 O43 1.250584 1_555
N3 O35 1.252894 1_455
N3 O27 1.254146 1_554
N4 O44 1.250584 1_555
N4 O36 1.252894 1_555
N4 O28 1.254146 1_554
N5 O45 1.250584 1_555
N5 O37 1.252894 1_455
N5 O29 1.254146 1_555
N6 O46 1.250584 1_555
N6 O38 1.252894 1_555
N6 O30 1.254146 1_555
N7 O47 1.250584 1_555
N7 O39 1.252894 1_655
N7 O31 1.254146 1_556
O0 Zn0 1.842609 1_565
O1 Zn1 1.842609 1_555
O2 Zn2 1.842609 1_545
O3 Zn3 1.842609 1_555
O4 Zn0 2.104299 1_555
O5 Zn1 2.104299 1_555
O6 Zn2 2.104299 1_555
O7 Zn3 2.104299 1_555
O8 Zn0 1.942524 1_655
O9 Zn1 1.942524 1_555
O10 Zn2 1.942524 1_455
O11 Zn3 1.942524 1_555
O16 Zn0 2.007724 1_555
O17 Zn1 2.007724 1_555
O18 Zn2 2.007724 1_555
O19 Zn3 2.007724 1_555
O20 Zn2 2.007724 1_555
O21 Zn3 2.007724 1_555
O22 Zn0 2.007724 1_555
O23 Zn1 2.007724 1_555
