# generated using pymatgen
data_Ba2CaTl2(CuO3)4
_symmetry_space_group_name_H-M   'P 1'
_cell_length_a   3.76136181
_cell_length_b   3.76136153
_cell_length_c   22.93495328
_cell_angle_alpha   94.70357897
_cell_angle_beta   94.70357899
_cell_angle_gamma   89.99999688
_symmetry_Int_Tables_number   1
_chemical_formula_structural   Ba2CaTl2(CuO3)4
_chemical_formula_sum   'Ba2 Ca1 Tl2 Cu4 O12'
_cell_volume   322.29085636
_cell_formula_units_Z   1
loop_
 _symmetry_equiv_pos_site_id
 _symmetry_equiv_pos_as_xyz
  1  'x, y, z'
loop_
 _atom_site_type_symbol
 _atom_site_label
 _atom_site_symmetry_multiplicity
 _atom_site_fract_x
 _atom_site_fract_y
 _atom_site_fract_z
 _atom_site_occupancy
  Ba  Ba0  1  0.84530100  0.84530100  0.69060100  1
  Ba  Ba1  1  0.15469900  0.15469900  0.30939900  1
  Ca  Ca0  1  0.00000000  0.00000000  0.00000000  1
  Tl  Tl0  1  0.72305700  0.72305700  0.44611400  1
  Tl  Tl1  1  0.27694300  0.27694300  0.55388600  1
  Cu  Cu0  1  0.39590300  0.39590300  0.79180500  1
  Cu  Cu1  1  0.54197300  0.54197300  0.08394400  1
  Cu  Cu2  1  0.60409700  0.60409700  0.20819500  1
  Cu  Cu3  1  0.45802700  0.45802700  0.91605600  1
  O  O0  1  0.46675100  0.96675100  0.93350200  1
  O  O1  1  0.67718300  0.67718300  0.35436700  1
  O  O2  1  0.53324900  0.03324900  0.06649800  1
  O  O3  1  0.96675100  0.46675100  0.93350200  1
  O  O4  1  0.32281700  0.32281700  0.64563300  1
  O  O5  1  0.11257000  0.61257000  0.22514000  1
  O  O6  1  0.75000000  0.25000000  0.50000000  1
  O  O7  1  0.61257000  0.11257000  0.22514000  1
  O  O8  1  0.88743000  0.38743000  0.77486000  1
  O  O9  1  0.03324900  0.53324900  0.06649800  1
  O  O10  1  0.38743000  0.88743000  0.77486000  1
  O  O11  1  0.25000000  0.75000000  0.50000000  1
loop_
_geom_bond_atom_site_label_1
_geom_bond_atom_site_label_2
_geom_bond_distance
_geom_bond_site_symmetry_2
Ba0 O8 2.687228 1_565
Ba0 O10 2.687228 1_655
Ba0 O8 2.687231 1_555
Ba0 O10 2.687231 1_555
Ba0 O4 2.850136 1_555
Ba0 O4 2.850136 1_655
Ba0 O4 2.850136 1_565
Ba0 O4 2.850136 1_665
Ba1 O5 2.687228 1_545
Ba1 O7 2.687228 1_455
Ba1 O5 2.687231 1_555
Ba1 O7 2.687231 1_555
Ba1 O1 2.850136 1_555
Ba1 O1 2.850136 1_455
Ba1 O1 2.850136 1_545
Ba1 O1 2.850136 1_445
Ca0 O3 2.414890 1_444
Ca0 O9 2.414890 1_555
Ca0 O0 2.414891 1_444
Ca0 O2 2.414891 1_555
Ca0 O3 2.414891 1_454
Ca0 O9 2.414891 1_545
Ca0 O0 2.414891 1_544
Ca0 O2 2.414891 1_455
Cu0 O10 1.919885 1_555
Cu0 O8 1.919885 1_555
Cu0 O10 1.919888 1_545
Cu0 O8 1.919888 1_455
Cu1 O2 1.922210 1_565
Cu1 O9 1.922210 1_655
Cu1 O2 1.922217 1_555
Cu1 O9 1.922218 1_555
Cu2 O7 1.919885 1_555
Cu2 O5 1.919885 1_555
Cu2 O7 1.919888 1_565
Cu2 O5 1.919888 1_655
Cu3 O0 1.922210 1_545
Cu3 O3 1.922210 1_455
Cu3 O0 1.922217 1_555
Cu3 O3 1.922218 1_555
O1 Tl0 2.090016 1_555
O4 Tl1 2.090016 1_555
O6 Tl0 2.245841 1_545
O6 Tl1 2.245841 1_655
O6 Tl0 2.245841 1_555
O6 Tl1 2.245841 1_555
O11 Tl1 2.245841 1_565
O11 Tl0 2.245841 1_455
O11 Tl1 2.245841 1_555
O11 Tl0 2.245841 1_555
