# generated using pymatgen
data_Yb5Sn3
_symmetry_space_group_name_H-M   'P 1'
_cell_length_a   8.76447068
_cell_length_b   8.76447068
_cell_length_c   8.76447068
_cell_angle_alpha   125.68350959
_cell_angle_beta   125.68350959
_cell_angle_gamma   80.40893870
_symmetry_Int_Tables_number   1
_chemical_formula_structural   Yb5Sn3
_chemical_formula_sum   'Yb10 Sn6'
_cell_volume   428.52046130
_cell_formula_units_Z   2
loop_
 _symmetry_equiv_pos_site_id
 _symmetry_equiv_pos_as_xyz
  1  'x, y, z'
loop_
 _atom_site_type_symbol
 _atom_site_label
 _atom_site_symmetry_multiplicity
 _atom_site_fract_x
 _atom_site_fract_y
 _atom_site_fract_z
 _atom_site_occupancy
  Yb  Yb0  1  0.50000000  0.50000000  0.00000000  1
  Yb  Yb1  1  0.00000000  0.00000000  0.00000000  1
  Yb  Yb2  1  0.50450082  0.00450082  0.80941751  1
  Yb  Yb3  1  0.19508330  0.69508330  0.19058249  1
  Yb  Yb4  1  0.00450082  0.19508330  0.50000000  1
  Yb  Yb5  1  0.69508330  0.50450082  0.50000000  1
  Yb  Yb6  1  0.49549918  0.99549918  0.19058249  1
  Yb  Yb7  1  0.80491670  0.30491670  0.80941751  1
  Yb  Yb8  1  0.99549918  0.80491670  0.50000000  1
  Yb  Yb9  1  0.30491670  0.49549918  0.50000000  1
  Sn  Sn0  1  0.25000000  0.25000000  0.00000000  1
  Sn  Sn1  1  0.75000000  0.75000000  0.00000000  1
  Sn  Sn2  1  0.85367644  0.35367644  0.20735189  1
  Sn  Sn3  1  0.14632356  0.64632356  0.79264811  1
  Sn  Sn4  1  0.35367644  0.14632356  0.50000000  1
  Sn  Sn5  1  0.64632356  0.85367644  0.50000000  1
loop_
_geom_bond_atom_site_label_1
_geom_bond_atom_site_label_2
_geom_bond_distance
_geom_bond_site_symmetry_2
Yb0 Yb6 3.634365 1_555
Yb0 Yb2 3.634365 1_554
Yb0 Yb8 3.634365 1_555
Yb0 Yb9 3.634365 1_554
Yb0 Yb5 3.634365 1_555
Yb0 Yb4 3.634365 1_554
Yb0 Yb7 3.634365 1_554
Yb0 Yb3 3.634365 1_555
Yb1 Yb6 3.634365 1_545
Yb1 Yb2 3.634365 1_454
Yb1 Yb9 3.634365 1_555
Yb1 Yb8 3.634365 1_444
Yb1 Yb5 3.634365 1_444
Yb1 Yb4 3.634365 1_555
Yb1 Yb7 3.634365 1_454
Yb1 Yb3 3.634365 1_545
Yb2 Yb6 3.433630 1_546
Yb2 Yb3 3.501132 1_545
Yb2 Yb9 3.642574 1_545
Yb2 Yb8 3.642574 1_445
Yb3 Yb7 3.433630 1_454
Yb3 Yb8 3.642574 1_455
Yb3 Yb9 3.642574 1_555
Yb4 Yb8 3.433630 1_445
Yb4 Yb5 3.501132 1_455
Yb4 Yb7 3.642574 1_455
Yb4 Yb6 3.642574 1_445
Yb5 Yb9 3.433630 1_555
Yb5 Yb7 3.642574 1_555
Yb5 Yb6 3.642574 1_545
Yb6 Yb7 3.501132 1_565
Yb8 Yb9 3.501132 1_655
Sn0 Yb3 3.309020 1_555
Sn0 Yb7 3.309020 1_454
Sn0 Yb4 3.309020 1_554
Sn0 Yb5 3.309020 1_555
Sn0 Yb9 3.309020 1_555
Sn0 Yb8 3.309020 1_444
Sn0 Yb2 3.309020 1_554
Sn0 Yb6 3.309020 1_545
Sn0 Yb1 3.346913 1_555
Sn0 Yb0 3.346913 1_555
Sn1 Yb3 3.309020 1_655
Sn1 Yb7 3.309020 1_554
Sn1 Yb4 3.309020 1_665
Sn1 Yb5 3.309020 1_554
Sn1 Yb8 3.309020 1_555
Sn1 Yb9 3.309020 1_554
Sn1 Yb2 3.309020 1_564
Sn1 Yb6 3.309020 1_555
Sn1 Yb1 3.346913 1_665
Sn1 Yb0 3.346913 1_555
Sn2 Yb7 3.018682 1_554
Sn2 Yb2 3.018691 1_554
Sn2 Yb1 3.062411 1_655
Sn2 Yb0 3.062411 1_555
Sn2 Yb9 3.138409 1_655
Sn2 Yb8 3.138409 1_555
Sn2 Yb5 3.138418 1_555
Sn2 Yb4 3.138418 1_655
Sn2 Sn3 3.311382 1_655
Sn3 Yb3 3.018682 1_556
Sn3 Yb6 3.018691 1_556
Sn3 Yb1 3.062411 1_566
Sn3 Yb0 3.062411 1_556
Sn3 Yb5 3.138409 1_455
Sn3 Yb4 3.138409 1_555
Sn3 Yb9 3.138418 1_555
Sn3 Yb8 3.138418 1_455
Sn4 Yb4 3.018691 1_555
Sn4 Yb9 3.018691 1_555
Sn4 Yb0 3.062413 1_556
Sn4 Yb1 3.062413 1_555
Sn4 Yb2 3.138411 1_555
Sn4 Yb6 3.138411 1_545
Sn4 Yb3 3.138411 1_545
Sn4 Yb7 3.138411 1_555
Sn4 Sn5 3.311371 1_545
Sn5 Yb8 3.018691 1_555
Sn5 Yb5 3.018691 1_555
Sn5 Yb0 3.062413 1_555
Sn5 Yb1 3.062413 1_666
Sn5 Yb2 3.138411 1_565
Sn5 Yb6 3.138411 1_555
Sn5 Yb7 3.138411 1_565
Sn5 Yb3 3.138411 1_555
