# generated using pymatgen
data_Hf3Ni3Sb4
_symmetry_space_group_name_H-M   'P 1'
_cell_length_a   7.82161866
_cell_length_b   7.82161866
_cell_length_c   7.82161866
_cell_angle_alpha   109.47122063
_cell_angle_beta   109.47122063
_cell_angle_gamma   109.47122063
_symmetry_Int_Tables_number   1
_chemical_formula_structural   Hf3Ni3Sb4
_chemical_formula_sum   'Hf6 Ni6 Sb8'
_cell_volume   368.35623418
_cell_formula_units_Z   2
loop_
 _symmetry_equiv_pos_site_id
 _symmetry_equiv_pos_as_xyz
  1  'x, y, z'
loop_
 _atom_site_type_symbol
 _atom_site_label
 _atom_site_symmetry_multiplicity
 _atom_site_fract_x
 _atom_site_fract_y
 _atom_site_fract_z
 _atom_site_occupancy
  Hf  Hf0  1  0.62500000  0.37500000  0.25000000  1
  Hf  Hf1  1  0.87500000  0.12500000  0.75000000  1
  Hf  Hf2  1  0.37500000  0.25000000  0.62500000  1
  Hf  Hf3  1  0.12500000  0.75000000  0.87500000  1
  Hf  Hf4  1  0.25000000  0.62500000  0.37500000  1
  Hf  Hf5  1  0.75000000  0.87500000  0.12500000  1
  Ni  Ni0  1  0.12500000  0.87500000  0.25000000  1
  Ni  Ni1  1  0.37500000  0.62500000  0.75000000  1
  Ni  Ni2  1  0.87500000  0.25000000  0.12500000  1
  Ni  Ni3  1  0.62500000  0.75000000  0.37500000  1
  Ni  Ni4  1  0.25000000  0.12500000  0.87500000  1
  Ni  Ni5  1  0.75000000  0.37500000  0.62500000  1
  Sb  Sb0  1  0.16402792  0.16402792  0.16402792  1
  Sb  Sb1  1  0.33597208  0.50000000  -0.00000000  1
  Sb  Sb2  1  -0.00000000  0.33597208  0.50000000  1
  Sb  Sb3  1  0.66402792  0.66402792  0.66402792  1
  Sb  Sb4  1  0.50000000  0.00000000  0.33597208  1
  Sb  Sb5  1  0.83597208  0.50000000  -0.00000000  1
  Sb  Sb6  1  0.50000000  0.00000000  0.83597208  1
  Sb  Sb7  1  0.00000000  0.83597208  0.50000000  1
loop_
_geom_bond_atom_site_label_1
_geom_bond_atom_site_label_2
_geom_bond_distance
_geom_bond_site_symmetry_2
Hf0 Ni5 2.765360 1_555
Hf0 Ni4 2.765360 1_554
Hf0 Ni2 2.765360 1_555
Hf0 Ni3 2.765360 1_555
Hf0 Sb1 3.113061 1_555
Hf0 Sb2 3.113061 1_655
Hf0 Sb6 3.113061 1_554
Hf0 Sb3 3.113061 1_555
Hf0 Sb7 3.138883 1_655
Hf0 Sb5 3.138883 1_555
Hf0 Sb4 3.138883 1_555
Hf0 Sb0 3.138883 1_555
Hf1 Ni3 2.765360 1_545
Hf1 Ni2 2.765360 1_556
Hf1 Ni5 2.765360 1_555
Hf1 Ni4 2.765360 1_655
Hf1 Sb4 3.113061 1_555
Hf1 Sb7 3.113061 1_645
Hf1 Sb5 3.113061 1_556
Hf1 Sb0 3.113061 1_656
Hf1 Sb1 3.138883 1_656
Hf1 Sb6 3.138883 1_555
Hf1 Sb2 3.138883 1_655
Hf1 Sb3 3.138883 1_545
Hf2 Ni1 2.765360 1_555
Hf2 Ni4 2.765360 1_555
Hf2 Ni5 2.765360 1_555
Hf2 Ni0 2.765360 1_545
Hf2 Sb7 3.113061 1_545
Hf2 Sb4 3.113061 1_555
Hf2 Sb3 3.113061 1_555
Hf2 Sb1 3.113061 1_556
Hf2 Sb2 3.138883 1_555
Hf2 Sb0 3.138883 1_555
Hf2 Sb6 3.138883 1_555
Hf2 Sb5 3.138883 1_556
Hf3 Ni5 2.765360 1_455
Hf3 Ni0 2.765360 1_556
Hf3 Ni1 2.765360 1_555
Hf3 Ni4 2.765360 1_565
Hf3 Sb5 3.113061 1_456
Hf3 Sb6 3.113061 1_565
Hf3 Sb2 3.113061 1_555
Hf3 Sb0 3.113061 1_566
Hf3 Sb4 3.138883 1_566
Hf3 Sb7 3.138883 1_555
Hf3 Sb1 3.138883 1_556
Hf3 Sb3 3.138883 1_455
Hf4 Ni2 2.765360 1_455
Hf4 Ni0 2.765360 1_555
Hf4 Ni1 2.765360 1_555
Hf4 Ni3 2.765360 1_555
Hf4 Sb5 3.113061 1_455
Hf4 Sb3 3.113061 1_555
Hf4 Sb4 3.113061 1_565
Hf4 Sb2 3.113061 1_555
Hf4 Sb7 3.138883 1_555
Hf4 Sb1 3.138883 1_555
Hf4 Sb6 3.138883 1_565
Hf4 Sb0 3.138883 1_555
Hf5 Ni0 2.765360 1_655
Hf5 Ni2 2.765360 1_565
Hf5 Ni1 2.765360 1_554
Hf5 Ni3 2.765360 1_555
Hf5 Sb1 3.113061 1_555
Hf5 Sb6 3.113061 1_564
Hf5 Sb7 3.113061 1_655
Hf5 Sb0 3.113061 1_665
Hf5 Sb2 3.138883 1_665
Hf5 Sb3 3.138883 1_554
Hf5 Sb4 3.138883 1_565
Hf5 Sb5 3.138883 1_555
Ni0 Sb4 2.519166 1_565
Ni0 Sb7 2.519166 1_555
Ni0 Sb5 2.519166 1_455
Ni0 Sb0 2.519166 1_565
Ni1 Sb2 2.519166 1_555
Ni1 Sb3 2.519166 1_555
Ni1 Sb6 2.519166 1_565
Ni1 Sb1 2.519166 1_556
Ni2 Sb6 2.519166 1_554
Ni2 Sb5 2.519166 1_555
Ni2 Sb2 2.519166 1_655
Ni2 Sb0 2.519166 1_655
Ni3 Sb7 2.519166 1_655
Ni3 Sb3 2.519166 1_555
Ni3 Sb1 2.519166 1_555
Ni3 Sb4 2.519166 1_565
Ni4 Sb6 2.519166 1_555
Ni4 Sb7 2.519166 1_545
Ni4 Sb1 2.519166 1_556
Ni4 Sb0 2.519166 1_556
Ni5 Sb3 2.519166 1_555
Ni5 Sb4 2.519166 1_555
Ni5 Sb5 2.519166 1_556
Ni5 Sb2 2.519166 1_655
