# generated using pymatgen
data_Dy3Ga2
_symmetry_space_group_name_H-M   'P 1'
_cell_length_a   11.03622410
_cell_length_b   11.03622410
_cell_length_c   11.03622410
_cell_angle_alpha   95.80521925
_cell_angle_beta   116.70689719
_cell_angle_gamma   116.70689719
_symmetry_Int_Tables_number   1
_chemical_formula_structural   Dy3Ga2
_chemical_formula_sum   'Dy24 Ga16'
_cell_volume   992.28438821
_cell_formula_units_Z   8
loop_
 _symmetry_equiv_pos_site_id
 _symmetry_equiv_pos_as_xyz
  1  'x, y, z'
loop_
 _atom_site_type_symbol
 _atom_site_label
 _atom_site_symmetry_multiplicity
 _atom_site_fract_x
 _atom_site_fract_y
 _atom_site_fract_z
 _atom_site_occupancy
  Dy  Dy0  1  0.50000000  0.85319761  0.35319761  1
  Dy  Dy1  1  0.50000000  0.35319761  0.85319761  1
  Dy  Dy2  1  0.50000000  0.14680239  0.64680239  1
  Dy  Dy3  1  0.50000000  0.64680239  0.14680239  1
  Dy  Dy4  1  0.16400923  0.33200462  0.83200462  1
  Dy  Dy5  1  0.83599077  0.66799538  0.16799538  1
  Dy  Dy6  1  0.50000000  0.16799538  0.33200462  1
  Dy  Dy7  1  0.50000000  0.83200462  0.66799538  1
  Dy  Dy8  1  0.73009017  0.56825853  0.43358287  1
  Dy  Dy9  1  0.26990983  0.70349270  0.83816735  1
  Dy  Dy10  1  0.86532534  0.20349270  0.93358287  1
  Dy  Dy11  1  0.13467466  0.06825853  0.33816735  1
  Dy  Dy12  1  0.86532534  0.43358287  0.70349270  1
  Dy  Dy13  1  0.13467466  0.83816735  0.56825853  1
  Dy  Dy14  1  0.73009017  0.93358287  0.06825853  1
  Dy  Dy15  1  0.26990983  0.33816735  0.20349270  1
  Dy  Dy16  1  0.26990983  0.43174147  0.56641713  1
  Dy  Dy17  1  0.73009017  0.29650730  0.16183265  1
  Dy  Dy18  1  0.13467466  0.79650730  0.06641713  1
  Dy  Dy19  1  0.86532534  0.93174147  0.66183265  1
  Dy  Dy20  1  0.13467466  0.56641713  0.29650730  1
  Dy  Dy21  1  0.86532534  0.16183265  0.43174147  1
  Dy  Dy22  1  0.26990983  0.06641713  0.93174147  1
  Dy  Dy23  1  0.73009017  0.66183265  0.79650730  1
  Ga  Ga0  1  0.00000000  0.75000000  0.75000000  1
  Ga  Ga1  1  0.00000000  0.25000000  0.25000000  1
  Ga  Ga2  1  0.00000000  0.50000000  0.50000000  1
  Ga  Ga3  1  0.00000000  0.00000000  -0.00000000  1
  Ga  Ga4  1  0.26526659  0.88263379  0.38263379  1
  Ga  Ga5  1  0.73473341  0.11736621  0.61736621  1
  Ga  Ga6  1  0.50000000  0.61736621  0.88263379  1
  Ga  Ga7  1  0.50000000  0.38263379  0.11736621  1
  Ga  Ga8  1  0.14371151  0.12084189  0.62084189  1
  Ga  Ga9  1  0.85628849  0.47713237  0.97713237  1
  Ga  Ga10  1  0.50000000  0.97713237  0.12084189  1
  Ga  Ga11  1  0.50000000  0.62084189  0.47713237  1
  Ga  Ga12  1  0.85628849  0.87915811  0.37915811  1
  Ga  Ga13  1  0.14371151  0.52286763  0.02286763  1
  Ga  Ga14  1  0.50000000  0.02286763  0.87915811  1
  Ga  Ga15  1  0.50000000  0.37915811  0.52286763  1
loop_
_geom_bond_atom_site_label_1
_geom_bond_atom_site_label_2
_geom_bond_distance
_geom_bond_site_symmetry_2
Dy0 Ga5 2.900627 1_565
Dy0 Ga4 2.900638 1_555
Dy0 Ga10 3.025907 1_555
Dy0 Ga11 3.025907 1_555
Dy0 Ga12 3.685592 1_555
Dy0 Ga13 3.685610 1_555
Dy1 Ga7 2.900627 1_556
Dy1 Ga6 2.900627 1_555
Dy1 Ga9 3.025888 1_555
Dy1 Ga8 3.025896 1_555
Dy1 Ga15 3.685613 1_555
Dy1 Ga14 3.685613 1_555
Dy2 Ga4 2.900627 1_545
Dy2 Ga5 2.900638 1_555
Dy2 Ga15 3.025907 1_555
Dy2 Ga14 3.025907 1_555
Dy2 Ga8 3.685592 1_555
Dy2 Ga9 3.685610 1_555
Dy3 Ga7 2.900627 1_555
Dy3 Ga6 2.900627 1_554
Dy3 Ga13 3.025888 1_555
Dy3 Ga12 3.025896 1_555
Dy3 Ga11 3.685613 1_555
Dy3 Ga10 3.685613 1_555
Dy4 Ga13 2.979056 1_556
Dy4 Ga8 2.979085 1_555
Dy4 Ga7 3.356361 1_556
Dy4 Ga6 3.356361 1_555
Dy4 Ga5 3.515318 1_455
Dy5 Ga9 2.979056 1_554
Dy5 Ga12 2.979085 1_555
Dy5 Ga7 3.356361 1_555
Dy5 Ga6 3.356361 1_554
Dy5 Ga4 3.515318 1_655
Dy6 Ga10 2.979071 1_545
Dy6 Ga15 2.979071 1_555
Dy6 Ga5 3.356366 1_555
Dy6 Ga4 3.356366 1_545
Dy6 Ga7 3.515326 1_555
Dy7 Ga14 2.979071 1_565
Dy7 Ga11 2.979071 1_555
Dy7 Ga5 3.356366 1_565
Dy7 Ga4 3.356366 1_555
Dy7 Ga6 3.515326 1_555
Dy8 Ga7 2.955718 1_555
Dy8 Ga0 2.992222 1_655
Dy8 Ga11 3.062860 1_555
Dy8 Ga15 3.110652 1_555
Dy8 Ga2 3.184971 1_655
Dy8 Ga12 3.308598 1_555
Dy9 Ga6 2.955716 1_555
Dy9 Ga0 2.992223 1_555
Dy9 Ga10 3.062866 1_556
Dy9 Ga14 3.110648 1_565
Dy9 Ga2 3.184964 1_555
Dy9 Ga13 3.308599 1_556
Dy10 Ga5 2.955718 1_555
Dy10 Ga1 2.992223 1_656
Dy10 Ga9 3.062878 1_555
Dy10 Ga13 3.110655 1_656
Dy10 Ga3 3.184964 1_656
Dy10 Ga14 3.308608 1_555
Dy11 Ga4 2.955718 1_545
Dy11 Ga1 2.992213 1_555
Dy11 Ga8 3.062854 1_555
Dy11 Ga12 3.110667 1_445
Dy11 Ga3 3.184963 1_555
Dy11 Ga15 3.308603 1_555
Dy12 Ga5 2.955718 1_555
Dy12 Ga0 2.992223 1_655
Dy12 Ga9 3.062878 1_555
Dy12 Ga13 3.110655 1_656
Dy12 Ga2 3.184964 1_655
Dy12 Ga15 3.308608 1_555
Dy13 Ga4 2.955718 1_555
Dy13 Ga0 2.992213 1_555
Dy13 Ga8 3.062854 1_565
Dy13 Ga12 3.110667 1_455
Dy13 Ga2 3.184963 1_555
Dy13 Ga14 3.308603 1_565
Dy14 Ga6 2.955718 1_554
Dy14 Ga1 2.992222 1_665
Dy14 Ga10 3.062860 1_555
Dy14 Ga14 3.110652 1_564
Dy14 Ga3 3.184971 1_665
Dy14 Ga12 3.308598 1_555
Dy15 Ga7 2.955716 1_555
Dy15 Ga1 2.992223 1_555
Dy15 Ga11 3.062866 1_555
Dy15 Ga15 3.110648 1_555
Dy15 Ga3 3.184964 1_555
Dy15 Ga13 3.308599 1_555
Dy16 Ga6 2.955718 1_555
Dy16 Ga1 2.992222 1_555
Dy16 Ga15 3.062860 1_555
Dy16 Ga11 3.110652 1_555
Dy16 Ga2 3.184971 1_555
Dy16 Ga8 3.308598 1_555
Dy17 Ga7 2.955716 1_555
Dy17 Ga1 2.992223 1_655
Dy17 Ga14 3.062866 1_554
Dy17 Ga10 3.110648 1_545
Dy17 Ga2 3.184964 1_655
Dy17 Ga9 3.308599 1_554
Dy18 Ga4 2.955718 1_555
Dy18 Ga0 2.992223 1_554
Dy18 Ga13 3.062878 1_555
Dy18 Ga9 3.110655 1_454
Dy18 Ga3 3.184964 1_565
Dy18 Ga10 3.308608 1_555
Dy19 Ga5 2.955718 1_565
Dy19 Ga0 2.992213 1_655
Dy19 Ga12 3.062854 1_555
Dy19 Ga8 3.110667 1_665
Dy19 Ga3 3.184963 1_666
Dy19 Ga11 3.308603 1_555
Dy20 Ga4 2.955718 1_555
Dy20 Ga1 2.992223 1_555
Dy20 Ga13 3.062878 1_555
Dy20 Ga9 3.110655 1_454
Dy20 Ga2 3.184964 1_555
Dy20 Ga11 3.308608 1_555
Dy21 Ga5 2.955718 1_555
Dy21 Ga1 2.992213 1_655
Dy21 Ga12 3.062854 1_545
Dy21 Ga8 3.110667 1_655
Dy21 Ga2 3.184963 1_655
Dy21 Ga10 3.308603 1_545
Dy22 Ga7 2.955718 1_556
Dy22 Ga0 2.992222 1_545
Dy22 Ga14 3.062860 1_555
Dy22 Ga10 3.110652 1_546
Dy22 Ga3 3.184971 1_556
Dy22 Ga8 3.308598 1_555
Dy23 Ga6 2.955716 1_555
Dy23 Ga0 2.992223 1_655
Dy23 Ga15 3.062866 1_555
Dy23 Ga11 3.110648 1_555
Dy23 Ga3 3.184964 1_666
Dy23 Ga9 3.308599 1_555
Ga10 Ga14 2.764322 1_564
Ga11 Ga15 2.764322 1_555
Ga12 Ga8 2.764334 1_665
Ga13 Ga9 2.764365 1_454
