# generated using pymatgen
data_Nd(BRu)4
_symmetry_space_group_name_H-M   'P 1'
_cell_length_a   9.22822365
_cell_length_b   9.22822365
_cell_length_c   9.22822365
_cell_angle_alpha   131.92642981
_cell_angle_beta   131.92642981
_cell_angle_gamma   70.34524785
_symmetry_Int_Tables_number   1
_chemical_formula_structural   Nd(BRu)4
_chemical_formula_sum   'Nd4 B16 Ru16'
_cell_volume   426.32198682
_cell_formula_units_Z   4
loop_
 _symmetry_equiv_pos_site_id
 _symmetry_equiv_pos_as_xyz
  1  'x, y, z'
loop_
 _atom_site_type_symbol
 _atom_site_label
 _atom_site_symmetry_multiplicity
 _atom_site_fract_x
 _atom_site_fract_y
 _atom_site_fract_z
 _atom_site_occupancy
  Nd  Nd0  1  0.25000000  0.25000000  0.00000000  1
  Nd  Nd1  1  0.75000000  0.75000000  0.00000000  1
  Nd  Nd2  1  0.50000000  0.00000000  0.50000000  1
  Nd  Nd3  1  0.00000000  0.50000000  0.50000000  1
  B  B0  1  0.22502246  0.91503657  0.97705402  1
  B  B1  1  0.72502246  0.74796844  0.30998589  1
  B  B2  1  0.16503657  0.97502246  0.47705402  1
  B  B3  1  0.66503657  0.18798255  0.19001411  1
  B  B4  1  0.52497754  0.33496343  0.52294598  1
  B  B5  1  0.02497754  0.50203156  0.19001411  1
  B  B6  1  0.58496343  0.27497754  0.02294598  1
  B  B7  1  0.08496343  0.06201745  0.30998589  1
  B  B8  1  0.43798255  0.41503657  0.69001411  1
  B  B9  1  0.93798255  0.24796844  0.02294598  1
  B  B10  1  0.99796844  0.47502246  0.80998589  1
  B  B11  1  0.49796844  0.68798255  0.52294598  1
  B  B12  1  0.31201745  0.83496343  0.80998589  1
  B  B13  1  0.81201745  0.00203156  0.47705402  1
  B  B14  1  0.75203156  0.77497754  0.69001411  1
  B  B15  1  0.25203156  0.56201745  0.97705402  1
  Ru  Ru0  1  0.54324238  0.07306730  0.23930745  1
  Ru  Ru1  1  0.04324238  0.80393592  0.47017608  1
  Ru  Ru2  1  0.32306730  0.29324238  0.73930745  1
  Ru  Ru3  1  0.82306730  0.08375985  0.02982392  1
  Ru  Ru4  1  0.20675762  0.17693270  0.26069255  1
  Ru  Ru5  1  0.70675762  0.44606408  0.02982392  1
  Ru  Ru6  1  0.42693270  0.95675762  0.76069255  1
  Ru  Ru7  1  0.92693270  0.16624015  0.47017608  1
  Ru  Ru8  1  0.33375985  0.57306730  0.52982392  1
  Ru  Ru9  1  0.83375985  0.30393592  0.76069255  1
  Ru  Ru10  1  0.05393592  0.79324238  0.97017608  1
  Ru  Ru11  1  0.55393592  0.58375985  0.26069255  1
  Ru  Ru12  1  0.41624015  0.67693270  0.97017608  1
  Ru  Ru13  1  0.91624015  0.94606408  0.73930745  1
  Ru  Ru14  1  0.69606408  0.45675762  0.52982392  1
  Ru  Ru15  1  0.19606408  0.66624015  0.23930745  1
loop_
_geom_bond_atom_site_label_1
_geom_bond_atom_site_label_2
_geom_bond_distance
_geom_bond_site_symmetry_2
Nd0 Ru0 2.953983 1_555
Nd0 Ru6 2.953983 1_544
Nd0 Ru9 2.953985 1_454
Nd0 Ru15 2.953985 1_555
Nd0 Ru2 3.167505 1_554
Nd0 Ru4 3.167505 1_555
Nd0 Ru11 3.167512 1_555
Nd0 Ru13 3.167512 1_444
Nd0 Ru7 3.226696 1_454
Nd0 Ru8 3.226696 1_555
Nd0 Ru1 3.226696 1_544
Nd0 Ru14 3.226696 1_555
Nd1 Ru7 2.953985 1_565
Nd1 Ru8 2.953985 1_554
Nd1 Ru1 2.953985 1_655
Nd1 Ru14 2.953985 1_554
Nd1 Ru5 3.167507 1_555
Nd1 Ru10 3.167507 1_654
Nd1 Ru3 3.167512 1_565
Nd1 Ru12 3.167512 1_554
Nd1 Ru9 3.226696 1_554
Nd1 Ru15 3.226696 1_655
Nd1 Ru0 3.226703 1_565
Nd1 Ru6 3.226703 1_554
Nd2 Ru4 2.953983 1_555
Nd2 Ru2 2.953983 1_555
Nd2 Ru13 2.953985 1_545
Nd2 Ru11 2.953985 1_545
Nd2 Ru0 3.167505 1_555
Nd2 Ru6 3.167505 1_545
Nd2 Ru15 3.167512 1_545
Nd2 Ru9 3.167512 1_555
Nd2 Ru3 3.226696 1_556
Nd2 Ru12 3.226696 1_544
Nd2 Ru10 3.226696 1_544
Nd2 Ru5 3.226696 1_556
Nd3 Ru12 2.953985 1_555
Nd3 Ru3 2.953985 1_455
Nd3 Ru5 2.953985 1_455
Nd3 Ru10 2.953985 1_555
Nd3 Ru14 3.167507 1_455
Nd3 Ru1 3.167507 1_555
Nd3 Ru8 3.167512 1_555
Nd3 Ru7 3.167512 1_455
Nd3 Ru13 3.226696 1_455
Nd3 Ru11 3.226696 1_455
Nd3 Ru2 3.226703 1_555
Nd3 Ru4 3.226703 1_555
B0 B12 1.816600 1_555
B0 Ru4 2.140668 1_566
B0 Ru10 2.173577 1_555
B0 Ru13 2.225157 1_455
B0 Ru0 2.296616 1_566
B0 Ru12 2.302364 1_555
B0 Nd3 2.993861 1_555
B0 Nd0 3.031888 1_566
B0 Nd2 3.203128 1_566
B1 B13 1.816600 1_565
B1 Ru5 2.140675 1_555
B1 Ru11 2.173570 1_555
B1 Ru12 2.225157 1_554
B1 Ru1 2.296614 1_655
B1 Ru13 2.302364 1_555
B1 Nd2 2.993861 1_565
B1 Nd1 3.031888 1_555
B1 Nd3 3.203128 1_655
B2 B7 1.816600 1_565
B2 Ru6 2.140668 1_555
B2 Ru1 2.173577 1_555
B2 Ru15 2.225157 1_555
B2 Ru2 2.296616 1_565
B2 Ru7 2.302364 1_465
B2 Nd1 2.993861 1_455
B2 Nd2 3.031888 1_565
B2 Nd0 3.203128 1_566
B3 B6 1.816600 1_555
B3 Ru7 2.140673 1_555
B3 Ru0 2.173578 1_555
B3 Ru14 2.225159 1_555
B3 Ru3 2.296623 1_555
B3 Ru6 2.302363 1_544
B3 Nd0 2.993861 1_555
B3 Nd3 3.031888 1_655
B3 Nd1 3.203128 1_545
B4 B8 1.816600 1_555
B4 Ru0 2.140668 1_555
B4 Ru14 2.173577 1_555
B4 Ru9 2.225157 1_555
B4 Ru4 2.296616 1_555
B4 Ru8 2.302364 1_555
B4 Nd1 2.993861 1_556
B4 Nd2 3.031888 1_555
B4 Nd0 3.203128 1_555
B5 B9 1.816600 1_455
B5 Ru1 2.140675 1_555
B5 Ru15 2.173570 1_555
B5 Ru8 2.225157 1_555
B5 Ru5 2.296614 1_455
B5 Ru9 2.302364 1_454
B5 Nd0 2.993861 1_555
B5 Nd3 3.031888 1_555
B5 Nd1 3.203128 1_455
B6 Ru2 2.140668 1_554
B6 Ru5 2.173577 1_555
B6 Ru11 2.225157 1_555
B6 Ru6 2.296616 1_544
B6 Ru3 2.302364 1_555
B6 Nd3 2.993861 1_655
B6 Nd0 3.031888 1_555
B6 Nd2 3.203128 1_554
B7 Ru3 2.140673 1_455
B7 Ru4 2.173578 1_555
B7 Ru10 2.225159 1_544
B7 Ru7 2.296623 1_455
B7 Ru2 2.302363 1_555
B7 Nd2 2.993861 1_555
B7 Nd1 3.031888 1_445
B7 Nd3 3.203128 1_555
B8 Ru12 2.140673 1_555
B8 Ru2 2.173578 1_555
B8 Ru5 2.225159 1_556
B8 Ru8 2.296623 1_555
B8 Ru4 2.302363 1_555
B8 Nd2 2.993861 1_555
B8 Nd1 3.031888 1_556
B8 Nd3 3.203128 1_555
B9 Ru13 2.140673 1_544
B9 Ru3 2.173570 1_555
B9 Ru4 2.225160 1_655
B9 Ru9 2.296623 1_554
B9 Ru5 2.302358 1_555
B9 Nd3 2.993861 1_655
B9 Nd0 3.031888 1_655
B9 Nd2 3.203128 1_554
B10 B15 1.816600 1_655
B10 Ru14 2.140675 1_555
B10 Ru9 2.173570 1_555
B10 Ru7 2.225157 1_555
B10 Ru10 2.296614 1_655
B10 Ru15 2.302364 1_656
B10 Nd0 2.993861 1_656
B10 Nd3 3.031888 1_655
B10 Nd1 3.203128 1_556
B11 B14 1.816600 1_555
B11 Ru15 2.140673 1_555
B11 Ru8 2.173570 1_555
B11 Ru6 2.225160 1_555
B11 Ru11 2.296623 1_555
B11 Ru14 2.302358 1_555
B11 Nd1 2.993861 1_556
B11 Nd2 3.031888 1_565
B11 Nd0 3.203128 1_555
B12 Ru8 2.140673 1_555
B12 Ru6 2.173578 1_555
B12 Ru1 2.225159 1_555
B12 Ru12 2.296623 1_555
B12 Ru0 2.302363 1_566
B12 Nd0 2.993861 1_566
B12 Nd3 3.031888 1_555
B12 Nd1 3.203128 1_556
B13 Ru9 2.140673 1_555
B13 Ru7 2.173570 1_555
B13 Ru0 2.225160 1_555
B13 Ru13 2.296623 1_545
B13 Ru1 2.302358 1_645
B13 Nd1 2.993861 1_545
B13 Nd2 3.031888 1_555
B13 Nd0 3.203128 1_656
B14 Ru10 2.140675 1_655
B14 Ru13 2.173570 1_555
B14 Ru3 2.225157 1_566
B14 Ru14 2.296614 1_555
B14 Ru11 2.302364 1_555
B14 Nd2 2.993861 1_565
B14 Nd1 3.031888 1_556
B14 Nd3 3.203128 1_655
B15 Ru11 2.140673 1_556
B15 Ru12 2.173570 1_555
B15 Ru2 2.225160 1_555
B15 Ru15 2.296623 1_556
B15 Ru10 2.302358 1_555
B15 Nd3 2.993861 1_555
B15 Nd0 3.031888 1_556
B15 Nd2 3.203128 1_566
