# generated using pymatgen
data_SmNi5
_symmetry_space_group_name_H-M   'P 1'
_cell_length_a   4.88380979
_cell_length_b   4.88388880
_cell_length_c   3.91940452
_cell_angle_alpha   90.00000000
_cell_angle_beta   90.00000000
_cell_angle_gamma   119.99948886
_symmetry_Int_Tables_number   1
_chemical_formula_structural   SmNi5
_chemical_formula_sum   'Sm1 Ni5'
_cell_volume   80.96129866
_cell_formula_units_Z   1
loop_
 _symmetry_equiv_pos_site_id
 _symmetry_equiv_pos_as_xyz
  1  'x, y, z'
loop_
 _atom_site_type_symbol
 _atom_site_label
 _atom_site_symmetry_multiplicity
 _atom_site_fract_x
 _atom_site_fract_y
 _atom_site_fract_z
 _atom_site_occupancy
  Sm  Sm0  1  -0.00000000  -0.00000000  -0.00000000  1
  Ni  Ni0  1  0.33334560  0.66669120  0.00000000  1
  Ni  Ni1  1  0.66665440  0.33330880  0.00000000  1
  Ni  Ni2  1  0.50000000  -0.00000000  0.50000000  1
  Ni  Ni3  1  0.50000000  0.50000000  0.50000000  1
  Ni  Ni4  1  -0.00000000  0.50000000  0.50000000  1
loop_
_geom_bond_atom_site_label_1
_geom_bond_atom_site_label_2
_geom_bond_distance
_geom_bond_site_symmetry_2
Ni0 Ni2 2.414096 1_564
Ni0 Ni2 2.414096 1_565
Ni0 Ni4 2.414173 1_555
Ni0 Ni4 2.414173 1_554
Ni0 Ni3 2.414174 1_554
Ni0 Ni3 2.414174 1_555
Ni0 Ni1 2.819522 1_565
Ni0 Sm0 2.819632 1_665
Ni0 Sm0 2.819633 1_565
Ni0 Ni1 2.819787 1_455
Ni0 Ni1 2.819788 1_555
Ni0 Sm0 2.819833 1_555
Ni1 Ni2 2.414096 1_555
Ni1 Ni2 2.414096 1_554
Ni1 Ni4 2.414173 1_654
Ni1 Ni4 2.414173 1_655
Ni1 Ni3 2.414174 1_554
Ni1 Ni3 2.414174 1_555
Ni1 Sm0 2.819632 1_555
Ni1 Sm0 2.819633 1_655
Ni1 Sm0 2.819833 1_665
Ni2 Ni4 2.441944 1_655
Ni2 Ni4 2.441944 1_545
Ni2 Ni3 2.441944 1_555
Ni2 Ni3 2.441944 1_545
Ni2 Sm0 3.131027 1_556
Ni2 Sm0 3.131027 1_555
Ni2 Sm0 3.131027 1_656
Ni2 Sm0 3.131027 1_655
Ni3 Ni4 2.441905 1_555
Ni3 Ni4 2.441905 1_655
Ni3 Sm0 3.131058 1_556
Ni3 Sm0 3.131058 1_555
Ni3 Sm0 3.131058 1_665
Ni3 Sm0 3.131058 1_666
Ni4 Sm0 3.131058 1_566
Ni4 Sm0 3.131058 1_556
Ni4 Sm0 3.131058 1_555
Ni4 Sm0 3.131058 1_565
