# generated using pymatgen
data_SmAgAs2
_symmetry_space_group_name_H-M   'P 1'
_cell_length_a   3.99809430
_cell_length_b   3.99811433
_cell_length_c   10.60961877
_cell_angle_alpha   90.00000000
_cell_angle_beta   90.00000000
_cell_angle_gamma   90.00000000
_symmetry_Int_Tables_number   1
_chemical_formula_structural   SmAgAs2
_chemical_formula_sum   'Sm2 Ag2 As4'
_cell_volume   169.59303848
_cell_formula_units_Z   2
loop_
 _symmetry_equiv_pos_site_id
 _symmetry_equiv_pos_as_xyz
  1  'x, y, z'
loop_
 _atom_site_type_symbol
 _atom_site_label
 _atom_site_symmetry_multiplicity
 _atom_site_fract_x
 _atom_site_fract_y
 _atom_site_fract_z
 _atom_site_occupancy
  Sm  Sm0  1  0.25000000  0.25000000  0.22634017  1
  Sm  Sm1  1  0.75000000  0.75000000  0.77365983  1
  Ag  Ag0  1  0.25000000  0.75000000  0.50000396  1
  Ag  Ag1  1  0.75000000  0.25000000  0.49999604  1
  As  As0  1  0.25000000  0.25000000  0.67922381  1
  As  As1  1  0.75000000  0.75000000  0.32077619  1
  As  As2  1  0.25000000  0.75000000  0.00005897  1
  As  As3  1  0.75000000  0.25000000  -0.00005897  1
loop_
_geom_bond_atom_site_label_1
_geom_bond_atom_site_label_2
_geom_bond_distance
_geom_bond_site_symmetry_2
Ag0 As0 2.758941 1_565
Ag0 As0 2.758941 1_555
Ag0 As1 2.758992 1_455
Ag0 As1 2.758992 1_555
Ag0 Ag1 2.827087 1_555
Ag0 Ag1 2.827087 1_465
Ag0 Ag1 2.827087 1_565
Ag0 Ag1 2.827087 1_455
Ag0 Sm1 3.525029 1_555
Ag0 Sm1 3.525029 1_455
Ag0 Sm0 3.525104 1_565
Ag0 Sm0 3.525104 1_555
Ag1 As1 2.758941 1_545
Ag1 As1 2.758941 1_555
Ag1 As0 2.758992 1_655
Ag1 As0 2.758992 1_555
Ag1 Sm0 3.525029 1_555
Ag1 Sm0 3.525029 1_655
Ag1 Sm1 3.525104 1_555
Ag1 Sm1 3.525104 1_545
As0 Sm1 2.999380 1_445
As0 Sm1 2.999380 1_555
As0 Sm1 2.999380 1_545
As0 Sm1 2.999380 1_455
As1 Sm0 2.999380 1_565
As1 Sm0 2.999380 1_555
As1 Sm0 2.999380 1_665
As1 Sm0 2.999380 1_655
As2 As3 2.827087 1_565
As2 As3 2.827087 1_455
As2 As3 2.827087 1_465
As2 As3 2.827087 1_555
As2 Sm0 3.124078 1_555
As2 Sm0 3.124078 1_565
As2 Sm1 3.125034 1_554
As2 Sm1 3.125034 1_454
As3 Sm1 3.124078 1_554
As3 Sm1 3.124078 1_544
As3 Sm0 3.125034 1_655
As3 Sm0 3.125034 1_555
