# generated using pymatgen
data_Mg30CoBO32
_symmetry_space_group_name_H-M   'P 1'
_cell_length_a   8.45762300
_cell_length_b   8.45762300
_cell_length_c   8.53437800
_cell_angle_alpha   90.00000000
_cell_angle_beta   90.00000000
_cell_angle_gamma   90.00000000
_symmetry_Int_Tables_number   1
_chemical_formula_structural   Mg30CoBO32
_chemical_formula_sum   'Mg30 Co1 B1 O32'
_cell_volume   610.47589390
_cell_formula_units_Z   1
loop_
 _symmetry_equiv_pos_site_id
 _symmetry_equiv_pos_as_xyz
  1  'x, y, z'
loop_
 _atom_site_type_symbol
 _atom_site_label
 _atom_site_symmetry_multiplicity
 _atom_site_fract_x
 _atom_site_fract_y
 _atom_site_fract_z
 _atom_site_occupancy
  Mg  Mg0  1  0.00000000  0.50000000  0.00000000  1
  Mg  Mg1  1  0.50000000  0.00000000  0.00000000  1
  Mg  Mg2  1  0.00000000  0.00000000  0.50000000  1
  Mg  Mg3  1  0.00000000  0.50000000  0.50000000  1
  Mg  Mg4  1  0.50000000  0.00000000  0.50000000  1
  Mg  Mg5  1  0.50000000  0.50000000  0.50000000  1
  Mg  Mg6  1  0.24945400  0.24945400  0.00000000  1
  Mg  Mg7  1  0.24945400  0.75054600  0.00000000  1
  Mg  Mg8  1  0.75054600  0.24945400  0.00000000  1
  Mg  Mg9  1  0.75054600  0.75054600  0.00000000  1
  Mg  Mg10  1  0.24909200  0.24909200  0.50000000  1
  Mg  Mg11  1  0.24909200  0.75090800  0.50000000  1
  Mg  Mg12  1  0.75090800  0.24909200  0.50000000  1
  Mg  Mg13  1  0.75090800  0.75090800  0.50000000  1
  Mg  Mg14  1  0.00000000  0.24732500  0.24731900  1
  Mg  Mg15  1  0.00000000  0.75267500  0.24731900  1
  Mg  Mg16  1  0.50000000  0.25426600  0.25010400  1
  Mg  Mg17  1  0.50000000  0.74573400  0.25010400  1
  Mg  Mg18  1  0.00000000  0.24732500  0.75268100  1
  Mg  Mg19  1  0.00000000  0.75267500  0.75268100  1
  Mg  Mg20  1  0.50000000  0.25426600  0.74989600  1
  Mg  Mg21  1  0.50000000  0.74573400  0.74989600  1
  Mg  Mg22  1  0.24732500  0.00000000  0.24731900  1
  Mg  Mg23  1  0.25426600  0.50000000  0.25010400  1
  Mg  Mg24  1  0.75267500  0.00000000  0.24731900  1
  Mg  Mg25  1  0.74573400  0.50000000  0.25010400  1
  Mg  Mg26  1  0.24732500  0.00000000  0.75268100  1
  Mg  Mg27  1  0.25426600  0.50000000  0.74989600  1
  Mg  Mg28  1  0.75267500  0.00000000  0.75268100  1
  Mg  Mg29  1  0.74573400  0.50000000  0.74989600  1
  Co  Co0  1  0.00000000  0.00000000  0.00000000  1
  B  B0  1  0.50000000  0.50000000  0.00000000  1
  O  O0  1  0.00000000  0.00000000  0.26024800  1
  O  O1  1  0.00000000  0.50000000  0.24471800  1
  O  O2  1  0.50000000  0.00000000  0.24471800  1
  O  O3  1  0.50000000  0.50000000  0.25271200  1
  O  O4  1  0.00000000  0.00000000  0.73975200  1
  O  O5  1  0.00000000  0.50000000  0.75528200  1
  O  O6  1  0.50000000  0.00000000  0.75528200  1
  O  O7  1  0.50000000  0.50000000  0.74728800  1
  O  O8  1  0.25056700  0.25056700  0.24821300  1
  O  O9  1  0.25056700  0.74943300  0.24821300  1
  O  O10  1  0.74943300  0.25056700  0.24821300  1
  O  O11  1  0.74943300  0.74943300  0.24821300  1
  O  O12  1  0.25056700  0.25056700  0.75178700  1
  O  O13  1  0.25056700  0.74943300  0.75178700  1
  O  O14  1  0.74943300  0.25056700  0.75178700  1
  O  O15  1  0.74943300  0.74943300  0.75178700  1
  O  O16  1  0.00000000  0.26663500  0.00000000  1
  O  O17  1  0.00000000  0.73336500  0.00000000  1
  O  O18  1  0.50000000  0.29380000  0.00000000  1
  O  O19  1  0.50000000  0.70620000  0.00000000  1
  O  O20  1  0.00000000  0.25243800  0.50000000  1
  O  O21  1  0.00000000  0.74756200  0.50000000  1
  O  O22  1  0.50000000  0.24989600  0.50000000  1
  O  O23  1  0.50000000  0.75010400  0.50000000  1
  O  O24  1  0.26663500  0.00000000  0.00000000  1
  O  O25  1  0.29380000  0.50000000  0.00000000  1
  O  O26  1  0.73336500  0.00000000  0.00000000  1
  O  O27  1  0.70620000  0.50000000  0.00000000  1
  O  O28  1  0.25243800  0.00000000  0.50000000  1
  O  O29  1  0.24989600  0.50000000  0.50000000  1
  O  O30  1  0.74756200  0.00000000  0.50000000  1
  O  O31  1  0.75010400  0.50000000  0.50000000  1
loop_
_geom_bond_atom_site_label_1
_geom_bond_atom_site_label_2
_geom_bond_distance
_geom_bond_site_symmetry_2
Mg0 O17 1.973713 1_555
Mg0 O16 1.973713 1_555
Mg0 O1 2.088516 1_555
Mg0 O5 2.088516 1_554
Mg0 O27 2.484850 1_455
Mg0 O25 2.484850 1_555
Mg1 O26 1.973713 1_555
Mg1 O24 1.973713 1_555
Mg1 O2 2.088516 1_555
Mg1 O6 2.088516 1_554
Mg1 O19 2.484850 1_545
Mg1 O18 2.484850 1_555
Mg2 O4 2.046134 1_555
Mg2 O0 2.046134 1_555
Mg2 O20 2.135025 1_555
Mg2 O28 2.135025 1_555
Mg2 O30 2.135025 1_455
Mg2 O21 2.135025 1_545
Mg3 O21 2.093786 1_555
Mg3 O20 2.093786 1_555
Mg3 O29 2.113526 1_555
Mg3 O31 2.113526 1_455
Mg3 O1 2.178673 1_555
Mg3 O5 2.178673 1_555
Mg4 O30 2.093786 1_555
Mg4 O28 2.093786 1_555
Mg4 O22 2.113526 1_555
Mg4 O23 2.113526 1_545
Mg4 O6 2.178673 1_555
Mg4 O2 2.178673 1_555
Mg5 O7 2.110449 1_555
Mg5 O3 2.110449 1_555
Mg5 O31 2.115285 1_555
Mg5 O23 2.115285 1_555
Mg5 O22 2.115285 1_555
Mg5 O29 2.115285 1_555
Mg6 O24 2.114786 1_555
Mg6 O16 2.114786 1_555
Mg6 O8 2.118385 1_555
Mg6 O12 2.118385 1_554
Mg6 O25 2.151960 1_555
Mg6 O18 2.151960 1_555
Mg7 O17 2.114786 1_555
Mg7 O24 2.114786 1_565
Mg7 O9 2.118385 1_555
Mg7 O13 2.118385 1_554
Mg7 O25 2.151960 1_555
Mg7 O19 2.151960 1_555
Mg8 O26 2.114786 1_555
Mg8 O16 2.114786 1_655
Mg8 O10 2.118385 1_555
Mg8 O14 2.118385 1_554
Mg8 O18 2.151960 1_555
Mg8 O27 2.151960 1_555
Mg9 O17 2.114786 1_655
Mg9 O26 2.114786 1_565
Mg9 O15 2.118385 1_554
Mg9 O11 2.118385 1_555
Mg9 O27 2.151960 1_555
Mg9 O19 2.151960 1_555
Mg10 O20 2.106916 1_555
Mg10 O28 2.106916 1_555
Mg10 O22 2.122096 1_555
Mg10 O29 2.122096 1_555
Mg10 O12 2.148918 1_555
Mg10 O8 2.148918 1_555
Mg11 O21 2.106916 1_555
Mg11 O28 2.106916 1_565
Mg11 O29 2.122096 1_555
Mg11 O23 2.122096 1_555
Mg11 O9 2.148918 1_555
Mg11 O13 2.148918 1_555
Mg12 O30 2.106916 1_555
Mg12 O20 2.106916 1_655
Mg12 O22 2.122096 1_555
Mg12 O31 2.122096 1_555
Mg12 O14 2.148918 1_555
Mg12 O10 2.148918 1_555
Mg13 O30 2.106916 1_565
Mg13 O21 2.106916 1_655
Mg13 O23 2.122096 1_555
Mg13 O31 2.122096 1_555
Mg13 O15 2.148918 1_555
Mg13 O11 2.148918 1_555
Mg14 O0 2.094690 1_555
Mg14 O16 2.117023 1_555
Mg14 O8 2.119392 1_555
Mg14 O10 2.119392 1_455
Mg14 O1 2.137145 1_555
Mg14 O20 2.156909 1_555
Mg15 O0 2.094690 1_565
Mg15 O17 2.117023 1_555
Mg15 O9 2.119392 1_555
Mg15 O11 2.119392 1_455
Mg15 O1 2.137145 1_555
Mg15 O21 2.156909 1_555
Mg16 O3 2.078445 1_555
Mg16 O8 2.109904 1_555
Mg16 O10 2.109904 1_555
Mg16 O22 2.133027 1_555
Mg16 O2 2.150977 1_555
Mg16 O18 2.160512 1_555
Mg17 O3 2.078445 1_555
Mg17 O11 2.109904 1_555
Mg17 O9 2.109904 1_555
Mg17 O23 2.133027 1_555
Mg17 O2 2.150977 1_565
Mg17 O19 2.160512 1_555
Mg18 O4 2.094690 1_555
Mg18 O16 2.117023 1_556
Mg18 O14 2.119392 1_455
Mg18 O12 2.119392 1_555
Mg18 O5 2.137145 1_555
Mg18 O20 2.156909 1_555
Mg19 O4 2.094690 1_565
Mg19 O17 2.117023 1_556
Mg19 O15 2.119392 1_455
Mg19 O13 2.119392 1_555
Mg19 O5 2.137145 1_555
Mg19 O21 2.156909 1_555
Mg20 O7 2.078445 1_555
Mg20 O14 2.109904 1_555
Mg20 O12 2.109904 1_555
Mg20 O22 2.133027 1_555
Mg20 O6 2.150977 1_555
Mg20 O18 2.160512 1_556
Mg21 O7 2.078445 1_555
Mg21 O15 2.109904 1_555
Mg21 O13 2.109904 1_555
Mg21 O23 2.133027 1_555
Mg21 O6 2.150977 1_565
Mg21 O19 2.160512 1_556
Mg22 O0 2.094690 1_555
Mg22 O24 2.117023 1_555
Mg22 O9 2.119392 1_545
Mg22 O8 2.119392 1_555
Mg22 O2 2.137145 1_555
Mg22 O28 2.156909 1_555
Mg23 O3 2.078445 1_555
Mg23 O8 2.109904 1_555
Mg23 O9 2.109904 1_555
Mg23 O29 2.133027 1_555
Mg23 O1 2.150977 1_555
Mg23 O25 2.160512 1_555
Mg24 O0 2.094690 1_655
Mg24 O26 2.117023 1_555
Mg24 O10 2.119392 1_555
Mg24 O11 2.119392 1_545
Mg24 O2 2.137145 1_555
Mg24 O30 2.156909 1_555
Mg25 O3 2.078445 1_555
Mg25 O11 2.109904 1_555
Mg25 O10 2.109904 1_555
Mg25 O31 2.133027 1_555
Mg25 O1 2.150977 1_655
Mg25 O27 2.160512 1_555
Mg26 O4 2.094690 1_555
Mg26 O24 2.117023 1_556
Mg26 O12 2.119392 1_555
Mg26 O13 2.119392 1_545
Mg26 O6 2.137145 1_555
Mg26 O28 2.156909 1_555
Mg27 O7 2.078445 1_555
Mg27 O13 2.109904 1_555
Mg27 O12 2.109904 1_555
Mg27 O29 2.133027 1_555
Mg27 O5 2.150977 1_555
Mg27 O25 2.160512 1_556
Mg28 O4 2.094690 1_655
Mg28 O26 2.117023 1_556
Mg28 O14 2.119392 1_555
Mg28 O15 2.119392 1_545
Mg28 O6 2.137145 1_555
Mg28 O30 2.156909 1_555
Mg29 O7 2.078445 1_555
Mg29 O14 2.109904 1_555
Mg29 O15 2.109904 1_555
Mg29 O31 2.133027 1_555
Mg29 O5 2.150977 1_655
Mg29 O27 2.160512 1_556
Co0 O0 2.221055 1_555
Co0 O4 2.221055 1_554
Co0 O24 2.255098 1_555
Co0 O16 2.255098 1_555
Co0 O26 2.255098 1_455
Co0 O17 2.255098 1_545
B0 O25 1.743962 1_555
B0 O18 1.743962 1_555
B0 O19 1.743962 1_555
B0 O27 1.743962 1_555
B0 O3 2.156740 1_555
B0 O7 2.156740 1_554
