# generated using pymatgen
data_CsYHgSe3
_symmetry_space_group_name_H-M   'P 1'
_cell_length_a   4.30828400
_cell_length_b   8.48437232
_cell_length_c   11.18974600
_cell_angle_alpha   90.00000000
_cell_angle_beta   90.00000000
_cell_angle_gamma   104.70813456
_symmetry_Int_Tables_number   1
_chemical_formula_structural   CsYHgSe3
_chemical_formula_sum   'Cs2 Y2 Hg2 Se6'
_cell_volume   395.61686745
_cell_formula_units_Z   2
loop_
 _symmetry_equiv_pos_site_id
 _symmetry_equiv_pos_as_xyz
  1  'x, y, z'
loop_
 _atom_site_type_symbol
 _atom_site_label
 _atom_site_symmetry_multiplicity
 _atom_site_fract_x
 _atom_site_fract_y
 _atom_site_fract_z
 _atom_site_occupancy
  Cs  Cs0  1  0.25534300  0.51068600  0.25000000  1
  Cs  Cs1  1  0.74465700  0.48931400  0.75000000  1
  Y  Y0  1  0.00000000  0.00000000  0.00000000  1
  Y  Y1  1  0.00000000  0.00000000  0.50000000  1
  Hg  Hg0  1  0.54511500  0.09023000  0.25000000  1
  Hg  Hg1  1  0.45488500  0.90977000  0.75000000  1
  Se  Se0  1  0.93942600  0.87885200  0.25000000  1
  Se  Se1  1  0.06057400  0.12114800  0.75000000  1
  Se  Se2  1  0.38212400  0.76424800  0.54068400  1
  Se  Se3  1  0.38212400  0.76424800  0.95931600  1
  Se  Se4  1  0.61787600  0.23575200  0.04068400  1
  Se  Se5  1  0.61787600  0.23575200  0.45931600  1
loop_
_geom_bond_atom_site_label_1
_geom_bond_atom_site_label_2
_geom_bond_distance
_geom_bond_site_symmetry_2
Cs0 Se0 3.710604 1_455
Cs0 Se0 3.710604 1_555
Cs0 Se2 3.861313 1_555
Cs0 Se3 3.861313 1_554
Cs0 Se5 3.900854 1_555
Cs0 Se5 3.900854 1_455
Cs0 Se4 3.900854 1_455
Cs0 Se4 3.900854 1_555
Cs1 Se1 3.710604 1_655
Cs1 Se1 3.710604 1_555
Cs1 Se4 3.861313 1_556
Cs1 Se5 3.861313 1_555
Cs1 Se3 3.900854 1_655
Cs1 Se3 3.900854 1_555
Cs1 Se2 3.900854 1_655
Cs1 Se2 3.900854 1_555
Hg0 Se4 2.629067 1_555
Hg0 Se5 2.629067 1_555
Hg0 Se0 2.765739 1_545
Hg0 Se0 2.765739 1_445
Hg1 Se3 2.629067 1_555
Hg1 Se2 2.629067 1_555
Hg1 Se1 2.765739 1_665
Hg1 Se1 2.765739 1_565
Se0 Y0 2.968847 1_665
Se0 Y1 2.968847 1_665
Se1 Y0 2.968847 1_556
Se1 Y1 2.968847 1_555
Se2 Y1 2.930956 1_565
Se2 Y1 2.930956 1_665
Se3 Y0 2.930956 1_566
Se3 Y0 2.930956 1_666
Se4 Y0 2.930956 1_555
Se4 Y0 2.930956 1_655
Se5 Y1 2.930956 1_555
Se5 Y1 2.930956 1_655
