# generated using pymatgen
data_Nb3(CrSi)8
_symmetry_space_group_name_H-M   'P 1'
_cell_length_a   4.82603900
_cell_length_b   13.12213100
_cell_length_c   15.71283500
_cell_angle_alpha   90.00000000
_cell_angle_beta   90.00000000
_cell_angle_gamma   90.00000000
_symmetry_Int_Tables_number   1
_chemical_formula_structural   Nb3(CrSi)8
_chemical_formula_sum   'Nb12 Cr32 Si32'
_cell_volume   995.06109452
_cell_formula_units_Z   4
loop_
 _symmetry_equiv_pos_site_id
 _symmetry_equiv_pos_as_xyz
  1  'x, y, z'
loop_
 _atom_site_type_symbol
 _atom_site_label
 _atom_site_symmetry_multiplicity
 _atom_site_fract_x
 _atom_site_fract_y
 _atom_site_fract_z
 _atom_site_occupancy
  Nb  Nb0  1  0.25000000  0.56498900  0.30525900  1
  Nb  Nb1  1  0.25000000  0.06498900  0.19474100  1
  Nb  Nb2  1  0.75000000  0.43501100  0.69474100  1
  Nb  Nb3  1  0.75000000  0.93501100  0.80525900  1
  Nb  Nb4  1  0.25000000  0.86550000  0.45716000  1
  Nb  Nb5  1  0.25000000  0.36550000  0.04284000  1
  Nb  Nb6  1  0.75000000  0.13450000  0.54284000  1
  Nb  Nb7  1  0.75000000  0.63450000  0.95716000  1
  Nb  Nb8  1  0.25000000  0.75150300  0.02817900  1
  Nb  Nb9  1  0.25000000  0.25150300  0.47182100  1
  Nb  Nb10  1  0.75000000  0.24849700  0.97182100  1
  Nb  Nb11  1  0.75000000  0.74849700  0.52817900  1
  Cr  Cr0  1  0.99182700  0.86581100  0.17259200  1
  Cr  Cr1  1  0.50817300  0.36581100  0.32740800  1
  Cr  Cr2  1  0.49182700  0.13418900  0.82740800  1
  Cr  Cr3  1  0.00817300  0.63418900  0.67259200  1
  Cr  Cr4  1  0.00817300  0.13418900  0.82740800  1
  Cr  Cr5  1  0.49182700  0.63418900  0.67259200  1
  Cr  Cr6  1  0.50817300  0.86581100  0.17259200  1
  Cr  Cr7  1  0.99182700  0.36581100  0.32740800  1
  Cr  Cr8  1  0.00918300  0.56008800  0.12297300  1
  Cr  Cr9  1  0.49081700  0.06008800  0.37702700  1
  Cr  Cr10  1  0.50918300  0.43991200  0.87702700  1
  Cr  Cr11  1  0.99081700  0.93991200  0.62297300  1
  Cr  Cr12  1  0.99081700  0.43991200  0.87702700  1
  Cr  Cr13  1  0.50918300  0.93991200  0.62297300  1
  Cr  Cr14  1  0.49081700  0.56008800  0.12297300  1
  Cr  Cr15  1  0.00918300  0.06008800  0.37702700  1
  Cr  Cr16  1  0.25000000  0.63661100  0.84383700  1
  Cr  Cr17  1  0.25000000  0.13661100  0.65616300  1
  Cr  Cr18  1  0.75000000  0.36338900  0.15616300  1
  Cr  Cr19  1  0.75000000  0.86338900  0.34383700  1
  Cr  Cr20  1  0.25000000  0.95762800  0.90613900  1
  Cr  Cr21  1  0.25000000  0.45762800  0.59386100  1
  Cr  Cr22  1  0.75000000  0.04237200  0.09386100  1
  Cr  Cr23  1  0.75000000  0.54237200  0.40613900  1
  Cr  Cr24  1  0.25000000  0.62261700  0.50681900  1
  Cr  Cr25  1  0.25000000  0.12261700  0.99318100  1
  Cr  Cr26  1  0.75000000  0.37738300  0.49318100  1
  Cr  Cr27  1  0.75000000  0.87738300  0.00681900  1
  Cr  Cr28  1  0.25000000  0.81150600  0.75028500  1
  Cr  Cr29  1  0.25000000  0.31150600  0.74971500  1
  Cr  Cr30  1  0.75000000  0.18849400  0.24971500  1
  Cr  Cr31  1  0.75000000  0.68849400  0.25028500  1
  Si  Si0  1  0.00035100  0.71136700  0.38191600  1
  Si  Si1  1  0.49964900  0.21136700  0.11808400  1
  Si  Si2  1  0.50035100  0.28863300  0.61808400  1
  Si  Si3  1  0.99964900  0.78863300  0.88191600  1
  Si  Si4  1  0.99964900  0.28863300  0.61808400  1
  Si  Si5  1  0.50035100  0.78863300  0.88191600  1
  Si  Si6  1  0.49964900  0.71136700  0.38191600  1
  Si  Si7  1  0.00035100  0.21136700  0.11808400  1
  Si  Si8  1  0.25000000  0.70937300  0.19475400  1
  Si  Si9  1  0.25000000  0.20937300  0.30524600  1
  Si  Si10  1  0.75000000  0.29062700  0.80524600  1
  Si  Si11  1  0.75000000  0.79062700  0.69475400  1
  Si  Si12  1  0.25000000  0.91067400  0.30106700  1
  Si  Si13  1  0.25000000  0.41067400  0.19893300  1
  Si  Si14  1  0.75000000  0.08932600  0.69893300  1
  Si  Si15  1  0.75000000  0.58932600  0.80106700  1
  Si  Si16  1  0.25000000  0.55022200  0.98181100  1
  Si  Si17  1  0.25000000  0.05022200  0.51818900  1
  Si  Si18  1  0.75000000  0.44977800  0.01819000  1
  Si  Si19  1  0.75000000  0.94977800  0.48181000  1
  Si  Si20  1  0.25000000  0.95207900  0.05697700  1
  Si  Si21  1  0.25000000  0.45207900  0.44302300  1
  Si  Si22  1  0.75000000  0.04792100  0.94302300  1
  Si  Si23  1  0.75000000  0.54792100  0.55697700  1
  Si  Si24  1  0.25000000  0.77448500  0.60341100  1
  Si  Si25  1  0.25000000  0.27448500  0.89658900  1
  Si  Si26  1  0.75000000  0.22551500  0.39658900  1
  Si  Si27  1  0.75000000  0.72551500  0.10341100  1
  Si  Si28  1  0.25000000  0.99630100  0.75223900  1
  Si  Si29  1  0.25000000  0.49630100  0.74776100  1
  Si  Si30  1  0.75000000  0.00369900  0.24776100  1
  Si  Si31  1  0.75000000  0.50369900  0.25223900  1
loop_
_geom_bond_atom_site_label_1
_geom_bond_atom_site_label_2
_geom_bond_distance
_geom_bond_site_symmetry_2
Nb0 Si6 2.567457 1_555
Nb0 Si0 2.567457 1_555
Nb0 Si8 2.569924 1_555
Nb0 Si21 2.623159 1_555
Nb0 Si13 2.625180 1_555
Nb0 Si31 2.676478 1_555
Nb0 Si31 2.676478 1_455
Nb1 Si1 2.567457 1_555
Nb1 Si7 2.567457 1_555
Nb1 Si9 2.569924 1_555
Nb1 Si20 2.623159 1_545
Nb1 Si12 2.625180 1_545
Nb1 Si30 2.676478 1_455
Nb1 Si30 2.676478 1_555
Nb2 Si4 2.567457 1_555
Nb2 Si2 2.567457 1_555
Nb2 Si10 2.569924 1_555
Nb2 Si23 2.623159 1_555
Nb2 Si15 2.625180 1_555
Nb2 Si29 2.676478 1_655
Nb2 Si29 2.676478 1_555
Nb3 Si3 2.567457 1_555
Nb3 Si5 2.567457 1_555
Nb3 Si11 2.569924 1_555
Nb3 Si22 2.623159 1_565
Nb3 Si14 2.625180 1_565
Nb3 Si28 2.676478 1_655
Nb3 Si28 2.676478 1_555
Nb4 Si12 2.523281 1_555
Nb4 Si24 2.589839 1_555
Nb4 Si17 2.606737 1_565
Nb4 Si6 2.634412 1_555
Nb4 Si0 2.634412 1_555
Nb4 Si19 2.682482 1_555
Nb4 Si19 2.682482 1_455
Nb5 Si13 2.523281 1_555
Nb5 Si25 2.589839 1_554
Nb5 Si16 2.606737 1_554
Nb5 Si1 2.634412 1_555
Nb5 Si7 2.634412 1_555
Nb5 Si18 2.682482 1_455
Nb5 Si18 2.682482 1_555
Nb6 Si14 2.523281 1_555
Nb6 Si26 2.589839 1_555
Nb6 Si19 2.606743 1_545
Nb6 Si4 2.634412 1_555
Nb6 Si2 2.634412 1_555
Nb6 Si17 2.682485 1_555
Nb6 Si17 2.682485 1_655
Nb7 Si15 2.523281 1_555
Nb7 Si27 2.589839 1_556
Nb7 Si18 2.606743 1_556
Nb7 Si5 2.634412 1_555
Nb7 Si3 2.634412 1_555
Nb7 Si16 2.682485 1_555
Nb7 Si16 2.682485 1_655
Nb8 Si3 2.641760 1_454
Nb8 Si5 2.641760 1_554
Nb8 Si20 2.670599 1_555
Nb8 Si8 2.675113 1_555
Nb8 Si27 2.708567 1_555
Nb8 Si27 2.708567 1_455
Nb8 Si16 2.739880 1_554
Nb9 Si2 2.641760 1_555
Nb9 Si4 2.641760 1_455
Nb9 Si21 2.670599 1_555
Nb9 Si9 2.675113 1_555
Nb9 Si26 2.708567 1_555
Nb9 Si26 2.708567 1_455
Nb9 Si17 2.739880 1_555
Nb10 Si7 2.641760 1_656
Nb10 Si1 2.641760 1_556
Nb10 Si22 2.670599 1_555
Nb10 Si10 2.675113 1_555
Nb10 Si25 2.708567 1_655
Nb10 Si25 2.708567 1_555
Nb10 Si18 2.739884 1_556
Nb11 Si0 2.641760 1_655
Nb11 Si6 2.641760 1_555
Nb11 Si23 2.670599 1_555
Nb11 Si11 2.675113 1_555
Nb11 Si24 2.708567 1_555
Nb11 Si24 2.708567 1_655
Nb11 Si19 2.739884 1_555
Cr0 Si8 2.426448 1_655
Cr0 Si27 2.435753 1_555
Cr0 Si12 2.444205 1_655
Cr0 Si30 2.455801 1_565
Cr0 Si20 2.476701 1_655
Cr1 Si9 2.426448 1_555
Cr1 Si26 2.435753 1_555
Cr1 Si13 2.444205 1_555
Cr1 Si31 2.455801 1_555
Cr1 Si21 2.476701 1_555
Cr2 Si10 2.426448 1_555
Cr2 Si25 2.435753 1_555
Cr2 Si14 2.444205 1_555
Cr2 Si28 2.455801 1_545
Cr2 Si22 2.476701 1_555
Cr3 Si11 2.426448 1_455
Cr3 Si24 2.435753 1_555
Cr3 Si15 2.444205 1_455
Cr3 Si29 2.455801 1_555
Cr3 Si23 2.476701 1_455
Cr4 Si10 2.426448 1_455
Cr4 Si25 2.435753 1_555
Cr4 Si14 2.444205 1_455
Cr4 Si28 2.455801 1_545
Cr4 Si22 2.476701 1_455
Cr5 Si11 2.426448 1_555
Cr5 Si24 2.435753 1_555
Cr5 Si15 2.444205 1_555
Cr5 Si29 2.455801 1_555
Cr5 Si23 2.476701 1_555
Cr6 Si8 2.426448 1_555
Cr6 Si27 2.435753 1_555
Cr6 Si12 2.444205 1_555
Cr6 Si30 2.455801 1_565
Cr6 Si20 2.476701 1_555
Cr7 Si9 2.426448 1_655
Cr7 Si26 2.435753 1_555
Cr7 Si13 2.444205 1_655
Cr7 Si31 2.455801 1_555
Cr7 Si21 2.476701 1_655
Cr8 Si31 2.497518 1_455
Cr8 Si16 2.507433 1_554
Cr8 Si18 2.524003 1_455
Cr8 Si27 2.524128 1_455
Cr8 Si8 2.541701 1_555
Cr8 Si13 2.572803 1_555
Cr9 Si30 2.497518 1_555
Cr9 Si17 2.507433 1_555
Cr9 Si19 2.524003 1_545
Cr9 Si26 2.524128 1_555
Cr9 Si9 2.541701 1_555
Cr9 Si12 2.572803 1_545
Cr10 Cr12 2.324384 1_555
Cr10 Si29 2.497518 1_555
Cr10 Cr12 2.501655 1_455
Cr10 Si18 2.507447 1_556
Cr10 Si16 2.524013 1_555
Cr10 Si25 2.524128 1_555
Cr10 Si10 2.541701 1_555
Cr10 Si15 2.572803 1_555
Cr11 Cr13 2.324384 1_555
Cr11 Si28 2.497518 1_655
Cr11 Cr13 2.501655 1_655
Cr11 Si19 2.507447 1_555
Cr11 Si17 2.524013 1_665
Cr11 Si24 2.524128 1_655
Cr11 Si11 2.541701 1_555
Cr11 Si14 2.572803 1_565
Cr12 Si29 2.497518 1_655
Cr12 Si18 2.507447 1_556
Cr12 Si16 2.524013 1_655
Cr12 Si25 2.524128 1_655
Cr12 Si10 2.541701 1_555
Cr12 Si15 2.572803 1_555
Cr13 Si28 2.497518 1_555
Cr13 Si19 2.507447 1_555
Cr13 Si17 2.524013 1_565
Cr13 Si24 2.524128 1_555
Cr13 Si11 2.541701 1_555
Cr13 Si14 2.572803 1_565
Cr14 Cr8 2.324384 1_555
Cr14 Si31 2.497518 1_555
Cr14 Cr8 2.501655 1_655
Cr14 Si16 2.507433 1_554
Cr14 Si18 2.524003 1_555
Cr14 Si27 2.524128 1_555
Cr14 Si8 2.541701 1_555
Cr14 Si13 2.572803 1_555
Cr15 Cr9 2.324384 1_555
Cr15 Si30 2.497518 1_455
Cr15 Cr9 2.501655 1_455
Cr15 Si17 2.507433 1_555
Cr15 Si19 2.524003 1_445
Cr15 Si26 2.524128 1_455
Cr15 Si9 2.541701 1_555
Cr15 Si12 2.572803 1_545
Cr16 Si29 2.380938 1_555
Cr16 Si5 2.407736 1_555
Cr16 Si3 2.407736 1_455
Cr16 Si16 2.446452 1_555
Cr16 Si15 2.580561 1_555
Cr16 Si15 2.580561 1_455
Cr17 Si28 2.380938 1_545
Cr17 Si2 2.407736 1_555
Cr17 Si4 2.407736 1_455
Cr17 Si17 2.446452 1_555
Cr17 Si14 2.580561 1_555
Cr17 Si14 2.580561 1_455
Cr18 Si31 2.380938 1_555
Cr18 Si7 2.407736 1_655
Cr18 Si1 2.407736 1_555
Cr18 Si18 2.446438 1_555
Cr18 Si13 2.580561 1_655
Cr18 Si13 2.580561 1_555
Cr19 Si30 2.380938 1_565
Cr19 Si0 2.407736 1_655
Cr19 Si6 2.407736 1_555
Cr19 Si19 2.446438 1_555
Cr19 Si12 2.580561 1_555
Cr19 Si12 2.580561 1_655
Cr20 Si20 2.371211 1_556
Cr20 Si28 2.470879 1_555
Cr20 Si3 2.553871 1_455
Cr20 Si5 2.553871 1_555
Cr20 Si22 2.749978 1_565
Cr20 Si22 2.749978 1_465
Cr21 Si21 2.371211 1_555
Cr21 Si29 2.470879 1_555
Cr21 Si4 2.553871 1_455
Cr21 Si2 2.553871 1_555
Cr21 Si23 2.749978 1_555
Cr21 Si23 2.749978 1_455
Cr22 Si22 2.371211 1_554
Cr22 Si30 2.470879 1_555
Cr22 Si7 2.553871 1_655
Cr22 Si1 2.553871 1_555
Cr22 Si20 2.749978 1_545
Cr22 Si20 2.749978 1_645
Cr23 Si23 2.371211 1_555
Cr23 Si31 2.470879 1_555
Cr23 Si0 2.553871 1_655
Cr23 Si6 2.553871 1_555
Cr23 Si21 2.749978 1_555
Cr23 Si21 2.749978 1_655
Cr24 Si21 2.452078 1_555
Cr24 Si24 2.504974 1_555
Cr24 Si6 2.580614 1_555
Cr24 Si0 2.580614 1_555
Cr24 Si23 2.721128 1_455
Cr24 Si23 2.721128 1_555
Cr25 Si20 2.452078 1_546
Cr25 Si25 2.504974 1_555
Cr25 Si1 2.580614 1_556
Cr25 Si7 2.580614 1_556
Cr25 Si22 2.721128 1_555
Cr25 Si22 2.721128 1_455
Cr26 Si23 2.452078 1_555
Cr26 Si26 2.504974 1_555
Cr26 Si4 2.580614 1_555
Cr26 Si2 2.580614 1_555
Cr26 Si21 2.721128 1_655
Cr26 Si21 2.721128 1_555
Cr27 Si22 2.452078 1_564
Cr27 Si27 2.504974 1_555
Cr27 Si5 2.580614 1_554
Cr27 Si3 2.580614 1_554
Cr27 Si20 2.721128 1_555
Cr27 Si20 2.721128 1_655
Cr28 Si24 2.358383 1_555
Cr28 Si3 2.414061 1_455
Cr28 Si5 2.414061 1_555
Cr28 Si28 2.425099 1_555
Cr28 Si11 2.580517 1_455
Cr28 Si11 2.580517 1_555
Cr29 Si25 2.358383 1_555
Cr29 Si2 2.414061 1_555
Cr29 Si4 2.414061 1_455
Cr29 Si29 2.425099 1_555
Cr29 Si10 2.580517 1_455
Cr29 Si10 2.580517 1_555
Cr30 Si26 2.358383 1_555
Cr30 Si7 2.414061 1_655
Cr30 Si1 2.414061 1_555
Cr30 Si30 2.425099 1_555
Cr30 Si9 2.580517 1_555
Cr30 Si9 2.580517 1_655
Cr31 Si27 2.358383 1_555
Cr31 Si0 2.414061 1_655
Cr31 Si6 2.414061 1_555
Cr31 Si31 2.425099 1_555
Cr31 Si8 2.580517 1_555
Cr31 Si8 2.580517 1_655
Si0 Si6 2.409632 1_555
Si0 Si6 2.416407 1_455
Si1 Si7 2.409632 1_555
Si1 Si7 2.416407 1_655
Si2 Si4 2.409632 1_555
Si2 Si4 2.416407 1_455
Si3 Si5 2.409632 1_555
Si3 Si5 2.416407 1_655
