# generated using pymatgen
data_Tl2TeS3
_symmetry_space_group_name_H-M   'P 1'
_cell_length_a   6.23883000
_cell_length_b   8.81875100
_cell_length_c   13.39413600
_cell_angle_alpha   90.00000000
_cell_angle_beta   90.00000000
_cell_angle_gamma   90.00000000
_symmetry_Int_Tables_number   1
_chemical_formula_structural   Tl2TeS3
_chemical_formula_sum   'Tl8 Te4 S12'
_cell_volume   736.92779365
_cell_formula_units_Z   4
loop_
 _symmetry_equiv_pos_site_id
 _symmetry_equiv_pos_as_xyz
  1  'x, y, z'
loop_
 _atom_site_type_symbol
 _atom_site_label
 _atom_site_symmetry_multiplicity
 _atom_site_fract_x
 _atom_site_fract_y
 _atom_site_fract_z
 _atom_site_occupancy
  Tl  Tl0  1  0.23569000  0.34261800  0.57921600  1
  Tl  Tl1  1  0.76431000  0.65738200  0.07921600  1
  Tl  Tl2  1  0.26431000  0.84261800  0.92078400  1
  Tl  Tl3  1  0.73569000  0.15738200  0.42078400  1
  Tl  Tl4  1  0.73569000  0.15738200  0.07921600  1
  Tl  Tl5  1  0.23569000  0.34261800  0.92078400  1
  Tl  Tl6  1  0.76431000  0.65738200  0.42078400  1
  Tl  Tl7  1  0.26431000  0.84261800  0.57921600  1
  Te  Te0  1  0.71458700  0.07349200  0.75000000  1
  Te  Te1  1  0.78541300  0.57349200  0.75000000  1
  Te  Te2  1  0.21458700  0.42650800  0.25000000  1
  Te  Te3  1  0.28541300  0.92650800  0.25000000  1
  S  S0  1  0.78190700  0.91277900  0.89119400  1
  S  S1  1  0.28190700  0.58722100  0.10880600  1
  S  S2  1  0.71809300  0.41277900  0.60880600  1
  S  S3  1  0.21809300  0.08722100  0.39119400  1
  S  S4  1  0.21809300  0.08722100  0.10880600  1
  S  S5  1  0.71809300  0.41277900  0.89119400  1
  S  S6  1  0.28190700  0.58722100  0.39119400  1
  S  S7  1  0.32796400  0.07889600  0.75000000  1
  S  S8  1  0.67203600  0.92110400  0.25000000  1
  S  S9  1  0.17203600  0.57889600  0.75000000  1
  S  S10  1  0.82796400  0.42110400  0.25000000  1
  S  S11  1  0.78190700  0.91277900  0.60880600  1
loop_
_geom_bond_atom_site_label_1
_geom_bond_atom_site_label_2
_geom_bond_distance
_geom_bond_site_symmetry_2
S0 Te0 2.400340 1_565
S0 Tl2 3.098029 1_655
S1 Te2 2.400340 1_555
S1 Tl1 3.098029 1_555
S2 Te1 2.400340 1_555
S2 Tl0 3.098029 1_555
S3 Te3 2.400340 1_545
S3 Tl3 3.098029 1_455
S4 Te3 2.400340 1_545
S4 Tl4 3.098029 1_455
S5 Te1 2.400340 1_555
S5 Tl5 3.098029 1_555
S6 Te2 2.400340 1_555
S6 Tl6 3.098029 1_555
S7 Te0 2.412546 1_555
S7 Tl2 3.119630 1_545
S7 Tl7 3.119630 1_545
S8 Te3 2.412546 1_555
S8 Tl4 3.119630 1_565
S8 Tl3 3.119630 1_565
S9 Te1 2.412546 1_455
S9 Tl5 3.119630 1_555
S9 Tl0 3.119630 1_555
S10 Te2 2.412546 1_655
S10 Tl6 3.119630 1_555
S10 Tl1 3.119630 1_555
S11 Te0 2.400340 1_565
S11 Tl7 3.098029 1_655
