# generated using pymatgen
data_Eu3Ta
_symmetry_space_group_name_H-M   'P 1'
_cell_length_a   5.96079409
_cell_length_b   5.96079409
_cell_length_c   5.96079409
_cell_angle_alpha   130.29276696
_cell_angle_beta   130.29276696
_cell_angle_gamma   72.93916062
_symmetry_Int_Tables_number   1
_chemical_formula_structural   Eu3Ta
_chemical_formula_sum   'Eu3 Ta1'
_cell_volume   120.34920756
_cell_formula_units_Z   1
loop_
 _symmetry_equiv_pos_site_id
 _symmetry_equiv_pos_as_xyz
  1  'x, y, z'
loop_
 _atom_site_type_symbol
 _atom_site_label
 _atom_site_symmetry_multiplicity
 _atom_site_fract_x
 _atom_site_fract_y
 _atom_site_fract_z
 _atom_site_occupancy
  Eu  Eu0  1  0.75000200  0.25000100  0.50000100  1
  Eu  Eu1  1  0.25000100  0.75000200  0.50000100  1
  Eu  Eu2  1  0.49999900  0.49999900  0.00000000  1
  Ta  Ta0  1  0.00000000  0.00000000  0.00000000  1
loop_
_geom_bond_atom_site_label_1
_geom_bond_atom_site_label_2
_geom_bond_distance
_geom_bond_site_symmetry_2
Eu0 Eu2 3.467130 1_656
Eu0 Eu2 3.467137 1_555
Eu0 Ta0 3.467140 1_666
Eu0 Ta0 3.467140 1_655
Eu0 Ta0 3.467150 1_656
Eu0 Ta0 3.467157 1_555
Eu0 Eu2 3.467160 1_545
Eu0 Eu2 3.467160 1_556
Eu0 Eu1 3.543065 1_645
Eu0 Eu1 3.543072 1_656
Eu0 Eu1 3.543072 1_544
Eu0 Eu1 3.543079 1_555
Eu1 Eu2 3.467130 1_566
Eu1 Eu2 3.467137 1_555
Eu1 Ta0 3.467140 1_666
Eu1 Ta0 3.467140 1_565
Eu1 Ta0 3.467150 1_566
Eu1 Ta0 3.467157 1_555
Eu1 Eu2 3.467160 1_455
Eu1 Eu2 3.467160 1_556
Eu2 Ta0 3.543072 1_655
Eu2 Ta0 3.543072 1_666
Eu2 Ta0 3.543072 1_554
Eu2 Ta0 3.543072 1_565
