# generated using pymatgen
data_KUHSO7
_symmetry_space_group_name_H-M   'P 1'
_cell_length_a   8.54904700
_cell_length_b   11.19340900
_cell_length_c   13.72540800
_cell_angle_alpha   90.00000000
_cell_angle_beta   90.00000000
_cell_angle_gamma   90.00000000
_symmetry_Int_Tables_number   1
_chemical_formula_structural   KUHSO7
_chemical_formula_sum   'K8 U8 H8 S8 O56'
_cell_volume   1313.42518817
_cell_formula_units_Z   8
loop_
 _symmetry_equiv_pos_site_id
 _symmetry_equiv_pos_as_xyz
  1  'x, y, z'
loop_
 _atom_site_type_symbol
 _atom_site_label
 _atom_site_symmetry_multiplicity
 _atom_site_fract_x
 _atom_site_fract_y
 _atom_site_fract_z
 _atom_site_occupancy
  K  K0  1  0.76202800  0.48579100  0.81136300  1
  K  K1  1  0.26202800  0.01420900  0.18863700  1
  K  K2  1  0.23797200  0.98579100  0.68863700  1
  K  K3  1  0.73797200  0.51420900  0.31136300  1
  K  K4  1  0.23797200  0.51420900  0.18863700  1
  K  K5  1  0.73797200  0.98579100  0.81136300  1
  K  K6  1  0.76202800  0.01420900  0.31136300  1
  K  K7  1  0.26202800  0.48579100  0.68863700  1
  U  U0  1  0.59871900  0.74210400  0.04614100  1
  U  U1  1  0.09871900  0.75789600  0.95385900  1
  U  U2  1  0.40128100  0.24210400  0.45385900  1
  U  U3  1  0.90128100  0.25789600  0.54614100  1
  U  U4  1  0.40128100  0.25789600  0.95385900  1
  U  U5  1  0.90128100  0.24210400  0.04614100  1
  U  U6  1  0.59871900  0.75789600  0.54614100  1
  U  U7  1  0.09871900  0.74210400  0.45385900  1
  H  H0  1  0.34420100  0.59277100  0.99041400  1
  H  H1  1  0.84420100  0.90722900  0.00958600  1
  H  H2  1  0.65579900  0.09277100  0.50958600  1
  H  H3  1  0.15579900  0.40722900  0.49041400  1
  H  H4  1  0.65579900  0.40722900  0.00958600  1
  H  H5  1  0.15579900  0.09277100  0.99041400  1
  H  H6  1  0.34420100  0.90722900  0.49041400  1
  H  H7  1  0.84420100  0.59277100  0.50958600  1
  S  S0  1  0.45439900  0.74392800  0.79837300  1
  S  S1  1  0.95439900  0.75607200  0.20162700  1
  S  S2  1  0.54560100  0.24392800  0.70162700  1
  S  S3  1  0.04560100  0.25607200  0.29837300  1
  S  S4  1  0.54560100  0.25607200  0.20162700  1
  S  S5  1  0.04560100  0.24392800  0.79837300  1
  S  S6  1  0.45439900  0.75607200  0.29837300  1
  S  S7  1  0.95439900  0.74392800  0.70162700  1
  O  O0  1  0.34011300  0.67720700  0.01095000  1
  O  O1  1  0.84011300  0.82279300  0.98905000  1
  O  O2  1  0.65988700  0.17720700  0.48905000  1
  O  O3  1  0.15988700  0.32279300  0.51095000  1
  O  O4  1  0.65988700  0.32279300  0.98905000  1
  O  O5  1  0.15988700  0.17720700  0.01095000  1
  O  O6  1  0.34011300  0.82279300  0.51095000  1
  O  O7  1  0.84011300  0.67720700  0.48905000  1
  O  O8  1  0.65760400  0.59110800  0.01185100  1
  O  O9  1  0.15760400  0.90889200  0.98814800  1
  O  O10  1  0.34239600  0.09110800  0.48814800  1
  O  O11  1  0.84239600  0.40889200  0.51185200  1
  O  O12  1  0.34239600  0.40889200  0.98814800  1
  O  O13  1  0.84239600  0.09110800  0.01185100  1
  O  O14  1  0.65760400  0.90889200  0.51185200  1
  O  O15  1  0.15760400  0.59110800  0.48814800  1
  O  O16  1  0.55682500  0.79613900  0.87659200  1
  O  O17  1  0.05682500  0.70386100  0.12340800  1
  O  O18  1  0.44317500  0.29613900  0.62340800  1
  O  O19  1  0.94317500  0.20386100  0.37659200  1
  O  O20  1  0.44317500  0.20386100  0.12340800  1
  O  O21  1  0.94317500  0.29613900  0.87659200  1
  O  O22  1  0.55682500  0.70386100  0.37659200  1
  O  O23  1  0.05682500  0.79613900  0.62340800  1
  O  O24  1  0.48607700  0.81224700  0.70615400  1
  O  O25  1  0.98607700  0.68775300  0.29384600  1
  O  O26  1  0.51392300  0.31224700  0.79384600  1
  O  O27  1  0.01392300  0.18775300  0.20615400  1
  O  O28  1  0.51392300  0.18775300  0.29384600  1
  O  O29  1  0.01392300  0.31224700  0.70615400  1
  O  O30  1  0.48607700  0.68775300  0.20615400  1
  O  O31  1  0.98607700  0.81224700  0.79384600  1
  O  O32  1  0.28685400  0.76895600  0.82219800  1
  O  O33  1  0.78685400  0.73104400  0.17780200  1
  O  O34  1  0.71314600  0.26895600  0.67780200  1
  O  O35  1  0.21314600  0.23104400  0.32219800  1
  O  O36  1  0.71314600  0.23104400  0.17780200  1
  O  O37  1  0.21314600  0.26895600  0.82219800  1
  O  O38  1  0.28685400  0.73104400  0.32219800  1
  O  O39  1  0.78685400  0.76895600  0.67780200  1
  O  O40  1  0.53880400  0.89206600  0.07584400  1
  O  O41  1  0.03880400  0.60793400  0.92415600  1
  O  O42  1  0.46119600  0.39206600  0.42415600  1
  O  O43  1  0.96119600  0.10793400  0.57584400  1
  O  O44  1  0.46119600  0.10793400  0.92415600  1
  O  O45  1  0.96119600  0.39206600  0.07584400  1
  O  O46  1  0.53880400  0.60793400  0.57584400  1
  O  O47  1  0.03880400  0.89206600  0.42415600  1
  O  O48  1  0.48287100  0.61586900  0.78843300  1
  O  O49  1  0.98287100  0.88413100  0.21156700  1
  O  O50  1  0.51712900  0.11586900  0.71156700  1
  O  O51  1  0.01712900  0.38413100  0.28843300  1
  O  O52  1  0.51712900  0.38413100  0.21156700  1
  O  O53  1  0.01712900  0.11586900  0.78843300  1
  O  O54  1  0.48287100  0.88413100  0.28843300  1
  O  O55  1  0.98287100  0.61586900  0.71156700  1
loop_
_geom_bond_atom_site_label_1
_geom_bond_atom_site_label_2
_geom_bond_distance
_geom_bond_site_symmetry_2
K0 O55 2.749674 1_555
K0 O21 2.776026 1_555
K0 O48 2.813280 1_555
K0 O26 2.886209 1_555
K0 O34 3.070197 1_555
K0 O8 3.123932 1_556
K0 O41 3.140812 1_655
K0 O4 3.168466 1_555
K0 O29 3.239774 1_655
K1 O54 2.749674 1_545
K1 O20 2.776026 1_555
K1 O49 2.813280 1_445
K1 O27 2.886209 1_555
K1 O35 3.070197 1_555
K1 O9 3.123944 1_544
K1 O40 3.140812 1_545
K1 O5 3.168466 1_555
K1 O28 3.239774 1_555
K2 O53 2.749674 1_565
K2 O23 2.776026 1_555
K2 O50 2.813280 1_565
K2 O24 2.886209 1_555
K2 O32 3.070197 1_555
K2 O10 3.123944 1_565
K2 O43 3.140812 1_465
K2 O6 3.168466 1_555
K2 O31 3.239774 1_455
K3 O52 2.749674 1_555
K3 O22 2.776026 1_555
K3 O51 2.813280 1_655
K3 O25 2.886209 1_555
K3 O33 3.070197 1_555
K3 O11 3.123944 1_555
K3 O42 3.140812 1_555
K3 O7 3.168466 1_555
K3 O30 3.239774 1_555
K4 O51 2.749674 1_555
K4 O17 2.776026 1_555
K4 O52 2.813280 1_555
K4 O30 2.886209 1_555
K4 O38 3.070197 1_555
K4 O12 3.123944 1_554
K4 O45 3.140812 1_455
K4 O0 3.168466 1_555
K4 O25 3.239774 1_455
K5 O50 2.749674 1_565
K5 O16 2.776026 1_555
K5 O53 2.813280 1_665
K5 O31 2.886209 1_555
K5 O39 3.070197 1_555
K5 O13 3.123932 1_566
K5 O44 3.140812 1_565
K5 O1 3.168466 1_555
K5 O24 3.239774 1_555
K6 O49 2.749674 1_545
K6 O19 2.776026 1_555
K6 O54 2.813280 1_545
K6 O28 2.886209 1_555
K6 O36 3.070197 1_555
K6 O14 3.123944 1_545
K6 O47 3.140812 1_645
K6 O2 3.168466 1_555
K6 O27 3.239774 1_655
K7 O48 2.749674 1_555
K7 O18 2.776026 1_555
K7 O55 2.813280 1_455
K7 O29 2.886209 1_555
K7 O37 3.070197 1_555
K7 O15 3.123944 1_555
K7 O46 3.140812 1_555
K7 O3 3.168466 1_555
K7 O26 3.239774 1_555
H0 O0 0.986881 1_556
H0 K4 3.000036 1_556
H1 O1 0.986881 1_554
H1 K5 3.000036 1_554
H2 O2 0.986881 1_555
H2 K6 3.000036 1_555
H3 O3 0.986881 1_555
H3 K7 3.000036 1_555
H4 O4 0.986881 1_554
H4 K0 3.000036 1_554
H5 O5 0.986881 1_556
H5 K1 3.000036 1_556
H6 O6 0.986881 1_555
H6 K2 3.000036 1_555
H7 O7 0.986881 1_555
H7 K3 3.000036 1_555
O0 U0 2.376715 1_555
O0 U1 2.385074 1_554
O1 U1 2.376715 1_655
O1 U0 2.385074 1_556
O2 U2 2.376715 1_555
O2 U3 2.385074 1_555
O3 U3 2.376715 1_455
O3 U2 2.385074 1_555
O4 U4 2.376715 1_555
O4 U5 2.385074 1_556
O5 U5 2.376715 1_455
O5 U4 2.385074 1_554
O6 U6 2.376715 1_555
O6 U7 2.385074 1_555
O7 U7 2.376715 1_655
O7 U6 2.385074 1_555
O8 U0 1.825259 1_555
O9 U1 1.825255 1_555
O10 U2 1.825255 1_555
O11 U3 1.825255 1_555
O12 U4 1.825255 1_555
O13 U5 1.825259 1_555
O14 U6 1.825255 1_555
O15 U7 1.825255 1_555
O16 S0 1.503626 1_555
O16 U0 2.430973 1_556
O17 S1 1.503626 1_455
O17 U1 2.430973 1_554
O18 S2 1.503626 1_555
O18 U2 2.430973 1_555
O19 S3 1.503626 1_655
O19 U3 2.430973 1_555
O20 S4 1.503626 1_555
O20 U4 2.430973 1_554
O21 S5 1.503626 1_655
O21 U5 2.430973 1_556
O22 S6 1.503626 1_555
O22 U6 2.430973 1_555
O23 S7 1.503626 1_455
O23 U7 2.430973 1_555
O24 S0 1.503412 1_555
O24 U6 2.474053 1_555
O25 S1 1.503412 1_555
O25 U7 2.474053 1_655
O26 S2 1.503412 1_555
O26 U4 2.474053 1_555
O27 S3 1.503412 1_555
O27 U5 2.474053 1_455
O28 S4 1.503412 1_555
O28 U2 2.474053 1_555
O29 S5 1.503412 1_555
O29 U3 2.474053 1_455
O30 S6 1.503412 1_555
O30 U0 2.474053 1_555
O31 S7 1.503412 1_555
O31 U1 2.474053 1_655
O32 S0 1.495675 1_555
O32 U1 2.422356 1_555
O33 S1 1.495675 1_555
O33 U0 2.422356 1_555
O34 S2 1.495675 1_555
O34 U3 2.422356 1_555
O35 S3 1.495675 1_555
O35 U2 2.422356 1_555
O36 S4 1.495675 1_555
O36 U5 2.422356 1_555
O37 S5 1.495675 1_555
O37 U4 2.422356 1_555
O38 S6 1.495675 1_555
O38 U7 2.422356 1_555
O39 S7 1.495675 1_555
O39 U6 2.422356 1_555
O40 U0 1.801728 1_555
O41 U1 1.801728 1_555
O42 U2 1.801728 1_555
O43 U3 1.801728 1_555
O44 U4 1.801728 1_555
O45 U5 1.801728 1_555
O46 U6 1.801728 1_555
O47 U7 1.801728 1_555
O48 S0 1.460323 1_555
O49 S1 1.460323 1_555
O50 S2 1.460323 1_555
O51 S3 1.460323 1_555
O52 S4 1.460323 1_555
O53 S5 1.460323 1_555
O54 S6 1.460323 1_555
O55 S7 1.460323 1_555
