# generated using pymatgen
data_BaMnP2O7
_symmetry_space_group_name_H-M   'P 1'
_cell_length_a   5.44197509
_cell_length_b   7.23506705
_cell_length_c   7.58907098
_cell_angle_alpha   102.31972555
_cell_angle_beta   91.13300048
_cell_angle_gamma   93.74499221
_symmetry_Int_Tables_number   1
_chemical_formula_structural   BaMnP2O7
_chemical_formula_sum   'Ba2 Mn2 P4 O14'
_cell_volume   291.12651906
_cell_formula_units_Z   2
loop_
 _symmetry_equiv_pos_site_id
 _symmetry_equiv_pos_as_xyz
  1  'x, y, z'
loop_
 _atom_site_type_symbol
 _atom_site_label
 _atom_site_symmetry_multiplicity
 _atom_site_fract_x
 _atom_site_fract_y
 _atom_site_fract_z
 _atom_site_occupancy
  Ba  Ba0  1  0.21381336  0.77279365  0.93307712  1
  Ba  Ba1  1  0.78618664  0.22720635  0.06692288  1
  Mn  Mn0  1  0.20128192  0.62409541  0.39850340  1
  Mn  Mn1  1  0.79871808  0.37590459  0.60149660  1
  P  P0  1  0.70677752  0.73223187  0.20871394  1
  P  P1  1  0.29322248  0.26776813  0.79128606  1
  P  P2  1  0.71265673  0.82124861  0.59855929  1
  P  P3  1  0.28734327  0.17875139  0.40144071  1
  O  O0  1  0.54740344  0.26670930  0.39191916  1
  O  O1  1  0.45259656  0.73329070  0.60808084  1
  O  O2  1  0.78026311  0.99918094  0.73365558  1
  O  O3  1  0.21973689  0.00081906  0.26634442  1
  O  O4  1  0.10005210  0.33165878  0.40317704  1
  O  O5  1  0.89994790  0.66834122  0.59682296  1
  O  O6  1  0.73031905  0.87433916  0.40318649  1
  O  O7  1  0.26968095  0.12566084  0.59681351  1
  O  O8  1  0.07117690  0.38824616  0.80357450  1
  O  O9  1  0.92882310  0.61175384  0.19642550  1
  O  O10  1  0.53355342  0.38925984  0.79955871  1
  O  O11  1  0.46644658  0.61074016  0.20044029  1
  O  O12  1  0.28745771  0.14869042  0.93147382  1
  O  O13  1  0.71254229  0.85130958  0.06852618  1
loop_
_geom_bond_atom_site_label_1
_geom_bond_atom_site_label_2
_geom_bond_distance
_geom_bond_site_symmetry_2
Ba0 O3 2.707184 1_566
Ba0 O12 2.725643 1_565
Ba0 O1 2.779917 1_555
Ba0 O8 2.798227 1_555
Ba0 O13 2.860875 1_556
Ba0 O11 2.915006 1_556
Ba0 O9 2.938938 1_456
Ba0 O5 2.972637 1_455
Ba0 O13 2.980763 1_456
Ba1 O2 2.707184 1_544
Ba1 O13 2.725643 1_545
Ba1 O0 2.779917 1_555
Ba1 O9 2.798227 1_555
Ba1 O12 2.860875 1_554
Ba1 O10 2.915012 1_554
Ba1 O8 2.938938 1_654
Ba1 O4 2.972637 1_655
Ba1 O12 2.980763 1_654
Mn0 O1 2.064199 1_555
Mn0 O9 2.095862 1_455
Mn0 O11 2.095951 1_555
Mn0 O4 2.159138 1_555
Mn0 O5 2.239951 1_455
Mn1 O0 2.064199 1_555
Mn1 O8 2.095862 1_655
Mn1 O10 2.095945 1_555
Mn1 O5 2.159138 1_555
Mn1 O4 2.239951 1_655
O0 P3 1.522868 1_555
O1 P2 1.522868 1_555
O2 P2 1.484508 1_555
O3 P3 1.484508 1_555
O4 P3 1.550648 1_555
O5 P2 1.550648 1_555
O6 P0 1.606076 1_555
O6 P2 1.612149 1_555
O7 P1 1.606076 1_555
O7 P3 1.612149 1_555
O8 P1 1.528401 1_555
O9 P0 1.528401 1_555
O10 P1 1.519917 1_555
O11 P0 1.519916 1_555
O12 P1 1.504668 1_555
O13 P0 1.504668 1_555
