# generated using pymatgen
data_GaFe2Co
_symmetry_space_group_name_H-M   'P 1'
_cell_length_a   4.03858947
_cell_length_b   4.03858947
_cell_length_c   4.03858947
_cell_angle_alpha   60.00000000
_cell_angle_beta   60.00000000
_cell_angle_gamma   60.00000000
_symmetry_Int_Tables_number   1
_chemical_formula_structural   GaFe2Co
_chemical_formula_sum   'Ga1 Fe2 Co1'
_cell_volume   46.57728047
_cell_formula_units_Z   1
loop_
 _symmetry_equiv_pos_site_id
 _symmetry_equiv_pos_as_xyz
  1  'x, y, z'
loop_
 _atom_site_type_symbol
 _atom_site_label
 _atom_site_symmetry_multiplicity
 _atom_site_fract_x
 _atom_site_fract_y
 _atom_site_fract_z
 _atom_site_occupancy
  Ga  Ga0  1  0.00000000  0.00000000  0.00000000  1
  Fe  Fe0  1  0.25000000  0.25000000  0.25000000  1
  Fe  Fe1  1  0.50000000  0.50000000  0.50000000  1
  Co  Co0  1  0.75000000  0.75000000  0.75000000  1
loop_
_geom_bond_atom_site_label_1
_geom_bond_atom_site_label_2
_geom_bond_distance
_geom_bond_site_symmetry_2
Fe0 Ga0 2.473121 1_565
Fe0 Ga0 2.473121 1_556
Fe0 Ga0 2.473121 1_655
Fe0 Ga0 2.473121 1_555
Fe0 Fe1 2.473121 1_545
Fe0 Fe1 2.473121 1_555
Fe0 Fe1 2.473121 1_455
Fe0 Fe1 2.473121 1_554
Co0 Fe1 2.473121 1_565
Co0 Ga0 2.473121 1_666
Co0 Ga0 2.473121 1_656
Co0 Ga0 2.473121 1_665
Co0 Ga0 2.473121 1_566
Co0 Fe1 2.473121 1_555
Co0 Fe1 2.473121 1_556
Co0 Fe1 2.473121 1_655
Co0 Fe0 2.855714 1_565
Co0 Fe0 2.855714 1_655
Co0 Fe0 2.855714 1_656
Co0 Fe0 2.855714 1_665
Co0 Fe0 2.855714 1_566
Co0 Fe0 2.855714 1_556
