# generated using pymatgen
data_Nd4MnS7
_symmetry_space_group_name_H-M   'P 1'
_cell_length_a   9.85297059
_cell_length_b   9.85297059
_cell_length_c   6.99540000
_cell_angle_alpha   90.00000000
_cell_angle_beta   90.00000000
_cell_angle_gamma   120.00000394
_symmetry_Int_Tables_number   1
_chemical_formula_structural   Nd4MnS7
_chemical_formula_sum   'Nd8 Mn2 S14'
_cell_volume   588.13569700
_cell_formula_units_Z   2
loop_
 _symmetry_equiv_pos_site_id
 _symmetry_equiv_pos_as_xyz
  1  'x, y, z'
loop_
 _atom_site_type_symbol
 _atom_site_label
 _atom_site_symmetry_multiplicity
 _atom_site_fract_x
 _atom_site_fract_y
 _atom_site_fract_z
 _atom_site_occupancy
  Nd  Nd0  1  0.21351000  0.37766900  0.26744300  1
  Nd  Nd1  1  0.62233100  0.83584100  0.26744300  1
  Nd  Nd2  1  0.16415900  0.78649000  0.26744300  1
  Nd  Nd3  1  0.78649000  0.62233100  0.76744300  1
  Nd  Nd4  1  0.37766900  0.16415900  0.76744300  1
  Nd  Nd5  1  0.83584100  0.21351000  0.76744300  1
  Nd  Nd6  1  0.33333300  0.66666700  0.81402000  1
  Nd  Nd7  1  0.66666700  0.33333300  0.31402000  1
  Mn  Mn0  1  0.00000000  0.00000000  0.49455300  1
  Mn  Mn1  1  0.00000000  0.00000000  0.99455300  1
  S  S0  1  0.13310800  0.24478600  0.66366000  1
  S  S1  1  0.75521400  0.88832100  0.66366000  1
  S  S2  1  0.11167800  0.86689200  0.66366000  1
  S  S3  1  0.86689200  0.75521400  0.16366000  1
  S  S4  1  0.24478600  0.11167800  0.16366000  1
  S  S5  1  0.88832100  0.13310800  0.16366000  1
  S  S6  1  0.07380900  0.51796700  0.03089200  1
  S  S7  1  0.48203300  0.55584200  0.03089200  1
  S  S8  1  0.44415800  0.92619100  0.03089200  1
  S  S9  1  0.92619100  0.48203300  0.53089200  1
  S  S10  1  0.51796700  0.44415800  0.53089200  1
  S  S11  1  0.55584200  0.07380900  0.53089200  1
  S  S12  1  0.33333300  0.66666700  0.43247300  1
  S  S13  1  0.66666700  0.33333300  0.93247300  1
loop_
_geom_bond_atom_site_label_1
_geom_bond_atom_site_label_2
_geom_bond_distance
_geom_bond_site_symmetry_2
Nd0 S12 2.733681 1_555
Nd0 S7 2.859273 1_555
Nd0 S4 2.880673 1_555
Nd0 S6 2.906302 1_555
Nd0 S5 2.979749 1_455
Nd0 S0 2.997817 1_555
Nd0 S10 3.295328 1_555
Nd1 S12 2.733680 1_555
Nd1 S8 2.859274 1_555
Nd1 S5 2.880669 1_565
Nd1 S7 2.906302 1_555
Nd1 S3 2.979743 1_555
Nd1 S1 2.997817 1_555
Nd1 S11 3.295328 1_565
Nd2 S12 2.733673 1_555
Nd2 S6 2.859274 1_555
Nd2 S3 2.880673 1_455
Nd2 S8 2.906302 1_555
Nd2 S4 2.979743 1_565
Nd2 S2 2.997817 1_555
Nd2 S9 3.295328 1_455
Nd3 S13 2.733681 1_555
Nd3 S10 2.859273 1_555
Nd3 S1 2.880663 1_555
Nd3 S9 2.906302 1_555
Nd3 S2 2.979743 1_655
Nd3 S3 2.997817 1_556
Nd3 S7 3.295328 1_556
Nd4 S13 2.733680 1_555
Nd4 S11 2.859274 1_555
Nd4 S2 2.880673 1_545
Nd4 S10 2.906302 1_555
Nd4 S0 2.979743 1_555
Nd4 S4 2.997817 1_556
Nd4 S8 3.295328 1_546
Nd5 S13 2.733673 1_555
Nd5 S9 2.859274 1_555
Nd5 S0 2.880673 1_655
Nd5 S11 2.906302 1_555
Nd5 S1 2.979752 1_545
Nd5 S5 2.997814 1_556
Nd5 S6 3.295328 1_656
Nd6 S12 2.669074 1_555
Nd6 S8 2.690804 1_556
Nd6 S6 2.690805 1_556
Nd6 S7 2.690812 1_556
Nd7 S13 2.669074 1_554
Nd7 S11 2.690804 1_555
Nd7 S9 2.690805 1_555
Nd7 S10 2.690812 1_555
Mn0 S1 2.402790 1_445
Mn0 S0 2.402790 1_555
Mn0 S2 2.402790 1_545
Mn0 S3 3.119607 1_445
Mn0 S4 3.119607 1_555
Mn0 S5 3.119613 1_455
Mn1 S3 2.402790 1_446
Mn1 S4 2.402790 1_556
Mn1 S5 2.402798 1_456
Mn1 S1 3.119607 1_445
Mn1 S0 3.119607 1_555
Mn1 S2 3.119608 1_545
