# generated using pymatgen
data_CdPdF4
_symmetry_space_group_name_H-M   'P 1'
_cell_length_a   5.51488800
_cell_length_b   5.51763300
_cell_length_c   5.53919453
_cell_angle_alpha   88.92357101
_cell_angle_beta   90.00000000
_cell_angle_gamma   90.00000000
_symmetry_Int_Tables_number   1
_chemical_formula_structural   CdPdF4
_chemical_formula_sum   'Cd2 Pd2 F8'
_cell_volume   168.52311410
_cell_formula_units_Z   2
loop_
 _symmetry_equiv_pos_site_id
 _symmetry_equiv_pos_as_xyz
  1  'x, y, z'
loop_
 _atom_site_type_symbol
 _atom_site_label
 _atom_site_symmetry_multiplicity
 _atom_site_fract_x
 _atom_site_fract_y
 _atom_site_fract_z
 _atom_site_occupancy
  Cd  Cd0  1  0.50000000  0.00000000  0.50000000  1
  Cd  Cd1  1  0.00000000  0.50000000  0.50000000  1
  Pd  Pd0  1  0.50000000  0.50000000  0.00000000  1
  Pd  Pd1  1  0.00000000  0.00000000  0.00000000  1
  F  F0  1  0.83121500  0.67176700  0.83896700  1
  F  F1  1  0.33121500  0.82823300  0.16103300  1
  F  F2  1  0.16022500  0.15760700  0.66679400  1
  F  F3  1  0.66022500  0.34239300  0.33320600  1
  F  F4  1  0.16878500  0.32823300  0.16103300  1
  F  F5  1  0.66878500  0.17176700  0.83896700  1
  F  F6  1  0.83977500  0.84239300  0.33320600  1
  F  F7  1  0.33977500  0.65760700  0.66679400  1
loop_
_geom_bond_atom_site_label_1
_geom_bond_atom_site_label_2
_geom_bond_distance
_geom_bond_site_symmetry_2
Cd0 F3 2.266690 1_555
Cd0 F7 2.266690 1_545
Cd0 F6 2.269631 1_545
Cd0 F2 2.269631 1_555
Cd0 F5 2.314504 1_555
Cd0 F1 2.314504 1_545
Cd1 F2 2.266690 1_555
Cd1 F6 2.266690 1_455
Cd1 F7 2.269631 1_555
Cd1 F3 2.269631 1_455
Cd1 F0 2.314504 1_455
Cd1 F4 2.314504 1_555
F0 Pd0 2.235762 1_556
F0 Pd1 2.236686 1_666
F1 Pd1 2.235762 1_565
F1 Pd0 2.236686 1_555
F2 Pd1 2.209819 1_556
F3 Pd0 2.209819 1_555
F4 Pd0 2.235762 1_555
F4 Pd1 2.236686 1_555
F5 Pd1 2.235762 1_656
F5 Pd0 2.236686 1_556
F6 Pd1 2.209819 1_665
F7 Pd0 2.209819 1_556
