# generated using pymatgen
data_NaSr2(FeAs)6
_symmetry_space_group_name_H-M   'P 1'
_cell_length_a   5.51590271
_cell_length_b   6.51737211
_cell_length_c   8.85506829
_cell_angle_alpha   114.12208189
_cell_angle_beta   71.85308938
_cell_angle_gamma   90.00000000
_symmetry_Int_Tables_number   1
_chemical_formula_structural   NaSr2(FeAs)6
_chemical_formula_sum   'Na1 Sr2 Fe6 As6'
_cell_volume   273.09423207
_cell_formula_units_Z   1
loop_
 _symmetry_equiv_pos_site_id
 _symmetry_equiv_pos_as_xyz
  1  'x, y, z'
loop_
 _atom_site_type_symbol
 _atom_site_label
 _atom_site_symmetry_multiplicity
 _atom_site_fract_x
 _atom_site_fract_y
 _atom_site_fract_z
 _atom_site_occupancy
  Na  Na0  1  0.00000000  0.00000000  0.00000000  1
  Sr  Sr0  1  0.33701433  0.00066315  0.32597034  1
  Sr  Sr1  1  0.66298567  -0.00066315  0.67402966  1
  Fe  Fe0  1  0.41677349  0.49831471  0.66655022  1
  Fe  Fe1  1  0.08332271  0.50168529  0.33344978  1
  Fe  Fe2  1  0.75029610  0.50000000  -0.00000000  1
  Fe  Fe3  1  0.24970390  0.50000000  -0.00000000  1
  Fe  Fe4  1  0.91667729  0.49831471  0.66655022  1
  Fe  Fe5  1  0.58322651  0.50168529  0.33344978  1
  As  As0  1  0.11976414  0.28611836  0.76047273  1
  As  As1  1  0.78522068  0.29087516  0.42955764  1
  As  As2  1  0.45091370  0.28781526  0.09817259  1
  As  As3  1  0.54908630  0.71218474  0.90182741  1
  As  As4  1  0.21477932  0.70912484  0.57044236  1
  As  As5  1  0.88023586  0.71388164  0.23952727  1
loop_
_geom_bond_atom_site_label_1
_geom_bond_atom_site_label_2
_geom_bond_distance
_geom_bond_site_symmetry_2
As0 Fe0 2.319403 1_555
As0 Fe4 2.319403 1_455
As0 Fe3 2.342200 1_556
As0 Fe2 2.342203 1_456
As0 Sr1 3.234097 1_555
As0 Sr1 3.234097 1_455
As0 Na0 3.282140 1_556
As0 Sr0 3.313312 1_555
As1 Fe0 2.320871 1_555
As1 Fe4 2.320878 1_555
As1 Fe5 2.323729 1_555
As1 Fe1 2.323729 1_655
As1 Sr0 3.244295 1_555
As1 Sr0 3.244295 1_655
As1 Na0 3.280999 1_655
As1 Sr1 3.347257 1_555
As2 Fe5 2.321548 1_555
As2 Fe1 2.321551 1_555
As2 Fe3 2.341686 1_555
As2 Fe2 2.341686 1_555
As2 Sr0 3.203481 1_555
As2 Na0 3.236430 1_555
As2 Na0 3.236430 1_655
As2 Sr1 3.240512 1_554
As3 Fe0 2.321548 1_555
As3 Fe4 2.321551 1_555
As3 Fe2 2.341686 1_556
As3 Fe3 2.341686 1_556
As3 Sr1 3.203481 1_565
As3 Na0 3.236430 1_666
As3 Na0 3.236430 1_566
As3 Sr0 3.240512 1_566
As4 Fe5 2.320871 1_555
As4 Fe1 2.320878 1_555
As4 Fe4 2.323729 1_455
As4 Fe0 2.323729 1_555
As4 Sr1 3.244295 1_565
As4 Sr1 3.244295 1_465
As4 Na0 3.280999 1_566
As4 Sr0 3.347257 1_565
As5 Fe5 2.319403 1_555
As5 Fe1 2.319403 1_655
As5 Fe2 2.342200 1_555
As5 Fe3 2.342203 1_655
As5 Sr0 3.234097 1_565
As5 Sr0 3.234097 1_665
As5 Na0 3.282140 1_665
As5 Sr1 3.313312 1_565
