# generated using pymatgen
data_LaCuPd
_symmetry_space_group_name_H-M   'P 1'
_cell_length_a   7.41851796
_cell_length_b   7.41851796
_cell_length_c   4.03038300
_cell_angle_alpha   90.00000000
_cell_angle_beta   90.00000000
_cell_angle_gamma   119.99999964
_symmetry_Int_Tables_number   1
_chemical_formula_structural   LaCuPd
_chemical_formula_sum   'La3 Cu3 Pd3'
_cell_volume   192.09287495
_cell_formula_units_Z   3
loop_
 _symmetry_equiv_pos_site_id
 _symmetry_equiv_pos_as_xyz
  1  'x, y, z'
loop_
 _atom_site_type_symbol
 _atom_site_label
 _atom_site_symmetry_multiplicity
 _atom_site_fract_x
 _atom_site_fract_y
 _atom_site_fract_z
 _atom_site_occupancy
  La  La0  1  0.59997200  0.00000000  0.00000000  1
  La  La1  1  0.00000000  0.59997200  0.00000000  1
  La  La2  1  0.40002800  0.40002800  0.00000000  1
  Cu  Cu0  1  0.24391900  0.00000000  0.50000000  1
  Cu  Cu1  1  0.00000000  0.24391900  0.50000000  1
  Cu  Cu2  1  0.75608100  0.75608100  0.50000000  1
  Pd  Pd0  1  0.33333300  0.66666700  0.50000000  1
  Pd  Pd1  1  0.66666700  0.33333300  0.50000000  1
  Pd  Pd2  1  0.00000000  0.00000000  0.00000000  1
loop_
_geom_bond_atom_site_label_1
_geom_bond_atom_site_label_2
_geom_bond_distance
_geom_bond_site_symmetry_2
La0 Pd2 2.967615 1_655
La0 Pd1 3.032692 1_554
La0 Pd1 3.032692 1_555
La0 Pd0 3.032693 1_544
La0 Pd0 3.032693 1_545
La1 Pd2 2.967615 1_565
La1 Pd0 3.032692 1_555
La1 Pd0 3.032692 1_554
La1 Pd1 3.032693 1_454
La1 Pd1 3.032693 1_455
La2 Pd2 2.967615 1_555
La2 Pd1 3.032697 1_555
La2 Pd1 3.032697 1_554
La2 Pd0 3.032697 1_555
La2 Pd0 3.032697 1_554
Cu0 Pd2 2.708385 1_556
Cu0 Pd2 2.708385 1_555
Cu0 Pd0 2.862725 1_545
Cu0 Pd1 2.862730 1_555
Cu0 La2 3.282093 1_556
Cu0 La2 3.282093 1_555
Cu0 La1 3.282093 1_545
Cu0 La1 3.282093 1_546
Cu0 La0 3.322336 1_556
Cu0 La0 3.322336 1_555
Cu1 Pd2 2.708385 1_556
Cu1 Pd2 2.708385 1_555
Cu1 Pd1 2.862725 1_455
Cu1 Pd0 2.862730 1_555
Cu1 La2 3.282093 1_556
Cu1 La2 3.282093 1_555
Cu1 La0 3.282093 1_455
Cu1 La0 3.282093 1_456
Cu1 La1 3.322336 1_555
Cu1 La1 3.322336 1_556
Cu2 Pd2 2.708385 1_665
Cu2 Pd2 2.708385 1_666
Cu2 Pd1 2.862732 1_555
Cu2 Pd0 2.862732 1_555
Cu2 La0 3.282093 1_566
Cu2 La1 3.282093 1_655
Cu2 La0 3.282093 1_565
Cu2 La1 3.282093 1_656
Cu2 La2 3.322336 1_556
Cu2 La2 3.322336 1_555
