# generated using pymatgen
data_K2SbAuI6
_symmetry_space_group_name_H-M   'P 1'
_cell_length_a   8.46582180
_cell_length_b   8.46582180
_cell_length_c   8.46582180
_cell_angle_alpha   60.00000000
_cell_angle_beta   60.00000000
_cell_angle_gamma   60.00000000
_symmetry_Int_Tables_number   1
_chemical_formula_structural   K2SbAuI6
_chemical_formula_sum   'K2 Sb1 Au1 I6'
_cell_volume   429.03465094
_cell_formula_units_Z   1
loop_
 _symmetry_equiv_pos_site_id
 _symmetry_equiv_pos_as_xyz
  1  'x, y, z'
loop_
 _atom_site_type_symbol
 _atom_site_label
 _atom_site_symmetry_multiplicity
 _atom_site_fract_x
 _atom_site_fract_y
 _atom_site_fract_z
 _atom_site_occupancy
  K  K0  1  0.75000000  0.75000000  0.75000000  1
  K  K1  1  0.25000000  0.25000000  0.25000000  1
  Sb  Sb0  1  0.00000000  0.00000000  0.00000000  1
  Au  Au0  1  0.50000000  0.50000000  0.50000000  1
  I  I0  1  0.74682600  0.25317400  0.25317400  1
  I  I1  1  0.25317400  0.25317400  0.74682600  1
  I  I2  1  0.25317400  0.74682600  0.74682600  1
  I  I3  1  0.25317400  0.74682600  0.25317400  1
  I  I4  1  0.74682600  0.25317400  0.74682600  1
  I  I5  1  0.74682600  0.74682600  0.25317400  1
loop_
_geom_bond_atom_site_label_1
_geom_bond_atom_site_label_2
_geom_bond_distance
_geom_bond_site_symmetry_2
Au0 I2 2.955119 1_555
Au0 I3 2.955119 1_555
Au0 I0 2.955119 1_555
Au0 I1 2.955119 1_555
Au0 I4 2.955119 1_555
Au0 I5 2.955119 1_555
I0 Sb0 3.031121 1_655
I1 Sb0 3.031121 1_556
I2 Sb0 3.031121 1_566
I3 Sb0 3.031121 1_565
I4 Sb0 3.031121 1_656
I5 Sb0 3.031121 1_665
