# generated using pymatgen
data_K3ReC4(N2O)2
_symmetry_space_group_name_H-M   'P 1'
_cell_length_a   7.07158184
_cell_length_b   9.93434637
_cell_length_c   7.31741715
_cell_angle_alpha   108.49908157
_cell_angle_beta   123.43337654
_cell_angle_gamma   100.12936187
_symmetry_Int_Tables_number   1
_chemical_formula_structural   K3ReC4(N2O)2
_chemical_formula_sum   'K3 Re1 C4 N4 O2'
_cell_volume   364.70794670
_cell_formula_units_Z   1
loop_
 _symmetry_equiv_pos_site_id
 _symmetry_equiv_pos_as_xyz
  1  'x, y, z'
loop_
 _atom_site_type_symbol
 _atom_site_label
 _atom_site_symmetry_multiplicity
 _atom_site_fract_x
 _atom_site_fract_y
 _atom_site_fract_z
 _atom_site_occupancy
  K  K0  1  0.50000000  0.50000000  0.50000000  1
  K  K1  1  0.63899200  0.91663100  0.25948200  1
  K  K2  1  0.36100800  0.08336900  0.74051800  1
  Re  Re0  1  0.00000000  0.00000000  0.00000000  1
  C  C0  1  0.07332100  0.79945500  0.98579100  1
  C  C1  1  0.92667900  0.20054500  0.01420900  1
  C  C2  1  0.61172600  0.85121700  0.76864300  1
  C  C3  1  0.38827400  0.14878300  0.23135700  1
  N  N0  1  0.11846000  0.69039200  0.97939500  1
  N  N1  1  0.88154000  0.30960800  0.02060500  1
  N  N2  1  0.39899300  0.76739900  0.65543400  1
  N  N3  1  0.60100700  0.23260100  0.34456600  1
  O  O0  1  0.02958200  0.03346800  0.27431600  1
  O  O1  1  0.97041800  0.96653200  0.72568400  1
loop_
_geom_bond_atom_site_label_1
_geom_bond_atom_site_label_2
_geom_bond_distance
_geom_bond_site_symmetry_2
K0 N2 2.916469 1_555
K0 N3 2.916469 1_555
K0 N0 3.314309 1_655
K0 N1 3.314309 1_455
K1 O1 2.661613 1_555
K1 O0 2.729495 1_665
K2 O0 2.661613 1_555
K2 O1 2.729495 1_445
C0 N0 1.176402 1_555
C0 Re0 2.130761 1_566
C0 K0 3.330067 1_455
C1 N1 1.176402 1_555
C1 Re0 2.130761 1_655
C1 K0 3.330067 1_655
C2 N2 1.179457 1_555
C2 Re0 2.110006 1_666
C2 K0 3.103041 1_555
C3 N3 1.179457 1_555
C3 Re0 2.110006 1_555
C3 K0 3.103041 1_555
O0 Re0 1.809092 1_555
O1 Re0 1.809092 1_666
