# generated using pymatgen
data_Ce2AgGe6
_symmetry_space_group_name_H-M   'P 1'
_cell_length_a   4.16087039
_cell_length_b   4.21998604
_cell_length_c   11.31499018
_cell_angle_alpha   90.00000000
_cell_angle_beta   100.59498991
_cell_angle_gamma   90.00000000
_symmetry_Int_Tables_number   1
_chemical_formula_structural   Ce2AgGe6
_chemical_formula_sum   'Ce2 Ag1 Ge6'
_cell_volume   195.29064618
_cell_formula_units_Z   1
loop_
 _symmetry_equiv_pos_site_id
 _symmetry_equiv_pos_as_xyz
  1  'x, y, z'
loop_
 _atom_site_type_symbol
 _atom_site_label
 _atom_site_symmetry_multiplicity
 _atom_site_fract_x
 _atom_site_fract_y
 _atom_site_fract_z
 _atom_site_occupancy
  Ce  Ce0  1  0.77906395  0.50000000  0.55812789  1
  Ce  Ce1  1  0.11666706  0.50000000  0.23333412  1
  Ag  Ag0  1  0.55981633  0.00000000  0.11963265  1
  Ge  Ge0  1  0.49214741  0.50000000  0.98429483  1
  Ge  Ge1  1  0.38003487  0.50000000  0.76006973  1
  Ge  Ge2  1  0.99140375  0.00000000  0.98280751  1
  Ge  Ge3  1  0.87906739  0.00000000  0.75813477  1
  Ge  Ge4  1  0.67187426  -0.00000000  0.34374853  1
  Ge  Ge5  1  0.23692498  0.00000000  0.47384996  1
loop_
_geom_bond_atom_site_label_1
_geom_bond_atom_site_label_2
_geom_bond_distance
_geom_bond_site_symmetry_2
Ce0 Ge1 3.061502 1_555
Ce0 Ge1 3.061502 1_655
Ce0 Ge3 3.066014 1_565
Ce0 Ge3 3.066014 1_555
Ce0 Ge5 3.107877 1_655
Ce0 Ge5 3.107877 1_665
Ce0 Ge5 3.107877 1_565
Ce0 Ge5 3.107877 1_555
Ce0 Ge4 3.183893 1_555
Ce0 Ge4 3.183893 1_565
Ce1 Ge4 3.207547 1_565
Ce1 Ge4 3.207547 1_555
Ce1 Ge4 3.207547 1_465
Ce1 Ge4 3.207547 1_455
Ce1 Ge5 3.407037 1_555
Ce1 Ge5 3.407037 1_565
Ce1 Ge0 3.464131 1_554
Ce1 Ge0 3.464131 1_454
Ce1 Ge2 3.495136 1_464
Ce1 Ge2 3.495136 1_454
Ag0 Ge4 2.492636 1_555
Ag0 Ge2 2.577601 1_554
Ag0 Ge2 2.577601 1_454
Ag0 Ge0 2.591875 1_544
Ag0 Ge0 2.591875 1_554
Ag0 Ce1 3.221721 1_655
Ag0 Ce1 3.221721 1_645
Ag0 Ce1 3.221721 1_555
Ag0 Ce1 3.221721 1_545
Ge0 Ge1 2.493851 1_555
Ge0 Ge2 2.963200 1_555
Ge0 Ge2 2.963200 1_565
Ge0 Ge2 2.963200 1_465
Ge0 Ge2 2.963200 1_455
Ge1 Ge3 2.963232 1_555
Ge1 Ge3 2.963232 1_565
Ge1 Ge3 2.963232 1_465
Ge1 Ge3 2.963232 1_455
Ge2 Ge3 2.498829 1_555
Ge4 Ge5 2.534170 1_555
Ge4 Ge5 2.534170 1_655
