# generated using pymatgen
data_Mg6TiCd
_symmetry_space_group_name_H-M   'P 1'
_cell_length_a   4.98136100
_cell_length_b   6.27977200
_cell_length_c   11.01019700
_cell_angle_alpha   90.00000000
_cell_angle_beta   90.00000000
_cell_angle_gamma   90.00000000
_symmetry_Int_Tables_number   1
_chemical_formula_structural   Mg6TiCd
_chemical_formula_sum   'Mg12 Ti2 Cd2'
_cell_volume   344.41890526
_cell_formula_units_Z   2
loop_
 _symmetry_equiv_pos_site_id
 _symmetry_equiv_pos_as_xyz
  1  'x, y, z'
loop_
 _atom_site_type_symbol
 _atom_site_label
 _atom_site_symmetry_multiplicity
 _atom_site_fract_x
 _atom_site_fract_y
 _atom_site_fract_z
 _atom_site_occupancy
  Mg  Mg0  1  0.50000000  0.24739100  0.41734200  1
  Mg  Mg1  1  0.50000000  0.75260900  0.41734200  1
  Mg  Mg2  1  0.00000000  0.75542500  0.08503400  1
  Mg  Mg3  1  0.00000000  0.24457500  0.08503400  1
  Mg  Mg4  1  0.00000000  0.00000000  0.32921900  1
  Mg  Mg5  1  0.00000000  0.50000000  0.33275300  1
  Mg  Mg6  1  0.50000000  0.74739100  0.91734200  1
  Mg  Mg7  1  0.50000000  0.25260900  0.91734200  1
  Mg  Mg8  1  0.00000000  0.25542500  0.58503400  1
  Mg  Mg9  1  0.00000000  0.74457500  0.58503400  1
  Mg  Mg10  1  0.00000000  0.50000000  0.82921900  1
  Mg  Mg11  1  0.00000000  0.00000000  0.83275300  1
  Ti  Ti0  1  0.50000000  0.00000000  0.16787200  1
  Ti  Ti1  1  0.50000000  0.50000000  0.66787200  1
  Cd  Cd0  1  0.50000000  0.50000000  0.16540000  1
  Cd  Cd1  1  0.50000000  0.00000000  0.66540000  1
loop_
_geom_bond_atom_site_label_1
_geom_bond_atom_site_label_2
_geom_bond_distance
_geom_bond_site_symmetry_2
Mg0 Mg4 3.091670 1_555
Mg0 Mg4 3.091670 1_655
Mg0 Mg5 3.096340 1_555
Mg0 Mg5 3.096340 1_655
Mg0 Mg8 3.100797 1_555
Mg0 Mg8 3.100797 1_655
Mg0 Mg1 3.107118 1_545
Mg0 Ti0 3.155627 1_555
Mg0 Mg1 3.172654 1_555
Mg0 Ti1 3.181999 1_555
Mg1 Mg4 3.091670 1_565
Mg1 Mg4 3.091670 1_665
Mg1 Mg5 3.096340 1_655
Mg1 Mg5 3.096340 1_555
Mg1 Mg9 3.100797 1_655
Mg1 Mg9 3.100797 1_555
Mg1 Ti0 3.155627 1_565
Mg1 Ti1 3.181999 1_555
Mg2 Ti0 3.065006 1_465
Mg2 Ti0 3.065006 1_565
Mg2 Mg3 3.071750 1_565
Mg2 Mg4 3.096301 1_565
Mg2 Mg6 3.100797 1_454
Mg2 Mg6 3.100797 1_554
Mg2 Mg5 3.164135 1_555
Mg2 Mg3 3.208022 1_555
Mg3 Ti0 3.065006 1_555
Mg3 Ti0 3.065006 1_455
Mg3 Mg4 3.096301 1_555
Mg3 Mg7 3.100797 1_554
Mg3 Mg7 3.100797 1_454
Mg3 Mg5 3.164135 1_555
Mg4 Ti0 3.059299 1_555
Mg4 Ti0 3.059299 1_455
Mg4 Mg5 3.140127 1_555
Mg4 Mg5 3.140127 1_545
Mg4 Mg8 3.241286 1_555
Mg4 Mg9 3.241286 1_545
Mg5 Mg8 3.174008 1_555
Mg5 Mg9 3.174008 1_555
Mg6 Mg7 3.107118 1_555
Mg6 Ti1 3.155627 1_555
Mg6 Mg7 3.172654 1_565
Mg6 Ti0 3.181999 1_566
Mg7 Ti1 3.155627 1_555
Mg7 Ti0 3.181999 1_556
Mg8 Ti1 3.065006 1_555
Mg8 Ti1 3.065006 1_455
Mg8 Mg9 3.071750 1_555
Mg8 Mg9 3.208022 1_545
Mg9 Ti1 3.065006 1_555
Mg9 Ti1 3.065006 1_455
Mg10 Ti1 3.059299 1_555
Mg10 Ti1 3.059299 1_455
Mg10 Mg6 3.091670 1_555
Mg10 Mg7 3.091670 1_455
Mg10 Mg7 3.091670 1_555
Mg10 Mg6 3.091670 1_455
Mg10 Mg8 3.096301 1_555
Mg10 Mg9 3.096301 1_555
Mg10 Mg11 3.140127 1_555
Mg10 Mg11 3.140127 1_565
Mg10 Mg3 3.241286 1_556
Mg10 Mg2 3.241286 1_556
Mg11 Mg6 3.096340 1_545
Mg11 Mg7 3.096340 1_555
Mg11 Mg6 3.096340 1_445
Mg11 Mg7 3.096340 1_455
Mg11 Mg9 3.164135 1_545
Mg11 Mg8 3.164135 1_555
Mg11 Mg2 3.174008 1_546
Mg11 Mg3 3.174008 1_556
Cd0 Mg2 3.091810 1_555
Cd0 Mg2 3.091810 1_655
Cd0 Mg3 3.091810 1_555
Cd0 Mg3 3.091810 1_655
Cd0 Mg5 3.098165 1_655
Cd0 Mg5 3.098165 1_555
Cd0 Ti0 3.140004 1_565
Cd0 Ti0 3.140004 1_555
Cd0 Mg6 3.142105 1_554
Cd0 Mg7 3.142105 1_554
Cd0 Mg1 3.195485 1_555
Cd0 Mg0 3.195485 1_555
Cd1 Mg8 3.091810 1_555
Cd1 Mg9 3.091810 1_645
Cd1 Mg8 3.091810 1_655
Cd1 Mg9 3.091810 1_545
Cd1 Mg11 3.098165 1_655
Cd1 Mg11 3.098165 1_555
Cd1 Ti1 3.140004 1_545
Cd1 Ti1 3.140004 1_555
Cd1 Mg0 3.142105 1_555
Cd1 Mg1 3.142105 1_545
Cd1 Mg6 3.195485 1_545
Cd1 Mg7 3.195485 1_555
