# generated using pymatgen
data_MgGaN
_symmetry_space_group_name_H-M   'P 1'
_cell_length_a   7.63417900
_cell_length_b   3.69228400
_cell_length_c   5.80318500
_cell_angle_alpha   90.00000000
_cell_angle_beta   90.00000000
_cell_angle_gamma   90.00000000
_symmetry_Int_Tables_number   1
_chemical_formula_structural   MgGaN
_chemical_formula_sum   'Mg4 Ga4 N4'
_cell_volume   163.57760782
_cell_formula_units_Z   4
loop_
 _symmetry_equiv_pos_site_id
 _symmetry_equiv_pos_as_xyz
  1  'x, y, z'
loop_
 _atom_site_type_symbol
 _atom_site_label
 _atom_site_symmetry_multiplicity
 _atom_site_fract_x
 _atom_site_fract_y
 _atom_site_fract_z
 _atom_site_occupancy
  Mg  Mg0  1  0.61514900  0.25000000  0.38607900  1
  Mg  Mg1  1  0.11514900  0.25000000  0.11392100  1
  Mg  Mg2  1  0.38485100  0.75000000  0.61392100  1
  Mg  Mg3  1  0.88485100  0.75000000  0.88607900  1
  Ga  Ga0  1  0.60095500  0.25000000  0.89872100  1
  Ga  Ga1  1  0.10095500  0.25000000  0.60127900  1
  Ga  Ga2  1  0.39904500  0.75000000  0.10127900  1
  Ga  Ga3  1  0.89904500  0.75000000  0.39872100  1
  N  N0  1  0.82008100  0.25000000  0.07437100  1
  N  N1  1  0.32008100  0.25000000  0.42562900  1
  N  N2  1  0.17991900  0.75000000  0.92562900  1
  N  N3  1  0.67991900  0.75000000  0.57437100  1
loop_
_geom_bond_atom_site_label_1
_geom_bond_atom_site_label_2
_geom_bond_distance
_geom_bond_site_symmetry_2
Mg0 N3 2.201526 1_545
Mg0 N3 2.201526 1_555
Mg0 N1 2.264264 1_555
Mg0 N0 2.391597 1_555
Mg1 N2 2.201526 1_554
Mg1 N2 2.201526 1_544
Mg1 N0 2.264264 1_455
Mg1 N1 2.391597 1_555
Mg2 N1 2.201526 1_565
Mg2 N1 2.201526 1_555
Mg2 N3 2.264264 1_555
Mg2 N2 2.391597 1_555
Mg3 N0 2.201526 1_556
Mg3 N0 2.201526 1_566
Mg3 N2 2.264264 1_655
Mg3 N3 2.391597 1_555
Ga0 N0 1.958941 1_556
Ga1 N1 1.958941 1_555
Ga2 N2 1.958941 1_554
Ga3 N3 1.958941 1_555
