# generated using pymatgen
data_Al5(FeO4)3
_symmetry_space_group_name_H-M   'P 1'
_cell_length_a   5.77712866
_cell_length_b   5.77712866
_cell_length_c   14.09082433
_cell_angle_alpha   89.92215570
_cell_angle_beta   89.92215570
_cell_angle_gamma   59.95524326
_symmetry_Int_Tables_number   1
_chemical_formula_structural   Al5(FeO4)3
_chemical_formula_sum   'Al10 Fe6 O24'
_cell_volume   407.09384288
_cell_formula_units_Z   2
loop_
 _symmetry_equiv_pos_site_id
 _symmetry_equiv_pos_as_xyz
  1  'x, y, z'
loop_
 _atom_site_type_symbol
 _atom_site_label
 _atom_site_symmetry_multiplicity
 _atom_site_fract_x
 _atom_site_fract_y
 _atom_site_fract_z
 _atom_site_occupancy
  Al  Al0  1  0.33570100  0.33570100  0.16342200  1
  Al  Al1  1  0.66429900  0.66429900  0.83657800  1
  Al  Al2  1  0.33576900  0.82844200  0.16301500  1
  Al  Al3  1  0.00000000  0.50000000  0.50000000  1
  Al  Al4  1  0.66423100  0.17155800  0.83698500  1
  Al  Al5  1  0.16016300  0.16016300  0.33785700  1
  Al  Al6  1  0.83983700  0.83983700  0.66214300  1
  Al  Al7  1  0.82844200  0.33576900  0.16301500  1
  Al  Al8  1  0.50000000  0.00000000  0.50000000  1
  Al  Al9  1  0.17155800  0.66423100  0.83698500  1
  Fe  Fe0  1  0.82980400  0.82980400  0.29323800  1
  Fe  Fe1  1  0.49511200  0.49511200  0.62195800  1
  Fe  Fe2  1  0.16615500  0.16615500  0.95345900  1
  Fe  Fe3  1  0.83384500  0.83384500  0.04654100  1
  Fe  Fe4  1  0.50488800  0.50488800  0.37804200  1
  Fe  Fe5  1  0.17019600  0.17019600  0.70676200  1
  O  O0  1  0.01723700  0.01723700  0.24794300  1
  O  O1  1  0.68136600  0.68136600  0.57903600  1
  O  O2  1  0.33850600  0.33850600  0.90100000  1
  O  O3  1  0.66138000  0.17800600  0.09895500  1
  O  O4  1  0.34366700  0.86180800  0.41432900  1
  O  O5  1  0.97837400  0.53977000  0.75366000  1
  O  O6  1  0.50014800  0.50014800  0.23896700  1
  O  O7  1  0.17850500  0.17850500  0.57581000  1
  O  O8  1  0.83395300  0.83395300  0.90559300  1
  O  O9  1  0.17800600  0.66138000  0.09895500  1
  O  O10  1  0.86180800  0.34366700  0.41432900  1
  O  O11  1  0.53977000  0.97837400  0.75366000  1
  O  O12  1  0.16604700  0.16604700  0.09440700  1
  O  O13  1  0.82149500  0.82149500  0.42419000  1
  O  O14  1  0.49985200  0.49985200  0.76103300  1
  O  O15  1  0.46023000  0.02162600  0.24634000  1
  O  O16  1  0.13819200  0.65633300  0.58567100  1
  O  O17  1  0.82199400  0.33862000  0.90104500  1
  O  O18  1  0.66149400  0.66149400  0.09900000  1
  O  O19  1  0.31863400  0.31863400  0.42096400  1
  O  O20  1  0.98276300  0.98276300  0.75205700  1
  O  O21  1  0.02162600  0.46023000  0.24634000  1
  O  O22  1  0.65633300  0.13819200  0.58567100  1
  O  O23  1  0.33862000  0.82199400  0.90104500  1
loop_
_geom_bond_atom_site_label_1
_geom_bond_atom_site_label_2
_geom_bond_distance
_geom_bond_site_symmetry_2
Al0 O3 1.864497 1_555
Al0 O9 1.864497 1_555
Al0 O12 1.958075 1_555
Al0 O6 1.961514 1_555
Al0 O15 1.965788 1_555
Al0 O21 1.965788 1_555
Al1 O23 1.864497 1_555
Al1 O17 1.864497 1_555
Al1 O8 1.958075 1_555
Al1 O14 1.961514 1_555
Al1 O11 1.965788 1_555
Al1 O5 1.965788 1_555
Al2 O9 1.860753 1_555
Al2 O18 1.861519 1_555
Al2 O12 1.944864 1_565
Al2 O6 1.959083 1_555
Al2 O15 1.987593 1_565
Al2 O0 1.998951 1_565
Al3 O10 1.907334 1_455
Al3 O16 1.907334 1_555
Al3 O13 1.932321 1_455
Al3 O7 1.932321 1_555
Al3 O19 1.947533 1_555
Al3 O1 1.947533 1_455
Al4 O17 1.860753 1_555
Al4 O2 1.861519 1_555
Al4 O8 1.944864 1_545
Al4 O14 1.959083 1_555
Al4 O11 1.987593 1_545
Al4 O20 1.998951 1_545
Al5 O4 1.850465 1_545
Al5 O10 1.850465 1_455
Al5 O0 1.912368 1_555
Al5 O19 1.973010 1_555
Al5 O21 1.978898 1_555
Al5 O15 1.978898 1_555
Al6 O16 1.850465 1_655
Al6 O22 1.850465 1_565
Al6 O20 1.912368 1_555
Al6 O1 1.973010 1_555
Al6 O11 1.978898 1_555
Al6 O5 1.978898 1_555
Al7 O3 1.860753 1_555
Al7 O18 1.861519 1_555
Al7 O12 1.944864 1_655
Al7 O6 1.959083 1_555
Al7 O21 1.987593 1_655
Al7 O0 1.998951 1_655
Al8 O4 1.907334 1_545
Al8 O22 1.907334 1_555
Al8 O13 1.932321 1_545
Al8 O7 1.932321 1_555
Al8 O1 1.947533 1_545
Al8 O19 1.947533 1_555
Al9 O23 1.860753 1_555
Al9 O2 1.861519 1_555
Al9 O8 1.944864 1_455
Al9 O14 1.959083 1_555
Al9 O5 1.987593 1_455
Al9 O20 1.998951 1_455
Fe0 O13 1.846964 1_555
Fe0 O21 1.963646 1_655
Fe0 O15 1.963646 1_565
Fe0 O0 1.980584 1_665
Fe1 O16 1.859874 1_555
Fe1 O22 1.859874 1_555
Fe1 O1 1.958886 1_555
Fe1 O14 1.960330 1_555
Fe2 O17 1.873412 1_455
Fe2 O23 1.873412 1_545
Fe2 O2 1.875623 1_555
Fe2 O12 1.986072 1_556
Fe3 O9 1.873412 1_655
Fe3 O3 1.873412 1_565
Fe3 O18 1.875623 1_555
Fe3 O8 1.986072 1_554
Fe4 O10 1.859874 1_555
Fe4 O4 1.859874 1_555
Fe4 O19 1.958886 1_555
Fe4 O6 1.960330 1_555
Fe5 O7 1.846964 1_555
Fe5 O11 1.963646 1_545
Fe5 O5 1.963646 1_455
Fe5 O20 1.980584 1_445
