# generated using pymatgen
data_Ba3SrSm2(CuO2)6
_symmetry_space_group_name_H-M   'P 1'
_cell_length_a   12.59014762
_cell_length_b   12.59014762
_cell_length_c   12.59014762
_cell_angle_alpha   154.75093772
_cell_angle_beta   154.75093772
_cell_angle_gamma   36.00903917
_symmetry_Int_Tables_number   1
_chemical_formula_structural   Ba3SrSm2(CuO2)6
_chemical_formula_sum   'Ba3 Sr1 Sm2 Cu6 O12'
_cell_volume   362.65462845
_cell_formula_units_Z   1
loop_
 _symmetry_equiv_pos_site_id
 _symmetry_equiv_pos_as_xyz
  1  'x, y, z'
loop_
 _atom_site_type_symbol
 _atom_site_label
 _atom_site_symmetry_multiplicity
 _atom_site_fract_x
 _atom_site_fract_y
 _atom_site_fract_z
 _atom_site_occupancy
  Ba  Ba0  1  0.90436400  0.90436400  0.00000000  1
  Ba  Ba1  1  0.09599500  0.09599500  0.00000000  1
  Ba  Ba2  1  0.59571500  0.59571500  0.00000000  1
  Sr  Sr0  1  0.40004600  0.40004600  0.00000000  1
  Sm  Sm0  1  0.75022300  0.75022300  0.00000000  1
  Sm  Sm1  1  0.25026500  0.25026500  0.00000000  1
  Cu  Cu0  1  0.32181900  0.82181900  0.50000000  1
  Cu  Cu1  1  0.82181900  0.32181900  0.50000000  1
  Cu  Cu2  1  0.17903400  0.67903400  0.50000000  1
  Cu  Cu3  1  0.67903400  0.17903400  0.50000000  1
  Cu  Cu4  1  0.99935900  0.49935900  0.50000000  1
  Cu  Cu5  1  0.49935900  0.99935900  0.50000000  1
  O  O0  1  0.56187200  0.06582400  0.00000000  1
  O  O1  1  0.06582400  0.56187200  0.00000000  1
  O  O2  1  0.56187200  0.56187200  0.49604800  1
  O  O3  1  0.06582400  0.06582400  0.50395200  1
  O  O4  1  0.43782000  0.93717800  0.00000000  1
  O  O5  1  0.93717800  0.43782000  0.00000000  1
  O  O6  1  0.43782000  0.43782000  0.50064200  1
  O  O7  1  0.93717800  0.93717800  0.49935800  1
  O  O8  1  0.42366200  0.92366200  0.50000000  1
  O  O9  1  0.92366200  0.42366200  0.50000000  1
  O  O10  1  0.07512700  0.57512700  0.50000000  1
  O  O11  1  0.57512700  0.07512700  0.50000000  1
loop_
_geom_bond_atom_site_label_1
_geom_bond_atom_site_label_2
_geom_bond_distance
_geom_bond_site_symmetry_2
Ba0 O9 2.790253 1_565
Ba0 O9 2.790253 1_554
Ba0 O8 2.790253 1_554
Ba0 O8 2.790253 1_655
Ba0 O3 2.923114 1_665
Ba0 O1 2.923114 1_655
Ba0 O0 2.923114 1_565
Ba0 O2 2.923114 1_554
Ba1 O10 2.796725 1_555
Ba1 O11 2.796725 1_555
Ba1 O10 2.796725 1_544
Ba1 O11 2.796725 1_454
Ba1 O4 2.932127 1_545
Ba1 O5 2.932127 1_455
Ba1 O6 2.932127 1_555
Ba1 O7 2.932127 1_444
Ba2 O10 2.795535 1_554
Ba2 O11 2.795535 1_554
Ba2 O11 2.795535 1_565
Ba2 O10 2.795535 1_655
Ba2 O5 2.933829 1_555
Ba2 O6 2.933829 1_554
Ba2 O4 2.933829 1_555
Ba2 O7 2.933829 1_555
Cu0 O3 1.955158 1_565
Cu0 O0 1.955158 1_566
Cu0 O1 1.955158 1_555
Cu0 O2 1.955158 1_555
Cu0 O8 2.438862 1_555
Cu1 O3 1.955158 1_655
Cu1 O1 1.955158 1_656
Cu1 O0 1.955158 1_555
Cu1 O2 1.955158 1_555
Cu1 O9 2.438862 1_555
Cu2 O6 1.956290 1_555
Cu2 O5 1.956290 1_455
Cu2 O4 1.956290 1_556
Cu2 O7 1.956290 1_455
Cu2 O10 2.488289 1_555
Cu3 O6 1.956290 1_555
Cu3 O4 1.956290 1_545
Cu3 O5 1.956290 1_556
Cu3 O7 1.956290 1_545
Cu3 O11 2.488289 1_555
Cu4 O9 1.812736 1_555
Cu4 O10 1.814437 1_655
Cu5 O8 1.812736 1_555
Cu5 O11 1.814437 1_565
O0 Sm1 2.458615 1_555
O0 Sm0 2.483455 1_545
O0 Sr0 2.826183 1_555
O1 Sm1 2.458615 1_555
O1 Sm0 2.483455 1_455
O1 Sr0 2.826183 1_555
O2 Sm1 2.458615 1_555
O2 Sm0 2.483455 1_556
O2 Sr0 2.826183 1_555
O3 Sm1 2.458615 1_556
O3 Sm0 2.483455 1_445
O3 Sr0 2.826183 1_556
O4 Sm0 2.456108 1_555
O4 Sm1 2.460677 1_565
O5 Sm0 2.456108 1_555
O5 Sm1 2.460677 1_655
O6 Sm0 2.456108 1_556
O6 Sm1 2.460677 1_555
O7 Sm0 2.456108 1_555
O7 Sm1 2.460677 1_666
O8 Sr0 2.809230 1_555
O8 Sr0 2.809230 1_566
O9 Sr0 2.809230 1_555
O9 Sr0 2.809230 1_656
