# generated using pymatgen
data_Ba3SrY2(SbO6)2
_symmetry_space_group_name_H-M   'P 1'
_cell_length_a   6.00025200
_cell_length_b   6.00434182
_cell_length_c   10.38782052
_cell_angle_alpha   73.28364755
_cell_angle_beta   73.21563299
_cell_angle_gamma   60.02710106
_symmetry_Int_Tables_number   1
_chemical_formula_structural   Ba3SrY2(SbO6)2
_chemical_formula_sum   'Ba3 Sr1 Y2 Sb2 O12'
_cell_volume   305.71262871
_cell_formula_units_Z   1
loop_
 _symmetry_equiv_pos_site_id
 _symmetry_equiv_pos_as_xyz
  1  'x, y, z'
loop_
 _atom_site_type_symbol
 _atom_site_label
 _atom_site_symmetry_multiplicity
 _atom_site_fract_x
 _atom_site_fract_y
 _atom_site_fract_z
 _atom_site_occupancy
  Ba  Ba0  1  0.62454000  0.62445000  0.12658000  1
  Ba  Ba1  1  0.12541700  0.12555900  0.62340400  1
  Ba  Ba2  1  0.37421400  0.37513300  0.87459200  1
  Sr  Sr0  1  0.87614800  0.87481400  0.37552500  1
  Y  Y0  1  0.99953400  0.99968800  0.00133000  1
  Y  Y1  1  0.50043100  0.50029100  0.49869600  1
  Sb  Sb0  1  0.24906000  0.24946900  0.25181000  1
  Sb  Sb1  1  0.75091000  0.75056800  0.74816100  1
  O  O0  1  0.12862900  0.60694900  0.13496900  1
  O  O1  1  0.63437100  0.10351800  0.62819500  1
  O  O2  1  0.86760600  0.39492800  0.86786500  1
  O  O3  1  0.36932300  0.89470300  0.36893700  1
  O  O4  1  0.32796500  0.38746200  0.37878800  1
  O  O5  1  0.83841800  0.87873600  0.87771300  1
  O  O6  1  0.66668800  0.62703200  0.61593400  1
  O  O7  1  0.16197500  0.12110600  0.12275700  1
  O  O8  1  0.88483300  0.34861800  0.35856000  1
  O  O9  1  0.38597400  0.85786100  0.85778200  1
  O  O10  1  0.61874700  0.13678700  0.14793100  1
  O  O11  1  0.11521700  0.64232800  0.64047200  1
loop_
_geom_bond_atom_site_label_1
_geom_bond_atom_site_label_2
_geom_bond_distance
_geom_bond_site_symmetry_2
Ba0 O8 2.877919 1_555
Ba0 O7 2.885028 1_565
Ba0 O10 2.889255 1_555
Ba0 O5 2.903853 1_554
Ba0 O3 2.992812 1_555
Ba0 O0 2.999432 1_655
Ba0 O0 3.005025 1_555
Ba0 O2 3.017866 1_554
Ba0 O4 3.122223 1_555
Ba0 O7 3.129159 1_655
Ba0 O10 3.129679 1_565
Ba0 O9 3.140455 1_554
Ba1 O4 2.869518 1_555
Ba1 O11 2.886004 1_545
Ba1 O6 2.890741 1_455
Ba1 O9 2.896842 1_545
Ba1 O3 2.982812 1_545
Ba1 O1 3.000399 1_455
Ba1 O1 3.004359 1_555
Ba1 O2 3.008591 1_455
Ba1 O8 3.112667 1_455
Ba1 O11 3.127837 1_555
Ba1 O6 3.128643 1_545
Ba1 O5 3.132252 1_445
Ba2 O9 2.888364 1_555
Ba2 O5 2.888656 1_545
Ba2 O11 2.889745 1_555
Ba2 O7 2.894235 1_556
Ba2 O2 3.001792 1_555
Ba2 O2 3.002690 1_455
Ba2 O1 3.032776 1_555
Ba2 O0 3.039565 1_556
Ba2 O5 3.124580 1_455
Ba2 O9 3.125355 1_545
Ba2 O6 3.190262 1_555
Ba2 O10 3.198989 1_556
O0 Sb0 2.015082 1_555
O0 Y0 2.236223 1_455
O0 Sr0 2.969380 1_455
O1 Sb1 2.009086 1_545
O1 Y1 2.235808 1_555
O1 Sr0 2.960256 1_545
O2 Sb1 2.019340 1_555
O2 Y0 2.246040 1_546
O3 Sb0 2.004697 1_565
O3 Y1 2.226803 1_555
O3 Sr0 3.001182 1_455
O3 Sr0 3.003285 1_555
O4 Sb0 2.007939 1_555
O4 Y1 2.238680 1_555
O4 Sr0 2.825425 1_455
O4 Sr0 3.189716 1_545
O5 Sb1 2.021541 1_555
O5 Y0 2.250751 1_556
O6 Sb1 2.013392 1_555
O6 Y1 2.247394 1_555
O6 Sr0 2.819201 1_555
O7 Sb0 2.016328 1_555
O7 Y0 2.240891 1_445
O7 Sr0 3.118051 1_445
O8 Sb0 2.010078 1_655
O8 Y1 2.234527 1_555
O8 Sr0 2.825161 1_545
O8 Sr0 3.188487 1_555
O9 Sb1 2.019643 1_555
O9 Y0 2.255191 1_456
O10 Sb0 2.020062 1_555
O10 Y0 2.247104 1_545
O10 Sr0 2.826875 1_545
O11 Sb1 2.009614 1_455
O11 Y1 2.241812 1_555
O11 Sr0 3.106490 1_455
