# generated using pymatgen
data_Y2MgSi2
_symmetry_space_group_name_H-M   'P 1'
_cell_length_a   7.18713749
_cell_length_b   7.18713749
_cell_length_c   4.21146523
_cell_angle_alpha   90.00000000
_cell_angle_beta   90.00000000
_cell_angle_gamma   90.00000000
_symmetry_Int_Tables_number   1
_chemical_formula_structural   Y2MgSi2
_chemical_formula_sum   'Y4 Mg2 Si4'
_cell_volume   217.54300609
_cell_formula_units_Z   2
loop_
 _symmetry_equiv_pos_site_id
 _symmetry_equiv_pos_as_xyz
  1  'x, y, z'
loop_
 _atom_site_type_symbol
 _atom_site_label
 _atom_site_symmetry_multiplicity
 _atom_site_fract_x
 _atom_site_fract_y
 _atom_site_fract_z
 _atom_site_occupancy
  Y  Y0  1  0.67860680  0.17860680  0.50000000  1
  Y  Y1  1  0.32139320  0.82139320  0.50000000  1
  Y  Y2  1  0.17860680  0.32139320  0.50000000  1
  Y  Y3  1  0.82139320  0.67860680  0.50000000  1
  Mg  Mg0  1  0.00000000  0.00000000  -0.00000000  1
  Mg  Mg1  1  0.50000000  0.50000000  -0.00000000  1
  Si  Si0  1  0.11731354  0.61731354  -0.00000000  1
  Si  Si1  1  0.88268646  0.38268646  0.00000000  1
  Si  Si2  1  0.61731354  0.88268646  -0.00000000  1
  Si  Si3  1  0.38268646  0.11731354  0.00000000  1
loop_
_geom_bond_atom_site_label_1
_geom_bond_atom_site_label_2
_geom_bond_distance
_geom_bond_site_symmetry_2
Mg0 Si0 2.876754 1_545
Mg0 Si3 2.876754 1_555
Mg0 Si2 2.876754 1_445
Mg0 Si1 2.876754 1_455
Mg1 Si1 2.876754 1_555
Mg1 Si2 2.876754 1_555
Mg1 Si3 2.876754 1_555
Mg1 Si0 2.876754 1_555
Si0 Si1 2.384784 1_455
Si0 Y1 2.955810 1_555
Si0 Y1 2.955810 1_554
Si0 Y3 3.025150 1_455
Si0 Y3 3.025150 1_454
Si0 Y2 3.025150 1_555
Si0 Y2 3.025150 1_554
Si1 Y0 2.955810 1_554
Si1 Y0 2.955810 1_555
Si1 Y3 3.025150 1_554
Si1 Y3 3.025150 1_555
Si1 Y2 3.025150 1_655
Si1 Y2 3.025150 1_654
Si2 Si3 2.384784 1_565
Si2 Y3 2.955810 1_555
Si2 Y3 2.955810 1_554
Si2 Y1 3.025150 1_555
Si2 Y1 3.025150 1_554
Si2 Y0 3.025150 1_565
Si2 Y0 3.025150 1_564
Si3 Y2 2.955810 1_555
Si3 Y2 2.955810 1_554
Si3 Y1 3.025150 1_545
Si3 Y0 3.025150 1_554
Si3 Y0 3.025150 1_555
Si3 Y1 3.025150 1_544
