# generated using pymatgen
data_KMg6Al
_symmetry_space_group_name_H-M   'P 1'
_cell_length_a   5.18159300
_cell_length_b   6.76723000
_cell_length_c   11.69039500
_cell_angle_alpha   90.00000000
_cell_angle_beta   90.00000000
_cell_angle_gamma   90.00000000
_symmetry_Int_Tables_number   1
_chemical_formula_structural   KMg6Al
_chemical_formula_sum   'K2 Mg12 Al2'
_cell_volume   409.92407006
_cell_formula_units_Z   2
loop_
 _symmetry_equiv_pos_site_id
 _symmetry_equiv_pos_as_xyz
  1  'x, y, z'
loop_
 _atom_site_type_symbol
 _atom_site_label
 _atom_site_symmetry_multiplicity
 _atom_site_fract_x
 _atom_site_fract_y
 _atom_site_fract_z
 _atom_site_occupancy
  K  K0  1  0.50000000  0.50000000  0.16809500  1
  K  K1  1  0.50000000  0.00000000  0.66809500  1
  Mg  Mg0  1  0.00000000  0.22931300  0.07525900  1
  Mg  Mg1  1  0.00000000  0.77068700  0.07525900  1
  Mg  Mg2  1  0.00000000  0.50000000  0.83337200  1
  Mg  Mg3  1  0.50000000  0.23629200  0.91687400  1
  Mg  Mg4  1  0.50000000  0.76370800  0.91687400  1
  Mg  Mg5  1  0.50000000  0.50000000  0.66302200  1
  Mg  Mg6  1  0.00000000  0.72931300  0.57525900  1
  Mg  Mg7  1  0.00000000  0.27068700  0.57525900  1
  Mg  Mg8  1  0.00000000  0.00000000  0.33337200  1
  Mg  Mg9  1  0.50000000  0.73629200  0.41687400  1
  Mg  Mg10  1  0.50000000  0.26370800  0.41687400  1
  Mg  Mg11  1  0.50000000  0.00000000  0.16302200  1
  Al  Al0  1  0.00000000  0.50000000  0.35124400  1
  Al  Al1  1  0.00000000  0.00000000  0.85124400  1
loop_
_geom_bond_atom_site_label_1
_geom_bond_atom_site_label_2
_geom_bond_distance
_geom_bond_site_symmetry_2
K0 Mg9 3.318929 1_555
K0 Mg10 3.318929 1_555
K0 Mg0 3.353442 1_555
K0 Mg1 3.353442 1_555
K0 Mg0 3.353442 1_655
K0 Mg1 3.353442 1_655
K0 Mg11 3.384135 1_555
K0 Mg11 3.384135 1_565
K0 Mg4 3.436557 1_554
K0 Mg3 3.436557 1_554
K1 Mg3 3.318929 1_555
K1 Mg4 3.318929 1_545
K1 Mg6 3.353442 1_545
K1 Mg6 3.353442 1_645
K1 Mg7 3.353442 1_555
K1 Mg7 3.353442 1_655
K1 Mg5 3.384135 1_545
K1 Mg5 3.384135 1_555
K1 Mg9 3.436557 1_545
K1 Mg10 3.436557 1_555
Mg0 Mg11 3.189513 1_455
Mg0 Mg11 3.189513 1_555
Mg0 Mg2 3.369227 1_554
Mg0 Mg8 3.393094 1_555
Mg1 Mg11 3.189513 1_565
Mg1 Mg11 3.189513 1_465
Mg1 Mg2 3.369227 1_554
Mg1 Mg8 3.393094 1_565
Mg2 Mg5 3.267742 1_455
Mg2 Mg5 3.267742 1_555
Mg2 Mg4 3.293909 1_455
Mg2 Mg4 3.293909 1_555
Mg2 Mg3 3.293909 1_455
Mg2 Mg3 3.293909 1_555
Mg2 Mg6 3.393094 1_555
Mg2 Mg7 3.393094 1_555
Mg3 Mg5 3.462879 1_555
Mg4 Mg5 3.462879 1_555
Mg5 Mg7 3.189513 1_655
Mg5 Mg6 3.189513 1_555
Mg5 Mg7 3.189513 1_555
Mg5 Mg6 3.189513 1_655
Mg5 Mg9 3.292010 1_555
Mg6 Mg8 3.369227 1_565
Mg7 Mg8 3.369227 1_555
Mg8 Mg9 3.293909 1_445
Mg8 Mg9 3.293909 1_545
Mg10 Mg5 3.292010 1_555
Mg10 Mg8 3.293909 1_555
Mg10 Mg8 3.293909 1_655
Mg10 Mg11 3.462879 1_555
Mg11 Mg8 3.267742 1_555
Mg11 Mg8 3.267742 1_655
Mg11 Mg3 3.292010 1_554
Mg11 Mg4 3.292010 1_544
Mg11 Mg9 3.462879 1_545
Al0 Mg6 3.044070 1_555
Al0 Mg7 3.044070 1_555
Al0 Mg9 3.139717 1_455
Al0 Mg10 3.139717 1_455
Al0 Mg9 3.139717 1_555
Al0 Mg10 3.139717 1_555
Al0 K0 3.361022 1_455
Al0 K0 3.361022 1_555
Al0 Mg8 3.390059 1_565
Al0 Mg8 3.390059 1_555
Al1 Mg0 3.044070 1_556
Al1 Mg1 3.044070 1_546
Al1 Mg3 3.139717 1_555
Al1 Mg3 3.139717 1_455
Al1 Mg4 3.139717 1_445
Al1 Mg4 3.139717 1_545
Al1 K1 3.361022 1_555
Al1 K1 3.361022 1_455
Al1 Mg2 3.390059 1_545
Al1 Mg2 3.390059 1_555
