# generated using pymatgen
data_Li9Mn2Co5O16
_symmetry_space_group_name_H-M   'P 1'
_cell_length_a   6.43252100
_cell_length_b   6.44960565
_cell_length_c   7.86868400
_cell_angle_alpha   87.68600238
_cell_angle_beta   113.91313301
_cell_angle_gamma   108.38462964
_symmetry_Int_Tables_number   1
_chemical_formula_structural   Li9Mn2Co5O16
_chemical_formula_sum   'Li9 Mn2 Co5 O16'
_cell_volume   281.75295189
_cell_formula_units_Z   1
loop_
 _symmetry_equiv_pos_site_id
 _symmetry_equiv_pos_as_xyz
  1  'x, y, z'
loop_
 _atom_site_type_symbol
 _atom_site_label
 _atom_site_symmetry_multiplicity
 _atom_site_fract_x
 _atom_site_fract_y
 _atom_site_fract_z
 _atom_site_occupancy
  Li  Li0  1  0.87819200  0.05442000  0.31748000  1
  Li  Li1  1  0.87057700  0.56004700  0.81232400  1
  Li  Li2  1  0.12517700  0.93933700  0.67859100  1
  Li  Li3  1  0.13331000  0.44466600  0.19287400  1
  Li  Li4  1  0.38257100  0.81642100  0.07522200  1
  Li  Li5  1  0.37654300  0.31095700  0.56194500  1
  Li  Li6  1  0.61454600  0.68954400  0.43223600  1
  Li  Li7  1  0.61991900  0.18545000  0.93267500  1
  Li  Li8  1  0.25180300  0.87371400  0.37556300  1
  Mn  Mn0  1  0.00340700  0.00152200  0.00375700  1
  Mn  Mn1  1  0.00163200  0.50431900  0.49863000  1
  Co  Co0  1  0.24872900  0.37362000  0.87380500  1
  Co  Co1  1  0.49598600  0.74864300  0.74209100  1
  Co  Co2  1  0.49973300  0.24688500  0.25296600  1
  Co  Co3  1  0.75889100  0.63326400  0.13466700  1
  Co  Co4  1  0.74465300  0.12116900  0.61825700  1
  O  O0  1  0.70660400  0.90107800  0.03592100  1
  O  O1  1  0.70349000  0.39865900  0.53775700  1
  O  O2  1  0.93891700  0.76462400  0.41419000  1
  O  O3  1  0.95875300  0.27581000  0.91076000  1
  O  O4  1  0.18636500  0.63751700  0.76019200  1
  O  O5  1  0.18449000  0.14579500  0.25257400  1
  O  O6  1  0.45577200  0.51947800  0.15523500  1
  O  O7  1  0.46428500  0.02385300  0.66575300  1
  O  O8  1  0.04239900  0.22521700  0.59027700  1
  O  O9  1  0.03742100  0.72383900  0.08243700  1
  O  O10  1  0.29425900  0.09682000  0.96152900  1
  O  O11  1  0.29616500  0.58537200  0.47185400  1
  O  O12  1  0.55928700  0.98929800  0.33896900  1
  O  O13  1  0.53998700  0.47882500  0.84253400  1
  O  O14  1  0.81033500  0.86229000  0.73677100  1
  O  O15  1  0.81580400  0.36755100  0.24016500  1
loop_
_geom_bond_atom_site_label_1
_geom_bond_atom_site_label_2
_geom_bond_distance
_geom_bond_site_symmetry_2
Li0 O12 2.035946 1_545
Li0 O2 2.080814 1_545
Li0 O5 2.132874 1_655
Li0 O8 2.134411 1_655
Li0 O0 2.147259 1_545
Li0 O15 2.196344 1_555
Li1 O9 2.098127 1_656
Li1 O3 2.113622 1_555
Li1 O14 2.121249 1_555
Li1 O1 2.121252 1_555
Li1 O13 2.133100 1_555
Li1 O4 2.136099 1_655
Li2 O2 2.085797 1_455
Li2 O8 2.093306 1_565
Li2 O7 2.118881 1_565
Li2 O4 2.129321 1_555
Li2 O14 2.157897 1_455
Li2 O10 2.166546 1_565
Li3 O5 2.060703 1_555
Li3 O11 2.106363 1_555
Li3 O6 2.116175 1_555
Li3 O9 2.125386 1_555
Li3 O15 2.125448 1_455
Li3 O3 2.185810 1_454
Li4 O12 2.077796 1_555
Li4 O10 2.121075 1_564
Li4 O6 2.125346 1_555
Li4 O0 2.128219 1_555
Li4 O9 2.133588 1_555
Li4 O4 2.417665 1_554
Li5 O11 2.020163 1_555
Li5 O1 2.084371 1_555
Li5 O7 2.139611 1_555
Li5 O8 2.145724 1_555
Li5 O13 2.178392 1_555
Li5 O5 2.351202 1_555
Li6 O2 2.050742 1_555
Li6 O11 2.091790 1_555
Li6 O12 2.123674 1_555
Li6 O6 2.163032 1_555
Li6 O1 2.168558 1_555
Li6 O14 2.335272 1_555
Li7 O7 2.076974 1_555
Li7 O10 2.094353 1_555
Li7 O0 2.119514 1_546
Li7 O13 2.134795 1_555
Li7 O3 2.148300 1_555
Li7 O15 2.376059 1_556
Li8 O12 2.016191 1_555
Li8 O11 2.039522 1_555
Li8 O5 2.050819 1_565
Li8 O2 2.055135 1_455
Li8 O7 2.198478 1_565
Li8 O9 2.217354 1_555
Mn0 O5 1.915838 1_555
Mn0 O9 1.920020 1_545
Mn0 O0 1.930559 1_445
Mn0 O10 1.936653 1_554
Mn0 O3 1.947591 1_454
Mn0 O14 2.023840 1_444
Mn1 O2 1.882190 1_455
Mn1 O11 1.896606 1_555
Mn1 O15 1.962675 1_455
Mn1 O8 1.966924 1_555
Mn1 O1 1.968377 1_455
Mn1 O4 1.975387 1_555
Co0 O13 1.894573 1_555
Co0 O3 1.909042 1_455
Co0 O10 1.953401 1_555
Co0 O4 1.968280 1_555
Co0 O6 2.132972 1_556
Co0 O8 2.150715 1_555
Co1 O7 1.896292 1_565
Co1 O13 1.936855 1_555
Co1 O14 1.938804 1_555
Co1 O4 1.954975 1_555
Co1 O11 2.096154 1_555
Co1 O0 2.225220 1_556
Co2 O12 1.861517 1_545
Co2 O5 1.923076 1_555
Co2 O6 1.946909 1_555
Co2 O15 1.977639 1_555
Co2 O1 2.164381 1_555
Co2 O10 2.204005 1_554
Co3 O9 1.907231 1_655
Co3 O6 1.926185 1_555
Co3 O0 1.935618 1_555
Co3 O15 1.947962 1_555
Co3 O2 2.088831 1_555
Co3 O13 2.221491 1_554
Co4 O7 1.897260 1_555
Co4 O8 1.919949 1_655
Co4 O1 1.935400 1_555
Co4 O14 1.958513 1_545
Co4 O12 2.088439 1_545
Co4 O3 2.222170 1_555
