# generated using pymatgen
data_Gd3AuO6
_symmetry_space_group_name_H-M   'P 1'
_cell_length_a   3.66461181
_cell_length_b   5.59270568
_cell_length_c   7.07266833
_cell_angle_alpha   90.40435778
_cell_angle_beta   102.83478999
_cell_angle_gamma   91.17722790
_symmetry_Int_Tables_number   1
_chemical_formula_structural   Gd3AuO6
_chemical_formula_sum   'Gd3 Au1 O6'
_cell_volume   141.29338689
_cell_formula_units_Z   1
loop_
 _symmetry_equiv_pos_site_id
 _symmetry_equiv_pos_as_xyz
  1  'x, y, z'
loop_
 _atom_site_type_symbol
 _atom_site_label
 _atom_site_symmetry_multiplicity
 _atom_site_fract_x
 _atom_site_fract_y
 _atom_site_fract_z
 _atom_site_occupancy
  Gd  Gd0  1  0.61030211  0.52944930  0.76551106  1
  Gd  Gd1  1  0.38969789  0.47055070  0.23448894  1
  Gd  Gd2  1  0.00000000  0.00000000  0.50000000  1
  Au  Au0  1  0.00000000  0.00000000  0.00000000  1
  O  O0  1  0.84072655  0.69286790  0.11142090  1
  O  O1  1  0.15927345  0.30713210  0.88857910  1
  O  O2  1  0.51951554  0.25611161  0.52454317  1
  O  O3  1  0.48048446  0.74388839  0.47545683  1
  O  O4  1  0.12782127  0.79591584  0.79123159  1
  O  O5  1  0.87217873  0.20408416  0.20876841  1
loop_
_geom_bond_atom_site_label_1
_geom_bond_atom_site_label_2
_geom_bond_distance
_geom_bond_site_symmetry_2
Gd0 O2 2.245576 1_555
Gd0 O3 2.344714 1_555
Gd0 O4 2.361672 1_655
Gd0 O1 2.367586 1_555
Gd0 O4 2.372242 1_555
Gd0 O1 2.385550 1_655
Gd0 O0 2.559812 1_556
Gd1 O3 2.245576 1_555
Gd1 O2 2.344714 1_555
Gd1 O5 2.361672 1_455
Gd1 O0 2.367586 1_555
Gd1 O5 2.372242 1_555
Gd1 O0 2.385550 1_455
Gd1 O1 2.559812 1_554
Gd2 O4 2.321933 1_545
Gd2 O5 2.321933 1_455
Gd2 O3 2.327675 1_545
Gd2 O2 2.327675 1_455
Gd2 O2 2.333224 1_555
Gd2 O3 2.333224 1_445
Au0 O4 2.001956 1_544
Au0 O5 2.001956 1_455
Au0 O1 2.023473 1_554
Au0 O0 2.023473 1_445
