# generated using pymatgen
data_PuB4W
_symmetry_space_group_name_H-M   'P 1'
_cell_length_a   3.62634200
_cell_length_b   6.02397500
_cell_length_c   11.71044300
_cell_angle_alpha   90.00000000
_cell_angle_beta   90.00000000
_cell_angle_gamma   90.00000000
_symmetry_Int_Tables_number   1
_chemical_formula_structural   PuB4W
_chemical_formula_sum   'Pu4 B16 W4'
_cell_volume   255.81455180
_cell_formula_units_Z   4
loop_
 _symmetry_equiv_pos_site_id
 _symmetry_equiv_pos_as_xyz
  1  'x, y, z'
loop_
 _atom_site_type_symbol
 _atom_site_label
 _atom_site_symmetry_multiplicity
 _atom_site_fract_x
 _atom_site_fract_y
 _atom_site_fract_z
 _atom_site_occupancy
  Pu  Pu0  1  0.00000000  0.62494600  0.34969700  1
  Pu  Pu1  1  0.00000000  0.37505400  0.65030300  1
  Pu  Pu2  1  0.00000000  0.12494600  0.15030300  1
  Pu  Pu3  1  0.00000000  0.87505400  0.84969700  1
  B  B0  1  0.50000000  0.78613800  0.18724400  1
  B  B1  1  0.50000000  0.21386200  0.81275600  1
  B  B2  1  0.50000000  0.28613800  0.31275600  1
  B  B3  1  0.50000000  0.71386200  0.68724400  1
  B  B4  1  0.50000000  0.86616100  0.03240700  1
  B  B5  1  0.50000000  0.13383900  0.96759300  1
  B  B6  1  0.50000000  0.36616100  0.46759300  1
  B  B7  1  0.50000000  0.63383900  0.53240700  1
  B  B8  1  0.50000000  0.88421100  0.45265400  1
  B  B9  1  0.50000000  0.11578900  0.54734600  1
  B  B10  1  0.50000000  0.38421100  0.04734600  1
  B  B11  1  0.50000000  0.61578900  0.95265400  1
  B  B12  1  0.50000000  0.97322300  0.30723000  1
  B  B13  1  0.50000000  0.02677700  0.69277000  1
  B  B14  1  0.50000000  0.47322300  0.19277000  1
  B  B15  1  0.50000000  0.52677700  0.80723000  1
  W  W0  1  0.00000000  0.63211100  0.08620600  1
  W  W1  1  0.00000000  0.36788900  0.91379400  1
  W  W2  1  0.00000000  0.13211100  0.41379400  1
  W  W3  1  0.00000000  0.86788900  0.58620600  1
loop_
_geom_bond_atom_site_label_1
_geom_bond_atom_site_label_2
_geom_bond_distance
_geom_bond_site_symmetry_2
Pu0 W2 3.062243 1_555
Pu0 W0 3.085898 1_555
Pu0 W3 3.132508 1_555
Pu0 W2 3.146004 1_565
Pu1 W3 3.062243 1_555
Pu1 W1 3.085898 1_555
Pu1 W2 3.132508 1_555
Pu1 W3 3.146004 1_545
Pu2 W0 3.062243 1_545
Pu2 W2 3.085898 1_555
Pu2 W1 3.132508 1_554
Pu2 W0 3.146004 1_555
Pu3 W1 3.062243 1_565
Pu3 W3 3.085898 1_555
Pu3 W0 3.132508 1_556
Pu3 W1 3.146004 1_555
B0 B12 1.801220 1_555
B0 B4 1.876195 1_555
B0 B14 1.886103 1_555
B0 W0 2.355518 1_555
B0 W0 2.355518 1_655
B0 Pu2 2.764107 1_565
B0 Pu2 2.764107 1_665
B0 Pu0 2.801709 1_655
B0 Pu0 2.801709 1_555
B1 B13 1.801220 1_555
B1 B5 1.876195 1_555
B1 B15 1.886103 1_555
B1 W1 2.355518 1_655
B1 W1 2.355518 1_555
B1 Pu3 2.764107 1_645
B1 Pu3 2.764107 1_545
B1 Pu1 2.801709 1_555
B1 Pu1 2.801709 1_655
B2 B6 1.876195 1_555
B2 W2 2.355518 1_655
B2 W2 2.355518 1_555
B2 Pu0 2.764107 1_655
B2 Pu0 2.764107 1_555
B2 Pu2 2.801709 1_555
B2 Pu2 2.801709 1_655
B3 B7 1.876195 1_555
B3 W3 2.355518 1_655
B3 W3 2.355518 1_555
B3 Pu1 2.764107 1_555
B3 Pu1 2.764107 1_655
B3 Pu3 2.801709 1_655
B3 Pu3 2.801709 1_555
B4 B5 1.782187 1_564
B4 W0 2.381670 1_555
B4 W0 2.381670 1_655
B4 Pu2 2.761141 1_565
B4 Pu2 2.761141 1_665
B4 Pu3 2.805069 1_654
B4 Pu3 2.805069 1_554
B5 W1 2.381670 1_555
B5 W1 2.381670 1_655
B5 Pu3 2.761141 1_545
B5 Pu3 2.761141 1_645
B5 Pu2 2.805069 1_556
B5 Pu2 2.805069 1_656
B6 B9 1.773985 1_555
B6 B7 1.782187 1_555
B6 W2 2.381670 1_655
B6 W2 2.381670 1_555
B6 Pu0 2.761141 1_555
B6 Pu0 2.761141 1_655
B6 Pu1 2.805069 1_555
B6 Pu1 2.805069 1_655
B7 B8 1.773985 1_555
B7 W3 2.381670 1_655
B7 W3 2.381670 1_555
B7 Pu1 2.761141 1_555
B7 Pu1 2.761141 1_655
B7 Pu0 2.805069 1_655
B7 Pu0 2.805069 1_555
B8 B9 1.782052 1_565
B8 W2 2.392645 1_565
B8 W2 2.392645 1_665
B8 W3 2.396499 1_555
B8 W3 2.396499 1_655
B8 Pu0 2.679640 1_655
B8 Pu0 2.679640 1_555
B9 W3 2.392645 1_645
B9 W3 2.392645 1_545
B9 W2 2.396499 1_655
B9 W2 2.396499 1_555
B9 Pu1 2.679640 1_555
B9 Pu1 2.679640 1_655
B10 B5 1.773985 1_554
B10 B11 1.782052 1_554
B10 B14 1.785401 1_555
B10 W0 2.392645 1_555
B10 W0 2.392645 1_655
B10 W1 2.396499 1_654
B10 W1 2.396499 1_554
B10 Pu2 2.679640 1_655
B10 Pu2 2.679640 1_555
B11 B4 1.773985 1_556
B11 B15 1.785401 1_555
B11 W1 2.392645 1_655
B11 W1 2.392645 1_555
B11 W0 2.396499 1_556
B11 W0 2.396499 1_656
B11 Pu3 2.679640 1_655
B11 Pu3 2.679640 1_555
B12 B8 1.785401 1_555
B12 B2 1.886103 1_565
B12 W2 2.400205 1_665
B12 W2 2.400205 1_565
B12 Pu2 2.738617 1_665
B12 Pu2 2.738617 1_565
B12 Pu0 2.817190 1_655
B12 Pu0 2.817190 1_555
B13 B9 1.785401 1_555
B13 B3 1.886103 1_545
B13 W3 2.400205 1_545
B13 W3 2.400205 1_645
B13 Pu3 2.738617 1_645
B13 Pu3 2.738617 1_545
B13 Pu1 2.817190 1_555
B13 Pu1 2.817190 1_655
B14 B2 1.801220 1_555
B14 W0 2.400205 1_555
B14 W0 2.400205 1_655
B14 Pu0 2.738617 1_655
B14 Pu0 2.738617 1_555
B14 Pu2 2.817190 1_555
B14 Pu2 2.817190 1_655
B15 B3 1.801220 1_555
B15 W1 2.400205 1_555
B15 W1 2.400205 1_655
B15 Pu1 2.738617 1_655
B15 Pu1 2.738617 1_555
B15 Pu3 2.817190 1_555
B15 Pu3 2.817190 1_655
