# generated using pymatgen
data_BiSbSe3
_symmetry_space_group_name_H-M   'P 1'
_cell_length_a   4.11369100
_cell_length_b   11.63559400
_cell_length_c   12.41788500
_cell_angle_alpha   90.00000000
_cell_angle_beta   90.00000000
_cell_angle_gamma   90.00000000
_symmetry_Int_Tables_number   1
_chemical_formula_structural   BiSbSe3
_chemical_formula_sum   'Bi4 Sb4 Se12'
_cell_volume   594.38502492
_cell_formula_units_Z   4
loop_
 _symmetry_equiv_pos_site_id
 _symmetry_equiv_pos_as_xyz
  1  'x, y, z'
loop_
 _atom_site_type_symbol
 _atom_site_label
 _atom_site_symmetry_multiplicity
 _atom_site_fract_x
 _atom_site_fract_y
 _atom_site_fract_z
 _atom_site_occupancy
  Bi  Bi0  1  0.25000000  0.16830400  0.51595300  1
  Bi  Bi1  1  0.25000000  0.33169600  0.01595300  1
  Bi  Bi2  1  0.75000000  0.83169600  0.48404700  1
  Bi  Bi3  1  0.75000000  0.66830400  0.98404700  1
  Sb  Sb0  1  0.75000000  0.45819700  0.64509800  1
  Sb  Sb1  1  0.75000000  0.04180300  0.14509800  1
  Sb  Sb2  1  0.25000000  0.54180300  0.35490200  1
  Sb  Sb3  1  0.25000000  0.95819700  0.85490200  1
  Se  Se0  1  0.75000000  0.05220100  0.62671800  1
  Se  Se1  1  0.75000000  0.44779900  0.12671800  1
  Se  Se2  1  0.25000000  0.94779900  0.37328200  1
  Se  Se3  1  0.25000000  0.55220100  0.87328200  1
  Se  Se4  1  0.25000000  0.30884000  0.70789300  1
  Se  Se5  1  0.25000000  0.19116000  0.20789300  1
  Se  Se6  1  0.75000000  0.69116000  0.29210700  1
  Se  Se7  1  0.75000000  0.80884000  0.79210700  1
  Se  Se8  1  0.25000000  0.63091800  0.55053900  1
  Se  Se9  1  0.25000000  0.86908200  0.05053900  1
  Se  Se10  1  0.75000000  0.36908200  0.44946100  1
  Se  Se11  1  0.75000000  0.13091800  0.94946100  1
loop_
_geom_bond_atom_site_label_1
_geom_bond_atom_site_label_2
_geom_bond_distance
_geom_bond_site_symmetry_2
Bi0 Se0 2.819136 1_455
Bi0 Se0 2.819136 1_555
Bi0 Se4 2.890495 1_555
Bi0 Se2 3.117960 1_545
Bi0 Se10 3.220260 1_455
Bi0 Se10 3.220260 1_555
Bi1 Se1 2.819136 1_555
Bi1 Se1 2.819136 1_455
Bi1 Se5 2.890495 1_555
Bi1 Se3 3.117960 1_554
Bi1 Se11 3.220260 1_554
Bi1 Se11 3.220260 1_454
Bi2 Se2 2.819136 1_555
Bi2 Se2 2.819136 1_655
Bi2 Se6 2.890495 1_555
Bi2 Se0 3.117960 1_565
Bi2 Se8 3.220260 1_555
Bi2 Se8 3.220260 1_655
Bi3 Se3 2.819136 1_555
Bi3 Se3 2.819136 1_655
Bi3 Se7 2.890495 1_555
Bi3 Se1 3.117960 1_556
Bi3 Se9 3.220260 1_656
Bi3 Se9 3.220260 1_556
Sb0 Se10 2.641429 1_555
Sb0 Se4 2.803359 1_655
Sb0 Se4 2.803359 1_555
Sb0 Se8 3.106180 1_655
Sb0 Se8 3.106180 1_555
Sb1 Se11 2.641429 1_554
Sb1 Se5 2.803359 1_655
Sb1 Se5 2.803359 1_555
Sb1 Se9 3.106180 1_645
Sb1 Se9 3.106180 1_545
Sb2 Se8 2.641429 1_555
Sb2 Se6 2.803359 1_555
Sb2 Se6 2.803359 1_455
Sb2 Se10 3.106180 1_455
Sb2 Se10 3.106180 1_555
Sb3 Se9 2.641429 1_556
Sb3 Se7 2.803359 1_455
Sb3 Se7 2.803359 1_555
Sb3 Se11 3.106180 1_565
Sb3 Se11 3.106180 1_465
