# generated using pymatgen
data_ErTh
_symmetry_space_group_name_H-M   'P 1'
_cell_length_a   12.08382410
_cell_length_b   12.08382410
_cell_length_c   12.08382224
_cell_angle_alpha   34.25194220
_cell_angle_beta   34.25194220
_cell_angle_gamma   34.25194978
_symmetry_Int_Tables_number   1
_chemical_formula_structural   ErTh
_chemical_formula_sum   'Er8 Th8'
_cell_volume   498.44347297
_cell_formula_units_Z   8
loop_
 _symmetry_equiv_pos_site_id
 _symmetry_equiv_pos_as_xyz
  1  'x, y, z'
loop_
 _atom_site_type_symbol
 _atom_site_label
 _atom_site_symmetry_multiplicity
 _atom_site_fract_x
 _atom_site_fract_y
 _atom_site_fract_z
 _atom_site_occupancy
  Er  Er0_0  1  0.00000000  0.00000000  0.00000000  1
  Er  Er0_1  1  0.00000000  0.00000000  0.50000000  1
  Er  Er0_2  1  0.00000000  0.50000000  0.00000000  1
  Er  Er0_3  1  0.00000000  0.50000000  0.50000000  1
  Er  Er0_4  1  0.50000000  0.00000000  0.00000000  1
  Er  Er0_5  1  0.50000000  0.00000000  0.50000000  1
  Er  Er0_6  1  0.50000000  0.50000000  0.00000000  1
  Er  Er0_7  1  0.50000000  0.50000000  0.50000000  1
  Th  Th0_0  1  0.25000000  0.25000000  0.25000000  1
  Th  Th0_1  1  0.25000000  0.25000000  0.75000000  1
  Th  Th0_2  1  0.25000000  0.75000000  0.25000000  1
  Th  Th0_3  1  0.25000000  0.75000000  0.75000000  1
  Th  Th0_4  1  0.75000000  0.25000000  0.25000000  1
  Th  Th0_5  1  0.75000000  0.25000000  0.75000000  1
  Th  Th0_6  1  0.75000000  0.75000000  0.25000000  1
  Th  Th0_7  1  0.75000000  0.75000000  0.75000000  1
loop_
_geom_bond_atom_site_label_1
_geom_bond_atom_site_label_2
_geom_bond_distance
_geom_bond_site_symmetry_2
Er0_0 Th0_3 3.505947 1_544
Er0_0 Th0_5 3.505947 1_454
Er0_0 Th0_4 3.505947 1_455
Er0_0 Th0_2 3.505947 1_545
Er0_0 Th0_1 3.505948 1_554
Er0_0 Th0_6 3.505948 1_445
Er0_0 Er0_3 3.558366 1_545
Er0_0 Er0_5 3.558366 1_554
Er0_0 Er0_5 3.558366 1_455
Er0_0 Er0_3 3.558366 1_554
Er0_0 Er0_6 3.558367 1_455
Er0_0 Er0_6 3.558367 1_545
Er0_1 Th0_2 3.505947 1_545
Er0_1 Th0_4 3.505947 1_455
Er0_1 Th0_5 3.505947 1_455
Er0_1 Th0_3 3.505947 1_545
Er0_1 Th0_7 3.505948 1_445
Er0_1 Th0_0 3.505948 1_555
Er0_1 Er0_2 3.558366 1_546
Er0_1 Er0_4 3.558366 1_555
Er0_1 Er0_4 3.558366 1_456
Er0_1 Er0_2 3.558366 1_555
Er0_1 Er0_7 3.558367 1_455
Er0_1 Er0_7 3.558367 1_545
Er0_2 Th0_6 3.505947 1_455
Er0_2 Th0_0 3.505947 1_555
Er0_2 Th0_7 3.505947 1_454
Er0_2 Th0_1 3.505947 1_554
Er0_2 Th0_4 3.505948 1_455
Er0_2 Th0_3 3.505948 1_554
Er0_2 Er0_7 3.558366 1_455
Er0_2 Er0_7 3.558366 1_554
Er0_2 Er0_4 3.558367 1_465
Er0_2 Er0_4 3.558367 1_555
Er0_3 Th0_1 3.505947 1_555
Er0_3 Th0_7 3.505947 1_455
Er0_3 Th0_0 3.505947 1_555
Er0_3 Th0_6 3.505947 1_455
Er0_3 Th0_2 3.505948 1_555
Er0_3 Th0_5 3.505948 1_455
Er0_3 Er0_6 3.558366 1_555
Er0_3 Er0_6 3.558366 1_456
Er0_3 Er0_5 3.558367 1_555
Er0_3 Er0_5 3.558367 1_465
Er0_4 Th0_7 3.505947 1_544
Er0_4 Th0_1 3.505947 1_554
Er0_4 Th0_6 3.505947 1_545
Er0_4 Th0_0 3.505947 1_555
Er0_4 Th0_2 3.505948 1_545
Er0_4 Th0_5 3.505948 1_554
Er0_4 Er0_7 3.558366 1_545
Er0_4 Er0_7 3.558366 1_554
Er0_5 Th0_0 3.505947 1_555
Er0_5 Th0_1 3.505947 1_555
Er0_5 Th0_6 3.505947 1_545
Er0_5 Th0_7 3.505947 1_545
Er0_5 Th0_3 3.505948 1_545
Er0_5 Th0_4 3.505948 1_555
Er0_5 Er0_6 3.558366 1_546
Er0_5 Er0_6 3.558366 1_555
Er0_6 Th0_3 3.505947 1_554
Er0_6 Th0_4 3.505947 1_555
Er0_6 Th0_2 3.505947 1_555
Er0_6 Th0_5 3.505947 1_554
Er0_6 Th0_7 3.505948 1_554
Er0_6 Th0_0 3.505948 1_555
Er0_7 Th0_5 3.505947 1_555
Er0_7 Th0_4 3.505947 1_555
Er0_7 Th0_2 3.505947 1_555
Er0_7 Th0_3 3.505947 1_555
Er0_7 Th0_6 3.505948 1_555
Er0_7 Th0_1 3.505948 1_555
Th0_0 Th0_5 3.558366 1_554
Th0_0 Th0_3 3.558366 1_545
Th0_0 Th0_5 3.558366 1_455
Th0_0 Th0_3 3.558366 1_554
Th0_0 Th0_6 3.558367 1_545
Th0_0 Th0_6 3.558367 1_455
Th0_1 Th0_2 3.558366 1_546
Th0_1 Th0_4 3.558366 1_456
Th0_1 Th0_4 3.558366 1_555
Th0_1 Th0_2 3.558366 1_555
Th0_1 Th0_7 3.558367 1_455
Th0_1 Th0_7 3.558367 1_545
Th0_2 Th0_7 3.558366 1_554
Th0_2 Th0_7 3.558366 1_455
Th0_2 Th0_4 3.558367 1_465
Th0_2 Th0_4 3.558367 1_555
Th0_3 Th0_6 3.558366 1_555
Th0_3 Th0_6 3.558366 1_456
Th0_3 Th0_5 3.558367 1_465
Th0_3 Th0_5 3.558367 1_555
Th0_4 Th0_7 3.558366 1_554
Th0_4 Th0_7 3.558366 1_545
Th0_5 Th0_6 3.558366 1_555
Th0_5 Th0_6 3.558366 1_546
