# generated using pymatgen
data_H2PbCl2O7
_symmetry_space_group_name_H-M   'P 1'
_cell_length_a   7.47573388
_cell_length_b   7.47573388
_cell_length_c   8.95254405
_cell_angle_alpha   54.85651515
_cell_angle_beta   54.85651515
_cell_angle_gamma   64.18488486
_symmetry_Int_Tables_number   1
_chemical_formula_structural   H2PbCl2O7
_chemical_formula_sum   'H4 Pb2 Cl4 O14'
_cell_volume   330.46506026
_cell_formula_units_Z   2
loop_
 _symmetry_equiv_pos_site_id
 _symmetry_equiv_pos_as_xyz
  1  'x, y, z'
loop_
 _atom_site_type_symbol
 _atom_site_label
 _atom_site_symmetry_multiplicity
 _atom_site_fract_x
 _atom_site_fract_y
 _atom_site_fract_z
 _atom_site_occupancy
  H  H0  1  0.71881300  0.19979300  0.36930100  1
  H  H1  1  0.28118700  0.80020700  0.63069900  1
  H  H2  1  0.80020700  0.28118700  0.13069900  1
  H  H3  1  0.19979300  0.71881300  0.86930100  1
  Pb  Pb0  1  0.38350400  0.61649600  0.25000000  1
  Pb  Pb1  1  0.61649600  0.38350400  0.75000000  1
  Cl  Cl0  1  0.78492100  0.82100200  0.18961600  1
  Cl  Cl1  1  0.21507900  0.17899800  0.81038400  1
  Cl  Cl2  1  0.17899800  0.21507900  0.31038400  1
  Cl  Cl3  1  0.82100200  0.78492100  0.68961600  1
  O  O0  1  0.26078500  0.97038100  0.38947700  1
  O  O1  1  0.73921500  0.02961900  0.61052300  1
  O  O2  1  0.02961900  0.73921500  0.11052300  1
  O  O3  1  0.97038100  0.26078500  0.88947700  1
  O  O4  1  0.71770900  0.88688300  0.03228700  1
  O  O5  1  0.28229100  0.11311700  0.96771300  1
  O  O6  1  0.11311700  0.28229100  0.46771300  1
  O  O7  1  0.88688300  0.71770900  0.53228700  1
  O  O8  1  0.68849700  0.31150300  0.25000000  1
  O  O9  1  0.31150300  0.68849700  0.75000000  1
  O  O10  1  0.37837400  0.33121300  0.12912600  1
  O  O11  1  0.62162600  0.66878700  0.87087400  1
  O  O12  1  0.66878700  0.62162600  0.37087400  1
  O  O13  1  0.33121300  0.37837400  0.62912600  1
loop_
_geom_bond_atom_site_label_1
_geom_bond_atom_site_label_2
_geom_bond_distance
_geom_bond_site_symmetry_2
H0 O8 0.988172 1_555
H1 O9 0.988172 1_555
H2 O8 0.988172 1_555
H3 O9 0.988172 1_555
Cl0 O2 1.501544 1_655
Cl0 O4 1.509800 1_555
Cl0 O12 1.526153 1_555
Cl1 O3 1.501544 1_455
Cl1 O5 1.509800 1_555
Cl1 O13 1.526153 1_555
Cl2 O0 1.501544 1_545
Cl2 O6 1.509800 1_555
Cl2 O10 1.526153 1_555
Cl3 O1 1.501544 1_565
Cl3 O7 1.509800 1_555
Cl3 O11 1.526153 1_555
O8 Pb0 2.422717 1_555
O9 Pb1 2.422717 1_555
O10 Pb1 2.639046 1_554
O11 Pb0 2.639046 1_556
O12 Pb1 2.639046 1_555
O13 Pb0 2.639046 1_555
