# generated using pymatgen
data_Ti2FeB2Ru3Rh2
_symmetry_space_group_name_H-M   'P 1'
_cell_length_a   2.96544500
_cell_length_b   9.10841745
_cell_length_c   9.15723041
_cell_angle_alpha   90.17316536
_cell_angle_beta   90.00000000
_cell_angle_gamma   90.00000000
_symmetry_Int_Tables_number   1
_chemical_formula_structural   Ti2FeB2Ru3Rh2
_chemical_formula_sum   'Ti4 Fe2 B4 Ru6 Rh4'
_cell_volume   247.34034281
_cell_formula_units_Z   2
loop_
 _symmetry_equiv_pos_site_id
 _symmetry_equiv_pos_as_xyz
  1  'x, y, z'
loop_
 _atom_site_type_symbol
 _atom_site_label
 _atom_site_symmetry_multiplicity
 _atom_site_fract_x
 _atom_site_fract_y
 _atom_site_fract_z
 _atom_site_occupancy
  Ti  Ti0  1  0.00000000  0.17648200  0.68207800  1
  Ti  Ti1  1  0.00000000  0.82351800  0.31792200  1
  Ti  Ti2  1  0.00000000  0.32176200  0.17388500  1
  Ti  Ti3  1  0.00000000  0.67823800  0.82611500  1
  Fe  Fe0  1  0.00000000  0.50000000  0.50000000  1
  Fe  Fe1  1  0.00000000  0.00000000  0.00000000  1
  B  B0  1  0.00000000  0.62580800  0.12651000  1
  B  B1  1  0.00000000  0.37419200  0.87349000  1
  B  B2  1  0.00000000  0.87587000  0.62709900  1
  B  B3  1  0.00000000  0.12413000  0.37290100  1
  Ru  Ru0  1  0.50000000  0.78719600  0.07274800  1
  Ru  Ru1  1  0.50000000  0.21280400  0.92725200  1
  Ru  Ru2  1  0.50000000  0.57196300  0.28752600  1
  Ru  Ru3  1  0.50000000  0.42803700  0.71247400  1
  Ru  Ru4  1  0.50000000  0.07333300  0.21322500  1
  Ru  Ru5  1  0.50000000  0.92666700  0.78677500  1
  Rh  Rh0  1  0.50000000  0.00000000  0.50000000  1
  Rh  Rh1  1  0.50000000  0.50000000  0.00000000  1
  Rh  Rh2  1  0.50000000  0.71518800  0.57252000  1
  Rh  Rh3  1  0.50000000  0.28481200  0.42748000  1
loop_
_geom_bond_atom_site_label_1
_geom_bond_atom_site_label_2
_geom_bond_distance
_geom_bond_site_symmetry_2
Fe0 Ru3 2.534060 1_555
Fe0 Ru3 2.534060 1_455
Fe0 Ru2 2.534060 1_455
Fe0 Ru2 2.534060 1_555
Fe0 Rh2 2.544266 1_555
Fe0 Rh2 2.544266 1_455
Fe0 Rh3 2.544266 1_455
Fe0 Rh3 2.544266 1_555
Fe1 Ru0 2.531223 1_445
Fe1 Ru0 2.531223 1_545
Fe1 Ru1 2.531223 1_454
Fe1 Ru1 2.531223 1_554
Fe1 Ru4 2.539526 1_555
Fe1 Ru4 2.539526 1_455
Fe1 Ru5 2.539526 1_544
Fe1 Ru5 2.539526 1_444
B0 Ru0 2.146178 1_455
B0 Ru0 2.146178 1_555
B0 Ru2 2.148815 1_455
B0 Ru2 2.148815 1_555
B0 Rh1 2.201280 1_555
B0 Rh1 2.201280 1_455
B0 Ti1 2.509226 1_555
B0 Ti3 2.793353 1_554
B0 Ti2 2.804446 1_555
B1 Ru1 2.146178 1_555
B1 Ru1 2.146178 1_455
B1 Ru3 2.148815 1_455
B1 Ru3 2.148815 1_555
B1 Rh1 2.201280 1_456
B1 Rh1 2.201280 1_556
B1 Ti0 2.509226 1_555
B1 Ti2 2.793353 1_556
B1 Ti3 2.804446 1_555
B2 Ru5 2.132240 1_555
B2 Ru5 2.132240 1_455
B2 Rh2 2.141458 1_555
B2 Rh2 2.141458 1_455
B2 Rh0 2.199851 1_565
B2 Rh0 2.199851 1_465
B2 Ti3 2.565446 1_555
B2 Ti0 2.782503 1_565
B2 Ti1 2.869659 1_555
B3 Ru4 2.132240 1_455
B3 Ru4 2.132240 1_555
B3 Rh3 2.141458 1_555
B3 Rh3 2.141458 1_455
B3 Rh0 2.199851 1_455
B3 Rh0 2.199851 1_555
B3 Ti2 2.565446 1_555
B3 Ti1 2.782503 1_545
B3 Ti0 2.869659 1_555
Ru0 Ti1 2.709976 1_555
Ru0 Ti1 2.709976 1_655
Ru0 Ti3 2.875857 1_554
Ru0 Ti3 2.875857 1_654
Ru1 Ti0 2.709976 1_555
Ru1 Ti0 2.709976 1_655
Ru1 Ti2 2.875857 1_556
Ru1 Ti2 2.875857 1_656
Ru2 Ti1 2.742626 1_555
Ru2 Ti1 2.742626 1_655
Ru2 Ti2 2.908711 1_655
Ru2 Ti2 2.908711 1_555
Ru3 Ti0 2.742626 1_555
Ru3 Ti0 2.742626 1_655
Ru3 Ti3 2.908711 1_655
Ru3 Ti3 2.908711 1_555
Ru4 Ti2 2.730094 1_655
Ru4 Ti2 2.730094 1_555
Ru4 Ti1 2.882422 1_645
Ru4 Ti1 2.882422 1_545
Ru5 Ti3 2.730094 1_555
Ru5 Ti3 2.730094 1_655
Ru5 Ti0 2.882422 1_565
Ru5 Ti0 2.882422 1_665
Rh0 Ti0 2.747039 1_555
Rh0 Ti0 2.747039 1_655
Rh0 Ti1 2.747039 1_645
Rh0 Ti1 2.747039 1_545
Rh1 Ti2 2.717567 1_555
Rh1 Ti2 2.717567 1_655
Rh1 Ti3 2.717567 1_654
Rh1 Ti3 2.717567 1_554
Rh2 Ti3 2.776545 1_655
Rh2 Ti3 2.776545 1_555
Rh2 Ti1 2.936233 1_555
Rh2 Ti1 2.936233 1_655
Rh3 Ti2 2.776545 1_555
Rh3 Ti2 2.776545 1_655
Rh3 Ti0 2.936233 1_555
Rh3 Ti0 2.936233 1_655
