# generated using pymatgen
data_K4Te8O23
_symmetry_space_group_name_H-M   'P 1'
_cell_length_a   7.40928400
_cell_length_b   14.86449800
_cell_length_c   20.00382900
_cell_angle_alpha   90.00000000
_cell_angle_beta   90.00000000
_cell_angle_gamma   90.00000000
_symmetry_Int_Tables_number   1
_chemical_formula_structural   K4Te8O23
_chemical_formula_sum   'K16 Te32 O92'
_cell_volume   2203.12745200
_cell_formula_units_Z   4
loop_
 _symmetry_equiv_pos_site_id
 _symmetry_equiv_pos_as_xyz
  1  'x, y, z'
loop_
 _atom_site_type_symbol
 _atom_site_label
 _atom_site_symmetry_multiplicity
 _atom_site_fract_x
 _atom_site_fract_y
 _atom_site_fract_z
 _atom_site_occupancy
  K  K0  1  0.75000000  0.24848200  0.92901900  1
  K  K1  1  0.25000000  0.75151800  0.07098100  1
  K  K2  1  0.75000000  0.25151800  0.42901900  1
  K  K3  1  0.25000000  0.74848200  0.57098100  1
  K  K4  1  0.25000000  0.99474700  0.68525700  1
  K  K5  1  0.75000000  0.00525300  0.31474300  1
  K  K6  1  0.25000000  0.50525300  0.18525700  1
  K  K7  1  0.75000000  0.49474700  0.81474300  1
  K  K8  1  0.25000000  0.24077500  0.56221100  1
  K  K9  1  0.75000000  0.75922500  0.43778900  1
  K  K10  1  0.25000000  0.25922500  0.06221100  1
  K  K11  1  0.75000000  0.74077500  0.93778900  1
  K  K12  1  0.25000000  0.49893700  0.67244900  1
  K  K13  1  0.75000000  0.50106300  0.32755100  1
  K  K14  1  0.25000000  0.00106300  0.17244900  1
  K  K15  1  0.75000000  0.99893700  0.82755100  1
  Te  Te0  1  0.25000000  0.37533800  0.86442300  1
  Te  Te1  1  0.75000000  0.62466200  0.13557700  1
  Te  Te2  1  0.25000000  0.12466200  0.36442300  1
  Te  Te3  1  0.75000000  0.87533800  0.63557700  1
  Te  Te4  1  0.00145800  0.23733800  0.74380200  1
  Te  Te5  1  0.50145800  0.76266200  0.25619800  1
  Te  Te6  1  0.00145800  0.26266200  0.24380200  1
  Te  Te7  1  0.50145800  0.73733800  0.75619800  1
  Te  Te8  1  0.50000000  0.50000000  0.50000000  1
  Te  Te9  1  0.00000000  0.50000000  0.50000000  1
  Te  Te10  1  0.50000000  0.00000000  0.00000000  1
  Te  Te11  1  0.00000000  0.00000000  0.00000000  1
  Te  Te12  1  0.50000000  0.00000000  0.50000000  1
  Te  Te13  1  0.00000000  0.00000000  0.50000000  1
  Te  Te14  1  0.50000000  0.50000000  0.00000000  1
  Te  Te15  1  0.00000000  0.50000000  0.00000000  1
  Te  Te16  1  0.25000000  0.11728000  0.87174900  1
  Te  Te17  1  0.75000000  0.88272000  0.12825100  1
  Te  Te18  1  0.25000000  0.38272000  0.37174900  1
  Te  Te19  1  0.75000000  0.61728000  0.62825100  1
  Te  Te20  1  0.75000000  0.12757800  0.60832500  1
  Te  Te21  1  0.25000000  0.87242200  0.39167500  1
  Te  Te22  1  0.75000000  0.37242200  0.10832500  1
  Te  Te23  1  0.25000000  0.62757800  0.89167500  1
  Te  Te24  1  0.49854200  0.23733800  0.74380200  1
  Te  Te25  1  0.99854200  0.76266200  0.25619800  1
  Te  Te26  1  0.49854200  0.26266200  0.24380200  1
  Te  Te27  1  0.99854200  0.73733800  0.75619800  1
  Te  Te28  1  0.75000000  0.37147000  0.62291700  1
  Te  Te29  1  0.25000000  0.62853000  0.37708300  1
  Te  Te30  1  0.75000000  0.12853000  0.12291700  1
  Te  Te31  1  0.25000000  0.87147000  0.87708300  1
  O  O0  1  0.56390600  0.39452600  0.55779600  1
  O  O1  1  0.06390600  0.60547400  0.44220400  1
  O  O2  1  0.56390600  0.10547400  0.05779600  1
  O  O3  1  0.06390600  0.89452600  0.94220400  1
  O  O4  1  0.45204500  0.45227000  0.91082400  1
  O  O5  1  0.95204500  0.54773000  0.08917600  1
  O  O6  1  0.45204500  0.04773000  0.41082400  1
  O  O7  1  0.95204500  0.95227000  0.58917600  1
  O  O8  1  0.56439500  0.34775700  0.68777900  1
  O  O9  1  0.06439500  0.65224300  0.31222100  1
  O  O10  1  0.56439500  0.15224300  0.18777900  1
  O  O11  1  0.06439500  0.84775700  0.81222100  1
  O  O12  1  0.25000000  0.27867400  0.92288700  1
  O  O13  1  0.75000000  0.72132600  0.07711300  1
  O  O14  1  0.25000000  0.22132600  0.42288700  1
  O  O15  1  0.75000000  0.77867400  0.57711300  1
  O  O16  1  0.93560500  0.34775700  0.68777900  1
  O  O17  1  0.43560500  0.65224300  0.31222100  1
  O  O18  1  0.93560500  0.15224300  0.18777900  1
  O  O19  1  0.43560500  0.84775700  0.81222100  1
  O  O20  1  0.99407000  0.16076300  0.66681500  1
  O  O21  1  0.49407000  0.83923700  0.33318500  1
  O  O22  1  0.99407000  0.33923700  0.16681500  1
  O  O23  1  0.49407000  0.66076300  0.83318500  1
  O  O24  1  0.25000000  0.02684400  0.53201400  1
  O  O25  1  0.75000000  0.97315600  0.46798600  1
  O  O26  1  0.25000000  0.47315600  0.03201400  1
  O  O27  1  0.75000000  0.52684400  0.96798600  1
  O  O28  1  0.75000000  0.20390000  0.76538000  1
  O  O29  1  0.25000000  0.79610000  0.23462000  1
  O  O30  1  0.75000000  0.29610000  0.26538000  1
  O  O31  1  0.25000000  0.70390000  0.73462000  1
  O  O32  1  0.50593000  0.16076300  0.66681500  1
  O  O33  1  0.00593000  0.83923700  0.33318500  1
  O  O34  1  0.50593000  0.33923700  0.16681500  1
  O  O35  1  0.00593000  0.66076300  0.83318500  1
  O  O36  1  0.50018000  0.31982800  0.81788700  1
  O  O37  1  0.00018000  0.68017200  0.18211300  1
  O  O38  1  0.50018000  0.18017200  0.31788700  1
  O  O39  1  0.00018000  0.81982800  0.68211300  1
  O  O40  1  0.48022900  0.92485800  0.07555300  1
  O  O41  1  0.98022900  0.07514200  0.92444700  1
  O  O42  1  0.48022900  0.57514200  0.57555300  1
  O  O43  1  0.98022900  0.42485800  0.42444700  1
  O  O44  1  0.93609400  0.39452600  0.55779600  1
  O  O45  1  0.43609400  0.60547400  0.44220400  1
  O  O46  1  0.93609400  0.10547400  0.05779600  1
  O  O47  1  0.43609400  0.89452600  0.94220400  1
  O  O48  1  0.25000000  0.45488600  0.50980400  1
  O  O49  1  0.75000000  0.54511400  0.49019600  1
  O  O50  1  0.25000000  0.04511400  0.00980400  1
  O  O51  1  0.75000000  0.95488600  0.99019600  1
  O  O52  1  0.75000000  0.49158500  0.66195500  1
  O  O53  1  0.25000000  0.50841500  0.33804500  1
  O  O54  1  0.75000000  0.00841500  0.16195500  1
  O  O55  1  0.25000000  0.99158500  0.83804500  1
  O  O56  1  0.75000000  0.25247000  0.58041700  1
  O  O57  1  0.25000000  0.74753000  0.41958300  1
  O  O58  1  0.75000000  0.24753000  0.08041700  1
  O  O59  1  0.25000000  0.75247000  0.91958300  1
  O  O60  1  0.43731500  0.13523900  0.79826800  1
  O  O61  1  0.93731500  0.86476100  0.20173200  1
  O  O62  1  0.43731500  0.36476100  0.29826800  1
  O  O63  1  0.93731500  0.63523900  0.70173200  1
  O  O64  1  0.56268500  0.63523900  0.70173200  1
  O  O65  1  0.06268500  0.36476100  0.29826800  1
  O  O66  1  0.56268500  0.86476100  0.20173200  1
  O  O67  1  0.06268500  0.13523900  0.79826800  1
  O  O68  1  0.93724700  0.11981500  0.53207800  1
  O  O69  1  0.43724700  0.88018500  0.46792200  1
  O  O70  1  0.93724700  0.38018500  0.03207800  1
  O  O71  1  0.43724700  0.61981500  0.96792200  1
  O  O72  1  0.25000000  0.27560500  0.71976500  1
  O  O73  1  0.75000000  0.72439500  0.28023500  1
  O  O74  1  0.25000000  0.22439500  0.21976500  1
  O  O75  1  0.75000000  0.77560500  0.78023500  1
  O  O76  1  0.49982000  0.81982800  0.68211300  1
  O  O77  1  0.99982000  0.18017200  0.31788700  1
  O  O78  1  0.49982000  0.68017200  0.18211300  1
  O  O79  1  0.99982000  0.31982800  0.81788700  1
  O  O80  1  0.56275300  0.11981500  0.53207800  1
  O  O81  1  0.06275300  0.88018500  0.46792200  1
  O  O82  1  0.56275300  0.38018500  0.03207800  1
  O  O83  1  0.06275300  0.61981500  0.96792200  1
  O  O84  1  0.51977100  0.07514200  0.92444700  1
  O  O85  1  0.01977100  0.92485800  0.07555300  1
  O  O86  1  0.51977100  0.42485800  0.42444700  1
  O  O87  1  0.01977100  0.57514200  0.57555300  1
  O  O88  1  0.54795500  0.95227000  0.58917600  1
  O  O89  1  0.04795500  0.04773000  0.41082400  1
  O  O90  1  0.54795500  0.54773000  0.08917600  1
  O  O91  1  0.04795500  0.45227000  0.91082400  1
loop_
_geom_bond_atom_site_label_1
_geom_bond_atom_site_label_2
_geom_bond_distance
_geom_bond_site_symmetry_2
K0 O58 3.028573 1_556
K0 O36 3.081052 1_555
K0 O79 3.081052 1_555
K0 O41 3.091465 1_555
K0 O84 3.091465 1_555
K0 O70 3.163457 1_556
K0 O82 3.163457 1_556
K0 O28 3.339812 1_555
K1 O59 3.028573 1_554
K1 O37 3.081052 1_555
K1 O78 3.081052 1_555
K1 O40 3.091465 1_555
K1 O85 3.091465 1_555
K1 O83 3.163457 1_554
K1 O71 3.163457 1_554
K1 O29 3.339812 1_555
K2 O56 3.028573 1_555
K2 O77 3.081052 1_555
K2 O38 3.081052 1_555
K2 O43 3.091465 1_555
K2 O86 3.091465 1_555
K2 O68 3.163457 1_555
K2 O80 3.163457 1_555
K2 O30 3.339812 1_555
K3 O57 3.028573 1_555
K3 O39 3.081052 1_555
K3 O76 3.081052 1_555
K3 O42 3.091465 1_555
K3 O87 3.091465 1_555
K3 O81 3.163457 1_555
K3 O69 3.163457 1_555
K3 O31 3.339812 1_555
K4 O88 2.994386 1_555
K4 O7 2.994386 1_455
K4 O55 3.056706 1_555
K4 O24 3.102353 1_565
K4 O20 3.133952 1_465
K4 O32 3.133952 1_565
K4 O39 3.192263 1_555
K4 O76 3.192263 1_555
K5 O89 2.994386 1_655
K5 O6 2.994386 1_555
K5 O54 3.056706 1_555
K5 O25 3.102353 1_545
K5 O21 3.133952 1_545
K5 O33 3.133952 1_645
K5 O38 3.192263 1_555
K5 O77 3.192263 1_555
K6 O90 2.994386 1_555
K6 O5 2.994386 1_455
K6 O53 3.056706 1_555
K6 O26 3.102353 1_555
K6 O22 3.133952 1_455
K6 O34 3.133952 1_555
K6 O37 3.192263 1_555
K6 O78 3.192263 1_555
K7 O91 2.994386 1_655
K7 O4 2.994386 1_555
K7 O52 3.056706 1_555
K7 O27 3.102353 1_555
K7 O23 3.133952 1_555
K7 O35 3.133952 1_655
K7 O36 3.192263 1_555
K7 O79 3.192263 1_555
K8 O14 2.801968 1_555
K8 O80 2.994319 1_555
K8 O68 2.994319 1_455
K8 O20 3.064114 1_455
K8 O32 3.064114 1_555
K8 O72 3.193924 1_555
K8 O24 3.236840 1_555
K8 O44 3.261967 1_455
K8 O0 3.261967 1_555
K8 O48 3.350865 1_555
K9 O15 2.801968 1_555
K9 O69 2.994319 1_555
K9 O81 2.994319 1_655
K9 O21 3.064114 1_555
K9 O33 3.064114 1_655
K9 O73 3.193924 1_555
K9 O25 3.236840 1_555
K9 O1 3.261967 1_655
K9 O45 3.261967 1_555
K9 O49 3.350865 1_555
K10 O12 2.801968 1_554
K10 O82 2.994319 1_555
K10 O70 2.994319 1_455
K10 O22 3.064114 1_455
K10 O34 3.064114 1_555
K10 O74 3.193924 1_555
K10 O26 3.236840 1_555
K10 O46 3.261967 1_455
K10 O2 3.261967 1_555
K10 O50 3.350865 1_555
K11 O13 2.801968 1_556
K11 O83 2.994319 1_655
K11 O71 2.994319 1_555
K11 O23 3.064114 1_555
K11 O35 3.064114 1_655
K11 O75 3.193924 1_555
K11 O27 3.236840 1_555
K11 O3 3.261967 1_655
K11 O47 3.261967 1_555
K11 O51 3.350865 1_555
K12 O42 2.819567 1_555
K12 O87 2.819567 1_555
K13 O43 2.819567 1_555
K13 O86 2.819567 1_555
K14 O40 2.819567 1_545
K14 O85 2.819567 1_545
K15 O41 2.819567 1_565
K15 O84 2.819567 1_565
O0 Te28 1.927578 1_555
O0 Te8 2.004723 1_555
O1 Te29 1.927578 1_555
O1 Te9 2.004723 1_555
O2 Te30 1.927578 1_555
O2 Te10 2.004723 1_555
O3 Te31 1.927578 1_555
O3 Te11 2.004723 1_566
O4 Te14 1.952376 1_556
O4 Te0 2.100073 1_555
O5 Te15 1.952376 1_655
O5 Te1 2.100073 1_555
O6 Te12 1.952376 1_555
O6 Te2 2.100073 1_555
O7 Te13 1.952376 1_665
O7 Te3 2.100073 1_555
O8 Te28 1.923251 1_555
O8 Te24 2.046441 1_555
O9 Te29 1.923251 1_555
O9 Te25 2.046441 1_455
O10 Te30 1.923251 1_555
O10 Te26 2.046441 1_555
O11 Te31 1.923251 1_555
O11 Te27 2.046441 1_455
O12 Te0 1.852650 1_555
O12 Te16 2.608033 1_555
O13 Te1 1.852650 1_555
O13 Te17 2.608033 1_555
O14 Te2 1.852650 1_555
O14 Te18 2.608033 1_555
O15 Te3 1.852650 1_555
O15 Te19 2.608033 1_555
O16 Te28 1.923251 1_555
O16 Te4 2.046441 1_655
O17 Te29 1.923251 1_555
O17 Te5 2.046441 1_555
O18 Te30 1.923251 1_555
O18 Te6 2.046441 1_655
O19 Te31 1.923251 1_555
O19 Te7 2.046441 1_555
O20 Te4 1.915806 1_655
O20 Te20 2.209645 1_555
O21 Te5 1.915806 1_555
O21 Te21 2.209645 1_555
O22 Te6 1.915806 1_655
O22 Te22 2.209645 1_555
O23 Te7 1.915806 1_555
O23 Te23 2.209645 1_555
O24 Te12 2.000107 1_555
O24 Te13 2.000107 1_555
O25 Te12 2.000107 1_565
O25 Te13 2.000107 1_665
O26 Te14 2.000107 1_555
O26 Te15 2.000107 1_555
O27 Te15 2.000107 1_656
O27 Te14 2.000107 1_556
O28 Te4 1.976004 1_655
O28 Te24 1.976004 1_555
O29 Te5 1.976004 1_555
O29 Te25 1.976004 1_455
O30 Te6 1.976004 1_655
O30 Te26 1.976004 1_555
O31 Te7 1.976004 1_555
O31 Te27 1.976004 1_455
O32 Te24 1.915806 1_555
O32 Te20 2.209645 1_555
O33 Te25 1.915806 1_455
O33 Te21 2.209645 1_555
O34 Te26 1.915806 1_555
O34 Te22 2.209645 1_555
O35 Te27 1.915806 1_455
O35 Te23 2.209645 1_555
O36 Te24 1.923518 1_555
O36 Te0 2.232363 1_555
O37 Te25 1.923518 1_455
O37 Te1 2.232363 1_455
O38 Te26 1.923518 1_555
O38 Te2 2.232363 1_555
O39 Te27 1.923518 1_455
O39 Te3 2.232363 1_455
O40 Te10 1.884996 1_565
O40 Te17 2.344957 1_555
O41 Te11 1.884996 1_656
O41 Te16 2.344957 1_655
O42 Te8 1.884996 1_555
O42 Te19 2.344957 1_555
O43 Te9 1.884996 1_655
O43 Te18 2.344957 1_655
O44 Te28 1.927578 1_555
O44 Te9 2.004723 1_655
O45 Te29 1.927578 1_555
O45 Te8 2.004723 1_555
O46 Te30 1.927578 1_555
O46 Te11 2.004723 1_655
O47 Te31 1.927578 1_555
O47 Te10 2.004723 1_566
O48 Te9 1.979711 1_555
O48 Te8 1.979711 1_555
O49 Te9 1.979711 1_655
O49 Te8 1.979711 1_555
O50 Te11 1.979711 1_555
O50 Te10 1.979711 1_555
O51 Te11 1.979711 1_666
O51 Te10 1.979711 1_566
O52 Te28 1.948756 1_555
O52 Te19 1.986316 1_555
O53 Te29 1.948756 1_555
O53 Te18 1.986316 1_555
O54 Te30 1.948756 1_555
O54 Te17 1.986316 1_545
O55 Te31 1.948756 1_555
O55 Te16 1.986316 1_565
O56 Te20 1.938580 1_555
O56 Te28 1.962574 1_555
O57 Te21 1.938580 1_555
O57 Te29 1.962574 1_555
O58 Te22 1.938580 1_555
O58 Te30 1.962574 1_555
O59 Te23 1.938580 1_555
O59 Te31 1.962574 1_555
O60 Te24 1.922533 1_555
O60 Te16 2.039131 1_555
O61 Te25 1.922533 1_555
O61 Te17 2.039131 1_555
O62 Te26 1.922533 1_555
O62 Te18 2.039131 1_555
O63 Te27 1.922533 1_555
O63 Te19 2.039131 1_555
O64 Te7 1.922533 1_555
O64 Te19 2.039131 1_555
O65 Te6 1.922533 1_555
O65 Te18 2.039131 1_555
O66 Te5 1.922533 1_555
O66 Te17 2.039131 1_555
O67 Te4 1.922533 1_555
O67 Te16 2.039131 1_555
O68 Te13 1.949324 1_655
O68 Te20 2.065050 1_555
O69 Te12 1.949324 1_565
O69 Te21 2.065050 1_555
O70 Te15 1.949324 1_655
O70 Te22 2.065050 1_555
O71 Te14 1.949324 1_556
O71 Te23 2.065050 1_555
O72 Te24 1.986440 1_555
O72 Te4 1.986440 1_555
O73 Te25 1.986440 1_555
O73 Te5 1.986440 1_555
O74 Te26 1.986440 1_555
O74 Te6 1.986440 1_555
O75 Te27 1.986440 1_555
O75 Te7 1.986440 1_555
O76 Te7 1.923518 1_555
O76 Te3 2.232363 1_555
O77 Te6 1.923518 1_655
O77 Te2 2.232363 1_655
O78 Te5 1.923518 1_555
O78 Te1 2.232363 1_555
O79 Te4 1.923518 1_655
O79 Te0 2.232363 1_655
O80 Te12 1.949324 1_555
O80 Te20 2.065050 1_555
O81 Te13 1.949324 1_565
O81 Te21 2.065050 1_555
O82 Te14 1.949324 1_555
O82 Te22 2.065050 1_555
O83 Te15 1.949324 1_556
O83 Te23 2.065050 1_555
O84 Te10 1.884996 1_556
O84 Te16 2.344957 1_555
O85 Te11 1.884996 1_565
O85 Te17 2.344957 1_455
O86 Te8 1.884996 1_555
O86 Te18 2.344957 1_555
O87 Te9 1.884996 1_555
O87 Te19 2.344957 1_455
O88 Te12 1.952376 1_565
O88 Te3 2.100073 1_555
O89 Te13 1.952376 1_555
O89 Te2 2.100073 1_555
O90 Te14 1.952376 1_555
O90 Te1 2.100073 1_555
O91 Te15 1.952376 1_556
O91 Te0 2.100073 1_555
