# generated using pymatgen
data_MgMn3VCr2(PO4)6
_symmetry_space_group_name_H-M   'P 1'
_cell_length_a   8.79049598
_cell_length_b   8.62290668
_cell_length_c   8.66422403
_cell_angle_alpha   59.98391368
_cell_angle_beta   59.47813978
_cell_angle_gamma   60.11840094
_symmetry_Int_Tables_number   1
_chemical_formula_structural   MgMn3VCr2(PO4)6
_chemical_formula_sum   'Mg1 Mn3 V1 Cr2 P6 O24'
_cell_volume   462.88289472
_cell_formula_units_Z   1
loop_
 _symmetry_equiv_pos_site_id
 _symmetry_equiv_pos_as_xyz
  1  'x, y, z'
loop_
 _atom_site_type_symbol
 _atom_site_label
 _atom_site_symmetry_multiplicity
 _atom_site_fract_x
 _atom_site_fract_y
 _atom_site_fract_z
 _atom_site_occupancy
  Mg  Mg0  1  0.75092000  0.75050900  0.74489100  1
  Mn  Mn0  1  0.11546900  0.62727800  0.63196400  1
  Mn  Mn1  1  0.38590200  0.86771500  0.87223600  1
  Mn  Mn2  1  0.94895700  0.34717300  0.35464900  1
  V  V0  1  0.55762900  0.14912500  0.14936700  1
  Cr  Cr0  1  0.98011800  0.00683400  0.00500000  1
  Cr  Cr1  1  0.52025000  0.49181000  0.49264800  1
  P  P0  1  0.25276700  0.25000200  0.54428500  1
  P  P1  1  0.24953700  0.96078500  0.24870100  1
  P  P2  1  0.24773100  0.54012400  0.96137200  1
  P  P3  1  0.74446900  0.45168300  0.05153600  1
  P  P4  1  0.74856200  0.05238200  0.74933300  1
  P  P5  1  0.75678400  0.74706900  0.44335100  1
  O  O0  1  0.07547800  0.09210700  0.35764400  1
  O  O1  1  0.07608200  0.47436500  0.09158800  1
  O  O2  1  0.08636500  0.35528300  0.47946300  1
  O  O3  1  0.18918600  0.11018400  0.75372400  1
  O  O4  1  0.42561800  0.14437000  0.41096200  1
  O  O5  1  0.32015100  0.38609800  0.55028000  1
  O  O6  1  0.18495600  0.95064300  0.11494100  1
  O  O7  1  0.31362000  0.75381800  0.38797500  1
  O  O8  1  0.57835600  0.61491900  0.99374600  1
  O  O9  1  0.31639400  0.54573400  0.75171200  1
  O  O10  1  0.77006900  0.24972200  0.06856200  1
  O  O11  1  0.57956500  0.00109500  0.80453900  1
  O  O12  1  0.41316700  0.03456900  0.14389300  1
  O  O13  1  0.18132800  0.75156200  0.95256900  1
  O  O14  1  0.71490500  0.43344000  0.25193100  1
  O  O15  1  0.41193400  0.41168400  0.03215200  1
  O  O16  1  0.72882900  0.25210900  0.58893900  1
  O  O17  1  0.76809600  0.07386400  0.90764300  1
  O  O18  1  0.73944600  0.58436600  0.42414100  1
  O  O19  1  0.58314600  0.80109300  0.60987000  1
  O  O20  1  0.77509500  0.90639700  0.24359700  1
  O  O21  1  0.92325400  0.69832900  0.49286900  1
  O  O22  1  0.91664700  0.50234400  0.88726700  1
  O  O23  1  0.91921100  0.88656200  0.69351600  1
loop_
_geom_bond_atom_site_label_1
_geom_bond_atom_site_label_2
_geom_bond_distance
_geom_bond_site_symmetry_2
Mg0 O21 2.051636 1_555
Mg0 O8 2.059095 1_555
Mg0 O11 2.070845 1_565
Mg0 O23 2.073882 1_555
Mg0 O22 2.073957 1_555
Mg0 O19 2.082032 1_555
Mn0 O5 2.124598 1_555
Mn0 O7 2.130582 1_555
Mn0 O9 2.141126 1_555
Mn0 O22 2.161768 1_455
Mn0 O23 2.162056 1_455
Mn0 O21 2.231781 1_455
Mn1 O3 2.114029 1_565
Mn1 O6 2.127539 1_556
Mn1 O13 2.132460 1_555
Mn1 O8 2.135564 1_555
Mn1 O19 2.194162 1_555
Mn1 O11 2.196987 1_565
Mn2 O0 1.899962 1_655
Mn2 O1 1.944143 1_655
Mn2 O2 2.029765 1_655
Mn2 O18 2.071235 1_555
Mn2 O16 2.112552 1_555
Mn2 O14 2.291498 1_555
Cr0 O20 2.061897 1_545
Cr0 O10 2.089717 1_555
Cr0 O13 2.117766 1_644
Cr0 O3 2.130329 1_654
Cr0 O17 2.134238 1_554
Cr0 O6 2.189856 1_645
Cr1 O14 2.024420 1_555
Cr1 O16 2.093397 1_555
Cr1 O5 2.103410 1_555
Cr1 O9 2.143360 1_555
Cr1 O18 2.144449 1_555
Cr1 O7 2.181809 1_555
O0 P1 1.546075 1_545
O1 P2 1.534426 1_554
O2 P0 1.510102 1_555
O3 P0 1.584684 1_555
O4 P0 1.537391 1_555
O4 V0 1.941210 1_555
O5 P0 1.586080 1_555
O6 P1 1.578666 1_555
O7 P1 1.578792 1_555
O8 P3 1.534182 1_556
O9 P2 1.579230 1_555
O10 P3 1.578414 1_555
O10 V0 2.099640 1_555
O11 P4 1.533792 1_555
O12 P1 1.518381 1_545
O12 V0 1.987108 1_555
O13 P2 1.586287 1_555
O14 P3 1.554367 1_555
O15 P2 1.520807 1_554
O15 V0 1.982167 1_555
O16 P4 1.574817 1_555
O17 P4 1.571720 1_555
O17 V0 2.111419 1_556
O18 P5 1.578517 1_555
O19 P5 1.534748 1_555
O20 P5 1.570749 1_555
O20 V0 2.142549 1_565
O21 P5 1.531862 1_555
O22 P3 1.534927 1_556
O23 P4 1.531781 1_565
