# generated using pymatgen
data_PrHoAl4
_symmetry_space_group_name_H-M   'P 1'
_cell_length_a   5.60968501
_cell_length_b   5.60968501
_cell_length_c   5.60968501
_cell_angle_alpha   60.00000000
_cell_angle_beta   60.00000000
_cell_angle_gamma   60.00000000
_symmetry_Int_Tables_number   1
_chemical_formula_structural   PrHoAl4
_chemical_formula_sum   'Pr1 Ho1 Al4'
_cell_volume   124.82467080
_cell_formula_units_Z   1
loop_
 _symmetry_equiv_pos_site_id
 _symmetry_equiv_pos_as_xyz
  1  'x, y, z'
loop_
 _atom_site_type_symbol
 _atom_site_label
 _atom_site_symmetry_multiplicity
 _atom_site_fract_x
 _atom_site_fract_y
 _atom_site_fract_z
 _atom_site_occupancy
  Pr  Pr0  1  0.00000000  0.00000000  0.00000000  1
  Ho  Ho0  1  0.25000000  0.25000000  0.25000000  1
  Al  Al0  1  0.62483204  0.62483204  0.12550588  1
  Al  Al1  1  0.62483204  0.12550588  0.62483204  1
  Al  Al2  1  0.12550588  0.62483204  0.62483204  1
  Al  Al3  1  0.62483204  0.62483204  0.62483204  1
loop_
_geom_bond_atom_site_label_1
_geom_bond_atom_site_label_2
_geom_bond_distance
_geom_bond_site_symmetry_2
Ho0 Pr0 3.435216 1_556
Ho0 Pr0 3.435216 1_565
Ho0 Pr0 3.435216 1_655
Ho0 Pr0 3.435216 1_555
Al0 Al3 2.801062 1_555
Al0 Al1 2.801062 1_555
Al0 Al2 2.801062 1_555
Al0 Al2 2.808623 1_654
Al0 Al1 2.808623 1_564
Al0 Al3 2.808623 1_554
Al0 Ho0 3.288564 1_655
Al0 Ho0 3.288564 1_565
Al0 Ho0 3.288573 1_555
Al0 Pr0 3.289367 1_665
Al0 Pr0 3.289377 1_655
Al0 Pr0 3.289377 1_565
Al1 Al3 2.801062 1_555
Al1 Al2 2.801062 1_555
Al1 Al2 2.808623 1_645
Al1 Al3 2.808623 1_545
Al1 Ho0 3.288564 1_556
Al1 Ho0 3.288564 1_655
Al1 Ho0 3.288573 1_555
Al1 Pr0 3.289367 1_656
Al1 Pr0 3.289377 1_655
Al1 Pr0 3.289377 1_556
Al2 Al3 2.801062 1_555
Al2 Al3 2.808623 1_455
Al2 Ho0 3.288564 1_556
Al2 Ho0 3.288564 1_565
Al2 Ho0 3.288573 1_555
Al2 Pr0 3.289367 1_566
Al2 Pr0 3.289377 1_565
Al2 Pr0 3.289377 1_556
Al3 Ho0 3.288568 1_655
Al3 Ho0 3.288568 1_565
Al3 Ho0 3.288568 1_556
Al3 Pr0 3.289372 1_656
Al3 Pr0 3.289372 1_665
Al3 Pr0 3.289372 1_566
