# generated using pymatgen
data_Li9Mn2Co5O16
_symmetry_space_group_name_H-M   'P 1'
_cell_length_a   5.76790000
_cell_length_b   5.09003000
_cell_length_c   9.70947969
_cell_angle_alpha   81.13292939
_cell_angle_beta   90.00000000
_cell_angle_gamma   90.00000000
_symmetry_Int_Tables_number   1
_chemical_formula_structural   Li9Mn2Co5O16
_chemical_formula_sum   'Li9 Mn2 Co5 O16'
_cell_volume   281.65167441
_cell_formula_units_Z   1
loop_
 _symmetry_equiv_pos_site_id
 _symmetry_equiv_pos_as_xyz
  1  'x, y, z'
loop_
 _atom_site_type_symbol
 _atom_site_label
 _atom_site_symmetry_multiplicity
 _atom_site_fract_x
 _atom_site_fract_y
 _atom_site_fract_z
 _atom_site_occupancy
  Li  Li0  1  0.25247200  0.26222800  0.73838400  1
  Li  Li1  1  0.25247200  0.73777200  0.26161600  1
  Li  Li2  1  0.50202200  0.75989400  0.73441000  1
  Li  Li3  1  0.50202200  0.24010600  0.26559000  1
  Li  Li4  1  0.74923300  0.24681500  0.73282200  1
  Li  Li5  1  0.74923300  0.75318500  0.26717800  1
  Li  Li6  1  0.99810800  0.75017500  0.73848000  1
  Li  Li7  1  0.99810800  0.24982500  0.26152000  1
  Li  Li8  1  0.74964100  0.00000000  0.50000000  1
  Mn  Mn0  1  0.00618000  0.00000000  0.00000000  1
  Mn  Mn1  1  0.75193400  0.50000000  0.00000000  1
  Co  Co0  1  0.99037900  0.50000000  0.50000000  1
  Co  Co1  1  0.24801500  0.50000000  0.00000000  1
  Co  Co2  1  0.24929600  0.00000000  0.50000000  1
  Co  Co3  1  0.49947500  0.00000000  0.00000000  1
  Co  Co4  1  0.49697000  0.50000000  0.50000000  1
  O  O0  1  0.24666500  0.85608400  0.89060000  1
  O  O1  1  0.25482300  0.38089200  0.38428200  1
  O  O2  1  0.49941400  0.36960000  0.89313800  1
  O  O3  1  0.48452700  0.85889400  0.39170900  1
  O  O4  1  0.75704400  0.85596200  0.88922300  1
  O  O5  1  0.74237700  0.39770900  0.38227500  1
  O  O6  1  0.99715400  0.39216900  0.88620200  1
  O  O7  1  0.02021400  0.87696900  0.38469100  1
  O  O8  1  0.25482300  0.61910800  0.61571800  1
  O  O9  1  0.24666500  0.14391600  0.10940000  1
  O  O10  1  0.48452700  0.14110600  0.60829100  1
  O  O11  1  0.49941400  0.63040000  0.10686200  1
  O  O12  1  0.74237700  0.60229100  0.61772500  1
  O  O13  1  0.75704400  0.14403800  0.11077700  1
  O  O14  1  0.02021400  0.12303100  0.61530900  1
  O  O15  1  0.99715400  0.60783100  0.11379800  1
loop_
_geom_bond_atom_site_label_1
_geom_bond_atom_site_label_2
_geom_bond_distance
_geom_bond_site_symmetry_2
Li0 O14 1.996412 1_555
Li0 O10 2.001794 1_555
Li0 O8 2.012838 1_555
Li0 O2 2.199623 1_555
Li0 O6 2.226813 1_455
Li0 O0 2.348868 1_545
Li1 O7 1.996412 1_555
Li1 O3 2.001794 1_555
Li1 O1 2.012838 1_555
Li1 O11 2.199623 1_555
Li1 O15 2.226813 1_455
Li1 O9 2.348868 1_565
Li2 O8 2.032041 1_555
Li2 O12 2.032054 1_555
Li2 O10 2.131260 1_565
Li2 O4 2.211074 1_555
Li2 O0 2.222121 1_555
Li2 O2 2.319085 1_555
Li3 O1 2.032041 1_555
Li3 O5 2.032054 1_555
Li3 O3 2.131260 1_545
Li3 O13 2.211074 1_555
Li3 O9 2.222121 1_555
Li3 O11 2.319085 1_555
Li4 O12 1.975081 1_555
Li4 O10 2.069586 1_555
Li4 O14 2.088877 1_655
Li4 O6 2.269306 1_555
Li4 O2 2.278102 1_555
Li4 O4 2.309686 1_545
Li5 O5 1.975081 1_555
Li5 O3 2.069586 1_555
Li5 O7 2.088877 1_655
Li5 O15 2.269306 1_555
Li5 O11 2.278102 1_555
Li5 O13 2.309686 1_565
Li6 O8 2.074479 1_655
Li6 O14 2.085333 1_665
Li6 O12 2.095014 1_555
Li6 O6 2.138255 1_555
Li6 O4 2.146727 1_555
Li6 O0 2.184714 1_655
Li7 O1 2.074479 1_655
Li7 O7 2.085333 1_645
Li7 O5 2.095014 1_555
Li7 O15 2.138255 1_555
Li7 O13 2.146727 1_555
Li7 O9 2.184714 1_655
Li8 O10 2.047565 1_555
Li8 O3 2.047565 1_545
Li8 O14 2.073014 1_655
Li8 O7 2.073014 1_645
Li8 O12 2.166324 1_545
Li8 O5 2.166324 1_555
Mn0 O0 1.956738 1_544
Mn0 O9 1.956738 1_555
Mn0 O4 2.000614 1_444
Mn0 O13 2.000614 1_455
Mn0 O15 2.127964 1_445
Mn0 O6 2.127964 1_454
Mn1 O15 1.926031 1_555
Mn1 O6 1.926031 1_554
Mn1 O4 1.959539 1_554
Mn1 O13 1.959539 1_555
Mn1 O2 1.962356 1_554
Mn1 O11 1.962356 1_555
Co0 O12 1.951234 1_555
Co0 O5 1.951234 1_555
Co0 O8 2.041186 1_655
Co0 O1 2.041186 1_655
Co0 O7 2.074259 1_655
Co0 O14 2.074259 1_655
Co1 O15 1.950050 1_455
Co1 O6 1.950050 1_454
Co1 O0 1.954461 1_554
Co1 O9 1.954461 1_555
Co1 O11 1.957562 1_555
Co1 O2 1.957562 1_554
Co2 O14 1.899391 1_555
Co2 O7 1.899391 1_545
Co2 O10 1.922263 1_555
Co2 O3 1.922263 1_545
Co2 O8 2.085815 1_545
Co2 O1 2.085815 1_555
Co3 O11 2.003496 1_545
Co3 O2 2.003496 1_554
Co3 O9 2.007758 1_555
Co3 O0 2.007758 1_544
Co3 O4 2.035833 1_544
Co3 O13 2.035833 1_555
Co4 O12 1.940288 1_555
Co4 O5 1.940288 1_555
Co4 O8 1.946961 1_555
Co4 O1 1.946961 1_555
Co4 O3 1.963589 1_555
Co4 O10 1.963589 1_555
