# generated using pymatgen
data_Ti(FeO2)2
_symmetry_space_group_name_H-M   'P 1'
_cell_length_a   2.94878800
_cell_length_b   9.93337600
_cell_length_c   9.97048700
_cell_angle_alpha   90.00000000
_cell_angle_beta   90.00000000
_cell_angle_gamma   90.00000000
_symmetry_Int_Tables_number   1
_chemical_formula_structural   Ti(FeO2)2
_chemical_formula_sum   'Ti4 Fe8 O16'
_cell_volume   292.04972181
_cell_formula_units_Z   4
loop_
 _symmetry_equiv_pos_site_id
 _symmetry_equiv_pos_as_xyz
  1  'x, y, z'
loop_
 _atom_site_type_symbol
 _atom_site_label
 _atom_site_symmetry_multiplicity
 _atom_site_fract_x
 _atom_site_fract_y
 _atom_site_fract_z
 _atom_site_occupancy
  Ti  Ti0  1  0.50000000  0.63038300  0.43050600  1
  Ti  Ti1  1  0.50000000  0.36961700  0.56949400  1
  Ti  Ti2  1  0.50000000  0.63038300  0.06949400  1
  Ti  Ti3  1  0.50000000  0.36961700  0.93050600  1
  Fe  Fe0  1  0.00000000  0.37606200  0.25000000  1
  Fe  Fe1  1  0.00000000  0.62393800  0.75000000  1
  Fe  Fe2  1  0.50000000  0.89040900  0.25000000  1
  Fe  Fe3  1  0.50000000  0.10959100  0.75000000  1
  Fe  Fe4  1  0.00000000  0.12698900  0.42492900  1
  Fe  Fe5  1  0.00000000  0.87301100  0.57507100  1
  Fe  Fe6  1  0.00000000  0.12698900  0.07507100  1
  Fe  Fe7  1  0.00000000  0.87301100  0.92492900  1
  O  O0  1  0.00000000  0.50000000  0.50000000  1
  O  O1  1  0.00000000  0.50000000  0.00000000  1
  O  O2  1  0.50000000  0.00000000  0.50000000  1
  O  O3  1  0.50000000  0.00000000  0.00000000  1
  O  O4  1  0.50000000  0.54442200  0.25000000  1
  O  O5  1  0.50000000  0.45557800  0.75000000  1
  O  O6  1  0.00000000  0.03493100  0.25000000  1
  O  O7  1  0.00000000  0.96506900  0.75000000  1
  O  O8  1  0.50000000  0.28969000  0.10994400  1
  O  O9  1  0.50000000  0.71031000  0.89005600  1
  O  O10  1  0.50000000  0.28969000  0.39005600  1
  O  O11  1  0.50000000  0.71031000  0.60994400  1
  O  O12  1  0.00000000  0.75941200  0.11449300  1
  O  O13  1  0.00000000  0.24058800  0.88550700  1
  O  O14  1  0.00000000  0.75941200  0.38550700  1
  O  O15  1  0.00000000  0.24058800  0.61449300  1
loop_
_geom_bond_atom_site_label_1
_geom_bond_atom_site_label_2
_geom_bond_distance
_geom_bond_site_symmetry_2
Fe0 O10 2.204529 1_455
Fe0 O10 2.204529 1_555
Fe0 O8 2.204529 1_555
Fe0 O8 2.204529 1_455
Fe0 O4 2.229507 1_455
Fe0 O4 2.229507 1_555
Fe1 O9 2.204529 1_455
Fe1 O9 2.204529 1_555
Fe1 O11 2.204529 1_555
Fe1 O11 2.204529 1_455
Fe1 O5 2.229507 1_555
Fe1 O5 2.229507 1_455
Fe2 O6 2.057853 1_565
Fe2 O6 2.057853 1_665
Fe2 O14 2.385888 1_655
Fe2 O12 2.385888 1_555
Fe2 O12 2.385888 1_655
Fe2 O14 2.385888 1_555
Fe3 O7 2.057853 1_545
Fe3 O7 2.057853 1_645
Fe3 O13 2.385888 1_555
Fe3 O13 2.385888 1_655
Fe3 O15 2.385888 1_555
Fe3 O15 2.385888 1_655
Fe4 O6 1.969313 1_555
Fe4 O2 2.079732 1_455
Fe4 O2 2.079732 1_555
Fe4 O15 2.201274 1_555
Fe4 O10 2.215116 1_555
Fe4 O10 2.215116 1_455
Fe5 O7 1.969313 1_555
Fe5 O2 2.079732 1_565
Fe5 O2 2.079732 1_465
Fe5 O14 2.201274 1_555
Fe5 O11 2.215116 1_555
Fe5 O11 2.215116 1_455
Fe6 O6 1.969313 1_555
Fe6 O3 2.079732 1_555
Fe6 O3 2.079732 1_455
Fe6 O13 2.201274 1_554
Fe6 O8 2.215116 1_555
Fe6 O8 2.215116 1_455
Fe7 O7 1.969313 1_555
Fe7 O3 2.079732 1_466
Fe7 O3 2.079732 1_566
Fe7 O12 2.201274 1_556
Fe7 O9 2.215116 1_455
Fe7 O9 2.215116 1_555
O0 Ti0 2.081185 1_555
O0 Ti1 2.081185 1_555
O0 Ti1 2.081185 1_455
O0 Ti0 2.081185 1_455
O1 Ti2 2.081185 1_555
O1 Ti2 2.081185 1_455
O1 Ti3 2.081185 1_554
O1 Ti3 2.081185 1_454
O4 Ti0 1.992023 1_555
O4 Ti2 1.992023 1_555
O5 Ti3 1.992023 1_555
O5 Ti1 1.992023 1_555
O8 Ti3 1.957338 1_554
O9 Ti2 1.957338 1_556
O10 Ti1 1.957338 1_555
O11 Ti0 1.957338 1_555
O12 Ti2 2.004463 1_455
O12 Ti2 2.004463 1_555
O13 Ti3 2.004463 1_555
O13 Ti3 2.004463 1_455
O14 Ti0 2.004463 1_455
O14 Ti0 2.004463 1_555
O15 Ti1 2.004463 1_455
O15 Ti1 2.004463 1_555
