# generated using pymatgen
data_CeNd3C8
_symmetry_space_group_name_H-M   'P 1'
_cell_length_a   3.84655800
_cell_length_b   3.84655800
_cell_length_c   12.85673900
_cell_angle_alpha   90.00000000
_cell_angle_beta   90.00000000
_cell_angle_gamma   90.00000000
_symmetry_Int_Tables_number   1
_chemical_formula_structural   CeNd3C8
_chemical_formula_sum   'Ce1 Nd3 C8'
_cell_volume   190.22841885
_cell_formula_units_Z   1
loop_
 _symmetry_equiv_pos_site_id
 _symmetry_equiv_pos_as_xyz
  1  'x, y, z'
loop_
 _atom_site_type_symbol
 _atom_site_label
 _atom_site_symmetry_multiplicity
 _atom_site_fract_x
 _atom_site_fract_y
 _atom_site_fract_z
 _atom_site_occupancy
  Ce  Ce0  1  0.00000000  0.00000000  0.00000000  1
  Nd  Nd0  1  0.50000000  0.50000000  0.75130100  1
  Nd  Nd1  1  0.00000000  0.00000000  0.50000000  1
  Nd  Nd2  1  0.50000000  0.50000000  0.24869900  1
  C  C0  1  0.00000000  0.00000000  0.80102000  1
  C  C1  1  0.50000000  0.50000000  0.55019900  1
  C  C2  1  0.00000000  0.00000000  0.30014800  1
  C  C3  1  0.50000000  0.50000000  0.05071500  1
  C  C4  1  0.50000000  0.50000000  0.94928500  1
  C  C5  1  0.00000000  0.00000000  0.69985200  1
  C  C6  1  0.50000000  0.50000000  0.44980100  1
  C  C7  1  0.00000000  0.00000000  0.19898000  1
loop_
_geom_bond_atom_site_label_1
_geom_bond_atom_site_label_2
_geom_bond_distance
_geom_bond_site_symmetry_2
C0 C5 1.300691 1_555
C0 Ce0 2.558234 1_556
C0 Nd0 2.794031 1_545
C0 Nd0 2.794031 1_455
C0 Nd0 2.794031 1_445
C0 Nd0 2.794031 1_555
C1 C6 1.290791 1_555
C1 Nd0 2.585516 1_555
C1 Nd1 2.795450 1_555
C1 Nd1 2.795450 1_655
C1 Nd1 2.795450 1_565
C1 Nd1 2.795450 1_665
C2 C7 1.300691 1_555
C2 Nd1 2.569445 1_555
C2 Nd2 2.799204 1_455
C2 Nd2 2.799204 1_545
C2 Nd2 2.799204 1_555
C2 Nd2 2.799204 1_445
C3 C4 1.304059 1_554
C3 Nd2 2.545429 1_555
C3 Ce0 2.796989 1_565
C3 Ce0 2.796989 1_555
C3 Ce0 2.796989 1_655
C3 Ce0 2.796989 1_665
C4 Nd0 2.545429 1_555
C4 Ce0 2.796989 1_666
C4 Ce0 2.796989 1_656
C4 Ce0 2.796989 1_556
C4 Ce0 2.796989 1_566
C5 Nd1 2.569445 1_555
C5 Nd0 2.799204 1_545
C5 Nd0 2.799204 1_455
C5 Nd0 2.799204 1_445
C5 Nd0 2.799204 1_555
C6 Nd2 2.585516 1_555
C6 Nd1 2.795450 1_555
C6 Nd1 2.795450 1_655
C6 Nd1 2.795450 1_565
C6 Nd1 2.795450 1_665
C7 Ce0 2.558234 1_555
C7 Nd2 2.794031 1_545
C7 Nd2 2.794031 1_555
C7 Nd2 2.794031 1_455
C7 Nd2 2.794031 1_445
