# generated using pymatgen
data_Cs(PRu)2
_symmetry_space_group_name_H-M   'P 1'
_cell_length_a   7.58939365
_cell_length_b   7.58939365
_cell_length_c   7.58939365
_cell_angle_alpha   149.10280814
_cell_angle_beta   149.10280814
_cell_angle_gamma   44.25999976
_symmetry_Int_Tables_number   1
_chemical_formula_structural   Cs(PRu)2
_chemical_formula_sum   'Cs1 P2 Ru2'
_cell_volume   114.92921676
_cell_formula_units_Z   1
loop_
 _symmetry_equiv_pos_site_id
 _symmetry_equiv_pos_as_xyz
  1  'x, y, z'
loop_
 _atom_site_type_symbol
 _atom_site_label
 _atom_site_symmetry_multiplicity
 _atom_site_fract_x
 _atom_site_fract_y
 _atom_site_fract_z
 _atom_site_occupancy
  Cs  Cs0  1  -0.00000000  -0.00000000  -0.00000000  1
  P  P0  1  0.32775030  0.32775030  0.00000000  1
  P  P1  1  0.67224970  0.67224970  -0.00000000  1
  Ru  Ru0  1  0.75000000  0.25000000  0.50000000  1
  Ru  Ru1  1  0.25000000  0.75000000  0.50000000  1
loop_
_geom_bond_atom_site_label_1
_geom_bond_atom_site_label_2
_geom_bond_distance
_geom_bond_site_symmetry_2
Cs0 P1 3.746947 1_455
Cs0 P1 3.746947 1_444
Cs0 P1 3.746947 1_545
Cs0 P0 3.746947 1_556
Cs0 P1 3.746947 1_556
Cs0 P0 3.746947 1_444
Cs0 P0 3.746947 1_455
Cs0 P0 3.746947 1_545
P0 Ru0 2.298270 1_454
P0 Ru0 2.298270 1_555
P0 Ru1 2.298270 1_544
P0 Ru1 2.298270 1_555
P1 Ru1 2.298270 1_655
P1 Ru0 2.298270 1_565
P1 Ru0 2.298270 1_554
P1 Ru1 2.298270 1_554
