# generated using pymatgen
data_Cs2TiO3
_symmetry_space_group_name_H-M   'P 1'
_cell_length_a   6.77243218
_cell_length_b   6.77243218
_cell_length_c   5.55480525
_cell_angle_alpha   90.00000000
_cell_angle_beta   90.00000000
_cell_angle_gamma   110.78720415
_symmetry_Int_Tables_number   1
_chemical_formula_structural   Cs2TiO3
_chemical_formula_sum   'Cs4 Ti2 O6'
_cell_volume   238.19115494
_cell_formula_units_Z   2
loop_
 _symmetry_equiv_pos_site_id
 _symmetry_equiv_pos_as_xyz
  1  'x, y, z'
loop_
 _atom_site_type_symbol
 _atom_site_label
 _atom_site_symmetry_multiplicity
 _atom_site_fract_x
 _atom_site_fract_y
 _atom_site_fract_z
 _atom_site_occupancy
  Cs  Cs0  1  0.50729891  0.18301900  0.75000000  1
  Cs  Cs1  1  0.81698100  0.49270109  0.25000000  1
  Cs  Cs2  1  0.49270109  0.81698100  0.25000000  1
  Cs  Cs3  1  0.18301900  0.50729891  0.75000000  1
  Ti  Ti0  1  0.07660510  0.07660510  0.25000000  1
  Ti  Ti1  1  0.92339490  0.92339490  0.75000000  1
  O  O0  1  0.88679203  0.11320797  0.00000000  1
  O  O1  1  0.88679203  0.11320797  0.50000000  1
  O  O2  1  0.69204472  0.69204472  0.75000000  1
  O  O3  1  0.30795528  0.30795528  0.25000000  1
  O  O4  1  0.11320797  0.88679203  0.00000000  1
  O  O5  1  0.11320797  0.88679203  0.50000000  1
loop_
_geom_bond_atom_site_label_1
_geom_bond_atom_site_label_2
_geom_bond_distance
_geom_bond_site_symmetry_2
Cs0 O5 3.045657 1_545
Cs0 O4 3.045657 1_546
Cs0 O0 3.101593 1_556
Cs0 O1 3.101593 1_555
Cs0 O2 3.223057 1_555
Cs0 O3 3.326154 1_555
Cs0 O3 3.326154 1_556
Cs1 O4 3.045657 1_655
Cs1 O5 3.045657 1_655
Cs1 O1 3.101593 1_555
Cs1 O0 3.101593 1_555
Cs1 O3 3.223057 1_555
Cs1 O2 3.326154 1_554
Cs1 O2 3.326154 1_555
Cs2 O0 3.045657 1_565
Cs2 O1 3.045657 1_565
Cs2 O4 3.101593 1_555
Cs2 O5 3.101593 1_555
Cs2 O3 3.223057 1_555
Cs2 O2 3.326154 1_554
Cs2 O2 3.326154 1_555
Cs3 O0 3.045657 1_456
Cs3 O1 3.045657 1_455
Cs3 O4 3.101593 1_556
Cs3 O5 3.101593 1_555
Cs3 O2 3.223057 1_555
Cs3 O3 3.326154 1_555
Cs3 O3 3.326154 1_556
O0 Ti0 1.966882 1_655
O0 Ti1 1.966882 1_544
O1 Ti0 1.966882 1_655
O1 Ti1 1.966882 1_545
O2 Ti1 1.779687 1_555
O3 Ti0 1.779687 1_555
O4 Ti0 1.966882 1_565
O4 Ti1 1.966882 1_454
O5 Ti0 1.966882 1_565
O5 Ti1 1.966882 1_455
