# generated using pymatgen
data_YbCdCu4
_symmetry_space_group_name_H-M   'P 1'
_cell_length_a   5.06104466
_cell_length_b   5.06104466
_cell_length_c   5.06104466
_cell_angle_alpha   60.00000000
_cell_angle_beta   60.00000000
_cell_angle_gamma   60.00000000
_symmetry_Int_Tables_number   1
_chemical_formula_structural   YbCdCu4
_chemical_formula_sum   'Yb1 Cd1 Cu4'
_cell_volume   91.66541553
_cell_formula_units_Z   1
loop_
 _symmetry_equiv_pos_site_id
 _symmetry_equiv_pos_as_xyz
  1  'x, y, z'
loop_
 _atom_site_type_symbol
 _atom_site_label
 _atom_site_symmetry_multiplicity
 _atom_site_fract_x
 _atom_site_fract_y
 _atom_site_fract_z
 _atom_site_occupancy
  Yb  Yb0  1  0.75000000  0.75000000  0.75000000  1
  Cd  Cd0  1  0.00000000  0.00000000  0.00000000  1
  Cu  Cu0  1  0.37468200  0.87595400  0.37468200  1
  Cu  Cu1  1  0.37468200  0.37468200  0.37468200  1
  Cu  Cu2  1  0.87595400  0.37468200  0.37468200  1
  Cu  Cu3  1  0.37468200  0.37468200  0.87595400  1
loop_
_geom_bond_atom_site_label_1
_geom_bond_atom_site_label_2
_geom_bond_distance
_geom_bond_site_symmetry_2
Cd0 Cu2 2.966617 1_445
Cd0 Cu3 2.966617 1_554
Cd0 Cu1 2.966617 1_545
Cd0 Cu3 2.966617 1_454
Cd0 Cu3 2.966617 1_544
Cd0 Cu0 2.966617 1_544
Cd0 Cu0 2.966617 1_545
Cd0 Cu2 2.966617 1_455
Cd0 Cu0 2.966617 1_445
Cd0 Cu1 2.966617 1_455
Cd0 Cu2 2.966617 1_454
Cd0 Cu1 2.966617 1_554
Cd0 Yb0 3.099244 1_544
Cd0 Yb0 3.099244 1_454
Cd0 Yb0 3.099244 1_444
Cd0 Yb0 3.099244 1_445
Cu0 Cu2 2.524085 1_465
Cu0 Cu1 2.524085 1_565
Cu0 Cu3 2.524085 1_564
Cu0 Cu3 2.536960 1_555
Cu0 Cu1 2.536960 1_555
Cu0 Cu2 2.536960 1_555
Cu0 Yb0 2.967989 1_554
Cu0 Yb0 2.967989 1_555
Cu0 Yb0 2.967989 1_455
Cu1 Cu3 2.524085 1_554
Cu1 Cu2 2.524085 1_455
Cu1 Cu3 2.536960 1_555
Cu1 Cu2 2.536960 1_555
Cu1 Yb0 2.967989 1_554
Cu1 Yb0 2.967989 1_455
Cu1 Yb0 2.967989 1_545
Cu2 Cu3 2.524085 1_654
Cu2 Cu3 2.536960 1_555
Cu2 Yb0 2.967989 1_554
Cu2 Yb0 2.967989 1_545
Cu2 Yb0 2.967989 1_555
Cu3 Yb0 2.967989 1_555
Cu3 Yb0 2.967989 1_545
Cu3 Yb0 2.967989 1_455
