# generated using pymatgen
data_Np(FeP3)4
_symmetry_space_group_name_H-M   'P 1'
_cell_length_a   6.69583070
_cell_length_b   6.69582562
_cell_length_c   6.69583718
_cell_angle_alpha   109.47220684
_cell_angle_beta   109.47109470
_cell_angle_gamma   109.47049011
_symmetry_Int_Tables_number   1
_chemical_formula_structural   Np(FeP3)4
_chemical_formula_sum   'Np1 Fe4 P12'
_cell_volume   231.09518533
_cell_formula_units_Z   1
loop_
 _symmetry_equiv_pos_site_id
 _symmetry_equiv_pos_as_xyz
  1  'x, y, z'
loop_
 _atom_site_type_symbol
 _atom_site_label
 _atom_site_symmetry_multiplicity
 _atom_site_fract_x
 _atom_site_fract_y
 _atom_site_fract_z
 _atom_site_occupancy
  Np  Np0  1  -0.00000000  -0.00000000  -0.00000000  1
  Fe  Fe0  1  0.50000000  0.50000000  0.50000000  1
  Fe  Fe1  1  0.50000000  -0.00000000  -0.00000000  1
  Fe  Fe2  1  -0.00000000  0.50000000  -0.00000000  1
  Fe  Fe3  1  -0.00000000  -0.00000000  0.50000000  1
  P  P0  1  0.84910370  0.64980198  0.49890935  1
  P  P1  1  0.15089630  0.35019802  0.50109065  1
  P  P2  1  0.15089348  0.64980323  0.80069906  1
  P  P3  1  0.84910652  0.35019677  0.19930094  1
  P  P4  1  0.64980068  0.49890566  0.84910073  1
  P  P5  1  0.35019932  0.50109434  0.15089927  1
  P  P6  1  0.64979789  0.80069067  0.15089497  1
  P  P7  1  0.35020211  0.19930933  0.84910503  1
  P  P8  1  0.49890079  0.84909925  0.64979837  1
  P  P9  1  0.50109921  0.15090075  0.35020163  1
  P  P10  1  0.19929955  0.84910178  0.35020009  1
  P  P11  1  0.80070045  0.15089822  0.64979991  1
loop_
_geom_bond_atom_site_label_1
_geom_bond_atom_site_label_2
_geom_bond_distance
_geom_bond_site_symmetry_2
Np0 P2 2.948227 1_544
Np0 P3 2.948227 1_455
Np0 P0 2.948230 1_444
Np0 P1 2.948230 1_555
Np0 P5 2.948288 1_555
Np0 P4 2.948288 1_444
Np0 P10 2.948305 1_545
Np0 P11 2.948305 1_454
Np0 P9 2.948309 1_555
Np0 P8 2.948309 1_444
Np0 P6 2.948327 1_445
Np0 P7 2.948327 1_554
Fe0 P8 2.218855 1_555
Fe0 P9 2.218855 1_555
Fe0 P5 2.218872 1_555
Fe0 P4 2.218872 1_555
Fe0 P0 2.218887 1_555
Fe0 P1 2.218887 1_555
Fe1 P9 2.218880 1_555
Fe1 P8 2.218880 1_544
Fe1 P2 2.218901 1_544
Fe1 P3 2.218901 1_555
Fe1 P7 2.218918 1_554
Fe1 P6 2.218918 1_545
Fe2 P11 2.218869 1_454
Fe2 P10 2.218869 1_555
Fe2 P2 2.218891 1_554
Fe2 P3 2.218891 1_455
Fe2 P4 2.218899 1_454
Fe2 P5 2.218899 1_555
Fe3 P10 2.218857 1_545
Fe3 P11 2.218857 1_455
Fe3 P6 2.218900 1_445
Fe3 P7 2.218900 1_555
Fe3 P1 2.218910 1_555
Fe3 P0 2.218910 1_445
P0 P3 2.316447 1_555
P0 P2 2.333341 1_655
P1 P2 2.316447 1_555
P1 P3 2.333341 1_455
P4 P7 2.316428 1_555
P4 P6 2.333323 1_556
P5 P6 2.316428 1_555
P5 P7 2.333323 1_554
P10 P8 2.316424 1_555
P10 P9 2.333430 1_565
P11 P9 2.316424 1_555
P11 P8 2.333430 1_545
