# generated using pymatgen
data_YGaPd2
_symmetry_space_group_name_H-M   'P 1'
_cell_length_a   5.57044268
_cell_length_b   7.06928107
_cell_length_c   7.40537537
_cell_angle_alpha   90.00000000
_cell_angle_beta   90.00000000
_cell_angle_gamma   90.00000000
_symmetry_Int_Tables_number   1
_chemical_formula_structural   YGaPd2
_chemical_formula_sum   'Y4 Ga4 Pd8'
_cell_volume   291.61646175
_cell_formula_units_Z   4
loop_
 _symmetry_equiv_pos_site_id
 _symmetry_equiv_pos_as_xyz
  1  'x, y, z'
loop_
 _atom_site_type_symbol
 _atom_site_label
 _atom_site_symmetry_multiplicity
 _atom_site_fract_x
 _atom_site_fract_y
 _atom_site_fract_z
 _atom_site_occupancy
  Y  Y0  1  0.35634945  0.75000000  0.03077654  1
  Y  Y1  1  0.14365055  0.75000000  0.53077654  1
  Y  Y2  1  0.64365055  0.25000000  0.96922346  1
  Y  Y3  1  0.85634945  0.25000000  0.46922346  1
  Ga  Ga0  1  0.64341591  0.75000000  0.38336324  1
  Ga  Ga1  1  0.85658409  0.75000000  0.88336324  1
  Ga  Ga2  1  0.35658409  0.25000000  0.61663676  1
  Ga  Ga3  1  0.14341591  0.25000000  0.11663676  1
  Pd  Pd0  1  0.91017441  0.55166033  0.18152887  1
  Pd  Pd1  1  0.58982559  0.94833967  0.68152887  1
  Pd  Pd2  1  0.08982559  0.05166033  0.81847113  1
  Pd  Pd3  1  0.41017441  0.44833967  0.31847113  1
  Pd  Pd4  1  0.08982559  0.44833967  0.81847113  1
  Pd  Pd5  1  0.41017441  0.05166033  0.31847113  1
  Pd  Pd6  1  0.91017441  0.94833967  0.18152887  1
  Pd  Pd7  1  0.58982559  0.55166033  0.68152887  1
loop_
_geom_bond_atom_site_label_1
_geom_bond_atom_site_label_2
_geom_bond_distance
_geom_bond_site_symmetry_2
Ga0 Pd6 2.531409 1_555
Ga0 Pd0 2.531409 1_555
Ga0 Pd3 2.542961 1_555
Ga0 Pd5 2.542961 1_565
Ga0 Pd7 2.632573 1_555
Ga0 Pd1 2.632573 1_555
Ga0 Y1 2.990298 1_555
Ga0 Y1 2.992732 1_655
Ga0 Y0 3.061796 1_555
Ga1 Pd1 2.531409 1_555
Ga1 Pd7 2.531409 1_555
Ga1 Pd4 2.542961 1_655
Ga1 Pd2 2.542961 1_665
Ga1 Pd6 2.632573 1_556
Ga1 Pd0 2.632573 1_556
Ga1 Y0 2.990298 1_656
Ga1 Y0 2.992732 1_556
Ga1 Y1 3.061796 1_655
Ga2 Pd2 2.531409 1_555
Ga2 Pd4 2.531409 1_555
Ga2 Pd1 2.542961 1_545
Ga2 Pd7 2.542961 1_555
Ga2 Pd5 2.632573 1_555
Ga2 Pd3 2.632573 1_555
Ga2 Y3 2.990298 1_555
Ga2 Y3 2.992732 1_455
Ga2 Y2 3.061796 1_555
Ga3 Pd5 2.531409 1_555
Ga3 Pd3 2.531409 1_555
Ga3 Pd0 2.542961 1_455
Ga3 Pd6 2.542961 1_445
Ga3 Pd2 2.632573 1_554
Ga3 Pd4 2.632573 1_554
Ga3 Y2 2.990298 1_454
Ga3 Y2 2.992732 1_554
Ga3 Y3 3.061796 1_455
Pd0 Y3 3.029277 1_555
Pd0 Y2 3.037049 1_554
Pd0 Y0 3.064215 1_655
Pd0 Y1 3.216583 1_655
Pd1 Y2 3.029277 1_565
Pd1 Y3 3.037049 1_565
Pd1 Y1 3.064215 1_555
Pd1 Y0 3.216583 1_556
Pd2 Y1 3.029277 1_545
Pd2 Y0 3.037049 1_546
Pd2 Y2 3.064215 1_455
Pd2 Y3 3.216583 1_455
Pd3 Y0 3.029277 1_555
Pd3 Y1 3.037049 1_555
Pd3 Y3 3.064215 1_555
Pd3 Y2 3.216583 1_554
Pd4 Y1 3.029277 1_555
Pd4 Y0 3.037049 1_556
Pd4 Y2 3.064215 1_455
Pd4 Y3 3.216583 1_455
Pd5 Y0 3.029277 1_545
Pd5 Y1 3.037049 1_545
Pd5 Y3 3.064215 1_555
Pd5 Y2 3.216583 1_554
Pd6 Y3 3.029277 1_565
Pd6 Y2 3.037049 1_564
Pd6 Y0 3.064215 1_655
Pd6 Y1 3.216583 1_655
Pd7 Y2 3.029277 1_555
Pd7 Y3 3.037049 1_555
Pd7 Y1 3.064215 1_555
Pd7 Y0 3.216583 1_556
