# generated using pymatgen
data_U3(CoNi2)2
_symmetry_space_group_name_H-M   'P 1'
_cell_length_a   4.92052700
_cell_length_b   5.00662838
_cell_length_c   11.98931926
_cell_angle_alpha   91.18667106
_cell_angle_beta   89.59618901
_cell_angle_gamma   118.98141374
_symmetry_Int_Tables_number   1
_chemical_formula_structural   U3(CoNi2)2
_chemical_formula_sum   'U6 Co4 Ni8'
_cell_volume   258.31708769
_cell_formula_units_Z   2
loop_
 _symmetry_equiv_pos_site_id
 _symmetry_equiv_pos_as_xyz
  1  'x, y, z'
loop_
 _atom_site_type_symbol
 _atom_site_label
 _atom_site_symmetry_multiplicity
 _atom_site_fract_x
 _atom_site_fract_y
 _atom_site_fract_z
 _atom_site_occupancy
  U  U0  1  0.33183300  0.67204000  0.29244300  1
  U  U1  1  0.00195700  0.00607200  0.62164300  1
  U  U2  1  0.67122200  0.34209200  0.95652500  1
  U  U3  1  0.32877800  0.65790800  0.04347500  1
  U  U4  1  0.99804300  0.99392800  0.37835700  1
  U  U5  1  0.66816700  0.32796000  0.70755700  1
  Co  Co0  1  0.50000000  0.00000000  0.50000000  1
  Co  Co1  1  0.16760500  0.33385700  0.83392700  1
  Co  Co2  1  0.83239500  0.66614300  0.16607300  1
  Co  Co3  1  0.00000000  0.50000000  0.50000000  1
  Ni  Ni0  1  0.66693400  0.83349400  0.83324900  1
  Ni  Ni1  1  0.33306600  0.16650600  0.16675100  1
  Ni  Ni2  1  0.33367300  0.66654200  0.66645400  1
  Ni  Ni3  1  0.00000000  0.00000000  0.00000000  1
  Ni  Ni4  1  0.66632700  0.33345800  0.33354600  1
  Ni  Ni5  1  0.50000000  0.50000000  0.50000000  1
  Ni  Ni6  1  0.16751000  0.83458500  0.83319300  1
  Ni  Ni7  1  0.83249000  0.16541500  0.16680700  1
loop_
_geom_bond_atom_site_label_1
_geom_bond_atom_site_label_2
_geom_bond_distance
_geom_bond_site_symmetry_2
Co0 Ni4 2.496128 1_555
Co0 Ni2 2.496128 1_545
Co0 Ni5 2.503314 1_555
Co0 Ni5 2.503314 1_545
Co0 Co3 2.520173 1_545
Co0 Co3 2.520173 1_655
Co0 U5 2.848930 1_555
Co0 U0 2.848930 1_545
Co0 U1 2.855432 1_555
Co0 U4 2.855432 1_545
Co0 U4 2.864341 1_445
Co0 U1 2.864341 1_655
Co1 Ni3 2.493472 1_556
Co1 Ni6 2.499276 1_545
Co1 Ni2 2.504021 1_555
Co1 Ni6 2.507383 1_555
Co1 Ni0 2.517718 1_555
Co1 Ni0 2.522655 1_445
Co1 U2 2.858727 1_455
Co1 U3 2.861012 1_556
Co1 U2 2.872772 1_555
Co1 U5 2.883745 1_455
Co1 U5 2.894632 1_555
Co1 U1 2.897466 1_555
Co2 Ni3 2.493472 1_665
Co2 Ni7 2.499276 1_565
Co2 Ni4 2.504021 1_555
Co2 Ni7 2.507383 1_555
Co2 Ni1 2.517718 1_555
Co2 Ni1 2.522655 1_665
Co2 U3 2.858727 1_655
Co2 U2 2.861012 1_554
Co2 U3 2.872772 1_555
Co2 U0 2.883745 1_655
Co2 U0 2.894632 1_555
Co2 U4 2.897466 1_555
Co3 Ni4 2.454433 1_455
Co3 Ni2 2.454433 1_555
Co3 Ni5 2.460263 1_555
Co3 Ni5 2.460263 1_455
Co3 U5 2.875592 1_455
Co3 U0 2.875592 1_555
Co3 U4 2.893144 1_445
Co3 U1 2.893144 1_565
Co3 U1 2.900867 1_555
Co3 U4 2.900867 1_455
Ni0 Ni3 2.455801 1_666
Ni0 Ni2 2.456716 1_555
Ni0 Ni6 2.460085 1_555
Ni0 Ni6 2.460451 1_655
Ni0 U2 2.905028 1_555
Ni0 U2 2.908842 1_565
Ni0 U3 2.917077 1_556
Ni0 U5 2.921268 1_555
Ni0 U5 2.922232 1_565
Ni0 U1 2.924393 1_665
Ni1 Ni3 2.455801 1_555
Ni1 Ni4 2.456716 1_555
Ni1 Ni7 2.460085 1_555
Ni1 Ni7 2.460451 1_455
Ni1 U3 2.905028 1_555
Ni1 U3 2.908842 1_545
Ni1 U2 2.917077 1_554
Ni1 U0 2.921268 1_555
Ni1 U0 2.922232 1_545
Ni1 U4 2.924393 1_445
Ni2 Ni5 2.432508 1_555
Ni2 Ni6 2.438556 1_555
Ni2 U5 2.910720 1_455
Ni2 U5 2.928320 1_555
Ni2 U5 2.929140 1_565
Ni2 U1 2.929396 1_565
Ni2 U1 2.930427 1_665
Ni2 U1 2.931849 1_555
Ni3 Ni7 2.436081 1_455
Ni3 Ni6 2.436081 1_544
Ni3 U2 2.918144 1_444
Ni3 U3 2.918144 1_555
Ni3 U3 2.925093 1_545
Ni3 U2 2.925093 1_454
Ni3 U2 2.940140 1_554
Ni3 U3 2.940140 1_445
Ni4 Ni5 2.432508 1_555
Ni4 Ni7 2.438556 1_555
Ni4 U0 2.910720 1_655
Ni4 U0 2.928320 1_555
Ni4 U0 2.929140 1_545
Ni4 U4 2.929396 1_545
Ni4 U4 2.930427 1_445
Ni4 U4 2.931849 1_555
Ni5 U0 2.903026 1_555
Ni5 U5 2.903026 1_555
Ni5 U1 2.911055 1_555
Ni5 U4 2.911055 1_555
Ni5 U1 2.912121 1_665
Ni5 U4 2.912121 1_445
Ni6 U2 2.914583 1_455
Ni6 U3 2.927288 1_556
Ni6 U2 2.928989 1_565
Ni6 U5 2.931592 1_455
Ni6 U1 2.937827 1_565
Ni6 U5 2.940116 1_565
Ni7 U3 2.914583 1_655
Ni7 U2 2.927288 1_554
Ni7 U3 2.928989 1_545
Ni7 U0 2.931592 1_655
Ni7 U4 2.937827 1_545
Ni7 U0 2.940116 1_545
