# generated using pymatgen
data_H16S(N3O5)2
_symmetry_space_group_name_H-M   'P 1'
_cell_length_a   11.37978900
_cell_length_b   10.31073700
_cell_length_c   10.42055650
_cell_angle_alpha   75.44160960
_cell_angle_beta   90.00000000
_cell_angle_gamma   90.00000000
_symmetry_Int_Tables_number   1
_chemical_formula_structural   H16S(N3O5)2
_chemical_formula_sum   'H64 S4 N24 O40'
_cell_volume   1183.42767192
_cell_formula_units_Z   4
loop_
 _symmetry_equiv_pos_site_id
 _symmetry_equiv_pos_as_xyz
  1  'x, y, z'
loop_
 _atom_site_type_symbol
 _atom_site_label
 _atom_site_symmetry_multiplicity
 _atom_site_fract_x
 _atom_site_fract_y
 _atom_site_fract_z
 _atom_site_occupancy
  H  H0  1  0.58441600  0.88547400  0.98822800  1
  H  H1  1  0.08441600  0.61452600  0.01177200  1
  H  H2  1  0.41558400  0.11452600  0.01177200  1
  H  H3  1  0.91558400  0.38547400  0.98822800  1
  H  H4  1  0.57636500  0.79802300  0.14497700  1
  H  H5  1  0.07636500  0.70197700  0.85502300  1
  H  H6  1  0.42363500  0.20197700  0.85502300  1
  H  H7  1  0.92363500  0.29802300  0.14497700  1
  H  H8  1  0.59999700  0.96510500  0.11057600  1
  H  H9  1  0.09999700  0.53489500  0.88942400  1
  H  H10  1  0.40000300  0.03489500  0.88942400  1
  H  H11  1  0.90000300  0.46510500  0.11057600  1
  H  H12  1  0.70914600  0.86093000  0.08447700  1
  H  H13  1  0.20914600  0.63907000  0.91552300  1
  H  H14  1  0.29085400  0.13907000  0.91552300  1
  H  H15  1  0.79085400  0.36093000  0.08447700  1
  H  H16  1  0.69592000  0.06267300  0.64871800  1
  H  H17  1  0.19592000  0.43732700  0.35128200  1
  H  H18  1  0.30408000  0.93732700  0.35128200  1
  H  H19  1  0.80408000  0.56267300  0.64871800  1
  H  H20  1  0.56029200  0.13166800  0.61190200  1
  H  H21  1  0.06029200  0.36833200  0.38809800  1
  H  H22  1  0.43970800  0.86833200  0.38809800  1
  H  H23  1  0.93970800  0.63166800  0.61190200  1
  H  H24  1  0.57069400  0.97187400  0.70100900  1
  H  H25  1  0.07069400  0.52812600  0.29899100  1
  H  H26  1  0.42930600  0.02812600  0.29899100  1
  H  H27  1  0.92930600  0.47187400  0.70100900  1
  H  H28  1  0.61212200  0.01592500  0.53797100  1
  H  H29  1  0.11212200  0.48407500  0.46202900  1
  H  H30  1  0.38787800  0.98407500  0.46202900  1
  H  H31  1  0.88787800  0.51592500  0.53797100  1
  H  H32  1  0.67935000  0.51089400  0.30141700  1
  H  H33  1  0.17935000  0.98910600  0.69858300  1
  H  H34  1  0.32065000  0.48910600  0.69858300  1
  H  H35  1  0.82065000  0.01089400  0.30141700  1
  H  H36  1  0.53617400  0.47975800  0.34090600  1
  H  H37  1  0.03617400  0.02024200  0.65909400  1
  H  H38  1  0.46382600  0.52024200  0.65909400  1
  H  H39  1  0.96382600  0.97975800  0.34090600  1
  H  H40  1  0.63364000  0.47070200  0.46191400  1
  H  H41  1  0.13364000  0.02929800  0.53808600  1
  H  H42  1  0.36636000  0.52929800  0.53808600  1
  H  H43  1  0.86636000  0.97070200  0.46191400  1
  H  H44  1  0.63291400  0.35159700  0.37368000  1
  H  H45  1  0.13291400  0.14840300  0.62632000  1
  H  H46  1  0.36708600  0.64840300  0.62632000  1
  H  H47  1  0.86708600  0.85159700  0.37368000  1
  H  H48  1  0.83000700  0.19138600  0.86108700  1
  H  H49  1  0.33000700  0.30861400  0.13891300  1
  H  H50  1  0.16999300  0.80861400  0.13891300  1
  H  H51  1  0.66999300  0.69138600  0.86108700  1
  H  H52  1  0.86299000  0.02721600  0.88926000  1
  H  H53  1  0.36299000  0.47278400  0.11074000  1
  H  H54  1  0.13701000  0.97278400  0.11074000  1
  H  H55  1  0.63701000  0.52721600  0.88926000  1
  H  H56  1  0.96538000  0.13452400  0.92016100  1
  H  H57  1  0.46538000  0.36547600  0.07983900  1
  H  H58  1  0.03462000  0.86547600  0.07983900  1
  H  H59  1  0.53462000  0.63452400  0.92016100  1
  H  H60  1  0.84102800  0.09974300  0.01616200  1
  H  H61  1  0.34102800  0.40025700  0.98383800  1
  H  H62  1  0.15897200  0.90025700  0.98383800  1
  H  H63  1  0.65897200  0.59974300  0.01616200  1
  S  S0  1  0.62816800  0.18243300  0.20148500  1
  S  S1  1  0.12816800  0.31756700  0.79851500  1
  S  S2  1  0.37183200  0.81756700  0.79851500  1
  S  S3  1  0.87183200  0.68243300  0.20148500  1
  N  N0  1  0.61887400  0.87787400  0.08184500  1
  N  N1  1  0.11887400  0.62212600  0.91815500  1
  N  N2  1  0.38112600  0.12212600  0.91815500  1
  N  N3  1  0.88112600  0.37787400  0.08184500  1
  N  N4  1  0.60990300  0.04487500  0.62536100  1
  N  N5  1  0.10990300  0.45512500  0.37463900  1
  N  N6  1  0.39009700  0.95512500  0.37463900  1
  N  N7  1  0.89009700  0.54487500  0.62536100  1
  N  N8  1  0.62110000  0.45250300  0.36989700  1
  N  N9  1  0.12110000  0.04749700  0.63010300  1
  N  N10  1  0.37890000  0.54749700  0.63010300  1
  N  N11  1  0.87890000  0.95250300  0.36989700  1
  N  N12  1  0.87566800  0.11298200  0.92197500  1
  N  N13  1  0.37566800  0.38701800  0.07802500  1
  N  N14  1  0.12433200  0.88701800  0.07802500  1
  N  N15  1  0.62433200  0.61298200  0.92197500  1
  N  N16  1  0.86943000  0.80608800  0.83458200  1
  N  N17  1  0.36943000  0.69391200  0.16541800  1
  N  N18  1  0.13057000  0.19391200  0.16541800  1
  N  N19  1  0.63057000  0.30608800  0.83458200  1
  N  N20  1  0.62253800  0.71300500  0.51251600  1
  N  N21  1  0.12253800  0.78699500  0.48748400  1
  N  N22  1  0.37746200  0.28699500  0.48748400  1
  N  N23  1  0.87746200  0.21300500  0.51251600  1
  O  O0  1  0.62743900  0.32714200  0.12667600  1
  O  O1  1  0.12743900  0.17285800  0.87332400  1
  O  O2  1  0.37256100  0.67285800  0.87332400  1
  O  O3  1  0.87256100  0.82714200  0.12667600  1
  O  O4  1  0.73719000  0.11641300  0.16778900  1
  O  O5  1  0.23719000  0.38358700  0.83221100  1
  O  O6  1  0.26281000  0.88358700  0.83221100  1
  O  O7  1  0.76281000  0.61641300  0.16778900  1
  O  O8  1  0.52283400  0.11363400  0.15976900  1
  O  O9  1  0.02283400  0.38636600  0.84023100  1
  O  O10  1  0.47716600  0.88636600  0.84023100  1
  O  O11  1  0.97716600  0.61363400  0.15976900  1
  O  O12  1  0.62261600  0.17122000  0.34605600  1
  O  O13  1  0.12261600  0.32878000  0.65394400  1
  O  O14  1  0.37738400  0.82878000  0.65394400  1
  O  O15  1  0.87738400  0.67122000  0.34605600  1
  O  O16  1  0.77314000  0.86842700  0.83607100  1
  O  O17  1  0.27314000  0.63157300  0.16392900  1
  O  O18  1  0.22686000  0.13157300  0.16392900  1
  O  O19  1  0.72686000  0.36842700  0.83607100  1
  O  O20  1  0.96638200  0.86790500  0.83454500  1
  O  O21  1  0.46638200  0.63209500  0.16545500  1
  O  O22  1  0.03361800  0.13209500  0.16545500  1
  O  O23  1  0.53361800  0.36790500  0.83454500  1
  O  O24  1  0.86897500  0.68373900  0.83464400  1
  O  O25  1  0.36897500  0.81626100  0.16535600  1
  O  O26  1  0.13102500  0.31626100  0.16535600  1
  O  O27  1  0.63102500  0.18373900  0.83464400  1
  O  O28  1  0.64064700  0.59678700  0.59141200  1
  O  O29  1  0.14064700  0.90321300  0.40858800  1
  O  O30  1  0.35935300  0.40321300  0.40858800  1
  O  O31  1  0.85935300  0.09678700  0.59141200  1
  O  O32  1  0.67837600  0.81298300  0.52792200  1
  O  O33  1  0.17837600  0.68701700  0.47207800  1
  O  O34  1  0.32162400  0.18701700  0.47207800  1
  O  O35  1  0.82162400  0.31298300  0.52792200  1
  O  O36  1  0.54765900  0.72310100  0.42007500  1
  O  O37  1  0.04765900  0.77689900  0.57992500  1
  O  O38  1  0.45234100  0.27689900  0.57992500  1
  O  O39  1  0.95234100  0.22310100  0.42007500  1
loop_
_geom_bond_atom_site_label_1
_geom_bond_atom_site_label_2
_geom_bond_distance
_geom_bond_site_symmetry_2
H0 N0 1.035930 1_556
H1 N1 1.035930 1_554
H2 N2 1.035930 1_554
H3 N3 1.035930 1_556
H4 N0 1.035549 1_555
H5 N1 1.035549 1_555
H6 N2 1.035549 1_555
H7 N3 1.035549 1_555
H8 N0 1.039282 1_555
H9 N1 1.039282 1_555
H10 N2 1.039282 1_555
H11 N3 1.039282 1_555
H12 N0 1.041231 1_555
H13 N1 1.041231 1_555
H14 N2 1.041231 1_555
H15 N3 1.041231 1_555
H16 N4 1.036112 1_555
H17 N5 1.036112 1_555
H18 N6 1.036112 1_555
H19 N7 1.036112 1_555
H20 N4 1.037376 1_555
H21 N5 1.037376 1_555
H22 N6 1.037376 1_555
H23 N7 1.037376 1_555
H24 N4 1.043431 1_565
H25 N5 1.043431 1_555
H26 N6 1.043431 1_545
H27 N7 1.043431 1_555
H28 N4 1.027463 1_555
H29 N5 1.027463 1_555
H30 N6 1.027463 1_555
H31 N7 1.027463 1_555
H32 N8 1.046474 1_555
H33 N9 1.046474 1_565
H34 N10 1.046474 1_555
H35 N11 1.046474 1_545
H36 N8 1.030322 1_555
H37 N9 1.030322 1_555
H38 N10 1.030322 1_555
H39 N11 1.030322 1_555
H40 N8 1.032210 1_555
H41 N9 1.032210 1_555
H42 N10 1.032210 1_555
H43 N11 1.032210 1_555
H44 N8 1.039939 1_555
H45 N9 1.039939 1_555
H46 N10 1.039939 1_555
H47 N11 1.039939 1_555
H48 N12 1.033549 1_555
H49 N13 1.033549 1_555
H50 N14 1.033549 1_555
H51 N15 1.033549 1_555
H52 N12 1.034697 1_555
H53 N13 1.034697 1_555
H54 N14 1.034697 1_555
H55 N15 1.034697 1_555
H56 N12 1.043947 1_555
H57 N13 1.043947 1_555
H58 N14 1.043947 1_555
H59 N15 1.043947 1_555
H60 N12 1.034396 1_554
H61 N13 1.034396 1_556
H62 N14 1.034396 1_556
H63 N15 1.034396 1_554
N16 O24 1.261357 1_555
N16 O16 1.272433 1_555
N16 O20 1.274121 1_555
N17 O25 1.261357 1_555
N17 O17 1.272433 1_555
N17 O21 1.274121 1_555
N18 O26 1.261357 1_555
N18 O18 1.272433 1_555
N18 O22 1.274121 1_555
N19 O27 1.261357 1_555
N19 O19 1.272433 1_555
N19 O23 1.274121 1_555
N20 O32 1.255142 1_555
N20 O36 1.270603 1_555
N20 O28 1.288027 1_555
N21 O33 1.255142 1_555
N21 O37 1.270603 1_555
N21 O29 1.288027 1_555
N22 O34 1.255142 1_555
N22 O38 1.270603 1_555
N22 O30 1.288027 1_555
N23 O35 1.255142 1_555
N23 O39 1.270603 1_555
N23 O31 1.288027 1_555
O0 S0 1.499752 1_555
O1 S1 1.499752 1_555
O2 S2 1.499752 1_555
O3 S3 1.499752 1_555
O4 S0 1.498678 1_555
O5 S1 1.498678 1_555
O6 S2 1.498678 1_555
O7 S3 1.498678 1_555
O8 S0 1.511300 1_555
O9 S1 1.511300 1_555
O10 S2 1.511300 1_555
O11 S3 1.511300 1_555
O12 S0 1.483027 1_555
O13 S1 1.483027 1_555
O14 S2 1.483027 1_555
O15 S3 1.483027 1_555
