# generated using pymatgen
data_CuPb2Cl3O2
_symmetry_space_group_name_H-M   'P 1'
_cell_length_a   12.16245519
_cell_length_b   12.16245519
_cell_length_c   12.16245519
_cell_angle_alpha   110.55451706
_cell_angle_beta   110.55451706
_cell_angle_gamma   107.32569770
_symmetry_Int_Tables_number   1
_chemical_formula_structural   CuPb2Cl3O2
_chemical_formula_sum   'Cu8 Pb16 Cl24 O16'
_cell_volume   1383.52503338
_cell_formula_units_Z   8
loop_
 _symmetry_equiv_pos_site_id
 _symmetry_equiv_pos_as_xyz
  1  'x, y, z'
loop_
 _atom_site_type_symbol
 _atom_site_label
 _atom_site_symmetry_multiplicity
 _atom_site_fract_x
 _atom_site_fract_y
 _atom_site_fract_z
 _atom_site_occupancy
  Cu  Cu0  1  0.90800800  0.59199200  0.00000000  1
  Cu  Cu1  1  0.40800800  0.40800800  0.31601500  1
  Cu  Cu2  1  0.84199200  0.65800800  0.50000000  1
  Cu  Cu3  1  0.34199200  0.84199200  0.18398500  1
  Cu  Cu4  1  0.09199200  0.09199200  0.68398500  1
  Cu  Cu5  1  0.59199200  0.90800800  0.00000000  1
  Cu  Cu6  1  0.65800800  0.15800800  0.81601500  1
  Cu  Cu7  1  0.15800800  0.34199200  0.50000000  1
  Pb  Pb0  1  0.07687700  0.57609000  0.31843200  1
  Pb  Pb1  1  0.57687700  0.25844500  0.50078700  1
  Pb  Pb2  1  0.82609000  0.82687700  0.81843200  1
  Pb  Pb3  1  0.32609000  0.50765800  0.99921300  1
  Pb  Pb4  1  0.67312300  0.67391000  0.18156800  1
  Pb  Pb5  1  0.17312300  0.99155500  0.99921300  1
  Pb  Pb6  1  0.92391000  0.42312300  0.68156800  1
  Pb  Pb7  1  0.42391000  0.74234200  0.50078700  1
  Pb  Pb8  1  0.75765800  0.07609000  0.49921300  1
  Pb  Pb9  1  0.25765800  0.75844500  0.68156800  1
  Pb  Pb10  1  0.50844500  0.32687700  0.00078700  1
  Pb  Pb11  1  0.00844500  0.00765800  0.18156800  1
  Pb  Pb12  1  0.99234200  0.17391000  0.00078700  1
  Pb  Pb13  1  0.49234200  0.49155500  0.81843200  1
  Pb  Pb14  1  0.24155500  0.92312300  0.49921300  1
  Pb  Pb15  1  0.74155500  0.24234200  0.31843200  1
  Cl  Cl0  1  0.85682000  0.37500000  0.98182000  1
  Cl  Cl1  1  0.35682000  0.37500000  0.48182000  1
  Cl  Cl2  1  0.62500000  0.60682000  0.48182000  1
  Cl  Cl3  1  0.12500000  0.64318000  0.01818000  1
  Cl  Cl4  1  0.89318000  0.87500000  0.51818000  1
  Cl  Cl5  1  0.39318000  0.87500000  0.01818000  1
  Cl  Cl6  1  0.62500000  0.10682000  0.98182000  1
  Cl  Cl7  1  0.12500000  0.14318000  0.51818000  1
  Cl  Cl8  1  0.95423000  0.74905700  0.20475100  1
  Cl  Cl9  1  0.45423000  0.24947900  0.20517300  1
  Cl  Cl10  1  0.99905700  0.70423000  0.70475100  1
  Cl  Cl11  1  0.49905700  0.79430600  0.29482700  1
  Cl  Cl12  1  0.79577000  0.50094300  0.29524900  1
  Cl  Cl13  1  0.29577000  0.00052100  0.29482700  1
  Cl  Cl14  1  0.75094300  0.54577000  0.79524900  1
  Cl  Cl15  1  0.25094300  0.45569400  0.20517300  1
  Cl  Cl16  1  0.04430600  0.24905700  0.79482700  1
  Cl  Cl17  1  0.54430600  0.74947900  0.79524900  1
  Cl  Cl18  1  0.49947900  0.20423000  0.70517300  1
  Cl  Cl19  1  0.99947900  0.29430600  0.29524900  1
  Cl  Cl20  1  0.70569400  0.00094300  0.70517300  1
  Cl  Cl21  1  0.20569400  0.50052100  0.70475100  1
  Cl  Cl22  1  0.25052100  0.04577000  0.79482700  1
  Cl  Cl23  1  0.75052100  0.95569400  0.20475100  1
  O  O0  1  0.10307000  0.74926400  0.49955600  1
  O  O1  1  0.60307000  0.10351500  0.35380600  1
  O  O2  1  0.99926400  0.85307000  0.99955600  1
  O  O3  1  0.49926400  0.49970800  0.14619400  1
  O  O4  1  0.64693000  0.50073600  0.00044400  1
  O  O5  1  0.14693000  0.14648500  0.14619400  1
  O  O6  1  0.75073600  0.39693000  0.50044400  1
  O  O7  1  0.25073600  0.75029200  0.35380600  1
  O  O8  1  0.74970800  0.24926400  0.64619400  1
  O  O9  1  0.24970800  0.60351500  0.50044400  1
  O  O10  1  0.35351500  0.35307000  0.85380600  1
  O  O11  1  0.85351500  0.99970800  0.00044400  1
  O  O12  1  0.00029200  0.00073600  0.85380600  1
  O  O13  1  0.50029200  0.64648500  0.99955600  1
  O  O14  1  0.39648500  0.89693000  0.64619400  1
  O  O15  1  0.89648500  0.25029200  0.49955600  1
loop_
_geom_bond_atom_site_label_1
_geom_bond_atom_site_label_2
_geom_bond_distance
_geom_bond_site_symmetry_2
Cl0 Cu0 2.432401 1_556
Cl0 Cu6 2.432403 1_555
Cl1 Cu7 2.432401 1_555
Cl1 Cu1 2.432413 1_555
Cl2 Cu2 2.432401 1_555
Cl2 Cu1 2.432403 1_555
Cl3 Cu0 2.432401 1_455
Cl3 Cu3 2.432403 1_555
Cl4 Cu2 2.432401 1_555
Cl4 Cu4 2.432403 1_665
Cl5 Cu5 2.432401 1_555
Cl5 Cu3 2.432413 1_555
Cl6 Cu5 2.432401 1_546
Cl6 Cu6 2.432413 1_555
Cl7 Cu7 2.432401 1_555
Cl7 Cu4 2.432413 1_555
Cl8 Cu0 2.281138 1_555
Cl9 Cu1 2.281133 1_555
Cl10 Cu2 2.281138 1_555
Cl11 Cu3 2.281133 1_555
Cl12 Cu2 2.281138 1_555
Cl13 Cu3 2.281133 1_545
Cl14 Cu0 2.281138 1_556
Cl15 Cu1 2.281133 1_555
Cl16 Cu4 2.281133 1_555
Cl17 Cu5 2.281138 1_556
Cl18 Cu6 2.281133 1_555
Cl19 Cu7 2.281138 1_655
Cl20 Cu6 2.281133 1_555
Cl21 Cu7 2.281138 1_555
Cl22 Cu4 2.281133 1_555
Cl23 Cu5 2.281138 1_555
O0 Pb14 2.279935 1_555
O0 Pb9 2.286210 1_555
O0 Pb0 2.289100 1_555
O1 Pb15 2.279928 1_555
O1 Pb8 2.286218 1_555
O1 Pb1 2.289093 1_555
O2 Pb5 2.279935 1_655
O2 Pb11 2.286210 1_666
O2 Pb2 2.289100 1_555
O3 Pb4 2.279935 1_555
O3 Pb10 2.286210 1_555
O3 Pb3 2.289100 1_554
O4 Pb10 2.279935 1_555
O4 Pb13 2.286210 1_554
O4 Pb4 2.289100 1_555
O5 Pb11 2.279928 1_555
O5 Pb12 2.286218 1_455
O5 Pb5 2.289093 1_544
O6 Pb1 2.279935 1_555
O6 Pb15 2.286210 1_555
O6 Pb6 2.289100 1_555
O7 Pb0 2.279935 1_555
O7 Pb14 2.286210 1_555
O7 Pb7 2.289100 1_555
O8 Pb6 2.279935 1_555
O8 Pb1 2.286210 1_555
O8 Pb8 2.289100 1_555
O9 Pb7 2.279930 1_555
O9 Pb0 2.286204 1_555
O9 Pb9 2.289094 1_555
O10 Pb13 2.279928 1_555
O10 Pb3 2.286218 1_555
O10 Pb10 2.289093 1_556
O11 Pb12 2.279930 1_565
O11 Pb2 2.286204 1_554
O11 Pb11 2.289094 1_665
O12 Pb2 2.279935 1_445
O12 Pb5 2.286210 1_545
O12 Pb12 2.289100 1_456
O13 Pb3 2.279930 1_555
O13 Pb4 2.286204 1_556
O13 Pb13 2.289094 1_555
O14 Pb9 2.279928 1_555
O14 Pb7 2.286218 1_555
O14 Pb14 2.289093 1_555
O15 Pb8 2.279930 1_555
O15 Pb6 2.286204 1_555
O15 Pb15 2.289094 1_555
