# generated using pymatgen
data_MnSbO4
_symmetry_space_group_name_H-M   'P 1'
_cell_length_a   5.65825043
_cell_length_b   5.64575201
_cell_length_c   9.79964551
_cell_angle_alpha   90.00201982
_cell_angle_beta   90.23428362
_cell_angle_gamma   90.00589335
_symmetry_Int_Tables_number   1
_chemical_formula_structural   MnSbO4
_chemical_formula_sum   'Mn4 Sb4 O16'
_cell_volume   313.04782826
_cell_formula_units_Z   4
loop_
 _symmetry_equiv_pos_site_id
 _symmetry_equiv_pos_as_xyz
  1  'x, y, z'
loop_
 _atom_site_type_symbol
 _atom_site_label
 _atom_site_symmetry_multiplicity
 _atom_site_fract_x
 _atom_site_fract_y
 _atom_site_fract_z
 _atom_site_occupancy
  Mn  Mn0  1  0.47580800  0.99976100  0.50809500  1
  Mn  Mn1  1  0.77412800  0.49967600  0.74191900  1
  Mn  Mn2  1  0.97575800  0.99973000  0.00814000  1
  Mn  Mn3  1  0.27425600  0.49979300  0.24182600  1
  Sb  Sb0  1  0.49520700  0.25030100  0.99508400  1
  Sb  Sb1  1  0.99536600  0.25041200  0.49508900  1
  Sb  Sb2  1  0.75489500  0.75036000  0.25494600  1
  Sb  Sb3  1  0.25465100  0.75038400  0.75489100  1
  O  O0  1  0.19971400  0.27338300  0.09983500  1
  O  O1  1  0.69988200  0.27323600  0.59990700  1
  O  O2  1  0.45160600  0.72554200  0.35004800  1
  O  O3  1  0.95141400  0.72566800  0.85013400  1
  O  O4  1  0.79845200  0.22559300  0.89998500  1
  O  O5  1  0.29859500  0.22568300  0.39986800  1
  O  O6  1  0.05030000  0.77346500  0.15016700  1
  O  O7  1  0.55006000  0.77331300  0.65009400  1
  O  O8  1  0.29761100  0.99966600  0.90145800  1
  O  O9  1  0.79774100  0.99960800  0.40145600  1
  O  O10  1  0.57481700  0.50135200  0.14048300  1
  O  O11  1  0.07463700  0.50128000  0.64067300  1
  O  O12  1  0.45222900  0.49955500  0.84855500  1
  O  O13  1  0.95244500  0.49967700  0.34851700  1
  O  O14  1  0.67520200  0.00129600  0.10949500  1
  O  O15  1  0.17522500  0.00126600  0.60933500  1
loop_
_geom_bond_atom_site_label_1
_geom_bond_atom_site_label_2
_geom_bond_distance
_geom_bond_site_symmetry_2
Mn0 O7 1.934641 1_555
Mn0 O5 1.936193 1_565
Mn0 O15 1.972511 1_565
Mn0 O9 2.103756 1_555
Mn0 O1 2.188838 1_565
Mn0 O2 2.193727 1_555
Mn1 O1 1.934574 1_555
Mn1 O3 1.936417 1_555
Mn1 O11 1.972180 1_655
Mn1 O12 2.103574 1_555
Mn1 O7 2.189744 1_555
Mn1 O4 2.193455 1_555
Mn2 O6 1.934508 1_655
Mn2 O4 1.935860 1_564
Mn2 O14 1.972952 1_565
Mn2 O8 2.103574 1_654
Mn2 O0 2.188693 1_665
Mn2 O3 2.192866 1_554
Mn3 O0 1.934673 1_555
Mn3 O2 1.935737 1_555
Mn3 O10 1.972915 1_555
Mn3 O13 2.103412 1_455
Mn3 O6 2.188854 1_555
Mn3 O5 2.193402 1_555
O0 Sb0 1.969847 1_554
O1 Sb1 1.970052 1_555
O2 Sb2 1.961168 1_555
O3 Sb3 1.961531 1_655
O4 Sb0 1.960912 1_555
O5 Sb1 1.961414 1_455
O6 Sb2 1.969558 1_455
O7 Sb3 1.969604 1_555
O8 Sb0 2.021218 1_565
O8 Sb3 2.024777 1_555
O9 Sb1 2.022008 1_565
O9 Sb2 2.024172 1_555
O10 Sb0 2.058288 1_554
O10 Sb2 2.064713 1_555
O11 Sb1 2.058418 1_455
O11 Sb3 2.063606 1_555
O12 Sb3 2.022304 1_555
O12 Sb0 2.024520 1_555
O13 Sb2 2.021228 1_555
O13 Sb1 2.024824 1_555
O14 Sb2 2.058428 1_545
O14 Sb0 2.064392 1_554
O15 Sb3 2.058604 1_545
O15 Sb1 2.063682 1_455
