# generated using pymatgen
data_CaZrSi6H4O17
_symmetry_space_group_name_H-M   'P 1'
_cell_length_a   7.95903142
_cell_length_b   10.07918865
_cell_length_c   10.07918865
_cell_angle_alpha   90.60310360
_cell_angle_beta   103.37917028
_cell_angle_gamma   103.37917028
_symmetry_Int_Tables_number   1
_chemical_formula_structural   CaZrSi6H4O17
_chemical_formula_sum   'Ca2 Zr2 Si12 H8 O34'
_cell_volume   763.51006514
_cell_formula_units_Z   2
loop_
 _symmetry_equiv_pos_site_id
 _symmetry_equiv_pos_as_xyz
  1  'x, y, z'
loop_
 _atom_site_type_symbol
 _atom_site_label
 _atom_site_symmetry_multiplicity
 _atom_site_fract_x
 _atom_site_fract_y
 _atom_site_fract_z
 _atom_site_occupancy
  Ca  Ca0  1  0.04724900  0.75469700  0.75469700  1
  Ca  Ca1  1  0.95275100  0.24530300  0.24530300  1
  Zr  Zr0  1  0.00000000  0.00000000  0.50000000  1
  Zr  Zr1  1  0.00000000  0.50000000  0.00000000  1
  Si  Si0  1  0.33785200  0.57353700  0.80107100  1
  Si  Si1  1  0.33785200  0.80107100  0.57353700  1
  Si  Si2  1  0.66214800  0.42646300  0.19892900  1
  Si  Si3  1  0.66214800  0.19892900  0.42646300  1
  Si  Si4  1  0.73010900  0.73037500  0.95019000  1
  Si  Si5  1  0.73010900  0.95019000  0.73037500  1
  Si  Si6  1  0.26989100  0.26962500  0.04981000  1
  Si  Si7  1  0.26989100  0.04981000  0.26962500  1
  Si  Si8  1  0.30261300  0.26129400  0.74613100  1
  Si  Si9  1  0.30261300  0.74613100  0.26129400  1
  Si  Si10  1  0.69738700  0.73870600  0.25386900  1
  Si  Si11  1  0.69738700  0.25386900  0.73870600  1
  H  H0  1  0.82899500  0.49008400  0.60051100  1
  H  H1  1  0.82899500  0.60051100  0.49008400  1
  H  H2  1  0.17100500  0.50991600  0.39948900  1
  H  H3  1  0.17100500  0.39948900  0.50991600  1
  H  H4  1  0.28167300  0.01234400  0.90377800  1
  H  H5  1  0.28167300  0.90377800  0.01234400  1
  H  H6  1  0.71832700  0.98765600  0.09622200  1
  H  H7  1  0.71832700  0.09622200  0.98765600  1
  O  O0  1  0.50000000  0.23376400  0.76623600  1
  O  O1  1  0.50000000  0.76623600  0.23376400  1
  O  O2  1  0.53803500  0.62134900  0.89750400  1
  O  O3  1  0.53803500  0.89750400  0.62134900  1
  O  O4  1  0.46196500  0.37865100  0.10249600  1
  O  O5  1  0.46196500  0.10249600  0.37865100  1
  O  O6  1  0.89060500  0.66757800  0.92516700  1
  O  O7  1  0.89060500  0.92516700  0.66757800  1
  O  O8  1  0.10939500  0.33242200  0.07483300  1
  O  O9  1  0.10939500  0.07483300  0.33242200  1
  O  O10  1  0.18407000  0.57588200  0.88063200  1
  O  O11  1  0.18407000  0.88063200  0.57588200  1
  O  O12  1  0.81593000  0.42411800  0.11936800  1
  O  O13  1  0.81593000  0.11936800  0.42411800  1
  O  O14  1  0.30786200  0.68130900  0.68130900  1
  O  O15  1  0.69213800  0.31869100  0.31869100  1
  O  O16  1  0.72863800  0.86990700  0.86990700  1
  O  O17  1  0.27136200  0.13009300  0.13009300  1
  O  O18  1  0.75570900  0.77802300  0.11028600  1
  O  O19  1  0.75570900  0.11028600  0.77802300  1
  O  O20  1  0.24429100  0.22197700  0.88971400  1
  O  O21  1  0.24429100  0.88971400  0.22197700  1
  O  O22  1  0.31312500  0.42465200  0.72314100  1
  O  O23  1  0.31312500  0.72314100  0.42465200  1
  O  O24  1  0.68687500  0.57534800  0.27685900  1
  O  O25  1  0.68687500  0.27685900  0.57534800  1
  O  O26  1  0.16226700  0.17015100  0.62023200  1
  O  O27  1  0.16226700  0.62023200  0.17015100  1
  O  O28  1  0.83773300  0.82984900  0.37976800  1
  O  O29  1  0.83773300  0.37976800  0.82984900  1
  O  O30  1  0.85994900  0.58816600  0.58816600  1
  O  O31  1  0.14005100  0.41183400  0.41183400  1
  O  O32  1  0.26676500  0.91418700  0.91418700  1
  O  O33  1  0.73323500  0.08581300  0.08581300  1
loop_
_geom_bond_atom_site_label_1
_geom_bond_atom_site_label_2
_geom_bond_distance
_geom_bond_site_symmetry_2
Ca0 O30 2.341303 1_455
Ca0 O32 2.359414 1_555
Ca0 O6 2.407089 1_455
Ca0 O7 2.407089 1_455
Ca0 O10 2.522322 1_555
Ca0 O11 2.522322 1_555
Ca0 O14 2.608695 1_555
Ca1 O31 2.341303 1_655
Ca1 O33 2.359414 1_555
Ca1 O9 2.407089 1_655
Ca1 O8 2.407089 1_655
Ca1 O13 2.522322 1_555
Ca1 O12 2.522322 1_555
Ca1 O15 2.608695 1_555
H0 O30 0.978542 1_555
H1 O30 0.978542 1_555
H2 O31 0.978542 1_555
H3 O31 0.978542 1_555
H4 O32 0.978522 1_545
H5 O32 0.978522 1_554
H6 O33 0.978522 1_565
H7 O33 0.978522 1_556
O0 Si11 1.625338 1_555
O0 Si8 1.625338 1_555
O1 Si10 1.625338 1_555
O1 Si9 1.625338 1_555
O2 Si0 1.622829 1_555
O2 Si4 1.631300 1_555
O3 Si1 1.622829 1_555
O3 Si5 1.631300 1_555
O4 Si2 1.622829 1_555
O4 Si6 1.631300 1_555
O5 Si3 1.622829 1_555
O5 Si7 1.631300 1_555
O6 Si4 1.617365 1_555
O6 Zr1 2.140878 1_656
O7 Si5 1.617365 1_555
O7 Zr0 2.140878 1_665
O8 Si6 1.617365 1_555
O8 Zr1 2.140878 1_555
O9 Si7 1.617365 1_555
O9 Zr0 2.140878 1_555
O10 Si0 1.615210 1_555
O10 Zr1 2.120215 1_556
O11 Si1 1.615210 1_555
O11 Zr0 2.120215 1_565
O12 Si2 1.615210 1_555
O12 Zr1 2.120215 1_655
O13 Si3 1.615210 1_555
O13 Zr0 2.120215 1_655
O14 Si1 1.645684 1_555
O14 Si0 1.645684 1_555
O15 Si2 1.645684 1_555
O15 Si3 1.645684 1_555
O16 Si4 1.630947 1_555
O16 Si5 1.630947 1_555
O17 Si6 1.630947 1_555
O17 Si7 1.630947 1_555
O18 Si4 1.631634 1_554
O18 Si10 1.644606 1_555
O19 Si5 1.631634 1_545
O19 Si11 1.644606 1_555
O20 Si6 1.631634 1_556
O20 Si8 1.644606 1_555
O21 Si7 1.631634 1_565
O21 Si9 1.644606 1_555
O22 Si0 1.635417 1_555
O22 Si8 1.650746 1_555
O23 Si1 1.635417 1_555
O23 Si9 1.650746 1_555
O24 Si2 1.635417 1_555
O24 Si10 1.650746 1_555
O25 Si3 1.635417 1_555
O25 Si11 1.650746 1_555
O26 Si8 1.595773 1_555
O26 Zr0 2.069927 1_555
O27 Si9 1.595773 1_555
O27 Zr1 2.069927 1_555
O28 Si10 1.595773 1_555
O28 Zr0 2.069927 1_665
O29 Si11 1.595773 1_555
O29 Zr1 2.069927 1_656
