# generated using pymatgen
data_CoBi6(SO8)2
_symmetry_space_group_name_H-M   'P 1'
_cell_length_a   5.67717301
_cell_length_b   17.78872629
_cell_length_c   17.09792994
_cell_angle_alpha   116.97933524
_cell_angle_beta   89.99253398
_cell_angle_gamma   99.18232575
_symmetry_Int_Tables_number   1
_chemical_formula_structural   CoBi6(SO8)2
_chemical_formula_sum   'Co4 Bi24 S8 O64'
_cell_volume   1513.94404368
_cell_formula_units_Z   4
loop_
 _symmetry_equiv_pos_site_id
 _symmetry_equiv_pos_as_xyz
  1  'x, y, z'
loop_
 _atom_site_type_symbol
 _atom_site_label
 _atom_site_symmetry_multiplicity
 _atom_site_fract_x
 _atom_site_fract_y
 _atom_site_fract_z
 _atom_site_occupancy
  Co  Co0  1  0.40088900  0.50000700  0.74995600  1
  Co  Co1  1  0.60402900  0.00004800  0.49984600  1
  Co  Co2  1  0.10393100  0.99991800  0.00011700  1
  Co  Co3  1  0.85356700  0.50002200  0.25000200  1
  Bi  Bi0  1  0.54127900  0.82986800  0.23845200  1
  Bi  Bi1  1  0.29151800  0.33029000  0.48954400  1
  Bi  Bi2  1  0.79069400  0.33004700  0.98871700  1
  Bi  Bi3  1  0.04132900  0.83139600  0.73837900  1
  Bi  Bi4  1  0.46117900  0.66965300  0.01041900  1
  Bi  Bi5  1  0.21133800  0.17013700  0.26154400  1
  Bi  Bi6  1  0.70978800  0.16860100  0.76164900  1
  Bi  Bi7  1  0.96068600  0.66994900  0.51130200  1
  Bi  Bi8  1  0.96718500  0.67506600  0.18346900  1
  Bi  Bi9  1  0.71712500  0.17526900  0.43362200  1
  Bi  Bi10  1  0.21685500  0.17531800  0.93406800  1
  Bi  Bi11  1  0.46646000  0.67625900  0.68448800  1
  Bi  Bi12  1  0.04184600  0.82469700  0.06637100  1
  Bi  Bi13  1  0.79211400  0.32492200  0.31653900  1
  Bi  Bi14  1  0.29018700  0.32373300  0.81551000  1
  Bi  Bi15  1  0.54166200  0.82468500  0.56593100  1
  Bi  Bi16  1  0.46528300  0.83578600  0.92189600  1
  Bi  Bi17  1  0.21490900  0.33565000  0.17196200  1
  Bi  Bi18  1  0.71738900  0.33304200  0.67179400  1
  Bi  Bi19  1  0.96512800  0.83544900  0.42156700  1
  Bi  Bi20  1  0.37936900  0.66440900  0.32805600  1
  Bi  Bi21  1  0.12939600  0.16418400  0.57806800  1
  Bi  Bi22  1  0.62950900  0.16452200  0.07839300  1
  Bi  Bi23  1  0.88435200  0.66696800  0.82819500  1
  S  S0  1  0.17097300  0.99162000  0.35302000  1
  S  S1  1  0.92076300  0.49272900  0.60680700  1
  S  S2  1  0.42087300  0.49155700  0.10298800  1
  S  S3  1  0.67121200  0.99167500  0.85317900  1
  S  S4  1  0.92800000  0.50729600  0.89321900  1
  S  S5  1  0.67965600  0.00837700  0.14694200  1
  S  S6  1  0.17984400  0.00831500  0.64679800  1
  S  S7  1  0.42921700  0.50845400  0.39701500  1
  O  O0  1  0.25578400  0.74953000  0.12463400  1
  O  O1  1  0.00615600  0.25048100  0.37541800  1
  O  O2  1  0.50512100  0.24937200  0.87520800  1
  O  O3  1  0.75584300  0.75066700  0.62484400  1
  O  O4  1  0.73550100  0.74948700  0.12450900  1
  O  O5  1  0.48589700  0.25045300  0.37545900  1
  O  O6  1  0.98545100  0.24971400  0.87511800  1
  O  O7  1  0.23581000  0.75025900  0.62488000  1
  O  O8  1  0.38880200  0.97554000  0.39009800  1
  O  O9  1  0.13793000  0.47888500  0.64517400  1
  O  O10  1  0.63915800  0.47560900  0.14000400  1
  O  O11  1  0.88926400  0.97569300  0.89020000  1
  O  O12  1  0.15894300  0.52115000  0.85480600  1
  O  O13  1  0.91373200  0.02450600  0.10997300  1
  O  O14  1  0.41406100  0.02424500  0.60982600  1
  O  O15  1  0.66342000  0.52440000  0.35997100  1
  O  O16  1  0.95256700  0.95936100  0.38648600  1
  O  O17  1  0.70080500  0.46103400  0.64135400  1
  O  O18  1  0.20289400  0.45941200  0.13675200  1
  O  O19  1  0.45295900  0.95946400  0.88669500  1
  O  O20  1  0.73973800  0.53906400  0.85878000  1
  O  O21  1  0.49357800  0.04053600  0.11336100  1
  O  O22  1  0.99389200  0.04046600  0.61317900  1
  O  O23  1  0.24338600  0.54064000  0.36332000  1
  O  O24  1  0.16053000  0.94445100  0.25639100  1
  O  O25  1  0.90589900  0.44347600  0.51011700  1
  O  O26  1  0.40976800  0.44424900  0.00638500  1
  O  O27  1  0.66066600  0.94447500  0.75650700  1
  O  O28  1  0.96247800  0.55649500  0.98991700  1
  O  O29  1  0.71602400  0.05560500  0.24358400  1
  O  O30  1  0.21626300  0.05558400  0.74346300  1
  O  O31  1  0.46543400  0.55571500  0.49362300  1
  O  O32  1  0.43927500  0.58620500  0.13586800  1
  O  O33  1  0.18953700  0.08630200  0.38606600  1
  O  O34  1  0.68961900  0.08632800  0.88612800  1
  O  O35  1  0.93430700  0.58702000  0.63742800  1
  O  O36  1  0.60377800  0.91369400  0.11392500  1
  O  O37  1  0.35295200  0.41380100  0.36410700  1
  O  O38  1  0.84719800  0.41300500  0.86257600  1
  O  O39  1  0.10357900  0.91366800  0.61389400  1
  O  O40  1  0.00817900  0.61544700  0.27769500  1
  O  O41  1  0.75794400  0.11550800  0.52769100  1
  O  O42  1  0.25851000  0.11541200  0.02802100  1
  O  O43  1  0.50901000  0.61916300  0.77968900  1
  O  O44  1  0.14251200  0.88445600  0.97230600  1
  O  O45  1  0.89264000  0.38459400  0.22235700  1
  O  O46  1  0.38990800  0.38091500  0.72041500  1
  O  O47  1  0.64320100  0.88455700  0.47193200  1
  O  O48  1  0.27014600  0.75840900  0.28614600  1
  O  O49  1  0.02035100  0.25834800  0.53639800  1
  O  O50  1  0.52022600  0.25862500  0.03669000  1
  O  O51  1  0.77073300  0.76055100  0.78663000  1
  O  O52  1  0.26208500  0.74160500  0.96359300  1
  O  O53  1  0.01171300  0.24158800  0.21385000  1
  O  O54  1  0.51025100  0.23946200  0.71339700  1
  O  O55  1  0.76169400  0.74134000  0.46328700  1
  O  O56  1  0.76793800  0.76241700  0.29015500  1
  O  O57  1  0.51787400  0.26214300  0.54042000  1
  O  O58  1  0.01743600  0.26270500  0.04071600  1
  O  O59  1  0.26626800  0.76356000  0.79069800  1
  O  O60  1  0.75568800  0.73787700  0.95958300  1
  O  O61  1  0.50552500  0.23756500  0.20984900  1
  O  O62  1  0.00270100  0.23642800  0.70932100  1
  O  O63  1  0.25478900  0.73736400  0.45931100  1
loop_
_geom_bond_atom_site_label_1
_geom_bond_atom_site_label_2
_geom_bond_distance
_geom_bond_site_symmetry_2
Co0 O46 1.932356 1_555
Co0 O43 1.932664 1_555
Co0 O9 2.188697 1_555
Co0 O12 2.189622 1_555
Co0 O17 2.456740 1_555
Co0 O20 2.459033 1_555
Co1 O41 1.936166 1_555
Co1 O47 1.937544 1_545
Co1 O8 2.071832 1_545
Co1 O14 2.073075 1_555
Co2 O44 1.936509 1_554
Co2 O42 1.937526 1_565
Co2 O13 2.071253 1_465
Co2 O11 2.073900 1_454
Co3 O40 1.937353 1_655
Co3 O45 1.937385 1_555
Co3 O15 2.073098 1_555
Co3 O10 2.073221 1_555
Bi0 O48 2.228438 1_555
Bi0 O4 2.242959 1_555
Bi0 O0 2.279173 1_555
Bi0 O56 2.309209 1_555
Bi1 O49 2.224998 1_555
Bi1 O5 2.241806 1_555
Bi1 O1 2.280557 1_555
Bi1 O57 2.309086 1_555
Bi2 O50 2.228749 1_556
Bi2 O6 2.241087 1_555
Bi2 O2 2.277210 1_555
Bi2 O58 2.311128 1_656
Bi3 O51 2.225743 1_455
Bi3 O7 2.243838 1_555
Bi3 O3 2.277285 1_455
Bi3 O59 2.314887 1_555
Bi4 O52 2.224533 1_554
Bi4 O4 2.242500 1_555
Bi4 O0 2.280961 1_555
Bi4 O60 2.309330 1_554
Bi5 O53 2.228289 1_555
Bi5 O5 2.242674 1_555
Bi5 O1 2.279537 1_555
Bi5 O61 2.309013 1_555
Bi6 O54 2.225393 1_555
Bi6 O6 2.243930 1_555
Bi6 O2 2.277147 1_555
Bi6 O62 2.315232 1_655
Bi7 O55 2.228700 1_555
Bi7 O7 2.241233 1_655
Bi7 O3 2.277286 1_555
Bi7 O63 2.311708 1_655
Bi8 O56 2.238312 1_555
Bi8 O48 2.250260 1_655
Bi8 O40 2.324571 1_655
Bi8 O0 2.442736 1_655
Bi8 O4 2.503173 1_555
Bi9 O57 2.235865 1_555
Bi9 O49 2.251216 1_655
Bi9 O41 2.323971 1_555
Bi9 O1 2.445381 1_655
Bi9 O5 2.503671 1_555
Bi10 O58 2.238849 1_556
Bi10 O50 2.251226 1_556
Bi10 O42 2.325045 1_556
Bi10 O2 2.437380 1_555
Bi10 O6 2.501740 1_455
Bi11 O59 2.237207 1_555
Bi11 O51 2.253969 1_555
Bi11 O43 2.306061 1_555
Bi11 O3 2.453830 1_555
Bi11 O7 2.500786 1_555
Bi12 O60 2.235983 1_454
Bi12 O52 2.251374 1_554
Bi12 O44 2.323894 1_554
Bi12 O0 2.445945 1_555
Bi12 O4 2.503280 1_455
Bi13 O61 2.238622 1_555
Bi13 O53 2.249932 1_655
Bi13 O45 2.324424 1_555
Bi13 O1 2.442752 1_655
Bi13 O5 2.503467 1_555
Bi14 O62 2.237304 1_555
Bi14 O54 2.253604 1_555
Bi14 O46 2.305523 1_555
Bi14 O2 2.453791 1_555
Bi14 O6 2.501117 1_455
Bi15 O63 2.238884 1_555
Bi15 O55 2.251260 1_555
Bi15 O47 2.325212 1_555
Bi15 O3 2.437517 1_555
Bi15 O7 2.502062 1_555
Bi16 O44 2.163119 1_555
Bi16 O59 2.209438 1_555
Bi16 O52 2.261102 1_555
Bi16 O19 2.541269 1_555
Bi17 O45 2.162203 1_455
Bi17 O58 2.206951 1_555
Bi17 O53 2.261527 1_555
Bi17 O18 2.542536 1_555
Bi18 O46 2.176089 1_555
Bi18 O57 2.212108 1_555
Bi18 O54 2.260397 1_555
Bi18 O17 2.570456 1_555
Bi19 O47 2.161368 1_555
Bi19 O56 2.208486 1_555
Bi19 O55 2.260856 1_555
Bi19 O16 2.544271 1_555
Bi20 O40 2.162177 1_555
Bi20 O63 2.206983 1_555
Bi20 O48 2.261027 1_555
Bi20 O23 2.543397 1_555
Bi21 O41 2.163258 1_455
Bi21 O62 2.209737 1_555
Bi21 O49 2.260661 1_555
Bi21 O22 2.540463 1_455
Bi22 O42 2.161408 1_555
Bi22 O61 2.208441 1_555
Bi22 O50 2.260553 1_555
Bi22 O21 2.543735 1_555
Bi23 O43 2.175742 1_555
Bi23 O60 2.212191 1_555
Bi23 O51 2.260245 1_555
Bi23 O20 2.570516 1_555
O8 S0 1.513495 1_555
O9 S1 1.501566 1_455
O10 S2 1.513962 1_555
O11 S3 1.513190 1_555
O12 S4 1.501534 1_455
O13 S5 1.513426 1_555
O14 S6 1.513289 1_555
O15 S7 1.513908 1_555
O16 S0 1.504923 1_655
O17 S1 1.517703 1_555
O18 S2 1.505043 1_555
O19 S3 1.504372 1_555
O20 S4 1.517649 1_555
O21 S5 1.504646 1_555
O22 S6 1.504366 1_655
O23 S7 1.504978 1_555
O24 S0 1.470885 1_555
O25 S1 1.473103 1_555
O26 S2 1.470451 1_555
O27 S3 1.471521 1_555
O28 S4 1.473193 1_555
O29 S5 1.471037 1_555
O30 S6 1.471420 1_555
O31 S7 1.470516 1_555
O32 S2 1.498919 1_555
O33 S0 1.499008 1_545
O34 S3 1.498841 1_545
O35 S1 1.501821 1_555
O36 S5 1.498957 1_565
O37 S7 1.498961 1_555
O38 S4 1.501817 1_555
O39 S6 1.498873 1_565
