# generated using pymatgen
data_CeAsPd
_symmetry_space_group_name_H-M   'P 1'
_cell_length_a   4.45891807
_cell_length_b   4.45891807
_cell_length_c   7.45408178
_cell_angle_alpha   89.42171579
_cell_angle_beta   89.42171579
_cell_angle_gamma   63.27507958
_symmetry_Int_Tables_number   1
_chemical_formula_structural   CeAsPd
_chemical_formula_sum   'Ce2 As2 Pd2'
_cell_volume   132.36086723
_cell_formula_units_Z   2
loop_
 _symmetry_equiv_pos_site_id
 _symmetry_equiv_pos_as_xyz
  1  'x, y, z'
loop_
 _atom_site_type_symbol
 _atom_site_label
 _atom_site_symmetry_multiplicity
 _atom_site_fract_x
 _atom_site_fract_y
 _atom_site_fract_z
 _atom_site_occupancy
  Ce  Ce0  1  0.99678200  0.99678200  0.25285200  1
  Ce  Ce1  1  0.00321800  0.00321800  0.74714800  1
  As  As0  1  0.67293800  0.67293800  0.99819500  1
  As  As1  1  0.32706200  0.32706200  0.00180500  1
  Pd  Pd0  1  0.32668900  0.32668900  0.46486700  1
  Pd  Pd1  1  0.67331100  0.67331100  0.53513300  1
loop_
_geom_bond_atom_site_label_1
_geom_bond_atom_site_label_2
_geom_bond_distance
_geom_bond_site_symmetry_2
Ce0 Pd0 2.977509 1_665
Ce0 Pd0 3.096359 1_565
Ce0 Pd0 3.096359 1_655
Ce0 Pd1 3.215060 1_555
Ce0 Pd1 3.429450 1_565
Ce0 Pd1 3.429450 1_655
Ce1 Pd1 2.977509 1_445
Ce1 Pd1 3.096359 1_545
Ce1 Pd1 3.096359 1_455
Ce1 Pd0 3.215060 1_555
Ce1 Pd0 3.429450 1_545
Ce1 Pd0 3.429450 1_455
As0 As1 2.615578 1_656
As0 As1 2.615578 1_566
As0 As1 2.625882 1_556
As0 Ce1 3.111094 1_665
As0 Ce0 3.124032 1_556
As0 Ce1 3.269550 1_655
As0 Ce1 3.269550 1_565
As0 Ce0 3.286693 1_456
As0 Ce0 3.286693 1_546
As1 Ce0 3.111094 1_445
As1 Ce1 3.124032 1_554
As1 Ce0 3.269550 1_455
As1 Ce0 3.269550 1_545
As1 Ce1 3.286693 1_564
As1 Ce1 3.286693 1_654
Pd0 Pd1 2.662035 1_455
Pd0 Pd1 2.662035 1_545
Pd0 Pd1 2.689424 1_555
