# generated using pymatgen
data_Ca6FeN5
_symmetry_space_group_name_H-M   'P 1'
_cell_length_a   6.22117356
_cell_length_b   6.22120106
_cell_length_c   12.21743397
_cell_angle_alpha   90.00004216
_cell_angle_beta   89.99999507
_cell_angle_gamma   119.99869735
_symmetry_Int_Tables_number   1
_chemical_formula_structural   Ca6FeN5
_chemical_formula_sum   'Ca12 Fe2 N10'
_cell_volume   409.50846868
_cell_formula_units_Z   2
loop_
 _symmetry_equiv_pos_site_id
 _symmetry_equiv_pos_as_xyz
  1  'x, y, z'
loop_
 _atom_site_type_symbol
 _atom_site_label
 _atom_site_symmetry_multiplicity
 _atom_site_fract_x
 _atom_site_fract_y
 _atom_site_fract_z
 _atom_site_occupancy
  Ca  Ca0  1  -0.00000034  0.39717234  0.87943792  1
  Ca  Ca1  1  0.60283021  0.60283026  0.87943717  1
  Ca  Ca2  1  0.60282296  0.00000080  0.12058196  1
  Ca  Ca3  1  0.39717336  -0.00000055  0.62056234  1
  Ca  Ca4  1  0.39717403  0.39717379  0.37941654  1
  Ca  Ca5  1  0.60282238  0.00000067  0.37941765  1
  Ca  Ca6  1  0.39717340  0.39717335  0.12058324  1
  Ca  Ca7  1  0.00000074  0.60282382  0.12058215  1
  Ca  Ca8  1  -0.00000050  0.39717235  0.62056256  1
  Ca  Ca9  1  0.60282972  0.60282972  0.62056347  1
  Ca  Ca10  1  0.39717353  -0.00000031  0.87943831  1
  Ca  Ca11  1  0.00000081  0.60282347  0.37941729  1
  Fe  Fe0  1  0.00000991  0.00000699  0.75000033  1
  Fe  Fe1  1  0.99998958  -0.00000790  0.24999992  1
  N  N0  1  0.71198748  -0.00000879  0.75000064  1
  N  N1  1  0.28800995  0.28801272  0.75000060  1
  N  N2  1  0.28801736  0.00001051  0.24999903  1
  N  N3  1  0.66666715  0.33333215  0.49999080  1
  N  N4  1  0.33333297  0.66666793  0.00000931  1
  N  N5  1  0.33333295  0.66666785  0.49999075  1
  N  N6  1  0.66666722  0.33333225  0.00000935  1
  N  N7  1  0.71198260  0.71197984  0.24999951  1
  N  N8  1  0.00001293  0.28802077  0.24999848  1
  N  N9  1  -0.00001141  0.71198496  0.75000067  1
loop_
_geom_bond_atom_site_label_1
_geom_bond_atom_site_label_2
_geom_bond_distance
_geom_bond_site_symmetry_2
Ca0 N6 2.409237 1_456
Ca0 N4 2.409268 1_556
Ca0 N9 2.517282 1_555
Ca0 N1 2.718297 1_555
Ca0 N0 2.718384 1_455
Ca1 N4 2.409247 1_556
Ca1 N6 2.409255 1_556
Ca1 N1 2.517305 1_555
Ca1 N9 2.718260 1_655
Ca1 N0 2.718279 1_565
Ca2 N6 2.409243 1_555
Ca2 N4 2.409270 1_545
Ca2 N2 2.517082 1_555
Ca2 N7 2.718214 1_545
Ca2 N8 2.718274 1_655
Ca3 N5 2.409240 1_545
Ca3 N3 2.409269 1_555
Ca3 N0 2.517283 1_555
Ca3 N1 2.718336 1_555
Ca3 N9 2.718404 1_545
Ca4 N3 2.409256 1_555
Ca4 N5 2.409263 1_555
Ca4 N7 2.517101 1_555
Ca4 N8 2.718144 1_555
Ca4 N2 2.718154 1_555
Ca5 N3 2.409244 1_555
Ca5 N5 2.409274 1_545
Ca5 N2 2.517092 1_555
Ca5 N7 2.718218 1_545
Ca5 N8 2.718296 1_655
Ca6 N6 2.409255 1_555
Ca6 N4 2.409263 1_555
Ca6 N7 2.517096 1_555
Ca6 N8 2.718122 1_555
Ca6 N2 2.718143 1_555
Ca7 N4 2.409240 1_555
Ca7 N6 2.409273 1_455
Ca7 N8 2.517078 1_555
Ca7 N7 2.718180 1_455
Ca7 N2 2.718265 1_565
Ca8 N3 2.409239 1_455
Ca8 N5 2.409273 1_555
Ca8 N9 2.517286 1_555
Ca8 N1 2.718303 1_555
Ca8 N0 2.718391 1_455
Ca9 N5 2.409251 1_555
Ca9 N3 2.409256 1_555
Ca9 N1 2.517309 1_555
Ca9 N9 2.718266 1_655
Ca9 N0 2.718284 1_565
Ca10 N4 2.409238 1_546
Ca10 N6 2.409263 1_556
Ca10 N0 2.517278 1_555
Ca10 N1 2.718333 1_555
Ca10 N9 2.718399 1_545
Ca11 N5 2.409244 1_555
Ca11 N3 2.409280 1_455
Ca11 N8 2.517093 1_555
Ca11 N7 2.718185 1_455
Ca11 N2 2.718278 1_565
Fe0 N1 1.791755 1_555
Fe0 N9 1.791777 1_545
Fe0 N0 1.791788 1_455
Fe1 N7 1.791797 1_545
Fe1 N8 1.791812 1_655
Fe1 N2 1.791814 1_655
