# generated using pymatgen
data_ErInCo4
_symmetry_space_group_name_H-M   'P 1'
_cell_length_a   4.96940928
_cell_length_b   4.96940928
_cell_length_c   4.96940928
_cell_angle_alpha   60.00000000
_cell_angle_beta   60.00000000
_cell_angle_gamma   60.00000000
_symmetry_Int_Tables_number   1
_chemical_formula_structural   ErInCo4
_chemical_formula_sum   'Er1 In1 Co4'
_cell_volume   86.77593504
_cell_formula_units_Z   1
loop_
 _symmetry_equiv_pos_site_id
 _symmetry_equiv_pos_as_xyz
  1  'x, y, z'
loop_
 _atom_site_type_symbol
 _atom_site_label
 _atom_site_symmetry_multiplicity
 _atom_site_fract_x
 _atom_site_fract_y
 _atom_site_fract_z
 _atom_site_occupancy
  Er  Er0  1  0.75000000  0.75000000  0.75000000  1
  In  In0  1  0.00000000  0.00000000  0.00000000  1
  Co  Co0  1  0.37466900  0.37466900  0.37466900  1
  Co  Co1  1  0.87599300  0.37466900  0.37466900  1
  Co  Co2  1  0.37466900  0.87599300  0.37466900  1
  Co  Co3  1  0.37466900  0.37466900  0.87599300  1
loop_
_geom_bond_atom_site_label_1
_geom_bond_atom_site_label_2
_geom_bond_distance
_geom_bond_site_symmetry_2
Er0 In0 3.043129 1_566
Er0 In0 3.043129 1_665
Er0 In0 3.043129 1_666
Er0 In0 3.043129 1_656
Co0 Co1 2.478125 1_455
Co0 Co3 2.478125 1_554
Co0 Co2 2.478125 1_545
Co0 Co3 2.491284 1_555
Co0 Co1 2.491284 1_555
Co0 Co2 2.491284 1_555
Co0 In0 2.912876 1_655
Co0 In0 2.912876 1_556
Co0 In0 2.912876 1_565
Co0 Er0 2.914279 1_545
Co0 Er0 2.914279 1_554
Co0 Er0 2.914279 1_455
Co1 Co2 2.478125 1_645
Co1 Co3 2.478125 1_654
Co1 Co3 2.491284 1_555
Co1 Co2 2.491284 1_555
Co1 In0 2.912876 1_655
Co1 In0 2.912876 1_665
Co1 In0 2.912876 1_656
Co1 Er0 2.914279 1_545
Co1 Er0 2.914279 1_554
Co1 Er0 2.914279 1_555
Co2 Co3 2.478125 1_564
Co2 Co3 2.491284 1_555
Co2 In0 2.912876 1_565
Co2 In0 2.912876 1_566
Co2 In0 2.912876 1_665
Co2 Er0 2.914279 1_455
Co2 Er0 2.914279 1_554
Co2 Er0 2.914279 1_555
Co3 In0 2.912876 1_556
Co3 In0 2.912876 1_566
Co3 In0 2.912876 1_656
Co3 Er0 2.914279 1_455
Co3 Er0 2.914279 1_545
Co3 Er0 2.914279 1_555
