# generated using pymatgen
data_ZnCr(SiO3)2
_symmetry_space_group_name_H-M   'P 1'
_cell_length_a   5.32678500
_cell_length_b   9.18934900
_cell_length_c   18.72667900
_cell_angle_alpha   90.00000000
_cell_angle_beta   90.00000000
_cell_angle_gamma   90.00000000
_symmetry_Int_Tables_number   1
_chemical_formula_structural   ZnCr(SiO3)2
_chemical_formula_sum   'Zn8 Cr8 Si16 O48'
_cell_volume   916.66506461
_cell_formula_units_Z   8
loop_
 _symmetry_equiv_pos_site_id
 _symmetry_equiv_pos_as_xyz
  1  'x, y, z'
loop_
 _atom_site_type_symbol
 _atom_site_label
 _atom_site_symmetry_multiplicity
 _atom_site_fract_x
 _atom_site_fract_y
 _atom_site_fract_z
 _atom_site_occupancy
  Zn  Zn0  1  0.61793200  0.15010100  0.37569800  1
  Zn  Zn1  1  0.38206800  0.84989900  0.62430200  1
  Zn  Zn2  1  0.61793200  0.65010100  0.12430200  1
  Zn  Zn3  1  0.11793200  0.84989900  0.12430200  1
  Zn  Zn4  1  0.88206800  0.15010100  0.87569800  1
  Zn  Zn5  1  0.38206800  0.34989900  0.87569800  1
  Zn  Zn6  1  0.11793200  0.34989900  0.37569800  1
  Zn  Zn7  1  0.88206800  0.65010100  0.62430200  1
  Cr  Cr0  1  0.37604100  0.98262200  0.87629200  1
  Cr  Cr1  1  0.62395900  0.01737800  0.12370800  1
  Cr  Cr2  1  0.87604100  0.01737800  0.62370800  1
  Cr  Cr3  1  0.12395900  0.98262200  0.37629200  1
  Cr  Cr4  1  0.37604100  0.48262200  0.62370800  1
  Cr  Cr5  1  0.62395900  0.51737800  0.37629200  1
  Cr  Cr6  1  0.87604100  0.51737800  0.87629200  1
  Cr  Cr7  1  0.12395900  0.48262200  0.12370800  1
  Si  Si0  1  0.56462600  0.66234900  0.77185700  1
  Si  Si1  1  0.71231800  0.83570400  0.47525500  1
  Si  Si2  1  0.78768200  0.83570400  0.97525500  1
  Si  Si3  1  0.93537400  0.16234900  0.22814300  1
  Si  Si4  1  0.06462600  0.33765100  0.72814300  1
  Si  Si5  1  0.43537400  0.83765100  0.27185700  1
  Si  Si6  1  0.21231800  0.66429600  0.47525500  1
  Si  Si7  1  0.71231800  0.33570400  0.02474500  1
  Si  Si8  1  0.78768200  0.33570400  0.52474500  1
  Si  Si9  1  0.93537400  0.66234900  0.27185700  1
  Si  Si10  1  0.43537400  0.33765100  0.22814300  1
  Si  Si11  1  0.56462600  0.16234900  0.72814300  1
  Si  Si12  1  0.28768200  0.16429600  0.52474500  1
  Si  Si13  1  0.06462600  0.83765100  0.77185700  1
  Si  Si14  1  0.28768200  0.66429600  0.97525500  1
  Si  Si15  1  0.21231800  0.16429600  0.02474500  1
  O  O0  1  0.93228100  0.50480300  0.31090600  1
  O  O1  1  0.29711100  0.01671800  0.06562800  1
  O  O2  1  0.06771900  0.49519700  0.68909400  1
  O  O3  1  0.71065600  0.33946000  0.93696200  1
  O  O4  1  0.21065600  0.16054000  0.93696200  1
  O  O5  1  0.92271100  0.21028000  0.05080600  1
  O  O6  1  0.94170700  0.66440700  0.18477300  1
  O  O7  1  0.05829300  0.83559300  0.68477300  1
  O  O8  1  0.71065600  0.83946000  0.56303800  1
  O  O9  1  0.94170700  0.16440700  0.31522700  1
  O  O10  1  0.43228100  0.49519700  0.18909400  1
  O  O11  1  0.78934400  0.33946000  0.43696200  1
  O  O12  1  0.70288900  0.98328200  0.93437200  1
  O  O13  1  0.44170700  0.83559300  0.18477300  1
  O  O14  1  0.56771900  0.00480300  0.68909400  1
  O  O15  1  0.29711100  0.51671800  0.43437200  1
  O  O16  1  0.43228100  0.99519700  0.31090600  1
  O  O17  1  0.16523000  0.76749600  0.30259100  1
  O  O18  1  0.33477000  0.76749600  0.80259100  1
  O  O19  1  0.57728900  0.71028000  0.94919400  1
  O  O20  1  0.78934400  0.83946000  0.06303800  1
  O  O21  1  0.55829300  0.66440700  0.68477300  1
  O  O22  1  0.79711100  0.48328200  0.06562800  1
  O  O23  1  0.16523000  0.26749600  0.19740900  1
  O  O24  1  0.28934400  0.16054000  0.43696200  1
  O  O25  1  0.55829300  0.16440700  0.81522700  1
  O  O26  1  0.70288900  0.48328200  0.56562800  1
  O  O27  1  0.21065600  0.66054000  0.56303800  1
  O  O28  1  0.20288900  0.51671800  0.93437200  1
  O  O29  1  0.66523000  0.73250400  0.30259100  1
  O  O30  1  0.06771900  0.99519700  0.81090600  1
  O  O31  1  0.83477000  0.73250400  0.80259100  1
  O  O32  1  0.83477000  0.23250400  0.69740900  1
  O  O33  1  0.79711100  0.98328200  0.43437200  1
  O  O34  1  0.28934400  0.66054000  0.06303800  1
  O  O35  1  0.20288900  0.01671800  0.56562800  1
  O  O36  1  0.33477000  0.26749600  0.69740900  1
  O  O37  1  0.07728900  0.78972000  0.94919400  1
  O  O38  1  0.42271100  0.78972000  0.44919400  1
  O  O39  1  0.66523000  0.23250400  0.19740900  1
  O  O40  1  0.42271100  0.28972000  0.05080600  1
  O  O41  1  0.57728900  0.21028000  0.55080600  1
  O  O42  1  0.07728900  0.28972000  0.55080600  1
  O  O43  1  0.44170700  0.33559300  0.31522700  1
  O  O44  1  0.56771900  0.50480300  0.81090600  1
  O  O45  1  0.92271100  0.71028000  0.44919400  1
  O  O46  1  0.05829300  0.33559300  0.81522700  1
  O  O47  1  0.93228100  0.00480300  0.18909400  1
loop_
_geom_bond_atom_site_label_1
_geom_bond_atom_site_label_2
_geom_bond_distance
_geom_bond_site_symmetry_2
Cr0 O30 2.051834 1_555
Cr0 O12 2.052867 1_555
Cr0 O4 2.177155 1_565
Cr0 O25 2.245151 1_565
Cr0 O18 2.420996 1_555
Cr0 O37 2.745648 1_555
Cr1 O47 2.051834 1_555
Cr1 O1 2.052867 1_555
Cr1 O20 2.177155 1_545
Cr1 O13 2.245151 1_545
Cr1 O39 2.420996 1_555
Cr1 O5 2.745648 1_555
Cr2 O14 2.051834 1_555
Cr2 O35 2.052867 1_655
Cr2 O8 2.177155 1_545
Cr2 O7 2.245151 1_645
Cr2 O32 2.420996 1_555
Cr2 O41 2.745648 1_555
Cr3 O16 2.051834 1_555
Cr3 O33 2.052867 1_455
Cr3 O24 2.177155 1_565
Cr3 O9 2.245151 1_465
Cr3 O17 2.420996 1_555
Cr3 O38 2.745648 1_555
Cr4 O2 2.051834 1_555
Cr4 O26 2.052867 1_555
Cr4 O27 2.177155 1_555
Cr4 O21 2.245151 1_555
Cr4 O36 2.420996 1_555
Cr4 O42 2.745648 1_555
Cr5 O0 2.051834 1_555
Cr5 O15 2.052867 1_555
Cr5 O11 2.177155 1_555
Cr5 O43 2.245151 1_555
Cr5 O29 2.420996 1_555
Cr5 O45 2.745648 1_555
Cr6 O44 2.051834 1_555
Cr6 O28 2.052867 1_655
Cr6 O3 2.177155 1_555
Cr6 O46 2.245151 1_655
Cr6 O31 2.420996 1_555
Cr6 O19 2.745648 1_555
Cr7 O10 2.051834 1_555
Cr7 O22 2.052867 1_455
Cr7 O34 2.177155 1_555
Cr7 O6 2.245151 1_455
Cr7 O23 2.420996 1_555
Cr7 O40 2.745648 1_555
O0 Si9 1.622028 1_555
O0 Zn6 2.115755 1_655
O1 Si15 1.621508 1_555
O1 Zn3 2.113818 1_545
O2 Si4 1.622028 1_555
O2 Zn7 2.115755 1_455
O3 Si7 1.644270 1_556
O3 Zn5 2.095005 1_555
O3 Zn4 2.275486 1_555
O4 Si15 1.644270 1_556
O4 Zn4 2.095005 1_455
O4 Zn5 2.275486 1_555
O5 Si15 1.672299 1_655
O5 Si7 1.680058 1_555
O6 Si9 1.631253 1_555
O6 Zn2 2.067409 1_555
O6 Zn3 2.251456 1_655
O7 Si13 1.631253 1_555
O7 Zn1 2.067409 1_555
O7 Zn7 2.251456 1_455
O8 Si1 1.644270 1_555
O8 Zn1 2.095005 1_555
O8 Zn7 2.275486 1_555
O9 Si3 1.631253 1_555
O9 Zn0 2.067409 1_555
O9 Zn6 2.251456 1_655
O10 Si10 1.622028 1_555
O10 Zn2 2.115755 1_555
O11 Si8 1.644270 1_555
O11 Zn6 2.095005 1_655
O11 Zn0 2.275486 1_555
O12 Si2 1.621508 1_555
O12 Zn4 2.113818 1_565
O13 Si5 1.631253 1_555
O13 Zn3 2.067409 1_555
O13 Zn2 2.251456 1_555
O14 Si11 1.622028 1_555
O14 Zn1 2.115755 1_545
O15 Si6 1.621508 1_555
O15 Zn6 2.113818 1_555
O16 Si5 1.622028 1_555
O16 Zn0 2.115755 1_565
O17 Si9 1.662527 1_455
O17 Si5 1.678565 1_555
O18 Si0 1.662527 1_555
O18 Si13 1.678565 1_555
O19 Si14 1.672299 1_555
O19 Si2 1.680058 1_555
O20 Si2 1.644270 1_554
O20 Zn3 2.095005 1_655
O20 Zn2 2.275486 1_555
O21 Si0 1.631253 1_555
O21 Zn7 2.067409 1_555
O21 Zn1 2.251456 1_555
O22 Si7 1.621508 1_555
O22 Zn2 2.113818 1_555
O23 Si3 1.662527 1_455
O23 Si10 1.678565 1_555
O24 Si12 1.644270 1_555
O24 Zn0 2.095005 1_555
O24 Zn6 2.275486 1_555
O25 Si11 1.631253 1_555
O25 Zn4 2.067409 1_555
O25 Zn5 2.251456 1_555
O26 Si8 1.621508 1_555
O26 Zn7 2.113818 1_555
O27 Si6 1.644270 1_555
O27 Zn7 2.095005 1_455
O27 Zn1 2.275486 1_555
O28 Si14 1.621508 1_555
O28 Zn5 2.113818 1_555
O29 Si5 1.662527 1_555
O29 Si9 1.678565 1_555
O30 Si13 1.622028 1_555
O30 Zn4 2.115755 1_465
O31 Si13 1.662527 1_655
O31 Si0 1.678565 1_555
O32 Si4 1.662527 1_655
O32 Si11 1.678565 1_555
O33 Si1 1.621508 1_555
O33 Zn0 2.113818 1_565
O34 Si14 1.644270 1_554
O34 Zn2 2.095005 1_555
O34 Zn3 2.275486 1_555
O35 Si12 1.621508 1_555
O35 Zn1 2.113818 1_545
O36 Si11 1.662527 1_555
O36 Si4 1.678565 1_555
O37 Si2 1.672299 1_455
O37 Si14 1.680058 1_555
O38 Si1 1.672299 1_555
O38 Si6 1.680058 1_555
O39 Si10 1.662527 1_555
O39 Si3 1.678565 1_555
O40 Si7 1.672299 1_555
O40 Si15 1.680058 1_555
O41 Si12 1.672299 1_555
O41 Si8 1.680058 1_555
O42 Si8 1.672299 1_455
O42 Si12 1.680058 1_555
O43 Si10 1.631253 1_555
O43 Zn6 2.067409 1_555
O43 Zn0 2.251456 1_555
O44 Si0 1.622028 1_555
O44 Zn5 2.115755 1_555
O45 Si6 1.672299 1_655
O45 Si1 1.680058 1_555
O46 Si4 1.631253 1_555
O46 Zn5 2.067409 1_555
O46 Zn4 2.251456 1_455
O47 Si3 1.622028 1_555
O47 Zn3 2.115755 1_645
