# generated using pymatgen
data_Y(Ni2P)2
_symmetry_space_group_name_H-M   'P 1'
_cell_length_a   3.56431460
_cell_length_b   7.06560372
_cell_length_c   7.06561677
_cell_angle_alpha   90.00038648
_cell_angle_beta   90.00000291
_cell_angle_gamma   90.00000234
_symmetry_Int_Tables_number   1
_chemical_formula_structural   Y(Ni2P)2
_chemical_formula_sum   'Y2 Ni8 P4'
_cell_volume   177.94073648
_cell_formula_units_Z   2
loop_
 _symmetry_equiv_pos_site_id
 _symmetry_equiv_pos_as_xyz
  1  'x, y, z'
loop_
 _atom_site_type_symbol
 _atom_site_label
 _atom_site_symmetry_multiplicity
 _atom_site_fract_x
 _atom_site_fract_y
 _atom_site_fract_z
 _atom_site_occupancy
  Y  Y0  1  0.50000006  0.49999945  0.49999966  1
  Y  Y1  1  0.99999995  -0.00000120  0.00000193  1
  Ni  Ni0  1  0.50000000  0.91541237  0.66257761  1
  Ni  Ni1  1  0.50000016  0.08459071  0.33743119  1
  Ni  Ni2  1  0.00000002  0.58456159  0.16250658  1
  Ni  Ni3  1  0.99999989  0.41543911  0.83748582  1
  Ni  Ni4  1  0.49999989  0.66251297  0.91543702  1
  Ni  Ni5  1  0.49999993  0.33748563  0.08455910  1
  Ni  Ni6  1  1.00000012  0.16257538  0.58459042  1
  Ni  Ni7  1  0.00000001  0.83742936  0.41541388  1
  P  P0  1  0.49999987  0.22053927  0.77948005  1
  P  P1  1  0.50000003  0.77945937  0.22052383  1
  P  P2  1  0.00000006  0.27947398  0.27945407  1
  P  P3  1  0.00000001  0.72052201  0.72053883  1
loop_
_geom_bond_atom_site_label_1
_geom_bond_atom_site_label_2
_geom_bond_distance
_geom_bond_site_symmetry_2
Ni0 P3 2.289102 1_555
Ni0 P3 2.289102 1_655
Ni0 P0 2.308714 1_565
Ni1 P2 2.289092 1_655
Ni1 P2 2.289092 1_555
Ni1 P1 2.308756 1_545
Ni2 P1 2.289201 1_555
Ni2 P1 2.289201 1_455
Ni2 P2 2.308579 1_555
Ni3 P0 2.289195 1_555
Ni3 P0 2.289195 1_655
Ni3 P3 2.308547 1_655
Ni4 P3 2.289197 1_555
Ni4 P3 2.289197 1_655
Ni4 P1 2.308564 1_556
Ni5 P2 2.289186 1_555
Ni5 P2 2.289187 1_655
Ni5 P0 2.308513 1_554
Ni6 P0 2.289099 1_655
Ni6 P0 2.289101 1_555
Ni6 P2 2.308780 1_655
Ni7 P1 2.289110 1_455
Ni7 P1 2.289110 1_555
Ni7 P3 2.308727 1_555
P0 Y0 2.792555 1_555
P0 Y1 2.834080 1_456
P0 Y1 2.834081 1_556
P1 Y0 2.792531 1_555
P1 Y1 2.834076 1_565
P1 Y1 2.834077 1_465
P2 Y1 2.792470 1_455
P2 Y0 2.834103 1_555
P2 Y0 2.834103 1_455
P3 Y1 2.792533 1_466
P3 Y0 2.834066 1_455
P3 Y0 2.834067 1_555
