# generated using pymatgen
data_MgH8C4(NO3)2
_symmetry_space_group_name_H-M   'P 1'
_cell_length_a   8.60024500
_cell_length_b   8.76998300
_cell_length_c   12.60294064
_cell_angle_alpha   89.68402680
_cell_angle_beta   90.00000000
_cell_angle_gamma   90.00000000
_symmetry_Int_Tables_number   1
_chemical_formula_structural   MgH8C4(NO3)2
_chemical_formula_sum   'Mg4 H32 C16 N8 O24'
_cell_volume   950.54977140
_cell_formula_units_Z   4
loop_
 _symmetry_equiv_pos_site_id
 _symmetry_equiv_pos_as_xyz
  1  'x, y, z'
loop_
 _atom_site_type_symbol
 _atom_site_label
 _atom_site_symmetry_multiplicity
 _atom_site_fract_x
 _atom_site_fract_y
 _atom_site_fract_z
 _atom_site_occupancy
  Mg  Mg0  1  0.00000000  0.00000000  0.50000000  1
  Mg  Mg1  1  0.50000000  0.00000000  0.00000000  1
  Mg  Mg2  1  0.50000000  0.50000000  0.50000000  1
  Mg  Mg3  1  0.00000000  0.50000000  0.00000000  1
  H  H0  1  0.14197700  0.00505800  0.13743900  1
  H  H1  1  0.64197700  0.99494200  0.36256100  1
  H  H2  1  0.85802300  0.99494200  0.86256100  1
  H  H3  1  0.35802300  0.00505800  0.63743900  1
  H  H4  1  0.44864700  0.29247400  0.16543200  1
  H  H5  1  0.94864700  0.70752600  0.33456800  1
  H  H6  1  0.55135300  0.70752600  0.83456800  1
  H  H7  1  0.05135300  0.29247400  0.66543200  1
  H  H8  1  0.52284300  0.27915700  0.29784200  1
  H  H9  1  0.02284300  0.72084300  0.20215800  1
  H  H10  1  0.47715700  0.72084300  0.70215800  1
  H  H11  1  0.97715700  0.27915700  0.79784200  1
  H  H12  1  0.02835200  0.17006300  0.11986400  1
  H  H13  1  0.52835200  0.82993700  0.38013600  1
  H  H14  1  0.97164800  0.82993700  0.88013600  1
  H  H15  1  0.47164800  0.17006300  0.61986400  1
  H  H16  1  0.20190900  0.70057600  0.45476100  1
  H  H17  1  0.70190900  0.29942400  0.04523900  1
  H  H18  1  0.79809100  0.29942400  0.54523900  1
  H  H19  1  0.29809100  0.70057600  0.95476100  1
  H  H20  1  0.37021700  0.53995600  0.18882700  1
  H  H21  1  0.87021700  0.46004400  0.31117300  1
  H  H22  1  0.62978300  0.46004400  0.81117300  1
  H  H23  1  0.12978300  0.53995600  0.68882700  1
  H  H24  1  0.28062000  0.21410600  0.42089000  1
  H  H25  1  0.78062000  0.78589400  0.07911000  1
  H  H26  1  0.71938000  0.78589400  0.57911000  1
  H  H27  1  0.21938000  0.21410600  0.92089000  1
  H  H28  1  0.93981700  0.18028300  0.28773700  1
  H  H29  1  0.43981700  0.81971700  0.21226300  1
  H  H30  1  0.06018300  0.81971700  0.71226300  1
  H  H31  1  0.56018300  0.18028300  0.78773700  1
  C  C0  1  0.27004100  0.76682300  0.51324500  1
  C  C1  1  0.77004100  0.23317700  0.98675500  1
  C  C2  1  0.72995900  0.23317700  0.48675500  1
  C  C3  1  0.22995900  0.76682300  0.01324500  1
  C  C4  1  0.22482200  0.27232800  0.48918600  1
  C  C5  1  0.72482200  0.72767200  0.01081400  1
  C  C6  1  0.77517800  0.72767200  0.51081400  1
  C  C7  1  0.27517800  0.27232800  0.98918600  1
  C  C8  1  0.02066400  0.08666600  0.26865300  1
  C  C9  1  0.52066400  0.91333400  0.23134700  1
  C  C10  1  0.97933600  0.91333400  0.73134700  1
  C  C11  1  0.47933600  0.08666600  0.76865300  1
  C  C12  1  0.42602300  0.48251200  0.25708900  1
  C  C13  1  0.92602300  0.51748800  0.24291100  1
  C  C14  1  0.57397700  0.51748800  0.74291100  1
  C  C15  1  0.07397700  0.48251200  0.75708900  1
  N  N0  1  0.06559100  0.08419500  0.16811300  1
  N  N1  1  0.56559100  0.91580500  0.33188700  1
  N  N2  1  0.93440900  0.91580500  0.83188700  1
  N  N3  1  0.43440900  0.08419500  0.66811300  1
  N  N4  1  0.46967300  0.34030400  0.23857900  1
  N  N5  1  0.96967300  0.65969600  0.26142100  1
  N  N6  1  0.53032700  0.65969600  0.76142100  1
  N  N7  1  0.03032700  0.34030400  0.73857900  1
  O  O0  1  0.21327900  0.89218200  0.54532900  1
  O  O1  1  0.71327900  0.10781800  0.95467100  1
  O  O2  1  0.78672100  0.10781800  0.45467100  1
  O  O3  1  0.28672100  0.89218200  0.04532900  1
  O  O4  1  0.10107300  0.21257100  0.52635500  1
  O  O5  1  0.60107300  0.78742900  0.97364500  1
  O  O6  1  0.89892700  0.78742900  0.47364500  1
  O  O7  1  0.39892700  0.21257100  0.02635500  1
  O  O8  1  0.06248900  0.99246000  0.33858900  1
  O  O9  1  0.56248900  0.00754000  0.16141100  1
  O  O10  1  0.93751100  0.00754000  0.66141100  1
  O  O11  1  0.43751100  0.99246000  0.83858900  1
  O  O12  1  0.28816800  0.39094500  0.52506300  1
  O  O13  1  0.78816800  0.60905500  0.97493700  1
  O  O14  1  0.71183200  0.60905500  0.47493700  1
  O  O15  1  0.21183200  0.39094500  0.02506300  1
  O  O16  1  0.39947600  0.71213900  0.54384900  1
  O  O17  1  0.89947600  0.28786100  0.95615100  1
  O  O18  1  0.60052400  0.28786100  0.45615100  1
  O  O19  1  0.10052400  0.71213900  0.04384900  1
  O  O20  1  0.44254700  0.55260100  0.34313200  1
  O  O21  1  0.94254700  0.44739900  0.15686800  1
  O  O22  1  0.55745300  0.44739900  0.65686800  1
  O  O23  1  0.05745300  0.55260100  0.84313200  1
loop_
_geom_bond_atom_site_label_1
_geom_bond_atom_site_label_2
_geom_bond_distance
_geom_bond_site_symmetry_2
Mg0 O4 2.085224 1_555
Mg0 O6 2.085224 1_445
Mg0 O8 2.105437 1_545
Mg0 O10 2.105437 1_455
Mg0 O2 2.139852 1_455
Mg0 O0 2.139852 1_545
Mg1 O7 2.085224 1_555
Mg1 O5 2.085224 1_544
Mg1 O9 2.105437 1_555
Mg1 O11 2.105437 1_544
Mg1 O1 2.139852 1_554
Mg1 O3 2.139852 1_545
Mg2 O14 2.080899 1_555
Mg2 O12 2.080899 1_555
Mg2 O22 2.086963 1_555
Mg2 O20 2.086963 1_555
Mg2 O16 2.127309 1_555
Mg2 O18 2.127309 1_555
Mg3 O15 2.080899 1_555
Mg3 O13 2.080899 1_454
Mg3 O21 2.086963 1_455
Mg3 O23 2.086963 1_554
Mg3 O19 2.127309 1_555
Mg3 O17 2.127309 1_454
H0 N0 1.032304 1_555
H1 N1 1.032304 1_555
H2 N2 1.032304 1_555
H3 N3 1.032304 1_555
H4 N4 1.030901 1_555
H5 N5 1.030901 1_555
H6 N6 1.030901 1_555
H7 N7 1.030901 1_555
H8 N4 1.024743 1_555
H9 N5 1.024743 1_455
H10 N6 1.024743 1_555
H11 N7 1.024743 1_655
H12 N0 1.017045 1_555
H13 N1 1.017045 1_555
H14 N2 1.017045 1_555
H15 N3 1.017045 1_555
C0 H16 1.108548 1_555
C0 O0 1.270977 1_555
C0 O16 1.271170 1_555
C1 H17 1.108548 1_556
C1 O1 1.270977 1_555
C1 O17 1.271170 1_555
C2 H18 1.108548 1_555
C2 O2 1.270977 1_555
C2 O18 1.271170 1_555
C3 H19 1.108548 1_554
C3 O3 1.270977 1_555
C3 O19 1.271170 1_555
C4 H24 1.112072 1_555
C4 O12 1.260393 1_555
C4 O4 1.274382 1_555
C5 H25 1.112072 1_555
C5 O13 1.260393 1_554
C5 O5 1.274382 1_554
C6 H26 1.112072 1_555
C6 O14 1.260393 1_555
C6 O6 1.274382 1_555
C7 H27 1.112072 1_555
C7 O15 1.260393 1_556
C7 O7 1.274382 1_556
C8 H28 1.103425 1_455
C8 O8 1.257300 1_545
C8 N0 1.324993 1_555
C9 H29 1.103425 1_555
C9 O9 1.257300 1_565
C9 N1 1.324993 1_555
C10 H30 1.103425 1_655
C10 O10 1.257300 1_565
C10 N2 1.324993 1_555
C11 H31 1.103425 1_555
C11 O11 1.257300 1_545
C11 N3 1.324993 1_555
C12 H20 1.104302 1_555
C12 O20 1.257494 1_555
C12 N4 1.324374 1_555
C13 H21 1.104302 1_555
C13 O21 1.257494 1_555
C13 N5 1.324374 1_555
C14 H22 1.104302 1_555
C14 O22 1.257494 1_555
C14 N6 1.324374 1_555
C15 H23 1.104302 1_555
C15 O23 1.257494 1_555
C15 N7 1.324374 1_555
