# generated using pymatgen
data_Ba2MgV2(Si2O7)2
_symmetry_space_group_name_H-M   'P 1'
_cell_length_a   5.59565824
_cell_length_b   7.34965587
_cell_length_c   8.19609260
_cell_angle_alpha   88.29955195
_cell_angle_beta   110.16414748
_cell_angle_gamma   90.03019849
_symmetry_Int_Tables_number   1
_chemical_formula_structural   Ba2MgV2(Si2O7)2
_chemical_formula_sum   'Ba2 Mg1 V2 Si4 O14'
_cell_volume   316.25796404
_cell_formula_units_Z   1
loop_
 _symmetry_equiv_pos_site_id
 _symmetry_equiv_pos_as_xyz
  1  'x, y, z'
loop_
 _atom_site_type_symbol
 _atom_site_label
 _atom_site_symmetry_multiplicity
 _atom_site_fract_x
 _atom_site_fract_y
 _atom_site_fract_z
 _atom_site_occupancy
  Ba  Ba0  1  0.81620500  0.75124700  0.60445100  1
  Ba  Ba1  1  0.22261800  0.23341400  0.41016600  1
  Mg  Mg0  1  0.14741200  0.49265700  0.00777400  1
  V  V0  1  0.11803500  0.76297400  0.22925600  1
  V  V1  1  0.89347700  0.22189100  0.78638000  1
  Si  Si0  1  0.42796000  0.51935700  0.79432800  1
  Si  Si1  1  0.64422700  0.46540800  0.21993900  1
  Si  Si2  1  0.40913500  0.96386000  0.79926900  1
  Si  Si3  1  0.62120000  0.02041300  0.21554300  1
  O  O0  1  0.13738500  0.44494800  0.74829800  1
  O  O1  1  0.40088100  0.53944200  0.26692000  1
  O  O2  1  0.12097900  0.04819600  0.71120500  1
  O  O3  1  0.42299100  0.93609300  0.30466600  1
  O  O4  1  0.54226000  0.49294900  0.00715900  1
  O  O5  1  0.51786800  0.99105200  0.00761600  1
  O  O6  1  0.00632300  0.73255600  0.99524500  1
  O  O7  1  0.01903300  0.25262100  0.02041600  1
  O  O8  1  0.39236300  0.74263400  0.74595600  1
  O  O9  1  0.65780800  0.24196700  0.26764300  1
  O  O10  1  0.60770800  0.42974700  0.69985000  1
  O  O11  1  0.91920000  0.55524900  0.31469900  1
  O  O12  1  0.59899300  0.04712800  0.70469900  1
  O  O13  1  0.90693500  0.93827000  0.31039500  1
loop_
_geom_bond_atom_site_label_1
_geom_bond_atom_site_label_2
_geom_bond_distance
_geom_bond_site_symmetry_2
Ba0 O2 2.741870 1_665
Ba0 O12 2.771049 1_565
Ba0 O10 2.841165 1_555
Ba0 O0 2.841441 1_655
Ba0 O13 2.932919 1_555
Ba0 O3 2.966812 1_555
Ba0 O8 2.977548 1_555
Ba0 O6 3.005760 1_655
Ba0 O8 3.026747 1_655
Ba0 O11 3.032256 1_555
Ba0 O1 3.361072 1_555
Ba1 O3 2.750103 1_545
Ba1 O13 2.756788 1_445
Ba1 O11 2.840486 1_455
Ba1 O1 2.842645 1_555
Ba1 O12 2.905056 1_555
Ba1 O9 2.967784 1_455
Ba1 O7 2.997767 1_555
Ba1 O2 3.005269 1_555
Ba1 O10 3.005917 1_555
Ba1 O9 3.042231 1_555
Ba1 O0 3.390096 1_555
Mg0 O6 1.917668 1_554
Mg0 O7 1.917877 1_555
Mg0 O1 2.146425 1_555
Mg0 O0 2.147296 1_554
Mg0 O4 2.211177 1_555
O0 Si0 1.635100 1_555
O0 V1 2.215568 1_455
O1 Si1 1.634998 1_555
O1 V0 2.221516 1_555
O2 Si2 1.636221 1_545
O2 V1 2.054038 1_455
O3 Si3 1.636675 1_565
O3 V0 2.056716 1_555
O4 Si0 1.643312 1_554
O4 Si1 1.643501 1_555
O5 Si3 1.620958 1_565
O5 Si2 1.621717 1_554
O6 V0 1.821564 1_556
O7 V1 1.822216 1_454
O8 Si0 1.672441 1_555
O8 Si2 1.690307 1_555
O9 Si1 1.672440 1_555
O9 Si3 1.690096 1_555
O10 Si0 1.616461 1_555
O10 V1 2.133116 1_555
O11 Si1 1.616216 1_555
O11 V0 2.128635 1_655
O12 Si2 1.625682 1_545
O12 V1 2.025239 1_555
O13 Si3 1.625262 1_565
O13 V0 2.022748 1_655
