# generated using pymatgen
data_NaMgH2SO5
_symmetry_space_group_name_H-M   'P 1'
_cell_length_a   6.51612051
_cell_length_b   7.85689876
_cell_length_c   6.08009200
_cell_angle_alpha   90.00000000
_cell_angle_beta   90.00000000
_cell_angle_gamma   120.90900270
_symmetry_Int_Tables_number   1
_chemical_formula_structural   NaMgH2SO5
_chemical_formula_sum   'Na2 Mg2 H4 S2 O10'
_cell_volume   267.07282980
_cell_formula_units_Z   2
loop_
 _symmetry_equiv_pos_site_id
 _symmetry_equiv_pos_as_xyz
  1  'x, y, z'
loop_
 _atom_site_type_symbol
 _atom_site_label
 _atom_site_symmetry_multiplicity
 _atom_site_fract_x
 _atom_site_fract_y
 _atom_site_fract_z
 _atom_site_occupancy
  Na  Na0  1  0.37180500  0.27460000  0.75000000  1
  Na  Na1  1  0.62819500  0.72540000  0.25000000  1
  Mg  Mg0  1  0.00000000  0.50000000  0.00000000  1
  Mg  Mg1  1  0.00000000  0.50000000  0.50000000  1
  H  H0  1  0.67899500  0.09606400  0.87324700  1
  H  H1  1  0.32100500  0.90393600  0.12675300  1
  H  H2  1  0.32100500  0.90393600  0.37324700  1
  H  H3  1  0.67899500  0.09606400  0.62675300  1
  S  S0  1  0.82945300  0.76058700  0.75000000  1
  S  S1  1  0.17054700  0.23941300  0.25000000  1
  O  O0  1  0.07478500  0.93226300  0.75000000  1
  O  O1  1  0.92521500  0.06773700  0.25000000  1
  O  O2  1  0.64165100  0.81179000  0.75000000  1
  O  O3  1  0.35834900  0.18821000  0.25000000  1
  O  O4  1  0.79334400  0.63015700  0.95038800  1
  O  O5  1  0.20665600  0.36984300  0.04961200  1
  O  O6  1  0.20665600  0.36984300  0.45038800  1
  O  O7  1  0.79334400  0.63015700  0.54961200  1
  O  O8  1  0.67165600  0.17411400  0.75000000  1
  O  O9  1  0.32834400  0.82588600  0.25000000  1
loop_
_geom_bond_atom_site_label_1
_geom_bond_atom_site_label_2
_geom_bond_distance
_geom_bond_site_symmetry_2
Na0 O0 2.373241 1_545
Na0 O5 2.421532 1_556
Na0 O6 2.421532 1_555
Na0 O8 2.454730 1_555
Na1 O1 2.373241 1_565
Na1 O4 2.421532 1_554
Na1 O7 2.421532 1_555
Na1 O9 2.454730 1_555
Mg0 O5 2.089214 1_555
Mg0 O4 2.089214 1_454
Mg1 O6 2.089214 1_555
Mg1 O7 2.089214 1_455
H0 O8 0.984884 1_555
H1 O9 0.984884 1_555
H2 O9 0.984884 1_555
H3 O8 0.984884 1_555
O0 S0 1.469586 1_455
O1 S1 1.469586 1_655
O2 S0 1.471447 1_555
O3 S1 1.471447 1_555
O4 S0 1.530443 1_555
O5 S1 1.530443 1_555
O6 S1 1.530443 1_555
O7 S0 1.530443 1_555
