# generated using pymatgen
data_CaSnS3
_symmetry_space_group_name_H-M   'P 1'
_cell_length_a   7.27401964
_cell_length_b   7.27401964
_cell_length_c   17.73715000
_cell_angle_alpha   90.00000000
_cell_angle_beta   90.00000000
_cell_angle_gamma   124.07161241
_symmetry_Int_Tables_number   1
_chemical_formula_structural   CaSnS3
_chemical_formula_sum   'Ca6 Sn6 S18'
_cell_volume   777.39253390
_cell_formula_units_Z   6
loop_
 _symmetry_equiv_pos_site_id
 _symmetry_equiv_pos_as_xyz
  1  'x, y, z'
loop_
 _atom_site_type_symbol
 _atom_site_label
 _atom_site_symmetry_multiplicity
 _atom_site_fract_x
 _atom_site_fract_y
 _atom_site_fract_z
 _atom_site_occupancy
  Ca  Ca0  1  0.06772800  0.93227200  0.25000000  1
  Ca  Ca1  1  0.93227200  0.06772800  0.75000000  1
  Ca  Ca2  1  0.69876200  0.30123800  0.43111100  1
  Ca  Ca3  1  0.30123800  0.69876200  0.56888900  1
  Ca  Ca4  1  0.30123800  0.69876200  0.93111100  1
  Ca  Ca5  1  0.69876200  0.30123800  0.06888900  1
  Sn  Sn0  1  0.00000000  0.00000000  0.50000000  1
  Sn  Sn1  1  0.00000000  0.00000000  0.00000000  1
  Sn  Sn2  1  0.65583600  0.34416400  0.66025400  1
  Sn  Sn3  1  0.34416400  0.65583600  0.33974600  1
  Sn  Sn4  1  0.34416400  0.65583600  0.16025400  1
  Sn  Sn5  1  0.65583600  0.34416400  0.83974600  1
  S  S0  1  0.01078400  0.49298600  0.25000000  1
  S  S1  1  0.50109500  0.49890500  0.25000000  1
  S  S2  1  0.50701400  0.98921600  0.25000000  1
  S  S3  1  0.98921600  0.50701400  0.75000000  1
  S  S4  1  0.49890500  0.50109500  0.75000000  1
  S  S5  1  0.49298600  0.01078400  0.75000000  1
  S  S6  1  0.61113800  0.87391900  0.44615800  1
  S  S7  1  0.12704300  0.87295700  0.39529800  1
  S  S8  1  0.12608100  0.38886200  0.44615800  1
  S  S9  1  0.38886200  0.12608100  0.55384200  1
  S  S10  1  0.87295700  0.12704300  0.60470200  1
  S  S11  1  0.87391900  0.61113800  0.55384200  1
  S  S12  1  0.38886200  0.12608100  0.94615800  1
  S  S13  1  0.87295700  0.12704300  0.89529800  1
  S  S14  1  0.87391900  0.61113800  0.94615800  1
  S  S15  1  0.61113800  0.87391900  0.05384200  1
  S  S16  1  0.12704300  0.87295700  0.10470200  1
  S  S17  1  0.12608100  0.38886200  0.05384200  1
loop_
_geom_bond_atom_site_label_1
_geom_bond_atom_site_label_2
_geom_bond_distance
_geom_bond_site_symmetry_2
Ca0 S7 2.687510 1_555
Ca0 S16 2.687510 1_555
Ca0 S2 2.983119 1_555
Ca0 S0 2.983119 1_555
Ca0 S1 3.516749 1_565
Ca0 S1 3.516749 1_455
Ca1 S13 2.687510 1_555
Ca1 S10 2.687510 1_555
Ca1 S3 2.983119 1_555
Ca1 S5 2.983119 1_555
Ca1 S4 3.516749 1_655
Ca1 S4 3.516749 1_545
Ca2 S6 2.814134 1_545
Ca2 S8 2.814134 1_655
Ca2 S9 2.868040 1_555
Ca2 S11 2.868040 1_555
Ca3 S11 2.814134 1_455
Ca3 S9 2.814134 1_565
Ca3 S8 2.868040 1_555
Ca3 S6 2.868040 1_555
Ca4 S14 2.814134 1_455
Ca4 S12 2.814134 1_565
Ca4 S15 2.868040 1_556
Ca4 S17 2.868040 1_556
Ca5 S15 2.814134 1_545
Ca5 S17 2.814134 1_655
Ca5 S12 2.868040 1_554
Ca5 S14 2.868040 1_554
S0 Sn3 2.568894 1_555
S0 Sn4 2.568894 1_555
S1 Sn3 2.569068 1_555
S1 Sn4 2.569068 1_555
S2 Sn3 2.568894 1_555
S2 Sn4 2.568894 1_555
S3 Sn2 2.568894 1_555
S3 Sn5 2.568894 1_555
S4 Sn2 2.569068 1_555
S4 Sn5 2.569068 1_555
S5 Sn2 2.568894 1_555
S5 Sn5 2.568894 1_555
S6 Sn3 2.529520 1_555
S6 Sn0 2.616759 1_665
S7 Sn0 2.472590 1_565
S7 Sn3 2.958768 1_555
S8 Sn3 2.529520 1_555
S8 Sn0 2.616759 1_555
S9 Sn2 2.529520 1_555
S9 Sn0 2.616759 1_555
S10 Sn0 2.472590 1_655
S10 Sn2 2.958768 1_555
S11 Sn2 2.529520 1_555
S11 Sn0 2.616759 1_665
S12 Sn5 2.529520 1_555
S12 Sn1 2.616759 1_556
S13 Sn1 2.472590 1_656
S13 Sn5 2.958768 1_555
S14 Sn5 2.529520 1_555
S14 Sn1 2.616759 1_666
S15 Sn4 2.529520 1_555
S15 Sn1 2.616759 1_665
S16 Sn1 2.472590 1_565
S16 Sn4 2.958768 1_555
S17 Sn4 2.529520 1_555
S17 Sn1 2.616759 1_555
