# generated using pymatgen
data_Mg30SiBO32
_symmetry_space_group_name_H-M   'P 1'
_cell_length_a   8.54538200
_cell_length_b   8.54538200
_cell_length_c   8.55129600
_cell_angle_alpha   90.00000000
_cell_angle_beta   90.00000000
_cell_angle_gamma   90.00000000
_symmetry_Int_Tables_number   1
_chemical_formula_structural   Mg30SiBO32
_chemical_formula_sum   'Mg30 Si1 B1 O32'
_cell_volume   624.44602117
_cell_formula_units_Z   1
loop_
 _symmetry_equiv_pos_site_id
 _symmetry_equiv_pos_as_xyz
  1  'x, y, z'
loop_
 _atom_site_type_symbol
 _atom_site_label
 _atom_site_symmetry_multiplicity
 _atom_site_fract_x
 _atom_site_fract_y
 _atom_site_fract_z
 _atom_site_occupancy
  Mg  Mg0  1  0.00000000  0.50000000  0.00000000  1
  Mg  Mg1  1  0.50000000  0.00000000  0.00000000  1
  Mg  Mg2  1  0.00000000  0.00000000  0.50000000  1
  Mg  Mg3  1  0.00000000  0.50000000  0.50000000  1
  Mg  Mg4  1  0.50000000  0.00000000  0.50000000  1
  Mg  Mg5  1  0.50000000  0.50000000  0.50000000  1
  Mg  Mg6  1  0.25536100  0.25536100  0.00000000  1
  Mg  Mg7  1  0.25536100  0.74463900  0.00000000  1
  Mg  Mg8  1  0.74463900  0.25536100  0.00000000  1
  Mg  Mg9  1  0.74463900  0.74463900  0.00000000  1
  Mg  Mg10  1  0.25175200  0.25175200  0.50000000  1
  Mg  Mg11  1  0.25175200  0.74824800  0.50000000  1
  Mg  Mg12  1  0.74824800  0.25175200  0.50000000  1
  Mg  Mg13  1  0.74824800  0.74824800  0.50000000  1
  Mg  Mg14  1  0.00000000  0.25261000  0.25127500  1
  Mg  Mg15  1  0.00000000  0.74739000  0.25127500  1
  Mg  Mg16  1  0.50000000  0.25333600  0.24830300  1
  Mg  Mg17  1  0.50000000  0.74666400  0.24830300  1
  Mg  Mg18  1  0.00000000  0.25261000  0.74872500  1
  Mg  Mg19  1  0.00000000  0.74739000  0.74872500  1
  Mg  Mg20  1  0.50000000  0.25333600  0.75169700  1
  Mg  Mg21  1  0.50000000  0.74666400  0.75169700  1
  Mg  Mg22  1  0.25261000  0.00000000  0.25127500  1
  Mg  Mg23  1  0.25333600  0.50000000  0.24830300  1
  Mg  Mg24  1  0.74739000  0.00000000  0.25127500  1
  Mg  Mg25  1  0.74666400  0.50000000  0.24830300  1
  Mg  Mg26  1  0.25261000  0.00000000  0.74872500  1
  Mg  Mg27  1  0.25333600  0.50000000  0.75169700  1
  Mg  Mg28  1  0.74739000  0.00000000  0.74872500  1
  Mg  Mg29  1  0.74666400  0.50000000  0.75169700  1
  Si  Si0  1  0.00000000  0.00000000  0.00000000  1
  B  B0  1  0.50000000  0.50000000  0.00000000  1
  O  O0  1  0.00000000  0.00000000  0.24183600  1
  O  O1  1  0.00000000  0.50000000  0.25053200  1
  O  O2  1  0.50000000  0.00000000  0.25053200  1
  O  O3  1  0.50000000  0.50000000  0.26431200  1
  O  O4  1  0.00000000  0.00000000  0.75816400  1
  O  O5  1  0.00000000  0.50000000  0.74946800  1
  O  O6  1  0.50000000  0.00000000  0.74946800  1
  O  O7  1  0.50000000  0.50000000  0.73568800  1
  O  O8  1  0.24987000  0.24987000  0.24906600  1
  O  O9  1  0.24987000  0.75013000  0.24906600  1
  O  O10  1  0.75013000  0.24987000  0.24906600  1
  O  O11  1  0.75013000  0.75013000  0.24906600  1
  O  O12  1  0.24987000  0.24987000  0.75093400  1
  O  O13  1  0.24987000  0.75013000  0.75093400  1
  O  O14  1  0.75013000  0.24987000  0.75093400  1
  O  O15  1  0.75013000  0.75013000  0.75093400  1
  O  O16  1  0.00000000  0.23565600  0.00000000  1
  O  O17  1  0.00000000  0.76434400  0.00000000  1
  O  O18  1  0.50000000  0.23312600  0.00000000  1
  O  O19  1  0.50000000  0.76687400  0.00000000  1
  O  O20  1  0.00000000  0.24760400  0.50000000  1
  O  O21  1  0.00000000  0.75239600  0.50000000  1
  O  O22  1  0.50000000  0.24730300  0.50000000  1
  O  O23  1  0.50000000  0.75269700  0.50000000  1
  O  O24  1  0.23565600  0.00000000  0.00000000  1
  O  O25  1  0.23312600  0.50000000  0.00000000  1
  O  O26  1  0.76434400  0.00000000  0.00000000  1
  O  O27  1  0.76687400  0.50000000  0.00000000  1
  O  O28  1  0.24760400  0.00000000  0.50000000  1
  O  O29  1  0.24730300  0.50000000  0.50000000  1
  O  O30  1  0.75239600  0.00000000  0.50000000  1
  O  O31  1  0.75269700  0.50000000  0.50000000  1
loop_
_geom_bond_atom_site_label_1
_geom_bond_atom_site_label_2
_geom_bond_distance
_geom_bond_site_symmetry_2
Mg0 O25 1.992151 1_555
Mg0 O27 1.992151 1_455
Mg0 O1 2.142373 1_555
Mg0 O5 2.142373 1_554
Mg0 O16 2.258920 1_555
Mg0 O17 2.258920 1_555
Mg1 O18 1.992151 1_555
Mg1 O19 1.992151 1_545
Mg1 O2 2.142373 1_555
Mg1 O6 2.142373 1_554
Mg1 O26 2.258920 1_555
Mg1 O24 2.258920 1_555
Mg2 O28 2.115871 1_555
Mg2 O20 2.115871 1_555
Mg2 O30 2.115871 1_455
Mg2 O21 2.115871 1_545
Mg2 O4 2.207637 1_555
Mg2 O0 2.207637 1_555
Mg3 O29 2.113299 1_555
Mg3 O31 2.113299 1_455
Mg3 O1 2.133275 1_555
Mg3 O5 2.133275 1_555
Mg3 O21 2.156820 1_555
Mg3 O20 2.156820 1_555
Mg4 O22 2.113299 1_555
Mg4 O23 2.113299 1_545
Mg4 O6 2.133275 1_555
Mg4 O2 2.133275 1_555
Mg4 O30 2.156820 1_555
Mg4 O28 2.156820 1_555
Mg5 O3 2.015438 1_555
Mg5 O7 2.015438 1_555
Mg5 O23 2.159392 1_555
Mg5 O31 2.159392 1_555
Mg5 O22 2.159392 1_555
Mg5 O29 2.159392 1_555
Mg6 O25 2.099151 1_555
Mg6 O18 2.099151 1_555
Mg6 O8 2.130871 1_555
Mg6 O12 2.130871 1_554
Mg6 O24 2.188644 1_555
Mg6 O16 2.188644 1_555
Mg7 O19 2.099151 1_555
Mg7 O25 2.099151 1_555
Mg7 O9 2.130871 1_555
Mg7 O13 2.130871 1_554
Mg7 O24 2.188644 1_565
Mg7 O17 2.188644 1_555
Mg8 O27 2.099151 1_555
Mg8 O18 2.099151 1_555
Mg8 O14 2.130871 1_554
Mg8 O10 2.130871 1_555
Mg8 O16 2.188644 1_655
Mg8 O26 2.188644 1_555
Mg9 O19 2.099151 1_555
Mg9 O27 2.099151 1_555
Mg9 O15 2.130871 1_554
Mg9 O11 2.130871 1_555
Mg9 O26 2.188644 1_565
Mg9 O17 2.188644 1_655
Mg10 O22 2.121715 1_555
Mg10 O29 2.121715 1_555
Mg10 O12 2.145931 1_555
Mg10 O8 2.145931 1_555
Mg10 O20 2.151609 1_555
Mg10 O28 2.151609 1_555
Mg11 O23 2.121715 1_555
Mg11 O29 2.121715 1_555
Mg11 O9 2.145931 1_555
Mg11 O13 2.145931 1_555
Mg11 O28 2.151609 1_565
Mg11 O21 2.151609 1_555
Mg12 O22 2.121715 1_555
Mg12 O31 2.121715 1_555
Mg12 O10 2.145931 1_555
Mg12 O14 2.145931 1_555
Mg12 O30 2.151609 1_555
Mg12 O20 2.151609 1_655
Mg13 O23 2.121715 1_555
Mg13 O31 2.121715 1_555
Mg13 O11 2.145931 1_555
Mg13 O15 2.145931 1_555
Mg13 O21 2.151609 1_655
Mg13 O30 2.151609 1_565
Mg14 O1 2.114052 1_555
Mg14 O20 2.127351 1_555
Mg14 O8 2.135447 1_555
Mg14 O10 2.135447 1_455
Mg14 O16 2.153606 1_555
Mg14 O0 2.160157 1_555
Mg15 O1 2.114052 1_555
Mg15 O21 2.127351 1_555
Mg15 O9 2.135447 1_555
Mg15 O11 2.135447 1_455
Mg15 O17 2.153606 1_555
Mg15 O0 2.160157 1_565
Mg16 O3 2.112279 1_555
Mg16 O18 2.130324 1_555
Mg16 O8 2.137672 1_555
Mg16 O10 2.137672 1_555
Mg16 O22 2.152953 1_555
Mg16 O2 2.164937 1_555
Mg17 O3 2.112279 1_555
Mg17 O19 2.130324 1_555
Mg17 O11 2.137672 1_555
Mg17 O9 2.137672 1_555
Mg17 O23 2.152953 1_555
Mg17 O2 2.164937 1_565
Mg18 O5 2.114052 1_555
Mg18 O20 2.127351 1_555
Mg18 O12 2.135447 1_555
Mg18 O14 2.135447 1_455
Mg18 O16 2.153606 1_556
Mg18 O4 2.160157 1_555
Mg19 O5 2.114052 1_555
Mg19 O21 2.127351 1_555
Mg19 O13 2.135447 1_555
Mg19 O15 2.135447 1_455
Mg19 O17 2.153606 1_556
Mg19 O4 2.160157 1_565
Mg20 O7 2.112279 1_555
Mg20 O18 2.130324 1_556
Mg20 O14 2.137672 1_555
Mg20 O12 2.137672 1_555
Mg20 O22 2.152953 1_555
Mg20 O6 2.164937 1_555
Mg21 O7 2.112279 1_555
Mg21 O19 2.130324 1_556
Mg21 O15 2.137672 1_555
Mg21 O13 2.137672 1_555
Mg21 O23 2.152953 1_555
Mg21 O6 2.164937 1_565
Mg22 O2 2.114052 1_555
Mg22 O28 2.127351 1_555
Mg22 O8 2.135447 1_555
Mg22 O9 2.135447 1_545
Mg22 O24 2.153606 1_555
Mg22 O0 2.160157 1_555
Mg23 O3 2.112279 1_555
Mg23 O25 2.130324 1_555
Mg23 O8 2.137672 1_555
Mg23 O9 2.137672 1_555
Mg23 O29 2.152953 1_555
Mg23 O1 2.164937 1_555
Mg24 O2 2.114052 1_555
Mg24 O30 2.127351 1_555
Mg24 O10 2.135447 1_555
Mg24 O11 2.135447 1_545
Mg24 O26 2.153606 1_555
Mg24 O0 2.160157 1_655
Mg25 O3 2.112279 1_555
Mg25 O27 2.130324 1_555
Mg25 O11 2.137672 1_555
Mg25 O10 2.137672 1_555
Mg25 O31 2.152953 1_555
Mg25 O1 2.164937 1_655
Mg26 O6 2.114052 1_555
Mg26 O28 2.127351 1_555
Mg26 O12 2.135447 1_555
Mg26 O13 2.135447 1_545
Mg26 O24 2.153606 1_556
Mg26 O4 2.160157 1_555
Mg27 O7 2.112279 1_555
Mg27 O25 2.130324 1_556
Mg27 O13 2.137672 1_555
Mg27 O12 2.137672 1_555
Mg27 O29 2.152953 1_555
Mg27 O5 2.164937 1_555
Mg28 O6 2.114052 1_555
Mg28 O30 2.127351 1_555
Mg28 O14 2.135447 1_555
Mg28 O15 2.135447 1_545
Mg28 O26 2.153606 1_556
Mg28 O4 2.160157 1_655
Mg29 O7 2.112279 1_555
Mg29 O27 2.130324 1_556
Mg29 O14 2.137672 1_555
Mg29 O15 2.137672 1_555
Mg29 O31 2.152953 1_555
Mg29 O5 2.164937 1_655
O0 Si0 2.068011 1_555
O4 Si0 2.068011 1_556
O16 Si0 2.013771 1_555
O17 Si0 2.013771 1_565
O24 Si0 2.013771 1_555
O26 Si0 2.013771 1_655
