# generated using pymatgen
data_W
_symmetry_space_group_name_H-M   'P 1'
_cell_length_a   5.61932400
_cell_length_b   9.72774000
_cell_length_c   9.84739000
_cell_angle_alpha   90.00000000
_cell_angle_beta   90.00000000
_cell_angle_gamma   90.00000000
_symmetry_Int_Tables_number   1
_chemical_formula_structural   W
_chemical_formula_sum   W32
_cell_volume   538.29105878
_cell_formula_units_Z   32
loop_
 _symmetry_equiv_pos_site_id
 _symmetry_equiv_pos_as_xyz
  1  'x, y, z'
loop_
 _atom_site_type_symbol
 _atom_site_label
 _atom_site_symmetry_multiplicity
 _atom_site_fract_x
 _atom_site_fract_y
 _atom_site_fract_z
 _atom_site_occupancy
  W  W0_0  1  0.39658600  0.28157850  0.12500000  1
  W  W0_1  1  0.39658600  0.28157850  0.62500000  1
  W  W0_2  1  0.39658600  0.78157850  0.12500000  1
  W  W0_3  1  0.39658600  0.78157850  0.62500000  1
  W  W0_4  1  0.89658600  0.28157850  0.12500000  1
  W  W0_5  1  0.89658600  0.28157850  0.62500000  1
  W  W0_6  1  0.89658600  0.78157850  0.12500000  1
  W  W0_7  1  0.89658600  0.78157850  0.62500000  1
  W  W1_0  1  0.10341400  0.03157850  0.12500000  1
  W  W1_1  1  0.10341400  0.03157850  0.62500000  1
  W  W1_2  1  0.10341400  0.53157850  0.12500000  1
  W  W1_3  1  0.10341400  0.53157850  0.62500000  1
  W  W1_4  1  0.60341400  0.03157850  0.12500000  1
  W  W1_5  1  0.60341400  0.03157850  0.62500000  1
  W  W1_6  1  0.60341400  0.53157850  0.12500000  1
  W  W1_7  1  0.60341400  0.53157850  0.62500000  1
  W  W2_0  1  0.10341400  0.21842150  0.37500000  1
  W  W2_1  1  0.10341400  0.21842150  0.87500000  1
  W  W2_2  1  0.10341400  0.71842150  0.37500000  1
  W  W2_3  1  0.10341400  0.71842150  0.87500000  1
  W  W2_4  1  0.60341400  0.21842150  0.37500000  1
  W  W2_5  1  0.60341400  0.21842150  0.87500000  1
  W  W2_6  1  0.60341400  0.71842150  0.37500000  1
  W  W2_7  1  0.60341400  0.71842150  0.87500000  1
  W  W3_0  1  0.39658600  0.46842150  0.37500000  1
  W  W3_1  1  0.39658600  0.46842150  0.87500000  1
  W  W3_2  1  0.39658600  0.96842150  0.37500000  1
  W  W3_3  1  0.39658600  0.96842150  0.87500000  1
  W  W3_4  1  0.89658600  0.46842150  0.37500000  1
  W  W3_5  1  0.89658600  0.46842150  0.87500000  1
  W  W3_6  1  0.89658600  0.96842150  0.37500000  1
  W  W3_7  1  0.89658600  0.96842150  0.87500000  1
loop_
_geom_bond_atom_site_label_1
_geom_bond_atom_site_label_2
_geom_bond_distance
_geom_bond_site_symmetry_2
W0_0 W1_6 2.695384 1_555
W0_0 W1_4 2.695384 1_555
W0_0 W2_5 2.790867 1_554
W0_0 W2_4 2.790867 1_555
W0_0 W0_4 2.809662 1_555
W0_0 W0_4 2.809662 1_455
W0_0 W1_2 2.937402 1_555
W0_0 W1_0 2.937402 1_555
W0_0 W2_1 3.025255 1_554
W0_0 W2_0 3.025255 1_555
W0_0 W3_1 3.060101 1_554
W0_0 W3_0 3.060101 1_555
W0_1 W1_7 2.695384 1_555
W0_1 W1_5 2.695384 1_555
W0_1 W2_4 2.790867 1_555
W0_1 W2_5 2.790867 1_555
W0_1 W0_5 2.809662 1_555
W0_1 W0_5 2.809662 1_455
W0_1 W1_3 2.937402 1_555
W0_1 W1_1 2.937402 1_555
W0_1 W2_1 3.025255 1_555
W0_1 W2_0 3.025255 1_555
W0_1 W3_0 3.060101 1_555
W0_1 W3_1 3.060101 1_555
W0_2 W1_4 2.695384 1_565
W0_2 W1_6 2.695384 1_555
W0_2 W2_6 2.790867 1_555
W0_2 W2_7 2.790867 1_554
W0_2 W0_6 2.809662 1_555
W0_2 W0_6 2.809662 1_455
W0_2 W1_0 2.937402 1_565
W0_2 W1_2 2.937402 1_555
W0_2 W2_3 3.025255 1_554
W0_2 W2_2 3.025255 1_555
W0_2 W3_3 3.060101 1_554
W0_2 W3_2 3.060101 1_555
W0_3 W1_5 2.695384 1_565
W0_3 W1_7 2.695384 1_555
W0_3 W2_6 2.790867 1_555
W0_3 W2_7 2.790867 1_555
W0_3 W0_7 2.809662 1_555
W0_3 W0_7 2.809662 1_455
W0_3 W1_1 2.937402 1_565
W0_3 W1_3 2.937402 1_555
W0_3 W2_3 3.025255 1_555
W0_3 W2_2 3.025255 1_555
W0_3 W3_3 3.060101 1_555
W0_3 W3_2 3.060101 1_555
W0_4 W1_2 2.695384 1_655
W0_4 W1_0 2.695384 1_655
W0_4 W2_1 2.790867 1_654
W0_4 W2_0 2.790867 1_655
W0_4 W1_6 2.937402 1_555
W0_4 W1_4 2.937402 1_555
W0_4 W2_4 3.025255 1_555
W0_4 W2_5 3.025255 1_554
W0_4 W3_5 3.060101 1_554
W0_4 W3_4 3.060101 1_555
W0_5 W1_3 2.695384 1_655
W0_5 W1_1 2.695384 1_655
W0_5 W2_1 2.790867 1_655
W0_5 W2_0 2.790867 1_655
W0_5 W1_7 2.937402 1_555
W0_5 W1_5 2.937402 1_555
W0_5 W2_4 3.025255 1_555
W0_5 W2_5 3.025255 1_555
W0_5 W3_4 3.060101 1_555
W0_5 W3_5 3.060101 1_555
W0_6 W1_0 2.695384 1_665
W0_6 W1_2 2.695384 1_655
W0_6 W2_2 2.790867 1_655
W0_6 W2_3 2.790867 1_654
W0_6 W1_4 2.937402 1_565
W0_6 W1_6 2.937402 1_555
W0_6 W2_6 3.025255 1_555
W0_6 W2_7 3.025255 1_554
W0_6 W3_6 3.060101 1_555
W0_6 W3_7 3.060101 1_554
W0_7 W1_1 2.695384 1_665
W0_7 W1_3 2.695384 1_655
W0_7 W2_2 2.790867 1_655
W0_7 W2_3 2.790867 1_655
W0_7 W1_5 2.937402 1_565
W0_7 W1_7 2.937402 1_555
W0_7 W2_6 3.025255 1_555
W0_7 W2_7 3.025255 1_555
W0_7 W3_6 3.060101 1_555
W0_7 W3_7 3.060101 1_555
W1_0 W3_7 2.790867 1_444
W1_0 W3_6 2.790867 1_445
W1_0 W1_4 2.809662 1_555
W1_0 W1_4 2.809662 1_455
W1_0 W3_2 3.025255 1_545
W1_0 W3_3 3.025255 1_544
W1_0 W2_1 3.060101 1_554
W1_0 W2_0 3.060101 1_555
W1_1 W3_7 2.790867 1_445
W1_1 W3_6 2.790867 1_445
W1_1 W1_5 2.809662 1_555
W1_1 W1_5 2.809662 1_455
W1_1 W3_2 3.025255 1_545
W1_1 W3_3 3.025255 1_545
W1_1 W2_1 3.060101 1_555
W1_1 W2_0 3.060101 1_555
W1_2 W3_5 2.790867 1_454
W1_2 W3_4 2.790867 1_455
W1_2 W1_6 2.809662 1_555
W1_2 W1_6 2.809662 1_455
W1_2 W3_1 3.025255 1_554
W1_2 W3_0 3.025255 1_555
W1_2 W2_2 3.060101 1_555
W1_2 W2_3 3.060101 1_554
W1_3 W3_5 2.790867 1_455
W1_3 W3_4 2.790867 1_455
W1_3 W1_7 2.809662 1_555
W1_3 W1_7 2.809662 1_455
W1_3 W3_0 3.025255 1_555
W1_3 W3_1 3.025255 1_555
W1_3 W2_2 3.060101 1_555
W1_3 W2_3 3.060101 1_555
W1_4 W3_2 2.790867 1_545
W1_4 W3_3 2.790867 1_544
W1_4 W3_6 3.025255 1_545
W1_4 W3_7 3.025255 1_544
W1_4 W2_5 3.060101 1_554
W1_4 W2_4 3.060101 1_555
W1_5 W3_2 2.790867 1_545
W1_5 W3_3 2.790867 1_545
W1_5 W3_6 3.025255 1_545
W1_5 W3_7 3.025255 1_545
W1_5 W2_4 3.060101 1_555
W1_5 W2_5 3.060101 1_555
W1_6 W3_0 2.790867 1_555
W1_6 W3_1 2.790867 1_554
W1_6 W3_4 3.025255 1_555
W1_6 W3_5 3.025255 1_554
W1_6 W2_6 3.060101 1_555
W1_6 W2_7 3.060101 1_554
W1_7 W3_0 2.790867 1_555
W1_7 W3_1 2.790867 1_555
W1_7 W3_5 3.025255 1_555
W1_7 W3_4 3.025255 1_555
W1_7 W2_6 3.060101 1_555
W1_7 W2_7 3.060101 1_555
W2_0 W3_4 2.695384 1_455
W2_0 W3_6 2.695384 1_445
W2_0 W2_4 2.809662 1_555
W2_0 W2_4 2.809662 1_455
W2_0 W3_0 2.937402 1_555
W2_0 W3_2 2.937402 1_545
W2_1 W3_5 2.695384 1_455
W2_1 W3_7 2.695384 1_445
W2_1 W2_5 2.809662 1_555
W2_1 W2_5 2.809662 1_455
W2_1 W3_1 2.937402 1_555
W2_1 W3_3 2.937402 1_545
W2_2 W3_6 2.695384 1_455
W2_2 W3_4 2.695384 1_455
W2_2 W2_6 2.809662 1_555
W2_2 W2_6 2.809662 1_455
W2_2 W3_2 2.937402 1_555
W2_2 W3_0 2.937402 1_555
W2_3 W3_7 2.695384 1_455
W2_3 W3_5 2.695384 1_455
W2_3 W2_7 2.809662 1_555
W2_3 W2_7 2.809662 1_455
W2_3 W3_3 2.937402 1_555
W2_3 W3_1 2.937402 1_555
W2_4 W3_0 2.695384 1_555
W2_4 W3_2 2.695384 1_545
W2_4 W3_4 2.937402 1_555
W2_4 W3_6 2.937402 1_545
W2_5 W3_1 2.695384 1_555
W2_5 W3_3 2.695384 1_545
W2_5 W3_5 2.937402 1_555
W2_5 W3_7 2.937402 1_545
W2_6 W3_2 2.695384 1_555
W2_6 W3_0 2.695384 1_555
W2_6 W3_6 2.937402 1_555
W2_6 W3_4 2.937402 1_555
W2_7 W3_3 2.695384 1_555
W2_7 W3_1 2.695384 1_555
W2_7 W3_7 2.937402 1_555
W2_7 W3_5 2.937402 1_555
W3_0 W3_4 2.809662 1_555
W3_0 W3_4 2.809662 1_455
W3_1 W3_5 2.809662 1_555
W3_1 W3_5 2.809662 1_455
W3_2 W3_6 2.809662 1_555
W3_2 W3_6 2.809662 1_455
W3_3 W3_7 2.809662 1_555
W3_3 W3_7 2.809662 1_455
