# generated using pymatgen
data_Zr5CdSb2
_symmetry_space_group_name_H-M   'P 1'
_cell_length_a   5.62159600
_cell_length_b   8.45431889
_cell_length_c   8.45431889
_cell_angle_alpha   83.65381074
_cell_angle_beta   70.58130436
_cell_angle_gamma   70.58130436
_symmetry_Int_Tables_number   1
_chemical_formula_structural   Zr5CdSb2
_chemical_formula_sum   'Zr10 Cd2 Sb4'
_cell_volume   357.39252961
_cell_formula_units_Z   2
loop_
 _symmetry_equiv_pos_site_id
 _symmetry_equiv_pos_as_xyz
  1  'x, y, z'
loop_
 _atom_site_type_symbol
 _atom_site_label
 _atom_site_symmetry_multiplicity
 _atom_site_fract_x
 _atom_site_fract_y
 _atom_site_fract_z
 _atom_site_occupancy
  Zr  Zr0  1  0.25000000  0.50000000  0.50000000  1
  Zr  Zr1  1  0.75000000  0.50000000  0.50000000  1
  Zr  Zr2  1  0.07793000  0.14681800  0.69732200  1
  Zr  Zr3  1  0.92207000  0.85318200  0.30267800  1
  Zr  Zr4  1  0.77525200  0.30267800  0.14681800  1
  Zr  Zr5  1  0.42207000  0.30267800  0.85318200  1
  Zr  Zr6  1  0.22474800  0.69732200  0.85318200  1
  Zr  Zr7  1  0.57793000  0.69732200  0.14681800  1
  Zr  Zr8  1  0.72474800  0.85318200  0.69732200  1
  Zr  Zr9  1  0.27525200  0.14681800  0.30267800  1
  Cd  Cd0  1  0.25000000  0.00000000  0.00000000  1
  Cd  Cd1  1  0.75000000  0.00000000  0.00000000  1
  Sb  Sb0  1  0.16386500  0.50000000  0.17227000  1
  Sb  Sb1  1  0.83613500  0.50000000  0.82773000  1
  Sb  Sb2  1  0.33613500  0.82773000  0.50000000  1
  Sb  Sb3  1  0.66386500  0.17227000  0.50000000  1
loop_
_geom_bond_atom_site_label_1
_geom_bond_atom_site_label_2
_geom_bond_distance
_geom_bond_site_symmetry_2
Zr0 Zr1 2.810798 1_555
Zr0 Zr1 2.810798 1_455
Cd0 Cd1 2.810798 1_555
Cd0 Cd1 2.810798 1_455
Cd0 Zr2 3.028182 1_554
Cd0 Zr8 3.028182 1_544
Cd0 Zr9 3.028182 1_555
Cd0 Zr4 3.028182 1_455
Cd0 Zr6 3.028182 1_544
Cd0 Zr3 3.028182 1_445
Cd0 Zr7 3.028182 1_545
Cd0 Zr5 3.028182 1_554
Cd1 Zr6 3.028182 1_644
Cd1 Zr7 3.028182 1_545
Cd1 Zr9 3.028182 1_555
Cd1 Zr3 3.028182 1_545
Cd1 Zr2 3.028182 1_654
Cd1 Zr4 3.028182 1_555
Cd1 Zr5 3.028182 1_554
Cd1 Zr8 3.028182 1_544
Sb0 Zr0 2.967075 1_555
Sb0 Zr1 2.967075 1_455
Sb0 Zr5 2.991382 1_554
Sb0 Zr6 2.991382 1_554
Sb0 Zr3 3.001891 1_455
Sb0 Zr9 3.001891 1_555
Sb0 Zr7 3.227556 1_455
Sb0 Zr4 3.227556 1_455
Sb0 Zr4 3.227556 1_555
Sb0 Zr7 3.227556 1_555
Sb1 Zr1 2.967075 1_555
Sb1 Zr0 2.967075 1_655
Sb1 Zr7 2.991382 1_556
Sb1 Zr4 2.991382 1_556
Sb1 Zr8 3.001891 1_555
Sb1 Zr2 3.001891 1_655
Sb1 Zr5 3.227556 1_655
Sb1 Zr6 3.227556 1_555
Sb1 Zr6 3.227556 1_655
Sb1 Zr5 3.227556 1_555
Sb2 Zr0 2.967075 1_555
Sb2 Zr1 2.967075 1_555
Sb2 Zr9 2.991382 1_565
Sb2 Zr2 2.991382 1_565
Sb2 Zr6 3.001891 1_555
Sb2 Zr7 3.001891 1_555
Sb2 Zr3 3.227556 1_555
Sb2 Zr8 3.227556 1_555
Sb2 Zr8 3.227556 1_455
Sb2 Zr3 3.227556 1_455
Sb3 Zr1 2.967075 1_555
Sb3 Zr0 2.967075 1_555
Sb3 Zr8 2.991382 1_545
Sb3 Zr3 2.991382 1_545
Sb3 Zr5 3.001891 1_555
Sb3 Zr4 3.001891 1_555
Sb3 Zr9 3.227556 1_655
Sb3 Zr2 3.227556 1_555
Sb3 Zr9 3.227556 1_555
Sb3 Zr2 3.227556 1_655
