# generated using pymatgen
data_Li3CrPCO7
_symmetry_space_group_name_H-M   'P 1'
_cell_length_a   6.46006900
_cell_length_b   8.67608372
_cell_length_c   10.03295888
_cell_angle_alpha   94.74628841
_cell_angle_beta   90.08397099
_cell_angle_gamma   90.07645309
_symmetry_Int_Tables_number   1
_chemical_formula_structural   Li3CrPCO7
_chemical_formula_sum   'Li12 Cr4 P4 C4 O28'
_cell_volume   560.39877804
_cell_formula_units_Z   4
loop_
 _symmetry_equiv_pos_site_id
 _symmetry_equiv_pos_as_xyz
  1  'x, y, z'
loop_
 _atom_site_type_symbol
 _atom_site_label
 _atom_site_symmetry_multiplicity
 _atom_site_fract_x
 _atom_site_fract_y
 _atom_site_fract_z
 _atom_site_occupancy
  Li  Li0  1  0.74003400  0.89922400  0.38181800  1
  Li  Li1  1  0.74398300  0.89998000  0.88504800  1
  Li  Li2  1  0.52976100  0.71430300  0.12397300  1
  Li  Li3  1  0.96988900  0.72647300  0.62852200  1
  Li  Li4  1  0.53066300  0.72709300  0.62870600  1
  Li  Li5  1  0.74756500  0.34481300  0.10596200  1
  Li  Li6  1  0.48454300  0.27283600  0.35962600  1
  Li  Li7  1  0.01675000  0.27542100  0.36128500  1
  Li  Li8  1  0.48480700  0.27672100  0.88363900  1
  Li  Li9  1  0.01358300  0.27413100  0.88464800  1
  Li  Li10  1  0.25058300  0.11684200  0.10797400  1
  Li  Li11  1  0.25137700  0.10592000  0.61692200  1
  Cr  Cr0  1  0.00372500  0.73864000  0.13116000  1
  Cr  Cr1  1  0.25090200  0.66170400  0.40192000  1
  Cr  Cr2  1  0.25517700  0.66040400  0.88297500  1
  Cr  Cr3  1  0.75014000  0.33122900  0.60448000  1
  P  P0  1  0.74922500  0.58546000  0.36109300  1
  P  P1  1  0.75034600  0.58375000  0.85831600  1
  P  P2  1  0.24708600  0.40947500  0.13960100  1
  P  P3  1  0.25073300  0.40918400  0.64022400  1
  C  C0  1  0.24348600  0.96793100  0.34969100  1
  C  C1  1  0.24850900  0.96870400  0.85423800  1
  C  C2  1  0.75104400  0.03788500  0.14867400  1
  C  C3  1  0.75079100  0.03059100  0.64862300  1
  O  O0  1  0.25234300  0.94477900  0.47381700  1
  O  O1  1  0.76271900  0.88904500  0.18137200  1
  O  O2  1  0.24410200  0.94093800  0.97896000  1
  O  O3  1  0.23864800  0.84288300  0.26244200  1
  O  O4  1  0.75064200  0.89091500  0.68830800  1
  O  O5  1  0.25302000  0.85145200  0.76268900  1
  O  O6  1  0.93708200  0.68492300  0.41733400  1
  O  O7  1  0.56388200  0.68713000  0.41727500  1
  O  O8  1  0.94020900  0.68472900  0.91484300  1
  O  O9  1  0.56586900  0.68575800  0.91618600  1
  O  O10  1  0.24518800  0.58057500  0.09330700  1
  O  O11  1  0.74901100  0.57522600  0.20597800  1
  O  O12  1  0.25090500  0.57749800  0.59750700  1
  O  O13  1  0.75117100  0.58174900  0.70363800  1
  O  O14  1  0.24976600  0.42367800  0.29566900  1
  O  O15  1  0.74845400  0.42115400  0.40900600  1
  O  O16  1  0.25177300  0.41776200  0.79565000  1
  O  O17  1  0.75118900  0.42029300  0.90355300  1
  O  O18  1  0.05660900  0.31531200  0.08781200  1
  O  O19  1  0.43860500  0.31987500  0.08477000  1
  O  O20  1  0.43672700  0.31141500  0.58234900  1
  O  O21  1  0.06360800  0.31179700  0.58271100  1
  O  O22  1  0.73853500  0.14368000  0.24479100  1
  O  O23  1  0.24309700  0.10334300  0.30593900  1
  O  O24  1  0.75024300  0.14948900  0.73778100  1
  O  O25  1  0.75122200  0.06343400  0.02521100  1
  O  O26  1  0.24934700  0.10863400  0.81795200  1
  O  O27  1  0.75132700  0.05382000  0.52403400  1
loop_
_geom_bond_atom_site_label_1
_geom_bond_atom_site_label_2
_geom_bond_distance
_geom_bond_site_symmetry_2
Li0 O27 1.876963 1_565
Li0 O1 2.011261 1_555
Li0 O7 2.216202 1_555
Li0 O6 2.306286 1_555
Li1 O25 1.913231 1_566
Li1 O4 1.969473 1_555
Li1 O9 2.228767 1_555
Li1 O8 2.298160 1_555
Li2 O11 2.074717 1_555
Li2 O9 2.092351 1_554
Li2 O1 2.177570 1_555
Li2 O10 2.180357 1_555
Li2 O3 2.543227 1_555
Li3 O4 2.065821 1_555
Li3 O13 2.072670 1_555
Li3 O6 2.129890 1_555
Li3 O12 2.237054 1_655
Li3 O5 2.465580 1_655
Li4 O4 2.061239 1_555
Li4 O13 2.084006 1_555
Li4 O7 2.132114 1_555
Li4 O12 2.230145 1_555
Li4 O5 2.441376 1_555
Li5 O19 2.016343 1_555
Li5 O18 2.019699 1_655
Li5 O11 2.161319 1_555
Li5 O17 2.184851 1_554
Li5 O22 2.321824 1_555
Li5 O25 2.507913 1_555
Li6 O14 2.136870 1_555
Li6 O15 2.166598 1_555
Li6 O23 2.178483 1_555
Li6 O22 2.252139 1_555
Li6 O20 2.253726 1_555
Li7 O14 2.119370 1_555
Li7 O23 2.132222 1_555
Li7 O15 2.177163 1_455
Li7 O21 2.237923 1_555
Li7 O22 2.381179 1_455
Li8 O19 2.044107 1_556
Li8 O17 2.122485 1_555
Li8 O26 2.169533 1_555
Li8 O16 2.173197 1_555
Li8 O24 2.458747 1_555
Li9 O18 2.058466 1_556
Li9 O17 2.117610 1_455
Li9 O26 2.163097 1_555
Li9 O16 2.213801 1_555
Li9 O24 2.441061 1_455
Li10 O2 1.918103 1_544
Li10 O23 1.999927 1_555
Li10 O18 2.153807 1_555
Li10 O19 2.166913 1_555
Li11 O0 1.919359 1_545
Li11 O26 2.015176 1_555
Li11 O20 2.197860 1_555
Li11 O21 2.210370 1_555
Cr0 O1 2.068705 1_455
Cr0 O10 2.092695 1_555
Cr0 O3 2.156238 1_555
Cr0 O8 2.219510 1_454
Cr0 O11 2.335529 1_455
Cr1 O7 2.037802 1_555
Cr1 O6 2.042374 1_455
Cr1 O12 2.149809 1_555
Cr1 O3 2.190776 1_555
Cr1 O14 2.244289 1_555
Cr1 O0 2.501801 1_555
Cr2 O9 2.042685 1_555
Cr2 O8 2.068507 1_455
Cr2 O5 2.129586 1_555
Cr2 O16 2.212345 1_555
Cr2 O10 2.275781 1_556
Cr2 O2 2.543490 1_555
Cr3 O20 2.041954 1_555
Cr3 O21 2.042784 1_655
Cr3 O24 2.150326 1_555
Cr3 O15 2.169847 1_555
Cr3 O13 2.314328 1_555
Cr3 O27 2.474446 1_555
C0 O0 1.278961 1_555
C0 O23 1.287752 1_565
C0 O3 1.336777 1_555
C1 O2 1.294080 1_555
C1 O26 1.295994 1_565
C1 O5 1.313358 1_555
C2 O25 1.276305 1_555
C2 O22 1.277865 1_555
C2 O1 1.360582 1_545
C3 O27 1.282505 1_555
C3 O4 1.306497 1_545
C3 O24 1.308291 1_555
O6 P0 1.565389 1_555
O7 P0 1.565865 1_555
O8 P1 1.583172 1_555
O9 P1 1.568572 1_555
O10 P2 1.591756 1_555
O11 P0 1.551439 1_555
O12 P3 1.555552 1_555
O13 P1 1.550555 1_555
O14 P2 1.560536 1_555
O15 P0 1.541636 1_555
O16 P3 1.554999 1_555
O17 P1 1.524384 1_555
O18 P2 1.541663 1_555
O19 P2 1.539956 1_555
O20 P3 1.556802 1_555
O21 P3 1.556509 1_555
