# generated using pymatgen
data_Mn(CrS2)2
_symmetry_space_group_name_H-M   'P 1'
_cell_length_a   6.85548981
_cell_length_b   6.85548981
_cell_length_c   6.06910721
_cell_angle_alpha   63.67423864
_cell_angle_beta   63.67423864
_cell_angle_gamma   29.72066798
_symmetry_Int_Tables_number   1
_chemical_formula_structural   Mn(CrS2)2
_chemical_formula_sum   'Mn1 Cr2 S4'
_cell_volume   125.64797329
_cell_formula_units_Z   1
loop_
 _symmetry_equiv_pos_site_id
 _symmetry_equiv_pos_as_xyz
  1  'x, y, z'
loop_
 _atom_site_type_symbol
 _atom_site_label
 _atom_site_symmetry_multiplicity
 _atom_site_fract_x
 _atom_site_fract_y
 _atom_site_fract_z
 _atom_site_occupancy
  Mn  Mn0  1  -0.00000000  0.00000000  -0.00000000  1
  Cr  Cr0  1  0.25950000  0.25950000  0.73012067  1
  Cr  Cr1  1  0.74050000  0.74050000  0.26987933  1
  S  S0  1  0.36136489  0.36136489  0.97894152  1
  S  S1  1  0.63863511  0.63863511  0.02105848  1
  S  S2  1  0.13423550  0.13423550  0.54149036  1
  S  S3  1  0.86576450  0.86576450  0.45850964  1
loop_
_geom_bond_atom_site_label_1
_geom_bond_atom_site_label_2
_geom_bond_distance
_geom_bond_site_symmetry_2
Mn0 S3 2.523028 1_445
Mn0 S2 2.523028 1_554
Mn0 S1 2.588146 1_455
Mn0 S1 2.588146 1_545
Mn0 S0 2.588146 1_454
Mn0 S0 2.588146 1_544
Cr0 S3 2.379394 1_545
Cr0 S3 2.379394 1_455
Cr0 S2 2.410462 1_555
Cr0 S0 2.444082 1_555
Cr0 S1 2.485820 1_546
Cr0 S1 2.485820 1_456
Cr1 S2 2.379394 1_655
Cr1 S2 2.379394 1_565
Cr1 S3 2.410462 1_555
Cr1 S1 2.444082 1_555
Cr1 S0 2.485820 1_654
Cr1 S0 2.485820 1_564
