# generated using pymatgen
data_Ni4GePt5
_symmetry_space_group_name_H-M   'P 1'
_cell_length_a   5.55437000
_cell_length_b   5.55437000
_cell_length_c   35.72537800
_cell_angle_alpha   90.00000000
_cell_angle_beta   90.00000000
_cell_angle_gamma   90.00000000
_symmetry_Int_Tables_number   1
_chemical_formula_structural   Ni4GePt5
_chemical_formula_sum   'Ni32 Ge8 Pt40'
_cell_volume   1102.16456900
_cell_formula_units_Z   8
loop_
 _symmetry_equiv_pos_site_id
 _symmetry_equiv_pos_as_xyz
  1  'x, y, z'
loop_
 _atom_site_type_symbol
 _atom_site_label
 _atom_site_symmetry_multiplicity
 _atom_site_fract_x
 _atom_site_fract_y
 _atom_site_fract_z
 _atom_site_occupancy
  Ni  Ni0_0  1  0.00000000  0.00000000  0.10132300  1
  Ni  Ni0_1  1  0.00000000  0.00000000  0.60132300  1
  Ni  Ni0_2  1  0.00000000  0.50000000  0.10132300  1
  Ni  Ni0_3  1  0.00000000  0.50000000  0.60132300  1
  Ni  Ni0_4  1  0.50000000  0.00000000  0.10132300  1
  Ni  Ni0_5  1  0.50000000  0.00000000  0.60132300  1
  Ni  Ni0_6  1  0.50000000  0.50000000  0.10132300  1
  Ni  Ni0_7  1  0.50000000  0.50000000  0.60132300  1
  Ni  Ni1_0  1  0.00000000  0.00000000  0.19992750  1
  Ni  Ni1_1  1  0.00000000  0.00000000  0.69992750  1
  Ni  Ni1_2  1  0.00000000  0.50000000  0.19992750  1
  Ni  Ni1_3  1  0.00000000  0.50000000  0.69992750  1
  Ni  Ni1_4  1  0.50000000  0.00000000  0.19992750  1
  Ni  Ni1_5  1  0.50000000  0.00000000  0.69992750  1
  Ni  Ni1_6  1  0.50000000  0.50000000  0.19992750  1
  Ni  Ni1_7  1  0.50000000  0.50000000  0.69992750  1
  Ni  Ni2_0  1  0.00000000  0.00000000  0.30007250  1
  Ni  Ni2_1  1  0.00000000  0.00000000  0.80007250  1
  Ni  Ni2_2  1  0.00000000  0.50000000  0.30007250  1
  Ni  Ni2_3  1  0.00000000  0.50000000  0.80007250  1
  Ni  Ni2_4  1  0.50000000  0.00000000  0.30007250  1
  Ni  Ni2_5  1  0.50000000  0.00000000  0.80007250  1
  Ni  Ni2_6  1  0.50000000  0.50000000  0.30007250  1
  Ni  Ni2_7  1  0.50000000  0.50000000  0.80007250  1
  Ni  Ni3_0  1  0.00000000  0.00000000  0.39867700  1
  Ni  Ni3_1  1  0.00000000  0.00000000  0.89867700  1
  Ni  Ni3_2  1  0.00000000  0.50000000  0.39867700  1
  Ni  Ni3_3  1  0.00000000  0.50000000  0.89867700  1
  Ni  Ni3_4  1  0.50000000  0.00000000  0.39867700  1
  Ni  Ni3_5  1  0.50000000  0.00000000  0.89867700  1
  Ni  Ni3_6  1  0.50000000  0.50000000  0.39867700  1
  Ni  Ni3_7  1  0.50000000  0.50000000  0.89867700  1
  Ge  Ge0_0  1  0.00000000  0.00000000  0.00000000  1
  Ge  Ge0_1  1  0.00000000  0.00000000  0.50000000  1
  Ge  Ge0_2  1  0.00000000  0.50000000  0.00000000  1
  Ge  Ge0_3  1  0.00000000  0.50000000  0.50000000  1
  Ge  Ge0_4  1  0.50000000  0.00000000  0.00000000  1
  Ge  Ge0_5  1  0.50000000  0.00000000  0.50000000  1
  Ge  Ge0_6  1  0.50000000  0.50000000  0.00000000  1
  Ge  Ge0_7  1  0.50000000  0.50000000  0.50000000  1
  Pt  Pt0_0  1  0.25000000  0.25000000  0.05046400  1
  Pt  Pt0_1  1  0.25000000  0.25000000  0.55046400  1
  Pt  Pt0_2  1  0.25000000  0.75000000  0.05046400  1
  Pt  Pt0_3  1  0.25000000  0.75000000  0.55046400  1
  Pt  Pt0_4  1  0.75000000  0.25000000  0.05046400  1
  Pt  Pt0_5  1  0.75000000  0.25000000  0.55046400  1
  Pt  Pt0_6  1  0.75000000  0.75000000  0.05046400  1
  Pt  Pt0_7  1  0.75000000  0.75000000  0.55046400  1
  Pt  Pt1_0  1  0.25000000  0.25000000  0.15021200  1
  Pt  Pt1_1  1  0.25000000  0.25000000  0.65021200  1
  Pt  Pt1_2  1  0.25000000  0.75000000  0.15021200  1
  Pt  Pt1_3  1  0.25000000  0.75000000  0.65021200  1
  Pt  Pt1_4  1  0.75000000  0.25000000  0.15021200  1
  Pt  Pt1_5  1  0.75000000  0.25000000  0.65021200  1
  Pt  Pt1_6  1  0.75000000  0.75000000  0.15021200  1
  Pt  Pt1_7  1  0.75000000  0.75000000  0.65021200  1
  Pt  Pt2_0  1  0.25000000  0.25000000  0.25000000  1
  Pt  Pt2_1  1  0.25000000  0.25000000  0.75000000  1
  Pt  Pt2_2  1  0.25000000  0.75000000  0.25000000  1
  Pt  Pt2_3  1  0.25000000  0.75000000  0.75000000  1
  Pt  Pt2_4  1  0.75000000  0.25000000  0.25000000  1
  Pt  Pt2_5  1  0.75000000  0.25000000  0.75000000  1
  Pt  Pt2_6  1  0.75000000  0.75000000  0.25000000  1
  Pt  Pt2_7  1  0.75000000  0.75000000  0.75000000  1
  Pt  Pt3_0  1  0.25000000  0.25000000  0.34978800  1
  Pt  Pt3_1  1  0.25000000  0.25000000  0.84978800  1
  Pt  Pt3_2  1  0.25000000  0.75000000  0.34978800  1
  Pt  Pt3_3  1  0.25000000  0.75000000  0.84978800  1
  Pt  Pt3_4  1  0.75000000  0.25000000  0.34978800  1
  Pt  Pt3_5  1  0.75000000  0.25000000  0.84978800  1
  Pt  Pt3_6  1  0.75000000  0.75000000  0.34978800  1
  Pt  Pt3_7  1  0.75000000  0.75000000  0.84978800  1
  Pt  Pt4_0  1  0.25000000  0.25000000  0.44953600  1
  Pt  Pt4_1  1  0.25000000  0.25000000  0.94953600  1
  Pt  Pt4_2  1  0.25000000  0.75000000  0.44953600  1
  Pt  Pt4_3  1  0.25000000  0.75000000  0.94953600  1
  Pt  Pt4_4  1  0.75000000  0.25000000  0.44953600  1
  Pt  Pt4_5  1  0.75000000  0.25000000  0.94953600  1
  Pt  Pt4_6  1  0.75000000  0.75000000  0.44953600  1
  Pt  Pt4_7  1  0.75000000  0.75000000  0.94953600  1
loop_
_geom_bond_atom_site_label_1
_geom_bond_atom_site_label_2
_geom_bond_distance
_geom_bond_site_symmetry_2
Ni0_0 Pt1_6 2.628101 1_445
Ni0_0 Pt1_2 2.628101 1_545
Ni0_0 Pt1_4 2.628101 1_455
Ni0_0 Pt1_0 2.628101 1_555
Ni0_0 Pt0_6 2.675390 1_445
Ni0_0 Pt0_2 2.675390 1_545
Ni0_0 Pt0_4 2.675390 1_455
Ni0_0 Pt0_0 2.675390 1_555
Ni0_1 Pt1_7 2.628101 1_445
Ni0_1 Pt1_5 2.628101 1_455
Ni0_1 Pt1_3 2.628101 1_545
Ni0_1 Pt1_1 2.628101 1_555
Ni0_1 Pt0_7 2.675390 1_445
Ni0_1 Pt0_3 2.675390 1_545
Ni0_1 Pt0_5 2.675390 1_455
Ni0_1 Pt0_1 2.675390 1_555
Ni0_2 Pt1_4 2.628101 1_455
Ni0_2 Pt1_6 2.628101 1_455
Ni0_2 Pt1_0 2.628101 1_555
Ni0_2 Pt1_2 2.628101 1_555
Ni0_2 Pt0_4 2.675390 1_455
Ni0_2 Pt0_6 2.675390 1_455
Ni0_2 Pt0_2 2.675390 1_555
Ni0_2 Pt0_0 2.675390 1_555
Ni0_3 Pt1_5 2.628101 1_455
Ni0_3 Pt1_7 2.628101 1_455
Ni0_3 Pt1_1 2.628101 1_555
Ni0_3 Pt1_3 2.628101 1_555
Ni0_3 Pt0_5 2.675390 1_455
Ni0_3 Pt0_1 2.675390 1_555
Ni0_3 Pt0_7 2.675390 1_455
Ni0_3 Pt0_3 2.675390 1_555
Ni0_4 Pt1_2 2.628101 1_545
Ni0_4 Pt1_0 2.628101 1_555
Ni0_4 Pt1_6 2.628101 1_545
Ni0_4 Pt1_4 2.628101 1_555
Ni0_4 Pt0_2 2.675390 1_545
Ni0_4 Pt0_0 2.675390 1_555
Ni0_4 Pt0_6 2.675390 1_545
Ni0_4 Pt0_4 2.675390 1_555
Ni0_5 Pt1_3 2.628101 1_545
Ni0_5 Pt1_7 2.628101 1_545
Ni0_5 Pt1_1 2.628101 1_555
Ni0_5 Pt1_5 2.628101 1_555
Ni0_5 Pt0_3 2.675390 1_545
Ni0_5 Pt0_1 2.675390 1_555
Ni0_5 Pt0_7 2.675390 1_545
Ni0_5 Pt0_5 2.675390 1_555
Ni0_6 Pt1_0 2.628101 1_555
Ni0_6 Pt1_2 2.628101 1_555
Ni0_6 Pt1_6 2.628101 1_555
Ni0_6 Pt1_4 2.628101 1_555
Ni0_6 Pt0_2 2.675390 1_555
Ni0_6 Pt0_0 2.675390 1_555
Ni0_6 Pt0_4 2.675390 1_555
Ni0_6 Pt0_6 2.675390 1_555
Ni0_7 Pt1_1 2.628101 1_555
Ni0_7 Pt1_5 2.628101 1_555
Ni0_7 Pt1_3 2.628101 1_555
Ni0_7 Pt1_7 2.628101 1_555
Ni0_7 Pt0_1 2.675390 1_555
Ni0_7 Pt0_3 2.675390 1_555
Ni0_7 Pt0_5 2.675390 1_555
Ni0_7 Pt0_7 2.675390 1_555
Ni1_0 Pt1_6 2.647816 1_445
Ni1_0 Pt1_2 2.647816 1_545
Ni1_0 Pt1_4 2.647816 1_455
Ni1_0 Pt1_0 2.647816 1_555
Ni1_0 Pt2_6 2.656388 1_445
Ni1_0 Pt2_2 2.656388 1_545
Ni1_0 Pt2_4 2.656388 1_455
Ni1_0 Pt2_0 2.656388 1_555
Ni1_1 Pt1_7 2.647816 1_445
Ni1_1 Pt1_3 2.647816 1_545
Ni1_1 Pt1_5 2.647816 1_455
Ni1_1 Pt1_1 2.647816 1_555
Ni1_1 Pt2_7 2.656388 1_445
Ni1_1 Pt2_5 2.656388 1_455
Ni1_1 Pt2_3 2.656388 1_545
Ni1_1 Pt2_1 2.656388 1_555
Ni1_2 Pt1_4 2.647816 1_455
Ni1_2 Pt1_6 2.647816 1_455
Ni1_2 Pt1_0 2.647816 1_555
Ni1_2 Pt1_2 2.647816 1_555
Ni1_2 Pt2_4 2.656388 1_455
Ni1_2 Pt2_6 2.656388 1_455
Ni1_2 Pt2_0 2.656388 1_555
Ni1_2 Pt2_2 2.656388 1_555
Ni1_3 Pt1_5 2.647816 1_455
Ni1_3 Pt1_1 2.647816 1_555
Ni1_3 Pt1_7 2.647816 1_455
Ni1_3 Pt1_3 2.647816 1_555
Ni1_3 Pt2_5 2.656388 1_455
Ni1_3 Pt2_7 2.656388 1_455
Ni1_3 Pt2_1 2.656388 1_555
Ni1_3 Pt2_3 2.656388 1_555
Ni1_4 Pt1_2 2.647816 1_545
Ni1_4 Pt1_6 2.647816 1_545
Ni1_4 Pt1_0 2.647816 1_555
Ni1_4 Pt1_4 2.647816 1_555
Ni1_4 Pt2_2 2.656388 1_545
Ni1_4 Pt2_6 2.656388 1_545
Ni1_4 Pt2_0 2.656388 1_555
Ni1_4 Pt2_4 2.656388 1_555
Ni1_5 Pt1_3 2.647816 1_545
Ni1_5 Pt1_1 2.647816 1_555
Ni1_5 Pt1_7 2.647816 1_545
Ni1_5 Pt1_5 2.647816 1_555
Ni1_5 Pt2_3 2.656388 1_545
Ni1_5 Pt2_1 2.656388 1_555
Ni1_5 Pt2_7 2.656388 1_545
Ni1_5 Pt2_5 2.656388 1_555
Ni1_6 Pt1_0 2.647816 1_555
Ni1_6 Pt1_2 2.647816 1_555
Ni1_6 Pt1_4 2.647816 1_555
Ni1_6 Pt1_6 2.647816 1_555
Ni1_6 Pt2_0 2.656388 1_555
Ni1_6 Pt2_6 2.656388 1_555
Ni1_6 Pt2_4 2.656388 1_555
Ni1_6 Pt2_2 2.656388 1_555
Ni1_7 Pt1_1 2.647816 1_555
Ni1_7 Pt1_5 2.647816 1_555
Ni1_7 Pt1_3 2.647816 1_555
Ni1_7 Pt1_7 2.647816 1_555
Ni1_7 Pt2_1 2.656388 1_555
Ni1_7 Pt2_5 2.656388 1_555
Ni1_7 Pt2_3 2.656388 1_555
Ni1_7 Pt2_7 2.656388 1_555
Ni2_0 Pt3_6 2.647816 1_445
Ni2_0 Pt3_2 2.647816 1_545
Ni2_0 Pt3_4 2.647816 1_455
Ni2_0 Pt3_0 2.647816 1_555
Ni2_0 Pt2_6 2.656388 1_445
Ni2_0 Pt2_4 2.656388 1_455
Ni2_0 Pt2_2 2.656388 1_545
Ni2_0 Pt2_0 2.656388 1_555
Ni2_1 Pt3_7 2.647816 1_445
Ni2_1 Pt3_3 2.647816 1_545
Ni2_1 Pt3_5 2.647816 1_455
Ni2_1 Pt3_1 2.647816 1_555
Ni2_1 Pt2_7 2.656388 1_445
Ni2_1 Pt2_5 2.656388 1_455
Ni2_1 Pt2_3 2.656388 1_545
Ni2_1 Pt2_1 2.656388 1_555
Ni2_2 Pt3_4 2.647816 1_455
Ni2_2 Pt3_6 2.647816 1_455
Ni2_2 Pt3_0 2.647816 1_555
Ni2_2 Pt3_2 2.647816 1_555
Ni2_2 Pt2_4 2.656388 1_455
Ni2_2 Pt2_0 2.656388 1_555
Ni2_2 Pt2_2 2.656388 1_555
Ni2_2 Pt2_6 2.656388 1_455
Ni2_3 Pt3_5 2.647816 1_455
Ni2_3 Pt3_7 2.647816 1_455
Ni2_3 Pt3_1 2.647816 1_555
Ni2_3 Pt3_3 2.647816 1_555
Ni2_3 Pt2_5 2.656388 1_455
Ni2_3 Pt2_7 2.656388 1_455
Ni2_3 Pt2_3 2.656388 1_555
Ni2_3 Pt2_1 2.656388 1_555
Ni2_4 Pt3_2 2.647816 1_545
Ni2_4 Pt3_6 2.647816 1_545
Ni2_4 Pt3_0 2.647816 1_555
Ni2_4 Pt3_4 2.647816 1_555
Ni2_4 Pt2_2 2.656388 1_545
Ni2_4 Pt2_6 2.656388 1_545
Ni2_4 Pt2_0 2.656388 1_555
Ni2_4 Pt2_4 2.656388 1_555
Ni2_5 Pt3_3 2.647816 1_545
Ni2_5 Pt3_7 2.647816 1_545
Ni2_5 Pt3_1 2.647816 1_555
Ni2_5 Pt3_5 2.647816 1_555
Ni2_5 Pt2_3 2.656388 1_545
Ni2_5 Pt2_1 2.656388 1_555
Ni2_5 Pt2_7 2.656388 1_545
Ni2_5 Pt2_5 2.656388 1_555
Ni2_6 Pt3_0 2.647816 1_555
Ni2_6 Pt3_4 2.647816 1_555
Ni2_6 Pt3_2 2.647816 1_555
Ni2_6 Pt3_6 2.647816 1_555
Ni2_6 Pt2_0 2.656388 1_555
Ni2_6 Pt2_2 2.656388 1_555
Ni2_6 Pt2_4 2.656388 1_555
Ni2_6 Pt2_6 2.656388 1_555
Ni2_7 Pt3_1 2.647816 1_555
Ni2_7 Pt3_3 2.647816 1_555
Ni2_7 Pt3_5 2.647816 1_555
Ni2_7 Pt3_7 2.647816 1_555
Ni2_7 Pt2_3 2.656388 1_555
Ni2_7 Pt2_1 2.656388 1_555
Ni2_7 Pt2_5 2.656388 1_555
Ni2_7 Pt2_7 2.656388 1_555
Ni3_0 Pt3_6 2.628101 1_445
Ni3_0 Pt3_4 2.628101 1_455
Ni3_0 Pt3_2 2.628101 1_545
Ni3_0 Pt3_0 2.628101 1_555
Ni3_0 Pt4_6 2.675390 1_445
Ni3_0 Pt4_0 2.675390 1_555
Ni3_0 Pt4_4 2.675390 1_455
Ni3_0 Pt4_2 2.675390 1_545
Ni3_1 Pt3_7 2.628101 1_445
Ni3_1 Pt3_3 2.628101 1_545
Ni3_1 Pt3_5 2.628101 1_455
Ni3_1 Pt3_1 2.628101 1_555
Ni3_1 Pt4_7 2.675390 1_445
Ni3_1 Pt4_3 2.675390 1_545
Ni3_1 Pt4_5 2.675390 1_455
Ni3_1 Pt4_1 2.675390 1_555
Ni3_2 Pt3_4 2.628101 1_455
Ni3_2 Pt3_6 2.628101 1_455
Ni3_2 Pt3_0 2.628101 1_555
Ni3_2 Pt3_2 2.628101 1_555
Ni3_2 Pt4_6 2.675390 1_455
Ni3_2 Pt4_0 2.675390 1_555
Ni3_2 Pt4_4 2.675390 1_455
Ni3_2 Pt4_2 2.675390 1_555
Ni3_3 Pt3_5 2.628101 1_455
Ni3_3 Pt3_7 2.628101 1_455
Ni3_3 Pt3_1 2.628101 1_555
Ni3_3 Pt3_3 2.628101 1_555
Ni3_3 Pt4_7 2.675390 1_455
Ni3_3 Pt4_5 2.675390 1_455
Ni3_3 Pt4_1 2.675390 1_555
Ni3_3 Pt4_3 2.675390 1_555
Ni3_4 Pt3_2 2.628101 1_545
Ni3_4 Pt3_0 2.628101 1_555
Ni3_4 Pt3_6 2.628101 1_545
Ni3_4 Pt3_4 2.628101 1_555
Ni3_4 Pt4_6 2.675390 1_545
Ni3_4 Pt4_0 2.675390 1_555
Ni3_4 Pt4_2 2.675390 1_545
Ni3_4 Pt4_4 2.675390 1_555
Ni3_5 Pt3_3 2.628101 1_545
Ni3_5 Pt3_7 2.628101 1_545
Ni3_5 Pt3_1 2.628101 1_555
Ni3_5 Pt3_5 2.628101 1_555
Ni3_5 Pt4_3 2.675390 1_545
Ni3_5 Pt4_1 2.675390 1_555
Ni3_5 Pt4_7 2.675390 1_545
Ni3_5 Pt4_5 2.675390 1_555
Ni3_6 Pt3_0 2.628101 1_555
Ni3_6 Pt3_4 2.628101 1_555
Ni3_6 Pt3_2 2.628101 1_555
Ni3_6 Pt3_6 2.628101 1_555
Ni3_6 Pt4_0 2.675390 1_555
Ni3_6 Pt4_4 2.675390 1_555
Ni3_6 Pt4_2 2.675390 1_555
Ni3_6 Pt4_6 2.675390 1_555
Ni3_7 Pt3_1 2.628101 1_555
Ni3_7 Pt3_7 2.628101 1_555
Ni3_7 Pt3_3 2.628101 1_555
Ni3_7 Pt3_5 2.628101 1_555
Ni3_7 Pt4_1 2.675390 1_555
Ni3_7 Pt4_3 2.675390 1_555
Ni3_7 Pt4_7 2.675390 1_555
Ni3_7 Pt4_5 2.675390 1_555
Ge0_0 Pt0_6 2.665826 1_445
Ge0_0 Pt0_4 2.665826 1_455
Ge0_0 Pt0_2 2.665826 1_545
Ge0_0 Pt0_0 2.665826 1_555
Ge0_0 Pt4_7 2.665826 1_444
Ge0_0 Pt4_5 2.665826 1_454
Ge0_0 Pt4_3 2.665826 1_544
Ge0_0 Pt4_1 2.665826 1_554
Ge0_0 Ge0_4 2.777185 1_555
Ge0_0 Ge0_2 2.777185 1_545
Ge0_0 Ge0_2 2.777185 1_555
Ge0_0 Ge0_4 2.777185 1_455
Ge0_1 Pt0_7 2.665826 1_445
Ge0_1 Pt0_3 2.665826 1_545
Ge0_1 Pt0_5 2.665826 1_455
Ge0_1 Pt0_1 2.665826 1_555
Ge0_1 Pt4_6 2.665826 1_445
Ge0_1 Pt4_4 2.665826 1_455
Ge0_1 Pt4_2 2.665826 1_545
Ge0_1 Pt4_0 2.665826 1_555
Ge0_1 Ge0_3 2.777185 1_545
Ge0_1 Ge0_5 2.777185 1_555
Ge0_1 Ge0_5 2.777185 1_455
Ge0_1 Ge0_3 2.777185 1_555
Ge0_2 Pt0_4 2.665826 1_455
Ge0_2 Pt0_6 2.665826 1_455
Ge0_2 Pt0_2 2.665826 1_555
Ge0_2 Pt0_0 2.665826 1_555
Ge0_2 Pt4_5 2.665826 1_454
Ge0_2 Pt4_1 2.665826 1_554
Ge0_2 Pt4_3 2.665826 1_554
Ge0_2 Pt4_7 2.665826 1_454
Ge0_2 Ge0_6 2.777185 1_455
Ge0_2 Ge0_6 2.777185 1_555
Ge0_3 Pt0_5 2.665826 1_455
Ge0_3 Pt0_7 2.665826 1_455
Ge0_3 Pt0_3 2.665826 1_555
Ge0_3 Pt0_1 2.665826 1_555
Ge0_3 Pt4_4 2.665826 1_455
Ge0_3 Pt4_2 2.665826 1_555
Ge0_3 Pt4_6 2.665826 1_455
Ge0_3 Pt4_0 2.665826 1_555
Ge0_3 Ge0_7 2.777185 1_455
Ge0_3 Ge0_7 2.777185 1_555
Ge0_4 Pt0_2 2.665826 1_545
Ge0_4 Pt0_0 2.665826 1_555
Ge0_4 Pt0_6 2.665826 1_545
Ge0_4 Pt0_4 2.665826 1_555
Ge0_4 Pt4_3 2.665826 1_544
Ge0_4 Pt4_1 2.665826 1_554
Ge0_4 Pt4_5 2.665826 1_554
Ge0_4 Pt4_7 2.665826 1_544
Ge0_4 Ge0_6 2.777185 1_545
Ge0_4 Ge0_6 2.777185 1_555
Ge0_5 Pt0_3 2.665826 1_545
Ge0_5 Pt0_1 2.665826 1_555
Ge0_5 Pt0_7 2.665826 1_545
Ge0_5 Pt0_5 2.665826 1_555
Ge0_5 Pt4_2 2.665826 1_545
Ge0_5 Pt4_6 2.665826 1_545
Ge0_5 Pt4_0 2.665826 1_555
Ge0_5 Pt4_4 2.665826 1_555
Ge0_5 Ge0_7 2.777185 1_545
Ge0_5 Ge0_7 2.777185 1_555
Ge0_6 Pt0_2 2.665826 1_555
Ge0_6 Pt0_0 2.665826 1_555
Ge0_6 Pt0_4 2.665826 1_555
Ge0_6 Pt0_6 2.665826 1_555
Ge0_6 Pt4_3 2.665826 1_554
Ge0_6 Pt4_1 2.665826 1_554
Ge0_6 Pt4_5 2.665826 1_554
Ge0_6 Pt4_7 2.665826 1_554
Ge0_7 Pt0_3 2.665826 1_555
Ge0_7 Pt0_1 2.665826 1_555
Ge0_7 Pt0_5 2.665826 1_555
Ge0_7 Pt0_7 2.665826 1_555
Ge0_7 Pt4_2 2.665826 1_555
Ge0_7 Pt4_0 2.665826 1_555
Ge0_7 Pt4_4 2.665826 1_555
Ge0_7 Pt4_6 2.665826 1_555
