# generated using pymatgen
data_Li4Co5NiO12
_symmetry_space_group_name_H-M   'P 1'
_cell_length_a   4.93947951
_cell_length_b   20.12708310
_cell_length_c   4.92946925
_cell_angle_alpha   94.52270185
_cell_angle_beta   118.83513261
_cell_angle_gamma   94.46362075
_symmetry_Int_Tables_number   1
_chemical_formula_structural   Li4Co5NiO12
_chemical_formula_sum   'Li8 Co10 Ni2 O24'
_cell_volume   424.19093179
_cell_formula_units_Z   2
loop_
 _symmetry_equiv_pos_site_id
 _symmetry_equiv_pos_as_xyz
  1  'x, y, z'
loop_
 _atom_site_type_symbol
 _atom_site_label
 _atom_site_symmetry_multiplicity
 _atom_site_fract_x
 _atom_site_fract_y
 _atom_site_fract_z
 _atom_site_occupancy
  Li  Li0  1  0.56637900  0.37541300  0.24423500  1
  Li  Li1  1  0.58882300  0.87247200  0.25081600  1
  Li  Li2  1  0.74232300  0.12721900  0.41373600  1
  Li  Li3  1  0.76287900  0.62499300  0.43278100  1
  Li  Li4  1  0.23923400  0.37380400  0.56439200  1
  Li  Li5  1  0.25731100  0.87198900  0.58695400  1
  Li  Li6  1  0.41268800  0.12724900  0.74263700  1
  Li  Li7  1  0.43599100  0.62690600  0.76211700  1
  Co  Co0  1  0.49248100  0.25141000  0.49355300  1
  Co  Co1  1  0.50105000  0.74841600  0.50895300  1
  Co  Co2  1  0.83253800  0.25061100  0.16527800  1
  Co  Co3  1  0.83001800  0.74994400  0.16563700  1
  Co  Co4  1  0.16383400  0.25059100  0.83380500  1
  Co  Co5  1  0.17437100  0.74875400  0.83693100  1
  Co  Co6  1  0.33304800  0.50029700  0.66223700  1
  Co  Co7  1  0.33329900  0.99978900  0.67012500  1
  Co  Co8  1  0.67350400  0.99985400  0.33008500  1
  Co  Co9  1  0.66309700  0.50021100  0.33190700  1
  Ni  Ni0  1  0.99774800  0.50018500  0.99765200  1
  Ni  Ni1  1  0.00322400  0.99988800  0.00025700  1
  O  O0  1  0.21967300  0.30482300  0.22074900  1
  O  O1  1  0.20464600  0.79886100  0.21705000  1
  O  O2  1  0.77901300  0.19908900  0.77979500  1
  O  O3  1  0.78626200  0.69852600  0.80343400  1
  O  O4  1  0.39659300  0.05167800  0.39342400  1
  O  O5  1  0.38638000  0.55342900  0.39182800  1
  O  O6  1  0.60350500  0.44728000  0.60989600  1
  O  O7  1  0.61000500  0.94786900  0.60636600  1
  O  O8  1  0.67305500  0.05306200  0.03514700  1
  O  O9  1  0.68470800  0.55038800  0.02260200  1
  O  O10  1  0.97282200  0.45000100  0.31049100  1
  O  O11  1  0.96808600  0.94669300  0.33000700  1
  O  O12  1  0.03858600  0.05301500  0.67026300  1
  O  O13  1  0.02805400  0.54978600  0.68739100  1
  O  O14  1  0.30825700  0.45062900  0.96689700  1
  O  O15  1  0.33260600  0.94671100  0.96488100  1
  O  O16  1  0.46438800  0.19675200  0.14846500  1
  O  O17  1  0.50635800  0.69507300  0.16309700  1
  O  O18  1  0.14768100  0.19681400  0.46497000  1
  O  O19  1  0.15789400  0.69346700  0.49990900  1
  O  O20  1  0.83662500  0.30491200  0.50659900  1
  O  O21  1  0.85244600  0.80103000  0.51459900  1
  O  O22  1  0.50504200  0.30475000  0.83831000  1
  O  O23  1  0.53347500  0.80537000  0.85974300  1
loop_
_geom_bond_atom_site_label_1
_geom_bond_atom_site_label_2
_geom_bond_distance
_geom_bond_site_symmetry_2
Li0 O0 2.090192 1_555
Li0 O20 2.094527 1_555
Li0 O6 2.145612 1_555
Li0 O14 2.175309 1_554
Li0 O22 2.240061 1_554
Li0 O10 2.282978 1_555
Li1 O21 2.099313 1_555
Li1 O23 2.153757 1_554
Li1 O11 2.158819 1_555
Li1 O15 2.174146 1_554
Li1 O7 2.182802 1_555
Li1 O1 2.245575 1_555
Li2 O16 2.099833 1_555
Li2 O2 2.147914 1_555
Li2 O4 2.155213 1_555
Li2 O8 2.166328 1_555
Li2 O12 2.196407 1_655
Li2 O18 2.248286 1_655
Li3 O17 2.076399 1_555
Li3 O13 2.145852 1_655
Li3 O19 2.168566 1_655
Li3 O5 2.179224 1_555
Li3 O3 2.210317 1_555
Li3 O9 2.273770 1_555
Li4 O0 2.063212 1_555
Li4 O22 2.085360 1_555
Li4 O6 2.149196 1_555
Li4 O10 2.162948 1_455
Li4 O20 2.218255 1_455
Li4 O14 2.285947 1_555
Li5 O23 2.065571 1_555
Li5 O1 2.149075 1_555
Li5 O15 2.161845 1_555
Li5 O7 2.186011 1_555
Li5 O11 2.189811 1_455
Li5 O21 2.225609 1_455
Li6 O18 2.099197 1_555
Li6 O12 2.150479 1_555
Li6 O2 2.151670 1_555
Li6 O4 2.172420 1_555
Li6 O8 2.193716 1_556
Li6 O16 2.243758 1_556
Li7 O19 2.049205 1_555
Li7 O3 2.082894 1_555
Li7 O9 2.148183 1_556
Li7 O5 2.159945 1_555
Li7 O17 2.178442 1_556
Li7 O13 2.304836 1_555
Co0 O0 1.866958 1_555
Co0 O16 1.891202 1_555
Co0 O18 1.892303 1_555
Co0 O2 1.908685 1_555
Co0 O22 1.909135 1_555
Co0 O20 1.911036 1_555
Co1 O3 1.891481 1_555
Co1 O1 1.916923 1_555
Co1 O23 1.929125 1_555
Co1 O19 1.930221 1_555
Co1 O21 1.948728 1_555
Co1 O17 1.954188 1_555
Co2 O20 1.923432 1_555
Co2 O2 1.979410 1_554
Co2 O16 2.005600 1_555
Co2 O0 2.011423 1_655
Co2 O18 2.018522 1_655
Co2 O22 2.106751 1_554
Co3 O17 1.865318 1_555
Co3 O21 1.883635 1_555
Co3 O3 1.899254 1_554
Co3 O1 1.918986 1_655
Co3 O23 2.013186 1_554
Co3 O19 2.153610 1_655
Co4 O22 1.924419 1_555
Co4 O2 1.979931 1_455
Co4 O18 2.004964 1_555
Co4 O0 2.005772 1_556
Co4 O16 2.019516 1_556
Co4 O20 2.108977 1_455
Co5 O19 1.889140 1_555
Co5 O23 1.982483 1_555
Co5 O1 1.989657 1_556
Co5 O3 2.022635 1_455
Co5 O21 2.060882 1_455
Co5 O17 2.109049 1_556
Co6 O6 1.871054 1_555
Co6 O5 1.873361 1_555
Co6 O9 1.912563 1_556
Co6 O10 1.914194 1_455
Co6 O14 1.914389 1_555
Co6 O13 1.916085 1_555
Co7 O15 1.871229 1_555
Co7 O12 1.873600 1_565
Co7 O4 1.906330 1_565
Co7 O7 1.908869 1_555
Co7 O8 1.925273 1_566
Co7 O11 1.925429 1_455
Co8 O8 1.871758 1_565
Co8 O11 1.872144 1_555
Co8 O7 1.906213 1_555
Co8 O4 1.907612 1_565
Co8 O12 1.925775 1_665
Co8 O15 1.926747 1_554
Co9 O6 1.915708 1_555
Co9 O5 1.915782 1_555
Co9 O14 1.925619 1_554
Co9 O13 1.926979 1_655
Co9 O9 1.933681 1_555
Co9 O10 1.937154 1_555
Ni0 O13 1.948478 1_655
Ni0 O14 1.951610 1_655
Ni0 O10 1.955244 1_556
Ni0 O9 1.958073 1_556
Ni0 O6 2.084577 1_555
Ni0 O5 2.088659 1_656
Ni1 O11 2.082388 1_455
Ni1 O15 2.082853 1_554
Ni1 O12 2.083111 1_564
Ni1 O8 2.085164 1_465
Ni1 O4 2.086123 1_565
Ni1 O7 2.089003 1_454
