# generated using pymatgen
data_KMg14FeO16
_symmetry_space_group_name_H-M   'P 1'
_cell_length_a   8.63169989
_cell_length_b   8.59097301
_cell_length_c   4.39283836
_cell_angle_alpha   90.00000000
_cell_angle_beta   90.00000000
_cell_angle_gamma   90.00000000
_symmetry_Int_Tables_number   1
_chemical_formula_structural   KMg14FeO16
_chemical_formula_sum   'K1 Mg14 Fe1 O16'
_cell_volume   325.74961418
_cell_formula_units_Z   1
loop_
 _symmetry_equiv_pos_site_id
 _symmetry_equiv_pos_as_xyz
  1  'x, y, z'
loop_
 _atom_site_type_symbol
 _atom_site_label
 _atom_site_symmetry_multiplicity
 _atom_site_fract_x
 _atom_site_fract_y
 _atom_site_fract_z
 _atom_site_occupancy
  K  K0  1  0.00000000  0.50000000  0.00000000  1
  Mg  Mg0  1  0.50000000  0.00000000  0.00000000  1
  Mg  Mg1  1  0.50000000  0.50000000  0.00000000  1
  Mg  Mg2  1  0.00000000  0.25402728  0.50000000  1
  Mg  Mg3  1  0.00000000  0.74597272  0.50000000  1
  Mg  Mg4  1  0.50000000  0.25155014  0.50000000  1
  Mg  Mg5  1  0.50000000  0.74844986  0.50000000  1
  Mg  Mg6  1  0.25272068  0.00000000  0.50000000  1
  Mg  Mg7  1  0.25220556  0.50000000  0.50000000  1
  Mg  Mg8  1  0.74727932  0.00000000  0.50000000  1
  Mg  Mg9  1  0.74779444  0.50000000  0.50000000  1
  Mg  Mg10  1  0.25575461  0.25253056  0.00000000  1
  Mg  Mg11  1  0.25575461  0.74746944  0.00000000  1
  Mg  Mg12  1  0.74424539  0.25253056  0.00000000  1
  Mg  Mg13  1  0.74424539  0.74746944  0.00000000  1
  Fe  Fe0  1  0.00000000  0.00000000  0.00000000  1
  O  O0  1  0.24814742  0.00000000  0.00000000  1
  O  O1  1  0.27495587  0.50000000  0.00000000  1
  O  O2  1  0.75185258  0.00000000  0.00000000  1
  O  O3  1  0.72504413  0.50000000  0.00000000  1
  O  O4  1  0.24943629  0.24791918  0.50000000  1
  O  O5  1  0.24943629  0.75208082  0.50000000  1
  O  O6  1  0.75056371  0.24791918  0.50000000  1
  O  O7  1  0.75056371  0.75208082  0.50000000  1
  O  O8  1  0.00000000  0.00000000  0.50000000  1
  O  O9  1  0.00000000  0.50000000  0.50000000  1
  O  O10  1  0.50000000  0.00000000  0.50000000  1
  O  O11  1  0.50000000  0.50000000  0.50000000  1
  O  O12  1  0.00000000  0.22167171  0.00000000  1
  O  O13  1  0.00000000  0.77832829  0.00000000  1
  O  O14  1  0.50000000  0.24235253  0.00000000  1
  O  O15  1  0.50000000  0.75764747  0.00000000  1
loop_
_geom_bond_atom_site_label_1
_geom_bond_atom_site_label_2
_geom_bond_distance
_geom_bond_site_symmetry_2
K0 O9 2.196419 1_555
K0 O9 2.196419 1_554
K0 O1 2.373337 1_555
K0 O3 2.373337 1_455
K0 O12 2.391111 1_555
K0 O13 2.391111 1_555
Mg0 O15 2.082044 1_545
Mg0 O14 2.082044 1_555
Mg0 O0 2.173916 1_555
Mg0 O2 2.173916 1_555
Mg0 O10 2.196419 1_555
Mg0 O10 2.196419 1_554
Mg1 O3 1.942513 1_555
Mg1 O1 1.942513 1_555
Mg1 O11 2.196419 1_554
Mg1 O11 2.196419 1_555
Mg1 O15 2.213442 1_555
Mg1 O14 2.213442 1_555
Mg2 O9 2.113145 1_555
Mg2 O6 2.153699 1_455
Mg2 O4 2.153699 1_555
Mg2 O8 2.182342 1_555
Mg2 O12 2.213938 1_555
Mg2 O12 2.213938 1_556
Mg3 O9 2.113145 1_555
Mg3 O5 2.153699 1_555
Mg3 O7 2.153699 1_455
Mg3 O8 2.182342 1_565
Mg3 O13 2.213938 1_556
Mg3 O13 2.213938 1_555
Mg4 O11 2.134426 1_555
Mg4 O10 2.161060 1_555
Mg4 O4 2.163016 1_555
Mg4 O6 2.163016 1_555
Mg4 O14 2.197840 1_556
Mg4 O14 2.197840 1_555
Mg5 O11 2.134426 1_555
Mg5 O10 2.161060 1_565
Mg5 O7 2.163016 1_555
Mg5 O5 2.163016 1_555
Mg5 O15 2.197840 1_556
Mg5 O15 2.197840 1_555
Mg6 O5 2.130056 1_545
Mg6 O4 2.130056 1_555
Mg6 O10 2.134441 1_555
Mg6 O8 2.181409 1_555
Mg6 O0 2.196774 1_555
Mg6 O0 2.196774 1_556
Mg7 O11 2.138887 1_555
Mg7 O5 2.165751 1_555
Mg7 O4 2.165751 1_555
Mg7 O9 2.176963 1_555
Mg7 O1 2.205180 1_556
Mg7 O1 2.205180 1_555
Mg8 O7 2.130056 1_545
Mg8 O6 2.130056 1_555
Mg8 O10 2.134441 1_555
Mg8 O8 2.181409 1_655
Mg8 O2 2.196774 1_555
Mg8 O2 2.196774 1_556
Mg9 O11 2.138887 1_555
Mg9 O6 2.165751 1_555
Mg9 O7 2.165751 1_555
Mg9 O9 2.176963 1_655
Mg9 O3 2.205180 1_556
Mg9 O3 2.205180 1_555
Mg10 O14 2.110065 1_555
Mg10 O1 2.132454 1_555
Mg10 O0 2.170477 1_555
Mg10 O4 2.197453 1_554
Mg10 O4 2.197453 1_555
Mg10 O12 2.223458 1_555
Mg11 O15 2.110065 1_555
Mg11 O1 2.132454 1_555
Mg11 O0 2.170477 1_565
Mg11 O5 2.197453 1_554
Mg11 O5 2.197453 1_555
Mg11 O13 2.223458 1_555
Mg12 O14 2.110065 1_555
Mg12 O3 2.132454 1_555
Mg12 O2 2.170477 1_555
Mg12 O6 2.197453 1_555
Mg12 O6 2.197453 1_554
Mg12 O12 2.223458 1_655
Mg13 O15 2.110065 1_555
Mg13 O3 2.132454 1_555
Mg13 O2 2.170477 1_565
Mg13 O7 2.197453 1_555
Mg13 O7 2.197453 1_554
Mg13 O13 2.223458 1_655
Fe0 O13 1.904376 1_545
Fe0 O12 1.904376 1_555
Fe0 O0 2.141934 1_555
Fe0 O2 2.141934 1_455
Fe0 O8 2.196419 1_555
Fe0 O8 2.196419 1_554
