# generated using pymatgen
data_BaSr3Ti4O12
_symmetry_space_group_name_H-M   'P 1'
_cell_length_a   3.96835200
_cell_length_b   3.96835200
_cell_length_c   15.87641500
_cell_angle_alpha   90.00000000
_cell_angle_beta   90.00000000
_cell_angle_gamma   90.00000000
_symmetry_Int_Tables_number   1
_chemical_formula_structural   BaSr3Ti4O12
_chemical_formula_sum   'Ba1 Sr3 Ti4 O12'
_cell_volume   250.01888750
_cell_formula_units_Z   1
loop_
 _symmetry_equiv_pos_site_id
 _symmetry_equiv_pos_as_xyz
  1  'x, y, z'
loop_
 _atom_site_type_symbol
 _atom_site_label
 _atom_site_symmetry_multiplicity
 _atom_site_fract_x
 _atom_site_fract_y
 _atom_site_fract_z
 _atom_site_occupancy
  Ba  Ba0  1  0.00000000  0.00000000  0.00000000  1
  Sr  Sr0  1  0.00000000  0.00000000  0.25092000  1
  Sr  Sr1  1  0.00000000  0.00000000  0.50000000  1
  Sr  Sr2  1  0.00000000  0.00000000  0.74908000  1
  Ti  Ti0  1  0.50000000  0.50000000  0.12817500  1
  Ti  Ti1  1  0.50000000  0.50000000  0.37543900  1
  Ti  Ti2  1  0.50000000  0.50000000  0.62456100  1
  Ti  Ti3  1  0.50000000  0.50000000  0.87182500  1
  O  O0  1  0.00000000  0.50000000  0.12973800  1
  O  O1  1  0.00000000  0.50000000  0.37519200  1
  O  O2  1  0.00000000  0.50000000  0.62480800  1
  O  O3  1  0.00000000  0.50000000  0.87026200  1
  O  O4  1  0.50000000  0.50000000  0.00000000  1
  O  O5  1  0.50000000  0.50000000  0.25143300  1
  O  O6  1  0.50000000  0.50000000  0.50000000  1
  O  O7  1  0.50000000  0.50000000  0.74856700  1
  O  O8  1  0.50000000  0.00000000  0.12973800  1
  O  O9  1  0.50000000  0.00000000  0.37519200  1
  O  O10  1  0.50000000  0.00000000  0.62480800  1
  O  O11  1  0.50000000  0.00000000  0.87026200  1
loop_
_geom_bond_atom_site_label_1
_geom_bond_atom_site_label_2
_geom_bond_distance
_geom_bond_site_symmetry_2
Ba0 O4 2.806049 1_455
Ba0 O4 2.806049 1_555
Ba0 O4 2.806049 1_545
Ba0 O4 2.806049 1_445
Ba0 O0 2.860004 1_545
Ba0 O8 2.860004 1_555
Ba0 O8 2.860004 1_455
Ba0 O0 2.860004 1_555
Ba0 O11 2.860004 1_454
Ba0 O3 2.860004 1_554
Ba0 O11 2.860004 1_554
Ba0 O3 2.860004 1_544
O0 Ti0 1.984331 1_455
O0 Ti0 1.984331 1_555
O0 Sr0 2.763781 1_555
O0 Sr0 2.763781 1_565
O1 Ti1 1.984180 1_555
O1 Ti1 1.984180 1_455
O1 Sr0 2.798153 1_565
O1 Sr0 2.798153 1_555
O1 Sr1 2.804160 1_555
O1 Sr1 2.804160 1_565
O2 Ti2 1.984180 1_555
O2 Ti2 1.984180 1_455
O2 Sr2 2.798153 1_555
O2 Sr2 2.798153 1_565
O2 Sr1 2.804160 1_565
O2 Sr1 2.804160 1_555
O3 Ti3 1.984331 1_455
O3 Ti3 1.984331 1_555
O3 Sr2 2.763781 1_565
O3 Sr2 2.763781 1_555
O4 Ti0 2.034959 1_555
O4 Ti3 2.034959 1_554
O5 Ti0 1.956895 1_555
O5 Ti1 1.968771 1_555
O5 Sr0 2.806060 1_665
O5 Sr0 2.806060 1_655
O5 Sr0 2.806060 1_555
O5 Sr0 2.806060 1_565
O6 Ti2 1.977582 1_555
O6 Ti1 1.977582 1_555
O6 Sr1 2.806049 1_565
O6 Sr1 2.806049 1_555
O6 Sr1 2.806049 1_655
O6 Sr1 2.806049 1_665
O7 Ti3 1.956895 1_555
O7 Ti2 1.968771 1_555
O7 Sr2 2.806060 1_565
O7 Sr2 2.806060 1_555
O7 Sr2 2.806060 1_655
O7 Sr2 2.806060 1_665
O8 Ti0 1.984331 1_555
O8 Ti0 1.984331 1_545
O8 Sr0 2.763781 1_555
O8 Sr0 2.763781 1_655
O9 Ti1 1.984180 1_545
O9 Ti1 1.984180 1_555
O9 Sr0 2.798153 1_655
O9 Sr0 2.798153 1_555
O9 Sr1 2.804160 1_555
O9 Sr1 2.804160 1_655
O10 Ti2 1.984180 1_545
O10 Ti2 1.984180 1_555
O10 Sr2 2.798153 1_655
O10 Sr2 2.798153 1_555
O10 Sr1 2.804160 1_555
O10 Sr1 2.804160 1_655
O11 Ti3 1.984331 1_555
O11 Ti3 1.984331 1_545
O11 Sr2 2.763781 1_555
O11 Sr2 2.763781 1_655
