# generated using pymatgen
data_KH3CO6
_symmetry_space_group_name_H-M   'P 1'
_cell_length_a   8.94509500
_cell_length_b   9.18481300
_cell_length_c   13.08966100
_cell_angle_alpha   90.00000000
_cell_angle_beta   90.00000000
_cell_angle_gamma   90.00000000
_symmetry_Int_Tables_number   1
_chemical_formula_structural   KH3CO6
_chemical_formula_sum   'K8 H24 C8 O48'
_cell_volume   1075.43378328
_cell_formula_units_Z   8
loop_
 _symmetry_equiv_pos_site_id
 _symmetry_equiv_pos_as_xyz
  1  'x, y, z'
loop_
 _atom_site_type_symbol
 _atom_site_label
 _atom_site_symmetry_multiplicity
 _atom_site_fract_x
 _atom_site_fract_y
 _atom_site_fract_z
 _atom_site_occupancy
  K  K0  1  0.91063700  0.26905500  0.68464000  1
  K  K1  1  0.58936300  0.76905500  0.31536000  1
  K  K2  1  0.41063700  0.73094500  0.81536000  1
  K  K3  1  0.08936300  0.23094500  0.18464000  1
  K  K4  1  0.08936300  0.73094500  0.31536000  1
  K  K5  1  0.41063700  0.23094500  0.68464000  1
  K  K6  1  0.58936300  0.26905500  0.18464000  1
  K  K7  1  0.91063700  0.76905500  0.81536000  1
  H  H0  1  0.86083700  0.39008100  0.99621500  1
  H  H1  1  0.63916300  0.89008100  0.00378500  1
  H  H2  1  0.36083700  0.60991900  0.50378500  1
  H  H3  1  0.13916300  0.10991900  0.49621500  1
  H  H4  1  0.13916300  0.60991900  0.00378500  1
  H  H5  1  0.36083700  0.10991900  0.99621500  1
  H  H6  1  0.63916300  0.39008100  0.49621500  1
  H  H7  1  0.86083700  0.89008100  0.50378500  1
  H  H8  1  0.66154300  0.96902200  0.66367400  1
  H  H9  1  0.83845700  0.46902200  0.33632600  1
  H  H10  1  0.16154300  0.03097800  0.83632600  1
  H  H11  1  0.33845700  0.53097800  0.16367400  1
  H  H12  1  0.33845700  0.03097800  0.33632600  1
  H  H13  1  0.16154300  0.53097800  0.66367400  1
  H  H14  1  0.83845700  0.96902200  0.16367400  1
  H  H15  1  0.66154300  0.46902200  0.83632600  1
  H  H16  1  0.63445900  0.01799100  0.84597900  1
  H  H17  1  0.86554100  0.51799100  0.15402100  1
  H  H18  1  0.13445900  0.98200900  0.65402100  1
  H  H19  1  0.36554100  0.48200900  0.34597900  1
  H  H20  1  0.36554100  0.98200900  0.15402100  1
  H  H21  1  0.13445900  0.48200900  0.84597900  1
  H  H22  1  0.86554100  0.01799100  0.34597900  1
  H  H23  1  0.63445900  0.51799100  0.65402100  1
  C  C0  1  0.82294900  0.10079300  0.98947400  1
  C  C1  1  0.67705100  0.60079300  0.01052600  1
  C  C2  1  0.32294900  0.89920700  0.51052600  1
  C  C3  1  0.17705100  0.39920700  0.48947400  1
  C  C4  1  0.17705100  0.89920700  0.01052600  1
  C  C5  1  0.32294900  0.39920700  0.98947400  1
  C  C6  1  0.67705100  0.10079300  0.48947400  1
  C  C7  1  0.82294900  0.60079300  0.51052600  1
  O  O0  1  0.86891500  0.20816200  0.92074700  1
  O  O1  1  0.63108500  0.70816200  0.07925300  1
  O  O2  1  0.36891500  0.79183800  0.57925300  1
  O  O3  1  0.13108500  0.29183800  0.42074700  1
  O  O4  1  0.13108500  0.79183800  0.07925300  1
  O  O5  1  0.36891500  0.29183800  0.92074700  1
  O  O6  1  0.63108500  0.20816200  0.42074700  1
  O  O7  1  0.86891500  0.70816200  0.57925300  1
  O  O8  1  0.94696500  0.32985100  0.96978400  1
  O  O9  1  0.55303500  0.82985100  0.03021600  1
  O  O10  1  0.44696500  0.67014900  0.53021600  1
  O  O11  1  0.05303500  0.17014900  0.46978400  1
  O  O12  1  0.05303500  0.67014900  0.03021600  1
  O  O13  1  0.44696500  0.17014900  0.96978400  1
  O  O14  1  0.55303500  0.32985100  0.46978400  1
  O  O15  1  0.94696500  0.82985100  0.53021600  1
  O  O16  1  0.64776300  0.90241400  0.72372400  1
  O  O17  1  0.85223700  0.40241400  0.27627600  1
  O  O18  1  0.14776300  0.09758600  0.77627600  1
  O  O19  1  0.35223700  0.59758600  0.22372400  1
  O  O20  1  0.35223700  0.09758600  0.27627600  1
  O  O21  1  0.14776300  0.59758600  0.72372400  1
  O  O22  1  0.85223700  0.90241400  0.22372400  1
  O  O23  1  0.64776300  0.40241400  0.77627600  1
  O  O24  1  0.55971800  0.99880000  0.79069300  1
  O  O25  1  0.94028200  0.49880000  0.20930700  1
  O  O26  1  0.05971800  0.00120000  0.70930700  1
  O  O27  1  0.44028200  0.50120000  0.29069300  1
  O  O28  1  0.44028200  0.00120000  0.20930700  1
  O  O29  1  0.05971800  0.50120000  0.79069300  1
  O  O30  1  0.94028200  0.99880000  0.29069300  1
  O  O31  1  0.55971800  0.49880000  0.70930700  1
  O  O32  1  0.83835800  0.11765600  0.08369300  1
  O  O33  1  0.66164200  0.61765600  0.91630700  1
  O  O34  1  0.33835800  0.88234400  0.41630700  1
  O  O35  1  0.16164200  0.38234400  0.58369300  1
  O  O36  1  0.16164200  0.88234400  0.91630700  1
  O  O37  1  0.33835800  0.38234400  0.08369300  1
  O  O38  1  0.66164200  0.11765600  0.58369300  1
  O  O39  1  0.83835800  0.61765600  0.41630700  1
  O  O40  1  0.76663200  0.99424500  0.94080100  1
  O  O41  1  0.73336800  0.49424500  0.05919900  1
  O  O42  1  0.26663200  0.00575500  0.55919900  1
  O  O43  1  0.23336800  0.50575500  0.44080100  1
  O  O44  1  0.23336800  0.00575500  0.05919900  1
  O  O45  1  0.26663200  0.50575500  0.94080100  1
  O  O46  1  0.73336800  0.99424500  0.44080100  1
  O  O47  1  0.76663200  0.49424500  0.55919900  1
loop_
_geom_bond_atom_site_label_1
_geom_bond_atom_site_label_2
_geom_bond_distance
_geom_bond_site_symmetry_2
K0 O35 2.805339 1_655
K0 O26 2.816943 1_655
K0 O29 2.872585 1_655
K0 O18 2.901419 1_655
K0 O23 2.910038 1_555
K0 O47 2.938261 1_555
K0 O38 2.939469 1_555
K0 O0 3.162855 1_555
K0 O11 3.218272 1_655
K1 O34 2.805339 1_555
K1 O27 2.816943 1_555
K1 O28 2.872585 1_565
K1 O19 2.901419 1_555
K1 O22 2.910038 1_555
K1 O46 2.938261 1_555
K1 O39 2.939469 1_555
K1 O1 3.162855 1_555
K1 O10 3.218272 1_555
K2 O33 2.805339 1_555
K2 O24 2.816943 1_555
K2 O31 2.872585 1_555
K2 O16 2.901419 1_555
K2 O21 2.910038 1_555
K2 O45 2.938261 1_555
K2 O36 2.939469 1_555
K2 O2 3.162855 1_555
K2 O9 3.218272 1_556
K3 O32 2.805339 1_455
K3 O25 2.816943 1_455
K3 O30 2.872585 1_445
K3 O17 2.901419 1_455
K3 O20 2.910038 1_555
K3 O44 2.938261 1_555
K3 O37 2.939469 1_555
K3 O3 3.162855 1_555
K3 O8 3.218272 1_454
K4 O39 2.805339 1_455
K4 O30 2.816943 1_455
K4 O25 2.872585 1_455
K4 O22 2.901419 1_455
K4 O19 2.910038 1_555
K4 O43 2.938261 1_555
K4 O34 2.939469 1_555
K4 O4 3.162855 1_555
K4 O15 3.218272 1_455
K5 O38 2.805339 1_555
K5 O31 2.816943 1_555
K5 O24 2.872585 1_545
K5 O23 2.901419 1_555
K5 O18 2.910038 1_555
K5 O42 2.938261 1_555
K5 O35 2.939469 1_555
K5 O5 3.162855 1_555
K5 O14 3.218272 1_555
K6 O37 2.805339 1_555
K6 O28 2.816943 1_555
K6 O27 2.872585 1_555
K6 O20 2.901419 1_555
K6 O17 2.910038 1_555
K6 O41 2.938261 1_555
K6 O32 2.939469 1_555
K6 O6 3.162855 1_555
K6 O13 3.218272 1_554
K7 O36 2.805339 1_655
K7 O29 2.816943 1_655
K7 O26 2.872585 1_665
K7 O21 2.901419 1_655
K7 O16 2.910038 1_555
K7 O40 2.938261 1_555
K7 O33 2.939469 1_555
K7 O7 3.162855 1_555
K7 O12 3.218272 1_656
H0 O8 1.009594 1_555
H1 O9 1.009594 1_555
H2 O10 1.009594 1_555
H3 O11 1.009594 1_555
H4 O12 1.009594 1_555
H5 O13 1.009594 1_555
H6 O14 1.009594 1_555
H7 O15 1.009594 1_555
H8 O16 1.003654 1_555
H9 O17 1.003654 1_555
H10 O18 1.003654 1_555
H11 O19 1.003654 1_555
H12 O20 1.003654 1_555
H13 O21 1.003654 1_555
H14 O22 1.003654 1_555
H15 O23 1.003654 1_555
H16 O24 1.000877 1_545
H17 O25 1.000877 1_555
H18 O26 1.000877 1_565
H19 O27 1.000877 1_555
H20 O28 1.000877 1_565
H21 O29 1.000877 1_555
H22 O30 1.000877 1_545
H23 O31 1.000877 1_555
C0 O32 1.250601 1_556
C0 O40 1.271767 1_545
C0 O0 1.396741 1_555
C1 O33 1.250601 1_554
C1 O41 1.271767 1_555
C1 O1 1.396741 1_555
C2 O34 1.250601 1_555
C2 O42 1.271767 1_565
C2 O2 1.396741 1_555
C3 O35 1.250601 1_555
C3 O43 1.271767 1_555
C3 O3 1.396741 1_555
C4 O36 1.250601 1_554
C4 O44 1.271767 1_565
C4 O4 1.396741 1_555
C5 O37 1.250601 1_556
C5 O45 1.271767 1_555
C5 O5 1.396741 1_555
C6 O38 1.250601 1_555
C6 O46 1.271767 1_545
C6 O6 1.396741 1_555
C7 O39 1.250601 1_555
C7 O47 1.271767 1_555
C7 O7 1.396741 1_555
