# generated using pymatgen
data_YbCrO4
_symmetry_space_group_name_H-M   'P 1'
_cell_length_a   5.82489124
_cell_length_b   5.82489124
_cell_length_c   5.82489124
_cell_angle_alpha   106.27338418
_cell_angle_beta   106.27338418
_cell_angle_gamma   116.07570659
_symmetry_Int_Tables_number   1
_chemical_formula_structural   YbCrO4
_chemical_formula_sum   'Yb2 Cr2 O8'
_cell_volume   150.60622974
_cell_formula_units_Z   2
loop_
 _symmetry_equiv_pos_site_id
 _symmetry_equiv_pos_as_xyz
  1  'x, y, z'
loop_
 _atom_site_type_symbol
 _atom_site_label
 _atom_site_symmetry_multiplicity
 _atom_site_fract_x
 _atom_site_fract_y
 _atom_site_fract_z
 _atom_site_occupancy
  Yb  Yb0  1  0.00000000  0.00000000  0.00000000  1
  Yb  Yb1  1  0.25000000  0.75000000  0.50000000  1
  Cr  Cr0  1  0.75000000  0.25000000  0.50000000  1
  Cr  Cr1  1  0.50000000  0.50000000  0.00000000  1
  O  O0  1  0.32331383  0.50938239  0.18606856  1
  O  O1  1  0.38724527  0.07331383  0.31393144  1
  O  O2  1  0.75938239  0.07331383  0.68606856  1
  O  O3  1  0.32331383  0.13724527  0.81393144  1
  O  O4  1  0.86275473  0.67668617  0.18606856  1
  O  O5  1  0.92668617  0.24061761  0.31393144  1
  O  O6  1  0.92668617  0.61275473  0.68606856  1
  O  O7  1  0.49061761  0.67668617  0.81393144  1
loop_
_geom_bond_atom_site_label_1
_geom_bond_atom_site_label_2
_geom_bond_distance
_geom_bond_site_symmetry_2
Cr0 O6 1.696548 1_555
Cr0 O1 1.696548 1_555
Cr0 O2 1.696548 1_555
Cr0 O5 1.696548 1_555
Cr1 O4 1.696548 1_555
Cr1 O3 1.696548 1_554
Cr1 O0 1.696548 1_555
Cr1 O7 1.696548 1_554
O0 Yb1 2.240103 1_555
O0 Yb0 2.380433 1_555
O1 Yb0 2.240103 1_555
O1 Yb1 2.380433 1_545
O2 Yb0 2.240103 1_656
O2 Yb1 2.380433 1_545
O3 Yb1 2.240103 1_545
O3 Yb0 2.380433 1_556
O4 Yb1 2.240103 1_655
O4 Yb0 2.380433 1_665
O5 Yb0 2.240103 1_655
O5 Yb1 2.380433 1_655
O6 Yb0 2.240103 1_666
O6 Yb1 2.380433 1_655
O7 Yb1 2.240103 1_555
O7 Yb0 2.380433 1_666
