# generated using pymatgen
data_K2Mo(CO4)2
_symmetry_space_group_name_H-M   'P 1'
_cell_length_a   12.94219500
_cell_length_b   7.55785800
_cell_length_c   9.07138563
_cell_angle_alpha   85.74880735
_cell_angle_beta   90.00000000
_cell_angle_gamma   90.00000000
_symmetry_Int_Tables_number   1
_chemical_formula_structural   K2Mo(CO4)2
_chemical_formula_sum   'K8 Mo4 C8 O32'
_cell_volume   884.87871780
_cell_formula_units_Z   4
loop_
 _symmetry_equiv_pos_site_id
 _symmetry_equiv_pos_as_xyz
  1  'x, y, z'
loop_
 _atom_site_type_symbol
 _atom_site_label
 _atom_site_symmetry_multiplicity
 _atom_site_fract_x
 _atom_site_fract_y
 _atom_site_fract_z
 _atom_site_occupancy
  K  K0  1  0.51473600  0.26968800  0.37049000  1
  K  K1  1  0.01473600  0.23031200  0.62951000  1
  K  K2  1  0.48526400  0.73031200  0.62951000  1
  K  K3  1  0.98526400  0.76968800  0.37049000  1
  K  K4  1  0.36711500  0.15948100  0.90012600  1
  K  K5  1  0.86711500  0.34051900  0.09987400  1
  K  K6  1  0.63288500  0.84051900  0.09987400  1
  K  K7  1  0.13288500  0.65948100  0.90012600  1
  Mo  Mo0  1  0.26597000  0.43385100  0.54530700  1
  Mo  Mo1  1  0.76597000  0.06614900  0.45469300  1
  Mo  Mo2  1  0.73403000  0.56614900  0.45469300  1
  Mo  Mo3  1  0.23403000  0.93385100  0.54530700  1
  C  C0  1  0.24809500  0.42981400  0.20670200  1
  C  C1  1  0.74809500  0.07018600  0.79329800  1
  C  C2  1  0.75190500  0.57018600  0.79329800  1
  C  C3  1  0.25190500  0.92981400  0.20670200  1
  C  C4  1  0.13636300  0.47199700  0.25954900  1
  C  C5  1  0.63636300  0.02800300  0.74045100  1
  C  C6  1  0.86363700  0.52800300  0.74045100  1
  C  C7  1  0.36363700  0.97199700  0.25954900  1
  O  O0  1  0.28244400  0.67641700  0.51281700  1
  O  O1  1  0.78244400  0.82358300  0.48718300  1
  O  O2  1  0.71755600  0.32358300  0.48718300  1
  O  O3  1  0.21755600  0.17641700  0.51281700  1
  O  O4  1  0.12552500  0.47399100  0.40096200  1
  O  O5  1  0.62552500  0.02600900  0.59903800  1
  O  O6  1  0.87447500  0.52600900  0.59903800  1
  O  O7  1  0.37447500  0.97399100  0.40096200  1
  O  O8  1  0.31555600  0.41028200  0.31184100  1
  O  O9  1  0.81555600  0.08971800  0.68815900  1
  O  O10  1  0.68444400  0.58971800  0.68815900  1
  O  O11  1  0.18444400  0.91028200  0.31184100  1
  O  O12  1  0.39203000  0.37133500  0.60541700  1
  O  O13  1  0.89203000  0.12866500  0.39458300  1
  O  O14  1  0.60797000  0.62866500  0.39458300  1
  O  O15  1  0.10797000  0.87133500  0.60541700  1
  O  O16  1  0.06591700  0.50440100  0.16748100  1
  O  O17  1  0.56591700  0.99559900  0.83251900  1
  O  O18  1  0.93408300  0.49559900  0.83251900  1
  O  O19  1  0.43408300  0.00440100  0.16748100  1
  O  O20  1  0.26563700  0.41866800  0.07288100  1
  O  O21  1  0.76563700  0.08133200  0.92711900  1
  O  O22  1  0.73436300  0.58133200  0.92711900  1
  O  O23  1  0.23436300  0.91866800  0.07288100  1
  O  O24  1  0.18985900  0.42179700  0.70719200  1
  O  O25  1  0.68985900  0.07820300  0.29280800  1
  O  O26  1  0.81014100  0.57820300  0.29280800  1
  O  O27  1  0.31014100  0.92179700  0.70719200  1
  O  O28  1  0.52983400  0.43750400  0.01611200  1
  O  O29  1  0.02983400  0.06249600  0.98388800  1
  O  O30  1  0.47016600  0.56249600  0.98388800  1
  O  O31  1  0.97016600  0.93750400  0.01611200  1
loop_
_geom_bond_atom_site_label_1
_geom_bond_atom_site_label_2
_geom_bond_distance
_geom_bond_site_symmetry_2
K0 O25 2.806978 1_555
K0 O12 2.810083 1_555
K0 O8 2.823743 1_555
K0 O2 2.870662 1_555
K0 O7 2.876556 1_545
K0 O14 2.992087 1_555
K0 O19 3.008059 1_555
K0 O5 3.029855 1_555
K0 O28 3.372928 1_555
K1 O24 2.806978 1_555
K1 O13 2.810083 1_455
K1 O9 2.823743 1_455
K1 O3 2.870662 1_555
K1 O6 2.876556 1_455
K1 O15 2.992087 1_545
K1 O18 3.008059 1_455
K1 O4 3.029855 1_555
K1 O29 3.372928 1_555
K2 O27 2.806978 1_555
K2 O14 2.810083 1_555
K2 O10 2.823743 1_555
K2 O0 2.870662 1_555
K2 O5 2.876556 1_565
K2 O12 2.992087 1_555
K2 O17 3.008059 1_555
K2 O7 3.029855 1_555
K2 O30 3.372928 1_555
K3 O26 2.806978 1_555
K3 O15 2.810083 1_655
K3 O11 2.823743 1_655
K3 O1 2.870662 1_555
K3 O4 2.876556 1_655
K3 O13 2.992087 1_565
K3 O16 3.008059 1_655
K3 O6 3.029855 1_555
K3 O31 3.372928 1_555
K4 O27 2.701842 1_545
K4 O19 2.754177 1_556
K4 O23 2.880522 1_546
K4 O20 2.910874 1_556
K4 O17 2.939874 1_545
K4 O12 3.029890 1_555
K4 O28 3.207036 1_556
K5 O26 2.701842 1_555
K5 O18 2.754177 1_554
K5 O22 2.880522 1_554
K5 O21 2.910874 1_554
K5 O16 2.939874 1_655
K5 O13 3.029890 1_555
K5 O29 3.207036 1_654
K6 O25 2.701842 1_565
K6 O17 2.754177 1_554
K6 O21 2.880522 1_564
K6 O22 2.910874 1_554
K6 O19 2.939874 1_565
K6 O14 3.029890 1_555
K6 O30 3.207036 1_554
K7 O24 2.701842 1_555
K7 O16 2.754177 1_556
K7 O20 2.880522 1_556
K7 O23 2.910874 1_556
K7 O18 2.939874 1_455
K7 O15 3.029890 1_555
K7 O31 3.207036 1_456
Mo0 O24 1.765030 1_555
Mo0 O12 1.773175 1_555
Mo0 O0 1.847466 1_555
Mo0 O3 2.085675 1_555
Mo0 O8 2.232675 1_555
Mo0 O4 2.247578 1_555
Mo1 O25 1.765030 1_555
Mo1 O13 1.773175 1_555
Mo1 O1 1.847466 1_545
Mo1 O2 2.085675 1_555
Mo1 O9 2.232675 1_555
Mo1 O5 2.247578 1_555
Mo2 O26 1.765030 1_555
Mo2 O14 1.773175 1_555
Mo2 O2 1.847466 1_555
Mo2 O1 2.085675 1_555
Mo2 O10 2.232675 1_555
Mo2 O6 2.247578 1_555
Mo3 O27 1.765030 1_555
Mo3 O15 1.773175 1_555
Mo3 O3 1.847466 1_565
Mo3 O0 2.085675 1_555
Mo3 O11 2.232675 1_555
Mo3 O7 2.247578 1_555
C0 O20 1.243968 1_555
C0 O8 1.293391 1_555
C1 O21 1.243968 1_555
C1 O9 1.293391 1_555
C2 O22 1.243968 1_555
C2 O10 1.293391 1_555
C3 O23 1.243968 1_555
C3 O11 1.293391 1_555
C4 O16 1.248371 1_555
C4 O4 1.291656 1_555
C5 O17 1.248371 1_545
C5 O5 1.291656 1_555
C6 O18 1.248371 1_555
C6 O6 1.291656 1_555
C7 O19 1.248371 1_565
C7 O7 1.291656 1_555
O28 O30 1.238249 1_554
O29 O31 1.238249 1_446
