# generated using pymatgen
data_RbPrF4
_symmetry_space_group_name_H-M   'P 1'
_cell_length_a   3.79350398
_cell_length_b   6.39597614
_cell_length_c   16.07757845
_cell_angle_alpha   90.00000000
_cell_angle_beta   90.00000000
_cell_angle_gamma   90.00000000
_symmetry_Int_Tables_number   1
_chemical_formula_structural   RbPrF4
_chemical_formula_sum   'Rb4 Pr4 F16'
_cell_volume   390.09287351
_cell_formula_units_Z   4
loop_
 _symmetry_equiv_pos_site_id
 _symmetry_equiv_pos_as_xyz
  1  'x, y, z'
loop_
 _atom_site_type_symbol
 _atom_site_label
 _atom_site_symmetry_multiplicity
 _atom_site_fract_x
 _atom_site_fract_y
 _atom_site_fract_z
 _atom_site_occupancy
  Rb  Rb0  1  0.25000000  0.72507992  0.70125883  1
  Rb  Rb1  1  0.75000000  0.27492008  0.29874117  1
  Rb  Rb2  1  0.75000000  0.77492008  0.20125883  1
  Rb  Rb3  1  0.25000000  0.22507992  0.79874117  1
  Pr  Pr0  1  0.25000000  0.25160540  0.05755359  1
  Pr  Pr1  1  0.75000000  0.74839460  0.94244641  1
  Pr  Pr2  1  0.75000000  0.24839460  0.55755359  1
  Pr  Pr3  1  0.25000000  0.75160540  0.44244641  1
  F  F0  1  0.25000000  0.60914283  0.87057256  1
  F  F1  1  0.75000000  0.39085717  0.12942744  1
  F  F2  1  0.75000000  0.89085717  0.37057256  1
  F  F3  1  0.25000000  0.10914283  0.62942744  1
  F  F4  1  0.25000000  0.63408472  0.03670414  1
  F  F5  1  0.75000000  0.36591528  0.96329586  1
  F  F6  1  0.75000000  0.86591528  0.53670414  1
  F  F7  1  0.25000000  0.13408472  0.46329586  1
  F  F8  1  0.25000000  0.50005973  0.55570374  1
  F  F9  1  0.75000000  0.49994027  0.44429626  1
  F  F10  1  0.75000000  0.99994027  0.05570374  1
  F  F11  1  0.25000000  0.00005973  0.94429626  1
  F  F12  1  0.25000000  0.59528802  0.31235590  1
  F  F13  1  0.75000000  0.40471198  0.68764410  1
  F  F14  1  0.75000000  0.90471198  0.81235590  1
  F  F15  1  0.25000000  0.09528802  0.18764410  1
loop_
_geom_bond_atom_site_label_1
_geom_bond_atom_site_label_2
_geom_bond_distance
_geom_bond_site_symmetry_2
F0 Pr1 2.392956 1_455
F0 Pr1 2.392956 1_555
F0 Rb3 2.714391 1_555
F0 Rb0 2.821346 1_555
F1 Pr0 2.392956 1_555
F1 Pr0 2.392956 1_655
F1 Rb2 2.714391 1_555
F1 Rb1 2.821346 1_555
F2 Pr3 2.392956 1_655
F2 Pr3 2.392956 1_555
F2 Rb1 2.714391 1_565
F2 Rb2 2.821346 1_555
F3 Pr2 2.392956 1_555
F3 Pr2 2.392956 1_455
F3 Rb0 2.714391 1_545
F3 Rb3 2.821346 1_555
F4 Pr0 2.469188 1_555
F4 Pr1 2.535499 1_454
F4 Pr1 2.535499 1_554
F5 Pr1 2.469188 1_555
F5 Pr0 2.535499 1_556
F5 Pr0 2.535499 1_656
F6 Pr2 2.469188 1_565
F6 Pr3 2.535499 1_555
F6 Pr3 2.535499 1_655
F7 Pr3 2.469188 1_545
F7 Pr2 2.535499 1_455
F7 Pr2 2.535499 1_555
F8 Pr3 2.429853 1_555
F8 Pr2 2.487872 1_555
F8 Pr2 2.487872 1_455
F8 Rb0 2.747322 1_555
F9 Pr2 2.429853 1_555
F9 Pr3 2.487872 1_655
F9 Pr3 2.487872 1_555
F9 Rb1 2.747322 1_555
F10 Pr1 2.429853 1_554
F10 Pr0 2.487872 1_565
F10 Pr0 2.487872 1_665
F10 Rb2 2.747322 1_555
F11 Pr0 2.429853 1_556
F11 Pr1 2.487872 1_445
F11 Pr1 2.487872 1_545
F11 Rb3 2.747322 1_555
F12 Pr3 2.318220 1_555
F12 Rb1 2.800759 1_555
F12 Rb1 2.800759 1_455
F12 Rb2 2.847473 1_555
F12 Rb2 2.847473 1_455
F13 Pr2 2.318220 1_555
F13 Rb0 2.800759 1_655
F13 Rb0 2.800759 1_555
F13 Rb3 2.847473 1_555
F13 Rb3 2.847473 1_655
F14 Pr1 2.318220 1_555
F14 Rb3 2.800759 1_565
F14 Rb3 2.800759 1_665
F14 Rb0 2.847473 1_655
F14 Rb0 2.847473 1_555
F15 Pr0 2.318220 1_555
F15 Rb2 2.800759 1_545
F15 Rb2 2.800759 1_445
F15 Rb1 2.847473 1_555
F15 Rb1 2.847473 1_455
