# generated using pymatgen
data_Ni2Ge
_symmetry_space_group_name_H-M   'P 1'
_cell_length_a   3.78795382
_cell_length_b   5.09612578
_cell_length_c   7.17851986
_cell_angle_alpha   90.00000000
_cell_angle_beta   90.00000000
_cell_angle_gamma   90.00000000
_symmetry_Int_Tables_number   1
_chemical_formula_structural   Ni2Ge
_chemical_formula_sum   'Ni8 Ge4'
_cell_volume   138.57335139
_cell_formula_units_Z   4
loop_
 _symmetry_equiv_pos_site_id
 _symmetry_equiv_pos_as_xyz
  1  'x, y, z'
loop_
 _atom_site_type_symbol
 _atom_site_label
 _atom_site_symmetry_multiplicity
 _atom_site_fract_x
 _atom_site_fract_y
 _atom_site_fract_z
 _atom_site_occupancy
  Ni  Ni0  1  0.75000000  0.67095228  0.94045330  1
  Ni  Ni1  1  0.25000000  0.32904772  0.05954670  1
  Ni  Ni2  1  0.75000000  0.17095228  0.55954670  1
  Ni  Ni3  1  0.25000000  0.82904772  0.44045330  1
  Ni  Ni4  1  0.75000000  0.04451500  0.20656487  1
  Ni  Ni5  1  0.25000000  0.95548500  0.79343513  1
  Ni  Ni6  1  0.75000000  0.54451500  0.29343513  1
  Ni  Ni7  1  0.25000000  0.45548500  0.70656487  1
  Ge  Ge0  1  0.75000000  0.71259600  0.61400951  1
  Ge  Ge1  1  0.25000000  0.28740400  0.38599049  1
  Ge  Ge2  1  0.75000000  0.21259600  0.88599049  1
  Ge  Ge3  1  0.25000000  0.78740400  0.11400951  1
loop_
_geom_bond_atom_site_label_1
_geom_bond_atom_site_label_2
_geom_bond_distance
_geom_bond_site_symmetry_2
Ni0 Ni5 2.608352 1_555
Ni0 Ni5 2.608352 1_655
Ni0 Ni6 2.614528 1_556
Ni0 Ni4 2.696916 1_566
Ni0 Ni7 2.758951 1_655
Ni0 Ni7 2.758951 1_555
Ni1 Ni4 2.608352 1_455
Ni1 Ni4 2.608352 1_555
Ni1 Ni7 2.614528 1_554
Ni1 Ni5 2.696916 1_544
Ni1 Ni6 2.758951 1_455
Ni1 Ni6 2.758951 1_555
Ni2 Ni7 2.608352 1_655
Ni2 Ni7 2.608352 1_555
Ni2 Ni4 2.614528 1_555
Ni2 Ni6 2.696916 1_555
Ni2 Ni5 2.758951 1_645
Ni2 Ni5 2.758951 1_545
Ni3 Ni6 2.608352 1_455
Ni3 Ni6 2.608352 1_555
Ni3 Ni5 2.614528 1_555
Ni3 Ni7 2.696916 1_555
Ni3 Ni4 2.758951 1_465
Ni3 Ni4 2.758951 1_565
Ni4 Ni6 2.623262 1_545
Ni4 Ni6 2.623262 1_555
Ni5 Ni7 2.623262 1_555
Ni5 Ni7 2.623262 1_565
Ge0 Ni3 2.343404 1_555
Ge0 Ni3 2.343404 1_655
Ge0 Ni0 2.352973 1_555
Ge0 Ni2 2.368334 1_565
Ge0 Ni7 2.396956 1_655
Ge0 Ni7 2.396956 1_555
Ge0 Ni6 2.455493 1_555
Ge0 Ni5 2.603507 1_555
Ge0 Ni5 2.603507 1_655
Ge0 Ni2 2.787835 1_555
Ge1 Ni2 2.343404 1_555
Ge1 Ni2 2.343404 1_455
Ge1 Ni1 2.352973 1_555
Ge1 Ni3 2.368334 1_545
Ge1 Ni6 2.396956 1_555
Ge1 Ni6 2.396956 1_455
Ge1 Ni7 2.455493 1_555
Ge1 Ni4 2.603507 1_455
Ge1 Ni4 2.603507 1_555
Ge1 Ni3 2.787835 1_555
Ge2 Ni1 2.343404 1_656
Ge2 Ni1 2.343404 1_556
Ge2 Ni2 2.352973 1_555
Ge2 Ni0 2.368334 1_555
Ge2 Ni5 2.396956 1_545
Ge2 Ni5 2.396956 1_645
Ge2 Ni4 2.455493 1_556
Ge2 Ni7 2.603507 1_655
Ge2 Ni7 2.603507 1_555
Ge2 Ni0 2.787835 1_545
Ge3 Ni0 2.343404 1_454
Ge3 Ni0 2.343404 1_554
Ge3 Ni3 2.352973 1_555
Ge3 Ni1 2.368334 1_555
Ge3 Ni4 2.396956 1_565
Ge3 Ni4 2.396956 1_465
Ge3 Ni5 2.455493 1_554
Ge3 Ni6 2.603507 1_455
Ge3 Ni6 2.603507 1_555
Ge3 Ni1 2.787835 1_565
