# generated using pymatgen
data_Ca3LaMn2(IrO6)2
_symmetry_space_group_name_H-M   'P 1'
_cell_length_a   5.53106377
_cell_length_b   5.68850855
_cell_length_c   7.86046635
_cell_angle_alpha   89.87341515
_cell_angle_beta   89.93221965
_cell_angle_gamma   89.92974170
_symmetry_Int_Tables_number   1
_chemical_formula_structural   Ca3LaMn2(IrO6)2
_chemical_formula_sum   'Ca3 La1 Mn2 Ir2 O12'
_cell_volume   247.31684914
_cell_formula_units_Z   1
loop_
 _symmetry_equiv_pos_site_id
 _symmetry_equiv_pos_as_xyz
  1  'x, y, z'
loop_
 _atom_site_type_symbol
 _atom_site_label
 _atom_site_symmetry_multiplicity
 _atom_site_fract_x
 _atom_site_fract_y
 _atom_site_fract_z
 _atom_site_occupancy
  Ca  Ca0  1  0.48967800  0.44714900  0.25041500  1
  Ca  Ca1  1  0.00887400  0.94406000  0.25053100  1
  Ca  Ca2  1  0.51121300  0.55619500  0.74949300  1
  La  La0  1  0.98926400  0.05214300  0.75069800  1
  Mn  Mn0  1  0.00142400  0.50227700  0.00607100  1
  Mn  Mn1  1  0.49804700  0.00024000  0.49320400  1
  Ir  Ir0  1  0.99996000  0.50074300  0.49641800  1
  Ir  Ir1  1  0.49921500  0.99989200  0.00417500  1
  O  O0  1  0.89940800  0.53402200  0.25806400  1
  O  O1  1  0.59847900  0.03989800  0.24288500  1
  O  O2  1  0.09681000  0.47669600  0.74259900  1
  O  O3  1  0.41377300  0.96770600  0.75590300  1
  O  O4  1  0.31626200  0.70772700  0.05161200  1
  O  O5  1  0.18098600  0.20299300  0.45143200  1
  O  O6  1  0.70961400  0.30676700  0.55301100  1
  O  O7  1  0.79372400  0.80485700  0.95554000  1
  O  O8  1  0.68920000  0.28780500  0.94523500  1
  O  O9  1  0.81014800  0.79142500  0.54655800  1
  O  O10  1  0.29423000  0.68974500  0.45046700  1
  O  O11  1  0.19968900  0.18766100  0.04568600  1
loop_
_geom_bond_atom_site_label_1
_geom_bond_atom_site_label_2
_geom_bond_distance
_geom_bond_site_symmetry_2
Ca0 O0 2.320966 1_555
Ca0 O10 2.355363 1_555
Ca0 O4 2.355639 1_555
Ca0 O1 2.393663 1_555
Ca0 O5 2.707509 1_555
Ca0 O11 2.713607 1_555
Ca0 O6 2.787665 1_555
Ca0 O8 2.791932 1_554
Ca1 O1 2.334633 1_465
Ca1 O5 2.363654 1_565
Ca1 O11 2.369917 1_565
Ca1 O0 2.411107 1_455
Ca1 O10 2.654069 1_555
Ca1 O4 2.672117 1_555
Ca1 O9 2.713655 1_455
Ca1 O7 2.727048 1_454
Ca2 O2 2.337534 1_555
Ca2 O6 2.367397 1_555
Ca2 O8 2.378438 1_555
Ca2 O3 2.402104 1_555
Ca2 O9 2.656814 1_555
Ca2 O7 2.662189 1_555
Ca2 O10 2.745691 1_555
Ca2 O4 2.747016 1_556
La0 O7 2.393890 1_545
La0 O3 2.396413 1_645
La0 O9 2.402874 1_545
La0 O2 2.488619 1_655
La0 O8 2.624411 1_555
La0 O6 2.625893 1_555
La0 O11 2.709601 1_656
La0 O5 2.716968 1_655
Mn0 O0 2.067167 1_455
Mn0 O7 2.105552 1_454
Mn0 O11 2.120395 1_555
Mn0 O4 2.129499 1_555
Mn0 O2 2.141769 1_554
Mn0 O8 2.170052 1_454
Mn1 O1 2.055912 1_555
Mn1 O5 2.123251 1_555
Mn1 O3 2.124084 1_545
Mn1 O10 2.124091 1_545
Mn1 O9 2.135717 1_545
Mn1 O6 2.154229 1_555
Ir0 O0 1.963688 1_555
Ir0 O10 1.984122 1_655
Ir0 O9 1.997350 1_555
Ir0 O5 1.998506 1_655
Ir0 O6 1.998732 1_555
Ir0 O2 2.012803 1_655
Ir1 O1 1.969424 1_565
Ir1 O4 1.981341 1_555
Ir1 O11 1.996980 1_565
Ir1 O8 2.000239 1_564
Ir1 O7 2.006611 1_554
Ir1 O3 2.017254 1_554
