# generated using pymatgen
data_TiPd2
_symmetry_space_group_name_H-M   'P 1'
_cell_length_a   3.09246326
_cell_length_b   3.41491152
_cell_length_c   4.90068519
_cell_angle_alpha   110.39018821
_cell_angle_beta   108.39182037
_cell_angle_gamma   90.00000000
_symmetry_Int_Tables_number   1
_chemical_formula_structural   TiPd2
_chemical_formula_sum   'Ti1 Pd2'
_cell_volume   45.68003491
_cell_formula_units_Z   1
loop_
 _symmetry_equiv_pos_site_id
 _symmetry_equiv_pos_as_xyz
  1  'x, y, z'
loop_
 _atom_site_type_symbol
 _atom_site_label
 _atom_site_symmetry_multiplicity
 _atom_site_fract_x
 _atom_site_fract_y
 _atom_site_fract_z
 _atom_site_occupancy
  Ti  Ti0  1  0.00000000  0.00000000  0.00000000  1
  Pd  Pd0  1  0.34234287  0.34234287  0.68468774  1
  Pd  Pd1  1  0.65765713  0.65765713  0.31531226  1
loop_
_geom_bond_atom_site_label_1
_geom_bond_atom_site_label_2
_geom_bond_distance
_geom_bond_site_symmetry_2
Pd0 Ti0 2.677022 1_556
Pd0 Ti0 2.677025 1_656
Pd0 Ti0 2.677026 1_566
Pd0 Ti0 2.677030 1_666
Pd0 Ti0 2.961658 1_555
Pd1 Ti0 2.677022 1_665
Pd1 Ti0 2.677025 1_565
Pd1 Ti0 2.677026 1_655
Pd1 Ti0 2.677030 1_555
Pd1 Ti0 2.961658 1_666
