# generated using pymatgen
data_SrCa7Mn6Cr2O21
_symmetry_space_group_name_H-M   'P 1'
_cell_length_a   7.79777401
_cell_length_b   7.80881537
_cell_length_c   7.72903376
_cell_angle_alpha   89.93076036
_cell_angle_beta   89.63853113
_cell_angle_gamma   90.00678233
_symmetry_Int_Tables_number   1
_chemical_formula_structural   SrCa7Mn6Cr2O21
_chemical_formula_sum   'Sr1 Ca7 Mn6 Cr2 O21'
_cell_volume   470.62179975
_cell_formula_units_Z   1
loop_
 _symmetry_equiv_pos_site_id
 _symmetry_equiv_pos_as_xyz
  1  'x, y, z'
loop_
 _atom_site_type_symbol
 _atom_site_label
 _atom_site_symmetry_multiplicity
 _atom_site_fract_x
 _atom_site_fract_y
 _atom_site_fract_z
 _atom_site_occupancy
  Sr  Sr0  1  0.24389300  0.25473800  0.24479800  1
  Ca  Ca0  1  0.26788800  0.27273800  0.70129500  1
  Ca  Ca1  1  0.23127400  0.73301400  0.24679800  1
  Ca  Ca2  1  0.26434600  0.73215900  0.69775700  1
  Ca  Ca3  1  0.74221600  0.25886900  0.26046000  1
  Ca  Ca4  1  0.74459700  0.24669700  0.71847200  1
  Ca  Ca5  1  0.73468400  0.74501300  0.25929000  1
  Ca  Ca6  1  0.74745800  0.75053600  0.71743100  1
  Mn  Mn0  1  0.00600600  0.99997100  0.50573700  1
  Mn  Mn1  1  0.99020900  0.50653500  0.00911700  1
  Mn  Mn2  1  0.99927400  0.50119100  0.49808800  1
  Mn  Mn3  1  0.51091900  0.99904700  0.48282600  1
  Mn  Mn4  1  0.50137500  0.50391000  0.99031800  1
  Mn  Mn5  1  0.50593700  0.50267900  0.49870200  1
  Cr  Cr0  1  0.01630600  0.99522900  0.98491000  1
  Cr  Cr1  1  0.48192400  0.99620300  0.99642100  1
  O  O0  1  0.95124600  0.99183200  0.76670600  1
  O  O1  1  0.01887700  0.49696600  0.25451700  1
  O  O2  1  0.99282500  0.50923300  0.75715500  1
  O  O3  1  0.55014300  0.01609000  0.23485200  1
  O  O4  1  0.53381700  0.98612800  0.74590500  1
  O  O5  1  0.50439700  0.51808300  0.74508900  1
  O  O6  1  0.24259500  0.98129100  0.04227900  1
  O  O7  1  0.25579700  0.00388600  0.49674900  1
  O  O8  1  0.25258800  0.51277700  0.01608700  1
  O  O9  1  0.25895300  0.49799500  0.49501900  1
  O  O10  1  0.76324300  0.99549700  0.47491600  1
  O  O11  1  0.73916900  0.49252100  0.04936500  1
  O  O12  1  0.74797600  0.50494700  0.47927100  1
  O  O13  1  0.95715200  0.19775800  0.06882100  1
  O  O14  1  0.00424300  0.24911800  0.51108500  1
  O  O15  1  0.95423000  0.79361200  0.07223700  1
  O  O16  1  0.01553700  0.75240300  0.49372700  1
  O  O17  1  0.49983100  0.25407600  0.99644500  1
  O  O18  1  0.50706900  0.25767000  0.49254900  1
  O  O19  1  0.51836400  0.74599500  0.03064600  1
  O  O20  1  0.49364200  0.74359400  0.46416200  1
loop_
_geom_bond_atom_site_label_1
_geom_bond_atom_site_label_2
_geom_bond_distance
_geom_bond_site_symmetry_2
Ca0 O9 2.373898 1_555
Ca0 O18 2.461297 1_555
Ca0 O14 2.541756 1_555
Ca0 O7 2.631667 1_555
Ca0 O5 2.682333 1_555
Ca0 O2 2.861566 1_455
Ca0 O17 2.923647 1_555
Ca0 O4 3.071840 1_545
Ca0 O8 3.074861 1_556
Ca1 O1 2.478304 1_555
Ca1 O8 2.483696 1_555
Ca1 O6 2.501211 1_555
Ca1 O16 2.540798 1_555
Ca1 O15 2.597443 1_455
Ca1 O20 2.656800 1_555
Ca1 O9 2.663100 1_555
Ca1 O19 2.786627 1_555
Ca1 O7 2.873533 1_565
Ca2 O9 2.410077 1_555
Ca2 O16 2.512779 1_555
Ca2 O20 2.534453 1_555
Ca2 O5 2.537739 1_555
Ca2 O7 2.629410 1_565
Ca2 O2 2.776477 1_455
Ca2 O4 2.915060 1_555
Ca2 O8 2.997262 1_556
Ca3 O13 2.280626 1_555
Ca3 O3 2.424974 1_555
Ca3 O11 2.446390 1_555
Ca3 O18 2.557053 1_555
Ca3 O12 2.561917 1_555
Ca3 O10 2.645616 1_545
Ca3 O17 2.790438 1_554
Ca3 O14 2.825334 1_655
Ca3 O1 2.847920 1_655
Ca4 O18 2.554903 1_555
Ca4 O14 2.574465 1_655
Ca4 O0 2.589018 1_545
Ca4 O4 2.623041 1_545
Ca4 O10 2.723615 1_545
Ca4 O12 2.734204 1_555
Ca4 O5 2.835260 1_555
Ca4 O2 2.836683 1_555
Ca4 O17 2.865426 1_555
Ca5 O15 2.265461 1_555
Ca5 O20 2.450049 1_555
Ca5 O19 2.450708 1_555
Ca5 O12 2.531871 1_555
Ca5 O11 2.555049 1_555
Ca5 O3 2.567179 1_565
Ca5 O10 2.581746 1_555
Ca5 O16 2.851857 1_655
Ca5 O1 2.943516 1_655
Ca6 O4 2.491042 1_555
Ca6 O0 2.495850 1_555
Ca6 O5 2.631732 1_555
Ca6 O12 2.659813 1_555
Ca6 O10 2.678793 1_555
Ca6 O2 2.704157 1_555
Ca6 O16 2.704420 1_655
Ca6 O20 2.793061 1_555
Ca6 O19 2.999715 1_556
Mn0 O10 1.909752 1_455
Mn0 O16 1.936965 1_555
Mn0 O14 1.946080 1_565
Mn0 O7 1.948849 1_565
Mn0 O0 2.060008 1_455
Mn1 O1 1.912605 1_655
Mn1 O2 1.947489 1_554
Mn1 O11 1.983165 1_555
Mn1 O8 2.047597 1_655
Mn1 O15 2.311523 1_555
Mn1 O13 2.467560 1_555
Mn2 O1 1.888131 1_655
Mn2 O16 1.965983 1_655
Mn2 O12 1.966089 1_555
Mn2 O14 1.971230 1_655
Mn2 O2 2.003712 1_555
Mn2 O9 2.025065 1_655
Mn3 O3 1.943346 1_565
Mn3 O10 1.968329 1_555
Mn3 O7 1.991979 1_565
Mn3 O20 2.004746 1_555
Mn3 O18 2.021247 1_565
Mn3 O4 2.044663 1_555
Mn4 O5 1.898476 1_555
Mn4 O11 1.914446 1_556
Mn4 O19 1.920987 1_556
Mn4 O8 1.950178 1_556
Mn4 O17 1.951459 1_555
Mn5 O12 1.892466 1_555
Mn5 O20 1.902302 1_555
Mn5 O5 1.908236 1_555
Mn5 O18 1.913898 1_555
Mn5 O9 1.926659 1_555
Cr0 O0 1.764450 1_455
Cr0 O13 1.770154 1_466
Cr0 O15 1.778118 1_456
Cr0 O6 1.825348 1_556
Cr1 O6 1.900925 1_556
Cr1 O3 1.927745 1_566
Cr1 O4 1.977238 1_555
Cr1 O19 1.991982 1_556
Cr1 O17 2.018502 1_565
O1 Sr0 2.581015 1_555
O3 Sr0 3.029969 1_555
O6 Sr0 2.649143 1_565
O7 Sr0 2.762420 1_555
O8 Sr0 2.679440 1_555
O9 Sr0 2.715510 1_555
O13 Sr0 2.662136 1_655
O14 Sr0 2.771512 1_555
O17 Sr0 2.760310 1_556
O18 Sr0 2.815746 1_555
