# generated using pymatgen
data_Sr2EuCu2(BiO4)2
_symmetry_space_group_name_H-M   'P 1'
_cell_length_a   15.91642748
_cell_length_b   15.91642748
_cell_length_c   15.91642748
_cell_angle_alpha   166.29579024
_cell_angle_beta   166.29579024
_cell_angle_gamma   19.42744689
_symmetry_Int_Tables_number   1
_chemical_formula_structural   Sr2EuCu2(BiO4)2
_chemical_formula_sum   'Sr2 Eu1 Cu2 Bi2 O8'
_cell_volume   226.28541507
_cell_formula_units_Z   1
loop_
 _symmetry_equiv_pos_site_id
 _symmetry_equiv_pos_as_xyz
  1  'x, y, z'
loop_
 _atom_site_type_symbol
 _atom_site_label
 _atom_site_symmetry_multiplicity
 _atom_site_fract_x
 _atom_site_fract_y
 _atom_site_fract_z
 _atom_site_occupancy
  Sr  Sr0  1  0.11244500  0.11244500  0.00000000  1
  Sr  Sr1  1  0.88755500  0.88755500  0.00000000  1
  Eu  Eu0  1  0.00000000  0.00000000  0.00000000  1
  Cu  Cu0  1  0.44650000  0.44650000  0.00000000  1
  Cu  Cu1  1  0.55350000  0.55350000  0.00000000  1
  Bi  Bi0  1  0.29734300  0.29734300  0.00000000  1
  Bi  Bi1  1  0.70265700  0.70265700  0.00000000  1
  O  O0  1  0.55255000  0.05255000  0.50000000  1
  O  O1  1  0.44745000  0.94745000  0.50000000  1
  O  O2  1  0.05255000  0.55255000  0.50000000  1
  O  O3  1  0.94745000  0.44745000  0.50000000  1
  O  O4  1  0.20262400  0.20262400  0.00000000  1
  O  O5  1  0.79737600  0.79737600  0.00000000  1
  O  O6  1  0.36421000  0.36421000  0.00000000  1
  O  O7  1  0.63579000  0.63579000  0.00000000  1
loop_
_geom_bond_atom_site_label_1
_geom_bond_atom_site_label_2
_geom_bond_distance
_geom_bond_site_symmetry_2
Eu0 O0 2.514881 1_555
Eu0 O3 2.514881 1_444
Eu0 O2 2.514881 1_555
Eu0 O1 2.514881 1_444
Eu0 O3 2.514881 1_455
Eu0 O1 2.514881 1_545
Eu0 O2 2.514881 1_544
Eu0 O0 2.514881 1_454
Cu0 O1 1.899174 1_544
Cu0 O3 1.899174 1_454
Cu0 O3 1.899174 1_555
Cu0 O1 1.899174 1_555
Cu0 O6 2.581970 1_555
Cu1 O2 1.899174 1_554
Cu1 O0 1.899174 1_554
Cu1 O0 1.899174 1_565
Cu1 O2 1.899174 1_655
Cu1 O7 2.581970 1_555
Bi0 O6 2.098050 1_555
Bi0 O5 2.685507 1_455
Bi0 O5 2.685507 1_556
Bi0 O5 2.685507 1_444
Bi0 O5 2.685507 1_545
Bi1 O7 2.098050 1_555
Bi1 O4 2.685507 1_655
Bi1 O4 2.685507 1_565
Bi1 O4 2.685507 1_554
Bi1 O4 2.685507 1_666
O0 Sr0 2.671651 1_656
O0 Sr0 2.671651 1_555
O1 Sr1 2.671651 1_455
O1 Sr1 2.671651 1_556
O2 Sr0 2.671651 1_566
O2 Sr0 2.671651 1_555
O3 Sr1 2.671651 1_556
O3 Sr1 2.671651 1_545
O4 Sr0 2.829499 1_555
O5 Sr1 2.829499 1_555
O6 Sr1 2.783609 1_545
O6 Sr1 2.783609 1_455
O6 Sr1 2.783609 1_556
O6 Sr1 2.783609 1_444
O7 Sr0 2.783609 1_655
O7 Sr0 2.783609 1_565
O7 Sr0 2.783609 1_554
O7 Sr0 2.783609 1_666
