# generated using pymatgen
data_CrFeCoNi
_symmetry_space_group_name_H-M   'P 1'
_cell_length_a   9.98361500
_cell_length_b   9.98709314
_cell_length_c   9.99684625
_cell_angle_alpha   89.99746070
_cell_angle_beta   119.91749994
_cell_angle_gamma   119.97154808
_symmetry_Int_Tables_number   1
_chemical_formula_structural   CrFeCoNi
_chemical_formula_sum   'Cr16 Fe16 Co16 Ni16'
_cell_volume   706.01041150
_cell_formula_units_Z   16
loop_
 _symmetry_equiv_pos_site_id
 _symmetry_equiv_pos_as_xyz
  1  'x, y, z'
loop_
 _atom_site_type_symbol
 _atom_site_label
 _atom_site_symmetry_multiplicity
 _atom_site_fract_x
 _atom_site_fract_y
 _atom_site_fract_z
 _atom_site_occupancy
  Cr  Cr0  1  0.99950900  0.74918900  0.99646600  1
  Cr  Cr1  1  0.99929400  0.25024100  0.99203000  1
  Cr  Cr2  1  0.74902500  0.75170800  0.74818700  1
  Cr  Cr3  1  0.49646700  0.75007100  0.49426200  1
  Cr  Cr4  1  0.25331700  0.25153800  0.25060400  1
  Cr  Cr5  1  0.25053100  0.74853900  0.24999300  1
  Cr  Cr6  1  0.74845400  0.24980300  0.99948200  1
  Cr  Cr7  1  0.49382900  0.74894900  0.00324400  1
  Cr  Cr8  1  0.24979100  0.49601100  0.74516400  1
  Cr  Cr9  1  0.99875900  0.99867300  0.49807300  1
  Cr  Cr10  1  0.25155600  0.49870800  0.00584100  1
  Cr  Cr11  1  0.00458000  0.00534500  0.75879400  1
  Cr  Cr12  1  0.00208800  0.50645700  0.76090500  1
  Cr  Cr13  1  0.74718900  0.24775800  0.49866800  1
  Cr  Cr14  1  0.74719700  0.99896900  0.49982000  1
  Cr  Cr15  1  0.50438100  0.75117600  0.25389500  1
  Fe  Fe0  1  0.74792700  0.25095800  0.74362700  1
  Fe  Fe1  1  0.75074900  0.99993300  0.74721300  1
  Fe  Fe2  1  0.50137800  0.49825900  0.50145300  1
  Fe  Fe3  1  0.49933000  0.00003800  0.49983800  1
  Fe  Fe4  1  0.74746200  0.74659000  0.99865300  1
  Fe  Fe5  1  0.50352100  0.25458700  0.74977700  1
  Fe  Fe6  1  0.25303300  0.00211200  0.50075200  1
  Fe  Fe7  1  0.99907600  0.00029300  0.24963400  1
  Fe  Fe8  1  0.49991400  0.24999100  0.00243500  1
  Fe  Fe9  1  0.24767400  0.24740900  0.74946200  1
  Fe  Fe10  1  0.99910400  0.74983800  0.49742900  1
  Fe  Fe11  1  0.99981000  0.49951000  0.49958100  1
  Fe  Fe12  1  0.00185900  0.24949300  0.50078600  1
  Fe  Fe13  1  0.00312700  0.75212100  0.75331100  1
  Fe  Fe14  1  0.99948800  0.24982000  0.75048600  1
  Fe  Fe15  1  0.74975200  0.49603300  0.50178700  1
  Co  Co0  1  0.00020700  0.50080700  0.99921500  1
  Co  Co1  1  0.75221100  0.50109400  0.75299800  1
  Co  Co2  1  0.49883800  0.24906700  0.49876000  1
  Co  Co3  1  0.25023100  0.99985800  0.24948100  1
  Co  Co4  1  0.24642200  0.49802500  0.24550800  1
  Co  Co5  1  0.75317900  0.50279100  0.99958100  1
  Co  Co6  1  0.50241100  0.50328400  0.75319400  1
  Co  Co7  1  0.50015400  0.00173300  0.75087300  1
  Co  Co8  1  0.25011900  0.75046600  0.50188600  1
  Co  Co9  1  0.00267300  0.74828300  0.24956500  1
  Co  Co10  1  0.49676900  0.99805000  0.99750300  1
  Co  Co11  1  0.74814700  0.74988500  0.24718600  1
  Co  Co12  1  0.24983800  0.25036000  0.00127000  1
  Co  Co13  1  0.24711100  0.99695200  0.99866900  1
  Co  Co14  1  0.24797200  0.74846900  0.99886600  1
  Co  Co15  1  0.49731900  0.24808900  0.25010000  1
  Ni  Ni0  1  0.00009900  0.99877000  0.99978100  1
  Ni  Ni1  1  0.74890100  0.99876800  0.99877000  1
  Ni  Ni2  1  0.50110700  0.75195800  0.75114100  1
  Ni  Ni3  1  0.25222300  0.25142200  0.50115700  1
  Ni  Ni4  1  0.25261300  0.50194400  0.50052900  1
  Ni  Ni5  1  0.00133000  0.50157100  0.25067500  1
  Ni  Ni6  1  0.00122900  0.25067900  0.25038500  1
  Ni  Ni7  1  0.49820400  0.49860700  0.99848100  1
  Ni  Ni8  1  0.25088500  0.99894600  0.75069100  1
  Ni  Ni9  1  0.25031400  0.75049800  0.75125900  1
  Ni  Ni10  1  0.74980200  0.50058000  0.24937800  1
  Ni  Ni11  1  0.75015800  0.24907800  0.25101100  1
  Ni  Ni12  1  0.74950900  0.00060500  0.24766700  1
  Ni  Ni13  1  0.75153900  0.74914600  0.50170500  1
  Ni  Ni14  1  0.50118300  0.50095000  0.25152100  1
  Ni  Ni15  1  0.49813200  0.99914400  0.24954200  1
loop_
_geom_bond_atom_site_label_1
_geom_bond_atom_site_label_2
_geom_bond_distance
_geom_bond_site_symmetry_2
Cr0 Fe13 2.448957 1_655
Cr0 Ni0 2.489834 1_655
Cr0 Cr2 2.507223 1_555
Cr0 Fe4 2.514506 1_555
Cr0 Cr5 2.526777 1_656
Cr1 Fe14 2.415650 1_555
Cr1 Cr10 2.434855 1_656
Cr1 Fe1 2.478161 1_545
Cr1 Fe0 2.503214 1_555
Cr1 Ni0 2.516555 1_645
Cr1 Cr6 2.540116 1_555
Cr1 Ni1 2.540936 1_545
Cr1 Cr4 2.557662 1_656
Cr1 Ni6 2.573142 1_656
Cr2 Fe1 2.470545 1_555
Cr2 Ni13 2.476919 1_555
Cr2 Ni2 2.491219 1_555
Cr2 Ni0 2.495895 1_655
Cr2 Fe2 2.503677 1_555
Cr2 Fe13 2.509622 1_655
Cr2 Fe4 2.512048 1_555
Cr2 Cr3 2.525053 1_555
Cr3 Cr5 2.444087 1_555
Cr3 Fe3 2.482596 1_565
Cr3 Ni4 2.489198 1_555
Cr3 Ni13 2.514953 1_555
Cr3 Fe1 2.516685 1_555
Cr3 Fe2 2.540041 1_555
Cr3 Ni2 2.545092 1_555
Cr4 Ni14 2.479316 1_555
Cr4 Fe2 2.490350 1_555
Cr4 Ni3 2.510203 1_555
Cr4 Ni6 2.511382 1_555
Cr4 Fe7 2.520089 1_455
Cr4 Ni0 2.520328 1_544
Cr5 Ni5 2.481765 1_555
Cr5 Ni15 2.490834 1_555
Cr5 Fe3 2.509078 1_565
Cr6 Fe8 2.497115 1_556
Cr6 Fe5 2.498196 1_555
Cr6 Ni11 2.506090 1_556
Cr6 Ni1 2.509359 1_545
Cr6 Ni6 2.514729 1_656
Cr6 Ni5 2.517155 1_656
Cr6 Fe0 2.555160 1_555
Cr7 Ni12 2.484345 1_565
Cr7 Ni9 2.486975 1_554
Cr7 Ni7 2.523156 1_554
Cr7 Ni1 2.545046 1_554
Cr7 Ni2 2.556999 1_554
Cr7 Cr8 2.560212 1_554
Cr7 Fe4 2.567119 1_554
Cr8 Fe12 2.456896 1_555
Cr8 Ni4 2.460123 1_555
Cr8 Fe9 2.472875 1_555
Cr8 Fe11 2.496479 1_455
Cr8 Ni7 2.497053 1_555
Cr8 Ni2 2.505056 1_555
Cr8 Fe14 2.507297 1_455
Cr8 Ni9 2.539652 1_555
Cr9 Fe7 2.485228 1_565
Cr9 Fe10 2.486874 1_555
Cr9 Fe12 2.489627 1_665
Cr9 Ni13 2.499463 1_555
Cr9 Fe9 2.503032 1_665
Cr9 Fe6 2.508251 1_665
Cr9 Ni12 2.508641 1_565
Cr9 Ni3 2.513204 1_665
Cr9 Ni8 2.523053 1_655
Cr10 Ni14 2.466209 1_555
Cr10 Cr7 2.473842 1_555
Cr10 Ni7 2.500445 1_554
Cr10 Cr15 2.505198 1_555
Cr10 Cr12 2.512761 1_554
Cr10 Fe14 2.524010 1_454
Cr10 Cr8 2.597254 1_554
Cr11 Ni0 2.432012 1_545
Cr11 Fe1 2.451273 1_445
Cr11 Fe14 2.467925 1_455
Cr11 Fe9 2.471209 1_555
Cr11 Cr2 2.492016 1_445
Cr11 Fe13 2.522197 1_545
Cr11 Ni8 2.532411 1_545
Cr11 Cr14 2.551487 1_445
Cr11 Ni13 2.569029 1_445
Cr11 Cr9 2.578009 1_445
Cr12 Fe13 2.449637 1_555
Cr12 Fe0 2.464394 1_455
Cr12 Ni9 2.508889 1_555
Cr12 Fe15 2.509158 1_455
Cr12 Fe14 2.551792 1_455
Cr12 Fe11 2.601773 1_455
Cr12 Cr8 2.607141 1_555
Cr12 Cr13 2.607771 1_455
Cr13 Fe0 2.445313 1_555
Cr13 Fe15 2.466899 1_555
Cr13 Fe3 2.481182 1_555
Cr13 Cr14 2.484745 1_545
Cr13 Ni11 2.490661 1_555
Cr13 Ni15 2.490989 1_545
Cr13 Fe14 2.511047 1_555
Cr13 Fe11 2.514718 1_555
Cr13 Fe12 2.523386 1_655
Cr14 Fe1 2.455605 1_555
Cr14 Cr3 2.468273 1_555
Cr14 Cr15 2.471160 1_555
Cr14 Fe3 2.480049 1_565
Cr14 Ni15 2.498295 1_555
Cr14 Fe14 2.509939 1_565
Cr14 Ni13 2.516849 1_555
Cr14 Fe12 2.518716 1_665
Cr14 Cr9 2.521727 1_555
Cr14 Ni12 2.532304 1_565
Cr15 Cr3 2.443125 1_555
Cr15 Cr7 2.454501 1_555
Cr15 Ni14 2.483197 1_555
Cr15 Ni13 2.485678 1_555
Cr15 Ni12 2.501863 1_565
Cr15 Cr5 2.501959 1_555
Cr15 Ni15 2.508065 1_555
Fe0 Fe3 2.476283 1_555
Fe0 Fe14 2.483776 1_555
Fe0 Fe5 2.489370 1_555
Fe0 Fe1 2.521256 1_545
Fe1 Fe14 2.474466 1_565
Fe1 Fe3 2.495360 1_565
Fe1 Ni2 2.505413 1_555
Fe1 Ni0 2.516236 1_655
Fe1 Ni1 2.524013 1_555
Fe2 Ni3 2.475986 1_555
Fe2 Ni4 2.497603 1_555
Fe2 Ni14 2.497715 1_555
Fe2 Ni13 2.501404 1_555
Fe3 Fe6 2.473898 1_555
Fe3 Ni15 2.496222 1_545
Fe4 Ni7 2.482793 1_555
Fe4 Ni2 2.497134 1_555
Fe4 Ni1 2.511376 1_555
Fe4 Ni0 2.515867 1_655
Fe4 Fe7 2.525777 1_566
Fe5 Ni3 2.484642 1_555
Fe5 Fe6 2.509874 1_555
Fe5 Fe9 2.517640 1_555
Fe5 Ni8 2.543437 1_545
Fe5 Fe8 2.544023 1_556
Fe6 Ni3 2.493942 1_555
Fe6 Ni8 2.509429 1_545
Fe6 Fe7 2.517078 1_455
Fe7 Ni12 2.483396 1_555
Fe7 Ni6 2.489939 1_655
Fe7 Ni1 2.498338 1_544
Fe7 Ni0 2.502929 1_644
Fe7 Ni3 2.515648 1_655
Fe8 Ni10 2.490064 1_555
Fe8 Ni7 2.491700 1_554
Fe8 Ni11 2.499365 1_555
Fe8 Fe9 2.514024 1_554
Fe8 Ni8 2.516351 1_544
Fe9 Ni8 2.497543 1_545
Fe9 Ni7 2.503405 1_555
Fe9 Ni3 2.505183 1_555
Fe10 Ni10 2.488836 1_555
Fe10 Ni13 2.489773 1_555
Fe10 Fe11 2.503639 1_555
Fe10 Fe6 2.511984 1_665
Fe10 Ni8 2.514381 1_655
Fe10 Ni9 2.522753 1_655
Fe10 Fe15 2.535293 1_555
Fe10 Fe13 2.538143 1_655
Fe11 Fe15 2.490466 1_555
Fe11 Ni5 2.495900 1_655
Fe11 Ni11 2.497310 1_555
Fe11 Ni10 2.507074 1_555
Fe11 Ni4 2.507096 1_655
Fe11 Fe12 2.507204 1_655
Fe11 Ni9 2.515651 1_655
Fe12 Fe9 2.483664 1_555
Fe12 Ni3 2.488115 1_555
Fe12 Ni6 2.500132 1_555
Fe12 Ni11 2.506013 1_455
Fe12 Fe14 2.508120 1_455
Fe12 Ni12 2.512607 1_455
Fe12 Ni4 2.514746 1_555
Fe13 Ni8 2.483547 1_555
Fe13 Ni9 2.486218 1_555
Fe13 Ni13 2.501967 1_455
Fe13 Fe15 2.540537 1_455
Fe14 Fe9 2.495007 1_655
Fe15 Fe2 2.489195 1_555
Fe15 Ni13 2.519001 1_555
Fe15 Ni14 2.519672 1_555
Fe15 Ni10 2.523945 1_555
Co0 Cr12 2.392212 1_555
Co0 Co1 2.473190 1_455
Co0 Co14 2.476312 1_555
Co0 Co4 2.477171 1_556
Co0 Co5 2.478010 1_455
Co0 Cr0 2.484215 1_455
Co0 Cr10 2.487675 1_556
Co0 Cr5 2.494992 1_556
Co0 Cr1 2.498790 1_455
Co0 Ni5 2.508229 1_556
Co0 Cr6 2.512522 1_455
Co0 Fe0 2.529889 1_455
Co1 Cr12 2.429470 1_655
Co1 Fe5 2.457526 1_555
Co1 Co5 2.460272 1_555
Co1 Cr0 2.460289 1_555
Co1 Fe0 2.478011 1_555
Co1 Fe2 2.498608 1_555
Co1 Fe15 2.499429 1_555
Co1 Fe13 2.505560 1_655
Co1 Co6 2.505879 1_555
Co1 Cr2 2.519100 1_555
Co1 Co2 2.533719 1_555
Co2 Fe0 2.461218 1_555
Co2 Fe6 2.471236 1_555
Co2 Fe15 2.471982 1_555
Co2 Fe2 2.476143 1_555
Co2 Cr4 2.481520 1_555
Co2 Ni3 2.485924 1_555
Co2 Cr13 2.486455 1_555
Co2 Fe5 2.486486 1_555
Co2 Fe3 2.489546 1_555
Co2 Co3 2.494726 1_545
Co3 Ni15 2.478215 1_555
Co3 Co9 2.493753 1_555
Co3 Ni0 2.494426 1_554
Co3 Fe3 2.497099 1_565
Co3 Fe6 2.498060 1_565
Co3 Cr4 2.498259 1_565
Co3 Fe7 2.510371 1_465
Co3 Cr5 2.511446 1_555
Co3 Cr0 2.520823 1_454
Co4 Cr10 2.421823 1_555
Co4 Cr5 2.481705 1_555
Co4 Ni6 2.484777 1_555
Co4 Ni5 2.490767 1_555
Co4 Cr4 2.496607 1_555
Co4 Ni14 2.499358 1_555
Co4 Cr3 2.506363 1_555
Co4 Cr1 2.509206 1_454
Co4 Cr15 2.512096 1_555
Co4 Ni4 2.518974 1_555
Co4 Fe2 2.554058 1_555
Co5 Fe4 2.463763 1_555
Co5 Cr0 2.476756 1_555
Co5 Co9 2.479979 1_656
Co5 Co6 2.489155 1_555
Co5 Fe5 2.492378 1_555
Co5 Ni5 2.503127 1_656
Co5 Cr6 2.503373 1_555
Co5 Ni10 2.514115 1_556
Co5 Ni7 2.519445 1_555
Co5 Fe8 2.542061 1_556
Co6 Fe4 2.446149 1_555
Co6 Cr8 2.446942 1_555
Co6 Ni7 2.473355 1_555
Co6 Fe5 2.489626 1_555
Co6 Ni2 2.490090 1_555
Co6 Cr2 2.497917 1_555
Co6 Ni4 2.506545 1_555
Co6 Fe2 2.511889 1_555
Co6 Ni3 2.521851 1_555
Co6 Fe9 2.532094 1_555
Co7 Ni8 2.473906 1_545
Co7 Cr6 2.485678 1_555
Co7 Fe6 2.488932 1_555
Co7 Ni1 2.498809 1_545
Co7 Ni2 2.499289 1_545
Co7 Co8 2.503586 1_545
Co7 Ni9 2.504736 1_545
Co7 Fe3 2.505496 1_555
Co7 Fe5 2.508749 1_555
Co7 Fe0 2.519236 1_555
Co7 Fe1 2.529255 1_545
Co8 Fe10 2.480960 1_455
Co8 Co9 2.489238 1_555
Co8 Ni9 2.491973 1_555
Co8 Fe11 2.492349 1_455
Co8 Ni2 2.494489 1_555
Co8 Ni4 2.494649 1_555
Co8 Fe6 2.498897 1_565
Co8 Cr3 2.500272 1_555
Co8 Fe3 2.501596 1_565
Co8 Ni5 2.502921 1_555
Co8 Cr5 2.520280 1_555
Co9 Ni5 2.457320 1_555
Co9 Cr5 2.471110 1_555
Co9 Fe10 2.495980 1_455
Co9 Ni10 2.499720 1_455
Co9 Cr0 2.514659 1_454
Co9 Fe4 2.523054 1_454
Co9 Fe6 2.527504 1_565
Co9 Fe7 2.534983 1_465
Co10 Ni8 2.468634 1_555
Co10 Ni9 2.471243 1_555
Co10 Cr7 2.474265 1_556
Co10 Co7 2.482571 1_565
Co10 Co13 2.492876 1_555
Co10 Co14 2.496131 1_555
Co10 Fe8 2.500800 1_566
Co10 Ni12 2.502572 1_566
Co10 Cr6 2.504784 1_565
Co10 Ni1 2.507312 1_555
Co10 Ni15 2.512831 1_556
Co10 Ni11 2.525113 1_566
Co11 Cr15 2.474179 1_555
Co11 Fe4 2.481317 1_554
Co11 Cr7 2.488707 1_555
Co11 Fe7 2.491973 1_565
Co11 Ni12 2.497191 1_565
Co11 Ni10 2.498150 1_555
Co11 Ni14 2.498790 1_555
Co11 Cr9 2.500749 1_555
Co11 Ni7 2.502240 1_554
Co11 Fe10 2.506907 1_555
Co11 Ni13 2.527728 1_555
Co11 Co9 2.537380 1_655
Co12 Cr11 2.439783 1_554
Co12 Cr1 2.455965 1_454
Co12 Cr10 2.472017 1_555
Co12 Cr4 2.475360 1_555
Co12 Fe8 2.492722 1_555
Co12 Co15 2.493623 1_555
Co12 Ni7 2.494511 1_554
Co12 Ni0 2.496750 1_544
Co12 Fe14 2.503671 1_454
Co12 Ni14 2.506520 1_555
Co12 Fe9 2.506628 1_554
Co12 Co13 2.517314 1_544
Co13 Fe13 2.453214 1_555
Co13 Cr11 2.455845 1_565
Co13 Cr0 2.463363 1_455
Co13 Ni0 2.480736 1_555
Co13 Co14 2.485926 1_555
Co13 Co3 2.491929 1_556
Co13 Ni8 2.497932 1_555
Co13 Ni15 2.499298 1_556
Co13 Fe8 2.508051 1_566
Co13 Co15 2.515159 1_566
Co14 Cr12 2.402958 1_555
Co14 Cr7 2.430596 1_556
Co14 Fe13 2.471038 1_555
Co14 Cr0 2.472298 1_455
Co14 Ni9 2.487020 1_555
Co14 Cr5 2.497831 1_556
Co14 Ni15 2.509051 1_556
Co14 Cr10 2.512922 1_556
Co14 Cr15 2.544481 1_556
Co15 Cr4 2.455910 1_555
Co15 Co3 2.470984 1_545
Co15 Co2 2.478277 1_555
Co15 Fe8 2.488865 1_555
Co15 Ni15 2.490317 1_545
Co15 Cr13 2.494523 1_555
Co15 Fe15 2.500783 1_555
Co15 Ni14 2.506229 1_555
Co15 Ni11 2.514789 1_555
Co15 Ni10 2.525861 1_555
Ni0 Ni1 2.502829 1_455
Ni1 Ni2 2.474486 1_555
Ni1 Ni12 2.485209 1_566
Ni1 Ni6 2.519944 1_666
Ni2 Ni9 2.497159 1_555
Ni2 Ni4 2.505483 1_555
Ni3 Ni4 2.500056 1_555
Ni3 Ni6 2.505810 1_555
Ni4 Ni5 2.504511 1_555
Ni4 Ni6 2.509355 1_555
Ni5 Ni6 2.505179 1_555
Ni8 Ni9 2.478443 1_555
Ni10 Ni14 2.494711 1_555
Ni10 Ni5 2.499775 1_655
Ni10 Ni7 2.503370 1_554
Ni10 Ni11 2.513592 1_555
Ni11 Ni12 2.478476 1_555
Ni11 Ni15 2.499943 1_545
Ni11 Ni6 2.501784 1_655
Ni11 Ni5 2.517420 1_655
Ni12 Ni6 2.492932 1_655
Ni12 Ni15 2.511822 1_545
Ni13 Ni14 2.494281 1_555
Ni14 Ni7 2.514872 1_554
