# generated using pymatgen
data_MgAl2
_symmetry_space_group_name_H-M   'P 1'
_cell_length_a   4.11578200
_cell_length_b   4.11578200
_cell_length_c   13.38845547
_cell_angle_alpha   98.84177814
_cell_angle_beta   98.84177814
_cell_angle_gamma   90.00000000
_symmetry_Int_Tables_number   1
_chemical_formula_structural   MgAl2
_chemical_formula_sum   'Mg4 Al8'
_cell_volume   221.37286598
_cell_formula_units_Z   4
loop_
 _symmetry_equiv_pos_site_id
 _symmetry_equiv_pos_as_xyz
  1  'x, y, z'
loop_
 _atom_site_type_symbol
 _atom_site_label
 _atom_site_symmetry_multiplicity
 _atom_site_fract_x
 _atom_site_fract_y
 _atom_site_fract_z
 _atom_site_occupancy
  Mg  Mg0  1  0.33151400  0.83151400  0.66302800  1
  Mg  Mg1  1  0.91848600  0.91848600  0.83697200  1
  Mg  Mg2  1  0.16848600  0.66848600  0.33697200  1
  Mg  Mg3  1  0.08151400  0.08151400  0.16302800  1
  Al  Al0  1  0.50028900  0.00028900  0.00057800  1
  Al  Al1  1  0.74971100  0.74971100  0.49942200  1
  Al  Al2  1  0.99971100  0.49971100  0.99942200  1
  Al  Al3  1  0.25028900  0.25028900  0.50057800  1
  Al  Al4  1  0.66954100  0.16954100  0.33908200  1
  Al  Al5  1  0.58045900  0.58045900  0.16091800  1
  Al  Al6  1  0.83045900  0.33045900  0.66091800  1
  Al  Al7  1  0.41954100  0.41954100  0.83908200  1
loop_
_geom_bond_atom_site_label_1
_geom_bond_atom_site_label_2
_geom_bond_distance
_geom_bond_site_symmetry_2
Mg0 Mg1 3.066293 1_455
Mg0 Mg1 3.066293 1_555
Mg2 Mg3 3.066293 1_565
Mg2 Mg3 3.066293 1_555
Al0 Al2 2.910337 1_544
Al0 Al2 2.910337 1_444
Al0 Al2 2.910337 1_454
Al0 Al2 2.910337 1_554
Al0 Al5 2.936921 1_555
Al0 Al5 2.936921 1_545
Al0 Al7 2.947719 1_554
Al0 Al7 2.947719 1_544
Al0 Mg3 2.956658 1_555
Al0 Mg3 2.956658 1_655
Al0 Mg1 2.967523 1_444
Al0 Mg1 2.967523 1_544
Al1 Al3 2.910337 1_565
Al1 Al3 2.910337 1_555
Al1 Al3 2.910337 1_655
Al1 Al3 2.910337 1_665
Al1 Al4 2.936921 1_565
Al1 Al4 2.936921 1_555
Al1 Al6 2.947719 1_555
Al1 Al6 2.947719 1_565
Al1 Mg2 2.956658 1_655
Al1 Mg2 2.956658 1_555
Al1 Mg0 2.967523 1_655
Al1 Mg0 2.967523 1_555
Al2 Al7 2.936921 1_655
Al2 Al7 2.936921 1_555
Al2 Al5 2.947719 1_656
Al2 Al5 2.947719 1_556
Al2 Mg1 2.956658 1_545
Al2 Mg1 2.956658 1_555
Al2 Mg3 2.967523 1_656
Al2 Mg3 2.967523 1_666
Al3 Al6 2.936921 1_555
Al3 Al6 2.936921 1_455
Al3 Al4 2.947719 1_455
Al3 Al4 2.947719 1_555
Al3 Mg0 2.956658 1_555
Al3 Mg0 2.956658 1_545
Al3 Mg2 2.967523 1_555
Al3 Mg2 2.967523 1_545
Al4 Mg2 2.910428 1_655
Al4 Mg2 2.910428 1_645
Al4 Mg2 2.910428 1_555
Al4 Mg2 2.910428 1_545
Al4 Mg3 3.086790 1_655
Al4 Mg3 3.086790 1_555
Al4 Al5 3.107397 1_555
Al4 Al5 3.107397 1_545
Al5 Mg3 2.910428 1_555
Al5 Mg3 2.910428 1_655
Al5 Mg3 2.910428 1_565
Al5 Mg3 2.910428 1_665
Al5 Mg2 3.086790 1_555
Al5 Mg2 3.086790 1_655
Al6 Mg0 2.910428 1_545
Al6 Mg0 2.910428 1_555
Al6 Mg0 2.910428 1_645
Al6 Mg0 2.910428 1_655
Al6 Mg1 3.086790 1_545
Al6 Mg1 3.086790 1_555
Al6 Al7 3.107397 1_655
Al6 Al7 3.107397 1_555
Al7 Mg1 2.910428 1_455
Al7 Mg1 2.910428 1_545
Al7 Mg1 2.910428 1_555
Al7 Mg1 2.910428 1_445
Al7 Mg0 3.086790 1_545
Al7 Mg0 3.086790 1_555
