# generated using pymatgen
data_Mg14CrSiO16
_symmetry_space_group_name_H-M   'P 1'
_cell_length_a   8.70991509
_cell_length_b   8.54835075
_cell_length_c   4.28659001
_cell_angle_alpha   90.00000000
_cell_angle_beta   90.00000000
_cell_angle_gamma   90.00000000
_symmetry_Int_Tables_number   1
_chemical_formula_structural   Mg14CrSiO16
_chemical_formula_sum   'Mg14 Cr1 Si1 O16'
_cell_volume   319.15981323
_cell_formula_units_Z   1
loop_
 _symmetry_equiv_pos_site_id
 _symmetry_equiv_pos_as_xyz
  1  'x, y, z'
loop_
 _atom_site_type_symbol
 _atom_site_label
 _atom_site_symmetry_multiplicity
 _atom_site_fract_x
 _atom_site_fract_y
 _atom_site_fract_z
 _atom_site_occupancy
  Mg  Mg0  1  0.50000000  0.00000000  0.00000000  1
  Mg  Mg1  1  0.50000000  0.50000000  0.00000000  1
  Mg  Mg2  1  0.00000000  0.25173723  0.50000000  1
  Mg  Mg3  1  0.00000000  0.74826277  0.50000000  1
  Mg  Mg4  1  0.50000000  0.25046304  0.50000000  1
  Mg  Mg5  1  0.50000000  0.74953696  0.50000000  1
  Mg  Mg6  1  0.25395143  0.00000000  0.50000000  1
  Mg  Mg7  1  0.25363154  0.50000000  0.50000000  1
  Mg  Mg8  1  0.74604857  0.00000000  0.50000000  1
  Mg  Mg9  1  0.74636846  0.50000000  0.50000000  1
  Mg  Mg10  1  0.25412418  0.25186236  0.00000000  1
  Mg  Mg11  1  0.25412418  0.74813764  0.00000000  1
  Mg  Mg12  1  0.74587582  0.25186236  0.00000000  1
  Mg  Mg13  1  0.74587582  0.74813764  0.00000000  1
  Cr  Cr0  1  0.00000000  0.50000000  0.00000000  1
  Si  Si0  1  0.00000000  0.00000000  0.00000000  1
  O  O0  1  0.26107972  0.00000000  0.00000000  1
  O  O1  1  0.26518341  0.50000000  0.00000000  1
  O  O2  1  0.73892028  0.00000000  0.00000000  1
  O  O3  1  0.73481659  0.50000000  0.00000000  1
  O  O4  1  0.24834529  0.24949122  0.50000000  1
  O  O5  1  0.24834529  0.75050878  0.50000000  1
  O  O6  1  0.75165471  0.24949122  0.50000000  1
  O  O7  1  0.75165471  0.75050878  0.50000000  1
  O  O8  1  0.00000000  0.00000000  0.50000000  1
  O  O9  1  0.00000000  0.50000000  0.50000000  1
  O  O10  1  0.50000000  0.00000000  0.50000000  1
  O  O11  1  0.50000000  0.50000000  0.50000000  1
  O  O12  1  0.00000000  0.25735620  0.00000000  1
  O  O13  1  0.00000000  0.74264380  0.00000000  1
  O  O14  1  0.50000000  0.24864177  0.00000000  1
  O  O15  1  0.50000000  0.75135823  0.00000000  1
loop_
_geom_bond_atom_site_label_1
_geom_bond_atom_site_label_2
_geom_bond_distance
_geom_bond_site_symmetry_2
Mg0 O2 2.080975 1_555
Mg0 O0 2.080975 1_555
Mg0 O15 2.125477 1_545
Mg0 O14 2.125477 1_555
Mg0 O10 2.143295 1_555
Mg0 O10 2.143295 1_554
Mg1 O3 2.045233 1_555
Mg1 O1 2.045233 1_555
Mg1 O11 2.143295 1_554
Mg1 O11 2.143295 1_555
Mg1 O14 2.148698 1_555
Mg1 O15 2.148698 1_555
Mg2 O9 2.122237 1_555
Mg2 O12 2.143833 1_556
Mg2 O12 2.143833 1_555
Mg2 O8 2.151938 1_555
Mg2 O4 2.163152 1_555
Mg2 O6 2.163152 1_455
Mg3 O9 2.122237 1_555
Mg3 O13 2.143833 1_556
Mg3 O13 2.143833 1_555
Mg3 O8 2.151938 1_565
Mg3 O5 2.163152 1_555
Mg3 O7 2.163152 1_455
Mg4 O11 2.133129 1_555
Mg4 O10 2.141046 1_555
Mg4 O14 2.143352 1_555
Mg4 O14 2.143352 1_556
Mg4 O6 2.191907 1_555
Mg4 O4 2.191907 1_555
Mg5 O11 2.133129 1_555
Mg5 O10 2.141046 1_565
Mg5 O15 2.143352 1_556
Mg5 O15 2.143352 1_555
Mg5 O7 2.191907 1_555
Mg5 O5 2.191907 1_555
Mg6 O5 2.133297 1_545
Mg6 O4 2.133297 1_555
Mg6 O10 2.143062 1_555
Mg6 O0 2.144194 1_555
Mg6 O0 2.144194 1_556
Mg6 O8 2.211895 1_555
Mg7 O4 2.141932 1_555
Mg7 O5 2.141932 1_555
Mg7 O1 2.145655 1_556
Mg7 O1 2.145655 1_555
Mg7 O11 2.145848 1_555
Mg7 O9 2.209109 1_555
Mg8 O6 2.133297 1_555
Mg8 O7 2.133297 1_545
Mg8 O10 2.143062 1_555
Mg8 O2 2.144194 1_555
Mg8 O2 2.144194 1_556
Mg8 O8 2.211895 1_655
Mg9 O7 2.141932 1_555
Mg9 O6 2.141932 1_555
Mg9 O3 2.145655 1_556
Mg9 O3 2.145655 1_555
Mg9 O11 2.145848 1_555
Mg9 O9 2.209109 1_655
Mg10 O1 2.123354 1_555
Mg10 O14 2.141734 1_555
Mg10 O4 2.143982 1_554
Mg10 O4 2.143982 1_555
Mg10 O0 2.153860 1_555
Mg10 O12 2.213898 1_555
Mg11 O1 2.123354 1_555
Mg11 O15 2.141734 1_555
Mg11 O5 2.143982 1_554
Mg11 O5 2.143982 1_555
Mg11 O0 2.153860 1_565
Mg11 O13 2.213898 1_555
Mg12 O3 2.123354 1_555
Mg12 O14 2.141734 1_555
Mg12 O6 2.143982 1_554
Mg12 O6 2.143982 1_555
Mg12 O2 2.153860 1_555
Mg12 O12 2.213898 1_655
Mg13 O3 2.123354 1_555
Mg13 O15 2.141734 1_555
Mg13 O7 2.143982 1_554
Mg13 O7 2.143982 1_555
Mg13 O2 2.153860 1_565
Mg13 O13 2.213898 1_655
Cr0 O13 2.074204 1_555
Cr0 O12 2.074204 1_555
Cr0 O9 2.143295 1_554
Cr0 O9 2.143295 1_555
Cr0 O1 2.309725 1_555
Cr0 O3 2.309725 1_455
O0 Si0 2.273982 1_555
O2 Si0 2.273982 1_655
O8 Si0 2.143295 1_555
O8 Si0 2.143295 1_556
O12 Si0 2.199971 1_555
O13 Si0 2.199971 1_565
