# generated using pymatgen
data_Cs2U(PtSe2)3
_symmetry_space_group_name_H-M   'P 1'
_cell_length_a   12.02423443
_cell_length_b   10.26851486
_cell_length_c   9.55986083
_cell_angle_alpha   74.56543292
_cell_angle_beta   55.40500481
_cell_angle_gamma   50.02956227
_symmetry_Int_Tables_number   1
_chemical_formula_structural   Cs2U(PtSe2)3
_chemical_formula_sum   'Cs4 U2 Pt6 Se12'
_cell_volume   735.50720285
_cell_formula_units_Z   2
loop_
 _symmetry_equiv_pos_site_id
 _symmetry_equiv_pos_as_xyz
  1  'x, y, z'
loop_
 _atom_site_type_symbol
 _atom_site_label
 _atom_site_symmetry_multiplicity
 _atom_site_fract_x
 _atom_site_fract_y
 _atom_site_fract_z
 _atom_site_occupancy
  Cs  Cs0  1  0.75000000  0.75000000  0.75000000  1
  Cs  Cs1  1  0.25000000  0.25000000  0.25000000  1
  Cs  Cs2  1  0.31344600  0.68655400  0.31344600  1
  Cs  Cs3  1  0.68655400  0.31344600  0.68655400  1
  U  U0  1  0.83238100  0.83238100  0.16761900  1
  U  U1  1  0.16761900  0.16761900  0.83238100  1
  Pt  Pt0  1  0.50470100  0.17234800  0.49529900  1
  Pt  Pt1  1  0.82765200  0.49529900  0.17234800  1
  Pt  Pt2  1  0.49529900  0.82765200  0.50470100  1
  Pt  Pt3  1  0.17234800  0.50470100  0.82765200  1
  Pt  Pt4  1  0.83233900  0.16766100  0.16766100  1
  Pt  Pt5  1  0.16766100  0.83233900  0.83233900  1
  Se  Se0  1  0.81566300  0.98338300  0.39706000  1
  Se  Se1  1  0.80389400  0.39706000  0.98338300  1
  Se  Se2  1  0.39706000  0.80389400  0.81566300  1
  Se  Se3  1  0.98338300  0.81566300  0.80389400  1
  Se  Se4  1  0.18433700  0.01661700  0.60294000  1
  Se  Se5  1  0.19610600  0.60294000  0.01661700  1
  Se  Se6  1  0.60294000  0.19610600  0.18433700  1
  Se  Se7  1  0.01661700  0.18433700  0.19610600  1
  Se  Se8  1  0.80596600  0.59644600  0.40355400  1
  Se  Se9  1  0.19403400  0.40355400  0.59644600  1
  Se  Se10  1  0.40355400  0.19403400  0.80596600  1
  Se  Se11  1  0.59644600  0.80596600  0.19403400  1
loop_
_geom_bond_atom_site_label_1
_geom_bond_atom_site_label_2
_geom_bond_distance
_geom_bond_site_symmetry_2
Cs0 Se9 3.576837 1_655
Cs0 Se10 3.576837 1_565
Cs0 Se8 3.576837 1_555
Cs0 Se11 3.576837 1_556
Cs0 Se2 3.585087 1_555
Cs0 Se1 3.585087 1_555
Cs0 Se0 3.585087 1_555
Cs0 Se3 3.585087 1_555
Cs1 Se8 3.576837 1_455
Cs1 Se10 3.576837 1_554
Cs1 Se9 3.576837 1_555
Cs1 Se11 3.576837 1_545
Cs1 Se4 3.585087 1_555
Cs1 Se7 3.585087 1_555
Cs1 Se6 3.585087 1_555
Cs1 Se5 3.585087 1_555
Cs2 Se9 3.819787 1_555
Cs2 Se11 3.819787 1_555
Cs2 Se3 3.861370 1_455
Cs2 Se1 3.861370 1_554
Cs2 Se6 3.861370 1_555
Cs2 Se4 3.861370 1_565
Cs2 Se0 4.263766 1_455
Cs2 Se2 4.263766 1_554
Cs2 Se7 4.263766 1_565
Cs2 Se5 4.263766 1_555
Cs3 Se10 3.819787 1_555
Cs3 Se8 3.819787 1_555
Cs3 Se0 3.861370 1_545
Cs3 Se2 3.861370 1_555
Cs3 Se5 3.861370 1_556
Cs3 Se7 3.861370 1_655
Cs3 Se4 4.263766 1_655
Cs3 Se6 4.263766 1_556
Cs3 Se1 4.263766 1_555
Cs3 Se3 4.263766 1_545
Pt0 Se9 2.500332 1_555
Pt0 Se10 2.500332 1_555
Pt0 Se6 2.507752 1_555
Pt0 Se0 2.507752 1_545
Pt1 Se8 2.500332 1_555
Pt1 Se11 2.500332 1_555
Pt1 Se7 2.507752 1_655
Pt1 Se1 2.507752 1_554
Pt2 Se8 2.500332 1_555
Pt2 Se11 2.500332 1_555
Pt2 Se4 2.507752 1_565
Pt2 Se2 2.507752 1_555
Pt3 Se10 2.500332 1_555
Pt3 Se9 2.500332 1_555
Pt3 Se3 2.507752 1_455
Pt3 Se5 2.507752 1_556
Pt4 Se1 2.491893 1_554
Pt4 Se7 2.491893 1_655
Pt4 Se0 2.491893 1_545
Pt4 Se6 2.491893 1_555
Pt5 Se2 2.491893 1_555
Pt5 Se4 2.491893 1_565
Pt5 Se5 2.491893 1_556
Pt5 Se3 2.491893 1_455
Se0 U0 2.857432 1_555
Se1 U1 2.857432 1_655
Se2 U1 2.857432 1_565
Se3 U0 2.857432 1_556
Se4 U1 2.857432 1_555
Se5 U0 2.857432 1_455
Se6 U0 2.857432 1_545
Se7 U1 2.857432 1_554
Se8 U0 2.885176 1_555
Se9 U1 2.885176 1_555
Se10 U1 2.885176 1_555
Se11 U0 2.885176 1_555
