# generated using pymatgen
data_Ga(C2N3)3
_symmetry_space_group_name_H-M   'P 1'
_cell_length_a   7.48925195
_cell_length_b   13.20257061
_cell_length_c   11.56295900
_cell_angle_alpha   90.00000000
_cell_angle_beta   90.00000000
_cell_angle_gamma   28.18409828
_symmetry_Int_Tables_number   1
_chemical_formula_structural   Ga(C2N3)3
_chemical_formula_sum   'Ga2 C12 N18'
_cell_volume   539.99473875
_cell_formula_units_Z   2
loop_
 _symmetry_equiv_pos_site_id
 _symmetry_equiv_pos_as_xyz
  1  'x, y, z'
loop_
 _atom_site_type_symbol
 _atom_site_label
 _atom_site_symmetry_multiplicity
 _atom_site_fract_x
 _atom_site_fract_y
 _atom_site_fract_z
 _atom_site_occupancy
  Ga  Ga0  1  0.00000000  0.28089800  0.25000000  1
  Ga  Ga1  1  0.00000000  0.71910200  0.75000000  1
  C  C0  1  0.67955200  0.78369100  0.25000000  1
  C  C1  1  0.67955200  0.53675600  0.75000000  1
  C  C2  1  0.32044800  0.21630900  0.75000000  1
  C  C3  1  0.32044800  0.46324400  0.25000000  1
  C  C4  1  0.67943800  0.30447200  0.90718600  1
  C  C5  1  0.67943800  0.01609000  0.09281400  1
  C  C6  1  0.67943800  0.30447200  0.59281400  1
  C  C7  1  0.67943800  0.01609000  0.40718600  1
  C  C8  1  0.32056200  0.69552800  0.09281400  1
  C  C9  1  0.32056200  0.98391000  0.90718600  1
  C  C10  1  0.32056200  0.69552800  0.40718600  1
  C  C11  1  0.32056200  0.98391000  0.59281400  1
  N  N0  1  0.00000000  0.57688900  0.25000000  1
  N  N1  1  0.00000000  0.42311100  0.75000000  1
  N  N2  1  0.37712200  0.97213200  0.25000000  1
  N  N3  1  0.37712200  0.65074600  0.75000000  1
  N  N4  1  0.62287800  0.02786800  0.75000000  1
  N  N5  1  0.62287800  0.34925400  0.25000000  1
  N  N6  1  0.00000000  0.12566300  0.95568700  1
  N  N7  1  0.00000000  0.87433700  0.04431300  1
  N  N8  1  0.00000000  0.12566300  0.54431300  1
  N  N9  1  0.00000000  0.87433700  0.45568700  1
  N  N10  1  0.37648100  0.47085700  0.86861800  1
  N  N11  1  0.37648100  0.15266300  0.13138200  1
  N  N12  1  0.37648100  0.47085700  0.63138200  1
  N  N13  1  0.37648100  0.15266300  0.36861800  1
  N  N14  1  0.62351900  0.52914300  0.13138200  1
  N  N15  1  0.62351900  0.84733700  0.86861800  1
  N  N16  1  0.62351900  0.52914300  0.36861800  1
  N  N17  1  0.62351900  0.84733700  0.63138200  1
loop_
_geom_bond_atom_site_label_1
_geom_bond_atom_site_label_2
_geom_bond_distance
_geom_bond_site_symmetry_2
Ga0 N16 2.069356 1_455
Ga0 N14 2.069356 1_455
Ga0 N13 2.069361 1_555
Ga0 N11 2.069361 1_555
Ga0 N2 2.073180 1_545
Ga0 N5 2.073180 1_455
Ga1 N12 2.069356 1_555
Ga1 N10 2.069356 1_555
Ga1 N15 2.069361 1_455
Ga1 N17 2.069361 1_455
Ga1 N4 2.073180 1_465
Ga1 N3 2.073180 1_555
C0 N2 1.177260 1_555
C0 N0 1.289563 1_655
C1 N3 1.177254 1_555
C1 N1 1.289570 1_655
C2 N4 1.177260 1_555
C2 N1 1.289563 1_555
C3 N5 1.177254 1_555
C3 N0 1.289570 1_555
C4 N10 1.177282 1_555
C4 N6 1.288439 1_655
C5 N11 1.177280 1_555
C5 N7 1.288440 1_645
C6 N12 1.177282 1_555
C6 N8 1.288439 1_655
C7 N13 1.177280 1_555
C7 N9 1.288440 1_645
C8 N14 1.177282 1_555
C8 N7 1.288439 1_555
C9 N15 1.177280 1_555
C9 N6 1.288440 1_565
C10 N16 1.177282 1_555
C10 N9 1.288439 1_555
C11 N17 1.177280 1_555
C11 N8 1.288440 1_565
