# generated using pymatgen
data_Al2P3O13
_symmetry_space_group_name_H-M   'P 1'
_cell_length_a   10.61956300
_cell_length_b   7.48839700
_cell_length_c   7.82523715
_cell_angle_alpha   71.57793404
_cell_angle_beta   90.00000000
_cell_angle_gamma   90.00000000
_symmetry_Int_Tables_number   1
_chemical_formula_structural   Al2P3O13
_chemical_formula_sum   'Al4 P6 O26'
_cell_volume   590.40062291
_cell_formula_units_Z   2
loop_
 _symmetry_equiv_pos_site_id
 _symmetry_equiv_pos_as_xyz
  1  'x, y, z'
loop_
 _atom_site_type_symbol
 _atom_site_label
 _atom_site_symmetry_multiplicity
 _atom_site_fract_x
 _atom_site_fract_y
 _atom_site_fract_z
 _atom_site_occupancy
  Al  Al0  1  0.39563600  0.03887300  0.58922800  1
  Al  Al1  1  0.89563600  0.96112700  0.41077200  1
  Al  Al2  1  0.62977300  0.40565300  0.01448900  1
  Al  Al3  1  0.12977300  0.59434700  0.98551100  1
  P  P0  1  0.60429600  0.09189700  0.41307600  1
  P  P1  1  0.10429600  0.90810300  0.58692400  1
  P  P2  1  0.41940800  0.33553000  0.77048000  1
  P  P3  1  0.91940800  0.66447000  0.22952000  1
  P  P4  1  0.39607100  0.65020500  0.91568300  1
  P  P5  1  0.89607100  0.34979500  0.08431700  1
  O  O0  1  0.35039300  0.16343000  0.76523900  1
  O  O1  1  0.85039300  0.83657000  0.23476100  1
  O  O2  1  0.78498300  0.31022300  0.97862100  1
  O  O3  1  0.28498300  0.68977700  0.02137900  1
  O  O4  1  0.54545500  0.30972300  0.86263000  1
  O  O5  1  0.04545500  0.69027700  0.13737000  1
  O  O6  1  0.83821200  0.52413500  0.15851000  1
  O  O7  1  0.33821200  0.47586500  0.84149000  1
  O  O8  1  0.47944400  0.98992100  0.39283800  1
  O  O9  1  0.97944400  0.01007900  0.60716200  1
  O  O10  1  0.42871700  0.80888600  0.74868100  1
  O  O11  1  0.92871700  0.19111400  0.25131900  1
  O  O12  1  0.22701800  0.02440800  0.54510200  1
  O  O13  1  0.72701800  0.97559200  0.45489800  1
  O  O14  1  0.50699200  0.56810500  0.03574300  1
  O  O15  1  0.00699200  0.43189500  0.96425700  1
  O  O16  1  0.62566400  0.26447600  0.24505700  1
  O  O17  1  0.12566400  0.73552400  0.75494300  1
  O  O18  1  0.56462200  0.14883200  0.58166700  1
  O  O19  1  0.06462200  0.85116800  0.41833300  1
  O  O20  1  0.39669900  0.38384800  0.43525600  1
  O  O21  1  0.89669900  0.61615200  0.56474400  1
  O  O22  1  0.70921100  0.61773100  0.85093100  1
  O  O23  1  0.20921100  0.38226900  0.14906900  1
  O  O24  1  0.43150500  0.47677800  0.54833400  1
  O  O25  1  0.93150500  0.52322200  0.45166600  1
loop_
_geom_bond_atom_site_label_1
_geom_bond_atom_site_label_2
_geom_bond_distance
_geom_bond_site_symmetry_2
Al0 O10 1.813345 1_545
Al0 O12 1.833311 1_555
Al0 O8 1.909001 1_545
Al0 O0 1.951875 1_555
Al0 O18 1.967526 1_555
Al0 O20 2.481553 1_555
Al1 O11 1.813345 1_565
Al1 O13 1.833311 1_555
Al1 O9 1.909001 1_565
Al1 O1 1.951875 1_555
Al1 O19 1.967526 1_655
Al1 O21 2.481553 1_555
Al2 O16 1.780257 1_555
Al2 O4 1.808173 1_554
Al2 O14 1.826342 1_555
Al2 O2 1.852835 1_554
Al2 O22 1.893996 1_554
Al3 O17 1.780257 1_555
Al3 O5 1.808173 1_556
Al3 O15 1.826342 1_555
Al3 O3 1.852835 1_556
Al3 O23 1.893996 1_556
O0 P2 1.494365 1_555
O1 P3 1.494365 1_555
O2 P5 1.522666 1_556
O3 P4 1.522666 1_554
O4 P2 1.503663 1_555
O5 P3 1.503663 1_455
O6 P3 1.589245 1_555
O6 P5 1.702368 1_555
O7 P2 1.589245 1_555
O7 P4 1.702368 1_555
O8 P0 1.562881 1_565
O9 P1 1.562881 1_645
O10 P4 1.502837 1_555
O11 P5 1.502837 1_555
O12 P1 1.544008 1_545
O13 P0 1.544008 1_565
O14 P4 1.510992 1_554
O15 P5 1.510992 1_456
O16 P0 1.541554 1_555
O17 P1 1.541554 1_555
O18 P0 1.566922 1_555
O19 P1 1.566922 1_555
O20 O24 1.339053 1_555
O21 O25 1.339053 1_555
O24 P2 1.730612 1_555
O25 P3 1.730612 1_555
