# generated using pymatgen
data_Ba2Sm2Ti2Cu2O11
_symmetry_space_group_name_H-M   'P 1'
_cell_length_a   3.92194300
_cell_length_b   3.92194300
_cell_length_c   16.12893100
_cell_angle_alpha   90.00000000
_cell_angle_beta   90.00000000
_cell_angle_gamma   90.00000000
_symmetry_Int_Tables_number   1
_chemical_formula_structural   Ba2Sm2Ti2Cu2O11
_chemical_formula_sum   'Ba2 Sm2 Ti2 Cu2 O11'
_cell_volume   248.08936015
_cell_formula_units_Z   1
loop_
 _symmetry_equiv_pos_site_id
 _symmetry_equiv_pos_as_xyz
  1  'x, y, z'
loop_
 _atom_site_type_symbol
 _atom_site_label
 _atom_site_symmetry_multiplicity
 _atom_site_fract_x
 _atom_site_fract_y
 _atom_site_fract_z
 _atom_site_occupancy
  Ba  Ba0  1  0.50000000  0.50000000  0.26592800  1
  Ba  Ba1  1  0.50000000  0.50000000  0.73407200  1
  Sm  Sm0  1  0.50000000  0.50000000  0.50000000  1
  Sm  Sm1  1  0.50000000  0.50000000  0.00000000  1
  Ti  Ti0  1  0.00000000  0.00000000  0.12330500  1
  Ti  Ti1  1  0.00000000  0.00000000  0.87669500  1
  Cu  Cu0  1  0.00000000  0.00000000  0.39611200  1
  Cu  Cu1  1  0.00000000  0.00000000  0.60388800  1
  O  O0  1  0.00000000  0.50000000  0.10932300  1
  O  O1  1  0.00000000  0.50000000  0.89067700  1
  O  O2  1  0.50000000  0.00000000  0.10932300  1
  O  O3  1  0.50000000  0.00000000  0.89067700  1
  O  O4  1  0.00000000  0.50000000  0.40675800  1
  O  O5  1  0.00000000  0.50000000  0.59324200  1
  O  O6  1  0.50000000  0.00000000  0.40675800  1
  O  O7  1  0.50000000  0.00000000  0.59324200  1
  O  O8  1  0.00000000  0.00000000  0.23930200  1
  O  O9  1  0.00000000  0.00000000  0.76069800  1
  O  O10  1  0.00000000  0.00000000  0.00000000  1
loop_
_geom_bond_atom_site_label_1
_geom_bond_atom_site_label_2
_geom_bond_distance
_geom_bond_site_symmetry_2
Ba0 O8 2.806287 1_655
Ba0 O8 2.806287 1_565
Ba0 O8 2.806287 1_665
Ba0 O8 2.806287 1_555
Ba0 O6 3.000806 1_555
Ba0 O6 3.000806 1_565
Ba0 O4 3.000806 1_555
Ba0 O4 3.000806 1_655
Ba0 O2 3.197723 1_555
Ba0 O0 3.197723 1_555
Ba0 O2 3.197723 1_565
Ba0 O0 3.197723 1_655
Ba1 O9 2.806287 1_555
Ba1 O9 2.806287 1_565
Ba1 O9 2.806287 1_655
Ba1 O9 2.806287 1_665
Ba1 O7 3.000806 1_555
Ba1 O7 3.000806 1_565
Ba1 O5 3.000806 1_655
Ba1 O5 3.000806 1_555
Ba1 O3 3.197723 1_565
Ba1 O1 3.197723 1_555
Ba1 O1 3.197723 1_655
Ba1 O3 3.197723 1_555
Cu0 O6 1.968475 1_455
Cu0 O4 1.968475 1_545
Cu0 O6 1.968475 1_555
Cu0 O4 1.968475 1_555
Cu0 O8 2.529178 1_555
Cu1 O5 1.968475 1_555
Cu1 O7 1.968475 1_455
Cu1 O7 1.968475 1_555
Cu1 O5 1.968475 1_545
Cu1 O9 2.529178 1_555
O0 Ti0 1.973896 1_565
O0 Ti0 1.973896 1_555
O0 Sm1 2.637140 1_455
O0 Sm1 2.637140 1_555
O1 Ti1 1.973896 1_555
O1 Ti1 1.973896 1_565
O1 Sm1 2.637140 1_456
O1 Sm1 2.637140 1_556
O2 Ti0 1.973896 1_655
O2 Ti0 1.973896 1_555
O2 Sm1 2.637140 1_545
O2 Sm1 2.637140 1_555
O3 Ti1 1.973896 1_555
O3 Ti1 1.973896 1_655
O3 Sm1 2.637140 1_546
O3 Sm1 2.637140 1_556
O4 Sm0 2.471256 1_555
O4 Sm0 2.471256 1_455
O5 Sm0 2.471256 1_555
O5 Sm0 2.471256 1_455
O6 Sm0 2.471256 1_555
O6 Sm0 2.471256 1_545
O7 Sm0 2.471256 1_545
O7 Sm0 2.471256 1_555
O8 Ti0 1.870908 1_555
O9 Ti1 1.870908 1_555
O10 Ti1 1.988778 1_554
O10 Ti0 1.988778 1_555
O10 Sm1 2.773232 1_545
O10 Sm1 2.773232 1_555
O10 Sm1 2.773232 1_445
O10 Sm1 2.773232 1_455
