# generated using pymatgen
data_Eu3(SiNi3)2
_symmetry_space_group_name_H-M   'P 1'
_cell_length_a   7.69921179
_cell_length_b   7.69921179
_cell_length_c   7.69921179
_cell_angle_alpha   109.47122063
_cell_angle_beta   109.47122063
_cell_angle_gamma   109.47122063
_symmetry_Int_Tables_number   1
_chemical_formula_structural   Eu3(SiNi3)2
_chemical_formula_sum   'Eu6 Si4 Ni12'
_cell_volume   351.33135325
_cell_formula_units_Z   2
loop_
 _symmetry_equiv_pos_site_id
 _symmetry_equiv_pos_as_xyz
  1  'x, y, z'
loop_
 _atom_site_type_symbol
 _atom_site_label
 _atom_site_symmetry_multiplicity
 _atom_site_fract_x
 _atom_site_fract_y
 _atom_site_fract_z
 _atom_site_occupancy
  Eu  Eu0  1  0.71665200  0.71665200  0.00000000  1
  Eu  Eu1  1  0.28334800  0.00000000  0.28334800  1
  Eu  Eu2  1  0.00000000  0.28334800  0.28334800  1
  Eu  Eu3  1  0.28334800  0.28334800  0.00000000  1
  Eu  Eu4  1  0.71665200  0.00000000  0.71665200  1
  Eu  Eu5  1  0.00000000  0.71665200  0.71665200  1
  Si  Si0  1  0.00000000  0.00000000  0.50000000  1
  Si  Si1  1  0.00000000  0.50000000  0.00000000  1
  Si  Si2  1  0.50000000  0.00000000  0.00000000  1
  Si  Si3  1  0.50000000  0.50000000  0.50000000  1
  Ni  Ni0  1  0.32924200  0.32924200  0.65848400  1
  Ni  Ni1  1  0.67075800  0.00000000  0.32924200  1
  Ni  Ni2  1  0.00000000  0.67075800  0.32924200  1
  Ni  Ni3  1  0.67075800  0.32924200  0.00000000  1
  Ni  Ni4  1  0.32924200  0.65848400  0.32924200  1
  Ni  Ni5  1  0.00000000  0.32924200  0.67075800  1
  Ni  Ni6  1  0.32924200  0.67075800  0.00000000  1
  Ni  Ni7  1  0.32924200  0.00000000  0.67075800  1
  Ni  Ni8  1  0.65848400  0.32924200  0.32924200  1
  Ni  Ni9  1  0.67075800  0.67075800  0.34151600  1
  Ni  Ni10  1  0.67075800  0.34151600  0.67075800  1
  Ni  Ni11  1  0.34151600  0.67075800  0.67075800  1
loop_
_geom_bond_atom_site_label_1
_geom_bond_atom_site_label_2
_geom_bond_distance
_geom_bond_site_symmetry_2
Eu0 Ni9 2.884273 1_555
Eu0 Ni0 2.884273 1_554
Eu0 Ni6 2.884273 1_555
Eu0 Ni3 2.884273 1_555
Eu0 Ni11 2.955355 1_554
Eu0 Ni10 2.955355 1_554
Eu0 Ni1 2.955355 1_565
Eu0 Ni2 2.955355 1_655
Eu0 Si2 3.157141 1_565
Eu0 Si0 3.157141 1_665
Eu0 Si3 3.157141 1_554
Eu0 Si1 3.157141 1_655
Eu1 Ni1 2.884273 1_555
Eu1 Ni10 2.884273 1_555
Eu1 Ni7 2.884273 1_555
Eu1 Ni4 2.884273 1_545
Eu1 Ni0 2.955355 1_555
Eu1 Ni8 2.955355 1_555
Eu1 Ni2 2.955355 1_545
Eu1 Ni6 2.955355 1_545
Eu1 Si1 3.157141 1_545
Eu1 Si0 3.157141 1_555
Eu1 Si2 3.157141 1_555
Eu1 Si3 3.157141 1_555
Eu2 Ni11 2.884273 1_555
Eu2 Ni5 2.884273 1_555
Eu2 Ni2 2.884273 1_555
Eu2 Ni8 2.884273 1_455
Eu2 Ni4 2.955355 1_555
Eu2 Ni0 2.955355 1_555
Eu2 Ni3 2.955355 1_455
Eu2 Ni1 2.955355 1_455
Eu2 Si0 3.157141 1_555
Eu2 Si2 3.157141 1_455
Eu2 Si1 3.157141 1_555
Eu2 Si3 3.157141 1_555
Eu3 Ni9 2.884273 1_555
Eu3 Ni6 2.884273 1_555
Eu3 Ni3 2.884273 1_555
Eu3 Ni0 2.884273 1_554
Eu3 Ni8 2.955355 1_555
Eu3 Ni7 2.955355 1_554
Eu3 Ni5 2.955355 1_554
Eu3 Ni4 2.955355 1_555
Eu3 Si1 3.157141 1_555
Eu3 Si0 3.157141 1_554
Eu3 Si3 3.157141 1_555
Eu3 Si2 3.157141 1_555
Eu4 Ni1 2.884273 1_555
Eu4 Ni10 2.884273 1_555
Eu4 Ni4 2.884273 1_545
Eu4 Ni7 2.884273 1_555
Eu4 Ni11 2.955355 1_545
Eu4 Ni9 2.955355 1_545
Eu4 Ni3 2.955355 1_556
Eu4 Ni5 2.955355 1_655
Eu4 Si0 3.157141 1_655
Eu4 Si1 3.157141 1_656
Eu4 Si2 3.157141 1_556
Eu4 Si3 3.157141 1_545
Eu5 Ni8 2.884273 1_455
Eu5 Ni11 2.884273 1_555
Eu5 Ni5 2.884273 1_555
Eu5 Ni2 2.884273 1_555
Eu5 Ni6 2.955355 1_556
Eu5 Ni10 2.955355 1_455
Eu5 Ni9 2.955355 1_455
Eu5 Ni7 2.955355 1_565
Eu5 Si3 3.157141 1_455
Eu5 Si1 3.157141 1_556
Eu5 Si2 3.157141 1_566
Eu5 Si0 3.157141 1_565
Ni0 Si0 2.435655 1_555
Ni0 Si3 2.435655 1_555
Ni0 Ni11 2.567950 1_555
Ni0 Ni5 2.567950 1_555
Ni0 Ni10 2.567950 1_555
Ni0 Ni7 2.567950 1_555
Ni1 Si2 2.435655 1_555
Ni1 Si0 2.435655 1_655
Ni1 Ni8 2.567950 1_555
Ni1 Ni5 2.567950 1_655
Ni1 Ni6 2.567950 1_545
Ni1 Ni9 2.567950 1_545
Ni2 Si1 2.435655 1_555
Ni2 Si0 2.435655 1_565
Ni2 Ni3 2.567950 1_455
Ni2 Ni7 2.567950 1_565
Ni2 Ni4 2.567950 1_555
Ni2 Ni9 2.567950 1_455
Ni3 Si2 2.435655 1_555
Ni3 Si1 2.435655 1_655
Ni3 Ni8 2.567950 1_555
Ni3 Ni7 2.567950 1_554
Ni4 Si3 2.435655 1_555
Ni4 Si1 2.435655 1_555
Ni4 Ni9 2.567950 1_555
Ni4 Ni6 2.567950 1_555
Ni5 Si0 2.435655 1_555
Ni5 Si1 2.435655 1_556
Ni5 Ni6 2.567950 1_556
Ni6 Si1 2.435655 1_555
Ni6 Si2 2.435655 1_565
Ni7 Si0 2.435655 1_555
Ni7 Si2 2.435655 1_556
Ni8 Si3 2.435655 1_555
Ni8 Si2 2.435655 1_555
Ni8 Ni9 2.567950 1_555
Ni9 Si3 2.435655 1_555
Ni9 Si0 2.435655 1_665
Ni10 Si3 2.435655 1_555
Ni10 Si1 2.435655 1_656
Ni10 Ni8 2.567950 1_555
Ni10 Ni3 2.567950 1_556
Ni10 Ni5 2.567950 1_655
Ni11 Si3 2.435655 1_555
Ni11 Si2 2.435655 1_566
Ni11 Ni4 2.567950 1_555
Ni11 Ni6 2.567950 1_556
Ni11 Ni7 2.567950 1_565
