# generated using pymatgen
data_PrYCo4
_symmetry_space_group_name_H-M   'P 1'
_cell_length_a   5.14131684
_cell_length_b   5.14131684
_cell_length_c   5.14131684
_cell_angle_alpha   60.00000000
_cell_angle_beta   60.00000000
_cell_angle_gamma   60.00000000
_symmetry_Int_Tables_number   1
_chemical_formula_structural   PrYCo4
_chemical_formula_sum   'Pr1 Y1 Co4'
_cell_volume   96.09661887
_cell_formula_units_Z   1
loop_
 _symmetry_equiv_pos_site_id
 _symmetry_equiv_pos_as_xyz
  1  'x, y, z'
loop_
 _atom_site_type_symbol
 _atom_site_label
 _atom_site_symmetry_multiplicity
 _atom_site_fract_x
 _atom_site_fract_y
 _atom_site_fract_z
 _atom_site_occupancy
  Pr  Pr0  1  0.25000000  0.25000000  0.25000000  1
  Y  Y0  1  0.00000000  0.00000000  0.00000000  1
  Co  Co0  1  0.62554500  0.62554500  0.12336500  1
  Co  Co1  1  0.62554500  0.12336500  0.62554500  1
  Co  Co2  1  0.12336500  0.62554500  0.62554500  1
  Co  Co3  1  0.62554500  0.62554500  0.62554500  1
loop_
_geom_bond_atom_site_label_1
_geom_bond_atom_site_label_2
_geom_bond_distance
_geom_bond_site_symmetry_2
Pr0 Y0 3.148401 1_655
Pr0 Y0 3.148401 1_556
Pr0 Y0 3.148401 1_565
Pr0 Y0 3.148401 1_555
Co0 Co3 2.559450 1_554
Co0 Co2 2.559450 1_654
Co0 Co1 2.559450 1_564
Co0 Co2 2.581866 1_555
Co0 Co1 2.581866 1_555
Co0 Co3 2.581866 1_555
Co0 Y0 3.013177 1_655
Co0 Y0 3.013177 1_565
Co0 Y0 3.013177 1_665
Co0 Pr0 3.015567 1_555
Co0 Pr0 3.015567 1_565
Co0 Pr0 3.015567 1_655
Co1 Co3 2.559450 1_545
Co1 Co2 2.559450 1_645
Co1 Co2 2.581866 1_555
Co1 Co3 2.581866 1_555
Co1 Y0 3.013177 1_556
Co1 Y0 3.013177 1_655
Co1 Y0 3.013177 1_656
Co1 Pr0 3.015567 1_555
Co1 Pr0 3.015567 1_556
Co1 Pr0 3.015567 1_655
Co2 Co3 2.559450 1_455
Co2 Co3 2.581866 1_555
Co2 Y0 3.013177 1_556
Co2 Y0 3.013177 1_565
Co2 Y0 3.013177 1_566
Co2 Pr0 3.015567 1_555
Co2 Pr0 3.015567 1_556
Co2 Pr0 3.015567 1_565
Co3 Y0 3.013177 1_656
Co3 Y0 3.013177 1_566
Co3 Y0 3.013177 1_665
Co3 Pr0 3.015567 1_565
Co3 Pr0 3.015567 1_655
Co3 Pr0 3.015567 1_556
