# generated using pymatgen
data_Sr3MgO4
_symmetry_space_group_name_H-M   'P 1'
_cell_length_a   3.50696700
_cell_length_b   5.07576100
_cell_length_c   7.11769100
_cell_angle_alpha   90.00000000
_cell_angle_beta   90.00000000
_cell_angle_gamma   90.00000000
_symmetry_Int_Tables_number   1
_chemical_formula_structural   Sr3MgO4
_chemical_formula_sum   'Sr3 Mg1 O4'
_cell_volume   126.69864603
_cell_formula_units_Z   1
loop_
 _symmetry_equiv_pos_site_id
 _symmetry_equiv_pos_as_xyz
  1  'x, y, z'
loop_
 _atom_site_type_symbol
 _atom_site_label
 _atom_site_symmetry_multiplicity
 _atom_site_fract_x
 _atom_site_fract_y
 _atom_site_fract_z
 _atom_site_occupancy
  Sr  Sr0  1  0.50000000  0.50000000  0.23885900  1
  Sr  Sr1  1  0.00000000  0.00000000  0.50000000  1
  Sr  Sr2  1  0.50000000  0.50000000  0.76114100  1
  Mg  Mg0  1  0.00000000  0.00000000  0.00000000  1
  O  O0  1  0.00000000  0.50000000  0.50000000  1
  O  O1  1  0.50000000  0.00000000  0.78196600  1
  O  O2  1  0.00000000  0.50000000  0.00000000  1
  O  O3  1  0.50000000  0.00000000  0.21803400  1
loop_
_geom_bond_atom_site_label_1
_geom_bond_atom_site_label_2
_geom_bond_distance
_geom_bond_site_symmetry_2
Mg0 O3 2.341601 1_555
Mg0 O3 2.341601 1_455
Mg0 O1 2.341601 1_454
Mg0 O1 2.341601 1_554
Mg0 O2 2.537880 1_555
Mg0 O2 2.537880 1_545
O0 Sr1 2.537880 1_555
O0 Sr1 2.537880 1_565
O0 Sr2 2.555298 1_455
O0 Sr2 2.555298 1_555
O0 Sr0 2.555298 1_455
O0 Sr0 2.555298 1_555
O1 Sr2 2.542205 1_545
O1 Sr2 2.542205 1_555
O1 Sr1 2.665059 1_655
O1 Sr1 2.665059 1_555
O2 Sr2 2.442361 1_454
O2 Sr2 2.442361 1_554
O2 Sr0 2.442361 1_555
O2 Sr0 2.442361 1_455
O3 Sr0 2.542205 1_545
O3 Sr0 2.542205 1_555
O3 Sr1 2.665059 1_655
O3 Sr1 2.665059 1_555
