# generated using pymatgen
data_Li4V3P8O29
_symmetry_space_group_name_H-M   'P 1'
_cell_length_a   9.75051199
_cell_length_b   9.75051199
_cell_length_c   14.29554499
_cell_angle_alpha   89.24897592
_cell_angle_beta   89.24897592
_cell_angle_gamma   60.63164116
_symmetry_Int_Tables_number   1
_chemical_formula_structural   Li4V3P8O29
_chemical_formula_sum   'Li8 V6 P16 O58'
_cell_volume   1184.30972349
_cell_formula_units_Z   2
loop_
 _symmetry_equiv_pos_site_id
 _symmetry_equiv_pos_as_xyz
  1  'x, y, z'
loop_
 _atom_site_type_symbol
 _atom_site_label
 _atom_site_symmetry_multiplicity
 _atom_site_fract_x
 _atom_site_fract_y
 _atom_site_fract_z
 _atom_site_occupancy
  Li  Li0  1  0.90571500  0.33094300  0.68410100  1
  Li  Li1  1  0.32615500  0.90981700  0.19300500  1
  Li  Li2  1  0.33149200  0.76735100  0.68995900  1
  Li  Li3  1  0.66905700  0.09428500  0.31589900  1
  Li  Li4  1  0.23264900  0.66850800  0.31004100  1
  Li  Li5  1  0.09018300  0.67384500  0.80699500  1
  Li  Li6  1  0.97310700  0.05320900  0.25902900  1
  Li  Li7  1  0.94679100  0.02689300  0.74097100  1
  V  V0  1  0.56841900  0.43158100  0.00000000  1
  V  V1  1  0.44154500  0.55845500  0.50000000  1
  V  V2  1  0.56592300  0.99700600  0.50364200  1
  V  V3  1  0.43852400  0.00360100  0.99177700  1
  V  V4  1  0.99639900  0.56147600  0.00822300  1
  V  V5  1  0.00299400  0.43407700  0.49635800  1
  P  P0  1  0.91677100  0.78195100  0.41439100  1
  P  P1  1  0.78892800  0.91264700  0.91223900  1
  P  P2  1  0.91463400  0.31166900  0.90630600  1
  P  P3  1  0.65688400  0.67091800  0.11617100  1
  P  P4  1  0.66882200  0.66201400  0.61522700  1
  P  P5  1  0.78164700  0.30563500  0.40841700  1
  P  P6  1  0.69436500  0.21835300  0.59158300  1
  P  P7  1  0.31497800  0.91080600  0.40603000  1
  P  P8  1  0.68833100  0.08536600  0.09369400  1
  P  P9  1  0.31727100  0.77139200  0.90974300  1
  P  P10  1  0.22860800  0.68272900  0.09025700  1
  P  P11  1  0.32908200  0.34311600  0.88382900  1
  P  P12  1  0.33798600  0.33117800  0.38477300  1
  P  P13  1  0.08919400  0.68502200  0.59397000  1
  P  P14  1  0.21804900  0.08322900  0.58560900  1
  P  P15  1  0.08735300  0.21107200  0.08776100  1
  O  O0  1  0.02460300  0.77025200  0.68566200  1
  O  O1  1  0.91966600  0.73673800  0.91696200  1
  O  O2  1  0.76082400  0.02094100  0.18530800  1
  O  O3  1  0.74585400  0.92163200  0.41438400  1
  O  O4  1  0.91545900  0.62491600  0.42206900  1
  O  O5  1  0.81098500  0.66657800  0.07337100  1
  O  O6  1  0.91693100  0.46703500  0.92632000  1
  O  O7  1  0.00644300  0.18993300  0.16955700  1
  O  O8  1  0.91161800  0.34796900  0.41026300  1
  O  O9  1  0.67668200  0.80439500  0.57282900  1
  O  O10  1  0.62306600  0.92229800  0.92070600  1
  O  O11  1  0.81600900  0.50921800  0.57919300  1
  O  O12  1  0.64855700  0.67514800  0.21940100  1
  O  O13  1  0.64506500  0.66138900  0.71881500  1
  O  O14  1  0.66024100  0.52352600  0.07116600  1
  O  O15  1  0.46900900  0.91519100  0.41947600  1
  O  O16  1  0.51303700  0.81906700  0.07157400  1
  O  O17  1  0.74274000  0.34465900  0.92064700  1
  O  O18  1  0.79835000  0.20165000  0.50000000  1
  O  O19  1  0.78847000  0.21291900  0.67353400  1
  O  O20  1  0.78708100  0.21153000  0.32646600  1
  O  O21  1  0.61775300  0.45825700  0.42088600  1
  O  O22  1  0.51723800  0.66704900  0.56821200  1
  O  O23  1  0.65534100  0.25726000  0.07935300  1
  O  O24  1  0.47235700  0.61662200  0.92391800  1
  O  O25  1  0.34864100  0.91259800  0.91508500  1
  O  O26  1  0.80601800  0.98717200  0.00903600  1
  O  O27  1  0.81006700  0.99355700  0.83044300  1
  O  O28  1  0.20501200  0.98699800  0.66705200  1
  O  O29  1  0.65203100  0.08838200  0.58973700  1
  O  O30  1  0.54174300  0.38224700  0.57911400  1
  O  O31  1  0.34618900  0.73701800  0.41451200  1
  O  O32  1  0.47647400  0.33975900  0.92883400  1
  O  O33  1  0.38337800  0.52764300  0.07608200  1
  O  O34  1  0.22572500  0.76835900  0.17720600  1
  O  O35  1  0.23164100  0.77427500  0.82279400  1
  O  O36  1  0.20684200  0.79315800  0.00000000  1
  O  O37  1  0.26298200  0.65381100  0.58548800  1
  O  O38  1  0.49078200  0.18399100  0.42080700  1
  O  O39  1  0.53296500  0.08306900  0.07368000  1
  O  O40  1  0.33295100  0.48276200  0.43178800  1
  O  O41  1  0.33861100  0.35493500  0.28118500  1
  O  O42  1  0.32485200  0.35144300  0.78059900  1
  O  O43  1  0.18093300  0.48696300  0.92842600  1
  O  O44  1  0.37508400  0.08454100  0.57793100  1
  O  O45  1  0.33342200  0.18901500  0.92662900  1
  O  O46  1  0.08740200  0.65135900  0.08491500  1
  O  O47  1  0.99277600  0.80337800  0.51036600  1
  O  O48  1  0.01300200  0.79498800  0.33294800  1
  O  O49  1  0.08480900  0.53099100  0.58052400  1
  O  O50  1  0.19560500  0.32331800  0.42717100  1
  O  O51  1  0.07770200  0.37693400  0.07929400  1
  O  O52  1  0.26326200  0.08033400  0.08303800  1
  O  O53  1  0.22974800  0.97539700  0.31433800  1
  O  O54  1  0.19662200  0.00722400  0.48963400  1
  O  O55  1  0.07836800  0.25414600  0.58561600  1
  O  O56  1  0.97905900  0.23917600  0.81469200  1
  O  O57  1  0.01282800  0.19398200  0.99096400  1
loop_
_geom_bond_atom_site_label_1
_geom_bond_atom_site_label_2
_geom_bond_distance
_geom_bond_site_symmetry_2
Li0 O19 1.988347 1_555
Li0 O55 2.026320 1_655
Li0 O56 2.039810 1_555
Li0 O11 2.123805 1_555
Li1 O53 1.922977 1_555
Li1 O34 2.061824 1_555
Li1 O52 2.137380 1_565
Li1 O16 2.343638 1_555
Li2 O28 1.901702 1_555
Li2 O35 2.109237 1_555
Li2 O37 2.167294 1_555
Li2 O22 2.343162 1_555
Li3 O20 1.988347 1_555
Li3 O3 2.026320 1_545
Li3 O2 2.039810 1_555
Li3 O38 2.123805 1_555
Li4 O48 1.901702 1_555
Li4 O34 2.109237 1_555
Li4 O31 2.167294 1_555
Li4 O40 2.343162 1_555
Li5 O0 1.922977 1_555
Li5 O35 2.061824 1_555
Li5 O1 2.137380 1_455
Li5 O43 2.343638 1_555
Li6 O20 1.961945 1_555
Li6 O7 1.971873 1_655
Li6 O53 2.374162 1_645
Li6 O2 2.489710 1_555
Li6 O48 2.566630 1_645
Li7 O19 1.961945 1_555
Li7 O27 1.971873 1_545
Li7 O0 2.374162 1_645
Li7 O56 2.489710 1_555
Li7 O28 2.566630 1_645
O0 P13 1.516240 1_555
O1 P1 1.557602 1_555
O1 V4 1.973629 1_556
O2 P8 1.475350 1_555
O3 P0 1.551124 1_555
O3 V2 1.986828 1_555
O4 P0 1.539957 1_555
O4 V5 1.932099 1_655
O5 P3 1.596264 1_555
O5 V4 1.830211 1_555
O6 P2 1.556305 1_555
O6 V4 1.889748 1_556
O7 P15 1.470091 1_555
O8 P5 1.513717 1_555
O8 V5 1.950154 1_655
O9 P4 1.543263 1_555
O9 V2 1.913528 1_555
O10 P1 1.576346 1_555
O10 V3 1.863472 1_565
O11 P4 1.564666 1_555
O11 V5 1.979661 1_655
O12 P3 1.476902 1_555
O13 P4 1.496248 1_555
O14 P3 1.567781 1_555
O14 V0 1.864242 1_555
O15 P7 1.537918 1_555
O15 V2 1.942005 1_555
O16 P3 1.572384 1_555
O16 V3 1.937094 1_564
O17 P2 1.555176 1_555
O17 V0 1.859003 1_556
O18 P5 1.605440 1_555
O18 P6 1.605440 1_555
O19 P6 1.481926 1_555
O20 P5 1.481926 1_555
O21 P5 1.570675 1_555
O21 V1 1.875405 1_555
O22 P4 1.610183 1_555
O22 V1 1.851806 1_555
O23 P8 1.555176 1_555
O23 V0 1.859003 1_555
O24 P9 1.538438 1_555
O24 V0 1.906108 1_556
O25 P9 1.552898 1_555
O25 V3 1.889677 1_565
O26 P8 1.616934 1_565
O26 P1 1.619191 1_554
O27 P1 1.470091 1_555
O28 P14 1.528584 1_565
O29 P6 1.513717 1_555
O29 V2 1.950154 1_545
O30 P6 1.570675 1_555
O30 V1 1.875405 1_555
O31 P7 1.571145 1_555
O31 V1 1.943082 1_555
O32 P11 1.567781 1_555
O32 V0 1.864242 1_556
O33 P10 1.538438 1_555
O33 V0 1.906108 1_555
O34 P10 1.498728 1_555
O35 P9 1.498728 1_555
O36 P10 1.617354 1_555
O36 P9 1.617354 1_554
O37 P13 1.571145 1_555
O37 V1 1.943082 1_555
O38 P12 1.564666 1_555
O38 V2 1.979661 1_545
O39 P8 1.556305 1_555
O39 V3 1.889748 1_554
O40 P12 1.610183 1_555
O40 V1 1.851806 1_555
O41 P12 1.496248 1_555
O42 P11 1.476902 1_555
O43 P11 1.572384 1_555
O43 V4 1.937094 1_456
O44 P14 1.539957 1_555
O44 V2 1.932099 1_545
O45 P11 1.596264 1_555
O45 V3 1.830211 1_555
O46 P10 1.552898 1_555
O46 V4 1.889677 1_455
O47 P13 1.604116 1_655
O47 P0 1.631355 1_555
O48 P0 1.528584 1_455
O49 P13 1.537918 1_555
O49 V5 1.942005 1_555
O50 P12 1.543263 1_555
O50 V5 1.913528 1_555
O51 P15 1.576346 1_555
O51 V4 1.863472 1_455
O52 P15 1.557602 1_555
O52 V3 1.973629 1_554
O53 P7 1.516240 1_555
O54 P7 1.604116 1_545
O54 P14 1.631355 1_555
O55 P14 1.551124 1_555
O55 V5 1.986828 1_555
O56 P2 1.475350 1_555
O57 P2 1.616934 1_455
O57 P15 1.619191 1_556
