# generated using pymatgen
data_NdNiAs
_symmetry_space_group_name_H-M   'P 1'
_cell_length_a   4.10126998
_cell_length_b   4.10126998
_cell_length_c   16.15345530
_cell_angle_alpha   90.00000000
_cell_angle_beta   90.00000000
_cell_angle_gamma   120.00000613
_symmetry_Int_Tables_number   1
_chemical_formula_structural   NdNiAs
_chemical_formula_sum   'Nd4 Ni4 As4'
_cell_volume   235.30586785
_cell_formula_units_Z   4
loop_
 _symmetry_equiv_pos_site_id
 _symmetry_equiv_pos_as_xyz
  1  'x, y, z'
loop_
 _atom_site_type_symbol
 _atom_site_label
 _atom_site_symmetry_multiplicity
 _atom_site_fract_x
 _atom_site_fract_y
 _atom_site_fract_z
 _atom_site_occupancy
  Nd  Nd0  1  -0.00000000  0.00000000  0.25000000  1
  Nd  Nd1  1  -0.00000000  0.00000000  0.75000000  1
  Nd  Nd2  1  -0.00000000  0.00000000  -0.00000000  1
  Nd  Nd3  1  -0.00000000  0.00000000  0.50000000  1
  Ni  Ni0  1  0.33333300  0.66666700  0.12781557  1
  Ni  Ni1  1  0.66666700  0.33333300  0.87218443  1
  Ni  Ni2  1  0.66666700  0.33333300  0.62781557  1
  Ni  Ni3  1  0.33333300  0.66666700  0.37218443  1
  As  As0  1  0.33333300  0.66666700  0.62323485  1
  As  As1  1  0.66666700  0.33333300  0.37676515  1
  As  As2  1  0.66666700  0.33333300  0.12323485  1
  As  As3  1  0.33333300  0.66666700  0.87676515  1
loop_
_geom_bond_atom_site_label_1
_geom_bond_atom_site_label_2
_geom_bond_distance
_geom_bond_site_symmetry_2
Nd0 Ni3 3.082578 1_545
Nd0 Ni0 3.082578 1_545
Nd0 Ni3 3.082581 1_445
Nd0 Ni0 3.082581 1_445
Nd0 Ni3 3.082581 1_555
Nd0 Ni0 3.082581 1_555
Nd1 Ni2 3.082578 1_455
Nd1 Ni1 3.082578 1_455
Nd1 Ni1 3.082581 1_555
Nd1 Ni2 3.082581 1_445
Nd1 Ni2 3.082581 1_555
Nd1 Ni1 3.082581 1_445
Nd2 Ni0 3.141596 1_545
Nd2 Ni1 3.141596 1_454
Nd2 Ni0 3.141599 1_555
Nd2 Ni1 3.141599 1_554
Nd2 Ni0 3.141599 1_445
Nd2 Ni1 3.141599 1_444
Nd3 Ni3 3.141596 1_545
Nd3 Ni2 3.141596 1_455
Nd3 Ni3 3.141599 1_555
Nd3 Ni3 3.141599 1_445
Nd3 Ni2 3.141599 1_445
Nd3 Ni2 3.141599 1_555
As0 Ni2 2.369023 1_455
As0 Ni2 2.369023 1_565
As0 Ni2 2.369030 1_555
As0 Nd3 3.093470 1_565
As0 Nd3 3.093472 1_665
As0 Nd3 3.093472 1_555
As0 Nd1 3.130471 1_565
As0 Nd1 3.130474 1_555
As0 Nd1 3.130474 1_665
As1 Ni3 2.369023 1_545
As1 Ni3 2.369023 1_655
As1 Ni3 2.369030 1_555
As1 Nd3 3.093470 1_655
As1 Nd3 3.093472 1_665
As1 Nd3 3.093472 1_555
As1 Nd0 3.130471 1_655
As1 Nd0 3.130474 1_665
As1 Nd0 3.130474 1_555
As2 Ni0 2.369023 1_545
As2 Ni0 2.369023 1_655
As2 Ni0 2.369030 1_555
As2 Nd2 3.093470 1_655
As2 Nd2 3.093472 1_555
As2 Nd2 3.093472 1_665
As2 Nd0 3.130471 1_655
As2 Nd0 3.130474 1_665
As2 Nd0 3.130474 1_555
As3 Ni1 2.369023 1_455
As3 Ni1 2.369023 1_565
As3 Ni1 2.369030 1_555
As3 Nd2 3.093470 1_566
As3 Nd2 3.093472 1_556
As3 Nd2 3.093472 1_666
As3 Nd1 3.130471 1_565
As3 Nd1 3.130474 1_555
As3 Nd1 3.130474 1_665
