# generated using pymatgen
data_NaMn3V4O12
_symmetry_space_group_name_H-M   'P 1'
_cell_length_a   6.50599690
_cell_length_b   6.47388987
_cell_length_c   6.50397094
_cell_angle_alpha   109.86290972
_cell_angle_beta   109.55558236
_cell_angle_gamma   109.20568392
_symmetry_Int_Tables_number   1
_chemical_formula_structural   NaMn3V4O12
_chemical_formula_sum   'Na1 Mn3 V4 O12'
_cell_volume   210.32538001
_cell_formula_units_Z   1
loop_
 _symmetry_equiv_pos_site_id
 _symmetry_equiv_pos_as_xyz
  1  'x, y, z'
loop_
 _atom_site_type_symbol
 _atom_site_label
 _atom_site_symmetry_multiplicity
 _atom_site_fract_x
 _atom_site_fract_y
 _atom_site_fract_z
 _atom_site_occupancy
  Na  Na0  1  0.00001200  0.99996300  0.99997800  1
  Mn  Mn0  1  0.50041100  0.00039200  0.49994600  1
  Mn  Mn1  1  0.00019200  0.49993400  0.50024600  1
  Mn  Mn2  1  0.49997000  0.50036200  0.00036200  1
  V  V0  1  0.00009800  0.99990600  0.49999800  1
  V  V1  1  0.50001000  0.00009400  0.99989100  1
  V  V2  1  0.99990700  0.49998300  0.00009200  1
  V  V3  1  0.50001100  0.50002800  0.50000800  1
  O  O0  1  0.69165500  0.82141800  0.50301700  1
  O  O1  1  0.68266300  0.17787700  0.87021000  1
  O  O2  1  0.31733800  0.82196300  0.12961000  1
  O  O3  1  0.30831500  0.17854100  0.49679400  1
  O  O4  1  0.81766800  0.50387800  0.68815800  1
  O  O5  1  0.18212300  0.87270700  0.69185200  1
  O  O6  1  0.81775000  0.12716400  0.30821000  1
  O  O7  1  0.18218800  0.49580200  0.31176800  1
  O  O8  1  0.51187200  0.69767000  0.82516800  1
  O  O9  1  0.87117700  0.69694100  0.18793200  1
  O  O10  1  0.12869200  0.30309600  0.81201700  1
  O  O11  1  0.48795000  0.30228100  0.17474200  1
loop_
_geom_bond_atom_site_label_1
_geom_bond_atom_site_label_2
_geom_bond_distance
_geom_bond_site_symmetry_2
Na0 O11 2.680500 1_566
Na0 O8 2.681456 1_455
Na0 O5 2.684862 1_555
Na0 O6 2.686114 1_466
Na0 O9 2.697976 1_456
Na0 O10 2.698348 1_565
Na0 O7 2.699182 1_566
Na0 O4 2.700257 1_455
Na0 O1 2.713018 1_465
Na0 O2 2.713156 1_556
Na0 O3 2.719912 1_566
Na0 O0 2.720781 1_455
Mn0 O1 1.958903 1_555
Mn0 O2 1.959121 1_545
Mn0 O0 1.959229 1_545
Mn0 O3 1.959524 1_555
Mn1 O6 1.966585 1_455
Mn1 O5 1.966601 1_555
Mn1 O4 1.968463 1_455
Mn1 O7 1.968678 1_555
Mn2 O9 1.972548 1_555
Mn2 O10 1.973018 1_554
Mn2 O11 1.979544 1_555
Mn2 O8 1.979655 1_554
O0 V0 1.969458 1_655
O0 V3 2.033043 1_555
O1 V1 1.969524 1_555
O1 V2 2.031282 1_556
O2 V1 1.970995 1_564
O2 V2 2.032137 1_455
O3 V0 1.969145 1_545
O3 V3 2.032925 1_555
O4 V2 1.991629 1_556
O4 V3 2.005394 1_555
O5 V1 1.988112 1_565
O5 V0 1.997050 1_555
O6 V1 1.989071 1_554
O6 V0 1.998213 1_645
O7 V2 1.991345 1_455
O7 V3 2.005136 1_555
O8 V1 1.943391 1_565
O8 V3 2.025487 1_555
O9 V0 1.934632 1_655
O9 V2 2.036869 1_555
O10 V0 1.935747 1_545
O10 V2 2.037708 1_456
O11 V1 1.943074 1_554
O11 V3 2.025555 1_555
