# generated using pymatgen
data_CsMgAs(H6O5)2
_symmetry_space_group_name_H-M   'P 1'
_cell_length_a   7.16416741
_cell_length_b   7.16416741
_cell_length_c   7.16416741
_cell_angle_alpha   60.00000000
_cell_angle_beta   60.00000000
_cell_angle_gamma   60.00000000
_symmetry_Int_Tables_number   1
_chemical_formula_structural   CsMgAs(H6O5)2
_chemical_formula_sum   'Cs1 Mg1 As1 H12 O10'
_cell_volume   260.00528763
_cell_formula_units_Z   1
loop_
 _symmetry_equiv_pos_site_id
 _symmetry_equiv_pos_as_xyz
  1  'x, y, z'
loop_
 _atom_site_type_symbol
 _atom_site_label
 _atom_site_symmetry_multiplicity
 _atom_site_fract_x
 _atom_site_fract_y
 _atom_site_fract_z
 _atom_site_occupancy
  Cs  Cs0  1  0.75000000  0.75000000  0.75000000  1
  Mg  Mg0  1  0.00000000  -0.00000000  0.00000000  1
  As  As0  1  0.25000000  0.25000000  0.25000000  1
  H  H0  1  0.26111898  0.26111898  0.62550963  1
  H  H1  1  0.85225141  0.26111898  0.62550963  1
  H  H2  1  0.26111898  0.85225141  0.62550963  1
  H  H3  1  0.85225141  0.62550963  0.26111898  1
  H  H4  1  0.26111898  0.62550963  0.26111898  1
  H  H5  1  0.26111898  0.62550963  0.85225141  1
  H  H6  1  0.62550963  0.85225141  0.26111898  1
  H  H7  1  0.62550963  0.26111898  0.85225141  1
  H  H8  1  0.62550963  0.26111898  0.26111898  1
  H  H9  1  0.26111898  0.26111898  0.85225141  1
  H  H10  1  0.26111898  0.85225141  0.26111898  1
  H  H11  1  0.85225141  0.26111898  0.26111898  1
  O  O0  1  0.20461569  0.20461569  0.79538431  1
  O  O1  1  0.79538431  0.20461569  0.79538431  1
  O  O2  1  0.20461569  0.79538431  0.79538431  1
  O  O3  1  0.79538431  0.79538431  0.20461569  1
  O  O4  1  0.20461569  0.79538431  0.20461569  1
  O  O5  1  0.79538431  0.20461569  0.20461569  1
  O  O6  1  0.34685269  0.34685269  0.95944092  1
  O  O7  1  0.34685269  0.95944092  0.34685269  1
  O  O8  1  0.95944092  0.34685269  0.34685269  1
  O  O9  1  0.34685269  0.34685269  0.34685269  1
loop_
_geom_bond_atom_site_label_1
_geom_bond_atom_site_label_2
_geom_bond_distance
_geom_bond_site_symmetry_2
Cs0 O1 3.611476 1_555
Cs0 O0 3.611476 1_655
Cs0 O5 3.611476 1_556
Cs0 O3 3.611476 1_555
Cs0 O4 3.611476 1_556
Cs0 O4 3.611476 1_655
Cs0 O0 3.611476 1_565
Cs0 O1 3.611476 1_565
Cs0 O2 3.611476 1_655
Cs0 O2 3.611476 1_555
Cs0 O5 3.611476 1_565
Cs0 O3 3.611476 1_556
Mg0 O1 2.073097 1_454
Mg0 O4 2.073097 1_545
Mg0 O2 2.073097 1_544
Mg0 O5 2.073097 1_455
Mg0 O0 2.073097 1_554
Mg0 O3 2.073097 1_445
As0 O9 1.699625 1_555
As0 O8 1.699631 1_455
As0 O6 1.699631 1_554
As0 O7 1.699631 1_545
H0 O0 0.993686 1_555
H0 O9 1.632423 1_555
H1 O1 0.993686 1_555
H1 O8 1.632423 1_555
H2 O2 0.993686 1_555
H2 O7 1.632423 1_555
H3 O3 0.993686 1_555
H3 O8 1.632423 1_555
H4 O4 0.993686 1_555
H4 O9 1.632423 1_555
H5 O2 0.993686 1_555
H5 O6 1.632423 1_555
H6 O3 0.993686 1_555
H6 O7 1.632423 1_555
H7 O1 0.993686 1_555
H7 O6 1.632423 1_555
H8 O5 0.993686 1_555
H8 O9 1.632423 1_555
H9 O0 0.993680 1_555
H9 O6 1.632423 1_555
H10 O4 0.993680 1_555
H10 O7 1.632423 1_555
H11 O5 0.993680 1_555
H11 O8 1.632423 1_555
