# generated using pymatgen
data_Y11(In3Ge2)2
_symmetry_space_group_name_H-M   'P 1'
_cell_length_a   11.59847845
_cell_length_b   11.59847845
_cell_length_c   11.59847845
_cell_angle_alpha   120.07602436
_cell_angle_beta   120.07602436
_cell_angle_gamma   89.86837230
_symmetry_Int_Tables_number   1
_chemical_formula_structural   Y11(In3Ge2)2
_chemical_formula_sum   'Y22 In12 Ge8'
_cell_volume   1102.01494061
_cell_formula_units_Z   2
loop_
 _symmetry_equiv_pos_site_id
 _symmetry_equiv_pos_as_xyz
  1  'x, y, z'
loop_
 _atom_site_type_symbol
 _atom_site_label
 _atom_site_symmetry_multiplicity
 _atom_site_fract_x
 _atom_site_fract_y
 _atom_site_fract_z
 _atom_site_occupancy
  Y  Y0  1  0.68584700  0.93452400  0.24867700  1
  Y  Y1  1  0.68584700  0.43717100  0.75132300  1
  Y  Y2  1  0.93452400  0.68584700  0.24867700  1
  Y  Y3  1  0.43717100  0.68584700  0.75132300  1
  Y  Y4  1  0.31415300  0.06547600  0.75132300  1
  Y  Y5  1  0.31415300  0.56282900  0.24867700  1
  Y  Y6  1  0.06547600  0.31415300  0.75132300  1
  Y  Y7  1  0.56282900  0.31415300  0.24867700  1
  Y  Y8  1  0.89814000  0.24371600  0.34557600  1
  Y  Y9  1  0.89814000  0.55256400  0.65442400  1
  Y  Y10  1  0.24371600  0.89814000  0.34557600  1
  Y  Y11  1  0.55256400  0.89814000  0.65442400  1
  Y  Y12  1  0.10186000  0.75628400  0.65442400  1
  Y  Y13  1  0.10186000  0.44743600  0.34557600  1
  Y  Y14  1  0.75628400  0.10186000  0.65442400  1
  Y  Y15  1  0.44743600  0.10186000  0.34557600  1
  Y  Y16  1  0.33088600  0.33088600  0.66177200  1
  Y  Y17  1  0.66911400  0.66911400  0.33822800  1
  Y  Y18  1  0.33088600  0.66911400  0.00000000  1
  Y  Y19  1  0.66911400  0.33088600  0.00000000  1
  Y  Y20  1  0.83497800  0.83497800  0.00000000  1
  Y  Y21  1  0.16502200  0.16502200  0.00000000  1
  In  In0  1  0.03547700  0.03547700  0.41274200  1
  In  In1  1  0.62273500  0.62273500  0.58725800  1
  In  In2  1  0.03547700  0.62273500  0.00000000  1
  In  In3  1  0.62273500  0.03547700  0.00000000  1
  In  In4  1  0.96452300  0.96452300  0.58725800  1
  In  In5  1  0.37726500  0.37726500  0.41274200  1
  In  In6  1  0.96452300  0.37726500  0.00000000  1
  In  In7  1  0.37726500  0.96452300  0.00000000  1
  In  In8  1  0.12887400  0.12887400  0.25774800  1
  In  In9  1  0.87112600  0.87112600  0.74225200  1
  In  In10  1  0.12887400  0.87112600  0.00000000  1
  In  In11  1  0.87112600  0.12887400  0.00000000  1
  Ge  Ge0  1  0.15251000  0.50000000  0.65251000  1
  Ge  Ge1  1  0.84749000  0.50000000  0.34749000  1
  Ge  Ge2  1  0.50000000  0.84749000  0.34749000  1
  Ge  Ge3  1  0.50000000  0.15251000  0.65251000  1
  Ge  Ge4  1  0.61360100  0.61360100  0.00000000  1
  Ge  Ge5  1  0.38639900  0.38639900  0.00000000  1
  Ge  Ge6  1  0.75000000  0.25000000  0.50000000  1
  Ge  Ge7  1  0.25000000  0.75000000  0.50000000  1
loop_
_geom_bond_atom_site_label_1
_geom_bond_atom_site_label_2
_geom_bond_distance
_geom_bond_site_symmetry_2
In0 In4 2.965448 1_445
In0 In8 3.080213 1_555
In0 Y10 3.098725 1_545
In0 Y8 3.098725 1_455
In0 Y20 3.382531 1_445
In0 Y2 3.389801 1_445
In0 Y0 3.389801 1_445
In0 Y6 3.450117 1_555
In0 Y4 3.450117 1_555
In0 Y16 3.469485 1_555
In1 In5 2.965448 1_555
In1 In9 3.080213 1_555
In1 Y9 3.098725 1_555
In1 Y11 3.098725 1_555
In1 Y20 3.382531 1_556
In1 Y1 3.389791 1_555
In1 Y3 3.389791 1_555
In1 Y5 3.450113 1_555
In1 Y7 3.450113 1_555
In1 Y17 3.469485 1_555
In2 In6 2.965448 1_455
In2 Y10 3.098725 1_555
In2 Y9 3.098725 1_454
In2 Y20 3.382531 1_455
In2 Y1 3.389799 1_454
In2 Y2 3.389801 1_455
In2 Y6 3.450117 1_554
In2 Y5 3.450124 1_555
In2 Y18 3.469485 1_555
In3 In7 2.965448 1_545
In3 Y8 3.098725 1_555
In3 Y11 3.098725 1_544
In3 Y20 3.382531 1_545
In3 Y3 3.389799 1_544
In3 Y0 3.389801 1_545
In3 Y4 3.450117 1_554
In3 Y7 3.450124 1_555
In3 Y19 3.469485 1_555
In4 In9 3.080213 1_555
In4 Y12 3.098725 1_655
In4 Y14 3.098725 1_565
In4 Y21 3.382531 1_666
In4 Y4 3.389801 1_665
In4 Y6 3.389801 1_665
In4 Y2 3.450117 1_555
In4 Y0 3.450117 1_555
In4 Y17 3.469485 1_555
In5 In8 3.080213 1_555
In5 Y15 3.098725 1_555
In5 Y13 3.098725 1_555
In5 Y21 3.382531 1_555
In5 Y7 3.389791 1_555
In5 Y5 3.389791 1_555
In5 Y1 3.450113 1_555
In5 Y3 3.450113 1_555
In5 Y16 3.469485 1_555
In6 Y13 3.098725 1_655
In6 Y14 3.098725 1_554
In6 Y21 3.382531 1_655
In6 Y5 3.389799 1_655
In6 Y6 3.389801 1_654
In6 Y2 3.450117 1_555
In6 Y1 3.450124 1_554
In6 Y19 3.469485 1_555
In7 Y12 3.098725 1_554
In7 Y15 3.098725 1_565
In7 Y21 3.382531 1_565
In7 Y7 3.389799 1_565
In7 Y4 3.389801 1_564
In7 Y0 3.450117 1_555
In7 Y3 3.450124 1_554
In7 Y18 3.469485 1_555
In8 Y16 3.309739 1_555
In8 Y8 3.365974 1_455
In8 Y10 3.365974 1_545
In8 Y15 3.365974 1_555
In8 Y13 3.365974 1_555
In8 Y20 3.435389 1_445
In8 Y21 3.435389 1_555
In9 Y17 3.309739 1_555
In9 Y9 3.365974 1_555
In9 Y11 3.365974 1_555
In9 Y14 3.365974 1_565
In9 Y12 3.365974 1_655
In9 Y20 3.435389 1_556
In9 Y21 3.435389 1_666
In10 In9 2.986049 1_454
In10 In8 2.986049 1_565
In10 In2 3.080213 1_555
In10 In7 3.080213 1_555
In10 Y18 3.309739 1_555
In10 Y9 3.365974 1_454
In10 Y10 3.365974 1_555
In10 Y12 3.365974 1_554
In10 Y15 3.365974 1_565
In10 Y20 3.435389 1_455
In10 Y21 3.435389 1_565
In11 In9 2.986049 1_544
In11 In8 2.986049 1_655
In11 In3 3.080213 1_555
In11 In6 3.080213 1_555
In11 Y19 3.309739 1_555
In11 Y11 3.365974 1_544
In11 Y8 3.365974 1_555
In11 Y14 3.365974 1_554
In11 Y13 3.365974 1_655
In11 Y20 3.435389 1_545
In11 Y21 3.435389 1_655
Ge0 Y18 2.847627 1_556
Ge0 Y16 2.847627 1_555
Ge0 Y12 3.019983 1_555
Ge0 Y9 3.019983 1_455
Ge0 Y8 3.019983 1_455
Ge0 Y13 3.019983 1_555
Ge0 Y6 3.259533 1_555
Ge0 Y3 3.259543 1_555
Ge1 Y17 2.847627 1_555
Ge1 Y19 2.847627 1_555
Ge1 Y9 3.019983 1_555
Ge1 Y8 3.019983 1_555
Ge1 Y12 3.019983 1_655
Ge1 Y13 3.019983 1_655
Ge1 Y2 3.259533 1_555
Ge1 Y7 3.259543 1_555
Ge2 Y17 2.847627 1_555
Ge2 Y18 2.847627 1_555
Ge2 Y11 3.019983 1_555
Ge2 Y10 3.019983 1_555
Ge2 Y14 3.019983 1_565
Ge2 Y15 3.019983 1_565
Ge2 Y0 3.259533 1_555
Ge2 Y5 3.259543 1_555
Ge3 Y16 2.847627 1_555
Ge3 Y19 2.847627 1_556
Ge3 Y14 3.019983 1_555
Ge3 Y10 3.019983 1_545
Ge3 Y11 3.019983 1_545
Ge3 Y15 3.019983 1_555
Ge3 Y4 3.259533 1_555
Ge3 Y1 3.259543 1_555
Ge4 Y1 3.115677 1_554
Ge4 Y3 3.115677 1_554
Ge4 Y2 3.115679 1_555
Ge4 Y0 3.115679 1_555
Ge4 Y18 3.340228 1_555
Ge4 Y19 3.340228 1_555
Ge4 Y17 3.340228 1_555
Ge4 Y16 3.340228 1_554
Ge4 Y20 3.635355 1_555
Ge5 Y5 3.115677 1_555
Ge5 Y7 3.115677 1_555
Ge5 Y4 3.115679 1_554
Ge5 Y6 3.115679 1_554
Ge5 Y16 3.340228 1_554
Ge5 Y18 3.340228 1_555
Ge5 Y19 3.340228 1_555
Ge5 Y17 3.340228 1_555
Ge5 Y21 3.635355 1_555
Ge6 Y15 3.019700 1_555
Ge6 Y14 3.019700 1_555
Ge6 Y8 3.019700 1_555
Ge6 Y9 3.019700 1_555
Ge6 Y0 3.096343 1_545
Ge6 Y6 3.096343 1_655
Ge6 Y7 3.096346 1_555
Ge6 Y1 3.096346 1_555
Ge7 Y11 3.019700 1_555
Ge7 Y12 3.019700 1_555
Ge7 Y13 3.019700 1_555
Ge7 Y10 3.019700 1_555
Ge7 Y2 3.096343 1_455
Ge7 Y4 3.096343 1_565
Ge7 Y5 3.096346 1_555
Ge7 Y3 3.096346 1_555
