# generated using pymatgen
data_DyU3
_symmetry_space_group_name_H-M   'P 1'
_cell_length_a   5.68104014
_cell_length_b   5.68104014
_cell_length_c   5.68104014
_cell_angle_alpha   134.51879868
_cell_angle_beta   134.51879868
_cell_angle_gamma   66.27880418
_symmetry_Int_Tables_number   1
_chemical_formula_structural   DyU3
_chemical_formula_sum   'Dy1 U3'
_cell_volume   91.76562444
_cell_formula_units_Z   1
loop_
 _symmetry_equiv_pos_site_id
 _symmetry_equiv_pos_as_xyz
  1  'x, y, z'
loop_
 _atom_site_type_symbol
 _atom_site_label
 _atom_site_symmetry_multiplicity
 _atom_site_fract_x
 _atom_site_fract_y
 _atom_site_fract_z
 _atom_site_occupancy
  Dy  Dy0  1  0.00000000  0.00000000  0.00000000  1
  U  U0  1  0.75000000  0.25000000  0.50000000  1
  U  U1  1  0.25000000  0.75000000  0.50000000  1
  U  U2  1  0.50000000  0.50000000  0.00000000  1
loop_
_geom_bond_atom_site_label_1
_geom_bond_atom_site_label_2
_geom_bond_distance
_geom_bond_site_symmetry_2
Dy0 U2 3.105699 1_455
Dy0 U2 3.105699 1_444
Dy0 U2 3.105699 1_556
Dy0 U2 3.105699 1_545
Dy0 U1 3.237267 1_555
Dy0 U0 3.237267 1_454
Dy0 U1 3.237267 1_545
Dy0 U0 3.237267 1_455
Dy0 U1 3.237267 1_544
Dy0 U0 3.237267 1_555
Dy0 U0 3.237267 1_444
Dy0 U1 3.237267 1_444
U0 U1 3.105699 1_645
U0 U1 3.105699 1_555
U0 U1 3.105699 1_656
U0 U1 3.105699 1_544
U0 U2 3.237267 1_556
U0 U2 3.237267 1_555
U0 U2 3.237267 1_545
U0 U2 3.237267 1_656
U1 U2 3.237267 1_556
U1 U2 3.237267 1_566
U1 U2 3.237267 1_455
U1 U2 3.237267 1_555
