# generated using pymatgen
data_K3H(SeO4)2
_symmetry_space_group_name_H-M   'P 1'
_cell_length_a   8.23156044
_cell_length_b   8.23156044
_cell_length_c   10.37487518
_cell_angle_alpha   77.52234374
_cell_angle_beta   77.52234374
_cell_angle_gamma   42.91713675
_symmetry_Int_Tables_number   1
_chemical_formula_structural   K3H(SeO4)2
_chemical_formula_sum   'K6 H2 Se4 O16'
_cell_volume   465.61386430
_cell_formula_units_Z   2
loop_
 _symmetry_equiv_pos_site_id
 _symmetry_equiv_pos_as_xyz
  1  'x, y, z'
loop_
 _atom_site_type_symbol
 _atom_site_label
 _atom_site_symmetry_multiplicity
 _atom_site_fract_x
 _atom_site_fract_y
 _atom_site_fract_z
 _atom_site_occupancy
  K  K0  1  0.93178900  0.46059000  0.84789900  1
  K  K1  1  0.46059000  0.93178900  0.34789900  1
  K  K2  1  0.06977000  0.54005900  0.15183600  1
  K  K3  1  0.54005900  0.06977000  0.65183600  1
  K  K4  1  0.75801100  0.23910800  0.25050100  1
  K  K5  1  0.23910800  0.75801100  0.75050100  1
  H  H0  1  0.02340900  0.97545400  0.00940400  1
  H  H1  1  0.97545400  0.02340900  0.50940400  1
  Se  Se0  1  0.34789200  0.88788100  0.03835300  1
  Se  Se1  1  0.88788100  0.34789200  0.53835300  1
  Se  Se2  1  0.65453200  0.11560500  0.96041000  1
  Se  Se3  1  0.11560500  0.65453200  0.46041000  1
  O  O0  1  0.16723800  0.14843300  0.10159600  1
  O  O1  1  0.14843300  0.16723800  0.60159600  1
  O  O2  1  0.82924900  0.85296100  0.89896500  1
  O  O3  1  0.85296100  0.82924900  0.39896500  1
  O  O4  1  0.59028100  0.66424700  0.11808400  1
  O  O5  1  0.66424700  0.59028100  0.61808400  1
  O  O6  1  0.40607800  0.33476300  0.88225600  1
  O  O7  1  0.33476300  0.40607800  0.38225600  1
  O  O8  1  0.17911100  0.82442000  0.06438400  1
  O  O9  1  0.82442000  0.17911100  0.56438400  1
  O  O10  1  0.82259800  0.17228000  0.93750200  1
  O  O11  1  0.17228000  0.82259800  0.43750200  1
  O  O12  1  0.40430200  0.90300400  0.87510400  1
  O  O13  1  0.90300400  0.40430200  0.37510400  1
  O  O14  1  0.59376800  0.09656800  0.12410700  1
  O  O15  1  0.09656800  0.59376800  0.62410700  1
loop_
_geom_bond_atom_site_label_1
_geom_bond_atom_site_label_2
_geom_bond_distance
_geom_bond_site_symmetry_2
K0 O2 2.824557 1_555
K0 O15 2.854747 1_655
K0 O12 2.991573 1_555
K0 O10 3.018979 1_555
K0 O0 3.045371 1_656
K0 O5 3.065974 1_555
K0 O1 3.151356 1_655
K0 O12 3.168798 1_645
K0 O4 3.208345 1_556
K0 O6 3.310770 1_655
K1 O3 2.824557 1_555
K1 O14 2.854747 1_565
K1 O13 2.991573 1_555
K1 O11 3.018979 1_555
K1 O1 3.045371 1_565
K1 O4 3.065974 1_555
K1 O0 3.151356 1_565
K1 O13 3.168798 1_465
K1 O5 3.208345 1_555
K1 O7 3.310770 1_565
K2 O0 2.839842 1_555
K2 O13 2.872818 1_455
K2 O14 2.978068 1_555
K2 O8 2.987889 1_555
K2 O7 3.046267 1_555
K2 O2 3.048308 1_454
K2 O3 3.140558 1_455
K2 O14 3.169881 1_465
K2 O6 3.191619 1_554
K2 O4 3.358400 1_455
K3 O1 2.839842 1_555
K3 O12 2.872818 1_545
K3 O15 2.978068 1_555
K3 O9 2.987889 1_555
K3 O6 3.046267 1_555
K3 O3 3.048308 1_545
K3 O2 3.140558 1_545
K3 O15 3.169881 1_645
K3 O7 3.191619 1_555
K3 O5 3.358400 1_545
K4 O7 2.763350 1_555
K4 O4 2.775910 1_555
K4 O14 2.945927 1_555
K4 O13 2.957729 1_555
K4 O3 2.962807 1_545
K4 O0 2.976228 1_655
K5 O6 2.763350 1_555
K5 O5 2.775910 1_555
K5 O15 2.945927 1_555
K5 O12 2.957729 1_555
K5 O2 2.962807 1_455
K5 O1 2.976228 1_565
H0 O8 1.090557 1_555
H0 O10 1.414849 1_464
H1 O9 1.090557 1_555
H1 O11 1.414849 1_645
O0 Se0 1.660387 1_545
O1 Se1 1.660387 1_455
O2 Se2 1.671558 1_565
O3 Se3 1.671558 1_655
O4 Se0 1.652115 1_555
O5 Se1 1.652115 1_555
O6 Se2 1.665886 1_555
O7 Se3 1.665886 1_555
O8 Se0 1.765211 1_555
O9 Se1 1.765211 1_555
O10 Se2 1.715627 1_555
O11 Se3 1.715627 1_555
O12 Se0 1.659339 1_556
O13 Se1 1.659339 1_555
O14 Se2 1.670871 1_554
O15 Se3 1.670871 1_555
