# generated using pymatgen
data_Mn2Zn3(Si2O7)2
_symmetry_space_group_name_H-M   'P 1'
_cell_length_a   9.21037930
_cell_length_b   9.21037930
_cell_length_c   9.95402925
_cell_angle_alpha   60.30029681
_cell_angle_beta   60.30029681
_cell_angle_gamma   49.89413394
_symmetry_Int_Tables_number   1
_chemical_formula_structural   Mn2Zn3(Si2O7)2
_chemical_formula_sum   'Mn4 Zn6 Si8 O28'
_cell_volume   540.90113237
_cell_formula_units_Z   2
loop_
 _symmetry_equiv_pos_site_id
 _symmetry_equiv_pos_as_xyz
  1  'x, y, z'
loop_
 _atom_site_type_symbol
 _atom_site_label
 _atom_site_symmetry_multiplicity
 _atom_site_fract_x
 _atom_site_fract_y
 _atom_site_fract_z
 _atom_site_occupancy
  Mn  Mn0  1  0.78929700  0.21070300  0.75000000  1
  Mn  Mn1  1  0.21070300  0.78929700  0.25000000  1
  Mn  Mn2  1  0.00000000  0.00000000  0.00000000  1
  Mn  Mn3  1  0.00000000  0.00000000  0.50000000  1
  Zn  Zn0  1  0.05584500  0.27524700  0.10587400  1
  Zn  Zn1  1  0.72475300  0.94415500  0.39412600  1
  Zn  Zn2  1  0.27524700  0.05584500  0.60587400  1
  Zn  Zn3  1  0.39573300  0.60426700  0.75000000  1
  Zn  Zn4  1  0.94415500  0.72475300  0.89412600  1
  Zn  Zn5  1  0.60426700  0.39573300  0.25000000  1
  Si  Si0  1  0.53996700  0.09115300  0.70392700  1
  Si  Si1  1  0.09115300  0.53996700  0.20392700  1
  Si  Si2  1  0.51496200  0.24494400  0.10433800  1
  Si  Si3  1  0.24494400  0.51496200  0.60433800  1
  Si  Si4  1  0.90884700  0.46003300  0.79607300  1
  Si  Si5  1  0.48503800  0.75505600  0.89566200  1
  Si  Si6  1  0.75505600  0.48503800  0.39566200  1
  Si  Si7  1  0.46003300  0.90884700  0.29607300  1
  O  O0  1  0.82655000  0.31165700  0.32466900  1
  O  O1  1  0.96549700  0.88476900  0.41180000  1
  O  O2  1  0.45442600  0.64393200  0.08777800  1
  O  O3  1  0.88476900  0.96549700  0.91180000  1
  O  O4  1  0.23897800  0.97094200  0.32216700  1
  O  O5  1  0.06134500  0.50614800  0.62852800  1
  O  O6  1  0.64393200  0.45442600  0.58777800  1
  O  O7  1  0.02905800  0.76102200  0.17783300  1
  O  O8  1  0.93865500  0.49385200  0.37147200  1
  O  O9  1  0.62013400  0.68433000  0.27444900  1
  O  O10  1  0.03450300  0.11523100  0.58820000  1
  O  O11  1  0.76102200  0.02905800  0.67783300  1
  O  O12  1  0.49385200  0.93865500  0.87147200  1
  O  O13  1  0.31165700  0.82655000  0.82466900  1
  O  O14  1  0.68433000  0.62013400  0.77444900  1
  O  O15  1  0.97094200  0.23897800  0.82216700  1
  O  O16  1  0.90723800  0.50002400  0.93904300  1
  O  O17  1  0.37986600  0.31567000  0.72555100  1
  O  O18  1  0.49997600  0.09276200  0.56095700  1
  O  O19  1  0.31567000  0.37986600  0.22555100  1
  O  O20  1  0.50614800  0.06134500  0.12852800  1
  O  O21  1  0.11523100  0.03450300  0.08820000  1
  O  O22  1  0.50002400  0.90723800  0.43904300  1
  O  O23  1  0.54557400  0.35606800  0.91222200  1
  O  O24  1  0.09276200  0.49997600  0.06095700  1
  O  O25  1  0.35606800  0.54557400  0.41222200  1
  O  O26  1  0.68834300  0.17345000  0.17533100  1
  O  O27  1  0.17345000  0.68834300  0.67533100  1
loop_
_geom_bond_atom_site_label_1
_geom_bond_atom_site_label_2
_geom_bond_distance
_geom_bond_site_symmetry_2
Mn0 O3 1.925637 1_545
Mn0 O10 1.925637 1_655
Mn0 O23 2.029108 1_555
Mn0 O6 2.029108 1_555
Mn0 O15 2.306612 1_555
Mn0 O11 2.306612 1_555
Mn1 O21 1.925637 1_565
Mn1 O1 1.925637 1_455
Mn1 O25 2.029108 1_555
Mn1 O2 2.029108 1_555
Mn1 O4 2.306612 1_555
Mn1 O7 2.306612 1_555
Mn2 O3 1.905910 1_444
Mn2 O21 1.905910 1_555
Mn2 O7 1.974706 1_545
Mn2 O15 1.974706 1_454
Mn2 O26 2.393333 1_455
Mn2 O13 2.393333 1_544
Mn3 O1 1.905910 1_445
Mn3 O10 1.905910 1_555
Mn3 O11 1.974706 1_455
Mn3 O4 1.974706 1_545
Mn3 O27 2.393333 1_545
Mn3 O0 2.393333 1_455
O0 Si6 1.668951 1_555
O0 Zn5 2.058756 1_555
O0 Zn0 2.137603 1_655
O1 Zn1 1.993824 1_555
O2 Si5 1.637710 1_554
O2 Zn5 2.055144 1_555
O3 Zn4 1.993824 1_555
O4 Si7 1.631802 1_555
O5 Si3 1.636499 1_555
O5 Si4 1.637111 1_455
O6 Si6 1.637710 1_555
O6 Zn3 2.055144 1_555
O7 Si1 1.631802 1_555
O8 Si6 1.636499 1_555
O8 Si1 1.637111 1_655
O9 Si7 1.641565 1_555
O9 Si6 1.649730 1_555
O10 Zn2 1.993824 1_555
O11 Si0 1.631802 1_555
O12 Si5 1.636499 1_555
O12 Si0 1.637111 1_565
O13 Si5 1.668951 1_555
O13 Zn3 2.058756 1_555
O13 Zn2 2.137603 1_565
O14 Si4 1.641565 1_555
O14 Si5 1.649730 1_555
O15 Si4 1.631802 1_555
O16 Si4 1.628701 1_555
O16 Zn0 2.027778 1_656
O16 Zn4 2.106857 1_555
O17 Si0 1.641565 1_555
O17 Si3 1.649730 1_555
O18 Si0 1.628701 1_555
O18 Zn1 2.027778 1_545
O18 Zn2 2.106857 1_555
O19 Si1 1.641565 1_555
O19 Si2 1.649730 1_555
O20 Si2 1.636499 1_555
O20 Si7 1.637111 1_545
O21 Zn0 1.993824 1_555
O22 Si7 1.628701 1_555
O22 Zn2 2.027778 1_565
O22 Zn1 2.106857 1_555
O23 Si2 1.637710 1_556
O23 Zn3 2.055144 1_555
O24 Si1 1.628701 1_555
O24 Zn4 2.027778 1_454
O24 Zn0 2.106857 1_555
O25 Si3 1.637710 1_555
O25 Zn5 2.055144 1_555
O26 Si2 1.668951 1_555
O26 Zn5 2.058756 1_555
O26 Zn1 2.137603 1_545
O27 Si3 1.668951 1_555
O27 Zn3 2.058756 1_555
O27 Zn4 2.137603 1_455
