# generated using pymatgen
data_K3Be2H7C3O13
_symmetry_space_group_name_H-M   'P 1'
_cell_length_a   9.58400700
_cell_length_b   9.69199073
_cell_length_c   16.17617833
_cell_angle_alpha   79.04090338
_cell_angle_beta   78.72757190
_cell_angle_gamma   64.85874753
_symmetry_Int_Tables_number   1
_chemical_formula_structural   K3Be2H7C3O13
_chemical_formula_sum   'K12 Be8 H28 C12 O52'
_cell_volume   1324.25000202
_cell_formula_units_Z   4
loop_
 _symmetry_equiv_pos_site_id
 _symmetry_equiv_pos_as_xyz
  1  'x, y, z'
loop_
 _atom_site_type_symbol
 _atom_site_label
 _atom_site_symmetry_multiplicity
 _atom_site_fract_x
 _atom_site_fract_y
 _atom_site_fract_z
 _atom_site_occupancy
  K  K0  1  0.74635300  0.24558800  0.63749600  1
  K  K1  1  0.25364700  0.75441200  0.36250400  1
  K  K2  1  0.90971000  0.85582100  0.17273100  1
  K  K3  1  0.09029000  0.14417900  0.82726900  1
  K  K4  1  0.73241500  0.35990100  0.98715600  1
  K  K5  1  0.26758500  0.64009900  0.01284400  1
  K  K6  1  0.79462700  0.88757700  0.43029000  1
  K  K7  1  0.20537300  0.11242300  0.56971000  1
  K  K8  1  0.50575300  0.27759500  0.42792800  1
  K  K9  1  0.49424700  0.72240500  0.57207200  1
  K  K10  1  0.58464800  0.77240000  0.08895600  1
  K  K11  1  0.41535200  0.22760000  0.91104400  1
  Be  Be0  1  0.91608400  0.61582600  0.80116600  1
  Be  Be1  1  0.08391600  0.38417400  0.19883400  1
  Be  Be2  1  0.68749400  0.90160300  0.77615000  1
  Be  Be3  1  0.31250600  0.09839700  0.22385000  1
  Be  Be4  1  0.98490500  0.85822100  0.73215500  1
  Be  Be5  1  0.01509500  0.14177900  0.26784500  1
  Be  Be6  1  0.85358300  0.74538100  0.64353100  1
  Be  Be7  1  0.14641700  0.25461900  0.35646900  1
  H  H0  1  0.95177400  0.66381900  0.97761400  1
  H  H1  1  0.04822600  0.33618100  0.02238600  1
  H  H2  1  0.94216200  0.57597400  0.06938500  1
  H  H3  1  0.05783800  0.42402600  0.93061500  1
  H  H4  1  0.59012300  0.13455800  0.24475900  1
  H  H5  1  0.40987700  0.86544200  0.75524100  1
  H  H6  1  0.72665300  0.17086700  0.26239400  1
  H  H7  1  0.27334700  0.82913300  0.73760600  1
  H  H8  1  0.72944300  0.04221700  0.00636000  1
  H  H9  1  0.27055700  0.95778300  0.99364000  1
  H  H10  1  0.60617800  0.09695800  0.08635000  1
  H  H11  1  0.39382200  0.90304200  0.91365000  1
  H  H12  1  0.87925500  0.42400300  0.47296300  1
  H  H13  1  0.12074500  0.57599700  0.52703700  1
  H  H14  1  0.83236700  0.52634600  0.54851900  1
  H  H15  1  0.16763300  0.47365400  0.45148100  1
  H  H16  1  0.59884900  0.80813000  0.28119200  1
  H  H17  1  0.40115100  0.19187000  0.71880800  1
  H  H18  1  0.76992900  0.66751900  0.26821000  1
  H  H19  1  0.23007100  0.33248100  0.73179000  1
  H  H20  1  0.36144300  0.47778200  0.55653800  1
  H  H21  1  0.63855700  0.52221800  0.44346200  1
  H  H22  1  0.40025900  0.41485300  0.64753100  1
  H  H23  1  0.59974100  0.58514700  0.35246900  1
  H  H24  1  0.64139800  0.51449800  0.77063100  1
  H  H25  1  0.35860200  0.48550200  0.22936900  1
  H  H26  1  0.52292100  0.49081100  0.21227500  1
  H  H27  1  0.47707900  0.50918900  0.78772500  1
  C  C0  1  0.59597600  0.99728200  0.62635900  1
  C  C1  1  0.40402400  0.00271800  0.37364100  1
  C  C2  1  0.83093800  0.37497100  0.17331900  1
  C  C3  1  0.16906200  0.62502900  0.82668100  1
  C  C4  1  0.62708600  0.69152800  0.87927500  1
  C  C5  1  0.37291400  0.30847200  0.12072500  1
  C  C6  1  0.80642700  0.03388200  0.85098700  1
  C  C7  1  0.19357300  0.96611800  0.14901300  1
  C  C8  1  0.92457600  0.15974300  0.42443400  1
  C  C9  1  0.07542400  0.84025700  0.57556600  1
  C  C10  1  0.94747300  0.44814300  0.68536900  1
  C  C11  1  0.05252700  0.55185700  0.31463100  1
  O  O0  1  0.86051600  0.77887500  0.73889000  1
  O  O1  1  0.13948400  0.22112500  0.26111000  1
  O  O2  1  0.69480600  0.86276800  0.60368300  1
  O  O3  1  0.30519400  0.13723200  0.39631700  1
  O  O4  1  0.60066400  0.03041500  0.70146300  1
  O  O5  1  0.39933600  0.96958500  0.29853700  1
  O  O6  1  0.49889600  0.09292900  0.57936900  1
  O  O7  1  0.50110400  0.90707100  0.42063100  1
  O  O8  1  0.84565100  0.27189700  0.23981000  1
  O  O9  1  0.15434900  0.72810300  0.76019000  1
  O  O10  1  0.95643400  0.40103600  0.13798100  1
  O  O11  1  0.04356600  0.59896400  0.86201900  1
  O  O12  1  0.70468800  0.44613100  0.14221500  1
  O  O13  1  0.29531200  0.55386900  0.85778500  1
  O  O14  1  0.57501000  0.81203600  0.82229100  1
  O  O15  1  0.42499000  0.18796400  0.17770900  1
  O  O16  1  0.77270800  0.59457100  0.86768200  1
  O  O17  1  0.22729200  0.40542900  0.13231800  1
  O  O18  1  0.53745300  0.66861200  0.94401600  1
  O  O19  1  0.46254700  0.33138800  0.05598400  1
  O  O20  1  0.92661100  0.99496200  0.79211300  1
  O  O21  1  0.07338900  0.00503800  0.20788700  1
  O  O22  1  0.69359000  0.99220500  0.85043200  1
  O  O23  1  0.30641000  0.00779500  0.14956800  1
  O  O24  1  0.79964700  0.11303700  0.90744400  1
  O  O25  1  0.20035300  0.88696300  0.09255600  1
  O  O26  1  0.97516600  0.07022600  0.36344600  1
  O  O27  1  0.02483400  0.92977400  0.63655400  1
  O  O28  1  0.99576100  0.25053700  0.42509500  1
  O  O29  1  0.00423900  0.74946300  0.57490500  1
  O  O30  1  0.81277100  0.15829800  0.47989000  1
  O  O31  1  0.18722900  0.84170200  0.52011000  1
  O  O32  1  0.85572500  0.57378900  0.64312000  1
  O  O33  1  0.14427500  0.42621100  0.35688000  1
  O  O34  1  0.00483400  0.46389700  0.74914300  1
  O  O35  1  0.99516600  0.53610300  0.25085700  1
  O  O36  1  0.97913800  0.31654200  0.66679800  1
  O  O37  1  0.02086200  0.68345800  0.33320200  1
  O  O38  1  0.93588500  0.67650100  0.03797200  1
  O  O39  1  0.06411500  0.32349900  0.96202800  1
  O  O40  1  0.67170600  0.10109100  0.28175700  1
  O  O41  1  0.32829400  0.89890900  0.71824300  1
  O  O42  1  0.69325300  0.00644600  0.06516100  1
  O  O43  1  0.30674700  0.99355400  0.93483900  1
  O  O44  1  0.79813800  0.51773300  0.49621000  1
  O  O45  1  0.20186200  0.48226700  0.50379000  1
  O  O46  1  0.66450800  0.71647700  0.25186900  1
  O  O47  1  0.33549200  0.28352300  0.74813100  1
  O  O48  1  0.56235200  0.53699800  0.40600500  1
  O  O49  1  0.43764800  0.46300200  0.59399500  1
  O  O50  1  0.58302400  0.46312500  0.75624200  1
  O  O51  1  0.41697600  0.53687500  0.24375800  1
loop_
_geom_bond_atom_site_label_1
_geom_bond_atom_site_label_2
_geom_bond_distance
_geom_bond_site_symmetry_2
K0 O30 2.710854 1_555
K0 O36 2.741533 1_555
K0 O50 2.853986 1_555
K0 O4 2.908324 1_555
K0 O49 2.939669 1_555
K0 O27 3.090765 1_645
K1 O31 2.710854 1_555
K1 O37 2.741533 1_555
K1 O51 2.853986 1_555
K1 O5 2.908324 1_555
K1 O48 2.939669 1_555
K1 O26 3.090765 1_465
K2 O42 2.708276 1_565
K2 O21 2.732201 1_665
K2 O37 2.929834 1_655
K2 O35 2.937540 1_555
K2 O25 2.947112 1_655
K2 O38 2.948150 1_555
K2 O40 3.062389 1_565
K3 O43 2.708276 1_545
K3 O20 2.732201 1_445
K3 O36 2.929834 1_455
K3 O34 2.937540 1_555
K3 O24 2.947112 1_455
K3 O39 2.948150 1_555
K3 O41 3.062389 1_545
K4 O24 2.709355 1_555
K4 O19 2.714787 1_556
K4 O12 2.721801 1_556
K4 O16 2.800075 1_555
K4 O18 2.809991 1_555
K4 O39 2.998694 1_655
K5 O25 2.709355 1_555
K5 O18 2.714787 1_554
K5 O13 2.721801 1_554
K5 O17 2.800075 1_555
K5 O19 2.809991 1_555
K5 O38 2.998694 1_455
K6 O37 2.699405 1_655
K6 O7 2.771784 1_555
K6 O2 2.780315 1_555
K6 O26 2.905205 1_565
K6 O40 2.930493 1_565
K6 O30 2.966666 1_565
K6 O29 3.108329 1_655
K7 O36 2.699405 1_455
K7 O6 2.771784 1_555
K7 O3 2.780315 1_555
K7 O27 2.905205 1_545
K7 O41 2.930493 1_545
K7 O31 2.966666 1_545
K7 O28 3.108329 1_455
K8 O48 2.735959 1_555
K8 O6 2.752961 1_555
K8 O30 2.899664 1_555
K8 O45 2.922785 1_555
K8 O3 2.945757 1_555
K8 O40 2.966932 1_555
K9 O49 2.735959 1_555
K9 O7 2.752961 1_555
K9 O31 2.899664 1_555
K9 O44 2.922785 1_555
K9 O2 2.945757 1_555
K9 O41 2.966932 1_555
K10 O46 2.778022 1_555
K10 O42 2.809749 1_565
K10 O23 2.817126 1_565
K10 O12 2.885434 1_555
K10 O18 2.900242 1_554
K11 O47 2.778022 1_555
K11 O43 2.809749 1_545
K11 O22 2.817126 1_545
K11 O13 2.885434 1_555
K11 O19 2.900242 1_556
Be0 O16 1.632968 1_555
Be0 O0 1.638615 1_555
Be0 O34 1.651358 1_655
Be0 O11 1.651611 1_655
Be1 O17 1.632968 1_555
Be1 O1 1.638615 1_555
Be1 O35 1.651358 1_455
Be1 O10 1.651611 1_455
Be2 O4 1.627132 1_565
Be2 O22 1.640292 1_555
Be2 O14 1.645327 1_555
Be2 O0 1.653410 1_555
Be3 O5 1.627132 1_545
Be3 O23 1.640292 1_555
Be3 O15 1.645327 1_555
Be3 O1 1.653410 1_555
Be4 O27 1.614088 1_655
Be4 O20 1.630020 1_555
Be4 O0 1.649495 1_555
Be4 O9 1.662398 1_655
Be5 O26 1.614088 1_455
Be5 O21 1.630020 1_555
Be5 O1 1.649495 1_555
Be5 O8 1.662398 1_455
Be6 O2 1.630670 1_555
Be6 O29 1.650429 1_655
Be6 O0 1.654699 1_555
Be6 O32 1.655718 1_555
Be7 O3 1.630670 1_555
Be7 O28 1.650429 1_455
Be7 O1 1.654699 1_555
Be7 O33 1.655718 1_555
H0 O38 0.981416 1_556
H1 O39 0.981416 1_554
H2 O38 0.992476 1_555
H3 O39 0.992476 1_555
H4 O40 0.984067 1_555
H5 O41 0.984067 1_555
H6 O40 0.995163 1_555
H7 O41 0.995163 1_555
H8 O42 0.996518 1_555
H9 O43 0.996518 1_555
H10 O42 0.981792 1_555
H11 O43 0.981792 1_555
H12 O44 0.993252 1_555
H13 O45 0.993252 1_555
H14 O44 0.994595 1_555
H14 K9 2.969417 1_555
H15 O45 0.994595 1_555
H15 K8 2.969417 1_555
H16 O46 0.989241 1_555
H17 O47 0.989241 1_555
H18 O46 0.982448 1_555
H18 K2 2.776266 1_555
H19 O47 0.982448 1_555
H19 K3 2.776266 1_555
H20 O49 0.985985 1_555
H20 K8 2.852215 1_555
H21 O48 0.985985 1_555
H21 K9 2.852215 1_555
H22 O49 0.981457 1_555
H23 O48 0.981457 1_555
H24 O50 0.973007 1_555
H25 O51 0.973007 1_555
H26 O51 0.994371 1_555
H27 O50 0.994371 1_555
C0 O6 1.256385 1_565
C0 O2 1.314574 1_555
C0 O4 1.327797 1_565
C1 O7 1.256385 1_545
C1 O3 1.314574 1_555
C1 O5 1.327797 1_545
C2 O12 1.260896 1_555
C2 O8 1.306056 1_555
C2 O10 1.331045 1_555
C3 O13 1.260896 1_555
C3 O9 1.306056 1_555
C3 O11 1.331045 1_555
C4 O18 1.267284 1_555
C4 O16 1.310090 1_555
C4 O14 1.318378 1_555
C5 O19 1.267284 1_555
C5 O17 1.310090 1_555
C5 O15 1.318378 1_555
C6 O24 1.275791 1_555
C6 O22 1.307318 1_545
C6 O20 1.309413 1_545
C7 O25 1.275791 1_555
C7 O23 1.307318 1_565
C7 O21 1.309413 1_565
C8 O30 1.259087 1_555
C8 O26 1.319885 1_555
C8 O28 1.325318 1_555
C9 O31 1.259087 1_555
C9 O27 1.319885 1_555
C9 O29 1.325318 1_555
C10 O36 1.261080 1_555
C10 O32 1.315999 1_555
C10 O34 1.320117 1_655
C11 O37 1.261080 1_555
C11 O33 1.315999 1_555
C11 O35 1.320117 1_455
