# generated using pymatgen
data_ZrIn
_symmetry_space_group_name_H-M   'P 1'
_cell_length_a   6.28129832
_cell_length_b   6.28129832
_cell_length_c   8.90820144
_cell_angle_alpha   90.00000000
_cell_angle_beta   90.00000000
_cell_angle_gamma   90.00000000
_symmetry_Int_Tables_number   1
_chemical_formula_structural   ZrIn
_chemical_formula_sum   'Zr8 In8'
_cell_volume   351.47049183
_cell_formula_units_Z   8
loop_
 _symmetry_equiv_pos_site_id
 _symmetry_equiv_pos_as_xyz
  1  'x, y, z'
loop_
 _atom_site_type_symbol
 _atom_site_label
 _atom_site_symmetry_multiplicity
 _atom_site_fract_x
 _atom_site_fract_y
 _atom_site_fract_z
 _atom_site_occupancy
  Zr  Zr0_0  1  0.00000000  0.00000000  0.00000000  1
  Zr  Zr0_1  1  0.00000000  0.00000000  0.50000000  1
  Zr  Zr0_2  1  0.00000000  0.50000000  0.00000000  1
  Zr  Zr0_3  1  0.00000000  0.50000000  0.50000000  1
  Zr  Zr0_4  1  0.50000000  0.00000000  0.00000000  1
  Zr  Zr0_5  1  0.50000000  0.00000000  0.50000000  1
  Zr  Zr0_6  1  0.50000000  0.50000000  0.00000000  1
  Zr  Zr0_7  1  0.50000000  0.50000000  0.50000000  1
  In  In0_0  1  0.25000000  0.25000000  0.25000000  1
  In  In0_1  1  0.25000000  0.25000000  0.75000000  1
  In  In0_2  1  0.25000000  0.75000000  0.25000000  1
  In  In0_3  1  0.25000000  0.75000000  0.75000000  1
  In  In0_4  1  0.75000000  0.25000000  0.25000000  1
  In  In0_5  1  0.75000000  0.25000000  0.75000000  1
  In  In0_6  1  0.75000000  0.75000000  0.25000000  1
  In  In0_7  1  0.75000000  0.75000000  0.75000000  1
loop_
_geom_bond_atom_site_label_1
_geom_bond_atom_site_label_2
_geom_bond_distance
_geom_bond_site_symmetry_2
Zr0_0 Zr0_2 3.140649 1_555
Zr0_0 Zr0_2 3.140649 1_545
Zr0_0 Zr0_4 3.140649 1_455
Zr0_0 Zr0_4 3.140649 1_555
Zr0_1 Zr0_5 3.140649 1_555
Zr0_1 Zr0_3 3.140649 1_555
Zr0_1 Zr0_3 3.140649 1_545
Zr0_1 Zr0_5 3.140649 1_455
Zr0_2 Zr0_6 3.140649 1_455
Zr0_2 Zr0_6 3.140649 1_555
Zr0_3 Zr0_7 3.140649 1_555
Zr0_3 Zr0_7 3.140649 1_455
Zr0_4 Zr0_6 3.140649 1_545
Zr0_4 Zr0_6 3.140649 1_555
Zr0_5 Zr0_7 3.140649 1_545
Zr0_5 Zr0_7 3.140649 1_555
In0_0 In0_2 3.140649 1_555
In0_0 In0_2 3.140649 1_545
In0_0 In0_4 3.140649 1_455
In0_0 In0_4 3.140649 1_555
In0_0 Zr0_1 3.145090 1_555
In0_0 Zr0_6 3.145090 1_555
In0_0 Zr0_7 3.145090 1_555
In0_0 Zr0_4 3.145090 1_555
In0_0 Zr0_5 3.145090 1_555
In0_0 Zr0_3 3.145090 1_555
In0_0 Zr0_0 3.145090 1_555
In0_0 Zr0_2 3.145090 1_555
In0_1 In0_5 3.140649 1_455
In0_1 In0_3 3.140649 1_545
In0_1 In0_3 3.140649 1_555
In0_1 In0_5 3.140649 1_555
In0_1 Zr0_1 3.145090 1_555
In0_1 Zr0_7 3.145090 1_555
In0_1 Zr0_4 3.145090 1_556
In0_1 Zr0_5 3.145090 1_555
In0_1 Zr0_2 3.145090 1_556
In0_1 Zr0_6 3.145090 1_556
In0_1 Zr0_3 3.145090 1_555
In0_1 Zr0_0 3.145090 1_556
In0_2 In0_6 3.140649 1_555
In0_2 In0_6 3.140649 1_455
In0_2 Zr0_6 3.145090 1_555
In0_2 Zr0_7 3.145090 1_555
In0_2 Zr0_4 3.145090 1_565
In0_2 Zr0_0 3.145090 1_565
In0_2 Zr0_1 3.145090 1_565
In0_2 Zr0_3 3.145090 1_555
In0_2 Zr0_5 3.145090 1_565
In0_2 Zr0_2 3.145090 1_555
In0_3 In0_7 3.140649 1_455
In0_3 In0_7 3.140649 1_555
In0_3 Zr0_7 3.145090 1_555
In0_3 Zr0_0 3.145090 1_566
In0_3 Zr0_4 3.145090 1_566
In0_3 Zr0_2 3.145090 1_556
In0_3 Zr0_1 3.145090 1_565
In0_3 Zr0_3 3.145090 1_555
In0_3 Zr0_5 3.145090 1_565
In0_3 Zr0_6 3.145090 1_556
In0_4 In0_6 3.140649 1_555
In0_4 In0_6 3.140649 1_545
In0_4 Zr0_2 3.145090 1_655
In0_4 Zr0_6 3.145090 1_555
In0_4 Zr0_7 3.145090 1_555
In0_4 Zr0_0 3.145090 1_655
In0_4 Zr0_4 3.145090 1_555
In0_4 Zr0_3 3.145090 1_655
In0_4 Zr0_5 3.145090 1_555
In0_4 Zr0_1 3.145090 1_655
In0_5 In0_7 3.140649 1_555
In0_5 In0_7 3.140649 1_545
In0_5 Zr0_2 3.145090 1_656
In0_5 Zr0_7 3.145090 1_555
In0_5 Zr0_0 3.145090 1_656
In0_5 Zr0_4 3.145090 1_556
In0_5 Zr0_3 3.145090 1_655
In0_5 Zr0_5 3.145090 1_555
In0_5 Zr0_1 3.145090 1_655
In0_5 Zr0_6 3.145090 1_556
In0_6 Zr0_2 3.145090 1_655
In0_6 Zr0_6 3.145090 1_555
In0_6 Zr0_7 3.145090 1_555
In0_6 Zr0_4 3.145090 1_565
In0_6 Zr0_0 3.145090 1_665
In0_6 Zr0_3 3.145090 1_655
In0_6 Zr0_5 3.145090 1_565
In0_6 Zr0_1 3.145090 1_665
In0_7 Zr0_2 3.145090 1_656
In0_7 Zr0_7 3.145090 1_555
In0_7 Zr0_3 3.145090 1_655
In0_7 Zr0_4 3.145090 1_566
In0_7 Zr0_0 3.145090 1_666
In0_7 Zr0_5 3.145090 1_565
In0_7 Zr0_1 3.145090 1_665
In0_7 Zr0_6 3.145090 1_556
