# generated using pymatgen
data_NaLaHfNbO6
_symmetry_space_group_name_H-M   'P 1'
_cell_length_a   5.77379348
_cell_length_b   5.77379348
_cell_length_c   5.77379348
_cell_angle_alpha   60.00000000
_cell_angle_beta   60.00000000
_cell_angle_gamma   60.00000000
_symmetry_Int_Tables_number   1
_chemical_formula_structural   NaLaHfNbO6
_chemical_formula_sum   'Na1 La1 Hf1 Nb1 O6'
_cell_volume   136.10332606
_cell_formula_units_Z   1
loop_
 _symmetry_equiv_pos_site_id
 _symmetry_equiv_pos_as_xyz
  1  'x, y, z'
loop_
 _atom_site_type_symbol
 _atom_site_label
 _atom_site_symmetry_multiplicity
 _atom_site_fract_x
 _atom_site_fract_y
 _atom_site_fract_z
 _atom_site_occupancy
  Na  Na0  1  0.75000000  0.75000000  0.75000000  1
  La  La0  1  0.25000000  0.25000000  0.25000000  1
  Hf  Hf0  1  -0.00000000  -0.00000000  -0.00000000  1
  Nb  Nb0  1  0.50000000  0.50000000  0.50000000  1
  O  O0  1  0.74803763  0.25196237  0.25196237  1
  O  O1  1  0.25196237  0.74803763  0.74803763  1
  O  O2  1  0.74803763  0.25196237  0.74803763  1
  O  O3  1  0.25196237  0.74803763  0.25196237  1
  O  O4  1  0.74803763  0.74803763  0.25196237  1
  O  O5  1  0.25196237  0.25196237  0.74803763  1
loop_
_geom_bond_atom_site_label_1
_geom_bond_atom_site_label_2
_geom_bond_distance
_geom_bond_site_symmetry_2
Na0 O4 2.886941 1_555
Na0 O1 2.886941 1_555
Na0 O3 2.886941 1_655
Na0 O4 2.886941 1_556
Na0 O0 2.886941 1_565
Na0 O1 2.886941 1_655
Na0 O5 2.886941 1_655
Na0 O5 2.886941 1_565
Na0 O3 2.886941 1_556
Na0 O2 2.886941 1_555
Na0 O2 2.886941 1_565
Na0 O0 2.886941 1_556
La0 O4 2.886941 1_455
La0 O1 2.886941 1_554
La0 O3 2.886941 1_545
La0 O2 2.886941 1_455
La0 O5 2.886941 1_555
La0 O5 2.886941 1_554
La0 O1 2.886941 1_545
La0 O0 2.886941 1_455
La0 O2 2.886941 1_554
La0 O4 2.886941 1_545
La0 O3 2.886941 1_555
La0 O0 2.886941 1_555
Hf0 O3 2.057368 1_545
Hf0 O2 2.057368 1_454
Hf0 O4 2.057368 1_445
Hf0 O5 2.057368 1_554
Hf0 O1 2.057368 1_544
Hf0 O0 2.057368 1_455
Nb0 O2 2.025321 1_555
Nb0 O4 2.025321 1_555
Nb0 O1 2.025321 1_555
Nb0 O5 2.025321 1_555
Nb0 O3 2.025321 1_555
Nb0 O0 2.025321 1_555
