# generated using pymatgen
data_CeSe2
_symmetry_space_group_name_H-M   'P 1'
_cell_length_a   5.53425700
_cell_length_b   9.17307056
_cell_length_c   11.16575505
_cell_angle_alpha   109.39434633
_cell_angle_beta   90.30309689
_cell_angle_gamma   107.16669713
_symmetry_Int_Tables_number   1
_chemical_formula_structural   CeSe2
_chemical_formula_sum   'Ce6 Se12'
_cell_volume   507.49019698
_cell_formula_units_Z   6
loop_
 _symmetry_equiv_pos_site_id
 _symmetry_equiv_pos_as_xyz
  1  'x, y, z'
loop_
 _atom_site_type_symbol
 _atom_site_label
 _atom_site_symmetry_multiplicity
 _atom_site_fract_x
 _atom_site_fract_y
 _atom_site_fract_z
 _atom_site_occupancy
  Ce  Ce0  1  0.66618100  0.84451900  0.12288000  1
  Ce  Ce1  1  0.33381900  0.15548100  0.87712000  1
  Ce  Ce2  1  0.99644100  0.50891900  0.25045600  1
  Ce  Ce3  1  0.00355900  0.49108100  0.74954400  1
  Ce  Ce4  1  0.33696900  0.18716300  0.39089400  1
  Ce  Ce5  1  0.66303100  0.81283700  0.60910600  1
  Se  Se0  1  0.07545400  0.17418700  0.14024000  1
  Se  Se1  1  0.92454600  0.82581300  0.85976000  1
  Se  Se2  1  0.52269400  0.55770300  0.35381500  1
  Se  Se3  1  0.47730600  0.44229700  0.64618500  1
  Se  Se4  1  0.81557700  0.14005600  0.44020600  1
  Se  Se5  1  0.18442300  0.85994400  0.55979400  1
  Se  Se6  1  0.57713700  0.17425000  0.14112400  1
  Se  Se7  1  0.42286300  0.82575000  0.85887600  1
  Se  Se8  1  0.16492200  0.84133400  0.22618200  1
  Se  Se9  1  0.83507800  0.15866600  0.77381800  1
  Se  Se10  1  0.74479100  0.49978200  0.99961100  1
  Se  Se11  1  0.25520900  0.50021800  0.00038900  1
loop_
_geom_bond_atom_site_label_1
_geom_bond_atom_site_label_2
_geom_bond_distance
_geom_bond_site_symmetry_2
Ce0 Se8 2.997679 1_655
Ce0 Se8 3.005876 1_555
Ce0 Se0 3.142545 1_665
Ce0 Se11 3.142673 1_555
Ce0 Se6 3.147149 1_565
Ce0 Se10 3.164111 1_554
Ce0 Se7 3.164895 1_554
Ce0 Se1 3.249594 1_554
Ce0 Se4 3.585203 1_565
Ce1 Se9 2.997679 1_455
Ce1 Se9 3.005876 1_555
Ce1 Se1 3.142545 1_445
Ce1 Se10 3.142673 1_555
Ce1 Se7 3.147149 1_545
Ce1 Se11 3.164111 1_556
Ce1 Se6 3.164895 1_556
Ce1 Se0 3.249594 1_556
Ce1 Se5 3.585203 1_545
Ce2 Se2 2.964422 1_555
Ce2 Se2 2.977657 1_655
Ce2 Se8 3.018956 1_655
Ce2 Se0 3.069607 1_655
Ce2 Se10 3.086331 1_554
Ce2 Se6 3.094427 1_555
Ce2 Se11 3.132942 1_655
Ce2 Se5 3.738821 1_655
Ce3 Se3 2.964422 1_555
Ce3 Se3 2.977657 1_455
Ce3 Se9 3.018956 1_455
Ce3 Se1 3.069607 1_455
Ce3 Se11 3.086331 1_556
Ce3 Se7 3.094427 1_555
Ce3 Se10 3.132942 1_455
Ce3 Se4 3.738821 1_455
Ce4 Se4 2.873132 1_455
Ce4 Se4 2.885124 1_555
Ce4 Se8 2.945547 1_545
Ce4 Se3 2.946002 1_555
Ce4 Se6 3.077537 1_555
Ce4 Se0 3.094508 1_555
Ce4 Se2 3.414350 1_555
Ce5 Se5 2.873132 1_655
Ce5 Se5 2.885124 1_555
Ce5 Se9 2.945547 1_565
Ce5 Se2 2.946002 1_555
Ce5 Se7 3.077537 1_555
Ce5 Se1 3.094508 1_555
Ce5 Se3 3.414350 1_555
Se0 Se6 2.758054 1_455
Se0 Se6 2.776237 1_555
Se1 Se7 2.758054 1_655
Se1 Se7 2.776237 1_555
Se10 Se11 2.710711 1_556
Se10 Se11 2.823570 1_656
