# generated using pymatgen
data_MoAsO6
_symmetry_space_group_name_H-M   'P 1'
_cell_length_a   7.37732100
_cell_length_b   12.67937300
_cell_length_c   12.33876402
_cell_angle_alpha   90.00000000
_cell_angle_beta   104.88488429
_cell_angle_gamma   90.00000000
_symmetry_Int_Tables_number   1
_chemical_formula_structural   MoAsO6
_chemical_formula_sum   'Mo8 As8 O48'
_cell_volume   1115.43626052
_cell_formula_units_Z   8
loop_
 _symmetry_equiv_pos_site_id
 _symmetry_equiv_pos_as_xyz
  1  'x, y, z'
loop_
 _atom_site_type_symbol
 _atom_site_label
 _atom_site_symmetry_multiplicity
 _atom_site_fract_x
 _atom_site_fract_y
 _atom_site_fract_z
 _atom_site_occupancy
  Mo  Mo0  1  0.61916800  0.27161300  0.77989200  1
  Mo  Mo1  1  0.38083200  0.77161300  0.72010800  1
  Mo  Mo2  1  0.38083200  0.72838700  0.22010800  1
  Mo  Mo3  1  0.61916800  0.22838700  0.27989200  1
  Mo  Mo4  1  0.17843200  0.28414100  0.58579600  1
  Mo  Mo5  1  0.82156800  0.78414100  0.91420400  1
  Mo  Mo6  1  0.82156800  0.71585900  0.41420400  1
  Mo  Mo7  1  0.17843200  0.21585900  0.08579600  1
  As  As0  1  0.20564800  0.35872400  0.32588100  1
  As  As1  1  0.79435200  0.85872400  0.17411900  1
  As  As2  1  0.79435200  0.64127600  0.67411900  1
  As  As3  1  0.20564800  0.14127600  0.82588100  1
  As  As4  1  0.61229500  0.14721900  0.01271000  1
  As  As5  1  0.38770500  0.64721900  0.48729000  1
  As  As6  1  0.38770500  0.85278100  0.98729000  1
  As  As7  1  0.61229500  0.35278100  0.51271000  1
  O  O0  1  0.99620600  0.20220600  0.59683900  1
  O  O1  1  0.00379400  0.70220600  0.90316100  1
  O  O2  1  0.00379400  0.79779400  0.40316100  1
  O  O3  1  0.99620600  0.29779400  0.09683900  1
  O  O4  1  0.47976400  0.29751800  0.60995900  1
  O  O5  1  0.52023600  0.79751800  0.89004100  1
  O  O6  1  0.52023600  0.70248200  0.39004100  1
  O  O7  1  0.47976400  0.20248200  0.10995900  1
  O  O8  1  0.10375600  0.41111800  0.59568200  1
  O  O9  1  0.89624400  0.91111800  0.90431800  1
  O  O10  1  0.89624400  0.58888200  0.40431800  1
  O  O11  1  0.10375600  0.08888200  0.09568200  1
  O  O12  1  0.76812600  0.37579700  0.77516400  1
  O  O13  1  0.23187400  0.87579700  0.72483600  1
  O  O14  1  0.23187400  0.62420300  0.22483600  1
  O  O15  1  0.76812600  0.12420300  0.27516400  1
  O  O16  1  0.74308600  0.15805900  0.77368800  1
  O  O17  1  0.25691400  0.65805900  0.72631200  1
  O  O18  1  0.25691400  0.84194100  0.22631200  1
  O  O19  1  0.74308600  0.34194100  0.27368800  1
  O  O20  1  0.32224000  0.23652600  0.74724100  1
  O  O21  1  0.67776000  0.73652600  0.75275900  1
  O  O22  1  0.67776000  0.76347400  0.25275900  1
  O  O23  1  0.32224000  0.26347400  0.24724100  1
  O  O24  1  0.16913000  0.26659000  0.42999100  1
  O  O25  1  0.83087000  0.76659000  0.07000900  1
  O  O26  1  0.83087000  0.73341000  0.57000900  1
  O  O27  1  0.16913000  0.23341000  0.92999100  1
  O  O28  1  0.41799100  0.41857700  0.41343400  1
  O  O29  1  0.58200900  0.91857700  0.08656600  1
  O  O30  1  0.58200900  0.58142300  0.58656600  1
  O  O31  1  0.41799100  0.08142300  0.91343400  1
  O  O32  1  0.60710800  0.26845000  0.93341100  1
  O  O33  1  0.39289200  0.76845000  0.56658900  1
  O  O34  1  0.39289200  0.73155000  0.06658900  1
  O  O35  1  0.60710800  0.23155000  0.43341100  1
  O  O36  1  0.54292200  0.51162200  0.86613500  1
  O  O37  1  0.45707800  0.01162200  0.63386500  1
  O  O38  1  0.45707800  0.48837800  0.13386500  1
  O  O39  1  0.54292200  0.98837800  0.36613500  1
  O  O40  1  0.31542100  0.04472100  0.55588700  1
  O  O41  1  0.68457900  0.54472100  0.94411300  1
  O  O42  1  0.68457900  0.95527900  0.44411300  1
  O  O43  1  0.31542100  0.45527900  0.05588700  1
  O  O44  1  0.27700000  0.50088800  0.96006900  1
  O  O45  1  0.72300000  0.00088800  0.53993100  1
  O  O46  1  0.72300000  0.49911200  0.03993100  1
  O  O47  1  0.27700000  0.99911200  0.46006900  1
loop_
_geom_bond_atom_site_label_1
_geom_bond_atom_site_label_2
_geom_bond_distance
_geom_bond_site_symmetry_2
Mo0 O16 1.717716 1_555
Mo0 O12 1.728859 1_555
Mo0 O32 1.919436 1_555
Mo0 O4 2.110478 1_555
Mo0 O20 2.169163 1_555
Mo1 O17 1.717716 1_555
Mo1 O13 1.728859 1_555
Mo1 O33 1.919436 1_555
Mo1 O5 2.110478 1_555
Mo1 O21 2.169163 1_555
Mo2 O18 1.717716 1_555
Mo2 O14 1.728859 1_555
Mo2 O34 1.919436 1_555
Mo2 O6 2.110478 1_555
Mo2 O22 2.169163 1_555
Mo3 O19 1.717716 1_555
Mo3 O15 1.728859 1_555
Mo3 O35 1.919436 1_555
Mo3 O7 2.110478 1_555
Mo3 O23 2.169163 1_555
Mo4 O8 1.716091 1_555
Mo4 O0 1.731821 1_455
Mo4 O24 1.918915 1_555
Mo4 O20 2.091044 1_555
Mo4 O4 2.172322 1_555
Mo5 O9 1.716091 1_555
Mo5 O1 1.731821 1_655
Mo5 O25 1.918915 1_556
Mo5 O21 2.091044 1_555
Mo5 O5 2.172322 1_555
Mo6 O10 1.716091 1_555
Mo6 O2 1.731821 1_655
Mo6 O26 1.918915 1_555
Mo6 O22 2.091044 1_555
Mo6 O6 2.172322 1_555
Mo7 O11 1.716091 1_555
Mo7 O3 1.731821 1_455
Mo7 O27 1.918915 1_554
Mo7 O23 2.091044 1_555
Mo7 O7 2.172322 1_555
As0 O24 1.806997 1_555
As0 O28 1.824151 1_555
As0 O23 1.889102 1_555
As1 O25 1.806997 1_555
As1 O29 1.824151 1_555
As1 O22 1.889102 1_555
As2 O26 1.806997 1_555
As2 O30 1.824151 1_555
As2 O21 1.889102 1_555
As3 O27 1.806997 1_555
As3 O31 1.824151 1_555
As3 O20 1.889102 1_555
As4 O32 1.817244 1_554
As4 O31 1.830061 1_554
As4 O7 1.868021 1_555
As5 O33 1.817244 1_555
As5 O30 1.830061 1_555
As5 O6 1.868021 1_555
As6 O34 1.817244 1_556
As6 O29 1.830061 1_556
As6 O5 1.868021 1_555
As7 O35 1.817244 1_555
As7 O28 1.830061 1_555
As7 O4 1.868021 1_555
O36 O41 1.295149 1_555
O37 O40 1.295149 1_555
O38 O43 1.295149 1_555
O39 O42 1.295149 1_555
O40 O47 1.280771 1_545
O41 O46 1.280771 1_556
O42 O45 1.280771 1_565
O43 O44 1.280771 1_554
