# generated using pymatgen
data_PuB2Os3
_symmetry_space_group_name_H-M   'P 1'
_cell_length_a   5.93813049
_cell_length_b   11.19157170
_cell_length_c   11.19632759
_cell_angle_alpha   120.01405548
_cell_angle_beta   90.00001260
_cell_angle_gamma   89.95160651
_symmetry_Int_Tables_number   1
_chemical_formula_structural   PuB2Os3
_chemical_formula_sum   'Pu8 B16 Os24'
_cell_volume   644.29581815
_cell_formula_units_Z   8
loop_
 _symmetry_equiv_pos_site_id
 _symmetry_equiv_pos_as_xyz
  1  'x, y, z'
loop_
 _atom_site_type_symbol
 _atom_site_label
 _atom_site_symmetry_multiplicity
 _atom_site_fract_x
 _atom_site_fract_y
 _atom_site_fract_z
 _atom_site_occupancy
  Pu  Pu0_0  1  0.00000000  0.00000000  0.00000000  1
  Pu  Pu0_1  1  0.00000000  0.00000000  0.50000000  1
  Pu  Pu0_2  1  0.00000000  0.50000000  0.00000000  1
  Pu  Pu0_3  1  0.00000000  0.50000000  0.50000000  1
  Pu  Pu0_4  1  0.50000000  0.00000000  0.00000000  1
  Pu  Pu0_5  1  0.50000000  1.00000000  0.50000000  1
  Pu  Pu0_6  1  0.50000000  0.50000000  0.00000000  1
  Pu  Pu0_7  1  0.50000000  0.50000000  0.50000000  1
  B  B0_0  1  0.00008850  0.16701750  0.33350900  1
  B  B0_1  1  0.00008850  0.16701750  0.83350900  1
  B  B0_2  1  0.00008850  0.66701750  0.33350900  1
  B  B0_3  1  0.00008850  0.66701750  0.83350900  1
  B  B0_4  1  0.50008850  0.16701750  0.33350900  1
  B  B0_5  1  0.50008850  0.16701750  0.83350900  1
  B  B0_6  1  0.50008850  0.66701750  0.33350900  1
  B  B0_7  1  0.50008850  0.66701750  0.83350900  1
  B  B1_0  1  0.49991150  0.33298250  0.16649100  1
  B  B1_1  1  0.49991150  0.33298250  0.66649100  1
  B  B1_2  1  0.49991150  0.83298250  0.16649100  1
  B  B1_3  1  0.49991150  0.83298250  0.66649100  1
  B  B1_4  1  0.99991150  0.33298250  0.16649100  1
  B  B1_5  1  0.99991150  0.33298250  0.66649100  1
  B  B1_6  1  0.99991150  0.83298250  0.16649100  1
  B  B1_7  1  0.99991150  0.83298250  0.66649100  1
  Os  Os0_0  1  0.25000000  0.25000000  0.25000000  1
  Os  Os0_1  1  0.25000000  0.25000000  0.75000000  1
  Os  Os0_2  1  0.25000000  0.75000000  0.25000000  1
  Os  Os0_3  1  0.25000000  0.75000000  0.75000000  1
  Os  Os0_4  1  0.75000000  0.25000000  0.25000000  1
  Os  Os0_5  1  0.75000000  0.25000000  0.75000000  1
  Os  Os0_6  1  0.75000000  0.75000000  0.25000000  1
  Os  Os0_7  1  0.75000000  0.75000000  0.75000000  1
  Os  Os1_0  1  0.25000000  0.00000000  0.25000000  1
  Os  Os1_1  1  0.25000000  0.00000000  0.75000000  1
  Os  Os1_2  1  0.25000000  0.50000000  0.25000000  1
  Os  Os1_3  1  0.25000000  0.50000000  0.75000000  1
  Os  Os1_4  1  0.75000000  0.00000000  0.25000000  1
  Os  Os1_5  1  0.75000000  1.00000000  0.75000000  1
  Os  Os1_6  1  0.75000000  0.50000000  0.25000000  1
  Os  Os1_7  1  0.75000000  0.50000000  0.75000000  1
  Os  Os2_0  1  0.25000000  0.25000000  0.00000000  1
  Os  Os2_1  1  0.25000000  0.25000000  0.50000000  1
  Os  Os2_2  1  0.25000000  0.75000000  0.00000000  1
  Os  Os2_3  1  0.25000000  0.75000000  0.50000000  1
  Os  Os2_4  1  0.75000000  0.25000000  0.00000000  1
  Os  Os2_5  1  0.75000000  0.25000000  0.50000000  1
  Os  Os2_6  1  0.75000000  0.75000000  0.00000000  1
  Os  Os2_7  1  0.75000000  0.75000000  0.50000000  1
loop_
_geom_bond_atom_site_label_1
_geom_bond_atom_site_label_2
_geom_bond_distance
_geom_bond_site_symmetry_2
Pu0_0 Pu0_4 2.969065 1_555
Pu0_0 Pu0_4 2.969065 1_455
Pu0_1 Pu0_5 2.969065 1_545
Pu0_1 Pu0_5 2.969065 1_445
Pu0_2 Pu0_6 2.969065 1_455
Pu0_2 Pu0_6 2.969065 1_555
Pu0_3 Pu0_7 2.969065 1_555
Pu0_3 Pu0_7 2.969065 1_455
B0_0 Os2_5 2.192821 1_455
B0_0 Os0_4 2.192824 1_455
B0_0 Os2_1 2.193171 1_555
B0_0 Os0_0 2.193174 1_555
B0_0 Os1_0 2.194823 1_555
B0_0 Os1_4 2.197668 1_455
B0_0 Pu0_3 3.226870 1_555
B0_0 Pu0_1 3.233342 1_555
B0_0 Pu0_0 3.233347 1_555
B0_1 Os2_4 2.192821 1_456
B0_1 Os0_5 2.192824 1_455
B0_1 Os2_0 2.193171 1_556
B0_1 Os0_1 2.193174 1_555
B0_1 Os1_1 2.194823 1_555
B0_1 Os1_5 2.197668 1_445
B0_1 Pu0_2 3.226870 1_556
B0_1 Pu0_0 3.233342 1_556
B0_1 Pu0_1 3.233347 1_555
B0_2 Os2_7 2.192821 1_455
B0_2 Os0_6 2.192824 1_455
B0_2 Os2_3 2.193171 1_555
B0_2 Os0_2 2.193174 1_555
B0_2 Os1_2 2.194823 1_555
B0_2 Os1_6 2.197668 1_455
B0_2 Pu0_1 3.226870 1_565
B0_2 Pu0_3 3.233342 1_555
B0_2 Pu0_2 3.233347 1_555
B0_3 Os2_6 2.192821 1_456
B0_3 Os0_7 2.192824 1_455
B0_3 Os2_2 2.193171 1_556
B0_3 Os0_3 2.193174 1_555
B0_3 Os1_3 2.194823 1_555
B0_3 Os1_7 2.197668 1_455
B0_3 Pu0_0 3.226870 1_566
B0_3 Pu0_2 3.233342 1_556
B0_3 Pu0_3 3.233347 1_555
B0_4 Os2_1 2.192821 1_555
B0_4 Os0_0 2.192824 1_555
B0_4 Os2_5 2.193171 1_555
B0_4 Os0_4 2.193174 1_555
B0_4 Os1_4 2.194823 1_555
B0_4 Os1_0 2.197668 1_555
B0_4 Pu0_7 3.226870 1_555
B0_4 Pu0_5 3.233342 1_545
B0_4 Pu0_4 3.233347 1_555
B0_5 Os2_0 2.192821 1_556
B0_5 Os0_1 2.192824 1_555
B0_5 Os2_4 2.193171 1_556
B0_5 Os0_5 2.193174 1_555
B0_5 Os1_5 2.194823 1_545
B0_5 Os1_1 2.197668 1_555
B0_5 Pu0_6 3.226870 1_556
B0_5 Pu0_4 3.233342 1_556
B0_5 Pu0_5 3.233347 1_545
B0_6 Os2_3 2.192821 1_555
B0_6 Os0_2 2.192824 1_555
B0_6 Os2_7 2.193171 1_555
B0_6 Os0_6 2.193174 1_555
B0_6 Os1_6 2.194823 1_555
B0_6 Os1_2 2.197668 1_555
B0_6 Pu0_5 3.226870 1_555
B0_6 Pu0_7 3.233342 1_555
B0_6 Pu0_6 3.233347 1_555
B0_7 Os2_2 2.192821 1_556
B0_7 Os0_3 2.192824 1_555
B0_7 Os2_6 2.193171 1_556
B0_7 Os0_7 2.193174 1_555
B0_7 Os1_7 2.194823 1_555
B0_7 Os1_3 2.197668 1_555
B0_7 Pu0_4 3.226870 1_566
B0_7 Pu0_6 3.233342 1_556
B0_7 Pu0_7 3.233347 1_555
B1_0 Os2_4 2.192821 1_555
B1_0 Os0_4 2.192824 1_555
B1_0 Os2_0 2.193171 1_555
B1_0 Os0_0 2.193174 1_555
B1_0 Os1_2 2.194823 1_555
B1_0 Os1_6 2.197668 1_555
B1_0 Pu0_4 3.226870 1_555
B1_0 Pu0_6 3.233342 1_555
B1_0 Pu0_7 3.233347 1_555
B1_1 Os2_5 2.192821 1_555
B1_1 Os0_5 2.192824 1_555
B1_1 Os2_1 2.193171 1_555
B1_1 Os0_1 2.193174 1_555
B1_1 Os1_3 2.194823 1_555
B1_1 Os1_7 2.197668 1_555
B1_1 Pu0_5 3.226870 1_545
B1_1 Pu0_7 3.233342 1_555
B1_1 Pu0_6 3.233347 1_556
B1_2 Os2_6 2.192821 1_555
B1_2 Os0_6 2.192824 1_555
B1_2 Os2_2 2.193171 1_555
B1_2 Os0_2 2.193174 1_555
B1_2 Os1_0 2.194823 1_565
B1_2 Os1_4 2.197668 1_565
B1_2 Pu0_6 3.226870 1_555
B1_2 Pu0_4 3.233342 1_565
B1_2 Pu0_5 3.233347 1_555
B1_3 Os2_7 2.192821 1_555
B1_3 Os0_7 2.192824 1_555
B1_3 Os2_3 2.193171 1_555
B1_3 Os0_3 2.193174 1_555
B1_3 Os1_1 2.194823 1_565
B1_3 Os1_5 2.197668 1_555
B1_3 Pu0_7 3.226870 1_555
B1_3 Pu0_5 3.233342 1_555
B1_3 Pu0_4 3.233347 1_566
B1_4 Os2_0 2.192821 1_655
B1_4 Os0_0 2.192824 1_655
B1_4 Os2_4 2.193171 1_555
B1_4 Os0_4 2.193174 1_555
B1_4 Os1_6 2.194823 1_555
B1_4 Os1_2 2.197668 1_655
B1_4 Pu0_0 3.226870 1_655
B1_4 Pu0_2 3.233342 1_655
B1_4 Pu0_3 3.233347 1_655
B1_5 Os2_1 2.192821 1_655
B1_5 Os0_1 2.192824 1_655
B1_5 Os2_5 2.193171 1_555
B1_5 Os0_5 2.193174 1_555
B1_5 Os1_7 2.194823 1_555
B1_5 Os1_3 2.197668 1_655
B1_5 Pu0_1 3.226870 1_655
B1_5 Pu0_3 3.233342 1_655
B1_5 Pu0_2 3.233347 1_656
B1_6 Os2_2 2.192821 1_655
B1_6 Os0_2 2.192824 1_655
B1_6 Os2_6 2.193171 1_555
B1_6 Os0_6 2.193174 1_555
B1_6 Os1_4 2.194823 1_565
B1_6 Os1_0 2.197668 1_665
B1_6 Pu0_2 3.226870 1_655
B1_6 Pu0_0 3.233342 1_665
B1_6 Pu0_1 3.233347 1_665
B1_7 Os2_3 2.192821 1_655
B1_7 Os0_3 2.192824 1_655
B1_7 Os2_7 2.193171 1_555
B1_7 Os0_7 2.193174 1_555
B1_7 Os1_5 2.194823 1_555
B1_7 Os1_1 2.197668 1_665
B1_7 Pu0_3 3.226870 1_655
B1_7 Pu0_1 3.233342 1_665
B1_7 Pu0_0 3.233347 1_666
Os0_0 Pu0_3 3.166232 1_555
Os0_0 Pu0_4 3.166232 1_555
Os0_0 Pu0_0 3.168447 1_555
Os0_0 Pu0_7 3.168447 1_555
Os0_1 Pu0_2 3.166232 1_556
Os0_1 Pu0_5 3.166232 1_545
Os0_1 Pu0_6 3.168447 1_556
Os0_1 Pu0_1 3.168447 1_555
Os0_2 Pu0_1 3.166232 1_565
Os0_2 Pu0_6 3.166232 1_555
Os0_2 Pu0_5 3.168447 1_555
Os0_2 Pu0_2 3.168447 1_555
Os0_3 Pu0_0 3.166232 1_566
Os0_3 Pu0_7 3.166232 1_555
Os0_3 Pu0_4 3.168447 1_566
Os0_3 Pu0_3 3.168447 1_555
Os0_4 Pu0_7 3.166232 1_555
Os0_4 Pu0_0 3.166232 1_655
Os0_4 Pu0_3 3.168447 1_655
Os0_4 Pu0_4 3.168447 1_555
Os0_5 Pu0_6 3.166232 1_556
Os0_5 Pu0_1 3.166232 1_655
Os0_5 Pu0_2 3.168447 1_656
Os0_5 Pu0_5 3.168447 1_545
Os0_6 Pu0_5 3.166232 1_555
Os0_6 Pu0_2 3.166232 1_655
Os0_6 Pu0_1 3.168447 1_665
Os0_6 Pu0_6 3.168447 1_555
Os0_7 Pu0_4 3.166232 1_566
Os0_7 Pu0_3 3.166232 1_655
Os0_7 Pu0_0 3.168447 1_666
Os0_7 Pu0_7 3.168447 1_555
Os1_0 Pu0_0 3.168390 1_555
Os1_0 Pu0_5 3.168390 1_545
Os1_0 Pu0_1 3.168391 1_555
Os1_0 Pu0_4 3.168391 1_555
Os1_1 Pu0_1 3.168390 1_555
Os1_1 Pu0_4 3.168390 1_556
Os1_1 Pu0_5 3.168391 1_545
Os1_1 Pu0_0 3.168391 1_556
Os1_2 Pu0_7 3.168390 1_555
Os1_2 Pu0_2 3.168390 1_555
Os1_2 Pu0_6 3.168391 1_555
Os1_2 Pu0_3 3.168391 1_555
Os1_3 Pu0_6 3.168390 1_556
Os1_3 Pu0_3 3.168390 1_555
Os1_3 Pu0_2 3.168391 1_556
Os1_3 Pu0_7 3.168391 1_555
Os1_4 Pu0_1 3.168390 1_655
Os1_4 Pu0_4 3.168390 1_555
Os1_4 Pu0_5 3.168391 1_545
Os1_4 Pu0_0 3.168391 1_655
Os1_5 Pu0_0 3.168390 1_666
Os1_5 Pu0_5 3.168390 1_555
Os1_5 Pu0_4 3.168391 1_566
Os1_5 Pu0_1 3.168391 1_665
Os1_6 Pu0_3 3.168390 1_655
Os1_6 Pu0_6 3.168390 1_555
Os1_6 Pu0_7 3.168391 1_555
Os1_6 Pu0_2 3.168391 1_655
Os1_7 Pu0_2 3.168390 1_656
Os1_7 Pu0_7 3.168390 1_555
Os1_7 Pu0_3 3.168391 1_655
Os1_7 Pu0_6 3.168391 1_556
Os2_0 Pu0_4 3.166232 1_555
Os2_0 Pu0_2 3.166232 1_555
Os2_0 Pu0_0 3.168447 1_555
Os2_0 Pu0_6 3.168447 1_555
Os2_1 Pu0_3 3.166232 1_555
Os2_1 Pu0_5 3.166232 1_545
Os2_1 Pu0_7 3.168447 1_555
Os2_1 Pu0_1 3.168447 1_555
Os2_2 Pu0_0 3.166232 1_565
Os2_2 Pu0_6 3.166232 1_555
Os2_2 Pu0_4 3.168447 1_565
Os2_2 Pu0_2 3.168447 1_555
Os2_3 Pu0_1 3.166232 1_565
Os2_3 Pu0_7 3.166232 1_555
Os2_3 Pu0_5 3.168447 1_555
Os2_3 Pu0_3 3.168447 1_555
Os2_4 Pu0_6 3.166232 1_555
Os2_4 Pu0_0 3.166232 1_655
Os2_4 Pu0_2 3.168447 1_655
Os2_4 Pu0_4 3.168447 1_555
Os2_5 Pu0_7 3.166232 1_555
Os2_5 Pu0_1 3.166232 1_655
Os2_5 Pu0_3 3.168447 1_655
Os2_5 Pu0_5 3.168447 1_545
Os2_6 Pu0_4 3.166232 1_565
Os2_6 Pu0_2 3.166232 1_655
Os2_6 Pu0_0 3.168447 1_665
Os2_6 Pu0_6 3.168447 1_555
Os2_7 Pu0_5 3.166232 1_555
Os2_7 Pu0_3 3.166232 1_655
Os2_7 Pu0_1 3.168447 1_665
Os2_7 Pu0_7 3.168447 1_555
