# generated using pymatgen
data_MgMn
_symmetry_space_group_name_H-M   'P 1'
_cell_length_a   3.00190300
_cell_length_b   4.69085100
_cell_length_c   4.87920300
_cell_angle_alpha   90.00000000
_cell_angle_beta   90.00000000
_cell_angle_gamma   90.00000000
_symmetry_Int_Tables_number   1
_chemical_formula_structural   MgMn
_chemical_formula_sum   'Mg2 Mn2'
_cell_volume   68.70639795
_cell_formula_units_Z   2
loop_
 _symmetry_equiv_pos_site_id
 _symmetry_equiv_pos_as_xyz
  1  'x, y, z'
loop_
 _atom_site_type_symbol
 _atom_site_label
 _atom_site_symmetry_multiplicity
 _atom_site_fract_x
 _atom_site_fract_y
 _atom_site_fract_z
 _atom_site_occupancy
  Mg  Mg0  1  0.00000000  0.25000000  0.19851300  1
  Mg  Mg1  1  0.00000000  0.75000000  0.80148700  1
  Mn  Mn0  1  0.50000000  0.75000000  0.31505500  1
  Mn  Mn1  1  0.50000000  0.25000000  0.68494500  1
loop_
_geom_bond_atom_site_label_1
_geom_bond_atom_site_label_2
_geom_bond_distance
_geom_bond_site_symmetry_2
Mg0 Mn1 2.808182 1_555
Mg0 Mn1 2.808182 1_455
Mg0 Mn0 2.842045 1_445
Mg0 Mn0 2.842045 1_555
Mg0 Mn0 2.842045 1_545
Mg0 Mn0 2.842045 1_455
Mg0 Mn1 2.920942 1_554
Mg0 Mn1 2.920942 1_454
Mg1 Mn0 2.808182 1_555
Mg1 Mn0 2.808182 1_455
Mg1 Mn1 2.842045 1_455
Mg1 Mn1 2.842045 1_555
Mg1 Mn1 2.842045 1_465
Mg1 Mn1 2.842045 1_565
Mg1 Mn0 2.920942 1_556
Mg1 Mn0 2.920942 1_456
