# generated using pymatgen
data_Li9Mn2Co5O16
_symmetry_space_group_name_H-M   'P 1'
_cell_length_a   5.63571410
_cell_length_b   6.35265096
_cell_length_c   8.46544980
_cell_angle_alpha   82.23146052
_cell_angle_beta   109.45717427
_cell_angle_gamma   116.32923820
_symmetry_Int_Tables_number   1
_chemical_formula_structural   Li9Mn2Co5O16
_chemical_formula_sum   'Li9 Mn2 Co5 O16'
_cell_volume   256.09519514
_cell_formula_units_Z   1
loop_
 _symmetry_equiv_pos_site_id
 _symmetry_equiv_pos_as_xyz
  1  'x, y, z'
loop_
 _atom_site_type_symbol
 _atom_site_label
 _atom_site_symmetry_multiplicity
 _atom_site_fract_x
 _atom_site_fract_y
 _atom_site_fract_z
 _atom_site_occupancy
  Li  Li0  1  0.74637865  0.73451757  0.25860691  1
  Li  Li1  1  0.25869528  0.00843744  0.49169675  1
  Li  Li2  1  0.25147298  0.74185894  0.25998898  1
  Li  Li3  1  0.73740799  0.00741322  0.49182048  1
  Li  Li4  1  0.74632685  0.25635731  0.73922918  1
  Li  Li5  1  0.24547336  0.25411742  0.73997832  1
  Li  Li6  1  0.26552930  0.49833193  0.01200263  1
  Li  Li7  1  0.74630123  0.49630285  0.01157559  1
  Li  Li8  1  0.50877391  0.25717724  0.25978415  1
  Mn  Mn0  1  0.00583032  0.00204193  0.00477322  1
  Mn  Mn1  1  0.50123972  0.00208694  0.00475224  1
  Co  Co0  1  0.99659332  0.49850158  0.49761730  1
  Co  Co1  1  0.49887581  0.74932676  0.74806358  1
  Co  Co2  1  0.00126271  0.25279907  0.24937177  1
  Co  Co3  1  0.49965241  0.49848050  0.49767589  1
  Co  Co4  1  -0.00110911  0.74895992  0.74844956  1
  O  O0  1  0.10965124  0.00640466  0.23307945  1
  O  O1  1  0.63680414  0.27195095  0.50160757  1
  O  O2  1  0.63023883  0.00647325  0.23309072  1
  O  O3  1  0.12864757  0.27052016  0.48679943  1
  O  O4  1  0.13321835  0.52345509  0.74178917  1
  O  O5  1  0.63240556  0.52335480  0.74186264  1
  O  O6  1  0.63023802  0.76999896  0.98998527  1
  O  O7  1  0.13241682  0.77205505  0.99231854  1
  O  O8  1  0.36142310  0.48809905  0.25986618  1
  O  O9  1  0.87025551  0.72793334  0.51244528  1
  O  O10  1  0.88696632  0.48813588  0.25979629  1
  O  O11  1  0.37173102  0.73129956  0.51204572  1
  O  O12  1  0.37081272  0.98019789  0.76022077  1
  O  O13  1  0.86992881  0.98014215  0.76026531  1
  O  O14  1  0.86717879  0.22931483  0.00486080  1
  O  O15  1  0.35938246  0.22395275  0.99458132  1
loop_
_geom_bond_atom_site_label_1
_geom_bond_atom_site_label_2
_geom_bond_distance
_geom_bond_site_symmetry_2
Li0 O9 2.027041 1_555
Li0 O8 2.038544 1_555
Li0 O10 2.041595 1_555
Li0 O2 2.065868 1_565
Li0 O0 2.068450 1_665
Li0 O6 2.156624 1_554
Li1 O1 2.026011 1_555
Li1 O0 2.066810 1_555
Li1 O3 2.086709 1_555
Li1 O11 2.091611 1_545
Li1 O12 2.152250 1_545
Li1 O9 2.170185 1_445
Li2 O8 1.967137 1_555
Li2 O10 1.969588 1_455
Li2 O11 2.013710 1_555
Li2 O2 2.114597 1_565
Li2 O0 2.117013 1_565
Li2 O7 2.145998 1_554
Li3 O1 2.016579 1_555
Li3 O2 2.069086 1_555
Li3 O11 2.073749 1_545
Li3 O3 2.105049 1_655
Li3 O13 2.151680 1_545
Li3 O9 2.179779 1_545
Li4 O1 1.900111 1_555
Li4 O5 2.067687 1_555
Li4 O4 2.080950 1_655
Li4 O12 2.112077 1_545
Li4 O13 2.124392 1_545
Li4 O14 2.128152 1_556
Li5 O3 2.024438 1_555
Li5 O15 2.042048 1_555
Li5 O4 2.074068 1_555
Li5 O5 2.087236 1_555
Li5 O13 2.105204 1_445
Li5 O12 2.117883 1_545
Li6 O8 1.984411 1_555
Li6 O6 2.063849 1_554
Li6 O15 2.068566 1_554
Li6 O14 2.120948 1_455
Li6 O7 2.147028 1_554
Li6 O4 2.164388 1_554
Li7 O10 1.985913 1_555
Li7 O15 2.068976 1_554
Li7 O6 2.080286 1_554
Li7 O14 2.102567 1_555
Li7 O7 2.146655 1_654
Li7 O5 2.161051 1_554
Li8 O1 1.930816 1_555
Li8 O10 1.980251 1_555
Li8 O8 1.980626 1_555
Li8 O2 2.055136 1_555
Li8 O0 2.056324 1_555
Li8 O15 2.122479 1_554
Mn0 O0 1.823521 1_555
Mn0 O15 1.885440 1_554
Mn0 O7 1.915985 1_544
Mn0 O14 1.922637 1_455
Mn0 O6 1.942851 1_444
Mn0 O13 1.953844 1_444
Mn1 O2 1.823769 1_555
Mn1 O15 1.885189 1_554
Mn1 O7 1.915317 1_544
Mn1 O14 1.922301 1_555
Mn1 O6 1.943993 1_544
Mn1 O12 1.954040 1_544
Co0 O10 1.900096 1_555
Co0 O1 1.904661 1_555
Co0 O9 1.917434 1_555
Co0 O3 1.922798 1_655
Co0 O11 1.942947 1_655
Co0 O4 1.952073 1_655
Co1 O11 1.885162 1_555
Co1 O4 1.906066 1_555
Co1 O5 1.906501 1_555
Co1 O13 1.926318 1_555
Co1 O12 1.926598 1_555
Co1 O6 1.932853 1_555
Co2 O10 1.893553 1_455
Co2 O8 1.893828 1_555
Co2 O3 1.896332 1_555
Co2 O2 1.950314 1_455
Co2 O0 1.950595 1_555
Co2 O14 1.954275 1_455
Co3 O8 1.899888 1_555
Co3 O1 1.904223 1_555
Co3 O9 1.917640 1_555
Co3 O3 1.923345 1_555
Co3 O11 1.942919 1_555
Co3 O5 1.952162 1_555
Co4 O9 1.885807 1_455
Co4 O4 1.908077 1_555
Co4 O5 1.908437 1_455
Co4 O13 1.931335 1_455
Co4 O12 1.931415 1_555
Co4 O7 1.949045 1_555
