# generated using pymatgen
data_LiMg14Cd
_symmetry_space_group_name_H-M   'P 1'
_cell_length_a   6.36921738
_cell_length_b   6.37610461
_cell_length_c   10.29837824
_cell_angle_alpha   90.00000000
_cell_angle_beta   90.00000000
_cell_angle_gamma   120.03578193
_symmetry_Int_Tables_number   1
_chemical_formula_structural   LiMg14Cd
_chemical_formula_sum   'Li1 Mg14 Cd1'
_cell_volume   362.06310565
_cell_formula_units_Z   1
loop_
 _symmetry_equiv_pos_site_id
 _symmetry_equiv_pos_as_xyz
  1  'x, y, z'
loop_
 _atom_site_type_symbol
 _atom_site_label
 _atom_site_symmetry_multiplicity
 _atom_site_fract_x
 _atom_site_fract_y
 _atom_site_fract_z
 _atom_site_occupancy
  Li  Li0  1  0.16524531  0.33262216  0.12500000  1
  Mg  Mg0  1  0.16718779  0.33359340  0.62500000  1
  Mg  Mg1  1  0.16887437  0.83443669  0.62500000  1
  Mg  Mg2  1  0.66840690  0.33146563  0.12500000  1
  Mg  Mg3  1  0.66665609  0.33290057  0.62500000  1
  Mg  Mg4  1  0.66840690  0.83694027  0.12500000  1
  Mg  Mg5  1  0.66665609  0.83375452  0.62500000  1
  Mg  Mg6  1  0.33073375  0.16587868  0.37157150  1
  Mg  Mg7  1  0.33073375  0.16587868  0.87842850  1
  Mg  Mg8  1  0.33073375  0.66485607  0.37157150  1
  Mg  Mg9  1  0.33073375  0.66485607  0.87842850  1
  Mg  Mg10  1  0.83377218  0.16688659  0.37558740  1
  Mg  Mg11  1  0.83377218  0.16688659  0.87441260  1
  Mg  Mg12  1  0.83496081  0.66748091  0.37330921  1
  Mg  Mg13  1  0.83496081  0.66748091  0.87669079  1
  Cd  Cd0  1  0.16816556  0.83408228  0.12500000  1
loop_
_geom_bond_atom_site_label_1
_geom_bond_atom_site_label_2
_geom_bond_distance
_geom_bond_site_symmetry_2
Li0 Mg6 3.132272 1_555
Li0 Mg7 3.132272 1_554
Li0 Mg8 3.132279 1_555
Li0 Mg9 3.132279 1_554
Li0 Mg4 3.160787 1_445
Li0 Mg2 3.160787 1_455
Li0 Mg10 3.162319 1_455
Li0 Mg11 3.162319 1_454
Li0 Mg4 3.208443 1_555
Li0 Mg2 3.208443 1_555
Mg0 Mg11 3.158676 1_455
Mg0 Mg10 3.158676 1_455
Mg0 Mg5 3.183435 1_555
Mg0 Mg3 3.183436 1_555
Mg0 Mg5 3.185786 1_445
Mg0 Mg3 3.185786 1_455
Mg0 Mg6 3.186740 1_555
Mg0 Mg7 3.186740 1_555
Mg0 Mg9 3.186746 1_555
Mg0 Mg8 3.186746 1_555
Mg0 Mg1 3.188066 1_555
Mg0 Mg1 3.188066 1_545
Mg1 Mg3 3.172659 1_565
Mg1 Mg5 3.172659 1_555
Mg1 Mg12 3.179373 1_455
Mg1 Mg13 3.179373 1_455
Mg1 Mg9 3.187383 1_555
Mg1 Mg8 3.187383 1_555
Mg1 Mg7 3.187390 1_565
Mg1 Mg6 3.187390 1_565
Mg1 Mg3 3.196562 1_455
Mg1 Mg5 3.196562 1_455
Mg2 Mg6 3.148822 1_555
Mg2 Mg7 3.148822 1_554
Mg2 Mg4 3.153145 1_545
Mg2 Mg4 3.222959 1_555
Mg3 Mg5 3.182607 1_545
Mg3 Mg5 3.193497 1_555
Mg3 Mg7 3.200382 1_555
Mg3 Mg6 3.200382 1_555
Mg4 Mg8 3.148822 1_555
Mg4 Mg9 3.148822 1_554
Mg5 Mg9 3.200382 1_555
Mg5 Mg8 3.200382 1_555
Mg6 Mg8 3.181532 1_555
Mg6 Mg8 3.194573 1_545
Mg7 Mg9 3.181532 1_555
Mg7 Mg9 3.194573 1_545
Mg10 Mg2 3.158589 1_555
Mg10 Mg4 3.158595 1_545
Mg10 Mg3 3.158916 1_555
Mg10 Mg5 3.158922 1_545
Mg10 Mg8 3.168748 1_655
Mg10 Mg6 3.168748 1_655
Mg10 Mg12 3.188145 1_545
Mg10 Mg12 3.188145 1_555
Mg10 Mg8 3.201016 1_545
Mg10 Mg6 3.201016 1_555
Mg11 Mg2 3.158589 1_556
Mg11 Mg4 3.158595 1_546
Mg11 Mg3 3.158916 1_555
Mg11 Mg5 3.158922 1_545
Mg11 Mg9 3.168748 1_655
Mg11 Mg7 3.168748 1_655
Mg11 Mg13 3.188145 1_545
Mg11 Mg13 3.188145 1_555
Mg11 Mg9 3.201016 1_545
Mg11 Mg7 3.201016 1_555
Mg12 Mg4 3.159022 1_555
Mg12 Mg2 3.159028 1_555
Mg12 Mg6 3.166146 1_665
Mg12 Mg8 3.166147 1_655
Mg12 Mg5 3.182657 1_555
Mg12 Mg3 3.182663 1_555
Mg12 Mg6 3.203237 1_555
Mg12 Mg8 3.203237 1_555
Mg13 Mg4 3.159022 1_556
Mg13 Mg2 3.159028 1_556
Mg13 Mg7 3.166146 1_665
Mg13 Mg9 3.166147 1_655
Mg13 Mg5 3.182657 1_555
Mg13 Mg3 3.182663 1_555
Mg13 Mg7 3.203237 1_555
Mg13 Mg9 3.203237 1_555
Cd0 Mg8 3.130941 1_555
Cd0 Mg9 3.130941 1_554
Cd0 Mg6 3.130947 1_565
Cd0 Mg7 3.130947 1_564
Cd0 Mg13 3.148764 1_454
Cd0 Mg12 3.148764 1_455
Cd0 Mg2 3.177063 1_565
Cd0 Mg4 3.177064 1_555
Cd0 Li0 3.188093 1_555
Cd0 Li0 3.188093 1_565
Cd0 Mg2 3.192232 1_455
Cd0 Mg4 3.192232 1_455
