# generated using pymatgen
data_CaCd(NO3)4
_symmetry_space_group_name_H-M   'P 1'
_cell_length_a   7.69458468
_cell_length_b   7.69458468
_cell_length_c   17.51785900
_cell_angle_alpha   90.00000000
_cell_angle_beta   90.00000000
_cell_angle_gamma   120.00000584
_symmetry_Int_Tables_number   1
_chemical_formula_structural   CaCd(NO3)4
_chemical_formula_sum   'Ca3 Cd3 N12 O36'
_cell_volume   898.21850777
_cell_formula_units_Z   3
loop_
 _symmetry_equiv_pos_site_id
 _symmetry_equiv_pos_as_xyz
  1  'x, y, z'
loop_
 _atom_site_type_symbol
 _atom_site_label
 _atom_site_symmetry_multiplicity
 _atom_site_fract_x
 _atom_site_fract_y
 _atom_site_fract_z
 _atom_site_occupancy
  Ca  Ca0  1  0.49119000  0.00000000  0.83333300  1
  Ca  Ca1  1  0.00000000  0.49119000  0.16666700  1
  Ca  Ca2  1  0.50881000  0.50881000  0.50000000  1
  Cd  Cd0  1  0.99635700  0.00000000  0.33333300  1
  Cd  Cd1  1  0.00000000  0.99635700  0.66666700  1
  Cd  Cd2  1  0.00364300  0.00364300  0.00000000  1
  N  N0  1  0.31719000  0.26242000  0.77425400  1
  N  N1  1  0.73758000  0.05477000  0.10758800  1
  N  N2  1  0.26242000  0.31719000  0.22574600  1
  N  N3  1  0.94523000  0.68281000  0.44092100  1
  N  N4  1  0.05477000  0.73758000  0.89241200  1
  N  N5  1  0.68281000  0.94523000  0.55907900  1
  N  N6  1  0.31967600  0.10064000  0.56114900  1
  N  N7  1  0.89936000  0.21903600  0.89448200  1
  N  N8  1  0.10064000  0.31967600  0.43885100  1
  N  N9  1  0.78096400  0.68032400  0.22781500  1
  N  N10  1  0.21903600  0.89936000  0.10551800  1
  N  N11  1  0.68032400  0.78096400  0.77218500  1
  O  O0  1  0.07598700  0.29322800  0.91973500  1
  O  O1  1  0.70677200  0.78276000  0.25306900  1
  O  O2  1  0.29322800  0.07598700  0.08026500  1
  O  O3  1  0.21724000  0.92401300  0.58640200  1
  O  O4  1  0.78276000  0.70677200  0.74693100  1
  O  O5  1  0.92401300  0.21724000  0.41359800  1
  O  O6  1  0.15227700  0.45441500  0.48749700  1
  O  O7  1  0.54558500  0.69786200  0.82083000  1
  O  O8  1  0.45441500  0.15227700  0.51250300  1
  O  O9  1  0.30213800  0.84772300  0.15416300  1
  O  O10  1  0.69786200  0.54558500  0.17917000  1
  O  O11  1  0.84772300  0.30213800  0.84583700  1
  O  O12  1  0.21404800  0.32932900  0.75006700  1
  O  O13  1  0.67067100  0.88471900  0.08340100  1
  O  O14  1  0.32932900  0.21404800  0.24993300  1
  O  O15  1  0.11528100  0.78595200  0.41673400  1
  O  O16  1  0.88471900  0.67067100  0.91659900  1
  O  O17  1  0.78595200  0.11528100  0.58326600  1
  O  O18  1  0.47875300  0.28103000  0.88569200  1
  O  O19  1  0.71897000  0.19772300  0.21902600  1
  O  O20  1  0.28103000  0.47875300  0.11430800  1
  O  O21  1  0.80227700  0.52124700  0.55235900  1
  O  O22  1  0.19772300  0.71897000  0.78097400  1
  O  O23  1  0.52124700  0.80227700  0.44764100  1
  O  O24  1  0.27808600  0.23594200  0.58732500  1
  O  O25  1  0.76405800  0.04214400  0.92065900  1
  O  O26  1  0.23594200  0.27808600  0.41267500  1
  O  O27  1  0.95785600  0.72191400  0.25399200  1
  O  O28  1  0.04214400  0.76405800  0.07934100  1
  O  O29  1  0.72191400  0.95785600  0.74600800  1
  O  O30  1  0.27527400  0.08635200  0.75192700  1
  O  O31  1  0.91364800  0.18892200  0.08526100  1
  O  O32  1  0.08635200  0.27527400  0.24807300  1
  O  O33  1  0.81107800  0.72472600  0.41859400  1
  O  O34  1  0.18892200  0.91364800  0.91473900  1
  O  O35  1  0.72472600  0.81107800  0.58140600  1
loop_
_geom_bond_atom_site_label_1
_geom_bond_atom_site_label_2
_geom_bond_distance
_geom_bond_site_symmetry_2
Ca0 O22 2.394451 1_545
Ca0 O18 2.394451 1_555
Ca0 O29 2.484506 1_545
Ca0 O25 2.484516 1_555
Ca0 O34 2.517781 1_545
Ca0 O30 2.517781 1_555
Ca0 O7 2.569245 1_545
Ca0 O11 2.569246 1_555
Ca1 O19 2.394451 1_455
Ca1 O20 2.394451 1_555
Ca1 O27 2.484506 1_455
Ca1 O28 2.484516 1_555
Ca1 O31 2.517781 1_455
Ca1 O32 2.517781 1_555
Ca1 O10 2.569245 1_455
Ca1 O9 2.569246 1_555
Ca2 O23 2.394451 1_555
Ca2 O21 2.394451 1_555
Ca2 O26 2.484505 1_555
Ca2 O24 2.484505 1_555
Ca2 O33 2.517780 1_555
Ca2 O35 2.517780 1_555
Ca2 O6 2.569245 1_555
Ca2 O8 2.569245 1_555
Cd0 O32 2.393735 1_655
Cd0 O33 2.393745 1_545
Cd0 O27 2.442171 1_545
Cd0 O26 2.442181 1_655
Cd0 O1 2.451840 1_545
Cd0 O5 2.451845 1_555
Cd0 O14 2.681719 1_655
Cd0 O15 2.681729 1_645
Cd1 O30 2.393735 1_565
Cd1 O35 2.393745 1_455
Cd1 O29 2.442171 1_455
Cd1 O24 2.442181 1_565
Cd1 O4 2.451840 1_455
Cd1 O3 2.451845 1_555
Cd1 O12 2.681719 1_565
Cd1 O17 2.681729 1_465
Cd2 O31 2.393746 1_455
Cd2 O34 2.393746 1_544
Cd2 O25 2.442171 1_454
Cd2 O28 2.442171 1_545
Cd2 O0 2.451852 1_554
Cd2 O2 2.451852 1_555
Cd2 O16 2.681729 1_444
Cd2 O13 2.681729 1_445
N0 O12 1.217798 1_555
N0 O30 1.286644 1_555
N1 O13 1.217798 1_545
N1 O31 1.286644 1_555
N2 O14 1.217798 1_555
N2 O32 1.286644 1_555
N3 O15 1.217798 1_655
N3 O33 1.286644 1_555
N4 O16 1.217798 1_455
N4 O34 1.286644 1_555
N5 O17 1.217798 1_565
N5 O35 1.286644 1_555
N6 O8 1.243788 1_555
N6 O3 1.262067 1_545
N6 O24 1.315188 1_555
N7 O11 1.243776 1_555
N7 O0 1.262066 1_655
N7 O25 1.315194 1_555
N8 O6 1.243788 1_555
N8 O5 1.262067 1_455
N8 O26 1.315188 1_555
N9 O10 1.243776 1_555
N9 O1 1.262079 1_555
N9 O27 1.315194 1_555
N10 O9 1.243776 1_555
N10 O2 1.262066 1_565
N10 O28 1.315194 1_555
N11 O7 1.243776 1_555
N11 O4 1.262079 1_555
N11 O29 1.315194 1_555
