# generated using pymatgen
data_Th(SiAu)2
_symmetry_space_group_name_H-M   'P 1'
_cell_length_a   4.36180433
_cell_length_b   4.36180456
_cell_length_c   5.90492929
_cell_angle_alpha   111.67254727
_cell_angle_beta   111.67254625
_cell_angle_gamma   90.00471676
_symmetry_Int_Tables_number   1
_chemical_formula_structural   Th(SiAu)2
_chemical_formula_sum   'Th1 Si2 Au2'
_cell_volume   95.80255594
_cell_formula_units_Z   1
loop_
 _symmetry_equiv_pos_site_id
 _symmetry_equiv_pos_as_xyz
  1  'x, y, z'
loop_
 _atom_site_type_symbol
 _atom_site_label
 _atom_site_symmetry_multiplicity
 _atom_site_fract_x
 _atom_site_fract_y
 _atom_site_fract_z
 _atom_site_occupancy
  Th  Th0  1  0.00000001  0.00000001  -0.00000000  1
  Si  Si0  1  0.61452342  0.61452342  0.22934774  1
  Si  Si1  1  0.38547657  0.38547657  0.77065226  1
  Au  Au0  1  0.75001993  0.24998005  0.50000000  1
  Au  Au1  1  0.24998006  0.75001995  0.50000000  1
loop_
_geom_bond_atom_site_label_1
_geom_bond_atom_site_label_2
_geom_bond_distance
_geom_bond_site_symmetry_2
Si0 Si1 2.309773 1_554
Si0 Th0 3.292411 1_555
Si0 Th0 3.293511 1_565
Si0 Th0 3.293511 1_655
Si0 Th0 3.294135 1_665
Si1 Th0 3.292411 1_666
Si1 Th0 3.293511 1_656
Si1 Th0 3.293511 1_566
Si1 Th0 3.294135 1_556
Au0 Si1 2.571236 1_555
Au0 Si0 2.571236 1_555
Au0 Si1 2.572212 1_655
Au0 Si0 2.572212 1_545
Au0 Th0 3.330920 1_656
Au0 Th0 3.330920 1_655
Au0 Th0 3.331050 1_555
Au0 Th0 3.331050 1_666
Au1 Si0 2.571236 1_555
Au1 Si1 2.571236 1_555
Au1 Si0 2.572212 1_455
Au1 Si1 2.572212 1_565
Au1 Th0 3.330920 1_566
Au1 Th0 3.330920 1_565
Au1 Th0 3.331050 1_666
Au1 Th0 3.331050 1_555
