# generated using pymatgen
data_Y3(AlFe2)2
_symmetry_space_group_name_H-M   'P 1'
_cell_length_a   5.30499315
_cell_length_b   5.37354061
_cell_length_c   12.78839555
_cell_angle_alpha   89.52997610
_cell_angle_beta   89.96972695
_cell_angle_gamma   120.91917769
_symmetry_Int_Tables_number   1
_chemical_formula_structural   Y3(AlFe2)2
_chemical_formula_sum   'Y6 Al4 Fe8'
_cell_volume   312.73268871
_cell_formula_units_Z   2
loop_
 _symmetry_equiv_pos_site_id
 _symmetry_equiv_pos_as_xyz
  1  'x, y, z'
loop_
 _atom_site_type_symbol
 _atom_site_label
 _atom_site_symmetry_multiplicity
 _atom_site_fract_x
 _atom_site_fract_y
 _atom_site_fract_z
 _atom_site_occupancy
  Y  Y0  1  0.32054800  0.66265300  0.91449400  1
  Y  Y1  1  0.99523200  0.00329300  0.25561100  1
  Y  Y2  1  0.66063100  0.33646900  0.58643800  1
  Y  Y3  1  0.33936900  0.66353100  0.66356200  1
  Y  Y4  1  0.00476800  0.99670700  0.99438900  1
  Y  Y5  1  0.67945200  0.33734700  0.33550600  1
  Al  Al0  1  0.50000000  0.50000000  0.12500000  1
  Al  Al1  1  0.16812500  0.83669600  0.46019200  1
  Al  Al2  1  0.83187500  0.16330400  0.78980800  1
  Al  Al3  1  0.50000000  0.00000000  0.12500000  1
  Fe  Fe0  1  0.16910700  0.33491400  0.45944000  1
  Fe  Fe1  1  0.83089300  0.66508600  0.79056000  1
  Fe  Fe2  1  0.32849900  0.65298500  0.29812800  1
  Fe  Fe3  1  0.00000000  0.00000000  0.62500000  1
  Fe  Fe4  1  0.67150100  0.34701500  0.95187200  1
  Fe  Fe5  1  0.00000000  0.50000000  0.12500000  1
  Fe  Fe6  1  0.66704400  0.83202300  0.45888600  1
  Fe  Fe7  1  0.33295600  0.16797700  0.79111400  1
loop_
_geom_bond_atom_site_label_1
_geom_bond_atom_site_label_2
_geom_bond_distance
_geom_bond_site_symmetry_2
Y0 Y4 3.192337 1_555
Y0 Y3 3.210407 1_555
Y0 Y4 3.230097 1_545
Y0 Y4 3.283233 1_655
Y1 Y5 3.192337 1_555
Y1 Y5 3.230097 1_545
Y1 Y5 3.283233 1_655
Y1 Y4 3.341720 1_644
Y2 Y3 3.173467 1_555
Y2 Y5 3.210407 1_555
Y2 Y3 3.248933 1_655
Y2 Y3 3.249571 1_545
Al0 Fe5 2.652497 1_655
Al0 Fe5 2.652497 1_555
Al0 Fe2 2.683623 1_555
Al0 Fe4 2.683623 1_554
Al0 Al3 2.686770 1_555
Al0 Al3 2.686770 1_565
Al0 Y1 3.108324 1_455
Al0 Y4 3.108324 1_654
Al0 Y5 3.120325 1_555
Al0 Y0 3.120325 1_554
Al0 Y1 3.127828 1_565
Al0 Y4 3.127828 1_544
Al1 Fe3 2.615397 1_565
Al1 Fe2 2.624610 1_555
Al1 Fe6 2.645479 1_455
Al1 Fe6 2.659797 1_555
Al1 Fe0 2.674460 1_565
Al1 Fe0 2.699122 1_555
Al1 Y3 3.047401 1_555
Al1 Y1 3.048835 1_465
Al1 Y5 3.064165 1_455
Al1 Y2 3.083836 1_565
Al1 Y5 3.092546 1_565
Al1 Y2 3.093119 1_455
Al2 Fe3 2.615397 1_655
Al2 Fe4 2.624610 1_555
Al2 Fe7 2.645479 1_655
Al2 Fe7 2.659797 1_555
Al2 Fe1 2.674460 1_545
Al2 Fe1 2.699122 1_555
Al2 Y2 3.047401 1_555
Al2 Y4 3.048835 1_645
Al2 Y0 3.064165 1_655
Al2 Y3 3.083836 1_545
Al2 Y0 3.092546 1_545
Al2 Y3 3.093119 1_655
Al3 Fe5 2.632627 1_655
Al3 Fe5 2.632627 1_545
Al3 Fe2 2.719095 1_545
Al3 Fe4 2.719095 1_554
Al3 Y1 3.106408 1_555
Al3 Y4 3.106408 1_544
Al3 Y5 3.122293 1_555
Al3 Y0 3.122293 1_544
Al3 Y1 3.163107 1_455
Al3 Y4 3.163107 1_644
Fe0 Fe2 2.519326 1_555
Fe0 Fe3 2.608196 1_555
Fe0 Fe6 2.619476 1_555
Fe0 Fe6 2.645802 1_445
Fe0 Y3 3.031040 1_555
Fe0 Y1 3.034875 1_455
Fe0 Y5 3.049370 1_455
Fe0 Y2 3.069088 1_555
Fe0 Y5 3.130619 1_555
Fe0 Y2 3.151639 1_455
Fe1 Fe4 2.519326 1_555
Fe1 Fe3 2.608196 1_665
Fe1 Fe7 2.619476 1_555
Fe1 Fe7 2.645802 1_665
Fe1 Y2 3.031040 1_555
Fe1 Y4 3.034875 1_655
Fe1 Y0 3.049370 1_655
Fe1 Y3 3.069088 1_555
Fe1 Y0 3.130619 1_555
Fe1 Y3 3.151639 1_655
Fe2 Fe6 2.576488 1_555
Fe2 Fe5 2.678877 1_555
Fe2 Y5 2.990694 1_455
Fe2 Y1 3.049372 1_455
Fe2 Y1 3.080340 1_565
Fe2 Y5 3.131182 1_555
Fe2 Y5 3.195646 1_565
Fe2 Y1 3.220108 1_465
Fe3 Fe7 2.616187 1_555
Fe3 Fe6 2.616187 1_445
Fe3 Y2 3.044090 1_555
Fe3 Y3 3.044090 1_445
Fe3 Y3 3.103289 1_555
Fe3 Y2 3.103289 1_445
Fe3 Y2 3.175665 1_455
Fe3 Y3 3.175665 1_545
Fe4 Fe7 2.576488 1_555
Fe4 Fe5 2.678877 1_656
Fe4 Y0 2.990694 1_655
Fe4 Y4 3.049372 1_655
Fe4 Y4 3.080340 1_545
Fe4 Y0 3.131182 1_555
Fe4 Y0 3.195646 1_545
Fe4 Y4 3.220108 1_645
Fe5 Y5 3.054808 1_455
Fe5 Y0 3.054808 1_554
Fe5 Y1 3.126012 1_455
Fe5 Y4 3.126012 1_554
Fe5 Y4 3.201415 1_544
Fe5 Y1 3.201415 1_465
Fe6 Y1 2.990861 1_565
Fe6 Y3 3.005260 1_555
Fe6 Y2 3.096519 1_555
Fe6 Y5 3.100498 1_565
Fe6 Y5 3.131808 1_555
Fe6 Y2 3.190119 1_565
Fe7 Y4 2.990861 1_545
Fe7 Y2 3.005260 1_555
Fe7 Y3 3.096519 1_555
Fe7 Y0 3.100498 1_545
Fe7 Y0 3.131808 1_555
Fe7 Y3 3.190119 1_545
