# generated using pymatgen
data_Dy4Mg3Co2
_symmetry_space_group_name_H-M   'P 1'
_cell_length_a   3.59423257
_cell_length_b   7.56348210
_cell_length_c   8.34111441
_cell_angle_alpha   70.66757731
_cell_angle_beta   90.00000000
_cell_angle_gamma   90.00000000
_symmetry_Int_Tables_number   1
_chemical_formula_structural   Dy4Mg3Co2
_chemical_formula_sum   'Dy4 Mg3 Co2'
_cell_volume   213.96675777
_cell_formula_units_Z   1
loop_
 _symmetry_equiv_pos_site_id
 _symmetry_equiv_pos_as_xyz
  1  'x, y, z'
loop_
 _atom_site_type_symbol
 _atom_site_label
 _atom_site_symmetry_multiplicity
 _atom_site_fract_x
 _atom_site_fract_y
 _atom_site_fract_z
 _atom_site_occupancy
  Dy  Dy0  1  0.50000000  0.90457923  0.22338446  1
  Dy  Dy1  1  0.50000000  0.09542077  0.77661554  1
  Dy  Dy2  1  0.50000000  0.39464257  0.32215098  1
  Dy  Dy3  1  0.50000000  0.60535743  0.67784902  1
  Mg  Mg0  1  0.00000000  0.70652145  -0.00058018  1
  Mg  Mg1  1  -0.00000000  0.29347855  1.00058018  1
  Mg  Mg2  1  -0.00000000  0.00000000  0.50000000  1
  Co  Co0  1  0.00000000  0.64753905  0.39744771  1
  Co  Co1  1  0.00000000  0.35246095  0.60255229  1
loop_
_geom_bond_atom_site_label_1
_geom_bond_atom_site_label_2
_geom_bond_distance
_geom_bond_site_symmetry_2
Dy0 Mg2 3.190073 1_665
Dy0 Mg2 3.190073 1_565
Dy0 Mg0 3.288821 1_655
Dy0 Mg0 3.288821 1_555
Dy0 Mg1 3.422880 1_664
Dy0 Mg1 3.422880 1_564
Dy1 Mg2 3.190073 1_655
Dy1 Mg2 3.190073 1_555
Dy1 Mg1 3.288821 1_655
Dy1 Mg1 3.288821 1_555
Dy1 Mg0 3.422880 1_546
Dy1 Mg0 3.422880 1_646
Dy2 Mg2 3.377576 1_555
Dy2 Mg2 3.377576 1_655
Dy2 Mg0 3.440380 1_655
Dy2 Mg0 3.440380 1_555
Dy2 Mg1 3.516880 1_654
Dy2 Mg1 3.516880 1_554
Dy3 Mg2 3.377576 1_665
Dy3 Mg2 3.377576 1_565
Dy3 Mg1 3.440380 1_655
Dy3 Mg1 3.440380 1_555
Dy3 Mg0 3.516880 1_656
Dy3 Mg0 3.516880 1_556
Mg0 Mg1 3.120852 1_554
Co0 Co1 2.319447 1_555
Co0 Dy0 2.692272 1_455
Co0 Dy0 2.692272 1_555
Co0 Dy2 2.842218 1_455
Co0 Dy2 2.842218 1_555
Co0 Dy3 2.882295 1_455
Co0 Dy3 2.882295 1_555
Co0 Mg2 3.057480 1_565
Co0 Mg0 3.200120 1_555
Co1 Dy1 2.692272 1_555
Co1 Dy1 2.692272 1_455
Co1 Dy3 2.842218 1_455
Co1 Dy3 2.842218 1_555
Co1 Dy2 2.882295 1_555
Co1 Dy2 2.882295 1_455
Co1 Mg2 3.057480 1_555
Co1 Mg1 3.200120 1_555
