# generated using pymatgen
data_CeYPd6
_symmetry_space_group_name_H-M   'P 1'
_cell_length_a   4.11570850
_cell_length_b   4.11570850
_cell_length_c   8.21878608
_cell_angle_alpha   90.00000000
_cell_angle_beta   90.00000000
_cell_angle_gamma   90.00000000
_symmetry_Int_Tables_number   1
_chemical_formula_structural   CeYPd6
_chemical_formula_sum   'Ce1 Y1 Pd6'
_cell_volume   139.21848142
_cell_formula_units_Z   1
loop_
 _symmetry_equiv_pos_site_id
 _symmetry_equiv_pos_as_xyz
  1  'x, y, z'
loop_
 _atom_site_type_symbol
 _atom_site_label
 _atom_site_symmetry_multiplicity
 _atom_site_fract_x
 _atom_site_fract_y
 _atom_site_fract_z
 _atom_site_occupancy
  Ce  Ce0  1  -0.00000000  -0.00000000  -0.00000000  1
  Y  Y0  1  -0.00000000  -0.00000000  0.50000000  1
  Pd  Pd0  1  0.50000000  0.50000000  -0.00000000  1
  Pd  Pd1  1  0.50000000  0.50000000  0.50000000  1
  Pd  Pd2  1  0.50000000  -0.00000000  0.24822482  1
  Pd  Pd3  1  0.50000000  -0.00000000  0.75177518  1
  Pd  Pd4  1  0.00000000  0.50000000  0.24822482  1
  Pd  Pd5  1  -0.00000000  0.50000000  0.75177518  1
loop_
_geom_bond_atom_site_label_1
_geom_bond_atom_site_label_2
_geom_bond_distance
_geom_bond_site_symmetry_2
Ce0 Pd2 2.897723 1_455
Ce0 Pd5 2.897723 1_554
Ce0 Pd5 2.897723 1_544
Ce0 Pd4 2.897723 1_545
Ce0 Pd3 2.897723 1_554
Ce0 Pd4 2.897723 1_555
Ce0 Pd3 2.897723 1_454
Ce0 Pd2 2.897723 1_555
Ce0 Pd0 2.910245 1_445
Ce0 Pd0 2.910245 1_455
Ce0 Pd0 2.910245 1_545
Ce0 Pd0 2.910245 1_555
Pd1 Y0 2.910245 1_665
Pd1 Y0 2.910245 1_555
Pd1 Y0 2.910245 1_655
Pd1 Y0 2.910245 1_565
Pd2 Y0 2.918340 1_555
Pd2 Y0 2.918340 1_655
Pd3 Y0 2.918340 1_555
Pd3 Y0 2.918340 1_655
Pd4 Y0 2.918340 1_555
Pd4 Y0 2.918340 1_565
Pd5 Y0 2.918340 1_555
Pd5 Y0 2.918340 1_565
