# generated using pymatgen
data_K4Cd(P3O10)2
_symmetry_space_group_name_H-M   'P 1'
_cell_length_a   7.17402600
_cell_length_b   7.79212842
_cell_length_c   9.19021391
_cell_angle_alpha   102.00313237
_cell_angle_beta   103.54418743
_cell_angle_gamma   95.06038228
_symmetry_Int_Tables_number   1
_chemical_formula_structural   K4Cd(P3O10)2
_chemical_formula_sum   'K4 Cd1 P6 O20'
_cell_volume   483.44438615
_cell_formula_units_Z   1
loop_
 _symmetry_equiv_pos_site_id
 _symmetry_equiv_pos_as_xyz
  1  'x, y, z'
loop_
 _atom_site_type_symbol
 _atom_site_label
 _atom_site_symmetry_multiplicity
 _atom_site_fract_x
 _atom_site_fract_y
 _atom_site_fract_z
 _atom_site_occupancy
  K  K0  1  0.26390000  0.25340400  0.52860500  1
  K  K1  1  0.73610000  0.74659600  0.47139500  1
  K  K2  1  0.28575100  0.49722000  0.11588500  1
  K  K3  1  0.71424900  0.50278000  0.88411500  1
  Cd  Cd0  1  0.00000000  0.00000000  0.00000000  1
  P  P0  1  0.48058200  0.02913400  0.22691100  1
  P  P1  1  0.51941800  0.97086600  0.77308900  1
  P  P2  1  0.77416500  0.26353800  0.50662400  1
  P  P3  1  0.22583500  0.73646200  0.49337600  1
  P  P4  1  0.77051800  0.30350600  0.19469300  1
  P  P5  1  0.22948200  0.69649400  0.80530700  1
  O  O0  1  0.28363100  0.08848100  0.18859300  1
  O  O1  1  0.71636900  0.91151900  0.81140700  1
  O  O2  1  0.49873200  0.83617200  0.20434600  1
  O  O3  1  0.50126800  0.16382800  0.79565400  1
  O  O4  1  0.90617000  0.15908800  0.59448800  1
  O  O5  1  0.09383000  0.84091200  0.40551200  1
  O  O6  1  0.71354600  0.42963700  0.58417200  1
  O  O7  1  0.28645400  0.57036300  0.41582800  1
  O  O8  1  0.91901200  0.27790600  0.10247300  1
  O  O9  1  0.08098800  0.72209400  0.89752700  1
  O  O10  1  0.66586400  0.46068500  0.19177900  1
  O  O11  1  0.33413600  0.53931500  0.80822100  1
  O  O12  1  0.57626400  0.12923100  0.40690600  1
  O  O13  1  0.42373600  0.87076900  0.59309400  1
  O  O14  1  0.87551400  0.29983700  0.37111100  1
  O  O15  1  0.12448600  0.70016300  0.62888900  1
  O  O16  1  0.62108000  0.11942100  0.14084800  1
  O  O17  1  0.37892000  0.88057900  0.85915200  1
  O  O18  1  0.12775600  0.18321600  0.86667500  1
  O  O19  1  0.87224400  0.81678400  0.13332500  1
loop_
_geom_bond_atom_site_label_1
_geom_bond_atom_site_label_2
_geom_bond_distance
_geom_bond_site_symmetry_2
K0 O4 2.841323 1_455
K0 O7 2.876280 1_555
K0 O12 2.883591 1_555
K0 O3 2.893947 1_555
K0 O14 2.914790 1_455
K0 O11 2.938543 1_555
K0 O0 3.163040 1_555
K0 O5 3.201362 1_545
K0 O6 3.272222 1_555
K1 O5 2.841323 1_655
K1 O6 2.876280 1_555
K1 O13 2.883591 1_555
K1 O2 2.893947 1_555
K1 O15 2.914790 1_655
K1 O10 2.938543 1_555
K1 O1 3.163040 1_555
K1 O4 3.201362 1_565
K1 O7 3.272222 1_555
K2 O7 2.694977 1_555
K2 O10 2.707840 1_555
K2 O2 2.790054 1_555
K2 O18 2.912191 1_554
K2 O8 2.970701 1_455
K2 O11 3.008023 1_554
K2 O9 3.129090 1_554
K3 O6 2.694977 1_555
K3 O11 2.707840 1_555
K3 O3 2.790054 1_555
K3 O19 2.912191 1_556
K3 O9 2.970701 1_655
K3 O10 3.008023 1_556
K3 O8 3.129090 1_556
Cd0 O1 2.285454 1_444
Cd0 O0 2.285454 1_555
Cd0 O18 2.324275 1_554
Cd0 O19 2.324275 1_445
Cd0 O8 2.354524 1_455
Cd0 O9 2.354524 1_544
O0 P0 1.511351 1_555
O1 P1 1.511351 1_555
O2 P0 1.496068 1_565
O3 P1 1.496068 1_545
O4 P2 1.504134 1_555
O5 P3 1.504134 1_555
O6 P2 1.494312 1_555
O7 P3 1.494312 1_555
O8 P4 1.510964 1_555
O9 P5 1.510964 1_555
O10 P4 1.493613 1_555
O11 P5 1.493613 1_555
O12 P0 1.628787 1_555
O12 P2 1.637168 1_555
O13 P1 1.628787 1_555
O13 P3 1.637168 1_555
O14 P4 1.627245 1_555
O14 P2 1.641346 1_555
O15 P5 1.627245 1_555
O15 P3 1.641346 1_555
O16 P0 1.617475 1_555
O16 P4 1.623808 1_555
O17 P1 1.617475 1_555
O17 P5 1.623808 1_555
