# generated using pymatgen
data_SrMg5
_symmetry_space_group_name_H-M   'P 1'
_cell_length_a   18.24868054
_cell_length_b   18.24868054
_cell_length_c   10.63142800
_cell_angle_alpha   90.00000000
_cell_angle_beta   90.00000000
_cell_angle_gamma   157.84027402
_symmetry_Int_Tables_number   1
_chemical_formula_structural   SrMg5
_chemical_formula_sum   'Sr8 Mg40'
_cell_volume   1335.40985912
_cell_formula_units_Z   8
loop_
 _symmetry_equiv_pos_site_id
 _symmetry_equiv_pos_as_xyz
  1  'x, y, z'
loop_
 _atom_site_type_symbol
 _atom_site_label
 _atom_site_symmetry_multiplicity
 _atom_site_fract_x
 _atom_site_fract_y
 _atom_site_fract_z
 _atom_site_occupancy
  Sr  Sr0_0  1  0.38956250  0.11043750  0.00000000  1
  Sr  Sr0_1  1  0.38956250  0.11043750  0.50000000  1
  Sr  Sr0_2  1  0.38956250  0.61043750  0.00000000  1
  Sr  Sr0_3  1  0.38956250  0.61043750  0.50000000  1
  Sr  Sr0_4  1  0.88956250  0.11043750  0.00000000  1
  Sr  Sr0_5  1  0.88956250  0.11043750  0.50000000  1
  Sr  Sr0_6  1  0.88956250  0.61043750  0.00000000  1
  Sr  Sr0_7  1  0.88956250  0.61043750  0.50000000  1
  Mg  Mg0_0  1  0.49891050  0.00108950  0.25000000  1
  Mg  Mg0_1  1  0.49891050  0.00108950  0.75000000  1
  Mg  Mg0_2  1  0.49891050  0.50108950  0.25000000  1
  Mg  Mg0_3  1  0.49891050  0.50108950  0.75000000  1
  Mg  Mg0_4  1  0.99891050  0.00108950  0.25000000  1
  Mg  Mg0_5  1  0.99891050  0.00108950  0.75000000  1
  Mg  Mg0_6  1  0.99891050  0.50108950  0.25000000  1
  Mg  Mg0_7  1  0.99891050  0.50108950  0.75000000  1
  Mg  Mg1_0  1  0.17765750  0.32234250  0.25000000  1
  Mg  Mg1_1  1  0.17765750  0.32234250  0.75000000  1
  Mg  Mg1_2  1  0.17765750  0.82234250  0.25000000  1
  Mg  Mg1_3  1  0.17765750  0.82234250  0.75000000  1
  Mg  Mg1_4  1  0.67765750  0.32234250  0.25000000  1
  Mg  Mg1_5  1  0.67765750  0.32234250  0.75000000  1
  Mg  Mg1_6  1  0.67765750  0.82234250  0.25000000  1
  Mg  Mg1_7  1  0.67765750  0.82234250  0.75000000  1
  Mg  Mg2_0  1  0.32308500  0.17691500  0.25000000  1
  Mg  Mg2_1  1  0.32308500  0.17691500  0.75000000  1
  Mg  Mg2_2  1  0.32308500  0.67691500  0.25000000  1
  Mg  Mg2_3  1  0.32308500  0.67691500  0.75000000  1
  Mg  Mg2_4  1  0.82308500  0.17691500  0.25000000  1
  Mg  Mg2_5  1  0.82308500  0.17691500  0.75000000  1
  Mg  Mg2_6  1  0.82308500  0.67691500  0.25000000  1
  Mg  Mg2_7  1  0.82308500  0.67691500  0.75000000  1
  Mg  Mg3_0  1  0.04995100  0.45004900  0.00000000  1
  Mg  Mg3_1  1  0.04995100  0.45004900  0.50000000  1
  Mg  Mg3_2  1  0.04995100  0.95004900  0.00000000  1
  Mg  Mg3_3  1  0.04995100  0.95004900  0.50000000  1
  Mg  Mg3_4  1  0.54995100  0.45004900  0.00000000  1
  Mg  Mg3_5  1  0.54995100  0.45004900  0.50000000  1
  Mg  Mg3_6  1  0.54995100  0.95004900  0.00000000  1
  Mg  Mg3_7  1  0.54995100  0.95004900  0.50000000  1
  Mg  Mg4_0  1  0.22750050  0.27249950  0.00000000  1
  Mg  Mg4_1  1  0.22750050  0.27249950  0.50000000  1
  Mg  Mg4_2  1  0.22750050  0.77249950  0.00000000  1
  Mg  Mg4_3  1  0.22750050  0.77249950  0.50000000  1
  Mg  Mg4_4  1  0.72750050  0.27249950  0.00000000  1
  Mg  Mg4_5  1  0.72750050  0.27249950  0.50000000  1
  Mg  Mg4_6  1  0.72750050  0.77249950  0.00000000  1
  Mg  Mg4_7  1  0.72750050  0.77249950  0.50000000  1
loop_
_geom_bond_atom_site_label_1
_geom_bond_atom_site_label_2
_geom_bond_distance
_geom_bond_site_symmetry_2
Sr0_0 Sr0_6 3.506978 1_445
Sr0_0 Sr0_6 3.506978 1_555
Sr0_1 Sr0_7 3.506978 1_445
Sr0_1 Sr0_7 3.506978 1_555
Sr0_2 Sr0_4 3.506978 1_565
Sr0_2 Sr0_4 3.506978 1_455
Sr0_3 Sr0_5 3.506978 1_565
Sr0_3 Sr0_5 3.506978 1_455
Mg0_0 Mg1_4 3.096417 1_555
Mg0_0 Mg1_2 3.096417 1_545
Mg0_0 Mg2_2 3.183213 1_545
Mg0_0 Mg2_4 3.183213 1_555
Mg0_0 Mg3_6 3.225869 1_545
Mg0_0 Mg3_7 3.225869 1_545
Mg0_0 Mg4_3 3.275206 1_545
Mg0_0 Mg4_2 3.275206 1_545
Mg0_0 Mg4_4 3.275206 1_555
Mg0_0 Mg4_5 3.275206 1_555
Mg0_1 Mg1_5 3.096417 1_555
Mg0_1 Mg1_3 3.096417 1_545
Mg0_1 Mg2_3 3.183213 1_545
Mg0_1 Mg2_5 3.183213 1_555
Mg0_1 Mg3_6 3.225869 1_546
Mg0_1 Mg3_7 3.225869 1_545
Mg0_1 Mg4_3 3.275206 1_545
Mg0_1 Mg4_2 3.275206 1_546
Mg0_1 Mg4_5 3.275206 1_555
Mg0_1 Mg4_4 3.275206 1_556
Mg0_2 Mg1_6 3.096417 1_555
Mg0_2 Mg1_0 3.096417 1_555
Mg0_2 Mg2_6 3.183213 1_555
Mg0_2 Mg2_0 3.183213 1_555
Mg0_2 Mg3_5 3.225869 1_555
Mg0_2 Mg3_4 3.225869 1_555
Mg0_2 Mg4_0 3.275206 1_555
Mg0_2 Mg4_1 3.275206 1_555
Mg0_2 Mg4_6 3.275206 1_555
Mg0_2 Mg4_7 3.275206 1_555
Mg0_3 Mg1_7 3.096417 1_555
Mg0_3 Mg1_1 3.096417 1_555
Mg0_3 Mg2_7 3.183213 1_555
Mg0_3 Mg2_1 3.183213 1_555
Mg0_3 Mg3_5 3.225869 1_555
Mg0_3 Mg3_4 3.225869 1_556
Mg0_3 Mg4_1 3.275206 1_555
Mg0_3 Mg4_0 3.275206 1_556
Mg0_3 Mg4_6 3.275206 1_556
Mg0_3 Mg4_7 3.275206 1_555
Mg0_4 Mg1_0 3.096417 1_655
Mg0_4 Mg1_6 3.096417 1_545
Mg0_4 Mg2_6 3.183213 1_545
Mg0_4 Mg2_0 3.183213 1_655
Mg0_4 Mg3_2 3.225869 1_645
Mg0_4 Mg3_3 3.225869 1_645
Mg0_4 Mg4_6 3.275206 1_545
Mg0_4 Mg4_0 3.275206 1_655
Mg0_4 Mg4_1 3.275206 1_655
Mg0_4 Mg4_7 3.275206 1_545
Mg0_5 Mg1_1 3.096417 1_655
Mg0_5 Mg1_7 3.096417 1_545
Mg0_5 Mg2_7 3.183213 1_545
Mg0_5 Mg2_1 3.183213 1_655
Mg0_5 Mg3_2 3.225869 1_646
Mg0_5 Mg3_3 3.225869 1_645
Mg0_5 Mg4_6 3.275206 1_546
Mg0_5 Mg4_0 3.275206 1_656
Mg0_5 Mg4_1 3.275206 1_655
Mg0_5 Mg4_7 3.275206 1_545
Mg0_6 Mg1_2 3.096417 1_655
Mg0_6 Mg1_4 3.096417 1_555
Mg0_6 Mg2_4 3.183213 1_555
Mg0_6 Mg2_2 3.183213 1_655
Mg0_6 Mg3_0 3.225869 1_655
Mg0_6 Mg3_1 3.225869 1_655
Mg0_6 Mg4_4 3.275206 1_555
Mg0_6 Mg4_5 3.275206 1_555
Mg0_6 Mg4_3 3.275206 1_655
Mg0_6 Mg4_2 3.275206 1_655
Mg0_7 Mg1_5 3.096417 1_555
Mg0_7 Mg1_3 3.096417 1_655
Mg0_7 Mg2_5 3.183213 1_555
Mg0_7 Mg2_3 3.183213 1_655
Mg0_7 Mg3_0 3.225869 1_656
Mg0_7 Mg3_1 3.225869 1_655
Mg0_7 Mg4_5 3.275206 1_555
Mg0_7 Mg4_3 3.275206 1_655
Mg0_7 Mg4_4 3.275206 1_556
Mg0_7 Mg4_2 3.275206 1_656
Mg1_0 Mg4_1 3.201757 1_555
Mg1_0 Mg4_0 3.201757 1_555
Mg1_0 Sr0_4 3.464196 1_455
Mg1_0 Sr0_5 3.464196 1_455
Mg1_0 Sr0_2 3.464196 1_555
Mg1_0 Sr0_3 3.464196 1_555
Mg1_0 Mg1_6 3.506978 1_445
Mg1_0 Mg1_6 3.506978 1_555
Mg1_1 Mg4_1 3.201757 1_555
Mg1_1 Mg4_0 3.201757 1_556
Mg1_1 Sr0_4 3.464196 1_456
Mg1_1 Sr0_5 3.464196 1_455
Mg1_1 Sr0_2 3.464196 1_556
Mg1_1 Sr0_3 3.464196 1_555
Mg1_1 Mg1_7 3.506978 1_445
Mg1_1 Mg1_7 3.506978 1_555
Mg1_2 Mg4_2 3.201757 1_555
Mg1_2 Mg4_3 3.201757 1_555
Mg1_2 Sr0_0 3.464196 1_565
Mg1_2 Sr0_1 3.464196 1_565
Mg1_2 Sr0_6 3.464196 1_455
Mg1_2 Sr0_7 3.464196 1_455
Mg1_2 Mg1_4 3.506978 1_565
Mg1_2 Mg1_4 3.506978 1_455
Mg1_3 Mg4_2 3.201757 1_556
Mg1_3 Mg4_3 3.201757 1_555
Mg1_3 Sr0_0 3.464196 1_566
Mg1_3 Sr0_1 3.464196 1_565
Mg1_3 Sr0_6 3.464196 1_456
Mg1_3 Sr0_7 3.464196 1_455
Mg1_3 Mg1_5 3.506978 1_455
Mg1_3 Mg1_5 3.506978 1_565
Mg1_4 Mg4_4 3.201757 1_555
Mg1_4 Mg4_5 3.201757 1_555
Mg1_4 Sr0_7 3.464196 1_555
Mg1_4 Sr0_6 3.464196 1_555
Mg1_4 Sr0_0 3.464196 1_555
Mg1_4 Sr0_1 3.464196 1_555
Mg1_5 Mg4_4 3.201757 1_556
Mg1_5 Mg4_5 3.201757 1_555
Mg1_5 Sr0_7 3.464196 1_555
Mg1_5 Sr0_6 3.464196 1_556
Mg1_5 Sr0_0 3.464196 1_556
Mg1_5 Sr0_1 3.464196 1_555
Mg1_6 Mg4_7 3.201757 1_555
Mg1_6 Mg4_6 3.201757 1_555
Mg1_6 Sr0_4 3.464196 1_565
Mg1_6 Sr0_5 3.464196 1_565
Mg1_6 Sr0_2 3.464196 1_555
Mg1_6 Sr0_3 3.464196 1_555
Mg1_7 Mg4_7 3.201757 1_555
Mg1_7 Mg4_6 3.201757 1_556
Mg1_7 Sr0_4 3.464196 1_566
Mg1_7 Sr0_5 3.464196 1_565
Mg1_7 Sr0_2 3.464196 1_556
Mg1_7 Sr0_3 3.464196 1_555
Mg2_0 Mg3_4 3.290212 1_555
Mg2_0 Mg3_5 3.290212 1_555
Mg2_0 Mg3_3 3.290212 1_545
Mg2_0 Mg3_2 3.290212 1_545
Mg2_0 Mg2_6 3.506978 1_445
Mg2_0 Mg2_6 3.506978 1_555
Mg2_0 Sr0_1 3.568403 1_555
Mg2_0 Sr0_0 3.568403 1_555
Mg2_1 Mg3_4 3.290212 1_556
Mg2_1 Mg3_5 3.290212 1_555
Mg2_1 Mg3_3 3.290212 1_545
Mg2_1 Mg3_2 3.290212 1_546
Mg2_1 Mg2_7 3.506978 1_445
Mg2_1 Mg2_7 3.506978 1_555
Mg2_1 Sr0_0 3.568403 1_556
Mg2_1 Sr0_1 3.568403 1_555
Mg2_2 Mg3_6 3.290212 1_555
Mg2_2 Mg3_7 3.290212 1_555
Mg2_2 Mg3_0 3.290212 1_555
Mg2_2 Mg3_1 3.290212 1_555
Mg2_2 Mg2_4 3.506978 1_565
Mg2_2 Mg2_4 3.506978 1_455
Mg2_2 Sr0_2 3.568403 1_555
Mg2_2 Sr0_3 3.568403 1_555
Mg2_3 Mg3_6 3.290212 1_556
Mg2_3 Mg3_7 3.290212 1_555
Mg2_3 Mg3_1 3.290212 1_555
Mg2_3 Mg3_0 3.290212 1_556
Mg2_3 Mg2_5 3.506978 1_565
Mg2_3 Mg2_5 3.506978 1_455
Mg2_3 Sr0_2 3.568403 1_556
Mg2_3 Sr0_3 3.568403 1_555
Mg2_4 Mg3_1 3.290212 1_655
Mg2_4 Mg3_0 3.290212 1_655
Mg2_4 Mg3_6 3.290212 1_545
Mg2_4 Mg3_7 3.290212 1_545
Mg2_4 Sr0_4 3.568403 1_555
Mg2_4 Sr0_5 3.568403 1_555
Mg2_5 Mg3_1 3.290212 1_655
Mg2_5 Mg3_0 3.290212 1_656
Mg2_5 Mg3_7 3.290212 1_545
Mg2_5 Mg3_6 3.290212 1_546
Mg2_5 Sr0_4 3.568403 1_556
Mg2_5 Sr0_5 3.568403 1_555
Mg2_6 Mg3_2 3.290212 1_655
Mg2_6 Mg3_3 3.290212 1_655
Mg2_6 Mg3_5 3.290212 1_555
Mg2_6 Mg3_4 3.290212 1_555
Mg2_6 Sr0_6 3.568403 1_555
Mg2_6 Sr0_7 3.568403 1_555
Mg2_7 Mg3_3 3.290212 1_655
Mg2_7 Mg3_2 3.290212 1_656
Mg2_7 Mg3_5 3.290212 1_555
Mg2_7 Mg3_4 3.290212 1_556
Mg2_7 Sr0_6 3.568403 1_556
Mg2_7 Sr0_7 3.568403 1_555
Mg3_0 Mg4_4 3.131862 1_455
Mg3_0 Mg4_2 3.131862 1_555
Mg3_0 Mg3_6 3.506978 1_445
Mg3_0 Mg3_6 3.506978 1_555
Mg3_0 Sr0_4 3.657374 1_455
Mg3_0 Sr0_2 3.657374 1_555
Mg3_1 Mg4_5 3.131862 1_455
Mg3_1 Mg4_3 3.131862 1_555
Mg3_1 Mg3_7 3.506978 1_445
Mg3_1 Mg3_7 3.506978 1_555
Mg3_1 Sr0_5 3.657374 1_455
Mg3_1 Sr0_3 3.657374 1_555
Mg3_2 Mg4_0 3.131862 1_565
Mg3_2 Mg4_6 3.131862 1_455
Mg3_2 Mg3_4 3.506978 1_565
Mg3_2 Mg3_4 3.506978 1_455
Mg3_2 Sr0_6 3.657374 1_455
Mg3_2 Sr0_0 3.657374 1_565
Mg3_3 Mg4_1 3.131862 1_565
Mg3_3 Mg4_7 3.131862 1_455
Mg3_3 Mg3_5 3.506978 1_565
Mg3_3 Mg3_5 3.506978 1_455
Mg3_3 Sr0_7 3.657374 1_455
Mg3_3 Sr0_1 3.657374 1_565
Mg3_4 Mg4_0 3.131862 1_555
Mg3_4 Mg4_6 3.131862 1_555
Mg3_4 Sr0_0 3.657374 1_555
Mg3_4 Sr0_6 3.657374 1_555
Mg3_5 Mg4_1 3.131862 1_555
Mg3_5 Mg4_7 3.131862 1_555
Mg3_5 Sr0_1 3.657374 1_555
Mg3_5 Sr0_7 3.657374 1_555
Mg3_6 Mg4_4 3.131862 1_565
Mg3_6 Mg4_2 3.131862 1_555
Mg3_6 Sr0_2 3.657374 1_555
Mg3_6 Sr0_4 3.657374 1_565
Mg3_7 Mg4_5 3.131862 1_565
Mg3_7 Mg4_3 3.131862 1_555
Mg3_7 Sr0_3 3.657374 1_555
Mg3_7 Sr0_5 3.657374 1_565
Mg4_0 Mg4_6 3.506978 1_445
Mg4_0 Mg4_6 3.506978 1_555
Mg4_0 Sr0_4 3.604887 1_455
Mg4_0 Sr0_2 3.604887 1_555
Mg4_1 Mg4_7 3.506978 1_445
Mg4_1 Mg4_7 3.506978 1_555
Mg4_1 Sr0_5 3.604887 1_455
Mg4_1 Sr0_3 3.604887 1_555
Mg4_2 Mg4_4 3.506978 1_565
Mg4_2 Mg4_4 3.506978 1_455
Mg4_2 Sr0_6 3.604887 1_455
Mg4_2 Sr0_0 3.604887 1_565
Mg4_3 Mg4_5 3.506978 1_565
Mg4_3 Mg4_5 3.506978 1_455
Mg4_3 Sr0_7 3.604887 1_455
Mg4_3 Sr0_1 3.604887 1_565
Mg4_4 Sr0_6 3.604887 1_555
Mg4_4 Sr0_0 3.604887 1_555
Mg4_5 Sr0_7 3.604887 1_555
Mg4_5 Sr0_1 3.604887 1_555
Mg4_6 Sr0_4 3.604887 1_565
Mg4_6 Sr0_2 3.604887 1_555
Mg4_7 Sr0_5 3.604887 1_565
Mg4_7 Sr0_3 3.604887 1_555
