# generated using pymatgen
data_SrFeNi2(PO4)3
_symmetry_space_group_name_H-M   'P 1'
_cell_length_a   8.97325293
_cell_length_b   8.97325293
_cell_length_c   8.97325293
_cell_angle_alpha   137.52073899
_cell_angle_beta   109.38117869
_cell_angle_gamma   86.02201911
_symmetry_Int_Tables_number   1
_chemical_formula_structural   SrFeNi2(PO4)3
_chemical_formula_sum   'Sr2 Fe2 Ni4 P6 O24'
_cell_volume   442.49923466
_cell_formula_units_Z   2
loop_
 _symmetry_equiv_pos_site_id
 _symmetry_equiv_pos_as_xyz
  1  'x, y, z'
loop_
 _atom_site_type_symbol
 _atom_site_label
 _atom_site_symmetry_multiplicity
 _atom_site_fract_x
 _atom_site_fract_y
 _atom_site_fract_z
 _atom_site_occupancy
  Sr  Sr0  1  0.25000000  0.33963269  0.08963269  1
  Sr  Sr1  1  0.75000000  0.66036731  0.91036731  1
  Fe  Fe0  1  0.00000000  0.50000000  0.50000000  1
  Fe  Fe1  1  0.50000000  0.00000000  0.50000000  1
  Ni  Ni0  1  0.11642886  0.11642886  0.50000000  1
  Ni  Ni1  1  0.38357114  0.88357114  -0.00000000  1
  Ni  Ni2  1  0.61642886  0.11642886  0.00000000  1
  Ni  Ni3  1  0.88357114  0.88357114  0.50000000  1
  P  P0  1  0.25000000  0.83522116  0.58522116  1
  P  P1  1  0.75000000  0.16477884  0.41477884  1
  P  P2  1  0.32180407  0.32180407  0.50000000  1
  P  P3  1  0.17819593  0.67819593  0.00000000  1
  P  P4  1  0.82180407  0.32180407  0.00000000  1
  P  P5  1  0.67819593  0.67819593  0.50000000  1
  O  O0  1  0.34446139  0.79300019  0.44853981  1
  O  O1  1  0.65553861  0.20699981  0.55146019  1
  O  O2  1  0.84446139  0.39592158  0.55146019  1
  O  O3  1  0.15553861  0.60407842  0.44853981  1
  O  O4  1  0.13172078  0.98032020  0.61203997  1
  O  O5  1  0.63172078  0.01967980  0.15140058  1
  O  O6  1  0.86827922  0.01967980  0.38796003  1
  O  O7  1  0.36827922  0.98032020  0.84859942  1
  O  O8  1  0.34750057  0.20163794  0.27714825  1
  O  O9  1  0.07551030  0.79836206  0.14586263  1
  O  O10  1  0.84750057  0.57035232  0.14586263  1
  O  O11  1  0.57551030  0.42964768  0.27714825  1
  O  O12  1  0.65249943  0.79836206  0.72285175  1
  O  O13  1  0.92448970  0.20163794  0.85413737  1
  O  O14  1  0.15249943  0.42964768  0.85413737  1
  O  O15  1  0.42448970  0.57035232  0.72285175  1
  O  O16  1  0.13201130  0.28675918  0.43105971  1
  O  O17  1  0.14430153  0.71324082  0.84525312  1
  O  O18  1  0.63201130  0.20095159  0.84525312  1
  O  O19  1  0.64430153  0.79904841  0.43105971  1
  O  O20  1  0.86798870  0.71324082  0.56894029  1
  O  O21  1  0.85569847  0.28675918  0.15474688  1
  O  O22  1  0.36798870  0.79904841  0.15474688  1
  O  O23  1  0.35569847  0.20095159  0.56894029  1
loop_
_geom_bond_atom_site_label_1
_geom_bond_atom_site_label_2
_geom_bond_distance
_geom_bond_site_symmetry_2
Fe0 O16 1.968019 1_555
Fe0 O20 1.968019 1_455
Fe0 O17 1.968026 1_555
Fe0 O21 1.968026 1_455
Fe0 O3 2.068355 1_555
Fe0 O2 2.068355 1_455
Fe1 O18 1.968025 1_555
Fe1 O19 1.968025 1_545
Fe1 O22 1.968025 1_545
Fe1 O23 1.968025 1_555
Fe1 O0 2.068362 1_545
Fe1 O1 2.068362 1_555
Ni0 O4 2.053685 1_545
Ni0 O6 2.053695 1_455
Ni0 O23 2.054261 1_555
Ni0 O16 2.054270 1_555
Ni0 O9 2.090871 1_545
Ni0 O14 2.090871 1_555
Ni1 O5 2.053694 1_565
Ni1 O7 2.053694 1_554
Ni1 O22 2.054261 1_555
Ni1 O17 2.054264 1_554
Ni1 O8 2.090871 1_565
Ni1 O15 2.090871 1_554
Ni2 O7 2.053694 1_544
Ni2 O5 2.053694 1_555
Ni2 O18 2.054261 1_554
Ni2 O21 2.054264 1_555
Ni2 O12 2.090871 1_544
Ni2 O11 2.090871 1_555
Ni3 O6 2.053685 1_565
Ni3 O4 2.053695 1_655
Ni3 O19 2.054261 1_555
Ni3 O20 2.054270 1_555
Ni3 O13 2.090871 1_565
Ni3 O10 2.090871 1_555
O0 P0 1.525214 1_555
O0 Sr0 2.642245 1_555
O1 P1 1.525214 1_555
O1 Sr1 2.642245 1_555
O2 P1 1.525217 1_555
O2 Sr1 2.642251 1_555
O3 P0 1.525217 1_555
O3 Sr0 2.642251 1_555
O4 P0 1.547649 1_555
O4 Sr0 2.638653 1_566
O5 P1 1.547647 1_555
O5 Sr1 2.638648 1_544
O6 P1 1.547649 1_555
O6 Sr1 2.638653 1_544
O7 P0 1.547647 1_555
O7 Sr0 2.638648 1_566
O8 P2 1.518439 1_555
O8 Sr0 2.660056 1_555
O9 P3 1.518439 1_555
O9 Sr1 2.660056 1_454
O10 P4 1.518439 1_555
O10 Sr1 2.660056 1_554
O11 P5 1.518439 1_555
O11 Sr0 2.660056 1_555
O12 P5 1.518439 1_555
O12 Sr1 2.660056 1_555
O13 P4 1.518439 1_556
O13 Sr0 2.660056 1_656
O14 P3 1.518439 1_556
O14 Sr0 2.660056 1_556
O15 P2 1.518439 1_555
O15 Sr1 2.660056 1_555
O16 P2 1.571657 1_555
O17 P3 1.571649 1_556
O18 P4 1.571657 1_556
O19 P5 1.571657 1_555
O20 P5 1.571657 1_555
O21 P4 1.571649 1_555
O22 P3 1.571657 1_555
O23 P2 1.571657 1_555
