# generated using pymatgen
data_Dy(CrSi)2
_symmetry_space_group_name_H-M   'P 1'
_cell_length_a   6.00199764
_cell_length_b   6.00199764
_cell_length_c   6.00199764
_cell_angle_alpha   142.59815392
_cell_angle_beta   142.59815392
_cell_angle_gamma   53.92880299
_symmetry_Int_Tables_number   1
_chemical_formula_structural   Dy(CrSi)2
_chemical_formula_sum   'Dy1 Cr2 Si2'
_cell_volume   79.24452859
_cell_formula_units_Z   1
loop_
 _symmetry_equiv_pos_site_id
 _symmetry_equiv_pos_as_xyz
  1  'x, y, z'
loop_
 _atom_site_type_symbol
 _atom_site_label
 _atom_site_symmetry_multiplicity
 _atom_site_fract_x
 _atom_site_fract_y
 _atom_site_fract_z
 _atom_site_occupancy
  Dy  Dy0  1  0.00000000  0.00000000  0.00000000  1
  Cr  Cr0  1  0.75000000  0.25000000  0.50000000  1
  Cr  Cr1  1  0.25000000  0.75000000  0.50000000  1
  Si  Si0  1  0.38464000  0.38464000  0.00000000  1
  Si  Si1  1  0.61536000  0.61536000  0.00000000  1
loop_
_geom_bond_atom_site_label_1
_geom_bond_atom_site_label_2
_geom_bond_distance
_geom_bond_site_symmetry_2
Dy0 Si0 2.988320 1_444
Dy0 Si0 2.988320 1_455
Dy0 Si0 2.988320 1_545
Dy0 Si1 2.988320 1_444
Dy0 Si1 2.988320 1_455
Dy0 Si1 2.988320 1_556
Dy0 Si0 2.988320 1_556
Dy0 Si1 2.988320 1_545
Cr0 Si1 2.403839 1_556
Cr0 Si1 2.403839 1_545
Cr0 Si0 2.403839 1_555
Cr0 Si0 2.403839 1_656
Cr1 Si1 2.403839 1_556
Cr1 Si0 2.403839 1_555
Cr1 Si1 2.403839 1_455
Cr1 Si0 2.403839 1_566
Si0 Si1 2.468478 1_555
