# generated using pymatgen
data_Mg4Si7
_symmetry_space_group_name_H-M   'P 1'
_cell_length_a   3.93249400
_cell_length_b   7.01005417
_cell_length_c   14.84728645
_cell_angle_alpha   79.18903717
_cell_angle_beta   89.81351317
_cell_angle_gamma   89.91253671
_symmetry_Int_Tables_number   1
_chemical_formula_structural   Mg4Si7
_chemical_formula_sum   'Mg8 Si14'
_cell_volume   402.02835804
_cell_formula_units_Z   2
loop_
 _symmetry_equiv_pos_site_id
 _symmetry_equiv_pos_as_xyz
  1  'x, y, z'
loop_
 _atom_site_type_symbol
 _atom_site_label
 _atom_site_symmetry_multiplicity
 _atom_site_fract_x
 _atom_site_fract_y
 _atom_site_fract_z
 _atom_site_occupancy
  Mg  Mg0  1  0.26878700  0.30064700  0.92712500  1
  Mg  Mg1  1  0.27599700  0.84364300  0.50921400  1
  Mg  Mg2  1  0.77502400  0.75274200  0.33525900  1
  Mg  Mg3  1  0.77618300  0.95726600  0.65779600  1
  Mg  Mg4  1  0.27458200  0.88352100  0.84426400  1
  Mg  Mg5  1  0.75500700  0.22794600  0.09382600  1
  Mg  Mg6  1  0.77770300  0.19530300  0.42795100  1
  Mg  Mg7  1  0.77520000  0.50405700  0.57889800  1
  Si  Si0  1  0.77387900  0.66238800  0.95655000  1
  Si  Si1  1  0.77100900  0.01035300  0.95755700  1
  Si  Si2  1  0.27064900  0.54688000  0.05226200  1
  Si  Si3  1  0.74784400  0.81111400  0.13459300  1
  Si  Si4  1  0.27642700  0.20175800  0.55632300  1
  Si  Si5  1  0.27575000  0.50592400  0.44380900  1
  Si  Si6  1  0.25148500  0.97038300  0.18493400  1
  Si  Si7  1  0.77334900  0.20538000  0.79872400  1
  Si  Si8  1  0.27638800  0.64524800  0.70035700  1
  Si  Si9  1  0.78736200  0.47824200  0.20470900  1
  Si  Si10  1  0.27461700  0.04358900  0.33326000  1
  Si  Si11  1  0.77580600  0.57197600  0.80445800  1
  Si  Si12  1  0.27512900  0.28370900  0.70280800  1
  Si  Si13  1  0.28456400  0.39796000  0.29891200  1
loop_
_geom_bond_atom_site_label_1
_geom_bond_atom_site_label_2
_geom_bond_distance
_geom_bond_site_symmetry_2
Mg0 Si2 2.763088 1_556
Mg0 Si1 2.799750 1_455
Mg0 Si1 2.809708 1_555
Mg0 Si7 2.895175 1_455
Mg0 Si7 2.909693 1_555
Mg0 Si11 3.066806 1_455
Mg0 Si11 3.098162 1_555
Mg1 Si5 2.722164 1_555
Mg1 Si10 2.723210 1_565
Mg1 Si4 2.729483 1_565
Mg1 Si8 2.916777 1_555
Mg2 Si10 2.827659 1_565
Mg2 Si10 2.829627 1_665
Mg2 Si5 2.896499 1_555
Mg2 Si5 2.903901 1_655
Mg2 Si3 2.932569 1_555
Mg2 Si9 2.976657 1_555
Mg2 Si6 3.086083 1_655
Mg2 Si6 3.207922 1_555
Mg3 Si4 2.845968 1_665
Mg3 Si4 2.847802 1_565
Mg3 Si8 2.920477 1_655
Mg3 Si8 2.921118 1_555
Mg3 Si7 2.961152 1_565
Mg3 Si11 3.135318 1_555
Mg3 Si12 3.180747 1_565
Mg3 Si12 3.182630 1_665
Mg4 Si1 2.831734 1_565
Mg4 Si1 2.841741 1_465
Mg4 Si0 2.842150 1_455
Mg4 Si0 2.842559 1_555
Mg4 Si8 2.948529 1_555
Mg4 Si7 2.971111 1_565
Mg4 Si7 2.975879 1_465
Mg4 Si11 3.076927 1_555
Mg4 Si11 3.077494 1_455
Mg4 Si12 3.173429 1_565
Mg5 Si9 2.625030 1_555
Mg5 Si1 2.753298 1_554
Mg5 Si6 2.826980 1_645
Mg5 Si6 2.843906 1_545
Mg5 Si3 2.870886 1_545
Mg5 Si2 2.912811 1_555
Mg5 Si2 2.996549 1_655
Mg6 Si10 2.731828 1_655
Mg6 Si4 2.743775 1_555
Mg6 Si4 2.745573 1_655
Mg6 Si10 2.758095 1_555
Mg6 Si13 2.905906 1_555
Mg6 Si13 2.936751 1_655
Mg6 Si5 2.973406 1_655
Mg6 Si5 2.978150 1_555
Mg7 Si5 2.803960 1_655
Mg7 Si5 2.810048 1_555
Mg7 Si12 2.925312 1_555
Mg7 Si12 2.929813 1_655
Mg7 Si8 2.952971 1_555
Mg7 Si4 2.955278 1_555
Mg7 Si4 2.955942 1_655
Mg7 Si8 2.968977 1_655
Si0 Si1 2.442111 1_565
Si0 Si11 2.457190 1_555
Si0 Si2 2.464343 1_656
Si0 Si2 2.479159 1_556
Si1 Si7 2.494173 1_555
Si1 Si3 2.736726 1_546
Si3 Si9 2.375195 1_555
Si3 Si6 2.431483 1_555
Si3 Si6 2.461150 1_655
Si4 Si5 2.449658 1_555
Si10 Si6 2.355183 1_545
Si10 Si13 2.440814 1_555
Si11 Si8 2.492660 1_655
Si11 Si8 2.495747 1_555
Si11 Si7 2.587212 1_555
Si12 Si4 2.351361 1_555
Si12 Si7 2.426876 1_555
Si12 Si7 2.432060 1_455
Si12 Si8 2.527847 1_555
Si13 Si5 2.410900 1_555
Si13 Si9 2.411453 1_455
Si13 Si9 2.423344 1_555
