# generated using pymatgen
data_FeAgP2O7
_symmetry_space_group_name_H-M   'P 1'
_cell_length_a   8.10678900
_cell_length_b   7.44298800
_cell_length_c   9.71538999
_cell_angle_alpha   68.27057086
_cell_angle_beta   90.00000000
_cell_angle_gamma   90.00000000
_symmetry_Int_Tables_number   1
_chemical_formula_structural   FeAgP2O7
_chemical_formula_sum   'Fe4 Ag4 P8 O28'
_cell_volume   544.55942075
_cell_formula_units_Z   4
loop_
 _symmetry_equiv_pos_site_id
 _symmetry_equiv_pos_as_xyz
  1  'x, y, z'
loop_
 _atom_site_type_symbol
 _atom_site_label
 _atom_site_symmetry_multiplicity
 _atom_site_fract_x
 _atom_site_fract_y
 _atom_site_fract_z
 _atom_site_occupancy
  Fe  Fe0  1  0.99141600  0.76014300  0.74927300  1
  Fe  Fe1  1  0.49141600  0.23985700  0.75072700  1
  Fe  Fe2  1  0.00858400  0.23985700  0.25072700  1
  Fe  Fe3  1  0.50858400  0.76014300  0.24927300  1
  Ag  Ag0  1  0.02631300  0.20602000  0.81007200  1
  Ag  Ag1  1  0.52631300  0.79398000  0.68992800  1
  Ag  Ag2  1  0.97368700  0.79398000  0.18992800  1
  Ag  Ag3  1  0.47368700  0.20602000  0.31007200  1
  P  P0  1  0.29124700  0.82570800  0.95356300  1
  P  P1  1  0.79124700  0.17429200  0.54643700  1
  P  P2  1  0.70875300  0.17429200  0.04643700  1
  P  P3  1  0.20875300  0.82570800  0.45356300  1
  P  P4  1  0.24639300  0.42543200  0.95570100  1
  P  P5  1  0.74639300  0.57456800  0.54429900  1
  P  P6  1  0.75360700  0.57456800  0.04429900  1
  P  P7  1  0.25360700  0.42543200  0.45570100  1
  O  O0  1  0.41412100  0.96467500  0.84755500  1
  O  O1  1  0.91412100  0.03532500  0.65244500  1
  O  O2  1  0.58587900  0.03532500  0.15244500  1
  O  O3  1  0.08587900  0.96467500  0.34755500  1
  O  O4  1  0.30324000  0.81310200  0.11370900  1
  O  O5  1  0.80324000  0.18689800  0.38629100  1
  O  O6  1  0.69676000  0.18689800  0.88629100  1
  O  O7  1  0.19676000  0.81310200  0.61370900  1
  O  O8  1  0.34591100  0.61888800  0.94605200  1
  O  O9  1  0.84591100  0.38111200  0.55394800  1
  O  O10  1  0.65408900  0.38111200  0.05394800  1
  O  O11  1  0.15408900  0.61888800  0.44605200  1
  O  O12  1  0.11106700  0.85985800  0.89763500  1
  O  O13  1  0.61106700  0.14014200  0.60236500  1
  O  O14  1  0.88893300  0.14014200  0.10236500  1
  O  O15  1  0.38893300  0.85985800  0.39763500  1
  O  O16  1  0.08887400  0.49211300  0.86053100  1
  O  O17  1  0.58887400  0.50788700  0.63946900  1
  O  O18  1  0.91112600  0.50788700  0.13946900  1
  O  O19  1  0.41112600  0.49211300  0.36053100  1
  O  O20  1  0.20938800  0.30949600  0.11862100  1
  O  O21  1  0.70938800  0.69050400  0.38137900  1
  O  O22  1  0.79061200  0.69050400  0.88137900  1
  O  O23  1  0.29061200  0.30949600  0.61862100  1
  O  O24  1  0.36541300  0.31873300  0.89297400  1
  O  O25  1  0.86541300  0.68126700  0.60702600  1
  O  O26  1  0.63458700  0.68126700  0.10702600  1
  O  O27  1  0.13458700  0.31873300  0.39297400  1
loop_
_geom_bond_atom_site_label_1
_geom_bond_atom_site_label_2
_geom_bond_distance
_geom_bond_site_symmetry_2
Fe0 O25 1.974513 1_555
Fe0 O1 2.011457 1_565
Fe0 O22 2.018249 1_555
Fe0 O16 2.043457 1_655
Fe0 O7 2.068035 1_655
Fe0 O12 2.088403 1_655
Fe1 O24 1.974513 1_555
Fe1 O0 2.011457 1_545
Fe1 O23 2.018249 1_555
Fe1 O17 2.043457 1_555
Fe1 O6 2.068035 1_555
Fe1 O13 2.088403 1_555
Fe2 O27 1.974513 1_555
Fe2 O3 2.011457 1_545
Fe2 O20 2.018249 1_555
Fe2 O18 2.043457 1_455
Fe2 O5 2.068035 1_455
Fe2 O14 2.088403 1_455
Fe3 O26 1.974513 1_555
Fe3 O2 2.011457 1_565
Fe3 O21 2.018249 1_555
Fe3 O19 2.043457 1_555
Fe3 O4 2.068035 1_555
Fe3 O15 2.088403 1_555
Ag0 O16 2.409310 1_555
Ag0 O12 2.492207 1_545
Ag0 O1 2.495433 1_455
Ag0 O23 2.753712 1_555
Ag0 O9 2.761868 1_455
Ag0 O6 2.761900 1_455
Ag1 O17 2.409310 1_555
Ag1 O13 2.492207 1_565
Ag1 O0 2.495433 1_555
Ag1 O22 2.753712 1_555
Ag1 O8 2.761868 1_555
Ag1 O7 2.761900 1_555
Ag2 O18 2.409310 1_555
Ag2 O14 2.492207 1_565
Ag2 O3 2.495433 1_655
Ag2 O21 2.753712 1_555
Ag2 O11 2.761868 1_655
Ag2 O4 2.761900 1_655
Ag3 O19 2.409310 1_555
Ag3 O15 2.492207 1_545
Ag3 O2 2.495433 1_555
Ag3 O20 2.753712 1_555
Ag3 O10 2.761868 1_555
Ag3 O5 2.761900 1_555
O0 P0 1.527750 1_555
O1 P1 1.527750 1_555
O2 P2 1.527750 1_555
O3 P3 1.527750 1_555
O4 P0 1.526738 1_554
O5 P1 1.526738 1_555
O6 P2 1.526738 1_556
O7 P3 1.526738 1_555
O8 P4 1.622654 1_555
O8 P0 1.629266 1_555
O9 P5 1.622654 1_555
O9 P1 1.629266 1_555
O10 P6 1.622654 1_555
O10 P2 1.629266 1_555
O11 P7 1.622654 1_555
O11 P3 1.629266 1_555
O12 P0 1.546342 1_555
O13 P1 1.546342 1_555
O14 P2 1.546342 1_555
O15 P3 1.546342 1_555
O16 P4 1.546643 1_555
O17 P5 1.546643 1_555
O18 P6 1.546643 1_555
O19 P7 1.546643 1_555
O20 P4 1.525985 1_554
O21 P5 1.525985 1_555
O22 P6 1.525985 1_556
O23 P7 1.525985 1_555
O24 P4 1.513741 1_555
O25 P5 1.513741 1_555
O26 P6 1.513741 1_555
O27 P7 1.513741 1_555
