# generated using pymatgen
data_Mg6MnNb
_symmetry_space_group_name_H-M   'P 1'
_cell_length_a   4.82728700
_cell_length_b   6.04690500
_cell_length_c   11.06550800
_cell_angle_alpha   90.00000000
_cell_angle_beta   90.00000000
_cell_angle_gamma   90.00000000
_symmetry_Int_Tables_number   1
_chemical_formula_structural   Mg6MnNb
_chemical_formula_sum   'Mg12 Mn2 Nb2'
_cell_volume   323.00379294
_cell_formula_units_Z   2
loop_
 _symmetry_equiv_pos_site_id
 _symmetry_equiv_pos_as_xyz
  1  'x, y, z'
loop_
 _atom_site_type_symbol
 _atom_site_label
 _atom_site_symmetry_multiplicity
 _atom_site_fract_x
 _atom_site_fract_y
 _atom_site_fract_z
 _atom_site_occupancy
  Mg  Mg0  1  0.00000000  0.25883900  0.07964500  1
  Mg  Mg1  1  0.00000000  0.74116100  0.07964500  1
  Mg  Mg2  1  0.00000000  0.00000000  0.32827900  1
  Mg  Mg3  1  0.50000000  0.74238000  0.42364400  1
  Mg  Mg4  1  0.50000000  0.25762000  0.42364400  1
  Mg  Mg5  1  0.50000000  0.00000000  0.16881600  1
  Mg  Mg6  1  0.00000000  0.75883900  0.57964500  1
  Mg  Mg7  1  0.00000000  0.24116100  0.57964500  1
  Mg  Mg8  1  0.00000000  0.50000000  0.82827900  1
  Mg  Mg9  1  0.50000000  0.24238000  0.92364400  1
  Mg  Mg10  1  0.50000000  0.75762000  0.92364400  1
  Mg  Mg11  1  0.50000000  0.50000000  0.66881600  1
  Mn  Mn0  1  0.00000000  0.50000000  0.30594000  1
  Mn  Mn1  1  0.00000000  0.00000000  0.80594000  1
  Nb  Nb0  1  0.50000000  0.50000000  0.19038800  1
  Nb  Nb1  1  0.50000000  0.00000000  0.69038800  1
loop_
_geom_bond_atom_site_label_1
_geom_bond_atom_site_label_2
_geom_bond_distance
_geom_bond_site_symmetry_2
Mg0 Mn0 2.897747 1_555
Mg0 Mg1 2.916555 1_555
Mg0 Mg9 2.969083 1_554
Mg0 Mg9 2.969083 1_454
Mg0 Mg5 3.041228 1_455
Mg0 Mg5 3.041228 1_555
Mg0 Nb0 3.074723 1_555
Mg0 Nb0 3.074723 1_455
Mg0 Mg1 3.130350 1_545
Mg0 Mg8 3.140585 1_554
Mg0 Mg2 3.165314 1_555
Mg0 Mn1 3.409209 1_554
Mg1 Mn0 2.897747 1_555
Mg1 Mg10 2.969083 1_554
Mg1 Mg10 2.969083 1_454
Mg1 Mg5 3.041228 1_565
Mg1 Mg5 3.041228 1_465
Mg1 Nb0 3.074723 1_455
Mg1 Nb0 3.074723 1_555
Mg1 Mg8 3.140585 1_554
Mg1 Mg2 3.165314 1_565
Mg1 Mn1 3.409209 1_564
Mg2 Mg5 2.989862 1_455
Mg2 Mg5 2.989862 1_555
Mg2 Mn0 3.033541 1_555
Mg2 Mn0 3.033541 1_545
Mg2 Mg3 3.060393 1_545
Mg2 Mg4 3.060393 1_455
Mg2 Mg3 3.060393 1_445
Mg2 Mg4 3.060393 1_555
Mg2 Mg7 3.140585 1_555
Mg2 Mg6 3.140585 1_545
Mg3 Mg4 2.931298 1_555
Mg3 Nb0 2.968195 1_555
Mg3 Mg6 2.969083 1_555
Mg3 Mg6 2.969083 1_655
Mg3 Mn0 3.109693 1_555
Mg3 Mn0 3.109693 1_655
Mg3 Mg4 3.115607 1_565
Mg3 Mg5 3.221495 1_565
Mg3 Nb1 3.337520 1_565
Mg4 Nb0 2.968195 1_555
Mg4 Mg7 2.969083 1_655
Mg4 Mg7 2.969083 1_555
Mg4 Mn0 3.109693 1_555
Mg4 Mn0 3.109693 1_655
Mg4 Mg5 3.221495 1_555
Mg4 Nb1 3.337520 1_555
Mg5 Nb0 3.032861 1_555
Mg5 Nb0 3.032861 1_545
Mg5 Mg9 3.083543 1_554
Mg6 Mn1 2.897747 1_565
Mg6 Mg7 2.916555 1_565
Mg6 Nb1 3.074723 1_465
Mg6 Nb1 3.074723 1_565
Mg6 Mg7 3.130350 1_555
Mg6 Mg8 3.165314 1_555
Mg6 Mn0 3.409209 1_555
Mg7 Mn1 2.897747 1_555
Mg7 Nb1 3.074723 1_555
Mg7 Nb1 3.074723 1_455
Mg7 Mg8 3.165314 1_555
Mg7 Mn0 3.409209 1_555
Mg8 Mn1 3.033541 1_565
Mg8 Mn1 3.033541 1_555
Mg8 Mg9 3.060393 1_455
Mg8 Mg9 3.060393 1_555
Mg9 Nb1 2.968195 1_555
Mg9 Mn1 3.109693 1_555
Mg9 Mn1 3.109693 1_655
Mg9 Nb0 3.337520 1_556
Mg10 Mg9 2.931298 1_565
Mg10 Nb1 2.968195 1_565
Mg10 Mg8 3.060393 1_655
Mg10 Mg8 3.060393 1_555
Mg10 Mg5 3.083543 1_566
Mg10 Mn1 3.109693 1_665
Mg10 Mn1 3.109693 1_565
Mg10 Mg9 3.115607 1_555
Mg10 Mg11 3.221495 1_555
Mg10 Nb0 3.337520 1_556
Mg11 Mg8 2.989862 1_555
Mg11 Mg8 2.989862 1_655
Mg11 Nb1 3.032861 1_565
Mg11 Nb1 3.032861 1_555
Mg11 Mg6 3.041228 1_655
Mg11 Mg6 3.041228 1_555
Mg11 Mg7 3.041228 1_555
Mg11 Mg7 3.041228 1_655
Mg11 Mg3 3.083543 1_555
Mg11 Mg4 3.083543 1_555
Mg11 Mg9 3.221495 1_555
Mn0 Nb0 2.731410 1_455
Mn0 Nb0 2.731410 1_555
Mn1 Nb1 2.731410 1_555
Mn1 Nb1 2.731410 1_455
