# generated using pymatgen
data_Zr5Al3N
_symmetry_space_group_name_H-M   'P 1'
_cell_length_a   8.24559101
_cell_length_b   8.24559101
_cell_length_c   5.68971500
_cell_angle_alpha   90.00000000
_cell_angle_beta   90.00000000
_cell_angle_gamma   119.99999207
_symmetry_Int_Tables_number   1
_chemical_formula_structural   Zr5Al3N
_chemical_formula_sum   'Zr10 Al6 N2'
_cell_volume   335.01539032
_cell_formula_units_Z   2
loop_
 _symmetry_equiv_pos_site_id
 _symmetry_equiv_pos_as_xyz
  1  'x, y, z'
loop_
 _atom_site_type_symbol
 _atom_site_label
 _atom_site_symmetry_multiplicity
 _atom_site_fract_x
 _atom_site_fract_y
 _atom_site_fract_z
 _atom_site_occupancy
  Zr  Zr0  1  0.22319400  0.00000000  0.25000000  1
  Zr  Zr1  1  0.77680600  0.00000000  0.75000000  1
  Zr  Zr2  1  0.00000000  0.22319400  0.25000000  1
  Zr  Zr3  1  0.00000000  0.77680600  0.75000000  1
  Zr  Zr4  1  0.77680600  0.77680600  0.25000000  1
  Zr  Zr5  1  0.22319400  0.22319400  0.75000000  1
  Zr  Zr6  1  0.33333300  0.66666700  0.00000000  1
  Zr  Zr7  1  0.66666700  0.33333300  0.00000000  1
  Zr  Zr8  1  0.66666700  0.33333300  0.50000000  1
  Zr  Zr9  1  0.33333300  0.66666700  0.50000000  1
  Al  Al0  1  0.59680200  0.00000000  0.25000000  1
  Al  Al1  1  0.40319800  0.00000000  0.75000000  1
  Al  Al2  1  0.00000000  0.59680200  0.25000000  1
  Al  Al3  1  0.00000000  0.40319800  0.75000000  1
  Al  Al4  1  0.40319800  0.40319800  0.25000000  1
  Al  Al5  1  0.59680200  0.59680200  0.75000000  1
  N  N0  1  0.00000000  0.00000000  0.00000000  1
  N  N1  1  0.00000000  0.00000000  0.50000000  1
loop_
_geom_bond_atom_site_label_1
_geom_bond_atom_site_label_2
_geom_bond_distance
_geom_bond_site_symmetry_2
Zr6 Zr9 2.844857 1_555
Zr6 Zr9 2.844857 1_554
Zr7 Zr8 2.844857 1_554
Zr7 Zr8 2.844857 1_555
Al0 Zr4 2.884694 1_545
Al0 Zr2 2.884694 1_655
Al0 Zr8 2.885517 1_555
Al0 Zr7 2.885517 1_555
Al0 Zr9 2.885519 1_545
Al0 Zr6 2.885519 1_545
Al0 Zr0 3.080619 1_555
Al0 Zr1 3.208766 1_555
Al0 Zr1 3.208766 1_554
Al1 Zr5 2.884694 1_555
Al1 Zr3 2.884694 1_545
Al1 Zr9 2.885517 1_545
Al1 Zr6 2.885517 1_546
Al1 Zr8 2.885519 1_555
Al1 Zr7 2.885519 1_556
Al1 Zr1 3.080619 1_555
Al1 Zr0 3.208766 1_556
Al1 Zr0 3.208766 1_555
Al2 Zr4 2.884694 1_455
Al2 Zr0 2.884694 1_565
Al2 Zr6 2.885517 1_555
Al2 Zr9 2.885517 1_555
Al2 Zr8 2.885519 1_455
Al2 Zr7 2.885519 1_455
Al2 Zr2 3.080619 1_555
Al2 Zr3 3.208766 1_554
Al2 Zr3 3.208766 1_555
Al3 Zr5 2.884694 1_555
Al3 Zr1 2.884694 1_455
Al3 Zr7 2.885517 1_456
Al3 Zr8 2.885517 1_455
Al3 Zr9 2.885519 1_555
Al3 Zr6 2.885519 1_556
Al3 Zr3 3.080619 1_555
Al3 Zr2 3.208766 1_555
Al3 Zr2 3.208766 1_556
Al4 Zr0 2.884694 1_555
Al4 Zr2 2.884694 1_555
Al4 Zr7 2.885524 1_555
Al4 Zr6 2.885524 1_555
Al4 Zr8 2.885524 1_555
Al4 Zr9 2.885524 1_555
Al4 Zr4 3.080619 1_555
Al4 Zr5 3.208766 1_555
Al4 Zr5 3.208766 1_554
Al5 Zr3 2.884694 1_655
Al5 Zr1 2.884694 1_565
Al5 Zr7 2.885524 1_556
Al5 Zr8 2.885524 1_555
Al5 Zr9 2.885524 1_555
Al5 Zr6 2.885524 1_556
Al5 Zr5 3.080619 1_555
Al5 Zr4 3.208766 1_555
Al5 Zr4 3.208766 1_556
N0 Zr1 2.325995 1_454
N0 Zr3 2.325995 1_544
N0 Zr0 2.325995 1_555
N0 Zr2 2.325995 1_555
N0 Zr4 2.325995 1_445
N0 Zr5 2.325995 1_554
N1 Zr1 2.325995 1_455
N1 Zr3 2.325995 1_545
N1 Zr0 2.325995 1_555
N1 Zr2 2.325995 1_555
N1 Zr4 2.325995 1_445
N1 Zr5 2.325995 1_555
