# generated using pymatgen
data_Tb6H44N8O51
_symmetry_space_group_name_H-M   'P 1'
_cell_length_a   11.61781000
_cell_length_b   11.80023003
_cell_length_c   16.75211680
_cell_angle_alpha   91.22565928
_cell_angle_beta   90.60106186
_cell_angle_gamma   112.55733121
_symmetry_Int_Tables_number   1
_chemical_formula_structural   Tb6H44N8O51
_chemical_formula_sum   'Tb12 H88 N16 O102'
_cell_volume   2119.97672900
_cell_formula_units_Z   2
loop_
 _symmetry_equiv_pos_site_id
 _symmetry_equiv_pos_as_xyz
  1  'x, y, z'
loop_
 _atom_site_type_symbol
 _atom_site_label
 _atom_site_symmetry_multiplicity
 _atom_site_fract_x
 _atom_site_fract_y
 _atom_site_fract_z
 _atom_site_occupancy
  Tb  Tb0  1  0.80097400  0.97708100  0.06767700  1
  Tb  Tb1  1  0.19902600  0.02291900  0.93232300  1
  Tb  Tb2  1  0.87776200  0.89606700  0.87746800  1
  Tb  Tb3  1  0.12223800  0.10393300  0.12253200  1
  Tb  Tb4  1  0.98201500  0.79438000  0.04957600  1
  Tb  Tb5  1  0.01798500  0.20562000  0.95042400  1
  Tb  Tb6  1  0.29280000  0.98491000  0.55105300  1
  Tb  Tb7  1  0.70720000  0.01509000  0.44894700  1
  Tb  Tb8  1  0.39277200  0.87460000  0.37762600  1
  Tb  Tb9  1  0.60722800  0.12540000  0.62237400  1
  Tb  Tb10  1  0.47618800  0.80609700  0.56833200  1
  Tb  Tb11  1  0.52381200  0.19390300  0.43166800  1
  H  H0  1  0.72409300  0.72518500  0.99636000  1
  H  H1  1  0.27590700  0.27481500  0.00364000  1
  H  H2  1  0.74519800  0.06333100  0.91600800  1
  H  H3  1  0.25480200  0.93666900  0.08399200  1
  H  H4  1  0.04507200  0.76665200  0.87640100  1
  H  H5  1  0.95492800  0.23334800  0.12359900  1
  H  H6  1  0.92335700  0.89227200  0.19979300  1
  H  H7  1  0.07664300  0.10772800  0.80020700  1
  H  H8  1  0.67637900  0.83289800  0.21089800  1
  H  H9  1  0.32362100  0.16710200  0.78910200  1
  H  H10  1  0.59338500  0.74611100  0.14040900  1
  H  H11  1  0.40661500  0.25388900  0.85959100  1
  H  H12  1  0.51224600  0.87516800  0.04171900  1
  H  H13  1  0.48775400  0.12483200  0.95828100  1
  H  H14  1  0.57574100  0.86677600  0.95723600  1
  H  H15  1  0.42425900  0.13322400  0.04276400  1
  H  H16  1  0.62527200  0.87518800  0.81337400  1
  H  H17  1  0.37472800  0.12481200  0.18662600  1
  H  H18  1  0.59099000  0.74204900  0.84815300  1
  H  H19  1  0.40901000  0.25795100  0.15184700  1
  H  H20  1  0.80295200  0.62100600  0.87407400  1
  H  H21  1  0.19704800  0.37899400  0.12592600  1
  H  H22  1  0.74354100  0.64601400  0.79050900  1
  H  H23  1  0.25645900  0.35398600  0.20949100  1
  H  H24  1  0.82271300  0.52761200  0.00158400  1
  H  H25  1  0.17728700  0.47238800  0.99841600  1
  H  H26  1  0.94463300  0.57137600  0.94739200  1
  H  H27  1  0.05536700  0.42862400  0.05260800  1
  H  H28  1  0.76233800  0.68784300  0.15468900  1
  H  H29  1  0.23766200  0.31215700  0.84531100  1
  H  H30  1  0.82145300  0.58481900  0.15811200  1
  H  H31  1  0.17854700  0.41518100  0.84188800  1
  H  H32  1  0.51381800  0.52081100  0.86865400  1
  H  H33  1  0.48618200  0.47918900  0.13134600  1
  H  H34  1  0.43290000  0.55165700  0.80528100  1
  H  H35  1  0.56710000  0.44834300  0.19471900  1
  H  H36  1  0.40761100  0.61813700  0.05915300  1
  H  H37  1  0.59238900  0.38186300  0.94084700  1
  H  H38  1  0.39628700  0.63332000  0.15096900  1
  H  H39  1  0.60371300  0.36668000  0.84903100  1
  H  H40  1  0.70180300  0.32715400  0.03454800  1
  H  H41  1  0.29819700  0.67284600  0.96545200  1
  H  H42  1  0.62571500  0.40109900  0.07295900  1
  H  H43  1  0.37428500  0.59890100  0.92704100  1
  H  H44  1  0.22277700  0.72513800  0.50033900  1
  H  H45  1  0.77722300  0.27486200  0.49966100  1
  H  H46  1  0.25987900  0.04084100  0.38073600  1
  H  H47  1  0.74012100  0.95915900  0.61926400  1
  H  H48  1  0.56475400  0.74540000  0.41952400  1
  H  H49  1  0.43524600  0.25460000  0.58047600  1
  H  H50  1  0.39211800  0.93212000  0.70019300  1
  H  H51  1  0.60788200  0.06788000  0.29980700  1
  H  H52  1  0.09075100  0.84197500  0.67172300  1
  H  H53  1  0.90924900  0.15802500  0.32827700  1
  H  H54  1  0.17717900  0.76757700  0.65181000  1
  H  H55  1  0.82282100  0.23242300  0.34819000  1
  H  H56  1  0.04809900  0.93031400  0.45210600  1
  H  H57  1  0.95190100  0.06968600  0.54789400  1
  H  H58  1  0.01771400  0.81366200  0.50441600  1
  H  H59  1  0.98228600  0.18633800  0.49558400  1
  H  H60  1  0.13670400  0.76835100  0.28486300  1
  H  H61  1  0.86329600  0.23164900  0.71513700  1
  H  H62  1  0.11450400  0.80171100  0.37518400  1
  H  H63  1  0.88549600  0.19828900  0.62481600  1
  H  H64  1  0.24130200  0.59315000  0.34817000  1
  H  H65  1  0.75869800  0.40685000  0.65183000  1
  H  H66  1  0.38742500  0.62588200  0.32915700  1
  H  H67  1  0.61257500  0.37411800  0.67084300  1
  H  H68  1  0.37956500  0.51978200  0.54183800  1
  H  H69  1  0.62043500  0.48021800  0.45816200  1
  H  H70  1  0.36124200  0.58766700  0.46229000  1
  H  H71  1  0.63875800  0.41233300  0.53771000  1
  H  H72  1  0.30133400  0.69235800  0.71209600  1
  H  H73  1  0.69866600  0.30764200  0.28790400  1
  H  H74  1  0.24492700  0.60156500  0.63911000  1
  H  H75  1  0.75507300  0.39843500  0.36089000  1
  H  H76  1  0.81428300  0.69247300  0.53785800  1
  H  H77  1  0.18571700  0.30752700  0.46214200  1
  H  H78  1  0.89754200  0.62629100  0.57346500  1
  H  H79  1  0.10245800  0.37370900  0.42653500  1
  H  H80  1  0.88327600  0.59391400  0.43534800  1
  H  H81  1  0.11672400  0.40608600  0.56465200  1
  H  H82  1  0.86511100  0.59035900  0.34195700  1
  H  H83  1  0.13488900  0.40964100  0.65804300  1
  H  H84  1  0.05367200  0.42786100  0.30015500  1
  H  H85  1  0.94632800  0.57213900  0.69984500  1
  H  H86  1  0.01997500  0.50881300  0.36312500  1
  H  H87  1  0.98002500  0.49118700  0.63687500  1
  N  N0  1  0.68140800  0.13293700  0.14539600  1
  N  N1  1  0.31859200  0.86706300  0.85460400  1
  N  N2  1  0.91030300  0.90841000  0.70062800  1
  N  N3  1  0.08969700  0.09159000  0.29937200  1
  N  N4  1  0.13791700  0.68671300  0.13505200  1
  N  N5  1  0.86208300  0.31328700  0.86494800  1
  N  N6  1  0.17832800  0.12827900  0.64379700  1
  N  N7  1  0.82167200  0.87172100  0.35620300  1
  N  N8  1  0.40546300  0.89847300  0.20154200  1
  N  N9  1  0.59453700  0.10152700  0.79845800  1
  N  N10  1  0.63562200  0.69106300  0.64407400  1
  N  N11  1  0.36437800  0.30893700  0.35592600  1
  N  N12  1  0.90365500  0.41780900  0.17336800  1
  N  N13  1  0.09634500  0.58219100  0.82663200  1
  N  N14  1  0.41007500  0.41351100  0.67937300  1
  N  N15  1  0.58992500  0.58648900  0.32062700  1
  O  O0  1  0.00000000  0.00000000  0.00000000  1
  O  O1  1  0.79624300  0.80202500  0.99695100  1
  O  O2  1  0.20375700  0.19797500  0.00304900  1
  O  O3  1  0.81686100  0.04722400  0.93614400  1
  O  O4  1  0.18313900  0.95277600  0.06385600  1
  O  O5  1  0.03690600  0.82964000  0.91312400  1
  O  O6  1  0.96309400  0.17036000  0.08687600  1
  O  O7  1  0.94524700  0.92543200  0.14653600  1
  O  O8  1  0.05475300  0.07456800  0.85346400  1
  O  O9  1  0.67962500  0.80345700  0.15605100  1
  O  O10  1  0.32037500  0.19654300  0.84394900  1
  O  O11  1  0.58952200  0.88409100  0.01498500  1
  O  O12  1  0.41047800  0.11590900  0.98501500  1
  O  O13  1  0.64303700  0.83104400  0.85763000  1
  O  O14  1  0.35696300  0.16895600  0.14237000  1
  O  O15  1  0.78256200  0.68031500  0.84236000  1
  O  O16  1  0.21743800  0.31968500  0.15764000  1
  O  O17  1  0.88151300  0.59793100  0.97232300  1
  O  O18  1  0.11848700  0.40206900  0.02767700  1
  O  O19  1  0.81594300  0.65326100  0.12686500  1
  O  O20  1  0.18405700  0.34673900  0.87313500  1
  O  O21  1  0.48049600  0.58431100  0.85557000  1
  O  O22  1  0.51950400  0.41568900  0.14443000  1
  O  O23  1  0.45061400  0.61843200  0.11155900  1
  O  O24  1  0.54938600  0.38156800  0.88844100  1
  O  O25  1  0.67610900  0.39626300  0.02624300  1
  O  O26  1  0.32389100  0.60373700  0.97375700  1
  O  O27  1  0.70466100  0.14600000  0.07119500  1
  O  O28  1  0.29533900  0.85400000  0.92880500  1
  O  O29  1  0.71259100  0.05362300  0.18168800  1
  O  O30  1  0.28740900  0.94637700  0.81831200  1
  O  O31  1  0.63001600  0.19328800  0.18184800  1
  O  O32  1  0.36998400  0.80671200  0.81815200  1
  O  O33  1  0.97793700  0.86663600  0.74168000  1
  O  O34  1  0.02206300  0.13336400  0.25832000  1
  O  O35  1  0.83140300  0.93990200  0.73847500  1
  O  O36  1  0.16859700  0.06009800  0.26152500  1
  O  O37  1  0.91982900  0.91799400  0.62688300  1
  O  O38  1  0.08017100  0.08200600  0.37311700  1
  O  O39  1  0.08115000  0.74409600  0.17480900  1
  O  O40  1  0.91885000  0.25590400  0.82519100  1
  O  O41  1  0.12805300  0.68639300  0.05901500  1
  O  O42  1  0.87194700  0.31360700  0.94098500  1
  O  O43  1  0.19813800  0.63463000  0.16961100  1
  O  O44  1  0.80186200  0.36537000  0.83038900  1
  O  O45  1  0.50000000  0.00000000  0.50000000  1
  O  O46  1  0.29679900  0.80009100  0.49869400  1
  O  O47  1  0.70320100  0.19990900  0.50130600  1
  O  O48  1  0.32587500  0.03367500  0.41433300  1
  O  O49  1  0.67412500  0.96632500  0.58566700  1
  O  O50  1  0.54773500  0.81783000  0.43714600  1
  O  O51  1  0.45226500  0.18217000  0.56285400  1
  O  O52  1  0.42588700  0.95035400  0.64669600  1
  O  O53  1  0.57411300  0.04964600  0.35330400  1
  O  O54  1  0.14684300  0.82924900  0.63188500  1
  O  O55  1  0.85315700  0.17075100  0.36811500  1
  O  O56  1  0.08617400  0.87780000  0.47577100  1
  O  O57  1  0.91382600  0.12220000  0.52422900  1
  O  O58  1  0.17193200  0.78265500  0.33969000  1
  O  O59  1  0.82806800  0.21734500  0.66031000  1
  O  O60  1  0.32852600  0.64679500  0.36364400  1
  O  O61  1  0.67147400  0.35320500  0.63635600  1
  O  O62  1  0.37521400  0.59533800  0.52070700  1
  O  O63  1  0.62478600  0.40466200  0.47929300  1
  O  O64  1  0.29176700  0.68944000  0.65390700  1
  O  O65  1  0.70823300  0.31056000  0.34609300  1
  O  O66  1  0.88731100  0.67251300  0.52672600  1
  O  O67  1  0.11268900  0.32748700  0.47327400  1
  O  O68  1  0.89092600  0.55046900  0.38504400  1
  O  O69  1  0.10907400  0.44953100  0.61495600  1
  O  O70  1  0.08437400  0.47501400  0.35038600  1
  O  O71  1  0.91562600  0.52498600  0.64961400  1
  O  O72  1  0.16508200  0.11123800  0.56791700  1
  O  O73  1  0.83491800  0.88876200  0.43208300  1
  O  O74  1  0.25558400  0.09078700  0.67842100  1
  O  O75  1  0.74441600  0.90921300  0.32157900  1
  O  O76  1  0.11750500  0.17722900  0.68238400  1
  O  O77  1  0.88249500  0.82277100  0.31761600  1
  O  O78  1  0.44828000  0.82904300  0.23859500  1
  O  O79  1  0.55172000  0.17095700  0.76140500  1
  O  O80  1  0.36262500  0.96431300  0.24379600  1
  O  O81  1  0.63737500  0.03568700  0.75620400  1
  O  O82  1  0.40377900  0.90157700  0.12689500  1
  O  O83  1  0.59622100  0.09842300  0.87310500  1
  O  O84  1  0.55655200  0.72377600  0.68092000  1
  O  O85  1  0.44344800  0.27622400  0.31908000  1
  O  O86  1  0.64538500  0.70854600  0.56906400  1
  O  O87  1  0.35461500  0.29145400  0.43093600  1
  O  O88  1  0.70048000  0.64387100  0.67957000  1
  O  O89  1  0.29952000  0.35612900  0.32043000  1
  O  O90  1  0.83768400  0.46358200  0.21179000  1
  O  O91  1  0.16231600  0.53641800  0.78821000  1
  O  O92  1  0.93508300  0.45107100  0.10304000  1
  O  O93  1  0.06491700  0.54892900  0.89696000  1
  O  O94  1  0.93697700  0.33796200  0.20572300  1
  O  O95  1  0.06302300  0.66203800  0.79427700  1
  O  O96  1  0.34104800  0.45846900  0.71438500  1
  O  O97  1  0.65895200  0.54153100  0.28561500  1
  O  O98  1  0.40037500  0.39430400  0.60364900  1
  O  O99  1  0.59962500  0.60569600  0.39635100  1
  O  O100  1  0.48887400  0.38647600  0.71923200  1
  O  O101  1  0.51112600  0.61352400  0.28076800  1
loop_
_geom_bond_atom_site_label_1
_geom_bond_atom_site_label_2
_geom_bond_distance
_geom_bond_site_symmetry_2
H0 O1 0.970156 1_555
H1 O2 0.970156 1_555
H2 O3 0.980477 1_555
H3 O4 0.980477 1_555
H4 O5 0.987762 1_555
H5 O6 0.987762 1_555
H6 O7 0.978314 1_555
H7 O8 0.978314 1_555
H8 O9 0.981549 1_555
H9 O10 0.981549 1_555
H10 O9 0.998580 1_555
H11 O10 0.998580 1_555
H12 O11 0.977543 1_555
H13 O12 0.977543 1_555
H14 O11 0.983094 1_556
H15 O12 0.983094 1_554
H16 O13 0.979482 1_555
H17 O14 0.979482 1_555
H18 O13 0.998670 1_555
H19 O14 0.998670 1_555
H20 O15 0.984193 1_555
H21 O16 0.984193 1_555
H22 O15 0.979671 1_555
H23 O16 0.979671 1_555
H24 O17 0.992478 1_554
H25 O18 0.992478 1_556
H26 O17 0.993729 1_555
H27 O18 0.993729 1_555
H28 O19 0.982122 1_555
H29 O20 0.982122 1_555
H30 O19 0.993689 1_555
H31 O20 0.993689 1_555
H32 O21 0.993571 1_555
H33 O22 0.993571 1_555
H34 O21 0.988346 1_555
H35 O22 0.988346 1_555
H36 O23 1.004825 1_555
H37 O24 1.004825 1_555
H38 O23 0.976701 1_555
H39 O24 0.976701 1_555
H40 O25 0.981965 1_555
H41 O26 0.981965 1_555
H42 O25 0.995899 1_555
H43 O26 0.995899 1_555
H44 O46 0.969831 1_555
H45 O47 0.969831 1_555
H46 O48 0.976993 1_555
H47 O49 0.976993 1_555
H48 O50 0.988343 1_555
H49 O51 0.988343 1_555
H50 O52 0.976846 1_555
H51 O53 0.976846 1_555
H52 O54 0.986165 1_555
H53 O55 0.986165 1_555
H54 O54 0.984855 1_555
H55 O55 0.984855 1_555
H56 O56 0.976714 1_555
H57 O57 0.976714 1_555
H58 O56 0.998691 1_555
H59 O57 0.998691 1_555
H60 O58 0.985930 1_555
H61 O59 0.985930 1_555
H62 O58 0.983341 1_555
H63 O59 0.983341 1_555
H64 O60 0.995046 1_555
H65 O61 0.995046 1_555
H66 O60 0.997325 1_555
H66 O101 1.709940 1_555
H67 O61 0.997325 1_555
H67 O100 1.709940 1_555
H68 O62 0.985129 1_555
H69 O63 0.985129 1_555
H70 O62 0.986824 1_555
H71 O63 0.986824 1_555
H72 O64 0.978319 1_555
H73 O65 0.978319 1_555
H74 O64 0.993014 1_555
H75 O65 0.993014 1_555
H76 O66 0.982259 1_555
H77 O67 0.982259 1_555
H78 O66 0.995355 1_555
H79 O67 0.995355 1_555
H80 O68 0.999454 1_555
H81 O69 0.999454 1_555
H82 O68 0.975097 1_555
H83 O69 0.975097 1_555
H84 O70 0.983012 1_555
H85 O71 0.983012 1_555
H86 O70 0.996506 1_555
H87 O71 0.996506 1_555
N0 O31 1.245715 1_555
N0 O27 1.274811 1_555
N0 O29 1.287121 1_555
N1 O32 1.245715 1_555
N1 O28 1.274811 1_555
N1 O30 1.287121 1_555
N2 O37 1.245173 1_555
N2 O33 1.278157 1_555
N2 O35 1.282095 1_555
N3 O38 1.245173 1_555
N3 O34 1.278157 1_555
N3 O36 1.282095 1_555
N4 O43 1.240564 1_555
N4 O41 1.277523 1_555
N4 O39 1.292121 1_555
N5 O44 1.240564 1_555
N5 O42 1.277523 1_555
N5 O40 1.292121 1_555
N6 O76 1.248032 1_555
N6 O72 1.281078 1_555
N6 O74 1.281583 1_555
N7 O77 1.248032 1_555
N7 O73 1.281078 1_555
N7 O75 1.281583 1_555
N8 O82 1.251982 1_555
N8 O78 1.277468 1_555
N8 O80 1.277837 1_555
N9 O83 1.251982 1_555
N9 O79 1.277468 1_555
N9 O81 1.277837 1_555
N10 O88 1.248267 1_555
N10 O86 1.276925 1_555
N10 O84 1.283602 1_555
N11 O89 1.248267 1_555
N11 O87 1.276925 1_555
N11 O85 1.283602 1_555
N12 O92 1.262636 1_555
N12 O90 1.267495 1_555
N12 O94 1.276208 1_555
N13 O93 1.262636 1_555
N13 O91 1.267495 1_555
N13 O95 1.276208 1_555
N14 O96 1.261559 1_555
N14 O100 1.267309 1_555
N14 O98 1.279985 1_555
N15 O97 1.261559 1_555
N15 O101 1.267309 1_555
N15 O99 1.279985 1_555
O0 Tb2 2.495850 1_444
O0 Tb3 2.495850 1_555
O0 Tb1 2.508649 1_554
O0 Tb0 2.508649 1_445
O0 Tb5 2.514263 1_554
O0 Tb4 2.514263 1_445
O1 Tb2 2.337362 1_555
O1 Tb0 2.341098 1_556
O1 Tb4 2.357178 1_556
O2 Tb3 2.337362 1_555
O2 Tb1 2.341098 1_554
O2 Tb5 2.357178 1_554
O3 Tb0 2.354512 1_546
O3 Tb2 2.357151 1_545
O3 Tb5 2.372551 1_655
O4 Tb1 2.354512 1_564
O4 Tb3 2.357151 1_565
O4 Tb4 2.372551 1_455
O5 Tb2 2.344871 1_455
O5 Tb1 2.347949 1_565
O5 Tb4 2.381733 1_456
O6 Tb3 2.344871 1_655
O6 Tb0 2.347949 1_545
O6 Tb5 2.381733 1_654
O7 Tb3 2.357373 1_665
O7 Tb4 2.371955 1_555
O7 Tb0 2.387009 1_555
O8 Tb2 2.357373 1_445
O8 Tb5 2.371955 1_555
O8 Tb1 2.387009 1_555
O9 Tb0 2.516824 1_555
O10 Tb1 2.516824 1_555
O11 Tb0 2.421383 1_555
O12 Tb1 2.421383 1_555
O13 Tb2 2.549592 1_555
O14 Tb3 2.549592 1_555
O15 Tb2 2.410984 1_555
O16 Tb3 2.410984 1_555
O17 Tb4 2.485010 1_556
O18 Tb5 2.485010 1_554
O19 Tb4 2.419013 1_555
O20 Tb5 2.419013 1_555
O27 Tb0 2.633672 1_545
O28 Tb1 2.633672 1_565
O29 Tb0 2.489348 1_545
O30 Tb1 2.489348 1_565
O33 Tb2 2.642223 1_555
O34 Tb3 2.642223 1_555
O35 Tb2 2.493625 1_555
O36 Tb3 2.493625 1_555
O39 Tb4 2.570349 1_455
O40 Tb5 2.570349 1_655
O41 Tb4 2.487782 1_455
O42 Tb5 2.487782 1_655
O45 Tb11 2.501068 1_555
O45 Tb10 2.501068 1_545
O45 Tb6 2.505726 1_545
O45 Tb7 2.505726 1_555
O45 Tb8 2.519229 1_545
O45 Tb9 2.519229 1_555
O46 Tb8 2.345470 1_555
O46 Tb6 2.350450 1_555
O46 Tb10 2.354055 1_555
O47 Tb9 2.345470 1_555
O47 Tb7 2.350450 1_555
O47 Tb11 2.354055 1_555
O48 Tb11 2.360939 1_555
O48 Tb8 2.363404 1_545
O48 Tb6 2.372696 1_545
O49 Tb10 2.360939 1_555
O49 Tb9 2.363404 1_565
O49 Tb7 2.372696 1_565
O50 Tb10 2.345800 1_555
O50 Tb7 2.356623 1_565
O50 Tb8 2.366504 1_555
O51 Tb11 2.345800 1_555
O51 Tb6 2.356623 1_545
O51 Tb9 2.366504 1_555
O52 Tb6 2.362997 1_555
O52 Tb9 2.363574 1_565
O52 Tb10 2.376189 1_555
O53 Tb7 2.362997 1_555
O53 Tb8 2.363574 1_545
O53 Tb11 2.376189 1_555
O54 Tb6 2.418241 1_555
O55 Tb7 2.418241 1_555
O56 Tb6 2.547752 1_555
O57 Tb7 2.547752 1_555
O58 Tb8 2.442200 1_555
O59 Tb9 2.442200 1_555
O60 Tb8 2.503630 1_555
O61 Tb9 2.503630 1_555
O62 Tb10 2.419710 1_555
O63 Tb11 2.419710 1_555
O64 Tb10 2.535093 1_555
O65 Tb11 2.535093 1_555
O72 Tb6 2.488263 1_545
O73 Tb7 2.488263 1_565
O74 Tb6 2.572982 1_545
O75 Tb7 2.572982 1_565
O78 Tb8 2.524545 1_555
O79 Tb9 2.524545 1_555
O80 Tb8 2.576660 1_555
O81 Tb9 2.576660 1_555
O84 Tb10 2.471828 1_555
O85 Tb11 2.471828 1_555
O86 Tb10 2.631603 1_555
O87 Tb11 2.631603 1_555
