# generated using pymatgen
data_Pr(CdP)3
_symmetry_space_group_name_H-M   'P 1'
_cell_length_a   4.29794105
_cell_length_b   4.29794079
_cell_length_c   21.16784613
_cell_angle_alpha   90.00000000
_cell_angle_beta   90.00000000
_cell_angle_gamma   119.99999426
_symmetry_Int_Tables_number   1
_chemical_formula_structural   Pr(CdP)3
_chemical_formula_sum   'Pr2 Cd6 P6'
_cell_volume   338.63216641
_cell_formula_units_Z   2
loop_
 _symmetry_equiv_pos_site_id
 _symmetry_equiv_pos_as_xyz
  1  'x, y, z'
loop_
 _atom_site_type_symbol
 _atom_site_label
 _atom_site_symmetry_multiplicity
 _atom_site_fract_x
 _atom_site_fract_y
 _atom_site_fract_z
 _atom_site_occupancy
  Pr  Pr0  1  0.00000000  0.00000000  0.50000000  1
  Pr  Pr1  1  0.00000000  0.00000000  0.00000000  1
  Cd  Cd0  1  0.33333300  0.66666700  0.75000000  1
  Cd  Cd1  1  0.66666700  0.33333300  0.25000000  1
  Cd  Cd2  1  0.66666700  0.33333300  0.62736908  1
  Cd  Cd3  1  0.33333300  0.66666700  0.12736908  1
  Cd  Cd4  1  0.33333300  0.66666700  0.37263092  1
  Cd  Cd5  1  0.66666700  0.33333300  0.87263092  1
  P  P0  1  0.66666700  0.33333300  0.75000000  1
  P  P1  1  0.33333300  0.66666700  0.25000000  1
  P  P2  1  0.66666700  0.33333300  0.07874048  1
  P  P3  1  0.33333300  0.66666700  0.57874048  1
  P  P4  1  0.33333300  0.66666700  0.92125952  1
  P  P5  1  0.66666700  0.33333300  0.42125952  1
loop_
_geom_bond_atom_site_label_1
_geom_bond_atom_site_label_2
_geom_bond_distance
_geom_bond_site_symmetry_2
Cd0 P0 2.481415 1_565
Cd0 P0 2.481415 1_455
Cd0 P0 2.481422 1_555
Cd1 P1 2.481415 1_545
Cd1 P1 2.481415 1_655
Cd1 P1 2.481422 1_555
Cd2 P0 2.595832 1_555
Cd2 P3 2.686449 1_545
Cd2 P3 2.686449 1_655
Cd2 P3 2.686456 1_555
Cd3 P1 2.595832 1_555
Cd3 P2 2.686449 1_565
Cd3 P2 2.686449 1_455
Cd3 P2 2.686456 1_555
Cd4 P1 2.595832 1_555
Cd4 P5 2.686449 1_565
Cd4 P5 2.686449 1_455
Cd4 P5 2.686456 1_555
Cd5 P0 2.595832 1_555
Cd5 P4 2.686449 1_545
Cd5 P4 2.686449 1_655
Cd5 P4 2.686456 1_555
P2 Pr1 2.989236 1_655
P2 Pr1 2.989239 1_665
P2 Pr1 2.989239 1_555
P3 Pr0 2.989236 1_565
P3 Pr0 2.989239 1_555
P3 Pr0 2.989239 1_665
P4 Pr1 2.989236 1_566
P4 Pr1 2.989239 1_556
P4 Pr1 2.989239 1_666
P5 Pr0 2.989236 1_655
P5 Pr0 2.989239 1_665
P5 Pr0 2.989239 1_555
