# generated using pymatgen
data_Sm(SiIr)2
_symmetry_space_group_name_H-M   'P 1'
_cell_length_a   4.15610495
_cell_length_b   4.15611514
_cell_length_c   9.81186973
_cell_angle_alpha   90.00000000
_cell_angle_beta   90.00000000
_cell_angle_gamma   90.00000000
_symmetry_Int_Tables_number   1
_chemical_formula_structural   Sm(SiIr)2
_chemical_formula_sum   'Sm2 Si4 Ir4'
_cell_volume   169.48288574
_cell_formula_units_Z   2
loop_
 _symmetry_equiv_pos_site_id
 _symmetry_equiv_pos_as_xyz
  1  'x, y, z'
loop_
 _atom_site_type_symbol
 _atom_site_label
 _atom_site_symmetry_multiplicity
 _atom_site_fract_x
 _atom_site_fract_y
 _atom_site_fract_z
 _atom_site_occupancy
  Sm  Sm0  1  0.75000000  0.75000000  0.25529129  1
  Sm  Sm1  1  0.25000000  0.25000000  0.74470871  1
  Si  Si0  1  0.75000000  0.25000000  0.50000000  1
  Si  Si1  1  0.25000000  0.75000000  0.50000000  1
  Si  Si2  1  0.75000000  0.75000000  0.87001622  1
  Si  Si3  1  0.25000000  0.25000000  0.12998378  1
  Ir  Ir0  1  0.75000000  0.25000000  -0.00000000  1
  Ir  Ir1  1  0.25000000  0.75000000  -0.00000000  1
  Ir  Ir2  1  0.75000000  0.75000000  0.62702225  1
  Ir  Ir3  1  0.25000000  0.25000000  0.37297775  1
loop_
_geom_bond_atom_site_label_1
_geom_bond_atom_site_label_2
_geom_bond_distance
_geom_bond_site_symmetry_2
Si0 Sm1 3.175428 1_655
Si0 Sm1 3.175428 1_555
Si0 Sm0 3.175431 1_555
Si0 Sm0 3.175431 1_545
Si1 Sm0 3.175428 1_555
Si1 Sm0 3.175428 1_455
Si1 Sm1 3.175431 1_555
Si1 Sm1 3.175431 1_565
Si2 Sm1 3.185639 1_565
Si2 Sm1 3.185639 1_655
Si2 Sm1 3.185639 1_665
Si2 Sm1 3.185639 1_555
Si3 Sm0 3.185639 1_445
Si3 Sm0 3.185639 1_545
Si3 Sm0 3.185639 1_455
Si3 Sm0 3.185639 1_555
Ir0 Si3 2.438218 1_555
Ir0 Si3 2.438218 1_655
Ir0 Si2 2.438222 1_554
Ir0 Si2 2.438222 1_544
Ir0 Sm1 3.254651 1_554
Ir0 Sm1 3.254651 1_654
Ir0 Sm0 3.254654 1_555
Ir0 Sm0 3.254654 1_545
Ir1 Si2 2.438218 1_554
Ir1 Si2 2.438218 1_454
Ir1 Si3 2.438222 1_565
Ir1 Si3 2.438222 1_555
Ir1 Sm0 3.254651 1_455
Ir1 Sm0 3.254651 1_555
Ir1 Sm1 3.254654 1_554
Ir1 Sm1 3.254654 1_564
Ir2 Si2 2.384225 1_555
Ir2 Si1 2.423145 1_555
Ir2 Si1 2.423145 1_655
Ir2 Si0 2.423149 1_565
Ir2 Si0 2.423149 1_555
Ir2 Sm1 3.157533 1_655
Ir2 Sm1 3.157533 1_565
Ir2 Sm1 3.157533 1_665
Ir2 Sm1 3.157533 1_555
Ir3 Si3 2.384225 1_555
Ir3 Si0 2.423145 1_455
Ir3 Si0 2.423145 1_555
Ir3 Si1 2.423149 1_555
Ir3 Si1 2.423149 1_545
Ir3 Sm0 3.157533 1_455
Ir3 Sm0 3.157533 1_555
Ir3 Sm0 3.157533 1_445
Ir3 Sm0 3.157533 1_545
