# generated using pymatgen
data_Te4Mo3W(SeS)2
_symmetry_space_group_name_H-M   'P 1'
_cell_length_a   3.39863367
_cell_length_b   3.39863367
_cell_length_c   40.40518000
_cell_angle_alpha   90.00000000
_cell_angle_beta   90.00000000
_cell_angle_gamma   119.99999356
_symmetry_Int_Tables_number   1
_chemical_formula_structural   Te4Mo3W(SeS)2
_chemical_formula_sum   'Te4 Mo3 W1 Se2 S2'
_cell_volume   404.18148641
_cell_formula_units_Z   1
loop_
 _symmetry_equiv_pos_site_id
 _symmetry_equiv_pos_as_xyz
  1  'x, y, z'
loop_
 _atom_site_type_symbol
 _atom_site_label
 _atom_site_symmetry_multiplicity
 _atom_site_fract_x
 _atom_site_fract_y
 _atom_site_fract_z
 _atom_site_occupancy
  Te  Te0  1  0.00000000  0.00000000  0.32696400  1
  Te  Te1  1  0.33333300  0.66666700  0.42486800  1
  Te  Te2  1  0.33333300  0.66666700  0.51759000  1
  Te  Te3  1  0.00000000  0.00000000  0.23418400  1
  Mo  Mo0  1  0.00000000  0.00000000  0.09350300  1
  Mo  Mo1  1  0.00000000  0.00000000  0.47124200  1
  Mo  Mo2  1  0.33333300  0.66666700  0.28056400  1
  W  W0  1  0.33333300  0.66666700  0.65759200  1
  Se  Se0  1  0.33333300  0.66666700  0.05266700  1
  Se  Se1  1  0.33333300  0.66666700  0.13435200  1
  S  S0  1  0.00000000  0.00000000  0.69483000  1
  S  S1  1  0.00000000  0.00000000  0.62039100  1
loop_
_geom_bond_atom_site_label_1
_geom_bond_atom_site_label_2
_geom_bond_distance
_geom_bond_site_symmetry_2
Mo0 Se0 2.563724 1_545
Mo0 Se0 2.563727 1_445
Mo0 Se0 2.563727 1_555
Mo0 Se1 2.564062 1_545
Mo0 Se1 2.564065 1_445
Mo0 Se1 2.564065 1_555
Mo1 Te2 2.712422 1_545
Mo1 Te2 2.712424 1_555
Mo1 Te2 2.712424 1_445
Mo1 Te1 2.713147 1_545
Mo1 Te1 2.713149 1_445
Mo1 Te1 2.713149 1_555
Mo2 Te3 2.713315 1_565
Mo2 Te3 2.713317 1_665
Mo2 Te3 2.713317 1_555
Mo2 Te0 2.713873 1_565
Mo2 Te0 2.713875 1_665
Mo2 Te0 2.713875 1_555
S0 W0 2.472665 1_545
S0 W0 2.472668 1_445
S0 W0 2.472668 1_555
S1 W0 2.471756 1_545
S1 W0 2.471759 1_555
S1 W0 2.471759 1_445
