# generated using pymatgen
data_Yb3Ga9Pt2
_symmetry_space_group_name_H-M   'P 1'
_cell_length_a   8.15825496
_cell_length_b   8.15825496
_cell_length_c   8.15825496
_cell_angle_alpha   149.44334390
_cell_angle_beta   106.91890144
_cell_angle_gamma   81.24876497
_symmetry_Int_Tables_number   1
_chemical_formula_structural   Yb3Ga9Pt2
_chemical_formula_sum   'Yb3 Ga9 Pt2'
_cell_volume   258.63488634
_cell_formula_units_Z   1
loop_
 _symmetry_equiv_pos_site_id
 _symmetry_equiv_pos_as_xyz
  1  'x, y, z'
loop_
 _atom_site_type_symbol
 _atom_site_label
 _atom_site_symmetry_multiplicity
 _atom_site_fract_x
 _atom_site_fract_y
 _atom_site_fract_z
 _atom_site_occupancy
  Yb  Yb0  1  0.50000000  0.50000000  0.00000000  1
  Yb  Yb1  1  0.20173300  0.20173300  0.00000000  1
  Yb  Yb2  1  0.79826700  0.79826700  0.00000000  1
  Ga  Ga0  1  0.64368800  0.36359200  0.28009600  1
  Ga  Ga1  1  0.35631200  0.63640800  0.71990400  1
  Ga  Ga2  1  0.08349500  0.36359200  0.71990400  1
  Ga  Ga3  1  0.91650500  0.63640800  0.28009600  1
  Ga  Ga4  1  0.52367200  0.15673200  0.36694000  1
  Ga  Ga5  1  0.47632800  0.84326800  0.63306000  1
  Ga  Ga6  1  0.78979200  0.15673200  0.63306000  1
  Ga  Ga7  1  0.21020800  0.84326800  0.36694000  1
  Ga  Ga8  1  0.00000000  0.50000000  0.50000000  1
  Pt  Pt0  1  0.18182900  0.00000000  0.18182900  1
  Pt  Pt1  1  0.81817100  0.00000000  0.81817100  1
loop_
_geom_bond_atom_site_label_1
_geom_bond_atom_site_label_2
_geom_bond_distance
_geom_bond_site_symmetry_2
Ga0 Ga5 2.593301 1_544
Ga0 Ga5 2.593301 1_555
Ga0 Ga4 2.697128 1_555
Ga0 Ga8 2.723511 1_655
Ga0 Pt1 2.758992 1_554
Ga0 Pt1 2.758992 1_565
Ga0 Yb2 3.136840 1_556
Ga0 Yb2 3.136840 1_545
Ga0 Yb0 3.202787 1_555
Ga0 Yb1 3.379657 1_555
Ga1 Ga4 2.593301 1_555
Ga1 Ga4 2.593301 1_566
Ga1 Ga5 2.697128 1_555
Ga1 Ga8 2.723511 1_555
Ga1 Pt0 2.758992 1_566
Ga1 Pt0 2.758992 1_555
Ga1 Yb1 3.136840 1_555
Ga1 Yb1 3.136840 1_566
Ga1 Yb0 3.202787 1_556
Ga1 Yb2 3.379657 1_556
Ga2 Ga7 2.593301 1_556
Ga2 Ga7 2.593305 1_545
Ga2 Ga6 2.697121 1_455
Ga2 Ga8 2.723511 1_555
Ga2 Pt0 2.758993 1_566
Ga2 Pt0 2.758996 1_555
Ga2 Yb2 3.136833 1_456
Ga2 Yb2 3.136836 1_445
Ga2 Yb0 3.202794 1_556
Ga2 Yb1 3.379657 1_556
Ga3 Ga6 2.593301 1_554
Ga3 Ga6 2.593305 1_565
Ga3 Ga7 2.697121 1_655
Ga3 Ga8 2.723511 1_655
Ga3 Pt1 2.758993 1_554
Ga3 Pt1 2.758996 1_565
Ga3 Yb1 3.136833 1_655
Ga3 Yb1 3.136836 1_666
Ga3 Yb0 3.202794 1_555
Ga3 Yb2 3.379657 1_555
Ga4 Ga6 2.585279 1_555
Ga4 Pt0 2.646002 1_555
Ga4 Yb2 3.060177 1_545
Ga4 Yb2 3.060177 1_556
Ga4 Yb0 3.171728 1_545
Ga4 Yb0 3.171728 1_556
Ga5 Ga7 2.585279 1_555
Ga5 Pt1 2.646002 1_565
Ga5 Yb1 3.060177 1_555
Ga5 Yb1 3.060177 1_566
Ga5 Yb0 3.171728 1_566
Ga5 Yb0 3.171728 1_555
Ga6 Pt1 2.646002 1_555
Ga6 Yb2 3.060177 1_545
Ga6 Yb2 3.060177 1_556
Ga6 Yb0 3.171728 1_545
Ga6 Yb0 3.171728 1_556
Ga7 Pt0 2.646002 1_565
Ga7 Yb1 3.060177 1_555
Ga7 Yb1 3.060177 1_566
Ga7 Yb0 3.171728 1_555
Ga7 Yb0 3.171728 1_566
Ga8 Pt0 2.782396 1_555
Ga8 Pt0 2.782396 1_566
Ga8 Pt1 2.782396 1_465
Ga8 Pt1 2.782396 1_454
Ga8 Yb1 3.295899 1_566
Ga8 Yb1 3.295899 1_555
Ga8 Yb2 3.295899 1_456
Ga8 Yb2 3.295899 1_445
Pt0 Yb1 3.059686 1_555
Pt0 Yb2 3.059686 1_445
Pt1 Yb1 3.059686 1_656
Pt1 Yb2 3.059686 1_546
