# generated using pymatgen
data_Sm4(LuS2)11
_symmetry_space_group_name_H-M   'P 1'
_cell_length_a   19.35067640
_cell_length_b   19.35067640
_cell_length_c   11.17151035
_cell_angle_alpha   88.66842692
_cell_angle_beta   88.66842692
_cell_angle_gamma   11.49094285
_symmetry_Int_Tables_number   1
_chemical_formula_structural   Sm4(LuS2)11
_chemical_formula_sum   'Sm4 Lu11 S22'
_cell_volume   833.11211109
_cell_formula_units_Z   1
loop_
 _symmetry_equiv_pos_site_id
 _symmetry_equiv_pos_as_xyz
  1  'x, y, z'
loop_
 _atom_site_type_symbol
 _atom_site_label
 _atom_site_symmetry_multiplicity
 _atom_site_fract_x
 _atom_site_fract_y
 _atom_site_fract_z
 _atom_site_occupancy
  Sm  Sm0  1  0.10467100  0.10467100  0.98743400  1
  Sm  Sm1  1  0.89532900  0.89532900  0.01256600  1
  Sm  Sm2  1  0.36690200  0.36690200  0.65253200  1
  Sm  Sm3  1  0.63309800  0.63309800  0.34746800  1
  Lu  Lu0  1  0.79782500  0.79782500  0.94162000  1
  Lu  Lu1  1  0.20217500  0.20217500  0.05838000  1
  Lu  Lu2  1  0.46164900  0.46164900  0.72929500  1
  Lu  Lu3  1  0.53835100  0.53835100  0.27070500  1
  Lu  Lu4  1  0.65768700  0.65768700  0.69852200  1
  Lu  Lu5  1  0.34231300  0.34231300  0.30147800  1
  Lu  Lu6  1  0.26361800  0.26361800  0.64804100  1
  Lu  Lu7  1  0.73638200  0.73638200  0.35195900  1
  Lu  Lu8  1  0.06973900  0.06973900  0.63927800  1
  Lu  Lu9  1  0.93026100  0.93026100  0.36072200  1
  Lu  Lu10  1  0.00000000  0.00000000  0.00000000  1
  S  S0  1  0.08784200  0.08784200  0.24673800  1
  S  S1  1  0.91215800  0.91215800  0.75326200  1
  S  S2  1  0.18903000  0.18903000  0.30885300  1
  S  S3  1  0.81097000  0.81097000  0.69114700  1
  S  S4  1  0.28027600  0.28027600  0.41051300  1
  S  S5  1  0.71972400  0.71972400  0.58948700  1
  S  S6  1  0.44493000  0.44493000  0.50635200  1
  S  S7  1  0.55507000  0.55507000  0.49364800  1
  S  S8  1  0.13485200  0.13485200  0.54620900  1
  S  S9  1  0.86514800  0.86514800  0.45379100  1
  S  S10  1  0.59290000  0.59290000  0.78778500  1
  S  S11  1  0.40710000  0.40710000  0.21221500  1
  S  S12  1  0.45290000  0.45290000  0.96912900  1
  S  S13  1  0.54710000  0.54710000  0.03087100  1
  S  S14  1  0.35062200  0.35062200  0.90753700  1
  S  S15  1  0.64937800  0.64937800  0.09246300  1
  S  S16  1  0.16868900  0.16868900  0.84882800  1
  S  S17  1  0.83131100  0.83131100  0.15117200  1
  S  S18  1  0.00787800  0.00787800  0.75974400  1
  S  S19  1  0.99212200  0.99212200  0.24025600  1
  S  S20  1  0.25499900  0.25499900  0.88046000  1
  S  S21  1  0.74500100  0.74500100  0.11954000  1
loop_
_geom_bond_atom_site_label_1
_geom_bond_atom_site_label_2
_geom_bond_distance
_geom_bond_site_symmetry_2
Lu0 S20 2.644177 1_655
Lu0 S20 2.644177 1_565
Lu0 S17 2.698890 1_556
Lu0 S21 2.810580 1_556
Lu0 S14 2.827507 1_565
Lu0 S14 2.827507 1_655
Lu0 S3 2.831918 1_555
Lu1 S21 2.644177 1_455
Lu1 S21 2.644177 1_545
Lu1 S16 2.698890 1_554
Lu1 S20 2.810580 1_554
Lu1 S15 2.827507 1_455
Lu1 S15 2.827507 1_545
Lu1 S2 2.831918 1_555
Lu2 S6 2.586989 1_555
Lu2 S18 2.658114 1_565
Lu2 S18 2.658114 1_655
Lu2 S12 2.692587 1_555
Lu2 S1 2.726245 1_545
Lu2 S1 2.726245 1_455
Lu3 S7 2.586989 1_555
Lu3 S19 2.658114 1_455
Lu3 S19 2.658114 1_545
Lu3 S13 2.692587 1_555
Lu3 S0 2.726245 1_655
Lu3 S0 2.726245 1_565
Lu4 S16 2.604789 1_655
Lu4 S16 2.604789 1_565
Lu4 S5 2.656019 1_555
Lu4 S10 2.664954 1_555
Lu4 S8 2.736984 1_565
Lu4 S8 2.736984 1_655
Lu5 S17 2.604789 1_545
Lu5 S17 2.604789 1_455
Lu5 S4 2.656019 1_555
Lu5 S11 2.664954 1_555
Lu5 S9 2.736984 1_545
Lu5 S9 2.736984 1_455
Lu6 S20 2.609897 1_555
Lu6 S5 2.662533 1_455
Lu6 S5 2.662533 1_545
Lu6 S3 2.711147 1_545
Lu6 S3 2.711147 1_455
Lu6 S4 2.715374 1_555
Lu7 S21 2.609897 1_555
Lu7 S4 2.662533 1_565
Lu7 S4 2.662533 1_655
Lu7 S2 2.711147 1_655
Lu7 S2 2.711147 1_565
Lu7 S5 2.715374 1_555
Lu8 S7 2.600289 1_545
Lu8 S7 2.600289 1_455
Lu8 S8 2.691805 1_555
Lu8 S18 2.708448 1_555
Lu8 S10 2.714710 1_545
Lu8 S10 2.714710 1_455
Lu9 S6 2.600289 1_655
Lu9 S6 2.600289 1_565
Lu9 S9 2.691805 1_555
Lu9 S19 2.708448 1_555
Lu9 S11 2.714710 1_565
Lu9 S11 2.714710 1_655
Lu10 S12 2.681467 1_454
Lu10 S12 2.681467 1_544
Lu10 S13 2.681467 1_455
Lu10 S13 2.681467 1_545
Lu10 S19 2.694062 1_445
Lu10 S18 2.694062 1_554
S0 Sm3 2.854383 1_455
S0 Sm3 2.854383 1_545
S0 Sm0 2.953610 1_554
S1 Sm2 2.854383 1_565
S1 Sm2 2.854383 1_655
S1 Sm1 2.953610 1_556
S2 Sm3 2.921319 1_455
S2 Sm3 2.921319 1_545
S3 Sm2 2.921319 1_565
S3 Sm2 2.921319 1_655
S6 Sm2 3.386059 1_555
S7 Sm3 3.386059 1_555
S8 Sm3 2.948509 1_545
S8 Sm3 2.948509 1_455
S9 Sm2 2.948509 1_565
S9 Sm2 2.948509 1_655
S10 Sm0 2.996658 1_565
S10 Sm0 2.996658 1_655
S11 Sm1 2.996658 1_545
S11 Sm1 2.996658 1_455
S12 Sm1 2.975312 1_456
S12 Sm1 2.975312 1_546
S13 Sm0 2.975312 1_564
S13 Sm0 2.975312 1_654
S14 Sm1 2.861365 1_546
S14 Sm1 2.861365 1_456
S14 Sm2 2.902617 1_555
S15 Sm0 2.861365 1_564
S15 Sm0 2.861365 1_654
S15 Sm3 2.902617 1_555
S16 Sm0 2.880323 1_555
S17 Sm1 2.880323 1_555
