# generated using pymatgen
data_Y2Fe17H3
_symmetry_space_group_name_H-M   'P 1'
_cell_length_a   8.54824447
_cell_length_b   8.54824447
_cell_length_c   8.24171300
_cell_angle_alpha   90.00000000
_cell_angle_beta   90.00000000
_cell_angle_gamma   120.00000361
_symmetry_Int_Tables_number   1
_chemical_formula_structural   Y2Fe17H3
_chemical_formula_sum   'Y4 Fe34 H6'
_cell_volume   521.55723056
_cell_formula_units_Z   2
loop_
 _symmetry_equiv_pos_site_id
 _symmetry_equiv_pos_as_xyz
  1  'x, y, z'
loop_
 _atom_site_type_symbol
 _atom_site_label
 _atom_site_symmetry_multiplicity
 _atom_site_fract_x
 _atom_site_fract_y
 _atom_site_fract_z
 _atom_site_occupancy
  Y  Y0  1  0.33333300  0.66666700  0.25000000  1
  Y  Y1  1  0.66666700  0.33333300  0.75000000  1
  Y  Y2  1  0.00000000  0.00000000  0.25000000  1
  Y  Y3  1  0.00000000  0.00000000  0.75000000  1
  Fe  Fe0  1  0.37671200  0.04758800  0.25000000  1
  Fe  Fe1  1  0.62328800  0.95241200  0.75000000  1
  Fe  Fe2  1  0.95241200  0.32912400  0.25000000  1
  Fe  Fe3  1  0.04758800  0.37671200  0.75000000  1
  Fe  Fe4  1  0.04758800  0.67087600  0.75000000  1
  Fe  Fe5  1  0.95241200  0.62328800  0.25000000  1
  Fe  Fe6  1  0.67087600  0.62328800  0.25000000  1
  Fe  Fe7  1  0.32912400  0.95241200  0.75000000  1
  Fe  Fe8  1  0.32912400  0.37671200  0.75000000  1
  Fe  Fe9  1  0.67087600  0.04758800  0.25000000  1
  Fe  Fe10  1  0.62328800  0.67087600  0.75000000  1
  Fe  Fe11  1  0.37671200  0.32912400  0.25000000  1
  Fe  Fe12  1  0.33333300  0.66666700  0.60551900  1
  Fe  Fe13  1  0.66666700  0.33333300  0.39448100  1
  Fe  Fe14  1  0.66666700  0.33333300  0.10551900  1
  Fe  Fe15  1  0.33333300  0.66666700  0.89448100  1
  Fe  Fe16  1  0.16687300  0.33374700  0.01556800  1
  Fe  Fe17  1  0.83312700  0.66625300  0.98443200  1
  Fe  Fe18  1  0.66625300  0.83312700  0.01556800  1
  Fe  Fe19  1  0.83312700  0.66625300  0.51556800  1
  Fe  Fe20  1  0.33374700  0.16687300  0.98443200  1
  Fe  Fe21  1  0.16687300  0.33374700  0.48443200  1
  Fe  Fe22  1  0.16687300  0.83312700  0.01556800  1
  Fe  Fe23  1  0.33374700  0.16687300  0.51556800  1
  Fe  Fe24  1  0.83312700  0.16687300  0.98443200  1
  Fe  Fe25  1  0.66625300  0.83312700  0.48443200  1
  Fe  Fe26  1  0.83312700  0.16687300  0.51556800  1
  Fe  Fe27  1  0.16687300  0.83312700  0.48443200  1
  Fe  Fe28  1  0.50000000  0.00000000  0.00000000  1
  Fe  Fe29  1  0.00000000  0.50000000  0.00000000  1
  Fe  Fe30  1  0.50000000  0.00000000  0.50000000  1
  Fe  Fe31  1  0.50000000  0.50000000  0.00000000  1
  Fe  Fe32  1  0.00000000  0.50000000  0.50000000  1
  Fe  Fe33  1  0.50000000  0.50000000  0.50000000  1
  H  H0  1  0.16478400  0.32956700  0.25000000  1
  H  H1  1  0.83521600  0.67043300  0.75000000  1
  H  H2  1  0.67043300  0.83521600  0.25000000  1
  H  H3  1  0.32956700  0.16478400  0.75000000  1
  H  H4  1  0.16478400  0.83521600  0.25000000  1
  H  H5  1  0.83521600  0.16478400  0.75000000  1
loop_
_geom_bond_atom_site_label_1
_geom_bond_atom_site_label_2
_geom_bond_distance
_geom_bond_site_symmetry_2
Fe0 H4 1.813513 1_545
Fe0 Fe30 2.439316 1_555
Fe0 Fe28 2.439316 1_555
Fe0 Fe13 2.733774 1_555
Fe0 Fe14 2.733774 1_555
Fe1 H5 1.813513 1_565
Fe1 Fe30 2.439316 1_565
Fe1 Fe28 2.439316 1_566
Fe1 Fe15 2.733774 1_555
Fe1 Fe12 2.733774 1_555
Fe2 H0 1.813517 1_655
Fe2 Fe32 2.439316 1_655
Fe2 Fe29 2.439316 1_655
Fe3 H5 1.813513 1_455
Fe3 Fe32 2.439316 1_555
Fe4 H1 1.813517 1_455
Fe5 H4 1.813513 1_655
Fe6 H2 1.813509 1_555
Fe7 H3 1.813517 1_565
Fe8 H3 1.813509 1_555
Fe9 H2 1.813517 1_545
Fe10 H1 1.813509 1_555
Fe10 Fe31 2.439316 1_556
Fe10 Fe33 2.439316 1_555
Fe10 Fe15 2.733778 1_555
Fe10 Fe12 2.733778 1_555
Fe11 H0 1.813509 1_555
Fe11 Fe31 2.439316 1_555
Fe11 Fe33 2.439316 1_555
Fe11 Fe13 2.733778 1_555
Fe11 Fe14 2.733778 1_555
Fe12 Fe15 2.381542 1_555
Fe12 Fe30 2.616422 1_565
Fe12 Fe32 2.616422 1_555
Fe12 Fe33 2.616429 1_555
Fe12 Fe25 2.658987 1_555
Fe12 Fe21 2.658987 1_555
Fe12 Fe27 2.658987 1_555
Fe12 Fe4 2.733770 1_555
Fe12 Fe7 2.733770 1_555
Fe12 Fe3 2.733774 1_555
Fe12 Fe8 2.733778 1_555
Fe12 Y0 2.930086 1_555
Fe13 Fe14 2.381542 1_555
Fe13 Fe32 2.616422 1_655
Fe13 Fe30 2.616422 1_555
Fe13 Fe33 2.616429 1_555
Fe13 Fe19 2.658987 1_555
Fe13 Fe23 2.658987 1_555
Fe13 Fe26 2.658987 1_555
Fe13 Fe9 2.733770 1_555
Fe13 Fe2 2.733770 1_555
Fe13 Fe5 2.733774 1_555
Fe13 Fe6 2.733778 1_555
Fe13 Y1 2.930086 1_555
Fe14 Fe29 2.616422 1_655
Fe14 Fe28 2.616422 1_555
Fe14 Fe31 2.616429 1_555
Fe14 Fe17 2.658987 1_554
Fe14 Fe20 2.658987 1_554
Fe14 Fe24 2.658987 1_554
Fe14 Fe9 2.733770 1_555
Fe14 Fe2 2.733770 1_555
Fe14 Fe5 2.733774 1_555
Fe14 Fe6 2.733778 1_555
Fe14 Y1 2.930086 1_554
Fe15 Fe28 2.616422 1_566
Fe15 Fe29 2.616422 1_556
Fe15 Fe31 2.616429 1_556
Fe15 Fe18 2.658987 1_556
Fe15 Fe16 2.658987 1_556
Fe15 Fe22 2.658987 1_556
Fe15 Fe4 2.733770 1_555
Fe15 Fe7 2.733770 1_555
Fe15 Fe3 2.733774 1_555
Fe15 Fe8 2.733778 1_555
Fe15 Y0 2.930086 1_556
Fe16 H0 1.932369 1_555
Fe16 Fe29 2.469468 1_555
Fe16 Fe31 2.469475 1_555
Fe17 H1 1.932369 1_555
Fe17 Fe29 2.469468 1_656
Fe17 Fe31 2.469475 1_556
Fe18 H2 1.932369 1_555
Fe18 Fe28 2.469468 1_565
Fe18 Fe31 2.469475 1_555
Fe19 H1 1.932369 1_555
Fe19 Fe32 2.469468 1_655
Fe19 Fe33 2.469475 1_555
Fe20 H3 1.932369 1_555
Fe20 Fe28 2.469468 1_556
Fe20 Fe31 2.469475 1_556
Fe21 H0 1.932369 1_555
Fe21 Fe32 2.469468 1_555
Fe21 Fe33 2.469475 1_555
Fe22 H4 1.932369 1_555
Fe22 Fe29 2.469475 1_555
Fe22 Fe28 2.469475 1_565
Fe23 H3 1.932369 1_555
Fe23 Fe30 2.469468 1_555
Fe23 Fe33 2.469475 1_555
Fe24 H5 1.932369 1_555
Fe24 Fe28 2.469475 1_556
Fe24 Fe29 2.469475 1_656
Fe25 H2 1.932369 1_555
Fe25 Fe30 2.469468 1_565
Fe25 Fe33 2.469475 1_555
Fe26 H5 1.932369 1_555
Fe26 Fe30 2.469475 1_555
Fe26 Fe32 2.469475 1_655
Fe27 H4 1.932369 1_555
Fe27 Fe32 2.469475 1_555
Fe27 Fe30 2.469475 1_565
Fe28 Fe9 2.439316 1_555
Fe28 Fe7 2.439316 1_544
Fe28 Y0 3.214767 1_545
Fe28 Y1 3.214767 1_554
Fe29 Fe4 2.439316 1_554
Fe29 Fe3 2.439316 1_554
Fe29 Fe5 2.439316 1_455
Fe29 Y1 3.214767 1_454
Fe29 Y0 3.214767 1_555
Fe30 Fe9 2.439316 1_555
Fe30 Fe7 2.439316 1_545
Fe30 Y0 3.214767 1_545
Fe30 Y1 3.214767 1_555
Fe31 Fe6 2.439316 1_555
Fe31 Fe8 2.439316 1_554
Fe31 Y0 3.214773 1_555
Fe31 Y1 3.214773 1_554
Fe32 Fe4 2.439316 1_555
Fe32 Fe5 2.439316 1_455
Fe32 Y1 3.214767 1_455
Fe32 Y0 3.214767 1_555
Fe33 Fe6 2.439316 1_555
Fe33 Fe8 2.439316 1_555
Fe33 Y0 3.214773 1_555
Fe33 Y1 3.214773 1_555
H0 Y2 2.439783 1_555
H0 Y0 2.495550 1_555
H1 Y3 2.439783 1_665
H1 Y1 2.495550 1_555
H2 Y2 2.439783 1_665
H2 Y0 2.495550 1_555
H3 Y3 2.439783 1_555
H3 Y1 2.495550 1_555
H4 Y2 2.439791 1_565
H4 Y0 2.495535 1_555
H5 Y3 2.439791 1_655
H5 Y1 2.495535 1_555
