# generated using pymatgen
data_Mg14CdSiO16
_symmetry_space_group_name_H-M   'P 1'
_cell_length_a   8.66022615
_cell_length_b   8.66022615
_cell_length_c   4.34325130
_cell_angle_alpha   90.00000000
_cell_angle_beta   90.00000000
_cell_angle_gamma   90.00000000
_symmetry_Int_Tables_number   1
_chemical_formula_structural   Mg14CdSiO16
_chemical_formula_sum   'Mg14 Cd1 Si1 O16'
_cell_volume   325.74174958
_cell_formula_units_Z   1
loop_
 _symmetry_equiv_pos_site_id
 _symmetry_equiv_pos_as_xyz
  1  'x, y, z'
loop_
 _atom_site_type_symbol
 _atom_site_label
 _atom_site_symmetry_multiplicity
 _atom_site_fract_x
 _atom_site_fract_y
 _atom_site_fract_z
 _atom_site_occupancy
  Mg  Mg0  1  0.00000000  0.50000000  0.00000000  1
  Mg  Mg1  1  0.50000000  0.00000000  0.00000000  1
  Mg  Mg2  1  0.00000000  0.25228887  0.50000000  1
  Mg  Mg3  1  0.00000000  0.74771113  0.50000000  1
  Mg  Mg4  1  0.50000000  0.24536925  0.50000000  1
  Mg  Mg5  1  0.50000000  0.75463075  0.50000000  1
  Mg  Mg6  1  0.25228887  0.00000000  0.50000000  1
  Mg  Mg7  1  0.24536925  0.50000000  0.50000000  1
  Mg  Mg8  1  0.74771113  0.00000000  0.50000000  1
  Mg  Mg9  1  0.75463075  0.50000000  0.50000000  1
  Mg  Mg10  1  0.24907678  0.24907678  0.00000000  1
  Mg  Mg11  1  0.24907678  0.75092322  -0.00000000  1
  Mg  Mg12  1  0.75092322  0.24907678  0.00000000  1
  Mg  Mg13  1  0.75092322  0.75092322  0.00000000  1
  Cd  Cd0  1  0.50000000  0.50000000  0.00000000  1
  Si  Si0  1  0.00000000  0.00000000  0.00000000  1
  O  O0  1  0.25830804  0.00000000  0.00000000  1
  O  O1  1  0.23606207  0.50000000  0.00000000  1
  O  O2  1  0.74169196  0.00000000  0.00000000  1
  O  O3  1  0.76393793  0.50000000  0.00000000  1
  O  O4  1  0.25009237  0.25009237  0.50000000  1
  O  O5  1  0.25009237  0.74990763  0.50000000  1
  O  O6  1  0.74990763  0.25009237  0.50000000  1
  O  O7  1  0.74990763  0.74990763  0.50000000  1
  O  O8  1  0.00000000  0.00000000  0.50000000  1
  O  O9  1  0.00000000  0.50000000  0.50000000  1
  O  O10  1  0.50000000  0.00000000  0.50000000  1
  O  O11  1  0.50000000  0.50000000  0.50000000  1
  O  O12  1  0.00000000  0.25830804  0.00000000  1
  O  O13  1  0.00000000  0.74169196  0.00000000  1
  O  O14  1  0.50000000  0.23606207  0.00000000  1
  O  O15  1  0.50000000  0.76393793  -0.00000000  1
loop_
_geom_bond_atom_site_label_1
_geom_bond_atom_site_label_2
_geom_bond_distance
_geom_bond_site_symmetry_2
Mg0 O3 2.044351 1_455
Mg0 O1 2.044351 1_555
Mg0 O12 2.093107 1_555
Mg0 O13 2.093107 1_555
Mg0 O9 2.171626 1_554
Mg0 O9 2.171626 1_555
Mg1 O15 2.044351 1_545
Mg1 O14 2.044351 1_555
Mg1 O0 2.093107 1_555
Mg1 O2 2.093107 1_555
Mg1 O10 2.171626 1_554
Mg1 O10 2.171626 1_555
Mg2 O9 2.145234 1_555
Mg2 O6 2.165940 1_455
Mg2 O4 2.165940 1_555
Mg2 O12 2.172251 1_555
Mg2 O12 2.172251 1_556
Mg2 O8 2.184879 1_555
Mg3 O9 2.145234 1_555
Mg3 O7 2.165940 1_455
Mg3 O5 2.165940 1_555
Mg3 O13 2.172251 1_555
Mg3 O13 2.172251 1_556
Mg3 O8 2.184879 1_565
Mg4 O10 2.124953 1_555
Mg4 O4 2.164643 1_555
Mg4 O6 2.164643 1_555
Mg4 O14 2.173121 1_556
Mg4 O14 2.173121 1_555
Mg4 O11 2.205160 1_555
Mg5 O10 2.124953 1_565
Mg5 O5 2.164643 1_555
Mg5 O7 2.164643 1_555
Mg5 O15 2.173121 1_556
Mg5 O15 2.173121 1_555
Mg5 O11 2.205160 1_555
Mg6 O10 2.145234 1_555
Mg6 O5 2.165940 1_545
Mg6 O4 2.165940 1_555
Mg6 O0 2.172251 1_555
Mg6 O0 2.172251 1_556
Mg6 O8 2.184879 1_555
Mg7 O9 2.124953 1_555
Mg7 O4 2.164643 1_555
Mg7 O5 2.164643 1_555
Mg7 O1 2.173121 1_556
Mg7 O1 2.173121 1_555
Mg7 O11 2.205160 1_555
Mg8 O10 2.145234 1_555
Mg8 O7 2.165940 1_545
Mg8 O6 2.165940 1_555
Mg8 O2 2.172251 1_556
Mg8 O2 2.172251 1_555
Mg8 O8 2.184879 1_655
Mg9 O9 2.124953 1_655
Mg9 O6 2.164643 1_555
Mg9 O7 2.164643 1_555
Mg9 O3 2.173121 1_556
Mg9 O3 2.173121 1_555
Mg9 O11 2.205160 1_555
Mg10 O0 2.158542 1_555
Mg10 O12 2.158542 1_555
Mg10 O4 2.171661 1_554
Mg10 O4 2.171661 1_555
Mg10 O14 2.175973 1_555
Mg10 O1 2.175973 1_555
Mg11 O13 2.158542 1_555
Mg11 O0 2.158542 1_565
Mg11 O5 2.171661 1_554
Mg11 O5 2.171661 1_555
Mg11 O15 2.175973 1_555
Mg11 O1 2.175973 1_555
Mg12 O12 2.158542 1_655
Mg12 O2 2.158542 1_555
Mg12 O6 2.171661 1_554
Mg12 O6 2.171661 1_555
Mg12 O14 2.175973 1_555
Mg12 O3 2.175973 1_555
Mg13 O13 2.158542 1_655
Mg13 O2 2.158542 1_565
Mg13 O7 2.171661 1_555
Mg13 O7 2.171661 1_554
Mg13 O15 2.175973 1_555
Mg13 O3 2.175973 1_555
Cd0 O11 2.171626 1_554
Cd0 O11 2.171626 1_555
Cd0 O3 2.285762 1_555
Cd0 O1 2.285762 1_555
Cd0 O15 2.285762 1_555
Cd0 O14 2.285762 1_555
O0 Si0 2.237006 1_555
O2 Si0 2.237006 1_655
O8 Si0 2.171626 1_555
O8 Si0 2.171626 1_556
O12 Si0 2.237006 1_555
O13 Si0 2.237006 1_565
