# generated using pymatgen
data_LiNd2OsO6
_symmetry_space_group_name_H-M   'P 1'
_cell_length_a   5.85006900
_cell_length_b   5.47632000
_cell_length_c   9.49085247
_cell_angle_alpha   55.35373993
_cell_angle_beta   90.00000000
_cell_angle_gamma   90.00000000
_symmetry_Int_Tables_number   1
_chemical_formula_structural   LiNd2OsO6
_chemical_formula_sum   'Li2 Nd4 Os2 O12'
_cell_volume   250.14090451
_cell_formula_units_Z   2
loop_
 _symmetry_equiv_pos_site_id
 _symmetry_equiv_pos_as_xyz
  1  'x, y, z'
loop_
 _atom_site_type_symbol
 _atom_site_label
 _atom_site_symmetry_multiplicity
 _atom_site_fract_x
 _atom_site_fract_y
 _atom_site_fract_z
 _atom_site_occupancy
  Li  Li0  1  0.00000000  0.00000000  0.00000000  1
  Li  Li1  1  0.50000000  0.00000000  0.50000000  1
  Nd  Nd0  1  0.07137900  0.76893500  0.74864000  1
  Nd  Nd1  1  0.57137900  0.23106500  0.75136000  1
  Nd  Nd2  1  0.42862100  0.76893500  0.24864000  1
  Nd  Nd3  1  0.92862100  0.23106500  0.25136000  1
  Os  Os0  1  0.50000000  0.50000000  0.00000000  1
  Os  Os1  1  0.00000000  0.50000000  0.50000000  1
  O  O0  1  0.28818900  0.26571200  0.55497400  1
  O  O1  1  0.78818900  0.73428800  0.94502600  1
  O  O2  1  0.71181100  0.73428800  0.44502600  1
  O  O3  1  0.21181100  0.26571200  0.05497400  1
  O  O4  1  0.03344900  0.64213300  0.25635800  1
  O  O5  1  0.53344900  0.35786700  0.24364200  1
  O  O6  1  0.31505700  0.84529300  0.95103900  1
  O  O7  1  0.81505700  0.15470700  0.54896100  1
  O  O8  1  0.68494300  0.15470700  0.04896100  1
  O  O9  1  0.18494300  0.84529300  0.45103900  1
  O  O10  1  0.46655100  0.64213300  0.75635800  1
  O  O11  1  0.96655100  0.35786700  0.74364200  1
loop_
_geom_bond_atom_site_label_1
_geom_bond_atom_site_label_2
_geom_bond_distance
_geom_bond_site_symmetry_2
Li0 O11 2.092181 1_454
Li0 O4 2.092181 1_545
Li0 O8 2.185952 1_455
Li0 O6 2.185952 1_544
Li0 O1 2.188204 1_444
Li0 O3 2.188204 1_555
Li1 O5 2.092181 1_555
Li1 O10 2.092181 1_545
Li1 O9 2.185952 1_545
Li1 O7 2.185952 1_555
Li1 O0 2.188204 1_555
Li1 O2 2.188204 1_545
Nd0 O11 2.359528 1_455
Nd0 O7 2.398103 1_465
Nd0 O10 2.402931 1_555
Nd0 O1 2.419195 1_455
Nd0 O0 2.588967 1_565
Nd0 O6 2.609661 1_555
Nd0 O9 2.692775 1_555
Nd0 O3 2.759032 1_556
Nd1 O10 2.359528 1_555
Nd1 O6 2.398103 1_545
Nd1 O11 2.402931 1_555
Nd1 O0 2.419195 1_555
Nd1 O1 2.588967 1_545
Nd1 O7 2.609661 1_555
Nd1 O8 2.692775 1_556
Nd1 O2 2.759032 1_555
Nd2 O5 2.359528 1_555
Nd2 O8 2.398103 1_565
Nd2 O4 2.402931 1_555
Nd2 O2 2.419195 1_555
Nd2 O3 2.588967 1_565
Nd2 O9 2.609661 1_555
Nd2 O6 2.692775 1_554
Nd2 O0 2.759032 1_555
Nd3 O4 2.359528 1_655
Nd3 O9 2.398103 1_645
Nd3 O5 2.402931 1_555
Nd3 O3 2.419195 1_655
Nd3 O2 2.588967 1_545
Nd3 O8 2.609661 1_555
Nd3 O7 2.692775 1_555
Nd3 O1 2.759032 1_554
O0 Os1 1.999901 1_555
O1 Os0 1.999901 1_556
O2 Os1 1.999901 1_655
O3 Os0 1.999901 1_555
O4 Os1 1.986132 1_555
O5 Os0 1.986132 1_555
O6 Os0 1.990743 1_556
O7 Os1 1.990743 1_655
O8 Os0 1.990743 1_555
O9 Os1 1.990743 1_555
O10 Os0 1.986132 1_556
O11 Os1 1.986132 1_655
