# generated using pymatgen
data_TmIn5Co
_symmetry_space_group_name_H-M   'P 1'
_cell_length_a   4.52963658
_cell_length_b   4.52963658
_cell_length_c   7.40105366
_cell_angle_alpha   90.00000000
_cell_angle_beta   90.00000000
_cell_angle_gamma   90.00000000
_symmetry_Int_Tables_number   1
_chemical_formula_structural   TmIn5Co
_chemical_formula_sum   'Tm1 In5 Co1'
_cell_volume   151.85191443
_cell_formula_units_Z   1
loop_
 _symmetry_equiv_pos_site_id
 _symmetry_equiv_pos_as_xyz
  1  'x, y, z'
loop_
 _atom_site_type_symbol
 _atom_site_label
 _atom_site_symmetry_multiplicity
 _atom_site_fract_x
 _atom_site_fract_y
 _atom_site_fract_z
 _atom_site_occupancy
  Tm  Tm0  1  0.00000000  0.00000000  0.00000000  1
  In  In0  1  0.50000000  0.50000000  0.00000000  1
  In  In1  1  0.50000000  0.00000000  0.69451917  1
  In  In2  1  -0.00000000  0.50000000  0.30548083  1
  In  In3  1  0.50000000  -0.00000000  0.30548083  1
  In  In4  1  -0.00000000  0.50000000  0.69451917  1
  Co  Co0  1  0.00000000  0.00000000  0.50000000  1
loop_
_geom_bond_atom_site_label_1
_geom_bond_atom_site_label_2
_geom_bond_distance
_geom_bond_site_symmetry_2
In0 In1 3.200153 1_554
In0 In3 3.200153 1_565
In0 In2 3.200153 1_555
In0 In1 3.200153 1_564
In0 In4 3.200153 1_554
In0 In4 3.200153 1_654
In0 In2 3.200153 1_655
In0 In3 3.200153 1_555
In0 Tm0 3.202937 1_665
In0 Tm0 3.202937 1_555
In0 Tm0 3.202937 1_565
In0 Tm0 3.202937 1_655
In1 In3 2.879294 1_555
In1 Tm0 3.200153 1_556
In1 Tm0 3.200153 1_656
In1 In4 3.202937 1_545
In1 In4 3.202937 1_645
In1 In4 3.202937 1_555
In1 In4 3.202937 1_655
In2 In4 2.879294 1_555
In2 Tm0 3.200153 1_555
In2 Tm0 3.200153 1_565
In2 In3 3.202937 1_465
In2 In3 3.202937 1_565
In2 In3 3.202937 1_455
In2 In3 3.202937 1_555
In3 Tm0 3.200153 1_555
In3 Tm0 3.200153 1_655
In4 Tm0 3.200153 1_556
In4 Tm0 3.200153 1_566
Co0 In2 2.683651 1_555
Co0 In2 2.683651 1_545
Co0 In3 2.683651 1_455
Co0 In3 2.683651 1_555
Co0 In1 2.683651 1_455
Co0 In4 2.683651 1_545
Co0 In4 2.683651 1_555
Co0 In1 2.683651 1_555
