# generated using pymatgen
data_Th7Se12
_symmetry_space_group_name_H-M   'P 1'
_cell_length_a   4.13898404
_cell_length_b   11.68834404
_cell_length_c   11.68748415
_cell_angle_alpha   119.99526361
_cell_angle_beta   90.00001729
_cell_angle_gamma   89.99998903
_symmetry_Int_Tables_number   1
_chemical_formula_structural   Th7Se12
_chemical_formula_sum   'Th7 Se12'
_cell_volume   489.68762633
_cell_formula_units_Z   1
loop_
 _symmetry_equiv_pos_site_id
 _symmetry_equiv_pos_as_xyz
  1  'x, y, z'
loop_
 _atom_site_type_symbol
 _atom_site_label
 _atom_site_symmetry_multiplicity
 _atom_site_fract_x
 _atom_site_fract_y
 _atom_site_fract_z
 _atom_site_occupancy
  Th  Th0  1  0.74999982  0.00000050  -0.00001595  1
  Th  Th1  1  0.74999984  0.72018402  0.56424323  1
  Th  Th2  1  0.75000008  0.43574998  0.15595456  1
  Th  Th3  1  0.75000002  0.84405626  0.27980458  1
  Th  Th4  1  0.25000000  0.28706627  0.44468231  1
  Th  Th5  1  0.24999980  0.55532769  0.84237402  1
  Th  Th6  1  0.25000014  0.15759924  0.71292000  1
  Se  Se0  1  0.75000046  0.00699234  0.75263019  1
  Se  Se1  1  0.74999990  0.24735780  0.25436044  1
  Se  Se2  1  0.74999971  0.74563258  0.99297778  1
  Se  Se3  1  0.25000039  0.99441761  0.21260626  1
  Se  Se4  1  0.24999999  0.78744440  0.78180258  1
  Se  Se5  1  0.25000016  0.21815235  0.00557001  1
  Se  Se6  1  0.74999999  0.37425202  0.86282482  1
  Se  Se7  1  0.75000006  0.13719007  0.51141940  1
  Se  Se8  1  0.75000014  0.48858656  0.62578337  1
  Se  Se9  1  0.24999993  0.61549487  0.13824093  1
  Se  Se10  1  0.24999973  0.86179524  0.47724734  1
  Se  Se11  1  0.24999983  0.52270019  0.38457412  1
loop_
_geom_bond_atom_site_label_1
_geom_bond_atom_site_label_2
_geom_bond_distance
_geom_bond_site_symmetry_2
Se0 Th6 2.900671 1_655
Se0 Th6 2.900672 1_555
Se0 Th0 2.932654 1_556
Se0 Th1 2.950565 1_545
Se1 Th4 2.900663 1_655
Se1 Th4 2.900663 1_555
Se1 Th0 2.933175 1_555
Se1 Th2 2.950208 1_555
Se2 Th5 2.900700 1_555
Se2 Th5 2.900701 1_655
Se2 Th0 2.933060 1_566
Se2 Th3 2.950475 1_556
Se3 Th3 3.060787 1_555
Se3 Th3 3.060790 1_455
Se3 Th4 3.127426 1_565
Se3 Th0 3.259525 1_565
Se3 Th0 3.259527 1_465
Se4 Th1 3.060649 1_555
Se4 Th1 3.060649 1_455
Se4 Th5 3.127656 1_555
Se4 Th0 3.259336 1_566
Se4 Th0 3.259338 1_466
Se5 Th2 3.061220 1_555
Se5 Th2 3.061220 1_455
Se5 Th6 3.127174 1_554
Se5 Th0 3.259181 1_555
Se5 Th0 3.259183 1_455
Se6 Th5 3.053718 1_655
Se6 Th5 3.053719 1_555
Se6 Th6 3.054331 1_555
Se6 Th6 3.054332 1_655
Se6 Th2 3.129147 1_556
Se7 Th6 3.053552 1_655
Se7 Th6 3.053552 1_555
Se7 Th4 3.053881 1_555
Se7 Th4 3.053882 1_655
Se7 Th3 3.129455 1_545
Se8 Th5 3.053666 1_655
Se8 Th5 3.053668 1_555
Se8 Th4 3.053867 1_655
Se8 Th4 3.053868 1_555
Se8 Th1 3.129192 1_555
Se9 Th2 3.028929 1_455
Se9 Th2 3.028929 1_555
Se9 Th3 3.120536 1_455
Se9 Th3 3.120536 1_555
Se9 Th5 3.165510 1_554
Se10 Th3 3.028605 1_455
Se10 Th3 3.028608 1_555
Se10 Th1 3.120737 1_555
Se10 Th1 3.120737 1_455
Se10 Th6 3.165268 1_565
Se11 Th1 3.028858 1_555
Se11 Th1 3.028858 1_455
Se11 Th2 3.120900 1_455
Se11 Th2 3.120902 1_555
Se11 Th4 3.164418 1_555
