# generated using pymatgen
data_Nb27N37O3
_symmetry_space_group_name_H-M   'P 1'
_cell_length_a   4.23855148
_cell_length_b   5.39534265
_cell_length_c   42.99545738
_cell_angle_alpha   79.09716590
_cell_angle_beta   66.86644725
_cell_angle_gamma   67.00695822
_symmetry_Int_Tables_number   1
_chemical_formula_structural   Nb27N37O3
_chemical_formula_sum   'Nb27 N37 O3'
_cell_volume   831.60374610
_cell_formula_units_Z   1
loop_
 _symmetry_equiv_pos_site_id
 _symmetry_equiv_pos_as_xyz
  1  'x, y, z'
loop_
 _atom_site_type_symbol
 _atom_site_label
 _atom_site_symmetry_multiplicity
 _atom_site_fract_x
 _atom_site_fract_y
 _atom_site_fract_z
 _atom_site_occupancy
  Nb  Nb0  1  0.01920000  0.02121500  0.11796900  1
  Nb  Nb1  1  0.60305100  0.57548700  0.02737300  1
  Nb  Nb2  1  0.01735700  0.00361700  0.37026800  1
  Nb  Nb3  1  0.43700500  0.35531300  0.22093200  1
  Nb  Nb4  1  0.61593000  0.58118300  0.14710600  1
  Nb  Nb5  1  0.78740800  0.87286500  0.06932100  1
  Nb  Nb6  1  0.39441100  0.40646400  0.35044900  1
  Nb  Nb7  1  0.58462400  0.60746600  0.27775400  1
  Nb  Nb8  1  0.78942400  0.79397700  0.20361200  1
  Nb  Nb9  1  0.37453200  0.38754300  0.48257600  1
  Nb  Nb10  1  0.61086600  0.54921700  0.40366500  1
  Nb  Nb11  1  0.78453500  0.87598900  0.31936400  1
  Nb  Nb12  1  0.20351200  0.19244400  0.67497100  1
  Nb  Nb13  1  0.38721000  0.39563100  0.60334700  1
  Nb  Nb14  1  0.59975600  0.57146000  0.52857800  1
  Nb  Nb15  1  0.78029700  0.82496500  0.45205400  1
  Nb  Nb16  1  0.39898300  0.33467000  0.73326300  1
  Nb  Nb17  1  0.58716700  0.64668900  0.64736200  1
  Nb  Nb18  1  0.80171800  0.83547400  0.57064000  1
  Nb  Nb19  1  0.18949300  0.19761300  0.92793800  1
  Nb  Nb20  1  0.39124400  0.39248800  0.85282300  1
  Nb  Nb21  1  0.60484500  0.58039500  0.77632100  1
  Nb  Nb22  1  0.81239100  0.79647700  0.69742900  1
  Nb  Nb23  1  0.41141700  0.32158900  0.98194300  1
  Nb  Nb24  1  0.58481400  0.65269100  0.89721800  1
  Nb  Nb25  1  0.81090000  0.83158500  0.81875200  1
  Nb  Nb26  1  0.81384500  0.79298100  0.94757200  1
  N  N0  1  0.52446200  0.96785700  0.99821400  1
  N  N1  1  0.30332300  0.81128900  0.07294500  1
  N  N2  1  0.54078200  0.95338800  0.12088800  1
  N  N3  1  0.69095500  0.22129900  0.04989100  1
  N  N4  1  0.34094200  0.74523600  0.19674600  1
  N  N5  1  0.52712700  0.98535000  0.24504700  1
  N  N6  1  0.69893500  0.19461700  0.17590300  1
  N  N7  1  0.88381500  0.39304700  0.10516500  1
  N  N8  1  0.09703000  0.61158300  0.39931300  1
  N  N9  1  0.29431400  0.82338500  0.32345100  1
  N  N10  1  0.51933500  0.98620800  0.37195200  1
  N  N11  1  0.68293800  0.23269900  0.29995800  1
  N  N12  1  0.87614000  0.41836900  0.22859800  1
  N  N13  1  0.09143900  0.60642800  0.52633500  1
  N  N14  1  0.33416600  0.74222300  0.44864000  1
  N  N15  1  0.52349200  0.99512100  0.49475400  1
  N  N16  1  0.71103100  0.18764700  0.42376500  1
  N  N17  1  0.88309300  0.42782200  0.35063600  1
  N  N18  1  0.09451000  0.61430800  0.64951000  1
  N  N19  1  0.31292300  0.78628900  0.57357600  1
  N  N20  1  0.49620800  0.01135500  0.62461600  1
  N  N21  1  0.67453400  0.22120900  0.55346500  1
  N  N22  1  0.87096600  0.43167300  0.47805000  1
  N  N23  1  0.09681300  0.59849400  0.77600700  1
  N  N24  1  0.31272700  0.78000500  0.69937700  1
  N  N25  1  0.52535600  0.97222900  0.74724900  1
  N  N26  1  0.67505000  0.21969800  0.67868300  1
  N  N27  1  0.87403500  0.44409700  0.60094000  1
  N  N28  1  0.09657700  0.61044800  0.89948600  1
  N  N29  1  0.32355600  0.77800000  0.82200600  1
  N  N30  1  0.49351800  0.01289400  0.87507500  1
  N  N31  1  0.67292500  0.21771000  0.80435000  1
  N  N32  1  0.89819600  0.40200800  0.72516700  1
  N  N33  1  0.31198900  0.77873700  0.94981600  1
  N  N34  1  0.67643200  0.21791900  0.92865100  1
  N  N35  1  0.86960800  0.44887300  0.85140800  1
  N  N36  1  0.89210500  0.40048900  0.97697500  1
  O  O0  1  0.09781700  0.59265300  0.02660000  1
  O  O1  1  0.08102500  0.63178500  0.15074200  1
  O  O2  1  0.09187600  0.61406900  0.27519800  1
loop_
_geom_bond_atom_site_label_1
_geom_bond_atom_site_label_2
_geom_bond_distance
_geom_bond_site_symmetry_2
Nb0 O1 2.282296 1_545
Nb1 O0 2.120223 1_555
Nb1 O0 2.122093 1_655
Nb3 O2 2.547078 1_555
Nb4 O1 2.119751 1_555
Nb4 O1 2.159602 1_655
Nb5 O0 2.233424 1_655
Nb7 O2 2.120395 1_555
Nb7 O2 2.123348 1_655
Nb8 O1 2.271694 1_655
Nb11 O2 2.221074 1_655
Nb23 O0 2.265049 1_556
N0 Nb23 1.845343 1_565
N0 Nb26 2.215894 1_555
N0 Nb1 2.222056 1_556
N1 Nb0 2.100610 1_565
N1 Nb5 2.144070 1_455
N1 Nb5 2.146244 1_555
N1 Nb1 2.190005 1_555
N2 Nb4 2.081104 1_555
N2 Nb5 2.094204 1_555
N2 Nb0 2.146088 1_565
N2 Nb0 2.150356 1_665
N3 Nb5 1.863591 1_545
N3 Nb1 1.937855 1_555
N4 Nb3 2.123420 1_555
N4 Nb8 2.151215 1_455
N4 Nb8 2.151886 1_555
N4 Nb4 2.156656 1_555
N5 Nb8 1.928390 1_555
N5 Nb3 2.034180 1_565
N5 Nb7 2.233882 1_555
N6 Nb3 1.981570 1_555
N6 Nb4 2.190636 1_555
N6 Nb8 2.230713 1_545
N6 Nb0 2.480945 1_655
N7 Nb0 1.894228 1_655
N7 Nb4 1.937666 1_555
N8 Nb10 2.146937 1_455
N8 Nb10 2.148359 1_555
N8 Nb2 2.218460 1_565
N8 Nb6 2.221804 1_555
N8 Nb15 2.378634 1_455
N9 Nb2 2.089839 1_565
N9 Nb7 2.139590 1_555
N9 Nb11 2.140220 1_455
N9 Nb11 2.140969 1_555
N9 Nb6 2.289326 1_555
N10 Nb2 2.121830 1_665
N10 Nb2 2.122109 1_565
N10 Nb11 2.172294 1_555
N10 Nb6 2.220369 1_565
N10 Nb10 2.460377 1_555
N11 Nb11 1.900786 1_545
N11 Nb7 2.024257 1_555
N11 Nb6 2.208031 1_555
N12 Nb8 2.073839 1_555
N12 Nb3 2.161164 1_655
N12 Nb3 2.169787 1_555
N12 Nb7 2.193933 1_555
N13 Nb9 2.081790 1_555
N13 Nb14 2.127371 1_555
N13 Nb14 2.128477 1_455
N13 Nb18 2.128551 1_455
N14 Nb10 2.055423 1_555
N14 Nb15 2.160403 1_455
N14 Nb15 2.167696 1_555
N14 Nb9 2.168941 1_555
N15 Nb15 1.919600 1_555
N15 Nb9 1.987861 1_565
N15 Nb14 2.445182 1_555
N16 Nb10 1.932927 1_555
N16 Nb15 2.079915 1_545
N16 Nb2 2.339322 1_655
N16 Nb9 2.566589 1_555
N17 Nb6 2.121758 1_655
N17 Nb6 2.122157 1_555
N17 Nb10 2.205932 1_555
N17 Nb2 2.214433 1_655
N17 Nb11 2.500292 1_555
N18 Nb17 2.125961 1_455
N18 Nb17 2.127628 1_555
N18 Nb22 2.133721 1_455
N18 Nb13 2.162890 1_555
N18 Nb12 2.285996 1_555
N19 Nb14 2.112781 1_555
N19 Nb18 2.129385 1_455
N19 Nb18 2.142425 1_555
N19 Nb13 2.226599 1_555
N20 Nb17 1.987937 1_545
N20 Nb13 2.052973 1_555
N20 Nb12 2.218973 1_555
N20 Nb18 2.339838 1_545
N21 Nb14 1.962171 1_555
N21 Nb18 2.005525 1_545
N21 Nb13 2.187309 1_555
N22 Nb9 2.135883 1_655
N22 Nb9 2.138734 1_555
N22 Nb14 2.142453 1_555
N22 Nb15 2.168607 1_555
N23 Nb25 2.088419 1_455
N23 Nb21 2.119993 1_455
N23 Nb21 2.122398 1_555
N23 Nb16 2.181704 1_555
N24 Nb22 2.121742 1_455
N24 Nb22 2.122512 1_555
N24 Nb17 2.186953 1_555
N24 Nb12 2.227277 1_565
N24 Nb16 2.537222 1_555
N25 Nb16 1.860759 1_565
N25 Nb22 2.187927 1_555
N25 Nb21 2.218123 1_555
N26 Nb12 2.128559 1_555
N26 Nb12 2.129547 1_655
N26 Nb22 2.199208 1_545
N26 Nb16 2.255425 1_555
N26 Nb17 2.410335 1_555
N27 Nb13 2.128971 1_655
N27 Nb17 2.130029 1_555
N27 Nb13 2.140174 1_555
N27 Nb18 2.239982 1_555
N28 Nb24 2.130296 1_455
N28 Nb24 2.132006 1_555
N28 Nb26 2.140536 1_455
N28 Nb20 2.178115 1_555
N28 Nb19 2.296807 1_555
N29 Nb21 2.091752 1_555
N29 Nb25 2.134836 1_455
N29 Nb25 2.143401 1_555
N29 Nb20 2.225790 1_555
N30 Nb24 1.958329 1_545
N30 Nb20 2.046652 1_555
N30 Nb19 2.317746 1_555
N30 Nb25 2.437054 1_545
N31 Nb25 1.977429 1_545
N31 Nb21 2.074783 1_555
N31 Nb20 2.137042 1_555
N32 Nb16 2.165386 1_655
N32 Nb16 2.168954 1_555
N32 Nb22 2.204574 1_555
N32 Nb21 2.242034 1_555
N32 Nb12 2.279558 1_655
N33 Nb26 2.122168 1_555
N33 Nb26 2.122206 1_455
N33 Nb24 2.196939 1_555
N33 Nb19 2.219185 1_565
N33 Nb23 2.554534 1_555
N34 Nb19 2.121398 1_555
N34 Nb19 2.122438 1_655
N34 Nb23 2.190057 1_555
N34 Nb26 2.209293 1_545
N34 Nb24 2.445665 1_555
N35 Nb24 2.111858 1_555
N35 Nb20 2.134925 1_655
N35 Nb20 2.141319 1_555
N35 Nb25 2.252409 1_555
N36 Nb23 2.162135 1_655
N36 Nb23 2.163134 1_555
N36 Nb1 2.207286 1_556
N36 Nb19 2.222408 1_655
N36 Nb26 2.227238 1_555
