# generated using pymatgen
data_TaCr3(CuS4)2
_symmetry_space_group_name_H-M   'P 1'
_cell_length_a   11.39708800
_cell_length_b   3.42189000
_cell_length_c   12.02110800
_cell_angle_alpha   90.00000000
_cell_angle_beta   90.00000000
_cell_angle_gamma   90.00000000
_symmetry_Int_Tables_number   1
_chemical_formula_structural   TaCr3(CuS4)2
_chemical_formula_sum   'Ta2 Cr6 Cu4 S16'
_cell_volume   468.81818064
_cell_formula_units_Z   2
loop_
 _symmetry_equiv_pos_site_id
 _symmetry_equiv_pos_as_xyz
  1  'x, y, z'
loop_
 _atom_site_type_symbol
 _atom_site_label
 _atom_site_symmetry_multiplicity
 _atom_site_fract_x
 _atom_site_fract_y
 _atom_site_fract_z
 _atom_site_occupancy
  Ta  Ta0  1  0.14701500  0.25000000  0.71044800  1
  Ta  Ta1  1  0.64701500  0.25000000  0.78955200  1
  Cr  Cr0  1  0.11239200  0.25000000  0.07991200  1
  Cr  Cr1  1  0.88597200  0.75000000  0.93334100  1
  Cr  Cr2  1  0.38597200  0.75000000  0.56665900  1
  Cr  Cr3  1  0.61239200  0.25000000  0.42008800  1
  Cr  Cr4  1  0.85363400  0.75000000  0.29527600  1
  Cr  Cr5  1  0.35363400  0.75000000  0.20472400  1
  Cu  Cu0  1  0.11932900  0.75000000  0.41150100  1
  Cu  Cu1  1  0.86954300  0.25000000  0.55610800  1
  Cu  Cu2  1  0.36954300  0.25000000  0.94389200  1
  Cu  Cu3  1  0.61932900  0.75000000  0.08849900  1
  S  S0  1  0.03262200  0.75000000  0.61344200  1
  S  S1  1  0.97149700  0.25000000  0.38509800  1
  S  S2  1  0.47149700  0.25000000  0.11490200  1
  S  S3  1  0.53262200  0.75000000  0.88655800  1
  S  S4  1  0.02822900  0.25000000  0.88022700  1
  S  S5  1  0.97022400  0.75000000  0.11837600  1
  S  S6  1  0.47022400  0.75000000  0.38162400  1
  S  S7  1  0.52822900  0.25000000  0.61977300  1
  S  S8  1  0.21552100  0.25000000  0.25066800  1
  S  S9  1  0.79396300  0.75000000  0.74337600  1
  S  S10  1  0.29396300  0.75000000  0.75662400  1
  S  S11  1  0.71552100  0.25000000  0.24933200  1
  S  S12  1  0.24844800  0.75000000  0.03136400  1
  S  S13  1  0.75161100  0.25000000  0.97830300  1
  S  S14  1  0.25161100  0.25000000  0.52169700  1
  S  S15  1  0.74844800  0.75000000  0.46863600  1
loop_
_geom_bond_atom_site_label_1
_geom_bond_atom_site_label_2
_geom_bond_distance
_geom_bond_site_symmetry_2
Cr0 S8 2.365370 1_555
Cr0 S12 2.381683 1_555
Cr0 S12 2.381683 1_545
Cr0 S5 2.401355 1_445
Cr0 S5 2.401355 1_455
Cr0 S4 2.584991 1_554
Cr1 S13 2.358902 1_565
Cr1 S13 2.358902 1_555
Cr1 S5 2.422738 1_556
Cr1 S4 2.442062 1_655
Cr1 S4 2.442062 1_665
Cr1 S9 2.512850 1_555
Cr2 S14 2.358902 1_565
Cr2 S14 2.358902 1_555
Cr2 S6 2.422738 1_555
Cr2 S7 2.442062 1_565
Cr2 S7 2.442062 1_555
Cr2 S10 2.512850 1_555
Cr3 S11 2.365370 1_555
Cr3 S15 2.381683 1_545
Cr3 S15 2.381683 1_555
Cr3 S6 2.401355 1_545
Cr3 S6 2.401355 1_555
Cr3 S7 2.584991 1_555
Cr4 S11 2.389584 1_555
Cr4 S11 2.389584 1_565
Cr4 S15 2.404189 1_555
Cr4 S1 2.428509 1_565
Cr4 S1 2.428509 1_555
Cr4 S5 2.507553 1_555
Cr5 S8 2.389584 1_555
Cr5 S8 2.389584 1_565
Cr5 S12 2.404189 1_555
Cr5 S2 2.428509 1_555
Cr5 S2 2.428509 1_565
Cr5 S6 2.507553 1_555
Cu0 S1 2.422149 1_455
Cu0 S1 2.422149 1_465
Cu0 S0 2.620987 1_555
Cu0 S14 2.637243 1_555
Cu0 S14 2.637243 1_565
Cu0 S8 2.804858 1_565
Cu0 S8 2.804858 1_555
Cu1 S1 2.361402 1_555
Cu1 S15 2.436753 1_545
Cu1 S15 2.436753 1_555
Cu1 S0 2.618558 1_655
Cu1 S0 2.618558 1_645
Cu1 S9 2.955857 1_545
Cu1 S9 2.955857 1_555
Cu2 S2 2.361402 1_556
Cu2 S12 2.436753 1_556
Cu2 S12 2.436753 1_546
Cu2 S3 2.618558 1_545
Cu2 S3 2.618558 1_555
Cu2 S10 2.955857 1_555
Cu2 S10 2.955857 1_545
Cu3 S2 2.422149 1_555
Cu3 S2 2.422149 1_565
Cu3 S3 2.620987 1_554
Cu3 S13 2.637243 1_554
Cu3 S13 2.637243 1_564
Cu3 S11 2.804858 1_565
Cu3 S11 2.804858 1_555
S0 Ta0 2.446819 1_565
S0 Ta0 2.446819 1_555
S3 Ta1 2.446819 1_565
S3 Ta1 2.446819 1_555
S4 Ta0 2.449126 1_555
S7 Ta1 2.449126 1_555
S9 Ta1 2.457710 1_555
S9 Ta1 2.457710 1_565
S10 Ta0 2.457710 1_565
S10 Ta0 2.457710 1_555
S13 Ta1 2.563088 1_555
S14 Ta0 2.563088 1_555
