# generated using pymatgen
data_Li4V3P8O29
_symmetry_space_group_name_H-M   'P 1'
_cell_length_a   9.76253000
_cell_length_b   9.77400558
_cell_length_c   14.20307236
_cell_angle_alpha   90.21856922
_cell_angle_beta   89.89338426
_cell_angle_gamma   119.92309566
_symmetry_Int_Tables_number   1
_chemical_formula_structural   Li4V3P8O29
_chemical_formula_sum   'Li8 V6 P16 O58'
_cell_volume   1174.57503314
_cell_formula_units_Z   2
loop_
 _symmetry_equiv_pos_site_id
 _symmetry_equiv_pos_as_xyz
  1  'x, y, z'
loop_
 _atom_site_type_symbol
 _atom_site_label
 _atom_site_symmetry_multiplicity
 _atom_site_fract_x
 _atom_site_fract_y
 _atom_site_fract_z
 _atom_site_occupancy
  Li  Li0  1  0.09647100  0.76922100  0.56240800  1
  Li  Li1  1  0.68340100  0.91392800  0.56460800  1
  Li  Li2  1  0.67371700  0.76400400  0.05580900  1
  Li  Li3  1  0.09417700  0.32474900  0.05817600  1
  Li  Li4  1  0.77326600  0.68528700  0.44094500  1
  Li  Li5  1  0.23088400  0.32803400  0.56000800  1
  Li  Li6  1  0.31714300  0.09298400  0.43980700  1
  Li  Li7  1  0.03644600  0.98347400  0.00268100  1
  V  V0  1  0.56559800  0.56707300  0.24853600  1
  V  V1  1  0.43426900  0.43147100  0.75342500  1
  V  V2  1  0.99786500  0.56451200  0.75539600  1
  V  V3  1  0.99833200  0.43398800  0.25052400  1
  V  V4  1  0.43232500  0.99389800  0.24183800  1
  V  V5  1  0.56732500  0.00269900  0.75154700  1
  P  P0  1  0.22341700  0.91822100  0.83950200  1
  P  P1  1  0.08833300  0.77113500  0.34161400  1
  P  P2  1  0.67968300  0.91290100  0.34634100  1
  P  P3  1  0.33163900  0.66317300  0.12812600  1
  P  P4  1  0.33242300  0.66438100  0.63077900  1
  P  P5  1  0.68634500  0.77422000  0.84051000  1
  P  P6  1  0.77127600  0.68097700  0.65949600  1
  P  P7  1  0.08539600  0.31225700  0.84340200  1
  P  P8  1  0.91665700  0.69296200  0.15840200  1
  P  P9  1  0.23102000  0.32126300  0.34184400  1
  P  P10  1  0.30764400  0.22255100  0.16088300  1
  P  P11  1  0.66341500  0.33118500  0.36673200  1
  P  P12  1  0.66822300  0.33510300  0.86937700  1
  P  P13  1  0.31839400  0.08805700  0.65680200  1
  P  P14  1  0.91475600  0.22834000  0.66129000  1
  P  P15  1  0.77834400  0.08282200  0.16371500  1
  O  O0  1  0.24251200  0.00315000  0.56618400  1
  O  O1  1  0.25553500  0.91814800  0.33832300  1
  O  O2  1  0.00046100  0.79183900  0.07655800  1
  O  O3  1  0.08465400  0.74306700  0.82821200  1
  O  O4  1  0.37997300  0.91940000  0.83094000  1
  O  O5  1  0.32541100  0.81026700  0.17424100  1
  O  O6  1  0.51995500  0.90201600  0.31882700  1
  O  O7  1  0.78503800  0.98852100  0.08354900  1
  O  O8  1  0.65484600  0.91267700  0.83055700  1
  O  O9  1  0.18351400  0.66632000  0.67312400  1
  O  O10  1  0.09805700  0.61941000  0.32160500  1
  O  O11  1  0.48499600  0.81438400  0.66662700  1
  O  O12  1  0.32593900  0.66281100  0.02373400  1
  O  O13  1  0.32269500  0.65341900  0.52568900  1
  O  O14  1  0.48748700  0.67747000  0.16704500  1
  O  O15  1  0.08931600  0.47239200  0.82801600  1
  O  O16  1  0.18484200  0.51099500  0.17076100  1
  O  O17  1  0.66559400  0.74779600  0.33778100  1
  O  O18  1  0.79484800  0.79016300  0.75037300  1
  O  O19  1  0.76239300  0.76027200  0.57091600  1
  O  O20  1  0.76548800  0.77807700  0.93067600  1
  O  O21  1  0.52759700  0.61657900  0.82438000  1
  O  O22  1  0.33418900  0.51474000  0.67286900  1
  O  O23  1  0.74170600  0.65605300  0.16296500  1
  O  O24  1  0.38120700  0.48179100  0.32191400  1
  O  O25  1  0.08449400  0.34237400  0.33222100  1
  O  O26  1  0.99208500  0.78929500  0.25642100  1
  O  O27  1  0.00475000  0.75936100  0.43268500  1
  O  O28  1  0.01277300  0.23656600  0.57946400  1
  O  O29  1  0.91867200  0.66063800  0.65894200  1
  O  O30  1  0.61900800  0.52213600  0.67662700  1
  O  O31  1  0.25634900  0.34155300  0.82937300  1
  O  O32  1  0.66958600  0.48533700  0.32973000  1
  O  O33  1  0.46282000  0.37886200  0.16829700  1
  O  O34  1  0.19937300  0.20157900  0.08142600  1
  O  O35  1  0.24200200  0.24998200  0.43275600  1
  O  O36  1  0.21187000  0.20186900  0.25883500  1
  O  O37  1  0.33913300  0.25652300  0.65886400  1
  O  O38  1  0.81442900  0.48778200  0.82286700  1
  O  O39  1  0.91994600  0.53627300  0.17218400  1
  O  O40  1  0.51785900  0.33417500  0.82287900  1
  O  O41  1  0.66930200  0.34981300  0.97299200  1
  O  O42  1  0.66767300  0.32898100  0.47118300  1
  O  O43  1  0.51601700  0.18150500  0.32456600  1
  O  O44  1  0.90784100  0.38164900  0.67943800  1
  O  O45  1  0.81540600  0.33714000  0.31850100  1
  O  O46  1  0.34200500  0.08272200  0.16722400  1
  O  O47  1  0.20301500  0.99670700  0.74256000  1
  O  O48  1  0.19816400  0.99640900  0.92112500  1
  O  O49  1  0.47798500  0.09727500  0.67522100  1
  O  O50  1  0.67485900  0.19417600  0.82631200  1
  O  O51  1  0.61854700  0.08416600  0.17214500  1
  O  O52  1  0.91705800  0.25660500  0.16149800  1
  O  O53  1  0.01883700  0.23787900  0.93577200  1
  O  O54  1  0.98820600  0.20039100  0.75799800  1
  O  O55  1  0.74630900  0.08385600  0.65965900  1
  O  O56  1  0.74218800  0.98793500  0.43882300  1
  O  O57  1  0.79947400  0.01610200  0.26271100  1
loop_
_geom_bond_atom_site_label_1
_geom_bond_atom_site_label_2
_geom_bond_distance
_geom_bond_site_symmetry_2
Li0 O0 2.002604 1_565
Li0 O27 2.030874 1_555
Li0 O29 2.045351 1_455
Li0 O9 2.253024 1_555
Li1 O56 1.906876 1_555
Li1 O55 1.981556 1_565
Li1 O19 2.003740 1_555
Li1 O11 2.217668 1_555
Li2 O7 1.941012 1_555
Li2 O20 1.962977 1_554
Li2 O23 2.141225 1_555
Li2 O14 2.232083 1_555
Li3 O53 1.911745 1_554
Li3 O34 1.962342 1_555
Li3 O52 2.106193 1_455
Li3 O16 2.242702 1_555
Li4 O27 2.003065 1_655
Li4 O19 2.005654 1_555
Li4 O17 2.068435 1_555
Li4 O32 2.312541 1_555
Li5 O28 1.873524 1_555
Li5 O35 1.982855 1_555
Li5 O37 2.080056 1_555
Li5 O22 2.250408 1_555
Li6 O0 1.972948 1_555
Li6 O35 2.006819 1_555
Li6 O1 2.078108 1_545
Li6 O43 2.349504 1_555
Li7 O48 1.909309 1_554
Li7 O2 2.022334 1_555
Li7 O34 2.220538 1_565
O0 P13 1.508658 1_555
O1 P1 1.546459 1_555
O1 V4 2.031989 1_555
O2 P8 1.473359 1_455
O3 P0 1.573727 1_555
O3 V2 1.829603 1_455
O4 P0 1.527292 1_555
O4 V5 1.947668 1_565
O5 P3 1.606095 1_555
O5 V4 1.831428 1_555
O6 P2 1.559499 1_555
O6 V4 1.873908 1_555
O7 P15 1.483923 1_565
O8 P5 1.537111 1_555
O8 V5 1.877409 1_565
O9 P4 1.580996 1_555
O9 V2 1.960132 1_455
O10 P1 1.557589 1_555
O10 V3 1.865728 1_455
O11 P4 1.563901 1_555
O11 V5 1.999817 1_565
O12 P3 1.483759 1_555
O13 P4 1.495832 1_555
O14 P3 1.558968 1_555
O14 V0 1.979680 1_555
O15 P7 1.562615 1_555
O15 V2 1.866576 1_455
O16 P3 1.584243 1_555
O16 V3 1.948544 1_455
O17 P2 1.554017 1_555
O17 V0 1.986698 1_555
O18 P6 1.613510 1_555
O18 P5 1.617742 1_555
O19 P6 1.505300 1_555
O20 P5 1.487503 1_555
O21 P5 1.563530 1_555
O21 V1 1.861191 1_555
O22 P4 1.590193 1_555
O22 V1 1.931487 1_555
O23 P8 1.560941 1_555
O23 V0 1.922988 1_555
O24 P9 1.548666 1_555
O24 V0 1.877247 1_555
O25 P9 1.550130 1_555
O25 V3 1.902308 1_455
O26 P1 1.597111 1_655
O26 P8 1.633709 1_555
O27 P1 1.501900 1_555
O28 P14 1.480740 1_455
O29 P6 1.547746 1_555
O29 V2 2.023770 1_555
O30 P6 1.542174 1_555
O30 V1 1.906122 1_555
O31 P7 1.558673 1_555
O31 V1 1.852092 1_555
O32 P11 1.570121 1_555
O32 V0 1.954284 1_555
O33 P10 1.526584 1_555
O33 V0 1.958660 1_555
O34 P10 1.489754 1_555
O35 P9 1.498686 1_555
O36 P9 1.599815 1_555
O36 P10 1.630739 1_555
O37 P13 1.555684 1_555
O37 V1 1.998247 1_555
O38 P12 1.606099 1_555
O38 V2 1.829460 1_555
O39 P8 1.560816 1_555
O39 V3 1.896845 1_555
O40 P12 1.606654 1_555
O40 V1 1.824219 1_555
O41 P12 1.477658 1_555
O42 P11 1.484724 1_555
O43 P11 1.570301 1_555
O43 V4 1.975588 1_545
O44 P14 1.553782 1_555
O44 V2 1.884787 1_555
O45 P11 1.607707 1_555
O45 V3 1.825210 1_555
O46 P10 1.564263 1_555
O46 V4 1.851618 1_545
O47 P13 1.596673 1_565
O47 P0 1.638733 1_555
O48 P0 1.472721 1_555
O49 P13 1.537936 1_555
O49 V5 1.898925 1_555
O50 P12 1.535598 1_555
O50 V5 1.939344 1_555
O51 P15 1.570961 1_555
O51 V4 1.860930 1_545
O52 P15 1.557355 1_555
O52 V3 1.961839 1_555
O53 P7 1.484828 1_555
O54 P7 1.589422 1_655
O54 P14 1.636274 1_555
O55 P14 1.543400 1_555
O55 V5 2.000565 1_555
O56 P2 1.478079 1_555
O57 P15 1.608436 1_555
O57 P2 1.619587 1_545
