# generated using pymatgen
data_Na20Zn7Sn12
_symmetry_space_group_name_H-M   'P 1'
_cell_length_a   9.37561710
_cell_length_b   9.46318988
_cell_length_c   27.85228121
_cell_angle_alpha   81.64481247
_cell_angle_beta   80.31044434
_cell_angle_gamma   60.30564932
_symmetry_Int_Tables_number   1
_chemical_formula_structural   Na20Zn7Sn12
_chemical_formula_sum   'Na40 Zn14 Sn24'
_cell_volume   2110.46942396
_cell_formula_units_Z   2
loop_
 _symmetry_equiv_pos_site_id
 _symmetry_equiv_pos_as_xyz
  1  'x, y, z'
loop_
 _atom_site_type_symbol
 _atom_site_label
 _atom_site_symmetry_multiplicity
 _atom_site_fract_x
 _atom_site_fract_y
 _atom_site_fract_z
 _atom_site_occupancy
  Na  Na0  1  0.85916557  0.48704962  0.56112870  1
  Na  Na1  1  0.14083443  0.51295038  0.43887130  1
  Na  Na2  1  0.90734389  0.01295038  0.93887130  1
  Na  Na3  1  0.09265611  0.98704962  0.06112870  1
  Na  Na4  1  0.52428285  0.13137291  0.43962163  1
  Na  Na5  1  0.47571715  0.86862709  0.56037837  1
  Na  Na6  1  0.09527739  0.36862709  0.06037837  1
  Na  Na7  1  0.90472261  0.63137291  0.93962163  1
  Na  Na8  1  0.63071860  0.19981424  0.10597222  1
  Na  Na9  1  0.36928140  0.80018576  0.89402778  1
  Na  Na10  1  0.93650506  0.30018576  0.39402778  1
  Na  Na11  1  0.06349494  0.69981424  0.60597222  1
  Na  Na12  1  0.49682462  0.81684510  0.00015238  1
  Na  Na13  1  0.50317538  0.18315490  0.99984762  1
  Na  Na14  1  0.31382209  0.68315490  0.49984762  1
  Na  Na15  1  0.68617791  0.31684510  0.50015238  1
  Na  Na16  1  0.26959044  0.84152969  0.18673410  1
  Na  Na17  1  0.73040956  0.15847031  0.81326590  1
  Na  Na18  1  0.29785423  0.65847031  0.31326590  1
  Na  Na19  1  0.70214577  0.34152969  0.68673410  1
  Na  Na20  1  0.30158629  0.28006081  0.31153187  1
  Na  Na21  1  0.69841371  0.71993919  0.68846813  1
  Na  Na22  1  0.89317897  0.21993919  0.18846813  1
  Na  Na23  1  0.10682103  0.78006081  0.81153187  1
  Na  Na24  1  0.70280342  0.69215363  0.43886272  1
  Na  Na25  1  0.29719658  0.30784637  0.56113728  1
  Na  Na26  1  0.83381977  0.80784637  0.06113728  1
  Na  Na27  1  0.16618023  0.19215363  0.93886272  1
  Na  Na28  1  0.63113009  0.58058771  0.10611403  1
  Na  Na29  1  0.36886991  0.41941229  0.89388597  1
  Na  Na30  1  0.31783182  0.91941229  0.39388597  1
  Na  Na31  1  0.68216818  0.08058771  0.60611403  1
  Na  Na32  1  0.68188389  0.27417258  0.31278354  1
  Na  Na33  1  0.31811611  0.72582742  0.68721646  1
  Na  Na34  1  0.26884002  0.22582742  0.18721646  1
  Na  Na35  1  0.73115998  0.77417258  0.81278354  1
  Na  Na36  1  0.25472180  0.58158716  0.10550953  1
  Na  Na37  1  0.74527820  0.41841284  0.89449047  1
  Na  Na38  1  0.94181849  0.91841284  0.39449047  1
  Na  Na39  1  0.05818151  0.08158716  0.60550953  1
  Zn  Zn0  1  0.60941479  0.88644864  0.16764743  1
  Zn  Zn1  1  0.39058521  0.11355136  0.83235257  1
  Zn  Zn2  1  0.66351086  0.61355136  0.33235257  1
  Zn  Zn3  1  0.33648914  0.38644864  0.66764743  1
  Zn  Zn4  1  0.63657299  0.08197523  0.22997311  1
  Zn  Zn5  1  0.36342701  0.91802477  0.77002689  1
  Zn  Zn6  1  0.94852133  0.41802477  0.27002689  1
  Zn  Zn7  1  0.05147867  0.58197523  0.72997311  1
  Zn  Zn8  1  0.50000000  0.50000000  -0.00000000  1
  Zn  Zn9  1  -0.00000000  0.00000000  0.50000000  1
  Zn  Zn10  1  0.11030045  0.59757948  0.23240266  1
  Zn  Zn11  1  0.88969955  0.40242052  0.76759734  1
  Zn  Zn12  1  0.94028259  0.90242052  0.26759734  1
  Zn  Zn13  1  0.05971741  0.09757948  0.73240266  1
  Sn  Sn0  1  0.65360180  0.94128548  0.33435484  1
  Sn  Sn1  1  0.34639820  0.05871452  0.66564516  1
  Sn  Sn2  1  0.92924212  0.55871452  0.16564516  1
  Sn  Sn3  1  0.07075788  0.44128548  0.83435484  1
  Sn  Sn4  1  0.91765183  0.88012927  0.16831700  1
  Sn  Sn5  1  0.08234817  0.11987073  0.83168300  1
  Sn  Sn6  1  0.96609809  0.61987073  0.33168300  1
  Sn  Sn7  1  0.03390191  0.38012927  0.66831700  1
  Sn  Sn8  1  0.41403760  0.00136375  0.09593320  1
  Sn  Sn9  1  0.58596240  0.99863625  0.90406680  1
  Sn  Sn10  1  0.51133455  0.49863625  0.40406680  1
  Sn  Sn11  1  0.48866545  0.50136375  0.59593320  1
  Sn  Sn12  1  0.81359937  0.33885067  0.01026739  1
  Sn  Sn13  1  0.18640063  0.66114933  0.98973261  1
  Sn  Sn14  1  0.16271743  0.16114933  0.48973261  1
  Sn  Sn15  1  0.83728257  0.83885067  0.51026739  1
  Sn  Sn16  1  0.45877655  0.42137046  0.20458736  1
  Sn  Sn17  1  0.54122345  0.57862954  0.79541264  1
  Sn  Sn18  1  0.08473437  0.07862954  0.29541264  1
  Sn  Sn19  1  0.91526563  0.92137046  0.70458736  1
  Sn  Sn20  1  0.45361990  0.91916819  0.26560374  1
  Sn  Sn21  1  0.54638010  0.08083181  0.73439626  1
  Sn  Sn22  1  0.63839184  0.58083181  0.23439626  1
  Sn  Sn23  1  0.36160816  0.41916819  0.76560374  1
loop_
_geom_bond_atom_site_label_1
_geom_bond_atom_site_label_2
_geom_bond_distance
_geom_bond_site_symmetry_2
Na0 Sn15 3.344055 1_555
Na0 Sn11 3.385690 1_555
Na0 Sn7 3.427353 1_655
Na0 Na39 3.469401 1_655
Na0 Na15 3.524112 1_555
Na0 Sn14 3.570243 1_655
Na0 Na25 3.583565 1_655
Na0 Na5 3.620186 1_555
Na0 Na24 3.801785 1_555
Na0 Na11 3.826433 1_655
Na0 Na19 3.895789 1_555
Na0 Na1 4.000094 1_655
Na0 Na21 4.109626 1_555
Na1 Sn14 3.344055 1_555
Na1 Sn10 3.385690 1_555
Na1 Sn6 3.427353 1_455
Na1 Na38 3.469401 1_455
Na1 Na14 3.524112 1_555
Na1 Sn15 3.570243 1_455
Na1 Na24 3.583565 1_455
Na1 Na4 3.620186 1_555
Na1 Na25 3.801785 1_555
Na1 Na10 3.826433 1_455
Na1 Na18 3.895789 1_555
Na1 Na20 4.109626 1_555
Na2 Sn13 3.344055 1_645
Na2 Sn9 3.385690 1_545
Na2 Sn5 3.427352 1_655
Na2 Na37 3.469401 1_555
Na2 Sn12 3.570243 1_556
Na2 Na27 3.583566 1_655
Na2 Na7 3.620186 1_545
Na2 Na26 3.801785 1_546
Na2 Na9 3.826433 1_645
Na2 Na3 4.000094 1_646
Na2 Na23 4.109626 1_645
Na3 Sn12 3.344055 1_465
Na3 Sn8 3.385690 1_565
Na3 Sn4 3.427352 1_455
Na3 Na36 3.469401 1_555
Na3 Sn13 3.570243 1_554
Na3 Na6 3.620186 1_565
Na3 Na8 3.826433 1_465
Na4 Sn14 3.330779 1_555
Na4 Sn0 3.387816 1_545
Na4 Sn10 3.420030 1_555
Na4 Sn15 3.529686 1_545
Na4 Na5 3.984660 1_545
Na5 Sn15 3.330779 1_555
Na5 Sn1 3.387816 1_565
Na5 Sn11 3.420030 1_555
Na5 Sn14 3.529686 1_565
Na6 Sn12 3.330779 1_455
Na6 Sn2 3.387816 1_455
Na6 Sn8 3.420030 1_555
Na6 Sn13 3.529686 1_554
Na6 Na7 3.984660 1_454
Na7 Sn13 3.330779 1_655
Na7 Sn3 3.387816 1_655
Na7 Sn9 3.420030 1_555
Na7 Sn12 3.529686 1_556
Na8 Zn0 3.282598 1_545
Na8 Sn16 3.372420 1_555
Na8 Sn4 3.374470 1_545
Na8 Sn12 3.384346 1_555
Na8 Sn8 3.443208 1_555
Na8 Zn4 3.472539 1_555
Na9 Zn1 3.282598 1_565
Na9 Sn17 3.372420 1_555
Na9 Sn5 3.374470 1_565
Na9 Sn13 3.384346 1_555
Na9 Sn9 3.443208 1_555
Na9 Zn5 3.472539 1_555
Na10 Zn2 3.282598 1_555
Na10 Sn18 3.372420 1_655
Na10 Sn6 3.374470 1_555
Na10 Sn14 3.384346 1_655
Na10 Na15 3.421053 1_555
Na10 Sn10 3.443208 1_555
Na10 Zn6 3.472539 1_555
Na10 Na24 3.534388 1_555
Na10 Na38 3.586540 1_545
Na10 Na30 3.605821 1_645
Na10 Na32 3.666387 1_555
Na10 Na20 3.723653 1_655
Na11 Zn3 3.282598 1_555
Na11 Sn19 3.372420 1_455
Na11 Sn7 3.374470 1_555
Na11 Sn15 3.384346 1_455
Na11 Na14 3.421053 1_555
Na11 Sn11 3.443208 1_555
Na11 Zn7 3.472539 1_555
Na11 Na25 3.534388 1_555
Na11 Na39 3.586540 1_565
Na11 Na31 3.605821 1_465
Na11 Na33 3.666387 1_555
Na11 Na21 3.723653 1_455
Na12 Zn8 2.984345 1_555
Na12 Sn8 3.175234 1_565
Na12 Sn9 3.186464 1_554
Na12 Na9 3.421053 1_554
Na12 Na28 3.440688 1_555
Na12 Na13 3.495100 1_564
Na12 Na3 3.524112 1_555
Na12 Na7 3.547905 1_554
Na12 Na27 3.774820 1_564
Na12 Na26 3.791173 1_555
Na13 Zn8 2.984345 1_556
Na13 Sn9 3.175234 1_545
Na13 Sn8 3.186464 1_556
Na13 Na8 3.421053 1_556
Na13 Na29 3.440688 1_555
Na13 Na2 3.524112 1_555
Na13 Na6 3.547905 1_556
Na13 Na26 3.774820 1_546
Na13 Na27 3.791173 1_555
Na14 Zn9 2.984345 1_565
Na14 Sn10 3.175234 1_555
Na14 Sn11 3.186464 1_555
Na14 Na30 3.440688 1_555
Na14 Na15 3.495100 1_555
Na14 Na5 3.547905 1_555
Na14 Na25 3.774820 1_555
Na14 Na24 3.791173 1_555
Na15 Zn9 2.984345 1_655
Na15 Sn11 3.175234 1_555
Na15 Sn10 3.186464 1_555
Na15 Na31 3.440688 1_555
Na15 Na4 3.547905 1_555
Na15 Na24 3.774820 1_555
Na15 Na25 3.791173 1_555
Na16 Sn8 3.206650 1_565
Na16 Sn4 3.256588 1_455
Na16 Zn10 3.331761 1_555
Na16 Zn12 3.348254 1_455
Na16 Zn0 3.364560 1_555
Na16 Sn20 3.367946 1_555
Na16 Sn16 3.455064 1_555
Na16 Sn22 3.456359 1_555
Na16 Na22 3.571049 1_465
Na16 Na34 3.635176 1_565
Na16 Na36 3.640276 1_555
Na16 Na28 3.658692 1_555
Na16 Sn18 3.681791 1_565
Na16 Na18 3.684626 1_555
Na16 Na3 3.895789 1_555
Na17 Sn9 3.206650 1_545
Na17 Sn5 3.256588 1_655
Na17 Zn11 3.331761 1_555
Na17 Zn13 3.348254 1_655
Na17 Zn1 3.364560 1_555
Na17 Sn21 3.367946 1_555
Na17 Sn17 3.455064 1_555
Na17 Sn23 3.456359 1_555
Na17 Na23 3.571049 1_645
Na17 Na35 3.635176 1_545
Na17 Na37 3.640276 1_555
Na17 Na29 3.658692 1_555
Na17 Sn19 3.681791 1_545
Na17 Na19 3.684626 1_555
Na17 Na2 3.895789 1_555
Na18 Sn10 3.206650 1_555
Na18 Sn6 3.256588 1_455
Na18 Zn12 3.331760 1_455
Na18 Zn10 3.348255 1_555
Na18 Zn2 3.364560 1_555
Na18 Sn22 3.367946 1_555
Na18 Sn18 3.455064 1_565
Na18 Sn20 3.456359 1_555
Na18 Na20 3.571049 1_555
Na18 Na32 3.635176 1_555
Na18 Na38 3.640276 1_455
Na18 Na30 3.658692 1_555
Na18 Sn16 3.681791 1_555
Na19 Sn11 3.206650 1_555
Na19 Sn7 3.256588 1_655
Na19 Zn13 3.331760 1_655
Na19 Zn11 3.348255 1_555
Na19 Zn3 3.364560 1_555
Na19 Sn23 3.367946 1_555
Na19 Sn19 3.455064 1_545
Na19 Sn21 3.456359 1_555
Na19 Na21 3.571049 1_555
Na19 Na33 3.635176 1_555
Na19 Na39 3.640276 1_655
Na19 Na31 3.658692 1_555
Na19 Sn17 3.681791 1_555
Na20 Sn6 3.233952 1_455
Na20 Zn6 3.250552 1_455
Na20 Sn20 3.341340 1_545
Na20 Zn10 3.342035 1_555
Na20 Sn0 3.347460 1_545
Na20 Zn4 3.397219 1_555
Na20 Sn16 3.485652 1_555
Na20 Sn18 3.516288 1_555
Na20 Na32 3.544253 1_555
Na20 Na34 3.657419 1_555
Na20 Na30 3.776217 1_545
Na21 Sn7 3.233952 1_655
Na21 Zn7 3.250552 1_655
Na21 Sn21 3.341340 1_565
Na21 Zn11 3.342035 1_555
Na21 Sn1 3.347460 1_565
Na21 Zn5 3.397219 1_555
Na21 Sn17 3.485652 1_555
Na21 Sn19 3.516288 1_555
Na21 Na33 3.544253 1_555
Na21 Na35 3.657419 1_555
Na21 Na31 3.776217 1_565
Na22 Sn4 3.233952 1_545
Na22 Zn4 3.250552 1_555
Na22 Sn22 3.341340 1_555
Na22 Zn12 3.342035 1_545
Na22 Sn2 3.347461 1_555
Na22 Zn6 3.397220 1_555
Na22 Sn18 3.485652 1_655
Na22 Sn16 3.516287 1_555
Na22 Na34 3.544253 1_655
Na22 Na32 3.657419 1_555
Na22 Na8 3.723653 1_555
Na22 Na28 3.776217 1_555
Na22 Na3 4.109626 1_645
Na23 Sn5 3.233952 1_565
Na23 Zn5 3.250552 1_555
Na23 Sn23 3.341340 1_555
Na23 Zn13 3.342035 1_565
Na23 Sn3 3.347461 1_555
Na23 Zn7 3.397220 1_555
Na23 Sn19 3.485652 1_455
Na23 Sn17 3.516287 1_555
Na23 Na35 3.544253 1_455
Na23 Na33 3.657419 1_555
Na23 Na9 3.723653 1_555
Na23 Na29 3.776217 1_555
Na24 Zn2 3.281776 1_555
Na24 Sn15 3.294335 1_555
Na24 Sn0 3.409371 1_555
Na24 Sn10 3.445841 1_555
Na24 Sn6 3.451516 1_555
Na24 Na30 3.502907 1_555
Na24 Na4 3.633027 1_565
Na24 Na38 3.766422 1_555
Na24 Na5 3.804070 1_555
Na25 Zn3 3.281776 1_555
Na25 Sn14 3.294335 1_555
Na25 Sn1 3.409371 1_555
Na25 Sn11 3.445841 1_555
Na25 Sn7 3.451516 1_555
Na25 Na31 3.502907 1_555
Na25 Na5 3.633027 1_545
Na25 Na39 3.766422 1_555
Na25 Na4 3.804070 1_555
Na26 Zn0 3.281776 1_555
Na26 Sn13 3.294335 1_654
Na26 Sn2 3.409371 1_555
Na26 Sn8 3.445840 1_565
Na26 Sn4 3.451516 1_555
Na26 Na28 3.502907 1_555
Na26 Na8 3.534388 1_565
Na26 Na3 3.583566 1_655
Na26 Na6 3.633027 1_655
Na26 Na36 3.766422 1_655
Na26 Na7 3.804070 1_554
Na27 Zn1 3.281776 1_555
Na27 Sn12 3.294335 1_456
Na27 Sn3 3.409371 1_555
Na27 Sn9 3.445840 1_545
Na27 Sn5 3.451516 1_555
Na27 Na29 3.502907 1_555
Na27 Na9 3.534388 1_545
Na27 Na7 3.633027 1_455
Na27 Na37 3.766422 1_455
Na27 Na3 3.801785 1_546
Na27 Na6 3.804070 1_556
Na28 Sn2 3.389849 1_555
Na28 Sn12 3.412687 1_555
Na28 Sn8 3.451821 1_565
Na28 Zn0 3.478036 1_555
Na28 Sn16 3.481827 1_555
Na28 Na36 3.527254 1_555
Na28 Sn22 3.585397 1_555
Na28 Na8 3.605821 1_555
Na28 Na6 3.848594 1_655
Na29 Sn3 3.389849 1_555
Na29 Sn13 3.412687 1_555
Na29 Sn9 3.451821 1_545
Na29 Zn1 3.478036 1_555
Na29 Sn17 3.481827 1_555
Na29 Na37 3.527254 1_555
Na29 Sn23 3.585397 1_555
Na29 Na9 3.605821 1_555
Na29 Na7 3.848594 1_455
Na30 Sn0 3.389849 1_555
Na30 Sn14 3.412687 1_565
Na30 Sn10 3.451821 1_555
Na30 Zn2 3.478036 1_555
Na30 Sn18 3.481826 1_565
Na30 Na38 3.527254 1_455
Na30 Sn20 3.585397 1_555
Na30 Na4 3.848594 1_565
Na31 Sn1 3.389849 1_555
Na31 Sn15 3.412687 1_545
Na31 Sn11 3.451821 1_555
Na31 Zn3 3.478036 1_555
Na31 Sn19 3.481826 1_545
Na31 Na39 3.527254 1_655
Na31 Sn21 3.585397 1_555
Na31 Na5 3.848594 1_545
Na32 Sn10 3.220055 1_555
Na32 Zn2 3.251178 1_555
Na32 Sn0 3.252505 1_545
Na32 Sn22 3.261960 1_555
Na32 Sn18 3.262576 1_655
Na32 Zn4 3.335077 1_555
Na32 Zn6 3.379218 1_555
Na32 Zn12 3.412570 1_545
Na32 Sn16 3.662276 1_555
Na32 Na38 3.736831 1_545
Na32 Na4 3.914506 1_555
Na33 Sn11 3.220055 1_555
Na33 Zn3 3.251178 1_555
Na33 Sn1 3.252505 1_565
Na33 Sn23 3.261960 1_555
Na33 Sn19 3.262576 1_455
Na33 Zn5 3.335077 1_555
Na33 Zn7 3.379218 1_555
Na33 Zn13 3.412570 1_565
Na33 Sn17 3.662276 1_555
Na33 Na39 3.736831 1_565
Na33 Na5 3.914506 1_555
Na34 Sn8 3.220055 1_555
Na34 Zn0 3.251178 1_545
Na34 Sn2 3.252505 1_455
Na34 Sn20 3.261960 1_545
Na34 Sn16 3.262576 1_555
Na34 Zn6 3.335077 1_455
Na34 Zn4 3.379218 1_555
Na34 Zn10 3.412570 1_555
Na34 Sn18 3.662276 1_555
Na34 Na8 3.666387 1_555
Na34 Na36 3.736831 1_555
Na34 Na6 3.914506 1_555
Na35 Sn9 3.220055 1_555
Na35 Zn1 3.251178 1_565
Na35 Sn3 3.252505 1_655
Na35 Sn21 3.261960 1_565
Na35 Sn17 3.262576 1_555
Na35 Zn7 3.335077 1_655
Na35 Zn5 3.379218 1_555
Na35 Zn11 3.412570 1_555
Na35 Sn19 3.662276 1_555
Na35 Na9 3.666387 1_555
Na35 Na37 3.736831 1_555
Na35 Na7 3.914506 1_555
Na36 Sn13 3.299616 1_554
Na36 Sn2 3.315542 1_455
Na36 Zn8 3.338525 1_555
Na36 Sn16 3.355796 1_555
Na36 Sn4 3.429079 1_455
Na36 Na6 3.497085 1_555
Na36 Zn10 3.562143 1_555
Na36 Na8 3.586540 1_555
Na37 Sn12 3.299616 1_556
Na37 Sn3 3.315542 1_655
Na37 Zn8 3.338525 1_556
Na37 Sn17 3.355796 1_555
Na37 Sn5 3.429079 1_655
Na37 Na7 3.497085 1_555
Na37 Zn11 3.562143 1_555
Na37 Na9 3.586540 1_555
Na38 Sn15 3.299616 1_555
Na38 Sn0 3.315542 1_555
Na38 Zn9 3.338525 1_665
Na38 Sn18 3.355796 1_665
Na38 Sn6 3.429079 1_555
Na38 Na4 3.497084 1_565
Na38 Zn12 3.562143 1_555
Na39 Sn14 3.299616 1_555
Na39 Sn1 3.315542 1_555
Na39 Zn9 3.338525 1_555
Na39 Sn19 3.355796 1_445
Na39 Sn7 3.429079 1_555
Na39 Na5 3.497084 1_545
Na39 Zn13 3.562143 1_555
Zn0 Zn4 2.837406 1_565
Zn1 Zn5 2.837406 1_545
Zn2 Zn6 2.837406 1_555
Zn3 Zn7 2.837406 1_555
Zn10 Zn12 2.750216 1_455
Zn10 Zn6 2.790482 1_455
Zn11 Zn13 2.750216 1_655
Zn11 Zn7 2.790482 1_655
Zn12 Zn4 2.790482 1_565
Zn13 Zn5 2.790482 1_545
Sn0 Zn12 2.890299 1_555
Sn0 Sn20 2.989957 1_555
Sn0 Sn6 3.000721 1_555
Sn0 Zn4 3.011814 1_565
Sn0 Zn2 3.064889 1_555
Sn1 Zn13 2.890299 1_555
Sn1 Sn21 2.989957 1_555
Sn1 Sn7 3.000721 1_555
Sn1 Zn5 3.011814 1_545
Sn1 Zn3 3.064889 1_555
Sn2 Zn10 2.890299 1_655
Sn2 Sn22 2.989957 1_555
Sn2 Sn4 3.000721 1_555
Sn2 Zn6 3.011814 1_555
Sn2 Zn0 3.064888 1_555
Sn3 Zn11 2.890299 1_455
Sn3 Sn5 3.000721 1_555
Sn3 Zn7 3.011814 1_555
Sn3 Zn1 3.064888 1_555
Sn4 Zn4 2.825783 1_565
Sn4 Zn12 2.854316 1_555
Sn4 Zn0 2.863933 1_555
Sn4 Zn10 2.917385 1_655
Sn5 Zn5 2.825783 1_545
Sn5 Zn13 2.854316 1_555
Sn5 Zn1 2.863933 1_555
Sn5 Zn11 2.917385 1_455
Sn6 Zn6 2.825783 1_555
Sn6 Zn10 2.854316 1_655
Sn6 Zn2 2.863933 1_555
Sn6 Zn12 2.917386 1_555
Sn7 Zn7 2.825783 1_555
Sn7 Zn11 2.854316 1_455
Sn7 Zn3 2.863933 1_555
Sn7 Zn13 2.917386 1_555
Sn8 Zn0 2.674778 1_545
Sn9 Zn1 2.674778 1_565
Sn10 Zn2 2.674778 1_555
Sn11 Zn3 2.674778 1_555
Sn12 Zn8 2.601174 1_555
Sn13 Zn8 2.601174 1_556
Sn14 Zn9 2.601174 1_555
Sn15 Zn9 2.601174 1_665
Sn16 Zn4 2.833115 1_555
Sn16 Zn10 2.860244 1_555
Sn16 Sn22 3.025675 1_555
Sn17 Zn5 2.833115 1_555
Sn17 Zn11 2.860244 1_555
Sn17 Sn23 3.025675 1_555
Sn18 Zn6 2.833115 1_455
Sn18 Zn12 2.860245 1_445
Sn18 Sn20 3.025675 1_545
Sn19 Zn7 2.833115 1_655
Sn19 Zn13 2.860245 1_665
Sn19 Sn21 3.025675 1_565
Sn20 Zn4 2.810992 1_565
Sn20 Zn0 2.851146 1_555
Sn20 Sn22 2.968904 1_555
Sn20 Zn2 3.118233 1_555
Sn21 Zn5 2.810992 1_545
Sn21 Zn1 2.851146 1_555
Sn21 Sn23 2.968904 1_555
Sn21 Zn3 3.118233 1_555
Sn22 Zn6 2.810992 1_555
Sn22 Zn2 2.851146 1_555
Sn22 Zn0 3.118233 1_555
Sn23 Zn7 2.810992 1_555
Sn23 Zn3 2.851146 1_555
Sn23 Sn3 2.989957 1_555
Sn23 Zn1 3.118233 1_555
