# generated using pymatgen
data_VZnBiO5
_symmetry_space_group_name_H-M   'P 1'
_cell_length_a   5.38190235
_cell_length_b   7.75716569
_cell_length_c   11.79108700
_cell_angle_alpha   90.00000000
_cell_angle_beta   90.00000000
_cell_angle_gamma   107.29570450
_symmetry_Int_Tables_number   1
_chemical_formula_structural   VZnBiO5
_chemical_formula_sum   'V4 Zn4 Bi4 O20'
_cell_volume   469.99955225
_cell_formula_units_Z   4
loop_
 _symmetry_equiv_pos_site_id
 _symmetry_equiv_pos_as_xyz
  1  'x, y, z'
loop_
 _atom_site_type_symbol
 _atom_site_label
 _atom_site_symmetry_multiplicity
 _atom_site_fract_x
 _atom_site_fract_y
 _atom_site_fract_z
 _atom_site_occupancy
  V  V0  1  0.78688400  0.96788000  0.64799000  1
  V  V1  1  0.21311600  0.03212000  0.35201000  1
  V  V2  1  0.71311600  0.53212000  0.14799000  1
  V  V3  1  0.28688400  0.46788000  0.85201000  1
  Zn  Zn0  1  0.62502300  0.17316000  0.91920100  1
  Zn  Zn1  1  0.37497700  0.82684000  0.08079900  1
  Zn  Zn2  1  0.87497700  0.32684000  0.41920100  1
  Zn  Zn3  1  0.12502300  0.67316000  0.58079900  1
  Bi  Bi0  1  0.11954500  0.17677200  0.09573100  1
  Bi  Bi1  1  0.88045500  0.82322800  0.90426900  1
  Bi  Bi2  1  0.61954500  0.67677200  0.40426900  1
  Bi  Bi3  1  0.38045500  0.32322800  0.59573100  1
  O  O0  1  0.57028300  0.33188100  0.07411500  1
  O  O1  1  0.03203800  0.32632500  0.93305700  1
  O  O2  1  0.48410800  0.64219100  0.17454900  1
  O  O3  1  0.75596800  0.51352000  0.52563900  1
  O  O4  1  0.80581600  0.48846200  0.28499000  1
  O  O5  1  0.30581600  0.98846200  0.21501000  1
  O  O6  1  0.53203800  0.82632500  0.56694300  1
  O  O7  1  0.46796200  0.17367500  0.43305700  1
  O  O8  1  0.24403200  0.48648000  0.47436100  1
  O  O9  1  0.92971700  0.16811900  0.57411500  1
  O  O10  1  0.19418400  0.51153800  0.71501000  1
  O  O11  1  0.42971700  0.66811900  0.92588500  1
  O  O12  1  0.07028300  0.83188100  0.42588500  1
  O  O13  1  0.69418400  0.01153800  0.78499000  1
  O  O14  1  0.74403200  0.98648000  0.02563900  1
  O  O15  1  0.25596800  0.01352000  0.97436100  1
  O  O16  1  0.51589200  0.35780900  0.82545100  1
  O  O17  1  0.96796200  0.67367500  0.06694300  1
  O  O18  1  0.01589200  0.85780900  0.67454900  1
  O  O19  1  0.98410800  0.14219100  0.32545100  1
loop_
_geom_bond_atom_site_label_1
_geom_bond_atom_site_label_2
_geom_bond_distance
_geom_bond_site_symmetry_2
Bi0 O15 2.177988 1_554
Bi0 O14 2.274310 1_445
Bi0 O1 2.360431 1_554
Bi0 O0 2.379451 1_555
Bi0 O5 2.446951 1_545
Bi0 O19 2.797102 1_455
Bi1 O14 2.177988 1_556
Bi1 O15 2.274310 1_665
Bi1 O17 2.360431 1_556
Bi1 O11 2.379451 1_555
Bi1 O13 2.446951 1_565
Bi1 O18 2.797102 1_655
Bi2 O3 2.177988 1_555
Bi2 O8 2.274310 1_555
Bi2 O6 2.360431 1_555
Bi2 O12 2.379451 1_655
Bi2 O4 2.446951 1_555
Bi2 O2 2.797102 1_555
Bi3 O8 2.177988 1_555
Bi3 O3 2.274310 1_555
Bi3 O7 2.360431 1_555
Bi3 O9 2.379451 1_455
Bi3 O10 2.446951 1_555
Bi3 O16 2.797102 1_555
O0 V2 1.747111 1_555
O0 Zn0 2.270434 1_554
O1 V3 1.761997 1_555
O1 Zn0 2.165448 1_455
O2 V2 1.723920 1_555
O2 Zn1 2.029472 1_555
O3 Zn3 2.106912 1_655
O3 Zn2 2.152632 1_555
O4 V2 1.753143 1_555
O4 Zn2 2.119468 1_555
O5 V1 1.753143 1_565
O5 Zn1 2.119468 1_555
O6 V0 1.761997 1_555
O6 Zn3 2.165448 1_555
O7 V1 1.761997 1_555
O7 Zn2 2.165448 1_555
O8 Zn2 2.106912 1_455
O8 Zn3 2.152632 1_555
O9 V0 1.747111 1_545
O9 Zn2 2.270434 1_555
O10 V3 1.753143 1_555
O10 Zn3 2.119468 1_555
O11 V3 1.747111 1_555
O11 Zn1 2.270434 1_556
O12 V1 1.747111 1_565
O12 Zn3 2.270434 1_555
O13 V0 1.753143 1_545
O13 Zn0 2.119468 1_555
O14 Zn1 2.106912 1_555
O14 Zn0 2.152632 1_564
O15 Zn0 2.106912 1_555
O15 Zn1 2.152632 1_546
O16 V3 1.723920 1_555
O16 Zn0 2.029472 1_555
O17 V2 1.761997 1_555
O17 Zn1 2.165448 1_655
O18 V0 1.723920 1_455
O18 Zn3 2.029472 1_555
O19 V1 1.723920 1_655
O19 Zn2 2.029472 1_555
