# generated using pymatgen
data_GdYScSbO7
_symmetry_space_group_name_H-M   'P 1'
_cell_length_a   7.40381326
_cell_length_b   7.40381326
_cell_length_c   7.40381326
_cell_angle_alpha   120.16163106
_cell_angle_beta   119.46422455
_cell_angle_gamma   90.32538021
_symmetry_Int_Tables_number   1
_chemical_formula_structural   GdYScSbO7
_chemical_formula_sum   'Gd2 Y2 Sc2 Sb2 O14'
_cell_volume   287.77303389
_cell_formula_units_Z   2
loop_
 _symmetry_equiv_pos_site_id
 _symmetry_equiv_pos_as_xyz
  1  'x, y, z'
loop_
 _atom_site_type_symbol
 _atom_site_label
 _atom_site_symmetry_multiplicity
 _atom_site_fract_x
 _atom_site_fract_y
 _atom_site_fract_z
 _atom_site_occupancy
  Gd  Gd0  1  0.00000000  0.50000000  0.50000000  1
  Gd  Gd1  1  0.50000000  0.50000000  0.00000000  1
  Y  Y0  1  0.00000000  0.50000000  0.00000000  1
  Y  Y1  1  0.00000000  0.00000000  0.50000000  1
  Sc  Sc0  1  0.50000000  0.00000000  0.00000000  1
  Sc  Sc1  1  0.50000000  0.50000000  0.50000000  1
  Sb  Sb0  1  0.50000000  0.00000000  0.50000000  1
  Sb  Sb1  1  0.00000000  0.00000000  0.00000000  1
  O  O0  1  0.88172600  0.63172600  0.25000000  1
  O  O1  1  0.11827400  0.36827400  0.75000000  1
  O  O2  1  0.82365900  0.07365900  0.75000000  1
  O  O3  1  0.40227700  0.65227700  0.75000000  1
  O  O4  1  0.84432600  0.67421300  0.77047100  1
  O  O5  1  0.40374200  0.07385500  0.72952900  1
  O  O6  1  0.84432600  0.07385500  0.17011200  1
  O  O7  1  0.40374200  0.67421300  0.32988800  1
  O  O8  1  0.17634100  0.92634100  0.25000000  1
  O  O9  1  0.59772300  0.34772300  0.25000000  1
  O  O10  1  0.15567400  0.32578700  0.22952900  1
  O  O11  1  0.59625800  0.92614500  0.27047100  1
  O  O12  1  0.15567400  0.92614500  0.82988800  1
  O  O13  1  0.59625800  0.32578700  0.67011200  1
loop_
_geom_bond_atom_site_label_1
_geom_bond_atom_site_label_2
_geom_bond_distance
_geom_bond_site_symmetry_2
Gd0 O0 2.318013 1_455
Gd0 O1 2.318013 1_555
Gd0 O9 2.451414 1_455
Gd0 O3 2.451414 1_555
Gd0 O4 2.587302 1_455
Gd0 O10 2.587302 1_555
Gd0 O6 2.587303 1_455
Gd0 O12 2.587303 1_555
Gd1 O0 2.318013 1_555
Gd1 O1 2.318013 1_554
Gd1 O3 2.451414 1_554
Gd1 O9 2.451414 1_555
Gd1 O5 2.587302 1_554
Gd1 O11 2.587302 1_555
Gd1 O13 2.587309 1_554
Gd1 O7 2.587309 1_555
O0 Y0 2.221310 1_655
O0 Y1 2.221310 1_665
O1 Y1 2.221310 1_555
O1 Y0 2.221310 1_556
O2 Sb0 2.018197 1_555
O2 Sb1 2.018197 1_656
O2 Y0 2.607509 1_656
O2 Y1 2.607509 1_655
O3 Sc1 2.109580 1_555
O3 Sc0 2.109580 1_566
O4 Sb1 1.989203 1_666
O4 Sc1 2.125506 1_555
O4 Y0 2.484494 1_656
O5 Sb0 1.989203 1_555
O5 Sc0 2.125506 1_556
O5 Y1 2.484494 1_555
O6 Sb1 1.989197 1_655
O6 Sc0 2.125507 1_555
O6 Y1 2.484500 1_655
O7 Sb0 1.989204 1_565
O7 Sc1 2.125501 1_555
O7 Y0 2.484495 1_555
O8 Sb0 2.018197 1_565
O8 Sb1 2.018197 1_565
O8 Y0 2.607509 1_555
O8 Y1 2.607509 1_565
O9 Sc1 2.109580 1_555
O9 Sc0 2.109580 1_555
O10 Sb1 1.989203 1_555
O10 Sc1 2.125506 1_555
O10 Y0 2.484494 1_555
O11 Sb0 1.989203 1_565
O11 Sc0 2.125506 1_565
O11 Y1 2.484494 1_665
O12 Sb1 1.989197 1_566
O12 Sc0 2.125507 1_566
O12 Y1 2.484500 1_565
O13 Sb0 1.989204 1_555
O13 Sc1 2.125501 1_555
O13 Y0 2.484495 1_656
