# generated using pymatgen
data_MgCd2
_symmetry_space_group_name_H-M   'P 1'
_cell_length_a   9.95352376
_cell_length_b   6.41030040
_cell_length_c   32.05034510
_cell_angle_alpha   90.00000000
_cell_angle_beta   90.00000000
_cell_angle_gamma   90.00000000
_symmetry_Int_Tables_number   1
_chemical_formula_structural   MgCd2
_chemical_formula_sum   'Mg32 Cd64'
_cell_volume   2044.97474788
_cell_formula_units_Z   32
loop_
 _symmetry_equiv_pos_site_id
 _symmetry_equiv_pos_as_xyz
  1  'x, y, z'
loop_
 _atom_site_type_symbol
 _atom_site_label
 _atom_site_symmetry_multiplicity
 _atom_site_fract_x
 _atom_site_fract_y
 _atom_site_fract_z
 _atom_site_occupancy
  Mg  Mg0_0  1  0.25000000  0.25000000  0.19490662  1
  Mg  Mg0_1  1  0.25000000  0.25000000  0.69490662  1
  Mg  Mg0_2  1  0.25000000  0.75000000  0.19490662  1
  Mg  Mg0_3  1  0.25000000  0.75000000  0.69490662  1
  Mg  Mg0_4  1  0.75000000  0.25000000  0.19490662  1
  Mg  Mg0_5  1  0.75000000  0.25000000  0.69490662  1
  Mg  Mg0_6  1  0.75000000  0.75000000  0.19490662  1
  Mg  Mg0_7  1  0.75000000  0.75000000  0.69490662  1
  Mg  Mg1_0  1  0.25000000  0.00000000  0.10931911  1
  Mg  Mg1_1  1  0.25000000  0.00000000  0.60931911  1
  Mg  Mg1_2  1  0.25000000  0.50000000  0.10931911  1
  Mg  Mg1_3  1  0.25000000  0.50000000  0.60931911  1
  Mg  Mg1_4  1  0.75000000  0.00000000  0.10931911  1
  Mg  Mg1_5  1  0.75000000  0.00000000  0.60931911  1
  Mg  Mg1_6  1  0.75000000  0.50000000  0.10931911  1
  Mg  Mg1_7  1  0.75000000  0.50000000  0.60931911  1
  Mg  Mg2_0  1  0.25000000  0.00000000  0.44490662  1
  Mg  Mg2_1  1  0.25000000  0.00000000  0.94490661  1
  Mg  Mg2_2  1  0.25000000  0.50000000  0.44490662  1
  Mg  Mg2_3  1  0.25000000  0.50000000  0.94490661  1
  Mg  Mg2_4  1  0.75000000  0.00000000  0.44490662  1
  Mg  Mg2_5  1  0.75000000  0.00000000  0.94490661  1
  Mg  Mg2_6  1  0.75000000  0.50000000  0.44490662  1
  Mg  Mg2_7  1  0.75000000  0.50000000  0.94490661  1
  Mg  Mg3_0  1  0.25000000  0.25000000  0.35931911  1
  Mg  Mg3_1  1  0.25000000  0.25000000  0.85931911  1
  Mg  Mg3_2  1  0.25000000  0.75000000  0.35931911  1
  Mg  Mg3_3  1  0.25000000  0.75000000  0.85931911  1
  Mg  Mg3_4  1  0.75000000  0.25000000  0.35931911  1
  Mg  Mg3_5  1  0.75000000  0.25000000  0.85931911  1
  Mg  Mg3_6  1  0.75000000  0.75000000  0.35931911  1
  Mg  Mg3_7  1  0.75000000  0.75000000  0.85931911  1
  Cd  Cd0_0  1  0.00000000  0.00000000  0.49990770  1
  Cd  Cd0_1  1  0.00000000  0.00000000  0.99990771  1
  Cd  Cd0_2  1  0.00000000  0.50000000  0.49990770  1
  Cd  Cd0_3  1  0.00000000  0.50000000  0.99990771  1
  Cd  Cd0_4  1  0.50000000  0.00000000  0.49990770  1
  Cd  Cd0_5  1  0.50000000  0.00000000  0.99990771  1
  Cd  Cd0_6  1  0.50000000  0.50000000  0.49990770  1
  Cd  Cd0_7  1  0.50000000  0.50000000  0.99990771  1
  Cd  Cd1_0  1  0.00000000  0.25000000  0.08422420  1
  Cd  Cd1_1  1  0.00000000  0.25000000  0.58422420  1
  Cd  Cd1_2  1  0.00000000  0.75000000  0.08422420  1
  Cd  Cd1_3  1  0.00000000  0.75000000  0.58422420  1
  Cd  Cd1_4  1  0.50000000  0.25000000  0.08422420  1
  Cd  Cd1_5  1  0.50000000  0.25000000  0.58422420  1
  Cd  Cd1_6  1  0.50000000  0.75000000  0.08422420  1
  Cd  Cd1_7  1  0.50000000  0.75000000  0.58422420  1
  Cd  Cd2_0  1  0.00000000  0.00000000  0.16661571  1
  Cd  Cd2_1  1  0.00000000  0.00000000  0.66661570  1
  Cd  Cd2_2  1  0.00000000  0.50000000  0.16661571  1
  Cd  Cd2_3  1  0.00000000  0.50000000  0.66661570  1
  Cd  Cd2_4  1  0.50000000  0.00000000  0.16661571  1
  Cd  Cd2_5  1  0.50000000  0.00000000  0.66661570  1
  Cd  Cd2_6  1  0.50000000  0.50000000  0.16661571  1
  Cd  Cd2_7  1  0.50000000  0.50000000  0.66661570  1
  Cd  Cd3_0  1  0.25000000  0.25000000  0.02836117  1
  Cd  Cd3_1  1  0.25000000  0.25000000  0.52836117  1
  Cd  Cd3_2  1  0.25000000  0.75000000  0.02836117  1
  Cd  Cd3_3  1  0.25000000  0.75000000  0.52836117  1
  Cd  Cd3_4  1  0.75000000  0.25000000  0.02836117  1
  Cd  Cd3_5  1  0.75000000  0.25000000  0.52836117  1
  Cd  Cd3_6  1  0.75000000  0.75000000  0.02836117  1
  Cd  Cd3_7  1  0.75000000  0.75000000  0.52836117  1
  Cd  Cd4_0  1  0.00000000  0.25000000  0.24990770  1
  Cd  Cd4_1  1  0.00000000  0.25000000  0.74990771  1
  Cd  Cd4_2  1  0.00000000  0.75000000  0.24990770  1
  Cd  Cd4_3  1  0.00000000  0.75000000  0.74990771  1
  Cd  Cd4_4  1  0.50000000  0.25000000  0.24990770  1
  Cd  Cd4_5  1  0.50000000  0.25000000  0.74990771  1
  Cd  Cd4_6  1  0.50000000  0.75000000  0.24990770  1
  Cd  Cd4_7  1  0.50000000  0.75000000  0.74990771  1
  Cd  Cd5_0  1  0.00000000  0.00000000  0.33422420  1
  Cd  Cd5_1  1  0.00000000  0.00000000  0.83422420  1
  Cd  Cd5_2  1  0.00000000  0.50000000  0.33422420  1
  Cd  Cd5_3  1  0.00000000  0.50000000  0.83422420  1
  Cd  Cd5_4  1  0.50000000  0.00000000  0.33422420  1
  Cd  Cd5_5  1  0.50000000  0.00000000  0.83422420  1
  Cd  Cd5_6  1  0.50000000  0.50000000  0.33422420  1
  Cd  Cd5_7  1  0.50000000  0.50000000  0.83422420  1
  Cd  Cd6_0  1  0.00000000  0.25000000  0.41661571  1
  Cd  Cd6_1  1  0.00000000  0.25000000  0.91661571  1
  Cd  Cd6_2  1  0.00000000  0.75000000  0.41661571  1
  Cd  Cd6_3  1  0.00000000  0.75000000  0.91661571  1
  Cd  Cd6_4  1  0.50000000  0.25000000  0.41661571  1
  Cd  Cd6_5  1  0.50000000  0.25000000  0.91661571  1
  Cd  Cd6_6  1  0.50000000  0.75000000  0.41661571  1
  Cd  Cd6_7  1  0.50000000  0.75000000  0.91661571  1
  Cd  Cd7_0  1  0.25000000  0.00000000  0.27836117  1
  Cd  Cd7_1  1  0.25000000  0.00000000  0.77836117  1
  Cd  Cd7_2  1  0.25000000  0.50000000  0.27836117  1
  Cd  Cd7_3  1  0.25000000  0.50000000  0.77836117  1
  Cd  Cd7_4  1  0.75000000  0.00000000  0.27836117  1
  Cd  Cd7_5  1  0.75000000  0.00000000  0.77836117  1
  Cd  Cd7_6  1  0.75000000  0.50000000  0.27836117  1
  Cd  Cd7_7  1  0.75000000  0.50000000  0.77836117  1
loop_
_geom_bond_atom_site_label_1
_geom_bond_atom_site_label_2
_geom_bond_distance
_geom_bond_site_symmetry_2
Mg0_0 Mg1_0 3.176932 1_555
Mg0_0 Mg1_2 3.176932 1_555
Mg0_0 Mg0_2 3.205150 1_555
Mg0_0 Mg0_2 3.205150 1_545
Mg0_1 Mg1_3 3.176932 1_555
Mg0_1 Mg1_1 3.176932 1_555
Mg0_1 Mg0_3 3.205150 1_555
Mg0_1 Mg0_3 3.205150 1_545
Mg0_2 Mg1_2 3.176932 1_555
Mg0_2 Mg1_0 3.176932 1_565
Mg0_3 Mg1_3 3.176932 1_555
Mg0_3 Mg1_1 3.176932 1_565
Mg0_4 Mg1_6 3.176932 1_555
Mg0_4 Mg1_4 3.176932 1_555
Mg0_4 Mg0_6 3.205150 1_555
Mg0_4 Mg0_6 3.205150 1_545
Mg0_5 Mg1_7 3.176932 1_555
Mg0_5 Mg1_5 3.176932 1_555
Mg0_5 Mg0_7 3.205150 1_555
Mg0_5 Mg0_7 3.205150 1_545
Mg0_6 Mg1_6 3.176932 1_555
Mg0_6 Mg1_4 3.176932 1_565
Mg0_7 Mg1_7 3.176932 1_555
Mg0_7 Mg1_5 3.176932 1_565
Mg1_0 Mg1_2 3.205150 1_545
Mg1_0 Mg1_2 3.205150 1_555
Mg1_1 Mg1_3 3.205150 1_555
Mg1_1 Mg1_3 3.205150 1_545
Mg1_4 Mg1_6 3.205150 1_555
Mg1_4 Mg1_6 3.205150 1_545
Mg1_5 Mg1_7 3.205150 1_545
Mg1_5 Mg1_7 3.205150 1_555
Mg2_0 Mg3_0 3.176932 1_555
Mg2_0 Mg3_2 3.176932 1_545
Mg2_0 Mg2_2 3.205150 1_545
Mg2_0 Mg2_2 3.205150 1_555
Mg2_1 Mg3_1 3.176932 1_555
Mg2_1 Mg3_3 3.176932 1_545
Mg2_1 Mg2_3 3.205150 1_545
Mg2_1 Mg2_3 3.205150 1_555
Mg2_2 Mg3_0 3.176932 1_555
Mg2_2 Mg3_2 3.176932 1_555
Mg2_3 Mg3_3 3.176932 1_555
Mg2_3 Mg3_1 3.176932 1_555
Mg2_4 Mg3_4 3.176932 1_555
Mg2_4 Mg3_6 3.176932 1_545
Mg2_4 Mg2_6 3.205150 1_555
Mg2_4 Mg2_6 3.205150 1_545
Mg2_5 Mg3_5 3.176932 1_555
Mg2_5 Mg3_7 3.176932 1_545
Mg2_5 Mg2_7 3.205150 1_545
Mg2_5 Mg2_7 3.205150 1_555
Mg2_6 Mg3_4 3.176932 1_555
Mg2_6 Mg3_6 3.176932 1_555
Mg2_7 Mg3_7 3.176932 1_555
Mg2_7 Mg3_5 3.176932 1_555
Mg3_0 Mg3_2 3.205150 1_555
Mg3_0 Mg3_2 3.205150 1_545
Mg3_1 Mg3_3 3.205150 1_555
Mg3_1 Mg3_3 3.205150 1_545
Mg3_4 Mg3_6 3.205150 1_555
Mg3_4 Mg3_6 3.205150 1_545
Mg3_5 Mg3_7 3.205150 1_555
Mg3_5 Mg3_7 3.205150 1_545
Cd0_0 Mg2_0 3.049511 1_555
Cd0_0 Mg2_4 3.049511 1_455
Cd0_0 Cd3_1 3.097084 1_555
Cd0_0 Cd3_5 3.097084 1_455
Cd0_0 Cd3_7 3.097084 1_445
Cd0_0 Cd3_3 3.097084 1_545
Cd0_0 Cd6_0 3.113628 1_555
Cd0_0 Cd6_2 3.113628 1_545
Cd0_0 Cd1_1 3.141825 1_555
Cd0_0 Cd1_3 3.141825 1_545
Cd0_0 Cd0_2 3.205150 1_545
Cd0_0 Cd0_2 3.205150 1_555
Cd0_1 Mg2_1 3.049511 1_555
Cd0_1 Mg2_5 3.049511 1_455
Cd0_1 Cd3_0 3.097084 1_556
Cd0_1 Cd3_4 3.097084 1_456
Cd0_1 Cd3_6 3.097084 1_446
Cd0_1 Cd3_2 3.097084 1_546
Cd0_1 Cd6_1 3.113628 1_555
Cd0_1 Cd6_3 3.113628 1_545
Cd0_1 Cd1_0 3.141825 1_556
Cd0_1 Cd1_2 3.141825 1_546
Cd0_1 Cd0_3 3.205150 1_555
Cd0_1 Cd0_3 3.205150 1_545
Cd0_2 Mg2_2 3.049511 1_555
Cd0_2 Mg2_6 3.049511 1_455
Cd0_2 Cd3_3 3.097084 1_555
Cd0_2 Cd3_7 3.097084 1_455
Cd0_2 Cd3_1 3.097084 1_555
Cd0_2 Cd3_5 3.097084 1_455
Cd0_2 Cd6_2 3.113628 1_555
Cd0_2 Cd6_0 3.113628 1_555
Cd0_2 Cd1_3 3.141825 1_555
Cd0_2 Cd1_1 3.141825 1_555
Cd0_3 Mg2_7 3.049511 1_455
Cd0_3 Mg2_3 3.049511 1_555
Cd0_3 Cd3_2 3.097084 1_556
Cd0_3 Cd3_6 3.097084 1_456
Cd0_3 Cd3_0 3.097084 1_556
Cd0_3 Cd3_4 3.097084 1_456
Cd0_3 Cd6_3 3.113628 1_555
Cd0_3 Cd6_1 3.113628 1_555
Cd0_3 Cd1_2 3.141825 1_556
Cd0_3 Cd1_0 3.141825 1_556
Cd0_4 Mg2_0 3.049511 1_555
Cd0_4 Mg2_4 3.049511 1_555
Cd0_4 Cd3_1 3.097084 1_555
Cd0_4 Cd3_5 3.097084 1_555
Cd0_4 Cd3_3 3.097084 1_545
Cd0_4 Cd3_7 3.097084 1_545
Cd0_4 Cd6_4 3.113628 1_555
Cd0_4 Cd6_6 3.113628 1_545
Cd0_4 Cd1_5 3.141825 1_555
Cd0_4 Cd1_7 3.141825 1_545
Cd0_4 Cd0_6 3.205150 1_555
Cd0_4 Cd0_6 3.205150 1_545
Cd0_5 Mg2_5 3.049511 1_555
Cd0_5 Mg2_1 3.049511 1_555
Cd0_5 Cd3_0 3.097084 1_556
Cd0_5 Cd3_4 3.097084 1_556
Cd0_5 Cd3_6 3.097084 1_546
Cd0_5 Cd3_2 3.097084 1_546
Cd0_5 Cd6_5 3.113628 1_555
Cd0_5 Cd6_7 3.113628 1_545
Cd0_5 Cd1_4 3.141825 1_556
Cd0_5 Cd1_6 3.141825 1_546
Cd0_5 Cd0_7 3.205150 1_545
Cd0_5 Cd0_7 3.205150 1_555
Cd0_6 Mg2_2 3.049511 1_555
Cd0_6 Mg2_6 3.049511 1_555
Cd0_6 Cd3_3 3.097084 1_555
Cd0_6 Cd3_1 3.097084 1_555
Cd0_6 Cd3_5 3.097084 1_555
Cd0_6 Cd3_7 3.097084 1_555
Cd0_6 Cd6_6 3.113628 1_555
Cd0_6 Cd6_4 3.113628 1_555
Cd0_6 Cd1_7 3.141825 1_555
Cd0_6 Cd1_5 3.141825 1_555
Cd0_7 Mg2_3 3.049511 1_555
Cd0_7 Mg2_7 3.049511 1_555
Cd0_7 Cd3_2 3.097084 1_556
Cd0_7 Cd3_6 3.097084 1_556
Cd0_7 Cd3_0 3.097084 1_556
Cd0_7 Cd3_4 3.097084 1_556
Cd0_7 Cd6_7 3.113628 1_555
Cd0_7 Cd6_5 3.113628 1_555
Cd0_7 Cd1_6 3.141825 1_556
Cd0_7 Cd1_4 3.141825 1_556
Cd1_0 Cd3_4 3.065563 1_455
Cd1_0 Cd3_0 3.065563 1_555
Cd1_0 Mg1_0 3.067114 1_555
Cd1_0 Mg1_4 3.067114 1_455
Cd1_0 Mg1_2 3.067114 1_555
Cd1_0 Mg1_6 3.067114 1_455
Cd1_0 Cd2_2 3.088919 1_555
Cd1_0 Cd2_0 3.088919 1_555
Cd1_0 Cd1_2 3.205150 1_555
Cd1_0 Cd1_2 3.205150 1_545
Cd1_1 Cd3_1 3.065563 1_555
Cd1_1 Cd3_5 3.065563 1_455
Cd1_1 Mg1_1 3.067114 1_555
Cd1_1 Mg1_5 3.067114 1_455
Cd1_1 Mg1_3 3.067114 1_555
Cd1_1 Mg1_7 3.067114 1_455
Cd1_1 Cd2_1 3.088919 1_555
Cd1_1 Cd2_3 3.088919 1_555
Cd1_1 Cd1_3 3.205150 1_555
Cd1_1 Cd1_3 3.205150 1_545
Cd1_2 Cd3_2 3.065563 1_555
Cd1_2 Cd3_6 3.065563 1_455
Cd1_2 Mg1_2 3.067114 1_555
Cd1_2 Mg1_6 3.067114 1_455
Cd1_2 Mg1_4 3.067114 1_465
Cd1_2 Mg1_0 3.067114 1_565
Cd1_2 Cd2_2 3.088919 1_555
Cd1_2 Cd2_0 3.088919 1_565
Cd1_3 Cd3_3 3.065563 1_555
Cd1_3 Cd3_7 3.065563 1_455
Cd1_3 Mg1_3 3.067114 1_555
Cd1_3 Mg1_7 3.067114 1_455
Cd1_3 Mg1_5 3.067114 1_465
Cd1_3 Mg1_1 3.067114 1_565
Cd1_3 Cd2_3 3.088919 1_555
Cd1_3 Cd2_1 3.088919 1_565
Cd1_4 Cd3_0 3.065563 1_555
Cd1_4 Cd3_4 3.065563 1_555
Cd1_4 Mg1_0 3.067114 1_555
Cd1_4 Mg1_6 3.067114 1_555
Cd1_4 Mg1_4 3.067114 1_555
Cd1_4 Mg1_2 3.067114 1_555
Cd1_4 Cd2_4 3.088919 1_555
Cd1_4 Cd2_6 3.088919 1_555
Cd1_4 Cd1_6 3.205150 1_555
Cd1_4 Cd1_6 3.205150 1_545
Cd1_5 Cd3_1 3.065563 1_555
Cd1_5 Cd3_5 3.065563 1_555
Cd1_5 Mg1_1 3.067114 1_555
Cd1_5 Mg1_5 3.067114 1_555
Cd1_5 Mg1_3 3.067114 1_555
Cd1_5 Mg1_7 3.067114 1_555
Cd1_5 Cd2_5 3.088919 1_555
Cd1_5 Cd2_7 3.088919 1_555
Cd1_5 Cd1_7 3.205150 1_555
Cd1_5 Cd1_7 3.205150 1_545
Cd1_6 Cd3_6 3.065563 1_555
Cd1_6 Cd3_2 3.065563 1_555
Cd1_6 Mg1_2 3.067114 1_555
Cd1_6 Mg1_6 3.067114 1_555
Cd1_6 Mg1_0 3.067114 1_565
Cd1_6 Mg1_4 3.067114 1_565
Cd1_6 Cd2_6 3.088919 1_555
Cd1_6 Cd2_4 3.088919 1_565
Cd1_7 Cd3_3 3.065563 1_555
Cd1_7 Cd3_7 3.065563 1_555
Cd1_7 Mg1_3 3.067114 1_555
Cd1_7 Mg1_7 3.067114 1_555
Cd1_7 Mg1_5 3.067114 1_565
Cd1_7 Mg1_1 3.067114 1_565
Cd1_7 Cd2_7 3.088919 1_555
Cd1_7 Cd2_5 3.088919 1_565
Cd2_0 Mg1_4 3.092623 1_455
Cd2_0 Mg1_0 3.092623 1_555
Cd2_0 Mg0_4 3.095554 1_455
Cd2_0 Mg0_0 3.095554 1_555
Cd2_0 Mg0_6 3.095554 1_445
Cd2_0 Mg0_2 3.095554 1_545
Cd2_0 Cd4_0 3.113628 1_555
Cd2_0 Cd4_2 3.113628 1_545
Cd2_0 Cd2_2 3.205150 1_555
Cd2_0 Cd2_2 3.205150 1_545
Cd2_1 Mg1_1 3.092623 1_555
Cd2_1 Mg1_5 3.092623 1_455
Cd2_1 Mg0_1 3.095554 1_555
Cd2_1 Mg0_5 3.095554 1_455
Cd2_1 Mg0_3 3.095554 1_545
Cd2_1 Mg0_7 3.095554 1_445
Cd2_1 Cd4_1 3.113628 1_555
Cd2_1 Cd4_3 3.113628 1_545
Cd2_1 Cd2_3 3.205150 1_545
Cd2_1 Cd2_3 3.205150 1_555
Cd2_2 Mg1_2 3.092623 1_555
Cd2_2 Mg1_6 3.092623 1_455
Cd2_2 Mg0_4 3.095554 1_455
Cd2_2 Mg0_2 3.095554 1_555
Cd2_2 Mg0_6 3.095554 1_455
Cd2_2 Mg0_0 3.095554 1_555
Cd2_2 Cd4_2 3.113628 1_555
Cd2_2 Cd4_0 3.113628 1_555
Cd2_3 Mg1_3 3.092623 1_555
Cd2_3 Mg1_7 3.092623 1_455
Cd2_3 Mg0_1 3.095554 1_555
Cd2_3 Mg0_5 3.095554 1_455
Cd2_3 Mg0_7 3.095554 1_455
Cd2_3 Mg0_3 3.095554 1_555
Cd2_3 Cd4_1 3.113628 1_555
Cd2_3 Cd4_3 3.113628 1_555
Cd2_4 Mg1_4 3.092623 1_555
Cd2_4 Mg1_0 3.092623 1_555
Cd2_4 Mg0_4 3.095554 1_555
Cd2_4 Mg0_0 3.095554 1_555
Cd2_4 Mg0_2 3.095554 1_545
Cd2_4 Mg0_6 3.095554 1_545
Cd2_4 Cd4_4 3.113628 1_555
Cd2_4 Cd4_6 3.113628 1_545
Cd2_4 Cd2_6 3.205150 1_545
Cd2_4 Cd2_6 3.205150 1_555
Cd2_5 Mg1_1 3.092623 1_555
Cd2_5 Mg1_5 3.092623 1_555
Cd2_5 Mg0_1 3.095554 1_555
Cd2_5 Mg0_5 3.095554 1_555
Cd2_5 Mg0_3 3.095554 1_545
Cd2_5 Mg0_7 3.095554 1_545
Cd2_5 Cd4_5 3.113628 1_555
Cd2_5 Cd4_7 3.113628 1_545
Cd2_5 Cd2_7 3.205150 1_545
Cd2_5 Cd2_7 3.205150 1_555
Cd2_6 Mg1_6 3.092623 1_555
Cd2_6 Mg1_2 3.092623 1_555
Cd2_6 Mg0_4 3.095554 1_555
Cd2_6 Mg0_2 3.095554 1_555
Cd2_6 Mg0_6 3.095554 1_555
Cd2_6 Mg0_0 3.095554 1_555
Cd2_6 Cd4_6 3.113628 1_555
Cd2_6 Cd4_4 3.113628 1_555
Cd2_7 Mg1_3 3.092623 1_555
Cd2_7 Mg1_7 3.092623 1_555
Cd2_7 Mg0_1 3.095554 1_555
Cd2_7 Mg0_5 3.095554 1_555
Cd2_7 Mg0_3 3.095554 1_555
Cd2_7 Mg0_7 3.095554 1_555
Cd2_7 Cd4_5 3.113628 1_555
Cd2_7 Cd4_7 3.113628 1_555
Cd3_0 Mg1_2 3.049733 1_555
Cd3_0 Mg1_0 3.049733 1_555
Cd3_0 Mg2_1 3.118096 1_554
Cd3_0 Mg2_3 3.118096 1_554
Cd3_0 Cd3_2 3.205150 1_555
Cd3_0 Cd3_2 3.205150 1_545
Cd3_1 Mg1_3 3.049733 1_555
Cd3_1 Mg1_1 3.049733 1_555
Cd3_1 Mg2_2 3.118096 1_555
Cd3_1 Mg2_0 3.118096 1_555
Cd3_1 Cd3_3 3.205150 1_555
Cd3_1 Cd3_3 3.205150 1_545
Cd3_2 Mg1_2 3.049733 1_555
Cd3_2 Mg1_0 3.049733 1_565
Cd3_2 Mg2_3 3.118096 1_554
Cd3_2 Mg2_1 3.118096 1_564
Cd3_3 Mg1_3 3.049733 1_555
Cd3_3 Mg1_1 3.049733 1_565
Cd3_3 Mg2_2 3.118096 1_555
Cd3_3 Mg2_0 3.118096 1_565
Cd3_4 Mg1_4 3.049733 1_555
Cd3_4 Mg1_6 3.049733 1_555
Cd3_4 Mg2_5 3.118096 1_554
Cd3_4 Mg2_7 3.118096 1_554
Cd3_4 Cd3_6 3.205150 1_555
Cd3_4 Cd3_6 3.205150 1_545
Cd3_5 Mg1_7 3.049733 1_555
Cd3_5 Mg1_5 3.049733 1_555
Cd3_5 Mg2_6 3.118096 1_555
Cd3_5 Mg2_4 3.118096 1_555
Cd3_5 Cd3_7 3.205150 1_555
Cd3_5 Cd3_7 3.205150 1_545
Cd3_6 Mg1_6 3.049733 1_555
Cd3_6 Mg1_4 3.049733 1_565
Cd3_6 Mg2_7 3.118096 1_554
Cd3_6 Mg2_5 3.118096 1_564
Cd3_7 Mg1_7 3.049733 1_555
Cd3_7 Mg1_5 3.049733 1_565
Cd3_7 Mg2_6 3.118096 1_555
Cd3_7 Mg2_4 3.118096 1_565
Cd4_0 Mg0_0 3.049511 1_555
Cd4_0 Mg0_4 3.049511 1_455
Cd4_0 Cd7_4 3.097084 1_455
Cd4_0 Cd7_0 3.097084 1_555
Cd4_0 Cd7_6 3.097084 1_455
Cd4_0 Cd7_2 3.097084 1_555
Cd4_0 Cd5_2 3.141825 1_555
Cd4_0 Cd5_0 3.141825 1_555
Cd4_0 Cd4_2 3.205150 1_555
Cd4_0 Cd4_2 3.205150 1_545
Cd4_1 Mg0_5 3.049511 1_455
Cd4_1 Mg0_1 3.049511 1_555
Cd4_1 Cd7_5 3.097084 1_455
Cd4_1 Cd7_1 3.097084 1_555
Cd4_1 Cd7_3 3.097084 1_555
Cd4_1 Cd7_7 3.097084 1_455
Cd4_1 Cd5_1 3.141825 1_555
Cd4_1 Cd5_3 3.141825 1_555
Cd4_1 Cd4_3 3.205150 1_555
Cd4_1 Cd4_3 3.205150 1_545
Cd4_2 Mg0_2 3.049511 1_555
Cd4_2 Mg0_6 3.049511 1_455
Cd4_2 Cd7_2 3.097084 1_555
Cd4_2 Cd7_6 3.097084 1_455
Cd4_2 Cd7_0 3.097084 1_565
Cd4_2 Cd7_4 3.097084 1_465
Cd4_2 Cd5_2 3.141825 1_555
Cd4_2 Cd5_0 3.141825 1_565
Cd4_3 Mg0_3 3.049511 1_555
Cd4_3 Mg0_7 3.049511 1_455
Cd4_3 Cd7_3 3.097084 1_555
Cd4_3 Cd7_7 3.097084 1_455
Cd4_3 Cd7_5 3.097084 1_465
Cd4_3 Cd7_1 3.097084 1_565
Cd4_3 Cd5_3 3.141825 1_555
Cd4_3 Cd5_1 3.141825 1_565
Cd4_4 Mg0_0 3.049511 1_555
Cd4_4 Mg0_4 3.049511 1_555
Cd4_4 Cd7_4 3.097084 1_555
Cd4_4 Cd7_2 3.097084 1_555
Cd4_4 Cd7_6 3.097084 1_555
Cd4_4 Cd7_0 3.097084 1_555
Cd4_4 Cd5_4 3.141825 1_555
Cd4_4 Cd5_6 3.141825 1_555
Cd4_4 Cd4_6 3.205150 1_555
Cd4_4 Cd4_6 3.205150 1_545
Cd4_5 Mg0_5 3.049511 1_555
Cd4_5 Mg0_1 3.049511 1_555
Cd4_5 Cd7_7 3.097084 1_555
Cd4_5 Cd7_1 3.097084 1_555
Cd4_5 Cd7_5 3.097084 1_555
Cd4_5 Cd7_3 3.097084 1_555
Cd4_5 Cd5_5 3.141825 1_555
Cd4_5 Cd5_7 3.141825 1_555
Cd4_5 Cd4_7 3.205150 1_555
Cd4_5 Cd4_7 3.205150 1_545
Cd4_6 Mg0_6 3.049511 1_555
Cd4_6 Mg0_2 3.049511 1_555
Cd4_6 Cd7_2 3.097084 1_555
Cd4_6 Cd7_6 3.097084 1_555
Cd4_6 Cd7_0 3.097084 1_565
Cd4_6 Cd7_4 3.097084 1_565
Cd4_6 Cd5_6 3.141825 1_555
Cd4_6 Cd5_4 3.141825 1_565
Cd4_7 Mg0_3 3.049511 1_555
Cd4_7 Mg0_7 3.049511 1_555
Cd4_7 Cd7_3 3.097084 1_555
Cd4_7 Cd7_7 3.097084 1_555
Cd4_7 Cd7_1 3.097084 1_565
Cd4_7 Cd7_5 3.097084 1_565
Cd4_7 Cd5_7 3.141825 1_555
Cd4_7 Cd5_5 3.141825 1_565
Cd5_0 Cd7_0 3.065563 1_555
Cd5_0 Cd7_4 3.065563 1_455
Cd5_0 Mg3_0 3.067114 1_555
Cd5_0 Mg3_4 3.067114 1_455
Cd5_0 Mg3_6 3.067114 1_445
Cd5_0 Mg3_2 3.067114 1_545
Cd5_0 Cd6_0 3.088919 1_555
Cd5_0 Cd6_2 3.088919 1_545
Cd5_0 Cd5_2 3.205150 1_545
Cd5_0 Cd5_2 3.205150 1_555
Cd5_1 Cd7_5 3.065563 1_455
Cd5_1 Cd7_1 3.065563 1_555
Cd5_1 Mg3_7 3.067114 1_445
Cd5_1 Mg3_1 3.067114 1_555
Cd5_1 Mg3_5 3.067114 1_455
Cd5_1 Mg3_3 3.067114 1_545
Cd5_1 Cd6_1 3.088919 1_555
Cd5_1 Cd6_3 3.088919 1_545
Cd5_1 Cd5_3 3.205150 1_545
Cd5_1 Cd5_3 3.205150 1_555
Cd5_2 Cd7_6 3.065563 1_455
Cd5_2 Cd7_2 3.065563 1_555
Cd5_2 Mg3_2 3.067114 1_555
Cd5_2 Mg3_6 3.067114 1_455
Cd5_2 Mg3_0 3.067114 1_555
Cd5_2 Mg3_4 3.067114 1_455
Cd5_2 Cd6_2 3.088919 1_555
Cd5_2 Cd6_0 3.088919 1_555
Cd5_3 Cd7_3 3.065563 1_555
Cd5_3 Cd7_7 3.065563 1_455
Cd5_3 Mg3_3 3.067114 1_555
Cd5_3 Mg3_7 3.067114 1_455
Cd5_3 Mg3_1 3.067114 1_555
Cd5_3 Mg3_5 3.067114 1_455
Cd5_3 Cd6_3 3.088919 1_555
Cd5_3 Cd6_1 3.088919 1_555
Cd5_4 Cd7_0 3.065563 1_555
Cd5_4 Cd7_4 3.065563 1_555
Cd5_4 Mg3_0 3.067114 1_555
Cd5_4 Mg3_4 3.067114 1_555
Cd5_4 Mg3_6 3.067114 1_545
Cd5_4 Mg3_2 3.067114 1_545
Cd5_4 Cd6_4 3.088919 1_555
Cd5_4 Cd6_6 3.088919 1_545
Cd5_4 Cd5_6 3.205150 1_545
Cd5_4 Cd5_6 3.205150 1_555
Cd5_5 Cd7_1 3.065563 1_555
Cd5_5 Cd7_5 3.065563 1_555
Cd5_5 Mg3_7 3.067114 1_545
Cd5_5 Mg3_1 3.067114 1_555
Cd5_5 Mg3_5 3.067114 1_555
Cd5_5 Mg3_3 3.067114 1_545
Cd5_5 Cd6_5 3.088919 1_555
Cd5_5 Cd6_7 3.088919 1_545
Cd5_5 Cd5_7 3.205150 1_545
Cd5_5 Cd5_7 3.205150 1_555
Cd5_6 Cd7_6 3.065563 1_555
Cd5_6 Cd7_2 3.065563 1_555
Cd5_6 Mg3_2 3.067114 1_555
Cd5_6 Mg3_6 3.067114 1_555
Cd5_6 Mg3_0 3.067114 1_555
Cd5_6 Mg3_4 3.067114 1_555
Cd5_6 Cd6_6 3.088919 1_555
Cd5_6 Cd6_4 3.088919 1_555
Cd5_7 Cd7_3 3.065563 1_555
Cd5_7 Cd7_7 3.065563 1_555
Cd5_7 Mg3_3 3.067114 1_555
Cd5_7 Mg3_7 3.067114 1_555
Cd5_7 Mg3_1 3.067114 1_555
Cd5_7 Mg3_5 3.067114 1_555
Cd5_7 Cd6_7 3.088919 1_555
Cd5_7 Cd6_5 3.088919 1_555
Cd6_0 Mg3_0 3.092623 1_555
Cd6_0 Mg3_4 3.092623 1_455
Cd6_0 Mg2_6 3.095554 1_455
Cd6_0 Mg2_0 3.095554 1_555
Cd6_0 Mg2_4 3.095554 1_455
Cd6_0 Mg2_2 3.095554 1_555
Cd6_0 Cd6_2 3.205150 1_555
Cd6_0 Cd6_2 3.205150 1_545
Cd6_1 Mg3_1 3.092623 1_555
Cd6_1 Mg3_5 3.092623 1_455
Cd6_1 Mg2_1 3.095554 1_555
Cd6_1 Mg2_5 3.095554 1_455
Cd6_1 Mg2_7 3.095554 1_455
Cd6_1 Mg2_3 3.095554 1_555
Cd6_1 Cd6_3 3.205150 1_555
Cd6_1 Cd6_3 3.205150 1_545
Cd6_2 Mg3_2 3.092623 1_555
Cd6_2 Mg3_6 3.092623 1_455
Cd6_2 Mg2_6 3.095554 1_455
Cd6_2 Mg2_2 3.095554 1_555
Cd6_2 Mg2_0 3.095554 1_565
Cd6_2 Mg2_4 3.095554 1_465
Cd6_3 Mg3_3 3.092623 1_555
Cd6_3 Mg3_7 3.092623 1_455
Cd6_3 Mg2_7 3.095554 1_455
Cd6_3 Mg2_3 3.095554 1_555
Cd6_3 Mg2_5 3.095554 1_465
Cd6_3 Mg2_1 3.095554 1_565
Cd6_4 Mg3_0 3.092623 1_555
Cd6_4 Mg3_4 3.092623 1_555
Cd6_4 Mg2_6 3.095554 1_555
Cd6_4 Mg2_0 3.095554 1_555
Cd6_4 Mg2_4 3.095554 1_555
Cd6_4 Mg2_2 3.095554 1_555
Cd6_4 Cd6_6 3.205150 1_555
Cd6_4 Cd6_6 3.205150 1_545
Cd6_5 Mg3_1 3.092623 1_555
Cd6_5 Mg3_5 3.092623 1_555
Cd6_5 Mg2_1 3.095554 1_555
Cd6_5 Mg2_7 3.095554 1_555
Cd6_5 Mg2_5 3.095554 1_555
Cd6_5 Mg2_3 3.095554 1_555
Cd6_5 Cd6_7 3.205150 1_555
Cd6_5 Cd6_7 3.205150 1_545
Cd6_6 Mg3_2 3.092623 1_555
Cd6_6 Mg3_6 3.092623 1_555
Cd6_6 Mg2_6 3.095554 1_555
Cd6_6 Mg2_2 3.095554 1_555
Cd6_6 Mg2_0 3.095554 1_565
Cd6_6 Mg2_4 3.095554 1_565
Cd6_7 Mg3_3 3.092623 1_555
Cd6_7 Mg3_7 3.092623 1_555
Cd6_7 Mg2_3 3.095554 1_555
Cd6_7 Mg2_7 3.095554 1_555
Cd6_7 Mg2_1 3.095554 1_565
Cd6_7 Mg2_5 3.095554 1_565
Cd7_0 Mg3_0 3.049733 1_555
Cd7_0 Mg3_2 3.049733 1_545
Cd7_0 Mg0_0 3.118096 1_555
Cd7_0 Mg0_2 3.118096 1_545
Cd7_0 Cd7_2 3.205150 1_555
Cd7_0 Cd7_2 3.205150 1_545
Cd7_1 Mg3_1 3.049733 1_555
Cd7_1 Mg3_3 3.049733 1_545
Cd7_1 Mg0_1 3.118096 1_555
Cd7_1 Mg0_3 3.118096 1_545
Cd7_1 Cd7_3 3.205150 1_545
Cd7_1 Cd7_3 3.205150 1_555
Cd7_2 Mg3_2 3.049733 1_555
Cd7_2 Mg3_0 3.049733 1_555
Cd7_2 Mg0_2 3.118096 1_555
Cd7_2 Mg0_0 3.118096 1_555
Cd7_3 Mg3_3 3.049733 1_555
Cd7_3 Mg3_1 3.049733 1_555
Cd7_3 Mg0_1 3.118096 1_555
Cd7_3 Mg0_3 3.118096 1_555
Cd7_4 Mg3_4 3.049733 1_555
Cd7_4 Mg3_6 3.049733 1_545
Cd7_4 Mg0_4 3.118096 1_555
Cd7_4 Mg0_6 3.118096 1_545
Cd7_4 Cd7_6 3.205150 1_555
Cd7_4 Cd7_6 3.205150 1_545
Cd7_5 Mg3_5 3.049733 1_555
Cd7_5 Mg3_7 3.049733 1_545
Cd7_5 Mg0_5 3.118096 1_555
Cd7_5 Mg0_7 3.118096 1_545
Cd7_5 Cd7_7 3.205150 1_555
Cd7_5 Cd7_7 3.205150 1_545
Cd7_6 Mg3_6 3.049733 1_555
Cd7_6 Mg3_4 3.049733 1_555
Cd7_6 Mg0_4 3.118096 1_555
Cd7_6 Mg0_6 3.118096 1_555
Cd7_7 Mg3_7 3.049733 1_555
Cd7_7 Mg3_5 3.049733 1_555
Cd7_7 Mg0_7 3.118096 1_555
Cd7_7 Mg0_5 3.118096 1_555
