# generated using pymatgen
data_LiY9(Si3O13)2
_symmetry_space_group_name_H-M   'P 1'
_cell_length_a   9.45480138
_cell_length_b   9.45480138
_cell_length_c   6.78190600
_cell_angle_alpha   90.00000000
_cell_angle_beta   90.00000000
_cell_angle_gamma   119.99999564
_symmetry_Int_Tables_number   1
_chemical_formula_structural   LiY9(Si3O13)2
_chemical_formula_sum   'Li1 Y9 Si6 O26'
_cell_volume   525.03376796
_cell_formula_units_Z   1
loop_
 _symmetry_equiv_pos_site_id
 _symmetry_equiv_pos_as_xyz
  1  'x, y, z'
loop_
 _atom_site_type_symbol
 _atom_site_label
 _atom_site_symmetry_multiplicity
 _atom_site_fract_x
 _atom_site_fract_y
 _atom_site_fract_z
 _atom_site_occupancy
  Li  Li0  1  0.33333300  0.66666700  0.02397000  1
  Y  Y0  1  0.90381800  0.33493900  0.24936900  1
  Y  Y1  1  0.43112100  0.09618200  0.24936900  1
  Y  Y2  1  0.66506100  0.56887900  0.24936900  1
  Y  Y3  1  0.43389000  0.33589700  0.75195500  1
  Y  Y4  1  0.90200700  0.56611000  0.75195500  1
  Y  Y5  1  0.66410300  0.09799300  0.75195500  1
  Y  Y6  1  0.00000000  0.00000000  0.50270000  1
  Y  Y7  1  0.00000000  0.00000000  0.99894700  1
  Y  Y8  1  0.33333300  0.66666700  0.49924900  1
  Si  Si0  1  0.69251700  0.96084800  0.25135400  1
  Si  Si1  1  0.26833100  0.30748300  0.25135400  1
  Si  Si2  1  0.03915200  0.73166900  0.25135400  1
  Si  Si3  1  0.63698600  0.70665100  0.75107400  1
  Si  Si4  1  0.06966400  0.36301400  0.75107400  1
  Si  Si5  1  0.29334900  0.93033600  0.75107400  1
  O  O0  1  0.76429500  0.08613400  0.44236700  1
  O  O1  1  0.32183900  0.23570500  0.44236700  1
  O  O2  1  0.91386600  0.67816100  0.44236700  1
  O  O3  1  0.58935500  0.57838700  0.93521700  1
  O  O4  1  0.98903300  0.41064500  0.93521700  1
  O  O5  1  0.42161300  0.01096700  0.93521700  1
  O  O6  1  0.57742200  0.58377700  0.55779200  1
  O  O7  1  0.00635500  0.42257800  0.55779200  1
  O  O8  1  0.41622300  0.99364500  0.55779200  1
  O  O9  1  0.76025300  0.08244500  0.05807300  1
  O  O10  1  0.32219300  0.23974700  0.05807300  1
  O  O11  1  0.91755500  0.67780700  0.05807300  1
  O  O12  1  0.49636100  0.84822300  0.25484200  1
  O  O13  1  0.35186300  0.50363900  0.25484200  1
  O  O14  1  0.15177700  0.64813700  0.25484200  1
  O  O15  1  0.83558800  0.83019600  0.75098700  1
  O  O16  1  0.99460800  0.16441200  0.75098700  1
  O  O17  1  0.16980400  0.00539200  0.75098700  1
  O  O18  1  0.79699300  0.86278600  0.25034900  1
  O  O19  1  0.06579400  0.20300700  0.25034900  1
  O  O20  1  0.13721400  0.93420600  0.25034900  1
  O  O21  1  0.54029400  0.80869100  0.74102000  1
  O  O22  1  0.26839700  0.45970600  0.74102000  1
  O  O23  1  0.19130900  0.73160300  0.74102000  1
  O  O24  1  0.66666700  0.33333300  0.24924700  1
  O  O25  1  0.66666700  0.33333300  0.74268800  1
loop_
_geom_bond_atom_site_label_1
_geom_bond_atom_site_label_2
_geom_bond_distance
_geom_bond_site_symmetry_2
Li0 O14 2.264546 1_555
Li0 O12 2.264551 1_555
Li0 O13 2.264559 1_555
Li0 O23 2.585892 1_554
Li0 O21 2.585897 1_554
Li0 O22 2.585898 1_554
O0 Si0 1.654685 1_545
O0 Y5 2.329047 1_555
O0 Y0 2.425693 1_555
O0 Y6 2.758972 1_655
O1 Si1 1.654685 1_555
O1 Y3 2.329047 1_555
O1 Y1 2.425693 1_555
O1 Y6 2.758972 1_555
O2 Si2 1.654685 1_655
O2 Y4 2.329047 1_555
O2 Y2 2.425693 1_555
O2 Y6 2.758972 1_665
O3 Si3 1.639190 1_555
O3 Y2 2.263629 1_556
O3 Y3 2.364685 1_555
O4 Si4 1.639178 1_655
O4 Y0 2.263631 1_556
O4 Y4 2.364691 1_555
O5 Si5 1.639188 1_545
O5 Y1 2.263632 1_556
O5 Y5 2.364683 1_555
O6 Si3 1.652516 1_555
O6 Y2 2.279987 1_555
O6 Y3 2.426480 1_555
O6 Y8 2.811848 1_555
O7 Si4 1.652511 1_555
O7 Y0 2.279987 1_455
O7 Y4 2.426480 1_455
O7 Y8 2.811841 1_555
O8 Si5 1.652516 1_555
O8 Y1 2.279987 1_565
O8 Y5 2.426480 1_565
O8 Y8 2.811839 1_555
O9 Si0 1.647377 1_545
O9 Y5 2.300372 1_554
O9 Y0 2.446275 1_555
O9 Y7 2.770119 1_654
O10 Si1 1.647381 1_555
O10 Y3 2.300370 1_554
O10 Y1 2.446269 1_555
O10 Y7 2.770125 1_554
O11 Si2 1.647376 1_655
O11 Y4 2.300368 1_554
O11 Y2 2.446276 1_555
O11 Y7 2.770128 1_664
O12 Si0 1.612196 1_555
O12 Y8 2.328963 1_555
O12 Y1 2.706323 1_565
O13 Si1 1.612196 1_555
O13 Y8 2.328971 1_555
O13 Y2 2.706314 1_555
O14 Si2 1.612204 1_555
O14 Y8 2.328958 1_555
O14 Y0 2.706317 1_455
O15 Si3 1.642249 1_555
O15 Y7 2.307852 1_665
O15 Y6 2.309469 1_665
O15 Y4 2.863005 1_555
O16 Si4 1.642250 1_655
O16 Y7 2.307852 1_655
O16 Y6 2.309469 1_655
O16 Y5 2.863006 1_555
O17 Si5 1.642241 1_545
O17 Y7 2.307852 1_555
O17 Y6 2.309469 1_555
O17 Y3 2.863006 1_555
O18 Si0 1.658692 1_555
O18 Y7 2.404998 1_664
O18 Y6 2.409565 1_665
O18 Y2 2.410736 1_555
O19 Si1 1.658684 1_555
O19 Y7 2.404997 1_554
O19 Y6 2.409564 1_555
O19 Y0 2.410744 1_455
O20 Si2 1.658684 1_555
O20 Y7 2.405003 1_564
O20 Y6 2.409570 1_565
O20 Y1 2.410736 1_565
O21 Si3 1.628861 1_555
O21 Y5 2.378172 1_565
O21 Y8 2.386010 1_555
O22 Si4 1.628870 1_555
O22 Y3 2.378172 1_555
O22 Y8 2.386011 1_555
O23 Si5 1.628869 1_555
O23 Y4 2.378172 1_455
O23 Y8 2.386004 1_555
O24 Y0 2.234662 1_555
O24 Y1 2.234667 1_555
O24 Y2 2.234672 1_555
O25 Y5 2.213964 1_555
O25 Y4 2.213968 1_555
O25 Y3 2.213973 1_555
