# generated using pymatgen
data_Li2Mn3CoO8
_symmetry_space_group_name_H-M   'P 1'
_cell_length_a   5.82743684
_cell_length_b   8.45367559
_cell_length_c   5.83069433
_cell_angle_alpha   90.00683183
_cell_angle_beta   89.99829139
_cell_angle_gamma   90.31659584
_symmetry_Int_Tables_number   1
_chemical_formula_structural   Li2Mn3CoO8
_chemical_formula_sum   'Li4 Mn6 Co2 O16'
_cell_volume   287.23462681
_cell_formula_units_Z   2
loop_
 _symmetry_equiv_pos_site_id
 _symmetry_equiv_pos_as_xyz
  1  'x, y, z'
loop_
 _atom_site_type_symbol
 _atom_site_label
 _atom_site_symmetry_multiplicity
 _atom_site_fract_x
 _atom_site_fract_y
 _atom_site_fract_z
 _atom_site_occupancy
  Li  Li0  1  0.24186900  0.11498400  0.99996300  1
  Li  Li1  1  0.74548300  0.61555200  0.50000600  1
  Li  Li2  1  0.75809200  0.88500600  0.00003400  1
  Li  Li3  1  0.25446900  0.38444100  0.50000200  1
  Mn  Mn0  1  0.75352500  0.25671200  0.25316600  1
  Mn  Mn1  1  0.24644700  0.74318800  0.74682400  1
  Mn  Mn2  1  0.75352500  0.25672000  0.74677700  1
  Mn  Mn3  1  0.24646800  0.74321900  0.25318600  1
  Mn  Mn4  1  0.50005800  0.49999500  0.99995600  1
  Mn  Mn5  1  0.00013600  0.00020400  0.50007900  1
  Co  Co0  1  0.49996800  0.00000700  0.49998200  1
  Co  Co1  1  0.00006900  0.50001900  0.00001900  1
  O  O0  1  0.52544800  0.26812200  0.99995100  1
  O  O1  1  0.02936700  0.73816100  0.49998900  1
  O  O2  1  0.47455700  0.73184500  0.00002800  1
  O  O3  1  0.97061100  0.26181500  0.50001000  1
  O  O4  1  0.97456600  0.27118600  0.99996400  1
  O  O5  1  0.46399400  0.74374200  0.50004500  1
  O  O6  1  0.74909500  0.48813700  0.78162600  1
  O  O7  1  0.23914100  0.96819900  0.26667300  1
  O  O8  1  0.74905000  0.48817500  0.21832900  1
  O  O9  1  0.23914800  0.96815200  0.73318000  1
  O  O10  1  0.25097600  0.51180700  0.78171800  1
  O  O11  1  0.76080500  0.03186600  0.26688200  1
  O  O12  1  0.25096400  0.51185100  0.21828200  1
  O  O13  1  0.76076800  0.03182600  0.73334200  1
  O  O14  1  0.02540800  0.72880400  0.00002800  1
  O  O15  1  0.53599300  0.25626400  0.49996000  1
loop_
_geom_bond_atom_site_label_1
_geom_bond_atom_site_label_2
_geom_bond_distance
_geom_bond_site_symmetry_2
Li0 O7 1.989625 1_546
Li0 O9 1.989975 1_545
Li0 O4 2.047634 1_455
Li0 O0 2.093604 1_555
Li1 O1 1.947341 1_655
Li1 O8 1.963963 1_555
Li1 O6 1.964080 1_555
Li1 O5 1.970984 1_555
Li2 O13 1.989726 1_564
Li2 O11 1.990419 1_565
Li2 O14 2.047692 1_655
Li2 O2 2.093522 1_555
Li3 O3 1.947289 1_455
Li3 O10 1.964096 1_555
Li3 O12 1.964536 1_555
Li3 O15 1.971094 1_555
Mn0 O11 1.903173 1_555
Mn0 O3 1.916564 1_555
Mn0 O15 1.917672 1_555
Mn0 O4 1.962640 1_554
Mn0 O8 1.967568 1_555
Mn0 O0 1.989272 1_554
Mn1 O9 1.904155 1_555
Mn1 O1 1.916490 1_555
Mn1 O5 1.917663 1_555
Mn1 O14 1.962597 1_556
Mn1 O10 1.966919 1_555
Mn1 O2 1.989324 1_556
Mn2 O13 1.903486 1_555
Mn2 O3 1.916177 1_555
Mn2 O15 1.917828 1_555
Mn2 O4 1.962607 1_555
Mn2 O6 1.967135 1_555
Mn2 O0 1.989015 1_555
Mn3 O7 1.904238 1_555
Mn3 O1 1.916387 1_555
Mn3 O5 1.917988 1_555
Mn3 O14 1.962527 1_555
Mn3 O12 1.966764 1_555
Mn3 O2 1.988981 1_555
Mn4 O10 1.933338 1_555
Mn4 O6 1.933443 1_555
Mn4 O8 1.933466 1_556
Mn4 O12 1.933677 1_556
Mn4 O2 1.966429 1_556
Mn4 O0 1.966570 1_555
Mn5 O9 1.965966 1_545
Mn5 O7 1.967008 1_545
Mn5 O11 1.967207 1_455
Mn5 O13 1.967477 1_455
Mn5 O3 2.219205 1_455
Mn5 O1 2.222704 1_545
Co0 O11 2.055640 1_555
Co0 O9 2.055941 1_545
Co0 O7 2.056366 1_545
Co0 O13 2.056459 1_555
Co0 O15 2.175307 1_555
Co0 O5 2.175347 1_545
Co1 O14 1.938889 1_555
Co1 O4 1.939361 1_454
Co1 O12 1.940543 1_555
Co1 O10 1.940681 1_554
Co1 O8 1.941230 1_455
Co1 O6 1.941407 1_454
