# generated using pymatgen
data_Ho2Si5Rh3
_symmetry_space_group_name_H-M   'P 1'
_cell_length_a   8.10075201
_cell_length_b   8.10094291
_cell_length_c   8.10010525
_cell_angle_alpha   138.83729109
_cell_angle_beta   105.23090365
_cell_angle_gamma   89.11630705
_symmetry_Int_Tables_number   1
_chemical_formula_structural   Ho2Si5Rh3
_chemical_formula_sum   'Ho4 Si10 Rh6'
_cell_volume   323.36672867
_cell_formula_units_Z   2
loop_
 _symmetry_equiv_pos_site_id
 _symmetry_equiv_pos_as_xyz
  1  'x, y, z'
loop_
 _atom_site_type_symbol
 _atom_site_label
 _atom_site_symmetry_multiplicity
 _atom_site_fract_x
 _atom_site_fract_y
 _atom_site_fract_z
 _atom_site_occupancy
  Ho  Ho0  1  0.63738807  0.86820637  0.76912759  1
  Ho  Ho1  1  0.36261218  0.13179407  0.23087340  1
  Ho  Ho2  1  0.09889512  0.36811938  0.73079697  1
  Ho  Ho3  1  0.90110449  0.63188053  0.26920289  1
  Si  Si0  1  0.27817313  0.02813850  0.74980239  1
  Si  Si1  1  0.72182687  0.97186215  0.25019795  1
  Si  Si2  1  0.72170574  0.47152370  0.74990435  1
  Si  Si3  1  0.27829421  0.52847614  0.25009516  1
  Si  Si4  1  0.44840117  0.60567135  0.84277646  1
  Si  Si5  1  0.55159858  0.39432903  0.15722333  1
  Si  Si6  1  0.76300695  0.10565477  0.65740142  1
  Si  Si7  1  0.23699300  0.89434510  0.34259863  1
  Si  Si8  1  0.99994599  0.74995979  0.74990185  1
  Si  Si9  1  0.00005412  0.25004035  0.25009832  1
  Rh  Rh0  1  0.25008526  0.64004821  0.60996712  1
  Rh  Rh1  1  0.74991469  0.35995245  0.39003286  1
  Rh  Rh2  1  0.03019273  0.14016326  0.89023514  1
  Rh  Rh3  1  0.96980699  0.85983673  0.10976472  1
  Rh  Rh4  1  0.50004956  0.75010109  0.25008058  1
  Rh  Rh5  1  0.49995015  0.24989902  0.74991887  1
loop_
_geom_bond_atom_site_label_1
_geom_bond_atom_site_label_2
_geom_bond_distance
_geom_bond_site_symmetry_2
Ho0 Si6 2.952959 1_565
Ho0 Rh0 3.063924 1_555
Ho0 Si5 3.067563 1_555
Ho0 Si5 3.068135 1_566
Ho0 Si8 3.081669 1_555
Ho0 Si9 3.082018 1_666
Ho0 Rh1 3.087225 1_555
Ho0 Rh1 3.087302 1_566
Ho0 Si4 3.116650 1_555
Ho0 Si1 3.169842 1_556
Ho0 Si2 3.170514 1_555
Ho0 Si3 3.179793 1_555
Ho0 Si0 3.181260 1_565
Ho0 Rh3 3.352806 1_556
Ho0 Rh2 3.356076 1_665
Ho0 Rh4 3.368688 1_555
Ho0 Rh5 3.369250 1_565
Ho1 Si7 2.952957 1_545
Ho1 Rh1 3.063925 1_555
Ho1 Si4 3.067558 1_555
Ho1 Si4 3.068134 1_544
Ho1 Si9 3.081669 1_555
Ho1 Si8 3.082021 1_444
Ho1 Rh0 3.087227 1_555
Ho1 Rh0 3.087306 1_544
Ho1 Si5 3.116655 1_555
Ho1 Si0 3.169848 1_554
Ho1 Si3 3.170518 1_555
Ho1 Si2 3.179787 1_555
Ho1 Si1 3.181256 1_545
Ho1 Rh2 3.352812 1_554
Ho1 Rh3 3.356077 1_445
Ho1 Rh5 3.368678 1_555
Ho1 Rh4 3.369243 1_545
Ho2 Si4 2.955100 1_555
Ho2 Rh2 3.063989 1_555
Ho2 Si7 3.067289 1_556
Ho2 Si7 3.068214 1_545
Ho2 Si9 3.081337 1_555
Ho2 Si8 3.082644 1_455
Ho2 Rh3 3.087193 1_456
Ho2 Rh3 3.087799 1_445
Ho2 Si6 3.114965 1_455
Ho2 Si1 3.166750 1_445
Ho2 Si2 3.167989 1_455
Ho2 Si3 3.179929 1_556
Ho2 Si0 3.180537 1_555
Ho2 Rh1 3.353512 1_455
Ho2 Rh0 3.357079 1_555
Ho2 Rh4 3.370258 1_556
Ho2 Rh5 3.370335 1_555
Ho3 Si5 2.955097 1_555
Ho3 Rh3 3.063990 1_555
Ho3 Si6 3.067288 1_554
Ho3 Si6 3.068212 1_565
Ho3 Si8 3.081338 1_555
Ho3 Si9 3.082645 1_655
Ho3 Rh2 3.087193 1_654
Ho3 Rh2 3.087799 1_665
Ho3 Si7 3.114966 1_655
Ho3 Si0 3.166753 1_665
Ho3 Si3 3.167992 1_655
Ho3 Si2 3.179931 1_554
Ho3 Si1 3.180539 1_555
Ho3 Rh0 3.353511 1_655
Ho3 Rh1 3.357074 1_555
Ho3 Rh5 3.370259 1_554
Ho3 Rh4 3.370335 1_555
Si0 Si7 2.493122 1_545
Si0 Si5 2.493718 1_556
Si1 Si6 2.493123 1_565
Si1 Si4 2.493720 1_554
Si2 Si6 2.493047 1_555
Si2 Si4 2.493695 1_555
Si3 Si7 2.493045 1_555
Si3 Si5 2.493693 1_555
Rh0 Si4 2.323736 1_555
Rh0 Si3 2.396450 1_555
Rh0 Si0 2.396598 1_565
Rh0 Si9 2.410369 1_555
Rh0 Si8 2.411445 1_455
Rh1 Si5 2.323736 1_555
Rh1 Si2 2.396450 1_555
Rh1 Si1 2.396600 1_545
Rh1 Si8 2.410368 1_555
Rh1 Si9 2.411446 1_655
Rh2 Si6 2.323739 1_455
Rh2 Si3 2.396259 1_556
Rh2 Si0 2.396450 1_555
Rh2 Si9 2.410244 1_556
Rh2 Si8 2.410713 1_445
Rh3 Si7 2.323742 1_655
Rh3 Si2 2.396258 1_554
Rh3 Si1 2.396449 1_555
Rh3 Si8 2.410243 1_554
Rh3 Si9 2.410712 1_665
Rh4 Si4 2.430317 1_554
Rh4 Si6 2.430477 1_565
Rh4 Si5 2.431145 1_555
Rh4 Si7 2.431409 1_555
Rh4 Si3 2.559349 1_555
Rh4 Si1 2.559500 1_555
Rh5 Si5 2.430319 1_556
Rh5 Si7 2.430475 1_545
Rh5 Si4 2.431146 1_555
Rh5 Si6 2.431411 1_555
Rh5 Si2 2.559349 1_555
Rh5 Si0 2.559501 1_555
