# generated using pymatgen
data_La3Ni2O7
_symmetry_space_group_name_H-M   'P 1'
_cell_length_a   10.53621661
_cell_length_b   10.53621661
_cell_length_c   5.45708800
_cell_angle_alpha   90.00000000
_cell_angle_beta   90.00000000
_cell_angle_gamma   149.14156904
_symmetry_Int_Tables_number   1
_chemical_formula_structural   La3Ni2O7
_chemical_formula_sum   'La6 Ni4 O14'
_cell_volume   310.72683905
_cell_formula_units_Z   2
loop_
 _symmetry_equiv_pos_site_id
 _symmetry_equiv_pos_as_xyz
  1  'x, y, z'
loop_
 _atom_site_type_symbol
 _atom_site_label
 _atom_site_symmetry_multiplicity
 _atom_site_fract_x
 _atom_site_fract_y
 _atom_site_fract_z
 _atom_site_occupancy
  La  La0  1  0.58342900  0.94401300  0.25000000  1
  La  La1  1  0.41657100  0.05598700  0.75000000  1
  La  La2  1  0.94401300  0.58342900  0.25000000  1
  La  La3  1  0.05598700  0.41657100  0.75000000  1
  La  La4  1  0.75062600  0.75062600  0.25000000  1
  La  La5  1  0.24937400  0.24937400  0.75000000  1
  Ni  Ni0  1  0.35040800  0.15550800  0.25000000  1
  Ni  Ni1  1  0.64959200  0.84449200  0.75000000  1
  Ni  Ni2  1  0.15550800  0.35040800  0.25000000  1
  Ni  Ni3  1  0.84449200  0.64959200  0.75000000  1
  O  O0  1  0.08538200  0.91461800  0.00000000  1
  O  O1  1  0.91461800  0.08538200  0.50000000  1
  O  O2  1  0.91461800  0.08538200  0.00000000  1
  O  O3  1  0.08538200  0.91461800  0.50000000  1
  O  O4  1  0.61173000  0.38827000  0.50000000  1
  O  O5  1  0.38827000  0.61173000  0.00000000  1
  O  O6  1  0.38827000  0.61173000  0.50000000  1
  O  O7  1  0.61173000  0.38827000  0.00000000  1
  O  O8  1  0.39702300  0.98734600  0.25000000  1
  O  O9  1  0.60297700  0.01265400  0.75000000  1
  O  O10  1  0.67361500  0.67361500  0.75000000  1
  O  O11  1  0.32638500  0.32638500  0.25000000  1
  O  O12  1  0.01265400  0.60297700  0.75000000  1
  O  O13  1  0.98734600  0.39702300  0.25000000  1
loop_
_geom_bond_atom_site_label_1
_geom_bond_atom_site_label_2
_geom_bond_distance
_geom_bond_site_symmetry_2
La0 O8 2.367557 1_555
La0 O6 2.446791 1_555
La0 O5 2.446791 1_555
La0 O13 2.453287 1_565
La0 O1 2.707903 1_565
La0 O2 2.707903 1_565
La0 O9 2.784722 1_565
La0 O9 2.784722 1_564
La1 O9 2.367557 1_555
La1 O7 2.446791 1_556
La1 O4 2.446791 1_555
La1 O12 2.453287 1_545
La1 O0 2.707903 1_546
La1 O3 2.707903 1_545
La1 O8 2.784722 1_545
La1 O8 2.784722 1_546
La2 O13 2.367557 1_555
La2 O7 2.446791 1_555
La2 O4 2.446791 1_555
La2 O8 2.453287 1_655
La2 O3 2.707903 1_655
La2 O0 2.707903 1_655
La2 O12 2.784722 1_655
La2 O12 2.784722 1_654
La3 O12 2.367557 1_555
La3 O5 2.446791 1_556
La3 O6 2.446791 1_555
La3 O9 2.453287 1_455
La3 O1 2.707903 1_455
La3 O2 2.707903 1_456
La3 O13 2.784722 1_456
La3 O13 2.784722 1_455
La4 O11 2.378410 1_555
La4 O3 2.612244 1_655
La4 O1 2.612244 1_565
La4 O0 2.612244 1_655
La4 O2 2.612244 1_565
La4 O10 2.762491 1_554
La4 O10 2.762491 1_555
La5 O10 2.378410 1_555
La5 O1 2.612244 1_455
La5 O0 2.612244 1_546
La5 O3 2.612244 1_545
La5 O2 2.612244 1_456
La5 O11 2.762491 1_555
La5 O11 2.762491 1_556
Ni0 O7 1.965594 1_555
Ni0 O4 1.965594 1_555
Ni0 O0 1.983049 1_545
Ni0 O3 1.983049 1_545
Ni0 O11 2.021850 1_555
Ni0 O8 2.207828 1_545
Ni1 O5 1.965594 1_556
Ni1 O6 1.965594 1_555
Ni1 O2 1.983049 1_566
Ni1 O1 1.983049 1_565
Ni1 O10 2.021850 1_555
Ni1 O9 2.207828 1_565
Ni2 O5 1.965594 1_555
Ni2 O6 1.965594 1_555
Ni2 O2 1.983049 1_455
Ni2 O1 1.983049 1_455
Ni2 O11 2.021850 1_555
Ni2 O13 2.207828 1_455
Ni3 O4 1.965594 1_555
Ni3 O7 1.965594 1_556
Ni3 O3 1.983049 1_655
Ni3 O0 1.983049 1_656
Ni3 O10 2.021850 1_555
Ni3 O12 2.207828 1_655
