# generated using pymatgen
data_Er4CoSn8
_symmetry_space_group_name_H-M   'P 1'
_cell_length_a   4.41005900
_cell_length_b   4.43114900
_cell_length_c   16.47685300
_cell_angle_alpha   90.00000000
_cell_angle_beta   90.00000000
_cell_angle_gamma   90.00000000
_symmetry_Int_Tables_number   1
_chemical_formula_structural   Er4CoSn8
_chemical_formula_sum   'Er4 Co1 Sn8'
_cell_volume   321.98454063
_cell_formula_units_Z   1
loop_
 _symmetry_equiv_pos_site_id
 _symmetry_equiv_pos_as_xyz
  1  'x, y, z'
loop_
 _atom_site_type_symbol
 _atom_site_label
 _atom_site_symmetry_multiplicity
 _atom_site_fract_x
 _atom_site_fract_y
 _atom_site_fract_z
 _atom_site_occupancy
  Er  Er0  1  0.25000000  0.00000000  0.09517100  1
  Er  Er1  1  0.25000000  0.50000000  0.60151500  1
  Er  Er2  1  0.75000000  0.50000000  0.39561600  1
  Er  Er3  1  0.75000000  0.00000000  0.89901800  1
  Co  Co0  1  0.25000000  0.00000000  0.30399900  1
  Sn  Sn0  1  0.25000000  0.50000000  0.23490000  1
  Sn  Sn1  1  0.25000000  0.00000000  0.74797600  1
  Sn  Sn2  1  0.75000000  0.00000000  0.23525300  1
  Sn  Sn3  1  0.75000000  0.50000000  0.75218500  1
  Sn  Sn4  1  0.25000000  0.00000000  0.45193600  1
  Sn  Sn5  1  0.25000000  0.50000000  0.93415300  1
  Sn  Sn6  1  0.75000000  0.50000000  0.06250500  1
  Sn  Sn7  1  0.75000000  0.00000000  0.57177300  1
loop_
_geom_bond_atom_site_label_1
_geom_bond_atom_site_label_2
_geom_bond_distance
_geom_bond_site_symmetry_2
Er0 Sn6 3.171848 1_545
Er0 Sn6 3.171848 1_445
Er0 Sn6 3.171848 1_555
Er0 Sn6 3.171848 1_455
Er0 Sn2 3.192104 1_455
Er0 Sn2 3.192104 1_555
Er0 Sn0 3.195204 1_545
Er0 Sn0 3.195204 1_555
Er0 Sn5 3.456523 1_544
Er0 Sn5 3.456523 1_554
Er1 Sn7 3.164029 1_465
Er1 Sn7 3.164029 1_565
Er1 Sn7 3.164029 1_455
Er1 Sn7 3.164029 1_555
Er1 Sn1 3.276032 1_555
Er1 Sn1 3.276032 1_565
Er1 Sn4 3.314058 1_565
Er1 Sn4 3.314058 1_555
Er1 Sn3 3.320436 1_555
Er1 Sn3 3.320436 1_455
Er2 Sn4 3.260685 1_655
Er2 Sn4 3.260685 1_565
Er2 Sn4 3.260685 1_665
Er2 Sn4 3.260685 1_555
Er2 Sn0 3.445948 1_555
Er2 Sn0 3.445948 1_655
Er2 Sn2 3.448246 1_565
Er2 Sn2 3.448246 1_555
Er2 Sn7 3.651486 1_565
Er2 Sn7 3.651486 1_555
Er3 Sn5 3.179004 1_645
Er3 Sn5 3.179004 1_555
Er3 Sn5 3.179004 1_545
Er3 Sn5 3.179004 1_655
Er3 Sn3 3.280549 1_545
Er3 Sn3 3.280549 1_555
Er3 Sn1 3.325021 1_555
Er3 Sn1 3.325021 1_655
Er3 Sn6 3.487846 1_556
Er3 Sn6 3.487846 1_546
Co0 Sn4 2.437536 1_555
Co0 Sn2 2.478952 1_455
Co0 Sn2 2.478952 1_555
Co0 Sn0 2.490990 1_545
Co0 Sn0 2.490990 1_555
Co0 Er2 3.471267 1_455
Co0 Er2 3.471267 1_545
Co0 Er2 3.471267 1_445
Co0 Er2 3.471267 1_555
Sn0 Sn2 3.125853 1_565
Sn0 Sn2 3.125853 1_555
Sn0 Sn2 3.125853 1_465
Sn0 Sn2 3.125853 1_455
Sn1 Sn3 3.126617 1_555
Sn1 Sn3 3.126617 1_455
Sn1 Sn3 3.126617 1_445
Sn1 Sn3 3.126617 1_545
Sn4 Sn7 2.959890 1_455
Sn4 Sn7 2.959890 1_555
Sn5 Sn6 3.055273 1_556
Sn5 Sn6 3.055273 1_456
