# generated using pymatgen
data_SrCa3(PbO4)2
_symmetry_space_group_name_H-M   'P 1'
_cell_length_a   3.45544400
_cell_length_b   5.97181200
_cell_length_c   10.03064813
_cell_angle_alpha   89.74527504
_cell_angle_beta   90.00000000
_cell_angle_gamma   90.00000000
_symmetry_Int_Tables_number   1
_chemical_formula_structural   SrCa3(PbO4)2
_chemical_formula_sum   'Sr1 Ca3 Pb2 O8'
_cell_volume   206.98300606
_cell_formula_units_Z   1
loop_
 _symmetry_equiv_pos_site_id
 _symmetry_equiv_pos_as_xyz
  1  'x, y, z'
loop_
 _atom_site_type_symbol
 _atom_site_label
 _atom_site_symmetry_multiplicity
 _atom_site_fract_x
 _atom_site_fract_y
 _atom_site_fract_z
 _atom_site_occupancy
  Sr  Sr0  1  0.50000000  0.42723300  0.18099400  1
  Ca  Ca0  1  0.50000000  0.57514300  0.81394700  1
  Ca  Ca1  1  0.50000000  0.92972300  0.32580300  1
  Ca  Ca2  1  0.50000000  0.07363200  0.68341900  1
  Pb  Pb0  1  0.00000000  0.50257700  0.50447700  1
  Pb  Pb1  1  0.00000000  0.99855500  0.99556800  1
  O  O0  1  0.50000000  0.26179000  0.45511900  1
  O  O1  1  0.50000000  0.73932200  0.55277700  1
  O  O2  1  0.50000000  0.76252300  0.03739400  1
  O  O3  1  0.50000000  0.23701100  0.94480000  1
  O  O4  1  0.00000000  0.12108700  0.19953700  1
  O  O5  1  0.00000000  0.86051300  0.79604300  1
  O  O6  1  0.00000000  0.65090500  0.30869400  1
  O  O7  1  0.00000000  0.35998600  0.70142700  1
loop_
_geom_bond_atom_site_label_1
_geom_bond_atom_site_label_2
_geom_bond_distance
_geom_bond_site_symmetry_2
Ca0 O3 2.403458 1_555
Ca0 O5 2.432852 1_655
Ca0 O5 2.432852 1_555
Ca0 O7 2.433655 1_655
Ca0 O7 2.433655 1_555
Ca0 O2 2.509575 1_556
Ca0 O1 2.793079 1_555
Ca1 O0 2.374417 1_565
Ca1 O6 2.406118 1_555
Ca1 O6 2.406118 1_655
Ca1 O4 2.425329 1_565
Ca1 O4 2.425329 1_665
Ca1 O1 2.540312 1_555
Ca2 O1 2.392955 1_545
Ca2 O5 2.422442 1_645
Ca2 O5 2.422442 1_545
Ca2 O7 2.438171 1_655
Ca2 O7 2.438171 1_555
Ca2 O0 2.546327 1_555
Ca2 O3 2.801539 1_555
O0 Pb0 2.303069 1_555
O0 Pb0 2.303069 1_655
O0 Sr0 2.917629 1_555
O1 Pb0 2.285751 1_555
O1 Pb0 2.285751 1_655
O2 Pb1 2.267726 1_554
O2 Pb1 2.267726 1_654
O2 Sr0 2.461356 1_555
O3 Pb1 2.294714 1_545
O3 Pb1 2.294714 1_645
O3 Sr0 2.631989 1_556
O4 Pb1 2.175920 1_544
O4 Sr0 2.521722 1_455
O4 Sr0 2.521722 1_555
O5 Pb1 2.167880 1_555
O6 Pb0 2.150763 1_555
O6 Sr0 2.534787 1_455
O6 Sr0 2.534787 1_555
O7 Pb0 2.147762 1_555
