# generated using pymatgen
data_Gd6Mn23
_symmetry_space_group_name_H-M   'P 1'
_cell_length_a   8.60295950
_cell_length_b   8.60295950
_cell_length_c   8.60295950
_cell_angle_alpha   60.00000000
_cell_angle_beta   60.00000000
_cell_angle_gamma   60.00000000
_symmetry_Int_Tables_number   1
_chemical_formula_structural   Gd6Mn23
_chemical_formula_sum   'Gd6 Mn23'
_cell_volume   450.22399486
_cell_formula_units_Z   1
loop_
 _symmetry_equiv_pos_site_id
 _symmetry_equiv_pos_as_xyz
  1  'x, y, z'
loop_
 _atom_site_type_symbol
 _atom_site_label
 _atom_site_symmetry_multiplicity
 _atom_site_fract_x
 _atom_site_fract_y
 _atom_site_fract_z
 _atom_site_occupancy
  Gd  Gd0  1  0.71023000  0.71023000  0.28977000  1
  Gd  Gd1  1  0.28977000  0.71023000  0.28977000  1
  Gd  Gd2  1  0.71023000  0.28977000  0.28977000  1
  Gd  Gd3  1  0.28977000  0.28977000  0.71023000  1
  Gd  Gd4  1  0.71023000  0.28977000  0.71023000  1
  Gd  Gd5  1  0.28977000  0.71023000  0.71023000  1
  Mn  Mn0  1  0.00000000  0.00000000  0.00000000  1
  Mn  Mn1  1  0.00000000  0.00000000  0.50000000  1
  Mn  Mn2  1  0.50000000  0.00000000  0.50000000  1
  Mn  Mn3  1  0.00000000  0.50000000  0.50000000  1
  Mn  Mn4  1  0.50000000  0.50000000  0.00000000  1
  Mn  Mn5  1  0.00000000  0.50000000  0.00000000  1
  Mn  Mn6  1  0.50000000  0.00000000  0.00000000  1
  Mn  Mn7  1  0.88068100  0.88068100  0.35795800  1
  Mn  Mn8  1  0.88068100  0.35795800  0.88068100  1
  Mn  Mn9  1  0.35795800  0.88068100  0.88068100  1
  Mn  Mn10  1  0.88068100  0.88068100  0.88068100  1
  Mn  Mn11  1  0.11931900  0.11931900  0.64204200  1
  Mn  Mn12  1  0.11931900  0.64204200  0.11931900  1
  Mn  Mn13  1  0.64204200  0.11931900  0.11931900  1
  Mn  Mn14  1  0.11931900  0.11931900  0.11931900  1
  Mn  Mn15  1  0.67743500  0.67743500  0.96769600  1
  Mn  Mn16  1  0.67743500  0.96769600  0.67743500  1
  Mn  Mn17  1  0.96769600  0.67743500  0.67743500  1
  Mn  Mn18  1  0.67743500  0.67743500  0.67743500  1
  Mn  Mn19  1  0.32256500  0.32256500  0.03230400  1
  Mn  Mn20  1  0.32256500  0.03230400  0.32256500  1
  Mn  Mn21  1  0.03230400  0.32256500  0.32256500  1
  Mn  Mn22  1  0.32256500  0.32256500  0.32256500  1
loop_
_geom_bond_atom_site_label_1
_geom_bond_atom_site_label_2
_geom_bond_distance
_geom_bond_site_symmetry_2
Gd0 Mn13 2.918104 1_565
Gd0 Mn12 2.918104 1_655
Gd0 Mn10 2.918105 1_554
Gd0 Mn7 2.918111 1_555
Gd0 Mn15 3.078886 1_554
Gd0 Mn21 3.078892 1_655
Gd0 Mn20 3.078892 1_565
Gd0 Mn18 3.078895 1_555
Gd0 Mn3 3.079851 1_655
Gd0 Mn2 3.079851 1_565
Gd0 Mn6 3.079851 1_565
Gd0 Mn5 3.079851 1_655
Gd1 Mn7 2.918104 1_455
Gd1 Mn9 2.918104 1_554
Gd1 Mn14 2.918105 1_565
Gd1 Mn12 2.918111 1_555
Gd1 Mn20 3.078886 1_565
Gd1 Mn17 3.078892 1_455
Gd1 Mn15 3.078892 1_554
Gd1 Mn22 3.078895 1_555
Gd1 Mn6 3.079851 1_565
Gd1 Mn1 3.079851 1_565
Gd1 Mn4 3.079851 1_555
Gd1 Mn3 3.079851 1_555
Gd2 Mn7 2.918104 1_545
Gd2 Mn8 2.918104 1_554
Gd2 Mn14 2.918105 1_655
Gd2 Mn13 2.918111 1_555
Gd2 Mn21 3.078886 1_655
Gd2 Mn16 3.078892 1_545
Gd2 Mn15 3.078892 1_554
Gd2 Mn22 3.078895 1_555
Gd2 Mn1 3.079851 1_655
Gd2 Mn5 3.079851 1_655
Gd2 Mn4 3.079851 1_555
Gd2 Mn2 3.079851 1_555
Gd3 Mn9 2.918104 1_545
Gd3 Mn8 2.918104 1_455
Gd3 Mn14 2.918105 1_556
Gd3 Mn11 2.918111 1_555
Gd3 Mn19 3.078886 1_556
Gd3 Mn17 3.078892 1_455
Gd3 Mn16 3.078892 1_545
Gd3 Mn22 3.078895 1_555
Gd3 Mn6 3.079851 1_556
Gd3 Mn5 3.079851 1_556
Gd3 Mn2 3.079851 1_555
Gd3 Mn3 3.079851 1_555
Gd4 Mn13 2.918104 1_556
Gd4 Mn11 2.918104 1_655
Gd4 Mn10 2.918105 1_545
Gd4 Mn8 2.918111 1_555
Gd4 Mn16 3.078886 1_545
Gd4 Mn19 3.078892 1_556
Gd4 Mn21 3.078892 1_655
Gd4 Mn18 3.078895 1_555
Gd4 Mn3 3.079851 1_655
Gd4 Mn4 3.079851 1_556
Gd4 Mn6 3.079851 1_556
Gd4 Mn1 3.079851 1_655
Gd5 Mn11 2.918104 1_565
Gd5 Mn12 2.918104 1_556
Gd5 Mn10 2.918105 1_455
Gd5 Mn9 2.918111 1_555
Gd5 Mn17 3.078886 1_455
Gd5 Mn19 3.078892 1_556
Gd5 Mn20 3.078892 1_565
Gd5 Mn18 3.078895 1_555
Gd5 Mn2 3.079851 1_565
Gd5 Mn4 3.079851 1_556
Gd5 Mn5 3.079851 1_556
Gd5 Mn1 3.079851 1_565
Mn0 Mn10 2.514393 1_444
Mn0 Mn14 2.514393 1_555
Mn0 Mn13 2.514400 1_455
Mn0 Mn8 2.514400 1_454
Mn0 Mn12 2.514400 1_545
Mn0 Mn7 2.514400 1_445
Mn0 Mn9 2.514400 1_544
Mn0 Mn11 2.514400 1_554
Mn1 Mn21 2.493803 1_555
Mn1 Mn20 2.493803 1_555
Mn1 Mn16 2.493803 1_445
Mn1 Mn17 2.493803 1_445
Mn1 Mn7 2.676386 1_445
Mn1 Mn11 2.676386 1_555
Mn1 Mn10 2.676394 1_445
Mn1 Mn14 2.676394 1_555
Mn2 Mn22 2.493806 1_555
Mn2 Mn20 2.493810 1_555
Mn2 Mn9 2.676393 1_545
Mn2 Mn7 2.676393 1_545
Mn3 Mn7 2.676393 1_455
Mn3 Mn8 2.676393 1_455
Mn4 Mn9 2.676393 1_554
Mn4 Mn8 2.676393 1_554
Mn5 Mn8 2.676386 1_454
Mn6 Mn9 2.676386 1_544
Mn10 Mn15 2.667299 1_555
Mn10 Mn16 2.667299 1_555
Mn10 Mn17 2.667299 1_555
Mn10 Mn5 2.676394 1_656
Mn10 Mn6 2.676394 1_566
Mn10 Mn12 2.903371 1_656
Mn10 Mn11 2.903371 1_665
Mn10 Mn13 2.903371 1_566
Mn11 Mn21 2.667299 1_555
Mn11 Mn22 2.667299 1_555
Mn11 Mn20 2.667299 1_555
Mn11 Mn2 2.676393 1_555
Mn11 Mn3 2.676393 1_555
Mn11 Mn8 2.903383 1_455
Mn11 Mn9 2.903383 1_545
Mn12 Mn19 2.667299 1_555
Mn12 Mn22 2.667299 1_555
Mn12 Mn21 2.667299 1_555
Mn12 Mn5 2.676386 1_555
Mn12 Mn3 2.676393 1_555
Mn12 Mn4 2.676393 1_555
Mn12 Mn7 2.903383 1_455
Mn12 Mn9 2.903383 1_554
Mn13 Mn19 2.667299 1_555
Mn13 Mn20 2.667299 1_555
Mn13 Mn22 2.667299 1_555
Mn13 Mn6 2.676386 1_555
Mn13 Mn2 2.676393 1_555
Mn13 Mn4 2.676393 1_555
Mn13 Mn8 2.903383 1_554
Mn13 Mn7 2.903383 1_545
Mn14 Mn21 2.667299 1_555
Mn14 Mn19 2.667299 1_555
Mn14 Mn20 2.667299 1_555
Mn14 Mn6 2.676394 1_555
Mn14 Mn5 2.676394 1_555
Mn14 Mn9 2.903371 1_544
Mn14 Mn8 2.903371 1_454
Mn14 Mn7 2.903371 1_445
Mn15 Mn5 2.493803 1_656
Mn15 Mn6 2.493803 1_566
Mn15 Mn4 2.493810 1_556
Mn15 Mn18 2.497104 1_555
Mn15 Mn17 2.497104 1_555
Mn15 Mn16 2.497104 1_555
Mn15 Mn8 2.667299 1_555
Mn15 Mn9 2.667299 1_555
Mn16 Mn6 2.493803 1_566
Mn16 Mn2 2.493810 1_565
Mn16 Mn18 2.497104 1_555
Mn16 Mn17 2.497104 1_555
Mn16 Mn7 2.667299 1_555
Mn16 Mn9 2.667299 1_555
Mn17 Mn5 2.493803 1_656
Mn17 Mn3 2.493810 1_655
Mn17 Mn18 2.497104 1_555
Mn17 Mn8 2.667299 1_555
Mn17 Mn7 2.667299 1_555
Mn18 Mn3 2.493806 1_655
Mn18 Mn2 2.493806 1_565
Mn18 Mn4 2.493806 1_556
Mn18 Mn9 2.667299 1_555
Mn18 Mn7 2.667299 1_555
Mn18 Mn8 2.667299 1_555
Mn19 Mn6 2.493803 1_555
Mn19 Mn5 2.493803 1_555
Mn19 Mn4 2.493810 1_555
Mn19 Mn20 2.497104 1_555
Mn19 Mn21 2.497104 1_555
Mn19 Mn22 2.497104 1_555
Mn20 Mn6 2.493803 1_555
Mn20 Mn21 2.497104 1_555
Mn20 Mn22 2.497104 1_555
Mn21 Mn5 2.493803 1_555
Mn21 Mn3 2.493810 1_555
Mn21 Mn22 2.497104 1_555
Mn22 Mn4 2.493806 1_555
Mn22 Mn3 2.493806 1_555
