# generated using pymatgen
data_Rb2CoO3
_symmetry_space_group_name_H-M   'P 1'
_cell_length_a   7.39646443
_cell_length_b   8.36506814
_cell_length_c   8.35589399
_cell_angle_alpha   99.30451882
_cell_angle_beta   116.19168979
_cell_angle_gamma   63.68434015
_symmetry_Int_Tables_number   1
_chemical_formula_structural   Rb2CoO3
_chemical_formula_sum   'Rb8 Co4 O12'
_cell_volume   415.46271079
_cell_formula_units_Z   4
loop_
 _symmetry_equiv_pos_site_id
 _symmetry_equiv_pos_as_xyz
  1  'x, y, z'
loop_
 _atom_site_type_symbol
 _atom_site_label
 _atom_site_symmetry_multiplicity
 _atom_site_fract_x
 _atom_site_fract_y
 _atom_site_fract_z
 _atom_site_occupancy
  Rb  Rb0  1  0.81696800  0.20966600  0.53292000  1
  Rb  Rb1  1  0.81750700  0.71211400  0.03380100  1
  Rb  Rb2  1  0.50447700  0.96250300  0.28197600  1
  Rb  Rb3  1  0.50282500  0.46175800  0.78436100  1
  Rb  Rb4  1  0.49372100  0.53288500  0.20962600  1
  Rb  Rb5  1  0.49582400  0.03374700  0.71207900  1
  Rb  Rb6  1  0.18501300  0.28192500  0.96245800  1
  Rb  Rb7  1  0.18020900  0.78432500  0.46172000  1
  Co  Co0  1  0.91883300  0.61726800  0.61726400  1
  Co  Co1  1  0.07422200  0.86937800  0.86939500  1
  Co  Co2  1  0.92711300  0.11918400  0.11917500  1
  Co  Co3  1  0.07449000  0.36867000  0.36866900  1
  O  O0  1  0.68363400  0.11602600  0.11600900  1
  O  O1  1  0.67875600  0.61468100  0.61465700  1
  O  O2  1  0.31671200  0.36556300  0.36555700  1
  O  O3  1  0.31798800  0.86701200  0.86702600  1
  O  O4  1  0.88648300  0.11273600  0.87888800  1
  O  O5  1  0.88582400  0.61267900  0.37397300  1
  O  O6  1  0.88069000  0.86670200  0.62821700  1
  O  O7  1  0.87988600  0.36260500  0.12772700  1
  O  O8  1  0.12035700  0.87884000  0.11269900  1
  O  O9  1  0.12454600  0.37391800  0.61262100  1
  O  O10  1  0.11918800  0.62814200  0.86665200  1
  O  O11  1  0.11473500  0.12768000  0.36253400  1
loop_
_geom_bond_atom_site_label_1
_geom_bond_atom_site_label_2
_geom_bond_distance
_geom_bond_site_symmetry_2
Co0 O1 1.775922 1_555
Co0 O5 1.933586 1_555
Co0 O9 1.934122 1_655
Co0 O10 1.969522 1_655
Co0 O6 1.969951 1_555
Co1 O3 1.803152 1_555
Co1 O6 1.891595 1_455
Co1 O10 1.892087 1_555
Co1 O8 1.901421 1_556
Co1 O4 1.901922 1_465
Co2 O0 1.801244 1_555
Co2 O4 1.889774 1_554
Co2 O8 1.890293 1_645
Co2 O11 1.901462 1_655
Co2 O7 1.902028 1_555
Co3 O2 1.791858 1_555
Co3 O7 1.897714 1_455
Co3 O11 1.898180 1_555
Co3 O9 1.900917 1_555
Co3 O5 1.901442 1_455
O0 Rb6 3.005737 1_554
O0 Rb2 3.005895 1_545
O0 Rb1 3.122804 1_545
O0 Rb5 3.122981 1_554
O0 Rb4 3.238768 1_555
O0 Rb0 3.239110 1_555
O1 Rb7 3.005232 1_555
O1 Rb3 3.005299 1_555
O1 Rb0 3.128450 1_555
O1 Rb4 3.128583 1_555
O1 Rb5 3.259781 1_565
O1 Rb1 3.260284 1_556
O2 Rb0 3.015121 1_555
O2 Rb4 3.015150 1_555
O2 Rb2 3.118891 1_545
O2 Rb6 3.119198 1_554
O2 Rb7 3.256690 1_555
O2 Rb3 3.256978 1_555
O3 Rb5 3.010927 1_565
O3 Rb1 3.010945 1_556
O3 Rb3 3.131359 1_555
O3 Rb7 3.131690 1_555
O3 Rb6 3.228039 1_565
O3 Rb2 3.228337 1_556
O4 Rb0 2.890530 1_555
O4 Rb6 2.907964 1_655
O4 Rb5 2.927159 1_555
O4 Rb3 2.936307 1_555
O5 Rb1 2.854932 1_555
O5 Rb7 2.891806 1_655
O5 Rb2 2.933459 1_555
O5 Rb4 2.940513 1_555
O6 Rb0 2.880182 1_565
O6 Rb7 2.894043 1_655
O6 Rb2 2.901989 1_555
O6 Rb5 2.909376 1_565
O7 Rb3 2.890139 1_554
O7 Rb4 2.908346 1_555
O7 Rb6 2.924957 1_654
O7 Rb1 2.933086 1_555
O8 Rb4 2.890473 1_555
O8 Rb2 2.908240 1_555
O8 Rb1 2.926845 1_455
O8 Rb7 2.936314 1_555
O9 Rb5 2.854962 1_555
O9 Rb3 2.892252 1_555
O9 Rb6 2.933507 1_555
O9 Rb0 2.940240 1_455
O10 Rb4 2.880149 1_556
O10 Rb3 2.893610 1_555
O10 Rb6 2.901885 1_555
O10 Rb1 2.909865 1_456
O11 Rb7 2.890168 1_545
O11 Rb0 2.908788 1_455
O11 Rb2 2.924539 1_545
O11 Rb5 2.933305 1_555
