# generated using pymatgen
data_Rb2ZrSi3O10
_symmetry_space_group_name_H-M   'P 1'
_cell_length_a   7.36767400
_cell_length_b   10.60584700
_cell_length_c   13.52663300
_cell_angle_alpha   90.00000000
_cell_angle_beta   90.00000000
_cell_angle_gamma   90.00000000
_symmetry_Int_Tables_number   1
_chemical_formula_structural   Rb2ZrSi3O10
_chemical_formula_sum   'Rb8 Zr4 Si12 O40'
_cell_volume   1056.97682695
_cell_formula_units_Z   4
loop_
 _symmetry_equiv_pos_site_id
 _symmetry_equiv_pos_as_xyz
  1  'x, y, z'
loop_
 _atom_site_type_symbol
 _atom_site_label
 _atom_site_symmetry_multiplicity
 _atom_site_fract_x
 _atom_site_fract_y
 _atom_site_fract_z
 _atom_site_occupancy
  Rb  Rb0  1  0.29674200  0.78328400  0.12907900  1
  Rb  Rb1  1  0.79674200  0.71671600  0.87092100  1
  Rb  Rb2  1  0.70325800  0.28328400  0.37092100  1
  Rb  Rb3  1  0.20325800  0.21671600  0.62907900  1
  Rb  Rb4  1  0.76409300  0.56813600  0.58375900  1
  Rb  Rb5  1  0.26409300  0.93186400  0.41624100  1
  Rb  Rb6  1  0.23590700  0.06813600  0.91624100  1
  Rb  Rb7  1  0.73590700  0.43186400  0.08375900  1
  Zr  Zr0  1  0.24320200  0.55835200  0.71077000  1
  Zr  Zr1  1  0.74320200  0.94164800  0.28923000  1
  Zr  Zr2  1  0.75679800  0.05835200  0.78923000  1
  Zr  Zr3  1  0.25679800  0.44164800  0.21077000  1
  Si  Si0  1  0.47390400  0.83696800  0.67565800  1
  Si  Si1  1  0.97390400  0.66303200  0.32434200  1
  Si  Si2  1  0.52609600  0.33696800  0.82434200  1
  Si  Si3  1  0.02609600  0.16303200  0.17565800  1
  Si  Si4  1  0.75977300  0.96695500  0.55116000  1
  Si  Si5  1  0.25977300  0.53304500  0.44884000  1
  Si  Si6  1  0.24022700  0.46695500  0.94884000  1
  Si  Si7  1  0.74022700  0.03304500  0.05116000  1
  Si  Si8  1  0.93564600  0.35748300  0.82902000  1
  Si  Si9  1  0.43564600  0.14251700  0.17098000  1
  Si  Si10  1  0.06435400  0.85748300  0.67098000  1
  Si  Si11  1  0.56435400  0.64251700  0.32902000  1
  O  O0  1  0.25206900  0.58029400  0.86755400  1
  O  O1  1  0.75206900  0.91970600  0.13244600  1
  O  O2  1  0.74793100  0.08029400  0.63244600  1
  O  O3  1  0.24793100  0.41970600  0.36755400  1
  O  O4  1  0.45440600  0.68659400  0.69183700  1
  O  O5  1  0.95440600  0.81340600  0.30816300  1
  O  O6  1  0.54559400  0.18659400  0.80816300  1
  O  O7  1  0.04559400  0.31340600  0.19183700  1
  O  O8  1  0.23493500  0.49388200  0.56323200  1
  O  O9  1  0.73493500  0.00611800  0.43676800  1
  O  O10  1  0.76506500  0.99388200  0.93676800  1
  O  O11  1  0.26506500  0.50611800  0.06323200  1
  O  O12  1  0.02060200  0.43621400  0.73720600  1
  O  O13  1  0.52060200  0.06378600  0.26279400  1
  O  O14  1  0.97939800  0.93621400  0.76279400  1
  O  O15  1  0.47939800  0.56378600  0.23720600  1
  O  O16  1  0.43440900  0.40680600  0.72902300  1
  O  O17  1  0.93440900  0.09319400  0.27097700  1
  O  O18  1  0.56559100  0.90680600  0.77097700  1
  O  O19  1  0.06559100  0.59319400  0.22902300  1
  O  O20  1  0.05671400  0.70624000  0.69013800  1
  O  O21  1  0.55671400  0.79376000  0.30986200  1
  O  O22  1  0.94328600  0.20624000  0.80986200  1
  O  O23  1  0.44328600  0.29376000  0.19013800  1
  O  O24  1  0.27608900  0.90325600  0.64962800  1
  O  O25  1  0.77608900  0.59674400  0.35037200  1
  O  O26  1  0.72391100  0.40325600  0.85037200  1
  O  O27  1  0.22391100  0.09674400  0.14962800  1
  O  O28  1  0.95896700  0.89563300  0.56690600  1
  O  O29  1  0.45896700  0.60436700  0.43309400  1
  O  O30  1  0.04103300  0.39563300  0.93309400  1
  O  O31  1  0.54103300  0.10436700  0.06690600  1
  O  O32  1  0.60200200  0.85984800  0.57745600  1
  O  O33  1  0.10200200  0.64015200  0.42254400  1
  O  O34  1  0.39799800  0.35984800  0.92254400  1
  O  O35  1  0.89799800  0.14015200  0.07745600  1
  O  O36  1  0.41919900  0.79895300  0.91331600  1
  O  O37  1  0.91919900  0.70104700  0.08668400  1
  O  O38  1  0.58080100  0.29895300  0.58668400  1
  O  O39  1  0.08080100  0.20104700  0.41331600  1
loop_
_geom_bond_atom_site_label_1
_geom_bond_atom_site_label_2
_geom_bond_distance
_geom_bond_site_symmetry_2
O0 Si6 1.631413 1_555
O0 Zr0 2.134489 1_555
O1 Si7 1.631413 1_565
O1 Zr1 2.134489 1_555
O2 Si4 1.631413 1_545
O2 Zr2 2.134489 1_555
O3 Si5 1.631413 1_555
O3 Zr3 2.134489 1_555
O4 Si0 1.616186 1_555
O4 Zr0 2.082521 1_555
O4 Rb4 2.986919 1_555
O5 Si1 1.616186 1_555
O5 Zr1 2.082521 1_555
O5 Rb5 2.986919 1_655
O6 Si2 1.616186 1_555
O6 Zr2 2.082521 1_555
O6 Rb6 2.986919 1_555
O7 Si3 1.616186 1_555
O7 Zr3 2.082521 1_555
O7 Rb7 2.986919 1_455
O8 Si5 1.612534 1_555
O8 Zr0 2.110456 1_555
O8 Rb3 3.080410 1_555
O9 Si4 1.612534 1_545
O9 Zr1 2.110456 1_545
O9 Rb2 3.080410 1_555
O10 Si7 1.612534 1_566
O10 Zr2 2.110456 1_565
O10 Rb1 3.080410 1_555
O11 Si6 1.612534 1_554
O11 Zr3 2.110456 1_555
O11 Rb0 3.080410 1_555
O12 Si8 1.622167 1_455
O12 Zr0 2.120287 1_555
O12 Rb3 3.060986 1_555
O12 Rb4 3.136469 1_455
O13 Si9 1.622167 1_555
O13 Zr1 2.120287 1_545
O13 Rb2 3.060986 1_555
O13 Rb5 3.136469 1_545
O14 Si10 1.622167 1_655
O14 Zr2 2.120287 1_565
O14 Rb1 3.060986 1_555
O14 Rb6 3.136469 1_665
O15 Si11 1.622167 1_555
O15 Zr3 2.120287 1_555
O15 Rb0 3.060986 1_555
O15 Rb7 3.136469 1_555
O16 Si2 1.633206 1_555
O16 Zr0 2.151480 1_555
O16 Rb3 2.965220 1_555
O17 Si3 1.633206 1_655
O17 Zr1 2.151480 1_545
O17 Rb2 2.965220 1_555
O18 Si0 1.633206 1_555
O18 Zr2 2.151480 1_565
O18 Rb1 2.965220 1_555
O19 Si1 1.633206 1_455
O19 Zr3 2.151480 1_555
O19 Rb0 2.965220 1_555
O20 Si10 1.625833 1_555
O20 Zr0 2.103767 1_555
O20 Rb4 2.977249 1_455
O20 Rb1 3.108210 1_455
O21 Si11 1.625833 1_555
O21 Zr1 2.103767 1_555
O21 Rb5 2.977249 1_555
O21 Rb0 3.108210 1_555
O22 Si8 1.625833 1_555
O22 Zr2 2.103767 1_555
O22 Rb6 2.977249 1_655
O22 Rb3 3.108210 1_655
O23 Si9 1.625833 1_555
O23 Zr3 2.103767 1_555
O23 Rb7 2.977249 1_555
O23 Rb2 3.108210 1_555
O24 Si0 1.656007 1_555
O24 Si10 1.659118 1_555
O24 Rb5 3.172718 1_555
O24 Rb3 3.378987 1_565
O25 Si1 1.656007 1_555
O25 Si11 1.659118 1_555
O25 Rb4 3.172718 1_555
O25 Rb2 3.378987 1_555
O26 Si2 1.656007 1_555
O26 Si8 1.659118 1_555
O26 Rb7 3.172718 1_556
O26 Rb1 3.378987 1_555
O27 Si3 1.656007 1_555
O27 Si9 1.659118 1_555
O27 Rb6 3.172718 1_554
O27 Rb0 3.378987 1_545
O28 Si10 1.657835 1_655
O28 Si4 1.664750 1_555
O28 Rb5 3.058574 1_655
O29 Si11 1.657835 1_555
O29 Si5 1.664750 1_555
O29 Rb4 3.058574 1_555
O30 Si8 1.657835 1_455
O30 Si6 1.664750 1_555
O30 Rb7 3.058574 1_456
O31 Si9 1.657835 1_555
O31 Si7 1.664750 1_555
O31 Rb6 3.058574 1_554
O32 Si0 1.647455 1_555
O32 Si4 1.663764 1_555
O32 Rb4 3.317437 1_555
O32 Rb5 3.396607 1_555
O33 Si1 1.647455 1_455
O33 Si5 1.663764 1_555
O33 Rb5 3.317437 1_555
O33 Rb4 3.396607 1_455
O34 Si2 1.647455 1_555
O34 Si6 1.663764 1_555
O34 Rb6 3.317437 1_555
O34 Rb7 3.396607 1_556
O35 Si3 1.647455 1_655
O35 Si7 1.663764 1_555
O35 Rb7 3.317437 1_555
O35 Rb6 3.396607 1_654
O36 Rb1 2.971019 1_555
O36 Rb0 3.059336 1_556
O36 Rb6 3.158445 1_565
O37 Rb0 2.971019 1_655
O37 Rb1 3.059336 1_554
O37 Rb7 3.158445 1_555
O38 Rb3 2.971019 1_555
O38 Rb2 3.059336 1_555
O38 Rb4 3.158445 1_555
O39 Rb2 2.971019 1_455
O39 Rb3 3.059336 1_555
O39 Rb5 3.158445 1_545
