# generated using pymatgen
data_Tm2H16S3O20
_symmetry_space_group_name_H-M   'P 1'
_cell_length_a   6.67742000
_cell_length_b   7.67980983
_cell_length_c   18.42882074
_cell_angle_alpha   101.47037636
_cell_angle_beta   90.00000000
_cell_angle_gamma   115.76866364
_symmetry_Int_Tables_number   1
_chemical_formula_structural   Tm2H16S3O20
_chemical_formula_sum   'Tm4 H32 S6 O40'
_cell_volume   830.06563318
_cell_formula_units_Z   2
loop_
 _symmetry_equiv_pos_site_id
 _symmetry_equiv_pos_as_xyz
  1  'x, y, z'
loop_
 _atom_site_type_symbol
 _atom_site_label
 _atom_site_symmetry_multiplicity
 _atom_site_fract_x
 _atom_site_fract_y
 _atom_site_fract_z
 _atom_site_occupancy
  Tm  Tm0  1  0.18884300  0.33406600  0.39247200  1
  Tm  Tm1  1  0.85477800  0.66593400  0.10752800  1
  Tm  Tm2  1  0.81115700  0.66593400  0.60752800  1
  Tm  Tm3  1  0.14522200  0.33406600  0.89247200  1
  H  H0  1  0.20916700  0.70235700  0.48115600  1
  H  H1  1  0.50681000  0.29764300  0.01884400  1
  H  H2  1  0.79083300  0.29764300  0.51884400  1
  H  H3  1  0.49319000  0.70235700  0.98115600  1
  H  H4  1  0.46182300  0.74039700  0.48606400  1
  H  H5  1  0.72142600  0.25960300  0.01393600  1
  H  H6  1  0.53817700  0.25960300  0.51393600  1
  H  H7  1  0.27857400  0.74039700  0.98606400  1
  H  H8  1  0.16433600  0.99305000  0.45538100  1
  H  H9  1  0.17128600  0.00695000  0.04461900  1
  H  H10  1  0.83566400  0.00695000  0.54461900  1
  H  H11  1  0.82871400  0.99305000  0.95538100  1
  H  H12  1  0.33054100  0.02079600  0.39302100  1
  H  H13  1  0.30974500  0.97920400  0.10697900  1
  H  H14  1  0.66945900  0.97920400  0.60697900  1
  H  H15  1  0.69025500  0.02079600  0.89302100  1
  H  H16  1  0.24269500  0.44701200  0.24673700  1
  H  H17  1  0.79568300  0.55298800  0.25326300  1
  H  H18  1  0.75730500  0.55298800  0.75326300  1
  H  H19  1  0.20431700  0.44701200  0.74673700  1
  H  H20  1  0.26837700  0.64152000  0.30542700  1
  H  H21  1  0.62685700  0.35848000  0.19457300  1
  H  H22  1  0.73162300  0.35848000  0.69457300  1
  H  H23  1  0.37314300  0.64152000  0.80542700  1
  H  H24  1  0.85183500  0.90318900  0.35535000  1
  H  H25  1  0.94864600  0.09681100  0.14465000  1
  H  H26  1  0.14816500  0.09681100  0.64465000  1
  H  H27  1  0.05135400  0.90318900  0.85535000  1
  H  H28  1  0.71571100  0.02557500  0.34670600  1
  H  H29  1  0.69013600  0.97442500  0.15329400  1
  H  H30  1  0.28428900  0.97442500  0.65329400  1
  H  H31  1  0.30986400  0.02557500  0.84670600  1
  S  S0  1  0.19407400  0.44233600  0.58938000  1
  S  S1  1  0.75173800  0.55766400  0.91062000  1
  S  S2  1  0.80592600  0.55766400  0.41062000  1
  S  S3  1  0.24826200  0.44233600  0.08938000  1
  S  S4  1  0.31075400  0.00000000  0.25000000  1
  S  S5  1  0.68924600  0.00000000  0.75000000  1
  O  O0  1  0.13332700  0.32681100  0.64779400  1
  O  O1  1  0.80651600  0.67318900  0.85220600  1
  O  O2  1  0.86667300  0.67318900  0.35220600  1
  O  O3  1  0.19348400  0.32681100  0.14779400  1
  O  O4  1  0.43718000  0.53004000  0.58324400  1
  O  O5  1  0.90714000  0.46996000  0.91675600  1
  O  O6  1  0.56282000  0.46996000  0.41675600  1
  O  O7  1  0.09286000  0.53004000  0.08324400  1
  O  O8  1  0.07847700  0.30557900  0.51505300  1
  O  O9  1  0.77289700  0.69442100  0.98494700  1
  O  O10  1  0.92152300  0.69442100  0.48494700  1
  O  O11  1  0.22710300  0.30557900  0.01505300  1
  O  O12  1  0.12102100  0.60217500  0.60455100  1
  O  O13  1  0.51884600  0.39782500  0.89544900  1
  O  O14  1  0.87897900  0.39782500  0.39544900  1
  O  O15  1  0.48115400  0.60217500  0.10455100  1
  O  O16  1  0.40421700  0.93235200  0.30644200  1
  O  O17  1  0.47186500  0.06764800  0.19355800  1
  O  O18  1  0.59578300  0.06764800  0.69355800  1
  O  O19  1  0.52813500  0.93235200  0.80644200  1
  O  O20  1  0.26461000  0.16630200  0.28840200  1
  O  O21  1  0.09830700  0.83369800  0.21159800  1
  O  O22  1  0.73539000  0.83369800  0.71159800  1
  O  O23  1  0.90169300  0.16630200  0.78840200  1
  O  O24  1  0.32092400  0.67345200  0.45325500  1
  O  O25  1  0.64747200  0.32654800  0.04674500  1
  O  O26  1  0.67907600  0.32654800  0.54674500  1
  O  O27  1  0.35252800  0.67345200  0.95325500  1
  O  O28  1  0.28539800  0.09440300  0.43583400  1
  O  O29  1  0.19099500  0.90559700  0.06416600  1
  O  O30  1  0.71460200  0.90559700  0.56416600  1
  O  O31  1  0.80900500  0.09440300  0.93583400  1
  O  O32  1  0.23939200  0.50251200  0.29967900  1
  O  O33  1  0.73688000  0.49748800  0.20032100  1
  O  O34  1  0.76060800  0.49748800  0.70032100  1
  O  O35  1  0.26312000  0.50251200  0.79967900  1
  O  O36  1  0.85832700  0.03730400  0.36712200  1
  O  O37  1  0.82102200  0.96269600  0.13287800  1
  O  O38  1  0.14167300  0.96269600  0.63287800  1
  O  O39  1  0.17897800  0.03730400  0.86712200  1
loop_
_geom_bond_atom_site_label_1
_geom_bond_atom_site_label_2
_geom_bond_distance
_geom_bond_site_symmetry_2
H0 O24 0.984472 1_555
H1 O25 0.984472 1_555
H2 O26 0.984472 1_555
H3 O27 0.984472 1_555
H4 O24 0.985331 1_555
H5 O25 0.985331 1_555
H6 O26 0.985331 1_555
H7 O27 0.985331 1_555
H8 O28 0.976490 1_565
H9 O29 0.976490 1_545
H10 O30 0.976490 1_545
H11 O31 0.976490 1_565
H12 O28 1.001847 1_555
H13 O29 1.001847 1_555
H14 O30 1.001847 1_555
H15 O31 1.001847 1_555
H16 O32 0.988356 1_555
H17 O33 0.988356 1_555
H18 O34 0.988356 1_555
H19 O35 0.988356 1_555
H20 O32 0.981696 1_555
H21 O33 0.981696 1_555
H22 O34 0.981696 1_555
H23 O35 0.981696 1_555
H24 O36 0.991013 1_565
H25 O37 0.991015 1_545
H26 O38 0.991013 1_545
H27 O39 0.991015 1_565
H28 O36 0.984123 1_555
H29 O37 0.984117 1_555
H30 O38 0.984123 1_555
H31 O39 0.984117 1_555
O0 S0 1.475630 1_555
O1 S1 1.475630 1_555
O2 S2 1.475630 1_555
O3 S3 1.475630 1_555
O4 S0 1.476903 1_555
O4 Tm2 2.252489 1_555
O5 S1 1.476903 1_555
O5 Tm3 2.252483 1_655
O6 S2 1.476903 1_555
O6 Tm0 2.252489 1_555
O7 S3 1.476903 1_555
O7 Tm1 2.252483 1_455
O8 S0 1.515938 1_555
O8 Tm0 2.398027 1_555
O9 S1 1.515940 1_555
O9 Tm1 2.398031 1_556
O10 S2 1.515938 1_555
O10 Tm2 2.398027 1_555
O11 S3 1.515940 1_555
O11 Tm3 2.398031 1_554
O12 S0 1.485632 1_555
O12 Tm2 2.322528 1_455
O13 S1 1.485632 1_555
O13 Tm3 2.322535 1_555
O14 S2 1.485632 1_555
O14 Tm0 2.322528 1_655
O15 S3 1.485632 1_555
O15 Tm1 2.322535 1_555
O16 S4 1.496049 1_565
O17 S4 1.496049 1_555
O18 S5 1.496049 1_555
O19 S5 1.496049 1_565
O20 S4 1.486478 1_555
O20 Tm0 2.275567 1_555
O21 S4 1.486482 1_565
O21 Tm1 2.275560 1_455
O22 S5 1.486478 1_565
O22 Tm2 2.275567 1_555
O23 S5 1.486482 1_555
O23 Tm3 2.275560 1_655
O24 Tm0 2.380362 1_555
O25 Tm1 2.380363 1_555
O26 Tm2 2.380362 1_555
O27 Tm3 2.380363 1_555
O28 Tm0 2.461447 1_555
O29 Tm1 2.461443 1_455
O30 Tm2 2.461447 1_555
O31 Tm3 2.461443 1_655
O32 Tm0 2.282964 1_555
O33 Tm1 2.282965 1_555
O34 Tm2 2.282964 1_555
O35 Tm3 2.282965 1_555
O36 Tm0 2.342308 1_655
O37 Tm1 2.342315 1_555
O38 Tm2 2.342308 1_455
O39 Tm3 2.342315 1_555
