# generated using pymatgen
data_Li2Ni3WO8
_symmetry_space_group_name_H-M   'P 1'
_cell_length_a   8.25597500
_cell_length_b   8.27468100
_cell_length_c   8.80533200
_cell_angle_alpha   90.00000000
_cell_angle_beta   90.00000000
_cell_angle_gamma   90.00000000
_symmetry_Int_Tables_number   1
_chemical_formula_structural   Li2Ni3WO8
_chemical_formula_sum   'Li8 Ni12 W4 O32'
_cell_volume   601.54118189
_cell_formula_units_Z   4
loop_
 _symmetry_equiv_pos_site_id
 _symmetry_equiv_pos_as_xyz
  1  'x, y, z'
loop_
 _atom_site_type_symbol
 _atom_site_label
 _atom_site_symmetry_multiplicity
 _atom_site_fract_x
 _atom_site_fract_y
 _atom_site_fract_z
 _atom_site_occupancy
  Li  Li0  1  0.77343900  0.75138800  0.75604900  1
  Li  Li1  1  0.49361300  0.49565400  0.49372200  1
  Li  Li2  1  0.50638700  0.99565400  0.00627800  1
  Li  Li3  1  0.22656100  0.25138800  0.74395100  1
  Li  Li4  1  0.27343900  0.74861200  0.24395100  1
  Li  Li5  1  0.99361300  0.00434600  0.50627800  1
  Li  Li6  1  0.00638700  0.50434600  0.99372200  1
  Li  Li7  1  0.72656100  0.24861200  0.25604900  1
  Ni  Ni0  1  0.63485300  0.12371500  0.62089700  1
  Ni  Ni1  1  0.62313400  0.87388600  0.37031000  1
  Ni  Ni2  1  0.62164400  0.62277600  0.12245300  1
  Ni  Ni3  1  0.37835600  0.12277600  0.37754700  1
  Ni  Ni4  1  0.37686600  0.37388600  0.12969000  1
  Ni  Ni5  1  0.36514700  0.62371500  0.87910300  1
  Ni  Ni6  1  0.13485300  0.37628500  0.37910300  1
  Ni  Ni7  1  0.12313400  0.62611400  0.62969000  1
  Ni  Ni8  1  0.12164400  0.87722400  0.87754700  1
  Ni  Ni9  1  0.87835600  0.37722400  0.62245300  1
  Ni  Ni10  1  0.87686600  0.12611400  0.87031000  1
  Ni  Ni11  1  0.86514700  0.87628500  0.12089700  1
  W  W0  1  0.62060500  0.37852500  0.86284700  1
  W  W1  1  0.37939500  0.87852500  0.63715300  1
  W  W2  1  0.12060500  0.12147500  0.13715300  1
  W  W3  1  0.87939500  0.62147500  0.36284700  1
  O  O0  1  0.63906100  0.37661000  0.64351000  1
  O  O1  1  0.64358000  0.14012600  0.86890000  1
  O  O2  1  0.62643800  0.84976300  0.13836300  1
  O  O3  1  0.60985300  0.87096900  0.63272500  1
  O  O4  1  0.63973500  0.64034200  0.37153800  1
  O  O5  1  0.60830400  0.10286300  0.39159100  1
  O  O6  1  0.61021300  0.38621400  0.09893500  1
  O  O7  1  0.62997800  0.60741600  0.87947900  1
  O  O8  1  0.37002200  0.10741600  0.62052100  1
  O  O9  1  0.38978700  0.88621400  0.40106500  1
  O  O10  1  0.39169600  0.60286300  0.10840900  1
  O  O11  1  0.36026500  0.14034200  0.12846200  1
  O  O12  1  0.39014700  0.37096900  0.86727500  1
  O  O13  1  0.37356200  0.34976300  0.36163700  1
  O  O14  1  0.35642000  0.64012600  0.63110000  1
  O  O15  1  0.36093900  0.87661000  0.85649000  1
  O  O16  1  0.13906100  0.12339000  0.35649000  1
  O  O17  1  0.14358000  0.35987400  0.13110000  1
  O  O18  1  0.12643800  0.65023700  0.86163700  1
  O  O19  1  0.10985300  0.62903100  0.36727500  1
  O  O20  1  0.13973500  0.85965800  0.62846200  1
  O  O21  1  0.10830400  0.39713700  0.60840900  1
  O  O22  1  0.11021300  0.11378600  0.90106500  1
  O  O23  1  0.12997800  0.89258400  0.12052100  1
  O  O24  1  0.87002200  0.39258400  0.37947900  1
  O  O25  1  0.88978700  0.61378600  0.59893500  1
  O  O26  1  0.89169600  0.89713700  0.89159100  1
  O  O27  1  0.86026500  0.35965800  0.87153800  1
  O  O28  1  0.89014700  0.12903100  0.13272500  1
  O  O29  1  0.87356200  0.15023700  0.63836300  1
  O  O30  1  0.85642000  0.85987400  0.36890000  1
  O  O31  1  0.86093900  0.62339000  0.14351000  1
loop_
_geom_bond_atom_site_label_1
_geom_bond_atom_site_label_2
_geom_bond_distance
_geom_bond_site_symmetry_2
Li0 O26 1.957585 1_555
Li0 O3 1.995574 1_555
Li0 O7 2.000826 1_555
Li0 O25 2.032987 1_555
Li1 O13 1.947404 1_555
Li1 O4 2.011529 1_555
Li1 O0 2.037613 1_555
Li1 O14 2.043360 1_555
Li2 O2 1.947404 1_555
Li2 O11 2.011529 1_565
Li2 O15 2.037613 1_554
Li2 O1 2.043360 1_564
Li3 O21 1.957585 1_555
Li3 O12 1.995574 1_555
Li3 O8 2.000826 1_555
Li3 O22 2.032987 1_555
Li4 O10 1.957585 1_555
Li4 O19 1.995574 1_555
Li4 O23 2.000826 1_555
Li4 O9 2.032987 1_555
Li5 O29 1.947404 1_555
Li5 O20 2.011529 1_645
Li5 O16 2.037613 1_655
Li5 O30 2.043360 1_545
Li6 O18 1.947404 1_555
Li6 O27 2.011529 1_455
Li6 O31 2.037613 1_456
Li6 O17 2.043360 1_556
Li7 O5 1.957585 1_555
Li7 O28 1.995574 1_555
Li7 O24 2.000826 1_555
Li7 O6 2.032987 1_555
Ni0 O29 1.988912 1_555
Ni0 O5 2.038294 1_555
Ni0 O0 2.102364 1_555
Ni0 O3 2.104132 1_545
Ni0 O1 2.189153 1_555
Ni0 O8 2.190596 1_555
Ni1 O5 1.907888 1_565
Ni1 O30 1.929530 1_555
Ni1 O4 1.937386 1_555
Ni1 O9 1.948120 1_555
Ni1 O2 2.052283 1_555
Ni1 O3 2.313377 1_555
Ni2 O2 1.883878 1_555
Ni2 O10 1.909591 1_555
Ni2 O6 1.970660 1_555
Ni2 O31 1.984302 1_555
Ni2 O7 2.144343 1_554
Ni2 O4 2.203156 1_555
Ni3 O13 1.883878 1_555
Ni3 O5 1.909591 1_555
Ni3 O9 1.970660 1_545
Ni3 O16 1.984302 1_555
Ni3 O8 2.144343 1_555
Ni3 O11 2.203156 1_555
Ni4 O10 1.907888 1_555
Ni4 O17 1.929530 1_555
Ni4 O11 1.937386 1_555
Ni4 O6 1.948120 1_555
Ni4 O13 2.052283 1_555
Ni4 O12 2.313377 1_554
Ni5 O18 1.988912 1_555
Ni5 O10 2.038294 1_556
Ni5 O15 2.102364 1_555
Ni5 O12 2.104132 1_555
Ni5 O14 2.189153 1_555
Ni5 O7 2.190596 1_555
Ni6 O13 1.988912 1_555
Ni6 O21 2.038294 1_555
Ni6 O16 2.102364 1_555
Ni6 O19 2.104132 1_555
Ni6 O17 2.189153 1_555
Ni6 O24 2.190596 1_455
Ni7 O21 1.907888 1_555
Ni7 O14 1.929530 1_555
Ni7 O20 1.937386 1_555
Ni7 O25 1.948120 1_455
Ni7 O18 2.052283 1_555
Ni7 O19 2.313377 1_555
Ni8 O18 1.883878 1_555
Ni8 O26 1.909591 1_455
Ni8 O22 1.970660 1_565
Ni8 O15 1.984302 1_555
Ni8 O23 2.144343 1_556
Ni8 O20 2.203156 1_555
Ni9 O29 1.883878 1_555
Ni9 O21 1.909591 1_655
Ni9 O25 1.970660 1_555
Ni9 O0 1.984302 1_555
Ni9 O24 2.144343 1_555
Ni9 O27 2.203156 1_555
Ni10 O26 1.907888 1_545
Ni10 O1 1.929530 1_555
Ni10 O27 1.937386 1_555
Ni10 O22 1.948120 1_655
Ni10 O29 2.052283 1_555
Ni10 O28 2.313377 1_556
Ni11 O2 1.988912 1_555
Ni11 O26 2.038294 1_554
Ni11 O31 2.102364 1_555
Ni11 O28 2.104132 1_565
Ni11 O30 2.189153 1_555
Ni11 O23 2.190596 1_655
O0 W0 1.937401 1_555
O1 W0 1.982491 1_555
O3 W1 1.904082 1_555
O4 W3 1.986251 1_555
O6 W0 2.081575 1_554
O7 W0 1.901229 1_555
O8 W1 1.901229 1_545
O9 W1 2.081575 1_555
O11 W2 1.986251 1_555
O12 W0 1.904082 1_555
O14 W1 1.982491 1_555
O15 W1 1.937401 1_555
O16 W2 1.937401 1_555
O17 W2 1.982491 1_555
O19 W3 1.904082 1_455
O20 W1 1.986251 1_555
O22 W2 2.081575 1_556
O23 W2 1.901229 1_565
O24 W3 1.901229 1_555
O25 W3 2.081575 1_555
O27 W0 1.986251 1_555
O28 W2 1.904082 1_655
O30 W3 1.982491 1_555
O31 W3 1.937401 1_555
