# generated using pymatgen
data_LiB11
_symmetry_space_group_name_H-M   'P 1'
_cell_length_a   4.92326915
_cell_length_b   4.92326915
_cell_length_c   4.92326915
_cell_angle_alpha   60.00000000
_cell_angle_beta   60.00000000
_cell_angle_gamma   60.00000000
_symmetry_Int_Tables_number   1
_chemical_formula_structural   LiB11
_chemical_formula_sum   'Li1 B11'
_cell_volume   84.38120794
_cell_formula_units_Z   1
loop_
 _symmetry_equiv_pos_site_id
 _symmetry_equiv_pos_as_xyz
  1  'x, y, z'
loop_
 _atom_site_type_symbol
 _atom_site_label
 _atom_site_symmetry_multiplicity
 _atom_site_fract_x
 _atom_site_fract_y
 _atom_site_fract_z
 _atom_site_occupancy
  Li  Li0  1  0.25000000  0.25000000  0.25000000  1
  B  B0  1  0.30260300  0.30260300  0.69739700  1
  B  B1  1  0.69739700  0.30260300  0.69739700  1
  B  B2  1  0.30260300  0.69739700  0.69739700  1
  B  B3  1  0.69739700  0.69739700  0.30260300  1
  B  B4  1  0.30260300  0.69739700  0.30260300  1
  B  B5  1  0.69739700  0.30260300  0.30260300  1
  B  B6  1  0.43915200  0.85361600  0.85361600  1
  B  B7  1  0.85361600  0.43915200  0.85361600  1
  B  B8  1  0.85361600  0.85361600  0.85361600  1
  B  B9  1  0.85361600  0.85361600  0.43915200  1
  B  B10  1  0.00000000  0.00000000  0.00000000  1
loop_
_geom_bond_atom_site_label_1
_geom_bond_atom_site_label_2
_geom_bond_distance
_geom_bond_site_symmetry_2
B0 B7 1.805718 1_455
B0 B6 1.805718 1_545
B0 B4 1.943677 1_555
B0 B5 1.943677 1_555
B0 B2 1.943677 1_555
B0 B1 1.943677 1_555
B0 B10 2.106890 1_556
B0 Li0 2.488732 1_555
B0 Li0 2.488732 1_556
B1 B7 1.805718 1_555
B1 B8 1.805718 1_545
B1 B5 1.943677 1_555
B1 B2 1.943677 1_555
B1 B3 1.943677 1_555
B1 B10 2.106890 1_656
B1 Li0 2.488732 1_556
B1 Li0 2.488732 1_655
B2 B6 1.805718 1_555
B2 B8 1.805718 1_455
B2 B4 1.943677 1_555
B2 B3 1.943677 1_555
B2 Li0 2.488732 1_556
B2 Li0 2.488732 1_565
B3 B9 1.805718 1_555
B3 B8 1.805718 1_554
B3 B4 1.943677 1_555
B3 B5 1.943677 1_555
B3 Li0 2.488732 1_655
B3 Li0 2.488732 1_565
B4 B9 1.805718 1_455
B4 B6 1.805718 1_554
B4 B5 1.943677 1_555
B4 Li0 2.488732 1_555
B4 Li0 2.488732 1_565
B5 B7 1.805718 1_554
B5 B9 1.805718 1_545
B5 Li0 2.488732 1_555
B5 Li0 2.488732 1_655
B6 B9 2.040518 1_555
B6 B7 2.040518 1_555
B6 B8 2.040518 1_555
B7 B9 2.040518 1_555
B7 B8 2.040518 1_555
B8 B9 2.040518 1_555
B10 B9 1.765317 1_445
B10 B6 1.765317 1_544
B10 B7 1.765317 1_454
B10 B8 1.765317 1_444
B10 B4 2.106890 1_545
B10 B5 2.106890 1_455
B10 B2 2.106890 1_544
B10 B3 2.106890 1_445
