# generated using pymatgen
data_Dy4Sb3
_symmetry_space_group_name_H-M   'P 1'
_cell_length_a   7.93773074
_cell_length_b   7.93774136
_cell_length_c   7.93773552
_cell_angle_alpha   109.47127616
_cell_angle_beta   109.47120342
_cell_angle_gamma   109.47119644
_symmetry_Int_Tables_number   1
_chemical_formula_structural   Dy4Sb3
_chemical_formula_sum   'Dy8 Sb6'
_cell_volume   385.00641396
_cell_formula_units_Z   2
loop_
 _symmetry_equiv_pos_site_id
 _symmetry_equiv_pos_as_xyz
  1  'x, y, z'
loop_
 _atom_site_type_symbol
 _atom_site_label
 _atom_site_symmetry_multiplicity
 _atom_site_fract_x
 _atom_site_fract_y
 _atom_site_fract_z
 _atom_site_occupancy
  Dy  Dy0  1  0.14362512  0.14362382  0.14362457  1
  Dy  Dy1  1  0.85637488  0.50000070  0.00000045  1
  Dy  Dy2  1  0.99999938  0.85637507  0.49999915  1
  Dy  Dy3  1  0.49999887  0.00000004  0.85637499  1
  Dy  Dy4  1  0.00000062  0.35637569  0.50000077  1
  Dy  Dy5  1  0.50000113  0.00000117  0.35637712  1
  Dy  Dy6  1  0.35637656  0.50000072  0.00000101  1
  Dy  Dy7  1  0.64362344  0.64362416  0.64362346  1
  Sb  Sb0  1  0.24999233  0.62499465  0.37499394  1
  Sb  Sb1  1  0.37499954  0.24999686  0.62499757  1
  Sb  Sb2  1  0.12500012  0.75000431  0.87500423  1
  Sb  Sb3  1  0.87499988  0.12500419  0.75000412  1
  Sb  Sb4  1  0.62500046  0.37499632  0.24999902  1
  Sb  Sb5  1  0.75000767  0.87500232  0.12500161  1
loop_
_geom_bond_atom_site_label_1
_geom_bond_atom_site_label_2
_geom_bond_distance
_geom_bond_site_symmetry_2
Dy0 Sb5 3.061206 1_445
Dy0 Sb2 3.061207 1_544
Dy0 Sb3 3.061249 1_454
Dy0 Sb0 3.289832 1_555
Dy0 Sb1 3.289834 1_555
Dy0 Sb4 3.289845 1_555
Dy1 Sb0 3.061206 1_655
Dy1 Sb3 3.061222 1_554
Dy1 Sb2 3.061247 1_654
Dy1 Sb5 3.289816 1_555
Dy1 Sb4 3.289842 1_555
Dy1 Sb1 3.289849 1_554
Dy2 Sb5 3.061227 1_555
Dy2 Sb1 3.061244 1_665
Dy2 Sb3 3.061289 1_565
Dy2 Sb0 3.289834 1_655
Dy2 Sb2 3.289859 1_655
Dy2 Sb4 3.289862 1_555
Dy3 Sb4 3.061228 1_556
Dy3 Sb2 3.061254 1_545
Dy3 Sb5 3.061284 1_546
Dy3 Sb3 3.289831 1_555
Dy3 Sb1 3.289835 1_555
Dy3 Sb0 3.289884 1_545
Dy4 Sb0 3.061234 1_555
Dy4 Sb4 3.061238 1_455
Dy4 Sb2 3.061286 1_555
Dy4 Sb5 3.289838 1_445
Dy4 Sb3 3.289853 1_455
Dy4 Sb1 3.289853 1_555
Dy5 Sb1 3.061223 1_555
Dy5 Sb3 3.061249 1_555
Dy5 Sb0 3.061281 1_545
Dy5 Sb4 3.289828 1_555
Dy5 Sb2 3.289837 1_544
Dy5 Sb5 3.289888 1_545
Dy6 Sb4 3.061267 1_555
Dy6 Sb1 3.061274 1_554
Dy6 Sb5 3.061288 1_555
Dy6 Sb0 3.289837 1_555
Dy6 Sb3 3.289846 1_454
Dy6 Sb2 3.289870 1_554
Dy7 Sb1 3.061263 1_555
Dy7 Sb4 3.061265 1_555
Dy7 Sb0 3.061283 1_555
Dy7 Sb5 3.289844 1_556
Dy7 Sb2 3.289845 1_655
Dy7 Sb3 3.289869 1_565
