# generated using pymatgen
data_Mg30TiMnO32
_symmetry_space_group_name_H-M   'P 1'
_cell_length_a   8.53906000
_cell_length_b   8.53906000
_cell_length_c   8.56313500
_cell_angle_alpha   90.00000000
_cell_angle_beta   90.00000000
_cell_angle_gamma   90.00000000
_symmetry_Int_Tables_number   1
_chemical_formula_structural   Mg30TiMnO32
_chemical_formula_sum   'Mg30 Ti1 Mn1 O32'
_cell_volume   624.38566129
_cell_formula_units_Z   1
loop_
 _symmetry_equiv_pos_site_id
 _symmetry_equiv_pos_as_xyz
  1  'x, y, z'
loop_
 _atom_site_type_symbol
 _atom_site_label
 _atom_site_symmetry_multiplicity
 _atom_site_fract_x
 _atom_site_fract_y
 _atom_site_fract_z
 _atom_site_occupancy
  Mg  Mg0  1  0.00000000  0.50000000  0.00000000  1
  Mg  Mg1  1  0.50000000  0.00000000  0.00000000  1
  Mg  Mg2  1  0.00000000  0.00000000  0.50000000  1
  Mg  Mg3  1  0.00000000  0.50000000  0.50000000  1
  Mg  Mg4  1  0.50000000  0.00000000  0.50000000  1
  Mg  Mg5  1  0.50000000  0.50000000  0.50000000  1
  Mg  Mg6  1  0.24912700  0.24912700  0.00000000  1
  Mg  Mg7  1  0.24912700  0.75087300  0.00000000  1
  Mg  Mg8  1  0.75087300  0.24912700  0.00000000  1
  Mg  Mg9  1  0.75087300  0.75087300  0.00000000  1
  Mg  Mg10  1  0.25010400  0.25010400  0.50000000  1
  Mg  Mg11  1  0.25010400  0.74989600  0.50000000  1
  Mg  Mg12  1  0.74989600  0.25010400  0.50000000  1
  Mg  Mg13  1  0.74989600  0.74989600  0.50000000  1
  Mg  Mg14  1  0.00000000  0.25091800  0.25104800  1
  Mg  Mg15  1  0.00000000  0.74908200  0.25104800  1
  Mg  Mg16  1  0.50000000  0.25011900  0.25105000  1
  Mg  Mg17  1  0.50000000  0.74988100  0.25105000  1
  Mg  Mg18  1  0.00000000  0.25091800  0.74895200  1
  Mg  Mg19  1  0.00000000  0.74908200  0.74895200  1
  Mg  Mg20  1  0.50000000  0.25011900  0.74895000  1
  Mg  Mg21  1  0.50000000  0.74988100  0.74895000  1
  Mg  Mg22  1  0.25091800  0.00000000  0.25104800  1
  Mg  Mg23  1  0.25011900  0.50000000  0.25105000  1
  Mg  Mg24  1  0.74908200  0.00000000  0.25104800  1
  Mg  Mg25  1  0.74988100  0.50000000  0.25105000  1
  Mg  Mg26  1  0.25091800  0.00000000  0.74895200  1
  Mg  Mg27  1  0.25011900  0.50000000  0.74895000  1
  Mg  Mg28  1  0.74908200  0.00000000  0.74895200  1
  Mg  Mg29  1  0.74988100  0.50000000  0.74895000  1
  Ti  Ti0  1  0.50000000  0.50000000  0.00000000  1
  Mn  Mn0  1  0.00000000  0.00000000  0.00000000  1
  O  O0  1  0.00000000  0.00000000  0.25635400  1
  O  O1  1  0.00000000  0.50000000  0.25066100  1
  O  O2  1  0.50000000  0.00000000  0.25066100  1
  O  O3  1  0.50000000  0.50000000  0.25932600  1
  O  O4  1  0.00000000  0.00000000  0.74364600  1
  O  O5  1  0.00000000  0.50000000  0.74933900  1
  O  O6  1  0.50000000  0.00000000  0.74933900  1
  O  O7  1  0.50000000  0.50000000  0.74067400  1
  O  O8  1  0.24992500  0.24992500  0.24922200  1
  O  O9  1  0.24992500  0.75007500  0.24922200  1
  O  O10  1  0.75007500  0.24992500  0.24922200  1
  O  O11  1  0.75007500  0.75007500  0.24922200  1
  O  O12  1  0.24992500  0.24992500  0.75077800  1
  O  O13  1  0.24992500  0.75007500  0.75077800  1
  O  O14  1  0.75007500  0.24992500  0.75077800  1
  O  O15  1  0.75007500  0.75007500  0.75077800  1
  O  O16  1  0.00000000  0.25645400  0.00000000  1
  O  O17  1  0.00000000  0.74354600  0.00000000  1
  O  O18  1  0.50000000  0.24720100  0.00000000  1
  O  O19  1  0.50000000  0.75279900  0.00000000  1
  O  O20  1  0.00000000  0.25049000  0.50000000  1
  O  O21  1  0.00000000  0.74951000  0.50000000  1
  O  O22  1  0.50000000  0.24905000  0.50000000  1
  O  O23  1  0.50000000  0.75095000  0.50000000  1
  O  O24  1  0.25645400  0.00000000  0.00000000  1
  O  O25  1  0.24720100  0.50000000  0.00000000  1
  O  O26  1  0.74354600  0.00000000  0.00000000  1
  O  O27  1  0.75279900  0.50000000  0.00000000  1
  O  O28  1  0.25049000  0.00000000  0.50000000  1
  O  O29  1  0.24905000  0.50000000  0.50000000  1
  O  O30  1  0.74951000  0.00000000  0.50000000  1
  O  O31  1  0.75095000  0.50000000  0.50000000  1
loop_
_geom_bond_atom_site_label_1
_geom_bond_atom_site_label_2
_geom_bond_distance
_geom_bond_site_symmetry_2
Mg0 O17 2.079654 1_555
Mg0 O16 2.079654 1_555
Mg0 O25 2.110864 1_555
Mg0 O27 2.110864 1_455
Mg0 O1 2.146444 1_555
Mg0 O5 2.146444 1_554
Mg1 O26 2.079654 1_555
Mg1 O24 2.079654 1_555
Mg1 O18 2.110864 1_555
Mg1 O19 2.110864 1_545
Mg1 O2 2.146444 1_555
Mg1 O6 2.146444 1_554
Mg2 O4 2.086374 1_555
Mg2 O0 2.086374 1_555
Mg2 O30 2.138949 1_455
Mg2 O21 2.138949 1_545
Mg2 O20 2.138949 1_555
Mg2 O28 2.138949 1_555
Mg3 O31 2.126653 1_455
Mg3 O29 2.126653 1_555
Mg3 O20 2.130581 1_555
Mg3 O21 2.130581 1_555
Mg3 O5 2.135124 1_555
Mg3 O1 2.135124 1_555
Mg4 O23 2.126653 1_545
Mg4 O22 2.126653 1_555
Mg4 O28 2.130581 1_555
Mg4 O30 2.130581 1_555
Mg4 O6 2.135124 1_555
Mg4 O2 2.135124 1_555
Mg5 O7 2.060924 1_555
Mg5 O3 2.060924 1_555
Mg5 O23 2.142877 1_555
Mg5 O22 2.142877 1_555
Mg5 O29 2.142877 1_555
Mg5 O31 2.142877 1_555
Mg6 O24 2.128230 1_555
Mg6 O16 2.128230 1_555
Mg6 O8 2.134143 1_555
Mg6 O12 2.134143 1_554
Mg6 O25 2.142283 1_555
Mg6 O18 2.142283 1_555
Mg7 O24 2.128230 1_565
Mg7 O17 2.128230 1_555
Mg7 O9 2.134143 1_555
Mg7 O13 2.134143 1_554
Mg7 O25 2.142283 1_555
Mg7 O19 2.142283 1_555
Mg8 O16 2.128230 1_655
Mg8 O26 2.128230 1_555
Mg8 O10 2.134143 1_555
Mg8 O14 2.134143 1_554
Mg8 O27 2.142283 1_555
Mg8 O18 2.142283 1_555
Mg9 O17 2.128230 1_655
Mg9 O26 2.128230 1_565
Mg9 O15 2.134143 1_554
Mg9 O11 2.134143 1_555
Mg9 O27 2.142283 1_555
Mg9 O19 2.142283 1_555
Mg10 O22 2.133896 1_555
Mg10 O29 2.133896 1_555
Mg10 O20 2.135656 1_555
Mg10 O28 2.135656 1_555
Mg10 O12 2.147447 1_555
Mg10 O8 2.147447 1_555
Mg11 O23 2.133896 1_555
Mg11 O29 2.133896 1_555
Mg11 O28 2.135656 1_565
Mg11 O21 2.135656 1_555
Mg11 O13 2.147447 1_555
Mg11 O9 2.147447 1_555
Mg12 O31 2.133896 1_555
Mg12 O22 2.133896 1_555
Mg12 O30 2.135656 1_555
Mg12 O20 2.135656 1_655
Mg12 O14 2.147447 1_555
Mg12 O10 2.147447 1_555
Mg13 O31 2.133896 1_555
Mg13 O23 2.133896 1_555
Mg13 O21 2.135656 1_655
Mg13 O30 2.135656 1_565
Mg13 O15 2.147447 1_555
Mg13 O11 2.147447 1_555
Mg14 O1 2.126929 1_555
Mg14 O20 2.131813 1_555
Mg14 O8 2.134199 1_555
Mg14 O10 2.134199 1_455
Mg14 O0 2.143086 1_555
Mg14 O16 2.150278 1_555
Mg15 O1 2.126929 1_555
Mg15 O21 2.131813 1_555
Mg15 O9 2.134199 1_555
Mg15 O11 2.134199 1_455
Mg15 O0 2.143086 1_565
Mg15 O17 2.150278 1_555
Mg16 O22 2.131812 1_555
Mg16 O3 2.134925 1_555
Mg16 O10 2.135463 1_555
Mg16 O8 2.135463 1_555
Mg16 O2 2.135784 1_555
Mg16 O18 2.149919 1_555
Mg17 O23 2.131812 1_555
Mg17 O3 2.134925 1_555
Mg17 O11 2.135463 1_555
Mg17 O9 2.135463 1_555
Mg17 O2 2.135784 1_565
Mg17 O19 2.149919 1_555
Mg18 O5 2.126929 1_555
Mg18 O20 2.131813 1_555
Mg18 O12 2.134199 1_555
Mg18 O14 2.134199 1_455
Mg18 O4 2.143086 1_555
Mg18 O16 2.150278 1_556
Mg19 O5 2.126929 1_555
Mg19 O21 2.131813 1_555
Mg19 O13 2.134199 1_555
Mg19 O15 2.134199 1_455
Mg19 O4 2.143086 1_565
Mg19 O17 2.150278 1_556
Mg20 O22 2.131812 1_555
Mg20 O7 2.134925 1_555
Mg20 O14 2.135463 1_555
Mg20 O12 2.135463 1_555
Mg20 O6 2.135784 1_555
Mg20 O18 2.149919 1_556
Mg21 O23 2.131812 1_555
Mg21 O7 2.134925 1_555
Mg21 O15 2.135463 1_555
Mg21 O13 2.135463 1_555
Mg21 O6 2.135784 1_565
Mg21 O19 2.149919 1_556
Mg22 O2 2.126929 1_555
Mg22 O28 2.131813 1_555
Mg22 O8 2.134199 1_555
Mg22 O9 2.134199 1_545
Mg22 O0 2.143086 1_555
Mg22 O24 2.150278 1_555
Mg23 O29 2.131812 1_555
Mg23 O3 2.134925 1_555
Mg23 O9 2.135463 1_555
Mg23 O8 2.135463 1_555
Mg23 O1 2.135784 1_555
Mg23 O25 2.149919 1_555
Mg24 O2 2.126929 1_555
Mg24 O30 2.131813 1_555
Mg24 O10 2.134199 1_555
Mg24 O11 2.134199 1_545
Mg24 O0 2.143086 1_655
Mg24 O26 2.150278 1_555
Mg25 O31 2.131812 1_555
Mg25 O3 2.134925 1_555
Mg25 O11 2.135463 1_555
Mg25 O10 2.135463 1_555
Mg25 O1 2.135784 1_655
Mg25 O27 2.149919 1_555
Mg26 O6 2.126929 1_555
Mg26 O28 2.131813 1_555
Mg26 O12 2.134199 1_555
Mg26 O13 2.134199 1_545
Mg26 O4 2.143086 1_555
Mg26 O24 2.150278 1_556
Mg27 O29 2.131812 1_555
Mg27 O7 2.134925 1_555
Mg27 O13 2.135463 1_555
Mg27 O12 2.135463 1_555
Mg27 O5 2.135784 1_555
Mg27 O25 2.149919 1_556
Mg28 O6 2.126929 1_555
Mg28 O30 2.131813 1_555
Mg28 O14 2.134199 1_555
Mg28 O15 2.134199 1_545
Mg28 O4 2.143086 1_655
Mg28 O26 2.150278 1_556
Mg29 O31 2.131812 1_555
Mg29 O7 2.134925 1_555
Mg29 O15 2.135463 1_555
Mg29 O14 2.135463 1_555
Mg29 O5 2.135784 1_655
Mg29 O27 2.149919 1_556
Mn0 O24 2.189876 1_555
Mn0 O16 2.189876 1_555
Mn0 O26 2.189876 1_455
Mn0 O17 2.189876 1_545
Mn0 O0 2.195194 1_555
Mn0 O4 2.195194 1_554
O3 Ti0 2.220644 1_555
O7 Ti0 2.220644 1_556
O18 Ti0 2.158666 1_555
O19 Ti0 2.158666 1_555
O25 Ti0 2.158666 1_555
O27 Ti0 2.158666 1_555
