# generated using pymatgen
data_Li4MnCo2O7
_symmetry_space_group_name_H-M   'P 1'
_cell_length_a   2.90958300
_cell_length_b   10.66501930
_cell_length_c   8.41677112
_cell_angle_alpha   78.26577356
_cell_angle_beta   90.00000000
_cell_angle_gamma   82.15997043
_symmetry_Int_Tables_number   1
_chemical_formula_structural   Li4MnCo2O7
_chemical_formula_sum   'Li8 Mn2 Co4 O14'
_cell_volume   253.22663815
_cell_formula_units_Z   2
loop_
 _symmetry_equiv_pos_site_id
 _symmetry_equiv_pos_as_xyz
  1  'x, y, z'
loop_
 _atom_site_type_symbol
 _atom_site_label
 _atom_site_symmetry_multiplicity
 _atom_site_fract_x
 _atom_site_fract_y
 _atom_site_fract_z
 _atom_site_occupancy
  Li  Li0  1  0.42850700  0.14298600  0.21917400  1
  Li  Li1  1  0.28960800  0.42078400  0.63616900  1
  Li  Li2  1  0.14441900  0.71116200  0.07581700  1
  Li  Li3  1  0.99569400  0.00861100  0.51445400  1
  Li  Li4  1  0.86059000  0.27882100  0.91452800  1
  Li  Li5  1  0.71453200  0.57093700  0.35790700  1
  Li  Li6  1  0.56489700  0.87020600  0.78184100  1
  Li  Li7  1  0.43008600  0.13982700  0.71228000  1
  Mn  Mn0  1  0.99854500  0.00291000  0.98743700  1
  Mn  Mn1  1  0.71464500  0.57071200  0.85922000  1
  Co  Co0  1  0.86098700  0.27802500  0.45568400  1
  Co  Co1  1  0.57055700  0.85888600  0.28365100  1
  Co  Co2  1  0.28989400  0.42021100  0.15533900  1
  Co  Co3  1  0.14111300  0.71777400  0.56952100  1
  O  O0  1  0.43644300  0.12711400  0.96848600  1
  O  O1  1  0.28822400  0.42355200  0.38742900  1
  O  O2  1  0.15203200  0.69593700  0.83227400  1
  O  O3  1  0.00510500  0.98979100  0.23499100  1
  O  O4  1  0.85515600  0.28968600  0.66637100  1
  O  O5  1  0.71926200  0.56147600  0.09226900  1
  O  O6  1  0.57676700  0.84646600  0.53198300  1
  O  O7  1  0.42488100  0.15023800  0.45973000  1
  O  O8  1  0.27775300  0.44449500  0.88708500  1
  O  O9  1  0.13760200  0.72479700  0.31604800  1
  O  O10  1  0.00137400  0.99725100  0.77054800  1
  O  O11  1  0.85145300  0.29709400  0.17574900  1
  O  O12  1  0.70623000  0.58754000  0.62173300  1
  O  O13  1  0.56364500  0.87270900  0.03228400  1
loop_
_geom_bond_atom_site_label_1
_geom_bond_atom_site_label_2
_geom_bond_distance
_geom_bond_site_symmetry_2
Li0 O7 2.041812 1_555
Li0 O0 2.150681 1_554
Li0 O11 2.157941 1_555
Li0 O11 2.157941 1_455
Li0 O3 2.159951 1_545
Li0 O3 2.159953 1_645
Li1 O4 1.988706 1_555
Li1 O4 1.988710 1_455
Li1 O1 2.087780 1_555
Li1 O8 2.177180 1_555
Li1 O12 2.268775 1_555
Li1 O12 2.268775 1_455
Li2 O9 2.056382 1_555
Li2 O2 2.088809 1_554
Li2 O5 2.132314 1_455
Li2 O5 2.132314 1_555
Li2 O13 2.215187 1_555
Li2 O13 2.215189 1_455
Li3 O7 2.069930 1_555
Li3 O7 2.069932 1_655
Li3 O10 2.134080 1_645
Li3 O6 2.229164 1_545
Li3 O6 2.229166 1_645
Li3 O3 2.400896 1_645
Li4 O4 2.068169 1_555
Li4 O0 2.143099 1_655
Li4 O0 2.143101 1_555
Li4 O11 2.246232 1_556
Li4 O8 2.251149 1_655
Li4 O8 2.251149 1_555
Li5 O1 2.108097 1_655
Li5 O1 2.108099 1_555
Li5 O9 2.155902 1_655
Li5 O9 2.155902 1_555
Li5 O5 2.258455 1_555
Li5 O12 2.263096 1_555
Li6 O10 1.968441 1_655
Li6 O10 1.968443 1_555
Li6 O13 2.113509 1_556
Li6 O6 2.168429 1_555
Li6 O2 2.316410 1_555
Li6 O2 2.316412 1_655
Li7 O10 2.079121 1_545
Li7 O10 2.079121 1_645
Li7 O7 2.105828 1_555
Li7 O4 2.126358 1_555
Li7 O4 2.126360 1_455
Li7 O0 2.132908 1_555
Mn0 O10 1.838711 1_645
Mn0 O0 1.943692 1_655
Mn0 O0 1.943692 1_555
Mn0 O13 1.984445 1_646
Mn0 O13 1.984447 1_546
Mn0 O3 2.059623 1_646
Mn1 O5 1.943835 1_556
Mn1 O2 1.948100 1_655
Mn1 O2 1.948103 1_555
Mn1 O8 1.954813 1_655
Mn1 O8 1.954815 1_555
Mn1 O12 1.970074 1_555
Co0 O4 1.802634 1_555
Co0 O7 1.980277 1_555
Co0 O7 1.980280 1_655
Co0 O1 2.108984 1_555
Co0 O1 2.108986 1_655
Co0 O11 2.323172 1_555
Co1 O3 1.991086 1_555
Co1 O3 1.991088 1_655
Co1 O9 2.009772 1_555
Co1 O9 2.009774 1_655
Co1 O6 2.067208 1_555
Co1 O13 2.090609 1_555
Co2 O11 1.935506 1_455
Co2 O11 1.935509 1_555
Co2 O1 1.960999 1_555
Co2 O5 2.073765 1_455
Co2 O5 2.073767 1_555
Co2 O8 2.219412 1_554
Co3 O6 1.971947 1_555
Co3 O6 1.971947 1_455
Co3 O12 1.988605 1_455
Co3 O12 1.988605 1_555
Co3 O9 2.119436 1_555
Co3 O2 2.175916 1_555
