# generated using pymatgen
data_Mo2H18C6NClO7
_symmetry_space_group_name_H-M   'P 1'
_cell_length_a   9.12441500
_cell_length_b   11.48236400
_cell_length_c   15.88099398
_cell_angle_alpha   90.00000000
_cell_angle_beta   98.33773088
_cell_angle_gamma   90.00000000
_symmetry_Int_Tables_number   1
_chemical_formula_structural   Mo2H18C6NClO7
_chemical_formula_sum   'Mo8 H72 C24 N4 Cl4 O28'
_cell_volume   1646.26338866
_cell_formula_units_Z   4
loop_
 _symmetry_equiv_pos_site_id
 _symmetry_equiv_pos_as_xyz
  1  'x, y, z'
loop_
 _atom_site_type_symbol
 _atom_site_label
 _atom_site_symmetry_multiplicity
 _atom_site_fract_x
 _atom_site_fract_y
 _atom_site_fract_z
 _atom_site_occupancy
  Mo  Mo0  1  0.85104900  0.21339400  0.54501600  1
  Mo  Mo1  1  0.14895100  0.71339400  0.95498400  1
  Mo  Mo2  1  0.14895100  0.78660600  0.45498400  1
  Mo  Mo3  1  0.85104900  0.28660600  0.04501600  1
  Mo  Mo4  1  0.07268800  0.99195900  0.61913800  1
  Mo  Mo5  1  0.92731200  0.49195900  0.88086200  1
  Mo  Mo6  1  0.92731200  0.00804100  0.38086200  1
  Mo  Mo7  1  0.07268800  0.50804100  0.11913800  1
  H  H0  1  0.76160800  0.85334200  0.51784200  1
  H  H1  1  0.23839200  0.35334200  0.98215800  1
  H  H2  1  0.23839200  0.14665800  0.48215800  1
  H  H3  1  0.76160800  0.64665800  0.01784200  1
  H  H4  1  0.69244700  0.96455600  0.58098200  1
  H  H5  1  0.30755300  0.46455600  0.91901800  1
  H  H6  1  0.30755300  0.03544400  0.41901800  1
  H  H7  1  0.69244700  0.53544400  0.08098200  1
  H  H8  1  0.63850000  0.96339300  0.46790400  1
  H  H9  1  0.36150000  0.46339300  0.03209600  1
  H  H10  1  0.36150000  0.03660700  0.53209600  1
  H  H11  1  0.63850000  0.53660700  0.96790400  1
  H  H12  1  0.88784600  0.27814700  0.31212600  1
  H  H13  1  0.11215400  0.77814700  0.18787400  1
  H  H14  1  0.11215400  0.72185300  0.68787400  1
  H  H15  1  0.88784600  0.22185300  0.81212600  1
  H  H16  1  0.98394100  0.35305800  0.40293200  1
  H  H17  1  0.01605900  0.85305800  0.09706800  1
  H  H18  1  0.01605900  0.64694200  0.59706800  1
  H  H19  1  0.98394100  0.14694200  0.90293200  1
  H  H20  1  0.08084900  0.25239300  0.34417200  1
  H  H21  1  0.91915100  0.75239300  0.15582800  1
  H  H22  1  0.91915100  0.74760700  0.65582800  1
  H  H23  1  0.08084900  0.24760700  0.84417200  1
  H  H24  1  0.57584400  0.73360500  0.84834200  1
  H  H25  1  0.42415600  0.23360500  0.65165800  1
  H  H26  1  0.42415600  0.26639500  0.15165800  1
  H  H27  1  0.57584400  0.76639500  0.34834200  1
  H  H28  1  0.49682200  0.79647700  0.74861100  1
  H  H29  1  0.50317800  0.29647700  0.75138900  1
  H  H30  1  0.50317800  0.20352300  0.25138900  1
  H  H31  1  0.49682200  0.70352300  0.24861100  1
  H  H32  1  0.69408800  0.77735500  0.77339000  1
  H  H33  1  0.30591200  0.27735500  0.72661000  1
  H  H34  1  0.30591200  0.22264500  0.22661000  1
  H  H35  1  0.69408800  0.72264500  0.27339000  1
  H  H36  1  0.47697000  0.03268600  0.90154400  1
  H  H37  1  0.52303000  0.53268600  0.59845600  1
  H  H38  1  0.52303000  0.96731400  0.09845600  1
  H  H39  1  0.47697000  0.46731400  0.40154400  1
  H  H40  1  0.37166700  0.94027600  0.82390100  1
  H  H41  1  0.62833300  0.44027600  0.67609900  1
  H  H42  1  0.62833300  0.05972400  0.17609900  1
  H  H43  1  0.37166700  0.55972400  0.32390100  1
  H  H44  1  0.45203800  0.88105400  0.92464500  1
  H  H45  1  0.54796200  0.38105400  0.57535500  1
  H  H46  1  0.54796200  0.11894600  0.07535500  1
  H  H47  1  0.45203800  0.61894600  0.42464500  1
  H  H48  1  0.74697400  0.49287700  0.43538600  1
  H  H49  1  0.25302600  0.99287700  0.06461400  1
  H  H50  1  0.25302600  0.50712300  0.56461400  1
  H  H51  1  0.74697400  0.00712300  0.93538600  1
  H  H52  1  0.83609600  0.60427800  0.38165100  1
  H  H53  1  0.16390400  0.10427800  0.11834900  1
  H  H54  1  0.16390400  0.39572200  0.61834900  1
  H  H55  1  0.83609600  0.89572200  0.88165100  1
  H  H56  1  0.71664200  0.64360900  0.45695200  1
  H  H57  1  0.28335800  0.14360900  0.04304800  1
  H  H58  1  0.28335800  0.35639100  0.54304800  1
  H  H59  1  0.71664200  0.85639100  0.95695200  1
  H  H60  1  0.73060400  0.98859100  0.74701200  1
  H  H61  1  0.26939600  0.48859100  0.75298800  1
  H  H62  1  0.26939600  0.01140900  0.25298800  1
  H  H63  1  0.73060400  0.51140900  0.24701200  1
  H  H64  1  0.53191000  0.00007400  0.72073400  1
  H  H65  1  0.46809000  0.50007400  0.77926600  1
  H  H66  1  0.46809000  0.99992600  0.27926600  1
  H  H67  1  0.53191000  0.49992600  0.22073400  1
  H  H68  1  0.63042100  0.09179900  0.80135300  1
  H  H69  1  0.36957900  0.59179900  0.69864700  1
  H  H70  1  0.36957900  0.90820100  0.19864700  1
  H  H71  1  0.63042100  0.40820100  0.30135300  1
  C  C0  1  0.72905500  0.94532600  0.51971700  1
  C  C1  1  0.27094500  0.44532600  0.98028300  1
  C  C2  1  0.27094500  0.05467400  0.48028300  1
  C  C3  1  0.72905500  0.55467400  0.01971700  1
  C  C4  1  0.97544700  0.27093300  0.36725900  1
  C  C5  1  0.02455300  0.77093300  0.13274100  1
  C  C6  1  0.02455300  0.72906700  0.63274100  1
  C  C7  1  0.97544700  0.22906700  0.86725900  1
  C  C8  1  0.59209100  0.79724400  0.79924300  1
  C  C9  1  0.40790900  0.29724400  0.70075700  1
  C  C10  1  0.40790900  0.20275600  0.20075700  1
  C  C11  1  0.59209100  0.70275600  0.29924300  1
  C  C12  1  0.46611100  0.94453300  0.87494500  1
  C  C13  1  0.53388900  0.44453300  0.62505500  1
  C  C14  1  0.53388900  0.05546700  0.12505500  1
  C  C15  1  0.46611100  0.55546700  0.37494500  1
  C  C16  1  0.73583000  0.58054400  0.40800500  1
  C  C17  1  0.26417000  0.08054400  0.09199500  1
  C  C18  1  0.26417000  0.41945600  0.59199500  1
  C  C19  1  0.73583000  0.91945600  0.90800500  1
  C  C20  1  0.62650000  0.00556500  0.77163800  1
  C  C21  1  0.37350000  0.50556500  0.72836200  1
  C  C22  1  0.37350000  0.99443500  0.22836200  1
  C  C23  1  0.62650000  0.49443500  0.27163800  1
  N  N0  1  0.60524900  0.91657600  0.83847400  1
  N  N1  1  0.39475100  0.41657600  0.66152600  1
  N  N2  1  0.39475100  0.08342400  0.16152600  1
  N  N3  1  0.60524900  0.58342400  0.33847400  1
  Cl  Cl0  1  0.62049100  0.22622500  0.44381500  1
  Cl  Cl1  1  0.37950900  0.72622500  0.05618500  1
  Cl  Cl2  1  0.37950900  0.77377500  0.55618500  1
  Cl  Cl3  1  0.62049100  0.27377500  0.94381500  1
  O  O0  1  0.88955400  0.36121600  0.54398700  1
  O  O1  1  0.11044600  0.86121600  0.95601300  1
  O  O2  1  0.11044600  0.63878400  0.45601300  1
  O  O3  1  0.88955400  0.13878400  0.04398700  1
  O  O4  1  0.75195900  0.19191500  0.62893100  1
  O  O5  1  0.24804100  0.69191500  0.87106900  1
  O  O6  1  0.24804100  0.80808500  0.37106900  1
  O  O7  1  0.75195900  0.30808500  0.12893100  1
  O  O8  1  0.24844300  0.99451500  0.67842200  1
  O  O9  1  0.75155700  0.49451500  0.82157800  1
  O  O10  1  0.75155700  0.00548500  0.32157800  1
  O  O11  1  0.24844300  0.50548500  0.17842200  1
  O  O12  1  0.95290900  0.96310500  0.69195700  1
  O  O13  1  0.04709100  0.46310500  0.80804300  1
  O  O14  1  0.04709100  0.03689500  0.30804300  1
  O  O15  1  0.95290900  0.53689500  0.19195700  1
  O  O16  1  0.04395000  0.15676300  0.59827200  1
  O  O17  1  0.95605000  0.65676300  0.90172800  1
  O  O18  1  0.95605000  0.84323700  0.40172800  1
  O  O19  1  0.04395000  0.34323700  0.09827200  1
  O  O20  1  0.85500800  0.01737800  0.51009700  1
  O  O21  1  0.14499200  0.51737800  0.98990300  1
  O  O22  1  0.14499200  0.98262200  0.48990300  1
  O  O23  1  0.85500800  0.48262200  0.01009700  1
  O  O24  1  0.94264900  0.17859000  0.42278400  1
  O  O25  1  0.05735100  0.67859000  0.07721600  1
  O  O26  1  0.05735100  0.82141000  0.57721600  1
  O  O27  1  0.94264900  0.32141000  0.92278400  1
loop_
_geom_bond_atom_site_label_1
_geom_bond_atom_site_label_2
_geom_bond_distance
_geom_bond_site_symmetry_2
Mo0 O4 1.733118 1_555
Mo0 O0 1.733884 1_555
Mo0 O16 1.950487 1_655
Mo0 O24 2.257634 1_555
Mo0 O20 2.319571 1_555
Mo1 O5 1.733118 1_555
Mo1 O1 1.733884 1_555
Mo1 O17 1.950487 1_455
Mo1 O25 2.257634 1_556
Mo1 O21 2.319571 1_555
Mo2 O6 1.733118 1_555
Mo2 O2 1.733884 1_555
Mo2 O18 1.950487 1_455
Mo2 O26 2.257634 1_555
Mo2 O22 2.319571 1_555
Mo3 O7 1.733118 1_555
Mo3 O3 1.733884 1_555
Mo3 O19 1.950487 1_655
Mo3 O27 2.257634 1_554
Mo3 O23 2.319571 1_555
Mo4 O12 1.734394 1_455
Mo4 O8 1.738137 1_555
Mo4 O16 1.932438 1_565
Mo4 O26 2.066583 1_555
Mo4 O22 2.247597 1_555
Mo4 O20 2.455892 1_465
Mo5 O13 1.734394 1_655
Mo5 O9 1.738137 1_555
Mo5 O17 1.932438 1_555
Mo5 O27 2.066583 1_555
Mo5 O23 2.247597 1_556
Mo5 O21 2.455892 1_655
Mo6 O14 1.734394 1_655
Mo6 O10 1.738137 1_555
Mo6 O18 1.932438 1_545
Mo6 O24 2.066583 1_555
Mo6 O20 2.247597 1_555
Mo6 O22 2.455892 1_645
Mo7 O15 1.734394 1_455
Mo7 O11 1.738137 1_555
Mo7 O19 1.932438 1_555
Mo7 O25 2.066583 1_555
Mo7 O21 2.247597 1_554
Mo7 O23 2.455892 1_455
C0 H4 1.095998 1_555
C0 H8 1.098015 1_555
C0 H0 1.098737 1_555
C0 O20 1.442047 1_565
C1 H5 1.095998 1_555
C1 H9 1.098015 1_556
C1 H1 1.098737 1_555
C1 O21 1.442047 1_555
C2 H6 1.095998 1_555
C2 H10 1.098015 1_555
C2 H2 1.098737 1_555
C2 O22 1.442047 1_545
C3 H7 1.095998 1_555
C3 H11 1.098015 1_554
C3 H3 1.098737 1_555
C3 O23 1.442047 1_555
C4 H16 1.097018 1_555
C4 H20 1.098608 1_655
C4 H12 1.099730 1_555
C4 O24 1.438025 1_555
C5 H17 1.097018 1_555
C5 H21 1.098608 1_455
C5 H13 1.099730 1_555
C5 O25 1.438025 1_555
C6 H18 1.097018 1_555
C6 H22 1.098608 1_455
C6 H14 1.099730 1_555
C6 O26 1.438025 1_555
C7 H19 1.097018 1_555
C7 H23 1.098608 1_655
C7 H15 1.099730 1_555
C7 O27 1.438025 1_555
C8 H24 1.094284 1_555
C8 H32 1.094382 1_555
C8 H28 1.095243 1_555
C8 N0 1.502787 1_555
C9 H25 1.094284 1_555
C9 H33 1.094382 1_555
C9 H29 1.095243 1_555
C9 N1 1.502787 1_555
C10 H26 1.094284 1_555
C10 H34 1.094382 1_555
C10 H30 1.095243 1_555
C10 N2 1.502787 1_555
C11 H27 1.094284 1_555
C11 H35 1.094382 1_555
C11 H31 1.095243 1_555
C11 N3 1.502787 1_555
C12 H40 1.095228 1_555
C12 H44 1.095506 1_555
C12 H36 1.095753 1_565
C12 N0 1.504505 1_555
C13 H41 1.095228 1_555
C13 H45 1.095506 1_555
C13 H37 1.095753 1_555
C13 N1 1.504505 1_555
C14 H42 1.095228 1_555
C14 H46 1.095506 1_555
C14 H38 1.095753 1_545
C14 N2 1.504505 1_555
C15 H43 1.095228 1_555
C15 H47 1.095506 1_555
C15 H39 1.095753 1_555
C15 N3 1.504505 1_555
C16 H52 1.094287 1_555
C16 H56 1.094866 1_555
C16 H48 1.095396 1_555
C16 N3 1.502815 1_555
C17 H53 1.094287 1_555
C17 H57 1.094866 1_555
C17 H49 1.095396 1_545
C17 N2 1.502815 1_555
C18 H54 1.094287 1_555
C18 H58 1.094866 1_555
C18 H50 1.095396 1_555
C18 N1 1.502815 1_555
C19 H55 1.094287 1_555
C19 H59 1.094866 1_555
C19 H51 1.095396 1_565
C19 N0 1.502815 1_555
C20 H68 1.095223 1_555
C20 H64 1.095468 1_555
C20 H60 1.095883 1_545
C20 N0 1.505984 1_545
C21 H69 1.095223 1_555
C21 H65 1.095468 1_555
C21 H61 1.095883 1_555
C21 N1 1.505984 1_555
C22 H70 1.095223 1_555
C22 H66 1.095468 1_555
C22 H62 1.095883 1_565
C22 N2 1.505984 1_565
C23 H71 1.095223 1_555
C23 H67 1.095468 1_555
C23 H63 1.095883 1_555
C23 N3 1.505984 1_555
Cl0 Mo0 2.459623 1_555
Cl1 Mo1 2.459623 1_554
Cl2 Mo2 2.459623 1_555
Cl3 Mo3 2.459623 1_556
