# generated using pymatgen
data_Li2Mn3GaO8
_symmetry_space_group_name_H-M   'P 1'
_cell_length_a   5.87342980
_cell_length_b   5.90358302
_cell_length_c   5.90364848
_cell_angle_alpha   59.04997724
_cell_angle_beta   61.46938811
_cell_angle_gamma   61.47876464
_symmetry_Int_Tables_number   1
_chemical_formula_structural   Li2Mn3GaO8
_chemical_formula_sum   'Li2 Mn3 Ga1 O8'
_cell_volume   146.75540873
_cell_formula_units_Z   1
loop_
 _symmetry_equiv_pos_site_id
 _symmetry_equiv_pos_as_xyz
  1  'x, y, z'
loop_
 _atom_site_type_symbol
 _atom_site_label
 _atom_site_symmetry_multiplicity
 _atom_site_fract_x
 _atom_site_fract_y
 _atom_site_fract_z
 _atom_site_occupancy
  Li  Li0  1  0.13234200  0.11274600  0.11297500  1
  Li  Li1  1  0.86765100  0.88718000  0.88731500  1
  Mn  Mn0  1  0.50014500  0.00010400  0.50011900  1
  Mn  Mn1  1  0.50009800  0.50001900  0.00002400  1
  Mn  Mn2  1  0.00012100  0.49970300  0.49984900  1
  Ga  Ga0  1  0.49983400  0.50009700  0.49986400  1
  O  O0  1  0.29079500  0.24240200  0.24256300  1
  O  O1  1  0.71109100  0.26280100  0.26268800  1
  O  O2  1  0.26791400  0.70334800  0.24955000  1
  O  O3  1  0.26800600  0.24962800  0.70328900  1
  O  O4  1  0.73185800  0.29661600  0.75035400  1
  O  O5  1  0.73198300  0.75045700  0.29658300  1
  O  O6  1  0.28891400  0.73739700  0.73724900  1
  O  O7  1  0.70924900  0.75750200  0.75757800  1
loop_
_geom_bond_atom_site_label_1
_geom_bond_atom_site_label_2
_geom_bond_distance
_geom_bond_site_symmetry_2
Li0 O2 1.973991 1_545
Li0 O3 1.975180 1_554
Li0 O0 2.000015 1_555
Li0 O1 2.076256 1_455
Li1 O5 1.973179 1_556
Li1 O4 1.974131 1_565
Li1 O7 2.000576 1_555
Li1 O6 2.076348 1_655
Mn0 O7 1.932402 1_545
Mn0 O0 1.933701 1_555
Mn0 O3 1.950585 1_555
Mn0 O5 1.952491 1_545
Mn0 O1 1.960864 1_555
Mn0 O6 1.962016 1_545
Mn1 O7 1.932373 1_554
Mn1 O0 1.933539 1_555
Mn1 O2 1.951210 1_555
Mn1 O4 1.952021 1_554
Mn1 O1 1.961181 1_555
Mn1 O6 1.962411 1_554
Mn2 O3 1.964877 1_555
Mn2 O2 1.964973 1_555
Mn2 O4 1.965067 1_455
Mn2 O5 1.965567 1_455
Mn2 O0 2.224566 1_555
Mn2 O7 2.228409 1_455
Ga0 O3 2.004206 1_555
Ga0 O2 2.004303 1_555
Ga0 O5 2.005217 1_555
Ga0 O4 2.005399 1_555
Ga0 O1 2.039773 1_555
Ga0 O6 2.040811 1_555
