# generated using pymatgen
data_Eu16Sb11
_symmetry_space_group_name_H-M   'P 1'
_cell_length_a   11.76064854
_cell_length_b   12.74116376
_cell_length_c   12.71962750
_cell_angle_alpha   90.00000000
_cell_angle_beta   90.00000000
_cell_angle_gamma   90.00000000
_symmetry_Int_Tables_number   1
_chemical_formula_structural   Eu16Sb11
_chemical_formula_sum   'Eu32 Sb22'
_cell_volume   1905.96430190
_cell_formula_units_Z   2
loop_
 _symmetry_equiv_pos_site_id
 _symmetry_equiv_pos_as_xyz
  1  'x, y, z'
loop_
 _atom_site_type_symbol
 _atom_site_label
 _atom_site_symmetry_multiplicity
 _atom_site_fract_x
 _atom_site_fract_y
 _atom_site_fract_z
 _atom_site_occupancy
  Eu  Eu0  1  0.99892904  0.91156040  0.20722950  1
  Eu  Eu1  1  0.00107096  0.58843960  0.70722950  1
  Eu  Eu2  1  0.99892904  0.08843960  0.79277050  1
  Eu  Eu3  1  0.00107096  0.41156040  0.29277050  1
  Eu  Eu4  1  0.00166029  0.79298851  0.91127416  1
  Eu  Eu5  1  0.99833971  0.70701149  0.41127416  1
  Eu  Eu6  1  0.00166029  0.20701149  0.08872584  1
  Eu  Eu7  1  0.99833971  0.29298851  0.58872584  1
  Eu  Eu8  1  0.49931512  0.86619645  0.36596610  1
  Eu  Eu9  1  0.50068488  0.63380355  0.86596610  1
  Eu  Eu10  1  0.49931512  0.13380355  0.63403390  1
  Eu  Eu11  1  0.50068488  0.36619645  0.13403390  1
  Eu  Eu12  1  0.14749910  -0.00000000  0.50000000  1
  Eu  Eu13  1  0.85250090  0.50000000  0.00000000  1
  Eu  Eu14  1  0.29327390  0.79127540  0.07381471  1
  Eu  Eu15  1  0.70672610  0.70872460  0.57381471  1
  Eu  Eu16  1  0.29327390  0.20872460  0.92618529  1
  Eu  Eu17  1  0.70672610  0.29127540  0.42618529  1
  Eu  Eu18  1  0.70712376  0.92648139  0.79221339  1
  Eu  Eu19  1  0.29287624  0.57351861  0.29221339  1
  Eu  Eu20  1  0.70712376  0.07351861  0.20778661  1
  Eu  Eu21  1  0.29287624  0.42648139  0.70778661  1
  Eu  Eu22  1  0.79083450  -0.00000000  0.50000000  1
  Eu  Eu23  1  0.20916550  0.50000000  0.00000000  1
  Eu  Eu24  1  0.31154906  0.29533480  0.43088623  1
  Eu  Eu25  1  0.68845094  0.20466520  0.93088623  1
  Eu  Eu26  1  0.31154906  0.70466520  0.56911377  1
  Eu  Eu27  1  0.68845094  0.79533480  0.06911377  1
  Eu  Eu28  1  0.68232521  0.56787214  0.30026837  1
  Eu  Eu29  1  0.31767479  0.93212786  0.80026837  1
  Eu  Eu30  1  0.68232521  0.43212786  0.69973163  1
  Eu  Eu31  1  0.31767479  0.06787214  0.19973163  1
  Sb  Sb0  1  0.23369136  0.83330983  0.33190140  1
  Sb  Sb1  1  0.76630864  0.66669017  0.83190140  1
  Sb  Sb2  1  0.23369136  0.16669017  0.66809860  1
  Sb  Sb3  1  0.76630864  0.33330983  0.16809860  1
  Sb  Sb4  1  0.03067514  0.64386712  0.14354209  1
  Sb  Sb5  1  0.96932486  0.85613288  0.64354209  1
  Sb  Sb6  1  0.03067514  0.35613288  0.85645791  1
  Sb  Sb7  1  0.96932486  0.14386712  0.35645791  1
  Sb  Sb8  1  0.76341877  0.81910270  0.32084047  1
  Sb  Sb9  1  0.23658123  0.68089730  0.82084047  1
  Sb  Sb10  1  0.76341877  0.18089730  0.67915953  1
  Sb  Sb11  1  0.23658123  0.31910270  0.17915953  1
  Sb  Sb12  1  0.48911858  0.62409174  0.12428243  1
  Sb  Sb13  1  0.51088142  0.87590826  0.62428243  1
  Sb  Sb14  1  0.48911858  0.37590826  0.87571757  1
  Sb  Sb15  1  0.51088142  0.12409174  0.37571757  1
  Sb  Sb16  1  0.14831496  0.50000000  0.50000000  1
  Sb  Sb17  1  0.85168504  -0.00000000  0.00000000  1
  Sb  Sb18  1  0.84744499  0.50000000  0.50000000  1
  Sb  Sb19  1  0.15255501  -0.00000000  0.00000000  1
  Sb  Sb20  1  0.49675897  0.50000000  0.50000000  1
  Sb  Sb21  1  0.50324103  0.00000000  0.00000000  1
loop_
_geom_bond_atom_site_label_1
_geom_bond_atom_site_label_2
_geom_bond_distance
_geom_bond_site_symmetry_2
Eu0 Sb0 3.336405 1_655
Eu0 Sb8 3.338794 1_555
Eu0 Sb17 3.349080 1_565
Eu0 Sb19 3.388498 1_665
Eu0 Sb4 3.525431 1_655
Eu0 Sb7 3.533394 1_565
Eu1 Sb1 3.336405 1_455
Eu1 Sb9 3.338794 1_555
Eu1 Sb16 3.349080 1_555
Eu1 Sb18 3.388498 1_455
Eu1 Sb5 3.525431 1_455
Eu1 Sb6 3.533394 1_555
Eu2 Sb2 3.336405 1_655
Eu2 Sb10 3.338794 1_555
Eu2 Sb17 3.349080 1_556
Eu2 Sb19 3.388498 1_656
Eu2 Sb6 3.525431 1_655
Eu2 Sb5 3.533394 1_545
Eu3 Sb3 3.336405 1_455
Eu3 Sb11 3.338794 1_555
Eu3 Sb16 3.349080 1_555
Eu3 Sb18 3.388498 1_455
Eu3 Sb7 3.525431 1_455
Eu3 Sb4 3.533394 1_555
Eu4 Sb9 3.316024 1_555
Eu4 Sb1 3.357077 1_455
Eu4 Sb17 3.367703 1_466
Eu4 Sb19 3.373379 1_566
Eu4 Sb5 3.519800 1_455
Eu4 Sb4 3.529110 1_556
Eu5 Sb8 3.316024 1_555
Eu5 Sb0 3.357077 1_655
Eu5 Sb16 3.367703 1_655
Eu5 Sb18 3.373379 1_555
Eu5 Sb4 3.519800 1_655
Eu5 Sb5 3.529110 1_555
Eu6 Sb11 3.316024 1_555
Eu6 Sb3 3.357077 1_455
Eu6 Sb17 3.367703 1_455
Eu6 Sb19 3.373379 1_555
Eu6 Sb7 3.519800 1_455
Eu6 Sb6 3.529110 1_554
Eu7 Sb10 3.316024 1_555
Eu7 Sb2 3.357077 1_655
Eu7 Sb16 3.367703 1_655
Eu7 Sb18 3.373379 1_555
Eu7 Sb6 3.519800 1_655
Eu7 Sb7 3.529110 1_555
Eu8 Sb0 3.181527 1_555
Eu8 Sb8 3.215107 1_555
Eu8 Sb13 3.290829 1_555
Eu8 Sb15 3.291039 1_565
Eu9 Sb1 3.181527 1_555
Eu9 Sb9 3.215107 1_555
Eu9 Sb12 3.290829 1_556
Eu9 Sb14 3.291039 1_555
Eu10 Sb2 3.181527 1_555
Eu10 Sb10 3.215107 1_555
Eu10 Sb15 3.290829 1_555
Eu10 Sb13 3.291039 1_545
Eu11 Sb3 3.181527 1_555
Eu11 Sb11 3.215107 1_555
Eu11 Sb14 3.290829 1_554
Eu11 Sb12 3.291039 1_555
Eu12 Sb2 3.179603 1_555
Eu12 Sb0 3.179603 1_545
Eu12 Sb7 3.329333 1_455
Eu12 Sb5 3.329333 1_445
Eu13 Sb1 3.179603 1_554
Eu13 Sb3 3.179603 1_555
Eu13 Sb6 3.329333 1_654
Eu13 Sb4 3.329333 1_655
Eu14 Sb12 3.202260 1_555
Eu14 Sb19 3.269977 1_565
Eu14 Sb0 3.399178 1_555
Eu14 Sb9 3.574380 1_554
Eu14 Sb4 3.721808 1_555
Eu14 Sb21 3.748545 1_565
Eu15 Sb13 3.202260 1_555
Eu15 Sb18 3.269977 1_555
Eu15 Sb1 3.399178 1_555
Eu15 Sb8 3.574380 1_555
Eu15 Sb5 3.721808 1_555
Eu15 Sb20 3.748545 1_555
Eu16 Sb14 3.202260 1_555
Eu16 Sb19 3.269977 1_556
Eu16 Sb2 3.399178 1_555
Eu16 Sb11 3.574380 1_556
Eu16 Sb6 3.721808 1_555
Eu16 Sb21 3.748545 1_556
Eu17 Sb15 3.202260 1_555
Eu17 Sb18 3.269977 1_555
Eu17 Sb3 3.399178 1_555
Eu17 Sb10 3.574380 1_555
Eu17 Sb7 3.721808 1_555
Eu17 Sb20 3.748545 1_555
Eu18 Sb13 3.210039 1_555
Eu18 Sb17 3.279202 1_566
Eu18 Sb1 3.419899 1_555
Eu18 Sb10 3.607473 1_565
Eu18 Sb21 3.689461 1_566
Eu18 Sb5 3.726710 1_555
Eu19 Sb12 3.210039 1_555
Eu19 Sb16 3.279202 1_555
Eu19 Sb0 3.419899 1_555
Eu19 Sb11 3.607473 1_555
Eu19 Sb20 3.689461 1_555
Eu19 Sb4 3.726710 1_555
Eu20 Sb15 3.210039 1_555
Eu20 Sb17 3.279202 1_555
Eu20 Sb3 3.419899 1_555
Eu20 Sb8 3.607473 1_545
Eu20 Sb21 3.689461 1_555
Eu20 Sb7 3.726710 1_555
Eu21 Sb14 3.210039 1_555
Eu21 Sb16 3.279202 1_555
Eu21 Sb2 3.419899 1_555
Eu21 Sb9 3.607473 1_555
Eu21 Sb20 3.689461 1_555
Eu21 Sb6 3.726710 1_555
Eu22 Sb10 3.257204 1_555
Eu22 Sb8 3.257204 1_545
Eu22 Sb7 3.331674 1_555
Eu22 Sb5 3.331674 1_545
Eu23 Sb9 3.257204 1_554
Eu23 Sb11 3.257204 1_555
Eu23 Sb6 3.331674 1_554
Eu23 Sb4 3.331674 1_555
Eu24 Sb15 3.278485 1_555
Eu24 Sb11 3.334819 1_555
Eu24 Sb16 3.355320 1_555
Eu24 Sb20 3.509599 1_555
Eu24 Sb2 3.553707 1_555
Eu25 Sb14 3.278485 1_555
Eu25 Sb10 3.334819 1_555
Eu25 Sb17 3.355320 1_556
Eu25 Sb21 3.509599 1_556
Eu25 Sb3 3.553707 1_556
Eu26 Sb13 3.278485 1_555
Eu26 Sb9 3.334819 1_555
Eu26 Sb16 3.355320 1_555
Eu26 Sb20 3.509599 1_555
Eu26 Sb0 3.553707 1_555
Eu27 Sb12 3.278485 1_555
Eu27 Sb8 3.334819 1_555
Eu27 Sb17 3.355320 1_565
Eu27 Sb21 3.509599 1_565
Eu27 Sb1 3.553707 1_554
Eu28 Sb12 3.269085 1_555
Eu28 Sb18 3.312562 1_555
Eu28 Sb8 3.350261 1_555
Eu28 Sb20 3.459018 1_555
Eu28 Sb3 3.568407 1_555
Eu29 Sb13 3.269085 1_555
Eu29 Sb19 3.312562 1_566
Eu29 Sb9 3.350261 1_555
Eu29 Sb21 3.459018 1_566
Eu29 Sb2 3.568407 1_565
Eu30 Sb14 3.269085 1_555
Eu30 Sb18 3.312562 1_555
Eu30 Sb10 3.350261 1_555
Eu30 Sb20 3.459018 1_555
Eu30 Sb1 3.568407 1_555
Eu31 Sb15 3.269085 1_555
Eu31 Sb19 3.312562 1_555
Eu31 Sb11 3.350261 1_555
Eu31 Sb21 3.459018 1_555
Eu31 Sb0 3.568407 1_545
