# generated using pymatgen
data_SmAl
_symmetry_space_group_name_H-M   'P 1'
_cell_length_a   3.67110430
_cell_length_b   3.67110430
_cell_length_c   3.67110430
_cell_angle_alpha   90.00000000
_cell_angle_beta   90.00000000
_cell_angle_gamma   90.00000000
_symmetry_Int_Tables_number   1
_chemical_formula_structural   SmAl
_chemical_formula_sum   'Sm1 Al1'
_cell_volume   49.47549755
_cell_formula_units_Z   1
loop_
 _symmetry_equiv_pos_site_id
 _symmetry_equiv_pos_as_xyz
  1  'x, y, z'
loop_
 _atom_site_type_symbol
 _atom_site_label
 _atom_site_symmetry_multiplicity
 _atom_site_fract_x
 _atom_site_fract_y
 _atom_site_fract_z
 _atom_site_occupancy
  Sm  Sm0  1  0.50000000  0.50000000  0.50000000  1
  Al  Al0  1  -0.00000000  -0.00000000  -0.00000000  1
loop_
_geom_bond_atom_site_label_1
_geom_bond_atom_site_label_2
_geom_bond_distance
_geom_bond_site_symmetry_2
Al0 Sm0 3.179270 1_445
Al0 Sm0 3.179270 1_544
Al0 Sm0 3.179270 1_444
Al0 Sm0 3.179270 1_545
Al0 Sm0 3.179270 1_454
Al0 Sm0 3.179270 1_554
Al0 Sm0 3.179270 1_455
Al0 Sm0 3.179270 1_555
