# generated using pymatgen
data_Tb(Fe5Mo)2
_symmetry_space_group_name_H-M   'P 1'
_cell_length_a   4.72679700
_cell_length_b   6.51412411
_cell_length_c   6.51412411
_cell_angle_alpha   97.27168477
_cell_angle_beta   111.27294984
_cell_angle_gamma   68.72705016
_symmetry_Int_Tables_number   1
_chemical_formula_structural   Tb(Fe5Mo)2
_chemical_formula_sum   'Tb1 Fe10 Mo2'
_cell_volume   174.17083100
_cell_formula_units_Z   1
loop_
 _symmetry_equiv_pos_site_id
 _symmetry_equiv_pos_as_xyz
  1  'x, y, z'
loop_
 _atom_site_type_symbol
 _atom_site_label
 _atom_site_symmetry_multiplicity
 _atom_site_fract_x
 _atom_site_fract_y
 _atom_site_fract_z
 _atom_site_occupancy
  Tb  Tb0  1  0.00000000  0.00000000  0.00000000  1
  Fe  Fe0  1  0.50000000  0.00000000  0.50000000  1
  Fe  Fe1  1  0.00000000  0.00000000  0.50000000  1
  Fe  Fe2  1  0.50000000  0.50000000  0.00000000  1
  Fe  Fe3  1  0.00000000  0.50000000  0.00000000  1
  Fe  Fe4  1  0.72029700  0.77970300  0.22029700  1
  Fe  Fe5  1  0.27970300  0.22029700  0.77970300  1
  Fe  Fe6  1  0.50000000  0.77487500  0.77487500  1
  Fe  Fe7  1  0.50000000  0.22512500  0.22512500  1
  Fe  Fe8  1  0.64178000  0.35822000  0.64178000  1
  Fe  Fe9  1  0.35822000  0.64178000  0.35822000  1
  Mo  Mo0  1  0.00000000  0.35676300  0.35676300  1
  Mo  Mo1  1  0.00000000  0.64323700  0.64323700  1
loop_
_geom_bond_atom_site_label_1
_geom_bond_atom_site_label_2
_geom_bond_distance
_geom_bond_site_symmetry_2
Fe0 Fe1 2.363398 1_655
Fe0 Fe1 2.363398 1_555
Fe0 Fe6 2.453869 1_545
Fe0 Fe7 2.453869 1_555
Fe0 Fe5 2.468583 1_555
Fe0 Fe4 2.468583 1_545
Fe0 Mo0 2.611612 1_555
Fe0 Mo1 2.611612 1_645
Fe0 Fe9 2.624373 1_545
Fe0 Fe8 2.624373 1_555
Fe0 Tb0 3.257062 1_555
Fe0 Tb0 3.257062 1_656
Fe1 Fe7 2.453869 1_455
Fe1 Fe6 2.453869 1_545
Fe1 Fe5 2.468583 1_555
Fe1 Fe4 2.468583 1_445
Fe1 Mo0 2.611611 1_555
Fe1 Mo1 2.611611 1_545
Fe1 Fe9 2.624373 1_545
Fe1 Fe8 2.624373 1_455
Fe1 Tb0 3.257062 1_555
Fe1 Tb0 3.257062 1_556
Fe2 Fe3 2.363398 1_555
Fe2 Fe3 2.363398 1_655
Fe2 Fe6 2.453869 1_554
Fe2 Fe7 2.453869 1_555
Fe2 Fe4 2.468583 1_555
Fe2 Fe5 2.468583 1_554
Fe2 Mo0 2.611612 1_655
Fe2 Mo1 2.611612 1_554
Fe2 Fe8 2.624373 1_554
Fe2 Fe9 2.624373 1_555
Fe2 Tb0 3.257062 1_565
Fe2 Tb0 3.257062 1_655
Fe3 Fe6 2.453869 1_454
Fe3 Fe7 2.453869 1_555
Fe3 Fe4 2.468583 1_455
Fe3 Fe5 2.468583 1_554
Fe3 Mo0 2.611611 1_555
Fe3 Mo1 2.611611 1_554
Fe3 Fe8 2.624373 1_454
Fe3 Fe9 2.624373 1_555
Fe3 Tb0 3.257062 1_565
Fe3 Tb0 3.257062 1_555
Fe4 Fe9 2.641854 1_555
Fe4 Fe9 2.641854 1_655
Fe4 Mo0 2.693099 1_655
Fe4 Mo1 2.693099 1_655
Fe4 Fe6 2.704161 1_554
Fe4 Fe7 2.704161 1_565
Fe4 Tb0 3.023468 1_665
Fe4 Tb0 3.023469 1_565
Fe5 Fe8 2.641854 1_555
Fe5 Fe8 2.641854 1_455
Fe5 Mo0 2.693099 1_555
Fe5 Mo1 2.693099 1_555
Fe5 Fe6 2.704161 1_545
Fe5 Fe7 2.704161 1_556
Fe5 Tb0 3.023468 1_556
Fe5 Tb0 3.023469 1_656
Fe6 Mo1 2.621096 1_655
Fe6 Mo1 2.621096 1_555
Fe6 Fe9 2.659593 1_555
Fe6 Fe8 2.659593 1_555
Fe6 Tb0 3.056539 1_666
Fe6 Tb0 3.056539 1_566
Fe7 Mo0 2.621096 1_655
Fe7 Mo0 2.621096 1_555
Fe7 Fe8 2.659593 1_555
Fe7 Fe9 2.659593 1_555
Fe7 Tb0 3.056539 1_555
Fe7 Tb0 3.056539 1_655
Fe8 Fe9 2.427166 1_555
Fe8 Mo1 2.929037 1_655
Fe8 Mo0 2.929037 1_655
Fe8 Mo1 2.929037 1_555
Fe8 Mo0 2.929037 1_555
Fe8 Tb0 3.066227 1_656
Fe9 Mo1 2.929037 1_555
Fe9 Mo0 2.929037 1_555
Fe9 Mo1 2.929037 1_655
Fe9 Mo0 2.929037 1_655
Fe9 Tb0 3.066227 1_565
Mo0 Mo1 2.466432 1_555
Mo0 Tb0 3.071594 1_555
Mo1 Tb0 3.071594 1_566
