# generated using pymatgen
data_Nd
_symmetry_space_group_name_H-M   'P 1'
_cell_length_a   7.36782915
_cell_length_b   7.36782865
_cell_length_c   7.36782660
_cell_angle_alpha   59.99998990
_cell_angle_beta   59.99999213
_cell_angle_gamma   59.99999246
_symmetry_Int_Tables_number   1
_chemical_formula_structural   Nd
_chemical_formula_sum   Nd8
_cell_volume   282.81561129
_cell_formula_units_Z   8
loop_
 _symmetry_equiv_pos_site_id
 _symmetry_equiv_pos_as_xyz
  1  'x, y, z'
loop_
 _atom_site_type_symbol
 _atom_site_label
 _atom_site_symmetry_multiplicity
 _atom_site_fract_x
 _atom_site_fract_y
 _atom_site_fract_z
 _atom_site_occupancy
  Nd  Nd0_0  1  0.00000000  0.00000000  0.00000000  1
  Nd  Nd0_1  1  0.00000000  0.00000000  0.50000000  1
  Nd  Nd0_2  1  0.00000000  0.50000000  0.00000000  1
  Nd  Nd0_3  1  0.00000000  0.50000000  0.50000000  1
  Nd  Nd0_4  1  0.50000000  0.00000000  0.00000000  1
  Nd  Nd0_5  1  0.50000000  0.00000000  0.50000000  1
  Nd  Nd0_6  1  0.50000000  0.50000000  0.00000000  1
  Nd  Nd0_7  1  0.50000000  0.50000000  0.50000000  1
loop_
_geom_bond_atom_site_label_1
_geom_bond_atom_site_label_2
_geom_bond_distance
_geom_bond_site_symmetry_2
Nd0_0 Nd0_3 3.683913 1_554
Nd0_0 Nd0_3 3.683913 1_545
Nd0_0 Nd0_1 3.683913 1_555
Nd0_0 Nd0_1 3.683913 1_554
Nd0_0 Nd0_5 3.683913 1_554
Nd0_0 Nd0_5 3.683913 1_455
Nd0_0 Nd0_6 3.683914 1_455
Nd0_0 Nd0_6 3.683914 1_545
Nd0_0 Nd0_2 3.683914 1_555
Nd0_0 Nd0_2 3.683914 1_545
Nd0_0 Nd0_4 3.683915 1_555
Nd0_0 Nd0_4 3.683915 1_455
Nd0_1 Nd0_2 3.683913 1_555
Nd0_1 Nd0_2 3.683913 1_546
Nd0_1 Nd0_4 3.683913 1_555
Nd0_1 Nd0_4 3.683913 1_456
Nd0_1 Nd0_7 3.683914 1_455
Nd0_1 Nd0_7 3.683914 1_545
Nd0_1 Nd0_3 3.683914 1_555
Nd0_1 Nd0_3 3.683914 1_545
Nd0_1 Nd0_5 3.683915 1_555
Nd0_1 Nd0_5 3.683915 1_455
Nd0_2 Nd0_3 3.683913 1_554
Nd0_2 Nd0_3 3.683913 1_555
Nd0_2 Nd0_7 3.683913 1_455
Nd0_2 Nd0_7 3.683913 1_554
Nd0_2 Nd0_4 3.683914 1_555
Nd0_2 Nd0_4 3.683914 1_465
Nd0_2 Nd0_6 3.683915 1_555
Nd0_2 Nd0_6 3.683915 1_455
Nd0_3 Nd0_6 3.683913 1_555
Nd0_3 Nd0_6 3.683913 1_456
Nd0_3 Nd0_5 3.683914 1_555
Nd0_3 Nd0_5 3.683914 1_465
Nd0_3 Nd0_7 3.683915 1_555
Nd0_3 Nd0_7 3.683915 1_455
Nd0_4 Nd0_7 3.683913 1_554
Nd0_4 Nd0_7 3.683913 1_545
Nd0_4 Nd0_5 3.683913 1_555
Nd0_4 Nd0_5 3.683913 1_554
Nd0_4 Nd0_6 3.683914 1_555
Nd0_4 Nd0_6 3.683914 1_545
Nd0_5 Nd0_6 3.683913 1_555
Nd0_5 Nd0_6 3.683913 1_546
Nd0_5 Nd0_7 3.683914 1_555
Nd0_5 Nd0_7 3.683914 1_545
Nd0_6 Nd0_7 3.683913 1_555
Nd0_6 Nd0_7 3.683913 1_554
