# generated using pymatgen
data_LaYZn2
_symmetry_space_group_name_H-M   'P 1'
_cell_length_a   5.18955955
_cell_length_b   5.18955955
_cell_length_c   5.18955955
_cell_angle_alpha   60.00000000
_cell_angle_beta   60.00000000
_cell_angle_gamma   60.00000000
_symmetry_Int_Tables_number   1
_chemical_formula_structural   LaYZn2
_chemical_formula_sum   'La1 Y1 Zn2'
_cell_volume   98.82720249
_cell_formula_units_Z   1
loop_
 _symmetry_equiv_pos_site_id
 _symmetry_equiv_pos_as_xyz
  1  'x, y, z'
loop_
 _atom_site_type_symbol
 _atom_site_label
 _atom_site_symmetry_multiplicity
 _atom_site_fract_x
 _atom_site_fract_y
 _atom_site_fract_z
 _atom_site_occupancy
  La  La0  1  0.50000000  0.50000000  0.50000000  1
  Y  Y0  1  -0.00000000  -0.00000000  -0.00000000  1
  Zn  Zn0  1  0.25000000  0.25000000  0.25000000  1
  Zn  Zn1  1  0.75000000  0.75000000  0.75000000  1
loop_
_geom_bond_atom_site_label_1
_geom_bond_atom_site_label_2
_geom_bond_distance
_geom_bond_site_symmetry_2
La0 Zn1 3.177943 1_554
La0 Zn0 3.177943 1_555
La0 Zn0 3.177943 1_556
La0 Zn1 3.177943 1_555
La0 Zn1 3.177943 1_455
La0 Zn0 3.177943 1_655
La0 Zn1 3.177943 1_545
La0 Zn0 3.177943 1_565
Y0 Zn0 3.177943 1_455
Y0 Zn1 3.177943 1_444
Y0 Zn0 3.177943 1_545
Y0 Zn0 3.177943 1_555
Y0 Zn0 3.177943 1_554
Y0 Zn1 3.177943 1_544
Y0 Zn1 3.177943 1_445
Y0 Zn1 3.177943 1_454
