# generated using pymatgen
data_Tm5Te4Se
_symmetry_space_group_name_H-M   'P 1'
_cell_length_a   7.33290593
_cell_length_b   7.33290593
_cell_length_c   10.36398789
_cell_angle_alpha   61.89898056
_cell_angle_beta   61.89898056
_cell_angle_gamma   33.56769396
_symmetry_Int_Tables_number   1
_chemical_formula_structural   Tm5Te4Se
_chemical_formula_sum   'Tm5 Te4 Se1'
_cell_volume   268.26446731
_cell_formula_units_Z   1
loop_
 _symmetry_equiv_pos_site_id
 _symmetry_equiv_pos_as_xyz
  1  'x, y, z'
loop_
 _atom_site_type_symbol
 _atom_site_label
 _atom_site_symmetry_multiplicity
 _atom_site_fract_x
 _atom_site_fract_y
 _atom_site_fract_z
 _atom_site_occupancy
  Tm  Tm0  1  0.00000000  0.00000000  0.50000000  1
  Tm  Tm1  1  0.58098131  0.58098131  0.08944858  1
  Tm  Tm2  1  0.18335415  0.18335415  0.72788951  1
  Tm  Tm3  1  0.81664585  0.81664585  0.27211049  1
  Tm  Tm4  1  0.41901869  0.41901869  0.91055142  1
  Te  Te0  1  0.60815469  0.60815469  0.59078583  1
  Te  Te1  1  0.19577327  0.19577327  0.19122729  1
  Te  Te2  1  0.80422673  0.80422673  0.80877271  1
  Te  Te3  1  0.39184531  0.39184531  0.40921417  1
  Se  Se0  1  0.00000000  0.00000000  -0.00000000  1
loop_
_geom_bond_atom_site_label_1
_geom_bond_atom_site_label_2
_geom_bond_distance
_geom_bond_site_symmetry_2
Te0 Tm0 3.013483 1_565
Te0 Tm0 3.013483 1_655
Te0 Tm2 3.015610 1_565
Te0 Tm2 3.015610 1_655
Te0 Tm4 3.061951 1_555
Te0 Tm3 3.156647 1_555
Te1 Tm0 3.023461 1_555
Te1 Tm4 3.052114 1_554
Te1 Tm3 3.076795 1_455
Te1 Tm3 3.076795 1_545
Te1 Tm1 3.141203 1_455
Te1 Tm1 3.141203 1_545
Te2 Tm0 3.023461 1_665
Te2 Tm1 3.052114 1_556
Te2 Tm2 3.076795 1_565
Te2 Tm2 3.076795 1_655
Te2 Tm4 3.141203 1_655
Te2 Tm4 3.141203 1_565
Te3 Tm0 3.013483 1_565
Te3 Tm0 3.013483 1_655
Te3 Tm3 3.015610 1_545
Te3 Tm3 3.015610 1_455
Te3 Tm1 3.061951 1_555
Te3 Tm2 3.156647 1_555
Se0 Tm2 2.727116 1_554
Se0 Tm3 2.727116 1_445
Se0 Tm4 2.770052 1_454
Se0 Tm4 2.770052 1_544
Se0 Tm1 2.770052 1_545
Se0 Tm1 2.770052 1_455
