# generated using pymatgen
data_BaSr7Mn2(FeO4)6
_symmetry_space_group_name_H-M   'P 1'
_cell_length_a   7.86751197
_cell_length_b   7.86751197
_cell_length_c   7.82907900
_cell_angle_alpha   90.00000000
_cell_angle_beta   90.00000000
_cell_angle_gamma   90.01789987
_symmetry_Int_Tables_number   1
_chemical_formula_structural   BaSr7Mn2(FeO4)6
_chemical_formula_sum   'Ba1 Sr7 Mn2 Fe6 O24'
_cell_volume   484.60230922
_cell_formula_units_Z   1
loop_
 _symmetry_equiv_pos_site_id
 _symmetry_equiv_pos_as_xyz
  1  'x, y, z'
loop_
 _atom_site_type_symbol
 _atom_site_label
 _atom_site_symmetry_multiplicity
 _atom_site_fract_x
 _atom_site_fract_y
 _atom_site_fract_z
 _atom_site_occupancy
  Ba  Ba0  1  0.74930500  0.74930500  0.50000000  1
  Sr  Sr0  1  0.74921300  0.25072900  0.50000000  1
  Sr  Sr1  1  0.25079300  0.25079300  0.50000000  1
  Sr  Sr2  1  0.25072900  0.74921300  0.50000000  1
  Sr  Sr3  1  0.74928100  0.25079200  0.00000000  1
  Sr  Sr4  1  0.25079600  0.25079600  0.00000000  1
  Sr  Sr5  1  0.74918400  0.74918400  0.00000000  1
  Sr  Sr6  1  0.25079200  0.74928100  0.00000000  1
  Mn  Mn0  1  0.49912800  0.49912800  0.75100800  1
  Mn  Mn1  1  0.49912800  0.49912800  0.24899200  1
  Fe  Fe0  1  0.00116100  0.00116100  0.75101800  1
  Fe  Fe1  1  0.49896400  0.00130600  0.75102000  1
  Fe  Fe2  1  0.00130600  0.49896400  0.75102000  1
  Fe  Fe3  1  0.00116100  0.00116100  0.24898200  1
  Fe  Fe4  1  0.49896400  0.00130600  0.24898000  1
  Fe  Fe5  1  0.00130600  0.49896400  0.24898000  1
  O  O0  1  0.00410100  0.00410100  0.50000000  1
  O  O1  1  0.49594900  0.00407100  0.50000000  1
  O  O2  1  0.00407100  0.49594900  0.50000000  1
  O  O3  1  0.49534600  0.49534600  0.50000000  1
  O  O4  1  0.00123900  0.00123900  0.00000000  1
  O  O5  1  0.49879800  0.00114900  0.00000000  1
  O  O6  1  0.00114900  0.49879800  0.00000000  1
  O  O7  1  0.49896100  0.49896100  0.00000000  1
  O  O8  1  0.00128800  0.25002700  0.75122700  1
  O  O9  1  0.49913300  0.25285400  0.75123300  1
  O  O10  1  0.00411900  0.75001700  0.75418200  1
  O  O11  1  0.49527800  0.74687100  0.75427400  1
  O  O12  1  0.00128800  0.25002700  0.24877300  1
  O  O13  1  0.49913300  0.25285400  0.24876700  1
  O  O14  1  0.00411900  0.75001700  0.24581800  1
  O  O15  1  0.49527800  0.74687100  0.24572600  1
  O  O16  1  0.75001700  0.00411900  0.75418200  1
  O  O17  1  0.25002700  0.00128800  0.75122700  1
  O  O18  1  0.74687100  0.49527800  0.75427400  1
  O  O19  1  0.25285400  0.49913300  0.75123300  1
  O  O20  1  0.75001700  0.00411900  0.24581800  1
  O  O21  1  0.25002700  0.00128800  0.24877300  1
  O  O22  1  0.74687100  0.49527800  0.24572600  1
  O  O23  1  0.25285400  0.49913300  0.24876700  1
loop_
_geom_bond_atom_site_label_1
_geom_bond_atom_site_label_2
_geom_bond_distance
_geom_bond_site_symmetry_2
Ba0 O18 2.820921 1_555
Ba0 O15 2.820921 1_555
Ba0 O22 2.820921 1_555
Ba0 O11 2.820921 1_555
Ba0 O20 2.824748 1_565
Ba0 O16 2.824748 1_565
Ba0 O10 2.824748 1_655
Ba0 O14 2.824748 1_655
Ba0 O3 2.825193 1_555
Ba0 O2 2.827222 1_655
Ba0 O1 2.827222 1_565
Ba0 O0 2.834505 1_665
Mn0 O19 1.937564 1_555
Mn0 O9 1.937564 1_555
Mn0 O7 1.949379 1_556
Mn0 O18 1.949534 1_555
Mn0 O11 1.949534 1_555
Mn0 O3 1.965612 1_555
Mn1 O23 1.937564 1_555
Mn1 O13 1.937564 1_555
Mn1 O7 1.949379 1_555
Mn1 O15 1.949534 1_555
Mn1 O22 1.949534 1_555
Mn1 O3 1.965612 1_555
Fe0 O4 1.949300 1_556
Fe0 O17 1.957957 1_555
Fe0 O8 1.957957 1_555
Fe0 O0 1.965512 1_555
Fe0 O16 1.976178 1_455
Fe0 O10 1.976178 1_545
Fe1 O5 1.949285 1_556
Fe1 O17 1.958515 1_555
Fe1 O1 1.965519 1_555
Fe1 O16 1.975435 1_555
Fe1 O9 1.979058 1_555
Fe1 O11 2.002133 1_545
Fe2 O6 1.949285 1_556
Fe2 O8 1.958515 1_555
Fe2 O2 1.965519 1_555
Fe2 O10 1.975435 1_555
Fe2 O19 1.979058 1_555
Fe2 O18 2.002133 1_455
Fe3 O4 1.949300 1_555
Fe3 O21 1.957957 1_555
Fe3 O12 1.957957 1_555
Fe3 O0 1.965512 1_555
Fe3 O14 1.976178 1_545
Fe3 O20 1.976178 1_455
Fe4 O5 1.949285 1_555
Fe4 O21 1.958515 1_555
Fe4 O1 1.965519 1_555
Fe4 O20 1.975435 1_555
Fe4 O13 1.979058 1_555
Fe4 O15 2.002133 1_545
Fe5 O6 1.949285 1_555
Fe5 O12 1.958515 1_555
Fe5 O2 1.965519 1_555
Fe5 O14 1.975435 1_555
Fe5 O23 1.979058 1_555
Fe5 O22 2.002133 1_455
O0 Sr1 2.744351 1_555
O0 Sr0 2.790833 1_455
O0 Sr2 2.790833 1_545
O1 Sr1 2.736843 1_555
O1 Sr0 2.780960 1_555
O1 Sr2 2.782102 1_545
O2 Sr1 2.736843 1_555
O2 Sr2 2.780960 1_555
O2 Sr0 2.782102 1_455
O3 Sr1 2.720555 1_555
O3 Sr0 2.774062 1_555
O3 Sr2 2.774062 1_555
O4 Sr4 2.776223 1_555
O4 Sr6 2.790459 1_545
O4 Sr3 2.790459 1_455
O4 Sr5 2.804012 1_445
O5 Sr4 2.768954 1_555
O5 Sr6 2.780533 1_545
O5 Sr3 2.781856 1_555
O5 Sr5 2.795115 1_545
O6 Sr4 2.768954 1_555
O6 Sr3 2.780533 1_455
O6 Sr6 2.781856 1_555
O6 Sr5 2.795115 1_455
O7 Sr4 2.760737 1_555
O7 Sr3 2.773639 1_555
O7 Sr6 2.773639 1_555
O7 Sr5 2.783632 1_555
O8 Sr4 2.765288 1_556
O8 Sr1 2.778837 1_555
O8 Sr3 2.779282 1_456
O8 Sr0 2.793158 1_455
O9 Sr4 2.758761 1_556
O9 Sr3 2.768878 1_556
O9 Sr1 2.772442 1_555
O9 Sr0 2.782116 1_555
O10 Sr6 2.733163 1_556
O10 Sr2 2.779316 1_555
O10 Sr5 2.779693 1_456
O11 Sr6 2.720526 1_556
O11 Sr2 2.768595 1_555
O11 Sr5 2.773407 1_556
O12 Sr4 2.765288 1_555
O12 Sr1 2.778837 1_555
O12 Sr3 2.779282 1_455
O12 Sr0 2.793158 1_455
O13 Sr4 2.758761 1_555
O13 Sr3 2.768878 1_555
O13 Sr1 2.772442 1_555
O13 Sr0 2.782116 1_555
O14 Sr6 2.733163 1_555
O14 Sr2 2.779316 1_555
O14 Sr5 2.779693 1_455
O15 Sr6 2.720526 1_555
O15 Sr2 2.768595 1_555
O15 Sr5 2.773407 1_555
O16 Sr3 2.733163 1_556
O16 Sr0 2.779316 1_555
O16 Sr5 2.779693 1_546
O17 Sr4 2.765288 1_556
O17 Sr1 2.778837 1_555
O17 Sr6 2.779282 1_546
O17 Sr2 2.793158 1_545
O18 Sr3 2.720526 1_556
O18 Sr0 2.768595 1_555
O18 Sr5 2.773407 1_556
O19 Sr4 2.758761 1_556
O19 Sr6 2.768878 1_556
O19 Sr1 2.772442 1_555
O19 Sr2 2.782116 1_555
O20 Sr3 2.733163 1_555
O20 Sr0 2.779316 1_555
O20 Sr5 2.779693 1_545
O21 Sr4 2.765288 1_555
O21 Sr1 2.778837 1_555
O21 Sr6 2.779282 1_545
O21 Sr2 2.793158 1_545
O22 Sr3 2.720526 1_555
O22 Sr0 2.768595 1_555
O22 Sr5 2.773407 1_555
O23 Sr4 2.758761 1_555
O23 Sr6 2.768878 1_555
O23 Sr1 2.772442 1_555
O23 Sr2 2.782116 1_555
