# generated using pymatgen
data_Sr10Mg5Mo3(WO15)2
_symmetry_space_group_name_H-M   'P 1'
_cell_length_a   5.66025800
_cell_length_b   5.68195208
_cell_length_c   20.37760573
_cell_angle_alpha   97.89971056
_cell_angle_beta   97.94020916
_cell_angle_gamma   89.58774973
_symmetry_Int_Tables_number   1
_chemical_formula_structural   Sr10Mg5Mo3(WO15)2
_chemical_formula_sum   'Sr10 Mg5 Mo3 W2 O30'
_cell_volume   642.88122127
_cell_formula_units_Z   1
loop_
 _symmetry_equiv_pos_site_id
 _symmetry_equiv_pos_as_xyz
  1  'x, y, z'
loop_
 _atom_site_type_symbol
 _atom_site_label
 _atom_site_symmetry_multiplicity
 _atom_site_fract_x
 _atom_site_fract_y
 _atom_site_fract_z
 _atom_site_occupancy
  Sr  Sr0  1  0.05076000  0.55045600  0.10036100  1
  Sr  Sr1  1  0.65073500  0.15014400  0.29963000  1
  Sr  Sr2  1  0.25086100  0.75039000  0.50048100  1
  Sr  Sr3  1  0.85097400  0.35075200  0.70130300  1
  Sr  Sr4  1  0.45081100  0.95056100  0.90055900  1
  Sr  Sr5  1  0.54918900  0.04943900  0.09944100  1
  Sr  Sr6  1  0.14902600  0.64924800  0.29869700  1
  Sr  Sr7  1  0.74913900  0.24961000  0.49951900  1
  Sr  Sr8  1  0.34926500  0.84985600  0.70037000  1
  Sr  Sr9  1  0.94924000  0.44954400  0.89963900  1
  Mg  Mg0  1  0.50000000  0.50000000  0.00000000  1
  Mg  Mg1  1  0.10002400  0.10005300  0.19996600  1
  Mg  Mg2  1  0.70001600  0.70004500  0.40000600  1
  Mg  Mg3  1  0.29998400  0.29995500  0.59999400  1
  Mg  Mg4  1  0.89997600  0.89994700  0.80003400  1
  Mo  Mo0  1  0.39991600  0.40007000  0.80001100  1
  Mo  Mo1  1  0.00000000  0.00000000  0.00000000  1
  Mo  Mo2  1  0.60008400  0.59993000  0.19998900  1
  W  W0  1  0.20006400  0.19996000  0.40001300  1
  W  W1  1  0.79993600  0.80004000  0.59998700  1
  O  O0  1  0.25871100  0.22588800  0.00113200  1
  O  O1  1  0.85866100  0.82589100  0.20100600  1
  O  O2  1  0.45919900  0.42589000  0.40100900  1
  O  O3  1  0.05925400  0.02600600  0.60127900  1
  O  O4  1  0.65871100  0.62601200  0.80127900  1
  O  O5  1  0.34128900  0.37398800  0.19872100  1
  O  O6  1  0.94074600  0.97399400  0.39872100  1
  O  O7  1  0.54080100  0.57411000  0.59899100  1
  O  O8  1  0.14133900  0.17410900  0.79899400  1
  O  O9  1  0.74128900  0.77411200  0.99886800  1
  O  O10  1  0.37925800  0.86147400  0.21250600  1
  O  O11  1  0.97932700  0.46213200  0.41274500  1
  O  O12  1  0.57950400  0.06248500  0.61307400  1
  O  O13  1  0.17946300  0.66182900  0.81283400  1
  O  O14  1  0.77942400  0.26168800  0.01271700  1
  O  O15  1  0.22057600  0.73831200  0.98728300  1
  O  O16  1  0.82053700  0.33817100  0.18716600  1
  O  O17  1  0.42049600  0.93751500  0.38692600  1
  O  O18  1  0.02067300  0.53786800  0.58725500  1
  O  O19  1  0.62074200  0.13852600  0.78749400  1
  O  O20  1  0.12259600  0.18818300  0.30294600  1
  O  O21  1  0.72270000  0.78833300  0.50338000  1
  O  O22  1  0.32318200  0.38811300  0.70371200  1
  O  O23  1  0.92307100  0.98801700  0.90343200  1
  O  O24  1  0.52306000  0.58795000  0.10326200  1
  O  O25  1  0.47694000  0.41205000  0.89673800  1
  O  O26  1  0.07692900  0.01198300  0.09656800  1
  O  O27  1  0.67681800  0.61188700  0.29628800  1
  O  O28  1  0.27730000  0.21166700  0.49662000  1
  O  O29  1  0.87740400  0.81181700  0.69705400  1
loop_
_geom_bond_atom_site_label_1
_geom_bond_atom_site_label_2
_geom_bond_distance
_geom_bond_site_symmetry_2
Mg0 O24 2.081002 1_555
Mg0 O25 2.081002 1_554
Mg0 O9 2.083458 1_554
Mg0 O0 2.083458 1_555
Mg0 O14 2.086762 1_555
Mg0 O15 2.086762 1_554
Mg1 O20 2.075745 1_555
Mg1 O5 2.083081 1_555
Mg1 O1 2.083567 1_445
Mg1 O26 2.083743 1_555
Mg1 O16 2.086481 1_455
Mg1 O10 2.086584 1_545
Mg2 O6 2.081304 1_555
Mg2 O2 2.081338 1_555
Mg2 O21 2.083571 1_555
Mg2 O17 2.084821 1_555
Mg2 O11 2.084843 1_555
Mg2 O27 2.090072 1_555
Mg3 O3 2.081304 1_555
Mg3 O7 2.081338 1_555
Mg3 O28 2.083571 1_555
Mg3 O12 2.084821 1_555
Mg3 O18 2.084843 1_555
Mg3 O22 2.090072 1_555
Mg4 O29 2.075745 1_555
Mg4 O4 2.083081 1_555
Mg4 O8 2.083567 1_665
Mg4 O23 2.083743 1_555
Mg4 O13 2.086481 1_655
Mg4 O19 2.086584 1_565
Mo0 O22 1.942255 1_555
Mo0 O19 1.947559 1_555
Mo0 O13 1.947807 1_555
Mo0 O4 1.949885 1_555
Mo0 O8 1.949958 1_555
Mo0 O25 1.950880 1_555
Mo1 O23 1.947675 1_444
Mo1 O26 1.947675 1_555
Mo1 O14 1.947710 1_455
Mo1 O15 1.947710 1_544
Mo1 O0 1.949826 1_555
Mo1 O9 1.949826 1_444
Mo2 O27 1.942255 1_555
Mo2 O10 1.947559 1_555
Mo2 O16 1.947807 1_555
Mo2 O5 1.949885 1_555
Mo2 O1 1.949958 1_555
Mo2 O24 1.950880 1_555
O0 Sr5 2.709255 1_555
O0 Sr4 2.745854 1_544
O0 Sr0 2.911433 1_555
O0 Sr9 2.941129 1_454
O1 Sr6 2.700567 1_655
O1 Sr0 2.747197 1_655
O1 Sr1 2.902239 1_565
O1 Sr5 2.941809 1_565
O2 W0 1.952302 1_555
O2 Sr7 2.710176 1_555
O2 Sr1 2.757274 1_555
O2 Sr2 2.915599 1_555
O2 Sr6 2.953583 1_555
O3 W1 1.952120 1_445
O3 Sr8 2.718425 1_545
O3 Sr2 2.748552 1_545
O3 Sr3 2.923664 1_455
O3 Sr7 2.946483 1_455
O4 Sr9 2.710184 1_555
O4 Sr3 2.737354 1_555
O4 Sr4 2.911921 1_555
O4 Sr8 2.933537 1_555
O5 Sr0 2.710184 1_555
O5 Sr6 2.737354 1_555
O5 Sr5 2.911921 1_555
O5 Sr1 2.933537 1_555
O6 W0 1.952120 1_665
O6 Sr1 2.718425 1_565
O6 Sr7 2.748552 1_565
O6 Sr6 2.923664 1_655
O6 Sr2 2.946483 1_655
O7 W1 1.952302 1_555
O7 Sr2 2.710176 1_555
O7 Sr8 2.757274 1_555
O7 Sr7 2.915599 1_555
O7 Sr3 2.953583 1_555
O8 Sr3 2.700567 1_455
O8 Sr9 2.747197 1_455
O8 Sr8 2.902239 1_545
O8 Sr4 2.941809 1_545
O9 Sr4 2.709255 1_555
O9 Sr5 2.745854 1_566
O9 Sr9 2.911433 1_555
O9 Sr0 2.941129 1_656
O10 Sr1 2.585651 1_565
O10 Sr6 2.733921 1_555
O10 Sr5 2.945781 1_565
O10 Sr0 3.092872 1_555
O11 W0 1.950379 1_655
O11 Sr2 2.591018 1_655
O11 Sr7 2.743819 1_555
O11 Sr6 2.960527 1_655
O11 Sr1 3.107194 1_555
O12 W1 1.951256 1_545
O12 Sr3 2.596115 1_555
O12 Sr8 2.752510 1_545
O12 Sr7 2.951564 1_555
O12 Sr2 3.101462 1_545
O13 Sr4 2.591833 1_555
O13 Sr9 2.743702 1_455
O13 Sr8 2.934893 1_555
O13 Sr3 3.085800 1_455
O14 Sr0 2.591050 1_655
O14 Sr5 2.742360 1_555
O14 Sr9 2.945437 1_554
O14 Sr4 3.093647 1_544
O15 Sr9 2.591050 1_455
O15 Sr4 2.742360 1_555
O15 Sr0 2.945437 1_556
O15 Sr5 3.093647 1_566
O16 Sr5 2.591833 1_555
O16 Sr0 2.743702 1_655
O16 Sr1 2.934893 1_555
O16 Sr6 3.085800 1_655
O17 W0 1.951256 1_565
O17 Sr6 2.596115 1_555
O17 Sr1 2.752510 1_565
O17 Sr2 2.951564 1_555
O17 Sr7 3.101462 1_565
O18 W1 1.950379 1_455
O18 Sr7 2.591018 1_455
O18 Sr2 2.743819 1_555
O18 Sr3 2.960527 1_455
O18 Sr8 3.107194 1_555
O19 Sr8 2.585651 1_545
O19 Sr3 2.733921 1_555
O19 Sr4 2.945781 1_545
O19 Sr9 3.092872 1_555
O20 W0 1.957964 1_555
O20 Sr6 2.639040 1_555
O20 Sr1 2.671924 1_455
O20 Sr1 3.005047 1_555
O20 Sr6 3.054680 1_545
O21 W1 1.948758 1_555
O21 Sr7 2.638857 1_565
O21 Sr2 2.672820 1_555
O21 Sr2 3.003874 1_655
O21 Sr7 3.054301 1_555
O22 Sr8 2.639543 1_555
O22 Sr3 2.675909 1_455
O22 Sr3 3.000132 1_555
O22 Sr8 3.052699 1_545
O23 Sr9 2.639930 1_565
O23 Sr4 2.675029 1_555
O23 Sr4 3.001249 1_655
O23 Sr9 3.052961 1_555
O24 Sr5 2.639798 1_565
O24 Sr0 2.675201 1_555
O24 Sr0 3.001121 1_655
O24 Sr5 3.053106 1_555
O25 Sr4 2.639798 1_545
O25 Sr9 2.675201 1_555
O25 Sr9 3.001121 1_455
O25 Sr4 3.053106 1_555
O26 Sr0 2.639930 1_545
O26 Sr5 2.675029 1_555
O26 Sr5 3.001249 1_455
O26 Sr0 3.052961 1_555
O27 Sr1 2.639543 1_555
O27 Sr6 2.675909 1_655
O27 Sr6 3.000132 1_555
O27 Sr1 3.052699 1_565
O28 W0 1.948758 1_555
O28 Sr2 2.638857 1_545
O28 Sr7 2.672820 1_555
O28 Sr7 3.003874 1_455
O28 Sr2 3.054301 1_555
O29 W1 1.957964 1_555
O29 Sr3 2.639040 1_555
O29 Sr8 2.671924 1_655
O29 Sr8 3.005047 1_555
O29 Sr3 3.054680 1_565
