# generated using pymatgen
data_Rb2Bi4Se7
_symmetry_space_group_name_H-M   'P 1'
_cell_length_a   4.23494847
_cell_length_b   13.17593301
_cell_length_c   15.21368489
_cell_angle_alpha   86.90977411
_cell_angle_beta   90.00000000
_cell_angle_gamma   90.00000000
_symmetry_Int_Tables_number   1
_chemical_formula_structural   Rb2Bi4Se7
_chemical_formula_sum   'Rb4 Bi8 Se14'
_cell_volume   847.68002570
_cell_formula_units_Z   2
loop_
 _symmetry_equiv_pos_site_id
 _symmetry_equiv_pos_as_xyz
  1  'x, y, z'
loop_
 _atom_site_type_symbol
 _atom_site_label
 _atom_site_symmetry_multiplicity
 _atom_site_fract_x
 _atom_site_fract_y
 _atom_site_fract_z
 _atom_site_occupancy
  Rb  Rb0  1  0.25000000  0.56287362  0.81434274  1
  Rb  Rb1  1  0.75000000  0.43712638  0.18565726  1
  Rb  Rb2  1  0.75000000  0.82477716  0.62422061  1
  Rb  Rb3  1  0.25000000  0.17522284  0.37577939  1
  Bi  Bi0  1  0.25000000  0.83583609  0.27939005  1
  Bi  Bi1  1  0.75000000  0.16416391  0.72060995  1
  Bi  Bi2  1  0.75000000  0.60760829  0.43027165  1
  Bi  Bi3  1  0.25000000  0.39239171  0.56972835  1
  Bi  Bi4  1  0.75000000  0.73047871  0.04879347  1
  Bi  Bi5  1  0.25000000  0.26952129  0.95120653  1
  Bi  Bi6  1  0.25000000  0.94067172  0.87567108  1
  Bi  Bi7  1  0.75000000  0.05932828  0.12432892  1
  Se  Se0  1  0.25000000  0.59430441  0.03681554  1
  Se  Se1  1  0.75000000  0.40569559  0.96318446  1
  Se  Se2  1  0.75000000  0.99382978  0.30216774  1
  Se  Se3  1  0.25000000  0.00617022  0.69783226  1
  Se  Se4  1  0.75000000  0.69294834  0.24137769  1
  Se  Se5  1  0.25000000  0.30705166  0.75862231  1
  Se  Se6  1  0.75000000  0.78854610  0.85623793  1
  Se  Se7  1  0.25000000  0.21145390  0.14376207  1
  Se  Se8  1  0.25000000  0.90633944  0.08448382  1
  Se  Se9  1  0.75000000  0.09366056  0.91551618  1
  Se  Se10  1  0.25000000  0.75885563  0.45866794  1
  Se  Se11  1  0.75000000  0.24114437  0.54133206  1
  Se  Se12  1  0.25000000  0.45777002  0.38761582  1
  Se  Se13  1  0.75000000  0.54222998  0.61238418  1
loop_
_geom_bond_atom_site_label_1
_geom_bond_atom_site_label_2
_geom_bond_distance
_geom_bond_site_symmetry_2
Rb0 Se0 3.431961 1_556
Rb0 Se5 3.519696 1_555
Rb0 Se1 3.659868 1_555
Rb0 Se1 3.659868 1_455
Rb0 Se6 3.733050 1_455
Rb0 Se6 3.733050 1_555
Rb0 Se13 3.753432 1_455
Rb0 Se13 3.753432 1_555
Rb1 Se1 3.431961 1_554
Rb1 Se4 3.519696 1_555
Rb1 Se0 3.659868 1_555
Rb1 Se0 3.659868 1_655
Rb1 Se7 3.733050 1_555
Rb1 Se7 3.733050 1_655
Rb1 Se12 3.753432 1_555
Rb1 Se12 3.753432 1_655
Rb2 Se3 3.426175 1_665
Rb2 Se3 3.426175 1_565
Rb2 Se10 3.437684 1_655
Rb2 Se10 3.437684 1_555
Rb2 Se6 3.536378 1_555
Rb2 Se13 3.736859 1_555
Rb3 Se2 3.426175 1_445
Rb3 Se2 3.426175 1_545
Rb3 Se11 3.437684 1_455
Rb3 Se11 3.437684 1_555
Rb3 Se7 3.536378 1_555
Rb3 Se12 3.736859 1_555
Bi0 Se10 2.858259 1_555
Bi0 Se4 2.912045 1_455
Bi0 Se4 2.912045 1_555
Bi0 Se2 3.002515 1_555
Bi0 Se2 3.002515 1_455
Bi0 Se8 3.059185 1_555
Bi1 Se11 2.858259 1_555
Bi1 Se5 2.912045 1_655
Bi1 Se5 2.912045 1_555
Bi1 Se3 3.002515 1_555
Bi1 Se3 3.002515 1_655
Bi1 Se9 3.059185 1_555
Bi2 Se13 2.856740 1_555
Bi2 Se10 2.955420 1_655
Bi2 Se10 2.955420 1_555
Bi2 Se12 2.990095 1_555
Bi2 Se12 2.990095 1_655
Bi2 Se4 3.028949 1_555
Bi3 Se12 2.856740 1_555
Bi3 Se11 2.955420 1_555
Bi3 Se11 2.955420 1_455
Bi3 Se13 2.990095 1_555
Bi3 Se13 2.990095 1_455
Bi3 Se5 3.028949 1_555
Bi4 Se0 2.787722 1_555
Bi4 Se0 2.787722 1_655
Bi4 Se4 2.944949 1_555
Bi4 Se6 2.987568 1_554
Bi4 Se8 3.206753 1_555
Bi4 Se8 3.206753 1_655
Bi5 Se1 2.787722 1_555
Bi5 Se1 2.787722 1_455
Bi5 Se5 2.944949 1_555
Bi5 Se7 2.987568 1_556
Bi5 Se9 3.206753 1_455
Bi5 Se9 3.206753 1_555
Bi6 Se3 2.795213 1_565
Bi6 Se6 2.941531 1_455
Bi6 Se6 2.941531 1_555
Bi6 Se9 3.007697 1_565
Bi6 Se9 3.007697 1_465
Bi6 Se8 3.184622 1_556
Bi7 Se2 2.795213 1_545
Bi7 Se7 2.941531 1_555
Bi7 Se7 2.941531 1_655
Bi7 Se8 3.007697 1_645
Bi7 Se8 3.007697 1_545
Bi7 Se9 3.184622 1_554
