# generated using pymatgen
data_Ag3AuSeS
_symmetry_space_group_name_H-M   'P 1'
_cell_length_a   8.66340291
_cell_length_b   8.66340291
_cell_length_c   8.66340291
_cell_angle_alpha   109.47122063
_cell_angle_beta   109.47122063
_cell_angle_gamma   109.47122063
_symmetry_Int_Tables_number   1
_chemical_formula_structural   Ag3AuSeS
_chemical_formula_sum   'Ag12 Au4 Se4 S4'
_cell_volume   500.54559833
_cell_formula_units_Z   4
loop_
 _symmetry_equiv_pos_site_id
 _symmetry_equiv_pos_as_xyz
  1  'x, y, z'
loop_
 _atom_site_type_symbol
 _atom_site_label
 _atom_site_symmetry_multiplicity
 _atom_site_fract_x
 _atom_site_fract_y
 _atom_site_fract_z
 _atom_site_occupancy
  Ag  Ag0  1  0.25000000  0.63063500  0.38063500  1
  Ag  Ag1  1  0.75000000  0.86936500  0.11936500  1
  Ag  Ag2  1  0.25000000  0.12344900  0.87344900  1
  Ag  Ag3  1  0.75000000  0.37655100  0.62655100  1
  Ag  Ag4  1  0.86936500  0.11936500  0.75000000  1
  Ag  Ag5  1  0.63063500  0.38063500  0.25000000  1
  Ag  Ag6  1  0.37655100  0.62655100  0.75000000  1
  Ag  Ag7  1  0.12344900  0.87344900  0.25000000  1
  Ag  Ag8  1  0.38063500  0.25000000  0.63063500  1
  Ag  Ag9  1  0.11936500  0.75000000  0.86936500  1
  Ag  Ag10  1  0.87344900  0.25000000  0.12344900  1
  Ag  Ag11  1  0.62655100  0.75000000  0.37655100  1
  Au  Au0  1  0.24522700  0.24522700  0.24522700  1
  Au  Au1  1  0.25477300  0.50000000  0.00000000  1
  Au  Au2  1  0.00000000  0.25477300  0.50000000  1
  Au  Au3  1  0.50000000  0.00000000  0.25477300  1
  Se  Se0  1  0.53336200  0.53336200  0.53336200  1
  Se  Se1  1  0.96663800  0.50000000  0.00000000  1
  Se  Se2  1  0.00000000  0.96663800  0.50000000  1
  Se  Se3  1  0.50000000  0.00000000  0.96663800  1
  S  S0  1  0.52837500  0.50000000  0.00000000  1
  S  S1  1  0.97162500  0.97162500  0.97162500  1
  S  S2  1  0.00000000  0.52837500  0.50000000  1
  S  S3  1  0.50000000  0.00000000  0.52837500  1
loop_
_geom_bond_atom_site_label_1
_geom_bond_atom_site_label_2
_geom_bond_distance
_geom_bond_site_symmetry_2
Ag0 S2 2.714750 1_555
Ag0 S3 2.714750 1_565
Ag0 Se0 2.905923 1_555
Ag0 Se1 2.905923 1_455
Ag0 Au0 3.129020 1_555
Ag0 Au1 3.129020 1_555
Ag1 S1 2.714750 1_554
Ag1 S0 2.714750 1_555
Ag1 Se3 2.905923 1_564
Ag1 Se2 2.905923 1_655
Ag1 Au3 3.129020 1_565
Ag1 Au2 3.129020 1_665
Ag2 Se3 2.727756 1_555
Ag2 Se2 2.727756 1_545
Ag2 S0 2.875447 1_556
Ag2 S1 2.875447 1_445
Ag2 Au1 3.056341 1_556
Ag2 Au0 3.056341 1_556
Ag3 Se0 2.727756 1_555
Ag3 Se1 2.727756 1_556
Ag3 S2 2.875447 1_655
Ag3 S3 2.875447 1_555
Ag3 Au3 3.056341 1_555
Ag3 Au2 3.056341 1_655
Ag4 S1 2.714750 1_545
Ag4 S3 2.714750 1_555
Ag4 Se2 2.905923 1_645
Ag4 Se1 2.905923 1_556
Ag4 Au2 3.129020 1_655
Ag4 Au1 3.129020 1_656
Ag5 S0 2.714750 1_555
Ag5 S2 2.714750 1_655
Ag5 Se0 2.905923 1_555
Ag5 Se3 2.905923 1_554
Ag5 Au0 3.129020 1_555
Ag5 Au3 3.129020 1_555
Ag6 Se0 2.727756 1_555
Ag6 Se3 2.727756 1_565
Ag6 S0 2.875447 1_556
Ag6 S2 2.875447 1_555
Ag6 Au2 3.056341 1_555
Ag6 Au1 3.056341 1_556
Ag7 Se2 2.727756 1_555
Ag7 Se1 2.727756 1_455
Ag7 S1 2.875447 1_454
Ag7 S3 2.875447 1_565
Ag7 Au3 3.056341 1_565
Ag7 Au0 3.056341 1_565
Ag8 S3 2.714750 1_555
Ag8 S0 2.714750 1_556
Ag8 Se0 2.905923 1_555
Ag8 Se2 2.905923 1_545
Ag8 Au0 3.129020 1_555
Ag8 Au2 3.129020 1_555
Ag9 S1 2.714750 1_455
Ag9 S2 2.714750 1_555
Ag9 Se3 2.905923 1_565
Ag9 Se1 2.905923 1_456
Ag9 Au1 3.129020 1_556
Ag9 Au3 3.129020 1_566
Ag10 Se3 2.727756 1_554
Ag10 Se1 2.727756 1_555
Ag10 S2 2.875447 1_655
Ag10 S1 2.875447 1_544
Ag10 Au2 3.056341 1_655
Ag10 Au0 3.056341 1_655
Ag11 Se0 2.727756 1_555
Ag11 Se2 2.727756 1_655
Ag11 S3 2.875447 1_565
Ag11 S0 2.875447 1_555
Ag11 Au1 3.056341 1_555
Ag11 Au3 3.056341 1_565
Au0 S1 2.370324 1_444
Au0 Se0 2.496230 1_555
Au1 S0 2.370324 1_555
Au1 Se1 2.496230 1_455
Au2 S2 2.370324 1_555
Au2 Se2 2.496230 1_545
Au3 S3 2.370324 1_555
Au3 Se3 2.496230 1_554
