# generated using pymatgen
data_HfMgN2
_symmetry_space_group_name_H-M   'P 1'
_cell_length_a   4.40706921
_cell_length_b   4.40706905
_cell_length_c   5.52776695
_cell_angle_alpha   113.49600737
_cell_angle_beta   113.49601011
_cell_angle_gamma   90.00113726
_symmetry_Int_Tables_number   1
_chemical_formula_structural   HfMgN2
_chemical_formula_sum   'Hf2 Mg2 N4'
_cell_volume   88.66894586
_cell_formula_units_Z   2
loop_
 _symmetry_equiv_pos_site_id
 _symmetry_equiv_pos_as_xyz
  1  'x, y, z'
loop_
 _atom_site_type_symbol
 _atom_site_label
 _atom_site_symmetry_multiplicity
 _atom_site_fract_x
 _atom_site_fract_y
 _atom_site_fract_z
 _atom_site_occupancy
  Hf  Hf0  1  0.12500022  0.37499982  0.25000006  1
  Hf  Hf1  1  0.87499993  0.62500023  0.75000000  1
  Mg  Mg0  1  0.37507114  0.12492877  0.75000005  1
  Mg  Mg1  1  0.62492886  0.87507134  0.24999998  1
  N  N0  1  0.11426022  0.86426250  0.22853514  1
  N  N1  1  0.88573972  0.13573739  0.77146480  1
  N  N2  1  0.63573738  0.38573979  0.27146480  1
  N  N3  1  0.36426253  0.61426016  0.72853517  1
loop_
_geom_bond_atom_site_label_1
_geom_bond_atom_site_label_2
_geom_bond_distance
_geom_bond_site_symmetry_2
Hf0 N3 2.184669 1_555
Hf0 N1 2.184670 1_454
Hf0 N0 2.205698 1_555
Hf0 N2 2.205699 1_455
Hf0 N2 2.205726 1_555
Hf0 N0 2.205726 1_545
Hf1 N0 2.184669 1_656
Hf1 N2 2.184669 1_555
Hf1 N3 2.205698 1_655
Hf1 N1 2.205699 1_555
Hf1 N1 2.205726 1_565
Hf1 N3 2.205727 1_555
Mg0 N3 2.205424 1_545
Mg0 N1 2.205424 1_555
Mg0 N1 2.206001 1_455
Mg0 N3 2.206001 1_555
Mg0 N2 2.380657 1_556
Mg0 N0 2.380657 1_545
Mg1 N2 2.205423 1_565
Mg1 N0 2.205424 1_555
Mg1 N0 2.206001 1_655
Mg1 N2 2.206001 1_555
Mg1 N3 2.380657 1_554
Mg1 N1 2.380657 1_565
