# generated using pymatgen
data_K5Fe2Te5
_symmetry_space_group_name_H-M   'P 1'
_cell_length_a   17.22911059
_cell_length_b   17.22911059
_cell_length_c   17.22911059
_cell_angle_alpha   90.00000000
_cell_angle_beta   90.00000000
_cell_angle_gamma   90.00000000
_symmetry_Int_Tables_number   1
_chemical_formula_structural   K5Fe2Te5
_chemical_formula_sum   'K60 Fe24 Te60'
_cell_volume   5114.32798271
_cell_formula_units_Z   12
loop_
 _symmetry_equiv_pos_site_id
 _symmetry_equiv_pos_as_xyz
  1  'x, y, z'
loop_
 _atom_site_type_symbol
 _atom_site_label
 _atom_site_symmetry_multiplicity
 _atom_site_fract_x
 _atom_site_fract_y
 _atom_site_fract_z
 _atom_site_occupancy
  K  K0  1  0.50000000  0.50000000  0.00000000  1
  K  K1  1  0.50000000  0.00000000  0.50000000  1
  K  K2  1  0.00000000  0.50000000  0.50000000  1
  K  K3  1  0.00000000  0.00000000  0.00000000  1
  K  K4  1  0.12646133  0.87353867  0.37353867  1
  K  K5  1  0.87353867  0.37353867  0.12646133  1
  K  K6  1  0.37353867  0.12646133  0.87353867  1
  K  K7  1  0.62646133  0.62646133  0.62646133  1
  K  K8  1  0.87353867  0.12646133  0.62646133  1
  K  K9  1  0.12646133  0.62646133  0.87353867  1
  K  K10  1  0.62646133  0.87353867  0.12646133  1
  K  K11  1  0.37353867  0.37353867  0.37353867  1
  K  K12  1  0.13086795  0.60435044  0.11245120  1
  K  K13  1  0.86913205  0.10435044  0.38754880  1
  K  K14  1  0.36913205  0.39564956  0.61245120  1
  K  K15  1  0.63086795  0.89564956  0.88754880  1
  K  K16  1  0.11245120  0.13086795  0.60435044  1
  K  K17  1  0.38754880  0.86913205  0.10435044  1
  K  K18  1  0.61245120  0.36913205  0.39564956  1
  K  K19  1  0.88754880  0.63086795  0.89564956  1
  K  K20  1  0.60435044  0.11245120  0.13086795  1
  K  K21  1  0.10435044  0.38754880  0.86913205  1
  K  K22  1  0.39564956  0.61245120  0.36913205  1
  K  K23  1  0.89564956  0.88754880  0.63086795  1
  K  K24  1  0.86913205  0.39564956  0.88754880  1
  K  K25  1  0.13086795  0.89564956  0.61245120  1
  K  K26  1  0.63086795  0.60435044  0.38754880  1
  K  K27  1  0.36913205  0.10435044  0.11245120  1
  K  K28  1  0.88754880  0.86913205  0.39564956  1
  K  K29  1  0.61245120  0.13086795  0.89564956  1
  K  K30  1  0.38754880  0.63086795  0.60435044  1
  K  K31  1  0.11245120  0.36913205  0.10435044  1
  K  K32  1  0.39564956  0.88754880  0.86913205  1
  K  K33  1  0.89564956  0.61245120  0.13086795  1
  K  K34  1  0.60435044  0.38754880  0.63086795  1
  K  K35  1  0.10435044  0.11245120  0.36913205  1
  K  K36  1  0.15335145  0.61438970  0.35015310  1
  K  K37  1  0.84664855  0.11438970  0.14984690  1
  K  K38  1  0.34664855  0.38561030  0.85015310  1
  K  K39  1  0.65335145  0.88561030  0.64984690  1
  K  K40  1  0.35015310  0.15335145  0.61438970  1
  K  K41  1  0.14984690  0.84664855  0.11438970  1
  K  K42  1  0.85015310  0.34664855  0.38561030  1
  K  K43  1  0.64984690  0.65335145  0.88561030  1
  K  K44  1  0.61438970  0.35015310  0.15335145  1
  K  K45  1  0.11438970  0.14984690  0.84664855  1
  K  K46  1  0.38561030  0.85015310  0.34664855  1
  K  K47  1  0.88561030  0.64984690  0.65335145  1
  K  K48  1  0.84664855  0.38561030  0.64984690  1
  K  K49  1  0.15335145  0.88561030  0.85015310  1
  K  K50  1  0.65335145  0.61438970  0.14984690  1
  K  K51  1  0.34664855  0.11438970  0.35015310  1
  K  K52  1  0.64984690  0.84664855  0.38561030  1
  K  K53  1  0.85015310  0.15335145  0.88561030  1
  K  K54  1  0.14984690  0.65335145  0.61438970  1
  K  K55  1  0.35015310  0.34664855  0.11438970  1
  K  K56  1  0.38561030  0.64984690  0.84664855  1
  K  K57  1  0.88561030  0.85015310  0.15335145  1
  K  K58  1  0.61438970  0.14984690  0.65335145  1
  K  K59  1  0.11438970  0.35015310  0.34664855  1
  Fe  Fe0  1  0.33416490  0.55380681  0.15739337  1
  Fe  Fe1  1  0.66583510  0.05380681  0.34260663  1
  Fe  Fe2  1  0.16583510  0.44619319  0.65739337  1
  Fe  Fe3  1  0.83416490  0.94619319  0.84260663  1
  Fe  Fe4  1  0.15739337  0.33416490  0.55380681  1
  Fe  Fe5  1  0.34260663  0.66583510  0.05380681  1
  Fe  Fe6  1  0.65739337  0.16583510  0.44619319  1
  Fe  Fe7  1  0.84260663  0.83416490  0.94619319  1
  Fe  Fe8  1  0.55380681  0.15739337  0.33416490  1
  Fe  Fe9  1  0.05380681  0.34260663  0.66583510  1
  Fe  Fe10  1  0.44619319  0.65739337  0.16583510  1
  Fe  Fe11  1  0.94619319  0.84260663  0.83416490  1
  Fe  Fe12  1  0.66583510  0.44619319  0.84260663  1
  Fe  Fe13  1  0.33416490  0.94619319  0.65739337  1
  Fe  Fe14  1  0.83416490  0.55380681  0.34260663  1
  Fe  Fe15  1  0.16583510  0.05380681  0.15739337  1
  Fe  Fe16  1  0.84260663  0.66583510  0.44619319  1
  Fe  Fe17  1  0.65739337  0.33416490  0.94619319  1
  Fe  Fe18  1  0.34260663  0.83416490  0.55380681  1
  Fe  Fe19  1  0.15739337  0.16583510  0.05380681  1
  Fe  Fe20  1  0.44619319  0.84260663  0.66583510  1
  Fe  Fe21  1  0.94619319  0.65739337  0.33416490  1
  Fe  Fe22  1  0.55380681  0.34260663  0.83416490  1
  Fe  Fe23  1  0.05380681  0.15739337  0.16583510  1
  Te  Te0  1  0.30271906  0.69728094  0.19728094  1
  Te  Te1  1  0.69728094  0.19728094  0.30271906  1
  Te  Te2  1  0.19728094  0.30271906  0.69728094  1
  Te  Te3  1  0.80271906  0.80271906  0.80271906  1
  Te  Te4  1  0.69728094  0.30271906  0.80271906  1
  Te  Te5  1  0.30271906  0.80271906  0.69728094  1
  Te  Te6  1  0.80271906  0.69728094  0.30271906  1
  Te  Te7  1  0.19728094  0.19728094  0.19728094  1
  Te  Te8  1  0.47312268  0.51113410  0.20109765  1
  Te  Te9  1  0.52687732  0.01113410  0.29890235  1
  Te  Te10  1  0.02687732  0.48886590  0.70109765  1
  Te  Te11  1  0.97312268  0.98886590  0.79890235  1
  Te  Te12  1  0.20109765  0.47312268  0.51113410  1
  Te  Te13  1  0.29890235  0.52687732  0.01113410  1
  Te  Te14  1  0.70109765  0.02687732  0.48886590  1
  Te  Te15  1  0.79890235  0.97312268  0.98886590  1
  Te  Te16  1  0.51113410  0.20109765  0.47312268  1
  Te  Te17  1  0.01113410  0.29890235  0.52687732  1
  Te  Te18  1  0.48886590  0.70109765  0.02687732  1
  Te  Te19  1  0.98886590  0.79890235  0.97312268  1
  Te  Te20  1  0.52687732  0.48886590  0.79890235  1
  Te  Te21  1  0.47312268  0.98886590  0.70109765  1
  Te  Te22  1  0.97312268  0.51113410  0.29890235  1
  Te  Te23  1  0.02687732  0.01113410  0.20109765  1
  Te  Te24  1  0.79890235  0.52687732  0.48886590  1
  Te  Te25  1  0.70109765  0.47312268  0.98886590  1
  Te  Te26  1  0.29890235  0.97312268  0.51113410  1
  Te  Te27  1  0.20109765  0.02687732  0.01113410  1
  Te  Te28  1  0.48886590  0.79890235  0.52687732  1
  Te  Te29  1  0.98886590  0.70109765  0.47312268  1
  Te  Te30  1  0.51113410  0.29890235  0.97312268  1
  Te  Te31  1  0.01113410  0.20109765  0.02687732  1
  Te  Te32  1  0.26086612  0.74060411  0.46830271  1
  Te  Te33  1  0.73913388  0.24060411  0.03169729  1
  Te  Te34  1  0.23913388  0.25939589  0.96830271  1
  Te  Te35  1  0.76086612  0.75939589  0.53169729  1
  Te  Te36  1  0.46830271  0.26086612  0.74060411  1
  Te  Te37  1  0.03169729  0.73913388  0.24060411  1
  Te  Te38  1  0.96830271  0.23913388  0.25939589  1
  Te  Te39  1  0.53169729  0.76086612  0.75939589  1
  Te  Te40  1  0.74060411  0.46830271  0.26086612  1
  Te  Te41  1  0.24060411  0.03169729  0.73913388  1
  Te  Te42  1  0.25939589  0.96830271  0.23913388  1
  Te  Te43  1  0.75939589  0.53169729  0.76086612  1
  Te  Te44  1  0.73913388  0.25939589  0.53169729  1
  Te  Te45  1  0.26086612  0.75939589  0.96830271  1
  Te  Te46  1  0.76086612  0.74060411  0.03169729  1
  Te  Te47  1  0.23913388  0.24060411  0.46830271  1
  Te  Te48  1  0.53169729  0.73913388  0.25939589  1
  Te  Te49  1  0.96830271  0.26086612  0.75939589  1
  Te  Te50  1  0.03169729  0.76086612  0.74060411  1
  Te  Te51  1  0.46830271  0.23913388  0.24060411  1
  Te  Te52  1  0.25939589  0.53169729  0.73913388  1
  Te  Te53  1  0.75939589  0.96830271  0.26086612  1
  Te  Te54  1  0.74060411  0.03169729  0.76086612  1
  Te  Te55  1  0.24060411  0.46830271  0.23913388  1
  Te  Te56  1  0.00000000  0.00000000  0.50000000  1
  Te  Te57  1  0.00000000  0.50000000  0.00000000  1
  Te  Te58  1  0.50000000  0.00000000  0.00000000  1
  Te  Te59  1  0.50000000  0.50000000  0.50000000  1
loop_
_geom_bond_atom_site_label_1
_geom_bond_atom_site_label_2
_geom_bond_distance
_geom_bond_site_symmetry_2
K0 Te8 3.500802 1_555
K0 Te18 3.500802 1_555
K0 Te13 3.500802 1_555
K0 Te25 3.500802 1_554
K0 Te30 3.500802 1_554
K0 Te20 3.500802 1_554
K1 Te16 3.500802 1_555
K1 Te14 3.500802 1_555
K1 Te9 3.500802 1_555
K1 Te21 3.500802 1_545
K1 Te28 3.500802 1_545
K1 Te26 3.500802 1_545
K2 Te12 3.500802 1_555
K2 Te29 3.500802 1_455
K2 Te10 3.500802 1_555
K2 Te17 3.500802 1_555
K2 Te22 3.500802 1_455
K2 Te24 3.500802 1_455
K3 Te27 3.500802 1_555
K3 Te31 3.500802 1_555
K3 Te23 3.500802 1_555
K3 Te11 3.500802 1_444
K3 Te15 3.500802 1_444
K3 Te19 3.500802 1_444
K4 Te32 3.643314 1_555
K4 Te37 3.643314 1_555
K4 Te42 3.643314 1_555
K4 Te56 3.773820 1_565
K5 Te40 3.643314 1_555
K5 Te33 3.643314 1_555
K5 Te38 3.643314 1_555
K5 Te57 3.773820 1_655
K6 Te36 3.643314 1_555
K6 Te41 3.643314 1_555
K6 Te34 3.643314 1_555
K6 Te58 3.773820 1_556
K7 Te43 3.643314 1_555
K7 Te35 3.643314 1_555
K7 Te39 3.643314 1_555
K7 Te59 3.773820 1_555
K8 Te54 3.643314 1_555
K8 Te49 3.643314 1_555
K8 Te44 3.643314 1_555
K8 Te56 3.773820 1_655
K9 Te50 3.643314 1_555
K9 Te45 3.643314 1_555
K9 Te52 3.643314 1_555
K9 Te57 3.773820 1_556
K10 Te46 3.643314 1_555
K10 Te53 3.643314 1_555
K10 Te48 3.643314 1_555
K10 Te58 3.773820 1_565
K11 Te55 3.643314 1_555
K11 Te51 3.643314 1_555
K11 Te47 3.643314 1_555
K11 Te59 3.773820 1_555
K12 Te57 3.474164 1_555
K12 Te37 3.631403 1_555
K12 Te13 3.634599 1_555
K12 Te0 3.669637 1_555
K12 Te55 3.719234 1_555
K13 Te56 3.474164 1_655
K13 Te38 3.631403 1_555
K13 Te14 3.634599 1_555
K13 Te1 3.669637 1_555
K13 Te53 3.719234 1_545
K14 Te59 3.474164 1_555
K14 Te36 3.631403 1_555
K14 Te12 3.634599 1_555
K14 Te2 3.669637 1_555
K14 Te52 3.719234 1_555
K15 Te58 3.474164 1_566
K15 Te39 3.631403 1_555
K15 Te15 3.634599 1_555
K15 Te3 3.669637 1_555
K15 Te54 3.719234 1_565
K16 Te56 3.474164 1_555
K16 Te41 3.631403 1_555
K16 Te17 3.634599 1_555
K16 Te2 3.669637 1_555
K16 Te47 3.719234 1_555
K17 Te58 3.474164 1_565
K17 Te42 3.631403 1_555
K17 Te18 3.634599 1_555
K17 Te0 3.669637 1_555
K17 Te45 3.719234 1_554
K18 Te59 3.474164 1_555
K18 Te40 3.631403 1_555
K18 Te16 3.634599 1_555
K18 Te1 3.669637 1_555
K18 Te44 3.719234 1_555
K19 Te57 3.474164 1_656
K19 Te43 3.631403 1_555
K19 Te19 3.634599 1_555
K19 Te3 3.669637 1_555
K19 Te46 3.719234 1_556
K20 Te58 3.474164 1_555
K20 Te33 3.631403 1_555
K20 Te9 3.634599 1_555
K20 Te1 3.669637 1_555
K20 Te51 3.719234 1_555
K21 Te57 3.474164 1_556
K21 Te34 3.631403 1_555
K21 Te10 3.634599 1_555
K21 Te2 3.669637 1_555
K21 Te49 3.719234 1_455
K22 Te59 3.474164 1_555
K22 Te32 3.631403 1_555
K22 Te8 3.634599 1_555
K22 Te0 3.669637 1_555
K22 Te48 3.719234 1_555
K23 Te56 3.474164 1_665
K23 Te35 3.631403 1_555
K23 Te11 3.634599 1_555
K23 Te3 3.669637 1_555
K23 Te50 3.719234 1_655
K24 Te57 3.474164 1_656
K24 Te49 3.631403 1_555
K24 Te25 3.634599 1_555
K24 Te4 3.669637 1_555
K24 Te43 3.719234 1_555
K25 Te56 3.474164 1_565
K25 Te50 3.631403 1_555
K25 Te26 3.634599 1_555
K25 Te5 3.669637 1_555
K25 Te41 3.719234 1_565
K26 Te59 3.474164 1_555
K26 Te48 3.631403 1_555
K26 Te24 3.634599 1_555
K26 Te6 3.669637 1_555
K26 Te40 3.719234 1_555
K27 Te58 3.474164 1_555
K27 Te51 3.631403 1_555
K27 Te27 3.634599 1_555
K27 Te7 3.669637 1_555
K27 Te42 3.719234 1_545
K28 Te56 3.474164 1_665
K28 Te53 3.631403 1_555
K28 Te29 3.634599 1_555
K28 Te6 3.669637 1_555
K28 Te35 3.719234 1_555
K29 Te58 3.474164 1_556
K29 Te54 3.631403 1_555
K29 Te30 3.634599 1_555
K29 Te4 3.669637 1_555
K29 Te33 3.719234 1_556
K30 Te59 3.474164 1_555
K30 Te52 3.631403 1_555
K30 Te28 3.634599 1_555
K30 Te5 3.669637 1_555
K30 Te32 3.719234 1_555
K31 Te57 3.474164 1_555
K31 Te55 3.631403 1_555
K31 Te31 3.634599 1_555
K31 Te7 3.669637 1_555
K31 Te34 3.719234 1_554
K32 Te58 3.474164 1_566
K32 Te45 3.631403 1_555
K32 Te21 3.634599 1_555
K32 Te5 3.669637 1_555
K32 Te39 3.719234 1_555
K33 Te57 3.474164 1_655
K33 Te46 3.631403 1_555
K33 Te22 3.634599 1_555
K33 Te6 3.669637 1_555
K33 Te37 3.719234 1_655
K34 Te59 3.474164 1_555
K34 Te44 3.631403 1_555
K34 Te20 3.634599 1_555
K34 Te4 3.669637 1_555
K34 Te36 3.719234 1_555
K35 Te56 3.474164 1_555
K35 Te47 3.631403 1_555
K35 Te23 3.634599 1_555
K35 Te7 3.669637 1_555
K35 Te38 3.719234 1_455
K36 Te55 3.500509 1_555
K36 Te32 3.507671 1_555
K36 Te37 3.546094 1_555
K36 Te22 3.686014 1_455
K36 Te12 3.780640 1_555
K36 Te29 3.840789 1_455
K36 Te0 3.949622 1_555
K37 Te53 3.500509 1_545
K37 Te33 3.507671 1_555
K37 Te38 3.546094 1_555
K37 Te23 3.686014 1_655
K37 Te15 3.780640 1_544
K37 Te31 3.840789 1_655
K37 Te1 3.949622 1_555
K38 Te52 3.500509 1_555
K38 Te34 3.507671 1_555
K38 Te36 3.546094 1_555
K38 Te20 3.686014 1_555
K38 Te13 3.780640 1_556
K38 Te30 3.840789 1_555
K38 Te2 3.949622 1_555
K39 Te54 3.500509 1_565
K39 Te35 3.507671 1_555
K39 Te39 3.546094 1_555
K39 Te21 3.686014 1_555
K39 Te14 3.780640 1_565
K39 Te28 3.840789 1_555
K39 Te3 3.949622 1_555
K40 Te47 3.500509 1_555
K40 Te36 3.507671 1_555
K40 Te41 3.546094 1_555
K40 Te26 3.686014 1_545
K40 Te16 3.780640 1_555
K40 Te21 3.840789 1_545
K40 Te2 3.949622 1_555
K41 Te45 3.500509 1_554
K41 Te37 3.507671 1_555
K41 Te42 3.546094 1_555
K41 Te27 3.686014 1_565
K41 Te19 3.780640 1_454
K41 Te23 3.840789 1_565
K41 Te0 3.949622 1_555
K42 Te44 3.500509 1_555
K42 Te38 3.507671 1_555
K42 Te40 3.546094 1_555
K42 Te24 3.686014 1_555
K42 Te17 3.780640 1_655
K42 Te22 3.840789 1_555
K42 Te1 3.949622 1_555
K43 Te46 3.500509 1_556
K43 Te39 3.507671 1_555
K43 Te43 3.546094 1_555
K43 Te25 3.686014 1_555
K43 Te18 3.780640 1_556
K43 Te20 3.840789 1_555
K43 Te3 3.949622 1_555
K44 Te51 3.500509 1_555
K44 Te40 3.507671 1_555
K44 Te33 3.546094 1_555
K44 Te30 3.686014 1_554
K44 Te8 3.780640 1_555
K44 Te25 3.840789 1_554
K44 Te1 3.949622 1_555
K45 Te49 3.500509 1_455
K45 Te41 3.507671 1_555
K45 Te34 3.546094 1_555
K45 Te31 3.686014 1_556
K45 Te11 3.780640 1_445
K45 Te27 3.840789 1_556
K45 Te2 3.949622 1_555
K46 Te48 3.500509 1_555
K46 Te42 3.507671 1_555
K46 Te32 3.546094 1_555
K46 Te28 3.686014 1_555
K46 Te9 3.780640 1_565
K46 Te26 3.840789 1_555
K46 Te0 3.949622 1_555
K47 Te50 3.500509 1_655
K47 Te43 3.507671 1_555
K47 Te35 3.546094 1_555
K47 Te29 3.686014 1_555
K47 Te10 3.780640 1_655
K47 Te24 3.840789 1_555
K47 Te3 3.949622 1_555
K48 Te43 3.500509 1_555
K48 Te44 3.507671 1_555
K48 Te49 3.546094 1_555
K48 Te10 3.686014 1_655
K48 Te24 3.780640 1_555
K48 Te17 3.840789 1_655
K48 Te4 3.949622 1_555
K49 Te41 3.500509 1_565
K49 Te45 3.507671 1_555
K49 Te50 3.546094 1_555
K49 Te11 3.686014 1_455
K49 Te27 3.780640 1_566
K49 Te19 3.840789 1_455
K49 Te5 3.949622 1_555
K50 Te40 3.500509 1_555
K50 Te46 3.507671 1_555
K50 Te48 3.546094 1_555
K50 Te8 3.686014 1_555
K50 Te25 3.780640 1_554
K50 Te18 3.840789 1_555
K50 Te6 3.949622 1_555
K51 Te42 3.500509 1_545
K51 Te47 3.507671 1_555
K51 Te51 3.546094 1_555
K51 Te9 3.686014 1_555
K51 Te26 3.780640 1_545
K51 Te16 3.840789 1_555
K51 Te7 3.949622 1_555
K52 Te35 3.500509 1_555
K52 Te48 3.507671 1_555
K52 Te53 3.546094 1_555
K52 Te14 3.686014 1_565
K52 Te28 3.780640 1_555
K52 Te9 3.840789 1_565
K52 Te6 3.949622 1_555
K53 Te33 3.500509 1_556
K53 Te49 3.507671 1_555
K53 Te54 3.546094 1_555
K53 Te15 3.686014 1_545
K53 Te31 3.780640 1_656
K53 Te11 3.840789 1_545
K53 Te4 3.949622 1_555
K54 Te32 3.500509 1_555
K54 Te50 3.507671 1_555
K54 Te52 3.546094 1_555
K54 Te12 3.686014 1_555
K54 Te29 3.780640 1_455
K54 Te10 3.840789 1_555
K54 Te5 3.949622 1_555
K55 Te34 3.500509 1_554
K55 Te51 3.507671 1_555
K55 Te55 3.546094 1_555
K55 Te13 3.686014 1_555
K55 Te30 3.780640 1_554
K55 Te8 3.840789 1_555
K55 Te7 3.949622 1_555
K56 Te39 3.500509 1_555
K56 Te52 3.507671 1_555
K56 Te45 3.546094 1_555
K56 Te18 3.686014 1_556
K56 Te20 3.780640 1_555
K56 Te13 3.840789 1_556
K56 Te5 3.949622 1_555
K57 Te37 3.500509 1_655
K57 Te53 3.507671 1_555
K57 Te46 3.546094 1_555
K57 Te19 3.686014 1_554
K57 Te23 3.780640 1_665
K57 Te15 3.840789 1_554
K57 Te6 3.949622 1_555
K58 Te36 3.500509 1_555
K58 Te54 3.507671 1_555
K58 Te44 3.546094 1_555
K58 Te16 3.686014 1_555
K58 Te21 3.780640 1_545
K58 Te14 3.840789 1_555
K58 Te4 3.949622 1_555
K59 Te38 3.500509 1_455
K59 Te55 3.507671 1_555
K59 Te47 3.546094 1_555
K59 Te17 3.686014 1_555
K59 Te22 3.780640 1_455
K59 Te12 3.840789 1_555
K59 Te7 3.949622 1_555
Fe0 Te55 2.598461 1_555
Fe0 Te8 2.615212 1_555
Fe0 Te0 2.622262 1_555
Fe0 Te13 2.633317 1_555
Fe0 K55 3.655637 1_555
Fe1 Te53 2.598461 1_545
Fe1 Te9 2.615212 1_555
Fe1 Te1 2.622262 1_555
Fe1 Te14 2.633317 1_555
Fe1 K52 3.655637 1_545
Fe2 Te52 2.598461 1_555
Fe2 Te10 2.615212 1_555
Fe2 Te2 2.622262 1_555
Fe2 Te12 2.633317 1_555
Fe2 K54 3.655637 1_555
Fe3 Te54 2.598461 1_565
Fe3 Te11 2.615212 1_555
Fe3 Te3 2.622262 1_555
Fe3 Te15 2.633317 1_555
Fe3 K53 3.655637 1_565
Fe4 Te47 2.598461 1_555
Fe4 Te12 2.615212 1_555
Fe4 Te2 2.622262 1_555
Fe4 Te17 2.633317 1_555
Fe4 K59 3.655637 1_555
Fe5 Te45 2.598461 1_554
Fe5 Te13 2.615212 1_555
Fe5 Te0 2.622262 1_555
Fe5 Te18 2.633317 1_555
Fe5 K56 3.655637 1_554
Fe6 Te44 2.598461 1_555
Fe6 Te14 2.615212 1_555
Fe6 Te1 2.622262 1_555
Fe6 Te16 2.633317 1_555
Fe6 K58 3.655637 1_555
Fe7 Te46 2.598461 1_556
Fe7 Te15 2.615212 1_555
Fe7 Te3 2.622262 1_555
Fe7 Te19 2.633317 1_555
Fe7 K57 3.655637 1_556
Fe8 Te51 2.598461 1_555
Fe8 Te16 2.615212 1_555
Fe8 Te1 2.622262 1_555
Fe8 Te9 2.633317 1_555
Fe8 K51 3.655637 1_555
Fe9 Te49 2.598461 1_455
Fe9 Te17 2.615212 1_555
Fe9 Te2 2.622262 1_555
Fe9 Te10 2.633317 1_555
Fe9 K48 3.655637 1_455
Fe10 Te48 2.598461 1_555
Fe10 Te18 2.615212 1_555
Fe10 Te0 2.622262 1_555
Fe10 Te8 2.633317 1_555
Fe10 K50 3.655637 1_555
Fe11 Te50 2.598461 1_655
Fe11 Te19 2.615212 1_555
Fe11 Te3 2.622262 1_555
Fe11 Te11 2.633317 1_555
Fe11 K49 3.655637 1_655
Fe12 Te43 2.598461 1_555
Fe12 Te20 2.615212 1_555
Fe12 Te4 2.622262 1_555
Fe12 Te25 2.633317 1_555
Fe12 K43 3.655637 1_555
Fe13 Te41 2.598461 1_565
Fe13 Te21 2.615212 1_555
Fe13 Te5 2.622262 1_555
Fe13 Te26 2.633317 1_555
Fe13 K40 3.655637 1_565
Fe14 Te40 2.598461 1_555
Fe14 Te22 2.615212 1_555
Fe14 Te6 2.622262 1_555
Fe14 Te24 2.633317 1_555
Fe14 K42 3.655637 1_555
Fe15 Te42 2.598461 1_545
Fe15 Te23 2.615212 1_555
Fe15 Te7 2.622262 1_555
Fe15 Te27 2.633317 1_555
Fe15 K41 3.655637 1_545
Fe16 Te35 2.598461 1_555
Fe16 Te24 2.615212 1_555
Fe16 Te6 2.622262 1_555
Fe16 Te29 2.633317 1_555
Fe16 K47 3.655637 1_555
Fe17 Te33 2.598461 1_556
Fe17 Te25 2.615212 1_555
Fe17 Te4 2.622262 1_555
Fe17 Te30 2.633317 1_555
Fe17 K44 3.655637 1_556
Fe18 Te32 2.598461 1_555
Fe18 Te26 2.615212 1_555
Fe18 Te5 2.622262 1_555
Fe18 Te28 2.633317 1_555
Fe18 K46 3.655637 1_555
Fe19 Te34 2.598461 1_554
Fe19 Te27 2.615212 1_555
Fe19 Te7 2.622262 1_555
Fe19 Te31 2.633317 1_555
Fe19 K45 3.655637 1_554
Fe20 Te39 2.598461 1_555
Fe20 Te28 2.615212 1_555
Fe20 Te5 2.622262 1_555
Fe20 Te21 2.633317 1_555
Fe20 K39 3.655637 1_555
Fe21 Te37 2.598461 1_655
Fe21 Te29 2.615212 1_555
Fe21 Te6 2.622262 1_555
Fe21 Te22 2.633317 1_555
Fe21 K36 3.655637 1_655
Fe22 Te36 2.598461 1_555
Fe22 Te30 2.615212 1_555
Fe22 Te4 2.622262 1_555
Fe22 Te20 2.633317 1_555
Fe22 K38 3.655637 1_555
Fe23 Te38 2.598461 1_455
Fe23 Te31 2.615212 1_555
Fe23 Te7 2.622262 1_555
Fe23 Te23 2.633317 1_555
Fe23 K37 3.655637 1_455
