# generated using pymatgen
data_Ba2Sr6Co5(CuO8)3
_symmetry_space_group_name_H-M   'P 1'
_cell_length_a   7.90000200
_cell_length_b   7.77022800
_cell_length_c   7.89094239
_cell_angle_alpha   89.93304672
_cell_angle_beta   90.00000000
_cell_angle_gamma   90.00000000
_symmetry_Int_Tables_number   1
_chemical_formula_structural   Ba2Sr6Co5(CuO8)3
_chemical_formula_sum   'Ba2 Sr6 Co5 Cu3 O24'
_cell_volume   484.38372166
_cell_formula_units_Z   1
loop_
 _symmetry_equiv_pos_site_id
 _symmetry_equiv_pos_as_xyz
  1  'x, y, z'
loop_
 _atom_site_type_symbol
 _atom_site_label
 _atom_site_symmetry_multiplicity
 _atom_site_fract_x
 _atom_site_fract_y
 _atom_site_fract_z
 _atom_site_occupancy
  Ba  Ba0  1  0.24804800  0.75163100  0.25016800  1
  Ba  Ba1  1  0.24804800  0.24836900  0.74983200  1
  Sr  Sr0  1  0.75395100  0.75201700  0.25009700  1
  Sr  Sr1  1  0.75342000  0.75090200  0.74984400  1
  Sr  Sr2  1  0.24550700  0.75069800  0.74979900  1
  Sr  Sr3  1  0.75342000  0.24909800  0.25015600  1
  Sr  Sr4  1  0.75395100  0.24798300  0.74990300  1
  Sr  Sr5  1  0.24550700  0.24930200  0.25020100  1
  Co  Co0  1  0.50676800  0.00000000  0.50000000  1
  Co  Co1  1  0.99716700  0.50000000  0.00000000  1
  Co  Co2  1  0.99784600  0.50000000  0.50000000  1
  Co  Co3  1  0.50206200  0.50000000  0.00000000  1
  Co  Co4  1  0.50278300  0.50000000  0.50000000  1
  Cu  Cu0  1  0.99902800  0.00000000  0.00000000  1
  Cu  Cu1  1  0.00064900  0.00000000  0.50000000  1
  Cu  Cu2  1  0.50147200  0.00000000  0.00000000  1
  O  O0  1  0.99459400  0.73903300  0.99693300  1
  O  O1  1  0.99532600  0.73979800  0.50296400  1
  O  O2  1  0.50582700  0.73423500  0.99676100  1
  O  O3  1  0.50555000  0.76705100  0.50019500  1
  O  O4  1  0.99459400  0.26096700  0.00306700  1
  O  O5  1  0.99532600  0.26020200  0.49703600  1
  O  O6  1  0.50582700  0.26576500  0.00323900  1
  O  O7  1  0.50555000  0.23294900  0.49980500  1
  O  O8  1  0.75024400  0.00000000  0.00000000  1
  O  O9  1  0.75438700  0.00000000  0.50000000  1
  O  O10  1  0.24997500  0.00000000  0.00000000  1
  O  O11  1  0.24718900  0.00000000  0.50000000  1
  O  O12  1  0.74824100  0.50000000  0.00000000  1
  O  O13  1  0.75001200  0.50000000  0.50000000  1
  O  O14  1  0.25132100  0.50000000  0.00000000  1
  O  O15  1  0.25058000  0.50000000  0.50000000  1
  O  O16  1  0.98867300  0.00617700  0.24946100  1
  O  O17  1  0.98867300  0.99382300  0.75053900  1
  O  O18  1  0.50761000  0.00470800  0.24813400  1
  O  O19  1  0.50761000  0.99529200  0.75186600  1
  O  O20  1  0.99147800  0.49899500  0.25064300  1
  O  O21  1  0.99147800  0.50100500  0.74935700  1
  O  O22  1  0.50515300  0.49765300  0.27118500  1
  O  O23  1  0.50515300  0.50234700  0.72881500  1
loop_
_geom_bond_atom_site_label_1
_geom_bond_atom_site_label_2
_geom_bond_distance
_geom_bond_site_symmetry_2
Ba0 O10 2.759112 1_565
Ba0 O11 2.760407 1_565
Ba0 O15 2.775027 1_555
Ba0 O14 2.780204 1_555
Ba0 O20 2.821676 1_455
Ba0 O1 2.823699 1_455
Ba0 O0 2.830591 1_454
Ba0 O3 2.836490 1_555
Ba0 O22 2.836688 1_555
Ba0 O18 2.841107 1_565
Ba0 O16 2.847925 1_465
Ba0 O2 2.857364 1_554
Ba1 O10 2.759112 1_556
Ba1 O11 2.760407 1_555
Ba1 O15 2.775027 1_555
Ba1 O14 2.780204 1_556
Ba1 O21 2.821676 1_455
Ba1 O5 2.823699 1_455
Ba1 O4 2.830591 1_456
Ba1 O7 2.836490 1_555
Ba1 O23 2.836688 1_555
Ba1 O19 2.841107 1_545
Ba1 O17 2.847925 1_445
Ba1 O6 2.857364 1_556
Co0 O3 1.810091 1_545
Co0 O7 1.810091 1_555
Co0 O9 1.956191 1_555
Co0 O18 1.987765 1_555
Co0 O19 1.987765 1_545
Co0 O11 2.050675 1_555
Co1 O4 1.857582 1_555
Co1 O0 1.857582 1_554
Co1 O12 1.966516 1_555
Co1 O21 1.978326 1_554
Co1 O20 1.978326 1_555
Co1 O14 2.007817 1_655
Co2 O1 1.863566 1_555
Co2 O5 1.863566 1_555
Co2 O13 1.957889 1_555
Co2 O20 1.968329 1_555
Co2 O21 1.968329 1_555
Co2 O15 1.996599 1_655
Co3 O2 1.820452 1_554
Co3 O6 1.820452 1_555
Co3 O12 1.944815 1_555
Co3 O14 1.980854 1_555
Co3 O22 2.140101 1_555
Co3 O23 2.140101 1_554
Co4 O23 1.805776 1_555
Co4 O22 1.805776 1_555
Co4 O13 1.953110 1_555
Co4 O15 1.992404 1_555
Co4 O7 2.075165 1_555
Co4 O3 2.075165 1_555
Cu0 O8 1.965394 1_555
Cu0 O16 1.970822 1_555
Cu0 O17 1.970822 1_544
Cu0 O10 1.982482 1_655
Cu0 O0 2.028248 1_544
Cu0 O4 2.028248 1_555
Cu1 O9 1.945470 1_455
Cu1 O11 1.947666 1_555
Cu1 O17 1.979777 1_445
Cu1 O16 1.979777 1_455
Cu1 O5 2.022374 1_455
Cu1 O1 2.022374 1_445
Cu2 O19 1.958996 1_544
Cu2 O18 1.958996 1_555
Cu2 O8 1.965299 1_555
Cu2 O10 1.986827 1_555
Cu2 O6 2.065529 1_555
Cu2 O2 2.065529 1_544
O0 Sr1 2.727589 1_555
O0 Sr0 2.759632 1_556
O0 Sr2 2.782075 1_655
O1 Sr1 2.730409 1_555
O1 Sr0 2.761549 1_555
O1 Sr2 2.776258 1_655
O2 Sr1 2.763757 1_555
O2 Sr0 2.803263 1_556
O2 Sr2 2.835977 1_555
O3 Sr1 2.780356 1_555
O3 Sr0 2.785644 1_555
O3 Sr2 2.848726 1_555
O4 Sr3 2.727589 1_555
O4 Sr4 2.759632 1_554
O4 Sr5 2.782075 1_655
O5 Sr3 2.730409 1_555
O5 Sr4 2.761549 1_555
O5 Sr5 2.776258 1_655
O6 Sr3 2.763757 1_555
O6 Sr4 2.803263 1_554
O6 Sr5 2.835977 1_555
O7 Sr3 2.780356 1_555
O7 Sr4 2.785644 1_555
O7 Sr5 2.848726 1_555
O8 Sr0 2.756730 1_545
O8 Sr4 2.756730 1_554
O8 Sr3 2.766306 1_555
O8 Sr1 2.766306 1_544
O9 Sr0 2.758703 1_545
O9 Sr4 2.758703 1_555
O9 Sr1 2.761217 1_545
O9 Sr3 2.761217 1_555
O10 Sr5 2.767782 1_555
O10 Sr2 2.767782 1_544
O11 Sr5 2.762095 1_555
O11 Sr2 2.762095 1_545
O12 Sr3 2.773090 1_555
O12 Sr1 2.773090 1_554
O12 Sr4 2.782164 1_554
O12 Sr0 2.782164 1_555
O13 Sr1 2.774409 1_555
O13 Sr3 2.774409 1_555
O13 Sr4 2.777638 1_555
O13 Sr0 2.777638 1_555
O14 Sr2 2.772309 1_554
O14 Sr5 2.772309 1_555
O15 Sr2 2.773200 1_555
O15 Sr5 2.773200 1_555
O16 Sr3 2.648948 1_555
O16 Sr0 2.708985 1_545
O16 Sr5 2.772308 1_655
O17 Sr1 2.648948 1_555
O17 Sr4 2.708985 1_565
O17 Sr2 2.772308 1_655
O18 Sr3 2.716132 1_555
O18 Sr0 2.764535 1_545
O18 Sr5 2.810672 1_555
O19 Sr1 2.716132 1_555
O19 Sr4 2.764535 1_565
O19 Sr2 2.810672 1_555
O20 Sr3 2.703207 1_555
O20 Sr0 2.717797 1_555
O20 Sr5 2.791354 1_655
O21 Sr1 2.703207 1_555
O21 Sr4 2.717797 1_555
O21 Sr2 2.791354 1_655
O22 Sr3 2.757726 1_555
O22 Sr0 2.792230 1_555
O22 Sr5 2.821261 1_555
O23 Sr1 2.757726 1_555
O23 Sr4 2.792230 1_555
O23 Sr2 2.821261 1_555
