# generated using pymatgen
data_Li4MnCo2O7
_symmetry_space_group_name_H-M   'P 1'
_cell_length_a   3.02188300
_cell_length_b   8.03861459
_cell_length_c   10.68303994
_cell_angle_alpha   78.47300436
_cell_angle_beta   86.66368249
_cell_angle_gamma   89.06183459
_symmetry_Int_Tables_number   1
_chemical_formula_structural   Li4MnCo2O7
_chemical_formula_sum   'Li8 Mn2 Co4 O14'
_cell_volume   253.84167498
_cell_formula_units_Z   2
loop_
 _symmetry_equiv_pos_site_id
 _symmetry_equiv_pos_as_xyz
  1  'x, y, z'
loop_
 _atom_site_type_symbol
 _atom_site_label
 _atom_site_symmetry_multiplicity
 _atom_site_fract_x
 _atom_site_fract_y
 _atom_site_fract_z
 _atom_site_occupancy
  Li  Li0  1  0.78739300  0.64502500  0.42875500  1
  Li  Li1  1  0.50000000  0.50000000  0.00000000  1
  Li  Li2  1  0.21260700  0.35497500  0.57124500  1
  Li  Li3  1  0.35883700  0.92736300  0.28483600  1
  Li  Li4  1  0.07100500  0.79036300  0.86098900  1
  Li  Li5  1  0.92899500  0.20963700  0.13901100  1
  Li  Li6  1  0.64116300  0.07263700  0.71516400  1
  Li  Li7  1  0.50000000  0.00000000  0.00000000  1
  Mn  Mn0  1  0.64128600  0.57013100  0.71468300  1
  Mn  Mn1  1  0.35871400  0.42986900  0.28531700  1
  Co  Co0  1  0.06395000  0.27300100  0.86447100  1
  Co  Co1  1  0.78290600  0.14137500  0.42944700  1
  Co  Co2  1  0.21709400  0.85862500  0.57055300  1
  Co  Co3  1  0.93605000  0.72699900  0.13552900  1
  O  O0  1  0.23391500  0.61802600  0.57441300  1
  O  O1  1  0.94606300  0.48250900  0.14773000  1
  O  O2  1  0.66298400  0.32680400  0.72234700  1
  O  O3  1  0.80431600  0.90251100  0.43750200  1
  O  O4  1  0.51450500  0.74741600  0.01006900  1
  O  O5  1  0.37835200  0.18377300  0.29182900  1
  O  O6  1  0.07862200  0.05932100  0.85438400  1
  O  O7  1  0.33701600  0.67319600  0.27765300  1
  O  O8  1  0.05393700  0.51749100  0.85227000  1
  O  O9  1  0.76608500  0.38197400  0.42558700  1
  O  O10  1  0.92137800  0.94067900  0.14561600  1
  O  O11  1  0.62164800  0.81622700  0.70817100  1
  O  O12  1  0.48549500  0.25258400  0.98993100  1
  O  O13  1  0.19568400  0.09748900  0.56249800  1
loop_
_geom_bond_atom_site_label_1
_geom_bond_atom_site_label_2
_geom_bond_distance
_geom_bond_site_symmetry_2
Li0 O3 2.092097 1_555
Li0 O0 2.094993 1_655
Li0 O9 2.123674 1_555
Li0 O7 2.146817 1_555
Li0 O0 2.199967 1_555
Li0 O7 2.229295 1_655
Li1 O4 2.014460 1_555
Li1 O12 2.014460 1_554
Li1 O1 2.116646 1_555
Li1 O8 2.116646 1_554
Li1 O8 2.219028 1_654
Li1 O1 2.219028 1_455
Li2 O13 2.092097 1_555
Li2 O9 2.094993 1_455
Li2 O0 2.123674 1_555
Li2 O2 2.146817 1_555
Li2 O9 2.199967 1_555
Li2 O2 2.229295 1_455
Li3 O10 2.032642 1_455
Li3 O7 2.062126 1_555
Li3 O5 2.079317 1_565
Li3 O3 2.151419 1_555
Li3 O10 2.182046 1_555
Li3 O3 2.251771 1_455
Li4 O4 2.113135 1_556
Li4 O6 2.149520 1_565
Li4 O11 2.159980 1_455
Li4 O8 2.215571 1_555
Li4 O4 2.229624 1_456
Li4 O11 2.244280 1_555
Li5 O12 2.113135 1_554
Li5 O10 2.149520 1_545
Li5 O5 2.159980 1_655
Li5 O1 2.215571 1_555
Li5 O12 2.229624 1_654
Li5 O5 2.244280 1_555
Li6 O6 2.032642 1_655
Li6 O2 2.062126 1_555
Li6 O11 2.079317 1_545
Li6 O13 2.151419 1_555
Li6 O6 2.182046 1_555
Li6 O13 2.251771 1_655
Li7 O12 2.011583 1_554
Li7 O4 2.011583 1_545
Li7 O10 2.045236 1_545
Li7 O6 2.045236 1_554
Li7 O6 2.262507 1_654
Li7 O10 2.262507 1_445
Mn0 O2 1.941496 1_555
Mn0 O8 1.960091 1_655
Mn0 O11 1.965592 1_555
Mn0 O0 1.969214 1_555
Mn0 O8 2.227588 1_555
Mn0 O0 2.254012 1_655
Mn1 O7 1.941496 1_555
Mn1 O1 1.960091 1_455
Mn1 O5 1.965592 1_555
Mn1 O9 1.969214 1_555
Mn1 O1 2.227588 1_555
Mn1 O9 2.254012 1_455
Co0 O6 1.742116 1_555
Co0 O12 1.884146 1_555
Co0 O8 1.943368 1_555
Co0 O2 1.973579 1_455
Co0 O12 2.127838 1_455
Co0 O2 2.283088 1_555
Co1 O3 1.905008 1_545
Co1 O13 1.921530 1_655
Co1 O9 1.926165 1_555
Co1 O5 1.940985 1_555
Co1 O13 2.195502 1_555
Co1 O5 2.242148 1_655
Co2 O13 1.905008 1_565
Co2 O3 1.921530 1_455
Co2 O0 1.926165 1_555
Co2 O11 1.940985 1_555
Co2 O3 2.195502 1_555
Co2 O11 2.242148 1_455
Co3 O10 1.742116 1_555
Co3 O4 1.884146 1_555
Co3 O1 1.943368 1_555
Co3 O7 1.973579 1_655
Co3 O4 2.127838 1_655
Co3 O7 2.283088 1_555
