# generated using pymatgen
data_AlGa(PO4)2
_symmetry_space_group_name_H-M   'P 1'
_cell_length_a   5.05061622
_cell_length_b   5.05061622
_cell_length_c   7.07566392
_cell_angle_alpha   89.79475888
_cell_angle_beta   89.79475888
_cell_angle_gamma   89.44438682
_symmetry_Int_Tables_number   1
_chemical_formula_structural   AlGa(PO4)2
_chemical_formula_sum   'Al1 Ga1 P2 O8'
_cell_volume   180.48037959
_cell_formula_units_Z   1
loop_
 _symmetry_equiv_pos_site_id
 _symmetry_equiv_pos_as_xyz
  1  'x, y, z'
loop_
 _atom_site_type_symbol
 _atom_site_label
 _atom_site_symmetry_multiplicity
 _atom_site_fract_x
 _atom_site_fract_y
 _atom_site_fract_z
 _atom_site_occupancy
  Al  Al0  1  0.80812000  0.19188000  0.50000000  1
  Ga  Ga0  1  0.19743300  0.80256700  0.00000000  1
  P  P0  1  0.69353800  0.69297500  0.25424600  1
  P  P1  1  0.30702500  0.30646200  0.74575400  1
  O  O0  1  0.84954100  0.76622700  0.07350400  1
  O  O1  1  0.77176200  0.86405900  0.42430300  1
  O  O2  1  0.13594100  0.22823800  0.57569700  1
  O  O3  1  0.23377300  0.15045900  0.92649600  1
  O  O4  1  0.74347200  0.40145100  0.30706300  1
  O  O5  1  0.39562000  0.73477500  0.21192100  1
  O  O6  1  0.26522500  0.60438000  0.78807900  1
  O  O7  1  0.59854900  0.25652800  0.69293700  1
loop_
_geom_bond_atom_site_label_1
_geom_bond_atom_site_label_2
_geom_bond_distance
_geom_bond_site_symmetry_2
Al0 O1 1.753535 1_545
Al0 O2 1.753535 1_655
Al0 O7 1.754066 1_555
Al0 O4 1.754066 1_555
Ga0 O5 1.835222 1_555
Ga0 O6 1.835222 1_554
Ga0 O0 1.841330 1_455
Ga0 O3 1.841330 1_564
O0 P0 1.545391 1_555
O1 P0 1.538846 1_555
O2 P1 1.538846 1_555
O3 P1 1.545391 1_555
O4 P0 1.536453 1_555
O5 P0 1.547547 1_555
O6 P1 1.547547 1_555
O7 P1 1.536453 1_555
