# generated using pymatgen
data_MnZnS2
_symmetry_space_group_name_H-M   'P 1'
_cell_length_a   3.88769064
_cell_length_b   3.88769283
_cell_length_c   6.38551273
_cell_angle_alpha   89.99992533
_cell_angle_beta   90.00012945
_cell_angle_gamma   119.99931292
_symmetry_Int_Tables_number   1
_chemical_formula_structural   MnZnS2
_chemical_formula_sum   'Mn1 Zn1 S2'
_cell_volume   83.58205721
_cell_formula_units_Z   1
loop_
 _symmetry_equiv_pos_site_id
 _symmetry_equiv_pos_as_xyz
  1  'x, y, z'
loop_
 _atom_site_type_symbol
 _atom_site_label
 _atom_site_symmetry_multiplicity
 _atom_site_fract_x
 _atom_site_fract_y
 _atom_site_fract_z
 _atom_site_occupancy
  Mn  Mn0  1  0.66666482  0.33333394  0.49668854  1
  Zn  Zn0  1  0.33333593  0.66666508  -0.00035135  1
  S  S0  1  0.66666584  0.33333487  0.11781088  1
  S  S1  1  0.33333341  0.66666611  0.63385193  1
loop_
_geom_bond_atom_site_label_1
_geom_bond_atom_site_label_2
_geom_bond_distance
_geom_bond_site_symmetry_2
Mn0 S1 2.409378 1_555
Mn0 S1 2.409412 1_655
Mn0 S1 2.409412 1_545
Mn0 S0 2.419328 1_555
S0 Zn0 2.367957 1_555
S0 Zn0 2.368012 1_545
S0 Zn0 2.368013 1_655
S1 Zn0 2.335800 1_556
