# generated using pymatgen
data_Mg6MnCo
_symmetry_space_group_name_H-M   'P 1'
_cell_length_a   4.76790300
_cell_length_b   6.02062000
_cell_length_c   10.58264200
_cell_angle_alpha   90.00000000
_cell_angle_beta   90.00000000
_cell_angle_gamma   90.00000000
_symmetry_Int_Tables_number   1
_chemical_formula_structural   Mg6MnCo
_chemical_formula_sum   'Mg12 Mn2 Co2'
_cell_volume   303.78248680
_cell_formula_units_Z   2
loop_
 _symmetry_equiv_pos_site_id
 _symmetry_equiv_pos_as_xyz
  1  'x, y, z'
loop_
 _atom_site_type_symbol
 _atom_site_label
 _atom_site_symmetry_multiplicity
 _atom_site_fract_x
 _atom_site_fract_y
 _atom_site_fract_z
 _atom_site_occupancy
  Mg  Mg0  1  0.00000000  0.26378500  0.08773700  1
  Mg  Mg1  1  0.00000000  0.73621500  0.08773700  1
  Mg  Mg2  1  0.00000000  0.00000000  0.33417400  1
  Mg  Mg3  1  0.50000000  0.73959500  0.41089400  1
  Mg  Mg4  1  0.50000000  0.26040500  0.41089400  1
  Mg  Mg5  1  0.50000000  0.00000000  0.16643000  1
  Mg  Mg6  1  0.00000000  0.76378500  0.58773700  1
  Mg  Mg7  1  0.00000000  0.23621500  0.58773700  1
  Mg  Mg8  1  0.00000000  0.50000000  0.83417400  1
  Mg  Mg9  1  0.50000000  0.23959500  0.91089400  1
  Mg  Mg10  1  0.50000000  0.76040500  0.91089400  1
  Mg  Mg11  1  0.50000000  0.50000000  0.66643000  1
  Mn  Mn0  1  0.00000000  0.50000000  0.31783500  1
  Mn  Mn1  1  0.00000000  0.00000000  0.81783500  1
  Co  Co0  1  0.50000000  0.50000000  0.18429900  1
  Co  Co1  1  0.50000000  0.00000000  0.68429900  1
loop_
_geom_bond_atom_site_label_1
_geom_bond_atom_site_label_2
_geom_bond_distance
_geom_bond_site_symmetry_2
Mg0 Mn0 2.819926 1_555
Mg0 Mg1 2.844322 1_555
Mg0 Mg5 2.983113 1_455
Mg0 Mg5 2.983113 1_555
Mg0 Mg9 3.034274 1_554
Mg0 Mg9 3.034274 1_454
Mg0 Mg8 3.036939 1_554
Mg0 Mg2 3.053464 1_555
Mg0 Mg1 3.176298 1_545
Mg0 Mn1 3.268108 1_554
Mg1 Mn0 2.819926 1_555
Mg1 Mg5 2.983113 1_565
Mg1 Mg5 2.983113 1_465
Mg1 Mg10 3.034274 1_454
Mg1 Mg10 3.034274 1_554
Mg1 Mg8 3.036939 1_554
Mg1 Mg2 3.053464 1_565
Mg1 Mn1 3.268108 1_564
Mg2 Mg3 2.966547 1_545
Mg2 Mg4 2.966547 1_455
Mg2 Mg3 2.966547 1_445
Mg2 Mg4 2.966547 1_555
Mg2 Mg5 2.972284 1_455
Mg2 Mg5 2.972284 1_555
Mg2 Mn0 3.015272 1_555
Mg2 Mn0 3.015272 1_545
Mg2 Mg7 3.036939 1_555
Mg2 Mg6 3.036939 1_545
Mg3 Mg4 2.885021 1_555
Mg3 Mn0 2.955319 1_555
Mg3 Mn0 2.955319 1_655
Mg3 Mg5 3.025054 1_565
Mg3 Mg6 3.034274 1_555
Mg3 Mg6 3.034274 1_655
Mg3 Mg4 3.135599 1_565
Mg4 Mn0 2.955319 1_555
Mg4 Mn0 2.955319 1_655
Mg4 Mg5 3.025054 1_555
Mg4 Mg7 3.034274 1_555
Mg4 Mg7 3.034274 1_655
Mg5 Mg9 3.064928 1_554
Mg6 Mn1 2.819926 1_565
Mg6 Mg7 2.844322 1_565
Mg6 Mg8 3.053464 1_555
Mg6 Mg7 3.176298 1_555
Mg6 Mn0 3.268108 1_555
Mg7 Mn1 2.819926 1_555
Mg7 Mg8 3.053464 1_555
Mg7 Mn0 3.268108 1_555
Mg8 Mg9 2.966547 1_455
Mg8 Mg9 2.966547 1_555
Mg8 Mn1 3.015272 1_555
Mg8 Mn1 3.015272 1_565
Mg9 Mn1 2.955319 1_655
Mg9 Mn1 2.955319 1_555
Mg10 Mg9 2.885021 1_565
Mg10 Mn1 2.955319 1_665
Mg10 Mn1 2.955319 1_565
Mg10 Mg8 2.966547 1_655
Mg10 Mg8 2.966547 1_555
Mg10 Mg11 3.025054 1_555
Mg10 Mg5 3.064928 1_566
Mg10 Mg9 3.135599 1_555
Mg11 Mg8 2.972284 1_655
Mg11 Mg8 2.972284 1_555
Mg11 Mg6 2.983113 1_555
Mg11 Mg6 2.983113 1_655
Mg11 Mg7 2.983113 1_555
Mg11 Mg7 2.983113 1_655
Mg11 Mg9 3.025054 1_555
Mg11 Mg3 3.064928 1_555
Mg11 Mg4 3.064928 1_555
Co0 Mn0 2.771328 1_655
Co0 Mn0 2.771328 1_555
Co0 Mg3 2.798413 1_555
Co0 Mg4 2.798413 1_555
Co0 Mg1 2.958041 1_555
Co0 Mg1 2.958041 1_655
Co0 Mg0 2.958041 1_655
Co0 Mg0 2.958041 1_555
Co0 Mg5 3.016244 1_555
Co0 Mg5 3.016244 1_565
Co0 Mg10 3.290814 1_554
Co0 Mg9 3.290814 1_554
Co1 Mn1 2.771328 1_555
Co1 Mn1 2.771328 1_655
Co1 Mg9 2.798413 1_555
Co1 Mg10 2.798413 1_545
Co1 Mg7 2.958041 1_555
Co1 Mg7 2.958041 1_655
Co1 Mg6 2.958041 1_645
Co1 Mg6 2.958041 1_545
Co1 Mg11 3.016244 1_545
Co1 Mg11 3.016244 1_555
Co1 Mg3 3.290814 1_545
Co1 Mg4 3.290814 1_555
