# generated using pymatgen
data_Na3TiO6
_symmetry_space_group_name_H-M   'P 1'
_cell_length_a   8.86037012
_cell_length_b   7.90475203
_cell_length_c   39.83682977
_cell_angle_alpha   90.00000000
_cell_angle_beta   90.00000000
_cell_angle_gamma   124.08663511
_symmetry_Int_Tables_number   1
_chemical_formula_structural   Na3TiO6
_chemical_formula_sum   'Na3 Ti1 O6'
_cell_volume   2310.76316933
_cell_formula_units_Z   1
loop_
 _symmetry_equiv_pos_site_id
 _symmetry_equiv_pos_as_xyz
  1  'x, y, z'
loop_
 _atom_site_type_symbol
 _atom_site_label
 _atom_site_symmetry_multiplicity
 _atom_site_fract_x
 _atom_site_fract_y
 _atom_site_fract_z
 _atom_site_occupancy
  Na  Na0  1  0.00000000  -0.00000000  0.50000000  1
  Na  Na1  1  0.50000000  0.50000000  0.00000000  1
  Na  Na2  1  0.00000000  0.50000000  0.00000000  1
  Ti  Ti0  1  0.00000000  -0.00000000  0.00000000  1
  O  O0  1  0.00000000  -0.00000000  0.76476637  1
  O  O1  1  0.00000000  -0.00000000  0.23523363  1
  O  O2  1  0.75578905  0.79542591  0.00000000  1
  O  O3  1  0.24421095  0.20457409  0.00000000  1
  O  O4  1  0.96036314  0.20457409  0.00000000  1
  O  O5  1  0.03963686  0.79542591  0.00000000  1
loop_
_geom_bond_atom_site_label_1
_geom_bond_atom_site_label_2
_geom_bond_distance
_geom_bond_site_symmetry_2
Na1 O2 2.158131 1_555
Na1 O3 2.158131 1_555
Na2 O5 2.158131 1_555
Na2 O4 2.158131 1_455
O2 Ti0 1.837106 1_665
O3 Ti0 1.837106 1_555
O4 Ti0 1.837106 1_655
O5 Ti0 1.837106 1_565
