# generated using pymatgen
data_PrMgCr4O12
_symmetry_space_group_name_H-M   'P 1'
_cell_length_a   5.18238559
_cell_length_b   5.18238559
_cell_length_c   7.65817144
_cell_angle_alpha   90.00000000
_cell_angle_beta   90.00000000
_cell_angle_gamma   89.64337529
_symmetry_Int_Tables_number   1
_chemical_formula_structural   PrMgCr4O12
_chemical_formula_sum   'Pr1 Mg1 Cr4 O12'
_cell_volume   205.67244863
_cell_formula_units_Z   1
loop_
 _symmetry_equiv_pos_site_id
 _symmetry_equiv_pos_as_xyz
  1  'x, y, z'
loop_
 _atom_site_type_symbol
 _atom_site_label
 _atom_site_symmetry_multiplicity
 _atom_site_fract_x
 _atom_site_fract_y
 _atom_site_fract_z
 _atom_site_occupancy
  Pr  Pr0  1  0.03046358  0.96953642  0.50000000  1
  Mg  Mg0  1  0.47809355  0.52190645  -0.00000000  1
  Cr  Cr0  1  0.50721116  0.00129445  0.23781567  1
  Cr  Cr1  1  0.50721116  0.00129445  0.76218433  1
  Cr  Cr2  1  0.99870555  0.49278884  0.76218433  1
  Cr  Cr3  1  0.99870555  0.49278884  0.23781567  1
  O  O0  1  0.19619407  0.19890693  0.24559897  1
  O  O1  1  0.80109307  0.80380593  0.24559897  1
  O  O2  1  0.80109307  0.80380593  0.75440103  1
  O  O3  1  0.19619407  0.19890693  0.75440103  1
  O  O4  1  0.29297246  0.70702754  0.29587330  1
  O  O5  1  0.68192638  0.31807362  0.18205349  1
  O  O6  1  0.68192638  0.31807362  0.81794651  1
  O  O7  1  0.29297246  0.70702754  0.70412670  1
  O  O8  1  0.47135661  0.91232257  -0.00000000  1
  O  O9  1  0.54545944  0.05375599  0.50000000  1
  O  O10  1  0.08767743  0.52864339  -0.00000000  1
  O  O11  1  0.94624401  0.45454056  0.50000000  1
loop_
_geom_bond_atom_site_label_1
_geom_bond_atom_site_label_2
_geom_bond_distance
_geom_bond_site_symmetry_2
Mg0 O10 2.023371 1_555
Mg0 O8 2.023371 1_555
Mg0 O6 2.040001 1_554
Mg0 O5 2.040001 1_555
Mg0 O7 2.638823 1_554
Mg0 O4 2.638823 1_555
Cr0 O1 1.830623 1_545
Cr0 O8 1.888143 1_545
Cr0 O0 1.905184 1_555
Cr0 O5 1.927635 1_555
Cr0 O4 1.943474 1_545
Cr0 O9 2.036013 1_555
Cr1 O2 1.830623 1_545
Cr1 O8 1.888143 1_546
Cr1 O3 1.905184 1_555
Cr1 O6 1.927635 1_555
Cr1 O7 1.943474 1_545
Cr1 O9 2.036013 1_555
Cr2 O3 1.830623 1_655
Cr2 O10 1.888143 1_656
Cr2 O2 1.905184 1_555
Cr2 O6 1.927635 1_555
Cr2 O7 1.943474 1_655
Cr2 O11 2.036013 1_555
Cr3 O0 1.830623 1_655
Cr3 O10 1.888143 1_655
Cr3 O1 1.905184 1_555
Cr3 O5 1.927635 1_555
Cr3 O4 1.943474 1_655
Cr3 O11 2.036013 1_555
O0 Pr0 2.441111 1_545
O1 Pr0 2.441111 1_655
O2 Pr0 2.441111 1_655
O3 Pr0 2.441111 1_545
O4 Pr0 2.474302 1_555
O7 Pr0 2.474302 1_555
O9 Pr0 2.548414 1_645
O9 Pr0 2.707039 1_545
O11 Pr0 2.548414 1_645
O11 Pr0 2.707039 1_655
