# generated using pymatgen
data_LaGePt
_symmetry_space_group_name_H-M   'P 1'
_cell_length_a   8.12578922
_cell_length_b   8.12578922
_cell_length_c   8.12578922
_cell_angle_alpha   149.46514948
_cell_angle_beta   149.46514948
_cell_angle_gamma   43.72707623
_symmetry_Int_Tables_number   1
_chemical_formula_structural   LaGePt
_chemical_formula_sum   'La2 Ge2 Pt2'
_cell_volume   138.10898227
_cell_formula_units_Z   2
loop_
 _symmetry_equiv_pos_site_id
 _symmetry_equiv_pos_as_xyz
  1  'x, y, z'
loop_
 _atom_site_type_symbol
 _atom_site_label
 _atom_site_symmetry_multiplicity
 _atom_site_fract_x
 _atom_site_fract_y
 _atom_site_fract_z
 _atom_site_occupancy
  La  La0  1  0.74988497  0.24988497  0.50000000  1
  La  La1  1  0.99988497  0.99988497  0.00000000  1
  Ge  Ge0  1  0.16914145  0.66914145  0.50000000  1
  Ge  Ge1  1  0.41914145  0.41914145  0.00000000  1
  Pt  Pt0  1  0.33497258  0.83497258  0.50000000  1
  Pt  Pt1  1  0.58497258  0.58497258  -0.00000000  1
loop_
_geom_bond_atom_site_label_1
_geom_bond_atom_site_label_2
_geom_bond_distance
_geom_bond_site_symmetry_2
La0 Pt1 3.281029 1_545
La0 Pt1 3.281029 1_556
La0 Pt0 3.286911 1_555
La0 Pt0 3.286911 1_544
La0 Pt0 3.286911 1_656
La0 Pt0 3.286911 1_645
La1 Pt0 3.281029 1_655
La1 Pt0 3.281029 1_554
La1 Pt1 3.286911 1_565
La1 Pt1 3.286911 1_554
La1 Pt1 3.286911 1_666
La1 Pt1 3.286911 1_655
Ge0 Pt1 2.487973 1_455
Ge0 Pt1 2.487973 1_556
Ge0 Pt0 2.501174 1_555
Ge0 La0 3.261887 1_454
Ge0 La0 3.261887 1_465
Ge0 La0 3.261887 1_566
Ge0 La0 3.261887 1_555
Ge0 La1 3.330973 1_445
Ge0 La1 3.330973 1_456
Ge1 Pt0 2.487973 1_555
Ge1 Pt0 2.487973 1_544
Ge1 Pt1 2.501174 1_555
Ge1 La1 3.261887 1_455
Ge1 La1 3.261887 1_444
Ge1 La1 3.261887 1_545
Ge1 La1 3.261887 1_556
Ge1 La0 3.330973 1_454
Ge1 La0 3.330973 1_555
