# generated using pymatgen
data_CdC4S4(N5O3)2
_symmetry_space_group_name_H-M   'P 1'
_cell_length_a   9.22611100
_cell_length_b   13.03574200
_cell_length_c   15.76859944
_cell_angle_alpha   89.10531068
_cell_angle_beta   90.00000000
_cell_angle_gamma   90.00000000
_symmetry_Int_Tables_number   1
_chemical_formula_structural   CdC4S4(N5O3)2
_chemical_formula_sum   'Cd4 C16 S16 N40 O24'
_cell_volume   1896.24567138
_cell_formula_units_Z   4
loop_
 _symmetry_equiv_pos_site_id
 _symmetry_equiv_pos_as_xyz
  1  'x, y, z'
loop_
 _atom_site_type_symbol
 _atom_site_label
 _atom_site_symmetry_multiplicity
 _atom_site_fract_x
 _atom_site_fract_y
 _atom_site_fract_z
 _atom_site_occupancy
  Cd  Cd0  1  0.03967600  0.74534800  0.54833600  1
  Cd  Cd1  1  0.96032400  0.25465200  0.45166400  1
  Cd  Cd2  1  0.53967600  0.25465200  0.95166400  1
  Cd  Cd3  1  0.46032400  0.74534800  0.04833600  1
  C  C0  1  0.27709300  0.35560400  0.54885200  1
  C  C1  1  0.72290700  0.64439600  0.45114800  1
  C  C2  1  0.77709300  0.64439600  0.95114800  1
  C  C3  1  0.22290700  0.35560400  0.04885200  1
  C  C4  1  0.37833300  0.78425900  0.83364600  1
  C  C5  1  0.62166700  0.21574100  0.16635400  1
  C  C6  1  0.87833300  0.21574100  0.66635400  1
  C  C7  1  0.12166700  0.78425900  0.33364600  1
  C  C8  1  0.32768100  0.36818000  0.80209700  1
  C  C9  1  0.67231900  0.63182000  0.19790300  1
  C  C10  1  0.82768100  0.63182000  0.69790300  1
  C  C11  1  0.17231900  0.36818000  0.30209700  1
  C  C12  1  0.27786200  0.93362300  0.49955400  1
  C  C13  1  0.72213800  0.06637700  0.50044600  1
  C  C14  1  0.77786200  0.06637700  0.00044600  1
  C  C15  1  0.22213800  0.93362300  0.99955400  1
  S  S0  1  0.02134400  0.63107100  0.68238900  1
  S  S1  1  0.97865600  0.36892900  0.31761100  1
  S  S2  1  0.52134400  0.36892900  0.81761100  1
  S  S3  1  0.47865600  0.63107100  0.18238900  1
  S  S4  1  0.22951600  0.23332400  0.50467700  1
  S  S5  1  0.77048400  0.76667600  0.49532300  1
  S  S6  1  0.72951600  0.76667600  0.99532300  1
  S  S7  1  0.27048400  0.23332400  0.00467700  1
  S  S8  1  0.14573000  0.92153200  0.58471800  1
  S  S9  1  0.85427000  0.07846800  0.41528200  1
  S  S10  1  0.64573000  0.07846800  0.91528200  1
  S  S11  1  0.35427000  0.92153200  0.08471800  1
  S  S12  1  0.32622000  0.68980900  0.91344700  1
  S  S13  1  0.67378000  0.31019100  0.08655300  1
  S  S14  1  0.82622000  0.31019100  0.58655300  1
  S  S15  1  0.17378000  0.68980900  0.41344700  1
  N  N0  1  0.27921400  0.98843500  0.93904900  1
  N  N1  1  0.72078600  0.01156500  0.06095100  1
  N  N2  1  0.77921400  0.01156500  0.56095100  1
  N  N3  1  0.22078600  0.98843500  0.43904900  1
  N  N4  1  0.00787400  0.17516600  0.66066200  1
  N  N5  1  0.99212600  0.82483400  0.33933800  1
  N  N6  1  0.50787400  0.82483400  0.83933800  1
  N  N7  1  0.49212600  0.17516600  0.16066200  1
  N  N8  1  0.27893200  0.28079400  0.77507800  1
  N  N9  1  0.72106800  0.71920600  0.22492200  1
  N  N10  1  0.77893200  0.71920600  0.72492200  1
  N  N11  1  0.22106800  0.28079400  0.27507800  1
  N  N12  1  0.40108500  0.88887600  0.51508100  1
  N  N13  1  0.59891500  0.11112400  0.48491900  1
  N  N14  1  0.90108500  0.11112400  0.98491900  1
  N  N15  1  0.09891500  0.88887600  0.01508100  1
  N  N16  1  0.41642700  0.64007800  0.63256700  1
  N  N17  1  0.58357300  0.35992200  0.36743300  1
  N  N18  1  0.91642700  0.35992200  0.86743300  1
  N  N19  1  0.08357300  0.64007800  0.13256700  1
  N  N20  1  0.27383500  0.79866300  0.77778400  1
  N  N21  1  0.72616500  0.20133700  0.22221600  1
  N  N22  1  0.77383500  0.20133700  0.72221600  1
  N  N23  1  0.22616500  0.79866300  0.27778400  1
  N  N24  1  0.41850800  0.36738200  0.55229800  1
  N  N25  1  0.58149200  0.63261800  0.44770200  1
  N  N26  1  0.91850800  0.63261800  0.94770200  1
  N  N27  1  0.08149200  0.36738200  0.05229800  1
  N  N28  1  0.27393100  0.45644000  0.82123700  1
  N  N29  1  0.72606900  0.54356000  0.17876300  1
  N  N30  1  0.77393100  0.54356000  0.67876300  1
  N  N31  1  0.22606900  0.45644000  0.32123700  1
  N  N32  1  0.17062100  0.41488100  0.57064000  1
  N  N33  1  0.82937900  0.58511900  0.42936000  1
  N  N34  1  0.67062100  0.58511900  0.92936000  1
  N  N35  1  0.32937900  0.41488100  0.07064000  1
  N  N36  1  0.95732000  0.94165600  0.79381500  1
  N  N37  1  0.04268000  0.05834400  0.20618500  1
  N  N38  1  0.45732000  0.05834400  0.70618500  1
  N  N39  1  0.54268000  0.94165600  0.29381500  1
  O  O0  1  0.45326700  0.56007300  0.67188500  1
  O  O1  1  0.54673300  0.43992700  0.32811500  1
  O  O2  1  0.95326700  0.43992700  0.82811500  1
  O  O3  1  0.04673300  0.56007300  0.17188500  1
  O  O4  1  0.31080500  0.63498300  0.58062700  1
  O  O5  1  0.68919500  0.36501700  0.41937300  1
  O  O6  1  0.81080500  0.36501700  0.91937300  1
  O  O7  1  0.18919500  0.63498300  0.08062700  1
  O  O8  1  0.48060200  0.72331500  0.64343600  1
  O  O9  1  0.51939800  0.27668500  0.35656400  1
  O  O10  1  0.98060200  0.27668500  0.85656400  1
  O  O11  1  0.01939800  0.72331500  0.14343600  1
  O  O12  1  0.97780700  0.97654600  0.18946100  1
  O  O13  1  0.02219300  0.02345400  0.81053900  1
  O  O14  1  0.47780700  0.02345400  0.31053900  1
  O  O15  1  0.52219300  0.97654600  0.68946100  1
  O  O16  1  0.88495600  0.93576400  0.72696100  1
  O  O17  1  0.11504400  0.06423600  0.27303900  1
  O  O18  1  0.38495600  0.06423600  0.77303900  1
  O  O19  1  0.61504400  0.93576400  0.22696100  1
  O  O20  1  0.96546500  0.86620500  0.84419700  1
  O  O21  1  0.03453500  0.13379500  0.15580300  1
  O  O22  1  0.46546500  0.13379500  0.65580300  1
  O  O23  1  0.53453500  0.86620500  0.34419700  1
loop_
_geom_bond_atom_site_label_1
_geom_bond_atom_site_label_2
_geom_bond_distance
_geom_bond_site_symmetry_2
Cd0 S8 2.569523 1_555
Cd0 S0 2.572489 1_555
Cd0 S15 2.574342 1_555
Cd0 S5 2.633834 1_455
Cd1 S9 2.569523 1_555
Cd1 S1 2.572489 1_555
Cd1 S14 2.574342 1_555
Cd1 S4 2.633834 1_655
Cd2 S10 2.569523 1_555
Cd2 S2 2.572489 1_555
Cd2 S13 2.574342 1_556
Cd2 S7 2.633834 1_556
Cd3 S11 2.569523 1_555
Cd3 S3 2.572489 1_555
Cd3 S12 2.574342 1_554
Cd3 S6 2.633834 1_554
C0 N32 1.299377 1_555
C0 N24 1.314936 1_555
C0 S4 1.803730 1_555
C1 N33 1.299377 1_555
C1 N25 1.314936 1_555
C1 S5 1.803730 1_555
C2 N34 1.299377 1_555
C2 N26 1.314936 1_555
C2 S6 1.803730 1_555
C3 N35 1.299377 1_555
C3 N27 1.314936 1_555
C3 S7 1.803730 1_555
C4 N6 1.310613 1_555
C4 N20 1.317393 1_555
C4 S12 1.811670 1_555
C5 N7 1.310613 1_555
C5 N21 1.317393 1_555
C5 S13 1.811670 1_555
C6 N4 1.310613 1_655
C6 N22 1.317393 1_555
C6 S14 1.811670 1_555
C7 N5 1.310613 1_455
C7 N23 1.317393 1_555
C7 S15 1.811670 1_555
C8 N28 1.292898 1_555
C8 N8 1.302539 1_555
C8 S2 1.803473 1_555
C9 N29 1.292898 1_555
C9 N9 1.302539 1_555
C9 S3 1.803473 1_555
C10 N30 1.292898 1_555
C10 N10 1.302539 1_555
C10 S0 1.803473 1_655
C11 N31 1.292898 1_555
C11 N11 1.302539 1_555
C11 S1 1.803473 1_455
C12 N3 1.294916 1_555
C12 N12 1.299311 1_555
C12 S8 1.818729 1_555
C13 N2 1.294916 1_555
C13 N13 1.299311 1_555
C13 S9 1.818729 1_555
C14 N1 1.294916 1_555
C14 N14 1.299311 1_554
C14 S10 1.818729 1_554
C15 N0 1.294916 1_555
C15 N15 1.299311 1_556
C15 S11 1.818729 1_556
N16 O8 1.250238 1_555
N16 O0 1.251963 1_555
N16 O4 1.275350 1_555
N17 O9 1.250238 1_555
N17 O1 1.251963 1_555
N17 O5 1.275350 1_555
N18 O10 1.250238 1_555
N18 O2 1.251963 1_555
N18 O6 1.275350 1_555
N19 O11 1.250238 1_555
N19 O3 1.251963 1_555
N19 O7 1.275350 1_555
N36 O16 1.251197 1_555
N36 O13 1.254412 1_665
N36 O20 1.256897 1_555
N37 O17 1.251197 1_555
N37 O12 1.254412 1_445
N37 O21 1.256897 1_555
N38 O18 1.251197 1_555
N38 O15 1.254412 1_545
N38 O22 1.256897 1_555
N39 O19 1.251197 1_555
N39 O14 1.254412 1_565
N39 O23 1.256897 1_555
