# generated using pymatgen
data_Li3CoPCO7
_symmetry_space_group_name_H-M   'P 1'
_cell_length_a   4.90990239
_cell_length_b   12.75828442
_cell_length_c   8.60821852
_cell_angle_alpha   90.05705957
_cell_angle_beta   84.84199029
_cell_angle_gamma   89.83294499
_symmetry_Int_Tables_number   1
_chemical_formula_structural   Li3CoPCO7
_chemical_formula_sum   'Li12 Co4 P4 C4 O28'
_cell_volume   537.04911506
_cell_formula_units_Z   4
loop_
 _symmetry_equiv_pos_site_id
 _symmetry_equiv_pos_as_xyz
  1  'x, y, z'
loop_
 _atom_site_type_symbol
 _atom_site_label
 _atom_site_symmetry_multiplicity
 _atom_site_fract_x
 _atom_site_fract_y
 _atom_site_fract_z
 _atom_site_occupancy
  Li  Li0  1  0.77904300  0.13157200  0.10953100  1
  Li  Li1  1  0.77921300  0.63263700  0.10882300  1
  Li  Li2  1  0.22076600  0.38368600  0.88964500  1
  Li  Li3  1  0.22235500  0.88454000  0.89084900  1
  Li  Li4  1  0.24417700  0.23859900  0.28340600  1
  Li  Li5  1  0.24329600  0.73888500  0.28325000  1
  Li  Li6  1  0.75185200  0.49507500  0.71607400  1
  Li  Li7  1  0.75196600  0.99488800  0.71637700  1
  Li  Li8  1  0.78153300  0.37042800  0.35945900  1
  Li  Li9  1  0.78180100  0.87077200  0.35902000  1
  Li  Li10  1  0.22013500  0.12100700  0.64284600  1
  Li  Li11  1  0.21991500  0.62076100  0.64233600  1
  Co  Co0  1  0.25640300  0.49747700  0.26770900  1
  Co  Co1  1  0.74364200  0.74884300  0.73578100  1
  Co  Co2  1  0.25803100  0.99732300  0.26931500  1
  Co  Co3  1  0.73999600  0.25105400  0.74057100  1
  P  P0  1  0.72561900  0.12479500  0.40857300  1
  P  P1  1  0.72393500  0.62455600  0.40816800  1
  P  P2  1  0.27402300  0.37247600  0.59102200  1
  P  P3  1  0.27454300  0.87300800  0.59143600  1
  C  C0  1  0.70397800  0.38159100  0.04181400  1
  C  C1  1  0.70352200  0.88173600  0.04081300  1
  C  C2  1  0.29821200  0.12984100  0.95766200  1
  C  C3  1  0.29869900  0.62980300  0.95830800  1
  O  O0  1  0.95673600  0.38226200  0.06375800  1
  O  O1  1  0.95591700  0.88060500  0.06448600  1
  O  O2  1  0.04464300  0.13176700  0.93528100  1
  O  O3  1  0.04568800  0.63073100  0.93536000  1
  O  O4  1  0.37636400  0.12220400  0.10024200  1
  O  O5  1  0.37625800  0.62163800  0.10104500  1
  O  O6  1  0.62476100  0.37031700  0.89901400  1
  O  O7  1  0.62586000  0.87140800  0.89817800  1
  O  O8  1  0.51533900  0.38995500  0.15691900  1
  O  O9  1  0.51415300  0.89079900  0.15599700  1
  O  O10  1  0.48618600  0.13328100  0.84032500  1
  O  O11  1  0.48750700  0.63466300  0.84172900  1
  O  O12  1  0.85205400  0.02783000  0.31730400  1
  O  O13  1  0.85133100  0.52752000  0.31803600  1
  O  O14  1  0.15167400  0.27679100  0.68544100  1
  O  O15  1  0.15123100  0.77686500  0.68489600  1
  O  O16  1  0.82468000  0.22025000  0.30903700  1
  O  O17  1  0.82357800  0.72003900  0.30923400  1
  O  O18  1  0.17105800  0.46935600  0.68710100  1
  O  O19  1  0.17093400  0.96963900  0.68722900  1
  O  O20  1  0.19154200  0.37246600  0.42124300  1
  O  O21  1  0.19162800  0.87209700  0.42167300  1
  O  O22  1  0.80875500  0.12704100  0.57763100  1
  O  O23  1  0.80686300  0.62626600  0.57756900  1
  O  O24  1  0.40628100  0.11513000  0.41410300  1
  O  O25  1  0.40482800  0.61491800  0.41464800  1
  O  O26  1  0.59359000  0.36420700  0.58465900  1
  O  O27  1  0.59390700  0.86459700  0.58507600  1
loop_
_geom_bond_atom_site_label_1
_geom_bond_atom_site_label_2
_geom_bond_distance
_geom_bond_site_symmetry_2
Li0 O2 1.897067 1_654
Li0 O4 1.989836 1_555
Li0 O16 2.084817 1_555
Li0 O12 2.279584 1_555
Li1 O3 1.894873 1_654
Li1 O5 1.990964 1_555
Li1 O17 2.081418 1_555
Li1 O13 2.298716 1_555
Li2 O0 1.891593 1_456
Li2 O6 1.999247 1_555
Li2 O18 2.091152 1_555
Li2 O14 2.273795 1_555
Li3 O1 1.896566 1_456
Li3 O7 1.994404 1_555
Li3 O19 2.096810 1_555
Li3 O15 2.293803 1_555
Li4 O16 2.065674 1_455
Li4 O20 2.080833 1_555
Li4 O24 2.130236 1_555
Li4 O4 2.217704 1_555
Li4 O8 2.538812 1_555
Li5 O17 2.067547 1_455
Li5 O21 2.076488 1_555
Li5 O25 2.137157 1_555
Li5 O5 2.220227 1_555
Li5 O9 2.546041 1_555
Li6 O23 2.060269 1_555
Li6 O18 2.076031 1_655
Li6 O26 2.198437 1_555
Li6 O6 2.288435 1_555
Li6 O11 2.399258 1_555
Li7 O22 2.072162 1_565
Li7 O19 2.074011 1_655
Li7 O27 2.191910 1_555
Li7 O7 2.269531 1_555
Li7 O10 2.385653 1_565
Li8 O16 1.970742 1_555
Li8 O13 2.060331 1_555
Li8 O26 2.072430 1_555
Li8 O20 2.128126 1_655
Li8 O8 2.284469 1_555
Li9 O17 1.975928 1_555
Li9 O12 2.060656 1_565
Li9 O27 2.078920 1_555
Li9 O21 2.129664 1_655
Li9 O9 2.293127 1_555
Li10 O19 1.980262 1_545
Li10 O14 2.042113 1_555
Li10 O24 2.096163 1_555
Li10 O22 2.145665 1_455
Li10 O10 2.240680 1_555
Li11 O18 1.981146 1_555
Li11 O15 2.046194 1_555
Li11 O25 2.085846 1_555
Li11 O23 2.152043 1_455
Li11 O11 2.260529 1_555
Co0 O13 2.032358 1_455
Co0 O8 2.043752 1_555
Co0 O20 2.079292 1_555
Co0 O25 2.131756 1_555
Co0 O5 2.184510 1_555
Co1 O15 2.042411 1_655
Co1 O23 2.076969 1_555
Co1 O11 2.083875 1_555
Co1 O27 2.138567 1_555
Co1 O7 2.139841 1_555
Co2 O12 2.035317 1_465
Co2 O9 2.036371 1_555
Co2 O21 2.075881 1_555
Co2 O24 2.123225 1_565
Co2 O4 2.202789 1_565
Co3 O14 2.061647 1_655
Co3 O6 2.085116 1_555
Co3 O10 2.090257 1_555
Co3 O22 2.119430 1_555
Co3 O26 2.138550 1_555
C0 O0 1.272041 1_555
C0 O8 1.298158 1_555
C0 O6 1.330028 1_554
C1 O1 1.273871 1_555
C1 O9 1.301683 1_555
C1 O7 1.324572 1_554
C2 O2 1.276990 1_555
C2 O10 1.306394 1_555
C2 O4 1.322062 1_556
C3 O3 1.275309 1_555
C3 O11 1.305182 1_555
C3 O5 1.322782 1_556
O12 P0 1.561718 1_555
O13 P1 1.559558 1_555
O14 P2 1.558921 1_555
O15 P3 1.561133 1_555
O16 P0 1.544169 1_555
O17 P1 1.542494 1_555
O18 P2 1.544834 1_555
O19 P3 1.541935 1_555
O20 P2 1.551255 1_555
O21 P3 1.551901 1_555
O22 P0 1.546641 1_555
O23 P1 1.549024 1_555
O24 P0 1.569573 1_555
O25 P1 1.567950 1_555
O26 P2 1.568310 1_555
O27 P3 1.567435 1_555
