# generated using pymatgen
data_EuRhO3
_symmetry_space_group_name_H-M   'P 1'
_cell_length_a   5.36522390
_cell_length_b   5.75539092
_cell_length_c   7.72552875
_cell_angle_alpha   90.00000000
_cell_angle_beta   90.00000000
_cell_angle_gamma   90.00000000
_symmetry_Int_Tables_number   1
_chemical_formula_structural   EuRhO3
_chemical_formula_sum   'Eu4 Rh4 O12'
_cell_volume   238.55630034
_cell_formula_units_Z   4
loop_
 _symmetry_equiv_pos_site_id
 _symmetry_equiv_pos_as_xyz
  1  'x, y, z'
loop_
 _atom_site_type_symbol
 _atom_site_label
 _atom_site_symmetry_multiplicity
 _atom_site_fract_x
 _atom_site_fract_y
 _atom_site_fract_z
 _atom_site_occupancy
  Eu  Eu0  1  0.02267922  0.07306558  0.75000000  1
  Eu  Eu1  1  0.97732078  0.92693442  0.25000000  1
  Eu  Eu2  1  0.52267922  0.42693442  0.25000000  1
  Eu  Eu3  1  0.47732078  0.57306558  0.75000000  1
  Rh  Rh0  1  0.50000000  0.00000000  0.50000000  1
  Rh  Rh1  1  0.00000000  0.50000000  -0.00000000  1
  Rh  Rh2  1  0.00000000  0.50000000  0.50000000  1
  Rh  Rh3  1  0.50000000  0.00000000  -0.00000000  1
  O  O0  1  0.18798378  0.80327514  0.55170095  1
  O  O1  1  0.89390015  0.46544179  0.75000000  1
  O  O2  1  0.39390015  0.03455821  0.25000000  1
  O  O3  1  0.68798378  0.69672486  0.44829905  1
  O  O4  1  0.81201622  0.19672486  0.05170095  1
  O  O5  1  0.31201622  0.30327514  0.94829905  1
  O  O6  1  0.60609985  0.96544179  0.75000000  1
  O  O7  1  0.31201622  0.30327514  0.55170095  1
  O  O8  1  0.10609985  0.53455821  0.25000000  1
  O  O9  1  0.81201622  0.19672486  0.44829905  1
  O  O10  1  0.18798378  0.80327514  0.94829905  1
  O  O11  1  0.68798378  0.69672486  0.05170095  1
loop_
_geom_bond_atom_site_label_1
_geom_bond_atom_site_label_2
_geom_bond_distance
_geom_bond_site_symmetry_2
Eu0 O6 2.319286 1_445
Eu0 O0 2.354683 1_545
Eu0 O10 2.354683 1_545
Eu0 O1 2.361610 1_455
Eu0 O5 2.551904 1_555
Eu0 O7 2.551904 1_555
Eu0 O9 2.686378 1_455
Eu0 O4 2.686378 1_456
Eu1 O2 2.319286 1_665
Eu1 O9 2.354683 1_565
Eu1 O4 2.354683 1_565
Eu1 O8 2.361610 1_655
Eu1 O3 2.551904 1_555
Eu1 O11 2.551904 1_555
Eu1 O10 2.686378 1_654
Eu1 O0 2.686378 1_655
Eu2 O8 2.319286 1_555
Eu2 O11 2.354683 1_555
Eu2 O3 2.354683 1_555
Eu2 O2 2.361610 1_555
Eu2 O4 2.551904 1_555
Eu2 O9 2.551904 1_555
Eu2 O5 2.686378 1_554
Eu2 O7 2.686378 1_555
Eu3 O1 2.319286 1_555
Eu3 O5 2.354683 1_555
Eu3 O7 2.354683 1_555
Eu3 O6 2.361610 1_555
Eu3 O10 2.551904 1_555
Eu3 O0 2.551904 1_555
Eu3 O3 2.686378 1_555
Eu3 O11 2.686378 1_556
O0 Rh2 2.055094 1_555
O0 Rh0 2.060067 1_565
O1 Rh2 2.023324 1_655
O1 Rh1 2.023324 1_656
O2 Rh0 2.023324 1_555
O2 Rh3 2.023324 1_555
O3 Rh0 2.055094 1_565
O3 Rh2 2.060067 1_655
O4 Rh1 2.055094 1_655
O4 Rh3 2.060067 1_555
O5 Rh3 2.055094 1_556
O5 Rh1 2.060067 1_556
O6 Rh3 2.023324 1_566
O6 Rh0 2.023324 1_565
O7 Rh0 2.055094 1_555
O7 Rh2 2.060067 1_555
O8 Rh1 2.023324 1_555
O8 Rh2 2.023324 1_555
O9 Rh2 2.055094 1_655
O9 Rh0 2.060067 1_555
O10 Rh1 2.055094 1_556
O10 Rh3 2.060067 1_566
O11 Rh3 2.055094 1_565
O11 Rh1 2.060067 1_655
