# generated using pymatgen
data_Mg3InAg4
_symmetry_space_group_name_H-M   'P 1'
_cell_length_a   8.16225710
_cell_length_b   8.16225710
_cell_length_c   8.16225778
_cell_angle_alpha   33.42256761
_cell_angle_beta   33.42256761
_cell_angle_gamma   33.42257934
_symmetry_Int_Tables_number   1
_chemical_formula_structural   Mg3InAg4
_chemical_formula_sum   'Mg3 In1 Ag4'
_cell_volume   146.91992637
_cell_formula_units_Z   1
loop_
 _symmetry_equiv_pos_site_id
 _symmetry_equiv_pos_as_xyz
  1  'x, y, z'
loop_
 _atom_site_type_symbol
 _atom_site_label
 _atom_site_symmetry_multiplicity
 _atom_site_fract_x
 _atom_site_fract_y
 _atom_site_fract_z
 _atom_site_occupancy
  Mg  Mg0  1  0.24909506  0.24909506  0.24909506  1
  Mg  Mg1  1  0.75090494  0.75090494  0.75090494  1
  Mg  Mg2  1  0.50000000  0.50000000  0.50000000  1
  In  In0  1  -0.00000000  -0.00000000  -0.00000000  1
  Ag  Ag0  1  0.87358156  0.87358156  0.87358156  1
  Ag  Ag1  1  0.37691442  0.37691442  0.37691442  1
  Ag  Ag2  1  0.12641844  0.12641844  0.12641844  1
  Ag  Ag3  1  0.62308558  0.62308558  0.62308558  1
loop_
_geom_bond_atom_site_label_1
_geom_bond_atom_site_label_2
_geom_bond_distance
_geom_bond_site_symmetry_2
Ag0 Mg1 2.833533 1_555
Ag0 Mg2 2.865149 1_556
Ag0 Mg2 2.865150 1_655
Ag0 Mg2 2.865150 1_565
Ag0 Mg0 2.879937 1_665
Ag0 Mg0 2.879938 1_656
Ag0 Mg0 2.879938 1_566
Ag0 In0 2.919960 1_666
Ag1 Mg2 2.842979 1_555
Ag1 Mg1 2.868228 1_554
Ag1 Mg1 2.868229 1_455
Ag1 Mg1 2.868229 1_545
Ag1 In0 2.891044 1_556
Ag1 In0 2.891045 1_565
Ag1 In0 2.891045 1_655
Ag1 Mg0 2.952318 1_555
Ag2 Mg0 2.833533 1_555
Ag2 Mg2 2.865149 1_554
Ag2 Mg2 2.865150 1_545
Ag2 Mg2 2.865150 1_455
Ag2 Mg1 2.879937 1_445
Ag2 Mg1 2.879938 1_454
Ag2 Mg1 2.879938 1_544
Ag2 In0 2.919960 1_555
Ag3 Mg2 2.842979 1_555
Ag3 Mg0 2.868228 1_556
Ag3 Mg0 2.868229 1_565
Ag3 Mg0 2.868229 1_655
Ag3 In0 2.891044 1_665
Ag3 In0 2.891045 1_656
Ag3 In0 2.891045 1_566
Ag3 Mg1 2.952318 1_555
