# generated using pymatgen
data_Hg
_symmetry_space_group_name_H-M   'P 1'
_cell_length_a   8.86337186
_cell_length_b   8.86337186
_cell_length_c   8.86337186
_cell_angle_alpha   97.23351380
_cell_angle_beta   97.23351380
_cell_angle_gamma   138.43235993
_symmetry_Int_Tables_number   1
_chemical_formula_structural   Hg
_chemical_formula_sum   Hg16
_cell_volume   431.93410697
_cell_formula_units_Z   16
loop_
 _symmetry_equiv_pos_site_id
 _symmetry_equiv_pos_as_xyz
  1  'x, y, z'
loop_
 _atom_site_type_symbol
 _atom_site_label
 _atom_site_symmetry_multiplicity
 _atom_site_fract_x
 _atom_site_fract_y
 _atom_site_fract_z
 _atom_site_occupancy
  Hg  Hg0_0  1  0.00000000  0.00000000  0.00000000  1
  Hg  Hg0_1  1  0.00000000  0.00000000  0.50000000  1
  Hg  Hg0_2  1  1.00000000  0.50000000  0.00000000  1
  Hg  Hg0_3  1  1.00000000  0.50000000  0.50000000  1
  Hg  Hg0_4  1  0.50000000  0.00000000  0.00000000  1
  Hg  Hg0_5  1  0.50000000  0.00000000  0.50000000  1
  Hg  Hg0_6  1  0.50000000  0.50000000  0.00000000  1
  Hg  Hg0_7  1  0.50000000  0.50000000  0.50000000  1
  Hg  Hg1_0  1  0.12500000  0.37500000  0.25000000  1
  Hg  Hg1_1  1  0.12500000  0.37500000  0.75000000  1
  Hg  Hg1_2  1  0.12500000  0.87500000  0.25000000  1
  Hg  Hg1_3  1  0.12500000  0.87500000  0.75000000  1
  Hg  Hg1_4  1  0.62500000  0.37500000  0.25000000  1
  Hg  Hg1_5  1  0.62500000  0.37500000  0.75000000  1
  Hg  Hg1_6  1  0.62500000  0.87500000  0.25000000  1
  Hg  Hg1_7  1  0.62500000  0.87500000  0.75000000  1
loop_
_geom_bond_atom_site_label_1
_geom_bond_atom_site_label_2
_geom_bond_distance
_geom_bond_site_symmetry_2
Hg0_0 Hg1_3 3.033429 1_544
Hg0_0 Hg1_2 3.033429 1_545
Hg0_0 Hg1_0 3.033429 1_555
Hg0_0 Hg1_7 3.033429 1_444
Hg0_0 Hg0_6 3.145105 1_555
Hg0_0 Hg0_6 3.145105 1_445
Hg0_1 Hg1_2 3.033429 1_545
Hg0_1 Hg1_3 3.033429 1_545
Hg0_1 Hg1_1 3.033429 1_555
Hg0_1 Hg1_6 3.033429 1_445
Hg0_1 Hg0_7 3.145105 1_555
Hg0_1 Hg0_7 3.145105 1_445
Hg0_2 Hg1_2 3.033429 1_655
Hg0_2 Hg1_0 3.033429 1_655
Hg0_2 Hg1_1 3.033429 1_654
Hg0_2 Hg1_5 3.033429 1_554
Hg0_2 Hg0_4 3.145105 1_555
Hg0_2 Hg0_4 3.145105 1_665
Hg0_3 Hg1_1 3.033429 1_655
Hg0_3 Hg1_0 3.033429 1_655
Hg0_3 Hg1_4 3.033429 1_555
Hg0_3 Hg1_3 3.033429 1_655
Hg0_3 Hg0_5 3.145105 1_555
Hg0_3 Hg0_5 3.145105 1_665
Hg0_4 Hg1_6 3.033429 1_545
Hg0_4 Hg1_7 3.033429 1_544
Hg0_4 Hg1_4 3.033429 1_555
Hg0_4 Hg1_3 3.033429 1_544
Hg0_5 Hg1_6 3.033429 1_545
Hg0_5 Hg1_7 3.033429 1_545
Hg0_5 Hg1_5 3.033429 1_555
Hg0_5 Hg1_2 3.033429 1_545
Hg0_6 Hg1_6 3.033429 1_555
Hg0_6 Hg1_4 3.033429 1_555
Hg0_6 Hg1_1 3.033429 1_554
Hg0_6 Hg1_5 3.033429 1_554
Hg0_7 Hg1_0 3.033429 1_555
Hg0_7 Hg1_4 3.033429 1_555
Hg0_7 Hg1_7 3.033429 1_555
Hg0_7 Hg1_5 3.033429 1_555
Hg1_0 Hg1_6 3.145105 1_555
Hg1_0 Hg1_6 3.145105 1_445
Hg1_1 Hg1_7 3.145105 1_555
Hg1_1 Hg1_7 3.145105 1_445
Hg1_2 Hg1_4 3.145105 1_455
Hg1_2 Hg1_4 3.145105 1_565
Hg1_3 Hg1_5 3.145105 1_455
Hg1_3 Hg1_5 3.145105 1_565
