# generated using pymatgen
data_Yb4CrS7
_symmetry_space_group_name_H-M   'P 1'
_cell_length_a   6.42317062
_cell_length_b   6.42317062
_cell_length_c   11.25727165
_cell_angle_alpha   74.37054696
_cell_angle_beta   74.37054696
_cell_angle_gamma   33.79952159
_symmetry_Int_Tables_number   1
_chemical_formula_structural   Yb4CrS7
_chemical_formula_sum   'Yb4 Cr1 S7'
_cell_volume   247.91057141
_cell_formula_units_Z   1
loop_
 _symmetry_equiv_pos_site_id
 _symmetry_equiv_pos_as_xyz
  1  'x, y, z'
loop_
 _atom_site_type_symbol
 _atom_site_label
 _atom_site_symmetry_multiplicity
 _atom_site_fract_x
 _atom_site_fract_y
 _atom_site_fract_z
 _atom_site_occupancy
  Yb  Yb0  1  0.68543352  0.68543352  0.22183471  1
  Yb  Yb1  1  0.30143693  0.30143693  0.80833034  1
  Yb  Yb2  1  0.99227430  0.99227430  0.00553460  1
  Yb  Yb3  1  0.11928051  0.11928051  0.56574277  1
  Cr  Cr0  1  0.88994135  0.88994135  0.42346813  1
  S  S0  1  0.75164549  0.75164549  0.63519234  1
  S  S1  1  0.27355633  0.27355633  0.35358484  1
  S  S2  1  0.33037687  0.33037687  0.05468422  1
  S  S3  1  0.65227954  0.65227954  0.94496923  1
  S  S4  1  0.03000231  0.03000231  0.22439841  1
  S  S5  1  0.96052885  0.96052885  0.78311170  1
  S  S6  1  0.51324400  0.51324400  0.47914771  1
loop_
_geom_bond_atom_site_label_1
_geom_bond_atom_site_label_2
_geom_bond_distance
_geom_bond_site_symmetry_2
Cr0 S4 2.411051 1_665
Cr0 S0 2.507732 1_555
Cr0 S6 2.590617 1_565
Cr0 S6 2.590617 1_655
Cr0 S1 2.604919 1_565
Cr0 S1 2.604919 1_655
S0 Yb3 2.731491 1_565
S0 Yb3 2.731491 1_655
S0 Yb1 2.886453 1_565
S0 Yb1 2.886453 1_655
S1 Yb3 2.597983 1_555
S1 Yb0 2.786418 1_455
S1 Yb0 2.786418 1_545
S2 Yb2 2.670680 1_455
S2 Yb2 2.670680 1_545
S2 Yb0 2.883272 1_455
S2 Yb0 2.883272 1_545
S2 Yb1 2.893635 1_554
S3 Yb2 2.657845 1_456
S3 Yb2 2.657845 1_546
S3 Yb1 2.761451 1_565
S3 Yb1 2.761451 1_655
S3 Yb0 3.255068 1_556
S4 Yb2 2.632269 1_445
S4 Yb0 2.665749 1_455
S4 Yb0 2.665749 1_545
S5 Yb2 2.640427 1_556
S5 Yb1 2.660517 1_655
S5 Yb1 2.660517 1_565
S5 Yb3 2.665780 1_665
S6 Yb3 2.617436 1_655
S6 Yb3 2.617436 1_565
S6 Yb0 3.068800 1_555
