# generated using pymatgen
data_SrMg14Ti
_symmetry_space_group_name_H-M   'P 1'
_cell_length_a   6.55858160
_cell_length_b   6.53792713
_cell_length_c   10.40007588
_cell_angle_alpha   90.00000000
_cell_angle_beta   90.00000000
_cell_angle_gamma   119.89588462
_symmetry_Int_Tables_number   1
_chemical_formula_structural   SrMg14Ti
_chemical_formula_sum   'Sr1 Mg14 Ti1'
_cell_volume   386.60887561
_cell_formula_units_Z   1
loop_
 _symmetry_equiv_pos_site_id
 _symmetry_equiv_pos_as_xyz
  1  'x, y, z'
loop_
 _atom_site_type_symbol
 _atom_site_label
 _atom_site_symmetry_multiplicity
 _atom_site_fract_x
 _atom_site_fract_y
 _atom_site_fract_z
 _atom_site_occupancy
  Sr  Sr0  1  0.16083788  0.83041844  0.12500000  1
  Mg  Mg0  1  0.16401248  0.33200574  0.62500000  1
  Mg  Mg1  1  0.16760276  0.83380088  0.62500000  1
  Mg  Mg2  1  0.65898890  0.33323650  0.12500000  1
  Mg  Mg3  1  0.66665764  0.33009165  0.62500000  1
  Mg  Mg4  1  0.65898890  0.82575140  0.12500000  1
  Mg  Mg5  1  0.66665764  0.83656499  0.62500000  1
  Mg  Mg6  1  0.33578388  0.17839926  0.38106046  1
  Mg  Mg7  1  0.33578388  0.17839926  0.86893954  1
  Mg  Mg8  1  0.33578388  0.65738561  0.38106046  1
  Mg  Mg9  1  0.33578388  0.65738561  0.86893954  1
  Mg  Mg10  1  0.84120302  0.17060201  0.36642958  1
  Mg  Mg11  1  0.84120302  0.17060201  0.88357042  1
  Mg  Mg12  1  0.82302745  0.66151423  0.38657701  1
  Mg  Mg13  1  0.82302745  0.66151423  0.86342299  1
  Ti  Ti0  1  0.18465735  0.34232817  0.12500000  1
loop_
_geom_bond_atom_site_label_1
_geom_bond_atom_site_label_2
_geom_bond_distance
_geom_bond_site_symmetry_2
Sr0 Ti0 3.271768 1_565
Sr0 Ti0 3.271768 1_555
Mg0 Mg7 3.137175 1_555
Mg0 Mg6 3.137175 1_555
Mg0 Mg9 3.137182 1_555
Mg0 Mg8 3.137182 1_555
Mg0 Mg5 3.255723 1_445
Mg0 Mg3 3.255723 1_455
Mg0 Mg11 3.255825 1_455
Mg0 Mg10 3.255825 1_455
Mg0 Mg1 3.269027 1_555
Mg0 Mg1 3.269027 1_545
Mg0 Mg5 3.302894 1_555
Mg0 Mg3 3.302895 1_555
Mg1 Mg12 3.160218 1_455
Mg1 Mg13 3.160218 1_455
Mg1 Mg9 3.201799 1_555
Mg1 Mg8 3.201799 1_555
Mg1 Mg7 3.201806 1_565
Mg1 Mg6 3.201806 1_565
Mg1 Mg3 3.264122 1_565
Mg1 Mg5 3.264122 1_555
Mg1 Mg3 3.294534 1_455
Mg1 Mg5 3.294534 1_455
Mg2 Ti0 3.140992 1_555
Mg2 Mg4 3.220027 1_555
Mg2 Mg6 3.235878 1_555
Mg2 Mg7 3.235878 1_554
Mg2 Sr0 3.276316 1_655
Mg2 Sr0 3.282479 1_545
Mg2 Mg4 3.317901 1_545
Mg2 Ti0 3.418401 1_655
Mg3 Mg7 3.159695 1_555
Mg3 Mg6 3.159695 1_555
Mg3 Mg5 3.226641 1_545
Mg3 Mg5 3.311286 1_555
Mg4 Ti0 3.140991 1_555
Mg4 Mg8 3.235877 1_555
Mg4 Mg9 3.235877 1_554
Mg4 Sr0 3.276316 1_655
Mg4 Sr0 3.282479 1_555
Mg4 Ti0 3.418401 1_665
Mg5 Mg9 3.159695 1_555
Mg5 Mg8 3.159695 1_555
Mg6 Mg8 3.131578 1_555
Mg6 Ti0 3.206535 1_555
Mg6 Sr0 3.313927 1_545
Mg6 Mg8 3.406349 1_545
Mg7 Mg9 3.131578 1_555
Mg7 Ti0 3.206535 1_556
Mg7 Sr0 3.313927 1_546
Mg7 Mg9 3.406349 1_545
Mg8 Ti0 3.206541 1_555
Mg8 Sr0 3.313920 1_555
Mg9 Ti0 3.206541 1_556
Mg9 Sr0 3.313920 1_556
Mg10 Ti0 3.180894 1_655
Mg10 Mg2 3.182770 1_555
Mg10 Mg4 3.182777 1_545
Mg10 Mg8 3.222238 1_655
Mg10 Mg6 3.222238 1_655
Mg10 Mg12 3.277302 1_545
Mg10 Mg12 3.277302 1_555
Mg10 Mg3 3.289264 1_555
Mg10 Mg5 3.289270 1_545
Mg10 Mg8 3.343997 1_545
Mg10 Mg6 3.343997 1_555
Mg11 Ti0 3.180894 1_656
Mg11 Mg2 3.182770 1_556
Mg11 Mg4 3.182777 1_546
Mg11 Mg9 3.222238 1_655
Mg11 Mg7 3.222238 1_655
Mg11 Mg13 3.277302 1_545
Mg11 Mg13 3.277302 1_555
Mg11 Mg3 3.289264 1_555
Mg11 Mg5 3.289270 1_545
Mg11 Mg9 3.343997 1_545
Mg11 Mg7 3.343997 1_555
Mg12 Mg5 3.111290 1_555
Mg12 Mg3 3.111297 1_555
Mg12 Mg6 3.182776 1_555
Mg12 Mg8 3.182776 1_555
Mg12 Mg4 3.295867 1_555
Mg12 Mg2 3.295873 1_555
Mg12 Sr0 3.330154 1_655
Mg12 Mg6 3.376977 1_665
Mg12 Mg8 3.376977 1_655
Mg13 Mg5 3.111290 1_555
Mg13 Mg3 3.111297 1_555
Mg13 Mg7 3.182776 1_555
Mg13 Mg9 3.182776 1_555
Mg13 Mg4 3.295867 1_556
Mg13 Mg2 3.295873 1_556
Mg13 Sr0 3.330154 1_656
Mg13 Mg7 3.376977 1_665
Mg13 Mg9 3.376977 1_655
