# generated using pymatgen
data_Tl2Ni2(MoO4)3
_symmetry_space_group_name_H-M   'P 1'
_cell_length_a   10.86481100
_cell_length_b   10.86481100
_cell_length_c   10.86481100
_cell_angle_alpha   90.00000000
_cell_angle_beta   90.00000000
_cell_angle_gamma   90.00000000
_symmetry_Int_Tables_number   1
_chemical_formula_structural   Tl2Ni2(MoO4)3
_chemical_formula_sum   'Tl8 Ni8 Mo12 O48'
_cell_volume   1282.52703245
_cell_formula_units_Z   4
loop_
 _symmetry_equiv_pos_site_id
 _symmetry_equiv_pos_as_xyz
  1  'x, y, z'
loop_
 _atom_site_type_symbol
 _atom_site_label
 _atom_site_symmetry_multiplicity
 _atom_site_fract_x
 _atom_site_fract_y
 _atom_site_fract_z
 _atom_site_occupancy
  Tl  Tl0  1  0.05455100  0.05455100  0.05455100  1
  Tl  Tl1  1  0.44544900  0.94544900  0.55455100  1
  Tl  Tl2  1  0.94544900  0.55455100  0.44544900  1
  Tl  Tl3  1  0.55455100  0.44544900  0.94544900  1
  Tl  Tl4  1  0.82197200  0.82197200  0.82197200  1
  Tl  Tl5  1  0.67802800  0.17802800  0.32197200  1
  Tl  Tl6  1  0.17802800  0.32197200  0.67802800  1
  Tl  Tl7  1  0.32197200  0.67802800  0.17802800  1
  Ni  Ni0  1  0.33662300  0.33662300  0.33662300  1
  Ni  Ni1  1  0.16337700  0.66337700  0.83662300  1
  Ni  Ni2  1  0.66337700  0.83662300  0.16337700  1
  Ni  Ni3  1  0.83662300  0.16337700  0.66337700  1
  Ni  Ni4  1  0.60585100  0.60585100  0.60585100  1
  Ni  Ni5  1  0.89414900  0.39414900  0.10585100  1
  Ni  Ni6  1  0.39414900  0.10585100  0.89414900  1
  Ni  Ni7  1  0.10585100  0.89414900  0.39414900  1
  Mo  Mo0  1  0.02283600  0.20906800  0.37651700  1
  Mo  Mo1  1  0.47716400  0.79093200  0.87651700  1
  Mo  Mo2  1  0.97716400  0.70906800  0.12348300  1
  Mo  Mo3  1  0.37651700  0.02283600  0.20906800  1
  Mo  Mo4  1  0.52283600  0.29093200  0.62348300  1
  Mo  Mo5  1  0.87651700  0.47716400  0.79093200  1
  Mo  Mo6  1  0.12348300  0.97716400  0.70906800  1
  Mo  Mo7  1  0.62348300  0.52283600  0.29093200  1
  Mo  Mo8  1  0.20906800  0.37651700  0.02283600  1
  Mo  Mo9  1  0.70906800  0.12348300  0.97716400  1
  Mo  Mo10  1  0.29093200  0.62348300  0.52283600  1
  Mo  Mo11  1  0.79093200  0.87651700  0.47716400  1
  O  O0  1  0.01765800  0.05098500  0.32479300  1
  O  O1  1  0.48234200  0.94901500  0.82479300  1
  O  O2  1  0.98234200  0.55098500  0.17520700  1
  O  O3  1  0.32479300  0.01765800  0.05098500  1
  O  O4  1  0.51765800  0.44901500  0.67520700  1
  O  O5  1  0.82479300  0.48234200  0.94901500  1
  O  O6  1  0.17520700  0.98234200  0.55098500  1
  O  O7  1  0.67520700  0.51765800  0.44901500  1
  O  O8  1  0.05098500  0.32479300  0.01765800  1
  O  O9  1  0.55098500  0.17520700  0.98234200  1
  O  O10  1  0.44901500  0.67520700  0.51765800  1
  O  O11  1  0.94901500  0.82479300  0.48234200  1
  O  O12  1  0.27242300  0.48452300  0.43682300  1
  O  O13  1  0.22757700  0.51547700  0.93682300  1
  O  O14  1  0.72757700  0.98452300  0.06317700  1
  O  O15  1  0.43682300  0.27242300  0.48452300  1
  O  O16  1  0.77242300  0.01547700  0.56317700  1
  O  O17  1  0.93682300  0.22757700  0.51547700  1
  O  O18  1  0.06317700  0.72757700  0.98452300  1
  O  O19  1  0.56317700  0.77242300  0.01547700  1
  O  O20  1  0.48452300  0.43682300  0.27242300  1
  O  O21  1  0.98452300  0.06317700  0.72757700  1
  O  O22  1  0.01547700  0.56317700  0.77242300  1
  O  O23  1  0.51547700  0.93682300  0.22757700  1
  O  O24  1  0.04974900  0.80446600  0.23674500  1
  O  O25  1  0.45025100  0.19553400  0.73674500  1
  O  O26  1  0.95025100  0.30446600  0.26325500  1
  O  O27  1  0.23674500  0.04974900  0.80446600  1
  O  O28  1  0.54974900  0.69553400  0.76325500  1
  O  O29  1  0.73674500  0.45025100  0.19553400  1
  O  O30  1  0.26325500  0.95025100  0.30446600  1
  O  O31  1  0.76325500  0.54974900  0.69553400  1
  O  O32  1  0.80446600  0.23674500  0.04974900  1
  O  O33  1  0.30446600  0.26325500  0.95025100  1
  O  O34  1  0.69553400  0.76325500  0.54974900  1
  O  O35  1  0.19553400  0.73674500  0.45025100  1
  O  O36  1  0.17868500  0.25552900  0.40378100  1
  O  O37  1  0.32131500  0.74447100  0.90378100  1
  O  O38  1  0.82131500  0.75552900  0.09621900  1
  O  O39  1  0.40378100  0.17868500  0.25552900  1
  O  O40  1  0.67868500  0.24447100  0.59621900  1
  O  O41  1  0.90378100  0.32131500  0.74447100  1
  O  O42  1  0.09621900  0.82131500  0.75552900  1
  O  O43  1  0.59621900  0.67868500  0.24447100  1
  O  O44  1  0.25552900  0.40378100  0.17868500  1
  O  O45  1  0.75552900  0.09621900  0.82131500  1
  O  O46  1  0.24447100  0.59621900  0.67868500  1
  O  O47  1  0.74447100  0.90378100  0.32131500  1
loop_
_geom_bond_atom_site_label_1
_geom_bond_atom_site_label_2
_geom_bond_distance
_geom_bond_site_symmetry_2
Ni0 O39 2.062336 1_555
Ni0 O36 2.062336 1_555
Ni0 O44 2.062336 1_555
Ni0 O15 2.062486 1_555
Ni0 O20 2.062486 1_555
Ni0 O12 2.062486 1_555
Ni1 O46 2.062336 1_555
Ni1 O37 2.062336 1_555
Ni1 O42 2.062336 1_555
Ni1 O22 2.062486 1_555
Ni1 O13 2.062486 1_555
Ni1 O18 2.062486 1_555
Ni2 O47 2.062336 1_555
Ni2 O43 2.062336 1_555
Ni2 O38 2.062336 1_555
Ni2 O19 2.062486 1_555
Ni2 O23 2.062486 1_555
Ni2 O14 2.062486 1_555
Ni3 O41 2.062336 1_555
Ni3 O45 2.062336 1_555
Ni3 O40 2.062336 1_555
Ni3 O17 2.062486 1_555
Ni3 O16 2.062486 1_555
Ni3 O21 2.062486 1_555
Ni4 O28 2.060493 1_555
Ni4 O34 2.060493 1_555
Ni4 O31 2.060493 1_555
Ni4 O7 2.095129 1_555
Ni4 O10 2.095129 1_555
Ni4 O4 2.095129 1_555
Ni5 O29 2.060493 1_555
Ni5 O32 2.060493 1_555
Ni5 O26 2.060493 1_555
Ni5 O5 2.095129 1_554
Ni5 O2 2.095129 1_555
Ni5 O8 2.095129 1_655
Ni6 O27 2.060493 1_555
Ni6 O25 2.060493 1_555
Ni6 O33 2.060493 1_555
Ni6 O1 2.095129 1_545
Ni6 O9 2.095129 1_555
Ni6 O3 2.095129 1_556
Ni7 O24 2.060493 1_555
Ni7 O35 2.060493 1_555
Ni7 O30 2.060493 1_555
Ni7 O11 2.095129 1_455
Ni7 O6 2.095129 1_555
Ni7 O0 2.095129 1_565
Mo0 O17 1.786946 1_455
Mo0 O36 1.791569 1_555
Mo0 O26 1.791793 1_455
Mo0 O0 1.808017 1_555
Mo1 O19 1.786946 1_556
Mo1 O37 1.791569 1_555
Mo1 O28 1.791793 1_555
Mo1 O1 1.808017 1_555
Mo2 O18 1.786946 1_654
Mo2 O38 1.791569 1_555
Mo2 O24 1.791793 1_655
Mo2 O2 1.808017 1_555
Mo3 O23 1.786946 1_545
Mo3 O39 1.791569 1_555
Mo3 O30 1.791793 1_545
Mo3 O3 1.808017 1_555
Mo4 O15 1.786946 1_555
Mo4 O40 1.791569 1_555
Mo4 O25 1.791793 1_555
Mo4 O4 1.808017 1_555
Mo5 O22 1.786946 1_655
Mo5 O41 1.791569 1_555
Mo5 O31 1.791793 1_555
Mo5 O5 1.808017 1_555
Mo6 O21 1.786946 1_465
Mo6 O42 1.791569 1_555
Mo6 O27 1.791793 1_565
Mo6 O6 1.808017 1_555
Mo7 O20 1.786946 1_555
Mo7 O43 1.791569 1_555
Mo7 O29 1.791793 1_555
Mo7 O7 1.808017 1_555
Mo8 O13 1.786946 1_554
Mo8 O44 1.791569 1_555
Mo8 O33 1.791793 1_554
Mo8 O8 1.808017 1_555
Mo9 O14 1.786946 1_546
Mo9 O45 1.791569 1_555
Mo9 O32 1.791793 1_556
Mo9 O9 1.808017 1_555
Mo10 O12 1.786946 1_555
Mo10 O46 1.791569 1_555
Mo10 O35 1.791793 1_555
Mo10 O10 1.808017 1_555
Mo11 O16 1.786946 1_565
Mo11 O47 1.791569 1_555
Mo11 O34 1.791793 1_555
Mo11 O11 1.808017 1_555
