# generated using pymatgen
data_CsInCuF6
_symmetry_space_group_name_H-M   'P 1'
_cell_length_a   7.72001905
_cell_length_b   7.72001905
_cell_length_c   7.72001905
_cell_angle_alpha   122.37868239
_cell_angle_beta   118.49613743
_cell_angle_gamma   89.27735906
_symmetry_Int_Tables_number   1
_chemical_formula_structural   CsInCuF6
_chemical_formula_sum   'Cs2 In2 Cu2 F12'
_cell_volume   322.69197236
_cell_formula_units_Z   2
loop_
 _symmetry_equiv_pos_site_id
 _symmetry_equiv_pos_as_xyz
  1  'x, y, z'
loop_
 _atom_site_type_symbol
 _atom_site_label
 _atom_site_symmetry_multiplicity
 _atom_site_fract_x
 _atom_site_fract_y
 _atom_site_fract_z
 _atom_site_occupancy
  Cs  Cs0  1  0.85956800  0.60956800  0.25000000  1
  Cs  Cs1  1  0.14043200  0.39043200  0.75000000  1
  In  In0  1  0.50000000  0.00000000  0.50000000  1
  In  In1  1  0.00000000  0.00000000  0.00000000  1
  Cu  Cu0  1  0.50000000  0.00000000  0.00000000  1
  Cu  Cu1  1  0.50000000  0.50000000  0.50000000  1
  F  F0  1  0.82762900  0.07762900  0.75000000  1
  F  F1  1  0.44905400  0.69905400  0.75000000  1
  F  F2  1  0.81976800  0.67093500  0.73242500  1
  F  F3  1  0.43851000  0.08734200  0.76757500  1
  F  F4  1  0.81976800  0.08734200  0.14883300  1
  F  F5  1  0.43851000  0.67093500  0.35116700  1
  F  F6  1  0.17237100  0.92237100  0.25000000  1
  F  F7  1  0.55094600  0.30094600  0.25000000  1
  F  F8  1  0.18023200  0.32906500  0.26757500  1
  F  F9  1  0.56149000  0.91265800  0.23242500  1
  F  F10  1  0.18023200  0.91265800  0.85116700  1
  F  F11  1  0.56149000  0.32906500  0.64883300  1
loop_
_geom_bond_atom_site_label_1
_geom_bond_atom_site_label_2
_geom_bond_distance
_geom_bond_site_symmetry_2
Cs0 F10 3.270317 1_655
Cs0 F8 3.270317 1_655
Cs0 F11 3.270317 1_554
Cs0 F9 3.270323 1_555
Cs0 F7 3.390641 1_555
Cs0 F6 3.436575 1_655
Cs1 F4 3.270317 1_455
Cs1 F2 3.270317 1_455
Cs1 F5 3.270317 1_556
Cs1 F3 3.270323 1_555
Cs1 F1 3.390641 1_555
Cs1 F0 3.436575 1_455
Cu0 F7 1.942584 1_555
Cu0 F1 1.942584 1_544
Cu0 F9 2.091550 1_545
Cu0 F3 2.091550 1_554
Cu0 F10 2.091556 1_544
Cu0 F4 2.091556 1_555
Cu1 F1 1.942584 1_555
Cu1 F7 1.942584 1_555
Cu1 F11 2.091556 1_555
Cu1 F5 2.091556 1_555
Cu1 F8 2.091556 1_555
Cu1 F2 2.091556 1_555
F0 In0 2.150092 1_555
F0 In1 2.150092 1_656
F2 In1 2.093529 1_666
F3 In0 2.093531 1_555
F4 In1 2.093529 1_655
F5 In0 2.093529 1_565
F6 In1 2.150092 1_565
F6 In0 2.150092 1_565
F8 In1 2.093529 1_555
F9 In0 2.093531 1_565
F10 In1 2.093529 1_566
F11 In0 2.093529 1_555
