# generated using pymatgen
data_Nd2SiSeO4
_symmetry_space_group_name_H-M   'P 1'
_cell_length_a   6.25120900
_cell_length_b   7.23959000
_cell_length_c   11.12860500
_cell_angle_alpha   90.00000000
_cell_angle_beta   90.00000000
_cell_angle_gamma   90.00000000
_symmetry_Int_Tables_number   1
_chemical_formula_structural   Nd2SiSeO4
_chemical_formula_sum   'Nd8 Si4 Se4 O16'
_cell_volume   503.63826414
_cell_formula_units_Z   4
loop_
 _symmetry_equiv_pos_site_id
 _symmetry_equiv_pos_as_xyz
  1  'x, y, z'
loop_
 _atom_site_type_symbol
 _atom_site_label
 _atom_site_symmetry_multiplicity
 _atom_site_fract_x
 _atom_site_fract_y
 _atom_site_fract_z
 _atom_site_occupancy
  Nd  Nd0  1  0.60947900  0.25000000  0.50000000  1
  Nd  Nd1  1  0.60947900  0.25000000  0.00000000  1
  Nd  Nd2  1  0.39052100  0.75000000  0.50000000  1
  Nd  Nd3  1  0.39052100  0.75000000  0.00000000  1
  Nd  Nd4  1  0.86939300  0.53470800  0.75000000  1
  Nd  Nd5  1  0.86939300  0.96529200  0.25000000  1
  Nd  Nd6  1  0.13060700  0.03470800  0.75000000  1
  Nd  Nd7  1  0.13060700  0.46529200  0.25000000  1
  Si  Si0  1  0.11428000  0.25000000  0.50000000  1
  Si  Si1  1  0.88572000  0.75000000  0.50000000  1
  Si  Si2  1  0.88572000  0.75000000  0.00000000  1
  Si  Si3  1  0.11428000  0.25000000  0.00000000  1
  Se  Se0  1  0.57338200  0.88351700  0.75000000  1
  Se  Se1  1  0.57338200  0.61648300  0.25000000  1
  Se  Se2  1  0.42661800  0.38351700  0.75000000  1
  Se  Se3  1  0.42661800  0.11648300  0.25000000  1
  O  O0  1  0.27196900  0.42542200  0.03218500  1
  O  O1  1  0.27196900  0.07457800  0.96781500  1
  O  O2  1  0.72803100  0.92542200  0.46781500  1
  O  O3  1  0.72803100  0.57457800  0.53218500  1
  O  O4  1  0.72803100  0.57457800  0.96781500  1
  O  O5  1  0.72803100  0.92542200  0.03218500  1
  O  O6  1  0.27196900  0.07457800  0.53218500  1
  O  O7  1  0.27196900  0.42542200  0.46781500  1
  O  O8  1  0.04714400  0.73445600  0.11765600  1
  O  O9  1  0.04714400  0.73445600  0.38234400  1
  O  O10  1  0.95285600  0.23445600  0.38234400  1
  O  O11  1  0.95285600  0.26554400  0.61765600  1
  O  O12  1  0.95285600  0.26554400  0.88234400  1
  O  O13  1  0.95285600  0.23445600  0.11765600  1
  O  O14  1  0.04714400  0.76554400  0.61765600  1
  O  O15  1  0.04714400  0.76554400  0.88234400  1
loop_
_geom_bond_atom_site_label_1
_geom_bond_atom_site_label_2
_geom_bond_distance
_geom_bond_site_symmetry_2
Nd0 O6 2.488492 1_555
Nd0 O7 2.488492 1_555
Nd0 O3 2.489804 1_555
Nd0 O2 2.489804 1_545
Nd0 O10 2.516865 1_555
Nd0 O11 2.516865 1_555
Nd0 Se3 3.159332 1_555
Nd0 Se2 3.159332 1_555
Nd1 O0 2.488492 1_555
Nd1 O1 2.488492 1_554
Nd1 O4 2.489804 1_554
Nd1 O5 2.489804 1_545
Nd1 O12 2.516865 1_554
Nd1 O13 2.516865 1_555
Nd1 Se2 3.159332 1_554
Nd1 Se3 3.159332 1_555
Nd2 O2 2.488492 1_555
Nd2 O3 2.488492 1_555
Nd2 O7 2.489804 1_555
Nd2 O6 2.489804 1_565
Nd2 O14 2.516865 1_555
Nd2 O9 2.516865 1_555
Nd2 Se0 3.159332 1_555
Nd2 Se1 3.159332 1_555
Nd3 O5 2.488492 1_555
Nd3 O4 2.488492 1_554
Nd3 O0 2.489804 1_555
Nd3 O1 2.489804 1_564
Nd3 O15 2.516865 1_554
Nd3 O8 2.516865 1_555
Nd3 Se0 3.159332 1_554
Nd3 Se1 3.159332 1_555
Nd4 O14 2.489296 1_655
Nd4 O15 2.489296 1_655
Nd4 O11 2.497710 1_555
Nd4 O12 2.497710 1_555
Nd4 O3 2.596127 1_555
Nd4 O4 2.596127 1_555
Nd4 Se2 2.976444 1_555
Nd4 Se0 3.130637 1_555
Nd5 O9 2.489296 1_655
Nd5 O8 2.489296 1_655
Nd5 O13 2.497710 1_565
Nd5 O10 2.497710 1_565
Nd5 O5 2.596127 1_555
Nd5 O2 2.596127 1_555
Nd5 Se3 2.976444 1_565
Nd5 Se1 3.130637 1_555
Nd6 O12 2.489296 1_455
Nd6 O11 2.489296 1_455
Nd6 O15 2.497710 1_545
Nd6 O14 2.497710 1_545
Nd6 O6 2.596127 1_555
Nd6 O1 2.596127 1_555
Nd6 Se0 2.976444 1_545
Nd6 Se2 3.130637 1_555
Nd7 O13 2.489296 1_455
Nd7 O10 2.489296 1_455
Nd7 O8 2.497710 1_555
Nd7 O9 2.497710 1_555
Nd7 O7 2.596127 1_555
Nd7 O0 2.596127 1_555
Nd7 Se1 2.976444 1_555
Nd7 Se3 3.130637 1_555
O0 Si3 1.647071 1_555
O1 Si3 1.647071 1_556
O2 Si1 1.647071 1_555
O3 Si1 1.647071 1_555
O4 Si2 1.647071 1_556
O5 Si2 1.647071 1_555
O6 Si0 1.647071 1_555
O7 Si0 1.647071 1_555
O8 Si2 1.656903 1_455
O9 Si1 1.656903 1_455
O10 Si0 1.656903 1_655
O11 Si0 1.656903 1_655
O12 Si3 1.656903 1_656
O13 Si3 1.656903 1_655
O14 Si1 1.656903 1_455
O15 Si2 1.656903 1_456
