# generated using pymatgen
data_Na3Li3Ti2F12
_symmetry_space_group_name_H-M   'P 1'
_cell_length_a   10.95541188
_cell_length_b   10.95541188
_cell_length_c   10.95541188
_cell_angle_alpha   109.47122063
_cell_angle_beta   109.47122063
_cell_angle_gamma   109.47122063
_symmetry_Int_Tables_number   1
_chemical_formula_structural   Na3Li3Ti2F12
_chemical_formula_sum   'Na12 Li12 Ti8 F48'
_cell_volume   1012.19512084
_cell_formula_units_Z   4
loop_
 _symmetry_equiv_pos_site_id
 _symmetry_equiv_pos_as_xyz
  1  'x, y, z'
loop_
 _atom_site_type_symbol
 _atom_site_label
 _atom_site_symmetry_multiplicity
 _atom_site_fract_x
 _atom_site_fract_y
 _atom_site_fract_z
 _atom_site_occupancy
  Na  Na0  1  0.62500000  0.87500000  0.75000000  1
  Na  Na1  1  0.87500000  0.62500000  0.25000000  1
  Na  Na2  1  0.62500000  0.25000000  0.87500000  1
  Na  Na3  1  0.25000000  0.87500000  0.62500000  1
  Na  Na4  1  0.75000000  0.62500000  0.87500000  1
  Na  Na5  1  0.87500000  0.75000000  0.62500000  1
  Na  Na6  1  0.37500000  0.12500000  0.25000000  1
  Na  Na7  1  0.12500000  0.37500000  0.75000000  1
  Na  Na8  1  0.37500000  0.75000000  0.12500000  1
  Na  Na9  1  0.75000000  0.12500000  0.37500000  1
  Na  Na10  1  0.12500000  0.25000000  0.37500000  1
  Na  Na11  1  0.25000000  0.37500000  0.12500000  1
  Li  Li0  1  0.25000000  0.62500000  0.37500000  1
  Li  Li1  1  0.87500000  0.25000000  0.12500000  1
  Li  Li2  1  0.12500000  0.75000000  0.87500000  1
  Li  Li3  1  0.87500000  0.12500000  0.75000000  1
  Li  Li4  1  0.62500000  0.37500000  0.25000000  1
  Li  Li5  1  0.75000000  0.87500000  0.12500000  1
  Li  Li6  1  0.12500000  0.87500000  0.25000000  1
  Li  Li7  1  0.37500000  0.62500000  0.75000000  1
  Li  Li8  1  0.62500000  0.75000000  0.37500000  1
  Li  Li9  1  0.75000000  0.37500000  0.62500000  1
  Li  Li10  1  0.25000000  0.12500000  0.87500000  1
  Li  Li11  1  0.37500000  0.25000000  0.62500000  1
  Ti  Ti0  1  0.50000000  0.50000000  0.50000000  1
  Ti  Ti1  1  0.50000000  0.50000000  0.00000000  1
  Ti  Ti2  1  0.50000000  0.00000000  0.50000000  1
  Ti  Ti3  1  0.00000000  0.50000000  0.50000000  1
  Ti  Ti4  1  0.50000000  0.00000000  0.00000000  1
  Ti  Ti5  1  0.00000000  0.00000000  0.50000000  1
  Ti  Ti6  1  0.00000000  0.50000000  0.00000000  1
  Ti  Ti7  1  0.00000000  0.00000000  0.00000000  1
  F  F0  1  0.80375100  0.42187900  0.82404900  1
  F  F1  1  0.52029800  0.40216900  0.82404900  1
  F  F2  1  0.67595100  0.07812100  0.69624900  1
  F  F3  1  0.42187900  0.09783100  0.61812800  1
  F  F4  1  0.82404900  0.52029800  0.40216900  1
  F  F5  1  0.40216900  0.07812100  0.88187200  1
  F  F6  1  0.09783100  0.97970200  0.67595100  1
  F  F7  1  0.42187900  0.82404900  0.80375100  1
  F  F8  1  0.07812100  0.69624900  0.67595100  1
  F  F9  1  0.97970200  0.80375100  0.88187200  1
  F  F10  1  0.88187200  0.97970200  0.80375100  1
  F  F11  1  0.40216900  0.82404900  0.52029800  1
  F  F12  1  0.61812800  0.69624900  0.52029800  1
  F  F13  1  0.09783100  0.61812800  0.42187900  1
  F  F14  1  0.52029800  0.61812800  0.69624900  1
  F  F15  1  0.69624900  0.67595100  0.07812100  1
  F  F16  1  0.69624900  0.52029800  0.61812800  1
  F  F17  1  0.61812800  0.42187900  0.09783100  1
  F  F18  1  0.67595100  0.09783100  0.97970200  1
  F  F19  1  0.07812100  0.88187200  0.40216900  1
  F  F20  1  0.19624900  0.11812800  0.02029800  1
  F  F21  1  0.11812800  0.59783100  0.92187900  1
  F  F22  1  0.17595100  0.19624900  0.57812100  1
  F  F23  1  0.57812100  0.17595100  0.19624900  1
  F  F24  1  0.02029800  0.32404900  0.90216900  1
  F  F25  1  0.90216900  0.02029800  0.32404900  1
  F  F26  1  0.59783100  0.92187900  0.11812800  1
  F  F27  1  0.17595100  0.47970200  0.59783100  1
  F  F28  1  0.57812100  0.90216900  0.38187200  1
  F  F29  1  0.32404900  0.92187900  0.30375100  1
  F  F30  1  0.47970200  0.59783100  0.17595100  1
  F  F31  1  0.38187200  0.57812100  0.90216900  1
  F  F32  1  0.92187900  0.30375100  0.32404900  1
  F  F33  1  0.02029800  0.19624900  0.11812800  1
  F  F34  1  0.11812800  0.02029800  0.19624900  1
  F  F35  1  0.59783100  0.17595100  0.47970200  1
  F  F36  1  0.38187200  0.30375100  0.47970200  1
  F  F37  1  0.90216900  0.38187200  0.57812100  1
  F  F38  1  0.47970200  0.38187200  0.30375100  1
  F  F39  1  0.30375100  0.32404900  0.92187900  1
  F  F40  1  0.30375100  0.47970200  0.38187200  1
  F  F41  1  0.32404900  0.90216900  0.02029800  1
  F  F42  1  0.92187900  0.11812800  0.59783100  1
  F  F43  1  0.19624900  0.57812100  0.17595100  1
  F  F44  1  0.80375100  0.88187200  0.97970200  1
  F  F45  1  0.88187200  0.40216900  0.07812100  1
  F  F46  1  0.82404900  0.80375100  0.42187900  1
  F  F47  1  0.97970200  0.67595100  0.09783100  1
loop_
_geom_bond_atom_site_label_1
_geom_bond_atom_site_label_2
_geom_bond_distance
_geom_bond_site_symmetry_2
F0 Li9 1.887192 1_555
F0 Ti6 1.995292 1_656
F0 Na4 2.423803 1_555
F0 Na2 2.581341 1_555
F1 Li11 1.887190 1_555
F1 Ti1 1.995294 1_556
F1 Na2 2.423793 1_555
F1 Na4 2.581347 1_555
F2 Li3 1.887192 1_555
F2 Ti2 1.995292 1_555
F2 Na0 2.423803 1_545
F2 Na2 2.581341 1_555
F3 Li11 1.887182 1_555
F3 Ti2 1.995297 1_555
F3 Na2 2.423803 1_555
F3 Na3 2.581348 1_545
F4 Li4 1.887190 1_555
F4 Ti3 1.995294 1_655
F4 Na1 2.423793 1_555
F4 Na5 2.581347 1_555
F5 Li10 1.887182 1_555
F5 Ti4 1.995297 1_556
F5 Na3 2.423803 1_545
F5 Na2 2.581348 1_555
F6 Li10 1.887190 1_565
F6 Ti5 1.995294 1_565
F6 Na3 2.423793 1_555
F6 Na5 2.581347 1_455
F7 Li7 1.887192 1_555
F7 Ti4 1.995292 1_566
F7 Na0 2.423803 1_555
F7 Na3 2.581341 1_555
F8 Li2 1.887192 1_555
F8 Ti3 1.995292 1_555
F8 Na5 2.423803 1_455
F8 Na3 2.581341 1_555
F9 Li2 1.887192 1_655
F9 Ti7 1.995292 1_666
F9 Na5 2.423803 1_555
F9 Na4 2.581341 1_555
F10 Li3 1.887192 1_565
F10 Ti7 1.995292 1_666
F10 Na0 2.423803 1_555
F10 Na5 2.581341 1_555
F11 Li0 1.887190 1_555
F11 Ti2 1.995294 1_565
F11 Na3 2.423793 1_555
F11 Na0 2.581347 1_555
F12 Li8 1.887192 1_555
F12 Ti0 1.995292 1_555
F12 Na5 2.423803 1_555
F12 Na0 2.581341 1_555
F13 Li0 1.887182 1_555
F13 Ti3 1.995297 1_555
F13 Na3 2.423803 1_555
F13 Na1 2.581348 1_455
F14 Li7 1.887192 1_555
F14 Ti0 1.995292 1_555
F14 Na0 2.423803 1_555
F14 Na4 2.581341 1_555
F15 Li5 1.887192 1_555
F15 Ti1 1.995292 1_555
F15 Na4 2.423803 1_554
F15 Na1 2.581341 1_555
F16 Li9 1.887192 1_555
F16 Ti0 1.995292 1_555
F16 Na4 2.423803 1_555
F16 Na5 2.581341 1_555
F17 Li4 1.887182 1_555
F17 Ti1 1.995297 1_555
F17 Na1 2.423803 1_555
F17 Na2 2.581348 1_554
F18 Li1 1.887190 1_556
F18 Ti4 1.995294 1_556
F18 Na2 2.423793 1_555
F18 Na0 2.581347 1_545
F19 Li6 1.887182 1_555
F19 Ti5 1.995297 1_565
F19 Na1 2.423803 1_455
F19 Na3 2.581348 1_555
F20 Li10 1.887192 1_554
F20 Ti7 1.995292 1_555
F20 Na11 2.423803 1_555
F20 Na6 2.581341 1_555
F21 Li2 1.887182 1_555
F21 Ti6 1.995297 1_556
F21 Na8 2.423803 1_556
F21 Na7 2.581348 1_555
F22 Li11 1.887192 1_555
F22 Ti5 1.995292 1_555
F22 Na10 2.423803 1_555
F22 Na7 2.581341 1_555
F23 Li4 1.887192 1_555
F23 Ti4 1.995292 1_555
F23 Na6 2.423803 1_555
F23 Na9 2.581341 1_555
F24 Li3 1.887190 1_455
F24 Ti6 1.995294 1_556
F24 Na7 2.423793 1_555
F24 Na11 2.581347 1_556
F25 Li5 1.887190 1_545
F25 Ti5 1.995294 1_655
F25 Na9 2.423793 1_555
F25 Na10 2.581347 1_655
F26 Li5 1.887182 1_555
F26 Ti4 1.995297 1_565
F26 Na9 2.423803 1_565
F26 Na8 2.581348 1_555
F27 Li7 1.887190 1_555
F27 Ti3 1.995294 1_555
F27 Na7 2.423793 1_555
F27 Na10 2.581347 1_555
F28 Li8 1.887182 1_555
F28 Ti2 1.995297 1_565
F28 Na8 2.423803 1_555
F28 Na9 2.581348 1_565
F29 Li6 1.887192 1_555
F29 Ti2 1.995292 1_565
F29 Na6 2.423803 1_565
F29 Na8 2.581341 1_555
F30 Li8 1.887190 1_555
F30 Ti1 1.995294 1_555
F30 Na8 2.423793 1_555
F30 Na11 2.581347 1_555
F31 Li7 1.887182 1_555
F31 Ti1 1.995297 1_556
F31 Na7 2.423803 1_555
F31 Na8 2.581348 1_556
F32 Li1 1.887192 1_555
F32 Ti3 1.995292 1_655
F32 Na10 2.423803 1_655
F32 Na9 2.581341 1_555
F33 Li1 1.887192 1_455
F33 Ti7 1.995292 1_555
F33 Na10 2.423803 1_555
F33 Na11 2.581341 1_555
F34 Li6 1.887192 1_545
F34 Ti7 1.995292 1_555
F34 Na6 2.423803 1_555
F34 Na10 2.581341 1_555
F35 Li9 1.887190 1_555
F35 Ti2 1.995294 1_555
F35 Na9 2.423793 1_555
F35 Na6 2.581347 1_555
F36 Li11 1.887192 1_555
F36 Ti0 1.995292 1_555
F36 Na10 2.423803 1_555
F36 Na6 2.581341 1_555
F37 Li9 1.887182 1_555
F37 Ti3 1.995297 1_655
F37 Na9 2.423803 1_555
F37 Na7 2.581348 1_655
F38 Li4 1.887192 1_555
F38 Ti0 1.995292 1_555
F38 Na6 2.423803 1_555
F38 Na11 2.581341 1_555
F39 Li10 1.887192 1_555
F39 Ti1 1.995292 1_556
F39 Na11 2.423803 1_556
F39 Na7 2.581341 1_555
F40 Li0 1.887192 1_555
F40 Ti0 1.995292 1_555
F40 Na11 2.423803 1_555
F40 Na10 2.581341 1_555
F41 Li2 1.887190 1_554
F41 Ti4 1.995294 1_565
F41 Na8 2.423793 1_555
F41 Na6 2.581347 1_565
F42 Li3 1.887182 1_555
F42 Ti5 1.995297 1_655
F42 Na7 2.423803 1_655
F42 Na9 2.581348 1_555
F43 Li0 1.887192 1_555
F43 Ti6 1.995292 1_555
F43 Na11 2.423803 1_555
F43 Na8 2.581341 1_555
F44 Li5 1.887192 1_556
F44 Ti7 1.995292 1_666
F44 Na4 2.423803 1_555
F44 Na0 2.581341 1_555
F45 Li1 1.887182 1_555
F45 Ti6 1.995297 1_655
F45 Na2 2.423803 1_554
F45 Na1 2.581348 1_555
F46 Li8 1.887192 1_555
F46 Ti5 1.995292 1_665
F46 Na5 2.423803 1_555
F46 Na1 2.581341 1_555
F47 Li6 1.887190 1_655
F47 Ti6 1.995294 1_655
F47 Na1 2.423793 1_555
F47 Na4 2.581347 1_554
