# generated using pymatgen
data_ThScFe6
_symmetry_space_group_name_H-M   'P 1'
_cell_length_a   5.07717556
_cell_length_b   5.07717522
_cell_length_c   16.63114307
_cell_angle_alpha   98.74987630
_cell_angle_beta   98.74987742
_cell_angle_gamma   59.99395522
_symmetry_Int_Tables_number   1
_chemical_formula_structural   ThScFe6
_chemical_formula_sum   'Th3 Sc3 Fe18'
_cell_volume   365.48160159
_cell_formula_units_Z   3
loop_
 _symmetry_equiv_pos_site_id
 _symmetry_equiv_pos_as_xyz
  1  'x, y, z'
loop_
 _atom_site_type_symbol
 _atom_site_label
 _atom_site_symmetry_multiplicity
 _atom_site_fract_x
 _atom_site_fract_y
 _atom_site_fract_z
 _atom_site_occupancy
  Th  Th0  1  0.57086032  0.57085912  0.71238736  1
  Th  Th1  1  0.00152241  0.00152216  0.00441498  1
  Th  Th2  1  0.49626979  0.49626977  0.48889991  1
  Sc  Sc0  1  0.42724853  0.42724931  0.28203831  1
  Sc  Sc1  1  0.93027625  0.93027504  0.79111102  1
  Sc  Sc2  1  0.07227959  0.07228069  0.21684639  1
  Fe  Fe0  1  0.45634273  0.95716839  0.37092063  1
  Fe  Fe1  1  0.95969781  0.45891381  0.87763729  1
  Fe  Fe2  1  0.95715038  0.95715116  0.37089283  1
  Fe  Fe3  1  0.45910068  0.45909955  0.87765585  1
  Fe  Fe4  1  0.95716795  0.45634324  0.37092063  1
  Fe  Fe5  1  0.45891476  0.95969692  0.87763733  1
  Fe  Fe6  1  0.04334325  0.54282630  0.12889633  1
  Fe  Fe7  1  0.54015722  0.04144027  0.62290686  1
  Fe  Fe8  1  0.54288073  0.54288157  0.12891209  1
  Fe  Fe9  1  0.04136648  0.04136545  0.62290145  1
  Fe  Fe10  1  0.54282589  0.04334380  0.12889634  1
  Fe  Fe11  1  0.04144138  0.54015643  0.62290688  1
  Fe  Fe12  1  0.33483201  0.33483197  0.00389366  1
  Fe  Fe13  1  0.83276672  0.83276646  0.49798422  1
  Fe  Fe14  1  0.16539561  0.16539570  0.49651032  1
  Fe  Fe15  1  0.66732473  0.66732415  0.00216354  1
  Fe  Fe16  1  0.74990535  0.74990634  0.24983515  1
  Fe  Fe17  1  0.25093142  0.25093043  0.75282464  1
loop_
_geom_bond_atom_site_label_1
_geom_bond_atom_site_label_2
_geom_bond_distance
_geom_bond_site_symmetry_2
Sc1 Th0 3.201701 1_555
Sc1 Th0 3.202274 1_565
Sc1 Th0 3.202274 1_655
Sc1 Th1 3.492337 1_666
Fe0 Fe16 2.466563 1_555
Fe0 Fe14 2.523361 1_565
Fe0 Fe4 2.534167 1_465
Fe0 Fe2 2.534461 1_455
Fe0 Fe4 2.542545 1_555
Fe0 Fe2 2.542715 1_555
Fe0 Fe13 2.546992 1_555
Fe0 Sc2 2.916428 1_565
Fe0 Sc0 2.925324 1_565
Fe0 Sc0 2.926900 1_555
Fe0 Th2 3.188794 1_555
Fe0 Th2 3.191053 1_565
Fe1 Fe15 2.511945 1_556
Fe1 Fe17 2.513077 1_655
Fe1 Fe12 2.533610 1_656
Fe1 Fe5 2.534380 1_645
Fe1 Fe3 2.535981 1_655
Fe1 Fe3 2.541195 1_555
Fe1 Fe5 2.542331 1_555
Fe1 Sc1 2.906074 1_555
Fe1 Sc1 2.908169 1_545
Fe1 Th0 3.078289 1_555
Fe1 Th1 3.277776 1_656
Fe1 Th1 3.280537 1_666
Fe2 Fe4 2.534460 1_565
Fe2 Fe4 2.542715 1_555
Fe2 Sc2 2.915479 1_665
Fe2 Sc0 2.925686 1_565
Fe2 Sc0 2.925686 1_655
Fe2 Th2 3.190011 1_565
Fe2 Th2 3.190015 1_655
Fe3 Fe5 2.535980 1_545
Fe3 Fe5 2.541195 1_555
Fe3 Sc1 2.907066 1_455
Fe3 Sc1 2.907066 1_545
Fe3 Th0 3.077303 1_555
Fe3 Th1 3.278783 1_656
Fe3 Th1 3.278787 1_566
Fe4 Sc2 2.916427 1_655
Fe4 Sc0 2.925324 1_655
Fe4 Sc0 2.926901 1_555
Fe4 Th2 3.188793 1_555
Fe4 Th2 3.191054 1_655
Fe5 Sc1 2.906075 1_555
Fe5 Sc1 2.908169 1_455
Fe5 Th0 3.078290 1_555
Fe5 Th1 3.277777 1_566
Fe5 Th1 3.280535 1_666
Fe6 Fe8 2.536340 1_555
Fe6 Fe8 2.540836 1_455
Fe6 Sc0 2.903572 1_555
Fe6 Sc2 2.918110 1_555
Fe6 Sc2 2.918992 1_565
Fe6 Th1 3.254738 1_565
Fe6 Th1 3.256238 1_555
Fe7 Fe9 2.532624 1_555
Fe7 Fe9 2.544551 1_655
Fe7 Th0 2.930183 1_545
Fe7 Th0 2.931812 1_555
Fe7 Sc1 3.121507 1_545
Fe7 Th2 3.354014 1_555
Fe7 Th2 3.356647 1_545
Fe8 Sc0 2.903329 1_555
Fe8 Sc2 2.918222 1_655
Fe8 Sc2 2.918223 1_565
Fe8 Th1 3.255466 1_565
Fe8 Th1 3.255470 1_655
Fe9 Th0 2.930838 1_455
Fe9 Th0 2.930839 1_545
Fe9 Sc1 3.121001 1_445
Fe9 Th2 3.355098 1_545
Fe9 Th2 3.355102 1_455
Fe10 Fe16 2.464178 1_545
Fe10 Fe12 2.516420 1_555
Fe10 Fe6 2.535729 1_555
Fe10 Fe8 2.536340 1_555
Fe10 Fe8 2.540835 1_545
Fe10 Fe6 2.540983 1_645
Fe10 Fe15 2.541822 1_545
Fe10 Sc0 2.903573 1_555
Fe10 Sc2 2.918112 1_555
Fe10 Sc2 2.918990 1_655
Fe10 Th1 3.254739 1_655
Fe10 Th1 3.256237 1_555
Fe11 Fe13 2.518161 1_455
Fe11 Fe7 2.531837 1_555
Fe11 Fe9 2.532626 1_555
Fe11 Fe14 2.534415 1_555
Fe11 Fe9 2.544550 1_565
Fe11 Fe7 2.544874 1_465
Fe11 Fe17 2.580725 1_555
Fe11 Th0 2.930184 1_455
Fe11 Th0 2.931812 1_555
Fe11 Sc1 3.121506 1_455
Fe11 Th2 3.354012 1_555
Fe11 Th2 3.356650 1_455
Fe12 Fe6 2.516422 1_555
Fe12 Fe8 2.516784 1_555
Fe12 Fe3 2.531427 1_554
Fe12 Fe5 2.533611 1_544
Fe12 Fe15 2.929194 1_555
Fe12 Th1 2.930485 1_565
Fe12 Th1 2.930486 1_655
Fe12 Fe15 2.932437 1_455
Fe12 Fe15 2.932439 1_545
Fe12 Th1 2.932725 1_555
Fe13 Fe7 2.518159 1_565
Fe13 Fe9 2.518429 1_665
Fe13 Fe2 2.544872 1_555
Fe13 Fe4 2.546990 1_555
Fe13 Fe14 2.929609 1_665
Fe13 Fe14 2.932173 1_655
Fe13 Fe14 2.932175 1_565
Fe13 Th2 2.934260 1_655
Fe13 Th2 2.934261 1_565
Fe13 Th2 2.936450 1_555
Fe14 Fe4 2.523362 1_455
Fe14 Fe2 2.524751 1_445
Fe14 Fe9 2.532526 1_555
Fe14 Fe7 2.534417 1_555
Fe14 Th2 2.933475 1_455
Fe14 Th2 2.933475 1_545
Fe14 Th2 2.934649 1_555
Fe15 Fe3 2.511759 1_554
Fe15 Fe5 2.511944 1_554
Fe15 Fe8 2.540006 1_555
Fe15 Fe6 2.541819 1_655
Fe15 Th1 2.930848 1_655
Fe15 Th1 2.930850 1_565
Fe15 Th1 2.932655 1_665
Fe16 Fe6 2.464180 1_655
Fe16 Fe8 2.464319 1_555
Fe16 Fe4 2.466564 1_555
Fe16 Fe2 2.467009 1_555
Fe16 Sc0 2.978082 1_565
Fe16 Sc0 2.978084 1_655
Fe16 Sc0 2.978617 1_555
Fe16 Sc2 2.980480 1_655
Fe16 Sc2 2.980481 1_565
Fe16 Sc2 2.980733 1_665
Fe17 Fe5 2.513078 1_545
Fe17 Fe3 2.515226 1_555
Fe17 Fe7 2.580725 1_555
Fe17 Fe9 2.581951 1_555
Fe17 Sc1 2.997237 1_455
Fe17 Sc1 2.997238 1_545
Fe17 Sc1 2.998014 1_445
Fe17 Th0 3.004851 1_455
Fe17 Th0 3.004852 1_545
Fe17 Th0 3.005471 1_555
