# generated using pymatgen
data_Ni3(PbSe)2
_symmetry_space_group_name_H-M   'P 1'
_cell_length_a   5.71269919
_cell_length_b   5.71269919
_cell_length_c   5.85983309
_cell_angle_alpha   60.82717824
_cell_angle_beta   60.82717824
_cell_angle_gamma   60.00000938
_symmetry_Int_Tables_number   1
_chemical_formula_structural   Ni3(PbSe)2
_chemical_formula_sum   'Ni3 Pb2 Se2'
_cell_volume   136.88984003
_cell_formula_units_Z   1
loop_
 _symmetry_equiv_pos_site_id
 _symmetry_equiv_pos_as_xyz
  1  'x, y, z'
loop_
 _atom_site_type_symbol
 _atom_site_label
 _atom_site_symmetry_multiplicity
 _atom_site_fract_x
 _atom_site_fract_y
 _atom_site_fract_z
 _atom_site_occupancy
  Ni  Ni0  1  0.00000000  0.00000000  0.50000000  1
  Ni  Ni1  1  0.00000000  0.50000000  0.50000000  1
  Ni  Ni2  1  0.50000000  0.00000000  0.50000000  1
  Pb  Pb0  1  0.00000000  0.00000000  0.00000000  1
  Pb  Pb1  1  0.50000000  0.50000000  0.50000000  1
  Se  Se0  1  0.72263800  0.72263800  0.83208600  1
  Se  Se1  1  0.27736200  0.27736200  0.16791400  1
loop_
_geom_bond_atom_site_label_1
_geom_bond_atom_site_label_2
_geom_bond_distance
_geom_bond_site_symmetry_2
Ni0 Se0 2.303627 1_445
Ni0 Se1 2.303627 1_555
Ni0 Pb1 2.856350 1_545
Ni0 Pb1 2.856350 1_455
Ni0 Pb0 2.929917 1_556
Ni0 Pb0 2.929917 1_555
Ni1 Se0 2.303627 1_455
Ni1 Se1 2.303627 1_555
Ni1 Pb1 2.856350 1_455
Ni1 Pb1 2.856350 1_555
Ni1 Pb0 2.929917 1_556
Ni1 Pb0 2.929917 1_565
Ni2 Se0 2.303627 1_545
Ni2 Se1 2.303627 1_555
Ni2 Pb1 2.856350 1_545
Ni2 Pb1 2.856350 1_555
Ni2 Pb0 2.929917 1_556
Ni2 Pb0 2.929917 1_655
Pb1 Se0 3.235030 1_554
Pb1 Se1 3.235030 1_556
