# generated using pymatgen
data_U4Ga20Pt11
_symmetry_space_group_name_H-M   'P 1'
_cell_length_a   4.18602400
_cell_length_b   10.96583582
_cell_length_c   13.80031646
_cell_angle_alpha   83.00799373
_cell_angle_beta   81.27662650
_cell_angle_gamma   78.99663663
_symmetry_Int_Tables_number   1
_chemical_formula_structural   U4Ga20Pt11
_chemical_formula_sum   'U4 Ga20 Pt11'
_cell_volume   611.82343865
_cell_formula_units_Z   1
loop_
 _symmetry_equiv_pos_site_id
 _symmetry_equiv_pos_as_xyz
  1  'x, y, z'
loop_
 _atom_site_type_symbol
 _atom_site_label
 _atom_site_symmetry_multiplicity
 _atom_site_fract_x
 _atom_site_fract_y
 _atom_site_fract_z
 _atom_site_occupancy
  U  U0  1  0.12134800  0.09141500  0.66588900  1
  U  U1  1  0.87865200  0.90858500  0.33411100  1
  U  U2  1  0.77473200  0.63085900  0.81967600  1
  U  U3  1  0.22526800  0.36914100  0.18032400  1
  Ga  Ga0  1  0.00701700  0.07210100  0.91386600  1
  Ga  Ga1  1  0.99298300  0.92789900  0.08613400  1
  Ga  Ga2  1  0.06528700  0.67084500  0.19858100  1
  Ga  Ga3  1  0.93471300  0.32915500  0.80141900  1
  Ga  Ga4  1  0.10206100  0.34221700  0.45366000  1
  Ga  Ga5  1  0.89793900  0.65778300  0.54634000  1
  Ga  Ga6  1  0.20063700  0.60650800  0.99221800  1
  Ga  Ga7  1  0.79936300  0.39349200  0.00778200  1
  Ga  Ga8  1  0.25561900  0.78337400  0.70538800  1
  Ga  Ga9  1  0.74438100  0.21662600  0.29461200  1
  Ga  Ga10  1  0.30120000  0.90054000  0.49706000  1
  Ga  Ga11  1  0.69880000  0.09946000  0.50294000  1
  Ga  Ga12  1  0.38769000  0.52661800  0.69800200  1
  Ga  Ga13  1  0.61231000  0.47338200  0.30199800  1
  Ga  Ga14  1  0.39766000  0.20682000  0.99786000  1
  Ga  Ga15  1  0.60234000  0.79318000  0.00214000  1
  Ga  Ga16  1  0.54396000  0.28649500  0.62558500  1
  Ga  Ga17  1  0.45604000  0.71350500  0.37441500  1
  Ga  Ga18  1  0.63436200  0.93441900  0.79685800  1
  Ga  Ga19  1  0.36563800  0.06558100  0.20314200  1
  Pt  Pt0  1  0.50000000  0.50000000  0.50000000  1
  Pt  Pt1  1  0.02758700  0.57370600  0.37112000  1
  Pt  Pt2  1  0.97241300  0.42629400  0.62888000  1
  Pt  Pt3  1  0.13585500  0.83479900  0.89349100  1
  Pt  Pt4  1  0.86414500  0.16520100  0.10650900  1
  Pt  Pt5  1  0.24143800  0.12805200  0.38907100  1
  Pt  Pt6  1  0.75856200  0.87194800  0.61092900  1
  Pt  Pt7  1  0.34476800  0.42015500  0.89030900  1
  Pt  Pt8  1  0.65523200  0.57984500  0.10969100  1
  Pt  Pt9  1  0.50634100  0.17273500  0.81458400  1
  Pt  Pt10  1  0.49365900  0.82726500  0.18541600  1
loop_
_geom_bond_atom_site_label_1
_geom_bond_atom_site_label_2
_geom_bond_distance
_geom_bond_site_symmetry_2
Ga0 Pt3 2.595738 1_545
Ga0 Pt9 2.666010 1_555
Ga0 Pt9 2.666010 1_455
Ga0 Pt4 2.900550 1_456
Ga0 U0 3.369055 1_555
Ga1 Pt4 2.595738 1_565
Ga1 Pt10 2.666010 1_655
Ga1 Pt10 2.666010 1_555
Ga1 Pt3 2.900550 1_654
Ga1 U1 3.369055 1_555
Ga2 Pt1 2.482310 1_555
Ga2 Pt8 2.652842 1_555
Ga2 Pt8 2.652842 1_455
Ga2 Pt10 2.681436 1_555
Ga2 Pt10 2.681439 1_455
Ga2 U3 3.280808 1_555
Ga2 U1 3.297202 1_455
Ga3 Pt2 2.482310 1_555
Ga3 Pt7 2.652842 1_655
Ga3 Pt7 2.652842 1_555
Ga3 Pt9 2.681436 1_555
Ga3 Pt9 2.681439 1_655
Ga3 U2 3.280808 1_555
Ga3 U0 3.297202 1_655
Ga4 Pt5 2.545426 1_555
Ga4 Pt1 2.634420 1_555
Ga4 Pt2 2.635421 1_455
Ga4 Pt0 2.805386 1_455
Ga4 Pt0 2.805389 1_555
Ga5 Pt6 2.545426 1_555
Ga5 Pt2 2.634420 1_555
Ga5 Pt1 2.635421 1_655
Ga5 Pt0 2.805386 1_655
Ga5 Pt0 2.805389 1_555
Ga6 Pt7 2.547457 1_555
Ga6 Pt8 2.634926 1_456
Ga6 Pt8 2.634926 1_556
Ga6 Pt3 2.686893 1_555
Ga6 U2 3.141782 1_555
Ga6 U2 3.141784 1_455
Ga6 U3 3.443595 1_556
Ga7 Pt8 2.547457 1_555
Ga7 Pt7 2.634926 1_654
Ga7 Pt7 2.634926 1_554
Ga7 Pt4 2.686893 1_555
Ga7 U3 3.141782 1_555
Ga7 U3 3.141784 1_655
Ga7 U2 3.443595 1_554
Ga8 Pt6 2.591325 1_455
Ga8 Pt6 2.591328 1_555
Ga8 Pt3 2.676128 1_555
Ga8 U2 3.002795 1_555
Ga8 U2 3.002798 1_455
Ga8 U0 3.308069 1_565
Ga9 Pt5 2.591325 1_655
Ga9 Pt5 2.591328 1_555
Ga9 Pt4 2.676128 1_555
Ga9 U3 3.002795 1_555
Ga9 U3 3.002798 1_655
Ga9 U1 3.308069 1_545
Ga10 Pt6 2.607023 1_455
Ga10 Pt6 2.607027 1_555
Ga10 Pt5 2.734498 1_565
Ga10 Ga17 2.737938 1_555
Ga10 Ga8 2.996770 1_555
Ga10 Ga11 3.000802 1_465
Ga10 Ga11 3.000802 1_565
Ga10 U1 3.048267 1_555
Ga10 U1 3.048267 1_455
Ga10 U0 3.229547 1_565
Ga11 Pt5 2.607023 1_655
Ga11 Pt5 2.607027 1_555
Ga11 Pt6 2.734498 1_545
Ga11 Ga16 2.737938 1_555
Ga11 Ga9 2.996770 1_555
Ga11 U0 3.048267 1_655
Ga11 U0 3.048267 1_555
Ga11 U1 3.229547 1_545
Ga12 Pt2 2.575005 1_555
Ga12 Pt2 2.575005 1_455
Ga12 Pt0 2.743148 1_555
Ga12 Pt7 2.760348 1_555
Ga12 Ga8 2.775230 1_555
Ga12 U2 2.958137 1_555
Ga12 U2 2.958140 1_455
Ga13 Pt1 2.575005 1_655
Ga13 Pt1 2.575005 1_555
Ga13 Pt0 2.743148 1_555
Ga13 Pt8 2.760348 1_555
Ga13 Ga9 2.775230 1_555
Ga13 U3 2.958137 1_555
Ga13 U3 2.958140 1_655
Ga14 Pt9 2.561266 1_555
Ga14 Pt4 2.578929 1_556
Ga14 Pt4 2.578929 1_456
Ga14 Pt7 2.604105 1_555
Ga14 U3 3.174813 1_556
Ga15 Pt10 2.561266 1_555
Ga15 Pt3 2.578929 1_654
Ga15 Pt3 2.578929 1_554
Ga15 Pt8 2.604105 1_555
Ga15 U2 3.174813 1_554
Ga16 Pt2 2.580730 1_455
Ga16 Pt2 2.580730 1_555
Ga16 Pt0 2.731928 1_555
Ga16 Pt9 2.746303 1_555
Ga16 U0 2.978537 1_555
Ga16 U0 2.978537 1_655
Ga17 Pt1 2.580730 1_655
Ga17 Pt1 2.580730 1_555
Ga17 Pt0 2.731928 1_555
Ga17 Pt10 2.746303 1_555
Ga17 U1 2.978537 1_555
Ga17 U1 2.978537 1_455
Ga18 Pt9 2.599579 1_565
Ga18 Pt3 2.645325 1_655
Ga18 Pt3 2.645329 1_555
Ga18 Pt6 2.685269 1_555
Ga18 Ga8 2.994823 1_655
Ga18 Ga8 2.994826 1_555
Ga18 U0 3.138596 1_665
Ga18 U0 3.138599 1_565
Ga18 U2 3.252618 1_555
Ga19 Pt10 2.599579 1_545
Ga19 Pt4 2.645325 1_455
Ga19 Pt4 2.645329 1_555
Ga19 Pt5 2.685269 1_555
Ga19 Ga9 2.994823 1_455
Ga19 Ga9 2.994826 1_555
Ga19 U1 3.138596 1_445
Ga19 U1 3.138599 1_545
Ga19 U3 3.252618 1_555
Pt3 U2 3.261352 1_555
Pt3 U2 3.261355 1_455
Pt4 U3 3.261352 1_555
Pt4 U3 3.261355 1_655
Pt5 U1 3.295810 1_445
Pt5 U1 3.295813 1_545
Pt6 U0 3.295810 1_665
Pt6 U0 3.295813 1_565
Pt7 U2 3.167836 1_555
Pt7 U2 3.167839 1_455
Pt8 U3 3.167836 1_555
Pt8 U3 3.167839 1_655
Pt9 U0 3.098466 1_655
Pt9 U0 3.098469 1_555
Pt10 U1 3.098466 1_455
Pt10 U1 3.098469 1_555
