# generated using pymatgen
data_Sr3Ca5Mn8O24
_symmetry_space_group_name_H-M   'P 1'
_cell_length_a   7.66734800
_cell_length_b   7.66737800
_cell_length_c   7.66734800
_cell_angle_alpha   90.00000000
_cell_angle_beta   90.00000000
_cell_angle_gamma   90.00000000
_symmetry_Int_Tables_number   1
_chemical_formula_structural   Sr3Ca5Mn8O24
_chemical_formula_sum   'Sr3 Ca5 Mn8 O24'
_cell_volume   450.75154573
_cell_formula_units_Z   1
loop_
 _symmetry_equiv_pos_site_id
 _symmetry_equiv_pos_as_xyz
  1  'x, y, z'
loop_
 _atom_site_type_symbol
 _atom_site_label
 _atom_site_symmetry_multiplicity
 _atom_site_fract_x
 _atom_site_fract_y
 _atom_site_fract_z
 _atom_site_occupancy
  Sr  Sr0  1  0.25000000  0.25000000  0.25000000  1
  Sr  Sr1  1  0.25000000  0.25000000  0.75000000  1
  Sr  Sr2  1  0.75000000  0.25000000  0.25000000  1
  Ca  Ca0  1  0.25000000  0.75000000  0.25000000  1
  Ca  Ca1  1  0.25000000  0.75000000  0.75000000  1
  Ca  Ca2  1  0.75000000  0.25000000  0.75000000  1
  Ca  Ca3  1  0.75000000  0.75000000  0.25000000  1
  Ca  Ca4  1  0.75000000  0.75000000  0.75000000  1
  Mn  Mn0  1  0.99956100  0.99872600  0.99956100  1
  Mn  Mn1  1  0.99956100  0.99872600  0.50043900  1
  Mn  Mn2  1  0.99956100  0.50127400  0.99956100  1
  Mn  Mn3  1  0.99956100  0.50127400  0.50043900  1
  Mn  Mn4  1  0.50043900  0.99872600  0.99956100  1
  Mn  Mn5  1  0.50043900  0.99872600  0.50043900  1
  Mn  Mn6  1  0.50043900  0.50127400  0.99956100  1
  Mn  Mn7  1  0.50043900  0.50127400  0.50043900  1
  O  O0  1  0.99983100  0.99571000  0.25000000  1
  O  O1  1  0.99797500  0.99767200  0.75000000  1
  O  O2  1  0.99983100  0.50429000  0.25000000  1
  O  O3  1  0.99797500  0.50232800  0.75000000  1
  O  O4  1  0.50016900  0.99571000  0.25000000  1
  O  O5  1  0.50202500  0.99767200  0.75000000  1
  O  O6  1  0.50016900  0.50429000  0.25000000  1
  O  O7  1  0.50202500  0.50232800  0.75000000  1
  O  O8  1  0.25000000  0.99571000  0.99983100  1
  O  O9  1  0.25000000  0.99571000  0.50016900  1
  O  O10  1  0.25000000  0.50429000  0.99983100  1
  O  O11  1  0.25000000  0.50429000  0.50016900  1
  O  O12  1  0.75000000  0.99767200  0.99797500  1
  O  O13  1  0.75000000  0.99767200  0.50202500  1
  O  O14  1  0.75000000  0.50232800  0.99797500  1
  O  O15  1  0.75000000  0.50232800  0.50202500  1
  O  O16  1  0.99790900  0.25000000  0.99790900  1
  O  O17  1  0.99790900  0.25000000  0.50209100  1
  O  O18  1  0.99986000  0.75000000  0.99986000  1
  O  O19  1  0.99986000  0.75000000  0.50014000  1
  O  O20  1  0.50209100  0.25000000  0.99790900  1
  O  O21  1  0.50209100  0.25000000  0.50209100  1
  O  O22  1  0.50014000  0.75000000  0.99986000  1
  O  O23  1  0.50014000  0.75000000  0.50014000  1
loop_
_geom_bond_atom_site_label_1
_geom_bond_atom_site_label_2
_geom_bond_distance
_geom_bond_site_symmetry_2
Ca0 O6 2.688588 1_555
Ca0 O11 2.688588 1_555
Ca0 O4 2.688588 1_555
Ca0 O9 2.688588 1_555
Ca0 O10 2.688588 1_554
Ca0 O2 2.688588 1_455
Ca0 O8 2.688588 1_554
Ca0 O0 2.688588 1_455
Ca0 O18 2.712335 1_454
Ca0 O22 2.712335 1_554
Ca0 O19 2.712335 1_455
Ca0 O23 2.712335 1_555
Ca1 O10 2.686740 1_555
Ca1 O8 2.686740 1_555
Ca1 O11 2.686740 1_555
Ca1 O9 2.686740 1_555
Ca1 O5 2.709282 1_555
Ca1 O7 2.709282 1_555
Ca1 O1 2.709282 1_455
Ca1 O3 2.709282 1_455
Ca1 O19 2.710817 1_455
Ca1 O23 2.710817 1_555
Ca1 O18 2.710817 1_455
Ca1 O22 2.710817 1_555
Ca2 O16 2.688144 1_555
Ca2 O17 2.688144 1_555
Ca2 O20 2.688144 1_555
Ca2 O21 2.688144 1_555
Ca2 O12 2.712568 1_545
Ca2 O14 2.712568 1_555
Ca2 O1 2.712568 1_545
Ca2 O3 2.712568 1_555
Ca2 O15 2.712568 1_555
Ca2 O7 2.712568 1_555
Ca2 O5 2.712568 1_545
Ca2 O13 2.712568 1_545
Ca3 O2 2.686740 1_555
Ca3 O0 2.686740 1_555
Ca3 O6 2.686740 1_555
Ca3 O4 2.686740 1_555
Ca3 O15 2.709282 1_555
Ca3 O13 2.709282 1_555
Ca3 O14 2.709282 1_554
Ca3 O12 2.709282 1_554
Ca3 O22 2.710817 1_554
Ca3 O18 2.710817 1_554
Ca3 O23 2.710817 1_555
Ca3 O19 2.710817 1_555
Ca4 O14 2.687222 1_555
Ca4 O12 2.687222 1_555
Ca4 O3 2.687222 1_555
Ca4 O1 2.687222 1_555
Ca4 O7 2.687222 1_555
Ca4 O13 2.687222 1_555
Ca4 O15 2.687222 1_555
Ca4 O5 2.687222 1_555
Ca4 O23 2.709299 1_555
Ca4 O22 2.709299 1_555
Ca4 O19 2.709299 1_555
Ca4 O18 2.709299 1_555
Mn0 O18 1.907079 1_555
Mn0 O12 1.913527 1_555
Mn0 O1 1.913527 1_555
Mn0 O8 1.920343 1_655
Mn0 O0 1.920343 1_556
Mn0 O16 1.926696 1_565
Mn1 O19 1.907079 1_555
Mn1 O13 1.913527 1_555
Mn1 O1 1.913527 1_555
Mn1 O0 1.920343 1_555
Mn1 O9 1.920343 1_655
Mn1 O17 1.926696 1_565
Mn2 O18 1.907079 1_555
Mn2 O3 1.913527 1_555
Mn2 O14 1.913527 1_555
Mn2 O10 1.920343 1_655
Mn2 O2 1.920343 1_556
Mn2 O16 1.926696 1_555
Mn3 O19 1.907079 1_555
Mn3 O15 1.913527 1_555
Mn3 O3 1.913527 1_555
Mn3 O2 1.920343 1_555
Mn3 O11 1.920343 1_655
Mn3 O17 1.926696 1_555
Mn4 O22 1.907079 1_555
Mn4 O5 1.913527 1_555
Mn4 O12 1.913527 1_555
Mn4 O8 1.920343 1_555
Mn4 O4 1.920343 1_556
Mn4 O20 1.926696 1_565
Mn5 O23 1.907079 1_555
Mn5 O5 1.913527 1_555
Mn5 O13 1.913527 1_555
Mn5 O9 1.920343 1_555
Mn5 O4 1.920343 1_555
Mn5 O21 1.926696 1_565
Mn6 O22 1.907079 1_555
Mn6 O7 1.913527 1_555
Mn6 O14 1.913527 1_555
Mn6 O10 1.920343 1_555
Mn6 O6 1.920343 1_556
Mn6 O20 1.926696 1_555
Mn7 O23 1.907079 1_555
Mn7 O15 1.913527 1_555
Mn7 O7 1.913527 1_555
Mn7 O11 1.920343 1_555
Mn7 O6 1.920343 1_555
Mn7 O21 1.926696 1_555
O0 Sr2 2.733272 1_565
O0 Sr0 2.735089 1_665
O1 Sr1 2.734423 1_665
O2 Sr2 2.733272 1_555
O2 Sr0 2.735089 1_655
O3 Sr1 2.734423 1_655
O4 Sr2 2.733272 1_565
O4 Sr0 2.735089 1_565
O5 Sr1 2.734423 1_565
O6 Sr2 2.733272 1_555
O6 Sr0 2.735089 1_555
O7 Sr1 2.734423 1_555
O8 Sr1 2.733272 1_565
O8 Sr0 2.735089 1_566
O9 Sr1 2.733272 1_565
O9 Sr0 2.735089 1_565
O10 Sr1 2.733272 1_555
O10 Sr0 2.735089 1_556
O11 Sr1 2.733272 1_555
O11 Sr0 2.735089 1_555
O12 Sr2 2.734423 1_566
O13 Sr2 2.734423 1_565
O14 Sr2 2.734423 1_556
O15 Sr2 2.734423 1_555
O16 Sr2 2.710912 1_556
O16 Sr1 2.710912 1_655
O16 Sr0 2.733490 1_656
O17 Sr2 2.710912 1_555
O17 Sr1 2.710912 1_655
O17 Sr0 2.733490 1_655
O20 Sr1 2.710912 1_555
O20 Sr2 2.710912 1_556
O20 Sr0 2.733490 1_556
O21 Sr1 2.710912 1_555
O21 Sr2 2.710912 1_555
O21 Sr0 2.733490 1_555
