# generated using pymatgen
data_La2Ni2O5
_symmetry_space_group_name_H-M   'P 1'
_cell_length_a   5.60134674
_cell_length_b   5.60134674
_cell_length_c   7.55809818
_cell_angle_alpha   85.75092971
_cell_angle_beta   85.75092971
_cell_angle_gamma   90.66536237
_symmetry_Int_Tables_number   1
_chemical_formula_structural   La2Ni2O5
_chemical_formula_sum   'La4 Ni4 O10'
_cell_volume   235.79930380
_cell_formula_units_Z   2
loop_
 _symmetry_equiv_pos_site_id
 _symmetry_equiv_pos_as_xyz
  1  'x, y, z'
loop_
 _atom_site_type_symbol
 _atom_site_label
 _atom_site_symmetry_multiplicity
 _atom_site_fract_x
 _atom_site_fract_y
 _atom_site_fract_z
 _atom_site_occupancy
  La  La0  1  0.51649200  0.97772500  0.25139800  1
  La  La1  1  0.02227500  0.48350800  0.24860200  1
  La  La2  1  0.48350800  0.02227500  0.74860200  1
  La  La3  1  0.97772500  0.51649200  0.75139800  1
  Ni  Ni0  1  0.50000000  0.50000000  0.50000000  1
  Ni  Ni1  1  0.50000000  0.50000000  0.00000000  1
  Ni  Ni2  1  0.00000000  0.00000000  0.50000000  1
  Ni  Ni3  1  0.00000000  0.00000000  0.00000000  1
  O  O0  1  0.93901400  0.06098600  0.25000000  1
  O  O1  1  0.06098600  0.93901400  0.75000000  1
  O  O2  1  0.23126100  0.69467200  0.45521400  1
  O  O3  1  0.30532800  0.76873900  0.04478600  1
  O  O4  1  0.76873900  0.30532800  0.54478600  1
  O  O5  1  0.69467200  0.23126100  0.95521400  1
  O  O6  1  0.31436100  0.22771800  0.46106300  1
  O  O7  1  0.77228200  0.68563900  0.03893700  1
  O  O8  1  0.22771800  0.31436100  0.96106300  1
  O  O9  1  0.68563900  0.77228200  0.53893700  1
loop_
_geom_bond_atom_site_label_1
_geom_bond_atom_site_label_2
_geom_bond_distance
_geom_bond_site_symmetry_2
La0 O3 2.391723 1_555
La0 O0 2.405988 1_565
La0 O6 2.419437 1_565
La0 O2 2.579511 1_555
La0 O9 2.627691 1_555
La0 O5 2.681248 1_564
La0 O7 2.722312 1_555
La1 O2 2.391723 1_555
La1 O0 2.405988 1_455
La1 O7 2.419437 1_455
La1 O3 2.579511 1_555
La1 O8 2.627691 1_554
La1 O4 2.681248 1_455
La1 O6 2.722312 1_555
La2 O5 2.391723 1_555
La2 O1 2.405988 1_545
La2 O9 2.419437 1_545
La2 O4 2.579511 1_555
La2 O6 2.627691 1_555
La2 O3 2.681248 1_546
La2 O8 2.722312 1_555
La3 O4 2.391723 1_555
La3 O1 2.405988 1_655
La3 O8 2.419437 1_655
La3 O5 2.579511 1_555
La3 O7 2.627691 1_556
La3 O2 2.681248 1_655
La3 O9 2.722312 1_555
Ni0 O9 1.889165 1_555
Ni0 O6 1.889165 1_555
Ni0 O4 1.904854 1_555
Ni0 O2 1.904854 1_555
Ni1 O7 1.889165 1_555
Ni1 O8 1.889165 1_554
Ni1 O3 1.904854 1_555
Ni1 O5 1.904854 1_554
Ni2 O1 1.951000 1_545
Ni2 O0 1.951000 1_455
Ni2 O6 2.151645 1_555
Ni2 O9 2.151645 1_445
Ni2 O4 2.188557 1_455
Ni2 O2 2.188557 1_545
Ni3 O0 1.951000 1_455
Ni3 O1 1.951000 1_544
Ni3 O8 2.151645 1_554
Ni3 O7 2.151645 1_445
Ni3 O5 2.188557 1_454
Ni3 O3 2.188557 1_545
