# generated using pymatgen
data_Cr8FeCo2CuS16
_symmetry_space_group_name_H-M   'P 1'
_cell_length_a   12.06439793
_cell_length_b   12.06439793
_cell_length_c   12.06439793
_cell_angle_alpha   33.70521164
_cell_angle_beta   33.70521164
_cell_angle_gamma   33.70520928
_symmetry_Int_Tables_number   1
_chemical_formula_structural   Cr8FeCo2CuS16
_chemical_formula_sum   'Cr8 Fe1 Co2 Cu1 S16'
_cell_volume   481.75544017
_cell_formula_units_Z   1
loop_
 _symmetry_equiv_pos_site_id
 _symmetry_equiv_pos_as_xyz
  1  'x, y, z'
loop_
 _atom_site_type_symbol
 _atom_site_label
 _atom_site_symmetry_multiplicity
 _atom_site_fract_x
 _atom_site_fract_y
 _atom_site_fract_z
 _atom_site_occupancy
  Cr  Cr0  1  0.74901100  0.74901100  0.74901100  1
  Cr  Cr1  1  0.25011600  0.25011600  0.25011600  1
  Cr  Cr2  1  0.99785900  0.50126500  0.50126500  1
  Cr  Cr3  1  0.49795400  0.00132000  0.00132000  1
  Cr  Cr4  1  0.50126500  0.99785900  0.50126500  1
  Cr  Cr5  1  0.00132000  0.49795400  0.00132000  1
  Cr  Cr6  1  0.50126500  0.50126500  0.99785900  1
  Cr  Cr7  1  0.00132000  0.00132000  0.49795400  1
  Fe  Fe0  1  0.43752200  0.43752200  0.43752200  1
  Co  Co0  1  0.56217200  0.56217200  0.56217200  1
  Co  Co1  1  0.93775200  0.93775200  0.93775200  1
  Cu  Cu0  1  0.06245600  0.06245600  0.06245600  1
  S  S0  1  0.12925000  0.12925000  0.12925000  1
  S  S1  1  0.62762700  0.62762700  0.62762700  1
  S  S2  1  0.39461400  0.86303100  0.86303100  1
  S  S3  1  0.89005600  0.36628400  0.36628400  1
  S  S4  1  0.86303100  0.39461400  0.86303100  1
  S  S5  1  0.36628400  0.89005600  0.36628400  1
  S  S6  1  0.86303100  0.86303100  0.39461400  1
  S  S7  1  0.36628400  0.36628400  0.89005600  1
  S  S8  1  0.37141700  0.37141700  0.37141700  1
  S  S9  1  0.87202400  0.87202400  0.87202400  1
  S  S10  1  0.10787700  0.63539000  0.63539000  1
  S  S11  1  0.60962500  0.13404600  0.13404600  1
  S  S12  1  0.63539000  0.10787700  0.63539000  1
  S  S13  1  0.13404600  0.60962500  0.13404600  1
  S  S14  1  0.63539000  0.63539000  0.10787700  1
  S  S15  1  0.13404600  0.13404600  0.60962500  1
loop_
_geom_bond_atom_site_label_1
_geom_bond_atom_site_label_2
_geom_bond_distance
_geom_bond_site_symmetry_2
Cr0 S4 2.375350 1_555
Cr0 S2 2.375350 1_555
Cr0 S6 2.375350 1_555
Cr0 S10 2.424945 1_655
Cr0 S12 2.424945 1_565
Cr0 S14 2.424945 1_556
Cr1 S13 2.405359 1_555
Cr1 S11 2.405359 1_555
Cr1 S15 2.405359 1_555
Cr1 S5 2.409882 1_545
Cr1 S3 2.409882 1_455
Cr1 S7 2.409882 1_554
Cr2 S6 2.382652 1_555
Cr2 S4 2.382653 1_555
Cr2 S1 2.409753 1_555
Cr2 S8 2.410186 1_655
Cr2 S15 2.421251 1_655
Cr2 S13 2.421251 1_655
Cr3 S0 2.380905 1_555
Cr3 S7 2.406042 1_554
Cr3 S5 2.406042 1_545
Cr3 S14 2.411731 1_545
Cr3 S12 2.411731 1_554
Cr3 S9 2.419966 1_544
Cr4 S6 2.382652 1_555
Cr4 S2 2.382653 1_555
Cr4 S1 2.409753 1_555
Cr4 S8 2.410186 1_565
Cr4 S15 2.421251 1_565
Cr4 S11 2.421251 1_565
Cr5 S0 2.380905 1_555
Cr5 S7 2.406042 1_554
Cr5 S3 2.406042 1_455
Cr5 S14 2.411731 1_455
Cr5 S10 2.411731 1_554
Cr5 S9 2.419966 1_454
Cr6 S4 2.382652 1_555
Cr6 S2 2.382652 1_555
Cr6 S1 2.409753 1_555
Cr6 S8 2.410186 1_556
Cr6 S11 2.421251 1_556
Cr6 S13 2.421251 1_556
Cr7 S0 2.380905 1_555
Cr7 S3 2.406042 1_455
Cr7 S5 2.406042 1_545
Cr7 S10 2.411731 1_545
Cr7 S12 2.411731 1_455
Cr7 S9 2.419966 1_445
Fe0 S8 2.254509 1_555
Fe0 S10 2.259061 1_555
Fe0 S12 2.259061 1_555
Fe0 S14 2.259061 1_555
Co0 S1 2.232341 1_555
Co0 S5 2.236575 1_555
Co0 S3 2.236575 1_555
Co0 S7 2.236575 1_555
Co1 S13 2.241161 1_656
Co1 S11 2.241161 1_566
Co1 S15 2.241161 1_665
Co1 S9 2.241652 1_555
Cu0 S4 2.276835 1_454
Cu0 S2 2.276835 1_544
Cu0 S6 2.276835 1_445
Cu0 S0 2.278007 1_555
