# generated using pymatgen
data_CaAl2H12(CO7)2
_symmetry_space_group_name_H-M   'P 1'
_cell_length_a   5.71819094
_cell_length_b   6.56980842
_cell_length_c   14.56620421
_cell_angle_alpha   82.18935313
_cell_angle_beta   83.75260476
_cell_angle_gamma   86.38985040
_symmetry_Int_Tables_number   1
_chemical_formula_structural   CaAl2H12(CO7)2
_chemical_formula_sum   'Ca2 Al4 H24 C4 O28'
_cell_volume   538.27311527
_cell_formula_units_Z   2
loop_
 _symmetry_equiv_pos_site_id
 _symmetry_equiv_pos_as_xyz
  1  'x, y, z'
loop_
 _atom_site_type_symbol
 _atom_site_label
 _atom_site_symmetry_multiplicity
 _atom_site_fract_x
 _atom_site_fract_y
 _atom_site_fract_z
 _atom_site_occupancy
  Ca  Ca0  1  0.68522800  0.89314500  0.39581800  1
  Ca  Ca1  1  0.31477200  0.10685500  0.60418200  1
  Al  Al0  1  0.54870700  0.80395900  0.79872200  1
  Al  Al1  1  0.45129300  0.19604100  0.20127800  1
  Al  Al2  1  0.04587100  0.80331300  0.79807600  1
  Al  Al3  1  0.95412900  0.19668700  0.20192400  1
  H  H0  1  0.76166000  0.07244500  0.86276200  1
  H  H1  1  0.23834000  0.92755500  0.13723800  1
  H  H2  1  0.82543900  0.20300400  0.49320600  1
  H  H3  1  0.17456100  0.79699600  0.50679400  1
  H  H4  1  0.60800600  0.32268000  0.45013800  1
  H  H5  1  0.39199400  0.67732000  0.54986200  1
  H  H6  1  0.71951600  0.89645200  0.18123700  1
  H  H7  1  0.28048400  0.10354800  0.81876300  1
  H  H8  1  0.59909600  0.49178000  0.31461300  1
  H  H9  1  0.40090400  0.50822000  0.68538700  1
  H  H10  1  0.38016600  0.58163300  0.37676100  1
  H  H11  1  0.61983400  0.41836700  0.62323900  1
  H  H12  1  0.05313200  0.57815600  0.30066200  1
  H  H13  1  0.94686800  0.42184400  0.69933800  1
  H  H14  1  0.13611000  0.80212600  0.28314800  1
  H  H15  1  0.86389000  0.19787400  0.71685200  1
  H  H16  1  0.34935800  0.25251300  0.95131600  1
  H  H17  1  0.65064200  0.74748700  0.04868400  1
  H  H18  1  0.08589800  0.27006200  0.92179800  1
  H  H19  1  0.91410200  0.72993800  0.07820200  1
  H  H20  1  0.79370500  0.50030500  0.86032800  1
  H  H21  1  0.20629500  0.49969500  0.13967200  1
  H  H22  1  0.30478700  0.49060900  0.82739300  1
  H  H23  1  0.69521300  0.50939100  0.17260700  1
  C  C0  1  0.84203600  0.82985900  0.61971000  1
  C  C1  1  0.15796400  0.17014100  0.38029000  1
  C  C2  1  0.24859600  0.75913700  0.97305400  1
  C  C3  1  0.75140400  0.24086300  0.02694600  1
  O  O0  1  0.87552100  0.79932200  0.53429800  1
  O  O1  1  0.12447900  0.20067800  0.46570200  1
  O  O2  1  0.63081500  0.84877000  0.66209500  1
  O  O3  1  0.36918500  0.15123000  0.33790500  1
  O  O4  1  0.02546200  0.84517700  0.66473000  1
  O  O5  1  0.97453800  0.15482300  0.33527000  1
  O  O6  1  0.06622700  0.77166500  0.92617800  1
  O  O7  1  0.93377300  0.22833500  0.07382200  1
  O  O8  1  0.46250400  0.77136500  0.93146100  1
  O  O9  1  0.53749600  0.22863500  0.06853900  1
  O  O10  1  0.21425500  0.73485900  0.06248900  1
  O  O11  1  0.78574500  0.26514100  0.93751100  1
  O  O12  1  0.80829700  0.61038200  0.80656200  1
  O  O13  1  0.19170300  0.38961800  0.19343800  1
  O  O14  1  0.77996700  0.99841800  0.80722600  1
  O  O15  1  0.22003300  0.00158200  0.19277400  1
  O  O16  1  0.70829200  0.00163400  0.22555600  1
  O  O17  1  0.29170800  0.99836600  0.77444400  1
  O  O18  1  0.31711300  0.61728700  0.78015700  1
  O  O19  1  0.68288700  0.38271300  0.21984300  1
  O  O20  1  0.65076600  0.19657600  0.49223600  1
  O  O21  1  0.34923400  0.80342400  0.50776400  1
  O  O22  1  0.55279600  0.55794000  0.37330200  1
  O  O23  1  0.44720400  0.44206000  0.62669800  1
  O  O24  1  0.06810200  0.69685400  0.33374600  1
  O  O25  1  0.93189800  0.30314600  0.66625400  1
  O  O26  1  0.25731800  0.27312400  0.89708800  1
  O  O27  1  0.74268200  0.72687600  0.10291300  1
loop_
_geom_bond_atom_site_label_1
_geom_bond_atom_site_label_2
_geom_bond_distance
_geom_bond_site_symmetry_2
Ca0 O0 2.384969 1_555
Ca0 O21 2.428421 1_555
Ca0 O22 2.447701 1_555
Ca0 O5 2.469558 1_565
Ca0 O16 2.477168 1_565
Ca0 O3 2.531731 1_565
Ca0 O20 2.576147 1_565
Ca0 O24 2.608508 1_655
Ca1 O1 2.384969 1_555
Ca1 O20 2.428421 1_555
Ca1 O23 2.447701 1_555
Ca1 O4 2.469558 1_545
Ca1 O17 2.477168 1_545
Ca1 O2 2.531731 1_545
Ca1 O21 2.576147 1_545
Ca1 O25 2.608508 1_455
Al0 O12 1.895654 1_555
Al0 O17 1.915710 1_555
Al0 O14 1.920321 1_555
Al0 O18 1.924465 1_555
Al0 O8 1.928884 1_555
Al0 O2 1.980543 1_555
Al1 O13 1.895654 1_555
Al1 O16 1.915710 1_555
Al1 O15 1.920321 1_555
Al1 O19 1.924465 1_555
Al1 O9 1.928884 1_555
Al1 O3 1.980543 1_555
Al2 O6 1.864768 1_555
Al2 O12 1.898712 1_455
Al2 O18 1.930624 1_555
Al2 O14 1.931206 1_455
Al2 O17 1.933493 1_555
Al2 O4 1.939604 1_555
Al3 O7 1.864768 1_555
Al3 O13 1.898712 1_655
Al3 O19 1.930624 1_555
Al3 O15 1.931206 1_655
Al3 O16 1.933493 1_555
Al3 O5 1.939604 1_555
H0 O14 0.991956 1_545
H1 O15 0.991956 1_565
H2 O20 1.004070 1_555
H2 O1 1.712893 1_655
H3 O21 1.004070 1_555
H3 O0 1.712893 1_455
H4 O20 0.995603 1_555
H5 O21 0.995603 1_555
H6 O16 1.002511 1_565
H7 O17 1.002511 1_545
H8 O22 1.013449 1_555
H9 O23 1.013449 1_555
H10 O22 0.986485 1_555
H11 O23 0.986485 1_555
H12 O24 0.983471 1_555
H13 O25 0.983471 1_555
H14 O24 1.002850 1_555
H15 O25 1.002850 1_555
H16 O26 0.985748 1_555
H17 O27 0.985760 1_555
H18 O26 1.007224 1_555
H19 O27 1.007227 1_555
H20 O12 0.991335 1_555
H21 O13 0.991335 1_555
H22 O18 1.006088 1_555
H23 O19 1.006088 1_555
C0 O0 1.279033 1_555
C0 O2 1.301940 1_555
C0 O4 1.311948 1_655
C1 O1 1.279033 1_555
C1 O3 1.301940 1_555
C1 O5 1.311948 1_455
C2 O10 1.285649 1_556
C2 O6 1.299754 1_555
C2 O8 1.306716 1_555
C3 O11 1.285649 1_554
C3 O7 1.299754 1_555
C3 O9 1.306716 1_555
