# generated using pymatgen
data_Pr4(YS2)11
_symmetry_space_group_name_H-M   'P 1'
_cell_length_a   19.79394592
_cell_length_b   19.79394592
_cell_length_c   11.43486741
_cell_angle_alpha   88.44857272
_cell_angle_beta   88.44857272
_cell_angle_gamma   11.52366947
_symmetry_Int_Tables_number   1
_chemical_formula_structural   Pr4(YS2)11
_chemical_formula_sum   'Pr4 Y11 S22'
_cell_volume   894.68726119
_cell_formula_units_Z   1
loop_
 _symmetry_equiv_pos_site_id
 _symmetry_equiv_pos_as_xyz
  1  'x, y, z'
loop_
 _atom_site_type_symbol
 _atom_site_label
 _atom_site_symmetry_multiplicity
 _atom_site_fract_x
 _atom_site_fract_y
 _atom_site_fract_z
 _atom_site_occupancy
  Pr  Pr0  1  0.10463900  0.10463900  0.98805700  1
  Pr  Pr1  1  0.89536100  0.89536100  0.01194300  1
  Pr  Pr2  1  0.36690900  0.36690900  0.65263600  1
  Pr  Pr3  1  0.63309100  0.63309100  0.34736400  1
  Y  Y0  1  0.79787000  0.79787000  0.94158200  1
  Y  Y1  1  0.20213000  0.20213000  0.05841800  1
  Y  Y2  1  0.46158000  0.46158000  0.72948400  1
  Y  Y3  1  0.53842000  0.53842000  0.27051600  1
  Y  Y4  1  0.65769500  0.65769500  0.69870400  1
  Y  Y5  1  0.34230400  0.34230400  0.30129600  1
  Y  Y6  1  0.26361300  0.26361300  0.64826800  1
  Y  Y7  1  0.73638700  0.73638700  0.35173200  1
  Y  Y8  1  0.06975900  0.06975900  0.63964700  1
  Y  Y9  1  0.93024100  0.93024100  0.36035300  1
  Y  Y10  1  0.00000000  0.00000000  0.00000000  1
  S  S0  1  0.08807000  0.08807000  0.24665800  1
  S  S1  1  0.91193000  0.91193000  0.75334200  1
  S  S2  1  0.18884100  0.18884100  0.30884600  1
  S  S3  1  0.81115900  0.81115900  0.69115400  1
  S  S4  1  0.28023500  0.28023500  0.41120500  1
  S  S5  1  0.71976500  0.71976500  0.58879500  1
  S  S6  1  0.44464000  0.44464000  0.50660200  1
  S  S7  1  0.55536000  0.55536000  0.49339800  1
  S  S8  1  0.13491500  0.13491500  0.54545000  1
  S  S9  1  0.86508500  0.86508500  0.45455000  1
  S  S10  1  0.59290500  0.59290500  0.78875800  1
  S  S11  1  0.40709500  0.40709500  0.21124200  1
  S  S12  1  0.45268100  0.45268100  0.96972700  1
  S  S13  1  0.54731900  0.54731900  0.03027300  1
  S  S14  1  0.35064300  0.35064300  0.90767400  1
  S  S15  1  0.64935700  0.64935700  0.09232600  1
  S  S16  1  0.16840000  0.16840000  0.84965900  1
  S  S17  1  0.83160000  0.83160000  0.15034100  1
  S  S18  1  0.00781500  0.00781500  0.76090500  1
  S  S19  1  0.99218500  0.99218500  0.23909500  1
  S  S20  1  0.25491400  0.25491400  0.88091300  1
  S  S21  1  0.74508600  0.74508600  0.11908700  1
loop_
_geom_bond_atom_site_label_1
_geom_bond_atom_site_label_2
_geom_bond_distance
_geom_bond_site_symmetry_2
Pr0 S15 2.930380 1_546
Pr0 S15 2.930380 1_456
Pr0 S16 2.931789 1_555
Pr0 S0 3.010836 1_556
Pr0 S13 3.036428 1_456
Pr0 S13 3.036428 1_546
Pr0 S10 3.068140 1_545
Pr0 S10 3.068140 1_455
Pr1 S14 2.930380 1_564
Pr1 S14 2.930380 1_654
Pr1 S17 2.931789 1_555
Pr1 S1 3.010836 1_554
Pr1 S12 3.036428 1_654
Pr1 S12 3.036428 1_564
Pr1 S11 3.068140 1_565
Pr1 S11 3.068140 1_655
Pr2 S1 2.920729 1_545
Pr2 S1 2.920729 1_455
Pr2 S14 2.968795 1_555
Pr2 S3 2.985319 1_455
Pr2 S3 2.985319 1_545
Pr2 S9 3.015550 1_455
Pr2 S9 3.015550 1_545
Pr2 S6 3.447320 1_555
Pr3 S0 2.920729 1_565
Pr3 S0 2.920729 1_655
Pr3 S15 2.968795 1_555
Pr3 S2 2.985319 1_565
Pr3 S2 2.985319 1_655
Pr3 S8 3.015550 1_565
Pr3 S8 3.015550 1_655
Pr3 S7 3.447320 1_555
S0 Y3 2.796194 1_545
S0 Y3 2.796194 1_455
S1 Y2 2.796194 1_655
S1 Y2 2.796194 1_565
S2 Y7 2.783256 1_545
S2 Y7 2.783256 1_455
S2 Y1 2.897010 1_555
S3 Y6 2.783256 1_655
S3 Y6 2.783256 1_565
S3 Y0 2.897010 1_555
S4 Y5 2.718308 1_555
S4 Y7 2.730956 1_545
S4 Y7 2.730956 1_455
S4 Y6 2.771354 1_555
S5 Y4 2.718343 1_555
S5 Y6 2.730956 1_565
S5 Y6 2.730956 1_655
S5 Y7 2.771354 1_555
S6 Y2 2.652026 1_555
S6 Y9 2.668125 1_545
S6 Y9 2.668125 1_455
S7 Y3 2.652026 1_555
S7 Y8 2.668125 1_565
S7 Y8 2.668125 1_655
S8 Y8 2.756076 1_555
S8 Y4 2.812577 1_455
S8 Y4 2.812577 1_545
S9 Y9 2.756076 1_555
S9 Y5 2.812590 1_655
S9 Y5 2.812590 1_565
S10 Y4 2.725763 1_555
S10 Y8 2.787812 1_565
S10 Y8 2.787812 1_655
S11 Y5 2.725799 1_555
S11 Y9 2.787812 1_545
S11 Y9 2.787812 1_455
S12 Y10 2.752741 1_566
S12 Y10 2.752741 1_656
S12 Y2 2.759940 1_555
S13 Y10 2.752741 1_655
S13 Y10 2.752741 1_565
S13 Y3 2.759940 1_555
S14 Y0 2.894137 1_455
S14 Y0 2.894137 1_545
S15 Y1 2.894137 1_655
S15 Y1 2.894137 1_565
S16 Y4 2.673181 1_545
S16 Y4 2.673181 1_455
S16 Y1 2.763341 1_556
S17 Y5 2.673174 1_565
S17 Y5 2.673174 1_655
S17 Y0 2.763341 1_554
S18 Y2 2.725804 1_545
S18 Y2 2.725804 1_455
S18 Y10 2.742957 1_556
S18 Y8 2.773318 1_555
S19 Y3 2.725804 1_565
S19 Y3 2.725804 1_655
S19 Y10 2.742957 1_665
S19 Y9 2.773318 1_555
S20 Y6 2.672976 1_555
S20 Y0 2.712332 1_455
S20 Y0 2.712332 1_545
S20 Y1 2.865773 1_556
S21 Y7 2.672976 1_555
S21 Y1 2.712332 1_565
S21 Y1 2.712332 1_655
S21 Y0 2.865773 1_554
