# generated using pymatgen
data_Li7Mn2(CoO4)3
_symmetry_space_group_name_H-M   'P 1'
_cell_length_a   5.14660524
_cell_length_b   5.14660524
_cell_length_c   14.97580950
_cell_angle_alpha   78.88884516
_cell_angle_beta   78.88884516
_cell_angle_gamma   33.49287507
_symmetry_Int_Tables_number   1
_chemical_formula_structural   Li7Mn2(CoO4)3
_chemical_formula_sum   'Li7 Mn2 Co3 O12'
_cell_volume   214.41848623
_cell_formula_units_Z   1
loop_
 _symmetry_equiv_pos_site_id
 _symmetry_equiv_pos_as_xyz
  1  'x, y, z'
loop_
 _atom_site_type_symbol
 _atom_site_label
 _atom_site_symmetry_multiplicity
 _atom_site_fract_x
 _atom_site_fract_y
 _atom_site_fract_z
 _atom_site_occupancy
  Li  Li0  1  0.75352500  0.75352500  0.91604400  1
  Li  Li1  1  0.25311800  0.25311800  0.73692600  1
  Li  Li2  1  0.74469900  0.74469900  0.58328600  1
  Li  Li3  1  0.24646400  0.24646400  0.41858200  1
  Li  Li4  1  0.75180100  0.75180100  0.25325500  1
  Li  Li5  1  0.24781800  0.24781800  0.08978200  1
  Li  Li6  1  0.00570400  0.00570400  0.66267000  1
  Mn  Mn0  1  0.99602500  0.99602500  0.00248100  1
  Mn  Mn1  1  0.50335500  0.50335500  0.82718100  1
  Co  Co0  1  0.49821700  0.49821700  0.50621000  1
  Co  Co1  1  0.99834000  0.99834000  0.33588700  1
  Co  Co2  1  0.50014100  0.50014100  0.16916500  1
  O  O0  1  0.10894800  0.10894800  0.87719500  1
  O  O1  1  0.62424000  0.62424000  0.71856300  1
  O  O2  1  0.11252900  0.11252900  0.53701600  1
  O  O3  1  0.61107900  0.61107900  0.38174500  1
  O  O4  1  0.11552300  0.11552300  0.21353100  1
  O  O5  1  0.61168100  0.61168100  0.04341300  1
  O  O6  1  0.38523900  0.38523900  0.95621800  1
  O  O7  1  0.89407800  0.89407800  0.79648600  1
  O  O8  1  0.38202700  0.38202700  0.61109500  1
  O  O9  1  0.88509300  0.88509300  0.45311600  1
  O  O10  1  0.38638300  0.38638300  0.28846100  1
  O  O11  1  0.88397300  0.88397300  0.12169300  1
loop_
_geom_bond_atom_site_label_1
_geom_bond_atom_site_label_2
_geom_bond_distance
_geom_bond_site_symmetry_2
Li0 O7 2.031430 1_555
Li0 O5 2.125959 1_556
Li0 O6 2.135627 1_655
Li0 O6 2.135627 1_565
Li0 O0 2.214050 1_565
Li0 O0 2.214050 1_655
Li1 O1 2.007233 1_545
Li1 O1 2.007233 1_455
Li1 O8 2.049823 1_555
Li1 O0 2.287040 1_555
Li1 O7 2.328924 1_455
Li1 O7 2.328924 1_545
Li2 O8 2.105144 1_655
Li2 O8 2.105144 1_565
Li2 O1 2.132084 1_555
Li2 O9 2.151589 1_555
Li2 O2 2.177094 1_565
Li2 O2 2.177094 1_655
Li3 O2 1.986500 1_555
Li3 O3 2.140199 1_545
Li3 O3 2.140199 1_455
Li3 O10 2.148865 1_555
Li3 O9 2.148971 1_455
Li3 O9 2.148971 1_545
Li4 O10 2.125614 1_655
Li4 O10 2.125614 1_565
Li4 O11 2.132129 1_555
Li4 O3 2.133622 1_555
Li4 O4 2.163081 1_655
Li4 O4 2.163081 1_565
Li5 O4 2.040151 1_555
Li5 O11 2.118171 1_455
Li5 O11 2.118171 1_545
Li5 O6 2.178331 1_554
Li5 O5 2.203839 1_455
Li5 O5 2.203839 1_545
Li6 O2 1.962712 1_555
Li6 O7 2.083057 1_445
Li6 O1 2.158340 1_455
Li6 O1 2.158340 1_545
Li6 O8 2.158860 1_545
Li6 O8 2.158860 1_455
Mn0 O11 1.900915 1_555
Mn0 O0 1.979561 1_664
Mn0 O5 2.038541 1_655
Mn0 O5 2.038541 1_565
Mn0 O6 2.043529 1_654
Mn0 O6 2.043529 1_564
Mn1 O1 1.812618 1_555
Mn1 O7 1.941603 1_545
Mn1 O7 1.941603 1_455
Mn1 O0 2.038895 1_655
Mn1 O0 2.038895 1_565
Mn1 O6 2.045531 1_555
Co0 O8 1.747788 1_555
Co0 O3 1.969085 1_555
Co0 O2 1.972477 1_655
Co0 O2 1.972477 1_565
Co0 O9 2.105095 1_455
Co0 O9 2.105095 1_545
Co1 O9 1.881318 1_555
Co1 O4 1.959554 1_665
Co1 O3 2.052488 1_655
Co1 O3 2.052488 1_565
Co1 O10 2.058335 1_565
Co1 O10 2.058335 1_655
Co2 O10 1.908598 1_555
Co2 O5 1.980390 1_555
Co2 O4 2.058657 1_565
Co2 O4 2.058657 1_655
Co2 O11 2.084042 1_455
Co2 O11 2.084042 1_545
