# generated using pymatgen
data_Nb2FeS4
_symmetry_space_group_name_H-M   'P 1'
_cell_length_a   3.34503587
_cell_length_b   3.34503587
_cell_length_c   11.82861900
_cell_angle_alpha   90.00000000
_cell_angle_beta   90.00000000
_cell_angle_gamma   119.99999739
_symmetry_Int_Tables_number   1
_chemical_formula_structural   Nb2FeS4
_chemical_formula_sum   'Nb2 Fe1 S4'
_cell_volume   114.62154139
_cell_formula_units_Z   1
loop_
 _symmetry_equiv_pos_site_id
 _symmetry_equiv_pos_as_xyz
  1  'x, y, z'
loop_
 _atom_site_type_symbol
 _atom_site_label
 _atom_site_symmetry_multiplicity
 _atom_site_fract_x
 _atom_site_fract_y
 _atom_site_fract_z
 _atom_site_occupancy
  Nb  Nb0  1  0.00000000  0.00000000  0.25654600  1
  Nb  Nb1  1  0.00000000  0.00000000  0.74345400  1
  Fe  Fe0  1  0.00000000  0.00000000  0.50000000  1
  S  S0  1  0.33333300  0.66666700  0.87612300  1
  S  S1  1  0.66666700  0.33333300  0.12387700  1
  S  S2  1  0.66666700  0.33333300  0.39551800  1
  S  S3  1  0.33333300  0.66666700  0.60448200  1
loop_
_geom_bond_atom_site_label_1
_geom_bond_atom_site_label_2
_geom_bond_distance
_geom_bond_site_symmetry_2
Nb0 S1 2.488458 1_455
Nb0 S1 2.488460 1_555
Nb0 S1 2.488460 1_445
Nb0 S2 2.536135 1_455
Nb0 S2 2.536137 1_555
Nb0 S2 2.536137 1_445
Nb1 S0 2.488458 1_545
Nb1 S0 2.488460 1_445
Nb1 S0 2.488460 1_555
Nb1 S3 2.536135 1_545
Nb1 S3 2.536137 1_555
Nb1 S3 2.536137 1_445
Fe0 S3 2.292846 1_545
Fe0 S2 2.292846 1_455
Fe0 S3 2.292848 1_555
Fe0 S3 2.292848 1_445
Fe0 S2 2.292848 1_555
Fe0 S2 2.292848 1_445
