# generated using pymatgen
data_Al3PH29(SO14)2
_symmetry_space_group_name_H-M   'P 1'
_cell_length_a   10.60489878
_cell_length_b   11.09175441
_cell_length_c   11.27502969
_cell_angle_alpha   85.50216605
_cell_angle_beta   64.91234321
_cell_angle_gamma   74.71839824
_symmetry_Int_Tables_number   1
_chemical_formula_structural   Al3PH29(SO14)2
_chemical_formula_sum   'Al6 P2 H58 S4 O56'
_cell_volume   1157.81627115
_cell_formula_units_Z   2
loop_
 _symmetry_equiv_pos_site_id
 _symmetry_equiv_pos_as_xyz
  1  'x, y, z'
loop_
 _atom_site_type_symbol
 _atom_site_label
 _atom_site_symmetry_multiplicity
 _atom_site_fract_x
 _atom_site_fract_y
 _atom_site_fract_z
 _atom_site_occupancy
  Al  Al0  1  0.74559600  0.38317100  0.97302700  1
  Al  Al1  1  0.25440400  0.61682900  0.02697300  1
  Al  Al2  1  0.73027400  0.37992900  0.67019000  1
  Al  Al3  1  0.26972600  0.62007100  0.32981000  1
  Al  Al4  1  0.44613800  0.05910900  0.90582500  1
  Al  Al5  1  0.55386200  0.94089100  0.09417500  1
  P  P0  1  0.48211600  0.33868900  0.94184000  1
  P  P1  1  0.51788400  0.66131100  0.05816000  1
  H  H0  1  0.91338200  0.37376400  0.74411200  1
  H  H1  1  0.08661800  0.62623600  0.25588800  1
  H  H2  1  0.10236900  0.80284600  0.95158900  1
  H  H3  1  0.89763100  0.19715400  0.04841100  1
  H  H4  1  0.93916700  0.16421600  0.89779000  1
  H  H5  1  0.06083300  0.83578400  0.10221000  1
  H  H6  1  0.30459800  0.54812500  0.78787500  1
  H  H7  1  0.69540200  0.45187500  0.21212500  1
  H  H8  1  0.34420500  0.67937000  0.77572800  1
  H  H9  1  0.65579500  0.32063000  0.22427200  1
  H  H10  1  0.00661100  0.40843000  0.90285200  1
  H  H11  1  0.99338900  0.59157000  0.09714800  1
  H  H12  1  0.89605300  0.54334300  0.91540400  1
  H  H13  1  0.10394700  0.45665700  0.08459600  1
  H  H14  1  0.87182800  0.49594000  0.47330400  1
  H  H15  1  0.12817200  0.50406000  0.52669600  1
  H  H16  1  0.98672800  0.36641100  0.47513500  1
  H  H17  1  0.01327200  0.63358900  0.52486500  1
  H  H18  1  0.82887600  0.16951200  0.53381800  1
  H  H19  1  0.17112400  0.83048800  0.46618200  1
  H  H20  1  0.85203200  0.13642500  0.66614300  1
  H  H21  1  0.14796800  0.86357500  0.33385700  1
  H  H22  1  0.73034800  0.61535700  0.67419200  1
  H  H23  1  0.26965200  0.38464300  0.32580800  1
  H  H24  1  0.59011600  0.58639600  0.79206200  1
  H  H25  1  0.40988400  0.41360400  0.20793800  1
  H  H26  1  0.53101700  0.40263700  0.59769500  1
  H  H27  1  0.46898300  0.59736300  0.40230500  1
  H  H28  1  0.65749800  0.44245200  0.47458100  1
  H  H29  1  0.34250200  0.55754800  0.52541900  1
  H  H30  1  0.71811800  0.99296800  0.86064700  1
  H  H31  1  0.28188200  0.00703200  0.13935300  1
  H  H32  1  0.47832500  0.14776300  0.68218500  1
  H  H33  1  0.52167500  0.85223700  0.31781500  1
  H  H34  1  0.60838100  0.01860200  0.65699200  1
  H  H35  1  0.39161900  0.98139800  0.34300800  1
  H  H36  1  0.23308100  0.20539300  0.86957200  1
  H  H37  1  0.76691900  0.79460700  0.13042800  1
  H  H38  1  0.21598300  0.06624300  0.87557400  1
  H  H39  1  0.78401700  0.93375700  0.12442600  1
  H  H40  1  0.43310300  0.87185900  0.77219000  1
  H  H41  1  0.56689700  0.12814100  0.22781000  1
  H  H42  1  0.42364800  0.82693200  0.91362500  1
  H  H43  1  0.57635200  0.17306800  0.08637500  1
  H  H44  1  0.93216100  0.74509100  0.85504700  1
  H  H45  1  0.06783900  0.25490900  0.14495300  1
  H  H46  1  0.77217600  0.72799300  0.92485700  1
  H  H47  1  0.22782400  0.27200700  0.07514300  1
  H  H48  1  0.76238100  0.95507800  0.47631400  1
  H  H49  1  0.23761900  0.04492200  0.52368600  1
  H  H50  1  0.68052700  0.16831900  0.35903000  1
  H  H51  1  0.31947300  0.83168100  0.64097000  1
  H  H52  1  0.51425100  0.23464100  0.41999100  1
  H  H53  1  0.48574900  0.76535900  0.58000900  1
  H  H54  1  0.85482700  0.70913300  0.71323700  1
  H  H55  1  0.14517300  0.29086700  0.28676300  1
  H  H56  1  0.80667300  0.78106200  0.60042200  1
  H  H57  1  0.19332700  0.21893800  0.39957800  1
  S  S0  1  0.04224100  0.95496300  0.74672100  1
  S  S1  1  0.95775900  0.04503700  0.25327900  1
  S  S2  1  0.25909200  0.35622100  0.67110900  1
  S  S3  1  0.74090800  0.64377900  0.32889100  1
  O  O0  1  0.41473300  0.22728500  0.95946400  1
  O  O1  1  0.58526700  0.77271500  0.04053600  1
  O  O2  1  0.55876900  0.36276700  0.79617800  1
  O  O3  1  0.44123100  0.63723300  0.20382200  1
  O  O4  1  0.59206500  0.30814100  0.00568600  1
  O  O5  1  0.40793500  0.69185900  0.99431400  1
  O  O6  1  0.63815400  0.54653300  0.98269400  1
  O  O7  1  0.36184600  0.45346700  0.01730600  1
  O  O8  1  0.81563900  0.36324700  0.78779300  1
  O  O9  1  0.18436100  0.63675300  0.21220700  1
  O  O10  1  0.86911900  0.22143600  0.97485400  1
  O  O11  1  0.13088100  0.77856400  0.02514600  1
  O  O12  1  0.30711000  0.61544400  0.83924100  1
  O  O13  1  0.69289000  0.38455600  0.16075900  1
  O  O14  1  0.90377100  0.45538400  0.94634700  1
  O  O15  1  0.09622900  0.54461600  0.05365300  1
  O  O16  1  0.88699300  0.42142400  0.52707800  1
  O  O17  1  0.11300700  0.57857600  0.47292200  1
  O  O18  1  0.82378200  0.20593400  0.61345600  1
  O  O19  1  0.17621800  0.79406600  0.38654400  1
  O  O20  1  0.65631800  0.56441600  0.70000900  1
  O  O21  1  0.34368200  0.43558400  0.29999100  1
  O  O22  1  0.63705900  0.38716700  0.55136400  1
  O  O23  1  0.36294100  0.61283300  0.44863600  1
  O  O24  1  0.61916800  0.99374200  0.92157700  1
  O  O25  1  0.38083200  0.00625800  0.07842300  1
  O  O26  1  0.53498100  0.09013900  0.72412200  1
  O  O27  1  0.46501900  0.90986100  0.27587800  1
  O  O28  1  0.25649200  0.12011100  0.90642800  1
  O  O29  1  0.74350800  0.87988900  0.09357200  1
  O  O30  1  0.44089100  0.89625300  0.85124600  1
  O  O31  1  0.55910900  0.10374700  0.14875400  1
  O  O32  1  0.90160700  0.00175000  0.73896600  1
  O  O33  1  0.09839300  0.99825000  0.26103400  1
  O  O34  1  0.04086900  0.84442100  0.83153000  1
  O  O35  1  0.95913100  0.15557900  0.16847000  1
  O  O36  1  0.07779900  0.05486600  0.79835300  1
  O  O37  1  0.92220100  0.94513400  0.20164700  1
  O  O38  1  0.16072300  0.91210400  0.61207400  1
  O  O39  1  0.83927700  0.08789600  0.38792600  1
  O  O40  1  0.18951100  0.33574400  0.81470700  1
  O  O41  1  0.81048800  0.66425600  0.18529300  1
  O  O42  1  0.33043800  0.46231700  0.65221200  1
  O  O43  1  0.66956200  0.53768300  0.34778800  1
  O  O44  1  0.37318800  0.24228000  0.60157800  1
  O  O45  1  0.62681200  0.75772000  0.39842200  1
  O  O46  1  0.14734700  0.39022400  0.61999600  1
  O  O47  1  0.85265300  0.60977600  0.38000400  1
  O  O48  1  0.87082300  0.68968900  0.85823600  1
  O  O49  1  0.12917700  0.31031100  0.14176400  1
  O  O50  1  0.72197500  0.91745800  0.56201300  1
  O  O51  1  0.27802500  0.08254200  0.43798700  1
  O  O52  1  0.59944200  0.21009900  0.33573700  1
  O  O53  1  0.40055800  0.78990100  0.66426300  1
  O  O54  1  0.84901000  0.69763500  0.62850400  1
  O  O55  1  0.15099000  0.30236500  0.37149600  1
loop_
_geom_bond_atom_site_label_1
_geom_bond_atom_site_label_2
_geom_bond_distance
_geom_bond_site_symmetry_2
Al0 O6 1.852227 1_555
Al0 O8 1.905991 1_555
Al0 O4 1.907070 1_556
Al0 O10 1.926895 1_555
Al0 O14 1.946368 1_555
Al0 O13 1.946868 1_556
Al1 O7 1.852227 1_555
Al1 O9 1.905991 1_555
Al1 O5 1.907070 1_554
Al1 O11 1.926895 1_555
Al1 O15 1.946368 1_555
Al1 O12 1.946868 1_554
Al2 O2 1.819689 1_555
Al2 O8 1.871673 1_555
Al2 O16 1.894806 1_555
Al2 O18 1.940102 1_555
Al2 O22 1.960364 1_555
Al2 O20 1.988404 1_555
Al3 O3 1.819689 1_555
Al3 O9 1.871673 1_555
Al3 O17 1.894806 1_555
Al3 O19 1.940102 1_555
Al3 O23 1.960364 1_555
Al3 O21 1.988404 1_555
Al4 O24 1.865258 1_545
Al4 O25 1.871512 1_556
Al4 O26 1.904424 1_555
Al4 O0 1.906549 1_555
Al4 O28 1.942808 1_555
Al4 O30 1.975117 1_545
Al5 O25 1.865258 1_565
Al5 O24 1.871512 1_554
Al5 O27 1.904424 1_555
Al5 O1 1.906549 1_555
Al5 O29 1.942808 1_555
Al5 O31 1.975117 1_565
H0 O8 0.975923 1_555
H1 O9 0.975923 1_555
H2 O11 0.993223 1_556
H2 O34 1.721241 1_555
H3 O10 0.993223 1_554
H3 O35 1.721241 1_555
H4 O10 1.000117 1_555
H4 O36 1.662847 1_655
H5 O11 1.000117 1_555
H5 O37 1.662847 1_455
H6 O12 0.992503 1_555
H6 O42 1.748152 1_555
H7 O13 0.992503 1_555
H7 O43 1.748152 1_555
H8 O12 0.999413 1_555
H9 O13 0.999413 1_555
H10 O14 0.994115 1_455
H11 O15 0.994115 1_655
H12 O14 1.004485 1_555
H13 O15 1.004485 1_555
H14 O16 1.005294 1_555
H14 O47 1.606227 1_555
H15 O17 1.005294 1_555
H15 O46 1.606227 1_555
H16 O16 1.012213 1_555
H16 O55 1.629825 1_655
H17 O17 1.012213 1_555
H17 O54 1.629825 1_455
H18 O18 0.988250 1_555
H19 O19 0.988250 1_555
H20 O18 0.997188 1_555
H21 O19 0.997188 1_555
H22 O20 1.017141 1_555
H22 O54 1.632083 1_555
H23 O21 1.017141 1_555
H23 O55 1.632083 1_555
H24 O20 0.980363 1_555
H25 O21 0.980363 1_555
H26 O22 0.990530 1_555
H27 O23 0.990530 1_555
H28 O22 1.000083 1_555
H28 O43 1.689713 1_555
H29 O23 1.000083 1_555
H29 O42 1.689713 1_555
H30 O24 0.978787 1_555
H31 O25 0.978787 1_555
H32 O26 0.992058 1_555
H33 O27 0.992058 1_555
H34 O26 1.037976 1_555
H34 O50 1.496209 1_545
H35 O27 1.037976 1_555
H35 O51 1.496209 1_565
H36 O28 1.015452 1_555
H36 O40 1.560938 1_555
H37 O29 1.015452 1_555
H37 O41 1.560935 1_555
H38 O28 0.978367 1_555
H39 O29 0.978367 1_555
H40 O30 0.993271 1_555
H41 O31 0.993271 1_555
H42 O30 0.999766 1_555
H42 O5 1.699795 1_555
H43 O31 0.999766 1_555
H43 O4 1.699795 1_555
H44 O48 0.994708 1_555
H44 O34 1.725590 1_655
H45 O49 0.994708 1_555
H45 O35 1.725590 1_455
H46 O48 0.994253 1_555
H47 O49 0.994253 1_555
H48 O50 0.985539 1_555
H49 O51 0.985539 1_555
H50 O52 0.992733 1_555
H51 O53 0.992733 1_555
H52 O52 0.987862 1_555
H53 O53 0.987862 1_555
H54 O54 1.003011 1_555
H55 O55 1.003011 1_555
H56 O54 1.006830 1_555
H56 O50 1.671499 1_555
H57 O55 1.006830 1_555
H57 O51 1.671499 1_555
O0 P0 1.543865 1_555
O1 P1 1.543865 1_555
O2 P0 1.530661 1_555
O3 P1 1.530661 1_555
O4 P0 1.567750 1_554
O5 P1 1.567750 1_556
O6 P1 1.537919 1_556
O7 P0 1.537919 1_554
O32 S0 1.482142 1_645
O33 S1 1.482142 1_465
O34 S0 1.493863 1_555
O35 S1 1.493863 1_555
O36 S0 1.488817 1_545
O37 S1 1.488817 1_565
O38 S0 1.513359 1_555
O39 S1 1.513359 1_555
O40 S2 1.494997 1_555
O41 S3 1.494996 1_555
O42 S2 1.515260 1_555
O43 S3 1.515260 1_555
O44 S2 1.490226 1_555
O45 S3 1.490226 1_555
O46 S2 1.479240 1_555
O47 S3 1.479240 1_555
