# generated using pymatgen
data_BaLuCo4O7
_symmetry_space_group_name_H-M   'P 1'
_cell_length_a   6.31003100
_cell_length_b   10.28391400
_cell_length_c   10.99559400
_cell_angle_alpha   90.00000000
_cell_angle_beta   90.00000000
_cell_angle_gamma   90.00000000
_symmetry_Int_Tables_number   1
_chemical_formula_structural   BaLuCo4O7
_chemical_formula_sum   'Ba4 Lu4 Co16 O28'
_cell_volume   713.52406421
_cell_formula_units_Z   4
loop_
 _symmetry_equiv_pos_site_id
 _symmetry_equiv_pos_as_xyz
  1  'x, y, z'
loop_
 _atom_site_type_symbol
 _atom_site_label
 _atom_site_symmetry_multiplicity
 _atom_site_fract_x
 _atom_site_fract_y
 _atom_site_fract_z
 _atom_site_occupancy
  Ba  Ba0  1  0.49339400  0.50244400  0.83617400  1
  Ba  Ba1  1  0.50660600  0.00244400  0.16382600  1
  Ba  Ba2  1  0.99339400  0.00244400  0.66382600  1
  Ba  Ba3  1  0.00660600  0.50244400  0.33617400  1
  Lu  Lu0  1  0.50280400  0.12733200  0.83008600  1
  Lu  Lu1  1  0.49719600  0.62733200  0.16991400  1
  Lu  Lu2  1  0.00280400  0.62733200  0.66991400  1
  Lu  Lu3  1  0.99719600  0.12733200  0.33008600  1
  Co  Co0  1  0.50048000  0.06081500  0.50068300  1
  Co  Co1  1  0.49952000  0.56081500  0.49931700  1
  Co  Co2  1  0.00048000  0.56081500  0.99931700  1
  Co  Co3  1  0.99952000  0.06081500  0.00068300  1
  Co  Co4  1  0.75768200  0.32007900  0.58299600  1
  Co  Co5  1  0.24231800  0.82007900  0.41700400  1
  Co  Co6  1  0.25768200  0.82007900  0.91700400  1
  Co  Co7  1  0.74231800  0.32007900  0.08299600  1
  Co  Co8  1  0.75473000  0.81538900  0.41090100  1
  Co  Co9  1  0.24527000  0.31538900  0.58909900  1
  Co  Co10  1  0.25473000  0.31538900  0.08909900  1
  Co  Co11  1  0.74527000  0.81538900  0.91090100  1
  Co  Co12  1  0.50148000  0.31720000  0.32729100  1
  Co  Co13  1  0.49852000  0.81720000  0.67270900  1
  Co  Co14  1  0.00148000  0.81720000  0.17270900  1
  Co  Co15  1  0.99852000  0.31720000  0.82729100  1
  O  O0  1  0.27519000  0.22120800  0.24435600  1
  O  O1  1  0.72481000  0.72120800  0.75564400  1
  O  O2  1  0.77519000  0.72120800  0.25564400  1
  O  O3  1  0.22481000  0.22120800  0.74435600  1
  O  O4  1  0.21883100  0.77896800  0.75270600  1
  O  O5  1  0.78116900  0.27896800  0.24729400  1
  O  O6  1  0.71883100  0.27896800  0.74729400  1
  O  O7  1  0.28116900  0.77896800  0.25270600  1
  O  O8  1  0.48985700  0.75927300  0.00639200  1
  O  O9  1  0.51014300  0.25927300  0.99360800  1
  O  O10  1  0.98985700  0.25927300  0.49360800  1
  O  O11  1  0.01014300  0.75927300  0.50639200  1
  O  O12  1  0.49300900  0.75653600  0.49892000  1
  O  O13  1  0.50699100  0.25653600  0.50108000  1
  O  O14  1  0.99300900  0.25653600  0.00108000  1
  O  O15  1  0.00699100  0.75653600  0.99892000  1
  O  O16  1  0.73619500  0.00525400  0.39963300  1
  O  O17  1  0.26380500  0.50525400  0.60036700  1
  O  O18  1  0.23619500  0.50525400  0.10036700  1
  O  O19  1  0.76380500  0.00525400  0.89963300  1
  O  O20  1  0.45429000  0.50454600  0.33134700  1
  O  O21  1  0.54571000  0.00454600  0.66865300  1
  O  O22  1  0.95429000  0.00454600  0.16865300  1
  O  O23  1  0.04571000  0.50454600  0.83134700  1
  O  O24  1  0.77629200  0.50295500  0.56584400  1
  O  O25  1  0.22370800  0.00295500  0.43415600  1
  O  O26  1  0.27629200  0.00295500  0.93415600  1
  O  O27  1  0.72370800  0.50295500  0.06584400  1
loop_
_geom_bond_atom_site_label_1
_geom_bond_atom_site_label_2
_geom_bond_distance
_geom_bond_site_symmetry_2
Ba0 O1 2.824491 1_555
Ba0 O23 2.825481 1_555
Ba0 O6 2.874091 1_555
Ba0 O27 2.913676 1_556
Ba0 O17 2.970255 1_555
Ba0 O9 3.043281 1_555
Ba0 O8 3.237212 1_556
Ba0 O18 3.327692 1_556
Ba1 O0 2.824491 1_555
Ba1 O22 2.825481 1_555
Ba1 O7 2.874091 1_545
Ba1 O26 2.913676 1_554
Ba1 O16 2.970255 1_555
Ba1 O8 3.043281 1_545
Ba1 O9 3.237212 1_554
Ba1 O19 3.327692 1_554
Ba2 O3 2.824491 1_655
Ba2 O21 2.825481 1_555
Ba2 O4 2.874091 1_645
Ba2 O25 2.913676 1_655
Ba2 O19 2.970255 1_555
Ba2 O11 3.043281 1_645
Ba2 O10 3.237212 1_555
Ba2 O16 3.327692 1_555
Ba3 O2 2.824491 1_455
Ba3 O20 2.825481 1_555
Ba3 O5 2.874091 1_455
Ba3 O24 2.913676 1_455
Ba3 O18 2.970255 1_555
Ba3 O10 3.043281 1_455
Ba3 O11 3.237212 1_555
Ba3 O17 3.327692 1_555
Lu0 O21 2.195124 1_555
Lu0 O19 2.207549 1_555
Lu0 O3 2.213066 1_555
Lu0 O26 2.233471 1_555
Lu0 O9 2.253025 1_555
Lu0 O6 2.262441 1_555
Lu1 O20 2.195124 1_555
Lu1 O18 2.207549 1_555
Lu1 O2 2.213066 1_555
Lu1 O27 2.233471 1_555
Lu1 O8 2.253025 1_555
Lu1 O7 2.262441 1_555
Lu2 O23 2.195124 1_555
Lu2 O17 2.207549 1_555
Lu2 O1 2.213066 1_455
Lu2 O24 2.233471 1_455
Lu2 O11 2.253025 1_555
Lu2 O4 2.262441 1_555
Lu3 O22 2.195124 1_555
Lu3 O16 2.207549 1_555
Lu3 O0 2.213066 1_655
Lu3 O25 2.233471 1_655
Lu3 O10 2.253025 1_555
Lu3 O5 2.262441 1_555
Co0 O16 1.942499 1_555
Co0 O21 1.956389 1_555
Co0 O25 1.984744 1_555
Co0 O13 2.013202 1_555
Co1 O17 1.942499 1_555
Co1 O20 1.956389 1_555
Co1 O24 1.984744 1_555
Co1 O12 2.013202 1_555
Co2 O18 1.942499 1_556
Co2 O23 1.956389 1_555
Co2 O27 1.984744 1_456
Co2 O15 2.013202 1_555
Co3 O19 1.942499 1_554
Co3 O22 1.956389 1_555
Co3 O26 1.984744 1_654
Co3 O14 2.013202 1_555
Co4 O6 1.871492 1_555
Co4 O10 1.871734 1_555
Co4 O24 1.893758 1_555
Co4 O13 1.934068 1_555
Co5 O7 1.871492 1_555
Co5 O11 1.871734 1_555
Co5 O25 1.893758 1_565
Co5 O12 1.934068 1_555
Co6 O4 1.871492 1_555
Co6 O8 1.871734 1_556
Co6 O26 1.893758 1_565
Co6 O15 1.934068 1_555
Co7 O5 1.871492 1_555
Co7 O9 1.871734 1_554
Co7 O27 1.893758 1_555
Co7 O14 1.934068 1_555
Co8 O16 1.959975 1_565
Co8 O2 1.967001 1_555
Co8 O12 2.007570 1_555
Co8 O11 2.008222 1_655
Co9 O17 1.959975 1_555
Co9 O3 1.967001 1_555
Co9 O13 2.007570 1_555
Co9 O10 2.008222 1_455
Co10 O18 1.959975 1_555
Co10 O0 1.967001 1_555
Co10 O14 2.007570 1_455
Co10 O9 2.008222 1_554
Co11 O19 1.959975 1_565
Co11 O1 1.967001 1_555
Co11 O15 2.007570 1_655
Co11 O8 2.008222 1_556
Co12 O20 1.950035 1_555
Co12 O0 1.960867 1_555
Co12 O13 2.010474 1_555
Co12 O5 2.010719 1_555
Co13 O21 1.950035 1_565
Co13 O1 1.960867 1_555
Co13 O12 2.010474 1_555
Co13 O4 2.010719 1_555
Co14 O22 1.950035 1_465
Co14 O2 1.960867 1_455
Co14 O15 2.010474 1_554
Co14 O7 2.010719 1_555
Co15 O23 1.950035 1_655
Co15 O3 1.960867 1_655
Co15 O14 2.010474 1_556
Co15 O6 2.010719 1_555
