# generated using pymatgen
data_TeW2SeS2
_symmetry_space_group_name_H-M   'P 1'
_cell_length_a   3.30636828
_cell_length_b   3.30636828
_cell_length_c   37.71000000
_cell_angle_alpha   90.00000000
_cell_angle_beta   90.00000000
_cell_angle_gamma   120.00000551
_symmetry_Int_Tables_number   1
_chemical_formula_structural   TeW2SeS2
_chemical_formula_sum   'Te2 W4 Se2 S4'
_cell_volume   357.01757060
_cell_formula_units_Z   2
loop_
 _symmetry_equiv_pos_site_id
 _symmetry_equiv_pos_as_xyz
  1  'x, y, z'
loop_
 _atom_site_type_symbol
 _atom_site_label
 _atom_site_symmetry_multiplicity
 _atom_site_fract_x
 _atom_site_fract_y
 _atom_site_fract_z
 _atom_site_occupancy
  Te  Te0  1  0.33333300  0.66666700  0.70859500  1
  Te  Te1  1  0.33333300  0.66666700  0.60658900  1
  W  W0  1  0.33333300  0.66666700  0.09392800  1
  W  W1  1  0.33333300  0.66666700  0.46958600  1
  W  W2  1  0.66666700  0.33333300  0.28180000  1
  W  W3  1  0.66666700  0.33333300  0.65760000  1
  Se  Se0  1  0.66666700  0.33333300  0.42482500  1
  Se  Se1  1  0.66666700  0.33333300  0.51438300  1
  S  S0  1  0.33333300  0.66666700  0.32247700  1
  S  S1  1  0.66666700  0.33333300  0.05324000  1
  S  S2  1  0.66666700  0.33333300  0.13460500  1
  S  S3  1  0.33333300  0.66666700  0.24112000  1
loop_
_geom_bond_atom_site_label_1
_geom_bond_atom_site_label_2
_geom_bond_distance
_geom_bond_site_symmetry_2
Te0 W3 2.709618 1_455
Te0 W3 2.709618 1_565
Te0 W3 2.709622 1_555
Te1 W3 2.710046 1_455
Te1 W3 2.710046 1_565
Te1 W3 2.710050 1_555
Se0 W1 2.548166 1_545
Se0 W1 2.548166 1_655
Se0 W1 2.548170 1_555
Se1 W1 2.549065 1_545
Se1 W1 2.549065 1_655
Se1 W1 2.549070 1_555
S0 W2 2.448868 1_455
S0 W2 2.448868 1_565
S0 W2 2.448873 1_555
S1 W0 2.449128 1_545
S1 W0 2.449128 1_655
S1 W0 2.449133 1_555
S2 W0 2.448868 1_545
S2 W0 2.448868 1_655
S2 W0 2.448873 1_555
S3 W2 2.448939 1_455
S3 W2 2.448939 1_565
S3 W2 2.448944 1_555
