# generated using pymatgen
data_KMnTe2
_symmetry_space_group_name_H-M   'P 1'
_cell_length_a   7.77665383
_cell_length_b   7.77665383
_cell_length_c   7.77665383
_cell_angle_alpha   147.57904260
_cell_angle_beta   147.57904260
_cell_angle_gamma   46.50717345
_symmetry_Int_Tables_number   1
_chemical_formula_structural   KMnTe2
_chemical_formula_sum   'K1 Mn1 Te2'
_cell_volume   134.70097964
_cell_formula_units_Z   1
loop_
 _symmetry_equiv_pos_site_id
 _symmetry_equiv_pos_as_xyz
  1  'x, y, z'
loop_
 _atom_site_type_symbol
 _atom_site_label
 _atom_site_symmetry_multiplicity
 _atom_site_fract_x
 _atom_site_fract_y
 _atom_site_fract_z
 _atom_site_occupancy
  K  K0  1  0.00000000  0.00000000  0.00000000  1
  Mn  Mn0  1  0.75000000  0.25000000  0.50000000  1
  Te  Te0  1  0.35544700  0.35544700  0.00000000  1
  Te  Te1  1  0.64455300  0.64455300  0.00000000  1
loop_
_geom_bond_atom_site_label_1
_geom_bond_atom_site_label_2
_geom_bond_distance
_geom_bond_site_symmetry_2
K0 Te1 3.700434 1_444
K0 Te1 3.700434 1_545
K0 Te1 3.700434 1_556
K0 Te1 3.700434 1_455
K0 Te0 3.700434 1_444
K0 Te0 3.700434 1_556
K0 Te0 3.700434 1_455
K0 Te0 3.700434 1_545
Mn0 Te0 2.642666 1_656
Mn0 Te0 2.642666 1_555
Mn0 Te1 2.642666 1_556
Mn0 Te1 2.642666 1_545
