# generated using pymatgen
data_Ba2Ca3Tl2Cr4O12
_symmetry_space_group_name_H-M   'P 1'
_cell_length_a   3.95706257
_cell_length_b   3.95706222
_cell_length_c   22.38064946
_cell_angle_alpha   95.07177245
_cell_angle_beta   95.07177264
_cell_angle_gamma   89.99999047
_symmetry_Int_Tables_number   1
_chemical_formula_structural   Ba2Ca3Tl2Cr4O12
_chemical_formula_sum   'Ba2 Ca3 Tl2 Cr4 O12'
_cell_volume   347.69430862
_cell_formula_units_Z   1
loop_
 _symmetry_equiv_pos_site_id
 _symmetry_equiv_pos_as_xyz
  1  'x, y, z'
loop_
 _atom_site_type_symbol
 _atom_site_label
 _atom_site_symmetry_multiplicity
 _atom_site_fract_x
 _atom_site_fract_y
 _atom_site_fract_z
 _atom_site_occupancy
  Ba  Ba0  1  0.16081800  0.16081800  0.32163400  1
  Ba  Ba1  1  0.83918200  0.83918200  0.67836600  1
  Ca  Ca0  1  0.07708900  0.07708900  0.15417700  1
  Ca  Ca1  1  0.92291100  0.92291100  0.84582300  1
  Ca  Ca2  1  0.00000000  0.00000000  0.00000000  1
  Tl  Tl0  1  0.72417000  0.72417000  0.44833900  1
  Tl  Tl1  1  0.27583000  0.27583000  0.55166100  1
  Cr  Cr0  1  0.53776700  0.53776700  0.07553400  1
  Cr  Cr1  1  0.38461400  0.38461400  0.76922700  1
  Cr  Cr2  1  0.61538600  0.61538600  0.23077300  1
  Cr  Cr3  1  0.46223300  0.46223300  0.92446600  1
  O  O0  1  0.39282800  0.89282800  0.78565600  1
  O  O1  1  0.53532100  0.03532100  0.07064300  1
  O  O2  1  0.22165200  0.22165200  0.44330400  1
  O  O3  1  0.96467900  0.46467900  0.92935700  1
  O  O4  1  0.77834800  0.77834800  0.55669600  1
  O  O5  1  0.10717200  0.60717200  0.21434400  1
  O  O6  1  0.60717200  0.10717200  0.21434400  1
  O  O7  1  0.34135200  0.34135200  0.68270500  1
  O  O8  1  0.89282800  0.39282800  0.78565600  1
  O  O9  1  0.03532100  0.53532100  0.07064300  1
  O  O10  1  0.46467900  0.96467900  0.92935700  1
  O  O11  1  0.65864800  0.65864800  0.31729500  1
loop_
_geom_bond_atom_site_label_1
_geom_bond_atom_site_label_2
_geom_bond_distance
_geom_bond_site_symmetry_2
Ba0 O2 2.701689 1_555
Ba0 O11 2.799721 1_555
Ba0 O11 2.799724 1_545
Ba0 O11 2.799724 1_455
Ba0 O11 2.799727 1_445
Ba0 O5 3.096821 1_555
Ba0 O6 3.096822 1_555
Ba0 O5 3.096827 1_545
Ba0 O6 3.096827 1_455
Ba1 O4 2.701689 1_555
Ba1 O7 2.799721 1_555
Ba1 O7 2.799724 1_565
Ba1 O7 2.799724 1_655
Ba1 O7 2.799727 1_665
Ba1 O8 3.096821 1_555
Ba1 O0 3.096822 1_555
Ba1 O8 3.096827 1_565
Ba1 O0 3.096827 1_655
Ca0 O5 2.387363 1_555
Ca0 O6 2.387364 1_555
Ca0 O5 2.387367 1_545
Ca0 O6 2.387367 1_455
Ca0 O9 2.712036 1_555
Ca0 O1 2.712036 1_555
Ca0 O9 2.712042 1_545
Ca0 O1 2.712042 1_455
Ca1 O8 2.387363 1_555
Ca1 O0 2.387364 1_555
Ca1 O8 2.387367 1_565
Ca1 O0 2.387367 1_655
Ca1 O3 2.712036 1_555
Ca1 O10 2.712036 1_555
Ca1 O3 2.712042 1_565
Ca1 O10 2.712042 1_655
Ca2 O9 2.524912 1_555
Ca2 O3 2.524912 1_444
Ca2 O1 2.524913 1_555
Ca2 O10 2.524913 1_444
Ca2 O3 2.524915 1_454
Ca2 O9 2.524915 1_545
Ca2 O10 2.524915 1_544
Ca2 O1 2.524915 1_455
Cr0 O1 1.981508 1_565
Cr0 O9 1.981508 1_655
Cr0 O1 1.981512 1_555
Cr0 O9 1.981512 1_555
Cr1 O7 1.921225 1_555
Cr1 O0 2.011880 1_555
Cr1 O8 2.011880 1_555
Cr1 O0 2.011884 1_545
Cr1 O8 2.011884 1_455
Cr2 O11 1.921225 1_555
Cr2 O6 2.011880 1_555
Cr2 O5 2.011880 1_555
Cr2 O6 2.011884 1_565
Cr2 O5 2.011884 1_655
Cr3 O10 1.981508 1_545
Cr3 O3 1.981508 1_455
Cr3 O10 1.981512 1_555
Cr3 O3 1.981512 1_555
O2 Tl1 2.406073 1_555
O2 Tl0 2.800296 1_445
O2 Tl0 2.800298 1_455
O2 Tl0 2.800298 1_545
O2 Tl0 2.800301 1_555
O4 Tl0 2.406073 1_555
O4 Tl1 2.800296 1_665
O4 Tl1 2.800298 1_655
O4 Tl1 2.800298 1_565
O4 Tl1 2.800301 1_555
