# generated using pymatgen
data_Ca4HfN4
_symmetry_space_group_name_H-M   'P 1'
_cell_length_a   6.11002761
_cell_length_b   6.10490415
_cell_length_c   9.27321968
_cell_angle_alpha   70.75868872
_cell_angle_beta   81.30869647
_cell_angle_gamma   68.44222499
_symmetry_Int_Tables_number   1
_chemical_formula_structural   Ca4HfN4
_chemical_formula_sum   'Ca8 Hf2 N8'
_cell_volume   303.55659226
_cell_formula_units_Z   2
loop_
 _symmetry_equiv_pos_site_id
 _symmetry_equiv_pos_as_xyz
  1  'x, y, z'
loop_
 _atom_site_type_symbol
 _atom_site_label
 _atom_site_symmetry_multiplicity
 _atom_site_fract_x
 _atom_site_fract_y
 _atom_site_fract_z
 _atom_site_occupancy
  Ca  Ca0  1  0.73074697  0.61770727  0.19249343  1
  Ca  Ca1  1  0.26925303  0.38229273  0.80750657  1
  Ca  Ca2  1  0.75569869  0.24376363  0.99247195  1
  Ca  Ca3  1  0.24430131  0.75623637  0.00752805  1
  Ca  Ca4  1  0.73638682  0.47532080  0.57428829  1
  Ca  Ca5  1  0.26361318  0.52467920  0.42571171  1
  Ca  Ca6  1  0.24618112  0.94445762  0.59696874  1
  Ca  Ca7  1  0.75381888  0.05554238  0.40303126  1
  Hf  Hf0  1  0.71925770  0.84263297  0.76303351  1
  Hf  Hf1  1  0.28074230  0.15736703  0.23696649  1
  N  N0  1  0.98410130  0.69917109  0.61631415  1
  N  N1  1  0.01589870  0.30082891  0.38368585  1
  N  N2  1  0.84511469  0.85382104  0.95161825  1
  N  N3  1  0.15488531  0.14617896  0.04838175  1
  N  N4  1  0.51291076  0.62422724  0.80175687  1
  N  N5  1  0.48708924  0.37577276  0.19824313  1
  N  N6  1  0.48527256  0.82019941  0.37768989  1
  N  N7  1  0.51472744  0.17980059  0.62231011  1
loop_
_geom_bond_atom_site_label_1
_geom_bond_atom_site_label_2
_geom_bond_distance
_geom_bond_site_symmetry_2
Ca0 N2 2.387849 1_554
Ca0 N5 2.437363 1_555
Ca0 N6 2.446496 1_555
Ca0 N1 2.473340 1_655
Ca1 N3 2.387849 1_556
Ca1 N4 2.437363 1_555
Ca1 N7 2.446496 1_555
Ca1 N0 2.473340 1_455
Ca2 N3 2.383994 1_656
Ca2 N2 2.384360 1_545
Ca2 N5 2.465609 1_556
Ca2 N4 2.505321 1_555
Ca3 N2 2.383994 1_454
Ca3 N3 2.384360 1_565
Ca3 N4 2.465609 1_554
Ca3 N5 2.505321 1_555
Ca4 N6 2.460131 1_555
Ca4 N1 2.483392 1_655
Ca4 N0 2.521812 1_555
Ca4 N7 2.524129 1_555
Ca4 N4 2.573217 1_555
Ca5 N7 2.460131 1_555
Ca5 N0 2.483392 1_455
Ca5 N1 2.521812 1_555
Ca5 N6 2.524129 1_555
Ca5 N5 2.573217 1_555
Ca6 N6 2.479693 1_555
Ca6 N4 2.496264 1_555
Ca6 N0 2.517347 1_455
Ca6 N1 2.525904 1_565
Ca6 N7 2.623599 1_565
Ca7 N7 2.479693 1_555
Ca7 N5 2.496264 1_555
Ca7 N1 2.517347 1_655
Ca7 N0 2.525904 1_545
Ca7 N6 2.623599 1_545
Hf0 N2 2.044021 1_555
Hf0 N4 2.068652 1_555
Hf0 N0 2.077317 1_555
Hf0 N7 2.081746 1_565
Hf1 N3 2.044021 1_555
Hf1 N5 2.068652 1_555
Hf1 N1 2.077317 1_555
Hf1 N6 2.081746 1_545
