# generated using pymatgen
data_Y2MgS4
_symmetry_space_group_name_H-M   'P 1'
_cell_length_a   7.24756328
_cell_length_b   8.39449325
_cell_length_c   12.87788174
_cell_angle_alpha   80.38586455
_cell_angle_beta   84.30291819
_cell_angle_gamma   90.01664874
_symmetry_Int_Tables_number   1
_chemical_formula_structural   Y2MgS4
_chemical_formula_sum   'Y8 Mg4 S16'
_cell_volume   768.55206976
_cell_formula_units_Z   4
loop_
 _symmetry_equiv_pos_site_id
 _symmetry_equiv_pos_as_xyz
  1  'x, y, z'
loop_
 _atom_site_type_symbol
 _atom_site_label
 _atom_site_symmetry_multiplicity
 _atom_site_fract_x
 _atom_site_fract_y
 _atom_site_fract_z
 _atom_site_occupancy
  Y  Y0  1  0.13496800  0.70033100  0.69290800  1
  Y  Y1  1  0.86503200  0.29966900  0.30709200  1
  Y  Y2  1  0.24216400  0.87224300  0.00052100  1
  Y  Y3  1  0.75783600  0.12775700  0.99947900  1
  Y  Y4  1  0.36785800  0.55492400  0.30512500  1
  Y  Y5  1  0.63214200  0.44507600  0.69487500  1
  Y  Y6  1  0.36608900  0.04238600  0.30885900  1
  Y  Y7  1  0.63391100  0.95761400  0.69114100  1
  Mg  Mg0  1  0.13406700  0.20040400  0.70015900  1
  Mg  Mg1  1  0.86593300  0.79959600  0.29984100  1
  Mg  Mg2  1  0.24908600  0.37773400  0.99598600  1
  Mg  Mg3  1  0.75091400  0.62226600  0.00401400  1
  S  S0  1  0.09382100  0.64536100  0.89665700  1
  S  S1  1  0.90617900  0.35463900  0.10334300  1
  S  S2  1  0.10788200  0.15575200  0.89300800  1
  S  S3  1  0.89211800  0.84424800  0.10699200  1
  S  S4  1  0.16868900  0.78081200  0.37305400  1
  S  S5  1  0.83131100  0.21918800  0.62694600  1
  S  S6  1  0.19177400  0.28174400  0.37583200  1
  S  S7  1  0.80822600  0.71825600  0.62416800  1
  S  S8  1  0.30335500  0.97927500  0.62868000  1
  S  S9  1  0.69664500  0.02072500  0.37132000  1
  S  S10  1  0.30522900  0.45642700  0.62797900  1
  S  S11  1  0.69477100  0.54357300  0.37202100  1
  S  S12  1  0.39418000  0.10298000  0.10466400  1
  S  S13  1  0.60582000  0.89702000  0.89533600  1
  S  S14  1  0.40389100  0.59301800  0.10177000  1
  S  S15  1  0.59610900  0.40698200  0.89823000  1
loop_
_geom_bond_atom_site_label_1
_geom_bond_atom_site_label_2
_geom_bond_distance
_geom_bond_site_symmetry_2
Mg0 S2 2.437143 1_555
Mg0 S5 2.467746 1_455
Mg0 S10 2.474692 1_555
Mg0 S8 2.479159 1_545
Mg1 S3 2.437143 1_555
Mg1 S4 2.467746 1_655
Mg1 S11 2.474692 1_555
Mg1 S9 2.479159 1_565
Mg2 S15 2.690438 1_555
Mg2 S0 2.697598 1_555
Mg2 S1 2.711720 1_456
Mg2 S2 2.715158 1_555
Mg2 S14 2.739554 1_556
Mg2 S12 2.756720 1_556
Mg3 S14 2.690438 1_555
Mg3 S1 2.697598 1_555
Mg3 S0 2.711720 1_654
Mg3 S3 2.715158 1_555
Mg3 S15 2.739554 1_554
Mg3 S13 2.756720 1_554
S0 Y0 2.574223 1_555
S0 Y2 2.776238 1_556
S1 Y1 2.574223 1_555
S1 Y3 2.776238 1_554
S2 Y3 2.751886 1_455
S2 Y2 2.774225 1_546
S3 Y2 2.751886 1_655
S3 Y3 2.774225 1_564
S4 Y6 2.590119 1_565
S4 Y4 2.597980 1_555
S5 Y7 2.590119 1_545
S5 Y5 2.597980 1_555
S6 Y6 2.596376 1_555
S6 Y1 2.604994 1_455
S6 Y4 2.605123 1_555
S7 Y7 2.596376 1_555
S7 Y0 2.604994 1_655
S7 Y5 2.605123 1_555
S8 Y7 2.598761 1_555
S8 Y0 2.609129 1_555
S9 Y6 2.598761 1_555
S9 Y1 2.609129 1_555
S10 Y5 2.596703 1_555
S10 Y0 2.604296 1_555
S11 Y4 2.596703 1_555
S11 Y1 2.604296 1_555
S12 Y6 2.581055 1_555
S12 Y2 2.814955 1_545
S12 Y3 2.832200 1_554
S13 Y7 2.581055 1_555
S13 Y3 2.814955 1_565
S13 Y2 2.832200 1_556
S14 Y4 2.571561 1_555
S14 Y2 2.802187 1_555
S15 Y5 2.571561 1_555
S15 Y3 2.802187 1_555
