# generated using pymatgen
data_Rb2(NbBr3)3
_symmetry_space_group_name_H-M   'P 1'
_cell_length_a   10.46146146
_cell_length_b   10.46146146
_cell_length_c   10.33870590
_cell_angle_alpha   76.55795057
_cell_angle_beta   76.55795057
_cell_angle_gamma   116.30845501
_symmetry_Int_Tables_number   1
_chemical_formula_structural   Rb2(NbBr3)3
_chemical_formula_sum   'Rb4 Nb6 Br18'
_cell_volume   910.54663460
_cell_formula_units_Z   2
loop_
 _symmetry_equiv_pos_site_id
 _symmetry_equiv_pos_as_xyz
  1  'x, y, z'
loop_
 _atom_site_type_symbol
 _atom_site_label
 _atom_site_symmetry_multiplicity
 _atom_site_fract_x
 _atom_site_fract_y
 _atom_site_fract_z
 _atom_site_occupancy
  Rb  Rb0  1  0.73493652  0.05365463  0.32419825  1
  Rb  Rb1  1  0.26506348  0.94634537  0.67580175  1
  Rb  Rb2  1  0.94634537  0.26506348  0.67580175  1
  Rb  Rb3  1  0.05365463  0.73493652  0.32419825  1
  Nb  Nb0  1  0.61029995  0.61029995  0.12300901  1
  Nb  Nb1  1  0.38970005  0.38970005  0.87699099  1
  Nb  Nb2  1  0.45544387  0.28818308  0.13522776  1
  Nb  Nb3  1  0.54455613  0.71181692  0.86477224  1
  Nb  Nb4  1  0.71181692  0.54455613  0.86477224  1
  Nb  Nb5  1  0.28818308  0.45544387  0.13522776  1
  Br  Br0  1  0.70553184  0.29446816  0.00000000  1
  Br  Br1  1  0.29446816  0.70553184  0.00000000  1
  Br  Br2  1  0.39413870  -0.00045228  0.31957562  1
  Br  Br3  1  0.60586130  0.00045228  0.68042438  1
  Br  Br4  1  0.00045228  0.60586130  0.68042438  1
  Br  Br5  1  -0.00045228  0.39413870  0.31957562  1
  Br  Br6  1  0.31192854  0.10493732  0.01463131  1
  Br  Br7  1  0.68807146  0.89506268  0.98536869  1
  Br  Br8  1  0.89506268  0.68807146  0.98536869  1
  Br  Br9  1  0.10493732  0.31192854  0.01463131  1
  Br  Br10  1  0.75814473  0.75814473  0.28549776  1
  Br  Br11  1  0.24185527  0.24185527  0.71450224  1
  Br  Br12  1  0.81639338  0.81639338  0.66899354  1
  Br  Br13  1  0.18360662  0.18360662  0.33100646  1
  Br  Br14  1  0.58003740  0.37487814  0.31466516  1
  Br  Br15  1  0.41996260  0.62512186  0.68533484  1
  Br  Br16  1  0.62512186  0.41996260  0.68533484  1
  Br  Br17  1  0.37487814  0.58003740  0.31466516  1
loop_
_geom_bond_atom_site_label_1
_geom_bond_atom_site_label_2
_geom_bond_distance
_geom_bond_site_symmetry_2
Br0 Nb2 2.628325 1_555
Br0 Nb4 2.628325 1_554
Br0 Rb0 3.862159 1_555
Br0 Rb2 3.862159 1_554
Br1 Nb5 2.628325 1_555
Br1 Nb3 2.628325 1_554
Br1 Rb1 3.862159 1_554
Br1 Rb3 3.862159 1_555
Br2 Nb2 2.863738 1_555
Br2 Rb0 3.366989 1_555
Br2 Rb3 3.387035 1_545
Br2 Rb1 3.430118 1_545
Br3 Nb3 2.863738 1_545
Br3 Rb1 3.366989 1_545
Br3 Rb2 3.387035 1_555
Br3 Rb0 3.430118 1_555
Br4 Nb4 2.863738 1_455
Br4 Rb2 3.366989 1_455
Br4 Rb1 3.387035 1_555
Br4 Rb3 3.430118 1_555
Br5 Nb5 2.863738 1_555
Br5 Rb3 3.366989 1_555
Br5 Rb0 3.387035 1_455
Br5 Rb2 3.430118 1_455
Br6 Nb1 2.627539 1_554
Br6 Nb2 2.629440 1_555
Br6 Rb3 3.670946 1_545
Br7 Nb0 2.627539 1_556
Br7 Nb3 2.629440 1_555
Br7 Rb2 3.670946 1_565
Br8 Nb0 2.627539 1_556
Br8 Nb4 2.629440 1_555
Br8 Rb1 3.670946 1_655
Br9 Nb1 2.627539 1_554
Br9 Nb5 2.629440 1_555
Br9 Rb0 3.670946 1_455
Br10 Nb0 2.811065 1_555
Br10 Rb3 3.312316 1_655
Br10 Rb0 3.312316 1_565
Br11 Nb1 2.811065 1_555
Br11 Rb2 3.312316 1_455
Br11 Rb1 3.312316 1_545
Br12 Nb4 2.630143 1_555
Br12 Nb3 2.630143 1_555
Br13 Nb2 2.630143 1_555
Br13 Nb5 2.630143 1_555
Br14 Nb2 2.611835 1_555
Br14 Nb0 2.615429 1_555
Br15 Nb3 2.611835 1_555
Br15 Nb1 2.615429 1_555
Br16 Nb4 2.611835 1_555
Br16 Nb1 2.615429 1_555
Br17 Nb5 2.611835 1_555
Br17 Nb0 2.615429 1_555
