# generated using pymatgen
data_Rb2EuGa(SiO3)4
_symmetry_space_group_name_H-M   'P 1'
_cell_length_a   7.46467125
_cell_length_b   14.23888920
_cell_length_c   14.24760791
_cell_angle_alpha   64.28456919
_cell_angle_beta   74.81347012
_cell_angle_gamma   74.80394688
_symmetry_Int_Tables_number   1
_chemical_formula_structural   Rb2EuGa(SiO3)4
_chemical_formula_sum   'Rb8 Eu4 Ga4 Si16 O48'
_cell_volume   1297.39585053
_cell_formula_units_Z   4
loop_
 _symmetry_equiv_pos_site_id
 _symmetry_equiv_pos_as_xyz
  1  'x, y, z'
loop_
 _atom_site_type_symbol
 _atom_site_label
 _atom_site_symmetry_multiplicity
 _atom_site_fract_x
 _atom_site_fract_y
 _atom_site_fract_z
 _atom_site_occupancy
  Rb  Rb0  1  0.31022797  0.91847511  0.96513714  1
  Rb  Rb1  1  0.69384021  0.58152489  0.53486286  1
  Rb  Rb2  1  0.68977203  0.08152489  0.03486286  1
  Rb  Rb3  1  0.30615979  0.41847511  0.46513714  1
  Rb  Rb4  1  0.29602705  0.88470840  0.54454879  1
  Rb  Rb5  1  0.22528424  0.61529160  0.95545121  1
  Rb  Rb6  1  0.70397295  0.11529160  0.45545121  1
  Rb  Rb7  1  0.77471576  0.38470840  0.04454879  1
  Eu  Eu0  1  0.05194983  0.71221668  0.25006316  1
  Eu  Eu1  1  0.51422968  0.78778332  0.24993684  1
  Eu  Eu2  1  0.94805017  0.28778332  0.74993684  1
  Eu  Eu3  1  0.48577032  0.21221668  0.75006316  1
  Ga  Ga0  1  0.62683676  0.91278247  0.72763855  1
  Ga  Ga1  1  0.76725778  0.58721753  0.77236145  1
  Ga  Ga2  1  0.37316324  0.08721753  0.27236145  1
  Ga  Ga3  1  0.23274222  0.41278247  0.22763855  1
  Si  Si0  1  0.85986717  0.82613486  0.00737903  1
  Si  Si1  1  0.19338106  0.67386514  0.49262097  1
  Si  Si2  1  0.14013283  0.17386514  0.99262097  1
  Si  Si3  1  0.80661894  0.32613486  0.50737903  1
  Si  Si4  1  0.83062295  0.79885905  0.57721244  1
  Si  Si5  1  0.70669443  0.70114095  0.92278756  1
  Si  Si6  1  0.16937705  0.20114095  0.42278756  1
  Si  Si7  1  0.29330557  0.29885905  0.07721244  1
  Si  Si8  1  0.76158872  0.92330372  0.33867965  1
  Si  Si9  1  0.52357210  0.57669628  0.16132035  1
  Si  Si10  1  0.23841128  0.07669628  0.66132035  1
  Si  Si11  1  0.47642790  0.42330372  0.83867965  1
  Si  Si12  1  0.13918063  0.97176785  0.20524402  1
  Si  Si13  1  0.81619250  0.52823215  0.29475598  1
  Si  Si14  1  0.86081937  0.02823215  0.79475598  1
  Si  Si15  1  0.18380750  0.47176785  0.70524402  1
  O  O0  1  0.03082853  0.77050488  0.07431476  1
  O  O1  1  0.37564818  0.72949512  0.42568524  1
  O  O2  1  0.96917147  0.22949512  0.92568524  1
  O  O3  1  0.62435182  0.27050488  0.57431476  1
  O  O4  1  0.91765885  0.93884797  0.90941609  1
  O  O5  1  0.26592291  0.56115203  0.59058391  1
  O  O6  1  0.08234115  0.06115203  0.09058391  1
  O  O7  1  0.73407709  0.43884797  0.40941609  1
  O  O8  1  0.70770230  0.70624910  0.65563200  1
  O  O9  1  0.56958340  0.79375090  0.84436800  1
  O  O10  1  0.29229770  0.29375090  0.34436800  1
  O  O11  1  0.43041660  0.20624910  0.15563200  1
  O  O12  1  0.81709256  0.88736067  0.62411545  1
  O  O13  1  0.82856869  0.61263933  0.87588455  1
  O  O14  1  0.18290744  0.11263933  0.37588455  1
  O  O15  1  0.17143131  0.38736067  0.12411545  1
  O  O16  1  0.74340695  0.85367807  0.46771158  1
  O  O17  1  0.56479660  0.64632193  0.03228842  1
  O  O18  1  0.25659305  0.14632193  0.53228842  1
  O  O19  1  0.43520340  0.35367807  0.96771158  1
  O  O20  1  0.95705645  0.97525110  0.29920331  1
  O  O21  1  0.73151085  0.52474890  0.20079669  1
  O  O22  1  0.04294355  0.02474890  0.70079669  1
  O  O23  1  0.26848915  0.47525110  0.79920331  1
  O  O24  1  0.76446499  0.85207364  0.27598285  1
  O  O25  1  0.39252148  0.64792636  0.22401715  1
  O  O26  1  0.23553501  0.14792636  0.72401715  1
  O  O27  1  0.60747852  0.35207364  0.77598285  1
  O  O28  1  0.58727531  0.02205115  0.33029202  1
  O  O29  1  0.43961848  0.47794885  0.16970798  1
  O  O30  1  0.41272469  0.97794885  0.66970798  1
  O  O31  1  0.56038152  0.52205115  0.83029202  1
  O  O32  1  0.65388453  0.85094655  0.07338083  1
  O  O33  1  0.07821191  0.64905345  0.42661917  1
  O  O34  1  0.34611547  0.14905345  0.92661917  1
  O  O35  1  0.92178809  0.35094655  0.57338083  1
  O  O36  1  0.85946779  0.75015693  0.94524650  1
  O  O37  1  0.05487122  0.74984307  0.55475350  1
  O  O38  1  0.14053221  0.24984307  0.05475350  1
  O  O39  1  0.94512878  0.25015693  0.44524650  1
  O  O40  1  0.32653181  0.99079435  0.23022344  1
  O  O41  1  0.04754960  0.50920565  0.26977656  1
  O  O42  1  0.67346819  0.00920565  0.76977656  1
  O  O43  1  0.95245040  0.49079435  0.73022344  1
  O  O44  1  0.20215300  0.85605840  0.20072663  1
  O  O45  1  0.75893803  0.64394160  0.29927337  1
  O  O46  1  0.79784700  0.14394160  0.79927337  1
  O  O47  1  0.24106197  0.35605840  0.70072663  1
loop_
_geom_bond_atom_site_label_1
_geom_bond_atom_site_label_2
_geom_bond_distance
_geom_bond_site_symmetry_2
Eu0 O0 2.306174 1_555
Eu0 O33 2.318984 1_555
Eu0 O44 2.342590 1_555
Eu0 O45 2.437304 1_455
Eu0 O25 2.453416 1_555
Eu0 O24 2.586489 1_455
Eu0 O41 2.788586 1_555
Eu1 O1 2.306174 1_555
Eu1 O32 2.318984 1_555
Eu1 O45 2.342590 1_555
Eu1 O44 2.437304 1_555
Eu1 O24 2.453416 1_555
Eu1 O25 2.586489 1_555
Eu1 O40 2.788586 1_555
Eu2 O2 2.306174 1_555
Eu2 O35 2.318984 1_555
Eu2 O46 2.342590 1_555
Eu2 O47 2.437304 1_655
Eu2 O27 2.453416 1_555
Eu2 O26 2.586489 1_655
Eu2 O43 2.788586 1_555
Eu3 O3 2.306174 1_555
Eu3 O34 2.318984 1_555
Eu3 O47 2.342590 1_555
Eu3 O46 2.437304 1_555
Eu3 O26 2.453416 1_555
Eu3 O27 2.586489 1_555
Eu3 O42 2.788586 1_555
Ga0 O30 1.829146 1_555
Ga0 O9 1.839134 1_555
Ga0 O12 1.849276 1_555
Ga0 O42 1.855253 1_565
Ga1 O31 1.829146 1_555
Ga1 O8 1.839134 1_555
Ga1 O13 1.849276 1_555
Ga1 O43 1.855253 1_555
Ga2 O28 1.829146 1_555
Ga2 O11 1.839134 1_555
Ga2 O14 1.849276 1_555
Ga2 O40 1.855253 1_545
Ga3 O29 1.829146 1_555
Ga3 O10 1.839134 1_555
Ga3 O15 1.849276 1_555
Ga3 O41 1.855253 1_555
O0 Si0 1.617928 1_455
O0 Rb0 2.994739 1_554
O0 Rb5 3.183973 1_554
O1 Si1 1.617928 1_555
O1 Rb1 2.994739 1_555
O1 Rb4 3.183973 1_555
O2 Si2 1.617928 1_655
O2 Rb2 2.994739 1_556
O2 Rb7 3.183973 1_556
O3 Si3 1.617928 1_555
O3 Rb3 2.994739 1_555
O3 Rb6 3.183973 1_555
O4 Si14 1.656610 1_565
O4 Si0 1.677352 1_556
O4 Rb0 3.142455 1_655
O4 Rb2 3.156238 1_566
O5 Si15 1.656610 1_555
O5 Si1 1.677352 1_555
O5 Rb1 3.142455 1_555
O5 Rb3 3.156238 1_555
O6 Si12 1.656610 1_545
O6 Si2 1.677352 1_554
O6 Rb2 3.142455 1_455
O6 Rb0 3.156238 1_544
O7 Si13 1.656610 1_555
O7 Si3 1.677352 1_555
O7 Rb3 3.142455 1_555
O7 Rb1 3.156238 1_555
O8 Si4 1.627195 1_555
O8 Rb1 2.994464 1_555
O9 Si5 1.627195 1_555
O9 Rb0 2.994464 1_555
O10 Si6 1.627195 1_555
O10 Rb3 2.994464 1_555
O11 Si7 1.627195 1_555
O11 Rb2 2.994464 1_555
O12 Si4 1.635079 1_555
O12 Rb6 3.143124 1_565
O12 Rb4 3.451202 1_655
O13 Si5 1.635079 1_555
O13 Rb7 3.143124 1_556
O13 Rb5 3.451202 1_655
O14 Si6 1.635079 1_555
O14 Rb4 3.143124 1_545
O14 Rb6 3.451202 1_455
O15 Si7 1.635079 1_555
O15 Rb5 3.143124 1_554
O15 Rb7 3.451202 1_455
O16 Si4 1.635871 1_555
O16 Si8 1.655041 1_555
O16 Rb4 3.205778 1_555
O17 Si5 1.635871 1_554
O17 Si9 1.655041 1_555
O17 Rb5 3.205778 1_554
O18 Si6 1.635871 1_555
O18 Si10 1.655041 1_555
O18 Rb6 3.205778 1_555
O19 Si7 1.635871 1_556
O19 Si11 1.655041 1_555
O19 Rb7 3.205778 1_556
O20 Si12 1.646678 1_655
O20 Si8 1.663503 1_555
O20 Rb6 3.489242 1_565
O21 Si13 1.646678 1_555
O21 Si9 1.663503 1_555
O21 Rb7 3.489242 1_555
O22 Si14 1.646678 1_455
O22 Si10 1.663503 1_555
O22 Rb4 3.489242 1_545
O23 Si15 1.646678 1_555
O23 Si11 1.663503 1_555
O23 Rb5 3.489242 1_555
O24 Si8 1.609922 1_555
O25 Si9 1.609922 1_555
O26 Si10 1.609922 1_555
O27 Si11 1.609922 1_555
O28 Si8 1.631224 1_545
O28 Rb6 3.029189 1_555
O28 Rb4 3.382430 1_545
O29 Si9 1.631224 1_555
O29 Rb7 3.029189 1_555
O29 Rb5 3.382430 1_554
O30 Si10 1.631224 1_565
O30 Rb4 3.029189 1_555
O30 Rb6 3.382430 1_565
O31 Si11 1.631224 1_555
O31 Rb5 3.029189 1_555
O31 Rb7 3.382430 1_556
O32 Si0 1.618419 1_555
O32 Rb0 3.062098 1_554
O32 Rb2 3.157955 1_565
O33 Si1 1.618419 1_555
O33 Rb1 3.062098 1_455
O33 Rb3 3.157955 1_555
O34 Si2 1.618419 1_555
O34 Rb2 3.062098 1_556
O34 Rb0 3.157955 1_545
O35 Si3 1.618419 1_555
O35 Rb3 3.062098 1_655
O35 Rb1 3.157955 1_555
O36 Si5 1.640815 1_555
O36 Si0 1.669790 1_556
O36 Rb5 2.895201 1_655
O37 Si4 1.640815 1_455
O37 Si1 1.669790 1_555
O37 Rb4 2.895201 1_555
O38 Si7 1.640815 1_555
O38 Si2 1.669790 1_554
O38 Rb7 2.895201 1_455
O39 Si6 1.640815 1_655
O39 Si3 1.669790 1_555
O39 Rb6 2.895201 1_555
O40 Si12 1.642855 1_555
O40 Rb2 3.395619 1_565
O41 Si13 1.642855 1_455
O41 Rb3 3.395619 1_555
O42 Si14 1.642855 1_555
O42 Rb0 3.395619 1_545
O43 Si15 1.642855 1_655
O43 Rb1 3.395619 1_555
O44 Si12 1.615477 1_555
O44 Rb0 3.012595 1_554
O45 Si13 1.615477 1_555
O45 Rb1 3.012595 1_555
O46 Si14 1.615477 1_555
O46 Rb2 3.012595 1_556
O47 Si15 1.615477 1_555
O47 Rb3 3.012595 1_555
