# generated using pymatgen
data_Al2Pd
_symmetry_space_group_name_H-M   'P 1'
_cell_length_a   4.17127334
_cell_length_b   4.17127288
_cell_length_c   4.17127305
_cell_angle_alpha   60.00000664
_cell_angle_beta   60.00001028
_cell_angle_gamma   59.99999397
_symmetry_Int_Tables_number   1
_chemical_formula_structural   Al2Pd
_chemical_formula_sum   'Al2 Pd1'
_cell_volume   51.32050348
_cell_formula_units_Z   1
loop_
 _symmetry_equiv_pos_site_id
 _symmetry_equiv_pos_as_xyz
  1  'x, y, z'
loop_
 _atom_site_type_symbol
 _atom_site_label
 _atom_site_symmetry_multiplicity
 _atom_site_fract_x
 _atom_site_fract_y
 _atom_site_fract_z
 _atom_site_occupancy
  Al  Al0  1  0.25000000  0.25000000  0.25000000  1
  Al  Al1  1  0.75000000  0.75000000  0.75000000  1
  Pd  Pd0  1  0.00000000  -0.00000000  0.00000000  1
loop_
_geom_bond_atom_site_label_1
_geom_bond_atom_site_label_2
_geom_bond_distance
_geom_bond_site_symmetry_2
Al0 Pd0 2.554372 1_565
Al0 Pd0 2.554373 1_555
Al0 Pd0 2.554373 1_655
Al0 Pd0 2.554373 1_556
Al1 Pd0 2.554372 1_656
Al1 Pd0 2.554373 1_666
Al1 Pd0 2.554373 1_566
Al1 Pd0 2.554373 1_665
