# generated using pymatgen
data_LaMgCrNiO6
_symmetry_space_group_name_H-M   'P 1'
_cell_length_a   5.43405900
_cell_length_b   5.30981100
_cell_length_c   9.32755339
_cell_angle_alpha   55.45019874
_cell_angle_beta   90.00000000
_cell_angle_gamma   90.00000000
_symmetry_Int_Tables_number   1
_chemical_formula_structural   LaMgCrNiO6
_chemical_formula_sum   'La2 Mg2 Cr2 Ni2 O12'
_cell_volume   221.66911623
_cell_formula_units_Z   2
loop_
 _symmetry_equiv_pos_site_id
 _symmetry_equiv_pos_as_xyz
  1  'x, y, z'
loop_
 _atom_site_type_symbol
 _atom_site_label
 _atom_site_symmetry_multiplicity
 _atom_site_fract_x
 _atom_site_fract_y
 _atom_site_fract_z
 _atom_site_occupancy
  La  La0  1  0.20320200  0.74330100  0.25084100  1
  La  La1  1  0.79679800  0.74330100  0.75084100  1
  Mg  Mg0  1  0.69536400  0.28176500  0.23874300  1
  Mg  Mg1  1  0.30463600  0.28176500  0.73874300  1
  Cr  Cr0  1  0.26172500  0.00695500  0.49981500  1
  Cr  Cr1  1  0.73827500  0.00695500  0.99981500  1
  Ni  Ni0  1  0.24810600  0.50525800  0.99982200  1
  Ni  Ni1  1  0.75189400  0.50525800  0.49982200  1
  O  O0  1  0.69577600  0.16359400  0.75975600  1
  O  O1  1  0.49226800  0.73344800  0.05732600  1
  O  O2  1  0.46761700  0.32276100  0.45041000  1
  O  O3  1  0.93754200  0.63294200  0.06033300  1
  O  O4  1  0.96023600  0.21722700  0.44401000  1
  O  O5  1  0.22811500  0.89275300  0.73894300  1
  O  O6  1  0.30422400  0.16359400  0.25975600  1
  O  O7  1  0.50773200  0.73344800  0.55732600  1
  O  O8  1  0.53238300  0.32276100  0.95041000  1
  O  O9  1  0.06245800  0.63294200  0.56033300  1
  O  O10  1  0.03976400  0.21722700  0.94401000  1
  O  O11  1  0.77188500  0.89275300  0.23894300  1
loop_
_geom_bond_atom_site_label_1
_geom_bond_atom_site_label_2
_geom_bond_distance
_geom_bond_site_symmetry_2
La0 O6 2.345024 1_565
La0 O2 2.408570 1_555
La0 O1 2.415651 1_555
La0 O11 2.456740 1_455
La0 O3 2.601172 1_455
La0 O4 2.661531 1_455
La0 O10 2.672711 1_564
La0 O9 2.709840 1_555
La1 O0 2.345024 1_565
La1 O8 2.408570 1_555
La1 O7 2.415651 1_555
La1 O5 2.456740 1_655
La1 O9 2.601172 1_655
La1 O10 2.661531 1_655
La1 O4 2.672711 1_565
La1 O3 2.709840 1_556
Mg0 O11 2.105982 1_545
Mg0 O3 2.111541 1_555
Mg0 O6 2.193238 1_555
Mg0 O4 2.260696 1_555
Mg0 O1 2.286986 1_555
Mg0 O2 2.442230 1_555
Mg1 O5 2.105982 1_545
Mg1 O9 2.111541 1_555
Mg1 O0 2.193238 1_555
Mg1 O10 2.260696 1_555
Mg1 O7 2.286986 1_555
Mg1 O8 2.442230 1_555
Cr0 O7 1.816672 1_545
Cr0 O2 1.843787 1_555
Cr0 O4 1.882126 1_455
Cr0 O6 1.909600 1_555
Cr0 O5 1.960100 1_545
Cr0 O9 2.040487 1_545
Cr1 O1 1.816672 1_546
Cr1 O8 1.843787 1_555
Cr1 O10 1.882126 1_655
Cr1 O0 1.909600 1_555
Cr1 O11 1.960100 1_546
Cr1 O3 2.040487 1_546
Ni0 O8 2.011055 1_555
Ni0 O3 2.015026 1_456
Ni0 O1 2.062351 1_556
Ni0 O6 2.067273 1_556
Ni0 O5 2.118404 1_555
Ni0 O10 2.189717 1_555
Ni1 O2 2.011055 1_555
Ni1 O9 2.015026 1_655
Ni1 O7 2.062351 1_555
Ni1 O0 2.067273 1_555
Ni1 O11 2.118404 1_555
Ni1 O4 2.189717 1_555
