# generated using pymatgen
data_SmYCo4
_symmetry_space_group_name_H-M   'P 1'
_cell_length_a   5.09818025
_cell_length_b   5.09797211
_cell_length_c   5.09818025
_cell_angle_alpha   90.00000000
_cell_angle_beta   60.00000000
_cell_angle_gamma   120.00135060
_symmetry_Int_Tables_number   1
_chemical_formula_structural   SmYCo4
_chemical_formula_sum   'Sm1 Y1 Co4'
_cell_volume   93.69231390
_cell_formula_units_Z   1
loop_
 _symmetry_equiv_pos_site_id
 _symmetry_equiv_pos_as_xyz
  1  'x, y, z'
loop_
 _atom_site_type_symbol
 _atom_site_label
 _atom_site_symmetry_multiplicity
 _atom_site_fract_x
 _atom_site_fract_y
 _atom_site_fract_z
 _atom_site_occupancy
  Sm  Sm0  1  0.49999537  0.74999255  0.75000282  1
  Y  Y0  1  -0.00000078  -0.00000117  0.00000039  1
  Co  Co0  1  0.74974494  0.37487272  0.87538384  1
  Co  Co1  1  0.25025655  0.37487272  0.37487122  1
  Co  Co2  1  0.25025998  0.87538947  0.37487051  1
  Co  Co3  1  0.74974494  0.37487272  0.37487122  1
loop_
_geom_bond_atom_site_label_1
_geom_bond_atom_site_label_2
_geom_bond_distance
_geom_bond_site_symmetry_2
Sm0 Y0 3.121768 1_556
Sm0 Y0 3.121970 1_666
Sm0 Y0 3.121974 1_566
Sm0 Y0 3.121974 1_665
Co0 Co2 2.546360 1_546
Co0 Co3 2.546477 1_556
Co0 Co1 2.546479 1_556
Co0 Co2 2.551612 1_655
Co0 Co1 2.551701 1_655
Co0 Co3 2.551704 1_555
Co0 Y0 2.988650 1_666
Co0 Y0 2.988747 1_656
Co0 Y0 2.988752 1_556
Co0 Sm0 2.989242 1_545
Co0 Sm0 2.989284 1_555
Co0 Sm0 2.989284 1_655
Co1 Co2 2.546360 1_545
Co1 Co3 2.546482 1_555
Co1 Co2 2.551612 1_555
Co1 Co3 2.551698 1_455
Co1 Y0 2.988650 1_665
Co1 Y0 2.988747 1_555
Co1 Y0 2.988752 1_556
Co1 Sm0 2.989242 1_445
Co1 Sm0 2.989280 1_554
Co1 Sm0 2.989288 1_555
Co2 Co3 2.546358 1_565
Co2 Co3 2.551614 1_455
Co2 Y0 2.988784 1_665
Co2 Y0 2.988784 1_566
Co2 Y0 2.988788 1_565
Co2 Sm0 2.989356 1_554
Co2 Sm0 2.989356 1_455
Co2 Sm0 2.989356 1_555
Co3 Y0 2.988650 1_665
Co3 Y0 2.988747 1_655
Co3 Y0 2.988752 1_556
Co3 Sm0 2.989244 1_545
Co3 Sm0 2.989282 1_654
Co3 Sm0 2.989286 1_555
