# generated using pymatgen
data_Cu3(P2O7)2
_symmetry_space_group_name_H-M   'P 1'
_cell_length_a   4.84664900
_cell_length_b   7.03693600
_cell_length_c   8.48234655
_cell_angle_alpha   67.96965905
_cell_angle_beta   75.66439245
_cell_angle_gamma   72.09462526
_symmetry_Int_Tables_number   1
_chemical_formula_structural   Cu3(P2O7)2
_chemical_formula_sum   'Cu3 P4 O14'
_cell_volume   252.29795604
_cell_formula_units_Z   1
loop_
 _symmetry_equiv_pos_site_id
 _symmetry_equiv_pos_as_xyz
  1  'x, y, z'
loop_
 _atom_site_type_symbol
 _atom_site_label
 _atom_site_symmetry_multiplicity
 _atom_site_fract_x
 _atom_site_fract_y
 _atom_site_fract_z
 _atom_site_occupancy
  Cu  Cu0  1  0.03587500  0.16909600  0.55921500  1
  Cu  Cu1  1  0.96412500  0.83090400  0.44078500  1
  Cu  Cu2  1  0.00000000  0.00000000  0.00000000  1
  P  P0  1  0.37676100  0.48689000  0.29718600  1
  P  P1  1  0.62323900  0.51311000  0.70281400  1
  P  P2  1  0.35049800  0.15756100  0.18392600  1
  P  P3  1  0.64950200  0.84243900  0.81607400  1
  O  O0  1  0.30760900  0.33114500  0.48087300  1
  O  O1  1  0.69239100  0.66885500  0.51912700  1
  O  O2  1  0.18344900  0.05238200  0.37100900  1
  O  O3  1  0.81655100  0.94761800  0.62899100  1
  O  O4  1  0.69710600  0.47877900  0.26679600  1
  O  O5  1  0.30289400  0.52122100  0.73320400  1
  O  O6  1  0.29637900  0.40161200  0.16452000  1
  O  O7  1  0.70362100  0.59838800  0.83548000  1
  O  O8  1  0.21733000  0.15731700  0.04122800  1
  O  O9  1  0.78267000  0.84268300  0.95877200  1
  O  O10  1  0.82613900  0.28669300  0.73382600  1
  O  O11  1  0.17386100  0.71330700  0.26617400  1
  O  O12  1  0.67945800  0.05538000  0.18504300  1
  O  O13  1  0.32054200  0.94462000  0.81495700  1
loop_
_geom_bond_atom_site_label_1
_geom_bond_atom_site_label_2
_geom_bond_distance
_geom_bond_site_symmetry_2
Cu0 O0 1.843369 1_555
Cu0 O10 1.889038 1_455
Cu0 O2 1.947224 1_555
Cu0 O3 1.981003 1_445
Cu0 O13 2.583780 1_545
Cu1 O1 1.843369 1_555
Cu1 O11 1.889038 1_655
Cu1 O3 1.947224 1_555
Cu1 O2 1.981003 1_665
Cu1 O12 2.583780 1_565
Cu2 O8 1.909749 1_555
Cu2 O9 1.909749 1_444
Cu2 O13 1.976897 1_544
Cu2 O12 1.976897 1_455
Cu2 O11 2.521391 1_545
Cu2 O10 2.521391 1_454
O0 P0 1.557997 1_555
O1 P1 1.557997 1_555
O2 P2 1.603953 1_555
O3 P3 1.603953 1_555
O4 P0 1.496205 1_555
O5 P1 1.496205 1_555
O6 P2 1.605485 1_555
O6 P0 1.626558 1_555
O7 P3 1.605485 1_555
O7 P1 1.626558 1_555
O8 P2 1.506909 1_555
O9 P3 1.506909 1_555
O10 P1 1.557258 1_555
O11 P0 1.557258 1_555
O12 P2 1.535099 1_555
O13 P3 1.535099 1_555
