# generated using pymatgen
data_ZnH14C2N10(ClO7)2
_symmetry_space_group_name_H-M   'P 1'
_cell_length_a   8.23807984
_cell_length_b   8.67530984
_cell_length_c   12.93143400
_cell_angle_alpha   90.00000000
_cell_angle_beta   90.00000000
_cell_angle_gamma   102.74634589
_symmetry_Int_Tables_number   1
_chemical_formula_structural   ZnH14C2N10(ClO7)2
_chemical_formula_sum   'Zn2 H28 C4 N20 Cl4 O28'
_cell_volume   901.40718271
_cell_formula_units_Z   2
loop_
 _symmetry_equiv_pos_site_id
 _symmetry_equiv_pos_as_xyz
  1  'x, y, z'
loop_
 _atom_site_type_symbol
 _atom_site_label
 _atom_site_symmetry_multiplicity
 _atom_site_fract_x
 _atom_site_fract_y
 _atom_site_fract_z
 _atom_site_occupancy
  Zn  Zn0  1  0.50000000  0.50000000  0.00000000  1
  Zn  Zn1  1  0.00000000  0.00000000  0.50000000  1
  H  H0  1  0.47760400  0.14318900  0.81312000  1
  H  H1  1  0.02239600  0.35681100  0.31312000  1
  H  H2  1  0.52239600  0.85681100  0.18688000  1
  H  H3  1  0.97760400  0.64318900  0.68688000  1
  H  H4  1  0.30432200  0.93077400  0.90370100  1
  H  H5  1  0.19567800  0.56922600  0.40370100  1
  H  H6  1  0.69567800  0.06922600  0.09629900  1
  H  H7  1  0.80432200  0.43077400  0.59629900  1
  H  H8  1  0.63087500  0.40480900  0.82982000  1
  H  H9  1  0.86912500  0.09519100  0.32982000  1
  H  H10  1  0.36912500  0.59519100  0.17018000  1
  H  H11  1  0.13087500  0.90480900  0.67018000  1
  H  H12  1  0.20382500  0.97561800  0.01730900  1
  H  H13  1  0.29617500  0.52438200  0.51730800  1
  H  H14  1  0.79617500  0.02438200  0.98269200  1
  H  H15  1  0.70382500  0.47561800  0.48269100  1
  H  H16  1  0.44135400  0.41912800  0.79543700  1
  H  H17  1  0.05864600  0.08087200  0.29543700  1
  H  H18  1  0.55864600  0.58087200  0.20456300  1
  H  H19  1  0.94135400  0.91912800  0.70456300  1
  H  H20  1  0.75079200  0.41222100  0.11448500  1
  H  H21  1  0.74920800  0.08777900  0.61448500  1
  H  H22  1  0.24920800  0.58777900  0.88551500  1
  H  H23  1  0.25079200  0.91222100  0.38551500  1
  H  H24  1  0.79114800  0.39861600  0.99795700  1
  H  H25  1  0.70885200  0.10138400  0.49795700  1
  H  H26  1  0.20885200  0.60138400  0.00204300  1
  H  H27  1  0.29114800  0.89861600  0.50204300  1
  C  C0  1  0.34971000  0.16348000  0.94895800  1
  C  C1  1  0.15029000  0.33652000  0.44895800  1
  C  C2  1  0.65029000  0.83652000  0.05104200  1
  C  C3  1  0.84971000  0.66348000  0.55104200  1
  N  N0  1  0.50891600  0.38170900  0.85360400  1
  N  N1  1  0.99108400  0.11829100  0.35360400  1
  N  N2  1  0.49108400  0.61829100  0.14639600  1
  N  N3  1  0.00891600  0.88170900  0.64639600  1
  N  N4  1  0.45442500  0.21782100  0.86973500  1
  N  N5  1  0.04557500  0.28217900  0.36973500  1
  N  N6  1  0.54557500  0.78217900  0.13026500  1
  N  N7  1  0.95442500  0.71782100  0.63026500  1
  N  N8  1  0.28878800  0.00959800  0.95945300  1
  N  N9  1  0.21121200  0.49040200  0.45945300  1
  N  N10  1  0.71121200  0.99040200  0.04054700  1
  N  N11  1  0.78878800  0.50959800  0.54054700  1
  N  N12  1  0.32234000  0.27962000  0.01343500  1
  N  N13  1  0.17766000  0.22038000  0.51343500  1
  N  N14  1  0.67766000  0.72038000  0.98656500  1
  N  N15  1  0.82234000  0.77962000  0.48656500  1
  N  N16  1  0.20185700  0.25003100  0.08695800  1
  N  N17  1  0.29814300  0.24996900  0.58695800  1
  N  N18  1  0.79814300  0.74996900  0.91304200  1
  N  N19  1  0.70185700  0.75003100  0.41304200  1
  Cl  Cl0  1  0.51895100  0.17134000  0.29706800  1
  Cl  Cl1  1  0.98104900  0.32866000  0.79706800  1
  Cl  Cl2  1  0.48104900  0.82866000  0.70293200  1
  Cl  Cl3  1  0.01895100  0.67134000  0.20293200  1
  O  O0  1  0.17948200  0.36922000  0.13416100  1
  O  O1  1  0.32051800  0.13078000  0.63416100  1
  O  O2  1  0.82051800  0.63078000  0.86583900  1
  O  O3  1  0.67948200  0.86922000  0.36583900  1
  O  O4  1  0.11843900  0.11397500  0.10595500  1
  O  O5  1  0.38156100  0.38602500  0.60595500  1
  O  O6  1  0.88156100  0.88602500  0.89404500  1
  O  O7  1  0.61843900  0.61397500  0.39404500  1
  O  O8  1  0.69911200  0.37450400  0.04791000  1
  O  O9  1  0.80088800  0.12549600  0.54791000  1
  O  O10  1  0.30088800  0.62549600  0.95209000  1
  O  O11  1  0.19911200  0.87450400  0.45209000  1
  O  O12  1  0.38986100  0.02675100  0.27938400  1
  O  O13  1  0.11013900  0.47324900  0.77938400  1
  O  O14  1  0.61013900  0.97324900  0.72061600  1
  O  O15  1  0.88986100  0.52675100  0.22061600  1
  O  O16  1  0.46048500  0.30680200  0.25941600  1
  O  O17  1  0.03951500  0.19319800  0.75941600  1
  O  O18  1  0.53951500  0.69319800  0.74058400  1
  O  O19  1  0.96048500  0.80680200  0.24058400  1
  O  O20  1  0.55682400  0.19003100  0.40753100  1
  O  O21  1  0.94317600  0.30996900  0.90753100  1
  O  O22  1  0.44317600  0.80996900  0.59246900  1
  O  O23  1  0.05682400  0.69003100  0.09246900  1
  O  O24  1  0.67012600  0.15666900  0.24084300  1
  O  O25  1  0.82987400  0.34333100  0.74084300  1
  O  O26  1  0.32987400  0.84333100  0.75915700  1
  O  O27  1  0.17012600  0.65666900  0.25915700  1
loop_
_geom_bond_atom_site_label_1
_geom_bond_atom_site_label_2
_geom_bond_distance
_geom_bond_site_symmetry_2
H0 N4 1.022842 1_555
H1 N5 1.022842 1_555
H2 N6 1.022842 1_555
H3 N7 1.022842 1_555
H4 N8 1.020969 1_565
H5 N9 1.020969 1_555
H6 N10 1.020969 1_545
H7 N11 1.020969 1_555
H8 N0 1.027300 1_555
H9 N1 1.027300 1_555
H10 N2 1.027300 1_555
H11 N3 1.027300 1_555
H12 N8 1.022498 1_564
H13 N9 1.022488 1_555
H14 N10 1.022488 1_546
H15 N11 1.022498 1_555
H16 N0 1.029888 1_555
H17 N1 1.029888 1_455
H18 N2 1.029888 1_555
H19 N3 1.029888 1_655
H20 O8 0.983878 1_555
H21 O9 0.983878 1_555
H22 O10 0.983878 1_555
H23 O11 0.983878 1_555
H24 O8 0.982806 1_556
H25 O9 0.982806 1_555
H26 O10 0.982806 1_554
H27 O11 0.982806 1_555
C0 N8 1.325446 1_555
C0 N4 1.355170 1_555
C0 N12 1.364344 1_556
C1 N9 1.325446 1_555
C1 N5 1.355170 1_555
C1 N13 1.364344 1_555
C2 N10 1.325446 1_555
C2 N6 1.355170 1_555
C2 N14 1.364344 1_554
C3 N11 1.325446 1_555
C3 N7 1.355170 1_555
C3 N15 1.364344 1_555
N0 N4 1.408845 1_555
N0 Zn0 2.162321 1_556
N1 N5 1.408845 1_655
N1 Zn1 2.162321 1_655
N2 N6 1.408845 1_555
N2 Zn0 2.162321 1_555
N3 N7 1.408845 1_455
N3 Zn1 2.162321 1_565
N12 N16 1.357408 1_555
N12 Zn0 2.143064 1_555
N13 N17 1.357408 1_555
N13 Zn1 2.143064 1_555
N14 N18 1.357408 1_555
N14 Zn0 2.143064 1_556
N15 N19 1.357408 1_555
N15 Zn1 2.143064 1_665
N16 O0 1.248932 1_555
N16 O4 1.252136 1_555
N17 O1 1.248932 1_555
N17 O5 1.252136 1_555
N18 O2 1.248932 1_555
N18 O6 1.252136 1_555
N19 O3 1.248932 1_555
N19 O7 1.252136 1_555
Cl0 O16 1.449087 1_555
Cl0 O20 1.463478 1_555
Cl0 O24 1.471657 1_555
Cl0 O12 1.472413 1_555
Cl1 O17 1.449087 1_655
Cl1 O21 1.463478 1_555
Cl1 O25 1.471657 1_555
Cl1 O13 1.472413 1_655
Cl2 O18 1.449087 1_555
Cl2 O22 1.463478 1_555
Cl2 O26 1.471657 1_555
Cl2 O14 1.472413 1_555
Cl3 O19 1.449087 1_455
Cl3 O23 1.463478 1_555
Cl3 O27 1.471657 1_555
Cl3 O15 1.472413 1_455
O8 Zn0 2.246721 1_555
O9 Zn1 2.246721 1_655
O10 Zn0 2.246721 1_556
O11 Zn1 2.246721 1_565
