# generated using pymatgen
data_Ba3(IrN2)2
_symmetry_space_group_name_H-M   'P 1'
_cell_length_a   7.74214902
_cell_length_b   9.71134802
_cell_length_c   5.83027882
_cell_angle_alpha   90.00000182
_cell_angle_beta   93.14141371
_cell_angle_gamma   128.84192100
_symmetry_Int_Tables_number   1
_chemical_formula_structural   Ba3(IrN2)2
_chemical_formula_sum   'Ba6 Ir4 N8'
_cell_volume   340.58296236
_cell_formula_units_Z   2
loop_
 _symmetry_equiv_pos_site_id
 _symmetry_equiv_pos_as_xyz
  1  'x, y, z'
loop_
 _atom_site_type_symbol
 _atom_site_label
 _atom_site_symmetry_multiplicity
 _atom_site_fract_x
 _atom_site_fract_y
 _atom_site_fract_z
 _atom_site_occupancy
  Ba  Ba0  1  0.24128200  0.96839000  0.05962600  1
  Ba  Ba1  1  0.75871800  0.72710800  0.44037400  1
  Ba  Ba2  1  0.75871800  0.03161000  0.94037400  1
  Ba  Ba3  1  0.24128200  0.27289200  0.55962600  1
  Ba  Ba4  1  0.00000000  0.58740500  0.75000000  1
  Ba  Ba5  1  0.00000000  0.41259500  0.25000000  1
  Ir  Ir0  1  0.52732600  0.14583800  0.58138100  1
  Ir  Ir1  1  0.47267400  0.61851400  0.91861900  1
  Ir  Ir2  1  0.47267400  0.85416200  0.41861900  1
  Ir  Ir3  1  0.52732600  0.38148600  0.08138100  1
  N  N0  1  0.23502800  0.92757900  0.55317700  1
  N  N1  1  0.76497200  0.69255100  0.94682300  1
  N  N2  1  0.76497200  0.07242100  0.44682300  1
  N  N3  1  0.23502800  0.30744900  0.05317700  1
  N  N4  1  0.63801500  0.26707700  0.90868100  1
  N  N5  1  0.36198500  0.62906100  0.59131900  1
  N  N6  1  0.36198500  0.73292300  0.09131900  1
  N  N7  1  0.63801500  0.37093900  0.40868100  1
loop_
_geom_bond_atom_site_label_1
_geom_bond_atom_site_label_2
_geom_bond_distance
_geom_bond_site_symmetry_2
Ba0 N4 2.782695 1_564
Ba0 N0 2.903594 1_555
Ba0 N1 2.924113 1_454
Ba0 N6 2.966136 1_555
Ba0 N0 2.972936 1_554
Ba0 N3 3.323484 1_565
Ba1 N5 2.782692 1_555
Ba1 N1 2.903594 1_554
Ba1 N0 2.924113 1_655
Ba1 N7 2.966126 1_555
Ba1 N1 2.972936 1_555
Ba1 N2 3.323484 1_565
Ba2 N6 2.782695 1_546
Ba2 N2 2.903594 1_555
Ba2 N3 2.924113 1_656
Ba2 N4 2.966136 1_555
Ba2 N2 2.972936 1_556
Ba2 N1 3.323484 1_545
Ba3 N7 2.782692 1_555
Ba3 N3 2.903594 1_556
Ba3 N2 2.924113 1_455
Ba3 N5 2.966126 1_555
Ba3 N3 2.972936 1_555
Ba3 N0 3.323484 1_545
Ba4 N4 2.781341 1_455
Ba4 N5 2.781345 1_555
Ba4 N1 2.868797 1_455
Ba4 N0 2.868797 1_555
Ba4 N7 2.869193 1_455
Ba4 N6 2.869194 1_556
Ba5 N6 2.781341 1_555
Ba5 N7 2.781345 1_455
Ba5 N3 2.868797 1_555
Ba5 N2 2.868797 1_455
Ba5 N5 2.869193 1_555
Ba5 N4 2.869194 1_454
Ir0 N0 1.893005 1_545
Ir0 N7 2.066806 1_555
Ir0 N4 2.077791 1_555
Ir0 N2 2.512498 1_555
Ir1 N1 1.893012 1_555
Ir1 N6 2.066783 1_556
Ir1 N5 2.077782 1_555
Ir1 N3 2.512513 1_556
Ir2 N2 1.893005 1_565
Ir2 N5 2.066806 1_555
Ir2 N6 2.077791 1_555
Ir2 N0 2.512498 1_555
Ir3 N3 1.893012 1_555
Ir3 N4 2.066783 1_554
Ir3 N7 2.077782 1_555
Ir3 N1 2.512513 1_554
