# generated using pymatgen
data_Mg30BSbO32
_symmetry_space_group_name_H-M   'P 1'
_cell_length_a   8.60693300
_cell_length_b   8.60693300
_cell_length_c   8.60115800
_cell_angle_alpha   90.00000000
_cell_angle_beta   90.00000000
_cell_angle_gamma   90.00000000
_symmetry_Int_Tables_number   1
_chemical_formula_structural   Mg30BSbO32
_chemical_formula_sum   'Mg30 B1 Sb1 O32'
_cell_volume   637.16772656
_cell_formula_units_Z   1
loop_
 _symmetry_equiv_pos_site_id
 _symmetry_equiv_pos_as_xyz
  1  'x, y, z'
loop_
 _atom_site_type_symbol
 _atom_site_label
 _atom_site_symmetry_multiplicity
 _atom_site_fract_x
 _atom_site_fract_y
 _atom_site_fract_z
 _atom_site_occupancy
  Mg  Mg0  1  0.50000000  0.00000000  0.00000000  1
  Mg  Mg1  1  0.50000000  0.00000000  0.50000000  1
  Mg  Mg2  1  0.00000000  0.50000000  0.00000000  1
  Mg  Mg3  1  0.00000000  0.50000000  0.50000000  1
  Mg  Mg4  1  0.50000000  0.50000000  0.00000000  1
  Mg  Mg5  1  0.50000000  0.50000000  0.50000000  1
  Mg  Mg6  1  0.25374600  0.00000000  0.24046900  1
  Mg  Mg7  1  0.25374600  0.00000000  0.75953100  1
  Mg  Mg8  1  0.74625400  0.00000000  0.24046900  1
  Mg  Mg9  1  0.74625400  0.00000000  0.75953100  1
  Mg  Mg10  1  0.25015600  0.50000000  0.24818800  1
  Mg  Mg11  1  0.25015600  0.50000000  0.75181200  1
  Mg  Mg12  1  0.74984400  0.50000000  0.24818800  1
  Mg  Mg13  1  0.74984400  0.50000000  0.75181200  1
  Mg  Mg14  1  0.00000000  0.25374600  0.24046900  1
  Mg  Mg15  1  0.00000000  0.25374600  0.75953100  1
  Mg  Mg16  1  0.50000000  0.25015600  0.24818800  1
  Mg  Mg17  1  0.50000000  0.25015600  0.75181200  1
  Mg  Mg18  1  0.00000000  0.74625400  0.24046900  1
  Mg  Mg19  1  0.00000000  0.74625400  0.75953100  1
  Mg  Mg20  1  0.50000000  0.74984400  0.24818800  1
  Mg  Mg21  1  0.50000000  0.74984400  0.75181200  1
  Mg  Mg22  1  0.24813100  0.24813100  0.00000000  1
  Mg  Mg23  1  0.25545100  0.25545100  0.50000000  1
  Mg  Mg24  1  0.75186900  0.24813100  0.00000000  1
  Mg  Mg25  1  0.74454900  0.25545100  0.50000000  1
  Mg  Mg26  1  0.24813100  0.75186900  0.00000000  1
  Mg  Mg27  1  0.25545100  0.74454900  0.50000000  1
  Mg  Mg28  1  0.75186900  0.75186900  0.00000000  1
  Mg  Mg29  1  0.74454900  0.74454900  0.50000000  1
  B  B0  1  0.00000000  0.00000000  0.00000000  1
  Sb  Sb0  1  0.00000000  0.00000000  0.50000000  1
  O  O0  1  0.00000000  0.26698900  0.00000000  1
  O  O1  1  0.00000000  0.26308900  0.50000000  1
  O  O2  1  0.50000000  0.25251300  0.00000000  1
  O  O3  1  0.50000000  0.25206300  0.50000000  1
  O  O4  1  0.00000000  0.73301100  0.00000000  1
  O  O5  1  0.00000000  0.73691100  0.50000000  1
  O  O6  1  0.50000000  0.74748700  0.00000000  1
  O  O7  1  0.50000000  0.74793700  0.50000000  1
  O  O8  1  0.24888600  0.24888600  0.25079000  1
  O  O9  1  0.24888600  0.24888600  0.74921000  1
  O  O10  1  0.75111400  0.24888600  0.25079000  1
  O  O11  1  0.75111400  0.24888600  0.74921000  1
  O  O12  1  0.24888600  0.75111400  0.25079000  1
  O  O13  1  0.24888600  0.75111400  0.74921000  1
  O  O14  1  0.75111400  0.75111400  0.25079000  1
  O  O15  1  0.75111400  0.75111400  0.74921000  1
  O  O16  1  0.00000000  0.00000000  0.24079600  1
  O  O17  1  0.00000000  0.00000000  0.75920400  1
  O  O18  1  0.50000000  0.00000000  0.25137100  1
  O  O19  1  0.50000000  0.00000000  0.74862900  1
  O  O20  1  0.00000000  0.50000000  0.25137100  1
  O  O21  1  0.00000000  0.50000000  0.74862900  1
  O  O22  1  0.50000000  0.50000000  0.25086100  1
  O  O23  1  0.50000000  0.50000000  0.74913900  1
  O  O24  1  0.26698900  0.00000000  0.00000000  1
  O  O25  1  0.26308900  0.00000000  0.50000000  1
  O  O26  1  0.73301100  0.00000000  0.00000000  1
  O  O27  1  0.73691100  0.00000000  0.50000000  1
  O  O28  1  0.25251300  0.50000000  0.00000000  1
  O  O29  1  0.25206300  0.50000000  0.50000000  1
  O  O30  1  0.74748700  0.50000000  0.00000000  1
  O  O31  1  0.74793700  0.50000000  0.50000000  1
loop_
_geom_bond_atom_site_label_1
_geom_bond_atom_site_label_2
_geom_bond_distance
_geom_bond_site_symmetry_2
Mg0 O26 2.005510 1_555
Mg0 O24 2.005510 1_555
Mg0 O18 2.162082 1_555
Mg0 O19 2.162082 1_554
Mg0 O6 2.173362 1_545
Mg0 O2 2.173362 1_555
Mg1 O27 2.039077 1_555
Mg1 O25 2.039077 1_555
Mg1 O18 2.138497 1_555
Mg1 O19 2.138497 1_555
Mg1 O3 2.169489 1_555
Mg1 O7 2.169489 1_545
Mg2 O4 2.005510 1_555
Mg2 O0 2.005510 1_555
Mg2 O21 2.162082 1_554
Mg2 O20 2.162082 1_555
Mg2 O30 2.173362 1_455
Mg2 O28 2.173362 1_555
Mg3 O5 2.039077 1_555
Mg3 O1 2.039077 1_555
Mg3 O21 2.138497 1_555
Mg3 O20 2.138497 1_555
Mg3 O29 2.169489 1_555
Mg3 O31 2.169489 1_455
Mg4 O6 2.130104 1_555
Mg4 O30 2.130104 1_555
Mg4 O2 2.130104 1_555
Mg4 O28 2.130104 1_555
Mg4 O23 2.157695 1_554
Mg4 O22 2.157695 1_555
Mg5 O31 2.133977 1_555
Mg5 O7 2.133977 1_555
Mg5 O29 2.133977 1_555
Mg5 O3 2.133977 1_555
Mg5 O22 2.142884 1_555
Mg5 O23 2.142884 1_555
Mg6 O24 2.071450 1_555
Mg6 O18 2.121565 1_555
Mg6 O8 2.144392 1_555
Mg6 O12 2.144392 1_545
Mg6 O16 2.183977 1_555
Mg6 O25 2.233715 1_555
Mg7 O24 2.071450 1_556
Mg7 O19 2.121565 1_555
Mg7 O9 2.144392 1_555
Mg7 O13 2.144392 1_545
Mg7 O17 2.183977 1_555
Mg7 O25 2.233715 1_555
Mg8 O26 2.071450 1_555
Mg8 O18 2.121565 1_555
Mg8 O10 2.144392 1_555
Mg8 O14 2.144392 1_545
Mg8 O16 2.183977 1_655
Mg8 O27 2.233715 1_555
Mg9 O26 2.071450 1_556
Mg9 O19 2.121565 1_555
Mg9 O11 2.144392 1_555
Mg9 O15 2.144392 1_545
Mg9 O17 2.183977 1_655
Mg9 O27 2.233715 1_555
Mg10 O28 2.134801 1_555
Mg10 O22 2.150513 1_555
Mg10 O20 2.153250 1_555
Mg10 O12 2.161465 1_555
Mg10 O8 2.161465 1_555
Mg10 O29 2.165937 1_555
Mg11 O28 2.134801 1_556
Mg11 O23 2.150513 1_555
Mg11 O21 2.153250 1_555
Mg11 O13 2.161465 1_555
Mg11 O9 2.161465 1_555
Mg11 O29 2.165937 1_555
Mg12 O30 2.134801 1_555
Mg12 O22 2.150513 1_555
Mg12 O20 2.153250 1_655
Mg12 O14 2.161465 1_555
Mg12 O10 2.161465 1_555
Mg12 O31 2.165937 1_555
Mg13 O30 2.134801 1_556
Mg13 O23 2.150513 1_555
Mg13 O21 2.153250 1_655
Mg13 O15 2.161465 1_555
Mg13 O11 2.161465 1_555
Mg13 O31 2.165937 1_555
Mg14 O0 2.071450 1_555
Mg14 O20 2.121565 1_555
Mg14 O8 2.144392 1_555
Mg14 O10 2.144392 1_455
Mg14 O16 2.183977 1_555
Mg14 O1 2.233715 1_555
Mg15 O0 2.071450 1_556
Mg15 O21 2.121565 1_555
Mg15 O9 2.144392 1_555
Mg15 O11 2.144392 1_455
Mg15 O17 2.183977 1_555
Mg15 O1 2.233715 1_555
Mg16 O2 2.134801 1_555
Mg16 O22 2.150513 1_555
Mg16 O18 2.153250 1_555
Mg16 O10 2.161465 1_555
Mg16 O8 2.161465 1_555
Mg16 O3 2.165937 1_555
Mg17 O2 2.134801 1_556
Mg17 O23 2.150513 1_555
Mg17 O19 2.153250 1_555
Mg17 O11 2.161465 1_555
Mg17 O9 2.161465 1_555
Mg17 O3 2.165937 1_555
Mg18 O4 2.071450 1_555
Mg18 O20 2.121565 1_555
Mg18 O12 2.144392 1_555
Mg18 O14 2.144392 1_455
Mg18 O16 2.183977 1_565
Mg18 O5 2.233715 1_555
Mg19 O4 2.071450 1_556
Mg19 O21 2.121565 1_555
Mg19 O13 2.144392 1_555
Mg19 O15 2.144392 1_455
Mg19 O17 2.183977 1_565
Mg19 O5 2.233715 1_555
Mg20 O6 2.134801 1_555
Mg20 O22 2.150513 1_555
Mg20 O18 2.153250 1_565
Mg20 O14 2.161465 1_555
Mg20 O12 2.161465 1_555
Mg20 O7 2.165937 1_555
Mg21 O6 2.134801 1_556
Mg21 O23 2.150513 1_555
Mg21 O19 2.153250 1_565
Mg21 O15 2.161465 1_555
Mg21 O13 2.161465 1_555
Mg21 O7 2.165937 1_555
Mg22 O0 2.141806 1_555
Mg22 O24 2.141806 1_555
Mg22 O9 2.157104 1_554
Mg22 O8 2.157104 1_555
Mg22 O2 2.168148 1_555
Mg22 O28 2.168148 1_555
Mg23 O29 2.105019 1_555
Mg23 O3 2.105019 1_555
Mg23 O8 2.144984 1_555
Mg23 O9 2.144984 1_555
Mg23 O1 2.199632 1_555
Mg23 O25 2.199632 1_555
Mg24 O0 2.141806 1_655
Mg24 O26 2.141806 1_555
Mg24 O11 2.157104 1_554
Mg24 O10 2.157104 1_555
Mg24 O2 2.168148 1_555
Mg24 O30 2.168148 1_555
Mg25 O31 2.105019 1_555
Mg25 O3 2.105019 1_555
Mg25 O10 2.144984 1_555
Mg25 O11 2.144984 1_555
Mg25 O27 2.199632 1_555
Mg25 O1 2.199632 1_655
Mg26 O4 2.141806 1_555
Mg26 O24 2.141806 1_565
Mg26 O13 2.157104 1_554
Mg26 O12 2.157104 1_555
Mg26 O28 2.168148 1_555
Mg26 O6 2.168148 1_555
Mg27 O29 2.105019 1_555
Mg27 O7 2.105019 1_555
Mg27 O12 2.144984 1_555
Mg27 O13 2.144984 1_555
Mg27 O25 2.199632 1_565
Mg27 O5 2.199632 1_555
Mg28 O26 2.141806 1_565
Mg28 O4 2.141806 1_655
Mg28 O15 2.157104 1_554
Mg28 O14 2.157104 1_555
Mg28 O6 2.168148 1_555
Mg28 O30 2.168148 1_555
Mg29 O7 2.105019 1_555
Mg29 O31 2.105019 1_555
Mg29 O14 2.144984 1_555
Mg29 O15 2.144984 1_555
Mg29 O5 2.199632 1_655
Mg29 O27 2.199632 1_565
B0 O16 2.071124 1_555
B0 O17 2.071124 1_554
O1 Sb0 2.264389 1_555
O5 Sb0 2.264389 1_565
O16 Sb0 2.229455 1_555
O17 Sb0 2.229455 1_555
O25 Sb0 2.264389 1_555
O27 Sb0 2.264389 1_655
