# generated using pymatgen
data_Np(WO4)2
_symmetry_space_group_name_H-M   'P 1'
_cell_length_a   9.77322100
_cell_length_b   10.38906200
_cell_length_c   14.58479400
_cell_angle_alpha   90.00000000
_cell_angle_beta   90.00000000
_cell_angle_gamma   90.00000000
_symmetry_Int_Tables_number   1
_chemical_formula_structural   Np(WO4)2
_chemical_formula_sum   'Np8 W16 O64'
_cell_volume   1480.86120896
_cell_formula_units_Z   8
loop_
 _symmetry_equiv_pos_site_id
 _symmetry_equiv_pos_as_xyz
  1  'x, y, z'
loop_
 _atom_site_type_symbol
 _atom_site_label
 _atom_site_symmetry_multiplicity
 _atom_site_fract_x
 _atom_site_fract_y
 _atom_site_fract_z
 _atom_site_occupancy
  Np  Np0  1  0.27693000  0.96560200  0.61028700  1
  Np  Np1  1  0.72307000  0.03439800  0.38971300  1
  Np  Np2  1  0.22307000  0.46560200  0.38971300  1
  Np  Np3  1  0.72307000  0.53439800  0.11028700  1
  Np  Np4  1  0.77693000  0.53439800  0.61028700  1
  Np  Np5  1  0.27693000  0.46560200  0.88971300  1
  Np  Np6  1  0.77693000  0.03439800  0.88971300  1
  Np  Np7  1  0.22307000  0.96560200  0.11028700  1
  W  W0  1  0.00140700  0.72399600  0.94073600  1
  W  W1  1  0.99859300  0.27600400  0.05926400  1
  W  W2  1  0.49859300  0.22399600  0.05926400  1
  W  W3  1  0.99859300  0.77600400  0.44073600  1
  W  W4  1  0.50140700  0.77600400  0.94073600  1
  W  W5  1  0.00140700  0.22399600  0.55926400  1
  W  W6  1  0.50140700  0.27600400  0.55926400  1
  W  W7  1  0.49859300  0.72399600  0.44073600  1
  W  W8  1  0.18137100  0.60512300  0.65184900  1
  W  W9  1  0.81862900  0.39487700  0.34815100  1
  W  W10  1  0.31862900  0.10512300  0.34815100  1
  W  W11  1  0.81862900  0.89487700  0.15184900  1
  W  W12  1  0.68137100  0.89487700  0.65184900  1
  W  W13  1  0.18137100  0.10512300  0.84815100  1
  W  W14  1  0.68137100  0.39487700  0.84815100  1
  W  W15  1  0.31862900  0.60512300  0.15184900  1
  O  O0  1  0.38712200  0.67242000  0.87551600  1
  O  O1  1  0.61287800  0.32758000  0.12448400  1
  O  O2  1  0.11287800  0.17242000  0.12448400  1
  O  O3  1  0.61287800  0.82758000  0.37551600  1
  O  O4  1  0.88712200  0.82758000  0.87551600  1
  O  O5  1  0.38712200  0.17242000  0.62448400  1
  O  O6  1  0.88712200  0.32758000  0.62448400  1
  O  O7  1  0.11287800  0.67242000  0.37551600  1
  O  O8  1  0.23745000  0.57016600  0.53611400  1
  O  O9  1  0.76255000  0.42983400  0.46388600  1
  O  O10  1  0.26255000  0.07016600  0.46388600  1
  O  O11  1  0.76255000  0.92983400  0.03611400  1
  O  O12  1  0.73745000  0.92983400  0.53611400  1
  O  O13  1  0.23745000  0.07016600  0.96388600  1
  O  O14  1  0.73745000  0.42983400  0.96388600  1
  O  O15  1  0.26255000  0.57016600  0.03611400  1
  O  O16  1  0.11975300  0.83192400  0.99772200  1
  O  O17  1  0.88024700  0.16807600  0.00227800  1
  O  O18  1  0.38024700  0.33192400  0.00227800  1
  O  O19  1  0.88024700  0.66807600  0.49772200  1
  O  O20  1  0.61975300  0.66807600  0.99772200  1
  O  O21  1  0.11975300  0.33192400  0.50227800  1
  O  O22  1  0.61975300  0.16807600  0.50227800  1
  O  O23  1  0.38024700  0.83192400  0.49772200  1
  O  O24  1  0.22964200  0.76998900  0.67695500  1
  O  O25  1  0.77035800  0.23001100  0.32304500  1
  O  O26  1  0.27035800  0.26998900  0.32304500  1
  O  O27  1  0.77035800  0.73001100  0.17695500  1
  O  O28  1  0.72964200  0.73001100  0.67695500  1
  O  O29  1  0.22964200  0.26998900  0.82304500  1
  O  O30  1  0.72964200  0.23001100  0.82304500  1
  O  O31  1  0.27035800  0.76998900  0.17695500  1
  O  O32  1  0.09512600  0.60806700  0.86894300  1
  O  O33  1  0.90487400  0.39193300  0.13105700  1
  O  O34  1  0.40487400  0.10806700  0.13105700  1
  O  O35  1  0.90487400  0.89193300  0.36894300  1
  O  O36  1  0.59512600  0.89193300  0.86894300  1
  O  O37  1  0.09512600  0.10806700  0.63105700  1
  O  O38  1  0.59512600  0.39193300  0.63105700  1
  O  O39  1  0.40487400  0.60806700  0.36894300  1
  O  O40  1  0.26435300  0.99763800  0.76731000  1
  O  O41  1  0.73564700  0.00236200  0.23269000  1
  O  O42  1  0.23564700  0.49763800  0.23269000  1
  O  O43  1  0.73564700  0.50236200  0.26731000  1
  O  O44  1  0.76435300  0.50236200  0.76731000  1
  O  O45  1  0.26435300  0.49763800  0.73269000  1
  O  O46  1  0.76435300  0.00236200  0.73269000  1
  O  O47  1  0.23564700  0.99763800  0.26731000  1
  O  O48  1  0.09450300  0.86245900  0.52715000  1
  O  O49  1  0.90549700  0.13754100  0.47285000  1
  O  O50  1  0.40549700  0.36245900  0.47285000  1
  O  O51  1  0.90549700  0.63754100  0.02715000  1
  O  O52  1  0.59450300  0.63754100  0.52715000  1
  O  O53  1  0.09450300  0.36245900  0.97285000  1
  O  O54  1  0.59450300  0.13754100  0.97285000  1
  O  O55  1  0.40549700  0.86245900  0.02715000  1
  O  O56  1  0.99709300  0.58176100  0.65552600  1
  O  O57  1  0.00290700  0.41823900  0.34447400  1
  O  O58  1  0.50290700  0.08176100  0.34447400  1
  O  O59  1  0.00290700  0.91823900  0.15552600  1
  O  O60  1  0.49709300  0.91823900  0.65552600  1
  O  O61  1  0.99709300  0.08176100  0.84447400  1
  O  O62  1  0.49709300  0.41823900  0.84447400  1
  O  O63  1  0.50290700  0.58176100  0.15552600  1
loop_
_geom_bond_atom_site_label_1
_geom_bond_atom_site_label_2
_geom_bond_distance
_geom_bond_site_symmetry_2
Np0 O24 2.299785 1_555
Np0 O60 2.303753 1_555
Np0 O40 2.317468 1_555
Np0 O37 2.332263 1_565
Np0 O23 2.375629 1_555
Np0 O10 2.399801 1_565
Np0 O48 2.407740 1_555
Np0 O5 2.412329 1_565
Np1 O25 2.299785 1_555
Np1 O58 2.303753 1_555
Np1 O41 2.317468 1_555
Np1 O35 2.332263 1_545
Np1 O22 2.375629 1_555
Np1 O12 2.399801 1_545
Np1 O49 2.407740 1_555
Np1 O3 2.412329 1_545
Np2 O26 2.299785 1_555
Np2 O57 2.303753 1_555
Np2 O42 2.317468 1_555
Np2 O39 2.332263 1_555
Np2 O21 2.375629 1_555
Np2 O8 2.399801 1_555
Np2 O50 2.407740 1_555
Np2 O7 2.412329 1_555
Np3 O27 2.299785 1_555
Np3 O63 2.303753 1_555
Np3 O43 2.317468 1_555
Np3 O33 2.332263 1_555
Np3 O20 2.375629 1_554
Np3 O14 2.399801 1_554
Np3 O51 2.407740 1_555
Np3 O1 2.412329 1_555
Np4 O28 2.299785 1_555
Np4 O56 2.303753 1_555
Np4 O44 2.317468 1_555
Np4 O38 2.332263 1_555
Np4 O19 2.375629 1_555
Np4 O9 2.399801 1_555
Np4 O52 2.407740 1_555
Np4 O6 2.412329 1_555
Np5 O29 2.299785 1_555
Np5 O62 2.303753 1_555
Np5 O45 2.317468 1_555
Np5 O32 2.332263 1_555
Np5 O18 2.375629 1_556
Np5 O15 2.399801 1_556
Np5 O53 2.407740 1_555
Np5 O0 2.412329 1_555
Np6 O30 2.299785 1_555
Np6 O61 2.303753 1_555
Np6 O46 2.317468 1_555
Np6 O36 2.332263 1_545
Np6 O17 2.375629 1_556
Np6 O11 2.399801 1_546
Np6 O54 2.407740 1_555
Np6 O4 2.412329 1_545
Np7 O31 2.299785 1_555
Np7 O59 2.303753 1_555
Np7 O47 2.317468 1_555
Np7 O34 2.332263 1_565
Np7 O16 2.375629 1_554
Np7 O13 2.399801 1_564
Np7 O55 2.407740 1_555
Np7 O2 2.412329 1_565
O0 W4 1.819461 1_555
O1 W2 1.819461 1_555
O2 W1 1.819461 1_455
O3 W7 1.819461 1_555
O4 W0 1.819461 1_655
O5 W6 1.819461 1_555
O6 W5 1.819461 1_655
O7 W3 1.819461 1_455
O8 W8 1.811497 1_555
O9 W9 1.811497 1_555
O10 W10 1.811497 1_555
O11 W11 1.811497 1_555
O12 W12 1.811497 1_555
O13 W13 1.811497 1_555
O14 W14 1.811497 1_555
O15 W15 1.811497 1_555
O16 W0 1.812677 1_555
O17 W1 1.812677 1_555
O18 W2 1.812677 1_555
O19 W3 1.812677 1_555
O20 W4 1.812677 1_555
O21 W5 1.812677 1_555
O22 W6 1.812677 1_555
O23 W7 1.812677 1_555
O24 W8 1.813927 1_555
O25 W9 1.813927 1_555
O26 W10 1.813927 1_555
O27 W11 1.813927 1_555
O28 W12 1.813927 1_555
O29 W13 1.813927 1_555
O30 W14 1.813927 1_555
O31 W15 1.813927 1_555
O32 W0 1.840080 1_555
O33 W1 1.840080 1_555
O34 W2 1.840080 1_555
O35 W3 1.840080 1_555
O36 W4 1.840080 1_555
O37 W5 1.840080 1_555
O38 W6 1.840080 1_555
O39 W7 1.840080 1_555
O40 W13 1.815166 1_565
O41 W11 1.815166 1_545
O42 W15 1.815166 1_555
O43 W9 1.815166 1_555
O44 W14 1.815166 1_555
O45 W8 1.815166 1_555
O46 W12 1.815166 1_545
O47 W10 1.815166 1_565
O48 W3 1.809363 1_455
O49 W5 1.809363 1_655
O50 W6 1.809363 1_555
O51 W0 1.809363 1_654
O52 W7 1.809363 1_555
O53 W1 1.809363 1_456
O54 W2 1.809363 1_556
O55 W4 1.809363 1_554
O56 W8 1.818061 1_655
O57 W9 1.818061 1_455
O58 W10 1.818061 1_555
O59 W11 1.818061 1_455
O60 W12 1.818061 1_555
O61 W13 1.818061 1_655
O62 W14 1.818061 1_555
O63 W15 1.818061 1_555
