# generated using pymatgen
data_Cr2B
_symmetry_space_group_name_H-M   'P 1'
_cell_length_a   4.19077085
_cell_length_b   4.19077167
_cell_length_c   4.19050457
_cell_angle_alpha   104.85601670
_cell_angle_beta   104.85602539
_cell_angle_gamma   119.16005109
_symmetry_Int_Tables_number   1
_chemical_formula_structural   Cr2B
_chemical_formula_sum   'Cr4 B2'
_cell_volume   55.41997789
_cell_formula_units_Z   2
loop_
 _symmetry_equiv_pos_site_id
 _symmetry_equiv_pos_as_xyz
  1  'x, y, z'
loop_
 _atom_site_type_symbol
 _atom_site_label
 _atom_site_symmetry_multiplicity
 _atom_site_fract_x
 _atom_site_fract_y
 _atom_site_fract_z
 _atom_site_occupancy
  Cr  Cr0  1  0.83435850  0.66564150  0.50000000  1
  Cr  Cr1  1  0.33438069  0.83438069  0.16875837  1
  Cr  Cr2  1  0.16564150  0.33435850  0.50000000  1
  Cr  Cr3  1  0.66561931  0.16561931  0.83124163  1
  B  B0  1  0.75000000  0.75000000  0.00000000  1
  B  B1  1  0.25000000  0.25000000  0.00000000  1
loop_
_geom_bond_atom_site_label_1
_geom_bond_atom_site_label_2
_geom_bond_distance
_geom_bond_site_symmetry_2
B0 B1 2.121932 1_555
B0 B1 2.121932 1_665
B0 Cr2 2.182163 1_554
B0 Cr2 2.182164 1_665
B0 Cr0 2.182164 1_555
B0 Cr0 2.182164 1_554
B0 Cr1 2.182316 1_555
B0 Cr3 2.182316 1_564
B0 Cr1 2.182322 1_655
B0 Cr3 2.182323 1_554
B1 Cr0 2.182163 1_555
B1 Cr0 2.182164 1_444
B1 Cr2 2.182164 1_554
B1 Cr2 2.182164 1_555
B1 Cr3 2.182316 1_554
B1 Cr1 2.182316 1_545
B1 Cr3 2.182322 1_454
B1 Cr1 2.182323 1_555
