# generated using pymatgen
data_LiMg30AlO32
_symmetry_space_group_name_H-M   'P 1'
_cell_length_a   8.48752100
_cell_length_b   8.48752100
_cell_length_c   8.49888600
_cell_angle_alpha   90.00000000
_cell_angle_beta   90.00000000
_cell_angle_gamma   90.00000000
_symmetry_Int_Tables_number   1
_chemical_formula_structural   LiMg30AlO32
_chemical_formula_sum   'Li1 Mg30 Al1 O32'
_cell_volume   612.24285782
_cell_formula_units_Z   1
loop_
 _symmetry_equiv_pos_site_id
 _symmetry_equiv_pos_as_xyz
  1  'x, y, z'
loop_
 _atom_site_type_symbol
 _atom_site_label
 _atom_site_symmetry_multiplicity
 _atom_site_fract_x
 _atom_site_fract_y
 _atom_site_fract_z
 _atom_site_occupancy
  Li  Li0  1  0.00000000  0.00000000  0.50000000  1
  Mg  Mg0  1  0.00000000  0.50000000  0.00000000  1
  Mg  Mg1  1  0.00000000  0.50000000  0.50000000  1
  Mg  Mg2  1  0.50000000  0.00000000  0.00000000  1
  Mg  Mg3  1  0.50000000  0.00000000  0.50000000  1
  Mg  Mg4  1  0.50000000  0.50000000  0.00000000  1
  Mg  Mg5  1  0.50000000  0.50000000  0.50000000  1
  Mg  Mg6  1  0.00000000  0.24795000  0.25392100  1
  Mg  Mg7  1  0.00000000  0.24795000  0.74607900  1
  Mg  Mg8  1  0.00000000  0.75205000  0.25392100  1
  Mg  Mg9  1  0.00000000  0.75205000  0.74607900  1
  Mg  Mg10  1  0.50000000  0.24976000  0.25134800  1
  Mg  Mg11  1  0.50000000  0.24976000  0.74865200  1
  Mg  Mg12  1  0.50000000  0.75024000  0.25134800  1
  Mg  Mg13  1  0.50000000  0.75024000  0.74865200  1
  Mg  Mg14  1  0.24795000  0.00000000  0.25392100  1
  Mg  Mg15  1  0.24795000  0.00000000  0.74607900  1
  Mg  Mg16  1  0.24976000  0.50000000  0.25134800  1
  Mg  Mg17  1  0.24976000  0.50000000  0.74865200  1
  Mg  Mg18  1  0.75205000  0.00000000  0.25392100  1
  Mg  Mg19  1  0.75205000  0.00000000  0.74607900  1
  Mg  Mg20  1  0.75024000  0.50000000  0.25134800  1
  Mg  Mg21  1  0.75024000  0.50000000  0.74865200  1
  Mg  Mg22  1  0.25000700  0.25000700  0.00000000  1
  Mg  Mg23  1  0.24732800  0.24732800  0.50000000  1
  Mg  Mg24  1  0.25000700  0.74999300  0.00000000  1
  Mg  Mg25  1  0.24732800  0.75267200  0.50000000  1
  Mg  Mg26  1  0.74999300  0.25000700  0.00000000  1
  Mg  Mg27  1  0.75267200  0.24732800  0.50000000  1
  Mg  Mg28  1  0.74999300  0.74999300  0.00000000  1
  Mg  Mg29  1  0.75267200  0.75267200  0.50000000  1
  Al  Al0  1  0.00000000  0.00000000  0.00000000  1
  O  O0  1  0.23720800  0.00000000  0.00000000  1
  O  O1  1  0.25372100  0.00000000  0.50000000  1
  O  O2  1  0.24807300  0.50000000  0.00000000  1
  O  O3  1  0.25055600  0.50000000  0.50000000  1
  O  O4  1  0.76279200  0.00000000  0.00000000  1
  O  O5  1  0.74627900  0.00000000  0.50000000  1
  O  O6  1  0.75192700  0.50000000  0.00000000  1
  O  O7  1  0.74944400  0.50000000  0.50000000  1
  O  O8  1  0.24966400  0.24966400  0.24925100  1
  O  O9  1  0.24966400  0.24966400  0.75074900  1
  O  O10  1  0.24966400  0.75033600  0.24925100  1
  O  O11  1  0.24966400  0.75033600  0.75074900  1
  O  O12  1  0.75033600  0.24966400  0.24925100  1
  O  O13  1  0.75033600  0.24966400  0.75074900  1
  O  O14  1  0.75033600  0.75033600  0.24925100  1
  O  O15  1  0.75033600  0.75033600  0.75074900  1
  O  O16  1  0.00000000  0.00000000  0.22625200  1
  O  O17  1  0.00000000  0.00000000  0.77374800  1
  O  O18  1  0.00000000  0.50000000  0.24614800  1
  O  O19  1  0.00000000  0.50000000  0.75385200  1
  O  O20  1  0.50000000  0.00000000  0.24614800  1
  O  O21  1  0.50000000  0.00000000  0.75385200  1
  O  O22  1  0.50000000  0.50000000  0.24859500  1
  O  O23  1  0.50000000  0.50000000  0.75140500  1
  O  O24  1  0.00000000  0.23720800  0.00000000  1
  O  O25  1  0.00000000  0.25372100  0.50000000  1
  O  O26  1  0.00000000  0.76279200  0.00000000  1
  O  O27  1  0.00000000  0.74627900  0.50000000  1
  O  O28  1  0.50000000  0.24807300  0.00000000  1
  O  O29  1  0.50000000  0.25055600  0.50000000  1
  O  O30  1  0.50000000  0.75192700  0.00000000  1
  O  O31  1  0.50000000  0.74944400  0.50000000  1
loop_
_geom_bond_atom_site_label_1
_geom_bond_atom_site_label_2
_geom_bond_distance
_geom_bond_site_symmetry_2
Li0 O27 2.153462 1_545
Li0 O1 2.153462 1_555
Li0 O5 2.153462 1_455
Li0 O25 2.153462 1_555
Li0 O16 2.326553 1_555
Li0 O17 2.326553 1_555
Mg0 O18 2.091984 1_555
Mg0 O19 2.091984 1_554
Mg0 O2 2.105525 1_555
Mg0 O6 2.105525 1_455
Mg0 O24 2.230453 1_555
Mg0 O26 2.230453 1_555
Mg1 O27 2.090298 1_555
Mg1 O25 2.090298 1_555
Mg1 O3 2.126599 1_555
Mg1 O7 2.126599 1_455
Mg1 O18 2.157459 1_555
Mg1 O19 2.157459 1_555
Mg2 O21 2.091984 1_554
Mg2 O20 2.091984 1_555
Mg2 O28 2.105525 1_555
Mg2 O30 2.105525 1_545
Mg2 O0 2.230453 1_555
Mg2 O4 2.230453 1_555
Mg3 O1 2.090298 1_555
Mg3 O5 2.090298 1_555
Mg3 O29 2.126599 1_555
Mg3 O31 2.126599 1_545
Mg3 O21 2.157459 1_555
Mg3 O20 2.157459 1_555
Mg4 O22 2.112781 1_555
Mg4 O23 2.112781 1_554
Mg4 O30 2.138236 1_555
Mg4 O2 2.138236 1_555
Mg4 O28 2.138236 1_555
Mg4 O6 2.138236 1_555
Mg5 O29 2.117161 1_555
Mg5 O31 2.117161 1_555
Mg5 O3 2.117161 1_555
Mg5 O7 2.117161 1_555
Mg5 O22 2.136662 1_555
Mg5 O23 2.136662 1_555
Mg6 O25 2.091971 1_555
Mg6 O16 2.117578 1_555
Mg6 O12 2.119450 1_455
Mg6 O8 2.119450 1_555
Mg6 O18 2.140299 1_555
Mg6 O24 2.159971 1_555
Mg7 O25 2.091971 1_555
Mg7 O17 2.117578 1_555
Mg7 O9 2.119450 1_555
Mg7 O13 2.119450 1_455
Mg7 O19 2.140299 1_555
Mg7 O24 2.159971 1_556
Mg8 O27 2.091971 1_555
Mg8 O16 2.117578 1_565
Mg8 O14 2.119450 1_455
Mg8 O10 2.119450 1_555
Mg8 O18 2.140299 1_555
Mg8 O26 2.159971 1_555
Mg9 O27 2.091971 1_555
Mg9 O17 2.117578 1_565
Mg9 O11 2.119450 1_555
Mg9 O15 2.119450 1_455
Mg9 O19 2.140299 1_555
Mg9 O26 2.159971 1_556
Mg10 O29 2.113276 1_555
Mg10 O20 2.120304 1_555
Mg10 O22 2.124046 1_555
Mg10 O12 2.124807 1_555
Mg10 O8 2.124807 1_555
Mg10 O28 2.136226 1_555
Mg11 O29 2.113276 1_555
Mg11 O21 2.120304 1_555
Mg11 O23 2.124046 1_555
Mg11 O9 2.124807 1_555
Mg11 O13 2.124807 1_555
Mg11 O28 2.136226 1_556
Mg12 O31 2.113276 1_555
Mg12 O20 2.120304 1_565
Mg12 O22 2.124046 1_555
Mg12 O14 2.124807 1_555
Mg12 O10 2.124807 1_555
Mg12 O30 2.136226 1_555
Mg13 O31 2.113276 1_555
Mg13 O21 2.120304 1_565
Mg13 O23 2.124046 1_555
Mg13 O11 2.124807 1_555
Mg13 O15 2.124807 1_555
Mg13 O30 2.136226 1_556
Mg14 O1 2.091971 1_555
Mg14 O16 2.117578 1_555
Mg14 O10 2.119450 1_545
Mg14 O8 2.119450 1_555
Mg14 O20 2.140299 1_555
Mg14 O0 2.159971 1_555
Mg15 O1 2.091971 1_555
Mg15 O17 2.117578 1_555
Mg15 O9 2.119450 1_555
Mg15 O11 2.119450 1_545
Mg15 O21 2.140299 1_555
Mg15 O0 2.159971 1_556
Mg16 O3 2.113276 1_555
Mg16 O18 2.120304 1_555
Mg16 O22 2.124046 1_555
Mg16 O10 2.124807 1_555
Mg16 O8 2.124807 1_555
Mg16 O2 2.136226 1_555
Mg17 O3 2.113276 1_555
Mg17 O19 2.120304 1_555
Mg17 O23 2.124046 1_555
Mg17 O11 2.124807 1_555
Mg17 O9 2.124807 1_555
Mg17 O2 2.136226 1_556
Mg18 O5 2.091971 1_555
Mg18 O16 2.117578 1_655
Mg18 O14 2.119450 1_545
Mg18 O12 2.119450 1_555
Mg18 O20 2.140299 1_555
Mg18 O4 2.159971 1_555
Mg19 O5 2.091971 1_555
Mg19 O17 2.117578 1_655
Mg19 O15 2.119450 1_545
Mg19 O13 2.119450 1_555
Mg19 O21 2.140299 1_555
Mg19 O4 2.159971 1_556
Mg20 O7 2.113276 1_555
Mg20 O18 2.120304 1_655
Mg20 O22 2.124046 1_555
Mg20 O14 2.124807 1_555
Mg20 O12 2.124807 1_555
Mg20 O6 2.136226 1_555
Mg21 O7 2.113276 1_555
Mg21 O19 2.120304 1_655
Mg21 O23 2.124046 1_555
Mg21 O15 2.124807 1_555
Mg21 O13 2.124807 1_555
Mg21 O6 2.136226 1_556
Mg22 O8 2.118360 1_555
Mg22 O9 2.118360 1_554
Mg22 O2 2.121884 1_555
Mg22 O28 2.121884 1_555
Mg22 O24 2.124719 1_555
Mg22 O0 2.124719 1_555
Mg23 O25 2.099903 1_555
Mg23 O1 2.099903 1_555
Mg23 O8 2.131272 1_555
Mg23 O9 2.131272 1_555
Mg23 O29 2.144734 1_555
Mg23 O3 2.144734 1_555
Mg24 O10 2.118360 1_555
Mg24 O11 2.118360 1_554
Mg24 O30 2.121884 1_555
Mg24 O2 2.121884 1_555
Mg24 O0 2.124719 1_565
Mg24 O26 2.124719 1_555
Mg25 O1 2.099903 1_565
Mg25 O27 2.099903 1_555
Mg25 O10 2.131272 1_555
Mg25 O11 2.131272 1_555
Mg25 O31 2.144734 1_555
Mg25 O3 2.144734 1_555
Mg26 O13 2.118360 1_554
Mg26 O12 2.118360 1_555
Mg26 O28 2.121884 1_555
Mg26 O6 2.121884 1_555
Mg26 O24 2.124719 1_655
Mg26 O4 2.124719 1_555
Mg27 O25 2.099903 1_655
Mg27 O5 2.099903 1_555
Mg27 O13 2.131272 1_555
Mg27 O12 2.131272 1_555
Mg27 O29 2.144734 1_555
Mg27 O7 2.144734 1_555
Mg28 O15 2.118360 1_554
Mg28 O14 2.118360 1_555
Mg28 O30 2.121884 1_555
Mg28 O6 2.121884 1_555
Mg28 O4 2.124719 1_565
Mg28 O26 2.124719 1_655
Mg29 O27 2.099903 1_655
Mg29 O5 2.099903 1_565
Mg29 O14 2.131272 1_555
Mg29 O15 2.131272 1_555
Mg29 O7 2.144734 1_555
Mg29 O31 2.144734 1_555
Al0 O17 1.922890 1_554
Al0 O16 1.922890 1_555
Al0 O26 2.013308 1_545
Al0 O0 2.013308 1_555
Al0 O24 2.013308 1_555
Al0 O4 2.013308 1_455
