# generated using pymatgen
data_RbNbSiO5
_symmetry_space_group_name_H-M   'P 1'
_cell_length_a   10.41539559
_cell_length_b   10.41516624
_cell_length_c   21.07529803
_cell_angle_alpha   75.70104654
_cell_angle_beta   75.69394108
_cell_angle_gamma   89.99982826
_symmetry_Int_Tables_number   1
_chemical_formula_structural   RbNbSiO5
_chemical_formula_sum   'Rb16 Nb16 Si16 O80'
_cell_volume   2142.14309564
_cell_formula_units_Z   16
loop_
 _symmetry_equiv_pos_site_id
 _symmetry_equiv_pos_as_xyz
  1  'x, y, z'
loop_
 _atom_site_type_symbol
 _atom_site_label
 _atom_site_symmetry_multiplicity
 _atom_site_fract_x
 _atom_site_fract_y
 _atom_site_fract_z
 _atom_site_occupancy
  Rb  Rb0  1  0.99018463  0.99017658  0.01989517  1
  Rb  Rb1  1  0.74014813  0.23990600  0.51985534  1
  Rb  Rb2  1  0.60064271  0.10038301  0.79899495  1
  Rb  Rb3  1  0.85057123  0.85067544  0.29899621  1
  Rb  Rb4  1  0.79516798  0.78205838  0.90952985  1
  Rb  Rb5  1  0.29521661  0.30843960  0.90947131  1
  Rb  Rb6  1  0.53200677  0.54526298  0.40949841  1
  Rb  Rb7  1  0.05836990  0.04524495  0.40950140  1
  Rb  Rb8  1  0.09771871  0.59733963  0.80484404  1
  Rb  Rb9  1  0.34778725  0.34775866  0.30484910  1
  Rb  Rb10  1  0.49313244  0.49322911  0.01401825  1
  Rb  Rb11  1  0.24321113  0.74282770  0.51401716  1
  Rb  Rb12  1  0.62678165  0.14552833  0.15764547  1
  Rb  Rb13  1  0.89550017  0.46554488  0.65764614  1
  Rb  Rb14  1  0.14364153  0.62619145  0.16077347  1
  Rb  Rb15  1  0.37616417  0.94556726  0.66076836  1
  Nb  Nb0  1  0.96010891  0.21257257  0.84466465  1
  Nb  Nb1  1  0.19483999  0.94300716  0.84598954  1
  Nb  Nb2  1  0.96156650  0.44421962  0.34601322  1
  Nb  Nb3  1  0.69336264  0.20949272  0.34464005  1
  Nb  Nb4  1  0.63116379  0.14769335  0.97242234  1
  Nb  Nb5  1  0.39600947  0.87830049  0.97374532  1
  Nb  Nb6  1  0.89828863  0.64701715  0.47238620  1
  Nb  Nb7  1  0.62886531  0.88082064  0.47378223  1
  Nb  Nb8  1  0.87560000  0.39138182  0.98184739  1
  Nb  Nb9  1  0.14372153  0.62647808  0.98046812  1
  Nb  Nb10  1  0.14214401  0.39328040  0.48180481  1
  Nb  Nb11  1  0.37718652  0.12649916  0.48050602  1
  Nb  Nb12  1  0.71507745  0.46397657  0.83791727  1
  Nb  Nb13  1  0.44816252  0.69973500  0.83653973  1
  Nb  Nb14  1  0.21444183  0.69741599  0.33658929  1
  Nb  Nb15  1  0.44887121  0.96437465  0.33786640  1
  Si  Si0  1  0.76501229  0.78113521  0.73727944  1
  Si  Si1  1  0.49720639  0.48203298  0.73729538  1
  Si  Si2  1  0.53077836  0.74714997  0.23725124  1
  Si  Si3  1  0.23166159  0.01490987  0.23731940  1
  Si  Si4  1  0.82518841  0.60852685  0.08170525  1
  Si  Si5  1  0.09257994  0.30930790  0.08171508  1
  Si  Si6  1  0.35859389  0.34315669  0.58174665  1
  Si  Si7  1  0.05941097  0.07581415  0.58167745  1
  Si  Si8  1  0.61352223  0.82686710  0.07499056  1
  Si  Si9  1  0.31118759  0.09756616  0.07492202  1
  Si  Si10  1  0.57693460  0.56157371  0.57495906  1
  Si  Si11  1  0.84761085  0.86396538  0.57495555  1
  Si  Si12  1  0.97666011  0.99272205  0.74410415  1
  Si  Si13  1  0.27894805  0.26379965  0.74404607  1
  Si  Si14  1  0.74218705  0.52884257  0.24408032  1
  Si  Si15  1  0.01324674  0.22658998  0.24406656  1
  O  O0  1  0.81412852  0.64181600  0.77626596  1
  O  O1  1  0.40915623  0.58120196  0.77694067  1
  O  O2  1  0.39191859  0.65920916  0.27689785  1
  O  O3  1  0.33193145  0.06414705  0.27630463  1
  O  O4  1  0.77709445  0.50980632  0.04163912  1
  O  O5  1  0.18081952  0.44859356  0.04230437  1
  O  O6  1  0.25983069  0.43122054  0.54168092  1
  O  O7  1  0.19864406  0.02686358  0.54226834  1
  O  O8  1  0.06172898  0.06180141  0.87640143  1
  O  O9  1  0.81175154  0.31179891  0.37639885  1
  O  O10  1  0.52912717  0.02921022  0.94157406  1
  O  O11  1  0.77915305  0.77923746  0.44157447  1
  O  O12  1  0.56517968  0.56534104  0.86941209  1
  O  O13  1  0.31513753  0.81530046  0.36941340  1
  O  O14  1  0.02549346  0.52558157  0.94875462  1
  O  O15  1  0.27545282  0.27562679  0.44875475  1
  O  O16  1  0.51848973  0.77999514  0.03274782  1
  O  O17  1  0.44889535  0.18699427  0.03339961  1
  O  O18  1  0.52997567  0.69879577  0.53272452  1
  O  O19  1  0.93694501  0.76772667  0.53341210  1
  O  O20  1  0.07287138  0.90327953  0.78545526  1
  O  O21  1  0.14180377  0.31089461  0.78608860  1
  O  O22  1  0.65297209  0.39176212  0.28611521  1
  O  O23  1  0.06122878  0.32285770  0.28543838  1
  O  O24  1  0.79606716  0.48977931  0.90895381  1
  O  O25  1  0.29489478  0.60125893  0.90896388  1
  O  O26  1  0.23942367  0.54493347  0.40896139  1
  O  O27  1  0.35091665  0.04610510  0.40895605  1
  O  O28  1  0.72252243  0.25856560  0.01461940  1
  O  O29  1  0.26211005  0.72636223  0.01480913  1
  O  O30  1  0.00842698  0.51274307  0.51463633  1
  O  O31  1  0.47623764  0.97298531  0.51479410  1
  O  O32  1  0.86722515  0.36402332  0.80347434  1
  O  O33  1  0.32857265  0.83275342  0.80365815  1
  O  O34  1  0.11345229  0.57869427  0.30364209  1
  O  O35  1  0.58234937  0.11733204  0.30348997  1
  O  O36  1  0.79483794  0.11659538  0.90894893  1
  O  O37  1  0.29623942  0.97449517  0.90888121  1
  O  O38  1  0.86631237  0.54622577  0.40891136  1
  O  O39  1  0.72416914  0.04485500  0.40891769  1
  O  O40  1  0.83448387  0.90584843  0.75610511  1
  O  O41  1  0.40925345  0.33800513  0.75618247  1
  O  O42  1  0.65575914  0.65931711  0.25618036  1
  O  O43  1  0.08799432  0.08453970  0.25610823  1
  O  O44  1  0.75598361  0.75260419  0.06276398  1
  O  O45  1  0.18110355  0.18461479  0.06283780  1
  O  O46  1  0.50254266  0.43118170  0.56276799  1
  O  O47  1  0.93455627  0.00601121  0.56283515  1
  O  O48  1  0.60555868  0.79576680  0.76027335  1
  O  O49  1  0.63446109  0.44426536  0.75979667  1
  O  O50  1  0.54591595  0.88444874  0.25977035  1
  O  O51  1  0.19391558  0.85550226  0.26031121  1
  O  O52  1  0.98505133  0.64634367  0.05888250  1
  O  O53  1  0.95633905  0.29496399  0.05839911  1
  O  O54  1  0.39629782  0.20607445  0.55890877  1
  O  O55  1  0.04495558  0.23530785  0.55836096  1
  O  O56  1  0.61260464  0.30108775  0.89965473  1
  O  O57  1  0.48705461  0.79917030  0.89973596  1
  O  O58  1  0.05105763  0.73745355  0.39971269  1
  O  O59  1  0.54920070  0.86296885  0.39967905  1
  O  O60  1  0.97754551  0.29293533  0.91831079  1
  O  O61  1  0.10347983  0.78878211  0.91837798  1
  O  O62  1  0.04287565  0.35376529  0.41832622  1
  O  O63  1  0.53873628  0.22779689  0.41836224  1
  O  O64  1  0.93665976  0.12606120  0.76966584  1
  O  O65  1  0.29398481  0.10440626  0.76892148  1
  O  O66  1  0.87668252  0.54400308  0.26894409  1
  O  O67  1  0.85431296  0.18670044  0.26963603  1
  O  O68  1  0.65332257  0.98638866  0.04984126  1
  O  O69  1  0.29714147  0.96436748  0.04910459  1
  O  O70  1  0.73640820  0.54681339  0.54982024  1
  O  O71  1  0.71437920  0.90371403  0.54913373  1
  O  O72  1  0.77751484  0.53897071  0.16270466  1
  O  O73  1  0.06044520  0.29940491  0.16273377  1
  O  O74  1  0.28895217  0.30975800  0.66269945  1
  O  O75  1  0.04940157  0.02679539  0.66273508  1
  O  O76  1  0.54227554  0.78079475  0.15606689  1
  O  O77  1  0.30275417  0.06388595  0.15604953  1
  O  O78  1  0.53077138  0.55164813  0.65606273  1
  O  O79  1  0.81385526  0.79120338  0.65605074  1
loop_
_geom_bond_atom_site_label_1
_geom_bond_atom_site_label_2
_geom_bond_distance
_geom_bond_site_symmetry_2
Nb0 O8 1.965836 1_655
Nb0 O32 1.978958 1_555
Nb0 O60 1.980811 1_555
Nb0 O36 1.994075 1_555
Nb0 O64 2.064982 1_555
Nb0 O21 2.091632 1_655
Nb1 O8 1.953534 1_565
Nb1 O61 1.971081 1_555
Nb1 O37 1.971371 1_555
Nb1 O33 1.986597 1_555
Nb1 O65 2.086301 1_565
Nb1 O20 2.115257 1_555
Nb2 O9 1.953700 1_555
Nb2 O62 1.963664 1_655
Nb2 O38 1.978867 1_555
Nb2 O34 1.986374 1_655
Nb2 O66 2.091830 1_555
Nb2 O23 2.108831 1_655
Nb3 O9 1.965705 1_555
Nb3 O35 1.979178 1_555
Nb3 O39 1.986395 1_555
Nb3 O63 1.988407 1_555
Nb3 O67 2.059376 1_555
Nb3 O22 2.098078 1_555
Nb4 O10 1.952612 1_555
Nb4 O56 1.969249 1_555
Nb4 O36 1.971680 1_555
Nb4 O28 1.988778 1_556
Nb4 O68 2.090452 1_546
Nb4 O17 2.115923 1_556
Nb5 O10 1.965056 1_565
Nb5 O57 1.978722 1_555
Nb5 O29 1.981202 1_556
Nb5 O37 1.994457 1_555
Nb5 O69 2.069142 1_556
Nb5 O16 2.092126 1_556
Nb6 O11 1.953009 1_555
Nb6 O58 1.961583 1_655
Nb6 O38 1.978979 1_555
Nb6 O30 1.988526 1_655
Nb6 O70 2.096206 1_555
Nb6 O19 2.109848 1_555
Nb7 O11 1.964676 1_555
Nb7 O31 1.981505 1_555
Nb7 O59 1.986437 1_555
Nb7 O39 1.987116 1_565
Nb7 O71 2.063517 1_555
Nb7 O18 2.098214 1_555
Nb8 O14 1.964115 1_655
Nb8 O28 1.978994 1_556
Nb8 O60 1.986790 1_555
Nb8 O24 1.986895 1_555
Nb8 O53 2.046630 1_556
Nb8 O4 2.071389 1_556
Nb9 O14 1.954746 1_555
Nb9 O25 1.960099 1_555
Nb9 O61 1.980894 1_555
Nb9 O29 1.984808 1_556
Nb9 O52 2.079475 1_456
Nb9 O5 2.082391 1_556
Nb10 O15 1.964232 1_555
Nb10 O26 1.977808 1_555
Nb10 O30 1.978769 1_555
Nb10 O62 1.995925 1_555
Nb10 O55 2.053411 1_555
Nb10 O6 2.064405 1_555
Nb11 O15 1.954465 1_555
Nb11 O27 1.969119 1_555
Nb11 O63 1.971789 1_555
Nb11 O31 1.985095 1_545
Nb11 O54 2.072636 1_555
Nb11 O7 2.089450 1_555
Nb12 O12 1.956175 1_555
Nb12 O24 1.961631 1_555
Nb12 O32 1.981578 1_555
Nb12 O56 1.983324 1_555
Nb12 O49 2.075572 1_555
Nb12 O0 2.081360 1_555
Nb13 O12 1.965430 1_555
Nb13 O33 1.975698 1_555
Nb13 O25 1.988108 1_555
Nb13 O57 1.989599 1_555
Nb13 O48 2.043290 1_555
Nb13 O1 2.070028 1_555
Nb14 O13 1.965727 1_555
Nb14 O34 1.975489 1_555
Nb14 O26 1.978860 1_555
Nb14 O58 1.998684 1_555
Nb14 O51 2.050211 1_555
Nb14 O2 2.062985 1_555
Nb15 O13 1.955832 1_555
Nb15 O27 1.970977 1_565
Nb15 O59 1.974243 1_555
Nb15 O35 1.981829 1_565
Nb15 O50 2.068379 1_555
Nb15 O3 2.088444 1_565
O0 Si0 1.631290 1_555
O0 Rb8 3.169079 1_655
O0 Rb4 3.436988 1_555
O1 Si1 1.628972 1_555
O1 Rb8 3.162603 1_555
O1 Rb5 3.423848 1_555
O2 Si2 1.628971 1_555
O2 Rb9 3.162734 1_555
O2 Rb6 3.424026 1_555
O3 Si3 1.631227 1_555
O3 Rb9 3.168808 1_555
O3 Rb7 3.436769 1_555
O4 Si4 1.630650 1_555
O4 Rb10 3.164874 1_555
O4 Rb4 3.415993 1_554
O5 Si5 1.632968 1_555
O5 Rb10 3.171339 1_555
O5 Rb5 3.428958 1_554
O6 Si6 1.630672 1_555
O6 Rb11 3.165119 1_555
O6 Rb6 3.416190 1_555
O7 Si7 1.632990 1_555
O7 Rb11 3.170939 1_545
O7 Rb7 3.428747 1_555
O8 Rb0 2.833607 1_446
O9 Rb1 2.832871 1_555
O10 Rb2 2.815546 1_555
O11 Rb3 2.815529 1_555
O12 Rb10 2.855575 1_556
O13 Rb11 2.855529 1_555
O14 Rb8 2.841839 1_555
O15 Rb9 2.841744 1_555
O16 Si8 1.631195 1_555
O16 Rb10 3.127286 1_555
O16 Rb4 3.364894 1_554
O17 Si9 1.633273 1_555
O17 Rb10 3.132958 1_555
O17 Rb5 3.379009 1_554
O18 Si10 1.631211 1_555
O18 Rb11 3.127166 1_555
O18 Rb6 3.365443 1_555
O19 Si11 1.633368 1_555
O19 Rb11 3.133314 1_655
O19 Rb7 3.378293 1_665
O20 Si12 1.631568 1_455
O20 Rb8 3.129901 1_555
O20 Rb4 3.380694 1_455
O21 Si13 1.629491 1_555
O21 Rb8 3.124162 1_555
O21 Rb5 3.366904 1_555
O22 Si14 1.629428 1_555
O22 Rb9 3.124094 1_555
O22 Rb6 3.367416 1_555
O23 Si15 1.631712 1_555
O23 Rb9 3.130237 1_555
O23 Rb7 3.380033 1_555
O24 Rb4 3.047161 1_555
O25 Rb5 3.047143 1_555
O26 Rb6 3.050190 1_555
O27 Rb7 3.044175 1_555
O28 Rb12 2.868463 1_555
O29 Rb14 2.934795 1_555
O30 Rb13 2.867978 1_455
O31 Rb15 2.934933 1_555
O32 Rb13 2.932209 1_555
O33 Rb15 2.865229 1_555
O34 Rb14 2.864620 1_555
O35 Rb12 2.932453 1_555
O36 Rb2 3.463969 1_555
O36 Rb4 3.481260 1_545
O36 Rb0 3.488684 1_546
O37 Rb2 3.464943 1_565
O37 Rb5 3.481186 1_565
O37 Rb0 3.487824 1_456
O38 Rb3 3.465105 1_555
O38 Rb6 3.478894 1_555
O38 Rb1 3.488420 1_555
O39 Rb3 3.463694 1_545
O39 Rb7 3.483899 1_655
O39 Rb1 3.487058 1_555
O40 Si0 1.662705 1_555
O40 Si12 1.666536 1_555
O40 Rb4 3.093811 1_555
O40 Rb2 3.266605 1_565
O41 Si1 1.665141 1_555
O41 Si13 1.665501 1_555
O41 Rb5 3.091062 1_555
O41 Rb2 3.270864 1_555
O42 Si2 1.663385 1_555
O42 Si14 1.667251 1_555
O42 Rb6 3.091760 1_555
O42 Rb3 3.270575 1_555
O43 Si3 1.664574 1_555
O43 Si15 1.664791 1_555
O43 Rb7 3.093095 1_555
O43 Rb3 3.266913 1_445
O44 Si8 1.666063 1_555
O44 Si4 1.666424 1_555
O44 Rb4 3.090197 1_554
O44 Rb0 3.270397 1_555
O45 Si5 1.664011 1_555
O45 Si9 1.667030 1_555
O45 Rb5 3.092833 1_554
O45 Rb0 3.266342 1_445
O46 Si6 1.664588 1_555
O46 Si10 1.667759 1_555
O46 Rb6 3.091019 1_555
O46 Rb1 3.270309 1_555
O47 Si11 1.665245 1_545
O47 Si7 1.665871 1_655
O47 Rb7 3.092109 1_655
O47 Rb1 3.266686 1_555
O48 Si0 1.629406 1_555
O48 Rb2 3.463008 1_565
O49 Si1 1.632835 1_555
O49 Rb13 2.991244 1_555
O49 Rb2 3.468284 1_555
O50 Si2 1.633153 1_555
O50 Rb12 2.991489 1_565
O50 Rb3 3.468213 1_555
O51 Si3 1.629196 1_565
O51 Rb3 3.463289 1_455
O52 Si4 1.633849 1_555
O52 Rb14 2.985630 1_655
O52 Rb0 3.467987 1_555
O53 Si5 1.630404 1_655
O53 Rb0 3.462761 1_545
O54 Si6 1.634116 1_555
O54 Rb15 2.985700 1_545
O54 Rb1 3.468079 1_555
O55 Si7 1.630005 1_555
O55 Rb1 3.463169 1_455
O56 Rb5 3.262866 1_555
O56 Rb2 3.347658 1_555
O57 Rb4 3.268336 1_555
O57 Rb2 3.349304 1_565
O58 Rb7 3.264859 1_565
O58 Rb3 3.348213 1_455
O59 Rb6 3.266121 1_555
O59 Rb3 3.348755 1_555
O60 Rb5 3.269343 1_655
O60 Rb0 3.368774 1_546
O61 Rb4 3.264017 1_455
O61 Rb0 3.367303 1_456
O62 Rb7 3.265921 1_555
O62 Rb1 3.367310 1_455
O63 Rb6 3.267088 1_555
O63 Rb1 3.367898 1_555
O64 Si12 1.628205 1_545
O64 Rb2 3.398692 1_555
O65 Si13 1.632790 1_555
O65 Rb15 3.092471 1_545
O65 Rb2 3.404731 1_555
O66 Si14 1.632626 1_555
O66 Rb14 3.092642 1_655
O66 Rb3 3.404579 1_555
O67 Si15 1.628427 1_655
O67 Rb3 3.398687 1_545
O68 Si8 1.633890 1_555
O68 Rb12 3.087941 1_565
O68 Rb0 3.406344 1_555
O69 Si9 1.629179 1_565
O69 Rb0 3.400503 1_455
O70 Si10 1.633560 1_555
O70 Rb13 3.088199 1_555
O70 Rb1 3.406298 1_555
O71 Si11 1.629436 1_555
O71 Rb1 3.400612 1_565
O72 Si4 1.629642 1_555
O72 Si14 1.639076 1_555
O73 Si5 1.633636 1_555
O73 Si15 1.642079 1_555
O74 Si6 1.628860 1_555
O74 Si13 1.638755 1_555
O75 Si7 1.634327 1_555
O75 Si12 1.642573 1_445
O76 Si2 1.633152 1_555
O76 Si8 1.633693 1_555
O77 Si9 1.638186 1_555
O77 Si3 1.638224 1_555
O78 Si1 1.633994 1_555
O78 Si10 1.634037 1_555
O79 Si0 1.637495 1_555
O79 Si11 1.637745 1_555
