# generated using pymatgen
data_Cs2V2H2O7
_symmetry_space_group_name_H-M   'P 1'
_cell_length_a   5.92540200
_cell_length_b   9.06815600
_cell_length_c   18.58356700
_cell_angle_alpha   90.00000000
_cell_angle_beta   90.00000000
_cell_angle_gamma   90.00000000
_symmetry_Int_Tables_number   1
_chemical_formula_structural   Cs2V2H2O7
_chemical_formula_sum   'Cs8 V8 H8 O28'
_cell_volume   998.54095072
_cell_formula_units_Z   4
loop_
 _symmetry_equiv_pos_site_id
 _symmetry_equiv_pos_as_xyz
  1  'x, y, z'
loop_
 _atom_site_type_symbol
 _atom_site_label
 _atom_site_symmetry_multiplicity
 _atom_site_fract_x
 _atom_site_fract_y
 _atom_site_fract_z
 _atom_site_occupancy
  Cs  Cs0  1  0.59597600  0.25000000  0.96417500  1
  Cs  Cs1  1  0.40402400  0.75000000  0.03582500  1
  Cs  Cs2  1  0.59597600  0.75000000  0.53582500  1
  Cs  Cs3  1  0.40402400  0.25000000  0.46417500  1
  Cs  Cs4  1  0.59021200  0.25000000  0.70192000  1
  Cs  Cs5  1  0.40978800  0.75000000  0.29808000  1
  Cs  Cs6  1  0.59021200  0.75000000  0.79808000  1
  Cs  Cs7  1  0.40978800  0.25000000  0.20192000  1
  V  V0  1  0.12077100  0.56021300  0.66127300  1
  V  V1  1  0.87922900  0.06021300  0.33872700  1
  V  V2  1  0.12077100  0.43978700  0.83872700  1
  V  V3  1  0.87922900  0.93978700  0.16127300  1
  V  V4  1  0.87922900  0.43978700  0.33872700  1
  V  V5  1  0.12077100  0.93978700  0.66127300  1
  V  V6  1  0.87922900  0.56021300  0.16127300  1
  V  V7  1  0.12077100  0.06021300  0.83872700  1
  H  H0  1  0.96036900  0.16524300  0.56447300  1
  H  H1  1  0.03963100  0.66524300  0.43552700  1
  H  H2  1  0.96036900  0.83475700  0.93552700  1
  H  H3  1  0.03963100  0.33475700  0.06447300  1
  H  H4  1  0.03963100  0.83475700  0.43552700  1
  H  H5  1  0.96036900  0.33475700  0.56447300  1
  H  H6  1  0.03963100  0.16524300  0.06447300  1
  H  H7  1  0.96036900  0.66524300  0.93552700  1
  O  O0  1  0.22265400  0.75000000  0.65036900  1
  O  O1  1  0.77734600  0.25000000  0.34963100  1
  O  O2  1  0.22265400  0.25000000  0.84963100  1
  O  O3  1  0.77734600  0.75000000  0.15036900  1
  O  O4  1  0.83951800  0.55375300  0.65749200  1
  O  O5  1  0.16048200  0.05375300  0.34250800  1
  O  O6  1  0.83951800  0.44624700  0.84250800  1
  O  O7  1  0.16048200  0.94624700  0.15749200  1
  O  O8  1  0.16048200  0.44624700  0.34250800  1
  O  O9  1  0.83951800  0.94624700  0.65749200  1
  O  O10  1  0.16048200  0.55375300  0.15749200  1
  O  O11  1  0.83951800  0.05375300  0.84250800  1
  O  O12  1  0.21936700  0.50000000  0.75000000  1
  O  O13  1  0.78063300  0.00000000  0.25000000  1
  O  O14  1  0.78063300  0.50000000  0.25000000  1
  O  O15  1  0.21936700  0.00000000  0.75000000  1
  O  O16  1  0.22980700  0.44985400  0.59716600  1
  O  O17  1  0.77019300  0.94985400  0.40283400  1
  O  O18  1  0.22980700  0.55014600  0.90283400  1
  O  O19  1  0.77019300  0.05014600  0.09716600  1
  O  O20  1  0.77019300  0.55014600  0.40283400  1
  O  O21  1  0.22980700  0.05014600  0.59716600  1
  O  O22  1  0.77019300  0.44985400  0.09716600  1
  O  O23  1  0.22980700  0.94985400  0.90283400  1
  O  O24  1  0.86628400  0.25000000  0.55046600  1
  O  O25  1  0.13371600  0.75000000  0.44953400  1
  O  O26  1  0.86628400  0.75000000  0.94953400  1
  O  O27  1  0.13371600  0.25000000  0.05046600  1
loop_
_geom_bond_atom_site_label_1
_geom_bond_atom_site_label_2
_geom_bond_distance
_geom_bond_site_symmetry_2
Cs0 O2 3.069919 1_555
Cs0 O27 3.173965 1_556
Cs0 O11 3.218946 1_555
Cs0 O6 3.218946 1_555
Cs0 O22 3.233908 1_556
Cs0 O19 3.233908 1_556
Cs1 O3 3.069919 1_555
Cs1 O26 3.173965 1_554
Cs1 O7 3.218946 1_555
Cs1 O10 3.218946 1_555
Cs1 O18 3.233908 1_554
Cs1 O23 3.233908 1_554
Cs2 O0 3.069919 1_555
Cs2 O25 3.173965 1_555
Cs2 O4 3.218946 1_555
Cs2 O9 3.218946 1_555
Cs2 O17 3.233908 1_555
Cs2 O20 3.233908 1_555
Cs3 O1 3.069919 1_555
Cs3 O24 3.173965 1_555
Cs3 O5 3.218946 1_555
Cs3 O8 3.218946 1_555
Cs3 O16 3.233908 1_555
Cs3 O21 3.233908 1_555
Cs4 O9 3.232809 1_545
Cs4 O4 3.232809 1_555
Cs4 O24 3.255409 1_555
Cs4 O12 3.281219 1_555
Cs4 O15 3.281219 1_555
Cs4 O16 3.410962 1_555
Cs4 O21 3.410962 1_555
Cs4 O11 3.489272 1_555
Cs4 O6 3.489272 1_555
Cs4 O2 3.504053 1_555
Cs5 O5 3.232809 1_565
Cs5 O8 3.232809 1_555
Cs5 O25 3.255409 1_555
Cs5 O14 3.281219 1_555
Cs5 O13 3.281219 1_565
Cs5 O20 3.410962 1_555
Cs5 O17 3.410962 1_555
Cs5 O10 3.489272 1_555
Cs5 O7 3.489272 1_555
Cs5 O3 3.504053 1_555
Cs6 O11 3.232809 1_565
Cs6 O6 3.232809 1_555
Cs6 O26 3.255409 1_555
Cs6 O12 3.281219 1_555
Cs6 O15 3.281219 1_565
Cs6 O23 3.410962 1_555
Cs6 O18 3.410962 1_555
Cs6 O9 3.489272 1_555
Cs6 O4 3.489272 1_555
Cs6 O0 3.504053 1_555
Cs7 O7 3.232809 1_545
Cs7 O10 3.232809 1_555
Cs7 O27 3.255409 1_555
Cs7 O14 3.281219 1_555
Cs7 O13 3.281219 1_555
Cs7 O22 3.410962 1_555
Cs7 O19 3.410962 1_555
Cs7 O8 3.489272 1_555
Cs7 O5 3.489272 1_555
Cs7 O1 3.504053 1_555
H0 O24 0.984522 1_555
H1 O25 0.984522 1_555
H2 O26 0.984522 1_555
H3 O27 0.984522 1_555
H4 O25 0.984522 1_555
H5 O24 0.984522 1_555
H6 O27 0.984522 1_555
H7 O26 0.984522 1_555
O0 V5 1.835052 1_555
O0 V0 1.835052 1_555
O1 V4 1.835052 1_555
O1 V1 1.835052 1_555
O2 V2 1.835052 1_555
O2 V7 1.835052 1_555
O3 V6 1.835052 1_555
O3 V3 1.835052 1_555
O4 V0 1.669046 1_655
O5 V1 1.669046 1_455
O6 V2 1.669046 1_655
O7 V3 1.669046 1_455
O8 V4 1.669046 1_455
O9 V5 1.669046 1_655
O10 V6 1.669046 1_455
O11 V7 1.669046 1_655
O12 V0 1.832541 1_555
O12 V2 1.832541 1_555
O13 V3 1.832541 1_545
O13 V1 1.832541 1_555
O14 V6 1.832541 1_555
O14 V4 1.832541 1_555
O15 V7 1.832541 1_555
O15 V5 1.832541 1_545
O16 V0 1.684699 1_555
O17 V1 1.684699 1_565
O18 V2 1.684699 1_555
O19 V3 1.684699 1_545
O20 V4 1.684699 1_555
O21 V5 1.684699 1_545
O22 V6 1.684699 1_555
O23 V7 1.684699 1_565
