# generated using pymatgen
data_VReO4
_symmetry_space_group_name_H-M   'P 1'
_cell_length_a   5.59403854
_cell_length_b   5.59400483
_cell_length_c   5.59454486
_cell_angle_alpha   76.40000711
_cell_angle_beta   61.32152132
_cell_angle_gamma   106.55116002
_symmetry_Int_Tables_number   1
_chemical_formula_structural   VReO4
_chemical_formula_sum   'V2 Re2 O8'
_cell_volume   132.05549350
_cell_formula_units_Z   2
loop_
 _symmetry_equiv_pos_site_id
 _symmetry_equiv_pos_as_xyz
  1  'x, y, z'
loop_
 _atom_site_type_symbol
 _atom_site_label
 _atom_site_symmetry_multiplicity
 _atom_site_fract_x
 _atom_site_fract_y
 _atom_site_fract_z
 _atom_site_occupancy
  V  V0  1  0.24994200  0.50006800  0.24998200  1
  V  V1  1  0.74994700  0.50018300  0.74987200  1
  Re  Re0  1  0.02663300  0.00005600  0.97336800  1
  Re  Re1  1  0.47384300  0.00006800  0.52607200  1
  O  O0  1  0.75018000  0.18918800  0.06059100  1
  O  O1  1  0.24962700  0.22046100  0.52985000  1
  O  O2  1  0.75023100  0.81065500  0.43914400  1
  O  O3  1  0.24972600  0.77948600  0.97083300  1
  O  O4  1  0.29400100  0.28701500  0.99303100  1
  O  O5  1  0.78046100  0.28750200  0.50707400  1
  O  O6  1  0.72000800  0.71293800  0.99306400  1
  O  O7  1  0.20540000  0.71237900  0.50712000  1
loop_
_geom_bond_atom_site_label_1
_geom_bond_atom_site_label_2
_geom_bond_distance
_geom_bond_site_symmetry_2
O0 Re1 2.049229 1_555
O0 Re0 2.049348 1_654
O0 V1 2.151655 1_554
O1 V0 1.934441 1_555
O1 Re0 1.986763 1_555
O1 Re1 1.990347 1_555
O2 Re1 2.050304 1_565
O2 Re0 2.050532 1_664
O2 V1 2.148089 1_555
O3 V0 1.933136 1_556
O3 Re0 1.987129 1_565
O3 Re1 1.991557 1_565
O4 Re0 1.923279 1_555
O4 V1 1.987983 1_555
O4 V0 2.044671 1_556
O5 Re1 1.926663 1_555
O5 V1 1.985672 1_555
O5 V0 2.042303 1_655
O6 Re0 1.923467 1_665
O6 V1 1.987959 1_555
O6 V0 2.044998 1_556
O7 Re1 1.926760 1_565
O7 V1 1.985592 1_455
O7 V0 2.042106 1_555
