# generated using pymatgen
data_RbTaCl6
_symmetry_space_group_name_H-M   'P 1'
_cell_length_a   6.28622922
_cell_length_b   6.82002874
_cell_length_c   12.21625256
_cell_angle_alpha   100.47155999
_cell_angle_beta   90.00000000
_cell_angle_gamma   117.44295802
_symmetry_Int_Tables_number   1
_chemical_formula_structural   RbTaCl6
_chemical_formula_sum   'Rb2 Ta2 Cl12'
_cell_volume   454.95085632
_cell_formula_units_Z   2
loop_
 _symmetry_equiv_pos_site_id
 _symmetry_equiv_pos_as_xyz
  1  'x, y, z'
loop_
 _atom_site_type_symbol
 _atom_site_label
 _atom_site_symmetry_multiplicity
 _atom_site_fract_x
 _atom_site_fract_y
 _atom_site_fract_z
 _atom_site_occupancy
  Rb  Rb0  1  0.89264868  0.00000000  0.75000000  1
  Rb  Rb1  1  0.10735132  0.00000000  0.25000000  1
  Ta  Ta0  1  0.50000000  0.50000000  -0.00000000  1
  Ta  Ta1  1  0.00000000  0.50000000  0.50000000  1
  Cl  Cl0  1  0.47659823  0.16262734  0.89497297  1
  Cl  Cl1  1  0.52340177  0.83737266  0.10502703  1
  Cl  Cl2  1  0.31397089  0.83737266  0.60502703  1
  Cl  Cl3  1  0.68602911  0.16262734  0.39497297  1
  Cl  Cl4  1  0.37273978  0.57070744  0.83640816  1
  Cl  Cl5  1  0.62726022  0.42929256  0.16359184  1
  Cl  Cl6  1  0.80203235  0.42929256  0.66359184  1
  Cl  Cl7  1  0.19796765  0.57070744  0.33640816  1
  Cl  Cl8  1  0.79667585  0.70191383  0.46405917  1
  Cl  Cl9  1  0.20332415  0.29808617  0.53594083  1
  Cl  Cl10  1  0.09476202  0.29808617  0.03594083  1
  Cl  Cl11  1  0.90523798  0.70191383  0.96405917  1
loop_
_geom_bond_atom_site_label_1
_geom_bond_atom_site_label_2
_geom_bond_distance
_geom_bond_site_symmetry_2
Cl0 Ta0 2.361536 1_556
Cl0 Rb0 3.628592 1_555
Cl0 Rb0 3.657185 1_455
Cl1 Ta0 2.361536 1_555
Cl1 Rb1 3.628592 1_565
Cl1 Rb1 3.657185 1_665
Cl2 Ta1 2.361536 1_555
Cl2 Rb0 3.628592 1_565
Cl2 Rb0 3.657185 1_465
Cl3 Ta1 2.361536 1_655
Cl3 Rb1 3.628592 1_555
Cl3 Rb1 3.657185 1_655
Cl4 Ta0 2.360578 1_556
Cl4 Rb0 3.559678 1_565
Cl4 Rb0 3.612646 1_455
Cl5 Ta0 2.360578 1_555
Cl5 Rb1 3.559678 1_555
Cl5 Rb1 3.612646 1_665
Cl6 Ta1 2.360578 1_655
Cl6 Rb0 3.559678 1_555
Cl6 Rb0 3.612646 1_565
Cl7 Ta1 2.360578 1_555
Cl7 Rb1 3.559678 1_565
Cl7 Rb1 3.612646 1_555
Cl8 Ta1 2.358983 1_655
Cl8 Rb0 3.603749 1_565
Cl8 Rb1 3.613600 1_665
Cl9 Ta1 2.358983 1_555
Cl9 Rb1 3.603749 1_555
Cl9 Rb0 3.613600 1_455
Cl10 Ta0 2.358983 1_555
Cl10 Rb0 3.603749 1_454
Cl10 Rb1 3.613600 1_555
Cl11 Ta0 2.358983 1_556
Cl11 Rb1 3.603749 1_666
Cl11 Rb0 3.613600 1_565
