# generated using pymatgen
data_VCrSi
_symmetry_space_group_name_H-M   'P 1'
_cell_length_a   4.85677194
_cell_length_b   4.85677194
_cell_length_c   7.51955500
_cell_angle_alpha   90.00000000
_cell_angle_beta   90.00000000
_cell_angle_gamma   121.64124484
_symmetry_Int_Tables_number   1
_chemical_formula_structural   VCrSi
_chemical_formula_sum   'V4 Cr4 Si4'
_cell_volume   151.00643546
_cell_formula_units_Z   4
loop_
 _symmetry_equiv_pos_site_id
 _symmetry_equiv_pos_as_xyz
  1  'x, y, z'
loop_
 _atom_site_type_symbol
 _atom_site_label
 _atom_site_symmetry_multiplicity
 _atom_site_fract_x
 _atom_site_fract_y
 _atom_site_fract_z
 _atom_site_occupancy
  V  V0  1  0.33392100  0.66607900  0.18525400  1
  V  V1  1  0.66622100  0.33377900  0.31169000  1
  V  V2  1  0.66622100  0.33377900  0.68831000  1
  V  V3  1  0.33392100  0.66607900  0.81474600  1
  Cr  Cr0  1  0.00311600  0.99688400  0.24956700  1
  Cr  Cr1  1  0.00311600  0.99688400  0.75043300  1
  Cr  Cr2  1  0.82890300  0.66336400  0.00000000  1
  Cr  Cr3  1  0.33663600  0.17109700  0.00000000  1
  Si  Si0  1  0.82551800  0.17448200  0.00000000  1
  Si  Si1  1  0.17223400  0.34117600  0.50000000  1
  Si  Si2  1  0.65882400  0.82776600  0.50000000  1
  Si  Si3  1  0.17156900  0.82843100  0.50000000  1
loop_
_geom_bond_atom_site_label_1
_geom_bond_atom_site_label_2
_geom_bond_distance
_geom_bond_site_symmetry_2
V0 V3 2.786055 1_554
V0 V1 2.921236 1_455
V0 V1 2.921236 1_565
V0 V1 2.974244 1_555
V1 V2 2.832015 1_555
V2 V3 2.921236 1_655
V2 V3 2.921236 1_545
V2 V3 2.974244 1_555
Cr0 Cr3 2.328845 1_565
Cr0 Cr2 2.328845 1_455
Cr0 Si1 2.361342 1_565
Cr0 Si2 2.361342 1_455
Cr0 Si3 2.363729 1_555
Cr0 Si0 2.406314 1_465
Cr0 V1 2.781833 1_565
Cr0 V1 2.781833 1_455
Cr0 V0 2.810660 1_565
Cr0 V0 2.810660 1_455
Cr0 V0 2.846891 1_555
Cr0 V1 2.895099 1_465
Cr1 Cr3 2.328845 1_566
Cr1 Cr2 2.328845 1_456
Cr1 Si1 2.361342 1_565
Cr1 Si2 2.361342 1_455
Cr1 Si3 2.363729 1_555
Cr1 Si0 2.406314 1_466
Cr1 V2 2.781833 1_565
Cr1 V2 2.781833 1_455
Cr1 V3 2.810660 1_565
Cr1 V3 2.810660 1_455
Cr1 V3 2.846891 1_555
Cr1 V2 2.895099 1_465
Cr2 Cr3 2.331275 1_555
Cr2 Si0 2.365805 1_555
Cr2 Cr3 2.404519 1_665
Cr2 Si0 2.491047 1_565
Cr2 V2 2.711617 1_554
Cr2 V1 2.711617 1_555
Cr2 V0 2.784465 1_555
Cr2 V3 2.784465 1_554
Cr2 V0 2.814744 1_655
Cr2 V3 2.814744 1_654
Cr3 Si0 2.365805 1_555
Cr3 Si0 2.491047 1_455
Cr3 V2 2.711617 1_554
Cr3 V1 2.711617 1_555
Cr3 V3 2.784465 1_554
Cr3 V0 2.784465 1_555
Cr3 V0 2.814744 1_545
Cr3 V3 2.814744 1_544
Si0 V2 2.705254 1_554
Si0 V1 2.705254 1_555
Si0 V0 2.748189 1_655
Si0 V3 2.748189 1_654
Si0 V3 2.748189 1_544
Si0 V0 2.748189 1_545
Si1 Si2 2.304390 1_555
Si1 Si3 2.368182 1_555
Si1 Si2 2.431404 1_445
Si1 Si3 2.488593 1_545
Si1 V3 2.721777 1_555
Si1 V0 2.721777 1_555
Si1 V1 2.802298 1_555
Si1 V2 2.802298 1_555
Si1 V1 2.820192 1_455
Si1 V2 2.820192 1_455
Si2 Si3 2.368182 1_555
Si2 Si3 2.488593 1_655
Si2 V0 2.721777 1_555
Si2 V3 2.721777 1_555
Si2 V1 2.802298 1_555
Si2 V2 2.802298 1_555
Si2 V1 2.820192 1_565
Si2 V2 2.820192 1_565
Si3 V3 2.738124 1_555
Si3 V0 2.738124 1_555
Si3 V1 2.759360 1_455
Si3 V2 2.759360 1_455
Si3 V1 2.759360 1_565
Si3 V2 2.759360 1_565
