# generated using pymatgen
data_ThHg3
_symmetry_space_group_name_H-M   'P 1'
_cell_length_a   7.03866588
_cell_length_b   7.03866588
_cell_length_c   20.10944200
_cell_angle_alpha   90.00000000
_cell_angle_beta   90.00000000
_cell_angle_gamma   120.00001764
_symmetry_Int_Tables_number   1
_chemical_formula_structural   ThHg3
_chemical_formula_sum   'Th8 Hg24'
_cell_volume   862.80226027
_cell_formula_units_Z   8
loop_
 _symmetry_equiv_pos_site_id
 _symmetry_equiv_pos_as_xyz
  1  'x, y, z'
loop_
 _atom_site_type_symbol
 _atom_site_label
 _atom_site_symmetry_multiplicity
 _atom_site_fract_x
 _atom_site_fract_y
 _atom_site_fract_z
 _atom_site_occupancy
  Th  Th0_0  1  0.33333350  0.16666650  0.00000000  1
  Th  Th0_1  1  0.33333350  0.16666650  0.50000000  1
  Th  Th0_2  1  0.33333350  0.66666650  0.00000000  1
  Th  Th0_3  1  0.33333350  0.66666650  0.50000000  1
  Th  Th0_4  1  0.83333350  0.16666650  0.00000000  1
  Th  Th0_5  1  0.83333350  0.16666650  0.50000000  1
  Th  Th0_6  1  0.83333350  0.66666650  0.00000000  1
  Th  Th0_7  1  0.83333350  0.66666650  0.50000000  1
  Hg  Hg0_0  1  0.33333350  0.16666650  0.25000000  1
  Hg  Hg0_1  1  0.33333350  0.16666650  0.75000000  1
  Hg  Hg0_2  1  0.33333350  0.66666650  0.25000000  1
  Hg  Hg0_3  1  0.33333350  0.66666650  0.75000000  1
  Hg  Hg0_4  1  0.83333350  0.16666650  0.25000000  1
  Hg  Hg0_5  1  0.83333350  0.16666650  0.75000000  1
  Hg  Hg0_6  1  0.83333350  0.66666650  0.25000000  1
  Hg  Hg0_7  1  0.83333350  0.66666650  0.75000000  1
  Hg  Hg1_0  1  0.16666650  0.33333350  0.13064000  1
  Hg  Hg1_1  1  0.16666650  0.33333350  0.63064000  1
  Hg  Hg1_2  1  0.16666650  0.83333350  0.13064000  1
  Hg  Hg1_3  1  0.16666650  0.83333350  0.63064000  1
  Hg  Hg1_4  1  0.66666650  0.33333350  0.13064000  1
  Hg  Hg1_5  1  0.66666650  0.33333350  0.63064000  1
  Hg  Hg1_6  1  0.66666650  0.83333350  0.13064000  1
  Hg  Hg1_7  1  0.66666650  0.83333350  0.63064000  1
  Hg  Hg2_0  1  0.16666650  0.33333350  0.36936000  1
  Hg  Hg2_1  1  0.16666650  0.33333350  0.86936000  1
  Hg  Hg2_2  1  0.16666650  0.83333350  0.36936000  1
  Hg  Hg2_3  1  0.16666650  0.83333350  0.86936000  1
  Hg  Hg2_4  1  0.66666650  0.33333350  0.36936000  1
  Hg  Hg2_5  1  0.66666650  0.33333350  0.86936000  1
  Hg  Hg2_6  1  0.66666650  0.83333350  0.36936000  1
  Hg  Hg2_7  1  0.66666650  0.83333350  0.86936000  1
loop_
_geom_bond_atom_site_label_1
_geom_bond_atom_site_label_2
_geom_bond_distance
_geom_bond_site_symmetry_2
Th0_0 Th0_6 3.519332 1_555
Th0_0 Th0_6 3.519332 1_445
Th0_0 Th0_2 3.519333 1_545
Th0_0 Th0_4 3.519333 1_555
Th0_0 Th0_2 3.519333 1_555
Th0_0 Th0_4 3.519333 1_455
Th0_1 Th0_7 3.519332 1_555
Th0_1 Th0_7 3.519332 1_445
Th0_1 Th0_5 3.519333 1_555
Th0_1 Th0_3 3.519333 1_545
Th0_1 Th0_3 3.519333 1_555
Th0_1 Th0_5 3.519333 1_455
Th0_2 Th0_4 3.519332 1_565
Th0_2 Th0_4 3.519332 1_455
Th0_2 Th0_6 3.519333 1_555
Th0_2 Th0_6 3.519333 1_455
Th0_3 Th0_5 3.519332 1_565
Th0_3 Th0_5 3.519332 1_455
Th0_3 Th0_7 3.519333 1_555
Th0_3 Th0_7 3.519333 1_455
Th0_4 Th0_6 3.519333 1_555
Th0_4 Th0_6 3.519333 1_545
Th0_5 Th0_7 3.519333 1_545
Th0_5 Th0_7 3.519333 1_555
Hg0_0 Hg1_4 3.144809 1_555
Hg0_0 Hg1_2 3.144809 1_545
Hg0_0 Hg2_4 3.144809 1_555
Hg0_0 Hg2_2 3.144809 1_545
Hg0_0 Hg1_0 3.144813 1_555
Hg0_0 Hg2_0 3.144813 1_555
Hg0_1 Hg1_3 3.144809 1_545
Hg0_1 Hg1_5 3.144809 1_555
Hg0_1 Hg2_5 3.144809 1_555
Hg0_1 Hg2_3 3.144809 1_545
Hg0_1 Hg1_1 3.144813 1_555
Hg0_1 Hg2_1 3.144813 1_555
Hg0_2 Hg1_6 3.144809 1_555
Hg0_2 Hg2_6 3.144809 1_555
Hg0_2 Hg1_0 3.144809 1_555
Hg0_2 Hg2_0 3.144809 1_555
Hg0_2 Hg1_2 3.144813 1_555
Hg0_2 Hg2_2 3.144813 1_555
Hg0_3 Hg1_7 3.144809 1_555
Hg0_3 Hg1_1 3.144809 1_555
Hg0_3 Hg2_1 3.144809 1_555
Hg0_3 Hg2_7 3.144809 1_555
Hg0_3 Hg1_3 3.144813 1_555
Hg0_3 Hg2_3 3.144813 1_555
Hg0_4 Hg1_6 3.144809 1_545
Hg0_4 Hg2_6 3.144809 1_545
Hg0_4 Hg1_0 3.144809 1_655
Hg0_4 Hg2_0 3.144809 1_655
Hg0_4 Hg1_4 3.144813 1_555
Hg0_4 Hg2_4 3.144813 1_555
Hg0_5 Hg1_7 3.144809 1_545
Hg0_5 Hg1_1 3.144809 1_655
Hg0_5 Hg2_7 3.144809 1_545
Hg0_5 Hg2_1 3.144809 1_655
Hg0_5 Hg1_5 3.144813 1_555
Hg0_5 Hg2_5 3.144813 1_555
Hg0_6 Hg1_2 3.144809 1_655
Hg0_6 Hg2_2 3.144809 1_655
Hg0_6 Hg2_4 3.144809 1_555
Hg0_6 Hg1_4 3.144809 1_555
Hg0_6 Hg1_6 3.144813 1_555
Hg0_6 Hg2_6 3.144813 1_555
Hg0_7 Hg1_3 3.144809 1_655
Hg0_7 Hg1_5 3.144809 1_555
Hg0_7 Hg2_3 3.144809 1_655
Hg0_7 Hg2_5 3.144809 1_555
Hg0_7 Hg1_7 3.144813 1_555
Hg0_7 Hg2_7 3.144813 1_555
Hg1_0 Th0_2 3.321174 1_555
Hg1_0 Th0_4 3.321174 1_455
Hg1_0 Th0_0 3.321179 1_555
Hg1_1 Th0_5 3.321174 1_455
Hg1_1 Th0_3 3.321174 1_555
Hg1_1 Th0_1 3.321179 1_555
Hg1_2 Th0_6 3.321174 1_455
Hg1_2 Th0_0 3.321174 1_565
Hg1_2 Th0_2 3.321179 1_555
Hg1_3 Th0_7 3.321174 1_455
Hg1_3 Th0_1 3.321174 1_565
Hg1_3 Th0_3 3.321179 1_555
Hg1_4 Th0_0 3.321174 1_555
Hg1_4 Th0_6 3.321174 1_555
Hg1_4 Th0_4 3.321179 1_555
Hg1_5 Th0_1 3.321174 1_555
Hg1_5 Th0_7 3.321174 1_555
Hg1_5 Th0_5 3.321179 1_555
Hg1_6 Th0_4 3.321174 1_565
Hg1_6 Th0_2 3.321174 1_555
Hg1_6 Th0_6 3.321179 1_555
Hg1_7 Th0_5 3.321174 1_565
Hg1_7 Th0_3 3.321174 1_555
Hg1_7 Th0_7 3.321179 1_555
Hg2_0 Th0_5 3.321174 1_455
Hg2_0 Th0_3 3.321174 1_555
Hg2_0 Th0_1 3.321179 1_555
Hg2_1 Th0_4 3.321174 1_456
Hg2_1 Th0_2 3.321174 1_556
Hg2_1 Th0_0 3.321179 1_556
Hg2_2 Th0_7 3.321174 1_455
Hg2_2 Th0_1 3.321174 1_565
Hg2_2 Th0_3 3.321179 1_555
Hg2_3 Th0_0 3.321174 1_566
Hg2_3 Th0_6 3.321174 1_456
Hg2_3 Th0_2 3.321179 1_556
Hg2_4 Th0_1 3.321174 1_555
Hg2_4 Th0_7 3.321174 1_555
Hg2_4 Th0_5 3.321179 1_555
Hg2_5 Th0_0 3.321174 1_556
Hg2_5 Th0_6 3.321174 1_556
Hg2_5 Th0_4 3.321179 1_556
Hg2_6 Th0_5 3.321174 1_565
Hg2_6 Th0_3 3.321174 1_555
Hg2_6 Th0_7 3.321179 1_555
Hg2_7 Th0_4 3.321174 1_566
Hg2_7 Th0_2 3.321174 1_556
Hg2_7 Th0_6 3.321179 1_556
