# generated using pymatgen
data_Sm2MgPtO6
_symmetry_space_group_name_H-M   'P 1'
_cell_length_a   5.76001200
_cell_length_b   5.45716700
_cell_length_c   9.52283605
_cell_angle_alpha   55.33822598
_cell_angle_beta   90.00000000
_cell_angle_gamma   90.00000000
_symmetry_Int_Tables_number   1
_chemical_formula_structural   Sm2MgPtO6
_chemical_formula_sum   'Sm4 Mg2 Pt2 O12'
_cell_volume   246.20980336
_cell_formula_units_Z   2
loop_
 _symmetry_equiv_pos_site_id
 _symmetry_equiv_pos_as_xyz
  1  'x, y, z'
loop_
 _atom_site_type_symbol
 _atom_site_label
 _atom_site_symmetry_multiplicity
 _atom_site_fract_x
 _atom_site_fract_y
 _atom_site_fract_z
 _atom_site_occupancy
  Sm  Sm0  1  0.43340100  0.23170900  0.74900500  1
  Sm  Sm1  1  0.56659900  0.76829100  0.25099500  1
  Sm  Sm2  1  0.93340100  0.76829100  0.75099500  1
  Sm  Sm3  1  0.06659900  0.23170900  0.24900500  1
  Mg  Mg0  1  0.00000000  0.50000000  0.50000000  1
  Mg  Mg1  1  0.50000000  0.50000000  0.00000000  1
  Pt  Pt0  1  0.00000000  0.00000000  0.00000000  1
  Pt  Pt1  1  0.50000000  0.00000000  0.50000000  1
  O  O0  1  0.03826500  0.35685000  0.75210000  1
  O  O1  1  0.96173500  0.64315000  0.24790000  1
  O  O2  1  0.53826500  0.64315000  0.74790000  1
  O  O3  1  0.46173500  0.35685000  0.25210000  1
  O  O4  1  0.70202300  0.86510800  0.94277000  1
  O  O5  1  0.29797700  0.13489200  0.05723000  1
  O  O6  1  0.20202300  0.13489200  0.55723000  1
  O  O7  1  0.79797700  0.86510800  0.44277000  1
  O  O8  1  0.19805300  0.75068100  0.94562200  1
  O  O9  1  0.80194700  0.24931900  0.05437800  1
  O  O10  1  0.69805300  0.24931900  0.55437800  1
  O  O11  1  0.30194700  0.75068100  0.44562200  1
loop_
_geom_bond_atom_site_label_1
_geom_bond_atom_site_label_2
_geom_bond_distance
_geom_bond_site_symmetry_2
Mg0 O1 2.070995 1_455
Mg0 O0 2.070995 1_555
Mg0 O11 2.087750 1_555
Mg0 O10 2.087750 1_455
Mg0 O6 2.094242 1_555
Mg0 O7 2.094242 1_455
Mg1 O2 2.070995 1_554
Mg1 O3 2.070995 1_555
Mg1 O8 2.087750 1_554
Mg1 O9 2.087750 1_555
Mg1 O4 2.094242 1_554
Mg1 O5 2.094242 1_555
O0 Pt0 2.045653 1_556
O0 Sm2 2.319365 1_455
O0 Sm0 2.381230 1_555
O1 Pt0 2.045653 1_665
O1 Sm3 2.319365 1_655
O1 Sm1 2.381230 1_555
O2 Pt1 2.045653 1_565
O2 Sm0 2.319365 1_555
O2 Sm2 2.381230 1_555
O3 Pt1 2.045653 1_555
O3 Sm1 2.319365 1_555
O3 Sm3 2.381230 1_555
O4 Pt0 2.059391 1_666
O4 Sm0 2.366906 1_565
O4 Sm2 2.547161 1_555
O4 Sm1 2.781890 1_556
O5 Pt0 2.059391 1_555
O5 Sm1 2.366906 1_545
O5 Sm3 2.547161 1_555
O5 Sm0 2.781890 1_554
O6 Pt1 2.059391 1_555
O6 Sm2 2.366906 1_445
O6 Sm0 2.547161 1_555
O6 Sm3 2.781890 1_555
O7 Pt1 2.059391 1_565
O7 Sm3 2.366906 1_665
O7 Sm1 2.547161 1_555
O7 Sm2 2.781890 1_555
O8 Pt0 2.054778 1_566
O8 Sm2 2.359137 1_455
O8 Sm0 2.577521 1_565
O8 Sm3 2.762969 1_556
O9 Pt0 2.054778 1_655
O9 Sm3 2.359137 1_655
O9 Sm1 2.577521 1_545
O9 Sm2 2.762969 1_554
O10 Pt1 2.054778 1_555
O10 Sm0 2.359137 1_555
O10 Sm2 2.577521 1_545
O10 Sm1 2.762969 1_555
O11 Pt1 2.054778 1_565
O11 Sm1 2.359137 1_555
O11 Sm3 2.577521 1_565
O11 Sm0 2.762969 1_555
