# generated using pymatgen
data_Mg14CoMo
_symmetry_space_group_name_H-M   'P 1'
_cell_length_a   6.26098387
_cell_length_b   6.20159348
_cell_length_c   9.86733098
_cell_angle_alpha   90.00000000
_cell_angle_beta   90.00000000
_cell_angle_gamma   119.68671060
_symmetry_Int_Tables_number   1
_chemical_formula_structural   Mg14CoMo
_chemical_formula_sum   'Mg14 Co1 Mo1'
_cell_volume   332.84236407
_cell_formula_units_Z   1
loop_
 _symmetry_equiv_pos_site_id
 _symmetry_equiv_pos_as_xyz
  1  'x, y, z'
loop_
 _atom_site_type_symbol
 _atom_site_label
 _atom_site_symmetry_multiplicity
 _atom_site_fract_x
 _atom_site_fract_y
 _atom_site_fract_z
 _atom_site_occupancy
  Mg  Mg0  1  0.16848617  0.33424258  0.62500000  1
  Mg  Mg1  1  0.16980572  0.83490236  0.62500000  1
  Mg  Mg2  1  0.66594301  0.33675323  0.12500000  1
  Mg  Mg3  1  0.66344251  0.33045251  0.62500000  1
  Mg  Mg4  1  0.66594301  0.82918878  0.12500000  1
  Mg  Mg5  1  0.66344251  0.83298900  0.62500000  1
  Mg  Mg6  1  0.32481635  0.16258724  0.35573668  1
  Mg  Mg7  1  0.32481635  0.16258724  0.89426332  1
  Mg  Mg8  1  0.32481635  0.66223010  0.35573668  1
  Mg  Mg9  1  0.32481635  0.66223010  0.89426332  1
  Mg  Mg10  1  0.85070530  0.17535315  0.36247262  1
  Mg  Mg11  1  0.85070530  0.17535315  0.88752738  1
  Mg  Mg12  1  0.84595843  0.67297971  0.37094274  1
  Mg  Mg13  1  0.84595843  0.67297971  0.87905726  1
  Co  Co0  1  0.15662951  0.32831426  0.12500000  1
  Mo  Mo0  1  0.15371473  0.82685687  0.12500000  1
loop_
_geom_bond_atom_site_label_1
_geom_bond_atom_site_label_2
_geom_bond_distance
_geom_bond_site_symmetry_2
Mg0 Mg1 3.100805 1_545
Mg0 Mg1 3.100805 1_555
Mg0 Mg5 3.110621 1_555
Mg0 Mg3 3.110621 1_555
Mg0 Mg10 3.114166 1_455
Mg0 Mg11 3.114166 1_455
Mg0 Mg5 3.150495 1_445
Mg0 Mg3 3.150496 1_455
Mg0 Mg7 3.191001 1_555
Mg0 Mg6 3.191001 1_555
Mg0 Mg8 3.191007 1_555
Mg0 Mg9 3.191007 1_555
Mg1 Mg13 3.063849 1_455
Mg1 Mg12 3.063849 1_455
Mg1 Mg3 3.096546 1_565
Mg1 Mg5 3.096546 1_555
Mg1 Mg3 3.164472 1_455
Mg1 Mg5 3.164472 1_455
Mg1 Mg8 3.190172 1_555
Mg1 Mg9 3.190172 1_555
Mg1 Mg7 3.190178 1_565
Mg1 Mg6 3.190178 1_565
Mg2 Mg6 2.937148 1_555
Mg2 Mg7 2.937148 1_554
Mg2 Mg4 3.053885 1_555
Mg2 Mo0 3.061119 1_655
Mg2 Mg4 3.147708 1_545
Mg2 Mo0 3.199915 1_545
Mg3 Mg5 3.085066 1_545
Mg3 Mg5 3.116527 1_555
Mg3 Mg6 3.232908 1_555
Mg3 Mg7 3.232908 1_555
Mg4 Mg8 2.937148 1_555
Mg4 Mg9 2.937148 1_554
Mg4 Mo0 3.061119 1_655
Mg4 Mo0 3.199915 1_555
Mg5 Mg9 3.232908 1_555
Mg5 Mg8 3.232908 1_555
Mg6 Mo0 2.908079 1_545
Mg7 Mo0 2.908079 1_546
Mg8 Mo0 2.908073 1_555
Mg9 Mo0 2.908073 1_556
Mg10 Mg2 2.996269 1_555
Mg10 Mg4 2.996275 1_545
Mg10 Mg3 3.182336 1_555
Mg10 Mg5 3.182341 1_545
Mg11 Mg2 2.996269 1_556
Mg11 Mg4 2.996275 1_546
Mg11 Mg3 3.182336 1_555
Mg11 Mg5 3.182341 1_545
Mg12 Mo0 2.948128 1_655
Mg12 Mg4 3.029786 1_555
Mg12 Mg2 3.029792 1_555
Mg12 Mg5 3.114175 1_555
Mg12 Mg3 3.114181 1_555
Mg13 Mo0 2.948128 1_656
Mg13 Mg4 3.029786 1_556
Mg13 Mg2 3.029792 1_556
Mg13 Mg5 3.114175 1_555
Mg13 Mg3 3.114181 1_555
Co0 Mg10 2.873940 1_455
Co0 Mg11 2.873940 1_454
Co0 Mg6 2.901855 1_555
Co0 Mg7 2.901855 1_554
Co0 Mg9 2.901861 1_554
Co0 Mg8 2.901861 1_555
Co0 Mg4 3.098433 1_445
Co0 Mg2 3.098433 1_455
Co0 Mo0 3.100837 1_545
Co0 Mo0 3.100837 1_555
Co0 Mg4 3.163211 1_555
Co0 Mg2 3.163211 1_555
