# generated using pymatgen
data_Li10Zn7(PS4)8
_symmetry_space_group_name_H-M   'P 1'
_cell_length_a   11.63812731
_cell_length_b   11.64382573
_cell_length_c   18.39080352
_cell_angle_alpha   90.01630560
_cell_angle_beta   89.96163380
_cell_angle_gamma   90.01486492
_symmetry_Int_Tables_number   1
_chemical_formula_structural   Li10Zn7(PS4)8
_chemical_formula_sum   'Li20 Zn14 P16 S64'
_cell_volume   2492.17982076
_cell_formula_units_Z   2
loop_
 _symmetry_equiv_pos_site_id
 _symmetry_equiv_pos_as_xyz
  1  'x, y, z'
loop_
 _atom_site_type_symbol
 _atom_site_label
 _atom_site_symmetry_multiplicity
 _atom_site_fract_x
 _atom_site_fract_y
 _atom_site_fract_z
 _atom_site_occupancy
  Li  Li0  1  0.99188744  0.25050615  0.37388621  1
  Li  Li1  1  0.74907395  0.50107489  0.12783514  1
  Li  Li2  1  0.49854851  0.50119798  0.25291660  1
  Li  Li3  1  0.00073938  0.50225325  0.25035698  1
  Li  Li4  1  0.50408759  0.00093200  0.25050511  1
  Li  Li5  1  0.99708366  0.99563490  0.24724870  1
  Li  Li6  1  0.75020064  0.74941815  0.50054473  1
  Li  Li7  1  0.50002970  0.50032115  0.74950812  1
  Li  Li8  1  0.25029828  0.75050496  0.50032799  1
  Li  Li9  1  0.00002694  0.50003775  0.74991727  1
  Li  Li10  1  0.74693996  0.24931298  0.50392539  1
  Li  Li11  1  0.49998539  0.00004855  0.74991010  1
  Li  Li12  1  0.25332409  0.24992838  0.50312638  1
  Li  Li13  1  0.00001432  0.99985266  0.75035239  1
  Li  Li14  1  0.74928910  0.75334309  0.99857770  1
  Li  Li15  1  0.24960578  0.75011367  0.99755552  1
  Li  Li16  1  0.75047927  0.24680768  0.99815197  1
  Li  Li17  1  0.25043461  0.24978828  0.99726254  1
  Li  Li18  1  0.74643647  0.24743784  0.25046146  1
  Li  Li19  1  0.75078916  0.75417887  0.25371467  1
  Zn  Zn0  1  0.25196488  0.25127082  0.24648849  1
  Zn  Zn1  1  0.25050885  0.74891734  0.24893357  1
  Zn  Zn2  1  0.50389012  0.49755563  0.49917796  1
  Zn  Zn3  1  0.24996378  0.24976502  0.75016359  1
  Zn  Zn4  1  0.99650843  0.50473347  0.50188054  1
  Zn  Zn5  1  0.75006811  0.24996877  0.74996911  1
  Zn  Zn6  1  0.50232172  0.99806312  0.49872451  1
  Zn  Zn7  1  0.25030382  0.75030284  0.75000163  1
  Zn  Zn8  1  0.99793018  0.99964475  0.50139538  1
  Zn  Zn9  1  0.74959517  0.75003806  0.74979545  1
  Zn  Zn10  1  0.49671792  0.50030647  0.99839186  1
  Zn  Zn11  1  0.00307785  0.49978730  0.99820753  1
  Zn  Zn12  1  0.49937205  0.00098333  0.00117654  1
  Zn  Zn13  1  0.00051669  0.99877940  0.00094034  1
  P  P0  1  0.24971449  0.49857137  0.37459465  1
  P  P1  1  0.75162594  0.49828485  0.37561259  1
  P  P2  1  0.24862324  0.00045365  0.37618432  1
  P  P3  1  0.75042902  0.00144014  0.37396996  1
  P  P4  1  0.49963730  0.74978988  0.62476645  1
  P  P5  1  0.24996731  0.50007457  0.87374357  1
  P  P6  1  0.00031000  0.75039335  0.62576761  1
  P  P7  1  0.74993411  0.49995289  0.87527393  1
  P  P8  1  0.49981708  0.24977580  0.62554956  1
  P  P9  1  0.25007088  0.00007162  0.87477938  1
  P  P10  1  0.00056949  0.25020358  0.62521285  1
  P  P11  1  0.75004275  0.99991643  0.87488833  1
  P  P12  1  0.49964395  0.75378839  0.12630778  1
  P  P13  1  0.00059513  0.74448115  0.12311884  1
  P  P14  1  0.49943847  0.25550926  0.12291827  1
  P  P15  1  0.00035655  0.24660361  0.12633217  1
  S  S0  1  0.35980000  0.10381655  0.43321197  1
  S  S1  1  0.85931183  0.10754854  0.43812676  1
  S  S2  1  0.35952790  0.60014721  0.43390574  1
  S  S3  1  0.85995483  0.60510191  0.43418768  1
  S  S4  1  0.61135272  0.35353211  0.68290527  1
  S  S5  1  0.36154894  0.10366496  0.93194400  1
  S  S6  1  0.11145002  0.35403002  0.68259550  1
  S  S7  1  0.86222866  0.10252179  0.93231715  1
  S  S8  1  0.61073998  0.85333219  0.68263539  1
  S  S9  1  0.36074338  0.60471725  0.93068419  1
  S  S10  1  0.11140385  0.85425489  0.68301224  1
  S  S11  1  0.86020640  0.60333489  0.93393992  1
  S  S12  1  0.60628532  0.35722896  0.18378338  1
  S  S13  1  0.11033594  0.35446435  0.18252323  1
  S  S14  1  0.60882541  0.85442780  0.18214663  1
  S  S15  1  0.10983053  0.84899029  0.18184122  1
  S  S16  1  0.65051052  0.60329085  0.31559543  1
  S  S17  1  0.14634929  0.61016146  0.31808532  1
  S  S18  1  0.64533402  0.10966311  0.31996078  1
  S  S19  1  0.14566973  0.11126642  0.31434464  1
  S  S20  1  0.89583715  0.86054518  0.56842679  1
  S  S21  1  0.64626171  0.61086890  0.81778489  1
  S  S22  1  0.39626424  0.86141581  0.56743929  1
  S  S23  1  0.14582536  0.61124089  0.81679754  1
  S  S24  1  0.89681364  0.36031435  0.56697566  1
  S  S25  1  0.64668018  0.11134889  0.81733624  1
  S  S26  1  0.39724233  0.36224257  0.56835285  1
  S  S27  1  0.14615717  0.11120591  0.81736596  1
  S  S28  1  0.89721927  0.85809125  0.06686904  1
  S  S29  1  0.39538127  0.85755815  0.06388843  1
  S  S30  1  0.89732346  0.35981020  0.06494493  1
  S  S31  1  0.39262047  0.36182770  0.06428388  1
  S  S32  1  0.13808328  0.39617753  0.43615364  1
  S  S33  1  0.64342344  0.39251223  0.43492461  1
  S  S34  1  0.13709366  0.89713334  0.43294665  1
  S  S35  1  0.64503932  0.89671804  0.43630959  1
  S  S36  1  0.38850938  0.64626094  0.68252786  1
  S  S37  1  0.13911531  0.39519196  0.93061858  1
  S  S38  1  0.88913276  0.64616229  0.68297125  1
  S  S39  1  0.63961417  0.39651706  0.93385596  1
  S  S40  1  0.38826060  0.14625717  0.68289154  1
  S  S41  1  0.13858105  0.89641001  0.93198208  1
  S  S42  1  0.88941429  0.14638806  0.68261294  1
  S  S43  1  0.63789529  0.89749410  0.93239191  1
  S  S44  1  0.38912437  0.64598820  0.18198412  1
  S  S45  1  0.89149793  0.64491912  0.18389406  1
  S  S46  1  0.39159179  0.14909714  0.18155198  1
  S  S47  1  0.89245952  0.14643618  0.18395150  1
  S  S48  1  0.35290929  0.38651264  0.31829662  1
  S  S49  1  0.85552864  0.39072604  0.31489027  1
  S  S50  1  0.35083396  0.89174567  0.31637941  1
  S  S51  1  0.85708580  0.89436048  0.31998178  1
  S  S52  1  0.60344979  0.63877987  0.56736226  1
  S  S53  1  0.35414682  0.38896645  0.81668342  1
  S  S54  1  0.10474511  0.63928632  0.56857039  1
  S  S55  1  0.85381918  0.38902211  0.81776209  1
  S  S56  1  0.60237693  0.13777408  0.56835954  1
  S  S57  1  0.35383688  0.88892777  0.81724097  1
  S  S58  1  0.10418215  0.13936863  0.56715170  1
  S  S59  1  0.85340977  0.88844425  0.81730142  1
  S  S60  1  0.60230052  0.64004003  0.06454757  1
  S  S61  1  0.10695289  0.63757134  0.06442809  1
  S  S62  1  0.60327076  0.14231734  0.06667447  1
  S  S63  1  0.10449134  0.14241019  0.06423911  1
loop_
_geom_bond_atom_site_label_1
_geom_bond_atom_site_label_2
_geom_bond_distance
_geom_bond_site_symmetry_2
Li0 S49 2.523091 1_555
Li0 S1 2.558237 1_555
Li0 S19 2.651161 1_655
Li0 S32 2.661445 1_655
Li1 S45 2.572063 1_555
Li1 S12 2.573490 1_555
Li1 S60 2.626003 1_555
Li1 S30 2.649120 1_555
Li2 S16 2.422916 1_555
Li2 S12 2.448784 1_555
Li2 S48 2.469595 1_555
Li2 S44 2.484030 1_555
Li3 S45 2.423684 1_455
Li3 S49 2.438852 1_455
Li3 S17 2.450053 1_555
Li3 S13 2.478353 1_555
Li4 S18 2.436702 1_555
Li4 S14 2.444199 1_545
Li4 S50 2.502397 1_545
Li4 S46 2.510614 1_555
Li5 S51 2.414836 1_555
Li5 S47 2.434150 1_565
Li5 S15 2.466208 1_655
Li5 S19 2.515245 1_665
Li6 S35 2.416465 1_555
Li6 S3 2.437712 1_555
Li6 S52 2.466476 1_555
Li6 S20 2.471112 1_555
Li7 S53 2.467162 1_555
Li7 S36 2.468600 1_555
Li7 S4 2.469420 1_555
Li7 S21 2.476031 1_555
Li8 S22 2.465297 1_555
Li8 S54 2.473585 1_555
Li8 S2 2.484185 1_555
Li8 S34 2.488146 1_555
Li9 S23 2.463613 1_555
Li9 S38 2.465942 1_455
Li9 S6 2.470338 1_555
Li9 S55 2.473877 1_455
Li10 S33 2.417887 1_555
Li10 S1 2.428428 1_555
Li10 S56 2.432823 1_555
Li10 S24 2.461329 1_555
Li11 S57 2.469292 1_545
Li11 S8 2.471526 1_545
Li11 S40 2.472360 1_555
Li11 S25 2.476419 1_555
Li12 S26 2.440348 1_555
Li12 S58 2.460371 1_555
Li12 S0 2.465957 1_555
Li12 S32 2.494050 1_555
Li13 S10 2.467019 1_555
Li13 S27 2.468518 1_565
Li13 S59 2.471198 1_455
Li13 S42 2.474778 1_465
Li14 S43 2.446213 1_555
Li14 S28 2.455586 1_556
Li14 S11 2.475527 1_555
Li14 S60 2.477057 1_556
Li15 S29 2.435663 1_556
Li15 S61 2.446033 1_556
Li15 S41 2.455610 1_555
Li15 S9 2.459551 1_555
Li16 S7 2.444948 1_555
Li16 S62 2.449572 1_556
Li16 S39 2.471047 1_555
Li16 S30 2.482250 1_556
Li17 S31 2.441337 1_556
Li17 S63 2.441791 1_556
Li17 S5 2.451137 1_555
Li17 S37 2.459982 1_555
Li18 S18 2.364289 1_555
Li18 S47 2.400988 1_555
Li18 S49 2.408187 1_555
Li18 S12 2.408969 1_555
Li19 S51 2.383217 1_555
Li19 S16 2.396286 1_555
Li19 S14 2.414423 1_555
Li19 S45 2.438509 1_555
P0 S48 2.053103 1_555
P0 S17 2.053954 1_555
P0 S2 2.054834 1_555
P0 S32 2.095001 1_555
P1 S16 2.025171 1_555
P1 S49 2.067852 1_555
P1 S33 2.071367 1_555
P1 S3 2.072947 1_555
P2 S34 2.054248 1_545
P2 S0 2.054969 1_555
P2 S50 2.055512 1_545
P2 S19 2.096987 1_555
P3 S18 2.018329 1_555
P3 S51 2.019805 1_545
P3 S35 2.074559 1_545
P3 S1 2.127150 1_555
P4 S52 2.059932 1_555
P4 S22 2.061930 1_555
P4 S36 2.062125 1_555
P4 S8 2.063590 1_555
P5 S53 2.059929 1_555
P5 S9 2.059991 1_555
P5 S23 2.060230 1_555
P5 S37 2.061060 1_555
P6 S20 2.058817 1_455
P6 S10 2.059804 1_555
P6 S38 2.062024 1_455
P6 S54 2.062955 1_555
P7 S21 2.060296 1_555
P7 S55 2.060863 1_555
P7 S39 2.063446 1_555
P7 S11 2.064082 1_555
P8 S56 2.056699 1_555
P8 S40 2.061229 1_555
P8 S26 2.061496 1_555
P8 S4 2.063363 1_555
P9 S5 2.060034 1_555
P9 S41 2.060407 1_545
P9 S57 2.061857 1_545
P9 S27 2.062824 1_555
P10 S6 2.059306 1_555
P10 S42 2.060866 1_455
P10 S24 2.062120 1_455
P10 S58 2.063509 1_555
P11 S43 2.059666 1_555
P11 S7 2.061027 1_565
P11 S59 2.062004 1_555
P11 S25 2.062561 1_565
P12 S14 2.010630 1_555
P12 S29 2.062405 1_555
P12 S44 2.067977 1_555
P12 S60 2.114196 1_555
P13 S45 2.050215 1_455
P13 S61 2.060357 1_555
P13 S15 2.064846 1_555
P13 S28 2.066596 1_455
P14 S12 2.049979 1_555
P14 S31 2.060130 1_555
P14 S62 2.065344 1_555
P14 S46 2.066763 1_555
P15 S47 2.014501 1_455
P15 S63 2.059809 1_555
P15 S13 2.069712 1_555
P15 S30 2.110318 1_455
S0 Zn6 2.392428 1_545
S1 Zn8 2.353603 1_545
S2 Zn2 2.386475 1_555
S3 Zn4 2.333608 1_555
S4 Zn5 2.363487 1_555
S5 Zn12 2.372350 1_556
S6 Zn3 2.370921 1_555
S7 Zn13 2.376280 1_646
S8 Zn9 2.363927 1_555
S9 Zn10 2.353150 1_555
S10 Zn7 2.366555 1_555
S11 Zn11 2.370632 1_655
S13 Zn0 2.355615 1_555
S15 Zn1 2.359083 1_555
S17 Zn1 2.386474 1_555
S19 Zn0 2.396505 1_555
S20 Zn8 2.356459 1_555
S21 Zn9 2.373550 1_555
S22 Zn6 2.377002 1_555
S23 Zn7 2.368015 1_555
S24 Zn4 2.367572 1_555
S25 Zn5 2.363492 1_555
S26 Zn2 2.374738 1_555
S27 Zn3 2.363906 1_555
S28 Zn13 2.365810 1_655
S29 Zn12 2.362629 1_565
S30 Zn11 2.382388 1_654
S31 Zn10 2.352498 1_554
S32 Zn4 2.402329 1_455
S33 Zn2 2.350967 1_555
S34 Zn8 2.372744 1_455
S35 Zn6 2.338074 1_555
S36 Zn7 2.364748 1_555
S37 Zn11 2.352113 1_555
S38 Zn9 2.368116 1_555
S39 Zn10 2.373276 1_555
S40 Zn3 2.360347 1_555
S41 Zn13 2.368199 1_556
S42 Zn5 2.369928 1_555
S43 Zn12 2.376705 1_566
S44 Zn1 2.356345 1_555
S46 Zn0 2.340891 1_555
S48 Zn0 2.367253 1_555
S50 Zn1 2.380627 1_555
S52 Zn2 2.370398 1_555
S53 Zn3 2.365098 1_555
S54 Zn4 2.354901 1_455
S55 Zn5 2.373560 1_555
S56 Zn6 2.375335 1_545
S57 Zn7 2.363525 1_555
S58 Zn8 2.374502 1_445
S59 Zn9 2.366031 1_555
S60 Zn10 2.374287 1_554
S61 Zn11 2.349119 1_554
S62 Zn12 2.370888 1_555
S63 Zn13 2.369836 1_545
