# generated using pymatgen
data_Y6Mn11S20
_symmetry_space_group_name_H-M   'P 1'
_cell_length_a   4.73242466
_cell_length_b   4.73242458
_cell_length_c   66.89143628
_cell_angle_alpha   45.72000764
_cell_angle_beta   45.72000823
_cell_angle_gamma   70.85585863
_symmetry_Int_Tables_number   1
_chemical_formula_structural   Y6Mn11S20
_chemical_formula_sum   'Y6 Mn11 S20'
_cell_volume   729.75030800
_cell_formula_units_Z   1
loop_
 _symmetry_equiv_pos_site_id
 _symmetry_equiv_pos_as_xyz
  1  'x, y, z'
loop_
 _atom_site_type_symbol
 _atom_site_label
 _atom_site_symmetry_multiplicity
 _atom_site_fract_x
 _atom_site_fract_y
 _atom_site_fract_z
 _atom_site_occupancy
  Y  Y0  1  0.09621400  0.09621400  0.98938200  1
  Y  Y1  1  0.12146000  0.12146000  0.08046200  1
  Y  Y2  1  0.97749600  0.97749600  0.15561400  1
  Y  Y3  1  0.02250400  0.02250400  0.24438600  1
  Y  Y4  1  0.87854000  0.87854000  0.31953800  1
  Y  Y5  1  0.90378600  0.90378600  0.41061800  1
  Mn  Mn0  1  0.90595800  0.90595800  0.51373800  1
  Mn  Mn1  1  0.85484600  0.85484600  0.46945800  1
  Mn  Mn2  1  0.92945800  0.92945800  0.56016700  1
  Mn  Mn3  1  0.95161200  0.95161200  0.60720300  1
  Mn  Mn4  1  0.00000000  0.00000000  0.70000000  1
  Mn  Mn5  1  0.97949800  0.97949800  0.65317500  1
  Mn  Mn6  1  0.02050200  0.02050200  0.74682500  1
  Mn  Mn7  1  0.04838800  0.04838800  0.79279700  1
  Mn  Mn8  1  0.07054200  0.07054200  0.83983300  1
  Mn  Mn9  1  0.14515400  0.14515400  0.93054200  1
  Mn  Mn10  1  0.09404200  0.09404200  0.88626200  1
  S  S0  1  0.63701800  0.63701800  0.00377000  1
  S  S1  1  0.56865100  0.56865100  0.06751700  1
  S  S2  1  0.55190300  0.55190300  0.11741200  1
  S  S3  1  0.53523500  0.53523500  0.16754500  1
  S  S4  1  0.46476500  0.46476500  0.23245500  1
  S  S5  1  0.44809700  0.44809700  0.28258800  1
  S  S6  1  0.43134900  0.43134900  0.33248300  1
  S  S7  1  0.36298200  0.36298200  0.39623000  1
  S  S8  1  0.32734300  0.32734300  0.44623400  1
  S  S9  1  0.38645900  0.38645900  0.49046300  1
  S  S10  1  0.40909900  0.40909900  0.53831200  1
  S  S11  1  0.44100300  0.44100300  0.58361600  1
  S  S12  1  0.46607400  0.46607400  0.63015400  1
  S  S13  1  0.48740500  0.48740500  0.67690300  1
  S  S14  1  0.51259500  0.51259500  0.72309700  1
  S  S15  1  0.53392600  0.53392600  0.76984600  1
  S  S16  1  0.55899700  0.55899700  0.81638400  1
  S  S17  1  0.59090100  0.59090100  0.86168800  1
  S  S18  1  0.61354100  0.61354100  0.90953700  1
  S  S19  1  0.67265700  0.67265700  0.95376600  1
loop_
_geom_bond_atom_site_label_1
_geom_bond_atom_site_label_2
_geom_bond_distance
_geom_bond_site_symmetry_2
Mn0 S8 2.409199 1_665
Mn0 S11 2.446361 1_555
Mn0 S9 2.504026 1_665
Mn0 S10 2.567500 1_555
Mn1 S10 2.428712 1_555
Mn1 S8 2.447819 1_665
Mn1 S9 2.515129 1_555
Mn1 S7 2.541009 1_665
Mn2 S9 2.449792 1_665
Mn2 S12 2.453273 1_555
Mn2 S11 2.554633 1_555
Mn2 S10 2.560096 1_665
Mn3 S10 2.413007 1_665
Mn3 S13 2.439556 1_555
Mn3 S12 2.554993 1_555
Mn3 S11 2.555489 1_665
Mn4 S15 2.443503 1_445
Mn4 S12 2.443503 1_555
Mn4 S13 2.562290 1_555
Mn4 S14 2.562290 1_445
Mn5 S11 2.436968 1_665
Mn5 S14 2.445748 1_555
Mn5 S12 2.559539 1_665
Mn5 S13 2.569131 1_555
Mn6 S16 2.436968 1_445
Mn6 S13 2.445748 1_555
Mn6 S15 2.559539 1_445
Mn6 S14 2.569131 1_555
Mn7 S17 2.413007 1_445
Mn7 S14 2.439556 1_555
Mn7 S15 2.554993 1_555
Mn7 S16 2.555489 1_445
Mn8 S18 2.449792 1_445
Mn8 S15 2.453273 1_555
Mn8 S16 2.554633 1_555
Mn8 S17 2.560096 1_445
Mn9 S17 2.428712 1_555
Mn9 S19 2.447819 1_445
Mn9 S18 2.515129 1_555
Mn9 S0 2.541009 1_446
Mn10 S19 2.409199 1_445
Mn10 S16 2.446361 1_555
Mn10 S18 2.504026 1_445
Mn10 S17 2.567500 1_555
S0 Y1 2.678258 1_555
S0 Y0 2.761830 1_664
S0 Y0 3.011633 1_654
S0 Y0 3.011633 1_564
S1 Y0 2.725925 1_664
S1 Y1 2.743569 1_555
S1 Y1 3.007596 1_565
S1 Y1 3.007596 1_655
S1 Y2 3.077852 1_445
S2 Y2 2.599305 1_445
S2 Y1 2.607597 1_665
S2 Y1 3.413251 1_565
S2 Y1 3.413251 1_655
S2 Y2 3.445582 1_545
S2 Y2 3.445582 1_455
S3 Y3 2.688242 1_555
S3 Y2 2.757961 1_555
S3 Y2 2.994970 1_545
S3 Y2 2.994970 1_455
S3 Y1 3.040159 1_665
S4 Y2 2.688242 1_555
S4 Y3 2.757961 1_555
S4 Y3 2.994970 1_565
S4 Y3 2.994970 1_655
S4 Y4 3.040159 1_445
S5 Y3 2.599305 1_665
S5 Y4 2.607597 1_445
S5 Y4 3.413251 1_545
S5 Y4 3.413251 1_455
S5 Y3 3.445582 1_565
S5 Y3 3.445582 1_655
S6 Y5 2.725925 1_445
S6 Y4 2.743569 1_555
S6 Y4 3.007596 1_545
S6 Y4 3.007596 1_455
S6 Y3 3.077852 1_665
S7 Y4 2.678258 1_555
S7 Y5 2.761830 1_445
S7 Y5 3.011633 1_455
S7 Y5 3.011633 1_545
S8 Y5 2.700125 1_555
S8 Y5 3.337987 1_455
S8 Y5 3.337987 1_545
S9 Y5 2.815714 1_555
S18 Y0 2.815714 1_555
S19 Y0 2.700125 1_555
S19 Y0 3.337987 1_655
S19 Y0 3.337987 1_565
