# generated using pymatgen
data_KYb(SO5)2
_symmetry_space_group_name_H-M   'P 1'
_cell_length_a   8.29475200
_cell_length_b   9.97848700
_cell_length_c   10.96288246
_cell_angle_alpha   82.05968832
_cell_angle_beta   90.00000000
_cell_angle_gamma   90.00000000
_symmetry_Int_Tables_number   1
_chemical_formula_structural   KYb(SO5)2
_chemical_formula_sum   'K4 Yb4 S8 O40'
_cell_volume   898.68807608
_cell_formula_units_Z   4
loop_
 _symmetry_equiv_pos_site_id
 _symmetry_equiv_pos_as_xyz
  1  'x, y, z'
loop_
 _atom_site_type_symbol
 _atom_site_label
 _atom_site_symmetry_multiplicity
 _atom_site_fract_x
 _atom_site_fract_y
 _atom_site_fract_z
 _atom_site_occupancy
  K  K0  1  0.26459200  0.91041400  0.13416600  1
  K  K1  1  0.73540800  0.08958600  0.86583400  1
  K  K2  1  0.76459200  0.58958600  0.86583400  1
  K  K3  1  0.23540800  0.41041400  0.13416600  1
  Yb  Yb0  1  0.76005100  0.97155300  0.31473700  1
  Yb  Yb1  1  0.23994900  0.02844700  0.68526300  1
  Yb  Yb2  1  0.26005100  0.52844700  0.68526300  1
  Yb  Yb3  1  0.73994900  0.47155300  0.31473700  1
  S  S0  1  0.64173300  0.69071800  0.53183300  1
  S  S1  1  0.35826700  0.30928200  0.46816700  1
  S  S2  1  0.14173300  0.80928200  0.46816700  1
  S  S3  1  0.85826700  0.19071800  0.53183300  1
  S  S4  1  0.77445900  0.79079700  0.11229900  1
  S  S5  1  0.22554100  0.20920300  0.88770100  1
  S  S6  1  0.27445900  0.70920300  0.88770100  1
  S  S7  1  0.72554100  0.29079700  0.11229900  1
  O  O0  1  0.62321200  0.84873500  0.15949400  1
  O  O1  1  0.37678800  0.15126500  0.84050600  1
  O  O2  1  0.12321200  0.65126500  0.84050600  1
  O  O3  1  0.87678800  0.34873500  0.15949400  1
  O  O4  1  0.91265100  0.84846900  0.17507300  1
  O  O5  1  0.08734900  0.15153100  0.82492700  1
  O  O6  1  0.41265100  0.65153100  0.82492700  1
  O  O7  1  0.58734900  0.34846900  0.17507300  1
  O  O8  1  0.98359600  0.87551000  0.42855600  1
  O  O9  1  0.01640400  0.12449000  0.57144400  1
  O  O10  1  0.48359600  0.62449000  0.57144400  1
  O  O11  1  0.51640400  0.37551000  0.42855600  1
  O  O12  1  0.61050900  0.80643900  0.43456300  1
  O  O13  1  0.38949100  0.19356100  0.56543700  1
  O  O14  1  0.11050900  0.69356100  0.56543700  1
  O  O15  1  0.88949100  0.30643900  0.43456300  1
  O  O16  1  0.28460000  0.67483200  0.02229300  1
  O  O17  1  0.71540000  0.32516800  0.97770700  1
  O  O18  1  0.78460000  0.82516800  0.97770700  1
  O  O19  1  0.21540000  0.17483200  0.02229300  1
  O  O20  1  0.47362200  0.56583500  0.28045100  1
  O  O21  1  0.52637800  0.43416500  0.71954900  1
  O  O22  1  0.97362200  0.93416500  0.71954900  1
  O  O23  1  0.02637800  0.06583500  0.28045100  1
  O  O24  1  0.71325600  0.73851300  0.64118700  1
  O  O25  1  0.28674400  0.26148700  0.35881300  1
  O  O26  1  0.21325600  0.76148700  0.35881300  1
  O  O27  1  0.78674400  0.23851300  0.64118700  1
  O  O28  1  0.74581800  0.59134900  0.48171200  1
  O  O29  1  0.25418200  0.40865100  0.51828800  1
  O  O30  1  0.24581800  0.90865100  0.51828800  1
  O  O31  1  0.75418200  0.09134900  0.48171200  1
  O  O32  1  0.77218200  0.64040600  0.14646100  1
  O  O33  1  0.22781800  0.35959400  0.85353900  1
  O  O34  1  0.27218200  0.85959400  0.85353900  1
  O  O35  1  0.72781800  0.14040600  0.14646100  1
  O  O36  1  0.52883600  0.96839200  0.70114000  1
  O  O37  1  0.47116400  0.03160800  0.29886000  1
  O  O38  1  0.02883600  0.53160800  0.29886000  1
  O  O39  1  0.97116400  0.46839200  0.70114000  1
loop_
_geom_bond_atom_site_label_1
_geom_bond_atom_site_label_2
_geom_bond_distance
_geom_bond_site_symmetry_2
K0 O26 2.728340 1_555
K0 O19 2.781774 1_565
K0 O16 2.802553 1_555
K0 O37 2.874301 1_565
K0 O4 3.004779 1_455
K0 O0 3.042582 1_555
K0 O23 3.093298 1_565
K0 O34 3.186987 1_554
K1 O27 2.728340 1_555
K1 O18 2.781774 1_545
K1 O17 2.802553 1_555
K1 O36 2.874301 1_545
K1 O5 3.004779 1_655
K1 O1 3.042582 1_555
K1 O22 3.093298 1_545
K1 O35 3.186987 1_556
K2 O24 2.728340 1_555
K2 O17 2.781774 1_555
K2 O18 2.802553 1_555
K2 O39 2.874301 1_555
K2 O6 3.004779 1_555
K2 O2 3.042582 1_655
K2 O21 3.093298 1_555
K2 O32 3.186987 1_556
K3 O25 2.728340 1_555
K3 O16 2.781774 1_555
K3 O19 2.802553 1_555
K3 O38 2.874301 1_555
K3 O7 3.004779 1_555
K3 O3 3.042582 1_455
K3 O20 3.093298 1_555
K3 O33 3.186987 1_554
O0 S4 1.502827 1_555
O0 Yb0 2.502605 1_555
O1 S5 1.502827 1_555
O1 Yb1 2.502605 1_555
O2 S6 1.502827 1_555
O2 Yb2 2.502605 1_555
O3 S7 1.502827 1_555
O3 Yb3 2.502605 1_555
O4 S4 1.492690 1_555
O4 Yb0 2.444286 1_555
O5 S5 1.492690 1_555
O5 Yb1 2.444286 1_555
O6 S6 1.492690 1_555
O6 Yb2 2.444286 1_555
O7 S7 1.492690 1_555
O7 Yb3 2.444286 1_555
O8 S2 1.505521 1_655
O8 Yb0 2.362897 1_555
O9 S3 1.505521 1_455
O9 Yb1 2.362897 1_555
O10 S0 1.505521 1_555
O10 Yb2 2.362897 1_555
O11 S1 1.505521 1_555
O11 Yb3 2.362897 1_555
O12 S0 1.482356 1_555
O12 Yb0 2.319666 1_555
O13 S1 1.482356 1_555
O13 Yb1 2.319666 1_555
O14 S2 1.482356 1_555
O14 Yb2 2.319666 1_555
O15 S3 1.482356 1_555
O15 Yb3 2.319666 1_555
O16 S6 1.470387 1_554
O17 S7 1.470387 1_556
O18 S4 1.470387 1_556
O19 S5 1.470387 1_554
O20 Yb3 2.410159 1_555
O21 Yb2 2.410159 1_555
O22 Yb1 2.410159 1_665
O23 Yb0 2.410159 1_445
O24 S0 1.474649 1_555
O25 S1 1.474649 1_555
O26 S2 1.474649 1_555
O27 S3 1.474649 1_555
O28 S0 1.476824 1_555
O28 Yb3 2.320926 1_555
O29 S1 1.476824 1_555
O29 Yb2 2.320926 1_555
O30 S2 1.476824 1_555
O30 Yb1 2.320926 1_565
O31 S3 1.476824 1_555
O31 Yb0 2.320926 1_545
O32 S4 1.495782 1_555
O32 Yb3 2.335562 1_555
O33 S5 1.495782 1_555
O33 Yb2 2.335562 1_555
O34 S6 1.495782 1_555
O34 Yb1 2.335562 1_565
O35 S7 1.495782 1_555
O35 Yb0 2.335562 1_545
O36 Yb1 2.470341 1_565
O37 Yb0 2.470341 1_545
O38 Yb3 2.470341 1_455
O39 Yb2 2.470341 1_655
