# generated using pymatgen
data_Ba4CaZr5O15
_symmetry_space_group_name_H-M   'P 1'
_cell_length_a   4.23833400
_cell_length_b   4.23833400
_cell_length_c   21.19796100
_cell_angle_alpha   90.00000000
_cell_angle_beta   90.00000000
_cell_angle_gamma   90.00000000
_symmetry_Int_Tables_number   1
_chemical_formula_structural   Ba4CaZr5O15
_chemical_formula_sum   'Ba4 Ca1 Zr5 O15'
_cell_volume   380.78904450
_cell_formula_units_Z   1
loop_
 _symmetry_equiv_pos_site_id
 _symmetry_equiv_pos_as_xyz
  1  'x, y, z'
loop_
 _atom_site_type_symbol
 _atom_site_label
 _atom_site_symmetry_multiplicity
 _atom_site_fract_x
 _atom_site_fract_y
 _atom_site_fract_z
 _atom_site_occupancy
  Ba  Ba0  1  0.50000000  0.50000000  0.80122000  1
  Ba  Ba1  1  0.50000000  0.50000000  0.60003900  1
  Ba  Ba2  1  0.50000000  0.50000000  0.39996100  1
  Ba  Ba3  1  0.50000000  0.50000000  0.19878000  1
  Ca  Ca0  1  0.50000000  0.50000000  0.00000000  1
  Zr  Zr0  1  0.00000000  0.00000000  0.09736300  1
  Zr  Zr1  1  0.00000000  0.00000000  0.90263700  1
  Zr  Zr2  1  0.00000000  0.00000000  0.70056800  1
  Zr  Zr3  1  0.00000000  0.00000000  0.50000000  1
  Zr  Zr4  1  0.00000000  0.00000000  0.29943200  1
  O  O0  1  0.00000000  0.00000000  0.00000000  1
  O  O1  1  0.00000000  0.00000000  0.80112200  1
  O  O2  1  0.00000000  0.00000000  0.60027100  1
  O  O3  1  0.00000000  0.00000000  0.39972900  1
  O  O4  1  0.00000000  0.00000000  0.19887800  1
  O  O5  1  0.50000000  0.00000000  0.90445500  1
  O  O6  1  0.50000000  0.00000000  0.70029000  1
  O  O7  1  0.50000000  0.00000000  0.50000000  1
  O  O8  1  0.50000000  0.00000000  0.29971000  1
  O  O9  1  0.50000000  0.00000000  0.09554500  1
  O  O10  1  0.00000000  0.50000000  0.09554500  1
  O  O11  1  0.00000000  0.50000000  0.90445500  1
  O  O12  1  0.00000000  0.50000000  0.70029000  1
  O  O13  1  0.00000000  0.50000000  0.50000000  1
  O  O14  1  0.00000000  0.50000000  0.29971000  1
loop_
_geom_bond_atom_site_label_1
_geom_bond_atom_site_label_2
_geom_bond_distance
_geom_bond_site_symmetry_2
Ba0 O1 2.996955 1_555
Ba0 O1 2.996955 1_565
Ba0 O1 2.996955 1_655
Ba0 O1 2.996955 1_665
Ba0 O6 3.011374 1_555
Ba0 O12 3.011374 1_655
Ba0 O6 3.011374 1_565
Ba0 O12 3.011374 1_555
Ba0 O11 3.046283 1_555
Ba0 O5 3.046283 1_555
Ba0 O11 3.046283 1_655
Ba0 O5 3.046283 1_565
Ba1 O2 2.996959 1_665
Ba1 O2 2.996959 1_555
Ba1 O2 2.996959 1_565
Ba1 O2 2.996959 1_655
Ba1 O7 2.997984 1_555
Ba1 O7 2.997984 1_565
Ba1 O13 2.997984 1_655
Ba1 O13 2.997984 1_555
Ba1 O6 3.001165 1_555
Ba1 O12 3.001165 1_655
Ba1 O6 3.001165 1_565
Ba1 O12 3.001165 1_555
Ba2 O3 2.996959 1_655
Ba2 O3 2.996959 1_555
Ba2 O3 2.996959 1_565
Ba2 O3 2.996959 1_665
Ba2 O7 2.997984 1_555
Ba2 O7 2.997984 1_565
Ba2 O13 2.997984 1_655
Ba2 O13 2.997984 1_555
Ba2 O14 3.001165 1_655
Ba2 O8 3.001165 1_565
Ba2 O8 3.001165 1_555
Ba2 O14 3.001165 1_555
Ba3 O4 2.996955 1_555
Ba3 O4 2.996955 1_665
Ba3 O4 2.996955 1_565
Ba3 O4 2.996955 1_655
Ba3 O8 3.011374 1_565
Ba3 O8 3.011374 1_555
Ba3 O14 3.011374 1_555
Ba3 O14 3.011374 1_655
Ba3 O10 3.046283 1_655
Ba3 O10 3.046283 1_555
Ba3 O9 3.046283 1_555
Ba3 O9 3.046283 1_565
Ca0 O9 2.931373 1_555
Ca0 O9 2.931373 1_565
Ca0 O10 2.931373 1_555
Ca0 O10 2.931373 1_655
Ca0 O11 2.931373 1_654
Ca0 O5 2.931373 1_564
Ca0 O11 2.931373 1_554
Ca0 O5 2.931373 1_554
Ca0 O0 2.996955 1_655
Ca0 O0 2.996955 1_665
Ca0 O0 2.996955 1_565
Ca0 O0 2.996955 1_555
O0 Zr0 2.063897 1_555
O0 Zr1 2.063897 1_554
O1 Zr2 2.131540 1_555
O1 Zr1 2.151911 1_555
O2 Zr3 2.125541 1_555
O2 Zr2 2.126092 1_555
O3 Zr3 2.125541 1_555
O3 Zr4 2.126092 1_555
O4 Zr4 2.131540 1_555
O4 Zr0 2.151911 1_555
O5 Zr1 2.119517 1_655
O5 Zr1 2.119517 1_555
O6 Zr2 2.119175 1_555
O6 Zr2 2.119175 1_655
O7 Zr3 2.119167 1_555
O7 Zr3 2.119167 1_655
O8 Zr4 2.119175 1_655
O8 Zr4 2.119175 1_555
O9 Zr0 2.119517 1_655
O9 Zr0 2.119517 1_555
O10 Zr0 2.119517 1_565
O10 Zr0 2.119517 1_555
O11 Zr1 2.119517 1_565
O11 Zr1 2.119517 1_555
O12 Zr2 2.119175 1_555
O12 Zr2 2.119175 1_565
O13 Zr3 2.119167 1_565
O13 Zr3 2.119167 1_555
O14 Zr4 2.119175 1_565
O14 Zr4 2.119175 1_555
