# generated using pymatgen
data_YbB4
_symmetry_space_group_name_H-M   'P 1'
_cell_length_a   7.12275200
_cell_length_b   7.12275200
_cell_length_c   4.07439200
_cell_angle_alpha   90.00000000
_cell_angle_beta   90.00000000
_cell_angle_gamma   90.00000000
_symmetry_Int_Tables_number   1
_chemical_formula_structural   YbB4
_chemical_formula_sum   'Yb4 B16'
_cell_volume   206.70855789
_cell_formula_units_Z   4
loop_
 _symmetry_equiv_pos_site_id
 _symmetry_equiv_pos_as_xyz
  1  'x, y, z'
loop_
 _atom_site_type_symbol
 _atom_site_label
 _atom_site_symmetry_multiplicity
 _atom_site_fract_x
 _atom_site_fract_y
 _atom_site_fract_z
 _atom_site_occupancy
  Yb  Yb0  1  0.81536500  0.31536500  0.00000000  1
  Yb  Yb1  1  0.18463500  0.68463500  0.00000000  1
  Yb  Yb2  1  0.31536500  0.18463500  0.00000000  1
  Yb  Yb3  1  0.68463500  0.81536500  0.00000000  1
  B  B0  1  0.50000000  0.50000000  0.79515100  1
  B  B1  1  0.00000000  0.00000000  0.79515100  1
  B  B2  1  0.50000000  0.50000000  0.20484900  1
  B  B3  1  0.00000000  0.00000000  0.20484900  1
  B  B4  1  0.91471400  0.58528600  0.50000000  1
  B  B5  1  0.08528600  0.41471400  0.50000000  1
  B  B6  1  0.41471400  0.91471400  0.50000000  1
  B  B7  1  0.58528600  0.08528600  0.50000000  1
  B  B8  1  0.67563200  0.53659600  0.50000000  1
  B  B9  1  0.32436800  0.46340400  0.50000000  1
  B  B10  1  0.17563200  0.96340400  0.50000000  1
  B  B11  1  0.82436800  0.03659600  0.50000000  1
  B  B12  1  0.46340400  0.67563200  0.50000000  1
  B  B13  1  0.53659600  0.32436800  0.50000000  1
  B  B14  1  0.03659600  0.17563200  0.50000000  1
  B  B15  1  0.96340400  0.82436800  0.50000000  1
loop_
_geom_bond_atom_site_label_1
_geom_bond_atom_site_label_2
_geom_bond_distance
_geom_bond_site_symmetry_2
B0 B2 1.669270 1_556
B0 B8 1.754724 1_555
B0 B12 1.754724 1_555
B0 B9 1.754724 1_555
B0 B13 1.754724 1_555
B0 Yb1 2.733467 1_556
B0 Yb2 2.733467 1_556
B0 Yb3 2.733467 1_556
B0 Yb0 2.733467 1_556
B1 B3 1.669270 1_556
B1 B14 1.754724 1_555
B1 B10 1.754724 1_545
B1 B11 1.754724 1_455
B1 B15 1.754724 1_445
B1 Yb3 2.733467 1_446
B1 Yb2 2.733467 1_556
B1 Yb0 2.733467 1_456
B1 Yb1 2.733467 1_546
B2 B8 1.754724 1_555
B2 B9 1.754724 1_555
B2 Yb2 2.733467 1_555
B2 Yb3 2.733467 1_555
B2 Yb0 2.733467 1_555
B2 Yb1 2.733467 1_555
B3 Yb0 2.733467 1_455
B3 Yb2 2.733467 1_555
B3 Yb3 2.733467 1_445
B3 Yb1 2.733467 1_545
B4 B5 1.718188 1_655
B4 B8 1.737877 1_555
B4 Yb0 2.889158 1_555
B4 Yb0 2.889158 1_556
B4 Yb1 2.889158 1_655
B4 Yb1 2.889158 1_656
B4 Yb3 3.085688 1_555
B4 Yb3 3.085688 1_556
B5 B9 1.737877 1_555
B5 Yb1 2.889158 1_556
B5 Yb1 2.889158 1_555
B5 Yb0 2.889158 1_455
B5 Yb0 2.889158 1_456
B5 Yb2 3.085688 1_556
B5 Yb2 3.085688 1_555
B6 B7 1.718188 1_565
B6 Yb3 2.889158 1_555
B6 Yb3 2.889158 1_556
B6 Yb2 2.889158 1_565
B6 Yb2 2.889158 1_566
B6 Yb1 3.085688 1_556
B6 Yb1 3.085688 1_555
B7 Yb3 2.889158 1_546
B7 Yb2 2.889158 1_556
B7 Yb2 2.889158 1_555
B7 Yb3 2.889158 1_545
B7 Yb0 3.085688 1_555
B7 Yb0 3.085688 1_556
B8 Yb0 2.761126 1_555
B8 Yb0 2.761126 1_556
B8 Yb3 2.845505 1_556
B8 Yb3 2.845505 1_555
B9 Yb1 2.761126 1_556
B9 Yb1 2.761126 1_555
B9 Yb2 2.845505 1_556
B9 Yb2 2.845505 1_555
B10 B6 1.737877 1_555
B10 B3 1.754724 1_565
B10 B14 1.807155 1_565
B10 B15 1.807155 1_455
B10 Yb2 2.761126 1_566
B10 Yb2 2.761126 1_565
B10 Yb1 2.845505 1_556
B10 Yb1 2.845505 1_555
B11 B7 1.737877 1_555
B11 B3 1.754724 1_655
B11 B15 1.807155 1_545
B11 B14 1.807155 1_655
B11 Yb3 2.761126 1_546
B11 Yb3 2.761126 1_545
B11 Yb0 2.845505 1_555
B11 Yb0 2.845505 1_556
B12 B6 1.737877 1_555
B12 B2 1.754724 1_555
B12 B9 1.807155 1_555
B12 B8 1.807155 1_555
B12 Yb3 2.761126 1_555
B12 Yb3 2.761126 1_556
B12 Yb1 2.845505 1_556
B12 Yb1 2.845505 1_555
B13 B7 1.737877 1_555
B13 B2 1.754724 1_555
B13 B8 1.807155 1_555
B13 B9 1.807155 1_555
B13 Yb2 2.761126 1_556
B13 Yb2 2.761126 1_555
B13 Yb0 2.845505 1_556
B13 Yb0 2.845505 1_555
B14 B5 1.737877 1_555
B14 B3 1.754724 1_555
B14 Yb0 2.761126 1_455
B14 Yb0 2.761126 1_456
B14 Yb2 2.845505 1_555
B14 Yb2 2.845505 1_556
B15 B4 1.737877 1_555
B15 B3 1.754724 1_665
B15 Yb1 2.761126 1_656
B15 Yb1 2.761126 1_655
B15 Yb3 2.845505 1_555
B15 Yb3 2.845505 1_556
