# generated using pymatgen
data_La2(CoNi)5
_symmetry_space_group_name_H-M   'P 1'
_cell_length_a   3.98041100
_cell_length_b   4.99354094
_cell_length_c   8.62834975
_cell_angle_alpha   89.99999393
_cell_angle_beta   90.00000000
_cell_angle_gamma   90.00000000
_symmetry_Int_Tables_number   1
_chemical_formula_structural   La2(CoNi)5
_chemical_formula_sum   'La2 Co5 Ni5'
_cell_volume   171.50005873
_cell_formula_units_Z   1
loop_
 _symmetry_equiv_pos_site_id
 _symmetry_equiv_pos_as_xyz
  1  'x, y, z'
loop_
 _atom_site_type_symbol
 _atom_site_label
 _atom_site_symmetry_multiplicity
 _atom_site_fract_x
 _atom_site_fract_y
 _atom_site_fract_z
 _atom_site_occupancy
  La  La0  1  0.00000000  0.99998900  0.00000000  1
  La  La1  1  0.00000000  0.49999700  0.50000000  1
  Co  Co0  1  0.00000000  0.99997100  0.33466300  1
  Co  Co1  1  0.00000000  0.49994900  0.83311000  1
  Co  Co2  1  0.00000000  0.49994900  0.16689000  1
  Co  Co3  1  0.00000000  0.99997100  0.66533700  1
  Co  Co4  1  0.50000000  0.00000700  0.50000000  1
  Ni  Ni0  1  0.50000000  0.49999000  0.00000000  1
  Ni  Ni1  1  0.50000000  0.25011000  0.25004600  1
  Ni  Ni2  1  0.50000000  0.74987800  0.74995600  1
  Ni  Ni3  1  0.50000000  0.74987800  0.25004400  1
  Ni  Ni4  1  0.50000000  0.25011000  0.74995400  1
loop_
_geom_bond_atom_site_label_1
_geom_bond_atom_site_label_2
_geom_bond_distance
_geom_bond_site_symmetry_2
La0 Ni3 3.189895 1_455
La0 Ni3 3.189895 1_555
La0 Ni2 3.189895 1_554
La0 Ni2 3.189895 1_454
La0 Ni4 3.189926 1_564
La0 Ni4 3.189926 1_464
La0 Ni1 3.189927 1_565
La0 Ni1 3.189927 1_465
La0 Ni0 3.192923 1_555
La0 Ni0 3.192923 1_455
La0 Ni0 3.192931 1_565
La0 Ni0 3.192931 1_465
La1 Ni3 3.188932 1_555
La1 Ni3 3.188932 1_455
La1 Ni4 3.188932 1_555
La1 Ni4 3.188932 1_455
La1 Ni2 3.188932 1_455
La1 Ni2 3.188932 1_555
La1 Ni1 3.188932 1_455
La1 Ni1 3.188932 1_555
Co0 Co4 2.448686 1_465
Co0 Co4 2.448686 1_565
Co0 Ni3 2.460411 1_555
Co0 Ni3 2.460411 1_455
Co0 Ni1 2.460522 1_565
Co0 Ni1 2.460522 1_465
Co0 La1 2.875476 1_555
Co0 La1 2.875701 1_565
Co0 La0 2.887589 1_555
Co1 Ni4 2.456050 1_455
Co1 Ni4 2.456050 1_555
Co1 Ni2 2.456273 1_455
Co1 Ni2 2.456273 1_555
Co1 Ni0 2.456517 1_556
Co1 Ni0 2.456517 1_456
Co1 La1 2.874190 1_555
Co1 La0 2.882086 1_546
Co1 La0 2.882433 1_556
Co2 Ni1 2.456050 1_455
Co2 Ni1 2.456050 1_555
Co2 Ni3 2.456273 1_555
Co2 Ni3 2.456273 1_455
Co2 Ni0 2.456517 1_555
Co2 Ni0 2.456517 1_455
Co2 La1 2.874190 1_555
Co2 La0 2.882087 1_545
Co2 La0 2.882432 1_555
Co3 Co4 2.448686 1_565
Co3 Co4 2.448686 1_465
Co3 Ni2 2.460411 1_455
Co3 Ni2 2.460411 1_555
Co3 Ni4 2.460522 1_465
Co3 Ni4 2.460522 1_565
Co3 La1 2.875476 1_555
Co3 La1 2.875701 1_565
Co3 La0 2.887589 1_556
Co4 Ni1 2.492201 1_555
Co4 Ni4 2.492201 1_555
Co4 Ni2 2.492281 1_545
Co4 Ni3 2.492281 1_545
Co4 La1 3.192888 1_555
Co4 La1 3.192888 1_655
Co4 La1 3.192966 1_545
Co4 La1 3.192966 1_645
Ni0 Ni1 2.492330 1_555
Ni0 Ni4 2.492330 1_554
Ni0 Ni2 2.492335 1_554
Ni0 Ni3 2.492335 1_555
Ni1 Ni3 2.495612 1_555
Ni1 Ni3 2.497929 1_545
Ni2 Ni4 2.495612 1_555
Ni2 Ni4 2.497929 1_565
