# generated using pymatgen
data_Li3V3P8O29
_symmetry_space_group_name_H-M   'P 1'
_cell_length_a   9.78502100
_cell_length_b   9.78864374
_cell_length_c   14.59173989
_cell_angle_alpha   89.71372878
_cell_angle_beta   89.63623826
_cell_angle_gamma   60.18945023
_symmetry_Int_Tables_number   1
_chemical_formula_structural   Li3V3P8O29
_chemical_formula_sum   'Li6 V6 P16 O58'
_cell_volume   1212.65757616
_cell_formula_units_Z   2
loop_
 _symmetry_equiv_pos_site_id
 _symmetry_equiv_pos_as_xyz
  1  'x, y, z'
loop_
 _atom_site_type_symbol
 _atom_site_label
 _atom_site_symmetry_multiplicity
 _atom_site_fract_x
 _atom_site_fract_y
 _atom_site_fract_z
 _atom_site_occupancy
  Li  Li0  1  0.92140500  0.29898200  0.94859200  1
  Li  Li1  1  0.78338300  0.91812900  0.94943000  1
  Li  Li2  1  0.29175300  0.78426800  0.95213600  1
  Li  Li3  1  0.32307400  0.91061500  0.43585900  1
  Li  Li4  1  0.22047800  0.68272100  0.54353000  1
  Li  Li5  1  0.91260300  0.08526900  0.47947400  1
  V  V0  1  0.56599000  0.00034600  0.74547800  1
  V  V1  1  0.43716400  0.00045200  0.24964400  1
  V  V2  1  0.57126000  0.43305100  0.25125700  1
  V  V3  1  0.43864700  0.56061100  0.75057200  1
  V  V4  1  0.00387300  0.43485900  0.74606400  1
  V  V5  1  0.99506100  0.56568900  0.25709900  1
  P  P0  1  0.91394400  0.31636100  0.16043500  1
  P  P1  1  0.77653200  0.30879600  0.65992400  1
  P  P2  1  0.91964000  0.77586600  0.66162000  1
  P  P3  1  0.66817500  0.66708500  0.86340500  1
  P  P4  1  0.66101800  0.66808200  0.36914300  1
  P  P5  1  0.77564300  0.90618500  0.16154000  1
  P  P6  1  0.69391200  0.08370000  0.33673700  1
  P  P7  1  0.31978200  0.77168100  0.16227800  1
  P  P8  1  0.68725100  0.22487400  0.83833800  1
  P  P9  1  0.31854200  0.90889700  0.65600000  1
  P  P10  1  0.22734700  0.08566000  0.83250800  1
  P  P11  1  0.33469400  0.33489300  0.63514900  1
  P  P12  1  0.33144600  0.33838000  0.13812500  1
  P  P13  1  0.08424400  0.21773400  0.33803400  1
  P  P14  1  0.22804400  0.68346700  0.33736400  1
  P  P15  1  0.08791900  0.68356600  0.84046700  1
  O  O0  1  0.00492700  0.19001800  0.41663900  1
  O  O1  1  0.91131400  0.34790300  0.67388000  1
  O  O2  1  0.76973000  0.23491700  0.92040400  1
  O  O3  1  0.74518900  0.34053200  0.17204900  1
  O  O4  1  0.90498200  0.47567500  0.18356700  1
  O  O5  1  0.81980600  0.52144400  0.82421600  1
  O  O6  1  0.91972300  0.61647700  0.67397400  1
  O  O7  1  0.99874200  0.76605700  0.92384800  1
  O  O8  1  0.91774800  0.73831800  0.17497000  1
  O  O9  1  0.66542400  0.51958300  0.32351100  1
  O  O10  1  0.61615600  0.46484400  0.67454100  1
  O  O11  1  0.80983400  0.66913100  0.32704200  1
  O  O12  1  0.65704300  0.66958000  0.96479400  1
  O  O13  1  0.65543100  0.66644300  0.47077700  1
  O  O14  1  0.66342100  0.81854200  0.82238000  1
  O  O15  1  0.47825700  0.61991800  0.18037800  1
  O  O16  1  0.52320500  0.66026300  0.81850600  1
  O  O17  1  0.74694900  0.91255100  0.67012500  1
  O  O18  1  0.79054000  0.00788500  0.24242000  1
  O  O19  1  0.79295100  0.00696900  0.41774100  1
  O  O20  1  0.76859300  0.97746300  0.07100400  1
  O  O21  1  0.62188400  0.89945700  0.18282200  1
  O  O22  1  0.50935000  0.81657700  0.33009900  1
  O  O23  1  0.66037200  0.08123800  0.83682900  1
  O  O24  1  0.47713600  0.90665500  0.67550900  1
  O  O25  1  0.34183000  0.74011800  0.66853600  1
  O  O26  1  0.79081300  0.20216700  0.74748900  1
  O  O27  1  0.78983300  0.22324700  0.57509800  1
  O  O28  1  0.22589300  0.77058700  0.42289200  1
  O  O29  1  0.65114700  0.25928600  0.32877200  1
  O  O30  1  0.54043200  0.07499400  0.32868900  1
  O  O31  1  0.34445100  0.91612200  0.17357700  1
  O  O32  1  0.48409900  0.18607500  0.67608300  1
  O  O33  1  0.38167400  0.09259400  0.81630400  1
  O  O34  1  0.23385000  0.99003200  0.91284800  1
  O  O35  1  0.25207200  0.97373600  0.56454000  1
  O  O36  1  0.20382300  0.01131100  0.73807400  1
  O  O37  1  0.26137400  0.08529600  0.33563500  1
  O  O38  1  0.47429900  0.34797500  0.17843400  1
  O  O39  1  0.52562600  0.37847700  0.82030100  1
  O  O40  1  0.34851200  0.18082100  0.18269500  1
  O  O41  1  0.32658000  0.33654400  0.03702800  1
  O  O42  1  0.32907500  0.34551200  0.53394500  1
  O  O43  1  0.18880600  0.32941300  0.67892100  1
  O  O44  1  0.38485300  0.52877900  0.32622200  1
  O  O45  1  0.32902400  0.48593100  0.67833600  1
  O  O46  1  0.08376400  0.25548400  0.83435100  1
  O  O47  1  0.01494300  0.19752800  0.24150900  1
  O  O48  1  0.98495700  0.25218400  0.07001600  1
  O  O49  1  0.07255200  0.38161400  0.33283000  1
  O  O50  1  0.18054600  0.47200300  0.18636600  1
  O  O51  1  0.09455200  0.52423200  0.82035200  1
  O  O52  1  0.25879400  0.65780000  0.83753200  1
  O  O53  1  0.24615000  0.77156700  0.07426900  1
  O  O54  1  0.20577700  0.78986800  0.24813200  1
  O  O55  1  0.08814000  0.65198800  0.33549800  1
  O  O56  1  0.00460100  0.78317100  0.57904300  1
  O  O57  1  0.00388600  0.79215100  0.75176900  1
loop_
_geom_bond_atom_site_label_1
_geom_bond_atom_site_label_2
_geom_bond_distance
_geom_bond_site_symmetry_2
Li0 O48 1.859685 1_556
Li0 O2 1.923756 1_555
Li0 O46 2.187447 1_655
Li1 O20 1.851682 1_556
Li1 O7 1.916394 1_555
Li1 O23 2.187627 1_565
Li2 O53 1.852949 1_556
Li2 O34 1.887966 1_555
Li2 O52 2.203977 1_555
Li3 O35 1.989560 1_555
Li3 O28 2.029688 1_555
Li3 O37 2.094464 1_565
Li3 O22 2.204866 1_555
Li4 O56 1.903548 1_555
Li4 O28 1.967302 1_555
Li4 O25 2.398728 1_555
Li4 O45 2.581179 1_555
Li5 O27 1.896989 1_555
Li5 O0 1.899786 1_655
Li5 O19 1.918891 1_555
O0 P13 1.478675 1_555
O1 P1 1.559973 1_555
O1 V4 1.855200 1_655
O2 P8 1.478957 1_555
O3 P0 1.555568 1_555
O3 V2 1.872295 1_555
O4 P0 1.556430 1_555
O4 V5 1.870336 1_555
O5 P3 1.566873 1_555
O5 V4 1.930948 1_655
O6 P2 1.569286 1_555
O6 V4 1.865995 1_655
O7 P15 1.479701 1_655
O8 P5 1.549339 1_555
O8 V5 1.893190 1_555
O9 P4 1.582775 1_555
O9 V2 1.864200 1_555
O10 P1 1.567501 1_555
O10 V3 1.869099 1_555
O11 P4 1.581573 1_555
O11 V5 1.874567 1_555
O12 P3 1.482187 1_555
O13 P4 1.483978 1_555
O14 P3 1.575250 1_555
O14 V0 1.908363 1_565
O15 P7 1.546642 1_555
O15 V2 1.892535 1_555
O16 P3 1.597607 1_555
O16 V3 1.855070 1_555
O17 P2 1.553063 1_555
O17 V0 1.885362 1_565
O18 P5 1.601033 1_545
O18 P6 1.623212 1_555
O19 P6 1.477279 1_555
O20 P5 1.476788 1_555
O21 P5 1.567412 1_555
O21 V1 1.845449 1_565
O22 P4 1.580360 1_555
O22 V1 1.960129 1_565
O23 P8 1.553885 1_555
O23 V0 2.002488 1_555
O24 P9 1.568894 1_555
O24 V0 1.858175 1_565
O25 P9 1.561433 1_555
O25 V3 1.938094 1_555
O26 P1 1.607935 1_555
O26 P8 1.611077 1_555
O27 P1 1.466352 1_555
O28 P14 1.509190 1_555
O29 P6 1.557637 1_555
O29 V2 1.858372 1_555
O30 P6 1.551148 1_555
O30 V1 1.907908 1_555
O31 P7 1.557781 1_555
O31 V1 1.871611 1_565
O32 P11 1.581464 1_555
O32 V0 1.875139 1_555
O33 P10 1.561444 1_555
O33 V0 1.871529 1_555
O34 P10 1.478283 1_565
O35 P9 1.482912 1_555
O36 P9 1.604795 1_545
O36 P10 1.631568 1_555
O37 P13 1.565739 1_555
O37 V1 1.945654 1_555
O38 P12 1.565311 1_555
O38 V2 1.878843 1_555
O39 P8 1.571051 1_555
O39 V3 1.849956 1_555
O40 P12 1.601495 1_555
O40 V1 1.815158 1_555
O41 P12 1.476739 1_555
O42 P11 1.479328 1_555
O43 P11 1.585197 1_555
O43 V4 1.852113 1_555
O44 P14 1.537136 1_555
O44 V2 1.920184 1_555
O45 P11 1.585352 1_555
O45 V3 1.896762 1_555
O46 P10 1.554304 1_555
O46 V4 1.994780 1_555
O47 P0 1.608533 1_455
O47 P13 1.622037 1_555
O48 P0 1.476768 1_555
O49 P13 1.551970 1_555
O49 V5 1.917040 1_455
O50 P12 1.569177 1_555
O50 V5 1.879141 1_455
O51 P15 1.557754 1_555
O51 V4 1.876475 1_555
O52 P15 1.562367 1_555
O52 V3 1.982764 1_555
O53 P7 1.476771 1_555
O54 P14 1.609968 1_555
O54 P7 1.622516 1_555
O55 P14 1.545871 1_555
O55 V5 1.907791 1_455
O56 P2 1.481100 1_455
O57 P2 1.606810 1_455
O57 P15 1.616097 1_555
