# generated using pymatgen
data_HfCrCuS4
_symmetry_space_group_name_H-M   'P 1'
_cell_length_a   6.81076200
_cell_length_b   6.83868800
_cell_length_c   11.25231000
_cell_angle_alpha   90.00000000
_cell_angle_beta   90.00000000
_cell_angle_gamma   90.00000000
_symmetry_Int_Tables_number   1
_chemical_formula_structural   HfCrCuS4
_chemical_formula_sum   'Hf4 Cr4 Cu4 S16'
_cell_volume   524.09520118
_cell_formula_units_Z   4
loop_
 _symmetry_equiv_pos_site_id
 _symmetry_equiv_pos_as_xyz
  1  'x, y, z'
loop_
 _atom_site_type_symbol
 _atom_site_label
 _atom_site_symmetry_multiplicity
 _atom_site_fract_x
 _atom_site_fract_y
 _atom_site_fract_z
 _atom_site_occupancy
  Hf  Hf0  1  0.88272200  0.00000000  0.42652500  1
  Hf  Hf1  1  0.38272200  0.00000000  0.57347500  1
  Hf  Hf2  1  0.01664900  0.00000000  0.76601900  1
  Hf  Hf3  1  0.51664900  0.00000000  0.23398100  1
  Cr  Cr0  1  0.11928800  0.50000000  0.08906200  1
  Cr  Cr1  1  0.61928800  0.50000000  0.91093800  1
  Cr  Cr2  1  0.98722400  0.50000000  0.75668900  1
  Cr  Cr3  1  0.48722400  0.50000000  0.24331100  1
  Cu  Cu0  1  0.15336300  0.00000000  0.10526400  1
  Cu  Cu1  1  0.84507500  0.50000000  0.36063900  1
  Cu  Cu2  1  0.34507500  0.50000000  0.63936100  1
  Cu  Cu3  1  0.65336300  0.00000000  0.89473600  1
  S  S0  1  0.11059500  0.25919900  0.59697500  1
  S  S1  1  0.88280300  0.25080300  0.90480900  1
  S  S2  1  0.38280300  0.25080300  0.09519100  1
  S  S3  1  0.61059500  0.25919900  0.40302500  1
  S  S4  1  0.61059500  0.74080100  0.40302500  1
  S  S5  1  0.38280300  0.74919700  0.09519100  1
  S  S6  1  0.88280300  0.74919700  0.90480900  1
  S  S7  1  0.11059500  0.74080100  0.59697500  1
  S  S8  1  0.86312300  0.00000000  0.19785400  1
  S  S9  1  0.15005600  0.50000000  0.29181700  1
  S  S10  1  0.65005600  0.50000000  0.70818300  1
  S  S11  1  0.36312300  0.00000000  0.80214600  1
  S  S12  1  0.26918400  0.50000000  0.87710400  1
  S  S13  1  0.72652000  0.00000000  0.62995400  1
  S  S14  1  0.22652000  0.00000000  0.37004600  1
  S  S15  1  0.76918400  0.50000000  0.12289600  1
loop_
_geom_bond_atom_site_label_1
_geom_bond_atom_site_label_2
_geom_bond_distance
_geom_bond_site_symmetry_2
Hf0 S14 2.426238 1_655
Hf0 S13 2.524187 1_555
Hf0 S8 2.576537 1_555
Hf0 S3 2.578183 1_555
Hf0 S4 2.578183 1_545
Hf0 S0 3.037971 1_655
Hf0 S7 3.037971 1_645
Hf1 S13 2.426238 1_555
Hf1 S14 2.524187 1_555
Hf1 S11 2.576537 1_555
Hf1 S0 2.578183 1_555
Hf1 S7 2.578183 1_545
Hf1 S3 3.037971 1_555
Hf1 S4 3.037971 1_545
Hf2 S11 2.394511 1_555
Hf2 S6 2.492332 1_445
Hf2 S1 2.492332 1_455
Hf2 S13 2.499735 1_455
Hf2 S0 2.677604 1_555
Hf2 S7 2.677604 1_545
Hf3 S8 2.394511 1_555
Hf3 S5 2.492332 1_545
Hf3 S2 2.492332 1_555
Hf3 S14 2.499735 1_555
Hf3 S3 2.677604 1_555
Hf3 S4 2.677604 1_545
Cr0 S9 2.291066 1_555
Cr0 S15 2.414676 1_455
Cr0 S2 2.475898 1_555
Cr0 S5 2.475898 1_555
Cr0 S12 2.594331 1_554
Cr1 S10 2.291066 1_555
Cr1 S12 2.414676 1_555
Cr1 S6 2.475898 1_555
Cr1 S1 2.475898 1_555
Cr1 S15 2.594331 1_556
Cr2 S12 2.350250 1_655
Cr2 S10 2.360344 1_555
Cr2 S1 2.487545 1_555
Cr2 S6 2.487545 1_555
Cr2 S7 2.578294 1_655
Cr2 S0 2.578294 1_655
Cr3 S15 2.350250 1_555
Cr3 S9 2.360344 1_555
Cr3 S5 2.487545 1_555
Cr3 S2 2.487545 1_555
Cr3 S4 2.578294 1_555
Cr3 S3 2.578294 1_555
Cu0 S8 2.234506 1_455
Cu0 S5 2.323046 1_545
Cu0 S2 2.323046 1_555
Cu1 S9 2.216815 1_655
Cu1 S4 2.343004 1_555
Cu1 S3 2.343004 1_555
Cu1 S15 2.724634 1_555
Cu2 S10 2.216815 1_555
Cu2 S7 2.343004 1_555
Cu2 S0 2.343004 1_555
Cu2 S12 2.724634 1_555
Cu3 S11 2.234506 1_555
Cu3 S1 2.323046 1_555
Cu3 S6 2.323046 1_545
