# generated using pymatgen
data_Mo6IrRu
_symmetry_space_group_name_H-M   'P 1'
_cell_length_a   5.00142300
_cell_length_b   5.00142300
_cell_length_c   5.00142300
_cell_angle_alpha   90.00000000
_cell_angle_beta   90.00000000
_cell_angle_gamma   90.00000000
_symmetry_Int_Tables_number   1
_chemical_formula_structural   Mo6IrRu
_chemical_formula_sum   'Mo6 Ir1 Ru1'
_cell_volume   125.10675538
_cell_formula_units_Z   1
loop_
 _symmetry_equiv_pos_site_id
 _symmetry_equiv_pos_as_xyz
  1  'x, y, z'
loop_
 _atom_site_type_symbol
 _atom_site_label
 _atom_site_symmetry_multiplicity
 _atom_site_fract_x
 _atom_site_fract_y
 _atom_site_fract_z
 _atom_site_occupancy
  Mo  Mo0  1  0.50000000  0.75076400  0.00000000  1
  Mo  Mo1  1  0.24923600  0.00000000  0.50000000  1
  Mo  Mo2  1  0.00000000  0.50000000  0.75076400  1
  Mo  Mo3  1  0.50000000  0.24923600  0.00000000  1
  Mo  Mo4  1  0.75076400  0.00000000  0.50000000  1
  Mo  Mo5  1  0.00000000  0.50000000  0.24923600  1
  Ir  Ir0  1  0.50000000  0.50000000  0.50000000  1
  Ru  Ru0  1  0.00000000  0.00000000  0.00000000  1
loop_
_geom_bond_atom_site_label_1
_geom_bond_atom_site_label_2
_geom_bond_distance
_geom_bond_site_symmetry_2
Mo0 Mo3 2.493069 1_565
Mo0 Mo3 2.508354 1_555
Mo0 Ru0 2.794174 1_565
Mo0 Ru0 2.794174 1_665
Mo1 Mo4 2.493069 1_455
Mo1 Mo4 2.508354 1_555
Mo1 Ru0 2.794174 1_555
Mo1 Ru0 2.794174 1_556
Mo2 Mo5 2.493069 1_556
Mo2 Mo5 2.508354 1_555
Mo2 Ru0 2.794174 1_566
Mo2 Ru0 2.794174 1_556
Mo3 Ru0 2.794174 1_555
Mo3 Ru0 2.794174 1_655
Mo4 Ru0 2.794174 1_656
Mo4 Ru0 2.794174 1_655
Mo5 Ru0 2.794174 1_565
Mo5 Ru0 2.794174 1_555
Ir0 Mo1 2.797591 1_555
Ir0 Mo4 2.797591 1_555
Ir0 Mo3 2.797591 1_556
Ir0 Mo5 2.797591 1_655
Ir0 Mo0 2.797591 1_556
Ir0 Mo5 2.797591 1_555
Ir0 Mo2 2.797591 1_555
Ir0 Mo4 2.797591 1_565
Ir0 Mo3 2.797591 1_555
Ir0 Mo0 2.797591 1_555
Ir0 Mo1 2.797591 1_565
Ir0 Mo2 2.797591 1_655
