# generated using pymatgen
data_Ce2InAu2
_symmetry_space_group_name_H-M   'P 1'
_cell_length_a   8.13439849
_cell_length_b   8.13439849
_cell_length_c   3.86477973
_cell_angle_alpha   90.00000000
_cell_angle_beta   90.00000000
_cell_angle_gamma   89.99955498
_symmetry_Int_Tables_number   1
_chemical_formula_structural   Ce2InAu2
_chemical_formula_sum   'Ce4 In2 Au4'
_cell_volume   255.72644101
_cell_formula_units_Z   2
loop_
 _symmetry_equiv_pos_site_id
 _symmetry_equiv_pos_as_xyz
  1  'x, y, z'
loop_
 _atom_site_type_symbol
 _atom_site_label
 _atom_site_symmetry_multiplicity
 _atom_site_fract_x
 _atom_site_fract_y
 _atom_site_fract_z
 _atom_site_occupancy
  Ce  Ce0  1  0.67430087  0.17430087  0.50000000  1
  Ce  Ce1  1  0.32569913  0.82569913  0.50000000  1
  Ce  Ce2  1  0.17443464  0.32556536  0.50000000  1
  Ce  Ce3  1  0.82556536  0.67443464  0.50000000  1
  In  In0  1  0.00000000  0.00000000  -0.00000000  1
  In  In1  1  0.50000000  0.50000000  -0.00000000  1
  Au  Au0  1  0.12631797  0.62631797  -0.00000000  1
  Au  Au1  1  0.87368203  0.37368203  0.00000000  1
  Au  Au2  1  0.62622281  0.87377719  -0.00000000  1
  Au  Au3  1  0.37377719  0.12622281  -0.00000000  1
loop_
_geom_bond_atom_site_label_1
_geom_bond_atom_site_label_2
_geom_bond_distance
_geom_bond_site_symmetry_2
Ce0 In0 3.572599 1_656
Ce0 In0 3.572599 1_655
Ce0 In1 3.572599 1_556
Ce0 In1 3.572599 1_555
Ce1 In0 3.572599 1_566
Ce1 In0 3.572599 1_565
Ce1 In1 3.572599 1_556
Ce1 In1 3.572599 1_555
Ce2 In0 3.572241 1_556
Ce2 In0 3.572241 1_555
Ce2 In1 3.572241 1_556
Ce2 In1 3.572241 1_555
Ce3 In1 3.572241 1_555
Ce3 In1 3.572241 1_556
Ce3 In0 3.572241 1_666
Ce3 In0 3.572241 1_665
Au0 Au1 2.906279 1_455
Au0 Ce1 2.999156 1_554
Au0 Ce1 2.999156 1_555
Au0 Ce3 3.142035 1_454
Au0 Ce3 3.142035 1_455
Au0 Ce2 3.142035 1_555
Au0 Ce2 3.142035 1_554
Au0 In1 3.208644 1_555
Au0 In0 3.208644 1_565
Au1 Ce0 2.999156 1_555
Au1 Ce0 2.999156 1_554
Au1 Ce3 3.142035 1_555
Au1 Ce3 3.142035 1_554
Au1 Ce2 3.142035 1_655
Au1 Ce2 3.142035 1_654
Au1 In0 3.208644 1_655
Au1 In1 3.208644 1_555
Au2 Au3 2.904067 1_565
Au2 Ce3 2.998803 1_555
Au2 Ce3 2.998803 1_554
Au2 Ce0 3.140551 1_564
Au2 Ce1 3.140551 1_555
Au2 Ce1 3.140551 1_554
Au2 Ce0 3.140551 1_565
Au2 In0 3.209145 1_665
Au2 In1 3.209145 1_555
Au3 Ce2 2.998803 1_555
Au3 Ce2 2.998803 1_554
Au3 Ce0 3.140551 1_555
Au3 Ce1 3.140551 1_544
Au3 Ce1 3.140551 1_545
Au3 Ce0 3.140551 1_554
Au3 In0 3.209145 1_555
Au3 In1 3.209145 1_555
