# generated using pymatgen
data_Mg(SiO2)8
_symmetry_space_group_name_H-M   'P 1'
_cell_length_a   7.19703000
_cell_length_b   7.19733000
_cell_length_c   8.92848300
_cell_angle_alpha   90.00000000
_cell_angle_beta   90.00000000
_cell_angle_gamma   90.00000000
_symmetry_Int_Tables_number   1
_chemical_formula_structural   Mg(SiO2)8
_chemical_formula_sum   'Mg1 Si8 O16'
_cell_volume   462.49006168
_cell_formula_units_Z   1
loop_
 _symmetry_equiv_pos_site_id
 _symmetry_equiv_pos_as_xyz
  1  'x, y, z'
loop_
 _atom_site_type_symbol
 _atom_site_label
 _atom_site_symmetry_multiplicity
 _atom_site_fract_x
 _atom_site_fract_y
 _atom_site_fract_z
 _atom_site_occupancy
  Mg  Mg0  1  0.00000000  0.00000000  0.50000000  1
  Si  Si0  1  0.78099900  0.50000000  0.18006600  1
  Si  Si1  1  0.50000000  0.78128900  0.67999300  1
  Si  Si2  1  0.50000000  0.21871100  0.67999300  1
  Si  Si3  1  0.78099900  0.50000000  0.81993400  1
  Si  Si4  1  0.21900100  0.50000000  0.81993400  1
  Si  Si5  1  0.21900100  0.50000000  0.18006600  1
  Si  Si6  1  0.50000000  0.78128900  0.32000700  1
  Si  Si7  1  0.50000000  0.21871100  0.32000700  1
  O  O0  1  0.68586600  0.31405700  0.24988700  1
  O  O1  1  0.68586600  0.68594300  0.75011300  1
  O  O2  1  0.31413400  0.31405700  0.75011300  1
  O  O3  1  0.31413400  0.68594300  0.24988700  1
  O  O4  1  0.31413400  0.68594300  0.75011300  1
  O  O5  1  0.31413400  0.31405700  0.24988700  1
  O  O6  1  0.68586600  0.68594300  0.24988700  1
  O  O7  1  0.68586600  0.31405700  0.75011300  1
  O  O8  1  0.75216300  0.50000000  0.00000000  1
  O  O9  1  0.50000000  0.75142400  0.50000000  1
  O  O10  1  0.50000000  0.24857600  0.50000000  1
  O  O11  1  0.24783700  0.50000000  0.00000000  1
  O  O12  1  0.00000000  0.50000000  0.22224900  1
  O  O13  1  0.50000000  0.00000000  0.72274200  1
  O  O14  1  0.00000000  0.50000000  0.77775100  1
  O  O15  1  0.50000000  0.00000000  0.27725800  1
loop_
_geom_bond_atom_site_label_1
_geom_bond_atom_site_label_2
_geom_bond_distance
_geom_bond_site_symmetry_2
O0 Si0 1.627400 1_555
O0 Si7 1.628581 1_555
O1 Si3 1.627400 1_555
O1 Si1 1.628581 1_555
O2 Si4 1.627400 1_555
O2 Si2 1.628581 1_555
O3 Si5 1.627400 1_555
O3 Si6 1.628581 1_555
O4 Si4 1.627400 1_555
O4 Si1 1.628581 1_555
O5 Si5 1.627400 1_555
O5 Si7 1.628581 1_555
O6 Si0 1.627400 1_555
O6 Si6 1.628581 1_555
O7 Si3 1.627400 1_555
O7 Si2 1.628581 1_555
O8 Si0 1.621056 1_555
O8 Si3 1.621056 1_554
O9 Si1 1.621376 1_555
O9 Si6 1.621376 1_555
O10 Si2 1.621376 1_555
O10 Si7 1.621376 1_555
O11 Si5 1.621056 1_555
O11 Si4 1.621056 1_554
O12 Si0 1.620531 1_455
O12 Si5 1.620531 1_555
O13 Si2 1.619748 1_555
O13 Si1 1.619748 1_545
O14 Si4 1.620531 1_555
O14 Si3 1.620531 1_455
O15 Si7 1.619748 1_555
O15 Si6 1.619748 1_545
