# generated using pymatgen
data_Cs4H4SeS3O16
_symmetry_space_group_name_H-M   'P 1'
_cell_length_a   7.88113477
_cell_length_b   7.96943654
_cell_length_c   8.39376468
_cell_angle_alpha   89.91864774
_cell_angle_beta   90.15016552
_cell_angle_gamma   108.43417983
_symmetry_Int_Tables_number   1
_chemical_formula_structural   Cs4H4SeS3O16
_chemical_formula_sum   'Cs4 H4 Se1 S3 O16'
_cell_volume   500.14367629
_cell_formula_units_Z   1
loop_
 _symmetry_equiv_pos_site_id
 _symmetry_equiv_pos_as_xyz
  1  'x, y, z'
loop_
 _atom_site_type_symbol
 _atom_site_label
 _atom_site_symmetry_multiplicity
 _atom_site_fract_x
 _atom_site_fract_y
 _atom_site_fract_z
 _atom_site_occupancy
  Cs  Cs0  1  0.70426400  0.21198900  0.37605200  1
  Cs  Cs1  1  0.79582100  0.79161000  0.87723800  1
  Cs  Cs2  1  0.29534800  0.79047400  0.62723300  1
  Cs  Cs3  1  0.20626600  0.21105200  0.12314100  1
  H  H0  1  0.54044600  0.62493200  0.20674000  1
  H  H1  1  0.94856900  0.36693100  0.71652100  1
  H  H2  1  0.44933700  0.36604100  0.78390400  1
  H  H3  1  0.05589800  0.62968600  0.28817600  1
  Se  Se0  1  0.78386100  0.75589200  0.37312700  1
  S  S0  1  0.71649200  0.24714600  0.87190700  1
  S  S1  1  0.21654800  0.24637600  0.62793300  1
  S  S2  1  0.28352300  0.75335300  0.12769400  1
  O  O0  1  0.68561200  0.81671900  0.52537600  1
  O  O1  1  0.80489300  0.19388600  0.00732600  1
  O  O2  1  0.30415000  0.19256900  0.49287200  1
  O  O3  1  0.19629000  0.80769300  0.99217400  1
  O  O4  1  0.62359800  0.57809900  0.27618700  1
  O  O5  1  0.86147300  0.40791300  0.78279600  1
  O  O6  1  0.36167400  0.40720200  0.71724700  1
  O  O7  1  0.13975800  0.59093100  0.21433500  1
  O  O8  1  0.86234900  0.91401500  0.24020800  1
  O  O9  1  0.64754300  0.10638800  0.75372200  1
  O  O10  1  0.14808200  0.10572200  0.74612100  1
  O  O11  1  0.35199300  0.89264100  0.24680000  1
  O  O12  1  0.93287700  0.65801500  0.42957700  1
  O  O13  1  0.58283000  0.33216300  0.92111700  1
  O  O14  1  0.08222600  0.33105000  0.57817300  1
  O  O15  1  0.41827900  0.66951300  0.07630200  1
loop_
_geom_bond_atom_site_label_1
_geom_bond_atom_site_label_2
_geom_bond_distance
_geom_bond_site_symmetry_2
Cs0 O1 3.211743 1_555
Cs0 O8 3.221453 1_545
Cs0 O2 3.261320 1_555
Cs0 O9 3.274046 1_555
Cs0 O4 3.283761 1_555
Cs0 O14 3.292759 1_655
Cs0 O11 3.299312 1_545
Cs0 O0 3.348507 1_545
Cs0 O12 3.468869 1_555
Cs1 O0 3.100339 1_555
Cs1 O8 3.191456 1_556
Cs1 O9 3.251747 1_565
Cs1 O3 3.261441 1_655
Cs1 O15 3.283667 1_556
Cs1 O10 3.286048 1_665
Cs1 O5 3.355028 1_555
Cs1 O1 3.367472 1_566
Cs1 O13 3.531647 1_555
Cs2 O0 3.137070 1_555
Cs2 O3 3.176973 1_555
Cs2 O12 3.178129 1_455
Cs2 O10 3.242232 1_565
Cs2 O9 3.277636 1_565
Cs2 O11 3.290804 1_555
Cs2 O6 3.342900 1_555
Cs2 O2 3.375637 1_565
Cs2 O14 3.536612 1_555
Cs3 O8 3.140922 1_445
Cs3 O2 3.210317 1_555
Cs3 O11 3.265732 1_545
Cs3 O1 3.268122 1_455
Cs3 O10 3.268976 1_554
Cs3 O13 3.290114 1_554
Cs3 O7 3.322380 1_555
Cs3 O3 3.376047 1_544
H0 O4 1.029868 1_555
H0 O15 1.568974 1_555
H1 O5 1.015678 1_555
H1 O14 1.654609 1_655
H2 O6 1.019190 1_555
H2 O13 1.636660 1_555
H3 O7 1.023787 1_555
H3 O12 1.595279 1_455
O0 Se0 1.646821 1_555
O1 S0 1.462559 1_554
O2 S1 1.462347 1_555
O3 S2 1.461828 1_556
O4 Se0 1.769492 1_555
O5 S0 1.607011 1_555
O6 S1 1.607503 1_555
O7 S2 1.600707 1_555
O8 Se0 1.649857 1_555
O9 S0 1.467159 1_555
O10 S1 1.465920 1_555
O11 S2 1.464372 1_555
O12 Se0 1.669607 1_555
O13 S0 1.481148 1_555
O14 S1 1.482946 1_555
O15 S2 1.487420 1_555
