# generated using pymatgen
data_Mg30CoSnO32
_symmetry_space_group_name_H-M   'P 1'
_cell_length_a   8.58732900
_cell_length_b   8.58732900
_cell_length_c   8.61542000
_cell_angle_alpha   90.00000000
_cell_angle_beta   90.00000000
_cell_angle_gamma   90.00000000
_symmetry_Int_Tables_number   1
_chemical_formula_structural   Mg30CoSnO32
_chemical_formula_sum   'Mg30 Co1 Sn1 O32'
_cell_volume   635.32019147
_cell_formula_units_Z   1
loop_
 _symmetry_equiv_pos_site_id
 _symmetry_equiv_pos_as_xyz
  1  'x, y, z'
loop_
 _atom_site_type_symbol
 _atom_site_label
 _atom_site_symmetry_multiplicity
 _atom_site_fract_x
 _atom_site_fract_y
 _atom_site_fract_z
 _atom_site_occupancy
  Mg  Mg0  1  0.00000000  0.50000000  0.00000000  1
  Mg  Mg1  1  0.50000000  0.00000000  0.00000000  1
  Mg  Mg2  1  0.00000000  0.00000000  0.50000000  1
  Mg  Mg3  1  0.00000000  0.50000000  0.50000000  1
  Mg  Mg4  1  0.50000000  0.00000000  0.50000000  1
  Mg  Mg5  1  0.50000000  0.50000000  0.50000000  1
  Mg  Mg6  1  0.24569500  0.24569500  0.00000000  1
  Mg  Mg7  1  0.24569500  0.75430500  0.00000000  1
  Mg  Mg8  1  0.75430500  0.24569500  0.00000000  1
  Mg  Mg9  1  0.75430500  0.75430500  0.00000000  1
  Mg  Mg10  1  0.24919800  0.24919800  0.50000000  1
  Mg  Mg11  1  0.24919800  0.75080200  0.50000000  1
  Mg  Mg12  1  0.75080200  0.24919800  0.50000000  1
  Mg  Mg13  1  0.75080200  0.75080200  0.50000000  1
  Mg  Mg14  1  0.00000000  0.24821400  0.25050600  1
  Mg  Mg15  1  0.00000000  0.75178600  0.25050600  1
  Mg  Mg16  1  0.50000000  0.24529300  0.25456700  1
  Mg  Mg17  1  0.50000000  0.75470700  0.25456700  1
  Mg  Mg18  1  0.00000000  0.24821400  0.74949400  1
  Mg  Mg19  1  0.00000000  0.75178600  0.74949400  1
  Mg  Mg20  1  0.50000000  0.24529300  0.74543300  1
  Mg  Mg21  1  0.50000000  0.75470700  0.74543300  1
  Mg  Mg22  1  0.24821400  0.00000000  0.25050600  1
  Mg  Mg23  1  0.24529300  0.50000000  0.25456700  1
  Mg  Mg24  1  0.75178600  0.00000000  0.25050600  1
  Mg  Mg25  1  0.75470700  0.50000000  0.25456700  1
  Mg  Mg26  1  0.24821400  0.00000000  0.74949400  1
  Mg  Mg27  1  0.24529300  0.50000000  0.74543300  1
  Mg  Mg28  1  0.75178600  0.00000000  0.74949400  1
  Mg  Mg29  1  0.75470700  0.50000000  0.74543300  1
  Co  Co0  1  0.00000000  0.00000000  0.00000000  1
  Sn  Sn0  1  0.50000000  0.50000000  0.00000000  1
  O  O0  1  0.00000000  0.00000000  0.25694700  1
  O  O1  1  0.00000000  0.50000000  0.25294900  1
  O  O2  1  0.50000000  0.00000000  0.25294900  1
  O  O3  1  0.50000000  0.50000000  0.26986800  1
  O  O4  1  0.00000000  0.00000000  0.74305300  1
  O  O5  1  0.00000000  0.50000000  0.74705100  1
  O  O6  1  0.50000000  0.00000000  0.74705100  1
  O  O7  1  0.50000000  0.50000000  0.73013200  1
  O  O8  1  0.24998100  0.24998100  0.24930400  1
  O  O9  1  0.24998100  0.75001900  0.24930400  1
  O  O10  1  0.75001900  0.24998100  0.24930400  1
  O  O11  1  0.75001900  0.75001900  0.24930400  1
  O  O12  1  0.24998100  0.24998100  0.75069600  1
  O  O13  1  0.24998100  0.75001900  0.75069600  1
  O  O14  1  0.75001900  0.24998100  0.75069600  1
  O  O15  1  0.75001900  0.75001900  0.75069600  1
  O  O16  1  0.00000000  0.24726900  0.00000000  1
  O  O17  1  0.00000000  0.75273100  0.00000000  1
  O  O18  1  0.50000000  0.22986200  0.00000000  1
  O  O19  1  0.50000000  0.77013800  0.00000000  1
  O  O20  1  0.00000000  0.24988900  0.50000000  1
  O  O21  1  0.00000000  0.75011100  0.50000000  1
  O  O22  1  0.50000000  0.24690200  0.50000000  1
  O  O23  1  0.50000000  0.75309800  0.50000000  1
  O  O24  1  0.24726900  0.00000000  0.00000000  1
  O  O25  1  0.22986200  0.50000000  0.00000000  1
  O  O26  1  0.75273100  0.00000000  0.00000000  1
  O  O27  1  0.77013800  0.50000000  0.00000000  1
  O  O28  1  0.24988900  0.00000000  0.50000000  1
  O  O29  1  0.24690200  0.50000000  0.50000000  1
  O  O30  1  0.75011100  0.00000000  0.50000000  1
  O  O31  1  0.75309800  0.50000000  0.50000000  1
loop_
_geom_bond_atom_site_label_1
_geom_bond_atom_site_label_2
_geom_bond_distance
_geom_bond_site_symmetry_2
Mg0 O25 1.973901 1_555
Mg0 O27 1.973901 1_455
Mg0 O17 2.170284 1_555
Mg0 O16 2.170284 1_555
Mg0 O1 2.179262 1_555
Mg0 O5 2.179262 1_554
Mg1 O18 1.973901 1_555
Mg1 O19 1.973901 1_545
Mg1 O26 2.170284 1_555
Mg1 O24 2.170284 1_555
Mg1 O6 2.179262 1_554
Mg1 O2 2.179262 1_555
Mg2 O4 2.094004 1_555
Mg2 O0 2.094004 1_555
Mg2 O28 2.145879 1_555
Mg2 O30 2.145879 1_455
Mg2 O21 2.145879 1_545
Mg2 O20 2.145879 1_555
Mg3 O29 2.120229 1_555
Mg3 O31 2.120229 1_455
Mg3 O5 2.128448 1_555
Mg3 O1 2.128448 1_555
Mg3 O21 2.147785 1_555
Mg3 O20 2.147785 1_555
Mg4 O22 2.120229 1_555
Mg4 O23 2.120229 1_545
Mg4 O2 2.128448 1_555
Mg4 O6 2.128448 1_555
Mg4 O30 2.147785 1_555
Mg4 O28 2.147785 1_555
Mg5 O3 1.982684 1_555
Mg5 O7 1.982684 1_555
Mg5 O23 2.173436 1_555
Mg5 O31 2.173436 1_555
Mg5 O29 2.173436 1_555
Mg5 O22 2.173436 1_555
Mg6 O24 2.109907 1_555
Mg6 O16 2.109907 1_555
Mg6 O8 2.148489 1_555
Mg6 O12 2.148489 1_554
Mg6 O18 2.188029 1_555
Mg6 O25 2.188029 1_555
Mg7 O24 2.109907 1_565
Mg7 O17 2.109907 1_555
Mg7 O9 2.148489 1_555
Mg7 O13 2.148489 1_554
Mg7 O19 2.188029 1_555
Mg7 O25 2.188029 1_555
Mg8 O26 2.109907 1_555
Mg8 O16 2.109907 1_655
Mg8 O10 2.148489 1_555
Mg8 O14 2.148489 1_554
Mg8 O27 2.188029 1_555
Mg8 O18 2.188029 1_555
Mg9 O26 2.109907 1_565
Mg9 O17 2.109907 1_655
Mg9 O11 2.148489 1_555
Mg9 O15 2.148489 1_554
Mg9 O19 2.188029 1_555
Mg9 O27 2.188029 1_555
Mg10 O28 2.139953 1_555
Mg10 O20 2.139953 1_555
Mg10 O29 2.153810 1_555
Mg10 O22 2.153810 1_555
Mg10 O12 2.159872 1_555
Mg10 O8 2.159872 1_555
Mg11 O21 2.139953 1_555
Mg11 O28 2.139953 1_565
Mg11 O29 2.153810 1_555
Mg11 O23 2.153810 1_555
Mg11 O13 2.159872 1_555
Mg11 O9 2.159872 1_555
Mg12 O30 2.139953 1_555
Mg12 O20 2.139953 1_655
Mg12 O22 2.153810 1_555
Mg12 O31 2.153810 1_555
Mg12 O14 2.159872 1_555
Mg12 O10 2.159872 1_555
Mg13 O30 2.139953 1_565
Mg13 O21 2.139953 1_655
Mg13 O31 2.153810 1_555
Mg13 O23 2.153810 1_555
Mg13 O15 2.159872 1_555
Mg13 O11 2.159872 1_555
Mg14 O0 2.132218 1_555
Mg14 O8 2.146748 1_555
Mg14 O10 2.146748 1_455
Mg14 O20 2.149544 1_555
Mg14 O16 2.158230 1_555
Mg14 O1 2.162272 1_555
Mg15 O0 2.132218 1_565
Mg15 O9 2.146748 1_555
Mg15 O11 2.146748 1_455
Mg15 O21 2.149544 1_555
Mg15 O17 2.158230 1_555
Mg15 O1 2.162272 1_555
Mg16 O2 2.106458 1_555
Mg16 O22 2.114554 1_555
Mg16 O10 2.147851 1_555
Mg16 O8 2.147851 1_555
Mg16 O3 2.191222 1_555
Mg16 O18 2.197201 1_555
Mg17 O2 2.106458 1_565
Mg17 O23 2.114554 1_555
Mg17 O11 2.147851 1_555
Mg17 O9 2.147851 1_555
Mg17 O3 2.191222 1_555
Mg17 O19 2.197201 1_555
Mg18 O4 2.132218 1_555
Mg18 O12 2.146748 1_555
Mg18 O14 2.146748 1_455
Mg18 O20 2.149544 1_555
Mg18 O16 2.158230 1_556
Mg18 O5 2.162272 1_555
Mg19 O4 2.132218 1_565
Mg19 O13 2.146748 1_555
Mg19 O15 2.146748 1_455
Mg19 O21 2.149544 1_555
Mg19 O17 2.158230 1_556
Mg19 O5 2.162272 1_555
Mg20 O6 2.106458 1_555
Mg20 O22 2.114554 1_555
Mg20 O14 2.147851 1_555
Mg20 O12 2.147851 1_555
Mg20 O7 2.191222 1_555
Mg20 O18 2.197201 1_556
Mg21 O6 2.106458 1_565
Mg21 O23 2.114554 1_555
Mg21 O15 2.147851 1_555
Mg21 O13 2.147851 1_555
Mg21 O7 2.191222 1_555
Mg21 O19 2.197201 1_556
Mg22 O0 2.132218 1_555
Mg22 O8 2.146748 1_555
Mg22 O9 2.146748 1_545
Mg22 O28 2.149544 1_555
Mg22 O24 2.158230 1_555
Mg22 O2 2.162272 1_555
Mg23 O1 2.106458 1_555
Mg23 O29 2.114554 1_555
Mg23 O9 2.147851 1_555
Mg23 O8 2.147851 1_555
Mg23 O3 2.191222 1_555
Mg23 O25 2.197201 1_555
Mg24 O0 2.132218 1_655
Mg24 O10 2.146748 1_555
Mg24 O11 2.146748 1_545
Mg24 O30 2.149544 1_555
Mg24 O26 2.158230 1_555
Mg24 O2 2.162272 1_555
Mg25 O1 2.106458 1_655
Mg25 O31 2.114554 1_555
Mg25 O11 2.147851 1_555
Mg25 O10 2.147851 1_555
Mg25 O3 2.191222 1_555
Mg25 O27 2.197201 1_555
Mg26 O4 2.132218 1_555
Mg26 O12 2.146748 1_555
Mg26 O13 2.146748 1_545
Mg26 O28 2.149544 1_555
Mg26 O24 2.158230 1_556
Mg26 O6 2.162272 1_555
Mg27 O5 2.106458 1_555
Mg27 O29 2.114554 1_555
Mg27 O13 2.147851 1_555
Mg27 O12 2.147851 1_555
Mg27 O7 2.191222 1_555
Mg27 O25 2.197201 1_556
Mg28 O4 2.132218 1_655
Mg28 O14 2.146748 1_555
Mg28 O15 2.146748 1_545
Mg28 O30 2.149544 1_555
Mg28 O26 2.158230 1_556
Mg28 O6 2.162272 1_555
Mg29 O5 2.106458 1_655
Mg29 O31 2.114554 1_555
Mg29 O15 2.147851 1_555
Mg29 O14 2.147851 1_555
Mg29 O7 2.191222 1_555
Mg29 O27 2.197201 1_556
Co0 O24 2.123380 1_555
Co0 O16 2.123380 1_555
Co0 O26 2.123380 1_455
Co0 O17 2.123380 1_545
Co0 O0 2.213706 1_555
Co0 O4 2.213706 1_554
O3 Sn0 2.325026 1_555
O7 Sn0 2.325026 1_556
O18 Sn0 2.319764 1_555
O19 Sn0 2.319764 1_555
O25 Sn0 2.319764 1_555
O27 Sn0 2.319764 1_555
