# generated using pymatgen
data_Ti11O14
_symmetry_space_group_name_H-M   'P 1'
_cell_length_a   10.69318798
_cell_length_b   10.69318798
_cell_length_c   5.11348502
_cell_angle_alpha   85.55126973
_cell_angle_beta   85.55126973
_cell_angle_gamma   152.45804078
_symmetry_Int_Tables_number   1
_chemical_formula_structural   Ti11O14
_chemical_formula_sum   'Ti11 O14'
_cell_volume   255.60662115
_cell_formula_units_Z   1
loop_
 _symmetry_equiv_pos_site_id
 _symmetry_equiv_pos_as_xyz
  1  'x, y, z'
loop_
 _atom_site_type_symbol
 _atom_site_label
 _atom_site_symmetry_multiplicity
 _atom_site_fract_x
 _atom_site_fract_y
 _atom_site_fract_z
 _atom_site_occupancy
  Ti  Ti0  1  0.71646000  0.28354000  0.00000000  1
  Ti  Ti1  1  0.42995900  0.57004100  0.00000000  1
  Ti  Ti2  1  0.57004100  0.42995900  0.00000000  1
  Ti  Ti3  1  0.36361900  0.63638100  0.50000000  1
  Ti  Ti4  1  0.79116300  0.20883700  0.50000000  1
  Ti  Ti5  1  0.63638100  0.36361900  0.50000000  1
  Ti  Ti6  1  0.00000000  0.00000000  0.00000000  1
  Ti  Ti7  1  0.28354000  0.71646000  0.00000000  1
  Ti  Ti8  1  0.07351700  0.92648300  0.50000000  1
  Ti  Ti9  1  0.92648300  0.07351700  0.50000000  1
  Ti  Ti10  1  0.20883700  0.79116300  0.50000000  1
  O  O0  1  0.75091800  0.75091800  0.74086600  1
  O  O1  1  0.60675600  0.89021300  0.76438900  1
  O  O2  1  0.82283900  0.68254200  0.24839400  1
  O  O3  1  0.68254200  0.82283900  0.24839400  1
  O  O4  1  0.17716100  0.31745800  0.75160600  1
  O  O5  1  0.31745800  0.17716100  0.75160600  1
  O  O6  1  0.47243000  0.04546200  0.73958800  1
  O  O7  1  0.24908200  0.24908200  0.25913400  1
  O  O8  1  0.04546200  0.47243000  0.73958800  1
  O  O9  1  0.10978700  0.39324400  0.23561100  1
  O  O10  1  0.39324400  0.10978700  0.23561100  1
  O  O11  1  0.89021300  0.60675600  0.76438900  1
  O  O12  1  0.52757000  0.95453800  0.26041200  1
  O  O13  1  0.95453800  0.52757000  0.26041200  1
loop_
_geom_bond_atom_site_label_1
_geom_bond_atom_site_label_2
_geom_bond_distance
_geom_bond_site_symmetry_2
O0 Ti1 2.097873 1_556
O0 Ti2 2.097873 1_556
O0 Ti8 2.106897 1_655
O0 Ti9 2.106897 1_565
O0 Ti6 2.111584 1_666
O1 Ti1 2.067804 1_556
O1 Ti4 2.069349 1_565
O1 Ti9 2.084851 1_565
O1 Ti7 2.113792 1_556
O1 Ti3 2.134217 1_555
O2 Ti5 2.030818 1_555
O2 Ti6 2.068665 1_665
O2 Ti8 2.073877 1_655
O2 Ti2 2.081589 1_555
O3 Ti3 2.030818 1_555
O3 Ti6 2.068665 1_665
O3 Ti9 2.073877 1_565
O3 Ti1 2.081589 1_555
O4 Ti3 2.030818 1_555
O4 Ti6 2.068665 1_556
O4 Ti9 2.073877 1_455
O4 Ti1 2.081589 1_556
O5 Ti5 2.030818 1_555
O5 Ti6 2.068665 1_556
O5 Ti8 2.073877 1_545
O5 Ti2 2.081589 1_556
O6 Ti10 2.073786 1_545
O6 Ti0 2.085168 1_556
O6 Ti7 2.117667 1_546
O6 Ti5 2.142908 1_555
O6 Ti4 2.151865 1_555
O7 Ti2 2.097873 1_555
O7 Ti1 2.097873 1_555
O7 Ti8 2.106897 1_545
O7 Ti9 2.106897 1_455
O7 Ti6 2.111584 1_555
O8 Ti4 2.073786 1_455
O8 Ti7 2.085168 1_556
O8 Ti0 2.117667 1_456
O8 Ti3 2.142908 1_555
O8 Ti10 2.151865 1_555
O9 Ti1 2.067804 1_555
O9 Ti4 2.069349 1_455
O9 Ti9 2.084851 1_455
O9 Ti7 2.113792 1_555
O9 Ti3 2.134217 1_555
O10 Ti2 2.067804 1_555
O10 Ti10 2.069349 1_545
O10 Ti8 2.084851 1_545
O10 Ti0 2.113792 1_555
O10 Ti5 2.134217 1_555
O11 Ti2 2.067804 1_556
O11 Ti10 2.069349 1_655
O11 Ti8 2.084851 1_655
O11 Ti0 2.113792 1_556
O11 Ti5 2.134217 1_555
O12 Ti4 2.073786 1_565
O12 Ti7 2.085168 1_555
O12 Ti0 2.117667 1_565
O12 Ti3 2.142908 1_555
O12 Ti10 2.151865 1_555
O13 Ti10 2.073786 1_655
O13 Ti0 2.085168 1_555
O13 Ti7 2.117667 1_655
O13 Ti5 2.142908 1_555
O13 Ti4 2.151865 1_555
