# generated using pymatgen
data_Mn(SiO3)2
_symmetry_space_group_name_H-M   'P 1'
_cell_length_a   5.07181300
_cell_length_b   10.35953400
_cell_length_c   19.29484300
_cell_angle_alpha   90.00000000
_cell_angle_beta   90.00000000
_cell_angle_gamma   90.00000000
_symmetry_Int_Tables_number   1
_chemical_formula_structural   Mn(SiO3)2
_chemical_formula_sum   'Mn8 Si16 O48'
_cell_volume   1013.78229372
_cell_formula_units_Z   8
loop_
 _symmetry_equiv_pos_site_id
 _symmetry_equiv_pos_as_xyz
  1  'x, y, z'
loop_
 _atom_site_type_symbol
 _atom_site_label
 _atom_site_symmetry_multiplicity
 _atom_site_fract_x
 _atom_site_fract_y
 _atom_site_fract_z
 _atom_site_occupancy
  Mn  Mn0  1  0.43919300  0.54988500  0.37364800  1
  Mn  Mn1  1  0.56080700  0.45011500  0.62635200  1
  Mn  Mn2  1  0.93919300  0.45011500  0.12635200  1
  Mn  Mn3  1  0.06080700  0.54988500  0.87364800  1
  Mn  Mn4  1  0.43919300  0.04988500  0.12635200  1
  Mn  Mn5  1  0.56080700  0.95011500  0.87364800  1
  Mn  Mn6  1  0.93919300  0.95011500  0.37364800  1
  Mn  Mn7  1  0.06080700  0.04988500  0.62635200  1
  Si  Si0  1  0.62491500  0.16491300  0.27629200  1
  Si  Si1  1  0.77536500  0.33328300  0.97438100  1
  Si  Si2  1  0.72463500  0.33328300  0.47438100  1
  Si  Si3  1  0.87508500  0.66491300  0.72370800  1
  Si  Si4  1  0.12491500  0.83508700  0.22370800  1
  Si  Si5  1  0.37508500  0.33508700  0.77629200  1
  Si  Si6  1  0.27536500  0.16671700  0.97438100  1
  Si  Si7  1  0.77536500  0.83328300  0.52561900  1
  Si  Si8  1  0.72463500  0.83328300  0.02561900  1
  Si  Si9  1  0.87508500  0.16491300  0.77629200  1
  Si  Si10  1  0.37508500  0.83508700  0.72370800  1
  Si  Si11  1  0.62491500  0.66491300  0.22370800  1
  Si  Si12  1  0.22463500  0.66671700  0.02561900  1
  Si  Si13  1  0.12491500  0.33508700  0.27629200  1
  Si  Si14  1  0.22463500  0.16671700  0.47438100  1
  Si  Si15  1  0.27536500  0.66671700  0.52561900  1
  O  O0  1  0.79607500  0.03677100  0.82050100  1
  O  O1  1  0.33757600  0.54042000  0.57232300  1
  O  O2  1  0.20392500  0.96322900  0.17949900  1
  O  O3  1  0.77957300  0.86224700  0.44189000  1
  O  O4  1  0.27957300  0.63775300  0.44189000  1
  O  O5  1  0.97700800  0.71498900  0.54373600  1
  O  O6  1  0.87478300  0.13231000  0.69265500  1
  O  O7  1  0.12521700  0.36769000  0.19265500  1
  O  O8  1  0.77957300  0.36224700  0.05811000  1
  O  O9  1  0.87478300  0.63231000  0.80734500  1
  O  O10  1  0.29607500  0.96322900  0.67949900  1
  O  O11  1  0.72042700  0.86224700  0.94189000  1
  O  O12  1  0.66242400  0.45958000  0.42767700  1
  O  O13  1  0.37478300  0.36769000  0.69265500  1
  O  O14  1  0.70392500  0.53677100  0.17949900  1
  O  O15  1  0.33757600  0.04042000  0.92767700  1
  O  O16  1  0.29607500  0.46322900  0.82050100  1
  O  O17  1  0.16983000  0.21793800  0.79435400  1
  O  O18  1  0.33017000  0.21793800  0.29435400  1
  O  O19  1  0.52299200  0.21498900  0.45626400  1
  O  O20  1  0.72042700  0.36224700  0.55811000  1
  O  O21  1  0.62521700  0.13231000  0.19265500  1
  O  O22  1  0.83757600  0.95958000  0.57232300  1
  O  O23  1  0.16983000  0.71793800  0.70564600  1
  O  O24  1  0.22042700  0.63775300  0.94189000  1
  O  O25  1  0.62521700  0.63231000  0.30734500  1
  O  O26  1  0.66242400  0.95958000  0.07232300  1
  O  O27  1  0.27957300  0.13775300  0.05811000  1
  O  O28  1  0.16242400  0.04042000  0.42767700  1
  O  O29  1  0.66983000  0.28206200  0.79435400  1
  O  O30  1  0.20392500  0.46322900  0.32050100  1
  O  O31  1  0.83017000  0.28206200  0.29435400  1
  O  O32  1  0.83017000  0.78206200  0.20564600  1
  O  O33  1  0.83757600  0.45958000  0.92767700  1
  O  O34  1  0.22042700  0.13775300  0.55811000  1
  O  O35  1  0.16242400  0.54042000  0.07232300  1
  O  O36  1  0.33017000  0.71793800  0.20564600  1
  O  O37  1  0.02299200  0.28501100  0.45626400  1
  O  O38  1  0.47700800  0.28501100  0.95626400  1
  O  O39  1  0.66983000  0.78206200  0.70564600  1
  O  O40  1  0.47700800  0.78501100  0.54373600  1
  O  O41  1  0.52299200  0.71498900  0.04373600  1
  O  O42  1  0.02299200  0.78501100  0.04373600  1
  O  O43  1  0.37478300  0.86769000  0.80734500  1
  O  O44  1  0.70392500  0.03677100  0.32050100  1
  O  O45  1  0.97700800  0.21498900  0.95626400  1
  O  O46  1  0.12521700  0.86769000  0.30734500  1
  O  O47  1  0.79607500  0.53677100  0.67949900  1
loop_
_geom_bond_atom_site_label_1
_geom_bond_atom_site_label_2
_geom_bond_distance
_geom_bond_site_symmetry_2
Mn0 O4 1.793804 1_555
Mn0 O12 1.801057 1_555
Mn0 O25 1.804410 1_555
Mn0 O30 1.811430 1_555
Mn1 O20 1.793804 1_555
Mn1 O1 1.801057 1_555
Mn1 O13 1.804410 1_555
Mn1 O47 1.811430 1_555
Mn2 O8 1.793804 1_555
Mn2 O35 1.801057 1_655
Mn2 O7 1.804410 1_655
Mn2 O14 1.811430 1_555
Mn3 O24 1.793804 1_555
Mn3 O33 1.801057 1_455
Mn3 O9 1.804410 1_455
Mn3 O16 1.811430 1_555
Mn4 O27 1.793804 1_555
Mn4 O26 1.801057 1_545
Mn4 O21 1.804410 1_555
Mn4 O2 1.811430 1_545
Mn5 O11 1.793804 1_555
Mn5 O15 1.801057 1_565
Mn5 O43 1.804410 1_555
Mn5 O0 1.811430 1_565
Mn6 O3 1.793804 1_555
Mn6 O28 1.801057 1_665
Mn6 O46 1.804410 1_655
Mn6 O44 1.811430 1_565
Mn7 O34 1.793804 1_555
Mn7 O22 1.801057 1_445
Mn7 O6 1.804410 1_455
Mn7 O10 1.811430 1_545
O0 Si9 1.628015 1_555
O1 Si15 1.619714 1_555
O2 Si4 1.628015 1_555
O3 Si7 1.643305 1_555
O4 Si15 1.643305 1_555
O5 Si15 1.631588 1_655
O5 Si7 1.633977 1_555
O6 Si9 1.648730 1_555
O7 Si13 1.648730 1_555
O8 Si1 1.643305 1_554
O9 Si3 1.648730 1_555
O10 Si10 1.628015 1_555
O11 Si8 1.643305 1_556
O12 Si2 1.619714 1_555
O13 Si5 1.648730 1_555
O14 Si11 1.628015 1_555
O15 Si6 1.619714 1_555
O16 Si5 1.628015 1_555
O17 Si9 1.630307 1_455
O17 Si5 1.636464 1_555
O18 Si0 1.630307 1_555
O18 Si13 1.636464 1_555
O19 Si14 1.631588 1_555
O19 Si2 1.633977 1_555
O20 Si2 1.643305 1_555
O21 Si0 1.648730 1_555
O22 Si7 1.619714 1_555
O23 Si3 1.630307 1_455
O23 Si10 1.636464 1_555
O24 Si12 1.643305 1_556
O25 Si11 1.648730 1_555
O26 Si8 1.619714 1_555
O27 Si6 1.643305 1_554
O28 Si14 1.619714 1_555
O29 Si5 1.630307 1_555
O29 Si9 1.636464 1_555
O30 Si13 1.628015 1_555
O31 Si13 1.630307 1_655
O31 Si0 1.636464 1_555
O32 Si4 1.630307 1_655
O32 Si11 1.636464 1_555
O33 Si1 1.619714 1_555
O34 Si14 1.643305 1_555
O35 Si12 1.619714 1_555
O36 Si11 1.630307 1_555
O36 Si4 1.636464 1_555
O37 Si2 1.631588 1_455
O37 Si14 1.633977 1_555
O38 Si1 1.631588 1_555
O38 Si6 1.633977 1_555
O39 Si10 1.630307 1_555
O39 Si3 1.636464 1_555
O40 Si7 1.631588 1_555
O40 Si15 1.633977 1_555
O41 Si12 1.631588 1_555
O41 Si8 1.633977 1_555
O42 Si8 1.631588 1_455
O42 Si12 1.633977 1_555
O43 Si10 1.648730 1_555
O44 Si0 1.628015 1_555
O45 Si6 1.631588 1_655
O45 Si1 1.633977 1_555
O46 Si4 1.648730 1_555
O47 Si3 1.628015 1_555
