# generated using pymatgen
data_Ho(PO3)3
_symmetry_space_group_name_H-M   'P 1'
_cell_length_a   20.23036500
_cell_length_b   10.19299600
_cell_length_c   11.41478803
_cell_angle_alpha   82.23170119
_cell_angle_beta   90.00000000
_cell_angle_gamma   90.00000000
_symmetry_Int_Tables_number   1
_chemical_formula_structural   Ho(PO3)3
_chemical_formula_sum   'Ho12 P36 O108'
_cell_volume   2332.21941257
_cell_formula_units_Z   12
loop_
 _symmetry_equiv_pos_site_id
 _symmetry_equiv_pos_as_xyz
  1  'x, y, z'
loop_
 _atom_site_type_symbol
 _atom_site_label
 _atom_site_symmetry_multiplicity
 _atom_site_fract_x
 _atom_site_fract_y
 _atom_site_fract_z
 _atom_site_occupancy
  Ho  Ho0  1  0.17748900  0.52795400  0.50275100  1
  Ho  Ho1  1  0.67748900  0.97204600  0.49724900  1
  Ho  Ho2  1  0.82251100  0.47204600  0.49724900  1
  Ho  Ho3  1  0.32251100  0.02795400  0.50275100  1
  Ho  Ho4  1  0.65370600  0.98160200  0.99962300  1
  Ho  Ho5  1  0.15370600  0.51839800  0.00037700  1
  Ho  Ho6  1  0.34629400  0.01839800  0.00037700  1
  Ho  Ho7  1  0.84629400  0.48160200  0.99962300  1
  Ho  Ho8  1  0.00000000  0.00000000  0.50000000  1
  Ho  Ho9  1  0.50000000  0.50000000  0.50000000  1
  Ho  Ho10  1  0.00000000  0.00000000  0.00000000  1
  Ho  Ho11  1  0.50000000  0.50000000  0.00000000  1
  P  P0  1  0.55188400  0.96635900  0.27250600  1
  P  P1  1  0.05188400  0.53364100  0.72749400  1
  P  P2  1  0.44811600  0.03364100  0.72749400  1
  P  P3  1  0.94811600  0.46635900  0.27250600  1
  P  P4  1  0.54054900  0.81807800  0.81941400  1
  P  P5  1  0.04054900  0.68192200  0.18058600  1
  P  P6  1  0.45945100  0.18192200  0.18058600  1
  P  P7  1  0.95945100  0.31807800  0.81941400  1
  P  P8  1  0.37485900  0.32265700  0.34628800  1
  P  P9  1  0.87485900  0.17734300  0.65371200  1
  P  P10  1  0.62514100  0.67734300  0.65371200  1
  P  P11  1  0.12514100  0.82265700  0.34628800  1
  P  P12  1  0.27312200  0.50887400  0.23805900  1
  P  P13  1  0.77312200  0.99112600  0.76194100  1
  P  P14  1  0.72687800  0.49112600  0.76194100  1
  P  P15  1  0.22687800  0.00887400  0.23805900  1
  P  P16  1  0.11734400  0.19202500  0.14561700  1
  P  P17  1  0.61734400  0.30797500  0.85438300  1
  P  P18  1  0.88265600  0.80797500  0.85438300  1
  P  P19  1  0.38265600  0.69202500  0.14561700  1
  P  P20  1  0.06660400  0.30863100  0.36078900  1
  P  P21  1  0.56660400  0.19136900  0.63921100  1
  P  P22  1  0.93339600  0.69136900  0.63921100  1
  P  P23  1  0.43339600  0.80863100  0.36078900  1
  P  P24  1  0.20826900  0.19824100  0.67743000  1
  P  P25  1  0.70826900  0.30175900  0.32257000  1
  P  P26  1  0.79173100  0.80175900  0.32257000  1
  P  P27  1  0.29173100  0.69824100  0.67743000  1
  P  P28  1  0.77794400  0.17563800  0.13227900  1
  P  P29  1  0.27794400  0.32436200  0.86772100  1
  P  P30  1  0.22205600  0.82436200  0.86772100  1
  P  P31  1  0.72205600  0.67563800  0.13227900  1
  P  P32  1  0.88860500  0.02327800  0.24600700  1
  P  P33  1  0.38860500  0.47672200  0.75399300  1
  P  P34  1  0.11139500  0.97672200  0.75399300  1
  P  P35  1  0.61139500  0.52327800  0.24600700  1
  O  O0  1  0.58772100  0.94601100  0.38802100  1
  O  O1  1  0.08772100  0.55398900  0.61197900  1
  O  O2  1  0.41227900  0.05398900  0.61197900  1
  O  O3  1  0.91227900  0.44601100  0.38802100  1
  O  O4  1  0.59059900  0.96036000  0.16129600  1
  O  O5  1  0.09059900  0.53964000  0.83870400  1
  O  O6  1  0.40940100  0.03964000  0.83870400  1
  O  O7  1  0.90940100  0.46036000  0.16129600  1
  O  O8  1  0.51305400  0.69113700  0.88097400  1
  O  O9  1  0.01305400  0.80886300  0.11902600  1
  O  O10  1  0.48694600  0.30886300  0.11902600  1
  O  O11  1  0.98694600  0.19113700  0.88097400  1
  O  O12  1  0.57140800  0.91356200  0.89234700  1
  O  O13  1  0.07140800  0.58643800  0.10765300  1
  O  O14  1  0.42859200  0.08643800  0.10765300  1
  O  O15  1  0.92859200  0.41356200  0.89234700  1
  O  O16  1  0.42602400  0.41747200  0.37975500  1
  O  O17  1  0.92602400  0.08252800  0.62024500  1
  O  O18  1  0.57397600  0.58252800  0.62024500  1
  O  O19  1  0.07397600  0.91747200  0.37975500  1
  O  O20  1  0.33328200  0.24738300  0.44115100  1
  O  O21  1  0.83328200  0.25261700  0.55884900  1
  O  O22  1  0.66671800  0.75261700  0.55884900  1
  O  O23  1  0.16671800  0.74738300  0.44115100  1
  O  O24  1  0.25876500  0.53673300  0.36167100  1
  O  O25  1  0.75876500  0.96326700  0.63832900  1
  O  O26  1  0.74123500  0.46326700  0.63832900  1
  O  O27  1  0.24123500  0.03673300  0.36167100  1
  O  O28  1  0.21567100  0.47642700  0.16450800  1
  O  O29  1  0.71567100  0.02357300  0.83549200  1
  O  O30  1  0.78432900  0.52357300  0.83549200  1
  O  O31  1  0.28432900  0.97642700  0.16450800  1
  O  O32  1  0.06764700  0.08825700  0.12550200  1
  O  O33  1  0.56764700  0.41174300  0.87449800  1
  O  O34  1  0.93235300  0.91174300  0.87449800  1
  O  O35  1  0.43235300  0.58825700  0.12550200  1
  O  O36  1  0.12004500  0.31196300  0.05423700  1
  O  O37  1  0.62004500  0.18803700  0.94576300  1
  O  O38  1  0.87995500  0.68803700  0.94576300  1
  O  O39  1  0.37995500  0.81196300  0.05423700  1
  O  O40  1  0.10530300  0.42391800  0.39310400  1
  O  O41  1  0.60530300  0.07608200  0.60689600  1
  O  O42  1  0.89469700  0.57608200  0.60689600  1
  O  O43  1  0.39469700  0.92391800  0.39310400  1
  O  O44  1  0.04144300  0.20602400  0.45716700  1
  O  O45  1  0.54144300  0.29397600  0.54283300  1
  O  O46  1  0.95855700  0.79397600  0.54283300  1
  O  O47  1  0.45855700  0.70602400  0.45716700  1
  O  O48  1  0.48482500  0.89238000  0.73414200  1
  O  O49  1  0.98482500  0.60762000  0.26585800  1
  O  O50  1  0.51517500  0.10762000  0.26585800  1
  O  O51  1  0.01517500  0.39238000  0.73414200  1
  O  O52  1  0.59362300  0.78984500  0.72189200  1
  O  O53  1  0.09362300  0.71015500  0.27810800  1
  O  O54  1  0.40637700  0.21015500  0.27810800  1
  O  O55  1  0.90637700  0.28984500  0.72189200  1
  O  O56  1  0.32774300  0.39343800  0.24197400  1
  O  O57  1  0.82774300  0.10656200  0.75802600  1
  O  O58  1  0.67225700  0.60656200  0.75802600  1
  O  O59  1  0.17225700  0.89343800  0.24197400  1
  O  O60  1  0.19048500  0.13036400  0.15841600  1
  O  O61  1  0.69048500  0.36963600  0.84158400  1
  O  O62  1  0.80951500  0.86963600  0.84158400  1
  O  O63  1  0.30951500  0.63036400  0.15841600  1
  O  O64  1  0.11082900  0.23277300  0.27548500  1
  O  O65  1  0.61082900  0.26722700  0.72451500  1
  O  O66  1  0.88917100  0.76722700  0.72451500  1
  O  O67  1  0.38917100  0.73277300  0.27548500  1
  O  O68  1  0.49304600  0.86052300  0.27221700  1
  O  O69  1  0.99304600  0.63947700  0.72778300  1
  O  O70  1  0.50695400  0.13947700  0.72778300  1
  O  O71  1  0.00695400  0.36052300  0.27221700  1
  O  O72  1  0.19268700  0.32339400  0.59778900  1
  O  O73  1  0.69268700  0.17660600  0.40221100  1
  O  O74  1  0.80731300  0.67660600  0.40221100  1
  O  O75  1  0.30731300  0.82339400  0.59778900  1
  O  O76  1  0.25732300  0.10343100  0.63706900  1
  O  O77  1  0.75732300  0.39656900  0.36293100  1
  O  O78  1  0.74267700  0.89656900  0.36293100  1
  O  O79  1  0.24267700  0.60343100  0.63706900  1
  O  O80  1  0.74071500  0.06180500  0.09329400  1
  O  O81  1  0.24071500  0.43819500  0.90670600  1
  O  O82  1  0.25928500  0.93819500  0.90670600  1
  O  O83  1  0.75928500  0.56180500  0.09329400  1
  O  O84  1  0.81517500  0.26777700  0.04180700  1
  O  O85  1  0.31517500  0.23222300  0.95819300  1
  O  O86  1  0.18482500  0.73222300  0.95819300  1
  O  O87  1  0.68482500  0.76777700  0.04180700  1
  O  O88  1  0.93307600  0.05407400  0.34366200  1
  O  O89  1  0.43307600  0.44592600  0.65633800  1
  O  O90  1  0.06692400  0.94592600  0.65633800  1
  O  O91  1  0.56692400  0.55407400  0.34366200  1
  O  O92  1  0.91548800  0.02848300  0.12298100  1
  O  O93  1  0.41548800  0.47151700  0.87701900  1
  O  O94  1  0.08451200  0.97151700  0.87701900  1
  O  O95  1  0.58451200  0.52848300  0.12298100  1
  O  O96  1  0.22802600  0.23364000  0.80549800  1
  O  O97  1  0.72802600  0.26636000  0.19450200  1
  O  O98  1  0.77197400  0.76636000  0.19450200  1
  O  O99  1  0.27197400  0.73364000  0.80549800  1
  O  O100  1  0.82578100  0.12138200  0.24237900  1
  O  O101  1  0.32578100  0.37861800  0.75762100  1
  O  O102  1  0.17421900  0.87861800  0.75762100  1
  O  O103  1  0.67421900  0.62138200  0.24237900  1
  O  O104  1  0.14039900  0.12249700  0.71214900  1
  O  O105  1  0.64039900  0.37750300  0.28785100  1
  O  O106  1  0.85960100  0.87750300  0.28785100  1
  O  O107  1  0.35960100  0.62249700  0.71214900  1
loop_
_geom_bond_atom_site_label_1
_geom_bond_atom_site_label_2
_geom_bond_distance
_geom_bond_site_symmetry_2
Ho0 O79 2.236217 1_555
Ho0 O72 2.237738 1_555
Ho0 O1 2.238842 1_555
Ho0 O23 2.262587 1_555
Ho0 O40 2.276498 1_555
Ho0 O24 2.294770 1_555
Ho1 O78 2.236217 1_555
Ho1 O73 2.237738 1_565
Ho1 O0 2.238842 1_555
Ho1 O22 2.262587 1_555
Ho1 O41 2.276498 1_565
Ho1 O25 2.294770 1_555
Ho2 O77 2.236217 1_555
Ho2 O74 2.237738 1_555
Ho2 O3 2.238842 1_555
Ho2 O21 2.262587 1_555
Ho2 O42 2.276498 1_555
Ho2 O26 2.294770 1_555
Ho3 O76 2.236217 1_555
Ho3 O75 2.237738 1_545
Ho3 O2 2.238842 1_555
Ho3 O20 2.262587 1_555
Ho3 O43 2.276498 1_545
Ho3 O27 2.294770 1_555
Ho4 O37 2.218018 1_565
Ho4 O4 2.230359 1_556
Ho4 O12 2.232040 1_555
Ho4 O29 2.246747 1_565
Ho4 O87 2.257162 1_556
Ho4 O80 2.268540 1_566
Ho5 O36 2.218018 1_555
Ho5 O5 2.230359 1_554
Ho5 O13 2.232040 1_555
Ho5 O28 2.246747 1_555
Ho5 O86 2.257162 1_554
Ho5 O81 2.268540 1_554
Ho6 O39 2.218018 1_545
Ho6 O6 2.230359 1_554
Ho6 O14 2.232040 1_555
Ho6 O31 2.246747 1_545
Ho6 O85 2.257162 1_554
Ho6 O82 2.268540 1_544
Ho7 O38 2.218018 1_555
Ho7 O7 2.230359 1_556
Ho7 O15 2.232040 1_555
Ho7 O30 2.246747 1_555
Ho7 O84 2.257162 1_556
Ho7 O83 2.268540 1_556
Ho8 O90 2.248466 1_545
Ho8 O88 2.248466 1_455
Ho8 O44 2.252647 1_555
Ho8 O46 2.252647 1_445
Ho8 O17 2.267909 1_455
Ho8 O19 2.267909 1_545
Ho9 O91 2.248466 1_555
Ho9 O89 2.248466 1_555
Ho9 O47 2.252647 1_555
Ho9 O45 2.252647 1_555
Ho9 O18 2.267909 1_555
Ho9 O16 2.267909 1_555
Ho10 O9 2.235133 1_545
Ho10 O11 2.235133 1_454
Ho10 O34 2.254511 1_444
Ho10 O32 2.254511 1_555
Ho10 O94 2.255711 1_544
Ho10 O92 2.255711 1_455
Ho11 O10 2.235133 1_555
Ho11 O8 2.235133 1_554
Ho11 O35 2.254511 1_555
Ho11 O33 2.254511 1_554
Ho11 O95 2.255711 1_555
Ho11 O93 2.255711 1_554
O0 P0 1.494442 1_555
O1 P1 1.494442 1_555
O2 P2 1.494442 1_555
O3 P3 1.494442 1_555
O4 P0 1.499876 1_555
O5 P1 1.499876 1_555
O6 P2 1.499876 1_555
O7 P3 1.499876 1_555
O8 P4 1.493848 1_555
O9 P5 1.493848 1_555
O10 P6 1.493848 1_555
O11 P7 1.493848 1_555
O12 P4 1.499703 1_555
O13 P5 1.499703 1_555
O14 P6 1.499703 1_555
O15 P7 1.499703 1_555
O16 P8 1.500391 1_555
O17 P9 1.500391 1_555
O18 P10 1.500391 1_555
O19 P11 1.500391 1_555
O20 P8 1.498039 1_555
O21 P9 1.498039 1_555
O22 P10 1.498039 1_555
O23 P11 1.498039 1_555
O24 P12 1.504742 1_555
O25 P13 1.504742 1_555
O26 P14 1.504742 1_555
O27 P15 1.504742 1_555
O28 P12 1.496717 1_555
O29 P13 1.496717 1_545
O30 P14 1.496717 1_555
O31 P15 1.496717 1_565
O32 P16 1.499307 1_555
O33 P17 1.499307 1_555
O34 P18 1.499307 1_555
O35 P19 1.499307 1_555
O36 P16 1.496948 1_555
O37 P17 1.496948 1_555
O38 P18 1.496948 1_555
O39 P19 1.496948 1_555
O40 P20 1.499025 1_555
O41 P21 1.499025 1_555
O42 P22 1.499025 1_555
O43 P23 1.499025 1_555
O44 P20 1.500732 1_555
O45 P21 1.500732 1_555
O46 P22 1.500732 1_555
O47 P23 1.500732 1_555
O48 P4 1.610150 1_555
O48 P2 1.612750 1_565
O49 P5 1.610150 1_655
O49 P3 1.612750 1_555
O50 P6 1.610150 1_555
O50 P0 1.612750 1_545
O51 P7 1.610150 1_455
O51 P1 1.612750 1_555
O52 P4 1.600457 1_555
O52 P10 1.602656 1_555
O53 P5 1.600457 1_555
O53 P11 1.602656 1_555
O54 P6 1.600457 1_555
O54 P8 1.602656 1_555
O55 P7 1.600457 1_555
O55 P9 1.602656 1_555
O56 P12 1.610370 1_555
O56 P8 1.616986 1_555
O57 P13 1.610370 1_545
O57 P9 1.616986 1_555
O58 P14 1.610370 1_555
O58 P10 1.616986 1_555
O59 P15 1.610370 1_565
O59 P11 1.616986 1_555
O60 P16 1.606539 1_555
O60 P15 1.611737 1_555
O61 P17 1.606539 1_555
O61 P14 1.611737 1_555
O62 P18 1.606539 1_555
O62 P13 1.611737 1_555
O63 P19 1.606539 1_555
O63 P12 1.611737 1_555
O64 P20 1.596877 1_555
O64 P16 1.598089 1_555
O65 P21 1.596877 1_555
O65 P17 1.598089 1_555
O66 P22 1.596877 1_555
O66 P18 1.598089 1_555
O67 P23 1.596877 1_555
O67 P19 1.598089 1_555
O68 P0 1.606736 1_555
O68 P23 1.616667 1_555
O69 P1 1.606736 1_655
O69 P22 1.616667 1_555
O70 P2 1.606736 1_555
O70 P21 1.616667 1_555
O71 P3 1.606736 1_455
O71 P20 1.616667 1_555
O72 P24 1.496552 1_555
O73 P25 1.496552 1_555
O74 P26 1.496552 1_555
O75 P27 1.496552 1_555
O76 P24 1.500454 1_555
O77 P25 1.500454 1_555
O78 P26 1.500454 1_555
O79 P27 1.500454 1_555
O80 P28 1.500384 1_555
O81 P29 1.500384 1_555
O82 P30 1.500384 1_555
O83 P31 1.500384 1_555
O84 P28 1.501220 1_555
O85 P29 1.501220 1_555
O86 P30 1.501220 1_555
O87 P31 1.501220 1_555
O88 P32 1.498368 1_555
O89 P33 1.498368 1_555
O90 P34 1.498368 1_555
O91 P35 1.498368 1_555
O92 P32 1.500184 1_555
O93 P33 1.500184 1_555
O94 P34 1.500184 1_555
O95 P35 1.500184 1_555
O96 P29 1.599052 1_555
O96 P24 1.602998 1_555
O97 P28 1.599052 1_555
O97 P25 1.602998 1_555
O98 P31 1.599052 1_555
O98 P26 1.602998 1_555
O99 P30 1.599052 1_555
O99 P27 1.602998 1_555
O100 P32 1.614245 1_555
O100 P28 1.622953 1_555
O101 P33 1.614245 1_555
O101 P29 1.622953 1_555
O102 P34 1.614245 1_555
O102 P30 1.622953 1_555
O103 P35 1.614245 1_555
O103 P31 1.622953 1_555
O104 P24 1.598638 1_555
O104 P34 1.608856 1_545
O105 P25 1.598638 1_555
O105 P35 1.608856 1_555
O106 P26 1.598638 1_555
O106 P32 1.608856 1_565
O107 P27 1.598638 1_555
O107 P33 1.608856 1_555
