# generated using pymatgen
data_Y5(NiTe)2
_symmetry_space_group_name_H-M   'P 1'
_cell_length_a   4.04513400
_cell_length_b   14.46063400
_cell_length_c   15.81205100
_cell_angle_alpha   90.00000000
_cell_angle_beta   90.00000000
_cell_angle_gamma   90.00000000
_symmetry_Int_Tables_number   1
_chemical_formula_structural   Y5(NiTe)2
_chemical_formula_sum   'Y20 Ni8 Te8'
_cell_volume   924.92912131
_cell_formula_units_Z   4
loop_
 _symmetry_equiv_pos_site_id
 _symmetry_equiv_pos_as_xyz
  1  'x, y, z'
loop_
 _atom_site_type_symbol
 _atom_site_label
 _atom_site_symmetry_multiplicity
 _atom_site_fract_x
 _atom_site_fract_y
 _atom_site_fract_z
 _atom_site_occupancy
  Y  Y0  1  0.25000000  0.14958000  0.25936400  1
  Y  Y1  1  0.25000000  0.64958000  0.24063600  1
  Y  Y2  1  0.75000000  0.85042000  0.74063600  1
  Y  Y3  1  0.75000000  0.35042000  0.75936400  1
  Y  Y4  1  0.25000000  0.88512400  0.18974900  1
  Y  Y5  1  0.25000000  0.38512400  0.31025100  1
  Y  Y6  1  0.75000000  0.11487600  0.81025100  1
  Y  Y7  1  0.75000000  0.61487600  0.68974900  1
  Y  Y8  1  0.25000000  0.88177000  0.55325400  1
  Y  Y9  1  0.25000000  0.38177000  0.94674600  1
  Y  Y10  1  0.75000000  0.11823000  0.44674600  1
  Y  Y11  1  0.75000000  0.61823000  0.05325400  1
  Y  Y12  1  0.25000000  0.20785300  0.62544700  1
  Y  Y13  1  0.25000000  0.70785300  0.87455300  1
  Y  Y14  1  0.75000000  0.79214700  0.37455300  1
  Y  Y15  1  0.75000000  0.29214700  0.12544700  1
  Y  Y16  1  0.25000000  0.13854900  0.99738500  1
  Y  Y17  1  0.25000000  0.63854900  0.50261500  1
  Y  Y18  1  0.75000000  0.86145100  0.00261500  1
  Y  Y19  1  0.75000000  0.36145100  0.49738500  1
  Ni  Ni0  1  0.25000000  0.74030900  0.67784200  1
  Ni  Ni1  1  0.25000000  0.24030900  0.82215800  1
  Ni  Ni2  1  0.75000000  0.25969100  0.32215800  1
  Ni  Ni3  1  0.75000000  0.75969100  0.17784200  1
  Ni  Ni4  1  0.25000000  0.24729000  0.43392400  1
  Ni  Ni5  1  0.25000000  0.74729000  0.06607600  1
  Ni  Ni6  1  0.75000000  0.75271000  0.56607600  1
  Ni  Ni7  1  0.75000000  0.25271000  0.93392400  1
  Te  Te0  1  0.25000000  0.96594400  0.37226500  1
  Te  Te1  1  0.25000000  0.46594400  0.12773500  1
  Te  Te2  1  0.75000000  0.03405600  0.62773500  1
  Te  Te3  1  0.75000000  0.53405600  0.87226500  1
  Te  Te4  1  0.25000000  0.95282000  0.87102200  1
  Te  Te5  1  0.25000000  0.45282000  0.62897800  1
  Te  Te6  1  0.75000000  0.04718000  0.12897800  1
  Te  Te7  1  0.75000000  0.54718000  0.37102200  1
loop_
_geom_bond_atom_site_label_1
_geom_bond_atom_site_label_2
_geom_bond_distance
_geom_bond_site_symmetry_2
Ni0 Ni6 2.691859 1_555
Ni0 Ni6 2.691859 1_455
Ni0 Y7 2.723278 1_555
Ni0 Y7 2.723278 1_455
Ni0 Y2 2.758980 1_555
Ni0 Y2 2.758980 1_455
Ni0 Y8 2.839967 1_555
Ni0 Y17 3.137216 1_555
Ni0 Y13 3.145614 1_555
Ni1 Ni7 2.691859 1_455
Ni1 Ni7 2.691859 1_555
Ni1 Y6 2.723278 1_555
Ni1 Y6 2.723278 1_455
Ni1 Y3 2.758980 1_455
Ni1 Y3 2.758980 1_555
Ni1 Y9 2.839967 1_555
Ni1 Y16 3.137216 1_555
Ni1 Y12 3.145614 1_555
Ni2 Ni4 2.691859 1_555
Ni2 Ni4 2.691859 1_655
Ni2 Y5 2.723278 1_555
Ni2 Y5 2.723278 1_655
Ni2 Y0 2.758980 1_655
Ni2 Y0 2.758980 1_555
Ni2 Y10 2.839967 1_555
Ni2 Y19 3.137216 1_555
Ni2 Y15 3.145614 1_555
Ni3 Ni5 2.691859 1_655
Ni3 Ni5 2.691859 1_555
Ni3 Y4 2.723278 1_555
Ni3 Y4 2.723278 1_655
Ni3 Y1 2.758980 1_555
Ni3 Y1 2.758980 1_655
Ni3 Y11 2.839967 1_555
Ni3 Y18 3.137216 1_555
Ni3 Y14 3.145614 1_555
Ni4 Y10 2.759514 1_455
Ni4 Y10 2.759514 1_555
Ni4 Y5 2.792273 1_555
Ni4 Y19 2.796956 1_555
Ni4 Y19 2.796956 1_455
Ni4 Y12 3.081600 1_555
Ni4 Y0 3.100784 1_555
Ni5 Y11 2.759514 1_455
Ni5 Y11 2.759514 1_555
Ni5 Y4 2.792273 1_555
Ni5 Y18 2.796956 1_555
Ni5 Y18 2.796956 1_455
Ni5 Y13 3.081600 1_554
Ni5 Y1 3.100784 1_555
Ni6 Y8 2.759514 1_655
Ni6 Y8 2.759514 1_555
Ni6 Y7 2.792273 1_555
Ni6 Y17 2.796956 1_655
Ni6 Y17 2.796956 1_555
Ni6 Y14 3.081600 1_555
Ni6 Y2 3.100784 1_555
Ni7 Y9 2.759514 1_555
Ni7 Y9 2.759514 1_655
Ni7 Y6 2.792273 1_555
Ni7 Y16 2.796956 1_655
Ni7 Y16 2.796956 1_555
Ni7 Y15 3.081600 1_556
Ni7 Y3 3.100784 1_555
Te0 Y8 3.109910 1_555
Te0 Y4 3.113615 1_555
Te0 Y0 3.199776 1_565
Te0 Y10 3.213600 1_465
Te0 Y10 3.213600 1_565
Te0 Y14 3.226195 1_555
Te0 Y14 3.226195 1_455
Te1 Y9 3.109910 1_554
Te1 Y5 3.113615 1_555
Te1 Y1 3.199776 1_555
Te1 Y11 3.213600 1_455
Te1 Y11 3.213600 1_555
Te1 Y15 3.226195 1_555
Te1 Y15 3.226195 1_455
Te2 Y10 3.109910 1_555
Te2 Y6 3.113615 1_555
Te2 Y2 3.199776 1_545
Te2 Y8 3.213600 1_645
Te2 Y8 3.213600 1_545
Te2 Y12 3.226195 1_655
Te2 Y12 3.226195 1_555
Te3 Y11 3.109910 1_556
Te3 Y7 3.113615 1_555
Te3 Y3 3.199776 1_555
Te3 Y9 3.213600 1_655
Te3 Y9 3.213600 1_555
Te3 Y13 3.226195 1_655
Te3 Y13 3.226195 1_555
Te4 Y18 3.188421 1_556
Te4 Y18 3.188421 1_456
Te4 Y6 3.241267 1_565
Te4 Y6 3.241267 1_465
Te4 Y2 3.245603 1_455
Te4 Y2 3.245603 1_555
Te4 Y16 3.347467 1_565
Te4 Y13 3.542818 1_555
Te5 Y19 3.188421 1_455
Te5 Y19 3.188421 1_555
Te5 Y7 3.241267 1_455
Te5 Y7 3.241267 1_555
Te5 Y3 3.245603 1_455
Te5 Y3 3.245603 1_555
Te5 Y17 3.347467 1_555
Te5 Y12 3.542818 1_555
Te6 Y16 3.188421 1_654
Te6 Y16 3.188421 1_554
Te6 Y4 3.241267 1_645
Te6 Y4 3.241267 1_545
Te6 Y0 3.245603 1_655
Te6 Y0 3.245603 1_555
Te6 Y18 3.347467 1_545
Te6 Y15 3.542818 1_555
Te7 Y17 3.188421 1_655
Te7 Y17 3.188421 1_555
Te7 Y5 3.241267 1_655
Te7 Y5 3.241267 1_555
Te7 Y1 3.245603 1_555
Te7 Y1 3.245603 1_655
Te7 Y19 3.347467 1_555
Te7 Y14 3.542818 1_555
