# generated using pymatgen
data_CeSiPt3
_symmetry_space_group_name_H-M   'P 1'
_cell_length_a   4.07683441
_cell_length_b   4.07683441
_cell_length_c   5.49257428
_cell_angle_alpha   90.00000000
_cell_angle_beta   90.00000000
_cell_angle_gamma   90.00000000
_symmetry_Int_Tables_number   1
_chemical_formula_structural   CeSiPt3
_chemical_formula_sum   'Ce1 Si1 Pt3'
_cell_volume   91.28976367
_cell_formula_units_Z   1
loop_
 _symmetry_equiv_pos_site_id
 _symmetry_equiv_pos_as_xyz
  1  'x, y, z'
loop_
 _atom_site_type_symbol
 _atom_site_label
 _atom_site_symmetry_multiplicity
 _atom_site_fract_x
 _atom_site_fract_y
 _atom_site_fract_z
 _atom_site_occupancy
  Ce  Ce0  1  0.50000000  0.50000000  0.72177710  1
  Si  Si0  1  0.00000000  -0.00000000  0.01082112  1
  Pt  Pt0  1  0.50000000  -0.00000000  0.23775441  1
  Pt  Pt1  1  -0.00000000  0.50000000  0.23775441  1
  Pt  Pt2  1  -0.00000000  0.00000000  0.59229295  1
loop_
_geom_bond_atom_site_label_1
_geom_bond_atom_site_label_2
_geom_bond_distance
_geom_bond_site_symmetry_2
Ce0 Pt2 2.969191 1_565
Ce0 Pt2 2.969191 1_655
Ce0 Pt2 2.969191 1_665
Ce0 Pt2 2.969191 1_555
Pt0 Si0 2.389305 1_655
Pt0 Si0 2.389305 1_555
Pt1 Si0 2.389305 1_555
Pt1 Si0 2.389305 1_565
Pt2 Si0 2.298797 1_556
