# generated using pymatgen
data_Na2Cu(Si2O5)2
_symmetry_space_group_name_H-M   'P 1'
_cell_length_a   7.00289747
_cell_length_b   7.79261567
_cell_length_c   9.92341975
_cell_angle_alpha   102.86269401
_cell_angle_beta   103.06811686
_cell_angle_gamma   114.32530060
_symmetry_Int_Tables_number   1
_chemical_formula_structural   Na2Cu(Si2O5)2
_chemical_formula_sum   'Na4 Cu2 Si8 O20'
_cell_volume   449.23271493
_cell_formula_units_Z   2
loop_
 _symmetry_equiv_pos_site_id
 _symmetry_equiv_pos_as_xyz
  1  'x, y, z'
loop_
 _atom_site_type_symbol
 _atom_site_label
 _atom_site_symmetry_multiplicity
 _atom_site_fract_x
 _atom_site_fract_y
 _atom_site_fract_z
 _atom_site_occupancy
  Na  Na0  1  0.34153200  0.24324000  0.02469200  1
  Na  Na1  1  0.65846800  0.75676000  0.97530800  1
  Na  Na2  1  0.26629700  0.71798700  0.57905000  1
  Na  Na3  1  0.73370300  0.28201300  0.42095000  1
  Cu  Cu0  1  0.76701700  0.72669900  0.57325000  1
  Cu  Cu1  1  0.23298300  0.27330100  0.42675000  1
  Si  Si0  1  0.92935000  0.29486700  0.15012500  1
  Si  Si1  1  0.07065000  0.70513300  0.84987500  1
  Si  Si2  1  0.81683700  0.62128400  0.24910200  1
  Si  Si3  1  0.41321500  0.65775300  0.26435300  1
  Si  Si4  1  0.58678500  0.34224700  0.73564700  1
  Si  Si5  1  0.76937800  0.06502700  0.81143500  1
  Si  Si6  1  0.23062200  0.93497300  0.18856500  1
  Si  Si7  1  0.18316300  0.37871600  0.75089800  1
  O  O0  1  0.81548400  0.10594900  0.99054200  1
  O  O1  1  0.24041200  0.60508300  0.85642600  1
  O  O2  1  0.67076700  0.82740100  0.73419300  1
  O  O3  1  0.32923300  0.17259900  0.26580700  1
  O  O4  1  0.83237800  0.53467900  0.84875200  1
  O  O5  1  0.16762200  0.46532100  0.15124800  1
  O  O6  1  0.88914000  0.64739400  0.42014200  1
  O  O7  1  0.11086000  0.35260600  0.57985800  1
  O  O8  1  0.95082300  0.21842200  0.28619200  1
  O  O9  1  0.04917700  0.78157800  0.71380800  1
  O  O10  1  0.47904400  0.66478200  0.43137100  1
  O  O11  1  0.58160700  0.62622400  0.17960200  1
  O  O12  1  0.58548600  0.13380400  0.74663800  1
  O  O13  1  0.41451400  0.86619600  0.25336200  1
  O  O14  1  0.00837000  0.20805600  0.79855100  1
  O  O15  1  0.99163000  0.79194400  0.20144900  1
  O  O16  1  0.18451600  0.89405100  0.00945800  1
  O  O17  1  0.52095600  0.33521800  0.56862900  1
  O  O18  1  0.41839300  0.37377600  0.82039800  1
  O  O19  1  0.75958800  0.39491700  0.14357400  1
loop_
_geom_bond_atom_site_label_1
_geom_bond_atom_site_label_2
_geom_bond_distance
_geom_bond_site_symmetry_2
Na0 O16 2.431668 1_545
Na0 O19 2.515201 1_555
Na0 O18 2.528817 1_554
Na0 O3 2.583785 1_555
Na0 O11 2.598378 1_555
Na0 O14 2.717696 1_554
Na0 O5 2.741481 1_555
Na1 O0 2.431668 1_565
Na1 O1 2.515201 1_555
Na1 O11 2.528817 1_556
Na1 O2 2.583785 1_555
Na1 O18 2.598378 1_555
Na1 O15 2.717696 1_556
Na1 O4 2.741481 1_555
Na2 O9 2.364490 1_555
Na2 O10 2.401016 1_555
Na2 O6 2.509682 1_455
Na2 O2 2.563984 1_555
Na2 O7 2.598596 1_555
Na2 O12 2.866077 1_565
Na3 O8 2.364490 1_555
Na3 O17 2.401016 1_555
Na3 O7 2.509682 1_655
Na3 O3 2.563984 1_555
Na3 O6 2.598596 1_555
Na3 O13 2.866077 1_545
Cu0 O9 1.955672 1_655
Cu0 O10 1.973290 1_555
Cu0 O2 1.996351 1_555
Cu0 O6 2.006666 1_555
Cu1 O8 1.955672 1_455
Cu1 O17 1.973290 1_555
Cu1 O3 1.996351 1_555
Cu1 O7 2.006666 1_555
O0 Si0 1.653725 1_556
O0 Si5 1.663804 1_555
O1 Si7 1.665561 1_555
O1 Si1 1.666311 1_555
O2 Si5 1.602663 1_565
O3 Si6 1.602663 1_545
O4 Si1 1.645524 1_655
O4 Si4 1.649045 1_555
O5 Si0 1.645524 1_455
O5 Si3 1.649045 1_555
O6 Si2 1.597291 1_555
O7 Si7 1.597291 1_555
O8 Si0 1.593974 1_555
O9 Si1 1.593974 1_555
O10 Si3 1.598662 1_555
O11 Si2 1.655598 1_555
O11 Si3 1.659352 1_555
O12 Si5 1.645190 1_555
O12 Si4 1.648495 1_555
O13 Si6 1.645190 1_555
O13 Si3 1.648495 1_555
O14 Si5 1.638022 1_455
O14 Si7 1.640489 1_555
O15 Si6 1.638022 1_655
O15 Si2 1.640489 1_555
O16 Si1 1.653725 1_554
O16 Si6 1.663804 1_555
O17 Si4 1.598662 1_555
O18 Si7 1.655598 1_555
O18 Si4 1.659352 1_555
O19 Si2 1.665561 1_555
O19 Si0 1.666311 1_555
