# generated using pymatgen
data_LaMg14Fe
_symmetry_space_group_name_H-M   'P 1'
_cell_length_a   6.54432961
_cell_length_b   6.54432909
_cell_length_c   10.32335100
_cell_angle_alpha   90.00000000
_cell_angle_beta   90.00000000
_cell_angle_gamma   120.00000268
_symmetry_Int_Tables_number   1
_chemical_formula_structural   LaMg14Fe
_chemical_formula_sum   'La1 Mg14 Fe1'
_cell_volume   382.89668723
_cell_formula_units_Z   1
loop_
 _symmetry_equiv_pos_site_id
 _symmetry_equiv_pos_as_xyz
  1  'x, y, z'
loop_
 _atom_site_type_symbol
 _atom_site_label
 _atom_site_symmetry_multiplicity
 _atom_site_fract_x
 _atom_site_fract_y
 _atom_site_fract_z
 _atom_site_occupancy
  La  La0  1  0.16666700  0.33333300  0.62500000  1
  Mg  Mg0  1  0.15054917  0.82527409  0.12500000  1
  Mg  Mg1  1  0.18465561  0.84232730  0.62500000  1
  Mg  Mg2  1  0.67472591  0.34945083  0.12500000  1
  Mg  Mg3  1  0.65767270  0.31534439  0.62500000  1
  Mg  Mg4  1  0.67472591  0.82527409  0.12500000  1
  Mg  Mg5  1  0.65767270  0.84232730  0.62500000  1
  Mg  Mg6  1  0.32512713  0.17487287  0.34546782  1
  Mg  Mg7  1  0.32512713  0.17487287  0.90453218  1
  Mg  Mg8  1  0.32512713  0.65025526  0.34546782  1
  Mg  Mg9  1  0.32512713  0.65025526  0.90453218  1
  Mg  Mg10  1  0.84974474  0.17487287  0.34546782  1
  Mg  Mg11  1  0.84974474  0.17487287  0.90453218  1
  Mg  Mg12  1  0.83333300  0.66666700  0.38842576  1
  Mg  Mg13  1  0.83333300  0.66666700  0.86157424  1
  Fe  Fe0  1  0.16666700  0.33333300  0.12500000  1
loop_
_geom_bond_atom_site_label_1
_geom_bond_atom_site_label_2
_geom_bond_distance
_geom_bond_site_symmetry_2
La0 Mg1 3.273752 1_555
La0 Mg5 3.273752 1_555
La0 Mg5 3.273752 1_445
La0 Mg1 3.273752 1_545
La0 Mg3 3.273753 1_455
La0 Mg3 3.273753 1_555
La0 Mg7 3.399047 1_555
La0 Mg6 3.399047 1_555
La0 Mg8 3.399052 1_555
La0 Mg9 3.399052 1_555
La0 Mg11 3.399053 1_455
La0 Mg10 3.399053 1_455
Mg0 Mg9 3.017584 1_554
Mg0 Mg8 3.017584 1_555
Mg0 Mg6 3.017591 1_565
Mg0 Mg7 3.017591 1_564
Mg0 Mg2 3.113944 1_455
Mg0 Mg4 3.113944 1_455
Mg0 Mg13 3.259995 1_454
Mg0 Mg12 3.259995 1_455
Mg0 Mg2 3.430385 1_565
Mg0 Mg4 3.430385 1_555
Mg1 Mg3 3.095579 1_565
Mg1 Mg5 3.095580 1_555
Mg1 Mg12 3.151059 1_455
Mg1 Mg13 3.151059 1_455
Mg1 Mg3 3.448750 1_455
Mg1 Mg5 3.448750 1_455
Mg1 Mg9 3.450790 1_555
Mg1 Mg8 3.450790 1_555
Mg1 Mg7 3.450797 1_565
Mg1 Mg6 3.450797 1_565
Mg2 Mg7 3.017591 1_554
Mg2 Mg6 3.017591 1_555
Mg2 Mg4 3.113944 1_555
Mg2 Mg4 3.430385 1_545
Mg3 Mg5 3.095580 1_545
Mg3 Mg5 3.448750 1_555
Mg3 Mg6 3.450797 1_555
Mg3 Mg7 3.450797 1_555
Mg4 Mg8 3.017591 1_555
Mg4 Mg9 3.017591 1_554
Mg5 Mg8 3.450796 1_555
Mg5 Mg9 3.450796 1_555
Mg6 Mg8 3.111059 1_555
Mg6 Mg8 3.433270 1_545
Mg7 Mg9 3.111059 1_555
Mg7 Mg9 3.433270 1_545
Mg10 Mg2 3.017584 1_555
Mg10 Mg4 3.017591 1_545
Mg10 Mg8 3.111059 1_655
Mg10 Mg6 3.111059 1_655
Mg10 Mg12 3.303389 1_545
Mg10 Mg12 3.303389 1_555
Mg10 Mg8 3.433270 1_545
Mg10 Mg6 3.433271 1_555
Mg10 Mg3 3.450790 1_555
Mg10 Mg5 3.450796 1_545
Mg11 Mg2 3.017584 1_556
Mg11 Mg4 3.017591 1_546
Mg11 Mg9 3.111059 1_655
Mg11 Mg7 3.111059 1_655
Mg11 Mg13 3.303389 1_545
Mg11 Mg13 3.303389 1_555
Mg11 Mg9 3.433270 1_545
Mg11 Mg7 3.433271 1_555
Mg11 Mg3 3.450790 1_555
Mg11 Mg5 3.450796 1_545
Mg12 Mg5 3.151052 1_555
Mg12 Mg3 3.151059 1_555
Mg12 Mg4 3.259988 1_555
Mg12 Mg2 3.259995 1_555
Mg12 Mg6 3.303389 1_665
Mg12 Mg6 3.303389 1_555
Mg12 Mg8 3.303389 1_555
Mg12 Mg8 3.303389 1_655
Mg13 Mg5 3.151052 1_555
Mg13 Mg3 3.151059 1_555
Mg13 Mg4 3.259988 1_556
Mg13 Mg2 3.259995 1_556
Mg13 Mg7 3.303389 1_665
Mg13 Mg7 3.303389 1_555
Mg13 Mg9 3.303389 1_555
Mg13 Mg9 3.303389 1_655
Fe0 Mg7 2.899349 1_554
Fe0 Mg6 2.899349 1_555
Fe0 Mg9 2.899356 1_554
Fe0 Mg8 2.899356 1_555
Fe0 Mg10 2.899356 1_455
Fe0 Mg11 2.899356 1_454
Fe0 Mg0 3.273439 1_545
Fe0 Mg4 3.273439 1_445
Fe0 Mg4 3.273439 1_555
Fe0 Mg0 3.273439 1_555
Fe0 Mg2 3.273440 1_555
Fe0 Mg2 3.273440 1_455
