# generated using pymatgen
data_Mg5Si6
_symmetry_space_group_name_H-M   'P 1'
_cell_length_a   4.92751000
_cell_length_b   6.47295399
_cell_length_c   13.84898150
_cell_angle_alpha   87.66251412
_cell_angle_beta   80.48216463
_cell_angle_gamma   80.83496540
_symmetry_Int_Tables_number   1
_chemical_formula_structural   Mg5Si6
_chemical_formula_sum   'Mg10 Si12'
_cell_volume   430.03128024
_cell_formula_units_Z   2
loop_
 _symmetry_equiv_pos_site_id
 _symmetry_equiv_pos_as_xyz
  1  'x, y, z'
loop_
 _atom_site_type_symbol
 _atom_site_label
 _atom_site_symmetry_multiplicity
 _atom_site_fract_x
 _atom_site_fract_y
 _atom_site_fract_z
 _atom_site_occupancy
  Mg  Mg0  1  0.81441100  0.00006200  0.00148100  1
  Mg  Mg1  1  0.94346000  0.56775000  0.52781200  1
  Mg  Mg2  1  0.21285900  0.13100300  0.40165100  1
  Mg  Mg3  1  0.94824800  0.07041500  0.63375500  1
  Mg  Mg4  1  0.41287800  0.79832300  0.90774600  1
  Mg  Mg5  1  0.16062700  0.28845500  0.08098600  1
  Mg  Mg6  1  0.50895100  0.62481000  0.36627000  1
  Mg  Mg7  1  0.44204000  0.31825300  0.57436300  1
  Mg  Mg8  1  0.50110800  0.30331400  0.86374300  1
  Mg  Mg9  1  0.34318700  0.79131300  0.14484000  1
  Si  Si0  1  0.62924200  0.45293900  0.03979900  1
  Si  Si1  1  0.95160700  0.60817200  0.91866300  1
  Si  Si2  1  0.38863000  0.75744000  0.56328400  1
  Si  Si3  1  0.69963800  0.97043000  0.46783800  1
  Si  Si4  1  0.77132200  0.98862100  0.19687100  1
  Si  Si5  1  0.05668000  0.15035700  0.82332800  1
  Si  Si6  1  0.53146300  0.60370700  0.71695200  1
  Si  Si7  1  0.07870500  0.43787700  0.27433800  1
  Si  Si8  1  0.64578200  0.36013200  0.21491900  1
  Si  Si9  1  0.02697800  0.49736700  0.74857300  1
  Si  Si10  1  0.43827200  0.97872700  0.71257700  1
  Si  Si11  1  0.99380500  0.80432100  0.32373100  1
loop_
_geom_bond_atom_site_label_1
_geom_bond_atom_site_label_2
_geom_bond_distance
_geom_bond_site_symmetry_2
Mg0 Si4 2.677948 1_545
Mg0 Si1 2.764397 1_544
Mg0 Si5 2.767479 1_654
Mg0 Si0 2.970226 1_555
Mg1 Si2 2.785502 1_555
Mg1 Si2 2.797199 1_655
Mg1 Si3 2.843085 1_555
Mg1 Si6 3.029422 1_555
Mg1 Si11 3.151288 1_555
Mg1 Si9 3.157031 1_655
Mg2 Si7 2.678223 1_555
Mg2 Si3 2.743909 1_545
Mg2 Si11 2.845968 1_445
Mg2 Si3 2.882510 1_445
Mg3 Si10 2.715444 1_545
Mg3 Si10 2.781446 1_645
Mg3 Si2 2.797494 1_645
Mg3 Si5 2.847582 1_655
Mg3 Si3 2.916183 1_545
Mg4 Si1 2.732462 1_455
Mg4 Si1 2.767921 1_555
Mg4 Si10 2.891738 1_555
Mg4 Si6 2.904577 1_555
Mg4 Si5 2.971047 1_565
Mg4 Si0 3.005214 1_556
Mg5 Si0 2.662509 1_555
Mg5 Si0 2.805582 1_455
Mg5 Si7 2.828087 1_555
Mg5 Si8 2.868909 1_455
Mg5 Si4 3.152158 1_445
Mg5 Si1 3.178746 1_454
Mg6 Si8 2.690883 1_555
Mg6 Si11 2.764011 1_455
Mg6 Si11 2.787144 1_555
Mg6 Si2 2.833179 1_555
Mg6 Si7 2.971258 1_655
Mg6 Si3 3.038064 1_555
Mg6 Si7 3.068409 1_555
Mg7 Si3 2.756419 1_545
Mg7 Si2 2.813177 1_555
Mg7 Si10 2.855233 1_545
Mg7 Si6 2.890070 1_555
Mg7 Si9 3.031317 1_555
Mg8 Si5 2.688970 1_555
Mg8 Si5 2.731842 1_655
Mg8 Si6 2.757814 1_555
Mg8 Si0 2.859719 1_556
Mg8 Si1 3.089220 1_455
Mg8 Si10 3.110198 1_545
Mg8 Si9 3.116736 1_555
Mg9 Si0 2.738361 1_555
Mg9 Si11 2.769305 1_455
Mg9 Si4 2.834972 1_555
Mg9 Si4 2.889272 1_455
Mg9 Si8 3.144329 1_555
Mg9 Si7 3.160828 1_555
Si0 Si1 2.415967 1_554
Si0 Si8 2.486003 1_555
Si1 Si9 2.442279 1_655
Si2 Si3 2.418884 1_555
Si2 Si6 2.472666 1_555
Si4 Si8 2.398351 1_565
Si5 Si9 2.427807 1_555
Si6 Si9 2.533947 1_655
Si6 Si9 2.646797 1_555
Si7 Si8 2.537199 1_455
Si7 Si8 2.750234 1_555
Si10 Si5 2.375298 1_565
Si10 Si6 2.397777 1_555
Si10 Si2 2.628076 1_555
Si11 Si4 2.400213 1_555
Si11 Si3 2.441720 1_555
Si11 Si7 2.447611 1_655
