# generated using pymatgen
data_Be2Mo
_symmetry_space_group_name_H-M   'P 1'
_cell_length_a   4.44186247
_cell_length_b   4.44186290
_cell_length_c   7.28928699
_cell_angle_alpha   90.00000000
_cell_angle_beta   90.00000000
_cell_angle_gamma   119.99969850
_symmetry_Int_Tables_number   1
_chemical_formula_structural   Be2Mo
_chemical_formula_sum   'Be8 Mo4'
_cell_volume   124.55101112
_cell_formula_units_Z   4
loop_
 _symmetry_equiv_pos_site_id
 _symmetry_equiv_pos_as_xyz
  1  'x, y, z'
loop_
 _atom_site_type_symbol
 _atom_site_label
 _atom_site_symmetry_multiplicity
 _atom_site_fract_x
 _atom_site_fract_y
 _atom_site_fract_z
 _atom_site_occupancy
  Be  Be0  1  -0.00000000  0.00000000  -0.00000000  1
  Be  Be1  1  -0.00000000  0.00000000  0.50000000  1
  Be  Be2  1  0.83029015  0.66058294  0.25000000  1
  Be  Be3  1  0.16970805  0.83029195  0.75000000  1
  Be  Be4  1  0.66058294  0.83029015  0.75000000  1
  Be  Be5  1  0.33941706  0.16970985  0.25000000  1
  Be  Be6  1  0.83029195  0.16970805  0.25000000  1
  Be  Be7  1  0.16970985  0.33941706  0.75000000  1
  Mo  Mo0  1  0.33333380  0.66666620  0.06302172  1
  Mo  Mo1  1  0.66666620  0.33333380  0.56302072  1
  Mo  Mo2  1  0.66666620  0.33333380  0.93697828  1
  Mo  Mo3  1  0.33333380  0.66666620  0.43697928  1
loop_
_geom_bond_atom_site_label_1
_geom_bond_atom_site_label_2
_geom_bond_distance
_geom_bond_site_symmetry_2
Be0 Be6 2.241782 1_455
Be0 Be3 2.241782 1_544
Be0 Be5 2.241787 1_555
Be0 Be4 2.241787 1_444
Be0 Be7 2.241787 1_554
Be0 Be2 2.241787 1_445
Be0 Mo0 2.605330 1_545
Be0 Mo2 2.605330 1_454
Be0 Mo2 2.605336 1_554
Be0 Mo0 2.605336 1_445
Be0 Mo0 2.605337 1_555
Be0 Mo2 2.605337 1_444
Be1 Be6 2.241782 1_455
Be1 Be3 2.241782 1_545
Be1 Be5 2.241787 1_555
Be1 Be4 2.241787 1_445
Be1 Be7 2.241787 1_555
Be1 Be2 2.241787 1_445
Be1 Mo1 2.605329 1_455
Be1 Mo3 2.605329 1_545
Be1 Mo1 2.605335 1_555
Be1 Mo3 2.605335 1_445
Be1 Mo3 2.605335 1_555
Be1 Mo1 2.605335 1_445
Be2 Be5 2.180401 1_555
Be2 Be6 2.180403 1_555
Be2 Be6 2.261460 1_565
Be2 Be5 2.261482 1_665
Be2 Mo0 2.605886 1_555
Be2 Mo3 2.605890 1_555
Be2 Mo0 2.605902 1_655
Be2 Mo3 2.605906 1_655
Be2 Mo1 2.605928 1_555
Be2 Mo2 2.605934 1_554
Be3 Be4 2.180403 1_555
Be3 Be7 2.180403 1_555
Be3 Be4 2.261460 1_455
Be3 Be7 2.261460 1_565
Be3 Mo2 2.605903 1_455
Be3 Mo2 2.605903 1_565
Be3 Mo1 2.605907 1_455
Be3 Mo1 2.605907 1_565
Be3 Mo3 2.605930 1_555
Be3 Mo0 2.605936 1_556
Be4 Be7 2.180401 1_555
Be4 Be7 2.261482 1_665
Be4 Mo2 2.605887 1_555
Be4 Mo1 2.605890 1_555
Be4 Mo2 2.605902 1_565
Be4 Mo1 2.605906 1_565
Be4 Mo3 2.605928 1_555
Be4 Mo0 2.605934 1_556
Be5 Be6 2.180403 1_555
Be5 Be6 2.261460 1_455
Be5 Mo0 2.605887 1_555
Be5 Mo3 2.605890 1_555
Be5 Mo0 2.605902 1_545
Be5 Mo3 2.605906 1_545
Be5 Mo1 2.605928 1_555
Be5 Mo2 2.605934 1_554
Be6 Mo0 2.605903 1_655
Be6 Mo0 2.605903 1_545
Be6 Mo3 2.605907 1_655
Be6 Mo3 2.605907 1_545
Be6 Mo1 2.605930 1_555
Be6 Mo2 2.605936 1_554
Be7 Mo2 2.605886 1_555
Be7 Mo1 2.605890 1_555
Be7 Mo2 2.605902 1_455
Be7 Mo1 2.605906 1_455
Be7 Mo3 2.605928 1_555
Be7 Mo0 2.605934 1_556
Mo0 Mo2 2.724113 1_554
Mo0 Mo2 2.724134 1_454
Mo0 Mo2 2.724134 1_564
Mo0 Mo3 2.725884 1_555
Mo1 Mo3 2.724108 1_555
Mo1 Mo3 2.724129 1_655
Mo1 Mo3 2.724129 1_545
Mo1 Mo2 2.725884 1_555
