# generated using pymatgen
data_Li3VN2
_symmetry_space_group_name_H-M   'P 1'
_cell_length_a   7.68263677
_cell_length_b   7.22414844
_cell_length_c   11.47671548
_cell_angle_alpha   89.99999575
_cell_angle_beta   138.32475814
_cell_angle_gamma   118.04473420
_symmetry_Int_Tables_number   1
_chemical_formula_structural   Li3VN2
_chemical_formula_sum   'Li12 V4 N8'
_cell_volume   299.47522592
_cell_formula_units_Z   4
loop_
 _symmetry_equiv_pos_site_id
 _symmetry_equiv_pos_as_xyz
  1  'x, y, z'
loop_
 _atom_site_type_symbol
 _atom_site_label
 _atom_site_symmetry_multiplicity
 _atom_site_fract_x
 _atom_site_fract_y
 _atom_site_fract_z
 _atom_site_occupancy
  Li  Li0  1  0.00000000  0.50000000  0.37364800  1
  Li  Li1  1  0.00000000  0.00000000  0.87635200  1
  Li  Li2  1  0.00000000  0.50000000  0.12635200  1
  Li  Li3  1  0.00000000  0.00000000  0.12364800  1
  Li  Li4  1  0.51326700  0.50000000  0.50663400  1
  Li  Li5  1  0.48673300  0.50000000  0.99336600  1
  Li  Li6  1  0.51326700  0.00000000  0.25663400  1
  Li  Li7  1  0.48673300  0.00000000  0.74336600  1
  Li  Li8  1  0.48673300  0.98673300  0.99336600  1
  Li  Li9  1  0.51326700  0.01326700  0.50663400  1
  Li  Li10  1  0.48673300  0.48673300  0.74336600  1
  Li  Li11  1  0.51326700  0.51326700  0.25663400  1
  V  V0  1  0.00000000  0.50000000  0.61565000  1
  V  V1  1  0.00000000  0.00000000  0.63435000  1
  V  V2  1  0.00000000  0.50000000  0.88435000  1
  V  V3  1  0.00000000  0.00000000  0.36565000  1
  N  N0  1  0.39667700  0.69833900  0.73278500  1
  N  N1  1  0.60332300  0.30166100  0.33610900  1
  N  N2  1  0.39667700  0.19833900  0.91389100  1
  N  N3  1  0.60332300  0.80166100  0.51721500  1
  N  N4  1  0.00000000  0.30166100  0.96555300  1
  N  N5  1  0.00000000  0.69833900  0.96555300  1
  N  N6  1  0.00000000  0.80166100  0.28444700  1
  N  N7  1  0.00000000  0.19833900  0.28444700  1
loop_
_geom_bond_atom_site_label_1
_geom_bond_atom_site_label_2
_geom_bond_distance
_geom_bond_site_symmetry_2
Li0 N0 2.336372 1_555
Li0 N1 2.336381 1_455
Li0 N6 2.407724 1_555
Li0 N7 2.407724 1_555
Li1 N3 2.336372 1_445
Li1 N2 2.336381 1_555
Li1 N5 2.407724 1_545
Li1 N4 2.407724 1_555
Li2 N5 2.336379 1_554
Li2 N4 2.336379 1_554
Li2 N2 2.407725 1_454
Li2 N3 2.407730 1_555
Li3 N6 2.336379 1_545
Li3 N7 2.336379 1_555
Li3 N1 2.407725 1_555
Li3 N0 2.407730 1_444
Li4 N3 1.923344 1_555
Li4 N7 1.923346 1_555
Li5 N2 1.923345 1_555
Li5 N6 1.923348 1_656
Li6 N1 1.923345 1_555
Li6 N5 1.923348 1_544
Li7 N0 1.923344 1_545
Li7 N4 1.923346 1_655
Li8 N7 1.923348 1_666
Li8 N2 1.923351 1_565
Li9 N6 1.923346 1_545
Li9 N3 1.923351 1_545
Li10 N5 1.923346 1_655
Li10 N0 1.923351 1_555
Li11 N4 1.923348 1_554
Li11 N1 1.923351 1_555
N0 V0 1.709246 1_555
N1 V0 1.709240 1_655
N2 V1 1.709240 1_555
N3 V1 1.709246 1_665
N4 V2 1.709246 1_555
N5 V2 1.709246 1_555
N6 V3 1.709246 1_565
N7 V3 1.709246 1_555
