# generated using pymatgen
data_Li2MnO2F
_symmetry_space_group_name_H-M   'P 1'
_cell_length_a   5.12204152
_cell_length_b   8.26547716
_cell_length_c   5.66907922
_cell_angle_alpha   100.02940340
_cell_angle_beta   73.67926191
_cell_angle_gamma   97.04589166
_symmetry_Int_Tables_number   1
_chemical_formula_structural   Li2MnO2F
_chemical_formula_sum   'Li8 Mn4 O8 F4'
_cell_volume   226.12428801
_cell_formula_units_Z   4
loop_
 _symmetry_equiv_pos_site_id
 _symmetry_equiv_pos_as_xyz
  1  'x, y, z'
loop_
 _atom_site_type_symbol
 _atom_site_label
 _atom_site_symmetry_multiplicity
 _atom_site_fract_x
 _atom_site_fract_y
 _atom_site_fract_z
 _atom_site_occupancy
  Li  Li0  1  0.97815300  0.33210700  0.08861500  1
  Li  Li1  1  0.47780800  0.83205000  0.08855700  1
  Li  Li2  1  0.99120400  0.34527600  0.58839200  1
  Li  Li3  1  0.49059300  0.84484200  0.58873500  1
  Li  Li4  1  0.50891200  0.15481600  0.41133900  1
  Li  Li5  1  0.00935300  0.65511200  0.41131200  1
  Li  Li6  1  0.52199300  0.16791700  0.91138900  1
  Li  Li7  1  0.02201500  0.66791500  0.91120800  1
  Mn  Mn0  1  0.99913000  0.99951900  0.75020300  1
  Mn  Mn1  1  0.50104000  0.50058500  0.24987500  1
  Mn  Mn2  1  0.49953600  0.49923900  0.75000600  1
  Mn  Mn3  1  0.00052800  0.00058800  0.25022200  1
  O  O0  1  0.73190900  0.42677100  0.42291000  1
  O  O1  1  0.23155000  0.92664400  0.42304100  1
  O  O2  1  0.72597100  0.42084100  0.92274400  1
  O  O3  1  0.22562800  0.92078000  0.92304600  1
  O  O4  1  0.77409100  0.07924100  0.07726100  1
  O  O5  1  0.27424500  0.57914600  0.07710700  1
  O  O6  1  0.76806400  0.07325900  0.57725900  1
  O  O7  1  0.26838000  0.57335600  0.57697200  1
  F  F0  1  0.24992100  0.24996300  0.74993300  1
  F  F1  1  0.74981900  0.74996100  0.75001400  1
  F  F2  1  0.25011900  0.25003600  0.24994000  1
  F  F3  1  0.75003800  0.75003600  0.24992000  1
loop_
_geom_bond_atom_site_label_1
_geom_bond_atom_site_label_2
_geom_bond_distance
_geom_bond_site_symmetry_2
Li0 O0 2.043724 1_555
Li0 O2 2.060555 1_554
Li0 O4 2.218102 1_555
Li0 O5 2.388457 1_655
Li1 O1 2.044318 1_555
Li1 O3 2.059113 1_554
Li1 O5 2.217449 1_555
Li1 O4 2.389954 1_565
Li2 O2 2.043789 1_555
Li2 O0 2.058533 1_555
Li2 O7 2.215390 1_655
Li2 O6 2.392916 1_555
Li3 O3 2.043721 1_555
Li3 O1 2.059551 1_555
Li3 O6 2.218353 1_565
Li3 O7 2.387306 1_555
Li4 O4 2.042618 1_555
Li4 O6 2.059910 1_555
Li4 O1 2.216480 1_545
Li4 O0 2.392190 1_555
Li5 O5 2.043196 1_555
Li5 O7 2.059166 1_555
Li5 O0 2.217790 1_455
Li5 O1 2.387610 1_555
Li6 O6 2.042709 1_555
Li6 O4 2.059969 1_556
Li6 O2 2.218367 1_555
Li6 O3 2.389819 1_545
Li7 O7 2.043487 1_555
Li7 O5 2.061009 1_556
Li7 O3 2.217253 1_555
Li7 O2 2.388555 1_455
Mn0 O4 1.939129 1_566
Mn0 O1 1.940574 1_655
Mn0 O6 1.941841 1_565
Mn0 O3 1.943152 1_655
Mn1 O2 1.939273 1_554
Mn1 O7 1.940588 1_555
Mn1 O0 1.941713 1_555
Mn1 O5 1.943299 1_555
Mn2 O0 1.939474 1_555
Mn2 O5 1.940158 1_556
Mn2 O2 1.941069 1_555
Mn2 O7 1.944065 1_555
Mn3 O6 1.939774 1_455
Mn3 O3 1.939907 1_544
Mn3 O1 1.941949 1_545
Mn3 O4 1.943044 1_455
F0 Li0 2.088257 1_456
F0 Li4 2.088495 1_555
F0 Li6 2.098721 1_555
F0 Li2 2.098767 1_455
F0 Mn2 2.287703 1_555
F0 Mn0 2.298437 1_445
F1 Li1 2.088170 1_556
F1 Li5 2.089362 1_655
F1 Li3 2.097960 1_555
F1 Li7 2.098237 1_655
F1 Mn0 2.288945 1_555
F1 Mn2 2.299184 1_555
F2 Li6 2.087947 1_554
F2 Li2 2.088013 1_455
F2 Li0 2.097867 1_455
F2 Li4 2.098125 1_555
F2 Mn3 2.288831 1_555
F2 Mn1 2.299457 1_555
F3 Li7 2.088804 1_654
F3 Li3 2.089498 1_555
F3 Li1 2.098904 1_555
F3 Li5 2.098948 1_655
F3 Mn1 2.287492 1_555
F3 Mn3 2.298489 1_665
