# generated using pymatgen
data_BaSrCeTiO6
_symmetry_space_group_name_H-M   'P 1'
_cell_length_a   8.38334749
_cell_length_b   8.39832642
_cell_length_c   8.42752912
_cell_angle_alpha   90.00000000
_cell_angle_beta   90.00000000
_cell_angle_gamma   90.00000000
_symmetry_Int_Tables_number   1
_chemical_formula_structural   BaSrCeTiO6
_chemical_formula_sum   'Ba4 Sr4 Ce4 Ti4 O24'
_cell_volume   593.34936286
_cell_formula_units_Z   4
loop_
 _symmetry_equiv_pos_site_id
 _symmetry_equiv_pos_as_xyz
  1  'x, y, z'
loop_
 _atom_site_type_symbol
 _atom_site_label
 _atom_site_symmetry_multiplicity
 _atom_site_fract_x
 _atom_site_fract_y
 _atom_site_fract_z
 _atom_site_occupancy
  Ba  Ba0  1  0.00000000  -0.00000000  -0.00000000  1
  Ba  Ba1  1  0.50000000  0.50000000  0.50000000  1
  Ba  Ba2  1  0.50000000  -0.00000000  -0.00000000  1
  Ba  Ba3  1  -0.00000000  -0.00000000  0.50000000  1
  Sr  Sr0  1  0.00000000  0.50000000  0.50000000  1
  Sr  Sr1  1  0.50000000  -0.00000000  0.50000000  1
  Sr  Sr2  1  0.50000000  0.50000000  -0.00000000  1
  Sr  Sr3  1  -0.00000000  0.50000000  -0.00000000  1
  Ce  Ce0  1  0.74940398  0.74676112  0.74981685  1
  Ce  Ce1  1  0.25059602  0.25323888  0.74981685  1
  Ce  Ce2  1  0.25059602  0.74676112  0.25018315  1
  Ce  Ce3  1  0.74940398  0.25323888  0.25018315  1
  Ti  Ti0  1  0.25000467  0.25410806  0.25092466  1
  Ti  Ti1  1  0.74999533  0.74589194  0.25092466  1
  Ti  Ti2  1  0.74999533  0.25410806  0.74907534  1
  Ti  Ti3  1  0.25000467  0.74589194  0.74907534  1
  O  O0  1  0.01484929  0.23597063  0.26935057  1
  O  O1  1  0.98515071  0.76402937  0.26935057  1
  O  O2  1  0.98515071  0.23597063  0.73064943  1
  O  O3  1  0.01484929  0.76402937  0.73064943  1
  O  O4  1  0.26684624  0.01644997  0.23357992  1
  O  O5  1  0.26684624  0.98355003  0.76642008  1
  O  O6  1  0.73315376  0.98355003  0.23357992  1
  O  O7  1  0.73315376  0.01644997  0.76642008  1
  O  O8  1  0.22726477  0.27636883  0.01475873  1
  O  O9  1  0.77273523  0.27636883  0.98524127  1
  O  O10  1  0.22726477  0.72363117  0.98524127  1
  O  O11  1  0.77273523  0.72363117  0.01475873  1
  O  O12  1  0.48426626  0.27884175  0.22342680  1
  O  O13  1  0.51573374  0.72115825  0.22342680  1
  O  O14  1  0.51573374  0.27884175  0.77657320  1
  O  O15  1  0.48426626  0.72115825  0.77657320  1
  O  O16  1  0.22392823  0.48600350  0.27838684  1
  O  O17  1  0.22392823  0.51399650  0.72161316  1
  O  O18  1  0.77607177  0.51399650  0.27838684  1
  O  O19  1  0.77607177  0.48600350  0.72161316  1
  O  O20  1  0.27872519  0.22795651  0.48495603  1
  O  O21  1  0.72127481  0.22795651  0.51504397  1
  O  O22  1  0.27872519  0.77204349  0.51504397  1
  O  O23  1  0.72127481  0.77204349  0.48495603  1
loop_
_geom_bond_atom_site_label_1
_geom_bond_atom_site_label_2
_geom_bond_distance
_geom_bond_site_symmetry_2
Ba0 O7 2.983043 1_454
Ba0 O6 2.983043 1_445
Ba0 O4 2.983043 1_555
Ba0 O5 2.983043 1_544
Ba0 O10 3.005431 1_544
Ba0 O9 3.005431 1_454
Ba0 O8 3.005431 1_555
Ba0 O11 3.005431 1_445
Ba0 O2 3.015888 1_454
Ba0 O3 3.015888 1_544
Ba0 O1 3.015888 1_445
Ba0 O0 3.015888 1_555
Ba1 O22 2.945689 1_555
Ba1 O20 2.945689 1_555
Ba1 O21 2.945689 1_555
Ba1 O23 2.945689 1_555
Ba1 O16 2.976308 1_555
Ba1 O17 2.976308 1_555
Ba1 O18 2.976308 1_555
Ba1 O19 2.976308 1_555
Ba1 O15 2.983277 1_555
Ba1 O14 2.983277 1_555
Ba1 O12 2.983277 1_555
Ba1 O13 2.983277 1_555
Ba2 O4 2.777513 1_555
Ba2 O6 2.777513 1_545
Ba2 O7 2.777513 1_554
Ba2 O5 2.777513 1_544
Ba2 O15 3.007805 1_544
Ba2 O13 3.007805 1_545
Ba2 O12 3.007805 1_555
Ba2 O14 3.007805 1_554
Ba2 O8 3.260438 1_555
Ba2 O11 3.260438 1_545
Ba2 O10 3.260438 1_544
Ba2 O9 3.260438 1_554
Ba3 O3 2.778712 1_545
Ba3 O1 2.778712 1_445
Ba3 O0 2.778712 1_555
Ba3 O2 2.778712 1_455
Ba3 O23 3.023432 1_445
Ba3 O20 3.023432 1_555
Ba3 O22 3.023432 1_545
Ba3 O21 3.023432 1_455
Ba3 O7 3.172499 1_455
Ba3 O5 3.172499 1_545
Ba3 O4 3.172499 1_555
Ba3 O6 3.172499 1_445
Ce0 O19 2.214105 1_555
Ce0 O3 2.235884 1_655
Ce0 O15 2.244473 1_555
Ce0 O11 2.249758 1_556
Ce0 O23 2.254565 1_555
Ce0 O7 2.273339 1_565
Ce1 O17 2.214105 1_555
Ce1 O2 2.235884 1_455
Ce1 O14 2.244473 1_555
Ce1 O8 2.249758 1_556
Ce1 O20 2.254565 1_555
Ce1 O5 2.273339 1_545
Ce2 O16 2.214105 1_555
Ce2 O1 2.235884 1_455
Ce2 O13 2.244473 1_555
Ce2 O10 2.249758 1_554
Ce2 O22 2.254565 1_555
Ce2 O4 2.273339 1_565
Ce3 O18 2.214105 1_555
Ce3 O0 2.235884 1_655
Ce3 O12 2.244473 1_555
Ce3 O9 2.249758 1_554
Ce3 O21 2.254565 1_555
Ce3 O6 2.273339 1_545
O0 Ti0 1.983354 1_555
O0 Sr0 2.951399 1_555
O0 Sr3 3.175704 1_555
O1 Ti1 1.983354 1_555
O1 Sr0 2.951399 1_655
O1 Sr3 3.175704 1_655
O2 Ti2 1.983354 1_555
O2 Sr0 2.951399 1_655
O2 Sr3 3.175704 1_656
O3 Ti3 1.983354 1_555
O3 Sr0 2.951399 1_555
O3 Sr3 3.175704 1_556
O4 Ti0 2.006250 1_555
O4 Sr1 2.980065 1_555
O5 Ti3 2.006250 1_555
O5 Sr1 2.980065 1_565
O6 Ti1 2.006250 1_555
O6 Sr1 2.980065 1_565
O7 Ti2 2.006250 1_555
O7 Sr1 2.980065 1_555
O8 Ti0 2.008126 1_555
O8 Sr3 2.678203 1_555
O8 Sr2 2.961522 1_555
O9 Ti2 2.008126 1_555
O9 Sr3 2.678203 1_656
O9 Sr2 2.961522 1_556
O10 Ti3 2.008126 1_555
O10 Sr3 2.678203 1_556
O10 Sr2 2.961522 1_556
O11 Ti1 2.008126 1_555
O11 Sr3 2.678203 1_655
O11 Sr2 2.961522 1_555
O12 Ti0 1.988401 1_555
O12 Sr2 2.648137 1_555
O13 Ti1 1.988401 1_555
O13 Sr2 2.648137 1_555
O14 Ti2 1.988401 1_555
O14 Sr2 2.648137 1_556
O15 Ti3 1.988401 1_555
O15 Sr2 2.648137 1_556
O16 Ti0 1.973383 1_555
O16 Sr0 2.650674 1_555
O16 Sr3 3.007025 1_555
O17 Ti3 1.973383 1_555
O17 Sr0 2.650674 1_555
O17 Sr3 3.007025 1_556
O18 Ti1 1.973383 1_555
O18 Sr0 2.650674 1_655
O18 Sr3 3.007025 1_655
O19 Ti2 1.973383 1_555
O19 Sr0 2.650674 1_655
O19 Sr3 3.007025 1_656
O20 Ti0 1.999050 1_555
O20 Sr1 2.668767 1_555
O21 Ti2 1.999050 1_555
O21 Sr1 2.668767 1_555
O22 Ti3 1.999050 1_555
O22 Sr1 2.668767 1_565
O23 Ti1 1.999050 1_555
O23 Sr1 2.668767 1_565
