# generated using pymatgen
data_MgTi4FeO10
_symmetry_space_group_name_H-M   'P 1'
_cell_length_a   5.28456326
_cell_length_b   7.49295102
_cell_length_c   10.86400660
_cell_angle_alpha   74.92898425
_cell_angle_beta   97.06587022
_cell_angle_gamma   69.59081634
_symmetry_Int_Tables_number   1
_chemical_formula_structural   MgTi4FeO10
_chemical_formula_sum   'Mg2 Ti8 Fe2 O20'
_cell_volume   378.30209974
_cell_formula_units_Z   2
loop_
 _symmetry_equiv_pos_site_id
 _symmetry_equiv_pos_as_xyz
  1  'x, y, z'
loop_
 _atom_site_type_symbol
 _atom_site_label
 _atom_site_symmetry_multiplicity
 _atom_site_fract_x
 _atom_site_fract_y
 _atom_site_fract_z
 _atom_site_occupancy
  Mg  Mg0  1  0.58088000  0.02702200  0.74999200  1
  Mg  Mg1  1  0.08085100  0.52698000  0.75002800  1
  Ti  Ti0  1  0.66265300  0.60024300  0.93095000  1
  Ti  Ti1  1  0.16256300  0.10030600  0.93091600  1
  Ti  Ti2  1  0.48166800  0.78124200  0.56902100  1
  Ti  Ti3  1  0.98166200  0.28127800  0.56898600  1
  Ti  Ti4  1  0.33210900  0.40054200  0.06527500  1
  Ti  Ti5  1  0.83214200  0.90050700  0.06532700  1
  Ti  Ti6  1  0.51690200  0.21584500  0.43470800  1
  Ti  Ti7  1  0.01687100  0.71581100  0.43471900  1
  Fe  Fe0  1  0.41436800  0.97136400  0.24998300  1
  Fe  Fe1  1  0.91481200  0.47124600  0.25000400  1
  O  O0  1  0.31705100  0.27225000  0.25002500  1
  O  O1  1  0.81704400  0.77223600  0.25002400  1
  O  O2  1  0.69810800  0.73273900  0.74999800  1
  O  O3  1  0.19821100  0.23273300  0.74999400  1
  O  O4  1  0.26270400  0.82771500  0.38973800  1
  O  O5  1  0.76264900  0.32783700  0.38971600  1
  O  O6  1  0.12296500  0.96740100  0.11027500  1
  O  O7  1  0.62295300  0.46747800  0.11030300  1
  O  O8  1  0.73767100  0.16990000  0.61406900  1
  O  O9  1  0.23762000  0.66981900  0.61410000  1
  O  O10  1  0.87360900  0.03395600  0.88589500  1
  O  O11  1  0.37346000  0.53405300  0.88590700  1
  O  O12  1  0.69169800  0.93582200  0.44211700  1
  O  O13  1  0.19169400  0.43579200  0.44216400  1
  O  O14  1  0.49955000  0.12795000  0.05787300  1
  O  O15  1  0.99953200  0.62790300  0.05787200  1
  O  O16  1  0.31065100  0.06133100  0.56335100  1
  O  O17  1  0.81064700  0.56132300  0.56338800  1
  O  O18  1  0.49740000  0.87469400  0.93665400  1
  O  O19  1  0.99730000  0.37467900  0.93662800  1
loop_
_geom_bond_atom_site_label_1
_geom_bond_atom_site_label_2
_geom_bond_distance
_geom_bond_site_symmetry_2
Mg0 O10 2.027236 1_555
Mg0 O8 2.027507 1_555
Mg0 O3 2.071563 1_555
Mg0 O2 2.072005 1_545
Mg0 O16 2.230996 1_555
Mg0 O18 2.230998 1_545
Mg1 O11 2.027137 1_555
Mg1 O9 2.027322 1_555
Mg1 O3 2.071832 1_555
Mg1 O2 2.071879 1_455
Mg1 O19 2.230572 1_455
Mg1 O17 2.230835 1_455
Fe0 O6 2.038695 1_555
Fe0 O4 2.038954 1_555
Fe0 O0 2.130563 1_565
Fe0 O1 2.130605 1_555
Fe0 O14 2.293737 1_565
Fe0 O12 2.293886 1_555
Fe1 O5 2.039565 1_555
Fe1 O7 2.039569 1_555
Fe1 O0 2.128581 1_655
Fe1 O1 2.130946 1_555
Fe1 O15 2.292925 1_555
Fe1 O13 2.293188 1_655
O0 Ti6 2.011478 1_555
O0 Ti4 2.012023 1_555
O1 Ti7 2.011516 1_655
O1 Ti5 2.011551 1_555
O2 Ti0 2.022563 1_555
O2 Ti2 2.022685 1_555
O3 Ti1 2.022536 1_555
O3 Ti3 2.023109 1_455
O4 Ti7 1.825490 1_555
O4 Ti2 2.016347 1_555
O5 Ti6 1.825527 1_555
O5 Ti3 2.016150 1_555
O6 Ti5 1.825261 1_455
O6 Ti1 2.017159 1_564
O7 Ti4 1.825767 1_555
O7 Ti0 2.017024 1_554
O8 Ti3 1.814434 1_555
O8 Ti6 2.021962 1_555
O9 Ti2 1.814911 1_555
O9 Ti7 2.022005 1_555
O10 Ti1 1.813915 1_655
O10 Ti5 2.022896 1_546
O11 Ti0 1.814349 1_555
O11 Ti4 2.022192 1_556
O12 Ti7 1.950421 1_655
O12 Ti6 1.950463 1_565
O12 Ti2 2.217411 1_555
O13 Ti7 1.950333 1_555
O13 Ti6 1.950500 1_555
O13 Ti3 2.216667 1_455
O14 Ti4 1.950313 1_555
O14 Ti5 1.950441 1_545
O14 Ti1 2.217696 1_554
O15 Ti4 1.950222 1_655
O15 Ti5 1.950582 1_555
O15 Ti0 2.217119 1_554
O16 Ti2 1.954817 1_545
O16 Ti3 1.955180 1_455
O16 Ti6 2.212476 1_555
O17 Ti3 1.954756 1_555
O17 Ti2 1.955027 1_555
O17 Ti7 2.212422 1_655
O18 Ti0 1.955125 1_555
O18 Ti1 1.955632 1_565
O18 Ti5 2.211706 1_556
O19 Ti1 1.954632 1_655
O19 Ti0 1.955034 1_555
O19 Ti4 2.212015 1_656
