# generated using pymatgen
data_Li5Fe3(SbO5)2
_symmetry_space_group_name_H-M   'P 1'
_cell_length_a   6.92868480
_cell_length_b   8.17646298
_cell_length_c   8.26959198
_cell_angle_alpha   95.33417681
_cell_angle_beta   65.47914548
_cell_angle_gamma   91.33032548
_symmetry_Int_Tables_number   1
_chemical_formula_structural   Li5Fe3(SbO5)2
_chemical_formula_sum   'Li10 Fe6 Sb4 O20'
_cell_volume   424.33013616
_cell_formula_units_Z   2
loop_
 _symmetry_equiv_pos_site_id
 _symmetry_equiv_pos_as_xyz
  1  'x, y, z'
loop_
 _atom_site_type_symbol
 _atom_site_label
 _atom_site_symmetry_multiplicity
 _atom_site_fract_x
 _atom_site_fract_y
 _atom_site_fract_z
 _atom_site_occupancy
  Li  Li0  1  0.99963000  0.00199300  0.50076000  1
  Li  Li1  1  0.51234300  0.50408600  0.49434700  1
  Li  Li2  1  0.16007400  0.33186700  0.39964600  1
  Li  Li3  1  0.65365800  0.84325500  0.41271700  1
  Li  Li4  1  0.83670700  0.67001000  0.59692400  1
  Li  Li5  1  0.33618700  0.17807900  0.59542100  1
  Li  Li6  1  0.54357800  0.95256000  0.80237400  1
  Li  Li7  1  0.05583100  0.43948400  0.80937800  1
  Li  Li8  1  0.46117200  0.05749400  0.17870400  1
  Li  Li9  1  0.95155500  0.54195900  0.21177700  1
  Fe  Fe0  1  0.75204500  0.75161000  0.00561700  1
  Fe  Fe1  1  0.90959800  0.09952300  0.88547300  1
  Fe  Fe2  1  0.59494400  0.40169800  0.10966300  1
  Fe  Fe3  1  0.25039600  0.25049000  0.99645500  1
  Fe  Fe4  1  0.39937800  0.59564300  0.89605300  1
  Fe  Fe5  1  0.09792700  0.89815600  0.10683100  1
  Sb  Sb0  1  0.71153600  0.30339000  0.70379400  1
  Sb  Sb1  1  0.20591600  0.79829700  0.70035500  1
  Sb  Sb2  1  0.29521200  0.69875200  0.30298100  1
  Sb  Sb3  1  0.79534800  0.19954600  0.29517100  1
  O  O0  1  0.22729100  0.00418900  0.84554200  1
  O  O1  1  0.71271200  0.53262300  0.88049300  1
  O  O2  1  0.78669700  0.98684500  0.14062400  1
  O  O3  1  0.27460000  0.48734300  0.16866800  1
  O  O4  1  0.57640300  0.16786600  0.94054700  1
  O  O5  1  0.08761100  0.68225800  0.92614100  1
  O  O6  1  0.41373400  0.81760400  0.07706100  1
  O  O7  1  0.91071500  0.31472100  0.06652500  1
  O  O8  1  0.69628800  0.07569200  0.51301100  1
  O  O9  1  0.18300500  0.59369000  0.54145000  1
  O  O10  1  0.31021400  0.90393600  0.46326200  1
  O  O11  1  0.82232100  0.41416100  0.42200000  1
  O  O12  1  0.10461000  0.13726800  0.23616500  1
  O  O13  1  0.59411100  0.64139700  0.25972400  1
  O  O14  1  0.90469000  0.86134800  0.74897300  1
  O  O15  1  0.34520400  0.37628100  0.77834500  1
  O  O16  1  0.02285900  0.22008200  0.65585000  1
  O  O17  1  0.50241300  0.73233500  0.65880300  1
  O  O18  1  0.00388000  0.76956500  0.33781300  1
  O  O19  1  0.49760300  0.26290600  0.33456500  1
loop_
_geom_bond_atom_site_label_1
_geom_bond_atom_site_label_2
_geom_bond_distance
_geom_bond_site_symmetry_2
Li0 O16 2.140881 1_655
Li0 O8 2.159051 1_555
Li0 O10 2.202228 1_645
Li0 O18 2.218520 1_645
Li0 O14 2.291595 1_545
Li0 O12 2.373135 1_655
Li1 O11 2.106255 1_555
Li1 O17 2.189439 1_555
Li1 O13 2.192955 1_555
Li1 O9 2.276456 1_555
Li1 O19 2.294193 1_555
Li1 O15 2.468071 1_555
Li2 O12 2.123669 1_555
Li2 O16 2.208148 1_555
Li2 O19 2.244296 1_555
Li2 O3 2.245155 1_555
Li2 O11 2.377877 1_455
Li2 O9 2.378117 1_555
Li3 O8 2.066708 1_565
Li3 O13 2.123308 1_555
Li3 O17 2.142645 1_555
Li3 O10 2.296543 1_555
Li3 O18 2.320747 1_655
Li3 O2 2.451603 1_555
Li4 O14 2.083769 1_555
Li4 O18 2.194538 1_655
Li4 O17 2.215608 1_555
Li4 O9 2.336575 1_655
Li4 O11 2.454794 1_555
Li4 O1 2.504341 1_555
Li5 O16 2.045217 1_555
Li5 O15 2.129893 1_555
Li5 O19 2.150553 1_555
Li5 O10 2.437267 1_545
Li5 O8 2.443352 1_555
Li5 O0 2.463873 1_555
Li6 O4 2.068721 1_565
Li6 O0 2.115110 1_565
Li6 O17 2.143150 1_555
Li6 O6 2.431172 1_556
Li6 O14 2.473795 1_555
Li6 O8 2.481140 1_565
Li7 O15 1.987260 1_555
Li7 O16 2.163459 1_555
Li7 O5 2.172787 1_555
Li7 O7 2.270368 1_456
Li7 O1 2.327651 1_455
Li7 O9 2.474394 1_555
Li8 O4 2.079053 1_554
Li8 O19 2.096124 1_555
Li8 O6 2.134172 1_545
Li8 O2 2.226451 1_545
Li8 O12 2.407784 1_555
Li8 O10 2.579389 1_545
Li9 O11 1.979424 1_555
Li9 O18 2.145414 1_655
Li9 O3 2.165844 1_655
Li9 O7 2.194955 1_555
Li9 O13 2.484021 1_555
Li9 O5 2.527728 1_654
Fe0 O1 2.053750 1_554
Fe0 O2 2.192108 1_555
Fe0 O13 2.196101 1_555
Fe0 O14 2.207903 1_554
Fe0 O5 2.209709 1_654
Fe0 O6 2.232649 1_555
Fe1 O16 2.066038 1_655
Fe1 O14 2.165154 1_545
Fe1 O7 2.203850 1_556
Fe1 O2 2.204457 1_546
Fe1 O4 2.233647 1_555
Fe1 O0 2.233918 1_655
Fe2 O1 2.111025 1_554
Fe2 O19 2.125428 1_555
Fe2 O3 2.182798 1_555
Fe2 O7 2.190218 1_555
Fe2 O13 2.218901 1_555
Fe2 O4 2.295293 1_554
Fe3 O15 2.018099 1_555
Fe3 O12 2.107750 1_556
Fe3 O4 2.217717 1_555
Fe3 O7 2.240439 1_456
Fe3 O0 2.307022 1_555
Fe3 O3 2.340328 1_556
Fe4 O15 2.062235 1_555
Fe4 O1 2.191579 1_555
Fe4 O17 2.194574 1_555
Fe4 O5 2.195857 1_555
Fe4 O6 2.270309 1_556
Fe4 O3 2.309064 1_556
Fe5 O18 2.118285 1_555
Fe5 O12 2.148617 1_565
Fe5 O2 2.188334 1_455
Fe5 O6 2.207246 1_555
Fe5 O0 2.220030 1_564
Fe5 O5 2.224055 1_554
O0 Sb1 2.014384 1_545
O1 Sb0 2.268978 1_555
O2 Sb3 2.075350 1_565
O3 Sb2 2.001322 1_555
O4 Sb0 2.184341 1_555
O5 Sb1 2.020212 1_555
O6 Sb2 2.033764 1_555
O7 Sb3 2.035320 1_555
O8 Sb3 2.005605 1_555
O8 Sb0 2.355748 1_555
O9 Sb2 2.059777 1_555
O9 Sb1 2.074337 1_555
O10 Sb1 2.054826 1_555
O10 Sb2 2.067623 1_555
O11 Sb3 2.004876 1_555
O11 Sb0 2.390673 1_555
O12 Sb3 2.055598 1_455
O13 Sb2 2.008934 1_555
O14 Sb1 2.024430 1_655
O15 Sb0 2.425034 1_555
O16 Sb0 2.140611 1_455
O17 Sb1 2.015018 1_555
O18 Sb2 2.008329 1_555
O19 Sb3 2.022575 1_555
