# generated using pymatgen
data_Mn4Cu3BiO12
_symmetry_space_group_name_H-M   'P 1'
_cell_length_a   6.49743693
_cell_length_b   6.49000021
_cell_length_c   6.43576358
_cell_angle_alpha   73.52237437
_cell_angle_beta   68.57956370
_cell_angle_gamma   110.98882067
_symmetry_Int_Tables_number   1
_chemical_formula_structural   Mn4Cu3BiO12
_chemical_formula_sum   'Mn4 Cu3 Bi1 O12'
_cell_volume   207.33324134
_cell_formula_units_Z   1
loop_
 _symmetry_equiv_pos_site_id
 _symmetry_equiv_pos_as_xyz
  1  'x, y, z'
loop_
 _atom_site_type_symbol
 _atom_site_label
 _atom_site_symmetry_multiplicity
 _atom_site_fract_x
 _atom_site_fract_y
 _atom_site_fract_z
 _atom_site_occupancy
  Mn  Mn0  1  0.99997800  0.99997700  0.50018400  1
  Mn  Mn1  1  0.50000600  0.50005200  0.49992700  1
  Mn  Mn2  1  0.50011600  0.99999300  0.99991700  1
  Mn  Mn3  1  0.00002600  0.50018800  0.99986100  1
  Cu  Cu0  1  0.99983500  0.49995000  0.50005700  1
  Cu  Cu1  1  0.49982900  0.99987700  0.50003800  1
  Cu  Cu2  1  0.50018400  0.49987600  0.99995700  1
  Bi  Bi0  1  0.00015700  0.00023300  0.00049600  1
  O  O0  1  0.85963700  0.70403700  0.80934000  1
  O  O1  1  0.14037400  0.29572200  0.19064400  1
  O  O2  1  0.51341900  0.67411900  0.18681300  1
  O  O3  1  0.48639600  0.32572700  0.81318200  1
  O  O4  1  0.82641400  0.12815400  0.69554300  1
  O  O5  1  0.17352400  0.87193800  0.30425200  1
  O  O6  1  0.17972000  0.48187200  0.69234000  1
  O  O7  1  0.82024100  0.51821100  0.30752200  1
  O  O8  1  0.30306700  0.16474600  0.52987600  1
  O  O9  1  0.69700600  0.83531800  0.47009100  1
  O  O10  1  0.69584500  0.17137300  0.13313600  1
  O  O11  1  0.30422500  0.82863500  0.86682300  1
loop_
_geom_bond_atom_site_label_1
_geom_bond_atom_site_label_2
_geom_bond_distance
_geom_bond_site_symmetry_2
Mn0 O0 1.931702 1_555
Mn0 O1 1.932359 1_665
Mn0 O4 1.942742 1_565
Mn0 O5 1.944005 1_655
Mn0 O8 1.985038 1_665
Mn0 O9 1.985832 1_555
Mn1 O7 1.932923 1_555
Mn1 O6 1.933138 1_555
Mn1 O2 1.963246 1_555
Mn1 O3 1.963778 1_555
Mn1 O8 1.999302 1_555
Mn1 O9 1.999496 1_555
Mn2 O4 1.950095 1_565
Mn2 O5 1.951229 1_556
Mn2 O11 1.978176 1_555
Mn2 O10 1.978275 1_566
Mn2 O2 2.165859 1_556
Mn2 O3 2.166405 1_565
Mn3 O7 1.959237 1_456
Mn3 O6 1.959426 1_555
Mn3 O11 1.973289 1_555
Mn3 O10 1.974303 1_456
Mn3 O0 2.201586 1_455
Mn3 O1 2.204640 1_556
Cu0 O4 1.992365 1_555
Cu0 O5 1.993394 1_655
Cu0 O7 1.995741 1_555
Cu0 O6 1.995880 1_655
Cu1 O11 1.931623 1_555
Cu1 O8 1.932201 1_565
Cu1 O10 1.932244 1_565
Cu1 O9 1.932787 1_555
Cu2 O0 1.866425 1_555
Cu2 O1 1.868178 1_556
Cu2 O3 1.872740 1_555
Cu2 O2 1.873408 1_556
Bi0 O9 2.542778 1_445
Bi0 O8 2.548180 1_554
Bi0 O10 2.598100 1_455
Bi0 O11 2.600354 1_544
Bi0 O3 2.624781 1_554
Bi0 O1 2.626647 1_555
Bi0 O2 2.629535 1_445
Bi0 O0 2.635725 1_444
Bi0 O5 2.672218 1_545
Bi0 O4 2.679702 1_454
Bi0 O7 2.691429 1_445
Bi0 O6 2.691821 1_554
