# generated using pymatgen
data_NbSeN
_symmetry_space_group_name_H-M   'P 1'
_cell_length_a   3.67249800
_cell_length_b   3.67249800
_cell_length_c   6.37816400
_cell_angle_alpha   90.00000000
_cell_angle_beta   90.00000000
_cell_angle_gamma   90.00000000
_symmetry_Int_Tables_number   1
_chemical_formula_structural   NbSeN
_chemical_formula_sum   'Nb2 Se2 N2'
_cell_volume   86.02383858
_cell_formula_units_Z   2
loop_
 _symmetry_equiv_pos_site_id
 _symmetry_equiv_pos_as_xyz
  1  'x, y, z'
loop_
 _atom_site_type_symbol
 _atom_site_label
 _atom_site_symmetry_multiplicity
 _atom_site_fract_x
 _atom_site_fract_y
 _atom_site_fract_z
 _atom_site_occupancy
  Nb  Nb0  1  0.50000000  0.00000000  0.17302900  1
  Nb  Nb1  1  0.00000000  0.50000000  0.82697100  1
  Se  Se0  1  0.50000000  0.00000000  0.61852400  1
  Se  Se1  1  0.00000000  0.50000000  0.38147600  1
  N  N0  1  0.50000000  0.50000000  0.00000000  1
  N  N1  1  0.00000000  0.00000000  0.00000000  1
loop_
_geom_bond_atom_site_label_1
_geom_bond_atom_site_label_2
_geom_bond_distance
_geom_bond_site_symmetry_2
Nb0 Se0 2.841440 1_555
Nb0 Se1 2.917399 1_555
Nb0 Se1 2.917399 1_545
Nb0 Se1 2.917399 1_655
Nb0 Se1 2.917399 1_645
Nb1 Se1 2.841440 1_555
Nb1 Se0 2.917399 1_555
Nb1 Se0 2.917399 1_455
Nb1 Se0 2.917399 1_565
Nb1 Se0 2.917399 1_465
N0 Nb0 2.142372 1_555
N0 Nb1 2.142372 1_554
N0 Nb0 2.142372 1_565
N0 Nb1 2.142372 1_654
N1 Nb0 2.142372 1_555
N1 Nb1 2.142372 1_544
N1 Nb1 2.142372 1_554
N1 Nb0 2.142372 1_455
