# generated using pymatgen
data_KHfMg6O7
_symmetry_space_group_name_H-M   'P 1'
_cell_length_a   9.12667303
_cell_length_b   4.53850092
_cell_length_c   4.53850092
_cell_angle_alpha   90.00000000
_cell_angle_beta   90.00000000
_cell_angle_gamma   90.00000000
_symmetry_Int_Tables_number   1
_chemical_formula_structural   KHfMg6O7
_chemical_formula_sum   'K1 Hf1 Mg6 O7'
_cell_volume   187.99112529
_cell_formula_units_Z   1
loop_
 _symmetry_equiv_pos_site_id
 _symmetry_equiv_pos_as_xyz
  1  'x, y, z'
loop_
 _atom_site_type_symbol
 _atom_site_label
 _atom_site_symmetry_multiplicity
 _atom_site_fract_x
 _atom_site_fract_y
 _atom_site_fract_z
 _atom_site_occupancy
  K  K0  1  0.00922422  0.00000000  -0.00000000  1
  Hf  Hf0  1  0.50428919  0.00000000  -0.00000000  1
  Mg  Mg0  1  0.98036181  0.50000000  0.50000000  1
  Mg  Mg1  1  0.51799814  0.50000000  0.50000000  1
  Mg  Mg2  1  0.22262593  0.00000000  0.50000000  1
  Mg  Mg3  1  0.76249928  0.00000000  0.50000000  1
  Mg  Mg4  1  0.22262593  0.50000000  0.00000000  1
  Mg  Mg5  1  0.76249928  0.50000000  -0.00000000  1
  O  O0  1  0.28095778  0.00000000  -0.00000000  1
  O  O1  1  0.72717382  0.00000000  -0.00000000  1
  O  O2  1  0.74860592  0.50000000  0.50000000  1
  O  O3  1  0.98447651  0.00000000  0.50000000  1
  O  O4  1  0.52109283  0.00000000  0.50000000  1
  O  O5  1  0.98447651  0.50000000  0.00000000  1
  O  O6  1  0.52109283  0.50000000  -0.00000000  1
loop_
_geom_bond_atom_site_label_1
_geom_bond_atom_site_label_2
_geom_bond_distance
_geom_bond_site_symmetry_2
K0 O5 2.280463 1_455
K0 O3 2.280463 1_454
K0 O3 2.280463 1_455
K0 O5 2.280463 1_445
K0 O0 2.480023 1_555
K0 O1 2.574182 1_455
Hf0 O1 2.034195 1_555
Hf0 O0 2.038273 1_555
Hf0 O4 2.274427 1_555
Hf0 O4 2.274427 1_554
Hf0 O6 2.274427 1_545
Hf0 O6 2.274427 1_555
Mg0 O2 2.115160 1_555
Mg0 O3 2.269561 1_565
Mg0 O5 2.269561 1_556
Mg0 O5 2.269561 1_555
Mg0 O3 2.269561 1_555
Mg1 O2 2.104682 1_555
Mg1 O6 2.269426 1_556
Mg1 O6 2.269426 1_555
Mg1 O4 2.269426 1_555
Mg1 O4 2.269426 1_565
Mg2 O3 2.173512 1_455
Mg2 O0 2.330863 1_556
Mg2 O0 2.330863 1_555
Mg2 O4 2.724010 1_555
Mg3 O3 2.025914 1_555
Mg3 O4 2.203238 1_555
Mg3 O2 2.272790 1_555
Mg3 O2 2.272790 1_545
Mg3 O1 2.292039 1_556
Mg3 O1 2.292039 1_555
Mg4 O5 2.173512 1_455
Mg4 O0 2.330863 1_555
Mg4 O0 2.330863 1_565
Mg4 O6 2.724010 1_555
Mg5 O5 2.025914 1_555
Mg5 O6 2.203238 1_555
Mg5 O2 2.272790 1_554
Mg5 O2 2.272790 1_555
Mg5 O1 2.292039 1_555
Mg5 O1 2.292039 1_565
