# generated using pymatgen
data_NaAgO
_symmetry_space_group_name_H-M   'P 1'
_cell_length_a   7.20421425
_cell_length_b   7.20421425
_cell_length_c   7.20421425
_cell_angle_alpha   96.07181657
_cell_angle_beta   96.07181657
_cell_angle_gamma   142.04090593
_symmetry_Int_Tables_number   1
_chemical_formula_structural   NaAgO
_chemical_formula_sum   'Na4 Ag4 O4'
_cell_volume   217.48439590
_cell_formula_units_Z   4
loop_
 _symmetry_equiv_pos_site_id
 _symmetry_equiv_pos_as_xyz
  1  'x, y, z'
loop_
 _atom_site_type_symbol
 _atom_site_label
 _atom_site_symmetry_multiplicity
 _atom_site_fract_x
 _atom_site_fract_y
 _atom_site_fract_z
 _atom_site_occupancy
  Na  Na0  1  0.75306800  0.91333400  0.16026600  1
  Na  Na1  1  0.75306800  0.59280200  0.83973400  1
  Na  Na2  1  0.08666600  0.24693200  0.83973400  1
  Na  Na3  1  0.40719800  0.24693200  0.16026600  1
  Ag  Ag0  1  0.40610700  0.59389300  0.50000000  1
  Ag  Ag1  1  0.09389300  0.90610700  0.50000000  1
  Ag  Ag2  1  0.40610700  0.90610700  0.81221500  1
  Ag  Ag3  1  0.09389300  0.59389300  0.18778500  1
  O  O0  1  0.25414600  0.06291200  0.80876600  1
  O  O1  1  0.25414600  0.44538000  0.19123400  1
  O  O2  1  0.93708800  0.74585400  0.19123400  1
  O  O3  1  0.55462000  0.74585400  0.80876600  1
loop_
_geom_bond_atom_site_label_1
_geom_bond_atom_site_label_2
_geom_bond_distance
_geom_bond_site_symmetry_2
Na0 O1 2.356940 1_555
Na0 O1 2.366962 1_665
Na0 O2 2.404126 1_555
Na0 O3 2.404126 1_554
Na1 O0 2.356940 1_555
Na1 O0 2.366962 1_665
Na1 O2 2.404126 1_556
Na1 O3 2.404126 1_555
Na2 O3 2.356940 1_555
Na2 O3 2.366962 1_445
Na2 O0 2.404126 1_555
Na2 O1 2.404126 1_556
Na3 O2 2.356940 1_555
Na3 O2 2.366962 1_445
Na3 O0 2.404126 1_554
Na3 O1 2.404126 1_555
Ag0 O3 2.103706 1_555
Ag0 O1 2.103706 1_555
Ag1 O0 2.103706 1_565
Ag1 O2 2.103706 1_455
Ag2 O3 2.103706 1_555
Ag2 O0 2.103706 1_565
Ag3 O1 2.103706 1_555
Ag3 O2 2.103706 1_455
