# generated using pymatgen
data_Y(CuSe)3
_symmetry_space_group_name_H-M   'P 1'
_cell_length_a   7.77748845
_cell_length_b   7.77748845
_cell_length_c   7.77748941
_cell_angle_alpha   53.76491288
_cell_angle_beta   53.76491288
_cell_angle_gamma   53.76491582
_symmetry_Int_Tables_number   1
_chemical_formula_structural   Y(CuSe)3
_chemical_formula_sum   'Y2 Cu6 Se6'
_cell_volume   284.17299908
_cell_formula_units_Z   2
loop_
 _symmetry_equiv_pos_site_id
 _symmetry_equiv_pos_as_xyz
  1  'x, y, z'
loop_
 _atom_site_type_symbol
 _atom_site_label
 _atom_site_symmetry_multiplicity
 _atom_site_fract_x
 _atom_site_fract_y
 _atom_site_fract_z
 _atom_site_occupancy
  Y  Y0  1  0.83363200  0.83363200  0.83363200  1
  Y  Y1  1  0.16636800  0.16636800  0.16636800  1
  Cu  Cu0  1  0.27889000  0.96884500  0.62602600  1
  Cu  Cu1  1  0.62602600  0.27889000  0.96884500  1
  Cu  Cu2  1  0.96884500  0.62602600  0.27889000  1
  Cu  Cu3  1  0.03115500  0.37397400  0.72111000  1
  Cu  Cu4  1  0.37397400  0.72111000  0.03115500  1
  Cu  Cu5  1  0.72111000  0.03115500  0.37397400  1
  Se  Se0  1  0.08932400  0.74442600  0.41873000  1
  Se  Se1  1  0.74442600  0.41873000  0.08932400  1
  Se  Se2  1  0.41873000  0.08932400  0.74442600  1
  Se  Se3  1  0.58127000  0.91067600  0.25557400  1
  Se  Se4  1  0.25557400  0.58127000  0.91067600  1
  Se  Se5  1  0.91067600  0.25557400  0.58127000  1
loop_
_geom_bond_atom_site_label_1
_geom_bond_atom_site_label_2
_geom_bond_distance
_geom_bond_site_symmetry_2
Cu0 Se5 2.450782 1_465
Cu0 Se4 2.510535 1_555
Cu0 Se3 2.511856 1_555
Cu0 Se2 2.513512 1_565
Cu1 Se3 2.450782 1_546
Cu1 Se5 2.510535 1_555
Cu1 Se4 2.511856 1_555
Cu1 Se1 2.513512 1_556
Cu2 Se4 2.450783 1_654
Cu2 Se3 2.510535 1_555
Cu2 Se5 2.511856 1_555
Cu2 Se0 2.513512 1_655
Cu3 Se1 2.450783 1_456
Cu3 Se2 2.510535 1_555
Cu3 Se0 2.511856 1_555
Cu3 Se5 2.513512 1_455
Cu4 Se2 2.450782 1_564
Cu4 Se0 2.510535 1_555
Cu4 Se1 2.511856 1_555
Cu4 Se4 2.513512 1_554
Cu5 Se0 2.450782 1_645
Cu5 Se1 2.510535 1_555
Cu5 Se2 2.511856 1_555
Cu5 Se3 2.513512 1_545
Se0 Y0 2.877186 1_455
Se0 Y1 2.881031 1_565
Se1 Y0 2.877185 1_554
Se1 Y1 2.881031 1_655
Se2 Y0 2.877185 1_545
Se2 Y1 2.881031 1_556
Se3 Y1 2.877185 1_565
Se3 Y0 2.881031 1_554
Se4 Y1 2.877185 1_556
Se4 Y0 2.881031 1_455
Se5 Y1 2.877186 1_655
Se5 Y0 2.881031 1_545
