# generated using pymatgen
data_RbEr(MoO4)2
_symmetry_space_group_name_H-M   'P 1'
_cell_length_a   7.49670839
_cell_length_b   7.49670839
_cell_length_c   7.72898983
_cell_angle_alpha   61.97974549
_cell_angle_beta   61.97974549
_cell_angle_gamma   88.28980940
_symmetry_Int_Tables_number   1
_chemical_formula_structural   RbEr(MoO4)2
_chemical_formula_sum   'Rb2 Er2 Mo4 O16'
_cell_volume   328.20090536
_cell_formula_units_Z   2
loop_
 _symmetry_equiv_pos_site_id
 _symmetry_equiv_pos_as_xyz
  1  'x, y, z'
loop_
 _atom_site_type_symbol
 _atom_site_label
 _atom_site_symmetry_multiplicity
 _atom_site_fract_x
 _atom_site_fract_y
 _atom_site_fract_z
 _atom_site_occupancy
  Rb  Rb0  1  0.19922000  0.80078000  0.75000000  1
  Rb  Rb1  1  0.80078000  0.19922000  0.25000000  1
  Er  Er0  1  0.77113200  0.22886800  0.75000000  1
  Er  Er1  1  0.22886800  0.77113200  0.25000000  1
  Mo  Mo0  1  0.69586300  0.69646400  0.76258500  1
  Mo  Mo1  1  0.30413700  0.30353600  0.23741500  1
  Mo  Mo2  1  0.30353600  0.30413700  0.73741500  1
  Mo  Mo3  1  0.69646400  0.69586300  0.26258500  1
  O  O0  1  0.61460900  0.76579600  0.56053000  1
  O  O1  1  0.38539100  0.23420400  0.43947000  1
  O  O2  1  0.23420400  0.38539100  0.93947000  1
  O  O3  1  0.76579600  0.61460900  0.06053000  1
  O  O4  1  0.38297600  0.06600000  0.87665000  1
  O  O5  1  0.61702400  0.93400000  0.12335000  1
  O  O6  1  0.93400000  0.61702400  0.62335000  1
  O  O7  1  0.06600000  0.38297600  0.37665000  1
  O  O8  1  0.58614800  0.36651200  0.96904300  1
  O  O9  1  0.41385200  0.63348800  0.03095700  1
  O  O10  1  0.63348800  0.41385200  0.53095700  1
  O  O11  1  0.36651200  0.58614800  0.46904300  1
  O  O12  1  0.79325700  0.95498100  0.69117400  1
  O  O13  1  0.20674300  0.04501900  0.30882600  1
  O  O14  1  0.04501900  0.20674300  0.80882600  1
  O  O15  1  0.95498100  0.79325700  0.19117400  1
loop_
_geom_bond_atom_site_label_1
_geom_bond_atom_site_label_2
_geom_bond_distance
_geom_bond_site_symmetry_2
Er0 O10 2.281262 1_555
Er0 O8 2.281262 1_555
Er0 O14 2.288234 1_655
Er0 O12 2.288234 1_545
Er0 O5 2.361113 1_546
Er0 O7 2.361113 1_655
Er0 O4 2.707263 1_555
Er0 O6 2.707263 1_555
Er1 O9 2.281262 1_555
Er1 O11 2.281262 1_555
Er1 O13 2.288234 1_565
Er1 O15 2.288234 1_455
Er1 O6 2.361113 1_455
Er1 O4 2.361113 1_564
Er1 O7 2.707263 1_555
Er1 O5 2.707263 1_555
Mo0 O0 1.786699 1_555
Mo0 O12 1.815070 1_555
Mo0 O6 1.852962 1_555
Mo0 O9 2.003559 1_556
Mo0 O8 2.126265 1_555
Mo0 O3 2.396202 1_556
Mo1 O1 1.786699 1_555
Mo1 O13 1.815070 1_555
Mo1 O7 1.852962 1_555
Mo1 O8 2.003559 1_554
Mo1 O9 2.126265 1_555
Mo1 O2 2.396202 1_554
Mo2 O2 1.786699 1_555
Mo2 O14 1.815070 1_555
Mo2 O4 1.852962 1_555
Mo2 O11 2.003559 1_555
Mo2 O10 2.126265 1_555
Mo2 O1 2.396202 1_555
Mo3 O3 1.786699 1_555
Mo3 O15 1.815070 1_555
Mo3 O5 1.852962 1_555
Mo3 O10 2.003559 1_555
Mo3 O11 2.126265 1_555
Mo3 O0 2.396202 1_555
O0 Rb0 2.817452 1_555
O0 Rb1 2.839390 1_565
O1 Rb1 2.817452 1_555
O1 Rb0 2.839390 1_545
O2 Rb0 2.817452 1_555
O2 Rb1 2.839390 1_456
O3 Rb1 2.817452 1_555
O3 Rb0 2.839390 1_654
O4 Rb0 3.173050 1_545
O5 Rb1 3.173050 1_565
O6 Rb0 3.173050 1_655
O7 Rb1 3.173050 1_455
O8 Rb1 3.079117 1_556
O9 Rb0 3.079117 1_554
O10 Rb1 3.079117 1_555
O11 Rb0 3.079117 1_555
O12 Rb1 2.990328 1_565
O12 Rb0 3.376616 1_655
O13 Rb0 2.990328 1_545
O13 Rb1 3.376616 1_455
O14 Rb1 2.990328 1_456
O14 Rb0 3.376616 1_545
O15 Rb0 2.990328 1_654
O15 Rb1 3.376616 1_565
