# generated using pymatgen
data_YMg6Co
_symmetry_space_group_name_H-M   'P 1'
_cell_length_a   4.95795400
_cell_length_b   5.88672400
_cell_length_c   11.98946700
_cell_angle_alpha   90.00000000
_cell_angle_beta   90.00000000
_cell_angle_gamma   90.00000000
_symmetry_Int_Tables_number   1
_chemical_formula_structural   YMg6Co
_chemical_formula_sum   'Y2 Mg12 Co2'
_cell_volume   349.92586437
_cell_formula_units_Z   2
loop_
 _symmetry_equiv_pos_site_id
 _symmetry_equiv_pos_as_xyz
  1  'x, y, z'
loop_
 _atom_site_type_symbol
 _atom_site_label
 _atom_site_symmetry_multiplicity
 _atom_site_fract_x
 _atom_site_fract_y
 _atom_site_fract_z
 _atom_site_occupancy
  Y  Y0  1  0.50000000  0.00000000  0.18640400  1
  Y  Y1  1  0.50000000  0.50000000  0.68640400  1
  Mg  Mg0  1  0.50000000  0.24704000  0.43608900  1
  Mg  Mg1  1  0.50000000  0.75296000  0.43608900  1
  Mg  Mg2  1  0.00000000  0.74245200  0.07949200  1
  Mg  Mg3  1  0.00000000  0.25754800  0.07949200  1
  Mg  Mg4  1  0.00000000  0.00000000  0.34529000  1
  Mg  Mg5  1  0.00000000  0.50000000  0.29560300  1
  Mg  Mg6  1  0.50000000  0.74704000  0.93608900  1
  Mg  Mg7  1  0.50000000  0.25296000  0.93608900  1
  Mg  Mg8  1  0.00000000  0.24245200  0.57949200  1
  Mg  Mg9  1  0.00000000  0.75754800  0.57949200  1
  Mg  Mg10  1  0.00000000  0.50000000  0.84529000  1
  Mg  Mg11  1  0.00000000  0.00000000  0.79560300  1
  Co  Co0  1  0.50000000  0.50000000  0.14153900  1
  Co  Co1  1  0.50000000  0.00000000  0.64153900  1
loop_
_geom_bond_atom_site_label_1
_geom_bond_atom_site_label_2
_geom_bond_distance
_geom_bond_site_symmetry_2
Mg0 Mg4 3.073322 1_555
Mg0 Mg4 3.073322 1_655
Mg0 Y0 3.328129 1_555
Mg0 Mg5 3.346611 1_555
Mg0 Mg5 3.346611 1_655
Mg0 Y1 3.350268 1_555
Mg1 Mg4 3.073322 1_565
Mg1 Mg4 3.073322 1_665
Mg1 Y0 3.328129 1_565
Mg1 Mg5 3.346611 1_555
Mg1 Mg5 3.346611 1_655
Mg1 Y1 3.350268 1_555
Mg2 Mg5 2.958142 1_555
Mg2 Y0 3.176002 1_565
Mg2 Y0 3.176002 1_465
Mg3 Mg5 2.958142 1_555
Mg3 Y0 3.176002 1_455
Mg3 Y0 3.176002 1_555
Mg4 Mg5 3.003042 1_545
Mg4 Mg5 3.003042 1_555
Mg4 Y0 3.126371 1_455
Mg4 Y0 3.126371 1_555
Mg4 Mg8 3.149867 1_555
Mg4 Mg9 3.149867 1_545
Mg6 Y1 3.328129 1_555
Mg6 Y0 3.350268 1_566
Mg7 Y1 3.328129 1_555
Mg7 Y0 3.350268 1_556
Mg8 Y1 3.176002 1_555
Mg8 Y1 3.176002 1_455
Mg9 Y1 3.176002 1_555
Mg9 Y1 3.176002 1_455
Mg10 Mg11 3.003042 1_555
Mg10 Mg11 3.003042 1_565
Mg10 Mg7 3.073322 1_455
Mg10 Mg7 3.073322 1_555
Mg10 Mg6 3.073322 1_455
Mg10 Mg6 3.073322 1_555
Mg10 Y1 3.126371 1_555
Mg10 Y1 3.126371 1_455
Mg10 Mg2 3.149867 1_556
Mg10 Mg3 3.149867 1_556
Mg11 Mg9 2.958142 1_545
Mg11 Mg8 2.958142 1_555
Mg11 Mg6 3.346611 1_445
Mg11 Mg6 3.346611 1_545
Mg11 Mg7 3.346611 1_455
Mg11 Mg7 3.346611 1_555
Co0 Mg6 2.860488 1_554
Co0 Mg7 2.860488 1_554
Co0 Mg3 2.955633 1_555
Co0 Mg2 2.955633 1_555
Co0 Mg3 2.955633 1_655
Co0 Mg2 2.955633 1_655
Co0 Y0 2.992110 1_555
Co0 Y0 2.992110 1_565
Co0 Mg5 3.091484 1_655
Co0 Mg5 3.091484 1_555
Co1 Mg1 2.860488 1_545
Co1 Mg0 2.860488 1_555
Co1 Mg8 2.955633 1_555
Co1 Mg8 2.955633 1_655
Co1 Mg9 2.955633 1_545
Co1 Mg9 2.955633 1_645
Co1 Y1 2.992110 1_545
Co1 Y1 2.992110 1_555
Co1 Mg11 3.091484 1_555
Co1 Mg11 3.091484 1_655
