# generated using pymatgen
data_Al2Sb5(Se2Br3)3
_symmetry_space_group_name_H-M   'P 1'
_cell_length_a   9.77984935
_cell_length_b   23.98276264
_cell_length_c   27.73227876
_cell_angle_alpha   102.41539643
_cell_angle_beta   90.00000000
_cell_angle_gamma   90.00000000
_symmetry_Int_Tables_number   1
_chemical_formula_structural   Al2Sb5(Se2Br3)3
_chemical_formula_sum   'Al16 Sb40 Se48 Br72'
_cell_volume   6352.43334525
_cell_formula_units_Z   8
loop_
 _symmetry_equiv_pos_site_id
 _symmetry_equiv_pos_as_xyz
  1  'x, y, z'
loop_
 _atom_site_type_symbol
 _atom_site_label
 _atom_site_symmetry_multiplicity
 _atom_site_fract_x
 _atom_site_fract_y
 _atom_site_fract_z
 _atom_site_occupancy
  Al  Al0  1  0.77369002  0.85526094  0.31316241  1
  Al  Al1  1  0.77369002  0.64473906  0.68683759  1
  Al  Al2  1  0.22630998  0.14473906  0.68683759  1
  Al  Al3  1  0.22630998  0.35526094  0.31316241  1
  Al  Al4  1  0.74058240  0.58616937  0.43587256  1
  Al  Al5  1  0.74058240  0.91383063  0.56412744  1
  Al  Al6  1  0.25941760  0.41383063  0.56412744  1
  Al  Al7  1  0.25941760  0.08616937  0.43587256  1
  Al  Al8  1  0.73784055  0.46237104  0.19363042  1
  Al  Al9  1  0.73784055  0.03762896  0.80636958  1
  Al  Al10  1  0.26215945  0.53762896  0.80636958  1
  Al  Al11  1  0.26215945  0.96237104  0.19363042  1
  Al  Al12  1  0.23052605  0.59637112  0.04267129  1
  Al  Al13  1  0.23052605  0.90362888  0.95732871  1
  Al  Al14  1  0.76947395  0.40362888  0.95732871  1
  Al  Al15  1  0.76947395  0.09637112  0.04267129  1
  Sb  Sb0  1  0.29160828  0.75000000  0.50000000  1
  Sb  Sb1  1  0.70839172  0.25000000  0.50000000  1
  Sb  Sb2  1  0.04775245  0.84293816  0.43562828  1
  Sb  Sb3  1  0.04775245  0.65706184  0.56437172  1
  Sb  Sb4  1  0.95224755  0.15706184  0.56437172  1
  Sb  Sb5  1  0.95224755  0.34293816  0.43562828  1
  Sb  Sb6  1  0.42596335  0.85283093  0.41256053  1
  Sb  Sb7  1  0.42596335  0.64716907  0.58743947  1
  Sb  Sb8  1  0.57403665  0.14716907  0.58743947  1
  Sb  Sb9  1  0.57403665  0.35283093  0.41256053  1
  Sb  Sb10  1  0.23483583  0.71268672  0.34609829  1
  Sb  Sb11  1  0.23483583  0.78731328  0.65390171  1
  Sb  Sb12  1  0.76516417  0.28731328  0.65390171  1
  Sb  Sb13  1  0.76516417  0.21268672  0.34609829  1
  Sb  Sb14  1  0.08401673  0.54935447  0.30046216  1
  Sb  Sb15  1  0.08401673  0.95064553  0.69953784  1
  Sb  Sb16  1  0.91598327  0.45064553  0.69953784  1
  Sb  Sb17  1  0.91598327  0.04935447  0.30046216  1
  Sb  Sb18  1  0.46985292  0.57453209  0.30088913  1
  Sb  Sb19  1  0.46985292  0.92546791  0.69911087  1
  Sb  Sb20  1  0.53014708  0.42546791  0.69911087  1
  Sb  Sb21  1  0.53014708  0.07453209  0.30088913  1
  Sb  Sb22  1  0.24133411  0.62727095  0.20128523  1
  Sb  Sb23  1  0.24133411  0.87272905  0.79871477  1
  Sb  Sb24  1  0.75866589  0.37272905  0.79871477  1
  Sb  Sb25  1  0.75866589  0.12727095  0.20128523  1
  Sb  Sb26  1  0.79669831  0.75000000  0.00000000  1
  Sb  Sb27  1  0.20330169  0.25000000  0.00000000  1
  Sb  Sb28  1  0.54820734  0.87843765  0.04065077  1
  Sb  Sb29  1  0.54820734  0.62156235  0.95934923  1
  Sb  Sb30  1  0.45179266  0.12156235  0.95934923  1
  Sb  Sb31  1  0.45179266  0.37843765  0.04065077  1
  Sb  Sb32  1  0.92246624  0.90543745  0.06600438  1
  Sb  Sb33  1  0.92246624  0.59456255  0.93399562  1
  Sb  Sb34  1  0.07753376  0.09456255  0.93399562  1
  Sb  Sb35  1  0.07753376  0.40543745  0.06600438  1
  Sb  Sb36  1  0.72294681  0.81426012  0.14825995  1
  Sb  Sb37  1  0.72294681  0.68573988  0.85174005  1
  Sb  Sb38  1  0.27705319  0.18573988  0.85174005  1
  Sb  Sb39  1  0.27705319  0.31426012  0.14825995  1
  Se  Se0  1  0.26979208  0.86998908  0.49433389  1
  Se  Se1  1  0.26979208  0.63001092  0.50566611  1
  Se  Se2  1  0.73020792  0.13001092  0.50566611  1
  Se  Se3  1  0.73020792  0.36998908  0.49433389  1
  Se  Se4  1  0.07597692  0.73048087  0.43490495  1
  Se  Se5  1  0.07597692  0.76951913  0.56509505  1
  Se  Se6  1  0.92402308  0.26951913  0.56509505  1
  Se  Se7  1  0.92402308  0.23048087  0.43490495  1
  Se  Se8  1  0.45861083  0.74109943  0.40111010  1
  Se  Se9  1  0.45861083  0.75890057  0.59888990  1
  Se  Se10  1  0.54138917  0.25890057  0.59888990  1
  Se  Se11  1  0.54138917  0.24109943  0.40111010  1
  Se  Se12  1  0.20182075  0.84648183  0.35859439  1
  Se  Se13  1  0.20182075  0.65351817  0.64140561  1
  Se  Se14  1  0.79817925  0.15351817  0.64140561  1
  Se  Se15  1  0.79817925  0.34648183  0.35859439  1
  Se  Se16  1  0.26508199  0.60730504  0.36930697  1
  Se  Se17  1  0.26508199  0.89269496  0.63069303  1
  Se  Se18  1  0.73491801  0.39269496  0.63069303  1
  Se  Se19  1  0.73491801  0.10730504  0.36930697  1
  Se  Se20  1  0.43703849  0.66938351  0.26767122  1
  Se  Se21  1  0.43703849  0.83061649  0.73232878  1
  Se  Se22  1  0.56296151  0.33061649  0.73232878  1
  Se  Se23  1  0.56296151  0.16938351  0.26767122  1
  Se  Se24  1  0.03139201  0.63784377  0.26269130  1
  Se  Se25  1  0.03139201  0.86215623  0.73730870  1
  Se  Se26  1  0.96860799  0.36215623  0.73730870  1
  Se  Se27  1  0.96860799  0.13784377  0.26269130  1
  Se  Se28  1  0.29218205  0.51063089  0.24317532  1
  Se  Se29  1  0.29218205  0.98936911  0.75682468  1
  Se  Se30  1  0.70781795  0.48936911  0.75682468  1
  Se  Se31  1  0.70781795  0.01063089  0.24317532  1
  Se  Se32  1  0.77030316  0.86396191  0.98381230  1
  Se  Se33  1  0.77030316  0.63603809  0.01618770  1
  Se  Se34  1  0.22969684  0.13603809  0.01618770  1
  Se  Se35  1  0.22969684  0.36396191  0.98381230  1
  Se  Se36  1  0.57528024  0.77376619  0.06330375  1
  Se  Se37  1  0.57528024  0.72623381  0.93669625  1
  Se  Se38  1  0.42471976  0.22623381  0.93669625  1
  Se  Se39  1  0.42471976  0.27376619  0.06330375  1
  Se  Se40  1  0.95028972  0.80860684  0.09701332  1
  Se  Se41  1  0.95028972  0.69139316  0.90298668  1
  Se  Se42  1  0.04971028  0.19139316  0.90298668  1
  Se  Se43  1  0.04971028  0.30860684  0.09701332  1
  Se  Se44  1  0.69126144  0.93644283  0.11383098  1
  Se  Se45  1  0.69126144  0.56355717  0.88616902  1
  Se  Se46  1  0.30873856  0.06355717  0.88616902  1
  Se  Se47  1  0.30873856  0.43644283  0.11383098  1
  Br  Br0  1  0.19970514  0.72971561  0.19025868  1
  Br  Br1  1  0.19970514  0.77028439  0.80974132  1
  Br  Br2  1  0.80029486  0.27028439  0.80974132  1
  Br  Br3  1  0.80029486  0.22971561  0.19025868  1
  Br  Br4  1  0.75262048  0.71226182  0.16157362  1
  Br  Br5  1  0.75262048  0.78773818  0.83842638  1
  Br  Br6  1  0.24737952  0.28773818  0.83842638  1
  Br  Br7  1  0.24737952  0.21226182  0.16157362  1
  Br  Br8  1  0.84378536  0.78055875  0.35048942  1
  Br  Br9  1  0.84378536  0.71944125  0.64951058  1
  Br  Br10  1  0.15621464  0.21944125  0.64951058  1
  Br  Br11  1  0.15621464  0.28055875  0.35048942  1
  Br  Br12  1  0.54839306  0.83789529  0.28779351  1
  Br  Br13  1  0.54839306  0.66210471  0.71220649  1
  Br  Br14  1  0.45160694  0.16210471  0.71220649  1
  Br  Br15  1  0.45160694  0.33789529  0.28779351  1
  Br  Br16  1  0.91426126  0.85627424  0.24570215  1
  Br  Br17  1  0.91426126  0.64372576  0.75429785  1
  Br  Br18  1  0.08573874  0.14372576  0.75429785  1
  Br  Br19  1  0.08573874  0.35627424  0.24570215  1
  Br  Br20  1  0.79595255  0.93906983  0.37156211  1
  Br  Br21  1  0.79595255  0.56093017  0.62843789  1
  Br  Br22  1  0.20404745  0.06093017  0.62843789  1
  Br  Br23  1  0.20404745  0.43906983  0.37156211  1
  Br  Br24  1  0.68377554  0.66155272  0.50162375  1
  Br  Br25  1  0.68377554  0.83844728  0.49837625  1
  Br  Br26  1  0.31622446  0.33844728  0.49837625  1
  Br  Br27  1  0.31622446  0.16155272  0.50162375  1
  Br  Br28  1  0.77865923  0.62406864  0.36593409  1
  Br  Br29  1  0.77865923  0.87593136  0.63406591  1
  Br  Br30  1  0.22134077  0.37593136  0.63406591  1
  Br  Br31  1  0.22134077  0.12406864  0.36593409  1
  Br  Br32  1  0.56272118  0.52091578  0.42064326  1
  Br  Br33  1  0.56272118  0.97908422  0.57935674  1
  Br  Br34  1  0.43727882  0.47908422  0.57935674  1
  Br  Br35  1  0.43727882  0.02091578  0.42064326  1
  Br  Br36  1  0.94298395  0.54503631  0.45423905  1
  Br  Br37  1  0.94298395  0.95496369  0.54576095  1
  Br  Br38  1  0.05701605  0.45496369  0.54576095  1
  Br  Br39  1  0.05701605  0.04503631  0.45423905  1
  Br  Br40  1  0.72127925  0.45897351  0.27544561  1
  Br  Br41  1  0.72127925  0.04102649  0.72455439  1
  Br  Br42  1  0.27872075  0.54102649  0.72455439  1
  Br  Br43  1  0.27872075  0.95897351  0.27544561  1
  Br  Br44  1  0.61772380  0.54204513  0.18139162  1
  Br  Br45  1  0.61772380  0.95795487  0.81860838  1
  Br  Br46  1  0.38227620  0.45795487  0.81860838  1
  Br  Br47  1  0.38227620  0.04204513  0.18139162  1
  Br  Br48  1  0.66452992  0.37825167  0.14109576  1
  Br  Br49  1  0.66452992  0.12174833  0.85890424  1
  Br  Br50  1  0.33547008  0.62174833  0.85890424  1
  Br  Br51  1  0.33547008  0.87825167  0.14109576  1
  Br  Br52  1  0.97052360  0.47503090  0.17726775  1
  Br  Br53  1  0.97052360  0.02496910  0.82273225  1
  Br  Br54  1  0.02947640  0.52496910  0.82273225  1
  Br  Br55  1  0.02947640  0.97503090  0.17726775  1
  Br  Br56  1  0.16488873  0.67348376  0.00758612  1
  Br  Br57  1  0.16488873  0.82651624  0.99241388  1
  Br  Br58  1  0.83511127  0.32651624  0.99241388  1
  Br  Br59  1  0.83511127  0.17348376  0.00758612  1
  Br  Br60  1  0.43122613  0.62062772  0.08702862  1
  Br  Br61  1  0.43122613  0.87937228  0.91297138  1
  Br  Br62  1  0.56877387  0.37937228  0.91297138  1
  Br  Br63  1  0.56877387  0.12062772  0.08702862  1
  Br  Br64  1  0.05582025  0.57802169  0.09361255  1
  Br  Br65  1  0.05582025  0.92197831  0.90638745  1
  Br  Br66  1  0.94417975  0.42197831  0.90638745  1
  Br  Br67  1  0.94417975  0.07802169  0.09361255  1
  Br  Br68  1  0.26989376  0.51919613  0.97870942  1
  Br  Br69  1  0.26989376  0.98080387  0.02129058  1
  Br  Br70  1  0.73010624  0.48080387  0.02129058  1
  Br  Br71  1  0.73010624  0.01919613  0.97870942  1
loop_
_geom_bond_atom_site_label_1
_geom_bond_atom_site_label_2
_geom_bond_distance
_geom_bond_site_symmetry_2
Al0 Br20 2.304473 1_555
Al0 Br12 2.323202 1_555
Al0 Br16 2.325965 1_555
Al0 Br8 2.355560 1_555
Al1 Br21 2.304473 1_555
Al1 Br13 2.323202 1_555
Al1 Br17 2.325965 1_555
Al1 Br9 2.355560 1_555
Al2 Br22 2.304473 1_555
Al2 Br14 2.323202 1_555
Al2 Br18 2.325965 1_555
Al2 Br10 2.355560 1_555
Al3 Br23 2.304473 1_555
Al3 Br15 2.323202 1_555
Al3 Br19 2.325965 1_555
Al3 Br11 2.355560 1_555
Al4 Br36 2.316654 1_555
Al4 Br32 2.317106 1_555
Al4 Br24 2.341909 1_555
Al4 Br28 2.341951 1_555
Al5 Br37 2.316654 1_555
Al5 Br33 2.317106 1_555
Al5 Br25 2.341909 1_555
Al5 Br29 2.341951 1_555
Al6 Br38 2.316654 1_555
Al6 Br34 2.317106 1_555
Al6 Br26 2.341909 1_555
Al6 Br30 2.341951 1_555
Al7 Br39 2.316654 1_555
Al7 Br35 2.317106 1_555
Al7 Br27 2.341909 1_555
Al7 Br31 2.341951 1_555
Al8 Br40 2.293551 1_555
Al8 Br44 2.329211 1_555
Al8 Br48 2.332969 1_555
Al8 Br52 2.352810 1_555
Al9 Br41 2.293551 1_555
Al9 Br45 2.329211 1_545
Al9 Br49 2.332969 1_555
Al9 Br53 2.352810 1_555
Al10 Br42 2.293551 1_555
Al10 Br46 2.329211 1_555
Al10 Br50 2.332969 1_555
Al10 Br54 2.352810 1_555
Al11 Br43 2.293551 1_555
Al11 Br47 2.329211 1_565
Al11 Br51 2.332969 1_555
Al11 Br55 2.352810 1_555
Al12 Br68 2.304047 1_554
Al12 Br64 2.318633 1_555
Al12 Br60 2.323054 1_555
Al12 Br56 2.356418 1_555
Al13 Br69 2.304047 1_556
Al13 Br65 2.318633 1_555
Al13 Br61 2.323054 1_555
Al13 Br57 2.356418 1_555
Al14 Br70 2.304047 1_556
Al14 Br66 2.318633 1_555
Al14 Br62 2.323054 1_555
Al14 Br58 2.356418 1_555
Al15 Br71 2.304047 1_554
Al15 Br67 2.318633 1_555
Al15 Br63 2.323054 1_555
Al15 Br59 2.356418 1_555
Sb0 Se4 2.749881 1_555
Sb0 Se5 2.749881 1_555
Sb0 Se1 2.923291 1_555
Sb0 Se0 2.923291 1_555
Sb0 Se9 3.159489 1_555
Sb0 Se8 3.159489 1_555
Sb1 Se7 2.749881 1_555
Sb1 Se6 2.749881 1_555
Sb1 Se2 2.923291 1_555
Sb1 Se3 2.923291 1_555
Sb1 Se10 3.159489 1_555
Sb1 Se11 3.159489 1_555
Sb2 Se12 2.630498 1_555
Sb2 Se4 2.706906 1_555
Sb2 Se0 2.707898 1_555
Sb3 Se13 2.630498 1_555
Sb3 Se5 2.706906 1_555
Sb3 Se1 2.707898 1_555
Sb4 Se14 2.630498 1_555
Sb4 Se6 2.706906 1_555
Sb4 Se2 2.707898 1_555
Sb5 Se15 2.630498 1_555
Sb5 Se7 2.706906 1_555
Sb5 Se3 2.707898 1_555
Sb6 Se12 2.640121 1_555
Sb6 Se8 2.649021 1_555
Sb6 Se0 2.691385 1_555
Sb7 Se13 2.640121 1_555
Sb7 Se9 2.649021 1_555
Sb7 Se1 2.691385 1_555
Sb8 Se14 2.640121 1_555
Sb8 Se10 2.649021 1_555
Sb8 Se2 2.691385 1_555
Sb9 Se15 2.640121 1_555
Sb9 Se11 2.649021 1_555
Sb9 Se3 2.691385 1_555
Sb10 Se8 2.671002 1_555
Sb10 Se16 2.754757 1_555
Sb10 Se4 2.865196 1_555
Sb10 Se20 2.957752 1_555
Sb10 Se12 3.168981 1_555
Sb10 Se24 3.278038 1_555
Sb11 Se9 2.671002 1_555
Sb11 Se17 2.754757 1_555
Sb11 Se5 2.865196 1_555
Sb11 Se21 2.957752 1_555
Sb11 Se13 3.168981 1_555
Sb11 Se25 3.278038 1_555
Sb12 Se10 2.671002 1_555
Sb12 Se18 2.754757 1_555
Sb12 Se6 2.865196 1_555
Sb12 Se22 2.957752 1_555
Sb12 Se14 3.168981 1_555
Sb12 Se26 3.278038 1_555
Sb13 Se11 2.671002 1_555
Sb13 Se19 2.754757 1_555
Sb13 Se7 2.865196 1_555
Sb13 Se23 2.957752 1_555
Sb13 Se15 3.168981 1_555
Sb13 Se27 3.278038 1_555
Sb14 Se24 2.611848 1_555
Sb14 Se28 2.626137 1_555
Sb14 Se16 2.751625 1_555
Sb15 Se25 2.611848 1_555
Sb15 Se29 2.626137 1_555
Sb15 Se17 2.751625 1_555
Sb16 Se26 2.611848 1_555
Sb16 Se30 2.626137 1_555
Sb16 Se18 2.751625 1_555
Sb17 Se27 2.611848 1_555
Sb17 Se31 2.626137 1_555
Sb17 Se19 2.751625 1_555
Sb18 Se28 2.621997 1_555
Sb18 Se20 2.650926 1_555
Sb18 Se16 2.754469 1_555
Sb19 Se29 2.621997 1_555
Sb19 Se21 2.650926 1_555
Sb19 Se17 2.754469 1_555
Sb20 Se30 2.621997 1_555
Sb20 Se22 2.650926 1_555
Sb20 Se18 2.754469 1_555
Sb21 Se31 2.621997 1_555
Sb21 Se23 2.650926 1_555
Sb21 Se19 2.754469 1_555
Sb22 Se24 2.644661 1_555
Sb22 Se20 2.696881 1_555
Sb23 Se25 2.644661 1_555
Sb23 Se21 2.696881 1_555
Sb24 Se26 2.644661 1_555
Sb24 Se22 2.696881 1_555
Sb25 Se27 2.644661 1_555
Sb25 Se23 2.696881 1_555
Sb26 Se37 2.768700 1_554
Sb26 Se36 2.768700 1_555
Sb26 Se33 2.875014 1_555
Sb26 Se32 2.875014 1_554
Sb26 Se41 3.137533 1_554
Sb26 Se40 3.137533 1_555
Sb27 Se38 2.768700 1_554
Sb27 Se39 2.768700 1_555
Sb27 Se34 2.875014 1_555
Sb27 Se35 2.875014 1_554
Sb27 Se42 3.137533 1_554
Sb27 Se43 3.137533 1_555
Sb28 Se44 2.607158 1_555
Sb28 Se32 2.662269 1_554
Sb28 Se36 2.728468 1_555
Sb29 Se45 2.607158 1_555
Sb29 Se33 2.662269 1_556
Sb29 Se37 2.728468 1_555
Sb30 Se46 2.607158 1_555
Sb30 Se34 2.662269 1_556
Sb30 Se38 2.728468 1_555
Sb31 Se47 2.607158 1_555
Sb31 Se35 2.662269 1_554
Sb31 Se39 2.728468 1_555
Sb32 Se44 2.645905 1_555
Sb32 Se40 2.658042 1_555
Sb32 Se32 2.724809 1_554
Sb33 Se45 2.645905 1_555
Sb33 Se41 2.658042 1_555
Sb33 Se33 2.724809 1_556
Sb34 Se46 2.645905 1_555
Sb34 Se42 2.658042 1_555
Sb34 Se34 2.724809 1_556
Sb35 Se47 2.645905 1_555
Sb35 Se43 2.658042 1_555
Sb35 Se35 2.724809 1_554
Sb36 Se40 2.626540 1_555
Sb36 Se36 2.756038 1_555
Sb36 Se44 3.285915 1_555
Sb37 Se41 2.626540 1_555
Sb37 Se37 2.756038 1_555
Sb37 Se45 3.285915 1_555
Sb38 Se42 2.626540 1_555
Sb38 Se38 2.756038 1_555
Sb38 Se46 3.285915 1_555
Sb39 Se43 2.626540 1_555
Sb39 Se39 2.756038 1_555
Sb39 Se47 3.285915 1_555
Br0 Sb22 2.572684 1_555
Br1 Sb23 2.572684 1_555
Br2 Sb24 2.572684 1_555
Br3 Sb25 2.572684 1_555
Br4 Sb36 2.567646 1_555
Br5 Sb37 2.567646 1_555
Br6 Sb38 2.567646 1_555
Br7 Sb39 2.567646 1_555
Br8 Sb2 3.205170 1_655
Br9 Sb3 3.205170 1_655
Br10 Sb4 3.205170 1_455
Br11 Sb5 3.205170 1_455
Br16 Sb36 3.263066 1_555
Br17 Sb37 3.263066 1_555
Br18 Sb38 3.263066 1_555
Br19 Sb39 3.263066 1_555
