# generated using pymatgen
data_CaCO3
_symmetry_space_group_name_H-M   'P 1'
_cell_length_a   6.20672572
_cell_length_b   6.43640630
_cell_length_c   6.43166588
_cell_angle_alpha   93.83778905
_cell_angle_beta   106.71866541
_cell_angle_gamma   106.17507622
_symmetry_Int_Tables_number   1
_chemical_formula_structural   CaCO3
_chemical_formula_sum   'Ca4 C4 O12'
_cell_volume   233.29606311
_cell_formula_units_Z   4
loop_
 _symmetry_equiv_pos_site_id
 _symmetry_equiv_pos_as_xyz
  1  'x, y, z'
loop_
 _atom_site_type_symbol
 _atom_site_label
 _atom_site_symmetry_multiplicity
 _atom_site_fract_x
 _atom_site_fract_y
 _atom_site_fract_z
 _atom_site_occupancy
  Ca  Ca0  1  0.95018511  0.22131147  0.30828263  1
  Ca  Ca1  1  0.04981489  0.77868853  0.69171737  1
  Ca  Ca2  1  0.45675536  0.66860396  0.23505795  1
  Ca  Ca3  1  0.54324464  0.33139604  0.76494205  1
  C  C0  1  0.51237857  0.77823902  0.74138924  1
  C  C1  1  0.48762143  0.22176098  0.25861076  1
  C  C2  1  0.98289163  0.26601489  0.77009442  1
  C  C3  1  0.01710837  0.73398511  0.22990558  1
  O  O0  1  0.58517322  0.36160497  0.14912239  1
  O  O1  1  0.41482678  0.63839503  0.85087761  1
  O  O2  1  0.88696601  0.83278745  0.29580446  1
  O  O3  1  0.11303399  0.16721255  0.70419554  1
  O  O4  1  0.88039006  0.37921526  0.63633516  1
  O  O5  1  0.11960994  0.62078474  0.36366484  1
  O  O6  1  0.46293971  0.95693919  0.72941673  1
  O  O7  1  0.53706029  0.04306081  0.27058327  1
  O  O8  1  0.64224747  0.72139274  0.63737577  1
  O  O9  1  0.35775253  0.27860726  0.36262423  1
  O  O10  1  0.05347714  0.74762784  0.04649192  1
  O  O11  1  0.94652286  0.25237216  0.95350808  1
loop_
_geom_bond_atom_site_label_1
_geom_bond_atom_site_label_2
_geom_bond_distance
_geom_bond_site_symmetry_2
Ca0 O11 2.298002 1_554
Ca0 O9 2.368890 1_655
Ca0 O2 2.412928 1_545
Ca0 O7 2.432277 1_555
Ca0 O5 2.449307 1_655
Ca0 O4 2.481228 1_555
Ca0 O3 2.541829 1_655
Ca0 O0 2.631559 1_555
Ca1 O10 2.298002 1_556
Ca1 O8 2.368890 1_455
Ca1 O3 2.412928 1_565
Ca1 O6 2.432277 1_555
Ca1 O4 2.449307 1_455
Ca1 O5 2.481228 1_555
Ca1 O2 2.541829 1_455
Ca1 O1 2.631559 1_555
Ca2 O7 2.302380 1_565
Ca2 O1 2.397604 1_554
Ca2 O5 2.414304 1_555
Ca2 O0 2.414537 1_555
Ca2 O8 2.467153 1_555
Ca2 O2 2.484294 1_555
Ca2 O10 2.653319 1_555
Ca2 O9 2.656713 1_555
Ca3 O6 2.302380 1_545
Ca3 O0 2.397604 1_556
Ca3 O4 2.414304 1_555
Ca3 O1 2.414537 1_555
Ca3 O9 2.467153 1_555
Ca3 O3 2.484294 1_555
Ca3 O11 2.653319 1_555
Ca3 O8 2.656713 1_555
C0 O6 1.271974 1_555
C0 O8 1.293422 1_555
C0 O1 1.303526 1_555
C1 O7 1.271974 1_555
C1 O9 1.293422 1_555
C1 O0 1.303526 1_555
C2 O11 1.267391 1_555
C2 O3 1.297540 1_655
C2 O4 1.304986 1_555
C3 O10 1.267391 1_555
C3 O2 1.297540 1_455
C3 O5 1.304986 1_555
