# generated using pymatgen
data_KLuO2
_symmetry_space_group_name_H-M   'P 1'
_cell_length_a   6.45707232
_cell_length_b   6.45707232
_cell_length_c   6.45707239
_cell_angle_alpha   30.04647991
_cell_angle_beta   30.04647991
_cell_angle_gamma   30.04648103
_symmetry_Int_Tables_number   1
_chemical_formula_structural   KLuO2
_chemical_formula_sum   'K1 Lu1 O2'
_cell_volume   59.78924319
_cell_formula_units_Z   1
loop_
 _symmetry_equiv_pos_site_id
 _symmetry_equiv_pos_as_xyz
  1  'x, y, z'
loop_
 _atom_site_type_symbol
 _atom_site_label
 _atom_site_symmetry_multiplicity
 _atom_site_fract_x
 _atom_site_fract_y
 _atom_site_fract_z
 _atom_site_occupancy
  K  K0  1  -0.00000000  -0.00000000  0.00000000  1
  Lu  Lu0  1  0.50000000  0.50000000  0.50000000  1
  O  O0  1  0.22733418  0.22733418  0.22733418  1
  O  O1  1  0.77266582  0.77266582  0.77266582  1
loop_
_geom_bond_atom_site_label_1
_geom_bond_atom_site_label_2
_geom_bond_distance
_geom_bond_site_symmetry_2
K0 O1 2.752032 1_544
K0 O1 2.752032 1_454
K0 O0 2.752032 1_455
K0 O0 2.752032 1_545
K0 O1 2.752032 1_445
K0 O0 2.752032 1_554
Lu0 O0 2.234412 1_556
Lu0 O1 2.234412 1_554
Lu0 O0 2.234412 1_565
Lu0 O0 2.234412 1_655
Lu0 O1 2.234412 1_455
Lu0 O1 2.234412 1_545
