# generated using pymatgen
data_Li7Mn5O12
_symmetry_space_group_name_H-M   'P 1'
_cell_length_a   2.98445772
_cell_length_b   10.19494977
_cell_length_c   15.21523425
_cell_angle_alpha   72.85910905
_cell_angle_beta   87.16240433
_cell_angle_gamma   91.76891049
_symmetry_Int_Tables_number   1
_chemical_formula_structural   Li7Mn5O12
_chemical_formula_sum   'Li14 Mn10 O24'
_cell_volume   441.33820997
_cell_formula_units_Z   2
loop_
 _symmetry_equiv_pos_site_id
 _symmetry_equiv_pos_as_xyz
  1  'x, y, z'
loop_
 _atom_site_type_symbol
 _atom_site_label
 _atom_site_symmetry_multiplicity
 _atom_site_fract_x
 _atom_site_fract_y
 _atom_site_fract_z
 _atom_site_occupancy
  Li  Li0  1  0.99999900  0.00000100  0.33331700  1
  Li  Li1  1  0.49999800  0.00000400  0.83333200  1
  Li  Li2  1  0.49020200  0.24139300  0.32832200  1
  Li  Li3  1  0.99017900  0.24137800  0.82832300  1
  Li  Li4  1  0.50978700  0.75859300  0.33834000  1
  Li  Li5  1  0.00982900  0.75862500  0.83834600  1
  Li  Li6  1  0.99805300  0.74632900  0.16745500  1
  Li  Li7  1  0.49804000  0.74632200  0.66746000  1
  Li  Li8  1  0.00194200  0.25365400  0.49922300  1
  Li  Li9  1  0.50195100  0.25367700  0.99921400  1
  Li  Li10  1  0.01004300  0.24241200  0.17264200  1
  Li  Li11  1  0.51004600  0.24238700  0.67265100  1
  Li  Li12  1  0.98995300  0.75757400  0.49402500  1
  Li  Li13  1  0.48995300  0.75761700  0.99401600  1
  Mn  Mn0  1  0.00014300  0.50007300  0.33329600  1
  Mn  Mn1  1  0.00880500  0.99624200  0.99637400  1
  Mn  Mn2  1  0.99105300  0.00375000  0.67029700  1
  Mn  Mn3  1  0.00142300  0.50156600  0.99997900  1
  Mn  Mn4  1  0.99860900  0.49843100  0.66668600  1
  Mn  Mn5  1  0.49999500  0.50002400  0.83329600  1
  Mn  Mn6  1  0.50879400  0.99623400  0.49635500  1
  Mn  Mn7  1  0.49102000  0.00374800  0.17033400  1
  Mn  Mn8  1  0.50139100  0.50155000  0.49998000  1
  Mn  Mn9  1  0.49856700  0.49841800  0.16669000  1
  O  O0  1  0.03474300  0.10757500  0.43138100  1
  O  O1  1  0.53471800  0.10761600  0.93140700  1
  O  O2  1  0.96528000  0.89239200  0.23527500  1
  O  O3  1  0.46529600  0.89239100  0.73525400  1
  O  O4  1  0.46099500  0.61787300  0.24704400  1
  O  O5  1  0.96100100  0.61786900  0.74703800  1
  O  O6  1  0.53906100  0.38214900  0.41962500  1
  O  O7  1  0.03906900  0.38215400  0.91962600  1
  O  O8  1  0.01467400  0.10513000  0.09051000  1
  O  O9  1  0.51469400  0.10510800  0.59047500  1
  O  O10  1  0.48532400  0.89487500  0.07619300  1
  O  O11  1  0.98534900  0.89484700  0.57615900  1
  O  O12  1  0.49110900  0.11753600  0.24248700  1
  O  O13  1  0.99109600  0.11751700  0.74246500  1
  O  O14  1  0.50891900  0.88246400  0.42418000  1
  O  O15  1  0.00891500  0.88249600  0.92419700  1
  O  O16  1  0.96158300  0.61665800  0.08238300  1
  O  O17  1  0.46158800  0.61666100  0.58237400  1
  O  O18  1  0.53839300  0.38336200  0.08432000  1
  O  O19  1  0.03840200  0.38336200  0.58431400  1
  O  O20  1  0.96368200  0.61993800  0.41295300  1
  O  O21  1  0.46367100  0.61994500  0.91295600  1
  O  O22  1  0.03632500  0.38004200  0.25371400  1
  O  O23  1  0.53634100  0.38003800  0.75371000  1
loop_
_geom_bond_atom_site_label_1
_geom_bond_atom_site_label_2
_geom_bond_distance
_geom_bond_site_symmetry_2
Li0 O12 2.051566 1_655
Li0 O14 2.051748 1_545
Li0 O2 2.100593 1_545
Li0 O0 2.100628 1_655
Li0 O12 2.235272 1_555
Li0 O14 2.235593 1_645
Li1 O15 2.051661 1_545
Li1 O13 2.051723 1_555
Li1 O1 2.101051 1_555
Li1 O3 2.101094 1_545
Li1 O15 2.235490 1_645
Li1 O13 2.235492 1_455
Li2 O12 2.066885 1_555
Li2 O22 2.108597 1_555
Li2 O0 2.140385 1_555
Li2 O22 2.161466 1_655
Li2 O6 2.278717 1_555
Li2 O0 2.467675 1_655
Li3 O13 2.067201 1_555
Li3 O23 2.108604 1_555
Li3 O1 2.140355 1_555
Li3 O23 2.161624 1_655
Li3 O7 2.278888 1_655
Li3 O1 2.467643 1_655
Li4 O14 2.067061 1_555
Li4 O20 2.108695 1_555
Li4 O2 2.140413 1_555
Li4 O20 2.161480 1_455
Li4 O4 2.278321 1_555
Li4 O2 2.467575 1_455
Li5 O15 2.067196 1_555
Li5 O21 2.108704 1_555
Li5 O3 2.140444 1_555
Li5 O21 2.161699 1_455
Li5 O5 2.278771 1_455
Li5 O3 2.467707 1_455
Li6 O2 2.048549 1_555
Li6 O4 2.105462 1_655
Li6 O16 2.109184 1_555
Li6 O4 2.119904 1_555
Li6 O10 2.181967 1_655
Li6 O10 2.382663 1_555
Li7 O3 2.048316 1_555
Li7 O5 2.105416 1_555
Li7 O17 2.109269 1_555
Li7 O5 2.119792 1_455
Li7 O11 2.182170 1_555
Li7 O11 2.382734 1_455
Li8 O0 2.048936 1_555
Li8 O6 2.105580 1_455
Li8 O19 2.109717 1_555
Li8 O6 2.120251 1_555
Li8 O9 2.181865 1_455
Li8 O9 2.382645 1_555
Li9 O1 2.048389 1_555
Li9 O7 2.105431 1_555
Li9 O18 2.109708 1_556
Li9 O7 2.120117 1_655
Li9 O8 2.182190 1_556
Li9 O8 2.382876 1_656
Li10 O12 2.016572 1_455
Li10 O12 2.068300 1_555
Li10 O22 2.125917 1_555
Li10 O8 2.133329 1_555
Li10 O18 2.206644 1_555
Li10 O18 2.241899 1_455
Li11 O13 2.016436 1_455
Li11 O13 2.068062 1_555
Li11 O23 2.125943 1_555
Li11 O9 2.133825 1_555
Li11 O19 2.206858 1_655
Li11 O19 2.242111 1_555
Li12 O14 2.016706 1_655
Li12 O14 2.068299 1_555
Li12 O20 2.125966 1_555
Li12 O11 2.133276 1_555
Li12 O17 2.206661 1_555
Li12 O17 2.241868 1_655
Li13 O15 2.016526 1_655
Li13 O15 2.068108 1_555
Li13 O21 2.126130 1_555
Li13 O10 2.133659 1_556
Li13 O16 2.206987 1_456
Li13 O16 2.242206 1_556
Mn0 O20 1.960174 1_455
Mn0 O22 1.960592 1_555
Mn0 O4 1.961268 1_555
Mn0 O6 1.962743 1_455
Mn0 O4 2.270026 1_455
Mn0 O6 2.270526 1_555
Mn1 O15 1.816981 1_555
Mn1 O1 1.950557 1_565
Mn1 O1 1.960704 1_465
Mn1 O10 1.989065 1_456
Mn1 O10 2.021724 1_556
Mn1 O8 2.054906 1_566
Mn2 O13 1.817052 1_555
Mn2 O3 1.950096 1_545
Mn2 O3 1.960934 1_645
Mn2 O9 1.989408 1_655
Mn2 O9 2.021355 1_555
Mn2 O11 2.055033 1_545
Mn3 O18 1.954149 1_456
Mn3 O16 1.955486 1_456
Mn3 O7 1.965088 1_555
Mn3 O21 1.971629 1_555
Mn3 O18 2.253556 1_556
Mn3 O21 2.274523 1_455
Mn4 O17 1.953962 1_655
Mn4 O19 1.954897 1_655
Mn4 O5 1.965284 1_555
Mn4 O23 1.971731 1_555
Mn4 O17 2.253577 1_555
Mn4 O23 2.274540 1_655
Mn5 O23 1.960292 1_555
Mn5 O21 1.960653 1_555
Mn5 O5 1.961788 1_555
Mn5 O7 1.962231 1_555
Mn5 O5 2.269896 1_455
Mn5 O7 2.270674 1_655
Mn6 O14 1.817156 1_555
Mn6 O0 1.950534 1_665
Mn6 O0 1.960509 1_565
Mn6 O11 1.988955 1_455
Mn6 O11 2.021766 1_555
Mn6 O9 2.054594 1_565
Mn7 O12 1.817047 1_555
Mn7 O2 1.949973 1_445
Mn7 O2 1.960869 1_545
Mn7 O8 1.989527 1_655
Mn7 O8 2.021428 1_555
Mn7 O10 2.054844 1_545
Mn8 O19 1.953957 1_555
Mn8 O17 1.955510 1_555
Mn8 O6 1.965026 1_555
Mn8 O20 1.971776 1_555
Mn8 O19 2.253538 1_655
Mn8 O20 2.274490 1_455
Mn9 O16 1.954042 1_555
Mn9 O18 1.954772 1_555
Mn9 O4 1.965443 1_555
Mn9 O22 1.971613 1_555
Mn9 O16 2.253499 1_455
Mn9 O22 2.274532 1_655
