# generated using pymatgen
data_Li4Fe5SbO12
_symmetry_space_group_name_H-M   'P 1'
_cell_length_a   5.19931240
_cell_length_b   5.19931240
_cell_length_c   10.41932926
_cell_angle_alpha   87.87903216
_cell_angle_beta   87.87903216
_cell_angle_gamma   120.15129448
_symmetry_Int_Tables_number   1
_chemical_formula_structural   Li4Fe5SbO12
_chemical_formula_sum   'Li4 Fe5 Sb1 O12'
_cell_volume   242.88440450
_cell_formula_units_Z   1
loop_
 _symmetry_equiv_pos_site_id
 _symmetry_equiv_pos_as_xyz
  1  'x, y, z'
loop_
 _atom_site_type_symbol
 _atom_site_label
 _atom_site_symmetry_multiplicity
 _atom_site_fract_x
 _atom_site_fract_y
 _atom_site_fract_z
 _atom_site_occupancy
  Li  Li0  1  0.47347700  0.13550900  0.71390100  1
  Li  Li1  1  0.86449100  0.52652300  0.28609900  1
  Li  Li2  1  0.13550900  0.47347700  0.71390100  1
  Li  Li3  1  0.52652300  0.86449100  0.28609900  1
  Fe  Fe0  1  0.83683600  0.16316400  0.50000000  1
  Fe  Fe1  1  0.66542300  0.33457700  0.00000000  1
  Fe  Fe2  1  0.50000000  0.50000000  0.50000000  1
  Fe  Fe3  1  0.33457700  0.66542300  0.00000000  1
  Fe  Fe4  1  0.16316400  0.83683600  0.50000000  1
  Sb  Sb0  1  0.00000000  0.00000000  0.00000000  1
  O  O0  1  0.64515600  0.98522100  0.09684500  1
  O  O1  1  0.01477900  0.35484400  0.90315500  1
  O  O2  1  0.52729000  0.18158400  0.39180700  1
  O  O3  1  0.81841600  0.47271000  0.60819300  1
  O  O4  1  0.16347600  0.16347600  0.60768200  1
  O  O5  1  0.32748900  0.32748900  0.09340700  1
  O  O6  1  0.67251100  0.67251100  0.90659300  1
  O  O7  1  0.83652400  0.83652400  0.39231800  1
  O  O8  1  0.18158400  0.52729000  0.39180700  1
  O  O9  1  0.47271000  0.81841600  0.60819300  1
  O  O10  1  0.98522100  0.64515600  0.09684500  1
  O  O11  1  0.35484400  0.01477900  0.90315500  1
loop_
_geom_bond_atom_site_label_1
_geom_bond_atom_site_label_2
_geom_bond_distance
_geom_bond_site_symmetry_2
Li0 O3 2.013826 1_555
Li0 O9 2.014780 1_545
Li0 O11 2.022936 1_555
Li0 O4 2.049252 1_555
Li1 O2 2.013826 1_555
Li1 O8 2.014780 1_655
Li1 O10 2.022936 1_555
Li1 O7 2.049252 1_555
Li2 O9 2.013826 1_555
Li2 O3 2.014780 1_455
Li2 O1 2.022936 1_555
Li2 O4 2.049252 1_555
Li3 O8 2.013826 1_555
Li3 O2 2.014780 1_565
Li3 O0 2.022936 1_555
Li3 O7 2.049252 1_555
Fe0 O3 2.037491 1_555
Fe0 O2 2.037491 1_555
Fe0 O4 2.069171 1_655
Fe0 O7 2.069171 1_545
Fe0 O9 2.085998 1_545
Fe0 O8 2.085998 1_655
Fe1 O5 1.959952 1_555
Fe1 O6 1.959952 1_554
Fe1 O10 1.984439 1_555
Fe1 O11 1.984439 1_554
Fe1 O1 1.998209 1_654
Fe1 O0 1.998209 1_545
Fe2 O7 2.003908 1_555
Fe2 O4 2.003908 1_555
Fe2 O9 2.096197 1_555
Fe2 O3 2.096197 1_555
Fe2 O2 2.096197 1_555
Fe2 O8 2.096197 1_555
Fe3 O5 1.959952 1_555
Fe3 O6 1.959952 1_554
Fe3 O0 1.984439 1_555
Fe3 O1 1.984439 1_554
Fe3 O11 1.998209 1_564
Fe3 O10 1.998209 1_455
Fe4 O9 2.037491 1_555
Fe4 O8 2.037491 1_555
Fe4 O4 2.069171 1_565
Fe4 O7 2.069171 1_455
Fe4 O3 2.085998 1_455
Fe4 O2 2.085998 1_565
O0 Sb0 2.035185 1_665
O1 Sb0 2.035185 1_556
O5 Sb0 2.019532 1_555
O6 Sb0 2.019532 1_666
O10 Sb0 2.035185 1_665
O11 Sb0 2.035185 1_556
