# generated using pymatgen
data_Ho2CrSbO7
_symmetry_space_group_name_H-M   'P 1'
_cell_length_a   7.27079914
_cell_length_b   7.27079914
_cell_length_c   7.27079914
_cell_angle_alpha   120.24375960
_cell_angle_beta   119.56359845
_cell_angle_gamma   90.16792028
_symmetry_Int_Tables_number   1
_chemical_formula_structural   Ho2CrSbO7
_chemical_formula_sum   'Ho4 Cr2 Sb2 O14'
_cell_volume   272.17121538
_cell_formula_units_Z   2
loop_
 _symmetry_equiv_pos_site_id
 _symmetry_equiv_pos_as_xyz
  1  'x, y, z'
loop_
 _atom_site_type_symbol
 _atom_site_label
 _atom_site_symmetry_multiplicity
 _atom_site_fract_x
 _atom_site_fract_y
 _atom_site_fract_z
 _atom_site_occupancy
  Ho  Ho0  1  0.50000000  0.00000000  0.00000000  1
  Ho  Ho1  1  0.50000000  0.50000000  0.50000000  1
  Ho  Ho2  1  0.50000000  0.00000000  0.50000000  1
  Ho  Ho3  1  0.00000000  0.00000000  0.00000000  1
  Cr  Cr0  1  0.00000000  0.50000000  0.00000000  1
  Cr  Cr1  1  0.00000000  0.00000000  0.50000000  1
  Sb  Sb0  1  0.00000000  0.50000000  0.50000000  1
  Sb  Sb1  1  0.50000000  0.50000000  0.00000000  1
  O  O0  1  0.62192600  0.87192600  0.75000000  1
  O  O1  1  0.37807400  0.12807400  0.25000000  1
  O  O2  1  0.90875400  0.15875400  0.75000000  1
  O  O3  1  0.33388000  0.58388000  0.75000000  1
  O  O4  1  0.91220500  0.58115200  0.74412900  1
  O  O5  1  0.33702200  0.16807600  0.75587100  1
  O  O6  1  0.91220500  0.16807600  0.33105300  1
  O  O7  1  0.33702200  0.58115200  0.16894700  1
  O  O8  1  0.09124600  0.84124600  0.25000000  1
  O  O9  1  0.66612000  0.41612000  0.25000000  1
  O  O10  1  0.08779500  0.41884800  0.25587100  1
  O  O11  1  0.66297800  0.83192400  0.24412900  1
  O  O12  1  0.08779500  0.83192400  0.66894700  1
  O  O13  1  0.66297800  0.41884800  0.83105300  1
loop_
_geom_bond_atom_site_label_1
_geom_bond_atom_site_label_2
_geom_bond_distance
_geom_bond_site_symmetry_2
Ho0 O0 2.201561 1_544
Ho0 O1 2.201561 1_555
Ho0 O6 2.483203 1_555
Ho0 O12 2.483203 1_544
Ho0 O11 2.483204 1_545
Ho0 O5 2.483204 1_554
Ho0 O3 2.487739 1_544
Ho0 O9 2.487739 1_555
Ho1 O0 2.201561 1_555
Ho1 O1 2.201561 1_555
Ho1 O13 2.483203 1_555
Ho1 O7 2.483203 1_555
Ho1 O4 2.483203 1_555
Ho1 O10 2.483203 1_555
Ho1 O9 2.487739 1_555
Ho1 O3 2.487739 1_555
Ho2 O1 2.253198 1_555
Ho2 O0 2.253198 1_545
Ho2 O2 2.450424 1_555
Ho2 O8 2.450424 1_545
Ho2 O13 2.500447 1_555
Ho2 O7 2.500447 1_545
Ho2 O5 2.500453 1_555
Ho2 O11 2.500453 1_545
Ho3 O1 2.253198 1_555
Ho3 O0 2.253198 1_444
Ho3 O2 2.450424 1_454
Ho3 O8 2.450424 1_545
Ho3 O4 2.500447 1_444
Ho3 O12 2.500447 1_544
Ho3 O10 2.500447 1_555
Ho3 O6 2.500447 1_455
Cr0 O13 2.037834 1_454
Cr0 O7 2.037834 1_555
Cr0 O10 2.037841 1_555
Cr0 O4 2.037841 1_454
Cr0 O8 2.038975 1_555
Cr0 O2 2.038975 1_454
Cr1 O5 2.037835 1_555
Cr1 O11 2.037835 1_445
Cr1 O12 2.037841 1_545
Cr1 O6 2.037841 1_455
Cr1 O8 2.038975 1_545
Cr1 O2 2.038975 1_455
O3 Sb0 2.022234 1_555
O3 Sb1 2.022234 1_556
O4 Sb0 1.992874 1_655
O5 Sb1 1.992875 1_556
O6 Sb0 1.992874 1_655
O7 Sb1 1.992881 1_555
O9 Sb1 2.022234 1_555
O9 Sb0 2.022234 1_655
O10 Sb0 1.992874 1_555
O11 Sb1 1.992875 1_555
O12 Sb0 1.992874 1_555
O13 Sb1 1.992881 1_556
