# generated using pymatgen
data_LiSb3
_symmetry_space_group_name_H-M   'P 1'
_cell_length_a   4.68102100
_cell_length_b   4.68102100
_cell_length_c   4.68102100
_cell_angle_alpha   90.00000000
_cell_angle_beta   90.00000000
_cell_angle_gamma   90.00000000
_symmetry_Int_Tables_number   1
_chemical_formula_structural   LiSb3
_chemical_formula_sum   'Li1 Sb3'
_cell_volume   102.57033369
_cell_formula_units_Z   1
loop_
 _symmetry_equiv_pos_site_id
 _symmetry_equiv_pos_as_xyz
  1  'x, y, z'
loop_
 _atom_site_type_symbol
 _atom_site_label
 _atom_site_symmetry_multiplicity
 _atom_site_fract_x
 _atom_site_fract_y
 _atom_site_fract_z
 _atom_site_occupancy
  Li  Li0  1  0.00000000  0.00000000  0.00000000  1
  Sb  Sb0  1  0.50000000  0.00000000  0.50000000  1
  Sb  Sb1  1  0.00000000  0.50000000  0.50000000  1
  Sb  Sb2  1  0.50000000  0.50000000  0.00000000  1
loop_
_geom_bond_atom_site_label_1
_geom_bond_atom_site_label_2
_geom_bond_distance
_geom_bond_site_symmetry_2
Li0 Sb1 3.309982 1_544
Li0 Sb0 3.309982 1_455
Li0 Sb0 3.309982 1_454
Li0 Sb1 3.309982 1_545
Li0 Sb1 3.309982 1_555
Li0 Sb2 3.309982 1_445
Li0 Sb2 3.309982 1_545
Li0 Sb1 3.309982 1_554
Li0 Sb0 3.309982 1_555
Li0 Sb2 3.309982 1_455
Li0 Sb2 3.309982 1_555
Li0 Sb0 3.309982 1_554
Sb0 Sb1 3.309982 1_645
Sb0 Sb2 3.309982 1_546
Sb0 Sb1 3.309982 1_545
Sb0 Sb1 3.309982 1_555
Sb0 Sb2 3.309982 1_545
Sb0 Sb2 3.309982 1_556
Sb0 Sb1 3.309982 1_655
Sb0 Sb2 3.309982 1_555
Sb1 Sb2 3.309982 1_456
Sb1 Sb2 3.309982 1_556
Sb1 Sb2 3.309982 1_455
Sb1 Sb2 3.309982 1_555
