# generated using pymatgen
data_CeAlCo4
_symmetry_space_group_name_H-M   'P 1'
_cell_length_a   3.85963600
_cell_length_b   5.10146390
_cell_length_c   5.09819879
_cell_angle_alpha   59.91090955
_cell_angle_beta   90.00000000
_cell_angle_gamma   90.00000000
_symmetry_Int_Tables_number   1
_chemical_formula_structural   CeAlCo4
_chemical_formula_sum   'Ce1 Al1 Co4'
_cell_volume   86.85563129
_cell_formula_units_Z   1
loop_
 _symmetry_equiv_pos_site_id
 _symmetry_equiv_pos_as_xyz
  1  'x, y, z'
loop_
 _atom_site_type_symbol
 _atom_site_label
 _atom_site_symmetry_multiplicity
 _atom_site_fract_x
 _atom_site_fract_y
 _atom_site_fract_z
 _atom_site_occupancy
  Ce  Ce0  1  0.00000000  0.99993100  0.00003200  1
  Al  Al0  1  0.00000000  0.33308900  0.33294500  1
  Co  Co0  1  0.00000000  0.66671400  0.66677200  1
  Co  Co1  1  0.50000000  0.50331300  0.50334300  1
  Co  Co2  1  0.50000000  0.50320800  0.99373900  1
  Co  Co3  1  0.50000000  0.99364400  0.50326900  1
loop_
_geom_bond_atom_site_label_1
_geom_bond_atom_site_label_2
_geom_bond_distance
_geom_bond_site_symmetry_2
Ce0 Co0 2.941127 1_555
Ce0 Co0 2.943204 1_564
Ce0 Co0 2.944872 1_554
Ce0 Co1 3.195091 1_555
Ce0 Co1 3.195091 1_455
Ce0 Co1 3.195414 1_464
Ce0 Co1 3.195414 1_564
Ce0 Co3 3.196986 1_454
Ce0 Co3 3.196986 1_554
Ce0 Co3 3.197661 1_455
Ce0 Co3 3.197661 1_555
Ce0 Co2 3.198120 1_454
Ce0 Co2 3.198120 1_554
Ce0 Co2 3.199130 1_464
Ce0 Co2 3.199130 1_564
Al0 Co2 2.441952 1_454
Al0 Co2 2.441952 1_554
Al0 Co3 2.443186 1_445
Al0 Co3 2.443186 1_545
Al0 Co1 2.447326 1_555
Al0 Co1 2.447326 1_455
Al0 Co0 2.938623 1_554
Al0 Co0 2.941397 1_545
Al0 Ce0 2.942660 1_546
Al0 Ce0 2.943078 1_545
Al0 Ce0 2.943469 1_555
Al0 Co0 2.949180 1_555
Co0 Co2 2.409249 1_555
Co0 Co2 2.409249 1_455
Co0 Co3 2.409705 1_455
Co0 Co3 2.409705 1_555
Co0 Co1 2.410327 1_555
Co0 Co1 2.410327 1_455
Co1 Co2 2.499868 1_555
Co1 Co3 2.501217 1_555
Co1 Co2 2.598331 1_554
Co1 Co3 2.600247 1_545
Co2 Co3 2.497859 1_555
Co2 Co3 2.595104 1_546
