# generated using pymatgen
data_H8C2N6O7
_symmetry_space_group_name_H-M   'P 1'
_cell_length_a   8.63364681
_cell_length_b   8.88562498
_cell_length_c   8.57586341
_cell_angle_alpha   58.79778097
_cell_angle_beta   80.50985699
_cell_angle_gamma   71.44225622
_symmetry_Int_Tables_number   1
_chemical_formula_structural   H8C2N6O7
_chemical_formula_sum   'H16 C4 N12 O14'
_cell_volume   533.47112293
_cell_formula_units_Z   2
loop_
 _symmetry_equiv_pos_site_id
 _symmetry_equiv_pos_as_xyz
  1  'x, y, z'
loop_
 _atom_site_type_symbol
 _atom_site_label
 _atom_site_symmetry_multiplicity
 _atom_site_fract_x
 _atom_site_fract_y
 _atom_site_fract_z
 _atom_site_occupancy
  H  H0  1  0.54723800  0.62599000  0.14274600  1
  H  H1  1  0.95276200  0.23126400  0.14274600  1
  H  H2  1  0.45276200  0.37401000  0.85725400  1
  H  H3  1  0.04723800  0.76873600  0.85725400  1
  H  H4  1  0.64172200  0.43540800  0.34885800  1
  H  H5  1  0.85827800  0.21573400  0.34885800  1
  H  H6  1  0.35827800  0.56459200  0.65114200  1
  H  H7  1  0.14172200  0.78426600  0.65114200  1
  H  H8  1  0.66860000  0.65780600  0.86398300  1
  H  H9  1  0.83140000  0.47821200  0.86398300  1
  H  H10  1  0.33140000  0.34219400  0.13601700  1
  H  H11  1  0.16860000  0.52178800  0.13601700  1
  H  H12  1  0.69490800  0.11973500  0.65403300  1
  H  H13  1  0.80509200  0.22623200  0.65403300  1
  H  H14  1  0.30509200  0.88026500  0.34596700  1
  H  H15  1  0.19490800  0.77376800  0.34596700  1
  C  C0  1  0.75000000  0.88811100  0.22377800  1
  C  C1  1  0.25000000  0.11188900  0.77622200  1
  C  C2  1  0.75000000  0.44133400  0.11733100  1
  C  C3  1  0.25000000  0.55866600  0.88266900  1
  N  N0  1  0.75000000  0.78778800  0.42442400  1
  N  N1  1  0.25000000  0.21221200  0.57557600  1
  N  N2  1  0.87688800  0.81639400  0.13948600  1
  N  N3  1  0.62311200  0.04412000  0.13948600  1
  N  N4  1  0.12311100  0.18360600  0.86051400  1
  N  N5  1  0.37688900  0.95588000  0.86051400  1
  N  N6  1  0.75000000  0.53295800  0.93408400  1
  N  N7  1  0.25000000  0.46704200  0.06591600  1
  N  N8  1  0.63878100  0.50910300  0.20953200  1
  N  N9  1  0.86121900  0.28136500  0.20953200  1
  N  N10  1  0.36121900  0.49089700  0.79046800  1
  N  N11  1  0.13878100  0.71863500  0.79046800  1
  O  O0  1  0.81225900  0.83967000  0.50130600  1
  O  O1  1  0.68774100  0.65902500  0.50130600  1
  O  O2  1  0.18774100  0.16033000  0.49869400  1
  O  O3  1  0.31225900  0.34097500  0.49869400  1
  O  O4  1  0.98809700  0.67882900  0.24288100  1
  O  O5  1  0.51190300  0.07829000  0.24288100  1
  O  O6  1  0.01190300  0.32117100  0.75711900  1
  O  O7  1  0.48809700  0.92171000  0.75711900  1
  O  O8  1  0.87879400  0.88484900  0.96931000  1
  O  O9  1  0.62120600  0.14584000  0.96931000  1
  O  O10  1  0.12120600  0.11515100  0.03069000  1
  O  O11  1  0.37879400  0.85416000  0.03069000  1
  O  O12  1  0.75000000  0.21375900  0.57248200  1
  O  O13  1  0.25000000  0.78624100  0.42751800  1
loop_
_geom_bond_atom_site_label_1
_geom_bond_atom_site_label_2
_geom_bond_distance
_geom_bond_site_symmetry_2
H0 N8 1.020702 1_555
H1 N9 1.020702 1_555
H2 N10 1.020702 1_555
H3 N11 1.020702 1_555
H4 N8 1.022660 1_555
H5 N9 1.022660 1_555
H6 N10 1.022660 1_555
H7 N11 1.022660 1_555
H8 N6 1.018842 1_555
H9 N6 1.018837 1_555
H10 N7 1.018842 1_555
H11 N7 1.018837 1_555
H12 O12 0.975295 1_555
H13 O12 0.975295 1_555
H14 O13 0.975295 1_555
H15 O13 0.975295 1_555
C0 N3 1.378609 1_565
C0 N2 1.378609 1_555
C0 N0 1.471802 1_555
C1 N5 1.378614 1_545
C1 N4 1.378614 1_555
C1 N1 1.471802 1_555
C2 N9 1.335949 1_555
C2 N8 1.335954 1_555
C2 N6 1.344174 1_554
C3 N11 1.335949 1_555
C3 N10 1.335954 1_555
C3 N7 1.344174 1_556
N0 O1 1.235185 1_555
N0 O0 1.235192 1_555
N1 O3 1.235185 1_555
N1 O2 1.235192 1_555
N2 O8 1.256505 1_554
N2 O4 1.270016 1_555
N3 O9 1.256504 1_554
N3 O5 1.270016 1_555
N4 O10 1.256505 1_556
N4 O6 1.270011 1_555
N5 O11 1.256504 1_556
N5 O7 1.270011 1_555
