# generated using pymatgen
data_HfMg6B
_symmetry_space_group_name_H-M   'P 1'
_cell_length_a   4.80102900
_cell_length_b   5.64403300
_cell_length_c   11.45862800
_cell_angle_alpha   90.00000000
_cell_angle_beta   90.00000000
_cell_angle_gamma   90.00000000
_symmetry_Int_Tables_number   1
_chemical_formula_structural   HfMg6B
_chemical_formula_sum   'Hf2 Mg12 B2'
_cell_volume   310.49634631
_cell_formula_units_Z   2
loop_
 _symmetry_equiv_pos_site_id
 _symmetry_equiv_pos_as_xyz
  1  'x, y, z'
loop_
 _atom_site_type_symbol
 _atom_site_label
 _atom_site_symmetry_multiplicity
 _atom_site_fract_x
 _atom_site_fract_y
 _atom_site_fract_z
 _atom_site_occupancy
  Hf  Hf0  1  0.50000000  0.50000000  0.18316200  1
  Hf  Hf1  1  0.50000000  0.00000000  0.68316200  1
  Mg  Mg0  1  0.50000000  0.24980800  0.43365000  1
  Mg  Mg1  1  0.50000000  0.75019200  0.43365000  1
  Mg  Mg2  1  0.00000000  0.75014900  0.07817700  1
  Mg  Mg3  1  0.00000000  0.24985100  0.07817700  1
  Mg  Mg4  1  0.00000000  0.00000000  0.30294800  1
  Mg  Mg5  1  0.00000000  0.50000000  0.33632200  1
  Mg  Mg6  1  0.50000000  0.74980800  0.93365000  1
  Mg  Mg7  1  0.50000000  0.25019200  0.93365000  1
  Mg  Mg8  1  0.00000000  0.25014900  0.57817700  1
  Mg  Mg9  1  0.00000000  0.74985100  0.57817700  1
  Mg  Mg10  1  0.00000000  0.50000000  0.80294800  1
  Mg  Mg11  1  0.00000000  0.00000000  0.83632200  1
  B  B0  1  0.50000000  0.00000000  0.15390900  1
  B  B1  1  0.50000000  0.50000000  0.65390900  1
loop_
_geom_bond_atom_site_label_1
_geom_bond_atom_site_label_2
_geom_bond_distance
_geom_bond_site_symmetry_2
Hf0 Mg5 2.973635 1_655
Hf0 Mg5 2.973635 1_555
Hf0 Mg2 3.033638 1_655
Hf0 Mg2 3.033638 1_555
Hf0 Mg3 3.033638 1_655
Hf0 Mg3 3.033638 1_555
Hf0 Mg6 3.187811 1_554
Hf0 Mg7 3.187811 1_554
Hf0 Mg1 3.198802 1_555
Hf0 Mg0 3.198802 1_555
Hf1 Mg11 2.973635 1_655
Hf1 Mg11 2.973635 1_555
Hf1 Mg8 3.033638 1_555
Hf1 Mg8 3.033638 1_655
Hf1 Mg9 3.033638 1_645
Hf1 Mg9 3.033638 1_545
Hf1 Mg1 3.187811 1_545
Hf1 Mg0 3.187811 1_555
Hf1 Mg7 3.198802 1_555
Hf1 Mg6 3.198802 1_545
Mg0 Mg1 2.819849 1_545
Mg0 Mg1 2.824184 1_555
Mg0 Mg8 2.916347 1_555
Mg0 Mg8 2.916347 1_655
Mg0 Mg5 3.000041 1_555
Mg0 Mg5 3.000041 1_655
Mg0 Mg4 3.161228 1_555
Mg0 Mg4 3.161228 1_655
Mg1 Mg9 2.916347 1_555
Mg1 Mg9 2.916347 1_655
Mg1 Mg5 3.000041 1_555
Mg1 Mg5 3.000041 1_655
Mg1 Mg4 3.161228 1_565
Mg1 Mg4 3.161228 1_665
Mg2 Mg3 2.820335 1_565
Mg2 Mg3 2.823698 1_555
Mg2 Mg6 2.916347 1_554
Mg2 Mg6 2.916347 1_454
Mg2 Mg4 2.936344 1_565
Mg2 Mg5 3.277653 1_555
Mg3 Mg7 2.916347 1_454
Mg3 Mg7 2.916347 1_554
Mg3 Mg4 2.936344 1_555
Mg3 Mg5 3.277653 1_555
Mg4 Mg5 2.847810 1_545
Mg4 Mg5 2.847810 1_555
Mg4 Mg8 3.455349 1_555
Mg4 Mg9 3.455349 1_545
Mg5 Mg9 3.109473 1_555
Mg5 Mg8 3.109473 1_555
Mg6 Mg7 2.819849 1_555
Mg6 Mg7 2.824184 1_565
Mg8 Mg9 2.820335 1_555
Mg8 Mg9 2.823698 1_545
Mg10 Mg11 2.847810 1_555
Mg10 Mg11 2.847810 1_565
Mg10 Mg9 2.936344 1_555
Mg10 Mg8 2.936344 1_555
Mg10 Mg6 3.161228 1_555
Mg10 Mg6 3.161228 1_455
Mg10 Mg7 3.161228 1_555
Mg10 Mg7 3.161228 1_455
Mg10 Mg2 3.455349 1_556
Mg10 Mg3 3.455349 1_556
Mg11 Mg7 3.000041 1_455
Mg11 Mg7 3.000041 1_555
Mg11 Mg6 3.000041 1_445
Mg11 Mg6 3.000041 1_545
Mg11 Mg3 3.109473 1_556
Mg11 Mg2 3.109473 1_546
Mg11 Mg8 3.277653 1_555
Mg11 Mg9 3.277653 1_545
B0 Hf0 2.841854 1_555
B0 Hf0 2.841854 1_545
B0 Mg7 2.892041 1_554
B0 Mg6 2.892041 1_544
B0 Mg3 2.916178 1_555
B0 Mg2 2.916178 1_645
B0 Mg2 2.916178 1_545
B0 Mg3 2.916178 1_655
B0 Mg4 2.946013 1_655
B0 Mg4 2.946013 1_555
B1 Hf1 2.841854 1_555
B1 Hf1 2.841854 1_565
B1 Mg0 2.892041 1_555
B1 Mg1 2.892041 1_555
B1 Mg9 2.916178 1_555
B1 Mg9 2.916178 1_655
B1 Mg8 2.916178 1_555
B1 Mg8 2.916178 1_655
B1 Mg10 2.946013 1_555
B1 Mg10 2.946013 1_655
