# generated using pymatgen
data_BC5
_symmetry_space_group_name_H-M   'P 1'
_cell_length_a   4.45055500
_cell_length_b   4.45805522
_cell_length_c   4.46219580
_cell_angle_alpha   119.89884910
_cell_angle_beta   99.08411912
_cell_angle_gamma   100.19087805
_symmetry_Int_Tables_number   1
_chemical_formula_structural   BC5
_chemical_formula_sum   'B2 C10'
_cell_volume   72.32972777
_cell_formula_units_Z   2
loop_
 _symmetry_equiv_pos_site_id
 _symmetry_equiv_pos_as_xyz
  1  'x, y, z'
loop_
 _atom_site_type_symbol
 _atom_site_label
 _atom_site_symmetry_multiplicity
 _atom_site_fract_x
 _atom_site_fract_y
 _atom_site_fract_z
 _atom_site_occupancy
  B  B0  1  0.19062800  0.66242700  0.73271600  1
  B  B1  1  0.80937200  0.33757300  0.26728400  1
  C  C0  1  0.68575300  0.33103200  0.88566200  1
  C  C1  1  0.31424700  0.66896800  0.11433800  1
  C  C2  1  0.31627800  0.32461300  0.77143900  1
  C  C3  1  0.68372200  0.67538700  0.22856100  1
  C  C4  1  0.79851600  0.66799900  0.60048800  1
  C  C5  1  0.20148400  0.33200100  0.39951200  1
  C  C6  1  0.68364400  0.98406300  0.57623100  1
  C  C7  1  0.31635600  0.01593700  0.42376900  1
  C  C8  1  0.18820100  0.00055300  0.06319300  1
  C  C9  1  0.81179900  0.99944700  0.93680700  1
loop_
_geom_bond_atom_site_label_1
_geom_bond_atom_site_label_2
_geom_bond_distance
_geom_bond_site_symmetry_2
B0 C8 1.497214 1_566
B0 C5 1.499088 1_555
B0 C1 1.688875 1_556
B0 C4 1.760396 1_455
B0 C2 1.771302 1_555
B1 C9 1.497214 1_544
B1 C4 1.499088 1_555
B1 C0 1.688875 1_554
B1 C5 1.760396 1_655
B1 C3 1.771302 1_555
C0 C6 1.469936 1_545
C0 C3 1.538013 1_556
C0 C2 1.633617 1_555
C1 C7 1.469936 1_565
C1 C2 1.538013 1_554
C1 C3 1.633617 1_555
C2 C7 1.473915 1_555
C2 C5 1.676043 1_555
C3 C6 1.473915 1_555
C3 C4 1.676043 1_555
C4 C9 1.472880 1_555
C4 C6 1.627246 1_555
C5 C8 1.472880 1_555
C5 C7 1.627246 1_555
C6 C9 1.582764 1_555
C6 C7 1.726981 1_565
C7 C8 1.582764 1_555
