# generated using pymatgen
data_Cu2GeTe3
_symmetry_space_group_name_H-M   'P 1'
_cell_length_a   7.30365943
_cell_length_b   7.30365943
_cell_length_c   7.30365943
_cell_angle_alpha   145.78651465
_cell_angle_beta   132.20850283
_cell_angle_gamma   60.08076266
_symmetry_Int_Tables_number   1
_chemical_formula_structural   Cu2GeTe3
_chemical_formula_sum   'Cu2 Ge1 Te3'
_cell_volume   160.74681974
_cell_formula_units_Z   1
loop_
 _symmetry_equiv_pos_site_id
 _symmetry_equiv_pos_as_xyz
  1  'x, y, z'
loop_
 _atom_site_type_symbol
 _atom_site_label
 _atom_site_symmetry_multiplicity
 _atom_site_fract_x
 _atom_site_fract_y
 _atom_site_fract_z
 _atom_site_occupancy
  Cu  Cu0  1  0.09546137  0.83216885  0.26329252  1
  Cu  Cu1  1  0.43112368  0.16783115  0.26329252  1
  Ge  Ge0  1  0.73785306  0.50000000  0.23785306  1
  Te  Te0  1  0.66764562  0.67270824  0.99493738  1
  Te  Te1  1  0.32222914  0.32729176  0.99493738  1
  Te  Te2  1  0.01868713  -0.00000000  0.01868713  1
loop_
_geom_bond_atom_site_label_1
_geom_bond_atom_site_label_2
_geom_bond_distance
_geom_bond_site_symmetry_2
Cu0 Te1 2.549133 1_565
Cu0 Te1 2.549133 1_554
Cu0 Te0 2.566557 1_454
Cu0 Te2 2.568802 1_565
Cu1 Te0 2.549133 1_544
Cu1 Te0 2.549133 1_555
Cu1 Te1 2.566557 1_554
Cu1 Te2 2.568802 1_555
Ge0 Te0 2.614474 1_554
Ge0 Te1 2.614474 1_554
Ge0 Te2 2.716037 1_655
Ge0 Te2 2.716037 1_666
