# generated using pymatgen
data_GaN
_symmetry_space_group_name_H-M   'P 1'
_cell_length_a   12.48081346
_cell_length_b   10.62638068
_cell_length_c   10.82758176
_cell_angle_alpha   89.13641808
_cell_angle_beta   90.50845116
_cell_angle_gamma   88.96622075
_symmetry_Int_Tables_number   1
_chemical_formula_structural   GaN
_chemical_formula_sum   'Ga50 N50'
_cell_volume   1435.56060585
_cell_formula_units_Z   50
loop_
 _symmetry_equiv_pos_site_id
 _symmetry_equiv_pos_as_xyz
  1  'x, y, z'
loop_
 _atom_site_type_symbol
 _atom_site_label
 _atom_site_symmetry_multiplicity
 _atom_site_fract_x
 _atom_site_fract_y
 _atom_site_fract_z
 _atom_site_occupancy
  Ga  Ga0  1  0.30495058  0.49197414  0.39691113  1
  Ga  Ga1  1  0.14334063  0.40867953  0.28937225  1
  Ga  Ga2  1  0.83962114  0.89566589  0.01863709  1
  Ga  Ga3  1  0.04088982  0.71805353  0.71629600  1
  Ga  Ga4  1  0.17410796  0.19990268  0.08030387  1
  Ga  Ga5  1  0.34443202  0.99170765  0.74495884  1
  Ga  Ga6  1  0.56642630  0.72229811  0.78710563  1
  Ga  Ga7  1  0.91575321  0.23307042  0.40897011  1
  Ga  Ga8  1  0.50568319  0.03465105  0.41014616  1
  Ga  Ga9  1  0.56708035  0.07963936  0.12119746  1
  Ga  Ga10  1  0.16737526  0.71159508  0.49136578  1
  Ga  Ga11  1  0.32601029  0.99754841  0.12369846  1
  Ga  Ga12  1  0.38337161  0.24997715  0.25904295  1
  Ga  Ga13  1  0.69691252  0.35145901  0.28343071  1
  Ga  Ga14  1  0.15747573  0.44027885  0.62792409  1
  Ga  Ga15  1  0.49783282  0.01748201  0.90853356  1
  Ga  Ga16  1  0.27610497  0.17816480  0.61246125  1
  Ga  Ga17  1  0.39893494  0.52457801  0.78622574  1
  Ga  Ga18  1  0.90802254  0.72357622  0.52976348  1
  Ga  Ga19  1  0.33859658  0.47757850  0.09848725  1
  Ga  Ga20  1  0.68951174  0.12876683  0.49313776  1
  Ga  Ga21  1  0.44998538  0.28702231  0.56025560  1
  Ga  Ga22  1  0.91785419  0.53652986  0.35133581  1
  Ga  Ga23  1  0.79047367  0.18380225  0.81413324  1
  Ga  Ga24  1  0.54457501  0.46902093  0.36997789  1
  Ga  Ga25  1  0.05784628  0.76781660  0.98829002  1
  Ga  Ga26  1  0.80157574  0.60806081  0.14268309  1
  Ga  Ga27  1  0.33912371  0.71013446  0.26865763  1
  Ga  Ga28  1  0.64423520  0.81021028  0.02829351  1
  Ga  Ga29  1  0.78914461  0.12065729  0.12774114  1
  Ga  Ga30  1  0.93534775  0.45397211  0.80804638  1
  Ga  Ga31  1  0.99878331  0.22459357  0.61372199  1
  Ga  Ga32  1  0.31726456  0.96286108  0.49235376  1
  Ga  Ga33  1  0.68044957  0.63122701  0.55262853  1
  Ga  Ga34  1  0.95535867  0.75400597  0.25229860  1
  Ga  Ga35  1  0.14799021  0.52465929  0.89186038  1
  Ga  Ga36  1  0.62925356  0.42823605  0.75300080  1
  Ga  Ga37  1  0.68954937  0.90459123  0.71897537  1
  Ga  Ga38  1  0.81915143  0.64799554  0.83162066  1
  Ga  Ga39  1  0.70914264  0.83171362  0.29000790  1
  Ga  Ga40  1  0.78414499  0.40072494  0.58959373  1
  Ga  Ga41  1  0.91950996  0.31860986  0.15647330  1
  Ga  Ga42  1  0.99968903  0.06575048  0.07955168  1
  Ga  Ga43  1  0.85095478  0.00764577  0.39578914  1
  Ga  Ga44  1  0.53998432  0.53152194  0.05086625  1
  Ga  Ga45  1  0.24515228  0.78156926  0.73270075  1
  Ga  Ga46  1  0.27849627  0.74723739  0.97098213  1
  Ga  Ga47  1  0.43292307  0.69915446  0.53628563  1
  Ga  Ga48  1  0.55871916  0.13755535  0.70615482  1
  Ga  Ga49  1  0.66927607  0.35770252  0.02988360  1
  N  N0  1  0.52858741  0.54052453  0.54482895  1
  N  N1  1  0.16218487  0.00527567  0.83173039  1
  N  N2  1  0.57920324  0.85917305  0.38901070  1
  N  N3  1  0.71529159  0.07764973  0.68071996  1
  N  N4  1  0.85152274  0.82843997  0.37977132  1
  N  N5  1  0.71846942  0.72265719  0.70787002  1
  N  N6  1  0.88917696  0.30587739  0.71585382  1
  N  N7  1  0.31367109  0.78734570  0.43686716  1
  N  N8  1  0.19534234  0.06474439  0.32439498  1
  N  N9  1  0.43946123  0.31760633  0.85788437  1
  N  N10  1  0.66058219  0.22022211  0.15590997  1
  N  N11  1  0.53754905  0.56328626  0.85914541  1
  N  N12  1  0.32423704  0.62820781  0.65678903  1
  N  N13  1  0.82852696  0.56269582  0.49856843  1
  N  N14  1  0.20999390  0.33269687  0.84242148  1
  N  N15  1  0.10418435  0.93003141  0.49389159  1
  N  N16  1  0.98623707  0.37392146  0.31490118  1
  N  N17  1  0.47937242  0.95974487  0.62862565  1
  N  N18  1  0.41906794  0.35909788  0.39021274  1
  N  N19  1  0.78866917  0.72571027  0.98838334  1
  N  N20  1  0.08927662  0.65192406  0.15062168  1
  N  N21  1  0.14394984  0.56027619  0.16983351  1
  N  N22  1  0.14632755  0.97283225  0.93136558  1
  N  N23  1  0.32086663  0.81515814  0.12681015  1
  N  N24  1  0.66996654  0.66686486  0.22719201  1
  N  N25  1  0.29272408  0.55528289  0.93591345  1
  N  N26  1  0.06699033  0.53214429  0.73525515  1
  N  N27  1  0.70430664  0.94683489  0.14369657  1
  N  N28  1  0.58910415  0.68383964  0.13521118  1
  N  N29  1  0.03459089  0.42632863  0.96033161  1
  N  N30  1  0.53886741  0.86085736  0.64488574  1
  N  N31  1  0.14405711  0.27015405  0.60115781  1
  N  N32  1  0.13041626  0.14069859  0.32773889  1
  N  N33  1  0.26239742  0.55620398  0.56647362  1
  N  N34  1  0.44438513  0.08462617  0.23876259  1
  N  N35  1  0.97384176  0.87814331  0.11055950  1
  N  N36  1  0.42066597  0.25601646  0.94096832  1
  N  N37  1  0.04528771  0.35064089  0.05254879  1
  N  N38  1  0.98903746  0.04375695  0.72595117  1
  N  N39  1  0.78982963  0.42514172  0.14130072  1
  N  N40  1  0.76400505  0.29021719  0.44277499  1
  N  N41  1  0.50079046  0.44637099  0.63263677  1
  N  N42  1  0.56980171  0.76670797  0.46425748  1
  N  N43  1  0.21753248  0.23912587  0.89787568  1
  N  N44  1  0.02204024  0.97704346  0.50500558  1
  N  N45  1  0.85116626  0.07310534  0.96196321  1
  N  N46  1  0.59625811  0.87515906  0.87525949  1
  N  N47  1  0.93734292  0.96063274  0.75054698  1
  N  N48  1  0.26049614  0.32214791  0.17306397  1
  N  N49  1  0.68415848  0.30254792  0.86640345  1
loop_
_geom_bond_atom_site_label_1
_geom_bond_atom_site_label_2
_geom_bond_distance
_geom_bond_site_symmetry_2
Ga0 N18 1.989951 1_555
Ga0 N33 2.039762 1_555
Ga1 N16 2.022415 1_455
Ga1 N21 2.051378 1_555
Ga1 N48 2.142086 1_555
Ga2 N35 1.945531 1_555
Ga2 N19 1.956774 1_554
Ga2 N45 1.982189 1_564
Ga2 N27 2.238533 1_555
Ga3 N26 2.003595 1_555
Ga4 N48 1.982264 1_555
Ga4 N43 2.090796 1_554
Ga4 N37 2.263853 1_555
Ga5 N17 2.137356 1_555
Ga5 N1 2.471325 1_565
Ga6 N11 1.892277 1_555
Ga6 N46 1.936615 1_555
Ga6 N5 2.089518 1_555
Ga6 N30 2.135763 1_555
Ga7 N40 2.016744 1_555
Ga7 N16 2.017168 1_555
Ga8 N34 2.059434 1_555
Ga8 N2 2.079972 1_545
Ga8 N17 2.510770 1_545
Ga9 N10 1.951114 1_555
Ga9 N34 2.000473 1_555
Ga9 N27 2.208905 1_545
Ga10 N7 2.094725 1_555
Ga10 N33 2.160137 1_555
Ga10 N15 2.438628 1_555
Ga11 N23 1.940164 1_555
Ga11 N34 2.154662 1_565
Ga12 N18 1.901902 1_555
Ga12 N34 1.918790 1_555
Ga12 N48 1.928056 1_555
Ga13 N40 2.005556 1_555
Ga13 N10 2.031411 1_555
Ga13 N39 2.086702 1_555
Ga14 N31 1.845556 1_555
Ga14 N26 1.896476 1_555
Ga14 N33 1.929759 1_555
Ga15 N46 1.970625 1_545
Ga16 N31 1.902974 1_555
Ga17 N11 1.948526 1_555
Ga17 N12 1.984751 1_555
Ga17 N25 2.128141 1_555
Ga17 N41 2.261266 1_555
Ga17 N9 2.365688 1_555
Ga18 N13 2.023314 1_555
Ga18 N4 2.067192 1_555
Ga19 N25 2.007343 1_554
Ga19 N48 2.088550 1_555
Ga20 N40 2.035564 1_555
Ga20 N3 2.114860 1_555
Ga21 N41 1.988332 1_555
Ga21 N18 2.014837 1_555
Ga22 N16 1.960390 1_555
Ga22 N13 1.973669 1_555
Ga23 N49 1.909881 1_555
Ga23 N3 2.074332 1_555
Ga23 N6 2.090940 1_555
Ga23 N45 2.099790 1_555
Ga24 N18 1.982556 1_555
Ga24 N0 2.060583 1_555
Ga25 N35 2.062384 1_456
Ga25 N20 2.159853 1_556
Ga25 N22 2.530615 1_555
Ga26 N39 1.952196 1_555
Ga26 N24 1.983108 1_555
Ga26 N19 2.074881 1_554
Ga27 N23 1.894532 1_555
Ga27 N7 2.033997 1_555
Ga28 N46 1.874435 1_554
Ga28 N28 1.901980 1_555
Ga28 N19 2.051752 1_554
Ga28 N27 2.075712 1_555
Ga29 N10 1.934993 1_555
Ga29 N45 2.028387 1_554
Ga29 N27 2.151044 1_545
Ga30 N6 1.968488 1_555
Ga30 N26 2.015736 1_655
Ga30 N29 2.067689 1_655
Ga31 N31 1.890616 1_655
Ga31 N6 1.962987 1_555
Ga31 N38 2.263802 1_555
Ga32 N7 1.969224 1_555
Ga32 N17 2.492950 1_555
Ga32 N8 2.574300 1_565
Ga33 N5 2.011521 1_555
Ga33 N13 2.066884 1_555
Ga33 N0 2.143374 1_555
Ga33 N42 2.181418 1_555
Ga34 N35 2.026040 1_555
Ga34 N4 2.058593 1_555
Ga34 N20 2.277180 1_655
Ga35 N25 1.899232 1_555
Ga35 N29 1.921772 1_555
Ga35 N26 1.966264 1_555
Ga35 N14 2.242713 1_555
Ga36 N49 1.914085 1_555
Ga36 N41 2.061660 1_555
Ga36 N11 2.168904 1_555
Ga37 N3 1.912429 1_565
Ga37 N5 1.965957 1_555
Ga37 N46 2.085463 1_555
Ga37 N30 2.100548 1_555
Ga38 N19 1.936527 1_555
Ga38 N5 1.976352 1_555
Ga39 N24 1.957345 1_555
Ga39 N2 1.971680 1_555
Ga39 N27 1.986722 1_555
Ga39 N4 2.017359 1_555
Ga40 N40 2.007264 1_555
Ga40 N13 2.057564 1_555
Ga40 N6 2.117115 1_555
Ga41 N39 1.962569 1_555
Ga41 N37 1.971149 1_655
Ga41 N16 2.001075 1_555
Ga42 N35 2.048444 1_545
Ga42 N45 2.239012 1_554
Ga42 N22 2.633158 1_644
Ga43 N4 1.914684 1_545
Ga43 N44 2.445845 1_645
Ga44 N28 1.974870 1_555
Ga44 N11 2.097974 1_554
Ga45 N12 2.074227 1_555
Ga46 N23 1.918853 1_556
Ga46 N25 2.085160 1_555
Ga47 N42 2.023127 1_555
Ga47 N7 2.035454 1_555
Ga47 N12 2.037033 1_555
Ga47 N0 2.048485 1_555
Ga47 N30 2.489778 1_555
Ga48 N3 2.066334 1_555
Ga48 N17 2.314329 1_545
Ga49 N49 1.882663 1_554
Ga49 N10 1.989055 1_555
Ga49 N39 2.065310 1_555
N0 N41 1.419509 1_555
N1 N22 1.147560 1_545
N2 N42 1.274652 1_555
N12 N33 1.472372 1_555
N14 N43 1.155714 1_555
N15 N44 1.140463 1_555
N17 N30 1.284731 1_555
N20 N21 1.193626 1_555
N24 N28 1.418849 1_555
N29 N37 1.277197 1_556
N32 N8 1.134543 1_555
N36 N9 1.133218 1_555
N38 N47 1.133116 1_545
