# generated using pymatgen
data_Sr3P4
_symmetry_space_group_name_H-M   'P 1'
_cell_length_a   5.86718667
_cell_length_b   7.73989047
_cell_length_c   9.19430610
_cell_angle_alpha   83.05356390
_cell_angle_beta   71.39353184
_cell_angle_gamma   67.72684536
_symmetry_Int_Tables_number   1
_chemical_formula_structural   Sr3P4
_chemical_formula_sum   'Sr6 P8'
_cell_volume   366.17862612
_cell_formula_units_Z   2
loop_
 _symmetry_equiv_pos_site_id
 _symmetry_equiv_pos_as_xyz
  1  'x, y, z'
loop_
 _atom_site_type_symbol
 _atom_site_label
 _atom_site_symmetry_multiplicity
 _atom_site_fract_x
 _atom_site_fract_y
 _atom_site_fract_z
 _atom_site_occupancy
  Sr  Sr0  1  0.58216331  0.99571504  0.33670022  1
  Sr  Sr1  1  0.91457757  0.00428496  0.66329978  1
  Sr  Sr2  1  0.32785171  0.50428137  0.83671685  1
  Sr  Sr3  1  0.66885093  0.49571863  0.16328315  1
  Sr  Sr4  1  0.00415610  0.50000000  0.50000000  1
  Sr  Sr5  1  0.25419721  -0.00000000  0.00000000  1
  P  P0  1  0.42204975  0.66068706  0.49717463  1
  P  P1  1  0.57991244  0.33931294  0.50282537  1
  P  P2  1  0.83278889  0.83929059  0.99712679  1
  P  P3  1  0.66920628  0.16070941  0.00287321  1
  P  P4  1  0.34120975  0.18404820  0.65387228  1
  P  P5  1  0.17912923  0.81595180  0.34612772  1
  P  P6  1  0.74508175  0.68400269  0.84614061  1
  P  P7  1  0.27522705  0.31599731  0.15385939  1
loop_
_geom_bond_atom_site_label_1
_geom_bond_atom_site_label_2
_geom_bond_distance
_geom_bond_site_symmetry_2
P0 P5 2.228285 1_555
P0 P1 2.302335 1_555
P0 Sr0 3.133716 1_555
P0 Sr4 3.134037 1_555
P0 Sr3 3.140266 1_555
P0 Sr2 3.163688 1_555
P0 Sr4 3.168725 1_655
P0 Sr1 3.216930 1_465
P1 P4 2.228286 1_555
P1 Sr1 3.133711 1_555
P1 Sr4 3.134043 1_555
P1 Sr2 3.140266 1_555
P1 Sr3 3.163688 1_555
P1 Sr4 3.168719 1_655
P1 Sr0 3.216930 1_545
P2 P6 2.228189 1_555
P2 P3 2.302674 1_566
P2 Sr2 3.133282 1_655
P2 Sr5 3.133968 1_566
P2 Sr1 3.139796 1_565
P2 Sr0 3.164009 1_556
P2 Sr5 3.168918 1_666
P2 Sr3 3.216984 1_556
P3 P7 2.228182 1_555
P3 Sr3 3.133284 1_555
P3 Sr5 3.133968 1_555
P3 Sr0 3.139796 1_545
P3 Sr1 3.164009 1_554
P3 Sr5 3.168918 1_655
P3 Sr2 3.216987 1_554
P4 Sr4 3.029024 1_555
P4 Sr0 3.076163 1_545
P4 Sr2 3.122849 1_555
P4 Sr1 3.141505 1_555
P4 Sr1 3.268251 1_455
P4 Sr5 3.291738 1_556
P5 Sr4 3.029022 1_555
P5 Sr1 3.076163 1_465
P5 Sr3 3.122854 1_555
P5 Sr0 3.141516 1_555
P5 Sr0 3.268240 1_455
P5 Sr5 3.291738 1_565
P6 Sr5 3.029069 1_566
P6 Sr3 3.075756 1_556
P6 Sr1 3.123163 1_565
P6 Sr2 3.141368 1_655
P6 Sr2 3.268146 1_555
P6 Sr4 3.291734 1_655
P7 Sr5 3.029075 1_555
P7 Sr2 3.075757 1_554
P7 Sr0 3.123161 1_545
P7 Sr3 3.141363 1_555
P7 Sr3 3.268151 1_455
P7 Sr4 3.291734 1_555
