# generated using pymatgen
data_Sr6Ca2Co7CuO20
_symmetry_space_group_name_H-M   'P 1'
_cell_length_a   10.84592572
_cell_length_b   11.14349647
_cell_length_c   17.58140754
_cell_angle_alpha   108.17756025
_cell_angle_beta   107.82503973
_cell_angle_gamma   90.58212153
_symmetry_Int_Tables_number   1
_chemical_formula_structural   Sr6Ca2Co7CuO20
_chemical_formula_sum   'Sr24 Ca8 Co28 Cu4 O80'
_cell_volume   1908.79832607
_cell_formula_units_Z   4
loop_
 _symmetry_equiv_pos_site_id
 _symmetry_equiv_pos_as_xyz
  1  'x, y, z'
loop_
 _atom_site_type_symbol
 _atom_site_label
 _atom_site_symmetry_multiplicity
 _atom_site_fract_x
 _atom_site_fract_y
 _atom_site_fract_z
 _atom_site_occupancy
  Sr  Sr0  1  0.30728900  0.06033600  0.61066200  1
  Sr  Sr1  1  0.31231900  0.55787100  0.61338000  1
  Sr  Sr2  1  0.80937400  0.06477800  0.61265400  1
  Sr  Sr3  1  0.80748900  0.56143700  0.61314800  1
  Sr  Sr4  1  0.19587100  0.43567700  0.38809400  1
  Sr  Sr5  1  0.19759700  0.44238300  0.88996600  1
  Sr  Sr6  1  0.19567900  0.93611400  0.38593600  1
  Sr  Sr7  1  0.69556000  0.44080700  0.38741500  1
  Sr  Sr8  1  0.69440300  0.44298000  0.88862400  1
  Sr  Sr9  1  0.69534900  0.93598700  0.38622500  1
  Sr  Sr10  1  0.69816200  0.93740100  0.89035600  1
  Sr  Sr11  1  0.05701300  0.29428400  0.11242400  1
  Sr  Sr12  1  0.05992300  0.30061200  0.61230300  1
  Sr  Sr13  1  0.06074400  0.80030000  0.61242700  1
  Sr  Sr14  1  0.55607700  0.30665300  0.61244200  1
  Sr  Sr15  1  0.55353800  0.80086700  0.11050000  1
  Sr  Sr16  1  0.55978200  0.79704900  0.60985600  1
  Sr  Sr17  1  0.44186200  0.20057800  0.38537000  1
  Sr  Sr18  1  0.44804500  0.20401400  0.89050500  1
  Sr  Sr19  1  0.44563600  0.69624200  0.38500100  1
  Sr  Sr20  1  0.44214900  0.69577900  0.88750000  1
  Sr  Sr21  1  0.94356900  0.20038900  0.38486800  1
  Sr  Sr22  1  0.94401800  0.20135200  0.89063000  1
  Sr  Sr23  1  0.94664000  0.69499400  0.38481200  1
  Ca  Ca0  1  0.30386500  0.06049500  0.10788200  1
  Ca  Ca1  1  0.30266100  0.56898200  0.10715600  1
  Ca  Ca2  1  0.80194000  0.06369500  0.10768000  1
  Ca  Ca3  1  0.79886900  0.56719100  0.10803000  1
  Ca  Ca4  1  0.19981500  0.93232300  0.89710700  1
  Ca  Ca5  1  0.05861900  0.79255800  0.10795800  1
  Ca  Ca6  1  0.55534100  0.29094200  0.10903400  1
  Ca  Ca7  1  0.95865700  0.70881600  0.89531500  1
  Co  Co0  1  0.00811000  0.00023800  0.00500000  1
  Co  Co1  1  0.00120500  0.99689600  0.49466400  1
  Co  Co2  1  0.00994100  0.50586400  0.00879700  1
  Co  Co3  1  0.00635100  0.50451400  0.50805900  1
  Co  Co4  1  0.50236600  0.99906700  0.99907900  1
  Co  Co5  1  0.50334300  0.00085600  0.49851200  1
  Co  Co6  1  0.50519300  0.50344400  0.00537300  1
  Co  Co7  1  0.50447400  0.50158600  0.50197800  1
  Co  Co8  1  0.25904300  0.25247500  0.00697000  1
  Co  Co9  1  0.25315200  0.25050200  0.50277500  1
  Co  Co10  1  0.25309200  0.75107300  0.00127800  1
  Co  Co11  1  0.25580400  0.75044000  0.50308700  1
  Co  Co12  1  0.75836600  0.25647400  0.01128500  1
  Co  Co13  1  0.74984200  0.24928300  0.49584400  1
  Co  Co14  1  0.75667900  0.74993300  0.99953800  1
  Co  Co15  1  0.75518800  0.75055800  0.50066000  1
  Co  Co16  1  0.10530300  0.08579000  0.24312100  1
  Co  Co17  1  0.11378800  0.08890400  0.75555900  1
  Co  Co18  1  0.10685400  0.59293700  0.24474900  1
  Co  Co19  1  0.60728600  0.09555000  0.24580400  1
  Co  Co20  1  0.60999900  0.09102300  0.74970400  1
  Co  Co21  1  0.60591200  0.58777800  0.24276000  1
  Co  Co22  1  0.35908400  0.40534600  0.24447600  1
  Co  Co23  1  0.35419400  0.90418200  0.24545600  1
  Co  Co24  1  0.85249000  0.40419200  0.24380400  1
  Co  Co25  1  0.86765300  0.41131500  0.75450400  1
  Co  Co26  1  0.86018400  0.90549900  0.24599700  1
  Co  Co27  1  0.86581600  0.90270900  0.75336800  1
  Cu  Cu0  1  0.10781700  0.59976300  0.75354300  1
  Cu  Cu1  1  0.62302200  0.60401100  0.75279600  1
  Cu  Cu2  1  0.36225400  0.40264800  0.75213100  1
  Cu  Cu3  1  0.35792600  0.90446100  0.75342300  1
  O  O0  1  0.11953700  0.11655700  0.49474500  1
  O  O1  1  0.13405800  0.12621600  0.99291900  1
  O  O2  1  0.12076300  0.61508100  0.49459700  1
  O  O3  1  0.12259900  0.62849000  0.99129500  1
  O  O4  1  0.61997300  0.12013900  0.49394000  1
  O  O5  1  0.63235800  0.13396400  0.99557100  1
  O  O6  1  0.62535000  0.62305700  0.49220900  1
  O  O7  1  0.63231600  0.63315800  0.99692500  1
  O  O8  1  0.12839000  0.38757400  0.01181100  1
  O  O9  1  0.13011200  0.36996000  0.50366300  1
  O  O10  1  0.13441400  0.88228100  0.01379900  1
  O  O11  1  0.13286100  0.87205400  0.50435300  1
  O  O12  1  0.63246500  0.38512600  0.01574900  1
  O  O13  1  0.63062700  0.37365700  0.50453900  1
  O  O14  1  0.63158700  0.89106300  0.01119500  1
  O  O15  1  0.63604000  0.87574500  0.50564700  1
  O  O16  1  0.36925500  0.12393100  0.49292900  1
  O  O17  1  0.38187400  0.11559900  0.99503700  1
  O  O18  1  0.37237100  0.62370000  0.49357400  1
  O  O19  1  0.37406900  0.61909900  0.99653200  1
  O  O20  1  0.87063800  0.12499400  0.49411500  1
  O  O21  1  0.87592600  0.11536200  0.99405000  1
  O  O22  1  0.87335600  0.62708600  0.49276200  1
  O  O23  1  0.88212500  0.61365400  0.99665100  1
  O  O24  1  0.37860000  0.37611700  0.01406700  1
  O  O25  1  0.37741400  0.37716600  0.50338900  1
  O  O26  1  0.37742600  0.88278600  0.01208200  1
  O  O27  1  0.38570300  0.88258000  0.50339700  1
  O  O28  1  0.87604100  0.37812900  0.01362400  1
  O  O29  1  0.88050400  0.38201300  0.50222700  1
  O  O30  1  0.88262700  0.87375700  0.01287300  1
  O  O31  1  0.88446200  0.88328500  0.50345000  1
  O  O32  1  0.09222500  0.09143900  0.13874200  1
  O  O33  1  0.08828500  0.09036900  0.64835200  1
  O  O34  1  0.09295000  0.60154300  0.13925500  1
  O  O35  1  0.06887800  0.58148600  0.63611400  1
  O  O36  1  0.59076000  0.10188100  0.14102000  1
  O  O37  1  0.58311000  0.09575500  0.64277500  1
  O  O38  1  0.58957000  0.59606000  0.13854400  1
  O  O39  1  0.57743300  0.58633100  0.63710400  1
  O  O40  1  0.43702200  0.41053700  0.35297000  1
  O  O41  1  0.43897400  0.41570600  0.86658100  1
  O  O42  1  0.43570600  0.91175900  0.35541100  1
  O  O43  1  0.44292700  0.90942400  0.86687100  1
  O  O44  1  0.93344800  0.40918500  0.35129100  1
  O  O45  1  0.93905700  0.40502800  0.85916800  1
  O  O46  1  0.93907100  0.91091100  0.35669200  1
  O  O47  1  0.94870600  0.89909000  0.86029200  1
  O  O48  1  0.33620700  0.28452800  0.14008700  1
  O  O49  1  0.32329400  0.30072900  0.63830500  1
  O  O50  1  0.33075000  0.78891000  0.14116500  1
  O  O51  1  0.32403400  0.79787500  0.64019100  1
  O  O52  1  0.83470800  0.28411300  0.14061600  1
  O  O53  1  0.83740000  0.30897800  0.64729700  1
  O  O54  1  0.84237800  0.78868800  0.14339500  1
  O  O55  1  0.83577000  0.80009600  0.64507700  1
  O  O56  1  0.18187900  0.19004000  0.35127200  1
  O  O57  1  0.19288900  0.20731800  0.85882900  1
  O  O58  1  0.18242000  0.69635300  0.35320400  1
  O  O59  1  0.18727200  0.71047300  0.86824200  1
  O  O60  1  0.68256500  0.19868600  0.35519800  1
  O  O61  1  0.68878500  0.20614800  0.85305000  1
  O  O62  1  0.68453300  0.69316200  0.35063900  1
  O  O63  1  0.70097400  0.70175900  0.86866700  1
  O  O64  1  0.42611700  0.05898300  0.23932300  1
  O  O65  1  0.43881500  0.06015300  0.75110900  1
  O  O66  1  0.42492200  0.56089400  0.23706600  1
  O  O67  1  0.45660500  0.55013800  0.75283400  1
  O  O68  1  0.92513900  0.06158100  0.23846600  1
  O  O69  1  0.93722100  0.06196400  0.75325800  1
  O  O70  1  0.92570700  0.55840400  0.23684700  1
  O  O71  1  0.93625100  0.57383500  0.76040700  1
  O  O72  1  0.18486500  0.43900800  0.24694100  1
  O  O73  1  0.19276200  0.44899800  0.75185800  1
  O  O74  1  0.17431800  0.92572400  0.24049900  1
  O  O75  1  0.18136300  0.93631300  0.76210000  1
  O  O76  1  0.67316300  0.42683200  0.23973800  1
  O  O77  1  0.70117500  0.44916800  0.75138400  1
  O  O78  1  0.68582100  0.94026700  0.24714300  1
  O  O79  1  0.68834400  0.93680200  0.75154200  1
loop_
_geom_bond_atom_site_label_1
_geom_bond_atom_site_label_2
_geom_bond_distance
_geom_bond_site_symmetry_2
Ca0 O64 2.290753 1_555
Ca0 O48 2.377996 1_555
Ca0 O10 2.464306 1_545
Ca0 O26 2.483696 1_545
Ca0 O32 2.518752 1_555
Ca0 O1 2.585642 1_554
Ca0 O17 2.608886 1_554
Ca0 O36 2.987935 1_555
Ca1 O66 2.293425 1_555
Ca1 O50 2.327146 1_555
Ca1 O19 2.507107 1_554
Ca1 O34 2.509661 1_555
Ca1 O8 2.517422 1_555
Ca1 O24 2.577318 1_555
Ca1 O3 2.614704 1_554
Ca1 O38 2.984048 1_555
Ca2 O68 2.286187 1_555
Ca2 O52 2.337419 1_555
Ca2 O14 2.442321 1_545
Ca2 O36 2.541048 1_555
Ca2 O5 2.579500 1_554
Ca2 O21 2.579969 1_554
Ca2 O30 2.598762 1_545
Ca3 O70 2.294553 1_555
Ca3 O54 2.353873 1_555
Ca3 O12 2.466770 1_555
Ca3 O38 2.489404 1_555
Ca3 O7 2.526228 1_554
Ca3 O28 2.568795 1_555
Ca3 O23 2.573644 1_554
Ca4 O75 2.334796 1_555
Ca4 O59 2.357089 1_555
Ca4 O26 2.536839 1_556
Ca4 O1 2.551584 1_565
Ca4 O10 2.572927 1_556
Ca4 O17 2.584041 1_565
Ca4 O47 2.593127 1_455
Ca4 O43 2.843847 1_555
Ca5 O74 2.285009 1_555
Ca5 O34 2.365097 1_555
Ca5 O10 2.503023 1_555
Ca5 O30 2.506430 1_455
Ca5 O3 2.566831 1_554
Ca5 O23 2.581334 1_454
Ca5 O54 2.607666 1_455
Ca5 O50 2.831292 1_555
Ca6 O76 2.280008 1_555
Ca6 O36 2.350708 1_555
Ca6 O12 2.527281 1_555
Ca6 O24 2.535639 1_555
Ca6 O17 2.558880 1_554
Ca6 O5 2.570949 1_554
Ca6 O48 2.601391 1_555
Ca6 O52 2.914789 1_555
Ca7 O71 2.315396 1_555
Ca7 O47 2.380148 1_555
Ca7 O3 2.438894 1_655
Ca7 O10 2.586764 1_656
Ca7 O30 2.652193 1_556
Ca7 O23 2.655941 1_555
Ca7 O59 2.664983 1_655
Ca7 O63 2.684689 1_555
Co0 O10 1.913640 1_545
Co0 O21 1.939258 1_454
Co0 O30 2.013958 1_445
Co0 O1 2.050998 1_554
Co0 O32 2.137981 1_555
Co0 O47 2.313194 1_444
Co1 O0 1.840695 1_565
Co1 O31 1.854479 1_455
Co1 O11 2.010642 1_555
Co1 O20 2.020998 1_465
Co1 O46 2.189145 1_455
Co1 O33 2.437138 1_565
Co2 O23 1.850080 1_454
Co2 O8 1.851244 1_555
Co2 O3 1.978272 1_554
Co2 O28 2.061848 1_455
Co2 O34 2.097278 1_555
Co2 O45 2.382039 1_454
Co3 O2 1.855971 1_555
Co3 O29 1.877801 1_455
Co3 O22 2.012550 1_455
Co3 O9 2.021896 1_555
Co3 O35 2.028037 1_555
Co3 O44 2.484398 1_455
Co4 O17 1.853213 1_565
Co4 O14 1.862688 1_556
Co4 O26 1.976455 1_556
Co4 O5 2.078287 1_565
Co4 O43 2.106448 1_555
Co4 O36 2.277820 1_566
Co5 O4 1.862307 1_555
Co5 O27 1.864410 1_545
Co5 O16 2.010659 1_555
Co5 O15 2.017468 1_545
Co5 O42 2.269466 1_545
Co5 O37 2.294419 1_555
Co6 O12 1.926135 1_555
Co6 O19 1.932513 1_554
Co6 O24 2.036160 1_555
Co6 O7 2.057004 1_554
Co6 O38 2.132102 1_555
Co6 O41 2.202353 1_554
Co7 O25 1.955915 1_555
Co7 O6 1.956365 1_555
Co7 O13 1.987048 1_555
Co7 O18 1.990442 1_555
Co7 O39 2.143842 1_555
Co7 O40 2.362406 1_555
Co8 O24 1.831049 1_555
Co8 O1 1.848659 1_554
Co8 O17 2.039125 1_554
Co8 O8 2.078215 1_555
Co8 O48 2.139767 1_555
Co8 O57 2.362717 1_554
Co9 O9 1.894469 1_555
Co9 O16 1.903213 1_555
Co9 O25 1.936935 1_555
Co9 O0 2.011781 1_555
Co9 O49 2.149240 1_555
Co9 O56 2.399076 1_555
Co10 O3 1.886515 1_554
Co10 O26 1.907318 1_555
Co10 O10 1.963149 1_555
Co10 O19 1.980172 1_554
Co10 O59 2.120376 1_554
Co10 O50 2.239078 1_555
Co11 O18 1.907720 1_555
Co11 O11 1.910807 1_555
Co11 O27 2.025181 1_555
Co11 O2 2.030626 1_555
Co11 O51 2.177715 1_555
Co11 O58 2.378242 1_555
Co12 O5 1.817545 1_554
Co12 O28 1.834766 1_555
Co12 O12 1.990296 1_555
Co12 O21 2.042118 1_554
Co12 O52 2.087086 1_555
Co12 O61 2.521139 1_554
Co13 O13 1.908228 1_555
Co13 O20 1.915894 1_555
Co13 O4 1.988988 1_555
Co13 O29 1.991245 1_555
Co13 O60 2.232031 1_555
Co13 O53 2.401771 1_555
Co14 O30 1.840845 1_556
Co14 O7 1.844964 1_555
Co14 O23 2.048448 1_555
Co14 O63 2.078222 1_555
Co14 O14 2.090110 1_556
Co14 O54 2.306174 1_556
Co15 O22 1.892246 1_555
Co15 O15 1.911391 1_555
Co15 O6 1.929603 1_555
Co15 O31 2.006574 1_555
Co15 O55 2.296189 1_555
Co15 O62 2.377647 1_555
Co16 O56 1.813894 1_555
Co16 O32 1.817878 1_555
Co16 O74 1.934152 1_545
Co16 O68 1.943032 1_455
Co17 O57 1.817223 1_555
Co17 O33 1.824703 1_555
Co17 O75 1.880815 1_545
Co17 O69 1.921567 1_455
Co18 O58 1.813464 1_555
Co18 O34 1.847162 1_555
Co18 O72 1.926246 1_555
Co18 O70 1.952340 1_455
Co19 O36 1.819390 1_555
Co19 O60 1.824003 1_555
Co19 O78 1.939961 1_545
Co19 O64 1.964109 1_555
Co20 O61 1.802830 1_555
Co20 O37 1.829916 1_555
Co20 O65 1.893804 1_555
Co20 O79 1.929777 1_545
Co21 O62 1.817512 1_555
Co21 O38 1.817729 1_555
Co21 O76 1.934514 1_555
Co21 O66 1.949919 1_555
Co22 O40 1.816418 1_555
Co22 O48 1.848044 1_555
Co22 O66 1.924596 1_555
Co22 O72 1.940990 1_555
Co23 O50 1.820742 1_555
Co23 O42 1.837432 1_555
Co23 O64 1.932887 1_565
Co23 O74 1.946739 1_555
Co24 O44 1.806336 1_555
Co24 O52 1.839815 1_555
Co24 O70 1.939472 1_555
Co24 O76 1.946217 1_555
Co25 O45 1.788814 1_555
Co25 O53 1.798185 1_555
Co25 O77 1.846736 1_555
Co25 O71 1.911091 1_555
Co26 O54 1.817213 1_555
Co26 O46 1.851908 1_555
Co26 O68 1.927409 1_565
Co26 O78 1.939130 1_555
Co27 O55 1.814618 1_555
Co27 O47 1.832251 1_555
Co27 O69 1.929850 1_565
Co27 O79 1.958327 1_555
Cu0 O35 1.919470 1_555
Cu0 O73 1.920770 1_555
Cu0 O59 1.921834 1_555
Cu0 O71 1.925850 1_455
Cu1 O39 1.884895 1_555
Cu1 O63 1.895704 1_555
Cu1 O67 1.896629 1_555
Cu1 O77 1.926736 1_555
Cu2 O49 1.878237 1_555
Cu2 O41 1.884745 1_555
Cu2 O73 1.913524 1_555
Cu2 O67 1.921984 1_555
Cu3 O51 1.891261 1_555
Cu3 O43 1.906747 1_555
Cu3 O65 1.953552 1_565
Cu3 O75 1.993821 1_555
O0 Sr0 2.640905 1_555
O0 Sr6 2.643055 1_545
O0 Sr12 2.663968 1_555
O0 Sr21 2.674326 1_455
O1 Sr22 2.624649 1_455
O1 Sr11 2.696645 1_556
O2 Sr4 2.607265 1_555
O2 Sr23 2.638190 1_455
O2 Sr13 2.675916 1_555
O2 Sr1 2.699155 1_555
O3 Sr5 2.598595 1_555
O4 Sr9 2.650109 1_545
O4 Sr17 2.650289 1_555
O4 Sr2 2.675983 1_555
O4 Sr14 2.711503 1_555
O5 Sr18 2.586183 1_555
O5 Sr10 2.653501 1_545
O6 Sr7 2.579678 1_555
O6 Sr19 2.599846 1_555
O6 Sr16 2.640007 1_555
O6 Sr3 2.694804 1_555
O7 Sr8 2.620402 1_555
O7 Sr20 2.622927 1_555
O7 Sr15 2.637908 1_556
O8 Sr11 2.603552 1_555
O8 Sr5 2.704987 1_554
O8 Sr22 2.719022 1_454
O9 Sr12 2.573746 1_555
O9 Sr21 2.626622 1_455
O9 Sr4 2.641671 1_555
O9 Sr1 2.659513 1_555
O11 Sr13 2.589712 1_555
O11 Sr0 2.604295 1_565
O11 Sr6 2.663467 1_555
O11 Sr23 2.668782 1_455
O12 Sr18 2.715040 1_554
O12 Sr8 2.769791 1_554
O13 Sr14 2.573095 1_555
O13 Sr3 2.624388 1_555
O13 Sr17 2.659616 1_555
O13 Sr7 2.671099 1_555
O14 Sr15 2.599514 1_555
O14 Sr10 2.630146 1_554
O14 Sr20 2.812010 1_554
O15 Sr16 2.593319 1_555
O15 Sr2 2.606254 1_565
O15 Sr9 2.640130 1_555
O15 Sr19 2.711473 1_555
O16 Sr6 2.599711 1_545
O16 Sr17 2.613707 1_555
O16 Sr0 2.644934 1_555
O16 Sr14 2.703131 1_555
O17 Sr18 2.605047 1_555
O18 Sr19 2.609026 1_555
O18 Sr4 2.610451 1_555
O18 Sr16 2.637202 1_555
O18 Sr1 2.682041 1_555
O19 Sr5 2.545106 1_555
O19 Sr20 2.612612 1_555
O19 Sr15 2.627995 1_556
O20 Sr9 2.620443 1_545
O20 Sr21 2.635184 1_555
O20 Sr2 2.635613 1_555
O20 Sr12 2.670536 1_655
O21 Sr10 2.547206 1_545
O21 Sr22 2.581575 1_555
O21 Sr11 2.644446 1_656
O22 Sr23 2.571750 1_555
O22 Sr7 2.605997 1_555
O22 Sr13 2.655449 1_655
O22 Sr3 2.721489 1_555
O23 Sr8 2.582626 1_555
O24 Sr18 2.719616 1_554
O24 Sr5 2.751752 1_554
O25 Sr1 2.593859 1_555
O25 Sr14 2.597064 1_555
O25 Sr4 2.611166 1_555
O25 Sr17 2.652283 1_555
O26 Sr15 2.544273 1_555
O26 Sr20 2.784992 1_554
O27 Sr0 2.624673 1_565
O27 Sr16 2.638658 1_555
O27 Sr6 2.656350 1_555
O27 Sr19 2.688153 1_555
O28 Sr11 2.589481 1_655
O28 Sr22 2.729091 1_554
O28 Sr8 2.757223 1_554
O29 Sr7 2.626854 1_555
O29 Sr3 2.640593 1_555
O29 Sr21 2.666106 1_555
O29 Sr12 2.679640 1_655
O30 Sr10 2.736633 1_554
O31 Sr9 2.644088 1_555
O31 Sr2 2.647239 1_565
O31 Sr13 2.660880 1_655
O31 Sr23 2.714272 1_555
O32 Sr11 2.455869 1_555
O33 Sr12 2.609016 1_555
O33 Sr0 2.652276 1_555
O33 Sr2 2.886969 1_455
O33 Sr13 3.086668 1_545
O35 Sr13 2.596580 1_555
O35 Sr3 2.735002 1_455
O35 Sr1 2.791955 1_555
O35 Sr12 3.022001 1_555
O37 Sr14 2.567837 1_555
O37 Sr2 2.668468 1_555
O37 Sr0 2.868232 1_555
O37 Sr16 3.189045 1_545
O38 Sr15 2.491347 1_555
O39 Sr16 2.536675 1_555
O39 Sr3 2.657966 1_555
O39 Sr1 2.776183 1_555
O39 Sr14 3.005912 1_555
O40 Sr17 2.572367 1_555
O40 Sr7 2.675276 1_555
O40 Sr4 2.862949 1_555
O40 Sr19 3.050449 1_555
O41 Sr18 2.519898 1_555
O41 Sr8 2.677606 1_555
O41 Sr5 2.776622 1_555
O41 Sr20 3.025051 1_555
O42 Sr19 2.607772 1_555
O42 Sr9 2.693679 1_555
O42 Sr6 2.813851 1_555
O42 Sr17 3.091398 1_565
O43 Sr20 2.517896 1_555
O43 Sr10 2.670826 1_555
O43 Sr18 3.175434 1_565
O44 Sr21 2.568395 1_555
O44 Sr4 2.709805 1_655
O44 Sr7 2.840176 1_555
O44 Sr23 3.046221 1_555
O45 Sr22 2.495557 1_555
O45 Sr5 2.689900 1_655
O45 Sr8 2.866282 1_555
O46 Sr23 2.600323 1_555
O46 Sr6 2.665917 1_655
O46 Sr9 2.846046 1_555
O46 Sr21 3.104598 1_565
O47 Sr10 2.933928 1_555
O48 Sr11 2.925045 1_555
O49 Sr0 2.563007 1_555
O49 Sr14 2.702527 1_555
O49 Sr12 2.751122 1_555
O49 Sr1 3.029113 1_555
O50 Sr15 2.642531 1_555
O51 Sr1 2.561456 1_555
O51 Sr13 2.747726 1_555
O51 Sr16 2.766692 1_555
O51 Sr0 3.123623 1_565
O52 Sr11 2.614018 1_655
O53 Sr2 2.589257 1_555
O53 Sr12 2.662687 1_655
O53 Sr14 2.920588 1_555
O53 Sr3 3.055057 1_555
O54 Sr15 3.019161 1_555
O55 Sr3 2.535480 1_555
O55 Sr13 2.672376 1_655
O55 Sr16 2.862644 1_555
O55 Sr2 3.173740 1_565
O56 Sr4 2.600093 1_555
O56 Sr17 2.690472 1_555
O56 Sr21 2.817987 1_455
O56 Sr6 3.070717 1_545
O57 Sr5 2.499853 1_555
O57 Sr18 2.653551 1_555
O57 Sr22 2.923420 1_455
O58 Sr6 2.544102 1_555
O58 Sr19 2.736047 1_555
O58 Sr23 2.779043 1_455
O58 Sr4 3.146625 1_555
O59 Sr20 2.693324 1_555
O59 Sr5 3.126638 1_555
O60 Sr7 2.571029 1_555
O60 Sr21 2.715648 1_555
O60 Sr17 2.817676 1_555
O60 Sr9 3.137620 1_545
O61 Sr8 2.510670 1_555
O61 Sr22 2.647228 1_555
O61 Sr18 2.883218 1_555
O62 Sr9 2.572846 1_555
O62 Sr23 2.718155 1_555
O62 Sr19 2.833187 1_555
O62 Sr7 3.071531 1_555
O63 Sr10 2.534870 1_555
O63 Sr20 2.928046 1_555
O63 Sr8 3.014359 1_555
O64 Sr17 2.512011 1_555
O65 Sr0 2.445173 1_555
O65 Sr18 2.445714 1_555
O66 Sr19 2.505560 1_555
O67 Sr20 2.469646 1_555
O67 Sr1 2.500650 1_555
O68 Sr21 2.500485 1_555
O69 Sr22 2.408170 1_555
O69 Sr2 2.446480 1_555
O70 Sr23 2.509310 1_555
O71 Sr3 2.496348 1_555
O72 Sr11 2.384124 1_555
O72 Sr4 2.459778 1_555
O73 Sr5 2.436763 1_555
O73 Sr12 2.466996 1_555
O74 Sr6 2.461163 1_555
O75 Sr13 2.509364 1_555
O76 Sr7 2.487011 1_555
O77 Sr8 2.458518 1_555
O77 Sr14 2.478132 1_555
O78 Sr15 2.399802 1_555
O78 Sr9 2.431131 1_555
O79 Sr10 2.407979 1_555
O79 Sr16 2.446173 1_555
