# generated using pymatgen
data_Mg6WC
_symmetry_space_group_name_H-M   'P 1'
_cell_length_a   4.83207000
_cell_length_b   5.42308600
_cell_length_c   10.74875000
_cell_angle_alpha   90.00000000
_cell_angle_beta   90.00000000
_cell_angle_gamma   90.00000000
_symmetry_Int_Tables_number   1
_chemical_formula_structural   Mg6WC
_chemical_formula_sum   'Mg12 W2 C2'
_cell_volume   281.66810414
_cell_formula_units_Z   2
loop_
 _symmetry_equiv_pos_site_id
 _symmetry_equiv_pos_as_xyz
  1  'x, y, z'
loop_
 _atom_site_type_symbol
 _atom_site_label
 _atom_site_symmetry_multiplicity
 _atom_site_fract_x
 _atom_site_fract_y
 _atom_site_fract_z
 _atom_site_occupancy
  Mg  Mg0  1  0.50000000  0.24876300  0.43086800  1
  Mg  Mg1  1  0.50000000  0.75123700  0.43086800  1
  Mg  Mg2  1  0.00000000  0.75672300  0.07862700  1
  Mg  Mg3  1  0.00000000  0.24327700  0.07862700  1
  Mg  Mg4  1  0.00000000  0.00000000  0.32450600  1
  Mg  Mg5  1  0.00000000  0.50000000  0.30607400  1
  Mg  Mg6  1  0.50000000  0.74876300  0.93086800  1
  Mg  Mg7  1  0.50000000  0.25123700  0.93086800  1
  Mg  Mg8  1  0.00000000  0.25672300  0.57862700  1
  Mg  Mg9  1  0.00000000  0.74327700  0.57862700  1
  Mg  Mg10  1  0.00000000  0.50000000  0.82450600  1
  Mg  Mg11  1  0.00000000  0.00000000  0.80607400  1
  W  W0  1  0.50000000  0.00000000  0.18148500  1
  W  W1  1  0.50000000  0.50000000  0.68148500  1
  C  C0  1  0.50000000  0.50000000  0.16894100  1
  C  C1  1  0.50000000  0.00000000  0.66894100  1
loop_
_geom_bond_atom_site_label_1
_geom_bond_atom_site_label_2
_geom_bond_distance
_geom_bond_site_symmetry_2
Mg0 Mg1 2.698126 1_545
Mg0 Mg1 2.724960 1_555
Mg0 Mg8 2.891634 1_555
Mg0 Mg8 2.891634 1_655
Mg0 Mg4 2.994033 1_655
Mg0 Mg4 2.994033 1_555
Mg0 W0 3.000891 1_555
Mg0 W1 3.018777 1_555
Mg0 Mg5 3.081051 1_555
Mg0 Mg5 3.081051 1_655
Mg1 Mg9 2.891634 1_555
Mg1 Mg9 2.891634 1_655
Mg1 Mg4 2.994033 1_565
Mg1 Mg4 2.994033 1_665
Mg1 W0 3.000891 1_565
Mg1 W1 3.018777 1_555
Mg1 Mg5 3.081051 1_655
Mg1 Mg5 3.081051 1_555
Mg2 Mg3 2.638624 1_565
Mg2 Mg3 2.784462 1_555
Mg2 Mg5 2.813399 1_555
Mg2 Mg6 2.891634 1_454
Mg2 Mg6 2.891634 1_554
Mg2 Mg4 2.953889 1_565
Mg2 W0 2.966505 1_465
Mg2 W0 2.966505 1_565
Mg3 Mg5 2.813399 1_555
Mg3 Mg7 2.891634 1_454
Mg3 Mg7 2.891634 1_554
Mg3 Mg4 2.953889 1_555
Mg3 W0 2.966505 1_455
Mg3 W0 2.966505 1_555
Mg4 W0 2.863653 1_555
Mg4 W0 2.863653 1_455
Mg4 Mg9 3.065829 1_545
Mg4 Mg8 3.065829 1_555
Mg5 Mg8 3.212968 1_555
Mg5 Mg9 3.212968 1_555
Mg6 Mg7 2.698126 1_555
Mg6 Mg7 2.724960 1_565
Mg6 W1 3.000891 1_555
Mg6 W0 3.018777 1_566
Mg7 W1 3.000891 1_555
Mg7 W0 3.018777 1_556
Mg8 Mg9 2.638624 1_555
Mg8 Mg9 2.784462 1_545
Mg8 W1 2.966505 1_555
Mg8 W1 2.966505 1_455
Mg9 W1 2.966505 1_555
Mg9 W1 2.966505 1_455
Mg10 W1 2.863653 1_555
Mg10 W1 2.863653 1_455
Mg10 Mg8 2.953889 1_555
Mg10 Mg9 2.953889 1_555
Mg10 Mg6 2.994033 1_455
Mg10 Mg6 2.994033 1_555
Mg10 Mg7 2.994033 1_455
Mg10 Mg7 2.994033 1_555
Mg10 Mg2 3.065829 1_556
Mg10 Mg3 3.065829 1_556
Mg11 Mg9 2.813399 1_545
Mg11 Mg8 2.813399 1_555
Mg11 Mg7 3.081051 1_455
Mg11 Mg6 3.081051 1_545
Mg11 Mg7 3.081051 1_555
Mg11 Mg6 3.081051 1_445
Mg11 Mg3 3.212968 1_556
Mg11 Mg2 3.212968 1_546
C0 W0 2.714893 1_565
C0 W0 2.714893 1_555
C0 Mg5 2.830181 1_555
C0 Mg5 2.830181 1_655
C0 Mg7 2.892816 1_554
C0 Mg6 2.892816 1_554
C0 Mg2 2.952611 1_655
C0 Mg2 2.952611 1_555
C0 Mg3 2.952611 1_555
C0 Mg3 2.952611 1_655
C1 W1 2.714893 1_555
C1 W1 2.714893 1_545
C1 Mg11 2.830181 1_555
C1 Mg11 2.830181 1_655
C1 Mg0 2.892816 1_555
C1 Mg1 2.892816 1_545
C1 Mg8 2.952611 1_655
C1 Mg8 2.952611 1_555
C1 Mg9 2.952611 1_645
C1 Mg9 2.952611 1_545
