# generated using pymatgen
data_PrYMg4
_symmetry_space_group_name_H-M   'P 1'
_cell_length_a   6.09951608
_cell_length_b   6.09951608
_cell_length_c   6.09951608
_cell_angle_alpha   60.00000000
_cell_angle_beta   60.00000000
_cell_angle_gamma   60.00000000
_symmetry_Int_Tables_number   1
_chemical_formula_structural   PrYMg4
_chemical_formula_sum   'Pr1 Y1 Mg4'
_cell_volume   160.46160919
_cell_formula_units_Z   1
loop_
 _symmetry_equiv_pos_site_id
 _symmetry_equiv_pos_as_xyz
  1  'x, y, z'
loop_
 _atom_site_type_symbol
 _atom_site_label
 _atom_site_symmetry_multiplicity
 _atom_site_fract_x
 _atom_site_fract_y
 _atom_site_fract_z
 _atom_site_occupancy
  Pr  Pr0  1  -0.00000000  -0.00000000  -0.00000000  1
  Y  Y0  1  0.25000000  0.25000000  0.25000000  1
  Mg  Mg0  1  0.62489851  0.62489851  0.12530446  1
  Mg  Mg1  1  0.62489851  0.12530446  0.62489851  1
  Mg  Mg2  1  0.12530446  0.62489851  0.62489851  1
  Mg  Mg3  1  0.62489851  0.62489851  0.62489851  1
loop_
_geom_bond_atom_site_label_1
_geom_bond_atom_site_label_2
_geom_bond_distance
_geom_bond_site_symmetry_2
Pr0 Y0 3.735176 1_554
Pr0 Y0 3.735176 1_455
Pr0 Y0 3.735176 1_545
Pr0 Y0 3.735176 1_555
Mg0 Mg2 3.047282 1_555
Mg0 Mg1 3.047282 1_555
Mg0 Mg3 3.047282 1_555
Mg0 Mg1 3.052234 1_564
Mg0 Mg3 3.052234 1_554
Mg0 Mg2 3.052234 1_654
Mg0 Y0 3.575895 1_555
Mg0 Y0 3.575895 1_565
Mg0 Y0 3.575895 1_655
Mg0 Pr0 3.576423 1_565
Mg0 Pr0 3.576423 1_655
Mg0 Pr0 3.576423 1_665
Mg1 Mg2 3.047282 1_555
Mg1 Mg3 3.047282 1_555
Mg1 Mg3 3.052234 1_545
Mg1 Mg2 3.052234 1_645
Mg1 Y0 3.575895 1_555
Mg1 Y0 3.575895 1_655
Mg1 Y0 3.575895 1_556
Mg1 Pr0 3.576423 1_556
Mg1 Pr0 3.576423 1_655
Mg1 Pr0 3.576423 1_656
Mg2 Mg3 3.047282 1_555
Mg2 Mg3 3.052234 1_455
Mg2 Y0 3.575895 1_555
Mg2 Y0 3.575895 1_556
Mg2 Y0 3.575895 1_565
Mg2 Pr0 3.576423 1_556
Mg2 Pr0 3.576423 1_565
Mg2 Pr0 3.576423 1_566
Mg3 Y0 3.575895 1_655
Mg3 Y0 3.575895 1_556
Mg3 Y0 3.575895 1_565
Mg3 Pr0 3.576423 1_656
Mg3 Pr0 3.576423 1_665
Mg3 Pr0 3.576423 1_566
