# generated using pymatgen
data_Ca3(ClO3)2
_symmetry_space_group_name_H-M   'P 1'
_cell_length_a   6.48926222
_cell_length_b   6.48926222
_cell_length_c   5.82738100
_cell_angle_alpha   90.00000000
_cell_angle_beta   90.00000000
_cell_angle_gamma   120.00000226
_symmetry_Int_Tables_number   1
_chemical_formula_structural   Ca3(ClO3)2
_chemical_formula_sum   'Ca3 Cl2 O6'
_cell_volume   212.51749244
_cell_formula_units_Z   1
loop_
 _symmetry_equiv_pos_site_id
 _symmetry_equiv_pos_as_xyz
  1  'x, y, z'
loop_
 _atom_site_type_symbol
 _atom_site_label
 _atom_site_symmetry_multiplicity
 _atom_site_fract_x
 _atom_site_fract_y
 _atom_site_fract_z
 _atom_site_occupancy
  Ca  Ca0  1  0.32734900  0.32734900  0.01311600  1
  Ca  Ca1  1  0.67265100  0.00000000  0.01311600  1
  Ca  Ca2  1  0.00000000  0.67265100  0.01311600  1
  Cl  Cl0  1  0.33333300  0.66666700  0.50795500  1
  Cl  Cl1  1  0.66666700  0.33333300  0.50795500  1
  O  O0  1  0.00000000  0.00000000  0.85030800  1
  O  O1  1  0.33333300  0.66666700  0.79084000  1
  O  O2  1  0.66666700  0.33333300  0.79084000  1
  O  O3  1  0.66181500  0.66181500  0.14664700  1
  O  O4  1  0.33818500  0.00000000  0.14664700  1
  O  O5  1  0.00000000  0.33818500  0.14664700  1
loop_
_geom_bond_atom_site_label_1
_geom_bond_atom_site_label_2
_geom_bond_distance
_geom_bond_site_symmetry_2
Ca0 O4 2.296141 1_555
Ca0 O5 2.296141 1_555
Ca0 O3 2.305709 1_555
Ca0 O0 2.326493 1_554
Ca0 O2 2.538157 1_554
Ca0 O1 2.538157 1_554
Ca1 O5 2.296141 1_655
Ca1 O3 2.296141 1_545
Ca1 O4 2.305709 1_555
Ca1 O0 2.326493 1_654
Ca1 O2 2.538151 1_554
Ca1 O1 2.538154 1_544
Ca2 O4 2.296141 1_565
Ca2 O3 2.296141 1_455
Ca2 O5 2.305709 1_555
Ca2 O0 2.326493 1_564
Ca2 O1 2.538151 1_554
Ca2 O2 2.538154 1_454
Cl0 O1 1.648479 1_555
Cl1 O2 1.648479 1_555
