# generated using pymatgen
data_VCoP
_symmetry_space_group_name_H-M   'P 1'
_cell_length_a   3.54572234
_cell_length_b   5.82624684
_cell_length_c   6.62373863
_cell_angle_alpha   89.99688044
_cell_angle_beta   90.00000000
_cell_angle_gamma   90.00000000
_symmetry_Int_Tables_number   1
_chemical_formula_structural   VCoP
_chemical_formula_sum   'V4 Co4 P4'
_cell_volume   136.83487216
_cell_formula_units_Z   4
loop_
 _symmetry_equiv_pos_site_id
 _symmetry_equiv_pos_as_xyz
  1  'x, y, z'
loop_
 _atom_site_type_symbol
 _atom_site_label
 _atom_site_symmetry_multiplicity
 _atom_site_fract_x
 _atom_site_fract_y
 _atom_site_fract_z
 _atom_site_occupancy
  V  V0  1  0.75000000  0.47396384  0.32735118  1
  V  V1  1  0.75000000  0.97398013  0.17258954  1
  V  V2  1  0.25000000  0.52602199  0.67263670  1
  V  V3  1  0.25000000  0.02603966  0.82742328  1
  Co  Co0  1  0.75000000  0.35938327  0.93816926  1
  Co  Co1  1  0.75000000  0.85935712  0.56183772  1
  Co  Co2  1  0.25000000  0.64062963  0.06180255  1
  Co  Co3  1  0.25000000  0.14062014  0.43818472  1
  P  P0  1  0.75000000  0.73344815  0.87590001  1
  P  P1  1  0.75000000  0.23343926  0.62410399  1
  P  P2  1  0.25000000  0.26656691  0.12410719  1
  P  P3  1  0.25000000  0.76654988  0.37589287  1
loop_
_geom_bond_atom_site_label_1
_geom_bond_atom_site_label_2
_geom_bond_distance
_geom_bond_site_symmetry_2
Co0 P1 2.205945 1_555
Co0 P0 2.218058 1_555
Co0 P2 2.225364 1_656
Co0 P2 2.225364 1_556
Co1 P0 2.205783 1_555
Co1 P1 2.218197 1_565
Co1 P3 2.225409 1_555
Co1 P3 2.225409 1_655
Co2 P3 2.206055 1_555
Co2 P2 2.218089 1_555
Co2 P0 2.225238 1_454
Co2 P0 2.225238 1_554
Co3 P2 2.205951 1_555
Co3 P3 2.218161 1_545
Co3 P1 2.225332 1_555
Co3 P1 2.225332 1_455
P0 V1 2.413753 1_556
P0 V3 2.480346 1_565
P0 V3 2.480346 1_665
P0 V2 2.533065 1_655
P0 V2 2.533065 1_555
P1 V0 2.413945 1_555
P1 V2 2.480383 1_555
P1 V2 2.480383 1_655
P1 V3 2.533118 1_655
P1 V3 2.533118 1_555
P2 V3 2.413707 1_554
P2 V1 2.480332 1_445
P2 V1 2.480332 1_545
P2 V0 2.532916 1_555
P2 V0 2.532916 1_455
P3 V2 2.413908 1_555
P3 V0 2.480404 1_555
P3 V0 2.480404 1_455
P3 V1 2.533147 1_555
P3 V1 2.533147 1_455
