# generated using pymatgen
data_Ho2Si5Ni3
_symmetry_space_group_name_H-M   'P 1'
_cell_length_a   7.84993717
_cell_length_b   7.84993717
_cell_length_c   7.84993717
_cell_angle_alpha   137.93990181
_cell_angle_beta   104.87580244
_cell_angle_gamma   90.04771584
_symmetry_Int_Tables_number   1
_chemical_formula_structural   Ho2Si5Ni3
_chemical_formula_sum   'Ho4 Si10 Ni6'
_cell_volume   299.18825701
_cell_formula_units_Z   2
loop_
 _symmetry_equiv_pos_site_id
 _symmetry_equiv_pos_as_xyz
  1  'x, y, z'
loop_
 _atom_site_type_symbol
 _atom_site_label
 _atom_site_symmetry_multiplicity
 _atom_site_fract_x
 _atom_site_fract_y
 _atom_site_fract_z
 _atom_site_occupancy
  Ho  Ho0  1  0.10493300  0.86860700  0.23632700  1
  Ho  Ho1  1  0.89506700  0.13139300  0.76367300  1
  Ho  Ho2  1  0.36772000  0.63139300  0.73632700  1
  Ho  Ho3  1  0.63228000  0.36860700  0.26367300  1
  Si  Si0  1  0.00000000  0.75000000  0.75000000  1
  Si  Si1  1  0.00000000  0.25000000  0.25000000  1
  Si  Si2  1  0.26702200  0.01702200  0.75000000  1
  Si  Si3  1  0.73297800  0.48297800  0.75000000  1
  Si  Si4  1  0.73297800  0.98297800  0.25000000  1
  Si  Si5  1  0.26702200  0.51702200  0.25000000  1
  Si  Si6  1  0.76025900  0.60716400  0.15309500  1
  Si  Si7  1  0.45407000  0.10716400  0.34690500  1
  Si  Si8  1  0.54593000  0.89283600  0.65309500  1
  Si  Si9  1  0.23974100  0.39283600  0.84690500  1
  Ni  Ni0  1  0.24702600  0.13458200  0.11244400  1
  Ni  Ni1  1  0.50000000  0.25000000  0.75000000  1
  Ni  Ni2  1  0.02213800  0.63458200  0.38755600  1
  Ni  Ni3  1  0.97786200  0.36541800  0.61244400  1
  Ni  Ni4  1  0.75297400  0.86541800  0.88755600  1
  Ni  Ni5  1  0.50000000  0.75000000  0.25000000  1
loop_
_geom_bond_atom_site_label_1
_geom_bond_atom_site_label_2
_geom_bond_distance
_geom_bond_site_symmetry_2
Ho0 Si7 2.850967 1_565
Ho0 Ni2 2.973061 1_555
Ho0 Si6 3.008570 1_455
Ho0 Si9 3.021243 1_565
Ho0 Si9 3.021248 1_554
Ho0 Si1 3.037413 1_565
Ho0 Si0 3.037416 1_554
Ho0 Ni3 3.056567 1_465
Ho0 Ni3 3.056572 1_454
Ho0 Si4 3.060250 1_455
Ho0 Si3 3.060253 1_454
Ho0 Si2 3.102133 1_565
Ho0 Si5 3.102136 1_555
Ho0 Ni0 3.180746 1_565
Ho0 Ni1 3.237039 1_565
Ho0 Ni5 3.237041 1_555
Ho0 Ni4 3.338260 1_454
Ho1 Si8 2.850967 1_545
Ho1 Ni3 2.973061 1_555
Ho1 Si9 3.008570 1_655
Ho1 Si6 3.021243 1_545
Ho1 Si6 3.021248 1_556
Ho1 Si0 3.037413 1_645
Ho1 Si1 3.037416 1_656
Ho1 Ni2 3.056567 1_645
Ho1 Ni2 3.056572 1_656
Ho1 Si2 3.060250 1_655
Ho1 Si5 3.060253 1_656
Ho1 Si4 3.102133 1_545
Ho1 Si3 3.102136 1_555
Ho1 Ni4 3.180746 1_545
Ho1 Ni5 3.237039 1_545
Ho1 Ni1 3.237041 1_555
Ho1 Ni0 3.338260 1_656
Ho2 Si9 2.850953 1_555
Ho2 Ni4 2.973064 1_555
Ho2 Si8 3.008573 1_555
Ho2 Si7 3.021242 1_566
Ho2 Si7 3.021247 1_555
Ho2 Si1 3.037415 1_555
Ho2 Si0 3.037415 1_555
Ho2 Ni0 3.056572 1_566
Ho2 Ni0 3.056572 1_555
Ho2 Si5 3.060258 1_555
Ho2 Si2 3.060258 1_565
Ho2 Si4 3.102132 1_556
Ho2 Si3 3.102132 1_555
Ho2 Ni3 3.180742 1_455
Ho2 Ni1 3.237034 1_555
Ho2 Ni5 3.237034 1_556
Ho2 Ni2 3.338265 1_555
Ho3 Si6 2.850953 1_555
Ho3 Ni0 2.973064 1_555
Ho3 Si7 3.008573 1_555
Ho3 Si8 3.021242 1_544
Ho3 Si8 3.021247 1_555
Ho3 Si1 3.037415 1_655
Ho3 Si0 3.037415 1_655
Ho3 Ni4 3.056572 1_544
Ho3 Ni4 3.056572 1_555
Ho3 Si4 3.060258 1_545
Ho3 Si3 3.060258 1_555
Ho3 Si2 3.102132 1_554
Ho3 Si5 3.102132 1_555
Ho3 Ni2 3.180742 1_655
Ho3 Ni1 3.237034 1_554
Ho3 Ni5 3.237034 1_555
Ho3 Ni3 3.338265 1_555
Si2 Si8 2.465779 1_545
Si2 Si9 2.465787 1_555
Si3 Si7 2.465782 1_555
Si3 Si6 2.465787 1_556
Si4 Si7 2.465779 1_565
Si4 Si6 2.465787 1_555
Si5 Si8 2.465782 1_555
Si5 Si9 2.465787 1_554
Ni0 Si7 2.264556 1_555
Ni0 Si2 2.302610 1_554
Ni0 Si5 2.302610 1_555
Ni0 Si0 2.317854 1_544
Ni0 Si1 2.317854 1_555
Ni1 Si8 2.354792 1_545
Ni1 Si6 2.354794 1_556
Ni1 Si9 2.354794 1_555
Ni1 Si7 2.354795 1_555
Ni1 Si3 2.585325 1_555
Ni1 Si2 2.585325 1_555
Ni1 Ni5 2.817009 1_545
Ni1 Ni5 2.817009 1_556
Ni2 Si6 2.264552 1_455
Ni2 Si5 2.302610 1_555
Ni2 Si2 2.302610 1_565
Ni2 Si1 2.317854 1_555
Ni2 Si0 2.317854 1_555
Ni3 Si9 2.264552 1_655
Ni3 Si3 2.302610 1_555
Ni3 Si4 2.302610 1_545
Ni3 Si1 2.317854 1_655
Ni3 Si0 2.317854 1_655
Ni4 Si8 2.264556 1_555
Ni4 Si4 2.302610 1_556
Ni4 Si3 2.302610 1_555
Ni4 Si1 2.317854 1_666
Ni4 Si0 2.317854 1_655
Ni5 Si7 2.354792 1_565
Ni5 Si6 2.354794 1_555
Ni5 Si9 2.354794 1_554
Ni5 Si8 2.354795 1_555
Ni5 Si4 2.585325 1_555
Ni5 Si5 2.585325 1_555
