# generated using pymatgen
data_Y2MnCoO6
_symmetry_space_group_name_H-M   'P 1'
_cell_length_a   5.22576342
_cell_length_b   5.57211432
_cell_length_c   7.47515745
_cell_angle_alpha   90.00015228
_cell_angle_beta   89.68884311
_cell_angle_gamma   89.99945418
_symmetry_Int_Tables_number   1
_chemical_formula_structural   Y2MnCoO6
_chemical_formula_sum   'Y4 Mn2 Co2 O12'
_cell_volume   217.66254487
_cell_formula_units_Z   2
loop_
 _symmetry_equiv_pos_site_id
 _symmetry_equiv_pos_as_xyz
  1  'x, y, z'
loop_
 _atom_site_type_symbol
 _atom_site_label
 _atom_site_symmetry_multiplicity
 _atom_site_fract_x
 _atom_site_fract_y
 _atom_site_fract_z
 _atom_site_occupancy
  Y  Y0  1  0.98027653  0.07328122  0.24955617  1
  Y  Y1  1  0.48028025  0.42671129  0.74954512  1
  Y  Y2  1  0.01972367  0.92672001  0.75044334  1
  Y  Y3  1  0.51971930  0.57328775  0.25045428  1
  Mn  Mn0  1  -0.00000095  0.49999929  0.49999867  1
  Mn  Mn1  1  0.49999853  0.00000010  -0.00000033  1
  Co  Co0  1  0.49999793  -0.00000221  0.50000161  1
  Co  Co1  1  -0.00000186  0.50000231  0.00000176  1
  O  O0  1  0.10632542  0.46569349  0.25700232  1
  O  O1  1  0.60634407  0.03431096  0.75700258  1
  O  O2  1  0.89367472  0.53430642  0.74299784  1
  O  O3  1  0.39365649  0.96568899  0.24299705  1
  O  O4  1  0.29827271  0.68654881  0.55118091  1
  O  O5  1  0.79829566  0.81344202  0.05121119  1
  O  O6  1  0.70172952  0.31345484  0.44881902  1
  O  O7  1  0.20170684  0.18655451  0.94878824  1
  O  O8  1  0.18046223  0.20819259  0.55592480  1
  O  O9  1  0.68045262  0.29182460  0.05596086  1
  O  O10  1  0.81953873  0.79180774  0.44407457  1
  O  O11  1  0.31954857  0.70817528  0.94403797  1
loop_
_geom_bond_atom_site_label_1
_geom_bond_atom_site_label_2
_geom_bond_distance
_geom_bond_site_symmetry_2
Mn0 O0 1.906239 1_555
Mn0 O2 1.906256 1_455
Mn0 O6 1.913850 1_455
Mn0 O4 1.913887 1_555
Mn0 O10 1.926704 1_455
Mn0 O8 1.926706 1_555
Mn1 O3 1.906274 1_545
Mn1 O1 1.906278 1_554
Mn1 O7 1.914008 1_554
Mn1 O5 1.914043 1_545
Mn1 O11 1.926830 1_544
Mn1 O9 1.926838 1_555
Co0 O1 2.011893 1_555
Co0 O3 2.011909 1_545
Co0 O8 2.073939 1_555
Co0 O10 2.073951 1_545
Co0 O4 2.074563 1_545
Co0 O6 2.074622 1_555
Co1 O0 2.011860 1_555
Co1 O2 2.011875 1_454
Co1 O9 2.073999 1_455
Co1 O11 2.074011 1_554
Co1 O5 2.074481 1_455
Co1 O7 2.074541 1_554
O0 Y3 2.242230 1_555
O0 Y0 2.284400 1_455
O1 Y2 2.242144 1_645
O1 Y1 2.284349 1_555
O2 Y1 2.242234 1_555
O2 Y2 2.284407 1_655
O3 Y0 2.242147 1_465
O3 Y3 2.284352 1_555
O4 Y1 2.283617 1_555
O4 Y2 2.470804 1_555
O4 Y3 2.600500 1_555
O5 Y0 2.283478 1_565
O5 Y3 2.470769 1_555
O5 Y2 2.600754 1_654
O6 Y3 2.283610 1_555
O6 Y0 2.470807 1_555
O6 Y1 2.600496 1_555
O7 Y2 2.283466 1_545
O7 Y1 2.470768 1_555
O7 Y0 2.600753 1_456
O8 Y2 2.294884 1_545
O8 Y1 2.461062 1_555
O8 Y0 2.632550 1_455
O9 Y3 2.294703 1_555
O9 Y0 2.461028 1_555
O9 Y1 2.632788 1_554
O10 Y0 2.294885 1_565
O10 Y3 2.461070 1_555
O10 Y2 2.632551 1_655
O11 Y1 2.294701 1_555
O11 Y2 2.461032 1_555
O11 Y3 2.632789 1_556
