# generated using pymatgen
data_UCO6
_symmetry_space_group_name_H-M   'P 1'
_cell_length_a   6.45086500
_cell_length_b   11.01801800
_cell_length_c   17.32378500
_cell_angle_alpha   90.00000000
_cell_angle_beta   90.00000000
_cell_angle_gamma   90.00000000
_symmetry_Int_Tables_number   1
_chemical_formula_structural   UCO6
_chemical_formula_sum   'U8 C8 O48'
_cell_volume   1231.30095430
_cell_formula_units_Z   8
loop_
 _symmetry_equiv_pos_site_id
 _symmetry_equiv_pos_as_xyz
  1  'x, y, z'
loop_
 _atom_site_type_symbol
 _atom_site_label
 _atom_site_symmetry_multiplicity
 _atom_site_fract_x
 _atom_site_fract_y
 _atom_site_fract_z
 _atom_site_occupancy
  U  U0  1  0.66173700  0.03496700  0.42450900  1
  U  U1  1  0.16173700  0.46503300  0.57549100  1
  U  U2  1  0.33826300  0.53496700  0.07549100  1
  U  U3  1  0.83826300  0.96503300  0.92450900  1
  U  U4  1  0.33826300  0.96503300  0.57549100  1
  U  U5  1  0.83826300  0.53496700  0.42450900  1
  U  U6  1  0.66173700  0.46503300  0.92450900  1
  U  U7  1  0.16173700  0.03496700  0.07549100  1
  C  C0  1  0.82857800  0.30660300  0.71626100  1
  C  C1  1  0.32857800  0.19339700  0.28373900  1
  C  C2  1  0.17142200  0.80660300  0.78373900  1
  C  C3  1  0.67142200  0.69339700  0.21626100  1
  C  C4  1  0.17142200  0.69339700  0.28373900  1
  C  C5  1  0.67142200  0.80660300  0.71626100  1
  C  C6  1  0.82857800  0.19339700  0.21626100  1
  C  C7  1  0.32857800  0.30660300  0.78373900  1
  O  O0  1  0.54211100  0.57134300  0.85490100  1
  O  O1  1  0.04211100  0.92865700  0.14509900  1
  O  O2  1  0.45788900  0.07134300  0.64509900  1
  O  O3  1  0.95788900  0.42865700  0.35490100  1
  O  O4  1  0.45788900  0.42865700  0.14509900  1
  O  O5  1  0.95788900  0.07134300  0.85490100  1
  O  O6  1  0.54211100  0.92865700  0.35490100  1
  O  O7  1  0.04211100  0.57134300  0.64509900  1
  O  O8  1  0.75174000  0.32064900  0.96549900  1
  O  O9  1  0.25174000  0.17935100  0.03450100  1
  O  O10  1  0.24826000  0.82064900  0.53450100  1
  O  O11  1  0.74826000  0.67935100  0.46549900  1
  O  O12  1  0.24826000  0.67935100  0.03450100  1
  O  O13  1  0.74826000  0.82064900  0.96549900  1
  O  O14  1  0.75174000  0.17935100  0.46549900  1
  O  O15  1  0.25174000  0.32064900  0.53450100  1
  O  O16  1  0.63545400  0.56682100  0.02995400  1
  O  O17  1  0.13545400  0.93317900  0.97004600  1
  O  O18  1  0.36454600  0.06682100  0.47004600  1
  O  O19  1  0.86454600  0.43317900  0.52995400  1
  O  O20  1  0.36454600  0.43317900  0.97004600  1
  O  O21  1  0.86454600  0.06682100  0.02995400  1
  O  O22  1  0.63545400  0.93317900  0.52995400  1
  O  O23  1  0.13545400  0.56682100  0.47004600  1
  O  O24  1  0.60999400  0.76067600  0.65965400  1
  O  O25  1  0.10999400  0.73932400  0.34034600  1
  O  O26  1  0.39000600  0.26067600  0.84034600  1
  O  O27  1  0.89000600  0.23932400  0.15965400  1
  O  O28  1  0.39000600  0.23932400  0.34034600  1
  O  O29  1  0.89000600  0.26067600  0.65965400  1
  O  O30  1  0.60999400  0.73932400  0.15965400  1
  O  O31  1  0.10999400  0.76067600  0.84034600  1
  O  O32  1  0.73119800  0.85347100  0.77307600  1
  O  O33  1  0.23119800  0.64652900  0.22692400  1
  O  O34  1  0.26880200  0.35347100  0.72692400  1
  O  O35  1  0.76880200  0.14652900  0.27307600  1
  O  O36  1  0.26880200  0.14652900  0.22692400  1
  O  O37  1  0.76880200  0.35347100  0.77307600  1
  O  O38  1  0.73119800  0.64652900  0.27307600  1
  O  O39  1  0.23119800  0.85347100  0.72692400  1
  O  O40  1  0.56481600  0.48289000  0.40291900  1
  O  O41  1  0.06481600  0.01711000  0.59708100  1
  O  O42  1  0.43518400  0.98289000  0.09708100  1
  O  O43  1  0.93518400  0.51711000  0.90291900  1
  O  O44  1  0.43518400  0.51711000  0.59708100  1
  O  O45  1  0.93518400  0.98289000  0.40291900  1
  O  O46  1  0.56481600  0.01711000  0.90291900  1
  O  O47  1  0.06481600  0.48289000  0.09708100  1
loop_
_geom_bond_atom_site_label_1
_geom_bond_atom_site_label_2
_geom_bond_distance
_geom_bond_site_symmetry_2
C0 O29 1.172500 1_555
C0 O37 1.176479 1_555
C1 O28 1.172500 1_555
C1 O36 1.176479 1_555
C2 O31 1.172500 1_555
C2 O39 1.176479 1_555
C3 O30 1.172500 1_555
C3 O38 1.176479 1_555
C4 O25 1.172500 1_555
C4 O33 1.176479 1_555
C5 O24 1.172500 1_555
C5 O32 1.176479 1_555
C6 O27 1.172500 1_555
C6 O35 1.176479 1_555
C7 O26 1.172500 1_555
C7 O34 1.176479 1_555
O0 U6 1.849768 1_555
O1 U7 1.849768 1_565
O2 U4 1.849768 1_545
O3 U5 1.849768 1_555
O4 U2 1.849768 1_555
O5 U3 1.849768 1_545
O6 U0 1.849768 1_565
O7 U1 1.849768 1_555
O8 U6 1.836318 1_555
O9 U7 1.836318 1_555
O10 U4 1.836318 1_555
O11 U5 1.836318 1_555
O12 U2 1.836318 1_555
O13 U3 1.836318 1_555
O14 U0 1.836318 1_555
O15 U1 1.836318 1_555
O16 U2 2.102599 1_555
O16 U6 2.150202 1_554
O17 U3 2.102599 1_455
O17 U7 2.150202 1_566
O18 U0 2.102599 1_555
O18 U4 2.150202 1_545
O19 U1 2.102599 1_655
O19 U5 2.150202 1_555
O20 U6 2.102599 1_555
O20 U2 2.150202 1_556
O21 U7 2.102599 1_655
O21 U3 2.150202 1_544
O22 U4 2.102599 1_555
O22 U0 2.150202 1_565
O23 U5 2.102599 1_455
O23 U1 2.150202 1_555
O40 U5 1.892276 1_555
O41 U4 1.892276 1_545
O42 U7 1.892276 1_565
O43 U6 1.892276 1_555
O44 U1 1.892276 1_555
O45 U0 1.892276 1_565
O46 U3 1.892276 1_545
O47 U2 1.892276 1_555
