# generated using pymatgen
data_Pr2In3Cu
_symmetry_space_group_name_H-M   'P 1'
_cell_length_a   4.83137793
_cell_length_b   4.83137793
_cell_length_c   7.83548400
_cell_angle_alpha   90.00000000
_cell_angle_beta   90.00000000
_cell_angle_gamma   119.99999901
_symmetry_Int_Tables_number   1
_chemical_formula_structural   Pr2In3Cu
_chemical_formula_sum   'Pr2 In3 Cu1'
_cell_volume   158.39391230
_cell_formula_units_Z   1
loop_
 _symmetry_equiv_pos_site_id
 _symmetry_equiv_pos_as_xyz
  1  'x, y, z'
loop_
 _atom_site_type_symbol
 _atom_site_label
 _atom_site_symmetry_multiplicity
 _atom_site_fract_x
 _atom_site_fract_y
 _atom_site_fract_z
 _atom_site_occupancy
  Pr  Pr0  1  0.66666700  0.33333300  0.72572100  1
  Pr  Pr1  1  0.66666700  0.33333300  0.26332100  1
  In  In0  1  0.00000000  0.00000000  0.48336200  1
  In  In1  1  0.00000000  0.00000000  0.04939800  1
  In  In2  1  0.33333300  0.66666700  0.94044900  1
  Cu  Cu0  1  0.33333300  0.66666700  0.53775000  1
loop_
_geom_bond_atom_site_label_1
_geom_bond_atom_site_label_2
_geom_bond_distance
_geom_bond_site_symmetry_2
In0 Pr1 3.279228 1_455
In0 Pr1 3.279232 1_445
In0 Pr1 3.279232 1_555
In0 Pr0 3.374452 1_455
In0 Pr0 3.374455 1_555
In0 Pr0 3.374455 1_445
In0 In1 3.400318 1_555
In1 In2 2.917100 1_544
In1 In2 2.917104 1_554
In1 In2 2.917104 1_444
In1 Pr1 3.254280 1_455
In1 Pr1 3.254283 1_445
In1 Pr1 3.254283 1_555
In1 Pr0 3.769995 1_454
In1 Pr0 3.769998 1_554
In1 Pr0 3.769998 1_444
In2 Pr0 3.257533 1_455
In2 Pr0 3.257533 1_565
In2 Pr0 3.257540 1_555
In2 Pr1 3.765754 1_456
In2 Pr1 3.765754 1_566
In2 Pr1 3.765760 1_556
Cu0 In0 2.821760 1_565
Cu0 In0 2.821764 1_665
Cu0 In0 2.821764 1_555
Cu0 Pr0 3.154361 1_455
Cu0 Pr0 3.154361 1_565
Cu0 Pr0 3.154368 1_555
Cu0 In2 3.155342 1_555
Cu0 Pr1 3.521994 1_455
Cu0 Pr1 3.521994 1_565
Cu0 Pr1 3.522001 1_555
