# generated using pymatgen
data_Sr12Ru11O36
_symmetry_space_group_name_H-M   'P 1'
_cell_length_a   23.48240100
_cell_length_b   8.05428000
_cell_length_c   11.28761828
_cell_angle_alpha   45.60904844
_cell_angle_beta   90.00000000
_cell_angle_gamma   90.00000000
_symmetry_Int_Tables_number   1
_chemical_formula_structural   Sr12Ru11O36
_chemical_formula_sum   'Sr24 Ru22 O72'
_cell_volume   1525.54252501
_cell_formula_units_Z   2
loop_
 _symmetry_equiv_pos_site_id
 _symmetry_equiv_pos_as_xyz
  1  'x, y, z'
loop_
 _atom_site_type_symbol
 _atom_site_label
 _atom_site_symmetry_multiplicity
 _atom_site_fract_x
 _atom_site_fract_y
 _atom_site_fract_z
 _atom_site_occupancy
  Sr  Sr0  1  0.08050000  0.51385400  0.24608300  1
  Sr  Sr1  1  0.74979800  0.50255700  0.24839200  1
  Sr  Sr2  1  0.41900300  0.51119600  0.24584800  1
  Sr  Sr3  1  0.75373600  0.98389100  0.25785700  1
  Sr  Sr4  1  0.08103600  0.99245400  0.25451500  1
  Sr  Sr5  1  0.41956100  0.01325200  0.24468100  1
  Sr  Sr6  1  0.91896400  0.00754600  0.74548500  1
  Sr  Sr7  1  0.58043900  0.98674800  0.75531900  1
  Sr  Sr8  1  0.24626400  0.01610900  0.74214300  1
  Sr  Sr9  1  0.75020200  0.50255700  0.74839200  1
  Sr  Sr10  1  0.41950000  0.51385400  0.74608300  1
  Sr  Sr11  1  0.08099700  0.51119600  0.74584800  1
  Sr  Sr12  1  0.58099700  0.48880400  0.75415200  1
  Sr  Sr13  1  0.91950000  0.48614600  0.75391700  1
  Sr  Sr14  1  0.25020200  0.49744300  0.75160800  1
  Sr  Sr15  1  0.08043900  0.01325200  0.74468100  1
  Sr  Sr16  1  0.74626400  0.98389100  0.75785700  1
  Sr  Sr17  1  0.41896400  0.99245400  0.75451500  1
  Sr  Sr18  1  0.91956100  0.98674800  0.25531900  1
  Sr  Sr19  1  0.58103600  0.00754600  0.24548500  1
  Sr  Sr20  1  0.25373600  0.01610900  0.24214300  1
  Sr  Sr21  1  0.58050000  0.48614600  0.25391700  1
  Sr  Sr22  1  0.91900300  0.48880400  0.25415200  1
  Sr  Sr23  1  0.24979800  0.49744300  0.25160800  1
  Ru  Ru0  1  0.00000000  0.00000000  0.50000000  1
  Ru  Ru1  1  0.66609200  0.99818800  0.49947400  1
  Ru  Ru2  1  0.33390800  0.00181200  0.50052600  1
  Ru  Ru3  1  0.16582400  0.00229600  0.49906200  1
  Ru  Ru4  1  0.83417600  0.99770400  0.50093800  1
  Ru  Ru5  1  0.50000000  0.00000000  0.50000000  1
  Ru  Ru6  1  0.00000000  0.50000000  0.00000000  1
  Ru  Ru7  1  0.16505800  0.49820100  0.00150200  1
  Ru  Ru8  1  0.83494200  0.50179900  0.99849800  1
  Ru  Ru9  1  0.32794500  0.51352300  0.99448800  1
  Ru  Ru10  1  0.67205500  0.48647700  0.00551200  1
  Ru  Ru11  1  0.33417600  0.00229600  0.99906200  1
  Ru  Ru12  1  0.00000000  0.00000000  0.00000000  1
  Ru  Ru13  1  0.66582400  0.99770400  0.00093800  1
  Ru  Ru14  1  0.16609200  0.00181200  0.00052600  1
  Ru  Ru15  1  0.83390800  0.99818800  0.99947400  1
  Ru  Ru16  1  0.50000000  0.00000000  0.00000000  1
  Ru  Ru17  1  0.66505800  0.50179900  0.49849800  1
  Ru  Ru18  1  0.33494200  0.49820100  0.50150200  1
  Ru  Ru19  1  0.17205500  0.51352300  0.49448800  1
  Ru  Ru20  1  0.82794500  0.48647700  0.50551200  1
  Ru  Ru21  1  0.50000000  0.50000000  0.50000000  1
  O  O0  1  0.08377800  0.08965300  0.45822800  1
  O  O1  1  0.75002400  0.07039700  0.46528700  1
  O  O2  1  0.41599300  0.08536100  0.46229500  1
  O  O3  1  0.01583900  0.74691300  0.00196300  1
  O  O4  1  0.81695300  0.74823900  0.00012100  1
  O  O5  1  0.67403800  0.74115900  0.00282100  1
  O  O6  1  0.48481600  0.77763300  0.99776500  1
  O  O7  1  0.15139000  0.75288500  0.00047400  1
  O  O8  1  0.34870900  0.74931700  0.00135900  1
  O  O9  1  0.98467100  0.24601700  0.24866100  1
  O  O10  1  0.84801200  0.24414300  0.25208300  1
  O  O11  1  0.32765500  0.25606000  0.24554600  1
  O  O12  1  0.65191600  0.24943300  0.24842200  1
  O  O13  1  0.18246300  0.24907300  0.24987200  1
  O  O14  1  0.51166800  0.21581100  0.27447500  1
  O  O15  1  0.08257200  0.42303500  0.03811000  1
  O  O16  1  0.75339100  0.40841000  0.04438100  1
  O  O17  1  0.52630800  0.53043600  0.98737800  1
  O  O18  1  0.47369200  0.46956400  0.01262200  1
  O  O19  1  0.91742800  0.57696500  0.96189000  1
  O  O20  1  0.24660900  0.59159000  0.95561900  1
  O  O21  1  0.01532900  0.75398300  0.75133900  1
  O  O22  1  0.81753700  0.75092700  0.75012800  1
  O  O23  1  0.48833200  0.78418900  0.72552500  1
  O  O24  1  0.15198800  0.75585700  0.74791700  1
  O  O25  1  0.67234500  0.74394000  0.75445400  1
  O  O26  1  0.34808400  0.75056700  0.75157800  1
  O  O27  1  0.98416100  0.25308700  0.99803700  1
  O  O28  1  0.18304700  0.25176100  0.99987900  1
  O  O29  1  0.84861000  0.24711500  0.99952600  1
  O  O30  1  0.65129100  0.25068300  0.99864100  1
  O  O31  1  0.51518400  0.22236700  0.00223500  1
  O  O32  1  0.32596200  0.25884100  0.99717900  1
  O  O33  1  0.74997600  0.07039700  0.96528700  1
  O  O34  1  0.41622200  0.08965300  0.95822800  1
  O  O35  1  0.08400700  0.08536100  0.96229500  1
  O  O36  1  0.91622200  0.91034700  0.54177200  1
  O  O37  1  0.58400700  0.91463900  0.53770500  1
  O  O38  1  0.24997600  0.92960300  0.53471300  1
  O  O39  1  0.01518400  0.77763300  0.49776500  1
  O  O40  1  0.82596200  0.74115900  0.50282100  1
  O  O41  1  0.48416100  0.74691300  0.50196300  1
  O  O42  1  0.15129100  0.74931700  0.50135900  1
  O  O43  1  0.68304700  0.74823900  0.50012100  1
  O  O44  1  0.34861000  0.75288500  0.50047400  1
  O  O45  1  0.17234500  0.25606000  0.74554600  1
  O  O46  1  0.98833200  0.21581100  0.77447500  1
  O  O47  1  0.84808400  0.24943300  0.74842200  1
  O  O48  1  0.51532900  0.24601700  0.74866100  1
  O  O49  1  0.31753700  0.24907300  0.74987200  1
  O  O50  1  0.65198800  0.24414300  0.75208300  1
  O  O51  1  0.97369200  0.53043600  0.48737800  1
  O  O52  1  0.74660900  0.40841000  0.54438100  1
  O  O53  1  0.41742800  0.42303500  0.53811000  1
  O  O54  1  0.58257200  0.57696500  0.46189000  1
  O  O55  1  0.02630800  0.46956400  0.51262200  1
  O  O56  1  0.25339100  0.59159000  0.45561900  1
  O  O57  1  0.82765500  0.74394000  0.25445400  1
  O  O58  1  0.01166800  0.78418900  0.22552500  1
  O  O59  1  0.68246300  0.75092700  0.25012800  1
  O  O60  1  0.48467100  0.75398300  0.25133900  1
  O  O61  1  0.34801200  0.75585700  0.24791700  1
  O  O62  1  0.15191600  0.75056700  0.25157800  1
  O  O63  1  0.17403800  0.25884100  0.49717900  1
  O  O64  1  0.98481600  0.22236700  0.50223500  1
  O  O65  1  0.65139000  0.24711500  0.49952600  1
  O  O66  1  0.84870900  0.25068300  0.49864100  1
  O  O67  1  0.51583900  0.25308700  0.49803700  1
  O  O68  1  0.31695300  0.25176100  0.49987900  1
  O  O69  1  0.91599300  0.91463900  0.03770500  1
  O  O70  1  0.58377800  0.91034700  0.04177200  1
  O  O71  1  0.25002400  0.92960300  0.03471300  1
loop_
_geom_bond_atom_site_label_1
_geom_bond_atom_site_label_2
_geom_bond_distance
_geom_bond_site_symmetry_2
O0 Ru3 1.991406 1_555
O0 Ru0 2.034130 1_555
O0 Sr0 2.442686 1_555
O0 Sr15 2.838266 1_555
O0 Sr4 2.902245 1_545
O1 Ru1 2.014374 1_545
O1 Ru4 2.019908 1_545
O1 Sr1 2.487318 1_555
O1 Sr16 2.860065 1_545
O1 Sr3 2.873601 1_545
O2 Ru2 1.987014 1_555
O2 Ru5 2.033697 1_555
O2 Sr2 2.452284 1_555
O2 Sr17 2.826905 1_545
O2 Sr5 2.893774 1_555
O3 Ru6 2.038488 1_555
O3 Ru12 2.056902 1_565
O3 Sr0 2.487019 1_555
O3 Sr15 2.573058 1_564
O4 Ru8 2.041928 1_554
O4 Ru15 2.047147 1_554
O4 Sr1 2.548982 1_555
O4 Sr16 2.564002 1_554
O5 Ru10 2.030681 1_555
O5 Ru13 2.060521 1_555
O5 Sr16 2.604040 1_554
O5 Sr1 2.662452 1_555
O5 Sr7 2.969312 1_554
O5 Sr21 2.988581 1_555
O6 Ru16 1.843553 1_566
O6 Sr17 2.505423 1_555
O6 Sr2 2.535248 1_556
O6 Sr7 2.986510 1_555
O7 Ru14 2.034839 1_565
O7 Ru7 2.068251 1_555
O7 Sr0 2.587653 1_555
O7 Sr15 2.653055 1_564
O7 Sr23 3.073886 1_555
O8 Ru9 2.014103 1_554
O8 Ru11 2.048143 1_564
O8 Sr2 2.571730 1_555
O8 Sr17 2.585726 1_554
O8 Sr23 3.077641 1_555
O9 Ru6 2.039386 1_655
O9 Ru0 2.058997 1_655
O9 Sr22 2.524914 1_555
O9 Sr18 2.546452 1_545
O10 Ru4 2.033472 1_545
O10 Ru8 2.069583 1_554
O10 Sr22 2.593664 1_555
O10 Sr18 2.648800 1_545
O10 Sr1 3.087298 1_555
O11 Ru9 2.027086 1_554
O11 Ru2 2.062176 1_555
O11 Sr20 2.617899 1_555
O11 Sr23 2.704285 1_555
O11 Sr5 2.917030 1_555
O11 Sr2 2.972188 1_555
O12 Ru10 2.015583 1_555
O12 Ru1 2.052564 1_545
O12 Sr21 2.572282 1_555
O12 Sr19 2.580190 1_555
O12 Sr1 3.072228 1_555
O13 Ru7 2.045108 1_555
O13 Ru3 2.047674 1_555
O13 Sr23 2.560693 1_555
O13 Sr20 2.560957 1_555
O14 Ru5 1.840084 1_555
O14 Sr19 2.518373 1_555
O14 Sr21 2.588507 1_555
O14 Sr5 2.867147 1_555
O14 Sr2 3.069850 1_555
O15 Ru7 1.984719 1_555
O15 Ru6 1.988947 1_555
O15 Sr4 2.478507 1_545
O15 Sr11 2.848018 1_554
O15 Sr0 2.907021 1_555
O16 Ru10 1.962103 1_555
O16 Ru8 1.989032 1_554
O16 Sr3 2.443377 1_545
O16 Sr9 2.863288 1_554
O16 Sr1 2.885841 1_555
O17 O18 1.285571 1_556
O17 Sr7 2.918126 1_555
O18 Sr5 2.918126 1_555
O19 Ru8 1.984719 1_555
O19 Ru6 1.988947 1_656
O19 Sr6 2.478507 1_565
O19 Sr22 2.848018 1_556
O19 Sr13 2.907021 1_555
O20 Ru9 1.962103 1_555
O20 Ru7 1.989032 1_556
O20 Sr8 2.443377 1_565
O20 Sr23 2.863288 1_556
O20 Sr14 2.885841 1_555
O21 Ru6 2.039386 1_556
O21 Ru0 2.058997 1_565
O21 Sr11 2.524914 1_555
O21 Sr15 2.546452 1_565
O22 Ru8 2.045108 1_555
O22 Ru4 2.047674 1_555
O22 Sr9 2.560693 1_555
O22 Sr16 2.560957 1_555
O23 Ru5 1.840084 1_565
O23 Sr17 2.518373 1_555
O23 Sr10 2.588507 1_555
O23 Sr7 2.867147 1_555
O23 Sr12 3.069850 1_555
O24 Ru3 2.033472 1_565
O24 Ru7 2.069583 1_556
O24 Sr11 2.593664 1_555
O24 Sr15 2.648800 1_565
O24 Sr14 3.087298 1_555
O25 Ru10 2.027086 1_556
O25 Ru1 2.062176 1_555
O25 Sr16 2.617899 1_555
O25 Sr9 2.704285 1_555
O25 Sr7 2.917030 1_555
O25 Sr12 2.972188 1_555
O26 Ru9 2.015583 1_555
O26 Ru2 2.052564 1_565
O26 Sr10 2.572282 1_555
O26 Sr17 2.580190 1_555
O26 Sr14 3.072228 1_555
O27 Ru6 2.038488 1_656
O27 Ru12 2.056902 1_656
O27 Sr13 2.487019 1_555
O27 Sr18 2.573058 1_546
O28 Ru7 2.041928 1_556
O28 Ru14 2.047147 1_556
O28 Sr14 2.548982 1_555
O28 Sr20 2.564002 1_556
O29 Ru15 2.034839 1_545
O29 Ru8 2.068251 1_555
O29 Sr13 2.587653 1_555
O29 Sr18 2.653055 1_546
O29 Sr9 3.073886 1_555
O30 Ru10 2.014103 1_556
O30 Ru13 2.048143 1_546
O30 Sr12 2.571730 1_555
O30 Sr19 2.585726 1_556
O30 Sr9 3.077641 1_555
O31 Ru16 1.843553 1_555
O31 Sr19 2.505423 1_555
O31 Sr12 2.535248 1_554
O31 Sr5 2.986510 1_555
O32 Ru9 2.030681 1_555
O32 Ru11 2.060521 1_555
O32 Sr20 2.604040 1_556
O32 Sr14 2.662452 1_555
O32 Sr5 2.969312 1_556
O32 Sr10 2.988581 1_555
O33 Ru15 2.014374 1_545
O33 Ru13 2.019908 1_546
O33 Sr9 2.487318 1_555
O33 Sr3 2.860065 1_546
O33 Sr16 2.873601 1_545
O34 Ru11 1.991406 1_555
O34 Ru16 2.034130 1_556
O34 Sr10 2.442686 1_555
O34 Sr5 2.838266 1_556
O34 Sr17 2.902245 1_545
O35 Ru14 1.987014 1_556
O35 Ru12 2.033697 1_556
O35 Sr11 2.452284 1_555
O35 Sr4 2.826905 1_546
O35 Sr15 2.893774 1_555
O36 Ru4 1.991406 1_555
O36 Ru0 2.034130 1_665
O36 Sr13 2.442686 1_555
O36 Sr18 2.838266 1_555
O36 Sr6 2.902245 1_565
O37 Ru1 1.987014 1_555
O37 Ru5 2.033697 1_565
O37 Sr12 2.452284 1_555
O37 Sr19 2.826905 1_565
O37 Sr7 2.893774 1_555
O38 Ru2 2.014374 1_565
O38 Ru3 2.019908 1_565
O38 Sr14 2.487318 1_555
O38 Sr20 2.860065 1_565
O38 Sr8 2.873601 1_565
O39 Ru0 1.843553 1_565
O39 Sr4 2.505423 1_555
O39 Sr11 2.535248 1_555
O39 Sr18 2.986510 1_455
O40 Ru20 2.030681 1_555
O40 Ru4 2.060521 1_555
O40 Sr3 2.604040 1_555
O40 Sr9 2.662452 1_555
O40 Sr18 2.969312 1_555
O40 Sr13 2.988581 1_555
O41 Ru21 2.038488 1_555
O41 Ru5 2.056902 1_565
O41 Sr10 2.487019 1_555
O41 Sr5 2.573058 1_565
O42 Ru19 2.014103 1_555
O42 Ru3 2.048143 1_565
O42 Sr11 2.571730 1_555
O42 Sr4 2.585726 1_555
O42 Sr14 3.077641 1_555
O43 Ru17 2.041928 1_555
O43 Ru1 2.047147 1_555
O43 Sr9 2.548982 1_555
O43 Sr3 2.564002 1_555
O44 Ru2 2.034839 1_565
O44 Ru18 2.068251 1_555
O44 Sr10 2.587653 1_555
O44 Sr5 2.653055 1_565
O44 Sr14 3.073886 1_555
O45 Ru19 2.027086 1_555
O45 Ru14 2.062176 1_556
O45 Sr8 2.617899 1_555
O45 Sr14 2.704285 1_555
O45 Sr15 2.917030 1_555
O45 Sr11 2.972188 1_555
O46 Ru12 1.840084 1_656
O46 Sr6 2.518373 1_555
O46 Sr13 2.588507 1_555
O46 Sr15 2.867147 1_655
O46 Sr11 3.069850 1_655
O47 Ru20 2.015583 1_555
O47 Ru15 2.052564 1_545
O47 Sr13 2.572282 1_555
O47 Sr6 2.580190 1_555
O47 Sr9 3.072228 1_555
O48 Ru21 2.039386 1_555
O48 Ru16 2.058997 1_556
O48 Sr12 2.524914 1_555
O48 Sr7 2.546452 1_545
O49 Ru18 2.045108 1_555
O49 Ru11 2.047674 1_555
O49 Sr14 2.560693 1_555
O49 Sr8 2.560957 1_555
O50 Ru13 2.033472 1_546
O50 Ru17 2.069583 1_555
O50 Sr12 2.593664 1_555
O50 Sr7 2.648800 1_545
O50 Sr9 3.087298 1_555
O51 O55 1.285571 1_655
O51 Sr18 2.918126 1_555
O52 Ru20 1.962103 1_555
O52 Ru17 1.989032 1_555
O52 Sr16 2.443377 1_545
O52 Sr1 2.863288 1_555
O52 Sr9 2.885841 1_555
O53 Ru18 1.984719 1_555
O53 Ru21 1.988947 1_555
O53 Sr17 2.478507 1_545
O53 Sr2 2.848018 1_555
O53 Sr10 2.907021 1_555
O54 Ru17 1.984719 1_555
O54 Ru21 1.988947 1_555
O54 Sr19 2.478507 1_565
O54 Sr12 2.848018 1_555
O54 Sr21 2.907021 1_555
O55 Sr15 2.918126 1_555
O56 Ru19 1.962103 1_555
O56 Ru18 1.989032 1_555
O56 Sr20 2.443377 1_565
O56 Sr14 2.863288 1_555
O56 Sr23 2.885841 1_555
O57 Ru20 2.027086 1_555
O57 Ru15 2.062176 1_554
O57 Sr3 2.617899 1_555
O57 Sr1 2.704285 1_555
O57 Sr18 2.917030 1_555
O57 Sr22 2.972188 1_555
O58 Ru12 1.840084 1_565
O58 Sr4 2.518373 1_555
O58 Sr0 2.588507 1_555
O58 Sr18 2.867147 1_455
O58 Sr22 3.069850 1_455
O59 Ru17 2.045108 1_555
O59 Ru13 2.047674 1_555
O59 Sr1 2.560693 1_555
O59 Sr3 2.560957 1_555
O60 Ru21 2.039386 1_555
O60 Ru16 2.058997 1_565
O60 Sr2 2.524914 1_555
O60 Sr5 2.546452 1_565
O61 Ru11 2.033472 1_564
O61 Ru18 2.069583 1_555
O61 Sr2 2.593664 1_555
O61 Sr5 2.648800 1_565
O61 Sr23 3.087298 1_555
O62 Ru19 2.015583 1_555
O62 Ru14 2.052564 1_565
O62 Sr0 2.572282 1_555
O62 Sr4 2.580190 1_555
O62 Sr23 3.072228 1_555
O63 Ru19 2.030681 1_555
O63 Ru3 2.060521 1_555
O63 Sr8 2.604040 1_555
O63 Sr23 2.662452 1_555
O63 Sr15 2.969312 1_555
O63 Sr0 2.988581 1_555
O64 Ru0 1.843553 1_655
O64 Sr6 2.505423 1_555
O64 Sr22 2.535248 1_555
O64 Sr15 2.986510 1_655
O65 Ru1 2.034839 1_545
O65 Ru17 2.068251 1_555
O65 Sr21 2.587653 1_555
O65 Sr7 2.653055 1_545
O65 Sr1 3.073886 1_555
O66 Ru20 2.014103 1_555
O66 Ru4 2.048143 1_545
O66 Sr22 2.571730 1_555
O66 Sr6 2.585726 1_555
O66 Sr1 3.077641 1_555
O67 Ru21 2.038488 1_555
O67 Ru5 2.056902 1_555
O67 Sr21 2.487019 1_555
O67 Sr7 2.573058 1_545
O68 Ru18 2.041928 1_555
O68 Ru2 2.047147 1_555
O68 Sr23 2.548982 1_555
O68 Sr8 2.564002 1_555
O69 Ru15 1.987014 1_554
O69 Ru12 2.033697 1_665
O69 Sr22 2.452284 1_555
O69 Sr6 2.826905 1_564
O69 Sr18 2.893774 1_555
O70 Ru13 1.991406 1_555
O70 Ru16 2.034130 1_565
O70 Sr21 2.442686 1_555
O70 Sr7 2.838266 1_554
O70 Sr19 2.902245 1_565
O71 Ru14 2.014374 1_565
O71 Ru11 2.019908 1_564
O71 Sr23 2.487318 1_555
O71 Sr8 2.860065 1_564
O71 Sr20 2.873601 1_565
