# generated using pymatgen
data_HoGaCo
_symmetry_space_group_name_H-M   'P 1'
_cell_length_a   4.37017760
_cell_length_b   6.73565209
_cell_length_c   6.98506051
_cell_angle_alpha   90.00000000
_cell_angle_beta   90.00000000
_cell_angle_gamma   90.00000000
_symmetry_Int_Tables_number   1
_chemical_formula_structural   HoGaCo
_chemical_formula_sum   'Ho4 Ga4 Co4'
_cell_volume   205.61221243
_cell_formula_units_Z   4
loop_
 _symmetry_equiv_pos_site_id
 _symmetry_equiv_pos_as_xyz
  1  'x, y, z'
loop_
 _atom_site_type_symbol
 _atom_site_label
 _atom_site_symmetry_multiplicity
 _atom_site_fract_x
 _atom_site_fract_y
 _atom_site_fract_z
 _atom_site_occupancy
  Ho  Ho0  1  0.25000000  0.30417935  0.52406454  1
  Ho  Ho1  1  0.25000000  0.19582065  0.02406454  1
  Ho  Ho2  1  0.75000000  0.69575749  0.47592769  1
  Ho  Ho3  1  0.75000000  0.80424251  0.97592769  1
  Ga  Ga0  1  0.25000000  0.89125949  0.69528361  1
  Ga  Ga1  1  0.25000000  0.60874051  0.19528361  1
  Ga  Ga2  1  0.75000000  0.10880440  0.30470453  1
  Ga  Ga3  1  0.75000000  0.39119560  0.80470453  1
  Co  Co0  1  0.25000000  0.93729805  0.34990141  1
  Co  Co1  1  0.25000000  0.56270195  0.84990141  1
  Co  Co2  1  0.75000000  0.06273852  0.65011822  1
  Co  Co3  1  0.75000000  0.43726148  0.15011822  1
loop_
_geom_bond_atom_site_label_1
_geom_bond_atom_site_label_2
_geom_bond_distance
_geom_bond_site_symmetry_2
Ga0 Ho2 2.975961 1_455
Ga0 Ho2 2.975961 1_555
Ga0 Ho3 2.993490 1_555
Ga0 Ho3 2.993490 1_455
Ga0 Ho0 3.027524 1_565
Ga0 Ho1 3.079363 1_566
Ga1 Ho3 2.975961 1_454
Ga1 Ho3 2.975961 1_554
Ga1 Ho2 2.993490 1_555
Ga1 Ho2 2.993490 1_455
Ga1 Ho1 3.027524 1_555
Ga1 Ho0 3.079363 1_555
Ga2 Ho0 2.975597 1_655
Ga2 Ho0 2.975597 1_555
Ga2 Ho1 2.993471 1_655
Ga2 Ho1 2.993471 1_555
Ga2 Ho2 3.028321 1_545
Ga2 Ho3 3.079345 1_544
Ga3 Ho1 2.975597 1_556
Ga3 Ho1 2.975597 1_656
Ga3 Ho0 2.993471 1_555
Ga3 Ho0 2.993471 1_655
Ga3 Ho3 3.028321 1_555
Ga3 Ho2 3.079345 1_555
Co0 Ga0 2.432364 1_555
Co0 Ga1 2.462523 1_555
Co0 Ga2 2.491743 1_565
Co0 Ga2 2.491743 1_465
Co0 Ho0 2.754401 1_565
Co0 Ho2 2.862945 1_455
Co0 Ho2 2.862945 1_555
Co0 Ho1 2.865715 1_565
Co1 Ga1 2.432364 1_556
Co1 Ga0 2.462523 1_555
Co1 Ga3 2.491743 1_455
Co1 Ga3 2.491743 1_555
Co1 Ho1 2.754401 1_556
Co1 Ho3 2.862945 1_455
Co1 Ho3 2.862945 1_555
Co1 Ho0 2.865715 1_555
Co2 Ga2 2.432605 1_555
Co2 Ga3 2.461818 1_555
Co2 Ga0 2.491630 1_645
Co2 Ga0 2.491630 1_545
Co2 Ho2 2.755088 1_545
Co2 Ho0 2.862622 1_555
Co2 Ho0 2.862622 1_655
Co2 Ho3 2.865454 1_545
Co3 Ga3 2.432605 1_554
Co3 Ga2 2.461818 1_555
Co3 Ga1 2.491630 1_555
Co3 Ga1 2.491630 1_655
Co3 Ho3 2.755088 1_554
Co3 Ho1 2.862622 1_655
Co3 Ho1 2.862622 1_555
Co3 Ho2 2.865454 1_555
