# generated using pymatgen
data_Dy6Mg(Sb5O12)2
_symmetry_space_group_name_H-M   'P 1'
_cell_length_a   9.33210524
_cell_length_b   9.41413939
_cell_length_c   9.41413939
_cell_angle_alpha   108.29600115
_cell_angle_beta   109.11074367
_cell_angle_gamma   109.11074367
_symmetry_Int_Tables_number   1
_chemical_formula_structural   Dy6Mg(Sb5O12)2
_chemical_formula_sum   'Dy6 Mg1 Sb10 O24'
_cell_volume   651.11652007
_cell_formula_units_Z   1
loop_
 _symmetry_equiv_pos_site_id
 _symmetry_equiv_pos_as_xyz
  1  'x, y, z'
loop_
 _atom_site_type_symbol
 _atom_site_label
 _atom_site_symmetry_multiplicity
 _atom_site_fract_x
 _atom_site_fract_y
 _atom_site_fract_z
 _atom_site_occupancy
  Dy  Dy0  1  0.75036254  0.25854556  0.50960106  1
  Dy  Dy1  1  0.75036254  0.50960106  0.25854556  1
  Dy  Dy2  1  0.50478154  0.26687097  0.75290527  1
  Dy  Dy3  1  0.50478154  0.75290527  0.26687097  1
  Dy  Dy4  1  0.26839382  0.75819221  0.51281667  1
  Dy  Dy5  1  0.26839382  0.51281667  0.75819221  1
  Mg  Mg0  1  0.67301916  0.69896532  0.69896532  1
  Sb  Sb0  1  0.52434538  0.01182344  0.01182344  1
  Sb  Sb1  1  0.27167609  0.99399495  0.28234001  1
  Sb  Sb2  1  0.27167609  0.28234001  0.99399495  1
  Sb  Sb3  1  0.75384596  0.05230951  0.76101880  1
  Sb  Sb4  1  0.75384596  0.76101880  0.05230951  1
  Sb  Sb5  1  0.99897684  0.52929895  0.00400981  1
  Sb  Sb6  1  0.99897684  0.00400981  0.52929895  1
  Sb  Sb7  1  0.42244704  0.42038752  0.42038752  1
  Sb  Sb8  1  0.98968286  0.28407370  0.28407370  1
  Sb  Sb9  1  0.03204234  0.73141112  0.73141112  1
  O  O0  1  0.47004730  0.99325191  0.19821153  1
  O  O1  1  0.47004730  0.19821153  0.99325191  1
  O  O2  1  0.70579712  0.52325506  0.00622844  1
  O  O3  1  0.70579712  0.00622844  0.52325506  1
  O  O4  1  0.78383729  0.29602000  0.29602000  1
  O  O5  1  0.48444168  0.48738990  0.19258131  1
  O  O6  1  0.48444168  0.19258131  0.48738990  1
  O  O7  1  0.51524495  0.71465295  0.01108272  1
  O  O8  1  0.51524495  0.01108272  0.71465295  1
  O  O9  1  0.68330945  0.50791056  0.50791056  1
  O  O10  1  0.78920653  0.31066880  0.79549973  1
  O  O11  1  0.78920653  0.79549973  0.31066880  1
  O  O12  1  0.19553542  0.48194934  0.99810205  1
  O  O13  1  0.19553542  0.99810205  0.48194934  1
  O  O14  1  0.47842631  0.67018049  0.48466746  1
  O  O15  1  0.47842631  0.48466746  0.67018049  1
  O  O16  1  0.98098024  0.47149835  0.18881034  1
  O  O17  1  0.98098024  0.18881034  0.47149835  1
  O  O18  1  0.29121551  0.79585287  0.29949370  1
  O  O19  1  0.29121551  0.29949370  0.79585287  1
  O  O20  1  0.18164606  0.49294796  0.49294796  1
  O  O21  1  0.00379543  0.70232261  0.50615053  1
  O  O22  1  0.00379543  0.50615053  0.70232261  1
  O  O23  1  0.29135890  0.80342051  0.80342051  1
loop_
_geom_bond_atom_site_label_1
_geom_bond_atom_site_label_2
_geom_bond_distance
_geom_bond_site_symmetry_2
Dy0 O4 2.247082 1_555
Dy0 O6 2.270976 1_555
Dy0 O22 2.289974 1_655
Dy0 O3 2.326288 1_555
Dy0 O10 2.455968 1_555
Dy0 O17 2.544440 1_555
Dy0 O9 2.623288 1_555
Dy0 O0 2.788941 1_545
Dy1 O4 2.247082 1_555
Dy1 O5 2.270976 1_555
Dy1 O21 2.289974 1_655
Dy1 O2 2.326288 1_555
Dy1 O11 2.455968 1_555
Dy1 O16 2.544440 1_555
Dy1 O9 2.623288 1_555
Dy1 O1 2.788941 1_554
Dy2 O19 2.253971 1_555
Dy2 O6 2.297383 1_555
Dy2 O2 2.350316 1_556
Dy2 O8 2.360158 1_555
Dy2 O10 2.420472 1_555
Dy2 O15 2.465426 1_555
Dy2 O1 2.627503 1_555
Dy2 O13 2.753813 1_545
Dy3 O18 2.253971 1_555
Dy3 O5 2.297383 1_555
Dy3 O3 2.350316 1_565
Dy3 O7 2.360158 1_555
Dy3 O11 2.420472 1_555
Dy3 O14 2.465426 1_555
Dy3 O0 2.627503 1_555
Dy3 O12 2.753813 1_554
Dy4 O18 2.209477 1_555
Dy4 O20 2.282445 1_555
Dy4 O8 2.299496 1_565
Dy4 O21 2.324914 1_555
Dy4 O14 2.421598 1_555
Dy4 O23 2.556701 1_555
Dy4 O13 2.633623 1_555
Dy4 O16 2.918315 1_455
Dy5 O19 2.209477 1_555
Dy5 O20 2.282445 1_555
Dy5 O7 2.299496 1_556
Dy5 O22 2.324914 1_555
Dy5 O15 2.421598 1_555
Dy5 O23 2.556701 1_555
Dy5 O12 2.633623 1_555
Dy5 O17 2.918315 1_455
Mg0 O15 2.092089 1_555
Mg0 O14 2.092089 1_555
Mg0 O9 2.162022 1_555
O0 Sb0 2.020652 1_565
O0 Sb1 2.240392 1_555
O1 Sb0 2.020652 1_556
O1 Sb2 2.240392 1_555
O2 Sb4 2.001301 1_555
O3 Sb3 2.001301 1_555
O4 Sb8 1.997602 1_555
O5 Sb2 1.989396 1_554
O5 Sb7 2.598978 1_555
O6 Sb1 1.989396 1_545
O6 Sb7 2.598978 1_555
O7 Sb4 1.997622 1_555
O8 Sb3 1.997622 1_555
O9 Sb7 2.056948 1_555
O10 Sb5 2.056837 1_556
O10 Sb3 2.244688 1_555
O11 Sb6 2.056837 1_565
O11 Sb4 2.244688 1_555
O12 Sb5 2.037914 1_456
O12 Sb2 2.210035 1_555
O13 Sb6 2.037914 1_465
O13 Sb1 2.210035 1_555
O14 Sb7 2.064995 1_555
O15 Sb7 2.064995 1_555
O16 Sb5 2.019116 1_555
O16 Sb8 2.227956 1_555
O17 Sb6 2.019116 1_555
O17 Sb8 2.227956 1_555
O18 Sb1 1.982769 1_555
O19 Sb2 1.982769 1_555
O20 Sb8 1.975255 1_455
O21 Sb9 1.965620 1_555
O22 Sb9 1.965620 1_555
O23 Sb9 2.082894 1_555
O23 Sb0 2.103021 1_566
