# generated using pymatgen
data_Ba(FeAs)2
_symmetry_space_group_name_H-M   'P 1'
_cell_length_a   3.93526499
_cell_length_b   7.13842588
_cell_length_c   7.88791525
_cell_angle_alpha   105.58982205
_cell_angle_beta   90.01223045
_cell_angle_gamma   74.02033564
_symmetry_Int_Tables_number   1
_chemical_formula_structural   Ba(FeAs)2
_chemical_formula_sum   'Ba2 Fe4 As4'
_cell_volume   204.53280677
_cell_formula_units_Z   2
loop_
 _symmetry_equiv_pos_site_id
 _symmetry_equiv_pos_as_xyz
  1  'x, y, z'
loop_
 _atom_site_type_symbol
 _atom_site_label
 _atom_site_symmetry_multiplicity
 _atom_site_fract_x
 _atom_site_fract_y
 _atom_site_fract_z
 _atom_site_occupancy
  Ba  Ba0  1  0.00001300  0.99996800  0.49994400  1
  Ba  Ba1  1  0.99999300  0.00002500  0.00003400  1
  Fe  Fe0  1  0.25190300  0.49658600  0.62421700  1
  Fe  Fe1  1  0.74813300  0.50335500  0.37589800  1
  Fe  Fe2  1  0.24922300  0.50137800  0.11770700  1
  Fe  Fe3  1  0.75079400  0.49864500  0.88214800  1
  As  As0  1  0.65414100  0.69240000  0.67280200  1
  As  As1  1  0.64669300  0.70674000  0.18222600  1
  As  As2  1  0.34583000  0.30764000  0.32718200  1
  As  As3  1  0.35327600  0.29326200  0.81784100  1
loop_
_geom_bond_atom_site_label_1
_geom_bond_atom_site_label_2
_geom_bond_distance
_geom_bond_site_symmetry_2
As0 Fe1 2.338693 1_555
As0 Fe0 2.352939 1_655
As0 Fe0 2.352954 1_555
As0 Fe3 2.392100 1_555
As0 Ba0 3.433272 1_655
As0 Ba0 3.435353 1_555
As0 Ba1 3.454641 1_566
As0 Ba1 3.457630 1_466
As1 Fe1 2.339607 1_555
As1 Fe2 2.390766 1_555
As1 Fe2 2.390795 1_655
As1 Fe3 2.398448 1_554
As1 Ba0 3.372937 1_655
As1 Ba0 3.374702 1_555
As1 Ba1 3.406192 1_565
As1 Ba1 3.406929 1_465
As2 Fe0 2.339381 1_555
As2 Fe1 2.352534 1_455
As2 Fe1 2.352651 1_555
As2 Fe2 2.392873 1_555
As2 Ba0 3.433352 1_545
As2 Ba0 3.435448 1_645
As2 Ba1 3.454187 1_455
As2 Ba1 3.457266 1_555
As3 Fe0 2.338971 1_555
As3 Fe3 2.390602 1_455
As3 Fe3 2.390952 1_555
As3 Fe2 2.397122 1_556
As3 Ba0 3.373872 1_545
As3 Ba0 3.375747 1_645
As3 Ba1 3.405870 1_456
As3 Ba1 3.406794 1_556
