# generated using pymatgen
data_Mg5Si9
_symmetry_space_group_name_H-M   'P 1'
_cell_length_a   6.78976100
_cell_length_b   6.89075023
_cell_length_c   13.20064899
_cell_angle_alpha   92.37549541
_cell_angle_beta   100.82195721
_cell_angle_gamma   116.18727197
_symmetry_Int_Tables_number   1
_chemical_formula_structural   Mg5Si9
_chemical_formula_sum   'Mg10 Si18'
_cell_volume   538.92118522
_cell_formula_units_Z   2
loop_
 _symmetry_equiv_pos_site_id
 _symmetry_equiv_pos_as_xyz
  1  'x, y, z'
loop_
 _atom_site_type_symbol
 _atom_site_label
 _atom_site_symmetry_multiplicity
 _atom_site_fract_x
 _atom_site_fract_y
 _atom_site_fract_z
 _atom_site_occupancy
  Mg  Mg0  1  0.44751900  0.42919800  0.70193900  1
  Mg  Mg1  1  0.71296700  0.75596300  0.44273200  1
  Mg  Mg2  1  0.56644000  0.15010800  0.52458300  1
  Mg  Mg3  1  0.23898100  0.72293700  0.35823200  1
  Mg  Mg4  1  0.00794100  0.60560400  0.59147100  1
  Mg  Mg5  1  0.16128700  0.29563400  0.46543900  1
  Mg  Mg6  1  0.57322500  0.72263200  0.08497500  1
  Mg  Mg7  1  0.30773100  0.29419100  0.92853300  1
  Mg  Mg8  1  0.36104300  0.02839700  0.11674600  1
  Mg  Mg9  1  0.62977700  0.05205400  0.90313900  1
  Si  Si0  1  0.07966500  0.38445800  0.09123000  1
  Si  Si1  1  0.76686300  0.49579800  0.89649400  1
  Si  Si2  1  0.33563100  0.14750300  0.32482700  1
  Si  Si3  1  0.75719100  0.97263200  0.69906200  1
  Si  Si4  1  0.66607000  0.04167900  0.30416900  1
  Si  Si5  1  0.22904600  0.93588000  0.77996300  1
  Si  Si6  1  0.75702000  0.57074200  0.24285500  1
  Si  Si7  1  0.20236700  0.56390800  0.79189700  1
  Si  Si8  1  0.94708800  0.95914300  0.24425800  1
  Si  Si9  1  0.06001300  0.01763900  0.61757200  1
  Si  Si10  1  0.91448800  0.86695200  0.85843000  1
  Si  Si11  1  0.95699700  0.00665800  0.04187600  1
  Si  Si12  1  0.37190100  0.47266800  0.25233800  1
  Si  Si13  1  0.80027800  0.33956200  0.72938100  1
  Si  Si14  1  0.71362200  0.39003900  0.07505100  1
  Si  Si15  1  0.17715500  0.64058800  0.96905100  1
  Si  Si16  1  0.42838000  0.72532800  0.57113400  1
  Si  Si17  1  0.82925700  0.41197000  0.39245600  1
loop_
_geom_bond_atom_site_label_1
_geom_bond_atom_site_label_2
_geom_bond_distance
_geom_bond_site_symmetry_2
Mg0 Si7 2.656513 1_555
Mg0 Si13 2.692198 1_555
Mg0 Si16 2.757564 1_555
Mg0 Si9 2.873608 1_555
Mg0 Si1 2.905312 1_555
Mg1 Si16 2.747868 1_555
Mg1 Si4 2.820703 1_565
Mg1 Si9 2.827245 1_665
Mg1 Si17 2.898418 1_555
Mg1 Si12 2.984629 1_555
Mg1 Si6 3.005710 1_555
Mg2 Si16 2.787052 1_545
Mg2 Si13 2.792850 1_555
Mg2 Si2 2.798035 1_555
Mg2 Si17 2.840785 1_555
Mg2 Si3 2.998199 1_545
Mg3 Si12 2.718487 1_555
Mg3 Si2 2.775828 1_565
Mg3 Si17 2.797438 1_455
Mg3 Si16 2.858826 1_555
Mg3 Si4 3.004665 1_565
Mg3 Si6 3.015811 1_455
Mg4 Si16 2.670093 1_555
Mg4 Si17 2.690316 1_455
Mg4 Si9 2.700392 1_565
Mg4 Si13 2.760827 1_455
Mg4 Si7 2.812733 1_555
Mg4 Si5 2.955803 1_555
Mg5 Si17 2.738003 1_455
Mg5 Si2 2.760985 1_555
Mg5 Si9 2.801837 1_555
Mg5 Si16 2.823222 1_555
Mg6 Si15 2.633312 1_554
Mg6 Si11 2.663037 1_565
Mg6 Si6 2.711694 1_555
Mg6 Si8 2.753380 1_555
Mg6 Si14 2.851059 1_555
Mg6 Si12 3.014590 1_555
Mg6 Si0 3.145579 1_555
Mg7 Si14 2.838675 1_556
Mg7 Si7 2.861145 1_555
Mg7 Si5 2.875555 1_545
Mg7 Si1 2.923765 1_555
Mg7 Si10 2.925923 1_445
Mg7 Si15 2.951202 1_555
Mg7 Si11 3.042135 1_456
Mg7 Si0 3.063606 1_556
Mg8 Si11 2.670619 1_455
Mg8 Si14 2.754444 1_555
Mg8 Si15 2.865382 1_544
Mg8 Si4 2.882472 1_555
Mg8 Si2 2.892123 1_555
Mg9 Si5 2.645028 1_545
Mg9 Si11 2.742452 1_556
Mg9 Si1 2.786515 1_555
Mg9 Si10 2.873050 1_545
Mg9 Si14 2.967265 1_556
Mg9 Si3 3.078329 1_545
Mg9 Si13 3.142581 1_555
Si0 Si11 2.374310 1_455
Si0 Si15 2.400027 1_554
Si0 Si12 2.464398 1_555
Si0 Si14 2.471790 1_455
Si1 Si10 2.414784 1_555
Si1 Si15 2.477718 1_655
Si1 Si13 2.506710 1_555
Si1 Si14 2.539169 1_556
Si2 Si8 2.363311 1_445
Si2 Si4 2.701319 1_555
Si3 Si9 2.403386 1_665
Si4 Si8 2.465100 1_545
Si5 Si9 2.444757 1_565
Si5 Si7 2.502367 1_555
Si6 Si8 2.401501 1_555
Si10 Si5 2.415827 1_655
Si10 Si3 2.463020 1_555
Si10 Si11 2.484609 1_566
Si11 Si8 2.714700 1_545
Si12 Si2 2.403320 1_555
Si12 Si6 2.424900 1_555
Si13 Si7 2.418144 1_655
Si13 Si3 2.420326 1_545
Si14 Si6 2.397180 1_555
Si15 Si7 2.430026 1_555
Si16 Si3 2.393293 1_555
Si17 Si6 2.372019 1_555
Si17 Si4 2.422767 1_555
