# generated using pymatgen
data_Gd3GeO8
_symmetry_space_group_name_H-M   'P 1'
_cell_length_a   10.48295600
_cell_length_b   5.45677500
_cell_length_c   6.14519040
_cell_angle_alpha   74.87099582
_cell_angle_beta   90.00000000
_cell_angle_gamma   90.00000000
_symmetry_Int_Tables_number   1
_chemical_formula_structural   Gd3GeO8
_chemical_formula_sum   'Gd6 Ge2 O16'
_cell_volume   339.34053540
_cell_formula_units_Z   2
loop_
 _symmetry_equiv_pos_site_id
 _symmetry_equiv_pos_as_xyz
  1  'x, y, z'
loop_
 _atom_site_type_symbol
 _atom_site_label
 _atom_site_symmetry_multiplicity
 _atom_site_fract_x
 _atom_site_fract_y
 _atom_site_fract_z
 _atom_site_occupancy
  Gd  Gd0  1  0.75000000  0.78665000  0.67742300  1
  Gd  Gd1  1  0.25000000  0.21335000  0.32257700  1
  Gd  Gd2  1  0.95151300  0.68465000  0.20418900  1
  Gd  Gd3  1  0.45151300  0.31535000  0.79581100  1
  Gd  Gd4  1  0.04848700  0.31535000  0.79581100  1
  Gd  Gd5  1  0.54848700  0.68465000  0.20418900  1
  Ge  Ge0  1  0.75000000  0.19386600  0.00510200  1
  Ge  Ge1  1  0.25000000  0.80613400  0.99489800  1
  O  O0  1  0.75000000  0.02254500  0.29998100  1
  O  O1  1  0.25000000  0.97745500  0.70001900  1
  O  O2  1  0.52079500  0.69757200  0.56763100  1
  O  O3  1  0.02079500  0.30242800  0.43236900  1
  O  O4  1  0.47920500  0.30242800  0.43236900  1
  O  O5  1  0.97920500  0.69757200  0.56763100  1
  O  O6  1  0.37395200  0.98492400  0.11509200  1
  O  O7  1  0.87395200  0.01507600  0.88490800  1
  O  O8  1  0.62604800  0.01507600  0.88490800  1
  O  O9  1  0.12604800  0.98492400  0.11509200  1
  O  O10  1  0.36730000  0.53940400  0.04383100  1
  O  O11  1  0.86730000  0.46059600  0.95616900  1
  O  O12  1  0.63270000  0.46059600  0.95616900  1
  O  O13  1  0.13270000  0.53940400  0.04383100  1
  O  O14  1  0.75000000  0.59683900  0.37507700  1
  O  O15  1  0.25000000  0.40316100  0.62492300  1
loop_
_geom_bond_atom_site_label_1
_geom_bond_atom_site_label_2
_geom_bond_distance
_geom_bond_site_symmetry_2
Gd0 O0 2.340585 1_565
Gd0 O14 2.351462 1_555
Gd0 O7 2.386920 1_565
Gd0 O8 2.386920 1_565
Gd0 O12 2.453761 1_555
Gd0 O11 2.453761 1_555
Gd0 O5 2.576016 1_555
Gd0 O2 2.576016 1_555
Gd1 O1 2.340585 1_545
Gd1 O15 2.351462 1_555
Gd1 O6 2.386920 1_545
Gd1 O9 2.386920 1_545
Gd1 O13 2.453761 1_555
Gd1 O10 2.453761 1_555
Gd1 O4 2.576016 1_555
Gd1 O3 2.576016 1_555
Gd2 O5 2.271478 1_555
Gd2 O3 2.305910 1_655
Gd2 O14 2.352060 1_555
Gd2 O11 2.360036 1_554
Gd2 O13 2.369506 1_655
Gd2 O9 2.421540 1_655
Gd2 O7 2.432097 1_564
Gd3 O4 2.271478 1_555
Gd3 O2 2.305910 1_555
Gd3 O15 2.352060 1_555
Gd3 O10 2.360036 1_556
Gd3 O12 2.369506 1_555
Gd3 O8 2.421540 1_555
Gd3 O6 2.432097 1_546
Gd4 O3 2.271478 1_555
Gd4 O5 2.305910 1_455
Gd4 O15 2.352060 1_555
Gd4 O13 2.360036 1_556
Gd4 O11 2.369506 1_455
Gd4 O7 2.421540 1_455
Gd4 O9 2.432097 1_546
Gd5 O2 2.271478 1_555
Gd5 O4 2.305910 1_555
Gd5 O14 2.352060 1_555
Gd5 O12 2.360036 1_554
Gd5 O10 2.369506 1_555
Gd5 O6 2.421540 1_555
Gd5 O8 2.432097 1_564
Ge0 O0 1.809241 1_555
Ge0 O12 1.868808 1_554
Ge0 O11 1.868808 1_554
Ge0 O7 1.887306 1_554
Ge0 O8 1.887306 1_554
Ge1 O1 1.809241 1_555
Ge1 O13 1.868808 1_556
Ge1 O10 1.868808 1_556
Ge1 O6 1.887306 1_556
Ge1 O9 1.887306 1_556
