# generated using pymatgen
data_Nd2CoRuO6
_symmetry_space_group_name_H-M   'P 1'
_cell_length_a   5.82096400
_cell_length_b   5.44681300
_cell_length_c   9.52156721
_cell_angle_alpha   55.15861209
_cell_angle_beta   90.00000000
_cell_angle_gamma   90.00000000
_symmetry_Int_Tables_number   1
_chemical_formula_structural   Nd2CoRuO6
_chemical_formula_sum   'Nd4 Co2 Ru2 O12'
_cell_volume   247.77055245
_cell_formula_units_Z   2
loop_
 _symmetry_equiv_pos_site_id
 _symmetry_equiv_pos_as_xyz
  1  'x, y, z'
loop_
 _atom_site_type_symbol
 _atom_site_label
 _atom_site_symmetry_multiplicity
 _atom_site_fract_x
 _atom_site_fract_y
 _atom_site_fract_z
 _atom_site_occupancy
  Nd  Nd0  1  0.43333500  0.22980300  0.74931000  1
  Nd  Nd1  1  0.56666500  0.77019700  0.25069000  1
  Nd  Nd2  1  0.93333500  0.77019700  0.75069000  1
  Nd  Nd3  1  0.06666500  0.22980300  0.24931000  1
  Co  Co0  1  0.00000000  0.50000000  0.50000000  1
  Co  Co1  1  0.50000000  0.50000000  0.00000000  1
  Ru  Ru0  1  0.00000000  0.00000000  0.00000000  1
  Ru  Ru1  1  0.50000000  0.00000000  0.50000000  1
  O  O0  1  0.19589300  0.74782100  0.95083900  1
  O  O1  1  0.80410700  0.25217900  0.04916100  1
  O  O2  1  0.69589300  0.25217900  0.54916100  1
  O  O3  1  0.30410700  0.74782100  0.45083900  1
  O  O4  1  0.70539300  0.86543000  0.94472400  1
  O  O5  1  0.29460700  0.13457000  0.05527600  1
  O  O6  1  0.20539300  0.13457000  0.55527600  1
  O  O7  1  0.79460700  0.86543000  0.44472400  1
  O  O8  1  0.03272300  0.34782600  0.75327200  1
  O  O9  1  0.96727700  0.65217400  0.24672800  1
  O  O10  1  0.53272300  0.65217400  0.74672800  1
  O  O11  1  0.46727700  0.34782600  0.25327200  1
loop_
_geom_bond_atom_site_label_1
_geom_bond_atom_site_label_2
_geom_bond_distance
_geom_bond_site_symmetry_2
Nd0 O10 2.358671 1_555
Nd0 O4 2.385253 1_545
Nd0 O2 2.391047 1_555
Nd0 O8 2.424947 1_555
Nd0 O6 2.556925 1_555
Nd0 O0 2.593923 1_545
Nd0 O3 2.727874 1_555
Nd0 O5 2.771583 1_556
Nd1 O11 2.358671 1_555
Nd1 O5 2.385253 1_565
Nd1 O3 2.391047 1_555
Nd1 O9 2.424947 1_555
Nd1 O7 2.556925 1_555
Nd1 O1 2.593923 1_565
Nd1 O2 2.727874 1_555
Nd1 O4 2.771583 1_554
Nd2 O8 2.358671 1_655
Nd2 O6 2.385253 1_665
Nd2 O0 2.391047 1_655
Nd2 O10 2.424947 1_555
Nd2 O4 2.556925 1_555
Nd2 O2 2.593923 1_565
Nd2 O1 2.727874 1_556
Nd2 O7 2.771583 1_555
Nd3 O9 2.358671 1_455
Nd3 O7 2.385253 1_445
Nd3 O1 2.391047 1_455
Nd3 O11 2.424947 1_555
Nd3 O5 2.556925 1_555
Nd3 O3 2.593923 1_545
Nd3 O0 2.727874 1_554
Nd3 O6 2.771583 1_555
Co0 O8 2.062753 1_555
Co0 O9 2.062753 1_455
Co0 O3 2.110166 1_555
Co0 O2 2.110166 1_455
Co0 O7 2.114532 1_455
Co0 O6 2.114532 1_555
Co1 O11 2.062753 1_555
Co1 O10 2.062753 1_554
Co1 O1 2.110166 1_555
Co1 O0 2.110166 1_554
Co1 O4 2.114532 1_554
Co1 O5 2.114532 1_555
O0 Ru0 2.034873 1_566
O1 Ru0 2.034873 1_655
O2 Ru1 2.034873 1_555
O3 Ru1 2.034873 1_565
O4 Ru0 2.048396 1_666
O5 Ru0 2.048396 1_555
O6 Ru1 2.048396 1_555
O7 Ru1 2.048396 1_565
O8 Ru0 2.014703 1_556
O9 Ru0 2.014703 1_665
O10 Ru1 2.014703 1_565
O11 Ru1 2.014703 1_555
