# generated using pymatgen
data_ErCdCu4
_symmetry_space_group_name_H-M   'P 1'
_cell_length_a   5.02890143
_cell_length_b   5.02890243
_cell_length_c   5.02891029
_cell_angle_alpha   59.99995493
_cell_angle_beta   59.99994833
_cell_angle_gamma   59.99994260
_symmetry_Int_Tables_number   1
_chemical_formula_structural   ErCdCu4
_chemical_formula_sum   'Er1 Cd1 Cu4'
_cell_volume   89.93002557
_cell_formula_units_Z   1
loop_
 _symmetry_equiv_pos_site_id
 _symmetry_equiv_pos_as_xyz
  1  'x, y, z'
loop_
 _atom_site_type_symbol
 _atom_site_label
 _atom_site_symmetry_multiplicity
 _atom_site_fract_x
 _atom_site_fract_y
 _atom_site_fract_z
 _atom_site_occupancy
  Er  Er0  1  0.75000000  0.75000000  0.75000000  1
  Cd  Cd0  1  0.00000000  0.00000000  -0.00000000  1
  Cu  Cu0  1  0.87756173  0.37414476  0.37414676  1
  Cu  Cu1  1  0.37414676  0.37414676  0.37414476  1
  Cu  Cu2  1  0.37414676  0.37414676  0.87756273  1
  Cu  Cu3  1  0.37414576  0.87756173  0.37414676  1
loop_
_geom_bond_atom_site_label_1
_geom_bond_atom_site_label_2
_geom_bond_distance
_geom_bond_site_symmetry_2
Cd0 Cu2 2.946636 1_454
Cd0 Cu2 2.946636 1_544
Cd0 Cu1 2.946638 1_455
Cd0 Cu1 2.946639 1_545
Cd0 Cu3 2.946642 1_445
Cd0 Cu3 2.946642 1_544
Cd0 Cu0 2.946642 1_455
Cd0 Cu0 2.946643 1_454
Cd0 Cu3 2.946647 1_545
Cd0 Cu0 2.946647 1_445
Cd0 Cu1 2.946648 1_554
Cd0 Cu2 2.946650 1_554
Cd0 Er0 3.079558 1_544
Cd0 Er0 3.079559 1_454
Cd0 Er0 3.079564 1_444
Cd0 Er0 3.079564 1_445
Cu0 Cu3 2.497268 1_645
Cu0 Cu2 2.497275 1_654
Cu0 Cu1 2.497277 1_655
Cu0 Cu1 2.531624 1_555
Cu0 Cu2 2.531627 1_555
Cu0 Cu3 2.531630 1_555
Cu0 Er0 2.950298 1_545
Cu0 Er0 2.950310 1_555
Cu0 Er0 2.950310 1_554
Cu1 Cu2 2.497266 1_554
Cu1 Cu3 2.497275 1_545
Cu1 Cu3 2.531627 1_555
Cu1 Cu2 2.531644 1_555
Cu1 Er0 2.950299 1_554
Cu1 Er0 2.950306 1_455
Cu1 Er0 2.950306 1_545
Cu2 Cu3 2.497275 1_546
Cu2 Cu3 2.531628 1_555
Cu2 Er0 2.950296 1_555
Cu2 Er0 2.950308 1_455
Cu2 Er0 2.950309 1_545
Cu3 Er0 2.950301 1_455
Cu3 Er0 2.950306 1_555
Cu3 Er0 2.950310 1_554
