# generated using pymatgen
data_RbNdF4
_symmetry_space_group_name_H-M   'P 1'
_cell_length_a   3.75714749
_cell_length_b   6.35663449
_cell_length_c   16.04463220
_cell_angle_alpha   90.00000000
_cell_angle_beta   90.00000000
_cell_angle_gamma   90.00000000
_symmetry_Int_Tables_number   1
_chemical_formula_structural   RbNdF4
_chemical_formula_sum   'Rb4 Nd4 F16'
_cell_volume   383.19095560
_cell_formula_units_Z   4
loop_
 _symmetry_equiv_pos_site_id
 _symmetry_equiv_pos_as_xyz
  1  'x, y, z'
loop_
 _atom_site_type_symbol
 _atom_site_label
 _atom_site_symmetry_multiplicity
 _atom_site_fract_x
 _atom_site_fract_y
 _atom_site_fract_z
 _atom_site_occupancy
  Rb  Rb0  1  0.25000000  0.72564830  0.70115856  1
  Rb  Rb1  1  0.75000000  0.27435170  0.29884144  1
  Rb  Rb2  1  0.75000000  0.77435170  0.20115856  1
  Rb  Rb3  1  0.25000000  0.22564830  0.79884144  1
  Nd  Nd0  1  0.25000000  0.25142843  0.05699483  1
  Nd  Nd1  1  0.75000000  0.74857157  0.94300517  1
  Nd  Nd2  1  0.75000000  0.24857157  0.55699483  1
  Nd  Nd3  1  0.25000000  0.75142843  0.44300517  1
  F  F0  1  0.25000000  0.61004571  0.87145896  1
  F  F1  1  0.75000000  0.38995429  0.12854104  1
  F  F2  1  0.75000000  0.88995429  0.37145896  1
  F  F3  1  0.25000000  0.11004571  0.62854104  1
  F  F4  1  0.25000000  0.63348600  0.03673070  1
  F  F5  1  0.75000000  0.36651400  0.96326930  1
  F  F6  1  0.75000000  0.86651400  0.53673070  1
  F  F7  1  0.25000000  0.13348600  0.46326930  1
  F  F8  1  0.25000000  0.50011354  0.55532132  1
  F  F9  1  0.75000000  0.49988646  0.44467868  1
  F  F10  1  0.75000000  0.99988646  0.05532132  1
  F  F11  1  0.25000000  0.00011354  0.94467868  1
  F  F12  1  0.25000000  0.59629974  0.31381302  1
  F  F13  1  0.75000000  0.40370026  0.68618698  1
  F  F14  1  0.75000000  0.90370026  0.81381302  1
  F  F15  1  0.25000000  0.09629974  0.18618698  1
loop_
_geom_bond_atom_site_label_1
_geom_bond_atom_site_label_2
_geom_bond_distance
_geom_bond_site_symmetry_2
F0 Nd1 2.371112 1_555
F0 Nd1 2.371112 1_455
F0 Rb3 2.707041 1_555
F0 Rb0 2.829495 1_555
F1 Nd0 2.371112 1_555
F1 Nd0 2.371112 1_655
F1 Rb2 2.707041 1_555
F1 Rb1 2.829495 1_555
F2 Nd3 2.371112 1_655
F2 Nd3 2.371112 1_555
F2 Rb1 2.707041 1_565
F2 Rb2 2.829495 1_555
F3 Nd2 2.371112 1_555
F3 Nd2 2.371112 1_455
F3 Rb0 2.707041 1_545
F3 Rb3 2.829495 1_555
F4 Nd0 2.450267 1_555
F4 Nd1 2.515075 1_554
F4 Nd1 2.515075 1_454
F5 Nd1 2.450267 1_555
F5 Nd0 2.515075 1_556
F5 Nd0 2.515075 1_656
F6 Nd2 2.450267 1_565
F6 Nd3 2.515075 1_655
F6 Nd3 2.515075 1_555
F7 Nd3 2.450267 1_545
F7 Nd2 2.515075 1_555
F7 Nd2 2.515075 1_455
F8 Nd3 2.408220 1_555
F8 Nd2 2.467070 1_555
F8 Nd2 2.467070 1_455
F8 Rb0 2.744173 1_555
F9 Nd2 2.408220 1_555
F9 Nd3 2.467070 1_555
F9 Nd3 2.467070 1_655
F9 Rb1 2.744173 1_555
F10 Nd1 2.408220 1_554
F10 Nd0 2.467070 1_565
F10 Nd0 2.467070 1_665
F10 Rb2 2.744173 1_555
F11 Nd0 2.408220 1_556
F11 Nd1 2.467070 1_545
F11 Nd1 2.467070 1_445
F11 Rb3 2.744173 1_555
F12 Nd3 2.295442 1_555
F12 Rb1 2.788356 1_455
F12 Rb1 2.788356 1_555
F12 Rb2 2.842022 1_455
F12 Rb2 2.842022 1_555
F13 Nd2 2.295442 1_555
F13 Rb0 2.788356 1_655
F13 Rb0 2.788356 1_555
F13 Rb3 2.842022 1_655
F13 Rb3 2.842022 1_555
F14 Nd1 2.295442 1_555
F14 Rb3 2.788356 1_665
F14 Rb3 2.788356 1_565
F14 Rb0 2.842022 1_655
F14 Rb0 2.842022 1_555
F15 Nd0 2.295442 1_555
F15 Rb2 2.788356 1_545
F15 Rb2 2.788356 1_445
F15 Rb1 2.842022 1_555
F15 Rb1 2.842022 1_455
