# generated using pymatgen
data_CeSe2
_symmetry_space_group_name_H-M   'P 1'
_cell_length_a   8.60927065
_cell_length_b   20.43673792
_cell_length_c   21.62144054
_cell_angle_alpha   108.05345535
_cell_angle_beta   101.48381261
_cell_angle_gamma   89.99999999
_symmetry_Int_Tables_number   1
_chemical_formula_structural   CeSe2
_chemical_formula_sum   'Ce14 Se28'
_cell_volume   3536.71759879
_cell_formula_units_Z   14
loop_
 _symmetry_equiv_pos_site_id
 _symmetry_equiv_pos_as_xyz
  1  'x, y, z'
loop_
 _atom_site_type_symbol
 _atom_site_label
 _atom_site_symmetry_multiplicity
 _atom_site_fract_x
 _atom_site_fract_y
 _atom_site_fract_z
 _atom_site_occupancy
  Ce  Ce0  1  0.07146696  0.15932258  0.14293393  1
  Ce  Ce1  1  0.92853304  0.84067742  0.85706607  1
  Ce  Ce2  1  0.06235020  0.91330055  0.12470040  1
  Ce  Ce3  1  0.93764980  0.08669945  0.87529960  1
  Ce  Ce4  1  0.36938908  0.70889835  0.73877817  1
  Ce  Ce5  1  0.63061092  0.29110165  0.26122183  1
  Ce  Ce6  1  0.38070519  0.12031090  0.76141037  1
  Ce  Ce7  1  0.61929481  0.87968910  0.23858963  1
  Ce  Ce8  1  0.29333838  0.86556515  0.58667676  1
  Ce  Ce9  1  0.70666162  0.13443485  0.41332324  1
  Ce  Ce10  1  0.27903084  0.20974673  0.55806168  1
  Ce  Ce11  1  0.72096916  0.79025327  0.44193832  1
  Ce  Ce12  1  0.28423515  0.47821280  0.56847029  1
  Ce  Ce13  1  0.71576485  0.52178720  0.43152971  1
  Se  Se0  1  0.09647814  0.05133605  0.19295628  1
  Se  Se1  1  0.90352186  0.94866395  0.80704372  1
  Se  Se2  1  0.00444484  0.10848979  0.00888967  1
  Se  Se3  1  0.99555516  0.89151021  0.99111033  1
  Se  Se4  1  0.84180587  0.24401108  0.18219988  1
  Se  Se5  1  0.34039402  0.24401108  0.18219988  1
  Se  Se6  1  0.15819413  0.75598892  0.81780012  1
  Se  Se7  1  0.65960598  0.75598892  0.81780012  1
  Se  Se8  1  0.31551695  0.75466803  0.63103390  1
  Se  Se9  1  0.68448305  0.24533197  0.36896610  1
  Se  Se10  1  0.67160270  0.15174403  0.84382391  1
  Se  Se11  1  0.17222121  0.15174403  0.84382391  1
  Se  Se12  1  0.32839730  0.84825597  0.15617609  1
  Se  Se13  1  0.82777879  0.84825597  0.15617609  1
  Se  Se14  1  0.34705092  0.56877678  0.69410185  1
  Se  Se15  1  0.65294908  0.43122322  0.30589815  1
  Se  Se16  1  0.00000000  0.50000000  0.50000000  1
  Se  Se17  1  0.50000000  0.50000000  0.50000000  1
  Se  Se18  1  0.99651712  0.13898013  0.49292469  1
  Se  Se19  1  0.49640757  0.13898013  0.49292469  1
  Se  Se20  1  0.00348288  0.86101987  0.50707531  1
  Se  Se21  1  0.50359243  0.86101987  0.50707531  1
  Se  Se22  1  0.34225120  0.20505055  0.68450239  1
  Se  Se23  1  0.65774880  0.79494945  0.31549761  1
  Se  Se24  1  0.34487769  0.98452830  0.68975537  1
  Se  Se25  1  0.65512231  0.01547170  0.31024463  1
  Se  Se26  1  0.28311971  0.34513615  0.56623943  1
  Se  Se27  1  0.71688029  0.65486385  0.43376057  1
loop_
_geom_bond_atom_site_label_1
_geom_bond_atom_site_label_2
_geom_bond_distance
_geom_bond_site_symmetry_2
Ce0 Se2 2.698124 1_555
Ce0 Se4 2.717229 1_455
Ce0 Se5 2.717229 1_555
Ce0 Se0 2.733711 1_555
Ce1 Se3 2.698124 1_555
Ce1 Se6 2.717229 1_655
Ce1 Se7 2.717229 1_555
Ce1 Se1 2.733711 1_555
Ce2 Se3 2.722736 1_454
Ce2 Se12 2.723321 1_555
Ce2 Se13 2.723321 1_455
Ce2 Se0 2.732995 1_565
Ce3 Se2 2.722736 1_656
Ce3 Se10 2.723321 1_555
Ce3 Se11 2.723321 1_655
Ce3 Se1 2.732995 1_545
Ce4 Se7 2.714626 1_555
Ce4 Se6 2.714626 1_555
Ce4 Se14 2.716979 1_555
Ce4 Se8 2.727160 1_555
Ce5 Se5 2.714626 1_555
Ce5 Se4 2.714626 1_555
Ce5 Se15 2.716979 1_555
Ce5 Se9 2.727160 1_555
Ce6 Se24 2.709397 1_545
Ce6 Se10 2.715422 1_555
Ce6 Se11 2.715422 1_555
Ce6 Se22 2.727551 1_555
Ce7 Se25 2.709397 1_565
Ce7 Se12 2.715422 1_555
Ce7 Se13 2.715422 1_555
Ce7 Se23 2.727551 1_555
Ce8 Se24 2.706042 1_555
Ce8 Se8 2.714226 1_555
Ce8 Se20 2.718236 1_555
Ce8 Se21 2.718236 1_555
Ce9 Se25 2.706042 1_555
Ce9 Se9 2.714226 1_555
Ce9 Se18 2.718236 1_555
Ce9 Se19 2.718236 1_555
Ce10 Se22 2.710982 1_555
Ce10 Se18 2.713753 1_455
Ce10 Se19 2.713753 1_555
Ce10 Se26 2.717100 1_555
Ce11 Se23 2.710982 1_555
Ce11 Se20 2.713753 1_655
Ce11 Se21 2.713753 1_555
Ce11 Se27 2.717100 1_555
Ce12 Se26 2.705076 1_555
Ce12 Se17 2.709996 1_555
Ce12 Se16 2.709996 1_555
Ce12 Se14 2.719471 1_555
Ce13 Se27 2.705076 1_555
Ce13 Se17 2.709996 1_555
Ce13 Se16 2.709996 1_655
Ce13 Se15 2.719471 1_555
