# generated using pymatgen
data_LaCo8Si5
_symmetry_space_group_name_H-M   'P 1'
_cell_length_a   7.97346998
_cell_length_b   7.97346998
_cell_length_c   7.97346998
_cell_angle_alpha   121.49935429
_cell_angle_beta   121.49935429
_cell_angle_gamma   87.42208581
_symmetry_Int_Tables_number   1
_chemical_formula_structural   LaCo8Si5
_chemical_formula_sum   'La2 Co16 Si10'
_cell_volume   349.94038382
_cell_formula_units_Z   2
loop_
 _symmetry_equiv_pos_site_id
 _symmetry_equiv_pos_as_xyz
  1  'x, y, z'
loop_
 _atom_site_type_symbol
 _atom_site_label
 _atom_site_symmetry_multiplicity
 _atom_site_fract_x
 _atom_site_fract_y
 _atom_site_fract_z
 _atom_site_occupancy
  La  La0  1  0.25000000  0.25000000  0.00000000  1
  La  La1  1  0.75000000  0.75000000  0.00000000  1
  Co  Co0  1  0.29571600  0.79571600  0.73340800  1
  Co  Co1  1  0.70428400  0.20428400  0.26659200  1
  Co  Co2  1  0.06230800  0.56230800  0.26659200  1
  Co  Co3  1  0.79571600  0.06230800  0.50000000  1
  Co  Co4  1  0.43769200  0.70428400  0.50000000  1
  Co  Co5  1  0.93769200  0.43769200  0.73340800  1
  Co  Co6  1  0.20428400  0.93769200  0.50000000  1
  Co  Co7  1  0.56230800  0.29571600  0.50000000  1
  Co  Co8  1  0.21137600  0.05734200  0.26871700  1
  Co  Co9  1  0.78862400  0.94265800  0.73128300  1
  Co  Co10  1  0.05734200  0.78862400  0.84596600  1
  Co  Co11  1  0.71137600  0.44265800  0.15403400  1
  Co  Co12  1  0.94265800  0.21137600  0.15403400  1
  Co  Co13  1  0.28862400  0.55734200  0.84596600  1
  Co  Co14  1  0.55734200  0.71137600  0.26871700  1
  Co  Co15  1  0.44265800  0.28862400  0.73128300  1
  Si  Si0  1  0.80729800  0.30729800  0.86523100  1
  Si  Si1  1  0.19270200  0.69270200  0.13476900  1
  Si  Si2  1  0.44206600  0.94206600  0.13476900  1
  Si  Si3  1  0.30729800  0.44206600  0.50000000  1
  Si  Si4  1  0.05793400  0.19270200  0.50000000  1
  Si  Si5  1  0.55793400  0.05793400  0.86523100  1
  Si  Si6  1  0.69270200  0.55793400  0.50000000  1
  Si  Si7  1  0.94206600  0.80729800  0.50000000  1
  Si  Si8  1  0.50000000  0.00000000  0.50000000  1
  Si  Si9  1  0.00000000  0.50000000  0.50000000  1
loop_
_geom_bond_atom_site_label_1
_geom_bond_atom_site_label_2
_geom_bond_distance
_geom_bond_site_symmetry_2
La0 Si1 3.198070 1_555
La0 Si0 3.198070 1_454
La0 Si3 3.198072 1_555
La0 Si4 3.198072 1_554
La0 Si7 3.198072 1_444
La0 Si6 3.198072 1_555
La0 Si2 3.198075 1_545
La0 Si5 3.198075 1_554
La1 Si1 3.198070 1_655
La1 Si0 3.198070 1_554
La1 Si3 3.198072 1_554
La1 Si4 3.198072 1_665
La1 Si7 3.198072 1_555
La1 Si6 3.198072 1_554
La1 Si5 3.198075 1_564
La1 Si2 3.198075 1_555
Co0 Si2 2.298403 1_556
Co0 Si5 2.376534 1_565
Co0 Si9 2.431421 1_555
Co0 Co6 2.446654 1_555
Co0 Co4 2.446654 1_555
Co0 Si7 2.468955 1_455
Co0 Si3 2.468955 1_555
Co0 Co10 2.503285 1_555
Co0 Co13 2.503285 1_555
Co0 Co2 2.572082 1_555
Co0 La0 3.227503 1_566
Co0 La1 3.227503 1_556
Co1 Si5 2.298403 1_554
Co1 Si2 2.376534 1_545
Co1 Si9 2.431421 1_655
Co1 Co3 2.446654 1_555
Co1 Co7 2.446654 1_555
Co1 Si4 2.468955 1_655
Co1 Si6 2.468955 1_555
Co1 Co11 2.503285 1_555
Co1 Co12 2.503285 1_555
Co1 Co5 2.572082 1_555
Co1 La1 3.227503 1_545
Co1 La0 3.227503 1_555
Co2 Si0 2.298400 1_454
Co2 Si1 2.376523 1_555
Co2 Si9 2.431421 1_555
Co2 Co6 2.446654 1_555
Co2 Co4 2.446654 1_555
Co2 Si3 2.468955 1_555
Co2 Si7 2.468955 1_455
Co2 La0 3.227503 1_555
Co2 La1 3.227503 1_455
Co3 Si7 2.298396 1_545
Co3 Si4 2.376530 1_655
Co3 Si8 2.431421 1_555
Co3 Co5 2.446654 1_555
Co3 Si0 2.468949 1_555
Co3 Si2 2.468952 1_545
Co3 Co9 2.503292 1_545
Co3 Co7 2.572082 1_555
Co3 La1 3.227503 1_545
Co3 La0 3.227503 1_656
Co4 Si6 2.298396 1_555
Co4 Si3 2.376530 1_555
Co4 Si8 2.431421 1_565
Co4 Si1 2.468949 1_555
Co4 Si5 2.468952 1_565
Co4 Co9 2.503283 1_555
Co4 Co6 2.572082 1_555
Co4 La0 3.227503 1_555
Co4 La1 3.227503 1_556
Co5 Si1 2.298400 1_656
Co5 Si0 2.376523 1_555
Co5 Si9 2.431421 1_655
Co5 Co7 2.446654 1_555
Co5 Si4 2.468955 1_655
Co5 Si6 2.468955 1_555
Co5 La1 3.227503 1_556
Co5 La0 3.227503 1_656
Co6 Si4 2.298396 1_565
Co6 Si7 2.376530 1_455
Co6 Si8 2.431421 1_565
Co6 Si1 2.468949 1_555
Co6 Si5 2.468952 1_565
Co6 Co8 2.503292 1_565
Co6 La0 3.227503 1_566
Co6 La1 3.227503 1_455
Co7 Si3 2.298396 1_555
Co7 Si6 2.376530 1_555
Co7 Si8 2.431421 1_555
Co7 Si0 2.468949 1_555
Co7 Si2 2.468952 1_545
Co7 Co8 2.503283 1_555
Co7 La1 3.227503 1_556
Co7 La0 3.227503 1_555
Co8 Si8 2.292943 1_555
Co8 Si3 2.494306 1_555
Co8 Si4 2.494312 1_555
Co8 Si2 2.498778 1_545
Co8 Si1 2.498791 1_545
Co8 La0 3.349160 1_555
Co8 La1 3.349170 1_445
Co9 Si8 2.292943 1_565
Co9 Si6 2.494306 1_555
Co9 Si7 2.494312 1_555
Co9 Si5 2.498778 1_565
Co9 Si0 2.498791 1_565
Co9 La1 3.349160 1_556
Co9 La0 3.349170 1_666
Co10 Si9 2.292940 1_555
Co10 Co8 2.413479 1_566
Co10 Co9 2.413483 1_455
Co10 Si2 2.494306 1_556
Co10 Si1 2.494313 1_556
Co10 Si6 2.498788 1_455
Co10 Si7 2.498788 1_455
Co10 Co5 2.503285 1_455
Co10 Co13 2.548654 1_555
Co10 La0 3.349167 1_566
Co10 La1 3.349167 1_456
Co11 Si9 2.292940 1_655
Co11 Co15 2.413479 1_554
Co11 Co14 2.413483 1_555
Co11 Si5 2.494306 1_554
Co11 Si0 2.494313 1_554
Co11 Si7 2.498788 1_555
Co11 Si6 2.498788 1_555
Co11 Co2 2.503285 1_655
Co11 Co12 2.548654 1_555
Co11 La1 3.349167 1_555
Co11 La0 3.349167 1_555
Co12 Si9 2.292940 1_655
Co12 Co9 2.413479 1_544
Co12 Co8 2.413483 1_655
Co12 Si5 2.494306 1_554
Co12 Si0 2.494313 1_554
Co12 Si3 2.498788 1_655
Co12 Si4 2.498788 1_655
Co12 Co2 2.503285 1_655
Co12 La1 3.349167 1_545
Co12 La0 3.349167 1_655
Co13 Si9 2.292940 1_555
Co13 Co14 2.413479 1_556
Co13 Co15 2.413483 1_555
Co13 Si2 2.494306 1_556
Co13 Si1 2.494313 1_556
Co13 Si3 2.498788 1_555
Co13 Si4 2.498788 1_555
Co13 Co5 2.503285 1_455
Co13 La0 3.349167 1_556
Co13 La1 3.349167 1_556
Co14 Si8 2.292943 1_565
Co14 Si7 2.494306 1_555
Co14 Si6 2.494312 1_555
Co14 Si2 2.498778 1_555
Co14 Si1 2.498791 1_555
Co14 Co3 2.503283 1_565
Co14 Co4 2.503292 1_555
Co14 Co9 2.548665 1_555
Co14 La1 3.349160 1_555
Co14 La0 3.349170 1_555
Co15 Si8 2.292943 1_555
Co15 Si4 2.494306 1_555
Co15 Si3 2.494312 1_555
Co15 Si5 2.498778 1_555
Co15 Si0 2.498791 1_555
Co15 Co6 2.503283 1_545
Co15 Co7 2.503292 1_555
Co15 Co8 2.548665 1_555
Co15 La0 3.349160 1_556
Co15 La1 3.349170 1_556
Si0 Si8 2.472892 1_555
Si1 Si8 2.472892 1_565
Si2 Si8 2.472886 1_565
Si3 Si9 2.472893 1_555
Si4 Si9 2.472893 1_555
Si5 Si8 2.472886 1_555
Si6 Si9 2.472893 1_655
Si7 Si9 2.472893 1_655
