# generated using pymatgen
data_K8Rh3(Br9O5)2
_symmetry_space_group_name_H-M   'P 1'
_cell_length_a   9.89614400
_cell_length_b   15.47090600
_cell_length_c   16.10184500
_cell_angle_alpha   90.00000000
_cell_angle_beta   90.00000000
_cell_angle_gamma   90.00000000
_symmetry_Int_Tables_number   1
_chemical_formula_structural   K8Rh3(Br9O5)2
_chemical_formula_sum   'K16 Rh6 Br36 O20'
_cell_volume   2465.22972251
_cell_formula_units_Z   2
loop_
 _symmetry_equiv_pos_site_id
 _symmetry_equiv_pos_as_xyz
  1  'x, y, z'
loop_
 _atom_site_type_symbol
 _atom_site_label
 _atom_site_symmetry_multiplicity
 _atom_site_fract_x
 _atom_site_fract_y
 _atom_site_fract_z
 _atom_site_occupancy
  K  K0  1  0.26216900  0.90975900  0.18353400  1
  K  K1  1  0.26216900  0.09024100  0.81646600  1
  K  K2  1  0.73783100  0.40975900  0.31646600  1
  K  K3  1  0.73783100  0.59024100  0.68353400  1
  K  K4  1  0.73783100  0.09024100  0.81646600  1
  K  K5  1  0.73783100  0.90975900  0.18353400  1
  K  K6  1  0.26216900  0.59024100  0.68353400  1
  K  K7  1  0.26216900  0.40975900  0.31646600  1
  K  K8  1  0.24830600  0.70147100  0.41091200  1
  K  K9  1  0.24830600  0.29852900  0.58908800  1
  K  K10  1  0.75169400  0.20147100  0.08908800  1
  K  K11  1  0.75169400  0.79852900  0.91091200  1
  K  K12  1  0.75169400  0.29852900  0.58908800  1
  K  K13  1  0.75169400  0.70147100  0.41091200  1
  K  K14  1  0.24830600  0.79852900  0.91091200  1
  K  K15  1  0.24830600  0.20147100  0.08908800  1
  Rh  Rh0  1  0.00000000  0.50000000  0.50000000  1
  Rh  Rh1  1  0.00000000  0.00000000  0.00000000  1
  Rh  Rh2  1  0.50000000  0.68055000  0.18819800  1
  Rh  Rh3  1  0.50000000  0.31945000  0.81180200  1
  Rh  Rh4  1  0.50000000  0.18055000  0.31180200  1
  Rh  Rh5  1  0.50000000  0.81945000  0.68819800  1
  Br  Br0  1  0.00000000  0.65203600  0.55645300  1
  Br  Br1  1  0.00000000  0.34796400  0.44354700  1
  Br  Br2  1  0.00000000  0.15203600  0.94354700  1
  Br  Br3  1  0.00000000  0.84796400  0.05645300  1
  Br  Br4  1  0.25510800  0.50000000  0.50000000  1
  Br  Br5  1  0.74489200  0.00000000  0.00000000  1
  Br  Br6  1  0.74489200  0.50000000  0.50000000  1
  Br  Br7  1  0.25510800  0.00000000  0.00000000  1
  Br  Br8  1  0.00000000  0.55749800  0.35336300  1
  Br  Br9  1  0.00000000  0.44250200  0.64663700  1
  Br  Br10  1  0.00000000  0.05749800  0.14663700  1
  Br  Br11  1  0.00000000  0.94250200  0.85336300  1
  Br  Br12  1  0.50000000  0.80330700  0.29572700  1
  Br  Br13  1  0.50000000  0.19669300  0.70427300  1
  Br  Br14  1  0.50000000  0.30330700  0.20427300  1
  Br  Br15  1  0.50000000  0.69669300  0.79572700  1
  Br  Br16  1  0.24637200  0.68429900  0.19278100  1
  Br  Br17  1  0.24637200  0.31570100  0.80721900  1
  Br  Br18  1  0.75362800  0.18429900  0.30721900  1
  Br  Br19  1  0.75362800  0.81570100  0.69278100  1
  Br  Br20  1  0.75362800  0.31570100  0.80721900  1
  Br  Br21  1  0.75362800  0.68429900  0.19278100  1
  Br  Br22  1  0.24637200  0.81570100  0.69278100  1
  Br  Br23  1  0.24637200  0.18429900  0.30721900  1
  Br  Br24  1  0.50000000  0.57417500  0.30763900  1
  Br  Br25  1  0.50000000  0.42582500  0.69236100  1
  Br  Br26  1  0.50000000  0.07417500  0.19236100  1
  Br  Br27  1  0.50000000  0.92582500  0.80763900  1
  Br  Br28  1  0.50000000  0.79316800  0.07314400  1
  Br  Br29  1  0.50000000  0.20683200  0.92685600  1
  Br  Br30  1  0.50000000  0.29316800  0.42685600  1
  Br  Br31  1  0.50000000  0.70683200  0.57314400  1
  Br  Br32  1  0.50000000  0.56452700  0.08649900  1
  Br  Br33  1  0.50000000  0.43547300  0.91350100  1
  Br  Br34  1  0.50000000  0.06452700  0.41350100  1
  Br  Br35  1  0.50000000  0.93547300  0.58649900  1
  O  O0  1  0.00000000  0.85094200  0.36424900  1
  O  O1  1  0.00000000  0.14905800  0.63575100  1
  O  O2  1  0.00000000  0.35094200  0.13575100  1
  O  O3  1  0.00000000  0.64905800  0.86424900  1
  O  O4  1  0.19752100  0.89632600  0.44274600  1
  O  O5  1  0.19752100  0.10367400  0.55725400  1
  O  O6  1  0.80247900  0.39632600  0.05725400  1
  O  O7  1  0.80247900  0.60367400  0.94274600  1
  O  O8  1  0.80247900  0.10367400  0.55725400  1
  O  O9  1  0.80247900  0.89632600  0.44274600  1
  O  O10  1  0.19752100  0.60367400  0.94274600  1
  O  O11  1  0.19752100  0.39632600  0.05725400  1
  O  O12  1  0.13251600  0.91389300  0.37781000  1
  O  O13  1  0.13251600  0.08610700  0.62219000  1
  O  O14  1  0.86748400  0.41389300  0.12219000  1
  O  O15  1  0.86748400  0.58610700  0.87781000  1
  O  O16  1  0.86748400  0.08610700  0.62219000  1
  O  O17  1  0.86748400  0.91389300  0.37781000  1
  O  O18  1  0.13251600  0.58610700  0.87781000  1
  O  O19  1  0.13251600  0.41389300  0.12219000  1
loop_
_geom_bond_atom_site_label_1
_geom_bond_atom_site_label_2
_geom_bond_distance
_geom_bond_site_symmetry_2
K0 O12 3.381715 1_555
K1 O13 3.381715 1_555
K2 O14 3.381715 1_555
K3 O15 3.381715 1_555
K4 O16 3.381715 1_555
K5 O17 3.381715 1_555
K6 O18 3.381715 1_555
K7 O19 3.381715 1_555
K8 O4 3.098877 1_555
K9 O5 3.098877 1_555
K10 O6 3.098877 1_555
K11 O7 3.098877 1_555
K12 O8 3.098877 1_555
K13 O9 3.098877 1_555
K14 O10 3.098877 1_555
K15 O11 3.098877 1_555
Br0 Rh0 2.521669 1_555
Br0 K6 3.439812 1_555
Br0 K3 3.439812 1_455
Br0 K8 3.480661 1_555
Br0 K13 3.480661 1_455
Br1 Rh0 2.521669 1_555
Br1 K2 3.439812 1_455
Br1 K7 3.439812 1_555
Br1 K12 3.480661 1_455
Br1 K9 3.480661 1_555
Br2 Rh1 2.521669 1_556
Br2 K4 3.439812 1_455
Br2 K1 3.439812 1_555
Br2 K15 3.480661 1_556
Br2 K10 3.480661 1_456
Br3 Rh1 2.521669 1_565
Br3 K0 3.439812 1_555
Br3 K5 3.439812 1_455
Br3 K14 3.480661 1_554
Br3 K11 3.480661 1_454
Br4 Rh0 2.524586 1_555
Br4 K6 3.269163 1_555
Br4 K7 3.269163 1_555
Br4 K8 3.431847 1_555
Br4 K9 3.431847 1_555
Br5 Rh1 2.524586 1_655
Br5 K5 3.269163 1_545
Br5 K4 3.269163 1_554
Br5 K10 3.431847 1_555
Br5 K11 3.431847 1_544
Br6 Rh0 2.524586 1_655
Br6 K3 3.269163 1_555
Br6 K2 3.269163 1_555
Br6 K13 3.431847 1_555
Br6 K12 3.431847 1_555
Br7 Rh1 2.524586 1_555
Br7 K0 3.269163 1_545
Br7 K1 3.269163 1_554
Br7 K15 3.431847 1_555
Br7 K14 3.431847 1_544
Br8 Rh0 2.523135 1_555
Br8 K8 3.443564 1_555
Br8 K13 3.443564 1_455
Br8 K2 3.508336 1_455
Br8 K7 3.508336 1_555
Br9 Rh0 2.523135 1_555
Br9 K12 3.443564 1_455
Br9 K9 3.443564 1_555
Br9 K6 3.508336 1_555
Br9 K3 3.508336 1_455
Br10 Rh1 2.523135 1_555
Br10 K15 3.443564 1_555
Br10 K10 3.443564 1_455
Br10 K5 3.508336 1_445
Br10 K0 3.508336 1_545
Br11 Rh1 2.523135 1_566
Br11 K14 3.443564 1_555
Br11 K11 3.443564 1_455
Br11 K4 3.508336 1_465
Br11 K1 3.508336 1_565
Br12 Rh2 2.569945 1_555
Br12 K0 3.393417 1_555
Br12 K5 3.393417 1_555
Br12 K13 3.482262 1_555
Br12 K8 3.482262 1_555
Br13 Rh3 2.569945 1_555
Br13 K4 3.393417 1_555
Br13 K1 3.393417 1_555
Br13 K12 3.482262 1_555
Br13 K9 3.482262 1_555
Br14 Rh4 2.569945 1_555
Br14 K7 3.393417 1_555
Br14 K2 3.393417 1_555
Br14 K15 3.482262 1_555
Br14 K10 3.482262 1_555
Br15 Rh5 2.569945 1_555
Br15 K6 3.393417 1_555
Br15 K3 3.393417 1_555
Br15 K14 3.482262 1_555
Br15 K11 3.482262 1_555
Br16 Rh2 2.511694 1_555
Br16 K0 3.494745 1_555
Br16 K8 3.522397 1_555
Br17 Rh3 2.511694 1_555
Br17 K1 3.494745 1_555
Br17 K9 3.522397 1_555
Br18 Rh4 2.511694 1_555
Br18 K2 3.494745 1_555
Br18 K10 3.522397 1_555
Br19 Rh5 2.511694 1_555
Br19 K3 3.494745 1_555
Br19 K11 3.522397 1_555
Br20 Rh3 2.511694 1_555
Br20 K4 3.494745 1_555
Br20 K12 3.522397 1_555
Br21 Rh2 2.511694 1_555
Br21 K5 3.494745 1_555
Br21 K13 3.522397 1_555
Br22 Rh5 2.511694 1_555
Br22 K6 3.494745 1_555
Br22 K14 3.522397 1_555
Br23 Rh4 2.511694 1_555
Br23 K7 3.494745 1_555
Br23 K15 3.522397 1_555
Br24 Rh2 2.531238 1_555
Br24 K7 3.468416 1_555
Br24 K2 3.468416 1_555
Br24 K13 3.584376 1_555
Br24 K8 3.584376 1_555
Br25 Rh3 2.531238 1_555
Br25 K6 3.468416 1_555
Br25 K3 3.468416 1_555
Br25 K12 3.584376 1_555
Br25 K9 3.584376 1_555
Br26 Rh4 2.531238 1_555
Br26 K0 3.468416 1_545
Br26 K5 3.468416 1_545
Br26 K15 3.584376 1_555
Br26 K10 3.584376 1_555
Br27 Rh5 2.531238 1_555
Br27 K1 3.468416 1_565
Br27 K4 3.468416 1_565
Br27 K14 3.584376 1_555
Br27 K11 3.584376 1_555
Br28 Rh2 2.543163 1_555
Br28 K5 3.457239 1_555
Br28 K0 3.457239 1_555
Br28 K11 3.610365 1_554
Br28 K14 3.610365 1_554
Br29 Rh3 2.543163 1_555
Br29 K1 3.457239 1_555
Br29 K4 3.457239 1_555
Br29 K10 3.610365 1_556
Br29 K15 3.610365 1_556
Br30 Rh4 2.543163 1_555
Br30 K7 3.457239 1_555
Br30 K2 3.457239 1_555
Br30 K12 3.610365 1_555
Br30 K9 3.610365 1_555
Br31 Rh5 2.543163 1_555
Br31 K6 3.457239 1_555
Br31 K3 3.457239 1_555
Br31 K13 3.610365 1_555
Br31 K8 3.610365 1_555
Br32 Rh2 2.429712 1_555
Br33 Rh3 2.429712 1_555
Br34 Rh4 2.429712 1_555
Br35 Rh5 2.429712 1_555
O0 O12 1.648011 1_555
O0 O17 1.648011 1_455
O1 O13 1.648011 1_555
O1 O16 1.648011 1_455
O10 O18 1.257360 1_555
O11 O19 1.257360 1_555
O12 O4 1.257360 1_555
O13 O5 1.257360 1_555
O14 O6 1.257360 1_555
O14 O2 1.648011 1_655
O15 O7 1.257360 1_555
O15 O3 1.648011 1_655
O16 O8 1.257360 1_555
O17 O9 1.257360 1_555
O18 O3 1.648011 1_555
O19 O2 1.648011 1_555
