# generated using pymatgen
data_LiMoP2O7
_symmetry_space_group_name_H-M   'P 1'
_cell_length_a   8.59743800
_cell_length_b   5.00521900
_cell_length_c   7.14541981
_cell_angle_alpha   71.28577253
_cell_angle_beta   90.00000000
_cell_angle_gamma   90.00000000
_symmetry_Int_Tables_number   1
_chemical_formula_structural   LiMoP2O7
_chemical_formula_sum   'Li2 Mo2 P4 O14'
_cell_volume   291.22574893
_cell_formula_units_Z   2
loop_
 _symmetry_equiv_pos_site_id
 _symmetry_equiv_pos_as_xyz
  1  'x, y, z'
loop_
 _atom_site_type_symbol
 _atom_site_label
 _atom_site_symmetry_multiplicity
 _atom_site_fract_x
 _atom_site_fract_y
 _atom_site_fract_z
 _atom_site_occupancy
  Li  Li0  1  0.14424900  0.68545100  0.33276900  1
  Li  Li1  1  0.64424900  0.31454900  0.66723100  1
  Mo  Mo0  1  0.99847800  0.29085600  0.72496600  1
  Mo  Mo1  1  0.49847800  0.70914400  0.27503400  1
  P  P0  1  0.21175700  0.71578500  0.91904100  1
  P  P1  1  0.71175700  0.28421500  0.08095900  1
  P  P2  1  0.31998200  0.09732100  0.53373300  1
  P  P3  1  0.81998200  0.90267900  0.46626700  1
  O  O0  1  0.96195800  0.70638300  0.50315400  1
  O  O1  1  0.83819200  0.09100700  0.23757800  1
  O  O2  1  0.16628300  0.26226600  0.50896200  1
  O  O3  1  0.66628300  0.73773400  0.49103800  1
  O  O4  1  0.46195800  0.29361700  0.49684600  1
  O  O5  1  0.33819200  0.90899300  0.76242200  1
  O  O6  1  0.67784500  0.54315200  0.14031200  1
  O  O7  1  0.17784500  0.45684800  0.85968800  1
  O  O8  1  0.31888700  0.89910000  0.40885900  1
  O  O9  1  0.06657200  0.89154700  0.92130400  1
  O  O10  1  0.29569700  0.64141700  0.11839300  1
  O  O11  1  0.79569700  0.35858300  0.88160700  1
  O  O12  1  0.56657200  0.10845300  0.07869600  1
  O  O13  1  0.81888700  0.10090000  0.59114100  1
loop_
_geom_bond_atom_site_label_1
_geom_bond_atom_site_label_2
_geom_bond_distance
_geom_bond_site_symmetry_2
Li0 O0 2.007808 1_455
Li0 O8 2.016567 1_555
Li0 O10 2.075337 1_555
Li0 O2 2.096710 1_555
Li1 O4 2.007808 1_555
Li1 O13 2.016567 1_555
Li1 O11 2.075337 1_555
Li1 O3 2.096710 1_555
Mo0 O9 2.122774 1_645
Mo0 O7 2.123262 1_655
Mo0 O2 2.150761 1_655
Mo0 O11 2.156519 1_555
Mo0 O13 2.187639 1_555
Mo0 O0 2.195663 1_555
Mo1 O12 2.122774 1_565
Mo1 O6 2.123262 1_555
Mo1 O3 2.150761 1_555
Mo1 O10 2.156519 1_555
Mo1 O8 2.187639 1_555
Mo1 O4 2.195663 1_555
O0 P3 1.535757 1_555
O1 P3 1.610852 1_545
O1 P1 1.635460 1_555
O2 P2 1.537952 1_555
O3 P3 1.537952 1_555
O4 P2 1.535757 1_555
O5 P2 1.610852 1_565
O5 P0 1.635460 1_555
O6 P1 1.515681 1_555
O7 P0 1.515681 1_555
O8 P2 1.532533 1_565
O9 P0 1.530151 1_555
O10 P0 1.532379 1_554
O11 P1 1.532379 1_556
O12 P1 1.530151 1_555
O13 P3 1.532533 1_545
