# generated using pymatgen
data_Li9Mn2Co5O16
_symmetry_space_group_name_H-M   'P 1'
_cell_length_a   5.18509600
_cell_length_b   5.90643209
_cell_length_c   10.26424141
_cell_angle_alpha   104.02375582
_cell_angle_beta   95.41851196
_cell_angle_gamma   109.35408444
_symmetry_Int_Tables_number   1
_chemical_formula_structural   Li9Mn2Co5O16
_chemical_formula_sum   'Li9 Mn2 Co5 O16'
_cell_volume   282.45159533
_cell_formula_units_Z   1
loop_
 _symmetry_equiv_pos_site_id
 _symmetry_equiv_pos_as_xyz
  1  'x, y, z'
loop_
 _atom_site_type_symbol
 _atom_site_label
 _atom_site_symmetry_multiplicity
 _atom_site_fract_x
 _atom_site_fract_y
 _atom_site_fract_z
 _atom_site_occupancy
  Li  Li0  1  0.37326600  0.81078700  0.12466500  1
  Li  Li1  1  0.12598600  0.93259100  0.37607600  1
  Li  Li2  1  0.86859100  0.05443300  0.63101300  1
  Li  Li3  1  0.62678400  0.18950100  0.86720500  1
  Li  Li4  1  0.37483100  0.31735100  0.12510800  1
  Li  Li5  1  0.12647500  0.44078400  0.37407900  1
  Li  Li6  1  0.87521000  0.56969600  0.63118800  1
  Li  Li7  1  0.63382700  0.68490900  0.86903000  1
  Li  Li8  1  0.24771200  0.87432300  0.74933400  1
  Mn  Mn0  1  0.00533000  0.99707200  0.99919200  1
  Mn  Mn1  1  0.49636300  0.24648400  0.50333000  1
  Co  Co0  1  0.75010700  0.12638500  0.25006000  1
  Co  Co1  1  0.24983600  0.37178500  0.75068500  1
  Co  Co2  1  0.00291500  0.50098400  0.99620800  1
  Co  Co3  1  0.75034300  0.62583600  0.24971900  1
  Co  Co4  1  0.49094100  0.75240500  0.50382000  1
  O  O0  1  0.69630800  0.67316900  0.06963300  1
  O  O1  1  0.45961900  0.79998800  0.32043000  1
  O  O2  1  0.20160400  0.92577800  0.55694700  1
  O  O3  1  0.95270500  0.04924600  0.82064200  1
  O  O4  1  0.72851900  0.15315200  0.06425300  1
  O  O5  1  0.45163700  0.30044000  0.31531800  1
  O  O6  1  0.22511200  0.40463300  0.56127000  1
  O  O7  1  0.94584800  0.52868100  0.82500700  1
  O  O8  1  0.04904300  0.95549900  0.18435600  1
  O  O9  1  0.77188700  0.09687200  0.43816400  1
  O  O10  1  0.56570600  0.22167400  0.67381500  1
  O  O11  1  0.30276700  0.32602800  0.93404200  1
  O  O12  1  0.04088700  0.45092800  0.18059700  1
  O  O13  1  0.80069100  0.58159100  0.42774100  1
  O  O14  1  0.54077600  0.69544200  0.67955600  1
  O  O15  1  0.26837500  0.84155400  0.94751600  1
loop_
_geom_bond_atom_site_label_1
_geom_bond_atom_site_label_2
_geom_bond_distance
_geom_bond_site_symmetry_2
Li0 O15 1.916746 1_554
Li0 O1 2.037960 1_555
Li0 O0 2.154990 1_555
Li0 O8 2.196648 1_555
Li0 O12 2.483494 1_555
Li0 O4 2.494235 1_565
Li1 O2 1.873806 1_555
Li1 O8 2.016556 1_555
Li1 O1 2.190914 1_555
Li1 Mn1 2.196393 1_565
Li1 O13 2.410014 1_455
Li1 O9 2.412631 1_465
Li1 O5 2.526761 1_565
Li2 O3 1.963938 1_555
Li2 O9 2.090167 1_555
Li2 O10 2.140889 1_555
Li2 O2 2.230361 1_645
Li2 O6 2.577079 1_655
Li3 O10 2.044655 1_555
Li3 O4 2.121102 1_556
Li3 O3 2.158496 1_555
Li3 O11 2.188841 1_555
Li3 O7 2.301537 1_555
Li4 O11 1.977715 1_554
Li4 O5 1.988549 1_555
Li4 O12 2.195223 1_555
Li4 Mn0 2.205629 1_544
Li4 O4 2.407396 1_555
Li4 O0 2.440660 1_555
Li4 O8 2.494431 1_545
Li5 O12 2.013295 1_555
Li5 O6 2.021007 1_555
Li5 O13 2.175636 1_455
Li5 O5 2.183932 1_555
Li5 O1 2.470850 1_555
Li5 O9 2.517889 1_455
Li6 O7 2.074930 1_555
Li6 O13 2.109892 1_555
Li6 Li8 2.152961 1_655
Li6 O14 2.154676 1_555
Li6 Mn1 2.244720 1_555
Li6 O10 2.318237 1_555
Li6 O6 2.415845 1_655
Li6 O2 2.555249 1_655
Li7 O14 1.979962 1_555
Li7 O0 2.075453 1_556
Li7 O7 2.144435 1_555
Li7 Mn0 2.204779 1_655
Li7 O3 2.434346 1_565
Li7 O15 2.486920 1_555
Li7 O11 2.524918 1_555
Li8 O2 2.073365 1_555
Li8 O15 2.085727 1_555
Li8 O3 2.198953 1_465
Li8 O14 2.200291 1_555
Li8 O7 2.470039 1_455
Li8 O10 2.509694 1_565
Mn0 O15 1.927754 1_555
Mn0 O3 1.939881 1_465
Mn0 O8 1.976242 1_556
Mn0 O4 2.028679 1_466
Mn0 O0 2.368026 1_456
Mn1 O10 1.803682 1_555
Mn1 O6 1.990948 1_555
Mn1 O9 1.999997 1_555
Mn1 O5 2.035190 1_555
Co0 O4 1.947397 1_555
Co0 O9 1.976334 1_555
Co0 O8 2.186450 1_645
Co0 O5 2.194803 1_555
Co0 Li5 2.204631 1_655
Co0 Li0 2.212999 1_545
Co0 O12 2.325044 1_655
Co0 O1 2.337231 1_545
Co1 O11 1.971925 1_555
Co1 O6 1.996552 1_555
Co1 O7 2.185810 1_455
Co1 Li7 2.207707 1_555
Co1 Li2 2.213501 1_455
Co1 O10 2.226786 1_555
Co1 O14 2.331560 1_555
Co1 O3 2.333448 1_455
Co2 O7 1.809819 1_455
Co2 O12 1.986845 1_556
Co2 Li0 2.190400 1_556
Co2 O11 2.196583 1_555
Co2 Li3 2.212473 1_455
Co2 O15 2.229955 1_555
Co2 O0 2.248590 1_456
Co2 O4 2.382964 1_456
Co3 O13 1.913605 1_555
Co3 O0 1.943700 1_555
Co3 O12 2.172178 1_655
Co3 O1 2.174793 1_555
Co3 Li4 2.189898 1_555
Co3 Li1 2.191699 1_655
Co3 O5 2.323176 1_555
Co3 O8 2.338952 1_655
Co4 O14 1.922855 1_555
Co4 O1 1.969149 1_555
Co4 O2 2.121042 1_555
Co4 Li5 2.182605 1_555
Co4 Li2 2.189584 1_565
Co4 O13 2.266323 1_555
Co4 O6 2.308855 1_555
Co4 O9 2.366677 1_565
O14 O6 1.963144 1_555
