# generated using pymatgen
data_Ba3Cr2O8
_symmetry_space_group_name_H-M   'P 1'
_cell_length_a   5.84613355
_cell_length_b   7.97334288
_cell_length_c   10.13049764
_cell_angle_alpha   102.19357038
_cell_angle_beta   89.97944966
_cell_angle_gamma   68.52461673
_symmetry_Int_Tables_number   1
_chemical_formula_structural   Ba3Cr2O8
_chemical_formula_sum   'Ba6 Cr4 O16'
_cell_volume   427.94846669
_cell_formula_units_Z   2
loop_
 _symmetry_equiv_pos_site_id
 _symmetry_equiv_pos_as_xyz
  1  'x, y, z'
loop_
 _atom_site_type_symbol
 _atom_site_label
 _atom_site_symmetry_multiplicity
 _atom_site_fract_x
 _atom_site_fract_y
 _atom_site_fract_z
 _atom_site_occupancy
  Ba  Ba0  1  0.50430700  0.00002900  0.50664400  1
  Ba  Ba1  1  0.99862200  0.99995000  0.00652300  1
  Ba  Ba2  1  0.30921200  0.38122600  0.89694600  1
  Ba  Ba3  1  0.80994000  0.38100300  0.39685300  1
  Ba  Ba4  1  0.19085400  0.61908300  0.60307200  1
  Ba  Ba5  1  0.69026900  0.61897100  0.10292500  1
  Cr  Cr0  1  0.60971600  0.77953500  0.79704700  1
  Cr  Cr1  1  0.38954600  0.22062900  0.20392500  1
  Cr  Cr2  1  0.11125700  0.77898400  0.29736600  1
  Cr  Cr3  1  0.88985500  0.22075300  0.70387900  1
  O  O0  1  0.48608000  0.01565000  0.82700400  1
  O  O1  1  0.99468400  0.01516200  0.32743500  1
  O  O2  1  0.99658900  0.98453700  0.65689000  1
  O  O3  1  0.51593800  0.98442800  0.15623200  1
  O  O4  1  0.85360800  0.30237800  0.87816200  1
  O  O5  1  0.34447400  0.30227700  0.37817900  1
  O  O6  1  0.60680100  0.30327600  0.63679600  1
  O  O7  1  0.10479700  0.30381200  0.13994800  1
  O  O8  1  0.09179500  0.30335300  0.63969900  1
  O  O9  1  0.59090100  0.30259000  0.13693600  1
  O  O10  1  0.88993200  0.69676300  0.86525800  1
  O  O11  1  0.39176700  0.69781300  0.36607200  1
  O  O12  1  0.65294200  0.69708000  0.62222200  1
  O  O13  1  0.15141500  0.69692200  0.12242000  1
  O  O14  1  0.41072900  0.69782100  0.86583300  1
  O  O15  1  0.91396800  0.69597300  0.36573400  1
loop_
_geom_bond_atom_site_label_1
_geom_bond_atom_site_label_2
_geom_bond_distance
_geom_bond_site_symmetry_2
Ba0 O12 2.760310 1_545
Ba0 O6 2.767373 1_555
Ba0 O8 2.798550 1_555
Ba0 O15 2.816954 1_545
Ba0 O11 2.824757 1_545
Ba0 O5 2.837512 1_555
Ba1 O13 2.762787 1_655
Ba1 O9 2.772970 1_565
Ba1 O7 2.792951 1_665
Ba1 O14 2.817188 1_654
Ba1 O10 2.821277 1_554
Ba1 O4 2.837758 1_564
Ba2 O0 2.643446 1_555
Ba2 O14 2.873442 1_555
Ba2 O10 2.875290 1_455
Ba2 O13 2.876443 1_556
Ba2 O8 2.947750 1_555
Ba2 O4 2.949866 1_455
Ba2 O6 2.978531 1_555
Ba2 O9 2.984401 1_556
Ba2 O4 3.007402 1_555
Ba2 O7 3.008172 1_556
Ba3 O1 2.644980 1_555
Ba3 O15 2.868589 1_555
Ba3 O11 2.875113 1_555
Ba3 O12 2.877595 1_555
Ba3 O7 2.943962 1_655
Ba3 O5 2.950985 1_655
Ba3 O9 2.976073 1_555
Ba3 O6 2.979282 1_555
Ba3 O5 3.005910 1_555
Ba3 O8 3.008345 1_655
Ba4 O2 2.642573 1_455
Ba4 O6 2.872452 1_555
Ba4 O8 2.876171 1_555
Ba4 O5 2.878232 1_555
Ba4 O15 2.945477 1_455
Ba4 O11 2.951717 1_555
Ba4 O12 2.971566 1_455
Ba4 O12 2.983559 1_555
Ba4 O14 3.003255 1_555
Ba4 O10 3.006183 1_455
Ba5 O3 2.642277 1_555
Ba5 O9 2.873982 1_555
Ba5 O7 2.875398 1_655
Ba5 O4 2.876452 1_554
Ba5 O10 2.950105 1_554
Ba5 O14 2.953524 1_554
Ba5 O13 2.977117 1_555
Ba5 O13 2.978036 1_655
Ba5 O11 3.005419 1_555
Ba5 O15 3.012543 1_555
Cr0 O0 1.709081 1_565
Cr0 O10 1.731626 1_555
Cr0 O14 1.734797 1_555
Cr0 O12 1.737505 1_555
Cr1 O3 1.709596 1_545
Cr1 O5 1.731490 1_555
Cr1 O7 1.733510 1_555
Cr1 O9 1.738769 1_555
Cr2 O1 1.709170 1_465
Cr2 O15 1.732077 1_455
Cr2 O11 1.733950 1_555
Cr2 O13 1.738279 1_555
Cr3 O2 1.709916 1_545
Cr3 O4 1.731783 1_555
Cr3 O8 1.732010 1_655
Cr3 O6 1.739400 1_555
