# generated using pymatgen
data_Cd2Sb2O7
_symmetry_space_group_name_H-M   'P 1'
_cell_length_a   7.28050915
_cell_length_b   7.28051789
_cell_length_c   7.28051178
_cell_angle_alpha   120.26985440
_cell_angle_beta   118.92776817
_cell_angle_gamma   90.70016255
_symmetry_Int_Tables_number   1
_chemical_formula_structural   Cd2Sb2O7
_chemical_formula_sum   'Cd4 Sb4 O14'
_cell_volume   274.46572157
_cell_formula_units_Z   2
loop_
 _symmetry_equiv_pos_site_id
 _symmetry_equiv_pos_as_xyz
  1  'x, y, z'
loop_
 _atom_site_type_symbol
 _atom_site_label
 _atom_site_symmetry_multiplicity
 _atom_site_fract_x
 _atom_site_fract_y
 _atom_site_fract_z
 _atom_site_occupancy
  Cd  Cd0  1  -0.00000008  0.00000017  0.49999997  1
  Cd  Cd1  1  -0.00000011  0.50000004  -0.00000022  1
  Cd  Cd2  1  -0.00000017  -0.00000022  -0.00000028  1
  Cd  Cd3  1  0.50000005  0.50000021  0.00000013  1
  Sb  Sb0  1  0.50000004  -0.00000002  -0.00000012  1
  Sb  Sb1  1  0.49999949  0.49999976  0.49999966  1
  Sb  Sb2  1  0.49999991  0.00000007  0.49999996  1
  Sb  Sb3  1  -0.00000008  0.49999994  0.50000002  1
  O  O0  1  0.44557662  0.08886586  0.76993945  1
  O  O1  1  0.55442512  0.32436432  0.64329068  1
  O  O2  1  0.18107393  0.41113352  0.35671054  1
  O  O3  1  0.81892605  0.17563546  0.23006066  1
  O  O4  1  0.55442333  0.91113432  0.23006054  1
  O  O5  1  0.44557467  0.67563585  0.35670951  1
  O  O6  1  0.81892652  0.58886569  0.64329055  1
  O  O7  1  0.18107386  0.82436260  0.76993905  1
  O  O8  1  0.59680867  0.75000014  0.84680867  1
  O  O9  1  0.40319123  0.25000017  0.15319135  1
  O  O10  1  0.16724337  0.90315627  0.26408737  1
  O  O11  1  0.83275644  0.09684375  0.73591246  1
  O  O12  1  0.86093118  0.59684396  0.26408722  1
  O  O13  1  0.13906897  0.40315617  0.73591282  1
loop_
_geom_bond_atom_site_label_1
_geom_bond_atom_site_label_2
_geom_bond_distance
_geom_bond_site_symmetry_2
Cd0 O11 2.398550 1_455
Cd0 O10 2.398550 1_545
Cd0 O13 2.398553 1_555
Cd0 O12 2.398554 1_445
Cd0 O3 2.702542 1_455
Cd0 O4 2.702552 1_445
Cd0 O0 2.702553 1_555
Cd0 O7 2.702554 1_545
Cd1 O13 2.398550 1_554
Cd1 O12 2.398551 1_455
Cd1 O10 2.398554 1_555
Cd1 O11 2.398554 1_454
Cd1 O1 2.702541 1_454
Cd1 O5 2.702542 1_555
Cd1 O6 2.702543 1_454
Cd1 O2 2.702557 1_555
Cd2 O10 2.190733 1_545
Cd2 O11 2.190733 1_454
Cd2 O6 2.489309 1_444
Cd2 O2 2.489310 1_555
Cd2 O3 2.489310 1_455
Cd2 O7 2.489312 1_544
Cd3 O13 2.190732 1_554
Cd3 O12 2.190732 1_555
Cd3 O1 2.489309 1_554
Cd3 O5 2.489310 1_555
Cd3 O4 2.489312 1_555
Cd3 O0 2.489313 1_554
O0 Sb0 1.959033 1_556
O0 Sb2 1.978813 1_555
O1 Sb1 1.959031 1_555
O1 Sb2 1.978822 1_555
O2 Sb1 1.959027 1_555
O2 Sb3 1.978817 1_555
O3 Sb0 1.959028 1_555
O3 Sb3 1.978823 1_655
O4 Sb0 1.959033 1_565
O4 Sb2 1.978813 1_565
O5 Sb1 1.959031 1_555
O5 Sb2 1.978822 1_565
O6 Sb1 1.959034 1_555
O6 Sb3 1.978818 1_655
O7 Sb0 1.959032 1_566
O7 Sb3 1.978814 1_555
O8 Sb0 1.949059 1_566
O8 Sb1 1.949061 1_555
O9 Sb1 1.949058 1_555
O9 Sb0 1.949062 1_555
O10 Sb2 2.007054 1_565
O11 Sb2 2.007054 1_555
O12 Sb3 2.007056 1_655
O13 Sb3 2.007055 1_555
