# generated using pymatgen
data_Ba3Sc3N5
_symmetry_space_group_name_H-M   'P 1'
_cell_length_a   6.29860847
_cell_length_b   8.36846349
_cell_length_c   9.51173190
_cell_angle_alpha   110.40832572
_cell_angle_beta   103.46928361
_cell_angle_gamma   100.49331003
_symmetry_Int_Tables_number   1
_chemical_formula_structural   Ba3Sc3N5
_chemical_formula_sum   'Ba6 Sc6 N10'
_cell_volume   437.47712034
_cell_formula_units_Z   2
loop_
 _symmetry_equiv_pos_site_id
 _symmetry_equiv_pos_as_xyz
  1  'x, y, z'
loop_
 _atom_site_type_symbol
 _atom_site_label
 _atom_site_symmetry_multiplicity
 _atom_site_fract_x
 _atom_site_fract_y
 _atom_site_fract_z
 _atom_site_occupancy
  Ba  Ba0  1  0.77047000  0.43408100  0.59966300  1
  Ba  Ba1  1  0.22953000  0.56591900  0.40033700  1
  Ba  Ba2  1  0.66935200  0.85089500  0.88819700  1
  Ba  Ba3  1  0.33064800  0.14910500  0.11180300  1
  Ba  Ba4  1  0.68793900  0.65216700  0.21837200  1
  Ba  Ba5  1  0.31206100  0.34783300  0.78162800  1
  Sc  Sc0  1  0.90494600  0.31251500  0.97548000  1
  Sc  Sc1  1  0.09505400  0.68748500  0.02452000  1
  Sc  Sc2  1  0.70018100  0.97198200  0.58925800  1
  Sc  Sc3  1  0.29981900  0.02801800  0.41074200  1
  Sc  Sc4  1  0.10719500  0.87758700  0.70272900  1
  Sc  Sc5  1  0.89280500  0.12241300  0.29727100  1
  N  N0  1  0.97940700  0.09676900  0.80635800  1
  N  N1  1  0.02059300  0.90323100  0.19364200  1
  N  N2  1  0.77428300  0.72546200  0.53686500  1
  N  N3  1  0.22571700  0.27453800  0.46313500  1
  N  N4  1  0.77358700  0.49572500  0.89804200  1
  N  N5  1  0.22641300  0.50427500  0.10195800  1
  N  N6  1  0.36488800  0.94693000  0.60367700  1
  N  N7  1  0.63511200  0.05307000  0.39632300  1
  N  N8  1  0.21648300  0.76836100  0.86389700  1
  N  N9  1  0.78351700  0.23163900  0.13610300  1
loop_
_geom_bond_atom_site_label_1
_geom_bond_atom_site_label_2
_geom_bond_distance
_geom_bond_site_symmetry_2
Ba0 N4 2.696405 1_555
Ba0 N2 2.702658 1_555
Ba0 N7 2.928285 1_555
Ba0 N3 3.207565 1_555
Ba0 N8 3.313494 1_655
Ba1 N5 2.696405 1_555
Ba1 N3 2.702658 1_555
Ba1 N6 2.928285 1_555
Ba1 N2 3.207565 1_555
Ba1 N9 3.313494 1_455
Ba2 N8 2.744236 1_555
Ba2 N0 3.002516 1_565
Ba2 N1 3.048354 1_656
Ba2 N9 3.060259 1_566
Ba2 N4 3.185935 1_555
Ba2 N6 3.362726 1_555
Ba2 N2 3.397249 1_555
Ba3 N9 2.744236 1_555
Ba3 N1 3.002516 1_545
Ba3 N0 3.048354 1_454
Ba3 N8 3.060259 1_544
Ba3 N5 3.185935 1_555
Ba3 N7 3.362726 1_555
Ba3 N3 3.397249 1_555
Ba4 N5 2.728113 1_555
Ba4 N2 2.768477 1_555
Ba4 N1 2.798309 1_655
Ba4 N4 3.086995 1_554
Ba4 N7 3.307553 1_565
Ba4 N9 3.525606 1_555
Ba5 N4 2.728113 1_555
Ba5 N3 2.768477 1_555
Ba5 N0 2.798309 1_455
Ba5 N5 3.086995 1_556
Ba5 N6 3.307553 1_545
Ba5 N8 3.525606 1_555
N0 Sc2 2.140822 1_545
N0 Sc4 2.151791 1_645
N0 Sc0 2.168349 1_555
N1 Sc3 2.140822 1_565
N1 Sc5 2.151791 1_465
N1 Sc1 2.168349 1_555
N2 Sc2 2.112868 1_555
N2 Sc4 2.142997 1_655
N3 Sc3 2.112868 1_555
N3 Sc5 2.142997 1_455
N4 Sc1 2.111300 1_656
N4 Sc0 2.131547 1_555
N5 Sc0 2.111300 1_454
N5 Sc1 2.131547 1_555
N6 Sc2 2.125209 1_555
N6 Sc4 2.146972 1_555
N6 Sc3 2.148400 1_565
N7 Sc3 2.125209 1_555
N7 Sc5 2.146972 1_555
N7 Sc2 2.148400 1_545
N8 Sc4 2.091464 1_555
N8 Sc1 2.110491 1_556
N9 Sc5 2.091464 1_555
N9 Sc0 2.110491 1_554
