# generated using pymatgen
data_Sr3Li6Nb2O11
_symmetry_space_group_name_H-M   'P 1'
_cell_length_a   5.83328521
_cell_length_b   8.34514040
_cell_length_c   10.59069744
_cell_angle_alpha   90.00000000
_cell_angle_beta   90.00000000
_cell_angle_gamma   90.00000000
_symmetry_Int_Tables_number   1
_chemical_formula_structural   Sr3Li6Nb2O11
_chemical_formula_sum   'Sr6 Li12 Nb4 O22'
_cell_volume   515.55074640
_cell_formula_units_Z   2
loop_
 _symmetry_equiv_pos_site_id
 _symmetry_equiv_pos_as_xyz
  1  'x, y, z'
loop_
 _atom_site_type_symbol
 _atom_site_label
 _atom_site_symmetry_multiplicity
 _atom_site_fract_x
 _atom_site_fract_y
 _atom_site_fract_z
 _atom_site_occupancy
  Sr  Sr0  1  0.50000000  0.26334654  0.50000000  1
  Sr  Sr1  1  0.50000000  0.73665346  0.50000000  1
  Sr  Sr2  1  0.50000000  0.73665346  -0.00000000  1
  Sr  Sr3  1  0.50000000  0.26334654  -0.00000000  1
  Sr  Sr4  1  0.61795766  -0.00000000  0.75000000  1
  Sr  Sr5  1  0.38204234  -0.00000000  0.25000000  1
  Li  Li0  1  0.00000000  0.35550947  0.50000000  1
  Li  Li1  1  0.00000000  0.64449053  0.50000000  1
  Li  Li2  1  0.00000000  0.64449053  -0.00000000  1
  Li  Li3  1  0.00000000  0.35550947  -0.00000000  1
  Li  Li4  1  0.14913212  0.14639324  0.75000000  1
  Li  Li5  1  0.85086788  0.85360676  0.25000000  1
  Li  Li6  1  0.14913212  0.85360676  0.75000000  1
  Li  Li7  1  0.85086788  0.14639324  0.25000000  1
  Li  Li8  1  0.77998457  0.31537021  0.75000000  1
  Li  Li9  1  0.22001543  0.68462979  0.25000000  1
  Li  Li10  1  0.77998457  0.68462979  0.75000000  1
  Li  Li11  1  0.22001543  0.31537021  0.25000000  1
  Nb  Nb0  1  0.26215689  0.50000000  0.75000000  1
  Nb  Nb1  1  0.73784311  0.50000000  0.25000000  1
  Nb  Nb2  1  0.00000000  -0.00000000  0.50000000  1
  Nb  Nb3  1  0.00000000  -0.00000000  -0.00000000  1
  O  O0  1  0.13188008  0.17581650  0.11141272  1
  O  O1  1  0.86811992  0.82418350  0.88858728  1
  O  O2  1  0.13188008  0.82418350  0.38858728  1
  O  O3  1  0.86811992  0.17581650  0.88858728  1
  O  O4  1  0.86811992  0.17581650  0.61141272  1
  O  O5  1  0.13188008  0.82418350  0.11141272  1
  O  O6  1  0.86811992  0.82418350  0.61141272  1
  O  O7  1  0.13188008  0.17581650  0.38858728  1
  O  O8  1  0.94081827  0.50000000  0.75000000  1
  O  O9  1  0.05918173  0.50000000  0.25000000  1
  O  O10  1  0.25085249  0.50000000  0.55898203  1
  O  O11  1  0.74914751  0.50000000  0.44101797  1
  O  O12  1  0.25085249  0.50000000  0.94101797  1
  O  O13  1  0.74914751  0.50000000  0.05898203  1
  O  O14  1  0.28285085  -0.00000000  0.60794597  1
  O  O15  1  0.71714915  -0.00000000  0.39205403  1
  O  O16  1  0.28285085  -0.00000000  0.89205403  1
  O  O17  1  0.71714915  -0.00000000  0.10794597  1
  O  O18  1  0.43146506  0.29950070  0.75000000  1
  O  O19  1  0.56853494  0.70049930  0.25000000  1
  O  O20  1  0.43146506  0.70049930  0.75000000  1
  O  O21  1  0.56853494  0.29950070  0.25000000  1
loop_
_geom_bond_atom_site_label_1
_geom_bond_atom_site_label_2
_geom_bond_distance
_geom_bond_site_symmetry_2
Li0 O11 1.996339 1_455
Li0 O10 1.996339 1_555
Li0 O7 2.057367 1_555
Li0 O4 2.057367 1_455
Li1 O11 1.996339 1_455
Li1 O10 1.996339 1_555
Li1 O2 2.057367 1_555
Li1 O6 2.057367 1_455
Li2 O12 1.996339 1_554
Li2 O13 1.996339 1_455
Li2 O1 2.057367 1_454
Li2 O5 2.057367 1_555
Li3 O12 1.996339 1_554
Li3 O13 1.996339 1_455
Li3 O3 2.057367 1_454
Li3 O0 2.057367 1_555
Li4 O18 2.084442 1_555
Li4 O16 2.089088 1_555
Li4 O14 2.089088 1_555
Li4 O4 2.213955 1_455
Li4 O3 2.213955 1_455
Li5 O19 2.084442 1_555
Li5 O17 2.089088 1_565
Li5 O15 2.089088 1_565
Li5 O5 2.213955 1_655
Li5 O2 2.213955 1_655
Li6 O20 2.084442 1_555
Li6 O14 2.089088 1_565
Li6 O16 2.089088 1_565
Li6 O1 2.213955 1_455
Li6 O6 2.213955 1_455
Li7 O21 2.084442 1_555
Li7 O17 2.089088 1_555
Li7 O15 2.089088 1_555
Li7 O7 2.213955 1_655
Li7 O0 2.213955 1_655
Li8 O8 1.803925 1_555
Li8 O3 1.942897 1_555
Li8 O4 1.942897 1_555
Li8 O18 2.037323 1_555
Li9 O9 1.803925 1_555
Li9 O2 1.942897 1_555
Li9 O5 1.942897 1_555
Li9 O19 2.037323 1_555
Li10 O8 1.803925 1_555
Li10 O1 1.942897 1_555
Li10 O6 1.942897 1_555
Li10 O20 2.037323 1_555
Li11 O9 1.803925 1_555
Li11 O7 1.942897 1_555
Li11 O0 1.942897 1_555
Li11 O21 2.037323 1_555
Nb0 O8 1.874460 1_455
Nb0 O18 1.942931 1_555
Nb0 O20 1.942931 1_555
Nb0 O12 2.024088 1_555
Nb0 O10 2.024088 1_555
Nb1 O9 1.874460 1_655
Nb1 O21 1.942931 1_555
Nb1 O19 1.942931 1_555
Nb1 O11 2.024088 1_555
Nb1 O13 2.024088 1_555
Nb2 O14 2.007310 1_555
Nb2 O15 2.007310 1_455
Nb2 O6 2.033908 1_445
Nb2 O4 2.033908 1_455
Nb2 O7 2.033908 1_555
Nb2 O2 2.033908 1_545
Nb3 O16 2.007310 1_554
Nb3 O17 2.007310 1_455
Nb3 O1 2.033908 1_444
Nb3 O3 2.033908 1_454
Nb3 O0 2.033908 1_555
Nb3 O5 2.033908 1_545
O0 Sr5 2.537011 1_555
O0 Sr3 2.556740 1_555
O1 Sr4 2.537011 1_565
O1 Sr2 2.556740 1_556
O2 Sr5 2.537011 1_565
O2 Sr1 2.556740 1_555
O3 Sr4 2.537011 1_555
O3 Sr3 2.556740 1_556
O4 Sr4 2.537011 1_555
O4 Sr0 2.556740 1_555
O5 Sr5 2.537011 1_565
O5 Sr2 2.556740 1_555
O6 Sr4 2.537011 1_565
O6 Sr1 2.556740 1_555
O7 Sr5 2.537011 1_555
O7 Sr0 2.556740 1_555
O10 Sr0 2.530351 1_555
O10 Sr1 2.530351 1_555
O11 Sr0 2.530351 1_555
O11 Sr1 2.530351 1_555
O12 Sr2 2.530351 1_556
O12 Sr3 2.530351 1_556
O13 Sr2 2.530351 1_555
O13 Sr3 2.530351 1_555
O14 Sr4 2.466681 1_555
O14 Sr0 2.782301 1_555
O14 Sr1 2.782301 1_545
O15 Sr5 2.466681 1_555
O15 Sr1 2.782301 1_545
O15 Sr0 2.782301 1_555
O16 Sr4 2.466681 1_555
O16 Sr2 2.782301 1_546
O16 Sr3 2.782301 1_556
O17 Sr5 2.466681 1_555
O17 Sr2 2.782301 1_545
O17 Sr3 2.782301 1_555
O18 Sr0 2.694631 1_555
O18 Sr3 2.694631 1_556
O18 Sr4 2.725863 1_555
O19 Sr1 2.694631 1_555
O19 Sr2 2.694631 1_555
O19 Sr5 2.725863 1_565
O20 Sr1 2.694631 1_555
O20 Sr2 2.694631 1_556
O20 Sr4 2.725863 1_565
O21 Sr3 2.694631 1_555
O21 Sr0 2.694631 1_555
O21 Sr5 2.725863 1_555
