# generated using pymatgen
data_LiMg14BiO16
_symmetry_space_group_name_H-M   'P 1'
_cell_length_a   8.67746222
_cell_length_b   8.67746222
_cell_length_c   4.37018558
_cell_angle_alpha   90.00000000
_cell_angle_beta   90.00000000
_cell_angle_gamma   90.00000000
_symmetry_Int_Tables_number   1
_chemical_formula_structural   LiMg14BiO16
_chemical_formula_sum   'Li1 Mg14 Bi1 O16'
_cell_volume   329.06776590
_cell_formula_units_Z   1
loop_
 _symmetry_equiv_pos_site_id
 _symmetry_equiv_pos_as_xyz
  1  'x, y, z'
loop_
 _atom_site_type_symbol
 _atom_site_label
 _atom_site_symmetry_multiplicity
 _atom_site_fract_x
 _atom_site_fract_y
 _atom_site_fract_z
 _atom_site_occupancy
  Li  Li0  1  0.00000000  -0.00000000  0.00000000  1
  Mg  Mg0  1  0.00000000  0.50000000  0.00000000  1
  Mg  Mg1  1  0.50000000  -0.00000000  0.00000000  1
  Mg  Mg2  1  0.00000000  0.24121245  0.50000000  1
  Mg  Mg3  1  0.00000000  0.75878755  0.50000000  1
  Mg  Mg4  1  0.50000000  0.23304404  0.50000000  1
  Mg  Mg5  1  0.50000000  0.76695596  0.50000000  1
  Mg  Mg6  1  0.24121245  -0.00000000  0.50000000  1
  Mg  Mg7  1  0.23304404  0.50000000  0.50000000  1
  Mg  Mg8  1  0.75878755  -0.00000000  0.50000000  1
  Mg  Mg9  1  0.76695596  0.50000000  0.50000000  1
  Mg  Mg10  1  0.23685493  0.23685493  0.00000000  1
  Mg  Mg11  1  0.23685493  0.76314507  -0.00000000  1
  Mg  Mg12  1  0.76314507  0.23685493  0.00000000  1
  Mg  Mg13  1  0.76314507  0.76314507  -0.00000000  1
  Bi  Bi0  1  0.50000000  0.50000000  0.00000000  1
  O  O0  1  0.25615378  -0.00000000  0.00000000  1
  O  O1  1  0.23376717  0.50000000  0.00000000  1
  O  O2  1  0.74384622  -0.00000000  0.00000000  1
  O  O3  1  0.76623283  0.50000000  0.00000000  1
  O  O4  1  0.25223318  0.25223318  0.50000000  1
  O  O5  1  0.25223318  0.74776682  0.50000000  1
  O  O6  1  0.74776682  0.25223318  0.50000000  1
  O  O7  1  0.74776682  0.74776682  0.50000000  1
  O  O8  1  0.00000000  -0.00000000  0.50000000  1
  O  O9  1  0.00000000  0.50000000  0.50000000  1
  O  O10  1  0.50000000  -0.00000000  0.50000000  1
  O  O11  1  0.50000000  0.50000000  0.50000000  1
  O  O12  1  0.00000000  0.25615378  0.00000000  1
  O  O13  1  0.00000000  0.74384622  -0.00000000  1
  O  O14  1  0.50000000  0.23376717  0.00000000  1
  O  O15  1  0.50000000  0.76623283  -0.00000000  1
loop_
_geom_bond_atom_site_label_1
_geom_bond_atom_site_label_2
_geom_bond_distance
_geom_bond_site_symmetry_2
Li0 O8 2.185093 1_554
Li0 O8 2.185093 1_555
Li0 O13 2.222765 1_545
Li0 O12 2.222765 1_555
Li0 O0 2.222765 1_555
Li0 O2 2.222765 1_455
Mg0 O1 2.028506 1_555
Mg0 O3 2.028506 1_455
Mg0 O13 2.115966 1_555
Mg0 O12 2.115966 1_555
Mg0 O9 2.185093 1_555
Mg0 O9 2.185093 1_554
Mg1 O14 2.028506 1_555
Mg1 O15 2.028506 1_545
Mg1 O2 2.115966 1_555
Mg1 O0 2.115966 1_555
Mg1 O10 2.185093 1_554
Mg1 O10 2.185093 1_555
Mg2 O8 2.093112 1_555
Mg2 O12 2.188936 1_556
Mg2 O12 2.188936 1_555
Mg2 O6 2.190832 1_455
Mg2 O4 2.190832 1_555
Mg2 O9 2.245619 1_555
Mg3 O8 2.093112 1_565
Mg3 O13 2.188936 1_555
Mg3 O13 2.188936 1_556
Mg3 O7 2.190832 1_455
Mg3 O5 2.190832 1_555
Mg3 O9 2.245619 1_555
Mg4 O10 2.022231 1_555
Mg4 O4 2.156426 1_555
Mg4 O6 2.156426 1_555
Mg4 O14 2.185102 1_556
Mg4 O14 2.185102 1_555
Mg4 O11 2.316500 1_555
Mg5 O10 2.022231 1_565
Mg5 O5 2.156426 1_555
Mg5 O7 2.156426 1_555
Mg5 O15 2.185102 1_556
Mg5 O15 2.185102 1_555
Mg5 O11 2.316500 1_555
Mg6 O8 2.093112 1_555
Mg6 O0 2.188936 1_556
Mg6 O0 2.188936 1_555
Mg6 O5 2.190832 1_545
Mg6 O4 2.190832 1_555
Mg6 O10 2.245619 1_555
Mg7 O9 2.022231 1_555
Mg7 O4 2.156426 1_555
Mg7 O5 2.156426 1_555
Mg7 O1 2.185102 1_556
Mg7 O1 2.185102 1_555
Mg7 O11 2.316500 1_555
Mg8 O8 2.093112 1_655
Mg8 O2 2.188936 1_556
Mg8 O2 2.188936 1_555
Mg8 O7 2.190832 1_545
Mg8 O6 2.190832 1_555
Mg8 O10 2.245619 1_555
Mg9 O9 2.022231 1_655
Mg9 O6 2.156426 1_555
Mg9 O7 2.156426 1_555
Mg9 O3 2.185102 1_556
Mg9 O3 2.185102 1_555
Mg9 O11 2.316500 1_555
Mg10 O12 2.062111 1_555
Mg10 O0 2.062111 1_555
Mg10 O4 2.193227 1_554
Mg10 O4 2.193227 1_555
Mg10 O1 2.283589 1_555
Mg10 O14 2.283589 1_555
Mg11 O13 2.062111 1_555
Mg11 O0 2.062111 1_565
Mg11 O5 2.193227 1_554
Mg11 O5 2.193227 1_555
Mg11 O1 2.283589 1_555
Mg11 O15 2.283589 1_555
Mg12 O12 2.062111 1_655
Mg12 O2 2.062111 1_555
Mg12 O6 2.193227 1_554
Mg12 O6 2.193227 1_555
Mg12 O14 2.283589 1_555
Mg12 O3 2.283589 1_555
Mg13 O13 2.062111 1_655
Mg13 O2 2.062111 1_565
Mg13 O7 2.193227 1_554
Mg13 O7 2.193227 1_555
Mg13 O15 2.283589 1_555
Mg13 O3 2.283589 1_555
Bi0 O11 2.185093 1_554
Bi0 O11 2.185093 1_555
Bi0 O3 2.310225 1_555
Bi0 O1 2.310225 1_555
Bi0 O15 2.310225 1_555
Bi0 O14 2.310225 1_555
