# generated using pymatgen
data_FeNiAs4
_symmetry_space_group_name_H-M   'P 1'
_cell_length_a   3.14536978
_cell_length_b   5.08011179
_cell_length_c   5.89250204
_cell_angle_alpha   89.83492658
_cell_angle_beta   90.00000000
_cell_angle_gamma   90.00000000
_symmetry_Int_Tables_number   1
_chemical_formula_structural   FeNiAs4
_chemical_formula_sum   'Fe1 Ni1 As4'
_cell_volume   94.15489819
_cell_formula_units_Z   1
loop_
 _symmetry_equiv_pos_site_id
 _symmetry_equiv_pos_as_xyz
  1  'x, y, z'
loop_
 _atom_site_type_symbol
 _atom_site_label
 _atom_site_symmetry_multiplicity
 _atom_site_fract_x
 _atom_site_fract_y
 _atom_site_fract_z
 _atom_site_occupancy
  Fe  Fe0  1  0.50000000  0.50000000  0.50000000  1
  Ni  Ni0  1  -0.00000000  0.00000000  0.00000000  1
  As  As0  1  0.50000000  0.31599209  0.86278112  1
  As  As1  1  0.50000000  0.68400791  0.13721888  1
  As  As2  1  -0.00000000  0.81092864  0.63072968  1
  As  As3  1  -0.00000000  0.18907136  0.36927032  1
loop_
_geom_bond_atom_site_label_1
_geom_bond_atom_site_label_2
_geom_bond_distance
_geom_bond_site_symmetry_2
As0 Fe0 2.330668 1_555
As0 Ni0 2.386743 1_656
As0 Ni0 2.386743 1_556
As0 As1 2.475434 1_556
As1 Fe0 2.330668 1_555
As1 Ni0 2.386743 1_665
As1 Ni0 2.386743 1_565
As2 Fe0 2.359817 1_555
As2 Fe0 2.359817 1_455
As2 Ni0 2.381022 1_566
As2 As3 2.459028 1_565
As3 Fe0 2.359817 1_555
As3 Fe0 2.359817 1_455
As3 Ni0 2.381022 1_555
