# generated using pymatgen
data_Ba2Sr6Co5Cu3O20
_symmetry_space_group_name_H-M   'P 1'
_cell_length_a   11.12485943
_cell_length_b   11.16540639
_cell_length_c   17.95578383
_cell_angle_alpha   108.09159489
_cell_angle_beta   107.83188660
_cell_angle_gamma   90.31697666
_symmetry_Int_Tables_number   1
_chemical_formula_structural   Ba2Sr6Co5Cu3O20
_chemical_formula_sum   'Ba8 Sr24 Co20 Cu12 O80'
_cell_volume   2005.71806362
_cell_formula_units_Z   4
loop_
 _symmetry_equiv_pos_site_id
 _symmetry_equiv_pos_as_xyz
  1  'x, y, z'
loop_
 _atom_site_type_symbol
 _atom_site_label
 _atom_site_symmetry_multiplicity
 _atom_site_fract_x
 _atom_site_fract_y
 _atom_site_fract_z
 _atom_site_occupancy
  Ba  Ba0  1  0.30856461  0.06129823  0.11737565  1
  Ba  Ba1  1  0.31049734  0.56081887  0.11795704  1
  Ba  Ba2  1  0.80768467  0.05582191  0.11915506  1
  Ba  Ba3  1  0.80720678  0.55792737  0.11558688  1
  Ba  Ba4  1  0.18773294  0.94048462  0.87525289  1
  Ba  Ba5  1  0.05197026  0.80113519  0.11385231  1
  Ba  Ba6  1  0.55748793  0.30912691  0.11567179  1
  Ba  Ba7  1  0.93165664  0.68361530  0.87481890  1
  Sr  Sr0  1  0.30423042  0.05824576  0.61469501  1
  Sr  Sr1  1  0.30931853  0.56045601  0.61170877  1
  Sr  Sr2  1  0.80459334  0.05783800  0.61043269  1
  Sr  Sr3  1  0.80386402  0.55714388  0.60978749  1
  Sr  Sr4  1  0.19653773  0.44159341  0.39192724  1
  Sr  Sr5  1  0.19305257  0.44046014  0.88457802  1
  Sr  Sr6  1  0.19875794  0.93883741  0.39319695  1
  Sr  Sr7  1  0.69555689  0.44206139  0.39052691  1
  Sr  Sr8  1  0.69509290  0.43646066  0.88451324  1
  Sr  Sr9  1  0.69074610  0.94310734  0.39009026  1
  Sr  Sr10  1  0.68837076  0.93932774  0.88468160  1
  Sr  Sr11  1  0.06159831  0.30154406  0.11087856  1
  Sr  Sr12  1  0.05261702  0.30441251  0.61333911  1
  Sr  Sr13  1  0.05492723  0.80344373  0.61043087  1
  Sr  Sr14  1  0.56221154  0.30532269  0.61319055  1
  Sr  Sr15  1  0.55857689  0.81031588  0.11275951  1
  Sr  Sr16  1  0.55740291  0.80294637  0.61113977  1
  Sr  Sr17  1  0.44597148  0.20021177  0.39184605  1
  Sr  Sr18  1  0.44402599  0.19619650  0.88459138  1
  Sr  Sr19  1  0.44927252  0.70169351  0.39300819  1
  Sr  Sr20  1  0.44296078  0.69842519  0.88406387  1
  Sr  Sr21  1  0.94698808  0.19617427  0.39185961  1
  Sr  Sr22  1  0.94520338  0.19159693  0.88423621  1
  Sr  Sr23  1  0.94182983  0.70214037  0.39449866  1
  Co  Co0  1  0.99152882  0.99461091  0.98385910  1
  Co  Co1  1  0.99610736  0.00096328  0.49950370  1
  Co  Co2  1  0.99441316  0.48786829  0.98492542  1
  Co  Co3  1  0.00309356  0.50426420  0.50648714  1
  Co  Co4  1  0.49402213  0.99635024  0.98970315  1
  Co  Co5  1  0.50315116  0.00052534  0.50256484  1
  Co  Co6  1  0.49542271  0.49266132  0.98216532  1
  Co  Co7  1  0.50344472  0.49779561  0.49733460  1
  Co  Co8  1  0.24467838  0.24598926  0.99172462  1
  Co  Co9  1  0.25723297  0.25469710  0.50897210  1
  Co  Co10  1  0.24739503  0.74684595  0.99302827  1
  Co  Co11  1  0.25591922  0.75328624  0.50442727  1
  Co  Co12  1  0.74710669  0.24212638  0.98887750  1
  Co  Co13  1  0.75084000  0.24925296  0.49845499  1
  Co  Co14  1  0.73881473  0.74282460  0.98775022  1
  Co  Co15  1  0.75533595  0.75433531  0.50836756  1
  Co  Co16  1  0.11950324  0.09369200  0.25850511  1
  Co  Co17  1  0.11546352  0.59344247  0.25672685  1
  Co  Co18  1  0.62028597  0.60429035  0.25998449  1
  Co  Co19  1  0.87177260  0.40738213  0.25600661  1
  Cu  Cu0  1  0.11284506  0.10397174  0.74482270  1
  Cu  Cu1  1  0.11776431  0.59453827  0.74711071  1
  Cu  Cu2  1  0.61925961  0.10070195  0.25654264  1
  Cu  Cu3  1  0.61484783  0.09884514  0.74764696  1
  Cu  Cu4  1  0.60957003  0.59749462  0.74758645  1
  Cu  Cu5  1  0.36093014  0.40514698  0.25509384  1
  Cu  Cu6  1  0.36399402  0.40128299  0.74747486  1
  Cu  Cu7  1  0.36787056  0.90265060  0.25405595  1
  Cu  Cu8  1  0.36772999  0.89964639  0.74590789  1
  Cu  Cu9  1  0.86361961  0.39149917  0.74550099  1
  Cu  Cu10  1  0.86167470  0.89353001  0.25759338  1
  Cu  Cu11  1  0.85694956  0.90485289  0.74474641  1
  O  O0  1  0.11718222  0.11546371  0.49722680  1
  O  O1  1  0.11664981  0.12064199  0.99167704  1
  O  O2  1  0.11648574  0.61417858  0.49622184  1
  O  O3  1  0.11284018  0.61195247  0.99195268  1
  O  O4  1  0.61497076  0.11881362  0.49683594  1
  O  O5  1  0.61526601  0.11367737  0.99215445  1
  O  O6  1  0.62125298  0.62194383  0.49841764  1
  O  O7  1  0.61555972  0.62377336  0.99260032  1
  O  O8  1  0.13173758  0.36747664  0.99728777  1
  O  O9  1  0.13883865  0.36856661  0.50788059  1
  O  O10  1  0.11732987  0.87244833  0.99733563  1
  O  O11  1  0.13613393  0.86554571  0.50539453  1
  O  O12  1  0.62896126  0.37080464  0.99555765  1
  O  O13  1  0.63622890  0.37172045  0.50521849  1
  O  O14  1  0.62185453  0.86892778  0.99927864  1
  O  O15  1  0.63396657  0.87134706  0.50587486  1
  O  O16  1  0.36396171  0.13272064  0.49643951  1
  O  O17  1  0.36728373  0.13222459  0.99056896  1
  O  O18  1  0.36594710  0.63220870  0.49620071  1
  O  O19  1  0.36645105  0.63502939  0.99301934  1
  O  O20  1  0.86603250  0.12776643  0.49652574  1
  O  O21  1  0.87439789  0.11113015  0.99367267  1
  O  O22  1  0.86633489  0.62532125  0.49478799  1
  O  O23  1  0.86102272  0.61626908  0.98990059  1
  O  O24  1  0.38256095  0.39075798  0.99731481  1
  O  O25  1  0.38853083  0.38915568  0.50903253  1
  O  O26  1  0.37893320  0.88518697  0.99727041  1
  O  O27  1  0.38489284  0.89003061  0.50881159  1
  O  O28  1  0.88767847  0.37399676  0.99763178  1
  O  O29  1  0.88854285  0.38467760  0.50630990  1
  O  O30  1  0.86128697  0.86436127  0.99680535  1
  O  O31  1  0.88286839  0.88272933  0.50907054  1
  O  O32  1  0.08605383  0.10667590  0.15762373  1
  O  O33  1  0.06977639  0.08782028  0.63355936  1
  O  O34  1  0.07961374  0.58578668  0.15050017  1
  O  O35  1  0.07927838  0.58956905  0.63740395  1
  O  O36  1  0.57352853  0.08004032  0.14413914  1
  O  O37  1  0.57511979  0.08697962  0.63691350  1
  O  O38  1  0.58165620  0.60581703  0.15664805  1
  O  O39  1  0.57906509  0.58655915  0.63831743  1
  O  O40  1  0.44075985  0.41713039  0.36905026  1
  O  O41  1  0.44083911  0.41824124  0.85954108  1
  O  O42  1  0.43673704  0.91355530  0.36595323  1
  O  O43  1  0.43781030  0.91500442  0.85783268  1
  O  O44  1  0.94451761  0.39767003  0.35851799  1
  O  O45  1  0.93910234  0.40763220  0.85821057  1
  O  O46  1  0.93824063  0.91465090  0.36970795  1
  O  O47  1  0.92365671  0.91947821  0.85857505  1
  O  O48  1  0.31928237  0.31157251  0.13974714  1
  O  O49  1  0.32769018  0.29953608  0.63764006  1
  O  O50  1  0.32752250  0.81387016  0.13884325  1
  O  O51  1  0.32908173  0.79872983  0.63546345  1
  O  O52  1  0.84010683  0.31298281  0.14840665  1
  O  O53  1  0.81829404  0.29619656  0.63412869  1
  O  O54  1  0.81811500  0.81172206  0.14502867  1
  O  O55  1  0.82235381  0.79862027  0.63281546  1
  O  O56  1  0.19781671  0.20865277  0.35817988  1
  O  O57  1  0.18684097  0.19765397  0.85782550  1
  O  O58  1  0.19782581  0.70229032  0.36021897  1
  O  O59  1  0.18727330  0.68796466  0.86021747  1
  O  O60  1  0.69570087  0.20097822  0.36765039  1
  O  O61  1  0.69000450  0.19261859  0.85941929  1
  O  O62  1  0.69206655  0.70644045  0.36547915  1
  O  O63  1  0.67103600  0.69434011  0.86046282  1
  O  O64  1  0.46325915  0.05216288  0.26262597  1
  O  O65  1  0.45402528  0.05569744  0.74892239  1
  O  O66  1  0.46278639  0.55248050  0.26255966  1
  O  O67  1  0.44624218  0.55457203  0.74661886  1
  O  O68  1  0.96804628  0.04731628  0.26264729  1
  O  O69  1  0.95296961  0.05109192  0.74696365  1
  O  O70  1  0.95193791  0.56545560  0.26333174  1
  O  O71  1  0.95672080  0.52710204  0.73572791  1
  O  O72  1  0.19238284  0.44185205  0.25412619  1
  O  O73  1  0.20242261  0.44147298  0.74767763  1
  O  O74  1  0.20434730  0.95482737  0.25916001  1
  O  O75  1  0.20828004  0.96035668  0.73531018  1
  O  O76  1  0.70631635  0.45446255  0.25973019  1
  O  O77  1  0.70652675  0.45416735  0.75010561  1
  O  O78  1  0.70240883  0.94723381  0.25401930  1
  O  O79  1  0.69548051  0.94457125  0.74707245  1
loop_
_geom_bond_atom_site_label_1
_geom_bond_atom_site_label_2
_geom_bond_distance
_geom_bond_site_symmetry_2
Ba0 O64 2.681871 1_555
Ba0 O48 2.693352 1_555
Ba0 O26 2.747275 1_544
Ba0 O32 2.790823 1_555
Ba0 O10 2.817315 1_544
Ba0 O36 2.833150 1_555
Ba0 O1 2.843359 1_554
Ba0 O17 2.874596 1_554
Ba0 O50 2.905729 1_545
Ba1 O66 2.660509 1_555
Ba1 O50 2.729835 1_555
Ba1 O24 2.732496 1_554
Ba1 O8 2.778160 1_554
Ba1 O34 2.800460 1_555
Ba1 O3 2.837124 1_554
Ba1 O19 2.847927 1_554
Ba1 O38 2.884077 1_555
Ba1 O48 2.926298 1_555
Ba2 O68 2.677466 1_555
Ba2 O52 2.754312 1_555
Ba2 O30 2.766128 1_544
Ba2 O14 2.774673 1_544
Ba2 O36 2.776387 1_555
Ba2 O21 2.809277 1_554
Ba2 O5 2.853125 1_554
Ba2 O54 2.900758 1_545
Ba2 O32 2.969289 1_655
Ba3 O70 2.623213 1_555
Ba3 O54 2.711213 1_555
Ba3 O12 2.735390 1_554
Ba3 O23 2.759007 1_554
Ba3 O28 2.825769 1_554
Ba3 O38 2.833499 1_555
Ba3 O7 2.846918 1_554
Ba3 O34 2.894572 1_655
Ba3 O52 2.973366 1_555
Ba4 O75 2.667028 1_555
Ba4 O1 2.731325 1_565
Ba4 O17 2.743541 1_565
Ba4 O59 2.747484 1_555
Ba4 O26 2.776020 1_555
Ba4 O10 2.841644 1_555
Ba4 O47 2.861007 1_455
Ba4 O43 2.899168 1_555
Ba4 O57 2.983190 1_565
Ba5 O74 2.665355 1_555
Ba5 O34 2.678789 1_555
Ba5 O10 2.738553 1_554
Ba5 O30 2.760965 1_454
Ba5 O3 2.786279 1_554
Ba5 O23 2.815892 1_454
Ba5 O54 2.819568 1_455
Ba5 O50 2.954966 1_555
Ba5 O32 3.246173 1_565
Ba6 O76 2.608803 1_555
Ba6 O36 2.756248 1_555
Ba6 O17 2.777006 1_554
Ba6 O12 2.779336 1_554
Ba6 O24 2.797135 1_554
Ba6 O48 2.811622 1_555
Ba6 O5 2.824355 1_554
Ba6 O52 3.013906 1_555
Ba6 O38 3.153191 1_555
Ba7 O71 2.662766 1_555
Ba7 O23 2.721358 1_555
Ba7 O47 2.737169 1_555
Ba7 O3 2.755587 1_655
Ba7 O30 2.793845 1_555
Ba7 O10 2.799930 1_655
Ba7 O63 2.837675 1_555
Ba7 O59 2.936107 1_655
Ba7 O45 3.006399 1_555
Ba7 O77 3.283532 1_555
Co0 O21 1.854345 1_565
Co0 O1 1.916609 1_665
Co0 O10 1.973928 1_655
Co0 O47 2.028567 1_555
Co0 O30 2.159006 1_555
Co1 O0 1.870154 1_655
Co1 O31 1.901116 1_545
Co1 O20 2.030681 1_555
Co1 O46 2.110475 1_545
Co1 O33 2.177010 1_655
Co1 O11 2.179093 1_645
Co2 O28 1.846045 1_555
Co2 O3 1.854878 1_655
Co2 O8 2.047063 1_655
Co2 O45 2.056339 1_555
Co2 O23 2.071381 1_555
Co2 O34 2.678902 1_656
Co3 O29 1.839267 1_455
Co3 O2 1.843141 1_555
Co3 O22 2.046746 1_455
Co3 O35 2.128772 1_555
Co3 O9 2.145336 1_555
Co3 O44 2.422268 1_455
Co4 O26 1.841737 1_555
Co4 O5 1.856245 1_565
Co4 O14 2.025014 1_555
Co4 O17 2.076585 1_565
Co4 O43 2.138646 1_555
Co4 O36 2.494893 1_566
Co5 O27 1.850359 1_545
Co5 O4 1.856604 1_555
Co5 O15 2.055539 1_545
Co5 O16 2.147152 1_555
Co5 O37 2.180480 1_555
Co5 O42 2.215535 1_545
Co6 O24 1.824999 1_555
Co6 O7 1.902379 1_555
Co6 O41 1.986564 1_555
Co6 O12 2.030462 1_555
Co6 O19 2.151166 1_555
Co7 O25 1.858860 1_555
Co7 O6 1.893952 1_555
Co7 O13 2.049985 1_555
Co7 O40 2.079452 1_555
Co7 O18 2.148919 1_555
Co7 O39 2.286160 1_555
Co8 O8 1.854775 1_555
Co8 O17 1.869345 1_555
Co8 O1 1.990939 1_555
Co8 O57 2.174531 1_555
Co8 O24 2.180195 1_555
Co8 O48 2.392229 1_556
Co9 O16 1.818358 1_555
Co9 O9 1.835713 1_555
Co9 O25 2.088341 1_555
Co9 O49 2.090664 1_555
Co9 O0 2.111182 1_555
Co9 O56 2.463307 1_555
Co10 O19 1.825171 1_555
Co10 O10 2.022381 1_555
Co10 O26 2.089670 1_555
Co10 O3 2.109226 1_555
Co10 O59 2.147330 1_555
Co10 O50 2.357126 1_556
Co11 O18 1.831040 1_555
Co11 O11 1.834752 1_555
Co11 O27 2.056200 1_555
Co11 O2 2.128736 1_555
Co11 O51 2.130015 1_555
Co11 O58 2.345648 1_555
Co12 O12 1.953602 1_555
Co12 O21 2.044132 1_555
Co12 O5 2.072095 1_555
Co12 O28 2.078090 1_555
Co12 O61 2.099097 1_555
Co12 O52 2.582618 1_556
Co13 O20 1.870997 1_555
Co13 O13 1.876493 1_555
Co13 O4 2.080653 1_555
Co13 O29 2.088692 1_555
Co13 O60 2.123889 1_555
Co13 O53 2.203532 1_555
Co14 O30 1.852324 1_555
Co14 O14 1.929389 1_555
Co14 O7 1.944105 1_555
Co14 O23 1.967115 1_555
Co14 O63 2.063226 1_555
Co14 O54 2.542192 1_556
Co15 O15 1.884360 1_555
Co15 O22 1.909259 1_555
Co15 O31 2.005870 1_555
Co15 O55 2.020634 1_555
Co15 O6 2.022475 1_555
Co15 O62 2.324170 1_555
Co16 O32 1.786488 1_555
Co16 O68 1.789884 1_455
Co16 O56 1.793226 1_555
Co16 O74 1.820920 1_545
Co17 O34 1.799150 1_555
Co17 O58 1.819892 1_555
Co17 O70 1.889461 1_455
Co17 O72 1.894896 1_555
Co18 O38 1.777404 1_555
Co18 O62 1.802322 1_555
Co18 O66 1.860607 1_555
Co18 O76 1.931377 1_555
Co19 O44 1.807592 1_555
Co19 O52 1.811662 1_555
Co19 O70 1.922053 1_555
Co19 O76 1.932135 1_555
Cu0 O33 1.855373 1_555
Cu0 O57 1.880999 1_555
Cu0 O69 1.886219 1_455
Cu0 O75 1.920275 1_545
Cu1 O35 1.866038 1_555
Cu1 O71 1.866474 1_455
Cu1 O59 1.877290 1_555
Cu1 O73 1.957207 1_555
Cu2 O64 1.860111 1_555
Cu2 O36 1.861775 1_555
Cu2 O60 1.876164 1_555
Cu2 O78 1.946512 1_545
Cu3 O65 1.859034 1_555
Cu3 O37 1.861128 1_555
Cu3 O61 1.865673 1_555
Cu3 O79 1.945149 1_545
Cu4 O39 1.850008 1_555
Cu4 O67 1.870114 1_555
Cu4 O63 1.877912 1_555
Cu4 O77 1.939239 1_555
Cu5 O48 1.912817 1_555
Cu5 O72 1.917577 1_555
Cu5 O40 1.925918 1_555
Cu5 O66 1.938428 1_555
Cu6 O73 1.855844 1_555
Cu6 O49 1.859776 1_555
Cu6 O41 1.877178 1_555
Cu6 O67 1.942790 1_555
Cu7 O42 1.882275 1_555
Cu7 O50 1.901711 1_555
Cu7 O64 1.912437 1_565
Cu7 O74 1.933354 1_555
Cu8 O51 1.863293 1_555
Cu8 O43 1.871096 1_555
Cu8 O75 1.878552 1_555
Cu8 O65 1.962532 1_565
Cu9 O53 1.854868 1_555
Cu9 O45 1.887965 1_555
Cu9 O77 1.901779 1_555
Cu9 O71 1.911781 1_555
Cu10 O54 1.844716 1_555
Cu10 O78 1.862524 1_555
Cu10 O46 1.867213 1_555
Cu10 O68 2.042536 1_565
Cu11 O79 1.862374 1_555
Cu11 O47 1.901910 1_555
Cu11 O55 1.906565 1_555
Cu11 O69 1.929516 1_565
O0 Sr21 2.619229 1_455
O0 Sr6 2.640474 1_545
O0 Sr0 2.711202 1_555
O0 Sr12 2.741465 1_555
O1 Sr22 2.588370 1_455
O1 Sr11 2.677214 1_556
O2 Sr4 2.610080 1_555
O2 Sr23 2.652879 1_455
O2 Sr1 2.706324 1_555
O2 Sr13 2.706429 1_555
O3 Sr5 2.638111 1_555
O4 Sr17 2.612840 1_555
O4 Sr9 2.627859 1_545
O4 Sr14 2.666163 1_555
O4 Sr2 2.705023 1_555
O5 Sr10 2.611618 1_545
O5 Sr18 2.660724 1_555
O6 Sr19 2.623647 1_555
O6 Sr16 2.653568 1_555
O6 Sr7 2.655709 1_555
O6 Sr3 2.660126 1_555
O7 Sr20 2.629540 1_555
O7 Sr15 2.730630 1_556
O7 Sr8 2.734008 1_555
O8 Sr5 2.662451 1_555
O8 Sr22 2.680023 1_455
O8 Sr11 2.685459 1_556
O9 Sr12 2.639334 1_555
O9 Sr1 2.640416 1_555
O9 Sr4 2.697925 1_555
O9 Sr21 2.709454 1_455
O11 Sr13 2.588973 1_555
O11 Sr23 2.651444 1_455
O11 Sr0 2.657671 1_565
O11 Sr6 2.662860 1_555
O12 Sr8 2.618112 1_555
O12 Sr18 2.652561 1_555
O13 Sr3 2.586127 1_555
O13 Sr14 2.617237 1_555
O13 Sr7 2.669219 1_555
O13 Sr17 2.680714 1_555
O14 Sr15 2.603342 1_556
O14 Sr20 2.618252 1_555
O14 Sr10 2.707423 1_555
O15 Sr16 2.599352 1_555
O15 Sr2 2.609473 1_565
O15 Sr19 2.634296 1_555
O15 Sr9 2.682626 1_555
O16 Sr17 2.616887 1_555
O16 Sr6 2.622508 1_545
O16 Sr14 2.754101 1_555
O16 Sr0 2.756154 1_555
O17 Sr18 2.586995 1_555
O18 Sr19 2.613668 1_555
O18 Sr4 2.628067 1_555
O18 Sr1 2.677123 1_555
O18 Sr16 2.692480 1_555
O19 Sr20 2.631765 1_555
O19 Sr5 2.694083 1_555
O19 Sr15 2.747222 1_556
O20 Sr21 2.616688 1_555
O20 Sr9 2.632842 1_545
O20 Sr2 2.664972 1_555
O20 Sr12 2.704998 1_655
O21 Sr10 2.633738 1_545
O21 Sr22 2.706584 1_555
O21 Sr11 2.788206 1_656
O22 Sr23 2.561530 1_555
O22 Sr7 2.588560 1_555
O22 Sr3 2.678731 1_555
O22 Sr13 2.718408 1_655
O23 Sr8 2.545407 1_555
O24 Sr5 2.635770 1_555
O24 Sr18 2.723360 1_555
O25 Sr1 2.580186 1_555
O25 Sr14 2.646004 1_555
O25 Sr4 2.711843 1_555
O25 Sr17 2.714389 1_555
O26 Sr20 2.694116 1_555
O26 Sr15 2.747738 1_556
O27 Sr0 2.606388 1_565
O27 Sr16 2.641048 1_555
O27 Sr6 2.641361 1_555
O27 Sr19 2.733444 1_555
O28 Sr22 2.634379 1_555
O28 Sr11 2.676235 1_656
O28 Sr8 2.726411 1_555
O29 Sr12 2.601454 1_655
O29 Sr3 2.630161 1_555
O29 Sr21 2.687556 1_555
O29 Sr7 2.729630 1_555
O30 Sr10 2.673363 1_555
O31 Sr13 2.577942 1_655
O31 Sr2 2.583197 1_565
O31 Sr23 2.644412 1_555
O31 Sr9 2.775011 1_555
O32 Sr11 2.552150 1_555
O33 Sr12 2.554332 1_555
O33 Sr0 2.740071 1_555
O33 Sr2 2.853101 1_455
O33 Sr13 3.068345 1_545
O34 Sr11 3.020250 1_555
O35 Sr13 2.579845 1_555
O35 Sr1 2.739901 1_555
O35 Sr3 2.951346 1_455
O35 Sr12 3.077083 1_555
O36 Sr15 2.880616 1_545
O37 Sr14 2.599372 1_555
O37 Sr2 2.739631 1_555
O37 Sr0 2.918456 1_555
O37 Sr16 3.055512 1_545
O38 Sr15 2.626895 1_555
O39 Sr16 2.607719 1_555
O39 Sr3 2.704404 1_555
O39 Sr1 2.888651 1_555
O39 Sr14 3.026688 1_555
O40 Sr17 2.576749 1_555
O40 Sr7 2.741565 1_555
O40 Sr4 2.871783 1_555
O40 Sr19 3.067875 1_555
O41 Sr18 2.652150 1_555
O41 Sr8 2.720896 1_555
O41 Sr5 2.925699 1_555
O41 Sr20 3.019671 1_555
O42 Sr19 2.554801 1_555
O42 Sr9 2.726304 1_555
O42 Sr6 2.836168 1_555
O42 Sr17 3.084428 1_565
O43 Sr20 2.600997 1_555
O43 Sr10 2.676441 1_555
O43 Sr18 3.022123 1_565
O44 Sr21 2.499562 1_555
O44 Sr4 2.689430 1_655
O44 Sr7 3.010011 1_555
O45 Sr22 2.593026 1_555
O45 Sr5 2.720589 1_655
O45 Sr8 2.897585 1_555
O46 Sr23 2.544780 1_555
O46 Sr6 2.796864 1_655
O46 Sr9 2.893163 1_555
O46 Sr21 3.040487 1_565
O47 Sr10 2.795292 1_555
O47 Sr22 2.925056 1_565
O48 Sr11 2.747637 1_555
O49 Sr0 2.594813 1_555
O49 Sr14 2.778690 1_555
O49 Sr12 2.959170 1_555
O49 Sr1 3.088127 1_555
O50 Sr15 2.748642 1_555
O51 Sr1 2.557235 1_555
O51 Sr16 2.708441 1_555
O51 Sr13 2.946820 1_555
O51 Sr0 3.037831 1_565
O52 Sr11 2.740241 1_655
O53 Sr2 2.557278 1_555
O53 Sr12 2.749149 1_655
O53 Sr14 2.763854 1_555
O53 Sr3 3.075526 1_555
O54 Sr15 2.764391 1_555
O55 Sr3 2.594621 1_555
O55 Sr13 2.740005 1_655
O55 Sr16 2.855252 1_555
O55 Sr2 3.042614 1_565
O56 Sr4 2.481695 1_555
O56 Sr17 2.647995 1_555
O56 Sr21 3.041905 1_455
O57 Sr5 2.598844 1_555
O57 Sr18 2.753292 1_555
O57 Sr22 2.873057 1_455
O58 Sr6 2.520119 1_555
O58 Sr19 2.676863 1_555
O58 Sr4 3.135419 1_555
O59 Sr20 2.739966 1_555
O59 Sr5 2.927084 1_555
O60 Sr7 2.593878 1_555
O60 Sr21 2.697914 1_555
O60 Sr17 2.940835 1_555
O60 Sr9 3.031128 1_545
O61 Sr8 2.615249 1_555
O61 Sr22 2.736350 1_555
O61 Sr18 2.905459 1_555
O61 Sr10 3.000904 1_545
O62 Sr9 2.541134 1_555
O62 Sr23 2.669199 1_555
O62 Sr19 2.893996 1_555
O62 Sr7 3.119715 1_555
O63 Sr10 2.629193 1_555
O63 Sr20 2.695810 1_555
O63 Sr8 3.042803 1_555
O64 Sr17 2.459220 1_555
O65 Sr0 2.483946 1_555
O65 Sr18 2.490393 1_555
O66 Sr19 2.465651 1_555
O67 Sr1 2.456167 1_555
O67 Sr20 2.503150 1_555
O68 Sr21 2.478399 1_555
O69 Sr22 2.504864 1_555
O69 Sr2 2.525473 1_555
O70 Sr23 2.412565 1_555
O71 Sr3 2.498049 1_555
O71 Sr12 3.197090 1_655
O72 Sr4 2.461468 1_555
O72 Sr11 2.523317 1_555
O73 Sr12 2.480916 1_555
O73 Sr5 2.495536 1_555
O74 Sr6 2.487273 1_555
O75 Sr13 2.488394 1_555
O75 Sr0 3.146032 1_565
O76 Sr7 2.433758 1_555
O77 Sr8 2.522659 1_555
O77 Sr14 2.529627 1_555
O78 Sr9 2.500495 1_555
O78 Sr15 2.531779 1_555
O79 Sr16 2.469267 1_555
O79 Sr10 2.514840 1_555
