# generated using pymatgen
data_Li3Fe2(OF)3
_symmetry_space_group_name_H-M   'P 1'
_cell_length_a   13.77090220
_cell_length_b   13.77090220
_cell_length_c   13.77090238
_cell_angle_alpha   13.44776080
_cell_angle_beta   13.44776080
_cell_angle_gamma   13.44776441
_symmetry_Int_Tables_number   1
_chemical_formula_structural   Li3Fe2(OF)3
_chemical_formula_sum   'Li3 Fe2 O3 F3'
_cell_volume   122.87743660
_cell_formula_units_Z   1
loop_
 _symmetry_equiv_pos_site_id
 _symmetry_equiv_pos_as_xyz
  1  'x, y, z'
loop_
 _atom_site_type_symbol
 _atom_site_label
 _atom_site_symmetry_multiplicity
 _atom_site_fract_x
 _atom_site_fract_y
 _atom_site_fract_z
 _atom_site_occupancy
  Li  Li0  1  0.85631200  0.85631200  0.85631200  1
  Li  Li1  1  0.73362500  0.73362500  0.73362500  1
  Li  Li2  1  0.12850600  0.12850600  0.12850600  1
  Fe  Fe0  1  0.99737200  0.99737200  0.99737200  1
  Fe  Fe1  1  0.25626100  0.25626100  0.25626100  1
  O  O0  1  0.91519700  0.91519700  0.91519700  1
  O  O1  1  0.68481200  0.68481200  0.68481200  1
  O  O2  1  0.30313800  0.30313800  0.30313800  1
  F  F0  1  0.80954600  0.80954600  0.80954600  1
  F  F1  1  0.20165000  0.20165000  0.20165000  1
  F  F2  1  0.08140800  0.08140800  0.08140800  1
loop_
_geom_bond_atom_site_label_1
_geom_bond_atom_site_label_2
_geom_bond_distance
_geom_bond_site_symmetry_2
Li0 O0 2.410363 1_555
Li1 O1 1.998082 1_555
Fe0 O1 2.046785 1_556
Fe0 O1 2.046785 1_655
Fe0 O1 2.046785 1_565
Fe0 O2 2.177067 1_665
Fe0 O2 2.177068 1_566
Fe0 O2 2.177068 1_656
Fe1 O0 1.888495 1_445
Fe1 O0 1.888496 1_454
Fe1 O0 1.888496 1_544
Fe1 O2 1.918835 1_555
F0 Li0 1.914291 1_555
F0 Li2 1.952546 1_665
F0 Li2 1.952546 1_656
F0 Li2 1.952546 1_566
F1 Li0 1.925551 1_445
F1 Li0 1.925551 1_544
F1 Li0 1.925551 1_454
F1 Fe1 2.235414 1_555
F2 Li2 1.927881 1_555
F2 Li1 1.953489 1_445
F2 Li1 1.953490 1_544
F2 Li1 1.953490 1_454
