# generated using pymatgen
data_Dy2(MoO4)3
_symmetry_space_group_name_H-M   'P 1'
_cell_length_a   10.46201400
_cell_length_b   10.47731600
_cell_length_c   10.72538400
_cell_angle_alpha   90.00000000
_cell_angle_beta   90.00000000
_cell_angle_gamma   90.00000000
_symmetry_Int_Tables_number   1
_chemical_formula_structural   Dy2(MoO4)3
_chemical_formula_sum   'Dy8 Mo12 O48'
_cell_volume   1175.65038279
_cell_formula_units_Z   4
loop_
 _symmetry_equiv_pos_site_id
 _symmetry_equiv_pos_as_xyz
  1  'x, y, z'
loop_
 _atom_site_type_symbol
 _atom_site_label
 _atom_site_symmetry_multiplicity
 _atom_site_fract_x
 _atom_site_fract_y
 _atom_site_fract_z
 _atom_site_occupancy
  Dy  Dy0  1  0.00590000  0.18818100  0.47437800  1
  Dy  Dy1  1  0.99410000  0.81181900  0.47437800  1
  Dy  Dy2  1  0.50590000  0.31181900  0.47437800  1
  Dy  Dy3  1  0.49410000  0.68818100  0.47437800  1
  Dy  Dy4  1  0.31155400  0.00381000  0.00006900  1
  Dy  Dy5  1  0.68844600  0.99619000  0.00006900  1
  Dy  Dy6  1  0.81155400  0.49619000  0.00006900  1
  Dy  Dy7  1  0.18844600  0.50381000  0.00006900  1
  Mo  Mo0  1  0.49695100  0.29351200  0.09455600  1
  Mo  Mo1  1  0.50304900  0.70648800  0.09455600  1
  Mo  Mo2  1  0.99695100  0.20648800  0.09455600  1
  Mo  Mo3  1  0.00304900  0.79351200  0.09455600  1
  Mo  Mo4  1  0.29429800  0.01143600  0.38030600  1
  Mo  Mo5  1  0.70570200  0.98856400  0.38030600  1
  Mo  Mo6  1  0.79429800  0.48856400  0.38030600  1
  Mo  Mo7  1  0.20570200  0.51143600  0.38030600  1
  Mo  Mo8  1  0.25711100  0.25641700  0.73744100  1
  Mo  Mo9  1  0.74288900  0.74358300  0.73744100  1
  Mo  Mo10  1  0.75711100  0.24358300  0.73744100  1
  Mo  Mo11  1  0.24288900  0.75641700  0.73744100  1
  O  O0  1  0.00651000  0.37420800  0.04621500  1
  O  O1  1  0.99349000  0.62579200  0.04621500  1
  O  O2  1  0.50651000  0.12579200  0.04621500  1
  O  O3  1  0.49349000  0.87420800  0.04621500  1
  O  O4  1  0.30720600  0.01113300  0.21513200  1
  O  O5  1  0.69279400  0.98886700  0.21513200  1
  O  O6  1  0.80720600  0.48886700  0.21513200  1
  O  O7  1  0.19279400  0.51113300  0.21513200  1
  O  O8  1  0.18309600  0.37563000  0.83283400  1
  O  O9  1  0.81690400  0.62437000  0.83283400  1
  O  O10  1  0.68309600  0.12437000  0.83283400  1
  O  O11  1  0.31690400  0.87563000  0.83283400  1
  O  O12  1  0.11393700  0.38356700  0.44448700  1
  O  O13  1  0.88606300  0.61643300  0.44448700  1
  O  O14  1  0.61393700  0.11643300  0.44448700  1
  O  O15  1  0.38606300  0.88356700  0.44448700  1
  O  O16  1  0.34574100  0.16510000  0.43189900  1
  O  O17  1  0.65425900  0.83490000  0.43189900  1
  O  O18  1  0.84574100  0.33490000  0.43189900  1
  O  O19  1  0.15425900  0.66510000  0.43189900  1
  O  O20  1  0.37718000  0.32842700  0.64188200  1
  O  O21  1  0.62282000  0.67157300  0.64188200  1
  O  O22  1  0.87718000  0.17157300  0.64188200  1
  O  O23  1  0.12282000  0.82842700  0.64188200  1
  O  O24  1  0.37349600  0.49399700  0.42749200  1
  O  O25  1  0.62650400  0.50600300  0.42749200  1
  O  O26  1  0.87349600  0.00600300  0.42749200  1
  O  O27  1  0.12650400  0.99399700  0.42749200  1
  O  O28  1  0.11866800  0.11539600  0.01865800  1
  O  O29  1  0.88133200  0.88460400  0.01865800  1
  O  O30  1  0.61866800  0.38460400  0.01865800  1
  O  O31  1  0.38133200  0.61539600  0.01865800  1
  O  O32  1  0.14290100  0.18136400  0.63699000  1
  O  O33  1  0.85709900  0.81863600  0.63699000  1
  O  O34  1  0.64290100  0.31863600  0.63699000  1
  O  O35  1  0.35709900  0.68136400  0.63699000  1
  O  O36  1  0.32915600  0.14090000  0.83802200  1
  O  O37  1  0.67084400  0.85910000  0.83802200  1
  O  O38  1  0.82915600  0.35910000  0.83802200  1
  O  O39  1  0.17084400  0.64090000  0.83802200  1
  O  O40  1  0.34018000  0.34705900  0.05528900  1
  O  O41  1  0.65982000  0.65294100  0.05528900  1
  O  O42  1  0.84018000  0.15294100  0.05528900  1
  O  O43  1  0.15982000  0.84705900  0.05528900  1
  O  O44  1  0.02002100  0.19465200  0.25868900  1
  O  O45  1  0.97997900  0.80534800  0.25868900  1
  O  O46  1  0.52002100  0.30534800  0.25868900  1
  O  O47  1  0.47997900  0.69465200  0.25868900  1
loop_
_geom_bond_atom_site_label_1
_geom_bond_atom_site_label_2
_geom_bond_distance
_geom_bond_site_symmetry_2
Dy0 O22 2.251971 1_455
Dy0 O32 2.258599 1_555
Dy0 O44 2.319051 1_555
Dy0 O18 2.319097 1_455
Dy0 O12 2.360302 1_555
Dy0 O26 2.411424 1_455
Dy0 O27 2.446266 1_545
Dy1 O23 2.251971 1_655
Dy1 O33 2.258599 1_555
Dy1 O45 2.319051 1_555
Dy1 O19 2.319097 1_655
Dy1 O13 2.360302 1_555
Dy1 O27 2.411424 1_655
Dy1 O26 2.446266 1_565
Dy2 O20 2.251971 1_555
Dy2 O34 2.258599 1_555
Dy2 O46 2.319051 1_555
Dy2 O16 2.319097 1_555
Dy2 O14 2.360302 1_555
Dy2 O24 2.411424 1_555
Dy2 O25 2.446266 1_555
Dy3 O21 2.251971 1_555
Dy3 O35 2.258599 1_555
Dy3 O47 2.319051 1_555
Dy3 O17 2.319097 1_555
Dy3 O15 2.360302 1_555
Dy3 O25 2.411424 1_555
Dy3 O24 2.446266 1_555
Dy4 O11 2.241417 1_544
Dy4 O36 2.262227 1_554
Dy4 O4 2.308357 1_555
Dy4 O28 2.340689 1_555
Dy4 O43 2.359659 1_545
Dy4 O3 2.389937 1_545
Dy4 O2 2.457327 1_555
Dy5 O10 2.241417 1_564
Dy5 O37 2.262227 1_554
Dy5 O5 2.308357 1_555
Dy5 O29 2.340689 1_555
Dy5 O42 2.359659 1_565
Dy5 O2 2.389937 1_565
Dy5 O3 2.457327 1_555
Dy6 O9 2.241417 1_554
Dy6 O38 2.262227 1_554
Dy6 O6 2.308357 1_555
Dy6 O30 2.340689 1_555
Dy6 O41 2.359659 1_555
Dy6 O1 2.389937 1_555
Dy6 O0 2.457327 1_655
Dy7 O8 2.241417 1_554
Dy7 O39 2.262227 1_554
Dy7 O7 2.308357 1_555
Dy7 O31 2.340689 1_555
Dy7 O40 2.359659 1_555
Dy7 O0 2.389937 1_555
Dy7 O1 2.457327 1_455
Mo0 O46 1.781180 1_555
Mo0 O40 1.783868 1_555
Mo0 O30 1.787482 1_555
Mo0 O2 1.834875 1_555
Mo1 O47 1.781180 1_555
Mo1 O41 1.783868 1_555
Mo1 O31 1.787482 1_555
Mo1 O3 1.834875 1_555
Mo2 O44 1.781180 1_655
Mo2 O42 1.783868 1_555
Mo2 O28 1.787482 1_655
Mo2 O0 1.834875 1_655
Mo3 O45 1.781180 1_455
Mo3 O43 1.783868 1_555
Mo3 O29 1.787482 1_455
Mo3 O1 1.834875 1_455
Mo4 O4 1.776697 1_555
Mo4 O16 1.785473 1_555
Mo4 O15 1.786168 1_545
Mo4 O27 1.836072 1_545
Mo5 O5 1.776697 1_555
Mo5 O17 1.785473 1_555
Mo5 O14 1.786168 1_565
Mo5 O26 1.836072 1_565
Mo6 O6 1.776697 1_555
Mo6 O18 1.785473 1_555
Mo6 O13 1.786168 1_555
Mo6 O25 1.836072 1_555
Mo7 O7 1.776697 1_555
Mo7 O19 1.785473 1_555
Mo7 O12 1.786168 1_555
Mo7 O24 1.836072 1_555
Mo8 O36 1.787934 1_555
Mo8 O20 1.788186 1_555
Mo8 O8 1.790665 1_555
Mo8 O32 1.790753 1_555
Mo9 O37 1.787934 1_555
Mo9 O21 1.788186 1_555
Mo9 O9 1.790665 1_555
Mo9 O33 1.790753 1_555
Mo10 O38 1.787934 1_555
Mo10 O22 1.788186 1_555
Mo10 O10 1.790665 1_555
Mo10 O34 1.790753 1_555
Mo11 O39 1.787934 1_555
Mo11 O23 1.788186 1_555
Mo11 O11 1.790665 1_555
Mo11 O35 1.790753 1_555
