# generated using pymatgen
data_U2TiS5
_symmetry_space_group_name_H-M   'P 1'
_cell_length_a   7.13711600
_cell_length_b   7.68447800
_cell_length_c   11.14844900
_cell_angle_alpha   90.00000000
_cell_angle_beta   90.00000000
_cell_angle_gamma   90.00000000
_symmetry_Int_Tables_number   1
_chemical_formula_structural   U2TiS5
_chemical_formula_sum   'U8 Ti4 S20'
_cell_volume   611.43680676
_cell_formula_units_Z   4
loop_
 _symmetry_equiv_pos_site_id
 _symmetry_equiv_pos_as_xyz
  1  'x, y, z'
loop_
 _atom_site_type_symbol
 _atom_site_label
 _atom_site_symmetry_multiplicity
 _atom_site_fract_x
 _atom_site_fract_y
 _atom_site_fract_z
 _atom_site_occupancy
  U  U0  1  0.53100700  0.49780300  0.32028100  1
  U  U1  1  0.96899300  0.00219700  0.82028100  1
  U  U2  1  0.46899300  0.99780300  0.67971900  1
  U  U3  1  0.03100700  0.50219700  0.17971900  1
  U  U4  1  0.46899300  0.50219700  0.67971900  1
  U  U5  1  0.03100700  0.99780300  0.17971900  1
  U  U6  1  0.53100700  0.00219700  0.32028100  1
  U  U7  1  0.96899300  0.49780300  0.82028100  1
  Ti  Ti0  1  0.07918100  0.75000000  0.49508600  1
  Ti  Ti1  1  0.42081900  0.75000000  0.99508600  1
  Ti  Ti2  1  0.92081900  0.25000000  0.50491400  1
  Ti  Ti3  1  0.57918100  0.25000000  0.00491400  1
  S  S0  1  0.83546700  0.96405300  0.58575000  1
  S  S1  1  0.66453300  0.53594700  0.08575000  1
  S  S2  1  0.16453300  0.46405300  0.41425000  1
  S  S3  1  0.33546700  0.03594700  0.91425000  1
  S  S4  1  0.16453300  0.03594700  0.41425000  1
  S  S5  1  0.33546700  0.46405300  0.91425000  1
  S  S6  1  0.83546700  0.53594700  0.58575000  1
  S  S7  1  0.66453300  0.96405300  0.08575000  1
  S  S8  1  0.83875800  0.75000000  0.31826700  1
  S  S9  1  0.66124200  0.75000000  0.81826700  1
  S  S10  1  0.16124200  0.25000000  0.68173300  1
  S  S11  1  0.33875800  0.25000000  0.18173300  1
  S  S12  1  0.45226100  0.75000000  0.49616200  1
  S  S13  1  0.04773900  0.75000000  0.99616200  1
  S  S14  1  0.54773900  0.25000000  0.50383800  1
  S  S15  1  0.95226100  0.25000000  0.00383800  1
  S  S16  1  0.18272100  0.75000000  0.70684200  1
  S  S17  1  0.31727900  0.75000000  0.20684200  1
  S  S18  1  0.81727900  0.25000000  0.29315800  1
  S  S19  1  0.68272100  0.25000000  0.79315800  1
loop_
_geom_bond_atom_site_label_1
_geom_bond_atom_site_label_2
_geom_bond_distance
_geom_bond_site_symmetry_2
S0 Ti2 2.451857 1_565
S0 Ti0 2.598626 1_655
S0 U1 2.798310 1_565
S0 U2 2.829477 1_555
S1 Ti3 2.451857 1_555
S1 Ti1 2.598626 1_554
S1 U0 2.798310 1_555
S1 U3 2.829477 1_655
S2 Ti0 2.451857 1_555
S2 Ti2 2.598626 1_455
S2 U3 2.798310 1_555
S2 U0 2.829477 1_555
S3 Ti1 2.451857 1_545
S3 Ti3 2.598626 1_556
S3 U2 2.798310 1_545
S3 U1 2.829477 1_455
S4 Ti0 2.451857 1_545
S4 Ti2 2.598626 1_455
S4 U5 2.798310 1_545
S4 U6 2.829477 1_555
S5 Ti1 2.451857 1_555
S5 Ti3 2.598626 1_556
S5 U4 2.798310 1_555
S5 U7 2.829477 1_455
S6 Ti2 2.451857 1_555
S6 Ti0 2.598626 1_655
S6 U7 2.798310 1_555
S6 U4 2.829477 1_555
S7 Ti3 2.451857 1_565
S7 Ti1 2.598626 1_554
S7 U6 2.798310 1_565
S7 U5 2.829477 1_655
S8 Ti0 2.613477 1_655
S8 U5 2.809726 1_655
S8 U3 2.809726 1_655
S8 U0 2.929295 1_555
S8 U6 2.929295 1_565
S9 Ti1 2.613477 1_555
S9 U4 2.809726 1_555
S9 U2 2.809726 1_555
S9 U1 2.929295 1_565
S9 U7 2.929295 1_555
S10 Ti2 2.613477 1_455
S10 U7 2.809726 1_455
S10 U1 2.809726 1_455
S10 U2 2.929295 1_545
S10 U4 2.929295 1_555
S11 Ti3 2.613477 1_555
S11 U6 2.809726 1_555
S11 U0 2.809726 1_555
S11 U3 2.929295 1_555
S11 U5 2.929295 1_545
S12 Ti0 2.662742 1_555
S12 U4 2.797862 1_555
S12 U2 2.797862 1_555
S12 U6 2.813620 1_565
S12 U0 2.813620 1_555
S13 Ti1 2.662742 1_555
S13 U3 2.797862 1_556
S13 U5 2.797862 1_556
S13 U7 2.813620 1_455
S13 U1 2.813620 1_465
S14 Ti2 2.662742 1_555
S14 U6 2.797862 1_555
S14 U0 2.797862 1_555
S14 U2 2.813620 1_545
S14 U4 2.813620 1_555
S15 Ti3 2.662742 1_555
S15 U1 2.797862 1_554
S15 U7 2.797862 1_554
S15 U5 2.813620 1_645
S15 U3 2.813620 1_655
S16 Ti0 2.473708 1_555
S16 U1 2.771658 1_465
S16 U7 2.771658 1_455
S16 U2 2.809277 1_555
S16 U4 2.809277 1_555
S17 Ti1 2.473708 1_554
S17 U0 2.771658 1_555
S17 U6 2.771658 1_565
S17 U5 2.809277 1_555
S17 U3 2.809277 1_555
S18 Ti2 2.473708 1_555
S18 U5 2.771658 1_645
S18 U3 2.771658 1_655
S18 U6 2.809277 1_555
S18 U0 2.809277 1_555
S19 Ti3 2.473708 1_556
S19 U2 2.771658 1_545
S19 U4 2.771658 1_555
S19 U7 2.809277 1_555
S19 U1 2.809277 1_555
