# generated using pymatgen
data_Li12Cr3CoP4(CO7)4
_symmetry_space_group_name_H-M   'P 1'
_cell_length_a   6.46532000
_cell_length_b   8.63028700
_cell_length_c   10.00250098
_cell_angle_alpha   85.48581438
_cell_angle_beta   90.00000000
_cell_angle_gamma   90.00000000
_symmetry_Int_Tables_number   1
_chemical_formula_structural   Li12Cr3CoP4(CO7)4
_chemical_formula_sum   'Li12 Cr3 Co1 P4 C4 O28'
_cell_volume   556.38387847
_cell_formula_units_Z   1
loop_
 _symmetry_equiv_pos_site_id
 _symmetry_equiv_pos_as_xyz
  1  'x, y, z'
loop_
 _atom_site_type_symbol
 _atom_site_label
 _atom_site_symmetry_multiplicity
 _atom_site_fract_x
 _atom_site_fract_y
 _atom_site_fract_z
 _atom_site_occupancy
  Li  Li0  1  0.00000000  0.90288000  0.61509200  1
  Li  Li1  1  0.00000000  0.89627300  0.11794200  1
  Li  Li2  1  0.22583400  0.72657400  0.87305900  1
  Li  Li3  1  0.77416600  0.72657400  0.87305900  1
  Li  Li4  1  0.22644900  0.72572200  0.37321000  1
  Li  Li5  1  0.77355100  0.72572200  0.37321000  1
  Li  Li6  1  0.72486500  0.27323300  0.62532700  1
  Li  Li7  1  0.27513500  0.27323300  0.62532700  1
  Li  Li8  1  0.72603500  0.27306300  0.12767800  1
  Li  Li9  1  0.27396500  0.27306300  0.12767800  1
  Li  Li10  1  0.50000000  0.10168300  0.88335800  1
  Li  Li11  1  0.50000000  0.10232200  0.38266700  1
  Cr  Cr0  1  0.50000000  0.66592600  0.60472000  1
  Cr  Cr1  1  0.50000000  0.66446900  0.10734100  1
  Cr  Cr2  1  0.00000000  0.33335800  0.89366000  1
  Co  Co0  1  0.00000000  0.33186700  0.39708700  1
  P  P0  1  0.00000000  0.58899000  0.63803400  1
  P  P1  1  0.00000000  0.58451600  0.14192200  1
  P  P2  1  0.50000000  0.41109000  0.85982900  1
  P  P3  1  0.50000000  0.41026300  0.36083700  1
  C  C0  1  0.50000000  0.96823600  0.64759200  1
  C  C1  1  0.50000000  0.96787800  0.14750700  1
  C  C2  1  0.00000000  0.03052700  0.85281300  1
  C  C3  1  0.00000000  0.03954700  0.35097200  1
  O  O0  1  0.50000000  0.94123100  0.52294800  1
  O  O1  1  0.00000000  0.88938300  0.81498700  1
  O  O2  1  0.50000000  0.93940200  0.02323500  1
  O  O3  1  0.50000000  0.85044200  0.73883300  1
  O  O4  1  0.00000000  0.89640000  0.31807500  1
  O  O5  1  0.50000000  0.85107100  0.23974900  1
  O  O6  1  0.18669100  0.68891300  0.58210300  1
  O  O7  1  0.81330900  0.68891300  0.58210300  1
  O  O8  1  0.18624300  0.68679300  0.08873100  1
  O  O9  1  0.81375700  0.68679300  0.08873100  1
  O  O10  1  0.50000000  0.57790800  0.90690700  1
  O  O11  1  0.00000000  0.57966000  0.79364500  1
  O  O12  1  0.50000000  0.57776300  0.40670100  1
  O  O13  1  0.00000000  0.56774500  0.29837800  1
  O  O14  1  0.50000000  0.42013100  0.70421200  1
  O  O15  1  0.00000000  0.42214900  0.59095400  1
  O  O16  1  0.50000000  0.41940500  0.20500500  1
  O  O17  1  0.00000000  0.42119200  0.08969000  1
  O  O18  1  0.31333100  0.31158800  0.91598100  1
  O  O19  1  0.68666900  0.31158800  0.91598100  1
  O  O20  1  0.68762900  0.31101200  0.41625800  1
  O  O21  1  0.31237100  0.31101200  0.41625800  1
  O  O22  1  0.00000000  0.14816800  0.76124800  1
  O  O23  1  0.50000000  0.10944500  0.68498300  1
  O  O24  1  0.00000000  0.15523400  0.25827200  1
  O  O25  1  0.00000000  0.05728800  0.97730700  1
  O  O26  1  0.50000000  0.10950000  0.18393400  1
  O  O27  1  0.00000000  0.07285700  0.47487000  1
loop_
_geom_bond_atom_site_label_1
_geom_bond_atom_site_label_2
_geom_bond_distance
_geom_bond_site_symmetry_2
Li0 O27 1.948146 1_565
Li0 O1 1.993667 1_555
Li0 O6 2.252023 1_555
Li0 O7 2.252023 1_455
Li1 O25 1.897923 1_564
Li1 O4 2.001917 1_555
Li1 O8 2.210618 1_555
Li1 O9 2.210618 1_455
Li2 O1 2.077273 1_555
Li2 O11 2.128137 1_555
Li2 O8 2.172688 1_556
Li2 O10 2.198732 1_555
Li2 O3 2.421041 1_555
Li3 O1 2.077273 1_655
Li3 O11 2.128137 1_655
Li3 O9 2.172688 1_556
Li3 O10 2.198732 1_555
Li3 O3 2.421041 1_555
Li4 O6 2.104357 1_555
Li4 O4 2.118840 1_555
Li4 O13 2.173295 1_555
Li4 O12 2.191657 1_555
Li4 O5 2.419290 1_555
Li5 O7 2.104357 1_555
Li5 O4 2.118840 1_655
Li5 O13 2.173295 1_655
Li5 O12 2.191657 1_555
Li5 O5 2.419290 1_555
Li6 O23 2.082062 1_555
Li6 O20 2.104782 1_555
Li6 O14 2.121535 1_555
Li6 O15 2.205588 1_655
Li6 O22 2.438572 1_655
Li7 O23 2.082062 1_555
Li7 O21 2.104782 1_555
Li7 O14 2.121535 1_555
Li7 O15 2.205588 1_555
Li7 O22 2.438572 1_555
Li8 O26 2.078427 1_555
Li8 O16 2.117256 1_555
Li8 O19 2.132675 1_554
Li8 O17 2.199913 1_655
Li8 O24 2.380907 1_655
Li9 O26 2.078427 1_555
Li9 O16 2.117256 1_555
Li9 O18 2.132675 1_554
Li9 O17 2.199913 1_555
Li9 O24 2.380907 1_555
Li10 O2 1.900151 1_546
Li10 O23 1.980100 1_555
Li10 O19 2.222106 1_555
Li10 O18 2.222106 1_555
Li11 O0 1.895947 1_545
Li11 O26 1.983913 1_555
Li11 O21 2.218899 1_555
Li11 O20 2.218899 1_555
Cr0 O7 2.046143 1_555
Cr0 O6 2.046143 1_555
Cr0 O3 2.161391 1_555
Cr0 O12 2.176986 1_555
Cr0 O14 2.271100 1_555
Cr0 O0 2.451180 1_555
Cr1 O9 2.044773 1_555
Cr1 O8 2.044773 1_555
Cr1 O5 2.164090 1_555
Cr1 O10 2.193906 1_554
Cr1 O16 2.258802 1_555
Cr1 O2 2.454275 1_555
Cr2 O18 2.045079 1_555
Cr2 O19 2.045079 1_455
Cr2 O22 2.154474 1_555
Cr2 O17 2.157146 1_556
Cr2 O11 2.276945 1_555
Cr2 O25 2.462285 1_555
Co0 O20 2.035296 1_455
Co0 O21 2.035296 1_555
Co0 O24 2.141233 1_555
Co0 O15 2.145984 1_555
Co0 O13 2.191461 1_555
Co0 O27 2.308303 1_555
C0 O0 1.286253 1_555
C0 O23 1.302610 1_565
C0 O3 1.311614 1_555
C1 O2 1.285927 1_555
C1 O26 1.302585 1_565
C1 O5 1.311906 1_555
C2 O25 1.284236 1_555
C2 O1 1.303649 1_545
C2 O22 1.312725 1_555
C3 O27 1.294048 1_555
C3 O4 1.303256 1_545
C3 O24 1.307998 1_555
O6 P0 1.561282 1_555
O7 P0 1.561282 1_655
O8 P1 1.561466 1_555
O9 P1 1.561466 1_655
O10 P2 1.549568 1_555
O11 P0 1.552239 1_555
O12 P3 1.550654 1_555
O13 P1 1.560246 1_555
O14 P2 1.552368 1_555
O15 P0 1.549765 1_555
O16 P3 1.554491 1_555
O17 P1 1.541317 1_555
O18 P2 1.559970 1_555
O19 P2 1.559970 1_555
O20 P3 1.561354 1_555
O21 P3 1.561354 1_555
