# generated using pymatgen
data_MgSn
_symmetry_space_group_name_H-M   'P 1'
_cell_length_a   6.94598048
_cell_length_b   6.94598033
_cell_length_c   9.25685322
_cell_angle_alpha   90.00000000
_cell_angle_beta   90.00000000
_cell_angle_gamma   120.00378697
_symmetry_Int_Tables_number   1
_chemical_formula_structural   MgSn
_chemical_formula_sum   'Mg8 Sn8'
_cell_volume   386.76266413
_cell_formula_units_Z   8
loop_
 _symmetry_equiv_pos_site_id
 _symmetry_equiv_pos_as_xyz
  1  'x, y, z'
loop_
 _atom_site_type_symbol
 _atom_site_label
 _atom_site_symmetry_multiplicity
 _atom_site_fract_x
 _atom_site_fract_y
 _atom_site_fract_z
 _atom_site_occupancy
  Mg  Mg0_0  1  0.00000375  0.99999626  0.00000000  1
  Mg  Mg0_1  1  0.00000375  0.99999626  0.50000000  1
  Mg  Mg0_2  1  0.00000375  0.49999626  0.00000000  1
  Mg  Mg0_3  1  0.00000375  0.49999626  0.50000000  1
  Mg  Mg0_4  1  0.50000375  0.99999626  0.00000000  1
  Mg  Mg0_5  1  0.50000375  0.99999626  0.50000000  1
  Mg  Mg0_6  1  0.50000375  0.49999626  0.00000000  1
  Mg  Mg0_7  1  0.50000375  0.49999626  0.50000000  1
  Sn  Sn0_0  1  0.33332975  0.16667024  0.25000000  1
  Sn  Sn0_1  1  0.33332975  0.16667024  0.75000000  1
  Sn  Sn0_2  1  0.33332975  0.66667024  0.25000000  1
  Sn  Sn0_3  1  0.33332975  0.66667024  0.75000000  1
  Sn  Sn0_4  1  0.83332975  0.16667024  0.25000000  1
  Sn  Sn0_5  1  0.83332975  0.16667024  0.75000000  1
  Sn  Sn0_6  1  0.83332975  0.66667024  0.25000000  1
  Sn  Sn0_7  1  0.83332975  0.66667024  0.75000000  1
loop_
_geom_bond_atom_site_label_1
_geom_bond_atom_site_label_2
_geom_bond_distance
_geom_bond_site_symmetry_2
Mg0_0 Sn0_1 3.061969 1_564
Mg0_0 Sn0_0 3.061969 1_565
Mg0_0 Sn0_6 3.061969 1_455
Mg0_0 Sn0_7 3.061969 1_454
Mg0_0 Sn0_4 3.062131 1_465
Mg0_0 Sn0_5 3.062131 1_464
Mg0_0 Mg0_6 3.472791 1_455
Mg0_0 Mg0_6 3.472791 1_565
Mg0_0 Mg0_2 3.472990 1_555
Mg0_0 Mg0_2 3.472990 1_565
Mg0_0 Mg0_4 3.472990 1_555
Mg0_0 Mg0_4 3.472990 1_455
Mg0_1 Sn0_0 3.061969 1_565
Mg0_1 Sn0_1 3.061969 1_565
Mg0_1 Sn0_6 3.061969 1_455
Mg0_1 Sn0_7 3.061969 1_455
Mg0_1 Sn0_5 3.062131 1_465
Mg0_1 Sn0_4 3.062131 1_465
Mg0_1 Mg0_7 3.472791 1_455
Mg0_1 Mg0_7 3.472791 1_565
Mg0_1 Mg0_3 3.472990 1_555
Mg0_1 Mg0_3 3.472990 1_565
Mg0_1 Mg0_5 3.472990 1_555
Mg0_1 Mg0_5 3.472990 1_455
Mg0_2 Sn0_2 3.061969 1_555
Mg0_2 Sn0_3 3.061969 1_554
Mg0_2 Sn0_5 3.061969 1_454
Mg0_2 Sn0_4 3.061969 1_455
Mg0_2 Sn0_6 3.062131 1_455
Mg0_2 Sn0_7 3.062131 1_454
Mg0_2 Mg0_4 3.472791 1_555
Mg0_2 Mg0_4 3.472791 1_445
Mg0_2 Mg0_6 3.472990 1_555
Mg0_2 Mg0_6 3.472990 1_455
Mg0_3 Sn0_2 3.061969 1_555
Mg0_3 Sn0_3 3.061969 1_555
Mg0_3 Sn0_5 3.061969 1_455
Mg0_3 Sn0_4 3.061969 1_455
Mg0_3 Sn0_6 3.062131 1_455
Mg0_3 Sn0_7 3.062131 1_455
Mg0_3 Mg0_5 3.472791 1_555
Mg0_3 Mg0_5 3.472791 1_445
Mg0_3 Mg0_7 3.472990 1_555
Mg0_3 Mg0_7 3.472990 1_455
Mg0_4 Sn0_4 3.061969 1_565
Mg0_4 Sn0_5 3.061969 1_564
Mg0_4 Sn0_3 3.061969 1_554
Mg0_4 Sn0_2 3.061969 1_555
Mg0_4 Sn0_0 3.062131 1_565
Mg0_4 Sn0_1 3.062131 1_564
Mg0_4 Mg0_6 3.472990 1_555
Mg0_4 Mg0_6 3.472990 1_565
Mg0_5 Sn0_4 3.061969 1_565
Mg0_5 Sn0_5 3.061969 1_565
Mg0_5 Sn0_2 3.061969 1_555
Mg0_5 Sn0_3 3.061969 1_555
Mg0_5 Sn0_0 3.062131 1_565
Mg0_5 Sn0_1 3.062131 1_565
Mg0_5 Mg0_7 3.472990 1_555
Mg0_5 Mg0_7 3.472990 1_565
Mg0_6 Sn0_6 3.061969 1_555
Mg0_6 Sn0_7 3.061969 1_554
Mg0_6 Sn0_1 3.061969 1_554
Mg0_6 Sn0_0 3.061969 1_555
Mg0_6 Sn0_2 3.062131 1_555
Mg0_6 Sn0_3 3.062131 1_554
Mg0_7 Sn0_6 3.061969 1_555
Mg0_7 Sn0_7 3.061969 1_555
Mg0_7 Sn0_1 3.061969 1_555
Mg0_7 Sn0_0 3.061969 1_555
Mg0_7 Sn0_2 3.062131 1_555
Mg0_7 Sn0_3 3.062131 1_555
