# generated using pymatgen
data_Ca2CoWO6
_symmetry_space_group_name_H-M   'P 1'
_cell_length_a   5.63381191
_cell_length_b   5.63381191
_cell_length_c   5.56975524
_cell_angle_alpha   60.45108253
_cell_angle_beta   60.45108253
_cell_angle_gamma   90.14306306
_symmetry_Int_Tables_number   1
_chemical_formula_structural   Ca2CoWO6
_chemical_formula_sum   'Ca2 Co1 W1 O6'
_cell_volume   126.53928791
_cell_formula_units_Z   1
loop_
 _symmetry_equiv_pos_site_id
 _symmetry_equiv_pos_as_xyz
  1  'x, y, z'
loop_
 _atom_site_type_symbol
 _atom_site_label
 _atom_site_symmetry_multiplicity
 _atom_site_fract_x
 _atom_site_fract_y
 _atom_site_fract_z
 _atom_site_occupancy
  Ca  Ca0  1  0.21883600  0.71517500  0.52825800  1
  Ca  Ca1  1  0.71517500  0.21883600  0.52825800  1
  Co  Co0  1  0.51779100  0.51779100  0.97984900  1
  W  W0  1  0.02125000  0.02125000  0.97648500  1
  O  O0  1  0.79446600  0.28090000  0.96902900  1
  O  O1  1  0.28090000  0.79446600  0.96902900  1
  O  O2  1  0.78561300  0.78561300  0.45817700  1
  O  O3  1  0.79622300  0.79622300  0.94381600  1
  O  O4  1  0.27354600  0.27354600  0.96502100  1
  O  O5  1  0.28073700  0.28073700  0.48507700  1
loop_
_geom_bond_atom_site_label_1
_geom_bond_atom_site_label_2
_geom_bond_distance
_geom_bond_site_symmetry_2
Ca0 O0 2.446668 1_455
Ca0 O5 2.583034 1_555
Ca0 O3 2.616644 1_455
Ca0 O4 2.641360 1_555
Ca0 O2 2.656795 1_455
Ca0 O1 2.752492 1_554
Ca0 O1 2.876863 1_555
Ca0 O2 3.019498 1_555
Ca0 O4 3.023231 1_564
Ca0 O3 3.077103 1_554
Ca0 O5 3.080203 1_565
Ca1 O1 2.446668 1_545
Ca1 O5 2.583034 1_555
Ca1 O3 2.616644 1_545
Ca1 O4 2.641360 1_555
Ca1 O2 2.656795 1_545
Ca1 O0 2.752492 1_554
Ca1 O0 2.876863 1_555
Ca1 O2 3.019498 1_555
Ca1 O4 3.023231 1_654
Ca1 O3 3.077103 1_554
Ca1 O5 3.080203 1_655
Co0 O4 2.002115 1_555
Co0 O5 2.015769 1_556
Co0 O0 2.052196 1_555
Co0 O1 2.052196 1_555
Co0 O3 2.080429 1_555
Co0 O2 2.082298 1_555
O0 W0 1.943122 1_655
O1 W0 1.943122 1_565
O2 W0 1.920400 1_664
O3 W0 1.922125 1_665
O4 W0 1.963579 1_555
O5 W0 1.965143 1_555
