# generated using pymatgen
data_K2Bi8Se13
_symmetry_space_group_name_H-M   'P 1'
_cell_length_a   4.24684700
_cell_length_b   17.78375100
_cell_length_c   18.83415328
_cell_angle_alpha   87.38050251
_cell_angle_beta   90.00000000
_cell_angle_gamma   90.00000000
_symmetry_Int_Tables_number   1
_chemical_formula_structural   K2Bi8Se13
_chemical_formula_sum   'K4 Bi16 Se26'
_cell_volume   1420.96061960
_cell_formula_units_Z   2
loop_
 _symmetry_equiv_pos_site_id
 _symmetry_equiv_pos_as_xyz
  1  'x, y, z'
loop_
 _atom_site_type_symbol
 _atom_site_label
 _atom_site_symmetry_multiplicity
 _atom_site_fract_x
 _atom_site_fract_y
 _atom_site_fract_z
 _atom_site_occupancy
  K  K0  1  0.25000000  0.48956800  0.85188500  1
  K  K1  1  0.75000000  0.51043200  0.14811500  1
  K  K2  1  0.25000000  0.75078800  0.77047700  1
  K  K3  1  0.75000000  0.24921200  0.22952300  1
  Bi  Bi0  1  0.75000000  0.66759000  0.96714600  1
  Bi  Bi1  1  0.25000000  0.33241000  0.03285400  1
  Bi  Bi2  1  0.75000000  0.98498700  0.25427400  1
  Bi  Bi3  1  0.25000000  0.01501300  0.74572600  1
  Bi  Bi4  1  0.25000000  0.10666900  0.48264000  1
  Bi  Bi5  1  0.75000000  0.89333100  0.51736000  1
  Bi  Bi6  1  0.25000000  0.07942700  0.07046000  1
  Bi  Bi7  1  0.75000000  0.92057300  0.92954000  1
  Bi  Bi8  1  0.25000000  0.50825600  0.39973400  1
  Bi  Bi9  1  0.75000000  0.49174400  0.60026600  1
  Bi  Bi10  1  0.75000000  0.30699400  0.45080500  1
  Bi  Bi11  1  0.25000000  0.69300600  0.54919500  1
  Bi  Bi12  1  0.25000000  0.82610700  0.12942700  1
  Bi  Bi13  1  0.75000000  0.17389300  0.87057300  1
  Bi  Bi14  1  0.75000000  0.72247800  0.32019900  1
  Bi  Bi15  1  0.25000000  0.27752200  0.67980100  1
  Se  Se0  1  0.75000000  0.63124100  0.83362600  1
  Se  Se1  1  0.25000000  0.36875900  0.16637400  1
  Se  Se2  1  0.25000000  0.09451400  0.21962900  1
  Se  Se3  1  0.75000000  0.90548600  0.78037100  1
  Se  Se4  1  0.25000000  0.04809100  0.90228100  1
  Se  Se5  1  0.75000000  0.95190900  0.09771900  1
  Se  Se6  1  0.25000000  0.22932800  0.37781100  1
  Se  Se7  1  0.75000000  0.77067200  0.62218900  1
  Se  Se8  1  0.25000000  0.86329800  0.27181100  1
  Se  Se9  1  0.75000000  0.13670200  0.72818900  1
  Se  Se10  1  0.75000000  0.43459400  0.33016300  1
  Se  Se11  1  0.25000000  0.56540600  0.66983700  1
  Se  Se12  1  0.25000000  0.57501000  0.01367400  1
  Se  Se13  1  0.75000000  0.42499000  0.98632600  1
  Se  Se14  1  0.75000000  0.02799800  0.40554000  1
  Se  Se15  1  0.25000000  0.97200200  0.59446000  1
  Se  Se16  1  0.25000000  0.62175500  0.28665700  1
  Se  Se17  1  0.75000000  0.37824500  0.71334300  1
  Se  Se18  1  0.75000000  0.72176300  0.16557900  1
  Se  Se19  1  0.25000000  0.27823700  0.83442100  1
  Se  Se20  1  0.25000000  0.38719600  0.53366800  1
  Se  Se21  1  0.75000000  0.61280400  0.46633200  1
  Se  Se22  1  0.75000000  0.19103500  0.56011600  1
  Se  Se23  1  0.25000000  0.80896500  0.43988400  1
  Se  Se24  1  0.75000000  0.18550900  0.04542300  1
  Se  Se25  1  0.25000000  0.81449100  0.95457700  1
loop_
_geom_bond_atom_site_label_1
_geom_bond_atom_site_label_2
_geom_bond_distance
_geom_bond_site_symmetry_2
K0 Se0 3.300872 1_455
K0 Se0 3.300872 1_555
K0 Se13 3.460271 1_455
K0 Se13 3.460271 1_555
K0 Se12 3.466585 1_556
K0 Se11 3.626622 1_555
K0 Se19 3.787570 1_555
K1 Se1 3.300872 1_555
K1 Se1 3.300872 1_655
K1 Se12 3.460271 1_555
K1 Se12 3.460271 1_655
K1 Se13 3.466585 1_554
K1 Se10 3.626622 1_555
K1 Se18 3.787570 1_555
K2 Se0 3.195657 1_455
K2 Se0 3.195657 1_555
K2 Se3 3.486993 1_555
K2 Se3 3.486993 1_455
K2 Se7 3.513384 1_555
K2 Se7 3.513384 1_455
K2 Se25 3.696634 1_555
K2 Se11 3.877216 1_555
K3 Se1 3.195657 1_555
K3 Se1 3.195657 1_655
K3 Se2 3.486993 1_655
K3 Se2 3.486993 1_555
K3 Se6 3.513384 1_555
K3 Se6 3.513384 1_655
K3 Se24 3.696634 1_555
K3 Se10 3.877216 1_555
Bi0 Se0 2.624947 1_555
Bi0 Se12 2.802798 1_556
Bi0 Se12 2.802798 1_656
Bi0 Se25 3.366502 1_555
Bi0 Se25 3.366502 1_655
Bi1 Se1 2.624947 1_555
Bi1 Se13 2.802798 1_554
Bi1 Se13 2.802798 1_454
Bi1 Se24 3.366502 1_555
Bi1 Se24 3.366502 1_455
Bi2 Se2 2.934698 1_565
Bi2 Se2 2.934698 1_665
Bi2 Se14 2.983432 1_565
Bi2 Se5 3.032938 1_555
Bi2 Se8 3.039072 1_555
Bi2 Se8 3.039072 1_655
Bi3 Se3 2.934698 1_545
Bi3 Se3 2.934698 1_445
Bi3 Se15 2.983432 1_545
Bi3 Se4 3.032938 1_555
Bi3 Se9 3.039072 1_555
Bi3 Se9 3.039072 1_455
Bi4 Se6 2.874489 1_555
Bi4 Se14 2.959839 1_455
Bi4 Se14 2.959839 1_555
Bi4 Se22 3.014850 1_455
Bi4 Se22 3.014850 1_555
Bi4 Se15 3.116060 1_545
Bi5 Se7 2.874489 1_555
Bi5 Se15 2.959839 1_555
Bi5 Se15 2.959839 1_655
Bi5 Se23 3.014850 1_655
Bi5 Se23 3.014850 1_555
Bi5 Se14 3.116060 1_565
Bi6 Se2 2.834435 1_555
Bi6 Se24 2.865134 1_555
Bi6 Se24 2.865134 1_455
Bi6 Se5 3.131895 1_445
Bi6 Se5 3.131895 1_545
Bi6 Se4 3.241144 1_554
Bi7 Se3 2.834435 1_555
Bi7 Se25 2.865134 1_555
Bi7 Se25 2.865134 1_655
Bi7 Se4 3.131895 1_565
Bi7 Se4 3.131895 1_665
Bi7 Se5 3.241144 1_556
Bi8 Se10 2.845840 1_455
Bi8 Se10 2.845840 1_555
Bi8 Se16 2.866501 1_555
Bi8 Se21 3.122857 1_555
Bi8 Se21 3.122857 1_455
Bi8 Se20 3.240641 1_555
Bi9 Se11 2.845840 1_655
Bi9 Se11 2.845840 1_555
Bi9 Se17 2.866501 1_555
Bi9 Se20 3.122857 1_655
Bi9 Se20 3.122857 1_555
Bi9 Se21 3.240641 1_555
Bi10 Se22 2.846597 1_555
Bi10 Se6 2.912079 1_655
Bi10 Se6 2.912079 1_555
Bi10 Se20 3.030238 1_555
Bi10 Se20 3.030238 1_655
Bi10 Se10 3.137013 1_555
Bi11 Se23 2.846597 1_555
Bi11 Se7 2.912079 1_455
Bi11 Se7 2.912079 1_555
Bi11 Se21 3.030238 1_455
Bi11 Se21 3.030238 1_555
Bi11 Se11 3.137013 1_555
Bi12 Se8 2.791234 1_555
Bi12 Se18 2.881043 1_455
Bi12 Se18 2.881043 1_555
Bi12 Se5 3.122283 1_455
Bi12 Se5 3.122283 1_555
Bi12 Se25 3.309034 1_554
Bi13 Se9 2.791234 1_555
Bi13 Se19 2.881043 1_655
Bi13 Se19 2.881043 1_555
Bi13 Se4 3.122283 1_555
Bi13 Se4 3.122283 1_655
Bi13 Se24 3.309034 1_556
Bi14 Se16 2.867048 1_655
Bi14 Se16 2.867048 1_555
Bi14 Se18 2.912746 1_555
Bi14 Se21 3.299780 1_555
Bi14 Se8 3.376747 1_555
Bi14 Se8 3.376747 1_655
Bi15 Se17 2.867048 1_455
Bi15 Se17 2.867048 1_555
Bi15 Se19 2.912746 1_555
Bi15 Se20 3.299780 1_555
Bi15 Se9 3.376747 1_455
Bi15 Se9 3.376747 1_555
