# generated using pymatgen
data_Mg7Si4
_symmetry_space_group_name_H-M   'P 1'
_cell_length_a   4.51015200
_cell_length_b   6.18780927
_cell_length_c   15.49498043
_cell_angle_alpha   93.37384975
_cell_angle_beta   91.72385019
_cell_angle_gamma   90.04907515
_symmetry_Int_Tables_number   1
_chemical_formula_structural   Mg7Si4
_chemical_formula_sum   'Mg14 Si8'
_cell_volume   431.48693776
_cell_formula_units_Z   2
loop_
 _symmetry_equiv_pos_site_id
 _symmetry_equiv_pos_as_xyz
  1  'x, y, z'
loop_
 _atom_site_type_symbol
 _atom_site_label
 _atom_site_symmetry_multiplicity
 _atom_site_fract_x
 _atom_site_fract_y
 _atom_site_fract_z
 _atom_site_occupancy
  Mg  Mg0  1  0.01468200  0.04324000  0.82506900  1
  Mg  Mg1  1  0.50970100  0.70504300  0.75865000  1
  Mg  Mg2  1  0.99384100  0.90374800  0.63463000  1
  Mg  Mg3  1  0.00232700  0.40329300  0.68631500  1
  Mg  Mg4  1  0.04167300  0.27487900  0.00814000  1
  Mg  Mg5  1  0.47729100  0.84277400  0.44271000  1
  Mg  Mg6  1  0.95759400  0.29419600  0.21730100  1
  Mg  Mg7  1  0.47202100  0.34922700  0.36627700  1
  Mg  Mg8  1  0.52397000  0.35084800  0.88239300  1
  Mg  Mg9  1  0.52578700  0.83129200  0.94906000  1
  Mg  Mg10  1  0.04403000  0.78406500  0.09818100  1
  Mg  Mg11  1  0.96072700  0.78683000  0.30739400  1
  Mg  Mg12  1  0.98247300  0.11914000  0.46356700  1
  Mg  Mg13  1  0.98362400  0.57427400  0.48483400  1
  Si  Si0  1  0.54453100  0.09299400  0.09207200  1
  Si  Si1  1  0.50498800  0.12304800  0.72254200  1
  Si  Si2  1  0.02050200  0.61450100  0.86166500  1
  Si  Si3  1  0.45270000  0.60615200  0.22844100  1
  Si  Si4  1  0.55302300  0.48796700  0.07785200  1
  Si  Si5  1  0.49623000  0.20537300  0.56802400  1
  Si  Si6  1  0.48907600  0.59555600  0.58748400  1
  Si  Si7  1  0.45281900  0.00413100  0.24106600  1
loop_
_geom_bond_atom_site_label_1
_geom_bond_atom_site_label_2
_geom_bond_distance
_geom_bond_site_symmetry_2
Mg0 Si2 2.745305 1_545
Mg0 Si1 2.815445 1_455
Mg0 Si1 2.821280 1_555
Mg0 Mg2 3.024030 1_445
Mg0 Mg3 3.185291 1_555
Mg1 Si1 2.678313 1_565
Mg1 Si6 2.697301 1_555
Mg1 Si2 2.836345 1_555
Mg1 Si2 2.838215 1_655
Mg1 Mg3 3.093720 1_555
Mg1 Mg3 3.096720 1_655
Mg1 Mg2 3.240140 1_555
Mg1 Mg2 3.260641 1_455
Mg2 Si1 2.919998 1_565
Mg2 Si1 2.932535 1_665
Mg2 Si6 3.013591 1_555
Mg2 Si6 3.016760 1_655
Mg2 Si5 3.111272 1_565
Mg2 Mg3 3.147102 1_665
Mg2 Si5 3.169043 1_665
Mg2 Mg3 3.243883 1_655
Mg3 Si1 2.916606 1_555
Mg3 Si1 2.921859 1_455
Mg3 Si2 2.943729 1_555
Mg3 Si6 2.998686 1_555
Mg3 Si6 3.020737 1_455
Mg3 Si5 3.090127 1_455
Mg3 Si5 3.131719 1_555
Mg4 Si4 2.782634 1_455
Mg4 Si4 2.810961 1_555
Mg4 Si0 2.846210 1_555
Mg4 Si0 2.885973 1_455
Mg4 Si2 3.182043 1_554
Mg5 Si6 2.787841 1_555
Mg5 Si5 2.879012 1_565
Mg6 Si0 2.877521 1_555
Mg6 Si7 2.895000 1_655
Mg6 Si7 2.943016 1_555
Mg6 Si3 2.944904 1_655
Mg6 Si3 2.988865 1_555
Mg6 Si4 3.083415 1_555
Mg7 Si3 2.735919 1_555
Mg7 Si7 2.798835 1_555
Mg8 Si1 2.775846 1_555
Mg8 Si2 2.806865 1_655
Mg8 Si2 2.818693 1_555
Mg8 Si4 3.095668 1_556
Mg9 Si0 2.665731 1_566
Mg9 Si2 2.902077 1_555
Mg9 Si2 2.929994 1_655
Mg9 Si4 2.999255 1_556
Mg10 Si4 2.871133 1_455
Mg10 Si4 2.951084 1_555
Mg10 Si3 2.953683 1_555
Mg10 Si0 2.958746 1_465
Mg10 Si0 2.964030 1_565
Mg10 Si7 3.090402 1_565
Mg11 Si3 2.768124 1_555
Mg11 Si3 2.770659 1_655
Mg11 Si7 2.843383 1_665
Mg11 Si7 2.852727 1_565
Mg12 Si5 2.797811 1_555
Mg12 Si5 2.818528 1_655
Mg12 Mg2 3.035214 1_545
Mg13 Si6 2.738754 1_655
Mg13 Si6 2.776975 1_555
Mg13 Mg2 2.997063 1_555
Mg13 Mg3 3.353519 1_655
Si0 Si7 2.451497 1_555
Si0 Si4 2.467178 1_555
Si1 Si5 2.476168 1_555
Si3 Si7 2.458871 1_565
Si3 Si4 2.459149 1_555
Si5 Si6 2.415826 1_555
