# generated using pymatgen
data_MgSi2
_symmetry_space_group_name_H-M   'P 1'
_cell_length_a   5.55398199
_cell_length_b   5.55398199
_cell_length_c   12.30690072
_cell_angle_alpha   71.96369653
_cell_angle_beta   71.96369653
_cell_angle_gamma   38.86248021
_symmetry_Int_Tables_number   1
_chemical_formula_structural   MgSi2
_chemical_formula_sum   'Mg4 Si8'
_cell_volume   224.99432755
_cell_formula_units_Z   4
loop_
 _symmetry_equiv_pos_site_id
 _symmetry_equiv_pos_as_xyz
  1  'x, y, z'
loop_
 _atom_site_type_symbol
 _atom_site_label
 _atom_site_symmetry_multiplicity
 _atom_site_fract_x
 _atom_site_fract_y
 _atom_site_fract_z
 _atom_site_occupancy
  Mg  Mg0  1  0.04416200  0.04416200  0.80736500  1
  Mg  Mg1  1  0.70132800  0.70132800  0.13667000  1
  Mg  Mg2  1  0.73993400  0.73993400  0.37573400  1
  Mg  Mg3  1  0.81927800  0.81927800  0.67509900  1
  Si  Si0  1  0.94780100  0.94780100  0.17377600  1
  Si  Si1  1  0.69950200  0.69950200  0.90941100  1
  Si  Si2  1  0.19845000  0.19845000  0.56590200  1
  Si  Si3  1  0.04408000  0.04408000  0.32669400  1
  Si  Si4  1  0.33380900  0.33380900  0.93015000  1
  Si  Si5  1  0.47655100  0.47655100  0.04856600  1
  Si  Si6  1  0.43856900  0.43856900  0.44978300  1
  Si  Si7  1  0.54228000  0.54228000  0.60101800  1
loop_
_geom_bond_atom_site_label_1
_geom_bond_atom_site_label_2
_geom_bond_distance
_geom_bond_site_symmetry_2
Mg0 Si2 2.879092 1_555
Mg0 Si4 2.892461 1_455
Mg0 Si4 2.892461 1_545
Mg0 Si1 2.996812 1_545
Mg0 Si1 2.996812 1_455
Mg0 Si7 3.145819 1_455
Mg0 Si7 3.145819 1_545
Mg1 Si0 2.765646 1_555
Mg1 Si1 2.803192 1_554
Mg1 Si5 2.897631 1_555
Mg1 Si3 3.011111 1_655
Mg1 Si3 3.011111 1_565
Mg1 Si4 3.079538 1_654
Mg1 Si4 3.079538 1_564
Mg1 Mg2 3.098548 1_555
Mg1 Si0 3.143112 1_545
Mg1 Si0 3.143112 1_455
Mg2 Si0 2.713887 1_555
Mg2 Si7 2.864343 1_555
Mg2 Si2 2.900394 1_565
Mg2 Si2 2.900394 1_655
Mg2 Si3 2.966541 1_565
Mg2 Si3 2.966541 1_655
Mg2 Si6 2.984508 1_555
Mg2 Si3 3.041758 1_665
Mg2 Si6 3.133539 1_565
Mg2 Si6 3.133539 1_655
Mg3 Si1 2.741153 1_555
Mg3 Si2 2.817592 1_565
Mg3 Si2 2.817592 1_655
Mg3 Si7 2.881588 1_565
Mg3 Si7 2.881588 1_655
Mg3 Si6 3.223244 1_655
Mg3 Si6 3.223244 1_565
Si0 Si5 2.361013 1_565
Si0 Si5 2.361013 1_655
Si0 Si3 2.409402 1_665
Si1 Si4 2.386253 1_655
Si1 Si4 2.386253 1_565
Si1 Si5 2.400204 1_556
Si2 Si7 2.410947 1_455
Si2 Si7 2.410947 1_545
Si2 Si6 2.451264 1_555
Si3 Si6 2.414712 1_455
Si3 Si6 2.414712 1_545
Si4 Si5 2.406348 1_556
Si6 Si7 2.443812 1_555
