# generated using pymatgen
data_Sm4(GeS4)3
_symmetry_space_group_name_H-M   'P 1'
_cell_length_a   11.45448913
_cell_length_b   11.45448913
_cell_length_c   11.45448911
_cell_angle_alpha   114.87629021
_cell_angle_beta   114.87629021
_cell_angle_gamma   114.87628133
_symmetry_Int_Tables_number   1
_chemical_formula_structural   Sm4(GeS4)3
_chemical_formula_sum   'Sm8 Ge6 S24'
_cell_volume   850.50621198
_cell_formula_units_Z   2
loop_
 _symmetry_equiv_pos_site_id
 _symmetry_equiv_pos_as_xyz
  1  'x, y, z'
loop_
 _atom_site_type_symbol
 _atom_site_label
 _atom_site_symmetry_multiplicity
 _atom_site_fract_x
 _atom_site_fract_y
 _atom_site_fract_z
 _atom_site_occupancy
  Sm  Sm0  1  0.49525710  0.49525710  0.49525710  1
  Sm  Sm1  1  0.99525710  0.99525710  0.99525710  1
  Sm  Sm2  1  0.71588166  0.93777742  0.47541223  1
  Sm  Sm3  1  0.47541223  0.71588166  0.93777742  1
  Sm  Sm4  1  0.93777742  0.47541223  0.71588166  1
  Sm  Sm5  1  0.97541223  0.43777742  0.21588166  1
  Sm  Sm6  1  0.21588166  0.97541223  0.43777742  1
  Sm  Sm7  1  0.43777742  0.21588166  0.97541223  1
  Ge  Ge0  1  0.85642192  0.64528349  0.47073311  1
  Ge  Ge1  1  0.47073311  0.85642192  0.64528349  1
  Ge  Ge2  1  0.64528349  0.47073311  0.85642192  1
  Ge  Ge3  1  0.97073311  0.14528349  0.35642192  1
  Ge  Ge4  1  0.35642192  0.97073311  0.14528349  1
  Ge  Ge5  1  0.14528349  0.35642192  0.97073311  1
  S  S0  1  0.81022048  0.88573042  0.27984533  1
  S  S1  1  0.27984533  0.81022048  0.88573042  1
  S  S2  1  0.88573042  0.27984533  0.81022048  1
  S  S3  1  0.77984533  0.38573042  0.31022048  1
  S  S4  1  0.31022048  0.77984533  0.38573042  1
  S  S5  1  0.38573042  0.31022048  0.77984533  1
  S  S6  1  0.86799512  0.68107331  0.68549078  1
  S  S7  1  0.68549078  0.86799512  0.68107331  1
  S  S8  1  0.68107331  0.68549078  0.86799512  1
  S  S9  1  0.18549078  0.18107331  0.36799512  1
  S  S10  1  0.36799512  0.18549078  0.18107331  1
  S  S11  1  0.18107331  0.36799512  0.18549078  1
  S  S12  1  0.61331022  0.58758436  0.29704993  1
  S  S13  1  0.29704993  0.61331022  0.58758436  1
  S  S14  1  0.58758436  0.29704993  0.61331022  1
  S  S15  1  0.79704993  0.08758436  0.11331022  1
  S  S16  1  0.11331022  0.79704993  0.08758436  1
  S  S17  1  0.08758436  0.11331022  0.79704993  1
  S  S18  1  0.08919336  0.35565775  0.63307902  1
  S  S19  1  0.63307902  0.08919336  0.35565775  1
  S  S20  1  0.35565775  0.63307902  0.08919336  1
  S  S21  1  0.13307902  0.85565775  0.58919336  1
  S  S22  1  0.58919336  0.13307902  0.85565775  1
  S  S23  1  0.85565775  0.58919336  0.13307902  1
loop_
_geom_bond_atom_site_label_1
_geom_bond_atom_site_label_2
_geom_bond_distance
_geom_bond_site_symmetry_2
Ge0 S12 2.198587 1_555
Ge0 S3 2.199811 1_555
Ge0 S21 2.212944 1_655
Ge0 S6 2.251315 1_555
Ge1 S13 2.198587 1_555
Ge1 S4 2.199811 1_555
Ge1 S22 2.212944 1_565
Ge1 S7 2.251315 1_555
Ge2 S14 2.198587 1_555
Ge2 S5 2.199811 1_555
Ge2 S23 2.212944 1_556
Ge2 S8 2.251315 1_555
Ge3 S15 2.198587 1_555
Ge3 S0 2.199811 1_545
Ge3 S18 2.212944 1_655
Ge3 S9 2.251315 1_655
Ge4 S16 2.198587 1_555
Ge4 S1 2.199811 1_554
Ge4 S19 2.212944 1_565
Ge4 S10 2.251315 1_565
Ge5 S17 2.198587 1_555
Ge5 S2 2.199811 1_455
Ge5 S20 2.212944 1_556
Ge5 S11 2.251315 1_556
S0 Sm2 2.827763 1_555
S0 Sm3 2.917586 1_554
S1 Sm3 2.827763 1_555
S1 Sm4 2.917586 1_455
S2 Sm4 2.827763 1_555
S2 Sm2 2.917586 1_545
S3 Sm5 2.827763 1_555
S3 Sm7 2.917586 1_554
S4 Sm6 2.827763 1_555
S4 Sm5 2.917586 1_455
S5 Sm7 2.827763 1_555
S5 Sm6 2.917586 1_545
S6 Sm0 2.851786 1_555
S6 Sm1 2.856207 1_555
S6 Sm4 2.889577 1_555
S7 Sm0 2.851786 1_555
S7 Sm1 2.856207 1_555
S7 Sm2 2.889577 1_555
S8 Sm0 2.851786 1_555
S8 Sm1 2.856207 1_555
S8 Sm3 2.889577 1_555
S9 Sm1 2.851786 1_444
S9 Sm0 2.856207 1_555
S9 Sm6 2.889577 1_545
S10 Sm1 2.851786 1_444
S10 Sm0 2.856207 1_555
S10 Sm7 2.889577 1_554
S11 Sm1 2.851786 1_444
S11 Sm0 2.856207 1_555
S11 Sm5 2.889577 1_455
S12 Sm2 2.960654 1_555
S12 Sm7 3.018653 1_554
S12 Sm0 3.391363 1_555
S13 Sm3 2.960654 1_555
S13 Sm5 3.018653 1_455
S13 Sm0 3.391363 1_555
S14 Sm4 2.960655 1_555
S14 Sm6 3.018654 1_545
S14 Sm0 3.391363 1_555
S15 Sm5 2.960655 1_555
S15 Sm3 3.018654 1_544
S15 Sm1 3.391363 1_544
S16 Sm6 2.960654 1_555
S16 Sm4 3.018653 1_454
S16 Sm1 3.391363 1_454
S17 Sm7 2.960654 1_555
S17 Sm2 3.018653 1_445
S17 Sm1 3.391363 1_445
S18 Sm4 2.842590 1_455
S18 Sm3 2.883450 1_555
S19 Sm2 2.842590 1_545
S19 Sm4 2.883450 1_555
S20 Sm3 2.842590 1_554
S20 Sm2 2.883450 1_555
S21 Sm6 2.842590 1_555
S21 Sm7 2.883450 1_565
S22 Sm7 2.842590 1_555
S22 Sm5 2.883450 1_556
S23 Sm5 2.842590 1_555
S23 Sm6 2.883450 1_655
