# generated using pymatgen
data_Li4Mn2FeNi3(PO4)6
_symmetry_space_group_name_H-M   'P 1'
_cell_length_a   8.45826600
_cell_length_b   8.55694255
_cell_length_c   8.56806068
_cell_angle_alpha   62.36249285
_cell_angle_beta   62.67925987
_cell_angle_gamma   62.67518327
_symmetry_Int_Tables_number   1
_chemical_formula_structural   Li4Mn2FeNi3(PO4)6
_chemical_formula_sum   'Li4 Mn2 Fe1 Ni3 P6 O24'
_cell_volume   463.61233045
_cell_formula_units_Z   1
loop_
 _symmetry_equiv_pos_site_id
 _symmetry_equiv_pos_as_xyz
  1  'x, y, z'
loop_
 _atom_site_type_symbol
 _atom_site_label
 _atom_site_symmetry_multiplicity
 _atom_site_fract_x
 _atom_site_fract_y
 _atom_site_fract_z
 _atom_site_occupancy
  Li  Li0  1  0.25215600  0.64649800  0.85188300  1
  Li  Li1  1  0.72792700  0.35074000  0.14790200  1
  Li  Li2  1  0.35041500  0.14673900  0.72933300  1
  Li  Li3  1  0.14747200  0.72570000  0.35079800  1
  Mn  Mn0  1  0.98629100  0.00328500  0.99805600  1
  Mn  Mn1  1  0.51106600  0.50108100  0.49618000  1
  Fe  Fe0  1  0.14830000  0.14852800  0.15430900  1
  Ni  Ni0  1  0.85603900  0.85365700  0.85236000  1
  Ni  Ni1  1  0.64375500  0.64663500  0.64593400  1
  Ni  Ni2  1  0.35403200  0.34931800  0.35227700  1
  P  P0  1  0.75219400  0.04476400  0.45470500  1
  P  P1  1  0.44744400  0.75033500  0.04287100  1
  P  P2  1  0.05181900  0.45635800  0.75339000  1
  P  P3  1  0.95023300  0.55092900  0.25284700  1
  P  P4  1  0.55230800  0.24979700  0.95193200  1
  P  P5  1  0.25140000  0.95124700  0.55259900  1
  O  O0  1  0.88753100  0.50090100  0.69710600  1
  O  O1  1  0.68928800  0.89083400  0.48601400  1
  O  O2  1  0.94662400  0.73574800  0.08661600  1
  O  O3  1  0.45614000  0.69241500  0.89457800  1
  O  O4  1  0.99079800  0.38853400  0.19106000  1
  O  O5  1  0.75649900  0.56567700  0.40598400  1
  O  O6  1  0.74441500  0.09584700  0.92549500  1
  O  O7  1  0.54427400  0.41485300  0.76696400  1
  O  O8  1  0.81888400  0.01102500  0.60647800  1
  O  O9  1  0.40183200  0.75410000  0.56908900  1
  O  O10  1  0.90556900  0.07394200  0.25341900  1
  O  O11  1  0.61065000  0.80983600  0.99463800  1
  O  O12  1  0.38949700  0.18205300  0.99905700  1
  O  O13  1  0.09918200  0.92520900  0.74800000  1
  O  O14  1  0.59685600  0.24360000  0.43145100  1
  O  O15  1  0.18587500  0.99225900  0.39283900  1
  O  O16  1  0.43219500  0.59398400  0.24047200  1
  O  O17  1  0.24790200  0.90659500  0.07781200  1
  O  O18  1  0.24907400  0.42800900  0.59482400  1
  O  O19  1  0.04029500  0.60399800  0.81377700  1
  O  O20  1  0.52968400  0.30998600  0.10647800  1
  O  O21  1  0.07307100  0.25586700  0.90772600  1
  O  O22  1  0.31584300  0.10444800  0.52622200  1
  O  O23  1  0.10517000  0.52166800  0.31952300  1
loop_
_geom_bond_atom_site_label_1
_geom_bond_atom_site_label_2
_geom_bond_distance
_geom_bond_site_symmetry_2
Li0 O13 2.099758 1_555
Li0 O9 2.122738 1_555
Li0 O3 2.144787 1_555
Li0 O19 2.166921 1_555
Li0 O7 2.398914 1_555
Li0 O2 2.479663 1_456
Li1 O20 2.063293 1_555
Li1 O14 2.089550 1_555
Li1 O10 2.162878 1_555
Li1 O16 2.479695 1_555
Li1 O4 2.590519 1_555
Li2 O18 2.072458 1_555
Li2 O22 2.096080 1_555
Li2 O21 2.175543 1_555
Li2 O14 2.507196 1_555
Li3 O23 2.084109 1_555
Li3 O16 2.090558 1_555
Li3 O17 2.147733 1_555
Li3 O18 2.509451 1_555
Mn0 O6 2.102956 1_555
Mn0 O2 2.188400 1_546
Mn0 O13 2.193805 1_645
Mn0 O10 2.257417 1_556
Mn0 O21 2.278637 1_655
Mn0 O17 2.287049 1_646
Mn1 O5 2.096847 1_555
Mn1 O9 2.195427 1_555
Mn1 O7 2.196789 1_555
Mn1 O14 2.232690 1_555
Mn1 O18 2.253552 1_555
Mn1 O16 2.261868 1_555
Fe0 O12 1.925092 1_554
Fe0 O15 1.933030 1_545
Fe0 O4 1.948013 1_455
Fe0 O10 2.107933 1_455
Fe0 O17 2.139134 1_545
Fe0 O21 2.146932 1_554
Ni0 O11 1.975474 1_555
Ni0 O8 1.984357 1_565
Ni0 O19 2.056126 1_655
Ni0 O13 2.089007 1_655
Ni0 O6 2.108154 1_565
Ni0 O2 2.111096 1_556
Ni1 O0 1.990185 1_555
Ni1 O1 1.997576 1_555
Ni1 O3 2.076182 1_555
Ni1 O9 2.100894 1_555
Ni1 O5 2.128665 1_555
Ni1 O7 2.130744 1_555
Ni2 O23 1.998201 1_555
Ni2 O22 1.999559 1_555
Ni2 O20 2.020465 1_555
Ni2 O14 2.121503 1_555
Ni2 O16 2.136958 1_555
Ni2 O18 2.148530 1_555
O0 P2 1.505708 1_655
O1 P0 1.508173 1_565
O2 P3 1.560912 1_555
O3 P1 1.526566 1_556
O4 P3 1.551459 1_555
O5 P3 1.553327 1_555
O6 P4 1.549448 1_555
O7 P4 1.563704 1_555
O8 P0 1.506023 1_555
O9 P5 1.567832 1_555
O10 P0 1.601177 1_555
O11 P1 1.503998 1_556
O12 P4 1.549446 1_555
O13 P5 1.564894 1_555
O14 P0 1.591957 1_555
O15 P5 1.541490 1_555
O16 P1 1.590447 1_555
O17 P1 1.600561 1_555
O18 P2 1.594295 1_555
O19 P2 1.523263 1_555
O20 P4 1.537827 1_554
O21 P2 1.598296 1_555
O22 P5 1.528004 1_545
O23 P3 1.536146 1_455
