# generated using pymatgen
data_GaAgTeSe
_symmetry_space_group_name_H-M   'P 1'
_cell_length_a   7.34323963
_cell_length_b   7.34323963
_cell_length_c   7.34323963
_cell_angle_alpha   130.02760219
_cell_angle_beta   129.25711222
_cell_angle_gamma   73.98088557
_symmetry_Int_Tables_number   1
_chemical_formula_structural   GaAgTeSe
_chemical_formula_sum   'Ga2 Ag2 Te2 Se2'
_cell_volume   228.97370993
_cell_formula_units_Z   2
loop_
 _symmetry_equiv_pos_site_id
 _symmetry_equiv_pos_as_xyz
  1  'x, y, z'
loop_
 _atom_site_type_symbol
 _atom_site_label
 _atom_site_symmetry_multiplicity
 _atom_site_fract_x
 _atom_site_fract_y
 _atom_site_fract_z
 _atom_site_occupancy
  Ga  Ga0  1  0.13423000  0.88423000  0.25000000  1
  Ga  Ga1  1  0.36577000  0.61577000  0.75000000  1
  Ag  Ag0  1  0.62965200  0.37965200  0.25000000  1
  Ag  Ag1  1  0.87034800  0.12034800  0.75000000  1
  Te  Te0  1  0.25000000  0.51802100  0.26802100  1
  Te  Te1  1  0.75000000  0.98197900  0.23197900  1
  Se  Se0  1  0.46936400  0.25000000  0.71936400  1
  Se  Se1  1  0.03063600  0.75000000  0.78063600  1
loop_
_geom_bond_atom_site_label_1
_geom_bond_atom_site_label_2
_geom_bond_distance
_geom_bond_site_symmetry_2
Ga0 Se1 2.480967 1_554
Ga0 Se0 2.480967 1_565
Ga0 Te1 2.650553 1_455
Ga0 Te0 2.650553 1_555
Ga1 Se1 2.480967 1_555
Ga1 Se0 2.480967 1_555
Ga1 Te0 2.650553 1_555
Ga1 Te1 2.650553 1_556
Ag0 Se0 2.741744 1_554
Ag0 Se1 2.741744 1_655
Ag0 Te1 2.748221 1_545
Ag0 Te0 2.748221 1_555
Ag1 Se1 2.741744 1_645
Ag1 Se0 2.741744 1_555
Ag1 Te0 2.748221 1_656
Ag1 Te1 2.748221 1_545
