# generated using pymatgen
data_Li6Mn3CoO10
_symmetry_space_group_name_H-M   'P 1'
_cell_length_a   3.02258651
_cell_length_b   3.02258651
_cell_length_c   24.76786319
_cell_angle_alpha   88.99639292
_cell_angle_beta   88.99639292
_cell_angle_gamma   56.59975779
_symmetry_Int_Tables_number   1
_chemical_formula_structural   Li6Mn3CoO10
_chemical_formula_sum   'Li6 Mn3 Co1 O10'
_cell_volume   188.87140024
_cell_formula_units_Z   1
loop_
 _symmetry_equiv_pos_site_id
 _symmetry_equiv_pos_as_xyz
  1  'x, y, z'
loop_
 _atom_site_type_symbol
 _atom_site_label
 _atom_site_symmetry_multiplicity
 _atom_site_fract_x
 _atom_site_fract_y
 _atom_site_fract_z
 _atom_site_occupancy
  Li  Li0  1  0.30066000  0.30066000  0.10133000  1
  Li  Li1  1  0.89581300  0.89581300  0.30236200  1
  Li  Li2  1  0.50577700  0.50577700  0.49594600  1
  Li  Li3  1  0.08041800  0.08041800  0.70629400  1
  Li  Li4  1  0.71437100  0.71437100  0.89460500  1
  Li  Li5  1  0.40583700  0.40583700  0.79932200  1
  Mn  Mn0  1  0.00294000  0.00294000  0.00134700  1
  Mn  Mn1  1  0.79845500  0.79845500  0.59815800  1
  Mn  Mn2  1  0.59822500  0.59822500  0.20082900  1
  Co  Co0  1  0.20017600  0.20017600  0.39977700  1
  O  O0  1  0.63435400  0.63435400  0.04742400  1
  O  O1  1  0.22593100  0.22593100  0.24649100  1
  O  O2  1  0.85696500  0.85696500  0.44570500  1
  O  O3  1  0.44332300  0.44332300  0.64038500  1
  O  O4  1  0.04944100  0.04944100  0.85170500  1
  O  O5  1  0.97336500  0.97336500  0.15415000  1
  O  O6  1  0.54119500  0.54119500  0.35445700  1
  O  O7  1  0.16114700  0.16114700  0.55316000  1
  O  O8  1  0.74968400  0.74968400  0.74785800  1
  O  O9  1  0.36192500  0.36192500  0.95869500  1
loop_
_geom_bond_atom_site_label_1
_geom_bond_atom_site_label_2
_geom_bond_distance
_geom_bond_site_symmetry_2
Li0 O5 2.157693 1_445
Li0 O5 2.158181 1_455
Li0 O5 2.158181 1_545
Li0 O0 2.160223 1_545
Li0 O0 2.160223 1_455
Li0 O0 2.200658 1_555
Li1 O6 2.087280 1_655
Li1 O6 2.087280 1_565
Li1 O1 2.199025 1_565
Li1 O1 2.199025 1_655
Li1 O1 2.214855 1_665
Li1 O6 2.265085 1_555
Li2 O2 2.066017 1_455
Li2 O2 2.066017 1_545
Li2 O7 2.189063 1_655
Li2 O7 2.189063 1_565
Li2 O2 2.224856 1_555
Li2 O7 2.295534 1_555
Li3 O8 1.990418 1_455
Li3 O8 1.990418 1_545
Li3 O8 2.021535 1_445
Li3 O3 2.301754 1_545
Li3 O3 2.301754 1_455
Li3 O3 2.504095 1_555
Li4 O4 1.997535 1_565
Li4 O4 1.997535 1_655
Li4 O4 2.057747 1_665
Li4 O9 2.289009 1_655
Li4 O9 2.289009 1_565
Li4 O9 2.433196 1_555
Li5 O4 2.088150 1_655
Li5 O4 2.088150 1_565
Li5 O8 2.100260 1_455
Li5 O8 2.100260 1_545
Li5 O8 2.209404 1_555
Li5 O4 2.276809 1_555
Mn0 O9 1.940175 1_544
Mn0 O9 1.940175 1_454
Mn0 O0 1.968963 1_545
Mn0 O0 1.968963 1_455
Mn0 O9 2.164863 1_554
Mn0 O0 2.249931 1_445
Mn1 O3 1.942652 1_655
Mn1 O3 1.942652 1_565
Mn1 O7 1.965210 1_655
Mn1 O7 1.965210 1_565
Mn1 O3 2.142010 1_555
Mn1 O7 2.209813 1_665
Mn2 O1 1.955778 1_655
Mn2 O1 1.955778 1_565
Mn2 O5 1.965272 1_455
Mn2 O5 1.965272 1_545
Mn2 O1 2.261985 1_555
Mn2 O5 2.287306 1_555
Co0 O6 2.016730 1_545
Co0 O6 2.016730 1_455
Co0 O2 2.020297 1_455
Co0 O2 2.020297 1_545
Co0 O6 2.115081 1_555
Co0 O2 2.132716 1_445
