# generated using pymatgen
data_Ba(PO4)2
_symmetry_space_group_name_H-M   'P 1'
_cell_length_a   8.01966200
_cell_length_b   11.63663534
_cell_length_c   13.11771235
_cell_angle_alpha   106.15109611
_cell_angle_beta   98.75635573
_cell_angle_gamma   99.97208028
_symmetry_Int_Tables_number   1
_chemical_formula_structural   Ba(PO4)2
_chemical_formula_sum   'Ba6 P12 O48'
_cell_volume   1131.80573287
_cell_formula_units_Z   6
loop_
 _symmetry_equiv_pos_site_id
 _symmetry_equiv_pos_as_xyz
  1  'x, y, z'
loop_
 _atom_site_type_symbol
 _atom_site_label
 _atom_site_symmetry_multiplicity
 _atom_site_fract_x
 _atom_site_fract_y
 _atom_site_fract_z
 _atom_site_occupancy
  Ba  Ba0  1  0.00864400  0.82827500  0.73945600  1
  Ba  Ba1  1  0.99135600  0.17172500  0.26054400  1
  Ba  Ba2  1  0.54906300  0.04224300  0.69417200  1
  Ba  Ba3  1  0.45093700  0.95775700  0.30582800  1
  Ba  Ba4  1  0.19942300  0.63126700  0.97683200  1
  Ba  Ba5  1  0.80057700  0.36873300  0.02316800  1
  P  P0  1  0.82010500  0.71103400  0.96051100  1
  P  P1  1  0.17989500  0.28896600  0.03948900  1
  P  P2  1  0.63411600  0.88488200  0.07137300  1
  P  P3  1  0.36588400  0.11511800  0.92862700  1
  P  P4  1  0.53611000  0.78101300  0.83882400  1
  P  P5  1  0.46389000  0.21898700  0.16117600  1
  P  P6  1  0.19694500  0.81268100  0.48357700  1
  P  P7  1  0.80305500  0.18731900  0.51642300  1
  P  P8  1  0.94132300  0.87610300  0.33931100  1
  P  P9  1  0.05867700  0.12389700  0.66068900  1
  P  P10  1  0.07891200  0.66003900  0.25656600  1
  P  P11  1  0.92108800  0.33996100  0.74343400  1
  O  O0  1  0.59962200  0.89728100  0.95013700  1
  O  O1  1  0.40037800  0.10271900  0.04986300  1
  O  O2  1  0.64021900  0.68197700  0.87276200  1
  O  O3  1  0.35978100  0.31802300  0.12723800  1
  O  O4  1  0.78826300  0.81084600  0.06452400  1
  O  O5  1  0.21173700  0.18915400  0.93547600  1
  O  O6  1  0.92889500  0.73866600  0.26144700  1
  O  O7  1  0.07110500  0.26133400  0.73855300  1
  O  O8  1  0.15463900  0.68443500  0.38526900  1
  O  O9  1  0.84536100  0.31556500  0.61473100  1
  O  O10  1  0.02501000  0.86531500  0.45654100  1
  O  O11  1  0.97499000  0.13468500  0.54345900  1
  O  O12  1  0.84201100  0.59791100  0.98976300  1
  O  O13  1  0.15798900  0.40208900  0.01023700  1
  O  O14  1  0.97003700  0.76898900  0.92055700  1
  O  O15  1  0.02996300  0.23101100  0.07944300  1
  O  O16  1  0.70363800  0.00936900  0.15248100  1
  O  O17  1  0.29636200  0.99063100  0.84751900  1
  O  O18  1  0.47662000  0.80750400  0.08834600  1
  O  O19  1  0.52338000  0.19249600  0.91165400  1
  O  O20  1  0.34751200  0.72441400  0.81950100  1
  O  O21  1  0.65248800  0.27558600  0.18049900  1
  O  O22  1  0.61320400  0.82472400  0.75378200  1
  O  O23  1  0.38679600  0.17527600  0.24621800  1
  O  O24  1  0.35693300  0.89655600  0.47655900  1
  O  O25  1  0.64306700  0.10344400  0.52344100  1
  O  O26  1  0.19434800  0.78486000  0.58809000  1
  O  O27  1  0.80565200  0.21514000  0.41191000  1
  O  O28  1  0.07440800  0.96945700  0.31387500  1
  O  O29  1  0.92559200  0.03054300  0.68612500  1
  O  O30  1  0.76267200  0.89484200  0.33918200  1
  O  O31  1  0.23732800  0.10515800  0.66081800  1
  O  O32  1  0.99066300  0.52747100  0.20896200  1
  O  O33  1  0.00933700  0.47252900  0.79103800  1
  O  O34  1  0.21700100  0.71588400  0.20689800  1
  O  O35  1  0.78299900  0.28411600  0.79310200  1
  O  O36  1  0.84039700  0.01108700  0.84714100  1
  O  O37  1  0.15960300  0.98891300  0.15285900  1
  O  O38  1  0.72040000  0.78153100  0.55785800  1
  O  O39  1  0.27960000  0.21846900  0.44214200  1
  O  O40  1  0.52213200  0.52649700  0.04962000  1
  O  O41  1  0.47786800  0.47350300  0.95038000  1
  O  O42  1  0.85457000  0.55008400  0.55278500  1
  O  O43  1  0.14543000  0.44991600  0.44721500  1
  O  O44  1  0.75555400  0.51227800  0.45828100  1
  O  O45  1  0.24444600  0.48772200  0.54171900  1
  O  O46  1  0.65365300  0.57940400  0.43299100  1
  O  O47  1  0.34634700  0.42059600  0.56700900  1
loop_
_geom_bond_atom_site_label_1
_geom_bond_atom_site_label_2
_geom_bond_distance
_geom_bond_site_symmetry_2
Ba0 O17 2.628171 1_555
Ba0 O26 2.649253 1_555
Ba0 O14 2.697629 1_455
Ba0 O29 2.791092 1_465
Ba0 O36 2.871241 1_465
Ba0 O38 2.912242 1_455
Ba0 O22 3.199144 1_455
Ba0 O20 3.305050 1_555
Ba0 O42 3.359427 1_455
Ba1 O16 2.628171 1_555
Ba1 O27 2.649253 1_555
Ba1 O15 2.697629 1_655
Ba1 O28 2.791092 1_645
Ba1 O37 2.871241 1_645
Ba1 O39 2.912242 1_655
Ba1 O23 3.199144 1_655
Ba1 O21 3.305050 1_555
Ba1 O43 3.359427 1_655
Ba2 O25 2.703110 1_555
Ba2 O31 2.730669 1_555
Ba2 O24 2.908716 1_545
Ba2 O35 2.919514 1_555
Ba2 O22 2.951707 1_545
Ba2 O19 2.960889 1_555
Ba2 O36 2.981169 1_555
Ba2 O29 3.062567 1_555
Ba2 O17 3.163206 1_545
Ba3 O24 2.703110 1_555
Ba3 O30 2.730669 1_555
Ba3 O25 2.908716 1_565
Ba3 O34 2.919514 1_555
Ba3 O23 2.951707 1_565
Ba3 O18 2.960889 1_555
Ba3 O37 2.981169 1_555
Ba3 O28 3.062567 1_555
Ba3 O16 3.163206 1_565
Ba4 O18 2.655078 1_556
Ba4 O33 2.657968 1_555
Ba4 O14 2.786258 1_455
Ba4 O13 2.793233 1_556
Ba4 O12 2.862618 1_455
Ba4 O34 2.875157 1_556
Ba4 O20 2.896492 1_555
Ba4 O41 3.127056 1_555
Ba4 O40 3.175518 1_556
Ba5 O19 2.655078 1_554
Ba5 O32 2.657968 1_555
Ba5 O15 2.786258 1_655
Ba5 O12 2.793233 1_554
Ba5 O13 2.862618 1_655
Ba5 O35 2.875157 1_554
Ba5 O21 2.896492 1_555
Ba5 O40 3.127056 1_555
Ba5 O41 3.175518 1_554
O0 P2 1.622977 1_556
O0 P4 1.630293 1_555
O1 P3 1.622977 1_554
O1 P5 1.630293 1_555
O2 P0 1.621541 1_555
O2 P4 1.651946 1_555
O3 P1 1.621541 1_555
O3 P5 1.651946 1_555
O4 P0 1.613384 1_554
O4 P2 1.624230 1_555
O5 P1 1.613384 1_556
O5 P3 1.624230 1_555
O6 P8 1.617393 1_555
O6 P10 1.631181 1_655
O7 P9 1.617393 1_555
O7 P11 1.631181 1_455
O8 P6 1.620487 1_555
O8 P10 1.631319 1_555
O9 P7 1.620487 1_555
O9 P11 1.631319 1_555
O10 P8 1.628906 1_455
O10 P6 1.632978 1_555
O11 P9 1.628906 1_655
O11 P7 1.632978 1_555
O12 P0 1.500508 1_555
O13 P1 1.500508 1_555
O14 P0 1.510942 1_555
O15 P1 1.510942 1_555
O16 P2 1.491148 1_545
O17 P3 1.491148 1_565
O18 P2 1.502974 1_555
O19 P3 1.502974 1_555
O20 P4 1.493672 1_555
O21 P5 1.493672 1_555
O22 P4 1.517302 1_555
O23 P5 1.517302 1_555
O24 P6 1.503180 1_555
O25 P7 1.503180 1_555
O26 P6 1.496026 1_555
O27 P7 1.496026 1_555
O28 P8 1.529407 1_455
O29 P9 1.529407 1_655
O30 P8 1.485904 1_555
O31 P9 1.485904 1_555
O32 P10 1.490627 1_655
O33 P11 1.490627 1_455
O34 P10 1.509694 1_555
O35 P11 1.509694 1_555
O40 O41 1.240099 1_554
O42 O44 1.279365 1_555
O43 O45 1.279365 1_555
O44 O46 1.292573 1_555
O45 O47 1.292573 1_555
