# generated using pymatgen
data_Ca3Fe2(WO6)2
_symmetry_space_group_name_H-M   'P 1'
_cell_length_a   5.50950684
_cell_length_b   7.74901008
_cell_length_c   5.53535900
_cell_angle_alpha   90.00001775
_cell_angle_beta   89.99997924
_cell_angle_gamma   90.06184677
_symmetry_Int_Tables_number   1
_chemical_formula_structural   Ca3Fe2(WO6)2
_chemical_formula_sum   'Ca3 Fe2 W2 O12'
_cell_volume   236.32218415
_cell_formula_units_Z   1
loop_
 _symmetry_equiv_pos_site_id
 _symmetry_equiv_pos_as_xyz
  1  'x, y, z'
loop_
 _atom_site_type_symbol
 _atom_site_label
 _atom_site_symmetry_multiplicity
 _atom_site_fract_x
 _atom_site_fract_y
 _atom_site_fract_z
 _atom_site_occupancy
  Ca  Ca0  1  0.49202500  0.75039300  0.00000600  1
  Ca  Ca1  1  0.99716700  0.25117700  0.49999300  1
  Ca  Ca2  1  0.97356800  0.75178500  0.50000200  1
  Fe  Fe0  1  0.97838300  0.49878400  0.99999300  1
  Fe  Fe1  1  0.48169100  0.00257200  0.50000100  1
  W  W0  1  0.97857300  0.00790200  0.00000100  1
  W  W1  1  0.47726600  0.49408400  0.50000000  1
  O  O0  1  0.39668300  0.74532900  0.50000100  1
  O  O1  1  0.57051600  0.25669700  0.50000100  1
  O  O2  1  0.06739400  0.75489500  0.00000100  1
  O  O3  1  0.90173500  0.24441300  0.00000100  1
  O  O4  1  0.72232000  0.55238300  0.74428900  1
  O  O5  1  0.72231900  0.55238400  0.25571100  1
  O  O6  1  0.22232100  0.46198200  0.73582600  1
  O  O7  1  0.22232300  0.46198200  0.26417400  1
  O  O8  1  0.20763100  0.03583300  0.25900500  1
  O  O9  1  0.20762900  0.03583300  0.74099700  1
  O  O10  1  0.73158100  0.94677200  0.24570700  1
  O  O11  1  0.73158000  0.94677100  0.75429400  1
loop_
_geom_bond_atom_site_label_1
_geom_bond_atom_site_label_2
_geom_bond_distance
_geom_bond_site_symmetry_2
Ca0 O2 2.339805 1_555
Ca0 O10 2.429619 1_555
Ca0 O11 2.429645 1_554
Ca0 O5 2.443724 1_555
Ca0 O4 2.443769 1_554
Ca1 O1 2.351072 1_555
Ca1 O7 2.430391 1_655
Ca1 O6 2.430427 1_655
Ca1 O8 2.431613 1_655
Ca1 O9 2.431658 1_655
Ca2 O0 2.331746 1_655
Ca2 O11 2.458893 1_555
Ca2 O10 2.458906 1_555
Ca2 O4 2.475393 1_555
Ca2 O5 2.475403 1_555
Fe0 O6 2.006647 1_655
Fe0 O7 2.006712 1_656
Fe0 O3 2.015406 1_556
Fe0 O4 2.041439 1_555
Fe0 O5 2.041497 1_556
Fe0 O2 2.043786 1_656
Fe1 O11 2.016206 1_545
Fe1 O10 2.016211 1_545
Fe1 O1 2.028603 1_555
Fe1 O8 2.031436 1_555
Fe1 O9 2.031443 1_555
Fe1 O0 2.047168 1_545
O0 W1 1.997348 1_555
O1 W1 1.910446 1_555
O2 W0 2.021216 1_465
O3 W0 1.881429 1_555
O4 W1 1.963194 1_555
O5 W1 1.963192 1_555
O6 W1 1.933419 1_555
O7 W1 1.933411 1_555
O8 W0 1.922064 1_455
O9 W0 1.922056 1_456
O10 W0 1.981055 1_565
O11 W0 1.981064 1_566
