# generated using pymatgen
data_ZnFeSb2
_symmetry_space_group_name_H-M   'P 1'
_cell_length_a   4.22972451
_cell_length_b   4.22972451
_cell_length_c   5.17619601
_cell_angle_alpha   89.99270175
_cell_angle_beta   90.00729825
_cell_angle_gamma   120.06788074
_symmetry_Int_Tables_number   1
_chemical_formula_structural   ZnFeSb2
_chemical_formula_sum   'Zn1 Fe1 Sb2'
_cell_volume   80.14345027
_cell_formula_units_Z   1
loop_
 _symmetry_equiv_pos_site_id
 _symmetry_equiv_pos_as_xyz
  1  'x, y, z'
loop_
 _atom_site_type_symbol
 _atom_site_label
 _atom_site_symmetry_multiplicity
 _atom_site_fract_x
 _atom_site_fract_y
 _atom_site_fract_z
 _atom_site_occupancy
  Zn  Zn0  1  0.00000000  0.00000000  0.00000000  1
  Fe  Fe0  1  0.00000000  0.00000000  0.50000000  1
  Sb  Sb0  1  0.66701800  0.33298200  0.70034700  1
  Sb  Sb1  1  0.33298200  0.66701800  0.29965300  1
loop_
_geom_bond_atom_site_label_1
_geom_bond_atom_site_label_2
_geom_bond_distance
_geom_bond_site_symmetry_2
Fe0 Zn0 2.588098 1_556
Fe0 Zn0 2.588098 1_555
Fe0 Sb0 2.651644 1_455
Fe0 Sb1 2.651644 1_545
Fe0 Sb0 2.652684 1_555
Fe0 Sb0 2.652684 1_445
Fe0 Sb1 2.652684 1_555
Fe0 Sb1 2.652684 1_445
Sb0 Zn0 2.891316 1_656
Sb0 Zn0 2.892753 1_666
Sb0 Zn0 2.892753 1_556
Sb1 Zn0 2.891316 1_565
Sb1 Zn0 2.892753 1_555
Sb1 Zn0 2.892753 1_665
