# generated using pymatgen
data_KTiP2O7
_symmetry_space_group_name_H-M   'P 1'
_cell_length_a   10.44252800
_cell_length_b   7.52028900
_cell_length_c   8.29585120
_cell_angle_alpha   73.39935992
_cell_angle_beta   90.00000000
_cell_angle_gamma   90.00000000
_symmetry_Int_Tables_number   1
_chemical_formula_structural   KTiP2O7
_chemical_formula_sum   'K4 Ti4 P8 O28'
_cell_volume   624.32597599
_cell_formula_units_Z   4
loop_
 _symmetry_equiv_pos_site_id
 _symmetry_equiv_pos_as_xyz
  1  'x, y, z'
loop_
 _atom_site_type_symbol
 _atom_site_label
 _atom_site_symmetry_multiplicity
 _atom_site_fract_x
 _atom_site_fract_y
 _atom_site_fract_z
 _atom_site_occupancy
  K  K0  1  0.17556500  0.18063500  0.44085300  1
  K  K1  1  0.67556500  0.81936500  0.05914700  1
  K  K2  1  0.82443500  0.81936500  0.55914700  1
  K  K3  1  0.32443500  0.18063500  0.94085300  1
  Ti  Ti0  1  0.10162900  0.76408200  0.25956100  1
  Ti  Ti1  1  0.60162900  0.23591800  0.24043900  1
  Ti  Ti2  1  0.89837100  0.23591800  0.74043900  1
  Ti  Ti3  1  0.39837100  0.76408200  0.75956100  1
  P  P0  1  0.40222000  0.86664300  0.32645000  1
  P  P1  1  0.90222000  0.13335700  0.17355000  1
  P  P2  1  0.59778000  0.13335700  0.67355000  1
  P  P3  1  0.09778000  0.86664300  0.82645000  1
  P  P4  1  0.36124000  0.55627400  0.18985600  1
  P  P5  1  0.86124000  0.44372600  0.31014400  1
  P  P6  1  0.63876000  0.44372600  0.81014400  1
  P  P7  1  0.13876000  0.55627400  0.68985600  1
  O  O0  1  0.40853700  0.84974200  0.51354800  1
  O  O1  1  0.90853700  0.15025800  0.98645200  1
  O  O2  1  0.59146300  0.15025800  0.48645200  1
  O  O3  1  0.09146300  0.84974200  0.01354800  1
  O  O4  1  0.26795600  0.92175300  0.25386400  1
  O  O5  1  0.76795600  0.07824700  0.24613600  1
  O  O6  1  0.73204400  0.07824700  0.74613600  1
  O  O7  1  0.23204400  0.92175300  0.75386400  1
  O  O8  1  0.00441000  0.00425400  0.27588600  1
  O  O9  1  0.50441000  0.99574600  0.22411400  1
  O  O10  1  0.99559000  0.99574600  0.72411400  1
  O  O11  1  0.49559000  0.00425400  0.77588600  1
  O  O12  1  0.43584200  0.66137700  0.30984200  1
  O  O13  1  0.93584200  0.33862300  0.19015800  1
  O  O14  1  0.56415800  0.33862300  0.69015800  1
  O  O15  1  0.06415800  0.66137700  0.80984200  1
  O  O16  1  0.28087300  0.54427800  0.73805100  1
  O  O17  1  0.78087300  0.45572200  0.76194900  1
  O  O18  1  0.71912700  0.45572200  0.26194900  1
  O  O19  1  0.21912700  0.54427800  0.23805200  1
  O  O20  1  0.57974800  0.63660900  0.77126400  1
  O  O21  1  0.07974800  0.36339100  0.72873600  1
  O  O22  1  0.42025200  0.36339100  0.22873600  1
  O  O23  1  0.92025200  0.63660900  0.27126400  1
  O  O24  1  0.38841100  0.67637600  0.00949800  1
  O  O25  1  0.88841100  0.32362400  0.49050200  1
  O  O26  1  0.61158900  0.32362400  0.99050200  1
  O  O27  1  0.11158900  0.67637600  0.50949800  1
loop_
_geom_bond_atom_site_label_1
_geom_bond_atom_site_label_2
_geom_bond_distance
_geom_bond_site_symmetry_2
K0 O8 2.804282 1_555
K0 O19 2.808394 1_555
K0 O7 2.827065 1_545
K0 O4 2.975415 1_545
K0 O10 3.020004 1_445
K0 O22 3.183129 1_555
K0 O21 3.235621 1_555
K0 O25 3.251263 1_455
K0 O13 3.254469 1_455
K0 O0 3.408371 1_545
K1 O9 2.804282 1_555
K1 O18 2.808397 1_555
K1 O6 2.827065 1_564
K1 O5 2.975415 1_565
K1 O11 3.020004 1_564
K1 O23 3.183129 1_555
K1 O20 3.235621 1_554
K1 O24 3.251263 1_555
K1 O12 3.254469 1_555
K1 O1 3.408371 1_564
K2 O10 2.804282 1_555
K2 O17 2.808397 1_555
K2 O5 2.827065 1_565
K2 O6 2.975415 1_565
K2 O8 3.020004 1_665
K2 O20 3.183129 1_555
K2 O23 3.235621 1_555
K2 O27 3.251263 1_655
K2 O15 3.254469 1_655
K2 O2 3.408371 1_565
K3 O11 2.804282 1_555
K3 O16 2.808397 1_555
K3 O4 2.827065 1_546
K3 O7 2.975415 1_545
K3 O9 3.020004 1_546
K3 O21 3.183129 1_555
K3 O22 3.235621 1_556
K3 O26 3.251263 1_555
K3 O14 3.254469 1_555
K3 O3 3.408371 1_546
O0 P0 1.522141 1_555
O0 Ti3 1.959654 1_555
O1 P1 1.522141 1_556
O1 Ti2 1.959654 1_555
O2 P2 1.522141 1_555
O2 Ti1 1.959654 1_555
O3 P3 1.522141 1_554
O3 Ti0 1.959654 1_555
O4 P0 1.535423 1_555
O4 Ti0 2.095926 1_555
O5 P1 1.535423 1_555
O5 Ti1 2.095926 1_555
O6 P2 1.535423 1_555
O6 Ti2 2.095926 1_555
O7 P3 1.535423 1_555
O7 Ti3 2.095926 1_555
O8 P1 1.526808 1_455
O8 Ti0 2.109737 1_545
O9 P0 1.526808 1_555
O9 Ti1 2.109737 1_565
O10 P3 1.526808 1_655
O10 Ti2 2.109737 1_565
O11 P2 1.526808 1_555
O11 Ti3 2.109737 1_545
O12 P0 1.626857 1_555
O12 P4 1.634619 1_555
O13 P1 1.626857 1_555
O13 P5 1.634619 1_555
O14 P2 1.626857 1_555
O14 P6 1.634619 1_555
O15 P3 1.626857 1_555
O15 P7 1.634619 1_555
O16 P7 1.532872 1_555
O16 Ti3 2.106711 1_555
O17 P6 1.532872 1_555
O17 Ti2 2.106711 1_555
O18 P5 1.532872 1_555
O18 Ti1 2.106711 1_555
O19 P4 1.532874 1_555
O19 Ti0 2.106708 1_555
O20 P6 1.523318 1_555
O20 Ti3 2.112484 1_555
O21 P7 1.523318 1_555
O21 Ti2 2.112484 1_455
O22 P4 1.523318 1_555
O22 Ti1 2.112484 1_555
O23 P5 1.523318 1_555
O23 Ti0 2.112484 1_655
O24 P4 1.537134 1_555
O24 Ti3 1.990872 1_554
O25 P5 1.537134 1_555
O25 Ti2 1.990872 1_555
O26 P6 1.537134 1_555
O26 Ti1 1.990872 1_556
O27 P7 1.537134 1_555
O27 Ti0 1.990872 1_555
