# generated using pymatgen
data_Ba4Zr3S10
_symmetry_space_group_name_H-M   'P 1'
_cell_length_a   18.31442651
_cell_length_b   18.31442651
_cell_length_c   18.31442651
_cell_angle_alpha   164.15441026
_cell_angle_beta   164.15441026
_cell_angle_gamma   22.48164556
_symmetry_Int_Tables_number   1
_chemical_formula_structural   Ba4Zr3S10
_chemical_formula_sum   'Ba4 Zr3 S10'
_cell_volume   457.89876390
_cell_formula_units_Z   1
loop_
 _symmetry_equiv_pos_site_id
 _symmetry_equiv_pos_as_xyz
  1  'x, y, z'
loop_
 _atom_site_type_symbol
 _atom_site_label
 _atom_site_symmetry_multiplicity
 _atom_site_fract_x
 _atom_site_fract_y
 _atom_site_fract_z
 _atom_site_occupancy
  Ba  Ba0  1  0.43263600  0.43263600  0.00000000  1
  Ba  Ba1  1  0.56736400  0.56736400  0.00000000  1
  Ba  Ba2  1  0.30028100  0.30028100  0.00000000  1
  Ba  Ba3  1  0.69971900  0.69971900  0.00000000  1
  Zr  Zr0  1  0.00000000  0.00000000  0.00000000  1
  Zr  Zr1  1  0.85682900  0.85682900  0.00000000  1
  Zr  Zr2  1  0.14317100  0.14317100  0.00000000  1
  S  S0  1  0.36059600  0.86059600  0.50000000  1
  S  S1  1  0.13940400  0.63940400  0.50000000  1
  S  S2  1  0.63940400  0.13940400  0.50000000  1
  S  S3  1  0.86059600  0.36059600  0.50000000  1
  S  S4  1  0.50000000  0.00000000  0.50000000  1
  S  S5  1  0.00000000  0.50000000  0.50000000  1
  S  S6  1  0.21310900  0.21310900  0.00000000  1
  S  S7  1  0.92950300  0.92950300  0.00000000  1
  S  S8  1  0.07049700  0.07049700  0.00000000  1
  S  S9  1  0.78689100  0.78689100  0.00000000  1
loop_
_geom_bond_atom_site_label_1
_geom_bond_atom_site_label_2
_geom_bond_distance
_geom_bond_site_symmetry_2
Ba0 S5 3.497114 1_655
Ba0 S4 3.497114 1_554
Ba0 S4 3.497114 1_565
Ba0 S5 3.497114 1_554
Ba0 S7 3.571864 1_545
Ba0 S7 3.571864 1_455
Ba0 S7 3.571864 1_556
Ba0 S7 3.571864 1_444
Ba0 S3 3.615404 1_454
Ba0 S0 3.615404 1_544
Ba0 S3 3.615404 1_555
Ba0 S0 3.615404 1_555
Ba1 S5 3.497114 1_554
Ba1 S4 3.497114 1_565
Ba1 S5 3.497114 1_655
Ba1 S4 3.497114 1_554
Ba1 S8 3.571864 1_565
Ba1 S8 3.571864 1_655
Ba1 S8 3.571864 1_554
Ba1 S8 3.571864 1_666
Ba1 S1 3.615404 1_554
Ba1 S2 3.615404 1_554
Ba1 S1 3.615404 1_655
Ba1 S2 3.615404 1_565
Ba2 S6 3.131757 1_555
Ba2 S3 3.326887 1_555
Ba2 S3 3.326887 1_454
Ba2 S0 3.326887 1_555
Ba2 S0 3.326887 1_544
Ba2 S9 3.602354 1_444
Ba2 S9 3.602354 1_545
Ba2 S9 3.602354 1_455
Ba2 S9 3.602354 1_556
Ba3 S9 3.131757 1_555
Ba3 S1 3.326887 1_655
Ba3 S2 3.326887 1_565
Ba3 S1 3.326887 1_554
Ba3 S2 3.326887 1_554
Ba3 S6 3.602354 1_565
Ba3 S6 3.602354 1_655
Ba3 S6 3.602354 1_666
Ba3 S6 3.602354 1_554
S0 Zr1 2.528060 1_455
S0 Zr1 2.528060 1_556
S1 Zr2 2.528060 1_566
S1 Zr2 2.528060 1_555
S2 Zr2 2.528060 1_555
S2 Zr2 2.528060 1_656
S3 Zr1 2.528060 1_556
S3 Zr1 2.528060 1_545
S4 Zr0 2.524435 1_555
S4 Zr0 2.524435 1_656
S5 Zr0 2.524435 1_555
S5 Zr0 2.524435 1_566
S6 Zr2 2.512605 1_555
S7 Zr0 2.532688 1_665
S7 Zr1 2.610899 1_555
S8 Zr0 2.532688 1_555
S8 Zr2 2.610899 1_555
S9 Zr1 2.512605 1_555
