# generated using pymatgen
data_NbRh3
_symmetry_space_group_name_H-M   'P 1'
_cell_length_a   5.52363006
_cell_length_b   5.52363006
_cell_length_c   4.41940877
_cell_angle_alpha   90.00000000
_cell_angle_beta   90.00000000
_cell_angle_gamma   120.00000602
_symmetry_Int_Tables_number   1
_chemical_formula_structural   NbRh3
_chemical_formula_sum   'Nb2 Rh6'
_cell_volume   116.77340600
_cell_formula_units_Z   2
loop_
 _symmetry_equiv_pos_site_id
 _symmetry_equiv_pos_as_xyz
  1  'x, y, z'
loop_
 _atom_site_type_symbol
 _atom_site_label
 _atom_site_symmetry_multiplicity
 _atom_site_fract_x
 _atom_site_fract_y
 _atom_site_fract_z
 _atom_site_occupancy
  Nb  Nb0  1  0.66666700  0.33333300  0.25000000  1
  Nb  Nb1  1  0.33333300  0.66666700  0.75000000  1
  Rh  Rh0  1  0.83629262  0.16370738  0.75000000  1
  Rh  Rh1  1  0.32741476  0.16370738  0.75000000  1
  Rh  Rh2  1  0.83629262  0.67258524  0.75000000  1
  Rh  Rh3  1  0.16370738  0.83629262  0.25000000  1
  Rh  Rh4  1  0.67258524  0.83629262  0.25000000  1
  Rh  Rh5  1  0.16370738  0.32741476  0.25000000  1
loop_
_geom_bond_atom_site_label_1
_geom_bond_atom_site_label_2
_geom_bond_distance
_geom_bond_site_symmetry_2
Nb0 Rh0 2.741608 1_555
Nb0 Rh0 2.741608 1_554
Nb0 Rh2 2.741611 1_554
Nb0 Rh2 2.741611 1_555
Nb0 Rh1 2.741611 1_554
Nb0 Rh1 2.741611 1_555
Nb0 Rh5 2.761957 1_655
Nb0 Rh4 2.761957 1_545
Nb0 Rh3 2.761960 1_545
Nb0 Rh3 2.761960 1_655
Nb0 Rh5 2.761963 1_555
Nb0 Rh4 2.761963 1_555
Nb1 Rh3 2.741608 1_556
Nb1 Rh3 2.741608 1_555
Nb1 Rh4 2.741611 1_555
Nb1 Rh5 2.741611 1_555
Nb1 Rh5 2.741611 1_556
Nb1 Rh4 2.741611 1_556
Nb1 Rh2 2.761957 1_455
Nb1 Rh1 2.761957 1_565
Nb1 Rh0 2.761960 1_455
Nb1 Rh0 2.761960 1_565
Nb1 Rh1 2.761963 1_555
Nb1 Rh2 2.761963 1_555
Rh0 Rh5 2.708477 1_656
Rh0 Rh5 2.708477 1_655
Rh0 Rh4 2.708477 1_545
Rh0 Rh4 2.708477 1_546
Rh0 Rh1 2.712777 1_655
Rh0 Rh2 2.712777 1_545
Rh0 Rh2 2.810853 1_555
Rh0 Rh1 2.810853 1_555
Rh1 Rh3 2.708477 1_546
Rh1 Rh3 2.708477 1_545
Rh1 Rh5 2.708477 1_555
Rh1 Rh5 2.708477 1_556
Rh1 Rh2 2.712777 1_445
Rh1 Rh2 2.810853 1_555
Rh2 Rh3 2.708477 1_655
Rh2 Rh3 2.708477 1_656
Rh2 Rh4 2.708477 1_556
Rh2 Rh4 2.708477 1_555
Rh3 Rh5 2.712777 1_565
Rh3 Rh4 2.712777 1_455
Rh3 Rh4 2.810853 1_555
Rh3 Rh5 2.810853 1_555
Rh4 Rh5 2.712777 1_665
Rh4 Rh5 2.810853 1_555
