# generated using pymatgen
data_Cs2AlHgBr6
_symmetry_space_group_name_H-M   'P 1'
_cell_length_a   7.91777161
_cell_length_b   7.91777161
_cell_length_c   7.91777161
_cell_angle_alpha   60.00000000
_cell_angle_beta   60.00000000
_cell_angle_gamma   60.00000000
_symmetry_Int_Tables_number   1
_chemical_formula_structural   Cs2AlHgBr6
_chemical_formula_sum   'Cs2 Al1 Hg1 Br6'
_cell_volume   350.98932951
_cell_formula_units_Z   1
loop_
 _symmetry_equiv_pos_site_id
 _symmetry_equiv_pos_as_xyz
  1  'x, y, z'
loop_
 _atom_site_type_symbol
 _atom_site_label
 _atom_site_symmetry_multiplicity
 _atom_site_fract_x
 _atom_site_fract_y
 _atom_site_fract_z
 _atom_site_occupancy
  Cs  Cs0  1  0.75000000  0.75000000  0.75000000  1
  Cs  Cs1  1  0.25000000  0.25000000  0.25000000  1
  Al  Al0  1  0.00000000  0.00000000  0.00000000  1
  Hg  Hg0  1  0.50000000  0.50000000  0.50000000  1
  Br  Br0  1  0.77161000  0.22839000  0.22839000  1
  Br  Br1  1  0.22839000  0.22839000  0.77161000  1
  Br  Br2  1  0.22839000  0.77161000  0.77161000  1
  Br  Br3  1  0.22839000  0.77161000  0.22839000  1
  Br  Br4  1  0.77161000  0.22839000  0.77161000  1
  Br  Br5  1  0.77161000  0.77161000  0.22839000  1
loop_
_geom_bond_atom_site_label_1
_geom_bond_atom_site_label_2
_geom_bond_distance
_geom_bond_site_symmetry_2
Al0 Br5 2.557379 1_445
Al0 Br2 2.557379 1_544
Al0 Br4 2.557379 1_454
Al0 Br3 2.557379 1_545
Al0 Br1 2.557379 1_554
Al0 Br0 2.557379 1_455
Br0 Hg0 3.041331 1_555
Br0 Cs1 3.966274 1_555
Br0 Cs1 3.966274 1_655
Br0 Cs0 3.966274 1_554
Br0 Cs0 3.966274 1_545
Br1 Hg0 3.041331 1_555
Br1 Cs0 3.966274 1_545
Br1 Cs1 3.966274 1_555
Br1 Cs1 3.966274 1_556
Br1 Cs0 3.966274 1_455
Br2 Hg0 3.041331 1_555
Br2 Cs0 3.966274 1_455
Br2 Cs1 3.966274 1_556
Br2 Cs0 3.966274 1_555
Br2 Cs1 3.966274 1_565
Br3 Hg0 3.041331 1_555
Br3 Cs1 3.966274 1_555
Br3 Cs0 3.966274 1_554
Br3 Cs1 3.966274 1_565
Br3 Cs0 3.966274 1_455
Br4 Hg0 3.041331 1_555
Br4 Cs0 3.966274 1_555
Br4 Cs0 3.966274 1_545
Br4 Cs1 3.966274 1_556
Br4 Cs1 3.966274 1_655
Br5 Hg0 3.041331 1_555
Br5 Cs0 3.966274 1_555
Br5 Cs0 3.966274 1_554
Br5 Cs1 3.966274 1_565
Br5 Cs1 3.966274 1_655
