# generated using pymatgen
data_Rb2FeO4
_symmetry_space_group_name_H-M   'P 1'
_cell_length_a   7.98602705
_cell_length_b   5.99860527
_cell_length_c   10.61574516
_cell_angle_alpha   90.00000000
_cell_angle_beta   90.00000000
_cell_angle_gamma   90.00000000
_symmetry_Int_Tables_number   1
_chemical_formula_structural   Rb2FeO4
_chemical_formula_sum   'Rb8 Fe4 O16'
_cell_volume   508.54752612
_cell_formula_units_Z   4
loop_
 _symmetry_equiv_pos_site_id
 _symmetry_equiv_pos_as_xyz
  1  'x, y, z'
loop_
 _atom_site_type_symbol
 _atom_site_label
 _atom_site_symmetry_multiplicity
 _atom_site_fract_x
 _atom_site_fract_y
 _atom_site_fract_z
 _atom_site_occupancy
  Rb  Rb0  1  0.01489693  0.75000000  0.19543973  1
  Rb  Rb1  1  0.16310240  0.25000000  0.40957084  1
  Rb  Rb2  1  0.33689760  0.75000000  0.90957084  1
  Rb  Rb3  1  0.48510307  0.25000000  0.69543973  1
  Rb  Rb4  1  0.51489693  0.75000000  0.30456027  1
  Rb  Rb5  1  0.66310240  0.25000000  0.09042916  1
  Rb  Rb6  1  0.83689760  0.75000000  0.59042916  1
  Rb  Rb7  1  0.98510307  0.25000000  0.80456027  1
  Fe  Fe0  1  0.23329732  0.25000000  0.07965295  1
  Fe  Fe1  1  0.26670268  0.75000000  0.57965295  1
  Fe  Fe2  1  0.73329732  0.25000000  0.42034705  1
  Fe  Fe3  1  0.76670268  0.75000000  0.92034705  1
  O  O0  1  0.02820713  0.25000000  0.08625195  1
  O  O1  1  0.19211404  0.52638891  0.64973355  1
  O  O2  1  0.19211404  0.97361109  0.64973355  1
  O  O3  1  0.20090008  0.75000000  0.43231978  1
  O  O4  1  0.29909992  0.25000000  0.93231978  1
  O  O5  1  0.30788596  0.02638891  0.14973355  1
  O  O6  1  0.30788596  0.47361109  0.14973355  1
  O  O7  1  0.47179287  0.75000000  0.58625195  1
  O  O8  1  0.52820713  0.25000000  0.41374805  1
  O  O9  1  0.69211404  0.52638891  0.85026645  1
  O  O10  1  0.69211404  0.97361109  0.85026645  1
  O  O11  1  0.70090008  0.75000000  0.06768022  1
  O  O12  1  0.79909992  0.25000000  0.56768022  1
  O  O13  1  0.80788596  0.02638891  0.35026645  1
  O  O14  1  0.80788596  0.47361109  0.35026645  1
  O  O15  1  0.97179287  0.75000000  0.91374805  1
loop_
_geom_bond_atom_site_label_1
_geom_bond_atom_site_label_2
_geom_bond_distance
_geom_bond_site_symmetry_2
Fe0 O0 1.639353 1_555
Fe0 O6 1.645456 1_555
Fe0 O5 1.645456 1_555
Fe0 O4 1.649972 1_554
Fe1 O7 1.639353 1_555
Fe1 O1 1.645456 1_555
Fe1 O2 1.645456 1_555
Fe1 O3 1.649972 1_555
Fe2 O8 1.639353 1_555
Fe2 O14 1.645456 1_555
Fe2 O13 1.645456 1_555
Fe2 O12 1.649972 1_555
Fe3 O15 1.639353 1_555
Fe3 O9 1.645456 1_555
Fe3 O10 1.645456 1_555
Fe3 O11 1.649972 1_556
O0 Rb5 2.916073 1_455
O0 Rb7 3.010115 1_454
O0 Rb0 3.217243 1_555
O0 Rb0 3.217243 1_545
O1 Rb7 2.860642 1_455
O1 Rb3 2.908430 1_555
O1 Rb1 3.049992 1_555
O1 Rb6 3.200442 1_455
O1 Rb2 3.277914 1_555
O2 Rb7 2.860642 1_465
O2 Rb3 2.908430 1_565
O2 Rb1 3.049992 1_565
O2 Rb6 3.200442 1_455
O2 Rb2 3.277914 1_555
O3 Rb4 2.850867 1_555
O3 Rb0 2.920616 1_555
O3 Rb1 3.024112 1_555
O3 Rb1 3.024112 1_565
O3 Rb6 3.356703 1_455
O4 Rb7 2.850867 1_455
O4 Rb3 2.920616 1_555
O4 Rb2 3.024112 1_545
O4 Rb2 3.024112 1_555
O4 Rb5 3.356703 1_556
O5 Rb4 2.860642 1_545
O5 Rb0 2.908430 1_545
O5 Rb2 3.049992 1_544
O5 Rb5 3.200442 1_555
O5 Rb1 3.277914 1_555
O6 Rb4 2.860642 1_555
O6 Rb0 2.908430 1_555
O6 Rb2 3.049992 1_554
O6 Rb5 3.200442 1_555
O6 Rb1 3.277914 1_555
O7 Rb6 2.916073 1_555
O7 Rb4 3.010115 1_555
O7 Rb3 3.217243 1_565
O7 Rb3 3.217243 1_555
O8 Rb1 2.916073 1_555
O8 Rb3 3.010115 1_555
O8 Rb4 3.217243 1_555
O8 Rb4 3.217243 1_545
O9 Rb3 2.860642 1_555
O9 Rb7 2.908430 1_555
O9 Rb5 3.049992 1_556
O9 Rb2 3.200442 1_555
O9 Rb6 3.277914 1_555
O10 Rb3 2.860642 1_565
O10 Rb7 2.908430 1_565
O10 Rb5 3.049992 1_566
O10 Rb2 3.200442 1_555
O10 Rb6 3.277914 1_555
O11 Rb0 2.850867 1_655
O11 Rb4 2.920616 1_555
O11 Rb5 3.024112 1_555
O11 Rb5 3.024112 1_565
O11 Rb2 3.356703 1_554
O12 Rb3 2.850867 1_555
O12 Rb7 2.920616 1_555
O12 Rb6 3.024112 1_555
O12 Rb6 3.024112 1_545
O12 Rb1 3.356703 1_655
O13 Rb0 2.860642 1_645
O13 Rb4 2.908430 1_545
O13 Rb6 3.049992 1_545
O13 Rb1 3.200442 1_655
O13 Rb5 3.277914 1_555
O14 Rb0 2.860642 1_655
O14 Rb4 2.908430 1_555
O14 Rb6 3.049992 1_555
O14 Rb1 3.200442 1_655
O14 Rb5 3.277914 1_555
O15 Rb2 2.916073 1_655
O15 Rb0 3.010115 1_656
O15 Rb7 3.217243 1_555
O15 Rb7 3.217243 1_565
