# generated using pymatgen
data_Ho3Al5O12
_symmetry_space_group_name_H-M   'P 1'
_cell_length_a   10.46095295
_cell_length_b   10.46095295
_cell_length_c   10.46095295
_cell_angle_alpha   109.47122063
_cell_angle_beta   109.47122063
_cell_angle_gamma   109.47122063
_symmetry_Int_Tables_number   1
_chemical_formula_structural   Ho3Al5O12
_chemical_formula_sum   'Ho12 Al20 O48'
_cell_volume   881.23523852
_cell_formula_units_Z   4
loop_
 _symmetry_equiv_pos_site_id
 _symmetry_equiv_pos_as_xyz
  1  'x, y, z'
loop_
 _atom_site_type_symbol
 _atom_site_label
 _atom_site_symmetry_multiplicity
 _atom_site_fract_x
 _atom_site_fract_y
 _atom_site_fract_z
 _atom_site_occupancy
  Ho  Ho0  1  0.87500000  0.62500000  0.25000000  1
  Ho  Ho1  1  0.62500000  0.25000000  0.87500000  1
  Ho  Ho2  1  0.87500000  0.75000000  0.62500000  1
  Ho  Ho3  1  0.75000000  0.62500000  0.87500000  1
  Ho  Ho4  1  0.25000000  0.87500000  0.62500000  1
  Ho  Ho5  1  0.62500000  0.87500000  0.75000000  1
  Ho  Ho6  1  0.12500000  0.37500000  0.75000000  1
  Ho  Ho7  1  0.37500000  0.75000000  0.12500000  1
  Ho  Ho8  1  0.12500000  0.25000000  0.37500000  1
  Ho  Ho9  1  0.25000000  0.37500000  0.12500000  1
  Ho  Ho10  1  0.75000000  0.12500000  0.37500000  1
  Ho  Ho11  1  0.37500000  0.12500000  0.25000000  1
  Al  Al0  1  0.12500000  0.87500000  0.25000000  1
  Al  Al1  1  0.87500000  0.12500000  0.75000000  1
  Al  Al2  1  0.25000000  0.62500000  0.37500000  1
  Al  Al3  1  0.37500000  0.25000000  0.62500000  1
  Al  Al4  1  0.75000000  0.87500000  0.12500000  1
  Al  Al5  1  0.12500000  0.75000000  0.87500000  1
  Al  Al6  1  0.37500000  0.62500000  0.75000000  1
  Al  Al7  1  0.62500000  0.75000000  0.37500000  1
  Al  Al8  1  0.87500000  0.25000000  0.12500000  1
  Al  Al9  1  0.25000000  0.12500000  0.87500000  1
  Al  Al10  1  0.75000000  0.37500000  0.62500000  1
  Al  Al11  1  0.62500000  0.37500000  0.25000000  1
  Al  Al12  1  0.50000000  0.50000000  0.50000000  1
  Al  Al13  1  0.50000000  0.00000000  0.50000000  1
  Al  Al14  1  0.00000000  0.50000000  0.50000000  1
  Al  Al15  1  0.50000000  0.50000000  0.00000000  1
  Al  Al16  1  0.00000000  0.00000000  0.50000000  1
  Al  Al17  1  0.00000000  0.50000000  0.00000000  1
  Al  Al18  1  0.50000000  0.00000000  0.00000000  1
  Al  Al19  1  0.00000000  0.00000000  0.00000000  1
  O  O0  1  0.67930500  0.09827000  0.97908900  1
  O  O1  1  0.79978500  0.41896500  0.82069500  1
  O  O2  1  0.08103500  0.88081900  0.40173000  1
  O  O3  1  0.61918100  0.70021500  0.52091100  1
  O  O4  1  0.40173000  0.82069500  0.52091100  1
  O  O5  1  0.70021500  0.52091100  0.61918100  1
  O  O6  1  0.70021500  0.67930500  0.08103500  1
  O  O7  1  0.52091100  0.61918100  0.70021500  1
  O  O8  1  0.09827000  0.61918100  0.41896500  1
  O  O9  1  0.88081900  0.97908900  0.79978500  1
  O  O10  1  0.97908900  0.79978500  0.88081900  1
  O  O11  1  0.52091100  0.40173000  0.82069500  1
  O  O12  1  0.67930500  0.08103500  0.70021500  1
  O  O13  1  0.41896500  0.09827000  0.61918100  1
  O  O14  1  0.82069500  0.52091100  0.40173000  1
  O  O15  1  0.08103500  0.70021500  0.67930500  1
  O  O16  1  0.61918100  0.41896500  0.09827000  1
  O  O17  1  0.82069500  0.79978500  0.41896500  1
  O  O18  1  0.88081900  0.40173000  0.08103500  1
  O  O19  1  0.90173000  0.38081900  0.58103500  1
  O  O20  1  0.40173000  0.08103500  0.88081900  1
  O  O21  1  0.97908900  0.67930500  0.09827000  1
  O  O22  1  0.41896500  0.82069500  0.79978500  1
  O  O23  1  0.79978500  0.88081900  0.97908900  1
  O  O24  1  0.32069500  0.90173000  0.02091100  1
  O  O25  1  0.20021500  0.58103500  0.17930500  1
  O  O26  1  0.91896500  0.11918100  0.59827000  1
  O  O27  1  0.38081900  0.29978500  0.47908900  1
  O  O28  1  0.59827000  0.17930500  0.47908900  1
  O  O29  1  0.29978500  0.47908900  0.38081900  1
  O  O30  1  0.29978500  0.32069500  0.91896500  1
  O  O31  1  0.47908900  0.38081900  0.29978500  1
  O  O32  1  0.20021500  0.11918100  0.02091100  1
  O  O33  1  0.58103500  0.17930500  0.20021500  1
  O  O34  1  0.02091100  0.32069500  0.90173000  1
  O  O35  1  0.90173000  0.02091100  0.32069500  1
  O  O36  1  0.59827000  0.91896500  0.11918100  1
  O  O37  1  0.11918100  0.59827000  0.91896500  1
  O  O38  1  0.17930500  0.20021500  0.58103500  1
  O  O39  1  0.38081900  0.58103500  0.90173000  1
  O  O40  1  0.91896500  0.29978500  0.32069500  1
  O  O41  1  0.17930500  0.47908900  0.59827000  1
  O  O42  1  0.58103500  0.90173000  0.38081900  1
  O  O43  1  0.32069500  0.91896500  0.29978500  1
  O  O44  1  0.47908900  0.59827000  0.17930500  1
  O  O45  1  0.02091100  0.20021500  0.11918100  1
  O  O46  1  0.11918100  0.02091100  0.20021500  1
  O  O47  1  0.09827000  0.97908900  0.67930500  1
loop_
_geom_bond_atom_site_label_1
_geom_bond_atom_site_label_2
_geom_bond_distance
_geom_bond_site_symmetry_2
Ho0 O2 2.317030 1_655
Ho0 O21 2.317030 1_555
Ho0 O16 2.317030 1_555
Ho0 O14 2.317030 1_555
Ho0 O18 2.448941 1_555
Ho0 O8 2.448941 1_655
Ho0 O6 2.448948 1_555
Ho0 O17 2.448948 1_555
Ho1 O18 2.317030 1_556
Ho1 O0 2.317030 1_555
Ho1 O11 2.317030 1_555
Ho1 O13 2.317030 1_555
Ho1 O20 2.448941 1_555
Ho1 O16 2.448941 1_556
Ho1 O12 2.448948 1_555
Ho1 O1 2.448948 1_555
Ho2 O10 2.317027 1_555
Ho2 O3 2.317027 1_555
Ho2 O17 2.317037 1_555
Ho2 O15 2.317037 1_655
Ho2 O14 2.448941 1_555
Ho2 O47 2.448941 1_655
Ho2 O5 2.448946 1_555
Ho2 O9 2.448946 1_555
Ho3 O23 2.317027 1_555
Ho3 O5 2.317027 1_555
Ho3 O1 2.317037 1_555
Ho3 O6 2.317037 1_556
Ho3 O11 2.448941 1_555
Ho3 O21 2.448941 1_556
Ho3 O7 2.448946 1_555
Ho3 O10 2.448946 1_555
Ho4 O20 2.317030 1_565
Ho4 O47 2.317030 1_555
Ho4 O4 2.317030 1_555
Ho4 O8 2.317030 1_555
Ho4 O2 2.448941 1_555
Ho4 O13 2.448941 1_565
Ho4 O15 2.448948 1_555
Ho4 O22 2.448948 1_555
Ho5 O9 2.317027 1_555
Ho5 O7 2.317027 1_555
Ho5 O22 2.317037 1_555
Ho5 O12 2.317037 1_565
Ho5 O4 2.448941 1_555
Ho5 O0 2.448941 1_565
Ho5 O3 2.448946 1_555
Ho5 O23 2.448946 1_555
Ho6 O39 2.317030 1_555
Ho6 O41 2.317030 1_555
Ho6 O34 2.317030 1_555
Ho6 O26 2.317030 1_455
Ho6 O19 2.448941 1_455
Ho6 O37 2.448941 1_555
Ho6 O30 2.448948 1_555
Ho6 O38 2.448948 1_555
Ho7 O42 2.317030 1_555
Ho7 O44 2.317030 1_555
Ho7 O24 2.317030 1_555
Ho7 O37 2.317030 1_554
Ho7 O39 2.448941 1_554
Ho7 O36 2.448941 1_555
Ho7 O43 2.448948 1_555
Ho7 O25 2.448948 1_555
Ho8 O27 2.317027 1_555
Ho8 O45 2.317027 1_555
Ho8 O38 2.317037 1_555
Ho8 O40 2.317037 1_455
Ho8 O35 2.448941 1_455
Ho8 O41 2.448941 1_555
Ho8 O46 2.448946 1_555
Ho8 O29 2.448946 1_555
Ho9 O29 2.317027 1_555
Ho9 O32 2.317027 1_555
Ho9 O25 2.317037 1_555
Ho9 O30 2.317037 1_554
Ho9 O34 2.448941 1_554
Ho9 O44 2.448941 1_555
Ho9 O45 2.448946 1_555
Ho9 O31 2.448946 1_555
Ho10 O19 2.317030 1_555
Ho10 O28 2.317030 1_555
Ho10 O35 2.317030 1_555
Ho10 O36 2.317030 1_545
Ho10 O42 2.448941 1_545
Ho10 O26 2.448941 1_555
Ho10 O40 2.448948 1_555
Ho10 O33 2.448948 1_555
Ho11 O31 2.317027 1_555
Ho11 O46 2.317027 1_555
Ho11 O33 2.317037 1_555
Ho11 O43 2.317037 1_545
Ho11 O24 2.448941 1_545
Ho11 O28 2.448941 1_555
Ho11 O32 2.448946 1_555
Ho11 O27 2.448946 1_555
Al0 O43 1.781985 1_555
Al0 O2 1.781987 1_555
Al0 O21 1.781987 1_455
Al0 O46 1.781992 1_565
Al1 O12 1.781985 1_555
Al1 O26 1.781987 1_555
Al1 O34 1.781987 1_655
Al1 O9 1.781992 1_545
Al2 O25 1.781985 1_555
Al2 O8 1.781987 1_555
Al2 O4 1.781987 1_555
Al2 O29 1.781992 1_555
Al3 O38 1.781985 1_555
Al3 O11 1.781987 1_555
Al3 O13 1.781987 1_555
Al3 O27 1.781992 1_555
Al4 O6 1.781985 1_555
Al4 O36 1.781987 1_555
Al4 O35 1.781987 1_565
Al4 O23 1.781992 1_554
Al5 O15 1.781985 1_555
Al5 O37 1.781987 1_555
Al5 O24 1.781987 1_556
Al5 O10 1.781992 1_455
Al6 O22 1.781985 1_555
Al6 O41 1.781987 1_555
Al6 O39 1.781987 1_555
Al6 O7 1.781992 1_555
Al7 O17 1.781985 1_555
Al7 O44 1.781987 1_555
Al7 O42 1.781987 1_555
Al7 O3 1.781992 1_555
Al8 O40 1.781985 1_555
Al8 O18 1.781987 1_555
Al8 O0 1.781987 1_554
Al8 O45 1.781992 1_655
Al9 O30 1.781985 1_555
Al9 O20 1.781987 1_555
Al9 O47 1.781987 1_545
Al9 O32 1.781992 1_556
Al10 O1 1.781985 1_555
Al10 O28 1.781987 1_555
Al10 O19 1.781987 1_555
Al10 O5 1.781992 1_555
Al11 O33 1.781985 1_555
Al11 O16 1.781987 1_555
Al11 O14 1.781987 1_555
Al11 O31 1.781992 1_555
Al12 O5 1.939286 1_555
Al12 O3 1.939286 1_555
Al12 O7 1.939286 1_555
Al12 O29 1.939286 1_555
Al12 O27 1.939286 1_555
Al12 O31 1.939286 1_555
Al13 O12 1.939288 1_555
Al13 O43 1.939288 1_545
Al13 O28 1.939294 1_555
Al13 O13 1.939294 1_555
Al13 O4 1.939294 1_545
Al13 O42 1.939294 1_545
Al14 O15 1.939288 1_555
Al14 O40 1.939288 1_455
Al14 O8 1.939294 1_555
Al14 O41 1.939294 1_555
Al14 O14 1.939294 1_455
Al14 O19 1.939294 1_455
Al15 O6 1.939288 1_555
Al15 O30 1.939288 1_554
Al15 O16 1.939294 1_555
Al15 O44 1.939294 1_555
Al15 O11 1.939294 1_554
Al15 O39 1.939294 1_554
Al16 O38 1.939288 1_555
Al16 O17 1.939288 1_445
Al16 O47 1.939294 1_545
Al16 O35 1.939294 1_455
Al16 O2 1.939294 1_545
Al16 O26 1.939294 1_455
Al17 O25 1.939288 1_555
Al17 O1 1.939288 1_454
Al17 O21 1.939294 1_455
Al17 O34 1.939294 1_554
Al17 O18 1.939294 1_455
Al17 O37 1.939294 1_554
Al18 O33 1.939288 1_555
Al18 O22 1.939288 1_544
Al18 O0 1.939294 1_554
Al18 O24 1.939294 1_545
Al18 O20 1.939294 1_554
Al18 O36 1.939294 1_545
Al19 O45 1.939286 1_555
Al19 O46 1.939286 1_555
Al19 O32 1.939286 1_555
Al19 O10 1.939286 1_444
Al19 O9 1.939286 1_444
Al19 O23 1.939286 1_444
