# generated using pymatgen
data_Er(CrGe)6
_symmetry_space_group_name_H-M   'P 1'
_cell_length_a   5.10146100
_cell_length_b   5.10146140
_cell_length_c   8.30576300
_cell_angle_alpha   90.00000000
_cell_angle_beta   90.00000000
_cell_angle_gamma   120.00000387
_symmetry_Int_Tables_number   1
_chemical_formula_structural   Er(CrGe)6
_chemical_formula_sum   'Er1 Cr6 Ge6'
_cell_volume   187.19719010
_cell_formula_units_Z   1
loop_
 _symmetry_equiv_pos_site_id
 _symmetry_equiv_pos_as_xyz
  1  'x, y, z'
loop_
 _atom_site_type_symbol
 _atom_site_label
 _atom_site_symmetry_multiplicity
 _atom_site_fract_x
 _atom_site_fract_y
 _atom_site_fract_z
 _atom_site_occupancy
  Er  Er0  1  0.00000000  0.00000000  0.00000000  1
  Cr  Cr0  1  0.50000000  0.50000000  0.74974700  1
  Cr  Cr1  1  0.50000000  0.00000000  0.74974700  1
  Cr  Cr2  1  0.00000000  0.50000000  0.74974700  1
  Cr  Cr3  1  0.50000000  0.50000000  0.25025300  1
  Cr  Cr4  1  0.50000000  0.00000000  0.25025300  1
  Cr  Cr5  1  0.00000000  0.50000000  0.25025300  1
  Ge  Ge0  1  0.66666700  0.33333300  0.00000000  1
  Ge  Ge1  1  0.33333300  0.66666700  0.00000000  1
  Ge  Ge2  1  0.66666700  0.33333300  0.50000000  1
  Ge  Ge3  1  0.33333300  0.66666700  0.50000000  1
  Ge  Ge4  1  0.00000000  0.00000000  0.65456600  1
  Ge  Ge5  1  0.00000000  0.00000000  0.34543400  1
loop_
_geom_bond_atom_site_label_1
_geom_bond_atom_site_label_2
_geom_bond_distance
_geom_bond_site_symmetry_2
Er0 Ge5 2.869093 1_555
Er0 Ge4 2.869093 1_554
Er0 Ge1 2.945327 1_545
Er0 Ge0 2.945327 1_455
Er0 Ge0 2.945331 1_555
Er0 Ge1 2.945331 1_445
Er0 Ge0 2.945331 1_445
Er0 Ge1 2.945331 1_555
Cr0 Ge3 2.543941 1_555
Cr0 Ge2 2.543941 1_555
Cr0 Ge0 2.547369 1_556
Cr0 Ge1 2.547369 1_556
Cr0 Ge4 2.670430 1_555
Cr0 Ge4 2.670430 1_665
Cr1 Ge2 2.543938 1_555
Cr1 Ge3 2.543938 1_545
Cr1 Ge0 2.547366 1_556
Cr1 Ge1 2.547366 1_546
Cr1 Ge4 2.670430 1_555
Cr1 Ge4 2.670430 1_655
Cr2 Ge2 2.543938 1_455
Cr2 Ge3 2.543938 1_555
Cr2 Ge0 2.547366 1_456
Cr2 Ge1 2.547366 1_556
Cr2 Ge4 2.670430 1_555
Cr2 Ge4 2.670430 1_565
Cr3 Ge2 2.543941 1_555
Cr3 Ge3 2.543941 1_555
Cr3 Ge1 2.547369 1_555
Cr3 Ge0 2.547369 1_555
Cr3 Ge5 2.670430 1_665
Cr3 Ge5 2.670430 1_555
Cr4 Ge2 2.543938 1_555
Cr4 Ge3 2.543938 1_545
Cr4 Ge0 2.547366 1_555
Cr4 Ge1 2.547366 1_545
Cr4 Ge5 2.670430 1_555
Cr4 Ge5 2.670430 1_655
Cr5 Ge3 2.543938 1_555
Cr5 Ge2 2.543938 1_455
Cr5 Ge0 2.547366 1_455
Cr5 Ge1 2.547366 1_555
Cr5 Ge5 2.670430 1_555
Cr5 Ge5 2.670430 1_565
Ge4 Ge5 2.567577 1_555
