# generated using pymatgen
data_K2Ca3Si3O10
_symmetry_space_group_name_H-M   'P 1'
_cell_length_a   7.49887404
_cell_length_b   7.49887404
_cell_length_c   9.92870343
_cell_angle_alpha   71.04156887
_cell_angle_beta   71.04156887
_cell_angle_gamma   91.68197773
_symmetry_Int_Tables_number   1
_chemical_formula_structural   K2Ca3Si3O10
_chemical_formula_sum   'K4 Ca6 Si6 O20'
_cell_volume   493.67958795
_cell_formula_units_Z   2
loop_
 _symmetry_equiv_pos_site_id
 _symmetry_equiv_pos_as_xyz
  1  'x, y, z'
loop_
 _atom_site_type_symbol
 _atom_site_label
 _atom_site_symmetry_multiplicity
 _atom_site_fract_x
 _atom_site_fract_y
 _atom_site_fract_z
 _atom_site_occupancy
  K  K0  1  0.23073300  0.47354900  0.51102300  1
  K  K1  1  0.52645100  0.76926700  0.98897700  1
  K  K2  1  0.76926700  0.52645100  0.48897700  1
  K  K3  1  0.47354900  0.23073300  0.01102300  1
  Ca  Ca0  1  0.36968900  0.63031100  0.75000000  1
  Ca  Ca1  1  0.63031100  0.36968900  0.25000000  1
  Ca  Ca2  1  0.22170400  0.98390900  0.52208200  1
  Ca  Ca3  1  0.01609100  0.77829600  0.97791800  1
  Ca  Ca4  1  0.77829600  0.01609100  0.47791800  1
  Ca  Ca5  1  0.98390900  0.22170400  0.02208200  1
  Si  Si0  1  0.57590800  0.85247500  0.29244700  1
  Si  Si1  1  0.14752500  0.42409200  0.20755300  1
  Si  Si2  1  0.42409200  0.14752500  0.70755300  1
  Si  Si3  1  0.85247500  0.57590800  0.79244700  1
  Si  Si4  1  0.15930200  0.84069800  0.25000000  1
  Si  Si5  1  0.84069800  0.15930200  0.75000000  1
  O  O0  1  0.68968500  0.68018900  0.73335500  1
  O  O1  1  0.31981100  0.31031500  0.76664500  1
  O  O2  1  0.31031500  0.31981100  0.26664500  1
  O  O3  1  0.68018900  0.68968500  0.23335500  1
  O  O4  1  0.11985800  0.61497000  0.26304600  1
  O  O5  1  0.38503000  0.88014200  0.23695400  1
  O  O6  1  0.88014200  0.38503000  0.73695400  1
  O  O7  1  0.61497000  0.11985800  0.76304600  1
  O  O8  1  0.49371900  0.78708200  0.48090500  1
  O  O9  1  0.21291800  0.50628100  0.01909500  1
  O  O10  1  0.50628100  0.21291800  0.51909500  1
  O  O11  1  0.78708200  0.49371900  0.98090500  1
  O  O12  1  0.06615600  0.69624100  0.72709900  1
  O  O13  1  0.30375900  0.93384400  0.77290100  1
  O  O14  1  0.93384400  0.30375900  0.27290100  1
  O  O15  1  0.69624100  0.06615600  0.22709900  1
  O  O16  1  0.13944800  0.97177000  0.09236900  1
  O  O17  1  0.02823000  0.86055200  0.40763100  1
  O  O18  1  0.86055200  0.02823000  0.90763100  1
  O  O19  1  0.97177000  0.13944800  0.59236900  1
loop_
_geom_bond_atom_site_label_1
_geom_bond_atom_site_label_2
_geom_bond_distance
_geom_bond_site_symmetry_2
K0 O6 2.735415 1_455
K0 O1 2.741702 1_555
K0 O4 2.750118 1_555
K0 O19 2.842681 1_455
K0 O10 2.887689 1_555
K0 O8 2.897288 1_555
K0 O2 2.913680 1_555
K0 O12 3.105290 1_555
K0 O5 3.224274 1_555
K0 O17 3.334329 1_555
K1 O7 2.735415 1_565
K1 O0 2.741702 1_555
K1 O5 2.750118 1_556
K1 O18 2.842681 1_565
K1 O11 2.887689 1_555
K1 O9 2.897288 1_556
K1 O3 2.913680 1_556
K1 O13 3.105290 1_555
K1 O4 3.224274 1_556
K1 O16 3.334329 1_556
K2 O4 2.735415 1_655
K2 O3 2.741702 1_555
K2 O6 2.750118 1_555
K2 O17 2.842681 1_655
K2 O8 2.887689 1_555
K2 O10 2.897288 1_555
K2 O0 2.913680 1_555
K2 O14 3.105290 1_555
K2 O7 3.224274 1_555
K2 O19 3.334329 1_555
K3 O5 2.735415 1_545
K3 O2 2.741702 1_555
K3 O7 2.750118 1_554
K3 O16 2.842681 1_545
K3 O9 2.887689 1_555
K3 O11 2.897288 1_554
K3 O1 2.913680 1_554
K3 O15 3.105290 1_555
K3 O6 3.224274 1_554
K3 O18 3.334329 1_554
Ca0 O0 2.361103 1_555
Ca0 O1 2.361103 1_555
Ca0 O9 2.380280 1_556
Ca0 O8 2.380280 1_555
Ca0 O13 2.409630 1_555
Ca0 O12 2.409630 1_555
Ca1 O3 2.361103 1_555
Ca1 O2 2.361103 1_555
Ca1 O10 2.380280 1_555
Ca1 O11 2.380280 1_554
Ca1 O14 2.409630 1_555
Ca1 O15 2.409630 1_555
Ca2 O19 2.273211 1_465
Ca2 O12 2.369360 1_555
Ca2 O17 2.434621 1_555
Ca2 O8 2.556059 1_555
Ca2 O13 2.668881 1_555
Ca2 O10 2.686014 1_565
Ca2 O2 2.806115 1_565
Ca3 O18 2.273211 1_465
Ca3 O13 2.369360 1_555
Ca3 O16 2.434621 1_556
Ca3 O9 2.556059 1_556
Ca3 O12 2.668881 1_555
Ca3 O11 2.686014 1_455
Ca3 O3 2.806115 1_456
Ca4 O17 2.273211 1_645
Ca4 O14 2.369360 1_555
Ca4 O19 2.434621 1_555
Ca4 O10 2.556059 1_555
Ca4 O15 2.668881 1_555
Ca4 O8 2.686014 1_545
Ca4 O0 2.806115 1_545
Ca5 O16 2.273211 1_645
Ca5 O15 2.369360 1_555
Ca5 O18 2.434621 1_554
Ca5 O11 2.556059 1_554
Ca5 O14 2.668881 1_555
Ca5 O9 2.686014 1_655
Ca5 O1 2.806115 1_654
O0 Si3 1.633782 1_555
O1 Si2 1.633782 1_555
O2 Si1 1.633782 1_555
O3 Si0 1.633782 1_555
O4 Si4 1.665163 1_555
O4 Si1 1.688499 1_555
O5 Si4 1.665163 1_555
O5 Si0 1.688499 1_555
O6 Si5 1.665163 1_555
O6 Si3 1.688499 1_555
O7 Si5 1.665163 1_555
O7 Si2 1.688499 1_555
O8 Si0 1.660793 1_555
O9 Si1 1.660793 1_555
O10 Si2 1.660793 1_555
O11 Si3 1.660793 1_555
O12 Si3 1.631558 1_455
O13 Si2 1.631558 1_565
O14 Si1 1.631558 1_655
O15 Si0 1.631558 1_545
O16 Si4 1.611879 1_555
O17 Si4 1.611879 1_555
O18 Si5 1.611879 1_555
O19 Si5 1.611879 1_555
