# generated using pymatgen
data_U2B6Mo
_symmetry_space_group_name_H-M   'P 1'
_cell_length_a   3.69632100
_cell_length_b   9.26424300
_cell_length_c   11.35156000
_cell_angle_alpha   90.00000000
_cell_angle_beta   90.00000000
_cell_angle_gamma   90.00000000
_symmetry_Int_Tables_number   1
_chemical_formula_structural   U2B6Mo
_chemical_formula_sum   'U8 B24 Mo4'
_cell_volume   388.71846107
_cell_formula_units_Z   4
loop_
 _symmetry_equiv_pos_site_id
 _symmetry_equiv_pos_as_xyz
  1  'x, y, z'
loop_
 _atom_site_type_symbol
 _atom_site_label
 _atom_site_symmetry_multiplicity
 _atom_site_fract_x
 _atom_site_fract_y
 _atom_site_fract_z
 _atom_site_occupancy
  U  U0  1  0.00000000  0.33481400  0.40773700  1
  U  U1  1  0.00000000  0.66518600  0.59226300  1
  U  U2  1  0.00000000  0.83481400  0.09226300  1
  U  U3  1  0.00000000  0.16518600  0.90773700  1
  U  U4  1  0.00000000  0.95587700  0.39444900  1
  U  U5  1  0.00000000  0.04412300  0.60555100  1
  U  U6  1  0.00000000  0.45587700  0.10555100  1
  U  U7  1  0.00000000  0.54412300  0.89444900  1
  B  B0  1  0.50000000  0.54948100  0.43325900  1
  B  B1  1  0.50000000  0.45051900  0.56674100  1
  B  B2  1  0.50000000  0.04948100  0.06674100  1
  B  B3  1  0.50000000  0.95051900  0.93325900  1
  B  B4  1  0.50000000  0.74281100  0.42421000  1
  B  B5  1  0.50000000  0.25718900  0.57579000  1
  B  B6  1  0.50000000  0.24281100  0.07579000  1
  B  B7  1  0.50000000  0.75718900  0.92421000  1
  B  B8  1  0.50000000  0.80303200  0.27264600  1
  B  B9  1  0.50000000  0.19696800  0.72735400  1
  B  B10  1  0.50000000  0.30303200  0.22735400  1
  B  B11  1  0.50000000  0.69696800  0.77264600  1
  B  B12  1  0.50000000  0.64400400  0.18725900  1
  B  B13  1  0.50000000  0.35599600  0.81274100  1
  B  B14  1  0.50000000  0.14400400  0.31274100  1
  B  B15  1  0.50000000  0.85599600  0.68725900  1
  B  B16  1  0.50000000  0.98486200  0.21838500  1
  B  B17  1  0.50000000  0.01513800  0.78161500  1
  B  B18  1  0.50000000  0.48486200  0.28161500  1
  B  B19  1  0.50000000  0.51513800  0.71838500  1
  B  B20  1  0.50000000  0.64191800  0.03920700  1
  B  B21  1  0.50000000  0.35808200  0.96079300  1
  B  B22  1  0.50000000  0.14191800  0.46079300  1
  B  B23  1  0.50000000  0.85808200  0.53920700  1
  Mo  Mo0  1  0.00000000  0.64443800  0.32009500  1
  Mo  Mo1  1  0.00000000  0.35556200  0.67990500  1
  Mo  Mo2  1  0.00000000  0.14443800  0.17990500  1
  Mo  Mo3  1  0.00000000  0.85556200  0.82009500  1
loop_
_geom_bond_atom_site_label_1
_geom_bond_atom_site_label_2
_geom_bond_distance
_geom_bond_site_symmetry_2
U4 U5 2.531954 1_565
U6 U7 2.531954 1_554
B0 B1 1.771004 1_555
B0 B4 1.793999 1_555
B0 B18 1.822521 1_555
B0 Mo0 2.416556 1_555
B0 Mo0 2.416556 1_655
B0 U0 2.730324 1_655
B0 U0 2.730324 1_555
B0 U1 2.796878 1_655
B0 U1 2.796878 1_555
B1 B5 1.793999 1_555
B1 B19 1.822521 1_555
B1 Mo1 2.416556 1_555
B1 Mo1 2.416556 1_655
B1 U1 2.730324 1_555
B1 U1 2.730324 1_655
B1 U0 2.796878 1_655
B1 U0 2.796878 1_555
B2 B3 1.771004 1_544
B2 B6 1.793999 1_555
B2 Mo2 2.416556 1_655
B2 Mo2 2.416556 1_555
B2 U2 2.730324 1_545
B2 U2 2.730324 1_645
B2 U3 2.796878 1_654
B2 U3 2.796878 1_554
B3 B7 1.793999 1_555
B3 Mo3 2.416556 1_655
B3 Mo3 2.416556 1_555
B3 U3 2.730324 1_565
B3 U3 2.730324 1_665
B3 U2 2.796878 1_656
B3 U2 2.796878 1_556
B4 B8 1.808683 1_555
B4 Mo0 2.375515 1_555
B4 Mo0 2.375515 1_655
B4 U4 2.725086 1_555
B4 U4 2.725086 1_655
B4 U1 2.751733 1_555
B4 U1 2.751733 1_655
B5 B9 1.808683 1_555
B5 Mo1 2.375515 1_555
B5 Mo1 2.375515 1_655
B5 U5 2.725086 1_555
B5 U5 2.725086 1_655
B5 U0 2.751733 1_555
B5 U0 2.751733 1_655
B6 Mo2 2.375515 1_655
B6 Mo2 2.375515 1_555
B6 U6 2.725086 1_655
B6 U6 2.725086 1_555
B6 U3 2.751733 1_554
B6 U3 2.751733 1_654
B7 Mo3 2.375515 1_655
B7 Mo3 2.375515 1_555
B7 U7 2.725086 1_555
B7 U7 2.725086 1_655
B7 U2 2.751733 1_656
B7 U2 2.751733 1_556
B8 Mo0 2.421676 1_555
B8 Mo0 2.421676 1_655
B8 U4 2.707853 1_655
B8 U4 2.707853 1_555
B8 U2 2.774017 1_555
B8 U2 2.774017 1_655
B9 Mo1 2.421676 1_555
B9 Mo1 2.421676 1_655
B9 U5 2.707853 1_555
B9 U5 2.707853 1_655
B9 U3 2.774017 1_655
B9 U3 2.774017 1_555
B10 B14 1.763528 1_555
B10 B18 1.793597 1_555
B10 B6 1.808683 1_555
B10 Mo2 2.421676 1_655
B10 Mo2 2.421676 1_555
B10 U6 2.707853 1_655
B10 U6 2.707853 1_555
B10 U0 2.774017 1_655
B10 U0 2.774017 1_555
B11 B15 1.763528 1_555
B11 B19 1.793597 1_555
B11 B7 1.808683 1_555
B11 Mo3 2.421676 1_655
B11 Mo3 2.421676 1_555
B11 U7 2.707853 1_555
B11 U7 2.707853 1_655
B11 U1 2.774017 1_555
B11 U1 2.774017 1_655
B12 B20 1.680732 1_555
B12 B8 1.763528 1_555
B12 B18 1.822328 1_555
B12 Mo0 2.385260 1_555
B12 Mo0 2.385260 1_655
B12 U6 2.704352 1_555
B12 U6 2.704352 1_655
B12 U2 2.775489 1_555
B12 U2 2.775489 1_655
B13 B21 1.680732 1_555
B13 B9 1.763528 1_555
B13 B19 1.822328 1_555
B13 Mo1 2.385260 1_555
B13 Mo1 2.385260 1_655
B13 U7 2.704352 1_555
B13 U7 2.704352 1_655
B13 U3 2.775489 1_555
B13 U3 2.775489 1_655
B14 B22 1.680732 1_555
B14 B16 1.822328 1_545
B14 Mo2 2.385260 1_655
B14 Mo2 2.385260 1_555
B14 U4 2.704352 1_545
B14 U4 2.704352 1_645
B14 U0 2.775489 1_555
B14 U0 2.775489 1_655
B15 B23 1.680732 1_555
B15 B17 1.822328 1_565
B15 Mo3 2.385260 1_655
B15 Mo3 2.385260 1_555
B15 U5 2.704352 1_565
B15 U5 2.704352 1_665
B15 U1 2.775489 1_655
B15 U1 2.775489 1_555
B16 B8 1.793597 1_555
B16 B2 1.822521 1_565
B16 Mo2 2.406662 1_565
B16 Mo2 2.406662 1_665
B16 U2 2.719878 1_555
B16 U2 2.719878 1_655
B16 U4 2.735363 1_555
B16 U4 2.735363 1_655
B17 B9 1.793597 1_555
B17 B3 1.822521 1_545
B17 Mo3 2.406662 1_645
B17 Mo3 2.406662 1_545
B17 U3 2.719878 1_555
B17 U3 2.719878 1_655
B17 U5 2.735363 1_655
B17 U5 2.735363 1_555
B18 Mo0 2.406662 1_655
B18 Mo0 2.406662 1_555
B18 U0 2.719878 1_555
B18 U0 2.719878 1_655
B18 U6 2.735363 1_555
B18 U6 2.735363 1_655
B19 Mo1 2.406662 1_555
B19 Mo1 2.406662 1_655
B19 U1 2.719878 1_555
B19 U1 2.719878 1_655
B19 U7 2.735363 1_555
B19 U7 2.735363 1_655
B20 B7 1.686554 1_554
B20 U7 2.633767 1_654
B20 U7 2.633767 1_554
B20 U6 2.636934 1_555
B20 U6 2.636934 1_655
B20 U2 2.640439 1_655
B20 U2 2.640439 1_555
B21 B6 1.686554 1_556
B21 U6 2.633767 1_556
B21 U6 2.633767 1_656
B21 U7 2.636934 1_555
B21 U7 2.636934 1_655
B21 U3 2.640439 1_655
B21 U3 2.640439 1_555
B22 B5 1.686554 1_555
B22 U5 2.633767 1_655
B22 U5 2.633767 1_555
B22 U4 2.636934 1_545
B22 U4 2.636934 1_645
B22 U0 2.640439 1_655
B22 U0 2.640439 1_555
B23 B4 1.686554 1_555
B23 U4 2.633767 1_555
B23 U4 2.633767 1_655
B23 U5 2.636934 1_565
B23 U5 2.636934 1_665
B23 U1 2.640439 1_655
B23 U1 2.640439 1_555
Mo0 U6 2.997130 1_555
Mo0 U4 3.006167 1_555
Mo0 U0 3.036062 1_555
Mo0 U1 3.095505 1_555
Mo0 U2 3.130381 1_555
Mo1 U7 2.997130 1_555
Mo1 U5 3.006167 1_555
Mo1 U1 3.036062 1_555
Mo1 U0 3.095505 1_555
Mo1 U3 3.130381 1_555
Mo2 U4 2.997130 1_545
Mo2 U6 3.006167 1_555
Mo2 U2 3.036062 1_545
Mo2 U3 3.095505 1_554
Mo2 U0 3.130381 1_555
Mo3 U5 2.997130 1_565
Mo3 U7 3.006167 1_555
Mo3 U3 3.036062 1_565
Mo3 U2 3.095505 1_556
Mo3 U1 3.130381 1_555
