# generated using pymatgen
data_CuH18PdC4N4O11
_symmetry_space_group_name_H-M   'P 1'
_cell_length_a   7.15494400
_cell_length_b   7.38309603
_cell_length_c   9.09821492
_cell_angle_alpha   66.60514953
_cell_angle_beta   66.84587100
_cell_angle_gamma   90.00000000
_symmetry_Int_Tables_number   1
_chemical_formula_structural   CuH18PdC4N4O11
_chemical_formula_sum   'Cu1 H18 Pd1 C4 N4 O11'
_cell_volume   398.57435635
_cell_formula_units_Z   1
loop_
 _symmetry_equiv_pos_site_id
 _symmetry_equiv_pos_as_xyz
  1  'x, y, z'
loop_
 _atom_site_type_symbol
 _atom_site_label
 _atom_site_symmetry_multiplicity
 _atom_site_fract_x
 _atom_site_fract_y
 _atom_site_fract_z
 _atom_site_occupancy
  Cu  Cu0  1  0.52137900  0.50000000  0.00000000  1
  H  H0  1  0.78364200  0.19014200  0.83140200  1
  H  H1  1  0.38761100  0.98051000  0.82869000  1
  H  H2  1  0.61504400  0.80985800  0.16859800  1
  H  H3  1  0.21630100  0.01949000  0.17131000  1
  H  H4  1  0.01070900  0.18894000  0.68449700  1
  H  H5  1  0.30431800  0.12524700  0.68411100  1
  H  H6  1  0.69520600  0.81106000  0.31550300  1
  H  H7  1  0.98842900  0.87475300  0.31588900  1
  H  H8  1  0.82654200  0.98471500  0.79849800  1
  H  H9  1  0.37587000  0.21714300  0.79789400  1
  H  H10  1  0.62504000  0.01528500  0.20150200  1
  H  H11  1  0.17376400  0.78285700  0.20210600  1
  H  H12  1  0.78868500  0.19012400  0.40299000  1
  H  H13  1  0.81308800  0.40573000  0.39534000  1
  H  H14  1  0.19167500  0.80987600  0.59701000  1
  H  H15  1  0.20842900  0.59427000  0.60466000  1
  H  H16  1  0.96281400  0.55232100  0.89100600  1
  H  H17  1  0.85382000  0.44767900  0.10899400  1
  Pd  Pd0  1  0.00062300  0.00000000  0.00000000  1
  C  C0  1  0.32402400  0.43158300  0.34842400  1
  C  C1  1  0.32118500  0.22255300  0.34643800  1
  C  C2  1  0.67244900  0.56841700  0.65157600  1
  C  C3  1  0.66762300  0.77744700  0.65356200  1
  N  N0  1  0.89214000  0.10194500  0.80671800  1
  N  N1  1  0.30206900  0.09184600  0.80597100  1
  N  N2  1  0.69885700  0.89805500  0.19328200  1
  N  N3  1  0.10804000  0.90815400  0.19402900  1
  O  O0  1  0.25541500  0.43800700  0.49446100  1
  O  O1  1  0.24606600  0.07118200  0.49106000  1
  O  O2  1  0.74987600  0.56199300  0.50553900  1
  O  O3  1  0.73712600  0.92881800  0.50894000  1
  O  O4  1  0.84758900  0.33294800  0.32056800  1
  O  O5  1  0.16815800  0.66705200  0.67943200  1
  O  O6  1  0.39810700  0.58484100  0.19495300  1
  O  O7  1  0.39994100  0.22279000  0.19173400  1
  O  O8  1  0.59306000  0.41515900  0.80504700  1
  O  O9  1  0.59167600  0.77721000  0.80826600  1
  O  O10  1  0.83040800  0.50000000  0.00000000  1
loop_
_geom_bond_atom_site_label_1
_geom_bond_atom_site_label_2
_geom_bond_distance
_geom_bond_site_symmetry_2
Cu0 O9 1.989879 1_554
Cu0 O7 1.989880 1_555
Cu0 O8 1.992089 1_554
Cu0 O6 1.992089 1_555
Cu0 O10 2.211085 1_555
H0 N0 1.027678 1_555
H1 N1 1.028387 1_565
H2 N2 1.027673 1_555
H3 N3 1.028387 1_545
H4 N0 1.029423 1_455
H5 N1 1.029151 1_555
H6 N2 1.029426 1_555
H7 N3 1.029151 1_655
H8 N0 1.026653 1_565
H9 N1 1.027375 1_555
H10 N2 1.026649 1_545
H11 N3 1.027375 1_555
H12 O4 0.987622 1_555
H13 O4 0.985253 1_555
H14 O5 0.987623 1_555
H15 O5 0.985253 1_555
H16 O10 0.993520 1_556
H17 O10 0.993520 1_555
C0 O0 1.243271 1_555
C0 O6 1.293928 1_555
C1 O1 1.243088 1_555
C1 O7 1.293439 1_555
C2 O2 1.243271 1_555
C2 O8 1.293928 1_555
C3 O3 1.243088 1_555
C3 O9 1.293439 1_555
N0 Pd0 2.069707 1_656
N1 Pd0 2.069589 1_556
N2 Pd0 2.069712 1_665
N3 Pd0 2.069589 1_565
