# generated using pymatgen
data_ScFe2
_symmetry_space_group_name_H-M   'P 1'
_cell_length_a   4.93713665
_cell_length_b   4.93712403
_cell_length_c   16.08847839
_cell_angle_alpha   90.00000000
_cell_angle_beta   90.00000000
_cell_angle_gamma   120.00011245
_symmetry_Int_Tables_number   1
_chemical_formula_structural   ScFe2
_chemical_formula_sum   'Sc8 Fe16'
_cell_volume   339.62081263
_cell_formula_units_Z   8
loop_
 _symmetry_equiv_pos_site_id
 _symmetry_equiv_pos_as_xyz
  1  'x, y, z'
loop_
 _atom_site_type_symbol
 _atom_site_label
 _atom_site_symmetry_multiplicity
 _atom_site_fract_x
 _atom_site_fract_y
 _atom_site_fract_z
 _atom_site_occupancy
  Sc  Sc0  1  0.00000443  -0.00000456  0.59345154  1
  Sc  Sc1  1  -0.00000443  0.00000456  0.40654846  1
  Sc  Sc2  1  -0.00000443  0.00000456  0.09345154  1
  Sc  Sc3  1  0.00000443  -0.00000456  0.90654846  1
  Sc  Sc4  1  0.66667640  0.33332421  0.34363068  1
  Sc  Sc5  1  0.33332360  0.66667579  0.65636932  1
  Sc  Sc6  1  0.33332360  0.66667579  0.84363068  1
  Sc  Sc7  1  0.66667640  0.33332421  0.15636932  1
  Fe  Fe0  1  0.66665908  0.33335159  0.62465636  1
  Fe  Fe1  1  0.33334092  0.66664841  0.37534364  1
  Fe  Fe2  1  0.33334092  0.66664841  0.12465636  1
  Fe  Fe3  1  0.66665908  0.33335159  0.87534364  1
  Fe  Fe4  1  0.50000000  -0.00000000  0.50000000  1
  Fe  Fe5  1  0.50000000  0.50000000  0.50000000  1
  Fe  Fe6  1  -0.00000000  0.50000000  0.50000000  1
  Fe  Fe7  1  0.50000000  -0.00000000  0.00000000  1
  Fe  Fe8  1  0.50000000  0.50000000  0.00000000  1
  Fe  Fe9  1  -0.00000000  0.50000000  0.00000000  1
  Fe  Fe10  1  0.83433263  0.66867449  0.75000000  1
  Fe  Fe11  1  0.83432822  0.16567247  0.75000000  1
  Fe  Fe12  1  0.33132594  0.16566790  0.75000000  1
  Fe  Fe13  1  0.16566737  0.33132551  0.25000000  1
  Fe  Fe14  1  0.16567178  0.83432753  0.25000000  1
  Fe  Fe15  1  0.66867406  0.83433210  0.25000000  1
loop_
_geom_bond_atom_site_label_1
_geom_bond_atom_site_label_2
_geom_bond_distance
_geom_bond_site_symmetry_2
Sc0 Sc1 3.006986 1_555
Sc0 Sc5 3.024743 1_545
Sc0 Sc5 3.024902 1_555
Sc0 Sc5 3.024911 1_445
Sc1 Sc4 3.024743 1_455
Sc1 Sc4 3.024902 1_445
Sc1 Sc4 3.024911 1_555
Sc2 Sc3 3.006986 1_554
Sc2 Sc7 3.024743 1_455
Sc2 Sc7 3.024902 1_445
Sc2 Sc7 3.024911 1_555
Sc3 Sc6 3.024743 1_545
Sc3 Sc6 3.024902 1_555
Sc3 Sc6 3.024911 1_445
Sc4 Sc7 3.012750 1_555
Sc5 Sc6 3.012750 1_555
Fe0 Fe5 2.460308 1_555
Fe0 Fe6 2.460390 1_655
Fe0 Fe4 2.460414 1_555
Fe0 Fe10 2.474310 1_555
Fe0 Fe12 2.474338 1_555
Fe0 Fe11 2.474375 1_555
Fe0 Sc0 2.894224 1_665
Fe0 Sc0 2.894277 1_555
Fe0 Sc0 2.894475 1_655
Fe0 Sc5 2.895728 1_555
Fe0 Sc5 2.895747 1_655
Fe0 Sc5 2.895788 1_545
Fe1 Fe5 2.460308 1_555
Fe1 Fe6 2.460390 1_555
Fe1 Fe4 2.460414 1_565
Fe1 Fe13 2.474310 1_555
Fe1 Fe15 2.474338 1_555
Fe1 Fe14 2.474375 1_555
Fe1 Sc1 2.894224 1_555
Fe1 Sc1 2.894277 1_665
Fe1 Sc1 2.894475 1_565
Fe1 Sc4 2.895728 1_555
Fe1 Sc4 2.895747 1_455
Fe1 Sc4 2.895788 1_565
Fe2 Fe8 2.460308 1_555
Fe2 Fe9 2.460390 1_555
Fe2 Fe7 2.460414 1_565
Fe2 Sc2 2.894224 1_555
Fe2 Sc2 2.894277 1_665
Fe2 Sc2 2.894475 1_565
Fe2 Sc7 2.895728 1_555
Fe2 Sc7 2.895747 1_455
Fe2 Sc7 2.895788 1_565
Fe3 Fe8 2.460308 1_556
Fe3 Fe9 2.460390 1_656
Fe3 Fe7 2.460414 1_556
Fe3 Sc3 2.894224 1_665
Fe3 Sc3 2.894277 1_555
Fe3 Sc3 2.894475 1_655
Fe3 Sc6 2.895728 1_555
Fe3 Sc6 2.895747 1_655
Fe3 Sc6 2.895788 1_545
Fe4 Fe6 2.468561 1_545
Fe4 Fe6 2.468561 1_655
Fe4 Fe5 2.468562 1_545
Fe4 Fe5 2.468562 1_555
Fe4 Sc1 2.890356 1_655
Fe4 Sc0 2.890356 1_555
Fe4 Sc0 2.890413 1_655
Fe4 Sc1 2.890413 1_555
Fe4 Sc4 2.891387 1_555
Fe4 Sc5 2.891387 1_545
Fe5 Fe6 2.468568 1_555
Fe5 Fe6 2.468568 1_655
Fe5 Sc0 2.890378 1_665
Fe5 Sc1 2.890378 1_555
Fe5 Sc1 2.890378 1_665
Fe5 Sc0 2.890378 1_555
Fe5 Sc4 2.891448 1_555
Fe5 Sc5 2.891448 1_555
Fe6 Sc1 2.890350 1_555
Fe6 Sc0 2.890350 1_565
Fe6 Sc1 2.890407 1_565
Fe6 Sc0 2.890407 1_555
Fe6 Sc4 2.891388 1_455
Fe6 Sc5 2.891388 1_555
Fe7 Fe9 2.468561 1_655
Fe7 Fe9 2.468561 1_545
Fe7 Fe8 2.468562 1_545
Fe7 Fe8 2.468562 1_555
Fe7 Sc2 2.890356 1_655
Fe7 Sc3 2.890356 1_554
Fe7 Sc3 2.890413 1_654
Fe7 Sc2 2.890413 1_555
Fe7 Sc7 2.891387 1_555
Fe7 Sc6 2.891387 1_544
Fe8 Fe9 2.468568 1_555
Fe8 Fe9 2.468568 1_655
Fe8 Sc3 2.890378 1_664
Fe8 Sc2 2.890378 1_555
Fe8 Sc2 2.890378 1_665
Fe8 Sc3 2.890378 1_554
Fe8 Sc7 2.891448 1_555
Fe8 Sc6 2.891448 1_554
Fe9 Sc2 2.890350 1_555
Fe9 Sc3 2.890350 1_564
Fe9 Sc2 2.890407 1_565
Fe9 Sc3 2.890407 1_554
Fe9 Sc7 2.891388 1_455
Fe9 Sc6 2.891388 1_554
Fe10 Fe12 2.453717 1_665
Fe10 Fe11 2.453752 1_565
Fe10 Fe3 2.474310 1_555
Fe10 Fe11 2.483372 1_555
Fe10 Fe12 2.483405 1_555
Fe10 Sc0 2.889687 1_665
Fe10 Sc3 2.889687 1_665
Fe10 Sc5 2.891856 1_655
Fe10 Sc6 2.891856 1_655
Fe10 Sc6 2.891938 1_555
Fe10 Sc5 2.891938 1_555
Fe11 Fe12 2.453757 1_655
Fe11 Fe3 2.474375 1_555
Fe11 Fe12 2.483380 1_555
Fe11 Sc0 2.889756 1_655
Fe11 Sc3 2.889756 1_655
Fe11 Sc6 2.891888 1_655
Fe11 Sc5 2.891888 1_655
Fe11 Sc5 2.891894 1_545
Fe11 Sc6 2.891894 1_545
Fe12 Fe3 2.474338 1_555
Fe12 Sc0 2.889690 1_555
Fe12 Sc3 2.889690 1_555
Fe12 Sc5 2.891854 1_545
Fe12 Sc6 2.891854 1_545
Fe12 Sc6 2.891930 1_555
Fe12 Sc5 2.891930 1_555
Fe13 Fe15 2.453717 1_445
Fe13 Fe14 2.453752 1_545
Fe13 Fe2 2.474310 1_555
Fe13 Fe14 2.483372 1_555
Fe13 Fe15 2.483405 1_555
Fe13 Sc2 2.889687 1_555
Fe13 Sc1 2.889687 1_555
Fe13 Sc7 2.891856 1_455
Fe13 Sc4 2.891856 1_455
Fe13 Sc7 2.891938 1_555
Fe13 Sc4 2.891938 1_555
Fe14 Fe15 2.453757 1_455
Fe14 Fe2 2.474375 1_555
Fe14 Fe15 2.483380 1_555
Fe14 Sc1 2.889756 1_565
Fe14 Sc2 2.889756 1_565
Fe14 Sc7 2.891888 1_455
Fe14 Sc4 2.891888 1_455
Fe14 Sc4 2.891894 1_565
Fe14 Sc7 2.891894 1_565
Fe15 Fe2 2.474338 1_555
Fe15 Sc1 2.889690 1_665
Fe15 Sc2 2.889690 1_665
Fe15 Sc7 2.891854 1_565
Fe15 Sc4 2.891854 1_565
Fe15 Sc7 2.891930 1_555
Fe15 Sc4 2.891930 1_555
