# generated using pymatgen
data_Na5FeP2(O4F)2
_symmetry_space_group_name_H-M   'P 1'
_cell_length_a   11.78699305
_cell_length_b   13.91590112
_cell_length_c   22.07374491
_cell_angle_alpha   90.00000000
_cell_angle_beta   90.00000000
_cell_angle_gamma   90.00000000
_symmetry_Int_Tables_number   1
_chemical_formula_structural   Na5FeP2(O4F)2
_chemical_formula_sum   'Na80 Fe16 P32 O128 F32'
_cell_volume   3620.68198434
_cell_formula_units_Z   16
loop_
 _symmetry_equiv_pos_site_id
 _symmetry_equiv_pos_as_xyz
  1  'x, y, z'
loop_
 _atom_site_type_symbol
 _atom_site_label
 _atom_site_symmetry_multiplicity
 _atom_site_fract_x
 _atom_site_fract_y
 _atom_site_fract_z
 _atom_site_occupancy
  Na  Na0  1  0.33112929  0.75246096  0.86780599  1
  Na  Na1  1  0.83112929  0.24753904  0.63219401  1
  Na  Na2  1  0.66887071  0.74753904  0.36780599  1
  Na  Na3  1  0.16887071  0.25246096  0.13219401  1
  Na  Na4  1  0.66887071  0.24753904  0.13219401  1
  Na  Na5  1  0.16887071  0.75246096  0.36780599  1
  Na  Na6  1  0.33112929  0.25246096  0.63219401  1
  Na  Na7  1  0.83112929  0.74753904  0.86780599  1
  Na  Na8  1  0.33872758  0.49778627  0.87410290  1
  Na  Na9  1  0.83872758  0.50221373  0.62589710  1
  Na  Na10  1  0.66127242  0.00221373  0.37410290  1
  Na  Na11  1  0.16127242  0.99778627  0.12589710  1
  Na  Na12  1  0.66127242  0.50221373  0.12589710  1
  Na  Na13  1  0.16127242  0.49778627  0.37410290  1
  Na  Na14  1  0.33872758  0.99778627  0.62589710  1
  Na  Na15  1  0.83872758  0.00221373  0.87410290  1
  Na  Na16  1  0.07770352  0.62342187  0.87414851  1
  Na  Na17  1  0.57770352  0.37657813  0.62585149  1
  Na  Na18  1  0.92229648  0.87657813  0.37414851  1
  Na  Na19  1  0.42229648  0.12342187  0.12585149  1
  Na  Na20  1  0.92229648  0.37657813  0.12585149  1
  Na  Na21  1  0.42229648  0.62342187  0.37414851  1
  Na  Na22  1  0.07770352  0.12342187  0.62585149  1
  Na  Na23  1  0.57770352  0.87657813  0.87414851  1
  Na  Na24  1  0.23441356  0.87185003  0.50113122  1
  Na  Na25  1  0.73441356  0.12814997  0.99886878  1
  Na  Na26  1  0.76558644  0.62814997  0.00113122  1
  Na  Na27  1  0.26558644  0.37185003  0.49886878  1
  Na  Na28  1  0.76558644  0.12814997  0.49886878  1
  Na  Na29  1  0.26558644  0.87185003  0.00113122  1
  Na  Na30  1  0.23441356  0.37185003  0.99886878  1
  Na  Na31  1  0.73441356  0.62814997  0.50113122  1
  Na  Na32  1  0.33102904  0.75243976  0.62135736  1
  Na  Na33  1  0.83102904  0.24756024  0.87864264  1
  Na  Na34  1  0.66897096  0.74756024  0.12135736  1
  Na  Na35  1  0.16897096  0.25243976  0.37864264  1
  Na  Na36  1  0.66897096  0.24756024  0.37864264  1
  Na  Na37  1  0.16897096  0.75243976  0.12135736  1
  Na  Na38  1  0.33102904  0.25243976  0.87864264  1
  Na  Na39  1  0.83102904  0.74756024  0.62135736  1
  Na  Na40  1  0.98272963  0.73672514  0.50218789  1
  Na  Na41  1  0.48272963  0.26327486  0.99781211  1
  Na  Na42  1  0.01727037  0.76327486  0.00218789  1
  Na  Na43  1  0.51727037  0.23672514  0.49781211  1
  Na  Na44  1  0.01727037  0.26327486  0.49781211  1
  Na  Na45  1  0.51727037  0.73672514  0.00218789  1
  Na  Na46  1  0.98272963  0.23672514  0.99781211  1
  Na  Na47  1  0.48272963  0.76327486  0.50218789  1
  Na  Na48  1  0.99808264  0.74929102  0.75429503  1
  Na  Na49  1  0.49808264  0.25070898  0.74570497  1
  Na  Na50  1  0.00191736  0.75070898  0.25429503  1
  Na  Na51  1  0.50191736  0.24929102  0.24570497  1
  Na  Na52  1  0.00191736  0.25070898  0.24570497  1
  Na  Na53  1  0.50191736  0.74929102  0.25429503  1
  Na  Na54  1  0.99808264  0.24929102  0.74570497  1
  Na  Na55  1  0.49808264  0.75070898  0.75429503  1
  Na  Na56  1  0.33508711  0.99876784  0.88282262  1
  Na  Na57  1  0.83508711  0.00123216  0.61717738  1
  Na  Na58  1  0.66491289  0.50123216  0.38282262  1
  Na  Na59  1  0.16491289  0.49876784  0.11717738  1
  Na  Na60  1  0.66491289  0.00123216  0.11717738  1
  Na  Na61  1  0.16491289  0.99876784  0.38282262  1
  Na  Na62  1  0.33508711  0.49876784  0.61717738  1
  Na  Na63  1  0.83508711  0.50123216  0.88282262  1
  Na  Na64  1  0.08297989  0.62210563  0.61743852  1
  Na  Na65  1  0.58297989  0.37789437  0.88256148  1
  Na  Na66  1  0.91702011  0.87789437  0.11743852  1
  Na  Na67  1  0.41702011  0.12210563  0.38256148  1
  Na  Na68  1  0.91702011  0.37789437  0.38256148  1
  Na  Na69  1  0.41702011  0.62210563  0.11743852  1
  Na  Na70  1  0.08297989  0.12210563  0.88256148  1
  Na  Na71  1  0.58297989  0.87789437  0.61743852  1
  Na  Na72  1  0.25022975  0.88587879  0.74445604  1
  Na  Na73  1  0.75022975  0.11412121  0.75554396  1
  Na  Na74  1  0.74977025  0.61412121  0.24445604  1
  Na  Na75  1  0.24977025  0.38587879  0.25554396  1
  Na  Na76  1  0.74977025  0.11412121  0.25554396  1
  Na  Na77  1  0.24977025  0.88587879  0.24445604  1
  Na  Na78  1  0.25022975  0.38587879  0.75554396  1
  Na  Na79  1  0.75022975  0.61412121  0.74445604  1
  Fe  Fe0  1  0.50000000  0.50000000  -0.00000000  1
  Fe  Fe1  1  0.00000000  0.50000000  0.50000000  1
  Fe  Fe2  1  0.50000000  0.00000000  0.50000000  1
  Fe  Fe3  1  0.00000000  0.00000000  -0.00000000  1
  Fe  Fe4  1  0.49740940  0.49296843  0.75035388  1
  Fe  Fe5  1  0.99740940  0.50703157  0.74964612  1
  Fe  Fe6  1  0.50259060  0.00703157  0.25035388  1
  Fe  Fe7  1  0.00259060  0.99296843  0.24964612  1
  Fe  Fe8  1  0.50259060  0.50703157  0.24964612  1
  Fe  Fe9  1  0.00259060  0.49296843  0.25035388  1
  Fe  Fe10  1  0.49740940  0.99296843  0.74964612  1
  Fe  Fe11  1  0.99740940  0.00703157  0.75035388  1
  Fe  Fe12  1  0.50000000  0.00000000  -0.00000000  1
  Fe  Fe13  1  0.00000000  0.00000000  0.50000000  1
  Fe  Fe14  1  0.50000000  0.50000000  0.50000000  1
  Fe  Fe15  1  0.00000000  0.50000000  -0.00000000  1
  P  P0  1  0.08531543  0.88044861  0.87358177  1
  P  P1  1  0.58531543  0.11955139  0.62641823  1
  P  P2  1  0.91468457  0.61955139  0.37358177  1
  P  P3  1  0.41468457  0.38044861  0.12641823  1
  P  P4  1  0.91468457  0.11955139  0.12641823  1
  P  P5  1  0.41468457  0.88044861  0.37358177  1
  P  P6  1  0.08531543  0.38044861  0.62641823  1
  P  P7  1  0.58531543  0.61955139  0.87358177  1
  P  P8  1  0.24808495  0.61945576  0.99034916  1
  P  P9  1  0.74808495  0.38054424  0.50965084  1
  P  P10  1  0.75191505  0.88054424  0.49034916  1
  P  P11  1  0.25191505  0.11945576  0.00965084  1
  P  P12  1  0.75191505  0.38054424  0.00965084  1
  P  P13  1  0.25191505  0.61945576  0.49034916  1
  P  P14  1  0.24808495  0.11945576  0.50965084  1
  P  P15  1  0.74808495  0.88054424  0.99034916  1
  P  P16  1  0.25305148  0.62265203  0.74181045  1
  P  P17  1  0.75305148  0.37734797  0.75818955  1
  P  P18  1  0.74694852  0.87734797  0.24181045  1
  P  P19  1  0.24694852  0.12265203  0.25818955  1
  P  P20  1  0.74694852  0.37734797  0.25818955  1
  P  P21  1  0.24694852  0.62265203  0.24181045  1
  P  P22  1  0.25305148  0.12265203  0.75818955  1
  P  P23  1  0.75305148  0.87734797  0.74181045  1
  P  P24  1  0.07470880  0.87768160  0.62737904  1
  P  P25  1  0.57470880  0.12231840  0.87262096  1
  P  P26  1  0.92529120  0.62231840  0.12737904  1
  P  P27  1  0.42529120  0.37768160  0.37262096  1
  P  P28  1  0.92529120  0.12231840  0.37262096  1
  P  P29  1  0.42529120  0.87768160  0.12737904  1
  P  P30  1  0.07470880  0.37768160  0.87262096  1
  P  P31  1  0.57470880  0.62231840  0.62737904  1
  O  O0  1  0.02425203  0.78096977  0.60731650  1
  O  O1  1  0.52425203  0.21903023  0.89268350  1
  O  O2  1  0.97574797  0.71903023  0.10731650  1
  O  O3  1  0.47574797  0.28096977  0.39268350  1
  O  O4  1  0.97574797  0.21903023  0.39268350  1
  O  O5  1  0.47574797  0.78096977  0.10731650  1
  O  O6  1  0.02425203  0.28096977  0.89268350  1
  O  O7  1  0.52425203  0.71903023  0.60731650  1
  O  O8  1  0.02873771  0.96180978  0.58671166  1
  O  O9  1  0.52873771  0.03819022  0.91328834  1
  O  O10  1  0.97126229  0.53819022  0.08671166  1
  O  O11  1  0.47126229  0.46180978  0.41328834  1
  O  O12  1  0.97126229  0.03819022  0.41328834  1
  O  O13  1  0.47126229  0.96180978  0.08671166  1
  O  O14  1  0.02873771  0.46180978  0.91328834  1
  O  O15  1  0.52873771  0.53819022  0.58671166  1
  O  O16  1  0.25022096  0.61927681  0.67205374  1
  O  O17  1  0.75022096  0.38072319  0.82794626  1
  O  O18  1  0.74977904  0.88072319  0.17205374  1
  O  O19  1  0.24977904  0.11927681  0.32794626  1
  O  O20  1  0.74977904  0.38072319  0.32794626  1
  O  O21  1  0.24977904  0.61927681  0.17205374  1
  O  O22  1  0.25022096  0.11927681  0.82794626  1
  O  O23  1  0.75022096  0.88072319  0.67205374  1
  O  O24  1  0.01649348  0.94948217  0.91588754  1
  O  O25  1  0.51649348  0.05051783  0.58411246  1
  O  O26  1  0.98350652  0.55051783  0.41588754  1
  O  O27  1  0.48350652  0.44948217  0.08411246  1
  O  O28  1  0.98350652  0.05051783  0.08411246  1
  O  O29  1  0.48350652  0.94948217  0.41588754  1
  O  O30  1  0.01649348  0.44948217  0.58411246  1
  O  O31  1  0.51649348  0.55051783  0.91588754  1
  O  O32  1  0.33853392  0.54576340  0.76813018  1
  O  O33  1  0.83853392  0.45423660  0.73186982  1
  O  O34  1  0.66146608  0.95423660  0.26813018  1
  O  O35  1  0.16146608  0.04576340  0.23186982  1
  O  O36  1  0.66146608  0.45423660  0.23186982  1
  O  O37  1  0.16146608  0.54576340  0.26813018  1
  O  O38  1  0.33853392  0.04576340  0.73186982  1
  O  O39  1  0.83853392  0.95423660  0.76813018  1
  O  O40  1  0.25117138  0.62558843  0.92095402  1
  O  O41  1  0.75117138  0.37441157  0.57904598  1
  O  O42  1  0.74882862  0.87441157  0.42095402  1
  O  O43  1  0.24882862  0.12558843  0.07904598  1
  O  O44  1  0.74882862  0.37441157  0.07904598  1
  O  O45  1  0.24882862  0.62558843  0.42095402  1
  O  O46  1  0.25117138  0.12558843  0.57904598  1
  O  O47  1  0.75117138  0.87441157  0.92095402  1
  O  O48  1  0.28602906  0.72341910  0.76490823  1
  O  O49  1  0.78602906  0.27658090  0.73509177  1
  O  O50  1  0.71397094  0.77658090  0.26490823  1
  O  O51  1  0.21397094  0.22341910  0.23509177  1
  O  O52  1  0.71397094  0.27658090  0.23509177  1
  O  O53  1  0.21397094  0.72341910  0.26490823  1
  O  O54  1  0.28602906  0.22341910  0.73509177  1
  O  O55  1  0.78602906  0.77658090  0.76490823  1
  O  O56  1  0.13319027  0.59476714  0.76875584  1
  O  O57  1  0.63319027  0.40523286  0.73124416  1
  O  O58  1  0.86680973  0.90523286  0.26875584  1
  O  O59  1  0.36680973  0.09476714  0.23124416  1
  O  O60  1  0.86680973  0.40523286  0.23124416  1
  O  O61  1  0.36680973  0.59476714  0.26875584  1
  O  O62  1  0.13319027  0.09476714  0.73124416  1
  O  O63  1  0.63319027  0.90523286  0.76875584  1
  O  O64  1  0.20491349  0.87765197  0.62798885  1
  O  O65  1  0.70491349  0.12234803  0.87201115  1
  O  O66  1  0.79508651  0.62234803  0.12798885  1
  O  O67  1  0.29508651  0.37765197  0.37201115  1
  O  O68  1  0.79508651  0.12234803  0.37201115  1
  O  O69  1  0.29508651  0.87765197  0.12798885  1
  O  O70  1  0.20491349  0.37765197  0.87201115  1
  O  O71  1  0.70491349  0.62234803  0.62798885  1
  O  O72  1  0.20838455  0.87242449  0.89573808  1
  O  O73  1  0.70838455  0.12757551  0.60426192  1
  O  O74  1  0.79161545  0.62757551  0.39573808  1
  O  O75  1  0.29161545  0.37242449  0.10426192  1
  O  O76  1  0.79161545  0.12757551  0.10426192  1
  O  O77  1  0.29161545  0.87242449  0.39573808  1
  O  O78  1  0.20838455  0.37242449  0.60426192  1
  O  O79  1  0.70838455  0.62757551  0.89573808  1
  O  O80  1  0.03139157  0.89990479  0.69353887  1
  O  O81  1  0.53139157  0.10009521  0.80646113  1
  O  O82  1  0.96860843  0.60009521  0.19353887  1
  O  O83  1  0.46860843  0.39990479  0.30646113  1
  O  O84  1  0.96860843  0.10009521  0.30646113  1
  O  O85  1  0.46860843  0.89990479  0.19353887  1
  O  O86  1  0.03139157  0.39990479  0.80646113  1
  O  O87  1  0.53139157  0.60009521  0.69353887  1
  O  O88  1  0.13119174  0.59195084  0.51574827  1
  O  O89  1  0.63119174  0.40804916  0.98425173  1
  O  O90  1  0.86880826  0.90804916  0.01574827  1
  O  O91  1  0.36880826  0.09195084  0.48425173  1
  O  O92  1  0.86880826  0.40804916  0.48425173  1
  O  O93  1  0.36880826  0.59195084  0.01574827  1
  O  O94  1  0.13119174  0.09195084  0.98425173  1
  O  O95  1  0.63119174  0.90804916  0.51574827  1
  O  O96  1  0.28880853  0.71406909  0.52014794  1
  O  O97  1  0.78880853  0.28593091  0.97985206  1
  O  O98  1  0.71119147  0.78593091  0.02014794  1
  O  O99  1  0.21119147  0.21406909  0.47985206  1
  O  O100  1  0.71119147  0.28593091  0.47985206  1
  O  O101  1  0.21119147  0.71406909  0.02014794  1
  O  O102  1  0.28880853  0.21406909  0.97985206  1
  O  O103  1  0.78880853  0.78593091  0.52014794  1
  O  O104  1  0.02456532  0.78299381  0.86891751  1
  O  O105  1  0.52456532  0.21700619  0.63108249  1
  O  O106  1  0.97543468  0.71700619  0.36891751  1
  O  O107  1  0.47543468  0.28299381  0.13108249  1
  O  O108  1  0.97543468  0.21700619  0.13108249  1
  O  O109  1  0.47543468  0.78299381  0.36891751  1
  O  O110  1  0.02456532  0.28299381  0.63108249  1
  O  O111  1  0.52456532  0.71700619  0.86891751  1
  O  O112  1  0.33407877  0.53566561  0.51070476  1
  O  O113  1  0.83407877  0.46433439  0.98929524  1
  O  O114  1  0.66592123  0.96433439  0.01070476  1
  O  O115  1  0.16592123  0.03566561  0.48929524  1
  O  O116  1  0.66592123  0.46433439  0.48929524  1
  O  O117  1  0.16592123  0.53566561  0.01070476  1
  O  O118  1  0.33407877  0.03566561  0.98929524  1
  O  O119  1  0.83407877  0.96433439  0.51070476  1
  O  O120  1  0.08544974  0.93014641  0.80939439  1
  O  O121  1  0.58544974  0.06985359  0.69060561  1
  O  O122  1  0.91455026  0.56985359  0.30939439  1
  O  O123  1  0.41455026  0.43014641  0.19060561  1
  O  O124  1  0.91455026  0.06985359  0.19060561  1
  O  O125  1  0.41455026  0.93014641  0.30939439  1
  O  O126  1  0.08544974  0.43014641  0.69060561  1
  O  O127  1  0.58544974  0.56985359  0.80939439  1
  F  F0  1  0.44505642  0.89018975  0.68941386  1
  F  F1  1  0.94505642  0.10981025  0.81058614  1
  F  F2  1  0.55494358  0.60981025  0.18941386  1
  F  F3  1  0.05494358  0.39018975  0.31058614  1
  F  F4  1  0.55494358  0.10981025  0.31058614  1
  F  F5  1  0.05494358  0.89018975  0.18941386  1
  F  F6  1  0.44505642  0.39018975  0.81058614  1
  F  F7  1  0.94505642  0.60981025  0.68941386  1
  F  F8  1  0.42046161  0.90488038  0.81101301  1
  F  F9  1  0.92046161  0.09511962  0.68898699  1
  F  F10  1  0.57953839  0.59511962  0.31101301  1
  F  F11  1  0.07953839  0.40488038  0.18898699  1
  F  F12  1  0.57953839  0.09511962  0.18898699  1
  F  F13  1  0.07953839  0.90488038  0.31101301  1
  F  F14  1  0.42046161  0.40488038  0.68898699  1
  F  F15  1  0.92046161  0.59511962  0.81101301  1
  F  F16  1  0.45194794  0.87350532  0.96430660  1
  F  F17  1  0.95194794  0.12649468  0.53569340  1
  F  F18  1  0.54805206  0.62649468  0.46430660  1
  F  F19  1  0.04805206  0.37350532  0.03569340  1
  F  F20  1  0.54805206  0.12649468  0.03569340  1
  F  F21  1  0.04805206  0.87350532  0.46430660  1
  F  F22  1  0.45194794  0.37350532  0.53569340  1
  F  F23  1  0.95194794  0.62649468  0.96430660  1
  F  F24  1  0.40561134  0.90049725  0.54086760  1
  F  F25  1  0.90561134  0.09950275  0.95913240  1
  F  F26  1  0.59438866  0.59950275  0.04086760  1
  F  F27  1  0.09438866  0.40049725  0.45913240  1
  F  F28  1  0.59438866  0.09950275  0.45913240  1
  F  F29  1  0.09438866  0.90049725  0.04086760  1
  F  F30  1  0.40561134  0.40049725  0.95913240  1
  F  F31  1  0.90561134  0.59950275  0.54086760  1
loop_
_geom_bond_atom_site_label_1
_geom_bond_atom_site_label_2
_geom_bond_distance
_geom_bond_site_symmetry_2
Na0 O72 2.293525 1_555
Na0 O40 2.319856 1_555
Na0 O111 2.332930 1_555
Na0 O48 2.367468 1_555
Na1 O73 2.293525 1_555
Na1 O41 2.319856 1_555
Na1 O110 2.332930 1_655
Na1 O49 2.367468 1_555
Na2 O74 2.293525 1_555
Na2 O42 2.319856 1_555
Na2 O109 2.332930 1_555
Na2 O50 2.367468 1_555
Na3 O75 2.293525 1_555
Na3 O43 2.319856 1_555
Na3 O108 2.332930 1_455
Na3 O51 2.367468 1_555
Na4 O76 2.293525 1_555
Na4 O44 2.319856 1_555
Na4 O107 2.332930 1_555
Na4 O52 2.367468 1_555
Na5 O77 2.293525 1_555
Na5 O45 2.319856 1_555
Na5 O106 2.332930 1_455
Na5 O53 2.367468 1_555
Na6 O78 2.293525 1_555
Na6 O46 2.319856 1_555
Na6 O105 2.332930 1_555
Na6 O54 2.367468 1_555
Na7 O79 2.293525 1_555
Na7 O47 2.319856 1_555
Na7 O104 2.332930 1_655
Na7 O55 2.367468 1_555
Na8 O70 2.298856 1_555
Na8 O40 2.301652 1_555
Na8 O31 2.404076 1_555
Na8 O32 2.432628 1_555
Na9 O71 2.298856 1_555
Na9 O41 2.301652 1_555
Na9 O30 2.404076 1_655
Na9 O33 2.432628 1_555
Na10 O68 2.298856 1_555
Na10 O42 2.301652 1_545
Na10 O29 2.404076 1_545
Na10 O34 2.432628 1_545
Na11 O69 2.298856 1_555
Na11 O43 2.301652 1_565
Na11 O28 2.404076 1_465
Na11 O35 2.432628 1_565
Na12 O66 2.298856 1_555
Na12 O44 2.301652 1_555
Na12 O27 2.404076 1_555
Na12 O36 2.432628 1_555
Na13 O67 2.298856 1_555
Na13 O45 2.301652 1_555
Na13 O26 2.404076 1_455
Na13 O37 2.432628 1_555
Na14 O64 2.298856 1_555
Na14 O46 2.301652 1_565
Na14 O25 2.404076 1_565
Na14 O38 2.432628 1_565
Na15 O65 2.298856 1_555
Na15 O47 2.301652 1_545
Na15 O24 2.404076 1_645
Na15 O39 2.432628 1_545
Na16 O40 2.291071 1_555
Na16 O104 2.310117 1_555
Na16 O56 2.449273 1_555
Na16 O14 2.477387 1_555
Na17 O41 2.291071 1_555
Na17 O105 2.310117 1_555
Na17 O57 2.449273 1_555
Na17 O15 2.477387 1_555
Na18 O42 2.291071 1_555
Na18 O106 2.310117 1_555
Na18 O58 2.449273 1_555
Na18 O12 2.477387 1_565
Na19 O43 2.291071 1_555
Na19 O107 2.310117 1_555
Na19 O59 2.449273 1_555
Na19 O13 2.477387 1_545
Na20 O44 2.291071 1_555
Na20 O108 2.310117 1_555
Na20 O60 2.449273 1_555
Na20 O10 2.477387 1_555
Na21 O45 2.291071 1_555
Na21 O109 2.310117 1_555
Na21 O61 2.449273 1_555
Na21 O11 2.477387 1_555
Na22 O46 2.291071 1_555
Na22 O110 2.310117 1_555
Na22 O62 2.449273 1_555
Na22 O8 2.477387 1_545
Na23 O47 2.291071 1_555
Na23 O111 2.310117 1_555
Na23 O63 2.449273 1_555
Na23 O9 2.477387 1_565
Na24 O96 2.325559 1_555
Na24 O77 2.422168 1_555
Na24 O115 2.432445 1_565
Na24 O64 2.822884 1_555
Na25 O97 2.325559 1_555
Na25 O76 2.422168 1_556
Na25 O114 2.432445 1_546
Na25 O65 2.822884 1_555
Na26 O98 2.325559 1_555
Na26 O79 2.422168 1_554
Na26 O113 2.432445 1_554
Na26 O66 2.822884 1_555
Na27 O99 2.325559 1_555
Na27 O78 2.422168 1_555
Na27 O112 2.432445 1_555
Na27 O67 2.822884 1_555
Na28 O100 2.325559 1_555
Na28 O73 2.422168 1_555
Na28 O119 2.432445 1_545
Na28 O68 2.822884 1_555
Na29 O101 2.325559 1_555
Na29 O72 2.422168 1_554
Na29 O118 2.432445 1_564
Na29 O69 2.822884 1_555
Na30 O102 2.325559 1_555
Na30 O75 2.422168 1_556
Na30 O117 2.432445 1_556
Na30 O70 2.822884 1_555
Na31 O103 2.325559 1_555
Na31 O74 2.422168 1_555
Na31 O116 2.432445 1_555
Na31 O71 2.822884 1_555
Na32 O64 2.295055 1_555
Na32 O7 2.345059 1_555
Na32 O96 2.350287 1_555
Na32 O16 2.365044 1_555
Na33 O65 2.295055 1_555
Na33 O6 2.345059 1_655
Na33 O97 2.350287 1_555
Na33 O17 2.365044 1_555
Na34 O66 2.295055 1_555
Na34 O5 2.345059 1_555
Na34 O98 2.350287 1_555
Na34 O18 2.365044 1_555
Na35 O67 2.295055 1_555
Na35 O4 2.345059 1_455
Na35 O99 2.350287 1_555
Na35 O19 2.365044 1_555
Na36 O68 2.295055 1_555
Na36 O3 2.345059 1_555
Na36 O100 2.350287 1_555
Na36 O20 2.365044 1_555
Na37 O69 2.295055 1_555
Na37 O2 2.345059 1_455
Na37 O101 2.350287 1_555
Na37 O21 2.365044 1_555
Na38 O70 2.295055 1_555
Na38 O1 2.345059 1_555
Na38 O102 2.350287 1_555
Na38 O22 2.365044 1_555
Na39 O71 2.295055 1_555
Na39 O0 2.345059 1_655
Na39 O103 2.350287 1_555
Na39 O23 2.365044 1_555
Na40 O103 2.418818 1_555
Na40 O0 2.450251 1_655
Na40 O88 2.685274 1_655
Na40 O106 2.955798 1_555
Na41 O102 2.418818 1_555
Na41 O1 2.450251 1_555
Na41 O89 2.685274 1_555
Na41 O107 2.955798 1_556
Na42 O101 2.418818 1_555
Na42 O2 2.450251 1_455
Na42 O90 2.685274 1_455
Na42 O104 2.955798 1_554
Na43 O100 2.418818 1_555
Na43 O3 2.450251 1_555
Na43 O91 2.685274 1_555
Na43 O105 2.955798 1_555
Na44 O99 2.418818 1_555
Na44 O4 2.450251 1_455
Na44 O92 2.685274 1_455
Na44 O110 2.955798 1_555
Na45 O98 2.418818 1_555
Na45 O5 2.450251 1_555
Na45 O93 2.685274 1_555
Na45 O111 2.955798 1_554
Na46 O97 2.418818 1_555
Na46 O6 2.450251 1_655
Na46 O94 2.685274 1_655
Na46 O108 2.955798 1_556
Na47 O96 2.418818 1_555
Na47 O7 2.450251 1_555
Na47 O95 2.685274 1_555
Na47 O109 2.955798 1_555
Na48 O80 2.519056 1_655
Na48 O55 2.538991 1_555
Na48 O104 2.592113 1_655
Na48 O56 2.694800 1_655
Na49 O81 2.519056 1_555
Na49 O54 2.538991 1_555
Na49 O105 2.592113 1_555
Na49 O57 2.694800 1_555
Na50 O82 2.519056 1_455
Na50 O53 2.538991 1_555
Na50 O106 2.592113 1_455
Na50 O58 2.694800 1_455
Na51 O83 2.519056 1_555
Na51 O52 2.538991 1_555
Na51 O107 2.592113 1_555
Na51 O59 2.694800 1_555
Na52 O84 2.519056 1_455
Na52 O51 2.538991 1_555
Na52 O108 2.592113 1_455
Na52 O60 2.694800 1_455
Na53 O85 2.519056 1_555
Na53 O50 2.538991 1_555
Na53 O109 2.592113 1_555
Na53 O61 2.694800 1_555
Na54 O86 2.519056 1_655
Na54 O49 2.538991 1_555
Na54 O110 2.592113 1_655
Na54 O62 2.694800 1_655
Na55 O87 2.519056 1_555
Na55 O48 2.538991 1_555
Na55 O111 2.592113 1_555
Na55 O63 2.694800 1_555
Na56 O22 2.297878 1_565
Na56 O72 2.324403 1_555
Na56 O118 2.405714 1_565
Na56 O9 2.441982 1_565
Na57 O23 2.297878 1_545
Na57 O73 2.324403 1_555
Na57 O119 2.405714 1_545
Na57 O8 2.441982 1_645
Na58 O20 2.297878 1_555
Na58 O74 2.324403 1_555
Na58 O116 2.405714 1_555
Na58 O11 2.441982 1_555
Na59 O21 2.297878 1_555
Na59 O75 2.324403 1_555
Na59 O117 2.405714 1_555
Na59 O10 2.441982 1_455
Na60 O18 2.297878 1_545
Na60 O76 2.324403 1_555
Na60 O114 2.405714 1_545
Na60 O13 2.441982 1_545
Na61 O19 2.297878 1_565
Na61 O77 2.324403 1_555
Na61 O115 2.405714 1_565
Na61 O12 2.441982 1_465
Na62 O16 2.297878 1_555
Na62 O78 2.324403 1_555
Na62 O112 2.405714 1_555
Na62 O15 2.441982 1_555
Na63 O17 2.297878 1_555
Na63 O79 2.324403 1_555
Na63 O113 2.405714 1_555
Na63 O14 2.441982 1_655
Na64 O16 2.311024 1_555
Na64 O0 2.327328 1_555
Na64 O88 2.353218 1_555
Na64 O30 2.631714 1_555
Na65 O17 2.311024 1_555
Na65 O1 2.327328 1_555
Na65 O89 2.353218 1_555
Na65 O31 2.631714 1_555
Na66 O18 2.311024 1_555
Na66 O2 2.327328 1_555
Na66 O90 2.353218 1_555
Na66 O28 2.631714 1_565
Na67 O19 2.311024 1_555
Na67 O3 2.327328 1_555
Na67 O91 2.353218 1_555
Na67 O29 2.631714 1_545
Na68 O20 2.311024 1_555
Na68 O4 2.327328 1_555
Na68 O92 2.353218 1_555
Na68 O26 2.631714 1_555
Na69 O21 2.311024 1_555
Na69 O5 2.327328 1_555
Na69 O93 2.353218 1_555
Na69 O27 2.631714 1_555
Na70 O22 2.311024 1_555
Na70 O6 2.327328 1_555
Na70 O94 2.353218 1_555
Na70 O24 2.631714 1_545
Na71 O23 2.311024 1_555
Na71 O7 2.327328 1_555
Na71 O95 2.353218 1_555
Na71 O25 2.631714 1_565
Na72 O48 2.343707 1_555
Na72 O38 2.472021 1_565
Na72 O120 2.491303 1_555
Na72 O64 2.628264 1_555
Na72 O80 2.820435 1_555
Na73 O49 2.343707 1_555
Na73 O39 2.472021 1_545
Na73 O121 2.491303 1_555
Na73 O65 2.628264 1_555
Na73 O81 2.820435 1_555
Na74 O50 2.343707 1_555
Na74 O36 2.472021 1_555
Na74 O122 2.491303 1_555
Na74 O66 2.628264 1_555
Na74 O82 2.820435 1_555
Na75 O51 2.343707 1_555
Na75 O37 2.472021 1_555
Na75 O123 2.491303 1_555
Na75 O67 2.628264 1_555
Na75 O83 2.820435 1_555
Na76 O52 2.343707 1_555
Na76 O34 2.472021 1_545
Na76 O124 2.491303 1_555
Na76 O68 2.628264 1_555
Na76 O84 2.820435 1_555
Na77 O53 2.343707 1_555
Na77 O35 2.472021 1_565
Na77 O125 2.491303 1_555
Na77 O69 2.628264 1_555
Na77 O85 2.820435 1_555
Na78 O54 2.343707 1_555
Na78 O32 2.472021 1_555
Na78 O126 2.491303 1_555
Na78 O70 2.628264 1_555
Na78 O86 2.820435 1_555
Na79 O55 2.343707 1_555
Na79 O33 2.472021 1_555
Na79 O127 2.491303 1_555
Na79 O71 2.628264 1_555
Na79 O87 2.820435 1_555
Fe0 O31 1.994807 1_554
Fe0 O27 1.994807 1_555
Fe0 O93 2.037003 1_555
Fe0 O89 2.037003 1_554
Fe1 O26 1.994807 1_455
Fe1 O30 1.994807 1_555
Fe1 O92 2.037003 1_455
Fe1 O88 2.037003 1_555
Fe2 O29 1.994807 1_545
Fe2 O25 1.994807 1_555
Fe2 O95 2.037003 1_545
Fe2 O91 2.037003 1_555
Fe3 O24 1.994807 1_544
Fe3 O28 1.994807 1_455
Fe3 O90 2.037003 1_445
Fe3 O94 2.037003 1_554
Fe4 O127 1.979918 1_555
Fe4 O87 1.988879 1_555
Fe4 O32 2.049539 1_555
Fe4 O57 2.056700 1_555
Fe5 O126 1.979918 1_655
Fe5 O86 1.988879 1_655
Fe5 O33 2.049539 1_555
Fe5 O56 2.056700 1_655
Fe6 O125 1.979918 1_545
Fe6 O85 1.988879 1_545
Fe6 O34 2.049539 1_545
Fe6 O59 2.056700 1_555
Fe7 O124 1.979918 1_465
Fe7 O84 1.988879 1_465
Fe7 O35 2.049539 1_565
Fe7 O58 2.056700 1_455
Fe8 O123 1.979918 1_555
Fe8 O83 1.988879 1_555
Fe8 O36 2.049539 1_555
Fe8 O61 2.056700 1_555
Fe9 O122 1.979918 1_455
Fe9 O82 1.988879 1_455
Fe9 O37 2.049539 1_555
Fe9 O60 2.056700 1_455
Fe10 O121 1.979918 1_565
Fe10 O81 1.988879 1_565
Fe10 O38 2.049539 1_565
Fe10 O63 2.056700 1_555
Fe11 O120 1.979918 1_645
Fe11 O80 1.988879 1_645
Fe11 O39 2.049539 1_545
Fe11 O62 2.056700 1_655
Fe12 O9 2.015135 1_554
Fe12 O13 2.015135 1_545
Fe12 O118 2.031497 1_554
Fe12 O114 2.031497 1_545
Fe13 O8 2.015135 1_545
Fe13 O12 2.015135 1_455
Fe13 O115 2.031497 1_555
Fe13 O119 2.031497 1_445
Fe14 O11 2.015135 1_555
Fe14 O15 2.015135 1_555
Fe14 O112 2.031497 1_555
Fe14 O116 2.031497 1_555
Fe15 O14 2.015135 1_554
Fe15 O10 2.015135 1_455
Fe15 O117 2.031497 1_555
Fe15 O113 2.031497 1_454
O0 P24 1.536585 1_555
O1 P25 1.536585 1_555
O2 P26 1.536585 1_555
O3 P27 1.536585 1_555
O4 P28 1.536585 1_555
O5 P29 1.536585 1_555
O6 P30 1.536585 1_555
O7 P31 1.536585 1_555
O8 P24 1.571633 1_555
O9 P25 1.571633 1_555
O10 P26 1.571633 1_555
O11 P27 1.571633 1_555
O12 P28 1.571633 1_555
O13 P29 1.571633 1_555
O14 P30 1.571633 1_555
O15 P31 1.571633 1_555
O16 P16 1.540869 1_555
O17 P17 1.540869 1_555
O18 P18 1.540869 1_555
O19 P19 1.540869 1_555
O20 P20 1.540869 1_555
O21 P21 1.540869 1_555
O22 P22 1.540869 1_555
O23 P23 1.540869 1_555
O24 P0 1.566205 1_555
O25 P1 1.566205 1_555
O26 P2 1.566205 1_555
O27 P3 1.566205 1_555
O28 P4 1.566205 1_555
O29 P5 1.566205 1_555
O30 P6 1.566205 1_555
O31 P7 1.566205 1_555
O32 P16 1.580379 1_555
O33 P17 1.580379 1_555
O34 P18 1.580379 1_555
O35 P19 1.580379 1_555
O36 P20 1.580379 1_555
O37 P21 1.580379 1_555
O38 P22 1.580379 1_555
O39 P23 1.580379 1_555
O40 P8 1.534617 1_555
O41 P9 1.534617 1_555
O42 P10 1.534617 1_555
O43 P11 1.534617 1_555
O44 P12 1.534617 1_555
O45 P13 1.534617 1_555
O46 P14 1.534617 1_555
O47 P15 1.534617 1_555
O48 P16 1.541879 1_555
O49 P17 1.541879 1_555
O50 P18 1.541879 1_555
O51 P19 1.541879 1_555
O52 P20 1.541879 1_555
O53 P21 1.541879 1_555
O54 P22 1.541879 1_555
O55 P23 1.541879 1_555
O56 P16 1.581253 1_555
O57 P17 1.581253 1_555
O58 P18 1.581253 1_555
O59 P19 1.581253 1_555
O60 P20 1.581253 1_555
O61 P21 1.581253 1_555
O62 P22 1.581253 1_555
O63 P23 1.581253 1_555
O64 P24 1.534781 1_555
O65 P25 1.534781 1_555
O66 P26 1.534781 1_555
O67 P27 1.534781 1_555
O68 P28 1.534781 1_555
O69 P29 1.534781 1_555
O70 P30 1.534781 1_555
O71 P31 1.534781 1_555
O72 P0 1.534909 1_555
O73 P1 1.534909 1_555
O74 P2 1.534909 1_555
O75 P3 1.534909 1_555
O76 P4 1.534909 1_555
O77 P5 1.534909 1_555
O78 P6 1.534909 1_555
O79 P7 1.534909 1_555
O80 P24 1.577683 1_555
O81 P25 1.577683 1_555
O82 P26 1.577683 1_555
O83 P27 1.577683 1_555
O84 P28 1.577683 1_555
O85 P29 1.577683 1_555
O86 P30 1.577683 1_555
O87 P31 1.577683 1_555
O88 P13 1.576599 1_555
O89 P12 1.576599 1_556
O90 P15 1.576599 1_554
O91 P14 1.576599 1_555
O92 P9 1.576599 1_555
O93 P8 1.576599 1_554
O94 P11 1.576599 1_556
O95 P10 1.576599 1_555
O96 P13 1.534693 1_555
O97 P12 1.534693 1_556
O98 P15 1.534693 1_554
O99 P14 1.534693 1_555
O100 P9 1.534693 1_555
O101 P8 1.534693 1_554
O102 P11 1.534693 1_556
O103 P10 1.534693 1_555
O104 P0 1.537057 1_555
O105 P1 1.537057 1_555
O106 P2 1.537057 1_555
O107 P3 1.537057 1_555
O108 P4 1.537057 1_555
O109 P5 1.537057 1_555
O110 P6 1.537057 1_555
O111 P7 1.537057 1_555
O112 P13 1.580951 1_555
O113 P12 1.580951 1_556
O114 P15 1.580951 1_554
O115 P14 1.580951 1_555
O116 P9 1.580951 1_555
O117 P8 1.580951 1_554
O118 P11 1.580951 1_556
O119 P10 1.580951 1_555
O120 P0 1.576635 1_555
O121 P1 1.576635 1_555
O122 P2 1.576635 1_555
O123 P3 1.576635 1_555
O124 P4 1.576635 1_555
O125 P5 1.576635 1_555
O126 P6 1.576635 1_555
O127 P7 1.576635 1_555
F0 Fe10 2.047959 1_555
F0 Na71 2.279553 1_555
F0 Na14 2.403835 1_555
F0 Na55 2.491836 1_555
F0 Na72 2.598719 1_555
F0 Na32 2.781690 1_555
F1 Fe11 2.047959 1_555
F1 Na70 2.279553 1_655
F1 Na15 2.403835 1_555
F1 Na54 2.491836 1_555
F1 Na73 2.598719 1_555
F1 Na33 2.781690 1_555
F2 Fe8 2.047959 1_555
F2 Na69 2.279553 1_555
F2 Na12 2.403835 1_555
F2 Na53 2.491836 1_555
F2 Na74 2.598719 1_555
F2 Na34 2.781690 1_555
F3 Fe9 2.047959 1_555
F3 Na68 2.279553 1_455
F3 Na13 2.403835 1_555
F3 Na52 2.491836 1_555
F3 Na75 2.598719 1_555
F3 Na35 2.781690 1_555
F4 Fe6 2.047959 1_555
F4 Na67 2.279553 1_555
F4 Na10 2.403835 1_555
F4 Na51 2.491836 1_555
F4 Na76 2.598719 1_555
F4 Na36 2.781690 1_555
F5 Fe7 2.047959 1_555
F5 Na66 2.279553 1_455
F5 Na11 2.403835 1_555
F5 Na50 2.491836 1_555
F5 Na77 2.598719 1_555
F5 Na37 2.781690 1_555
F6 Fe4 2.047959 1_555
F6 Na65 2.279553 1_555
F6 Na8 2.403835 1_555
F6 Na49 2.491836 1_555
F6 Na78 2.598719 1_555
F6 Na38 2.781690 1_555
F7 Fe5 2.047959 1_555
F7 Na64 2.279553 1_655
F7 Na9 2.403835 1_555
F7 Na48 2.491836 1_555
F7 Na79 2.598719 1_555
F7 Na39 2.781690 1_555
F8 Fe10 2.039656 1_555
F8 Na56 2.287409 1_555
F8 Na23 2.352120 1_555
F8 Na72 2.500897 1_555
F8 Na55 2.647152 1_555
F8 Na0 2.679401 1_555
F9 Fe11 2.039656 1_555
F9 Na57 2.287409 1_555
F9 Na22 2.352120 1_655
F9 Na73 2.500897 1_555
F9 Na54 2.647152 1_555
F9 Na1 2.679401 1_555
F10 Fe8 2.039656 1_555
F10 Na58 2.287409 1_555
F10 Na21 2.352120 1_555
F10 Na74 2.500897 1_555
F10 Na53 2.647152 1_555
F10 Na2 2.679401 1_555
F11 Fe9 2.039656 1_555
F11 Na59 2.287409 1_555
F11 Na20 2.352120 1_455
F11 Na75 2.500897 1_555
F11 Na52 2.647152 1_555
F11 Na3 2.679401 1_555
F12 Fe6 2.039656 1_555
F12 Na60 2.287409 1_555
F12 Na19 2.352120 1_555
F12 Na76 2.500897 1_555
F12 Na51 2.647152 1_555
F12 Na4 2.679401 1_555
F13 Fe7 2.039656 1_555
F13 Na61 2.287409 1_555
F13 Na18 2.352120 1_455
F13 Na77 2.500897 1_555
F13 Na50 2.647152 1_555
F13 Na5 2.679401 1_555
F14 Fe4 2.039656 1_555
F14 Na62 2.287409 1_555
F14 Na17 2.352120 1_555
F14 Na78 2.500897 1_555
F14 Na49 2.647152 1_555
F14 Na6 2.679401 1_555
F15 Fe5 2.039656 1_555
F15 Na63 2.287409 1_555
F15 Na16 2.352120 1_655
F15 Na79 2.500897 1_555
F15 Na48 2.647152 1_555
F15 Na7 2.679401 1_555
F16 Fe12 2.010019 1_566
F16 Na45 2.216988 1_556
F16 Na29 2.342328 1_556
F16 Na23 2.481852 1_555
F17 Fe13 2.010019 1_655
F17 Na44 2.216988 1_655
F17 Na28 2.342328 1_555
F17 Na22 2.481852 1_655
F18 Fe14 2.010019 1_555
F18 Na47 2.216988 1_555
F18 Na31 2.342328 1_555
F18 Na21 2.481852 1_555
F19 Fe15 2.010019 1_555
F19 Na46 2.216988 1_454
F19 Na30 2.342328 1_554
F19 Na20 2.481852 1_455
F20 Fe12 2.010019 1_555
F20 Na41 2.216988 1_554
F20 Na25 2.342328 1_554
F20 Na19 2.481852 1_555
F21 Fe13 2.010019 1_565
F21 Na40 2.216988 1_455
F21 Na24 2.342328 1_555
F21 Na18 2.481852 1_455
F22 Fe14 2.010019 1_555
F22 Na43 2.216988 1_555
F22 Na27 2.342328 1_555
F22 Na17 2.481852 1_555
F23 Fe15 2.010019 1_656
F23 Na42 2.216988 1_656
F23 Na26 2.342328 1_556
F23 Na16 2.481852 1_655
F24 Fe2 1.992206 1_565
F24 Na24 2.236120 1_555
F24 Na47 2.280728 1_555
F24 Na14 2.444849 1_555
F24 Na71 2.706754 1_555
F24 Na32 2.859121 1_555
F25 Fe3 1.992206 1_656
F25 Na25 2.236120 1_555
F25 Na46 2.280728 1_555
F25 Na15 2.444849 1_555
F25 Na70 2.706754 1_655
F25 Na33 2.859121 1_555
F26 Fe0 1.992206 1_555
F26 Na26 2.236120 1_555
F26 Na45 2.280728 1_555
F26 Na12 2.444849 1_555
F26 Na69 2.706754 1_555
F26 Na34 2.859121 1_555
F27 Fe1 1.992206 1_555
F27 Na27 2.236120 1_555
F27 Na44 2.280728 1_555
F27 Na13 2.444849 1_555
F27 Na68 2.706754 1_455
F27 Na35 2.859121 1_555
F28 Fe2 1.992206 1_555
F28 Na28 2.236120 1_555
F28 Na43 2.280728 1_555
F28 Na10 2.444849 1_555
F28 Na67 2.706754 1_555
F28 Na36 2.859121 1_555
F29 Fe3 1.992206 1_565
F29 Na29 2.236120 1_555
F29 Na42 2.280728 1_555
F29 Na11 2.444849 1_555
F29 Na66 2.706754 1_455
F29 Na37 2.859121 1_555
F30 Fe0 1.992206 1_556
F30 Na30 2.236120 1_555
F30 Na41 2.280728 1_555
F30 Na8 2.444849 1_555
F30 Na65 2.706754 1_555
F30 Na38 2.859121 1_555
F31 Fe1 1.992206 1_655
F31 Na31 2.236120 1_555
F31 Na40 2.280728 1_555
F31 Na9 2.444849 1_555
F31 Na64 2.706754 1_655
F31 Na39 2.859121 1_555
