# generated using pymatgen
data_Pr23Cd4Ni7
_symmetry_space_group_name_H-M   'P 1'
_cell_length_a   9.91834635
_cell_length_b   9.91834635
_cell_length_c   22.42974200
_cell_angle_alpha   90.00000000
_cell_angle_beta   90.00000000
_cell_angle_gamma   120.00000231
_symmetry_Int_Tables_number   1
_chemical_formula_structural   Pr23Cd4Ni7
_chemical_formula_sum   'Pr46 Cd8 Ni14'
_cell_volume   1910.88010613
_cell_formula_units_Z   2
loop_
 _symmetry_equiv_pos_site_id
 _symmetry_equiv_pos_as_xyz
  1  'x, y, z'
loop_
 _atom_site_type_symbol
 _atom_site_label
 _atom_site_symmetry_multiplicity
 _atom_site_fract_x
 _atom_site_fract_y
 _atom_site_fract_z
 _atom_site_occupancy
  Pr  Pr0  1  0.20603300  0.41206500  0.71986600  1
  Pr  Pr1  1  0.20603300  0.79396700  0.71986600  1
  Pr  Pr2  1  0.79396700  0.58793500  0.21986600  1
  Pr  Pr3  1  0.58793500  0.79396700  0.71986600  1
  Pr  Pr4  1  0.79396700  0.20603300  0.21986600  1
  Pr  Pr5  1  0.41206500  0.20603300  0.21986600  1
  Pr  Pr6  1  0.79317200  0.58634300  0.94686400  1
  Pr  Pr7  1  0.79317200  0.20682800  0.94686400  1
  Pr  Pr8  1  0.20682800  0.41365700  0.44686400  1
  Pr  Pr9  1  0.41365700  0.20682800  0.94686400  1
  Pr  Pr10  1  0.20682800  0.79317200  0.44686400  1
  Pr  Pr11  1  0.58634300  0.79317200  0.44686400  1
  Pr  Pr12  1  0.21104400  0.42208800  0.99054000  1
  Pr  Pr13  1  0.21104400  0.78895600  0.99054000  1
  Pr  Pr14  1  0.78895600  0.57791200  0.49054000  1
  Pr  Pr15  1  0.57791200  0.78895600  0.99054000  1
  Pr  Pr16  1  0.78895600  0.21104400  0.49054000  1
  Pr  Pr17  1  0.42208800  0.21104400  0.49054000  1
  Pr  Pr18  1  0.87302400  0.74604800  0.63374800  1
  Pr  Pr19  1  0.87302400  0.12697600  0.63374800  1
  Pr  Pr20  1  0.12697600  0.25395200  0.13374800  1
  Pr  Pr21  1  0.25395200  0.12697600  0.63374800  1
  Pr  Pr22  1  0.12697600  0.87302400  0.13374800  1
  Pr  Pr23  1  0.74604800  0.87302400  0.13374800  1
  Pr  Pr24  1  0.45756100  0.91512300  0.85581100  1
  Pr  Pr25  1  0.45756100  0.54243900  0.85581100  1
  Pr  Pr26  1  0.54243900  0.08487700  0.35581100  1
  Pr  Pr27  1  0.08487700  0.54243900  0.85581100  1
  Pr  Pr28  1  0.54243900  0.45756100  0.35581100  1
  Pr  Pr29  1  0.91512300  0.45756100  0.35581100  1
  Pr  Pr30  1  0.00000000  0.00000000  0.99870100  1
  Pr  Pr31  1  0.00000000  0.00000000  0.49870100  1
  Pr  Pr32  1  0.46043900  0.92087900  0.58583200  1
  Pr  Pr33  1  0.46043900  0.53956100  0.58583200  1
  Pr  Pr34  1  0.53956100  0.07912100  0.08583200  1
  Pr  Pr35  1  0.07912100  0.53956100  0.58583200  1
  Pr  Pr36  1  0.53956100  0.46043900  0.08583200  1
  Pr  Pr37  1  0.92087900  0.46043900  0.08583200  1
  Pr  Pr38  1  0.79716600  0.59433300  0.78244200  1
  Pr  Pr39  1  0.79716600  0.20283400  0.78244200  1
  Pr  Pr40  1  0.20283400  0.40566700  0.28244200  1
  Pr  Pr41  1  0.40566700  0.20283400  0.78244200  1
  Pr  Pr42  1  0.20283400  0.79716600  0.28244200  1
  Pr  Pr43  1  0.59433300  0.79716600  0.28244200  1
  Pr  Pr44  1  0.66666700  0.33333300  0.64558600  1
  Pr  Pr45  1  0.33333300  0.66666700  0.14558600  1
  Cd  Cd0  1  0.00000000  0.00000000  0.74905400  1
  Cd  Cd1  1  0.00000000  0.00000000  0.24905400  1
  Cd  Cd2  1  0.10655700  0.21311300  0.86313200  1
  Cd  Cd3  1  0.10655700  0.89344300  0.86313200  1
  Cd  Cd4  1  0.89344300  0.78688700  0.36313200  1
  Cd  Cd5  1  0.78688700  0.89344300  0.86313200  1
  Cd  Cd6  1  0.89344300  0.10655700  0.36313200  1
  Cd  Cd7  1  0.21311300  0.10655700  0.36313200  1
  Ni  Ni0  1  0.52121100  0.04242200  0.71063700  1
  Ni  Ni1  1  0.52121100  0.47878900  0.71063700  1
  Ni  Ni2  1  0.47878900  0.95757800  0.21063700  1
  Ni  Ni3  1  0.95757800  0.47878900  0.71063700  1
  Ni  Ni4  1  0.47878900  0.52121100  0.21063700  1
  Ni  Ni5  1  0.04242200  0.52121100  0.21063700  1
  Ni  Ni6  1  0.66666700  0.33333300  0.86327000  1
  Ni  Ni7  1  0.33333300  0.66666700  0.36327000  1
  Ni  Ni8  1  0.14278000  0.28556000  0.56449700  1
  Ni  Ni9  1  0.14278000  0.85722000  0.56449700  1
  Ni  Ni10  1  0.85722000  0.71444000  0.06449700  1
  Ni  Ni11  1  0.71444000  0.85722000  0.56449700  1
  Ni  Ni12  1  0.85722000  0.14278000  0.06449700  1
  Ni  Ni13  1  0.28556000  0.14278000  0.06449700  1
loop_
_geom_bond_atom_site_label_1
_geom_bond_atom_site_label_2
_geom_bond_distance
_geom_bond_site_symmetry_2
Cd0 Cd5 3.146115 1_445
Cd0 Cd2 3.146115 1_555
Cd0 Cd3 3.146120 1_545
Cd0 Pr21 3.383352 1_555
Cd0 Pr18 3.383352 1_445
Cd0 Pr19 3.383352 1_455
Cd0 Pr41 3.564059 1_555
Cd0 Pr38 3.564059 1_445
Cd0 Pr39 3.564068 1_455
Cd0 Pr0 3.599486 1_555
Cd0 Pr3 3.599486 1_445
Cd0 Pr1 3.599495 1_545
Cd1 Cd7 3.146115 1_555
Cd1 Cd4 3.146115 1_445
Cd1 Cd6 3.146120 1_455
Cd1 Pr20 3.383352 1_555
Cd1 Pr23 3.383352 1_445
Cd1 Pr22 3.383352 1_545
Cd1 Pr40 3.564059 1_555
Cd1 Pr43 3.564059 1_445
Cd1 Pr42 3.564068 1_545
Cd1 Pr5 3.599486 1_555
Cd1 Pr2 3.599486 1_445
Cd1 Pr4 3.599495 1_455
Cd2 Cd5 3.170598 1_445
Cd2 Cd3 3.170598 1_545
Cd2 Pr12 3.374705 1_555
Cd2 Pr25 3.382996 1_555
Cd2 Pr27 3.383007 1_555
Cd2 Pr41 3.519886 1_555
Cd2 Pr39 3.519903 1_455
Cd2 Pr30 3.549256 1_555
Cd2 Pr7 3.605361 1_455
Cd2 Pr9 3.605361 1_555
Cd2 Pr0 3.639564 1_555
Cd3 Cd5 3.170598 1_455
Cd3 Pr13 3.374701 1_555
Cd3 Pr27 3.382987 1_555
Cd3 Pr24 3.382987 1_555
Cd3 Pr41 3.519895 1_565
Cd3 Pr38 3.519895 1_455
Cd3 Pr30 3.549260 1_565
Cd3 Pr9 3.605360 1_565
Cd3 Pr6 3.605360 1_455
Cd3 Pr1 3.639564 1_555
Cd4 Cd7 3.170598 1_665
Cd4 Cd6 3.170598 1_565
Cd4 Pr14 3.374705 1_555
Cd4 Pr28 3.382996 1_555
Cd4 Pr29 3.383007 1_555
Cd4 Pr43 3.519886 1_555
Cd4 Pr42 3.519903 1_655
Cd4 Pr31 3.549256 1_665
Cd4 Pr10 3.605361 1_655
Cd4 Pr11 3.605361 1_555
Cd4 Pr2 3.639564 1_555
Cd5 Pr15 3.374705 1_555
Cd5 Pr25 3.382996 1_555
Cd5 Pr24 3.383007 1_555
Cd5 Pr38 3.519886 1_555
Cd5 Pr39 3.519903 1_565
Cd5 Pr30 3.549256 1_665
Cd5 Pr7 3.605361 1_565
Cd5 Pr6 3.605361 1_555
Cd5 Pr3 3.639564 1_555
Cd6 Cd7 3.170598 1_655
Cd6 Pr16 3.374701 1_555
Cd6 Pr26 3.382987 1_555
Cd6 Pr29 3.382987 1_555
Cd6 Pr40 3.519895 1_655
Cd6 Pr43 3.519895 1_545
Cd6 Pr31 3.549260 1_655
Cd6 Pr8 3.605360 1_655
Cd6 Pr11 3.605360 1_545
Cd6 Pr4 3.639564 1_555
Cd7 Pr17 3.374705 1_555
Cd7 Pr28 3.382996 1_555
Cd7 Pr26 3.383007 1_555
Cd7 Pr40 3.519886 1_555
Cd7 Pr42 3.519903 1_545
Cd7 Pr31 3.549256 1_555
Cd7 Pr10 3.605361 1_545
Cd7 Pr8 3.605361 1_555
Cd7 Pr5 3.639564 1_555
Ni0 Pr1 2.860804 1_545
Ni0 Pr3 2.860811 1_545
Ni0 Pr39 2.874350 1_555
Ni0 Pr41 2.874357 1_555
Ni0 Pr44 2.893590 1_555
Ni0 Pr32 2.987685 1_545
Ni0 Pr24 3.434902 1_545
Ni0 Pr19 3.595435 1_555
Ni0 Pr21 3.595435 1_555
Ni1 Pr0 2.860801 1_555
Ni1 Pr3 2.860801 1_555
Ni1 Pr38 2.874349 1_555
Ni1 Pr41 2.874349 1_555
Ni1 Pr44 2.893598 1_555
Ni1 Pr33 2.987688 1_555
Ni1 Pr25 3.434904 1_555
Ni1 Pr18 3.595435 1_555
Ni1 Pr21 3.595435 1_555
Ni2 Pr4 2.860804 1_565
Ni2 Pr5 2.860811 1_565
Ni2 Pr42 2.874350 1_555
Ni2 Pr43 2.874357 1_555
Ni2 Pr45 2.893590 1_555
Ni2 Pr34 2.987685 1_565
Ni2 Pr26 3.434902 1_565
Ni2 Pr22 3.595435 1_555
Ni2 Pr23 3.595435 1_555
Ni3 Pr1 2.860804 1_655
Ni3 Pr0 2.860811 1_655
Ni3 Pr39 2.874350 1_555
Ni3 Pr38 2.874357 1_555
Ni3 Pr44 2.893590 1_555
Ni3 Pr35 2.987685 1_655
Ni3 Pr27 3.434902 1_655
Ni3 Pr19 3.595435 1_555
Ni3 Pr18 3.595435 1_555
Ni4 Pr5 2.860801 1_555
Ni4 Pr2 2.860801 1_555
Ni4 Pr43 2.874349 1_555
Ni4 Pr40 2.874349 1_555
Ni4 Pr45 2.893598 1_555
Ni4 Pr36 2.987688 1_555
Ni4 Pr28 3.434904 1_555
Ni4 Pr23 3.595435 1_555
Ni4 Pr20 3.595435 1_555
Ni5 Pr4 2.860804 1_455
Ni5 Pr2 2.860811 1_455
Ni5 Pr42 2.874350 1_555
Ni5 Pr40 2.874357 1_555
Ni5 Pr45 2.893590 1_555
Ni5 Pr37 2.987685 1_455
Ni5 Pr29 3.434902 1_455
Ni5 Pr22 3.595435 1_555
Ni5 Pr20 3.595435 1_555
Ni6 Pr6 2.870290 1_555
Ni6 Pr9 2.870290 1_555
Ni6 Pr7 2.870290 1_555
Ni6 Pr39 2.883175 1_555
Ni6 Pr41 2.883188 1_555
Ni6 Pr38 2.883188 1_555
Ni6 Pr27 3.596125 1_655
Ni6 Pr24 3.596125 1_545
Ni6 Pr25 3.596143 1_555
Ni7 Pr11 2.870290 1_555
Ni7 Pr8 2.870290 1_555
Ni7 Pr10 2.870290 1_555
Ni7 Pr42 2.883175 1_555
Ni7 Pr40 2.883188 1_555
Ni7 Pr43 2.883188 1_555
Ni7 Pr26 3.596125 1_565
Ni7 Pr29 3.596125 1_455
Ni7 Pr28 3.596143 1_555
Ni8 Pr19 2.799433 1_455
Ni8 Pr21 2.799434 1_555
Ni8 Pr8 2.858708 1_555
Ni8 Pr31 2.862572 1_555
Ni8 Pr33 2.926599 1_555
Ni8 Pr35 2.926606 1_555
Ni8 Pr16 3.608300 1_455
Ni8 Pr17 3.608300 1_555
Ni9 Pr21 2.799433 1_565
Ni9 Pr18 2.799433 1_455
Ni9 Pr10 2.858705 1_555
Ni9 Pr31 2.862572 1_565
Ni9 Pr32 2.926596 1_555
Ni9 Pr35 2.926596 1_555
Ni9 Pr17 3.608300 1_565
Ni9 Pr14 3.608300 1_455
Ni10 Pr22 2.799433 1_655
Ni10 Pr23 2.799434 1_555
Ni10 Pr6 2.858708 1_554
Ni10 Pr30 2.862572 1_664
Ni10 Pr36 2.926599 1_555
Ni10 Pr37 2.926606 1_555
Ni10 Pr13 3.608300 1_654
Ni10 Pr15 3.608300 1_554
Ni11 Pr19 2.799433 1_565
Ni11 Pr18 2.799434 1_555
Ni11 Pr11 2.858708 1_555
Ni11 Pr31 2.862572 1_665
Ni11 Pr33 2.926599 1_555
Ni11 Pr32 2.926606 1_555
Ni11 Pr16 3.608300 1_565
Ni11 Pr14 3.608300 1_555
Ni12 Pr20 2.799433 1_655
Ni12 Pr23 2.799433 1_545
Ni12 Pr7 2.858705 1_554
Ni12 Pr30 2.862572 1_654
Ni12 Pr37 2.926596 1_555
Ni12 Pr34 2.926596 1_555
Ni12 Pr12 3.608300 1_654
Ni12 Pr15 3.608300 1_544
Ni13 Pr22 2.799433 1_545
Ni13 Pr20 2.799434 1_555
Ni13 Pr9 2.858708 1_554
Ni13 Pr30 2.862572 1_554
Ni13 Pr36 2.926599 1_555
Ni13 Pr34 2.926606 1_555
Ni13 Pr13 3.608300 1_544
Ni13 Pr12 3.608300 1_554
