# generated using pymatgen
data_Sm(Fe5Re)2
_symmetry_space_group_name_H-M   'P 1'
_cell_length_a   4.70058600
_cell_length_b   6.51564705
_cell_length_c   6.51564705
_cell_angle_alpha   96.13569529
_cell_angle_beta   111.14412606
_cell_angle_gamma   68.85587394
_symmetry_Int_Tables_number   1
_chemical_formula_structural   Sm(Fe5Re)2
_chemical_formula_sum   'Sm1 Fe10 Re2'
_cell_volume   173.52968475
_cell_formula_units_Z   1
loop_
 _symmetry_equiv_pos_site_id
 _symmetry_equiv_pos_as_xyz
  1  'x, y, z'
loop_
 _atom_site_type_symbol
 _atom_site_label
 _atom_site_symmetry_multiplicity
 _atom_site_fract_x
 _atom_site_fract_y
 _atom_site_fract_z
 _atom_site_occupancy
  Sm  Sm0  1  0.00000000  0.00000000  0.00000000  1
  Fe  Fe0  1  0.72189900  0.77810100  0.22189900  1
  Fe  Fe1  1  0.27810100  0.22189900  0.77810100  1
  Fe  Fe2  1  0.50000000  0.76714300  0.76714300  1
  Fe  Fe3  1  0.50000000  0.23285700  0.23285700  1
  Fe  Fe4  1  0.50000000  0.00000000  0.50000000  1
  Fe  Fe5  1  0.00000000  0.00000000  0.50000000  1
  Fe  Fe6  1  0.50000000  0.50000000  0.00000000  1
  Fe  Fe7  1  0.00000000  0.50000000  0.00000000  1
  Fe  Fe8  1  0.64021300  0.35978700  0.64021300  1
  Fe  Fe9  1  0.35978700  0.64021300  0.35978700  1
  Re  Re0  1  0.00000000  0.35788600  0.35788600  1
  Re  Re1  1  0.00000000  0.64211400  0.64211400  1
loop_
_geom_bond_atom_site_label_1
_geom_bond_atom_site_label_2
_geom_bond_distance
_geom_bond_site_symmetry_2
Fe0 Fe7 2.485406 1_655
Fe0 Fe6 2.485406 1_555
Fe0 Fe5 2.485406 1_665
Fe0 Fe4 2.485406 1_565
Fe0 Fe9 2.625009 1_655
Fe0 Fe9 2.625009 1_555
Fe0 Re0 2.662947 1_655
Fe0 Re1 2.662947 1_655
Fe0 Fe2 2.766126 1_554
Fe0 Fe3 2.766126 1_565
Fe0 Sm0 3.010570 1_665
Fe0 Sm0 3.010570 1_565
Fe1 Fe4 2.485406 1_555
Fe1 Fe5 2.485406 1_555
Fe1 Fe6 2.485406 1_556
Fe1 Fe7 2.485406 1_556
Fe1 Fe8 2.625009 1_555
Fe1 Fe8 2.625009 1_455
Fe1 Re0 2.662947 1_555
Fe1 Re1 2.662947 1_555
Fe1 Fe2 2.766126 1_545
Fe1 Fe3 2.766126 1_556
Fe1 Sm0 3.010570 1_556
Fe1 Sm0 3.010570 1_656
Fe2 Fe4 2.428208 1_565
Fe2 Fe6 2.428208 1_556
Fe2 Fe5 2.428208 1_565
Fe2 Fe7 2.428208 1_656
Fe2 Re1 2.590232 1_555
Fe2 Re1 2.590232 1_655
Fe2 Fe8 2.612482 1_555
Fe2 Fe9 2.612482 1_555
Fe2 Sm0 3.104138 1_566
Fe2 Sm0 3.104138 1_666
Fe3 Fe6 2.428208 1_555
Fe3 Fe4 2.428208 1_555
Fe3 Fe5 2.428208 1_655
Fe3 Fe7 2.428208 1_555
Fe3 Re0 2.590232 1_655
Fe3 Re0 2.590232 1_555
Fe3 Fe8 2.612482 1_555
Fe3 Fe9 2.612482 1_555
Fe3 Sm0 3.104138 1_655
Fe3 Sm0 3.104138 1_555
Fe4 Fe5 2.350293 1_555
Fe4 Fe5 2.350293 1_655
Fe4 Re1 2.599336 1_645
Fe4 Re0 2.599336 1_555
Fe4 Fe8 2.643283 1_555
Fe4 Fe9 2.643283 1_545
Fe4 Sm0 3.257824 1_555
Fe4 Sm0 3.257824 1_656
Fe5 Re1 2.599336 1_545
Fe5 Re0 2.599336 1_555
Fe5 Fe8 2.643283 1_455
Fe5 Fe9 2.643283 1_545
Fe5 Sm0 3.257824 1_556
Fe5 Sm0 3.257824 1_555
Fe6 Fe7 2.350293 1_655
Fe6 Fe7 2.350293 1_555
Fe6 Re1 2.599336 1_554
Fe6 Re0 2.599336 1_655
Fe6 Fe9 2.643283 1_555
Fe6 Fe8 2.643283 1_554
Fe6 Sm0 3.257824 1_655
Fe6 Sm0 3.257824 1_565
Fe7 Re1 2.599336 1_554
Fe7 Re0 2.599336 1_555
Fe7 Fe9 2.643283 1_555
Fe7 Fe8 2.643283 1_454
Fe7 Sm0 3.257824 1_555
Fe7 Sm0 3.257824 1_565
Fe8 Fe9 2.377625 1_555
Fe8 Re0 2.910101 1_555
Fe8 Re1 2.910101 1_555
Fe8 Re0 2.910101 1_655
Fe8 Re1 2.910101 1_655
Fe8 Sm0 3.050497 1_656
Fe9 Re0 2.910101 1_555
Fe9 Re1 2.910101 1_555
Fe9 Re0 2.910101 1_655
Fe9 Re1 2.910101 1_655
Fe9 Sm0 3.050497 1_565
Re0 Re1 2.475104 1_555
Re0 Sm0 3.116530 1_555
Re1 Sm0 3.116530 1_566
