# generated using pymatgen
data_Li5NiOF5
_symmetry_space_group_name_H-M   'P 1'
_cell_length_a   3.21052088
_cell_length_b   30.37666686
_cell_length_c   5.48527977
_cell_angle_alpha   84.95605955
_cell_angle_beta   90.06145433
_cell_angle_gamma   92.98010366
_symmetry_Int_Tables_number   1
_chemical_formula_structural   Li5NiOF5
_chemical_formula_sum   'Li20 Ni4 O4 F20'
_cell_volume   532.15599238
_cell_formula_units_Z   4
loop_
 _symmetry_equiv_pos_site_id
 _symmetry_equiv_pos_as_xyz
  1  'x, y, z'
loop_
 _atom_site_type_symbol
 _atom_site_label
 _atom_site_symmetry_multiplicity
 _atom_site_fract_x
 _atom_site_fract_y
 _atom_site_fract_z
 _atom_site_occupancy
  Li  Li0  1  0.33431800  0.66875200  0.33309000  1
  Li  Li1  1  0.58449500  0.16868700  0.08316900  1
  Li  Li2  1  0.83432300  0.66877400  0.83300300  1
  Li  Li3  1  0.08394200  0.16762500  0.58313300  1
  Li  Li4  1  0.41559800  0.83173300  0.25143800  1
  Li  Li5  1  0.66518900  0.33097300  0.00212900  1
  Li  Li6  1  0.91552500  0.83135900  0.75198900  1
  Li  Li7  1  0.16520900  0.33101200  0.50225500  1
  Li  Li8  1  0.87494500  0.75003700  0.45737300  1
  Li  Li9  1  0.12489700  0.24988400  0.20821300  1
  Li  Li10  1  0.37491200  0.74996300  0.95780400  1
  Li  Li11  1  0.62480700  0.24959400  0.70732200  1
  Li  Li12  1  0.79459100  0.58798400  0.53836600  1
  Li  Li13  1  0.04450400  0.08619100  0.28701700  1
  Li  Li14  1  0.29458400  0.58799000  0.03838000  1
  Li  Li15  1  0.54434300  0.08709100  0.78646200  1
  Li  Li16  1  0.95624700  0.91334700  0.37715200  1
  Li  Li17  1  0.20625000  0.41241100  0.12668900  1
  Li  Li18  1  0.45727300  0.91360500  0.87492300  1
  Li  Li19  1  0.70626900  0.41243000  0.62670800  1
  Ni  Ni0  1  0.74645900  0.49549300  0.92016400  1
  Ni  Ni1  1  0.99882800  0.99555300  0.67203600  1
  Ni  Ni2  1  0.49446100  0.99653300  0.17370100  1
  Ni  Ni3  1  0.24649400  0.49547900  0.42010700  1
  O  O0  1  0.98643000  0.97915100  0.34583800  1
  O  O1  1  0.23826200  0.47810800  0.09362300  1
  O  O2  1  0.49144000  0.97950000  0.84346500  1
  O  O3  1  0.73829200  0.47812000  0.59366700  1
  F  F0  1  0.36557700  0.73133500  0.30215300  1
  F  F1  1  0.61544700  0.23126100  0.05271500  1
  F  F2  1  0.86559600  0.73139000  0.80194900  1
  F  F3  1  0.11519900  0.23073400  0.55178600  1
  F  F4  1  0.44702700  0.89472900  0.22031500  1
  F  F5  1  0.69685900  0.39355300  0.97118900  1
  F  F6  1  0.94722800  0.89398500  0.72078600  1
  F  F7  1  0.19687300  0.39356300  0.47129400  1
  F  F8  1  0.28565900  0.57013500  0.38248000  1
  F  F9  1  0.53498800  0.06616600  0.13064200  1
  F  F10  1  0.78565100  0.57013300  0.88249700  1
  F  F11  1  0.03644900  0.07149500  0.62967000  1
  F  F12  1  0.82541500  0.65033300  0.50659200  1
  F  F13  1  0.07503100  0.14908500  0.25406100  1
  F  F14  1  0.32541300  0.65034700  0.00656100  1
  F  F15  1  0.57535900  0.14997200  0.75921500  1
  F  F16  1  0.90635700  0.81284800  0.42503800  1
  F  F17  1  0.15621400  0.31253200  0.17599600  1
  F  F18  1  0.40639700  0.81270100  0.92590000  1
  F  F19  1  0.65620700  0.31239000  0.67570700  1
loop_
_geom_bond_atom_site_label_1
_geom_bond_atom_site_label_2
_geom_bond_distance
_geom_bond_site_symmetry_2
Li16 O0 1.988477 1_555
Li17 O1 1.985238 1_555
Li18 O2 1.991223 1_555
Li19 O3 1.985026 1_555
Ni0 O3 1.910828 1_555
Ni0 O1 1.916146 1_556
Ni0 O1 1.916344 1_656
Ni1 O0 1.898926 1_555
Ni1 O2 1.901488 1_555
Ni1 O2 1.902541 1_655
Ni2 O0 1.912260 1_455
Ni2 O0 1.913358 1_555
Ni2 O2 1.927006 1_554
Ni3 O1 1.910737 1_555
Ni3 O3 1.916273 1_455
Ni3 O3 1.916375 1_555
F0 Li0 1.891132 1_555
F0 Li10 1.923348 1_554
F0 Li8 1.925476 1_555
F0 Li8 1.926097 1_455
F1 Li1 1.890858 1_555
F1 Li9 1.925691 1_555
F1 Li9 1.925715 1_655
F1 Li11 1.926997 1_554
F2 Li2 1.892130 1_555
F2 Li8 1.924658 1_555
F2 Li10 1.925836 1_655
F2 Li10 1.926401 1_555
F3 Li3 1.907028 1_555
F3 Li9 1.922635 1_555
F3 Li11 1.928080 1_455
F3 Li11 1.928324 1_555
F4 Li4 1.903612 1_555
F4 Li16 1.928504 1_555
F4 Li16 1.929709 1_455
F4 Li18 1.930392 1_554
F5 Li5 1.891043 1_556
F5 Li19 1.925620 1_555
F5 Li17 1.927634 1_656
F5 Li17 1.928544 1_556
F6 Li6 1.892436 1_555
F6 Li16 1.924350 1_555
F6 Li18 1.932188 1_555
F6 Li18 1.932782 1_655
F7 Li7 1.890167 1_555
F7 Li17 1.926084 1_555
F7 Li19 1.927507 1_555
F7 Li19 1.928413 1_455
F8 Li14 1.917311 1_555
F8 Li12 1.918669 1_555
F8 Li12 1.919387 1_455
F8 Ni3 2.255977 1_555
F9 Li15 1.938120 1_554
F9 Li13 1.940857 1_655
F9 Li13 1.944152 1_555
F9 Ni2 2.104867 1_545
F10 Li12 1.917450 1_555
F10 Li14 1.918732 1_656
F10 Li14 1.919465 1_556
F10 Ni0 2.255494 1_555
F11 Li13 1.893151 1_555
F11 Li15 1.900345 1_555
F11 Li15 1.900697 1_455
F11 Ni1 2.295004 1_445
F12 Li12 1.884075 1_555
F12 Li2 1.922221 1_555
F12 Li0 1.923429 1_555
F12 Li0 1.924290 1_655
F13 Li13 1.900572 1_555
F13 Li1 1.926053 1_455
F13 Li1 1.926775 1_555
F13 Li3 1.937311 1_555
F14 Li14 1.884318 1_555
F14 Li0 1.922433 1_555
F14 Li2 1.923625 1_454
F14 Li2 1.924503 1_554
F15 Li15 1.900223 1_555
F15 Li1 1.912457 1_556
F15 Li3 1.924374 1_555
F15 Li3 1.925563 1_655
F16 Li8 1.898045 1_555
F16 Li6 1.925847 1_555
F16 Li4 1.926930 1_555
F16 Li4 1.928371 1_655
F17 Li9 1.893119 1_555
F17 Li7 1.921864 1_555
F17 Li5 1.924369 1_455
F17 Li5 1.925560 1_555
F18 Li10 1.895830 1_555
F18 Li4 1.924409 1_556
F18 Li6 1.925995 1_455
F18 Li6 1.927434 1_555
F19 Li11 1.897576 1_555
F19 Li5 1.923889 1_556
F19 Li7 1.924834 1_555
F19 Li7 1.925688 1_655
