# generated using pymatgen
data_Cr5S6
_symmetry_space_group_name_H-M   'P 1'
_cell_length_a   5.94485126
_cell_length_b   5.94485126
_cell_length_c   11.46075500
_cell_angle_alpha   90.00000000
_cell_angle_beta   90.00000000
_cell_angle_gamma   119.99999177
_symmetry_Int_Tables_number   1
_chemical_formula_structural   Cr5S6
_chemical_formula_sum   'Cr10 S12'
_cell_volume   350.77277821
_cell_formula_units_Z   2
loop_
 _symmetry_equiv_pos_site_id
 _symmetry_equiv_pos_as_xyz
  1  'x, y, z'
loop_
 _atom_site_type_symbol
 _atom_site_label
 _atom_site_symmetry_multiplicity
 _atom_site_fract_x
 _atom_site_fract_y
 _atom_site_fract_z
 _atom_site_occupancy
  Cr  Cr0  1  0.66666700  0.33333300  0.49572600  1
  Cr  Cr1  1  0.66666700  0.33333300  0.00427400  1
  Cr  Cr2  1  0.00000000  0.00000000  0.25000000  1
  Cr  Cr3  1  0.33333300  0.66666700  0.50427400  1
  Cr  Cr4  1  0.33333300  0.66666700  0.99572600  1
  Cr  Cr5  1  0.00000000  0.00000000  0.75000000  1
  Cr  Cr6  1  0.00000000  0.00000000  0.50000000  1
  Cr  Cr7  1  0.66666700  0.33333300  0.75000000  1
  Cr  Cr8  1  0.33333300  0.66666700  0.25000000  1
  Cr  Cr9  1  0.00000000  0.00000000  0.00000000  1
  S  S0  1  0.33930200  0.00724900  0.87634000  1
  S  S1  1  0.00724900  0.66794700  0.12366000  1
  S  S2  1  0.66794700  0.00724900  0.62366000  1
  S  S3  1  0.33930200  0.33205300  0.62366000  1
  S  S4  1  0.33205300  0.99275100  0.37634000  1
  S  S5  1  0.99275100  0.33205300  0.87634000  1
  S  S6  1  0.33205300  0.33930200  0.12366000  1
  S  S7  1  0.00724900  0.33930200  0.37634000  1
  S  S8  1  0.66069800  0.66794700  0.37634000  1
  S  S9  1  0.66069800  0.99275100  0.12366000  1
  S  S10  1  0.99275100  0.66069800  0.62366000  1
  S  S11  1  0.66794700  0.66069800  0.87634000  1
loop_
_geom_bond_atom_site_label_1
_geom_bond_atom_site_label_2
_geom_bond_distance
_geom_bond_site_symmetry_2
Cr0 S7 2.429193 1_655
Cr0 S4 2.429196 1_545
Cr0 S8 2.429198 1_555
Cr0 S2 2.433613 1_555
Cr0 S10 2.433616 1_555
Cr0 S3 2.433618 1_555
Cr1 S9 2.429193 1_545
Cr1 S1 2.429196 1_655
Cr1 S6 2.429198 1_555
Cr1 S5 2.433613 1_554
Cr1 S0 2.433616 1_554
Cr1 S11 2.433618 1_554
Cr2 S1 2.465804 1_545
Cr2 S4 2.465804 1_545
Cr2 S7 2.465804 1_555
Cr2 S9 2.465804 1_445
Cr2 S6 2.465804 1_555
Cr2 S8 2.465804 1_445
Cr3 S10 2.429193 1_455
Cr3 S2 2.429196 1_565
Cr3 S3 2.429198 1_555
Cr3 S4 2.433613 1_555
Cr3 S7 2.433616 1_555
Cr3 S8 2.433618 1_555
Cr4 S0 2.429193 1_565
Cr4 S5 2.429196 1_455
Cr4 S11 2.429198 1_555
Cr4 S1 2.433613 1_556
Cr4 S9 2.433616 1_556
Cr4 S6 2.433618 1_556
Cr5 S5 2.465804 1_455
Cr5 S2 2.465804 1_455
Cr5 S10 2.465804 1_445
Cr5 S0 2.465804 1_555
Cr5 S3 2.465804 1_555
Cr5 S11 2.465804 1_445
Cr6 S4 2.447894 1_545
Cr6 S2 2.447894 1_455
Cr6 S10 2.447894 1_445
Cr6 S7 2.447894 1_555
Cr6 S8 2.447894 1_445
Cr6 S3 2.447894 1_555
Cr7 S2 2.422651 1_555
Cr7 S5 2.422651 1_555
Cr7 S0 2.422653 1_555
Cr7 S10 2.422653 1_555
Cr7 S3 2.422655 1_555
Cr7 S11 2.422655 1_555
Cr8 S1 2.422651 1_555
Cr8 S4 2.422651 1_555
Cr8 S9 2.422653 1_555
Cr8 S7 2.422653 1_555
Cr8 S6 2.422655 1_555
Cr8 S8 2.422655 1_555
Cr9 S5 2.447894 1_454
Cr9 S1 2.447894 1_545
Cr9 S0 2.447894 1_554
Cr9 S9 2.447894 1_445
Cr9 S6 2.447894 1_555
Cr9 S11 2.447894 1_444
