# generated using pymatgen
data_Co6Mo6C
_symmetry_space_group_name_H-M   'P 1'
_cell_length_a   7.68243516
_cell_length_b   7.68243516
_cell_length_c   7.68243516
_cell_angle_alpha   60.00000000
_cell_angle_beta   60.00000000
_cell_angle_gamma   60.00000000
_symmetry_Int_Tables_number   1
_chemical_formula_structural   Co6Mo6C
_chemical_formula_sum   'Co12 Mo12 C2'
_cell_volume   320.61343211
_cell_formula_units_Z   2
loop_
 _symmetry_equiv_pos_site_id
 _symmetry_equiv_pos_as_xyz
  1  'x, y, z'
loop_
 _atom_site_type_symbol
 _atom_site_label
 _atom_site_symmetry_multiplicity
 _atom_site_fract_x
 _atom_site_fract_y
 _atom_site_fract_z
 _atom_site_occupancy
  Co  Co0  1  0.41738000  0.41738000  0.74786100  1
  Co  Co1  1  0.41738000  0.74786100  0.41738000  1
  Co  Co2  1  0.74786100  0.41738000  0.41738000  1
  Co  Co3  1  0.41738000  0.41738000  0.41738000  1
  Co  Co4  1  0.83262000  0.83262000  0.50213900  1
  Co  Co5  1  0.83262000  0.50213900  0.83262000  1
  Co  Co6  1  0.50213900  0.83262000  0.83262000  1
  Co  Co7  1  0.83262000  0.83262000  0.83262000  1
  Co  Co8  1  0.62500000  0.62500000  0.12500000  1
  Co  Co9  1  0.62500000  0.12500000  0.62500000  1
  Co  Co10  1  0.12500000  0.62500000  0.62500000  1
  Co  Co11  1  0.62500000  0.62500000  0.62500000  1
  Mo  Mo0  1  0.05186800  0.05186800  0.44813200  1
  Mo  Mo1  1  0.44813200  0.05186800  0.44813200  1
  Mo  Mo2  1  0.05186800  0.44813200  0.44813200  1
  Mo  Mo3  1  0.44813200  0.44813200  0.05186800  1
  Mo  Mo4  1  0.05186800  0.44813200  0.05186800  1
  Mo  Mo5  1  0.44813200  0.05186800  0.05186800  1
  Mo  Mo6  1  0.19813200  0.19813200  0.80186800  1
  Mo  Mo7  1  0.80186800  0.19813200  0.80186800  1
  Mo  Mo8  1  0.19813200  0.80186800  0.80186800  1
  Mo  Mo9  1  0.80186800  0.80186800  0.19813200  1
  Mo  Mo10  1  0.19813200  0.80186800  0.19813200  1
  Mo  Mo11  1  0.80186800  0.19813200  0.19813200  1
  C  C0  1  0.25000000  0.25000000  0.25000000  1
  C  C1  1  0.00000000  0.00000000  0.00000000  1
loop_
_geom_bond_atom_site_label_1
_geom_bond_atom_site_label_2
_geom_bond_distance
_geom_bond_site_symmetry_2
Co0 Co11 2.347813 1_555
Co0 Co10 2.347820 1_555
Co0 Co9 2.347820 1_555
Co0 Co1 2.538899 1_555
Co0 Co2 2.538899 1_555
Co0 Co3 2.538899 1_555
Co0 Mo3 2.593376 1_556
Co0 Mo4 2.593381 1_556
Co0 Mo5 2.593381 1_556
Co0 Mo7 2.699186 1_555
Co0 Mo8 2.699186 1_555
Co0 Mo6 2.699192 1_555
Co1 Co11 2.347813 1_555
Co1 Co10 2.347820 1_555
Co1 Co8 2.347820 1_555
Co1 Co2 2.538899 1_555
Co1 Co3 2.538899 1_555
Co1 Mo1 2.593376 1_565
Co1 Mo0 2.593381 1_565
Co1 Mo5 2.593381 1_565
Co1 Mo8 2.699186 1_555
Co1 Mo9 2.699186 1_555
Co1 Mo10 2.699192 1_555
Co2 Co9 2.347820 1_555
Co2 Co8 2.347820 1_555
Co2 Co3 2.538899 1_555
Co2 Mo2 2.593376 1_655
Co2 Mo0 2.593381 1_655
Co2 Mo4 2.593381 1_655
Co2 Mo7 2.699186 1_555
Co2 Mo9 2.699186 1_555
Co2 Mo11 2.699192 1_555
Co3 Co8 2.347815 1_555
Co3 Co9 2.347815 1_555
Co3 Mo2 2.593384 1_555
Co3 Mo3 2.593384 1_555
Co3 Mo1 2.593384 1_555
Co3 Mo11 2.699189 1_555
Co3 Mo6 2.699189 1_555
Co3 Mo10 2.699189 1_555
Co4 Co9 2.347820 1_565
Co4 Co7 2.538899 1_555
Co4 Co6 2.538899 1_555
Co4 Co5 2.538899 1_555
Co4 Mo9 2.593376 1_555
Co4 Mo10 2.593381 1_655
Co4 Mo11 2.593381 1_565
Co4 Mo1 2.699186 1_565
Co4 Mo2 2.699186 1_655
Co4 Mo0 2.699192 1_665
Co5 Co8 2.347820 1_556
Co5 Co7 2.538899 1_555
Co5 Co6 2.538899 1_555
Co5 Mo7 2.593376 1_555
Co5 Mo6 2.593381 1_655
Co5 Mo11 2.593381 1_556
Co5 Mo2 2.699186 1_655
Co5 Mo3 2.699186 1_556
Co5 Mo4 2.699192 1_656
Co6 Co9 2.347820 1_565
Co6 Co8 2.347820 1_556
Co6 Co7 2.538899 1_555
Co6 Mo8 2.593376 1_555
Co6 Mo6 2.593381 1_565
Co6 Mo10 2.593381 1_556
Co6 Mo1 2.699186 1_565
Co6 Mo3 2.699186 1_556
Co6 Mo5 2.699192 1_566
Co7 Co8 2.347815 1_556
Co7 Co9 2.347815 1_565
Co7 Mo9 2.593384 1_556
Co7 Mo7 2.593384 1_565
Co7 Mo8 2.593384 1_655
Co7 Mo4 2.699189 1_656
Co7 Mo5 2.699189 1_566
Co7 Mo0 2.699189 1_665
Co8 Mo9 2.716853 1_555
Co8 Mo3 2.716853 1_555
Co8 Mo10 2.716853 1_555
Co8 Mo11 2.716853 1_555
Co8 Mo5 2.716853 1_565
Co8 Mo4 2.716853 1_655
Co9 Mo7 2.716853 1_555
Co9 Mo5 2.716853 1_556
Co9 Mo6 2.716853 1_555
Co9 Mo0 2.716853 1_655
Co9 Mo11 2.716853 1_555
Co9 Mo1 2.716853 1_555
Co10 Co7 2.347815 1_455
Co10 Co3 2.347815 1_555
Co10 Co5 2.347820 1_455
Co10 Co4 2.347820 1_455
Co10 Mo0 2.716853 1_565
Co10 Mo2 2.716853 1_555
Co10 Mo6 2.716853 1_555
Co10 Mo10 2.716853 1_555
Co10 Mo8 2.716853 1_555
Co10 Mo4 2.716853 1_556
Co11 Co6 2.347813 1_555
Co11 Co5 2.347813 1_555
Co11 Co2 2.347813 1_555
Co11 Co4 2.347813 1_555
Co11 Mo9 2.716853 1_555
Co11 Mo3 2.716853 1_556
Co11 Mo2 2.716853 1_655
Co11 Mo7 2.716853 1_555
Co11 Mo1 2.716853 1_565
Co11 Mo8 2.716853 1_555
C0 Mo2 2.152626 1_555
C0 Mo3 2.152626 1_555
C0 Mo0 2.152626 1_555
C0 Mo4 2.152626 1_555
C0 Mo1 2.152626 1_555
C0 Mo5 2.152626 1_555
C1 Mo8 2.152626 1_544
C1 Mo11 2.152626 1_455
C1 Mo9 2.152626 1_445
C1 Mo10 2.152626 1_545
C1 Mo7 2.152626 1_454
C1 Mo6 2.152626 1_554
