# generated using pymatgen
data_RbCeMg30O32
_symmetry_space_group_name_H-M   'P 1'
_cell_length_a   8.69620600
_cell_length_b   8.69620600
_cell_length_c   8.78449500
_cell_angle_alpha   90.00000000
_cell_angle_beta   90.00000000
_cell_angle_gamma   90.00000000
_symmetry_Int_Tables_number   1
_chemical_formula_structural   RbCeMg30O32
_chemical_formula_sum   'Rb1 Ce1 Mg30 O32'
_cell_volume   664.31863929
_cell_formula_units_Z   1
loop_
 _symmetry_equiv_pos_site_id
 _symmetry_equiv_pos_as_xyz
  1  'x, y, z'
loop_
 _atom_site_type_symbol
 _atom_site_label
 _atom_site_symmetry_multiplicity
 _atom_site_fract_x
 _atom_site_fract_y
 _atom_site_fract_z
 _atom_site_occupancy
  Rb  Rb0  1  0.00000000  0.00000000  0.50000000  1
  Ce  Ce0  1  0.00000000  0.00000000  0.00000000  1
  Mg  Mg0  1  0.00000000  0.50000000  0.00000000  1
  Mg  Mg1  1  0.00000000  0.50000000  0.50000000  1
  Mg  Mg2  1  0.50000000  0.00000000  0.00000000  1
  Mg  Mg3  1  0.50000000  0.00000000  0.50000000  1
  Mg  Mg4  1  0.50000000  0.50000000  0.00000000  1
  Mg  Mg5  1  0.50000000  0.50000000  0.50000000  1
  Mg  Mg6  1  0.00000000  0.26206800  0.25631600  1
  Mg  Mg7  1  0.00000000  0.26206800  0.74368400  1
  Mg  Mg8  1  0.00000000  0.73793200  0.25631600  1
  Mg  Mg9  1  0.00000000  0.73793200  0.74368400  1
  Mg  Mg10  1  0.50000000  0.25133600  0.25148100  1
  Mg  Mg11  1  0.50000000  0.25133600  0.74851900  1
  Mg  Mg12  1  0.50000000  0.74866400  0.25148100  1
  Mg  Mg13  1  0.50000000  0.74866400  0.74851900  1
  Mg  Mg14  1  0.26206800  0.00000000  0.25631600  1
  Mg  Mg15  1  0.26206800  0.00000000  0.74368400  1
  Mg  Mg16  1  0.25133600  0.50000000  0.25148100  1
  Mg  Mg17  1  0.25133600  0.50000000  0.74851900  1
  Mg  Mg18  1  0.73793200  0.00000000  0.25631600  1
  Mg  Mg19  1  0.73793200  0.00000000  0.74368400  1
  Mg  Mg20  1  0.74866400  0.50000000  0.25148100  1
  Mg  Mg21  1  0.74866400  0.50000000  0.74851900  1
  Mg  Mg22  1  0.25778900  0.25778900  0.00000000  1
  Mg  Mg23  1  0.25396100  0.25396100  0.50000000  1
  Mg  Mg24  1  0.25778900  0.74221100  0.00000000  1
  Mg  Mg25  1  0.25396100  0.74603900  0.50000000  1
  Mg  Mg26  1  0.74221100  0.25778900  0.00000000  1
  Mg  Mg27  1  0.74603900  0.25396100  0.50000000  1
  Mg  Mg28  1  0.74221100  0.74221100  0.00000000  1
  Mg  Mg29  1  0.74603900  0.74603900  0.50000000  1
  O  O0  1  0.26783000  0.00000000  0.00000000  1
  O  O1  1  0.27997200  0.00000000  0.50000000  1
  O  O2  1  0.25369300  0.50000000  0.00000000  1
  O  O3  1  0.25591600  0.50000000  0.50000000  1
  O  O4  1  0.73217000  0.00000000  0.00000000  1
  O  O5  1  0.72002800  0.00000000  0.50000000  1
  O  O6  1  0.74630700  0.50000000  0.00000000  1
  O  O7  1  0.74408400  0.50000000  0.50000000  1
  O  O8  1  0.24905600  0.24905600  0.24971200  1
  O  O9  1  0.24905600  0.24905600  0.75028800  1
  O  O10  1  0.24905600  0.75094400  0.24971200  1
  O  O11  1  0.24905600  0.75094400  0.75028800  1
  O  O12  1  0.75094400  0.24905600  0.24971200  1
  O  O13  1  0.75094400  0.24905600  0.75028800  1
  O  O14  1  0.75094400  0.75094400  0.24971200  1
  O  O15  1  0.75094400  0.75094400  0.75028800  1
  O  O16  1  0.00000000  0.00000000  0.23836200  1
  O  O17  1  0.00000000  0.00000000  0.76163800  1
  O  O18  1  0.00000000  0.50000000  0.24616100  1
  O  O19  1  0.00000000  0.50000000  0.75383900  1
  O  O20  1  0.50000000  0.00000000  0.24616100  1
  O  O21  1  0.50000000  0.00000000  0.75383900  1
  O  O22  1  0.50000000  0.50000000  0.24831500  1
  O  O23  1  0.50000000  0.50000000  0.75168500  1
  O  O24  1  0.00000000  0.26783000  0.00000000  1
  O  O25  1  0.00000000  0.27997200  0.50000000  1
  O  O26  1  0.00000000  0.73217000  0.00000000  1
  O  O27  1  0.00000000  0.72002800  0.50000000  1
  O  O28  1  0.50000000  0.25369300  0.00000000  1
  O  O29  1  0.50000000  0.25591600  0.50000000  1
  O  O30  1  0.50000000  0.74630700  0.00000000  1
  O  O31  1  0.50000000  0.74408400  0.50000000  1
loop_
_geom_bond_atom_site_label_1
_geom_bond_atom_site_label_2
_geom_bond_distance
_geom_bond_site_symmetry_2
Ce0 O16 2.093890 1_555
Ce0 O17 2.093890 1_554
Ce0 O26 2.329105 1_545
Ce0 O4 2.329105 1_455
Ce0 O0 2.329105 1_555
Ce0 O24 2.329105 1_555
Mg0 O24 2.018998 1_555
Mg0 O26 2.018998 1_555
Mg0 O18 2.162400 1_555
Mg0 O19 2.162400 1_554
Mg0 O2 2.206167 1_555
Mg0 O6 2.206167 1_455
Mg1 O27 1.913409 1_555
Mg1 O25 1.913409 1_555
Mg1 O3 2.225498 1_555
Mg1 O7 2.225498 1_455
Mg1 O19 2.229847 1_555
Mg1 O18 2.229847 1_555
Mg2 O0 2.018998 1_555
Mg2 O4 2.018998 1_555
Mg2 O20 2.162400 1_555
Mg2 O21 2.162400 1_554
Mg2 O28 2.206167 1_555
Mg2 O30 2.206167 1_545
Mg3 O1 1.913409 1_555
Mg3 O5 1.913409 1_555
Mg3 O29 2.225498 1_555
Mg3 O31 2.225498 1_545
Mg3 O21 2.229847 1_555
Mg3 O20 2.229847 1_555
Mg4 O30 2.141936 1_555
Mg4 O6 2.141936 1_555
Mg4 O2 2.141936 1_555
Mg4 O28 2.141936 1_555
Mg4 O22 2.181322 1_555
Mg4 O23 2.181322 1_554
Mg5 O31 2.122605 1_555
Mg5 O7 2.122605 1_555
Mg5 O3 2.122605 1_555
Mg5 O29 2.122605 1_555
Mg5 O23 2.210926 1_555
Mg5 O22 2.210926 1_555
Mg6 O18 2.071028 1_555
Mg6 O25 2.146296 1_555
Mg6 O8 2.169572 1_555
Mg6 O12 2.169572 1_455
Mg6 O24 2.252164 1_555
Mg6 O16 2.284448 1_555
Mg7 O19 2.071028 1_555
Mg7 O25 2.146296 1_555
Mg7 O9 2.169572 1_555
Mg7 O13 2.169572 1_455
Mg7 O24 2.252164 1_556
Mg7 O17 2.284448 1_555
Mg8 O18 2.071028 1_555
Mg8 O27 2.146296 1_555
Mg8 O10 2.169572 1_555
Mg8 O14 2.169572 1_455
Mg8 O26 2.252164 1_555
Mg8 O16 2.284448 1_565
Mg9 O19 2.071028 1_555
Mg9 O27 2.146296 1_555
Mg9 O11 2.169572 1_555
Mg9 O15 2.169572 1_455
Mg9 O26 2.252164 1_556
Mg9 O17 2.284448 1_565
Mg10 O22 2.162612 1_555
Mg10 O12 2.182406 1_555
Mg10 O8 2.182406 1_555
Mg10 O29 2.183477 1_555
Mg10 O20 2.186169 1_555
Mg10 O28 2.209229 1_555
Mg11 O23 2.162612 1_555
Mg11 O13 2.182406 1_555
Mg11 O9 2.182406 1_555
Mg11 O29 2.183477 1_555
Mg11 O21 2.186169 1_555
Mg11 O28 2.209229 1_556
Mg12 O22 2.162612 1_555
Mg12 O14 2.182406 1_555
Mg12 O10 2.182406 1_555
Mg12 O31 2.183477 1_555
Mg12 O20 2.186169 1_565
Mg12 O30 2.209229 1_555
Mg13 O23 2.162612 1_555
Mg13 O15 2.182406 1_555
Mg13 O11 2.182406 1_555
Mg13 O31 2.183477 1_555
Mg13 O21 2.186169 1_565
Mg13 O30 2.209229 1_556
Mg14 O20 2.071028 1_555
Mg14 O1 2.146296 1_555
Mg14 O8 2.169572 1_555
Mg14 O10 2.169572 1_545
Mg14 O0 2.252164 1_555
Mg14 O16 2.284448 1_555
Mg15 O21 2.071028 1_555
Mg15 O1 2.146296 1_555
Mg15 O9 2.169572 1_555
Mg15 O11 2.169572 1_545
Mg15 O0 2.252164 1_556
Mg15 O17 2.284448 1_555
Mg16 O22 2.162612 1_555
Mg16 O10 2.182406 1_555
Mg16 O8 2.182406 1_555
Mg16 O3 2.183477 1_555
Mg16 O18 2.186169 1_555
Mg16 O2 2.209229 1_555
Mg17 O23 2.162612 1_555
Mg17 O11 2.182406 1_555
Mg17 O9 2.182406 1_555
Mg17 O3 2.183477 1_555
Mg17 O19 2.186169 1_555
Mg17 O2 2.209229 1_556
Mg18 O20 2.071028 1_555
Mg18 O5 2.146296 1_555
Mg18 O12 2.169572 1_555
Mg18 O14 2.169572 1_545
Mg18 O4 2.252164 1_555
Mg18 O16 2.284448 1_655
Mg19 O21 2.071028 1_555
Mg19 O5 2.146296 1_555
Mg19 O13 2.169572 1_555
Mg19 O15 2.169572 1_545
Mg19 O4 2.252164 1_556
Mg19 O17 2.284448 1_655
Mg20 O22 2.162612 1_555
Mg20 O14 2.182406 1_555
Mg20 O12 2.182406 1_555
Mg20 O7 2.183477 1_555
Mg20 O18 2.186169 1_655
Mg20 O6 2.209229 1_555
Mg21 O23 2.162612 1_555
Mg21 O15 2.182406 1_555
Mg21 O13 2.182406 1_555
Mg21 O7 2.183477 1_555
Mg21 O19 2.186169 1_655
Mg21 O6 2.209229 1_556
Mg22 O28 2.106618 1_555
Mg22 O2 2.106618 1_555
Mg22 O8 2.196221 1_555
Mg22 O9 2.196221 1_554
Mg22 O0 2.243486 1_555
Mg22 O24 2.243486 1_555
Mg23 O29 2.139673 1_555
Mg23 O3 2.139673 1_555
Mg23 O9 2.199481 1_555
Mg23 O8 2.199481 1_555
Mg23 O25 2.220051 1_555
Mg23 O1 2.220051 1_555
Mg24 O2 2.106618 1_555
Mg24 O30 2.106618 1_555
Mg24 O10 2.196221 1_555
Mg24 O11 2.196221 1_554
Mg24 O26 2.243486 1_555
Mg24 O0 2.243486 1_565
Mg25 O31 2.139673 1_555
Mg25 O3 2.139673 1_555
Mg25 O11 2.199481 1_555
Mg25 O10 2.199481 1_555
Mg25 O27 2.220051 1_555
Mg25 O1 2.220051 1_565
Mg26 O28 2.106618 1_555
Mg26 O6 2.106618 1_555
Mg26 O12 2.196221 1_555
Mg26 O13 2.196221 1_554
Mg26 O4 2.243486 1_555
Mg26 O24 2.243486 1_655
Mg27 O29 2.139673 1_555
Mg27 O7 2.139673 1_555
Mg27 O13 2.199481 1_555
Mg27 O12 2.199481 1_555
Mg27 O5 2.220051 1_555
Mg27 O25 2.220051 1_655
Mg28 O30 2.106618 1_555
Mg28 O6 2.106618 1_555
Mg28 O14 2.196221 1_555
Mg28 O15 2.196221 1_554
Mg28 O4 2.243486 1_565
Mg28 O26 2.243486 1_655
Mg29 O31 2.139673 1_555
Mg29 O7 2.139673 1_555
Mg29 O15 2.199481 1_555
Mg29 O14 2.199481 1_555
Mg29 O27 2.220051 1_655
Mg29 O5 2.220051 1_565
O1 Rb0 2.434694 1_555
O5 Rb0 2.434694 1_655
O16 Rb0 2.298358 1_555
O17 Rb0 2.298358 1_555
O25 Rb0 2.434694 1_555
O27 Rb0 2.434694 1_565
