# generated using pymatgen
data_Al(PO3)3
_symmetry_space_group_name_H-M   'P 1'
_cell_length_a   12.06083962
_cell_length_b   12.06083962
_cell_length_c   12.06083962
_cell_angle_alpha   109.47122063
_cell_angle_beta   109.47122063
_cell_angle_gamma   109.47122063
_symmetry_Int_Tables_number   1
_chemical_formula_structural   Al(PO3)3
_chemical_formula_sum   'Al8 P24 O72'
_cell_volume   1350.55021477
_cell_formula_units_Z   8
loop_
 _symmetry_equiv_pos_site_id
 _symmetry_equiv_pos_as_xyz
  1  'x, y, z'
loop_
 _atom_site_type_symbol
 _atom_site_label
 _atom_site_symmetry_multiplicity
 _atom_site_fract_x
 _atom_site_fract_y
 _atom_site_fract_z
 _atom_site_occupancy
  Al  Al0  1  0.50000000  0.00000000  0.21167400  1
  Al  Al1  1  0.71167400  0.50000000  0.00000000  1
  Al  Al2  1  0.00000000  0.71167400  0.50000000  1
  Al  Al3  1  0.78832600  0.78832600  0.78832600  1
  Al  Al4  1  0.00000000  0.21167400  0.50000000  1
  Al  Al5  1  0.28832600  0.28832600  0.28832600  1
  Al  Al6  1  0.21167400  0.50000000  0.00000000  1
  Al  Al7  1  0.50000000  0.00000000  0.71167400  1
  P  P0  1  0.04892600  0.33137000  0.11963600  1
  P  P1  1  0.21755600  0.78826600  0.16863000  1
  P  P2  1  0.57071000  0.28244400  0.45107400  1
  P  P3  1  0.92929000  0.38036400  0.71173400  1
  P  P4  1  0.38036400  0.71173400  0.92929000  1
  P  P5  1  0.16863000  0.21755600  0.78826600  1
  P  P6  1  0.11963600  0.04892600  0.33137000  1
  P  P7  1  0.33137000  0.11963600  0.04892600  1
  P  P8  1  0.28244400  0.45107400  0.57071000  1
  P  P9  1  0.61963600  0.83137000  0.54892600  1
  P  P10  1  0.71755600  0.66863000  0.28826600  1
  P  P11  1  0.95107400  0.78244400  0.07071000  1
  P  P12  1  0.54892600  0.61963600  0.83137000  1
  P  P13  1  0.07071000  0.95107400  0.78244400  1
  P  P14  1  0.66863000  0.28826600  0.71755600  1
  P  P15  1  0.71173400  0.92929000  0.38036400  1
  P  P16  1  0.78826600  0.16863000  0.21755600  1
  P  P17  1  0.45107400  0.57071000  0.28244400  1
  P  P18  1  0.42929000  0.21173400  0.88036400  1
  P  P19  1  0.28826600  0.71755600  0.66863000  1
  P  P20  1  0.78244400  0.07071000  0.95107400  1
  P  P21  1  0.83137000  0.54892600  0.61963600  1
  P  P22  1  0.21173400  0.88036400  0.42929000  1
  P  P23  1  0.88036400  0.42929000  0.21173400  1
  O  O0  1  0.69793200  0.58054200  0.15514700  1
  O  O1  1  0.15514700  0.69793200  0.58054200  1
  O  O2  1  0.95721500  0.88261000  0.80206800  1
  O  O3  1  0.57460500  0.91945800  0.61739000  1
  O  O4  1  0.34485300  0.92539500  0.54278500  1
  O  O5  1  0.58054200  0.15514700  0.69793200  1
  O  O6  1  0.11739000  0.41945800  0.07460500  1
  O  O7  1  0.84485300  0.04278500  0.42539500  1
  O  O8  1  0.38261000  0.45721500  0.30206800  1
  O  O9  1  0.42539500  0.84485300  0.04278500  1
  O  O10  1  0.41945800  0.07460500  0.11739000  1
  O  O11  1  0.08054200  0.19793200  0.65514700  1
  O  O12  1  0.19793200  0.65514700  0.08054200  1
  O  O13  1  0.04278500  0.42539500  0.84485300  1
  O  O14  1  0.30206800  0.38261000  0.45721500  1
  O  O15  1  0.45721500  0.30206800  0.38261000  1
  O  O16  1  0.07460500  0.11739000  0.41945800  1
  O  O17  1  0.80206800  0.95721500  0.88261000  1
  O  O18  1  0.92539500  0.54278500  0.34485300  1
  O  O19  1  0.61739000  0.57460500  0.91945800  1
  O  O20  1  0.88261000  0.80206800  0.95721500  1
  O  O21  1  0.91945800  0.61739000  0.57460500  1
  O  O22  1  0.54278500  0.34485300  0.92539500  1
  O  O23  1  0.65514700  0.08054200  0.19793200  1
  O  O24  1  0.72481200  0.41617500  0.84511400  1
  O  O25  1  0.19136300  0.12030100  0.27518800  1
  O  O26  1  0.84511400  0.72481200  0.41617500  1
  O  O27  1  0.42893800  0.08382500  0.80863700  1
  O  O28  1  0.65488600  0.07106200  0.87969900  1
  O  O29  1  0.41617500  0.84511400  0.72481200  1
  O  O30  1  0.30863700  0.58382500  0.92893800  1
  O  O31  1  0.15488600  0.37969900  0.57106200  1
  O  O32  1  0.77859700  0.28892800  0.19366400  1
  O  O33  1  0.41506700  0.22140300  0.01033200  1
  O  O34  1  0.71107200  0.40473500  0.48966800  1
  O  O35  1  0.09526500  0.80633600  0.08493300  1
  O  O36  1  0.40473500  0.48966800  0.71107200  1
  O  O37  1  0.01033200  0.41506700  0.22140300  1
  O  O38  1  0.80633600  0.08493300  0.09526500  1
  O  O39  1  0.98966800  0.90473500  0.21107200  1
  O  O40  1  0.58493300  0.30633600  0.59526500  1
  O  O41  1  0.30633600  0.59526500  0.58493300  1
  O  O42  1  0.91506700  0.51033200  0.72140300  1
  O  O43  1  0.19366400  0.77859700  0.28892800  1
  O  O44  1  0.28892800  0.19366400  0.77859700  1
  O  O45  1  0.21107200  0.98966800  0.90473500  1
  O  O46  1  0.51033200  0.72140300  0.91506700  1
  O  O47  1  0.59526500  0.58493300  0.30633600  1
  O  O48  1  0.72140300  0.91506700  0.51033200  1
  O  O49  1  0.90473500  0.21107200  0.98966800  1
  O  O50  1  0.78892800  0.27859700  0.69366400  1
  O  O51  1  0.22140300  0.01033200  0.41506700  1
  O  O52  1  0.48966800  0.71107200  0.40473500  1
  O  O53  1  0.08493300  0.09526500  0.80633600  1
  O  O54  1  0.27859700  0.69366400  0.78892800  1
  O  O55  1  0.69366400  0.78892800  0.27859700  1
  O  O56  1  0.34511400  0.91617500  0.22481200  1
  O  O57  1  0.87969900  0.65488600  0.07106200  1
  O  O58  1  0.08382500  0.80863700  0.42893800  1
  O  O59  1  0.69136300  0.77518800  0.62030100  1
  O  O60  1  0.80863700  0.42893800  0.08382500  1
  O  O61  1  0.07106200  0.87969900  0.65488600  1
  O  O62  1  0.77518800  0.62030100  0.69136300  1
  O  O63  1  0.92893800  0.30863700  0.58382500  1
  O  O64  1  0.12030100  0.27518800  0.19136300  1
  O  O65  1  0.27518800  0.19136300  0.12030100  1
  O  O66  1  0.37969900  0.57106200  0.15488600  1
  O  O67  1  0.22481200  0.34511400  0.91617500  1
  O  O68  1  0.91617500  0.22481200  0.34511400  1
  O  O69  1  0.58382500  0.92893800  0.30863700  1
  O  O70  1  0.57106200  0.15488600  0.37969900  1
  O  O71  1  0.62030100  0.69136300  0.77518800  1
loop_
_geom_bond_atom_site_label_1
_geom_bond_atom_site_label_2
_geom_bond_distance
_geom_bond_site_symmetry_2
Al0 O10 1.890711 1_555
Al0 O23 1.890711 1_555
Al0 O9 1.890711 1_545
Al0 O56 1.892597 1_545
Al0 O70 1.892602 1_555
Al0 O69 1.892607 1_545
Al1 O19 1.890711 1_554
Al1 O0 1.890711 1_555
Al1 O22 1.890711 1_554
Al1 O24 1.892597 1_554
Al1 O57 1.892602 1_555
Al1 O60 1.892607 1_555
Al2 O21 1.890711 1_455
Al2 O1 1.890711 1_555
Al2 O18 1.890711 1_455
Al2 O26 1.892597 1_455
Al2 O61 1.892602 1_555
Al2 O58 1.892607 1_555
Al3 O2 1.890711 1_555
Al3 O20 1.890711 1_555
Al3 O17 1.890711 1_555
Al3 O59 1.892607 1_555
Al3 O71 1.892607 1_555
Al3 O62 1.892607 1_555
Al4 O16 1.890711 1_555
Al4 O11 1.890711 1_555
Al4 O7 1.890711 1_455
Al4 O68 1.892597 1_455
Al4 O31 1.892602 1_555
Al4 O63 1.892607 1_455
Al5 O15 1.890711 1_555
Al5 O8 1.890711 1_555
Al5 O14 1.890711 1_555
Al5 O65 1.892607 1_555
Al5 O25 1.892607 1_555
Al5 O64 1.892607 1_555
Al6 O6 1.890711 1_555
Al6 O12 1.890711 1_555
Al6 O13 1.890711 1_554
Al6 O67 1.892597 1_554
Al6 O66 1.892602 1_555
Al6 O30 1.892607 1_554
Al7 O3 1.890711 1_545
Al7 O5 1.890711 1_555
Al7 O4 1.890711 1_545
Al7 O29 1.892597 1_545
Al7 O28 1.892602 1_555
Al7 O27 1.892607 1_555
O0 P10 1.484700 1_555
O1 P19 1.484700 1_555
O2 P13 1.484700 1_655
O3 P9 1.484700 1_555
O4 P22 1.484700 1_555
O5 P14 1.484700 1_555
O6 P0 1.484700 1_555
O7 P15 1.484700 1_545
O8 P17 1.484700 1_555
O9 P4 1.484700 1_554
O10 P7 1.484700 1_555
O11 P5 1.484700 1_555
O12 P1 1.484700 1_555
O13 P3 1.484700 1_455
O14 P8 1.484700 1_555
O15 P2 1.484700 1_555
O16 P6 1.484700 1_555
O17 P20 1.484700 1_565
O18 P23 1.484700 1_555
O19 P12 1.484700 1_555
O20 P11 1.484700 1_556
O21 P21 1.484700 1_555
O22 P18 1.484700 1_555
O23 P16 1.484700 1_555
O24 P14 1.493916 1_555
O25 P6 1.493909 1_555
O26 P10 1.493916 1_555
O27 P18 1.493909 1_555
O28 P20 1.493919 1_555
O29 P19 1.493916 1_555
O30 P4 1.493909 1_555
O31 P8 1.493919 1_555
O32 P16 1.603387 1_555
O32 P23 1.615652 1_555
O33 P18 1.603399 1_554
O33 P7 1.615643 1_555
O34 P21 1.603396 1_555
O34 P2 1.615651 1_555
O35 P11 1.603399 1_455
O35 P1 1.615643 1_555
O36 P12 1.603396 1_555
O36 P8 1.615651 1_555
O37 P23 1.603399 1_455
O37 P0 1.615643 1_555
O38 P20 1.603399 1_554
O38 P16 1.615643 1_555
O39 P6 1.603396 1_665
O39 P11 1.615651 1_555
O40 P2 1.603399 1_555
O40 P14 1.615643 1_555
O41 P8 1.603399 1_555
O41 P19 1.615643 1_555
O42 P3 1.603399 1_555
O42 P21 1.615643 1_555
O43 P1 1.603387 1_555
O43 P22 1.615652 1_555
O44 P5 1.603387 1_555
O44 P18 1.615652 1_555
O45 P7 1.603396 1_566
O45 P13 1.615651 1_555
O46 P4 1.603399 1_555
O46 P12 1.615643 1_555
O47 P17 1.603399 1_555
O47 P10 1.615643 1_555
O48 P15 1.603399 1_555
O48 P9 1.615643 1_555
O49 P0 1.603396 1_656
O49 P20 1.615651 1_555
O50 P14 1.603387 1_555
O50 P3 1.615652 1_555
O51 P22 1.603399 1_545
O51 P6 1.615643 1_555
O52 P9 1.603396 1_555
O52 P17 1.615651 1_555
O53 P13 1.603399 1_545
O53 P5 1.615643 1_555
O54 P19 1.603387 1_555
O54 P4 1.615652 1_555
O55 P10 1.603387 1_555
O55 P15 1.615652 1_555
O56 P1 1.493916 1_555
O57 P11 1.493919 1_555
O58 P22 1.493909 1_555
O59 P9 1.493909 1_555
O60 P23 1.493909 1_555
O61 P13 1.493919 1_555
O62 P21 1.493909 1_555
O63 P3 1.493909 1_555
O64 P0 1.493909 1_555
O65 P7 1.493909 1_555
O66 P17 1.493919 1_555
O67 P5 1.493916 1_555
O68 P16 1.493916 1_555
O69 P15 1.493909 1_555
O70 P2 1.493919 1_555
O71 P12 1.493909 1_555
