# generated using pymatgen
data_CeMg14Co
_symmetry_space_group_name_H-M   'P 1'
_cell_length_a   6.58221271
_cell_length_b   6.58221271
_cell_length_c   10.56427900
_cell_angle_alpha   90.00000000
_cell_angle_beta   90.00000000
_cell_angle_gamma   124.78198598
_symmetry_Int_Tables_number   1
_chemical_formula_structural   CeMg14Co
_chemical_formula_sum   'Ce1 Mg14 Co1'
_cell_volume   375.92450392
_cell_formula_units_Z   1
loop_
 _symmetry_equiv_pos_site_id
 _symmetry_equiv_pos_as_xyz
  1  'x, y, z'
loop_
 _atom_site_type_symbol
 _atom_site_label
 _atom_site_symmetry_multiplicity
 _atom_site_fract_x
 _atom_site_fract_y
 _atom_site_fract_z
 _atom_site_occupancy
  Ce  Ce0  1  0.31896300  0.68103700  0.50000000  1
  Mg  Mg0  1  0.82835500  0.17164500  0.00000000  1
  Mg  Mg1  1  0.33151000  0.66849000  0.00000000  1
  Mg  Mg2  1  0.30954700  0.17224900  0.50000000  1
  Mg  Mg3  1  0.33248800  0.17285100  0.00000000  1
  Mg  Mg4  1  0.82775100  0.69045300  0.50000000  1
  Mg  Mg5  1  0.82714900  0.66751200  0.00000000  1
  Mg  Mg6  1  0.17033000  0.32671600  0.25102900  1
  Mg  Mg7  1  0.17033000  0.32671600  0.74897100  1
  Mg  Mg8  1  0.67328400  0.82967000  0.25102900  1
  Mg  Mg9  1  0.67328400  0.82967000  0.74897100  1
  Mg  Mg10  1  0.68184100  0.31815900  0.27716500  1
  Mg  Mg11  1  0.68184100  0.31815900  0.72283500  1
  Mg  Mg12  1  0.16836700  0.83163300  0.23853800  1
  Mg  Mg13  1  0.16836700  0.83163300  0.76146200  1
  Co  Co0  1  0.83660100  0.16339900  0.50000000  1
loop_
_geom_bond_atom_site_label_1
_geom_bond_atom_site_label_2
_geom_bond_distance
_geom_bond_site_symmetry_2
Ce0 Co0 3.057361 1_565
Ce0 Co0 3.057361 1_455
Ce0 Mg2 3.269014 1_565
Ce0 Mg4 3.269014 1_455
Ce0 Mg9 3.272784 1_555
Ce0 Mg7 3.272784 1_555
Ce0 Mg8 3.272784 1_555
Ce0 Mg6 3.272784 1_555
Ce0 Mg13 3.273489 1_555
Ce0 Mg12 3.273489 1_555
Ce0 Mg4 3.313986 1_555
Ce0 Mg2 3.313986 1_555
Mg0 Mg1 3.050652 1_655
Mg0 Mg1 3.050652 1_545
Mg0 Mg8 3.243470 1_545
Mg0 Mg6 3.243470 1_655
Mg0 Mg9 3.243470 1_544
Mg0 Mg7 3.243470 1_654
Mg0 Mg3 3.268437 1_555
Mg0 Mg5 3.268437 1_555
Mg0 Mg5 3.313789 1_545
Mg0 Mg3 3.313789 1_655
Mg0 Mg11 3.390375 1_554
Mg0 Mg10 3.390375 1_555
Mg1 Mg13 3.157880 1_554
Mg1 Mg12 3.157880 1_555
Mg1 Mg8 3.239782 1_555
Mg1 Mg6 3.239782 1_555
Mg1 Mg9 3.239782 1_554
Mg1 Mg7 3.239782 1_554
Mg1 Mg5 3.266078 1_555
Mg1 Mg3 3.266078 1_555
Mg1 Mg3 3.316143 1_565
Mg1 Mg5 3.316143 1_455
Mg2 Mg4 2.939370 1_445
Mg2 Mg7 3.139169 1_555
Mg2 Mg6 3.139169 1_555
Mg2 Mg4 3.161490 1_555
Mg3 Mg5 3.017858 1_555
Mg3 Mg5 3.083002 1_445
Mg3 Mg6 3.229716 1_555
Mg3 Mg7 3.229716 1_554
Mg4 Mg9 3.139169 1_555
Mg4 Mg8 3.139169 1_555
Mg5 Mg8 3.229716 1_555
Mg5 Mg9 3.229716 1_554
Mg6 Mg8 3.032408 1_445
Mg6 Mg8 3.068452 1_555
Mg7 Mg9 3.032408 1_445
Mg7 Mg9 3.068452 1_555
Mg10 Mg12 3.081614 1_545
Mg10 Mg12 3.081614 1_655
Mg10 Mg2 3.127944 1_555
Mg10 Mg4 3.127944 1_555
Mg10 Mg8 3.195495 1_545
Mg10 Mg6 3.195495 1_655
Mg10 Mg6 3.410514 1_555
Mg10 Mg8 3.410514 1_555
Mg10 Mg3 3.502392 1_555
Mg10 Mg5 3.502392 1_555
Mg11 Mg13 3.081614 1_545
Mg11 Mg13 3.081614 1_655
Mg11 Mg2 3.127944 1_555
Mg11 Mg4 3.127944 1_555
Mg11 Mg9 3.195495 1_545
Mg11 Mg7 3.195495 1_655
Mg11 Mg7 3.410514 1_555
Mg11 Mg9 3.410514 1_555
Mg11 Mg3 3.502392 1_556
Mg11 Mg5 3.502392 1_556
Mg12 Mg3 3.129461 1_565
Mg12 Mg5 3.129461 1_455
Mg12 Mg8 3.254065 1_455
Mg12 Mg6 3.254065 1_565
Mg12 Mg6 3.333472 1_555
Mg12 Mg8 3.333472 1_555
Mg12 Mg2 3.338059 1_565
Mg12 Mg4 3.338059 1_455
Mg13 Mg3 3.129461 1_566
Mg13 Mg5 3.129461 1_456
Mg13 Mg9 3.254065 1_455
Mg13 Mg7 3.254065 1_565
Mg13 Mg7 3.333472 1_555
Mg13 Mg9 3.333472 1_555
Mg13 Mg2 3.338059 1_565
Mg13 Mg4 3.338059 1_455
Co0 Mg10 2.966646 1_555
Co0 Mg11 2.966646 1_555
Co0 Mg2 3.080172 1_655
Co0 Mg4 3.080172 1_545
Co0 Mg9 3.194493 1_545
Co0 Mg7 3.194493 1_655
Co0 Mg8 3.194493 1_545
Co0 Mg6 3.194493 1_655
Co0 Mg4 3.502739 1_555
Co0 Mg2 3.502739 1_555
