# generated using pymatgen
data_Sr2La2CuRuO8
_symmetry_space_group_name_H-M   'P 1'
_cell_length_a   3.88544700
_cell_length_b   3.88544700
_cell_length_c   12.71032700
_cell_angle_alpha   90.00000000
_cell_angle_beta   90.00000000
_cell_angle_gamma   90.00000000
_symmetry_Int_Tables_number   1
_chemical_formula_structural   Sr2La2CuRuO8
_chemical_formula_sum   'Sr2 La2 Cu1 Ru1 O8'
_cell_volume   191.88397315
_cell_formula_units_Z   1
loop_
 _symmetry_equiv_pos_site_id
 _symmetry_equiv_pos_as_xyz
  1  'x, y, z'
loop_
 _atom_site_type_symbol
 _atom_site_label
 _atom_site_symmetry_multiplicity
 _atom_site_fract_x
 _atom_site_fract_y
 _atom_site_fract_z
 _atom_site_occupancy
  Sr  Sr0  1  0.00000000  0.00000000  0.64198200  1
  Sr  Sr1  1  0.00000000  0.00000000  0.35801800  1
  La  La0  1  0.50000000  0.50000000  0.14121200  1
  La  La1  1  0.50000000  0.50000000  0.85878800  1
  Cu  Cu0  1  0.00000000  0.00000000  0.00000000  1
  Ru  Ru0  1  0.50000000  0.50000000  0.50000000  1
  O  O0  1  0.50000000  0.50000000  0.33008700  1
  O  O1  1  0.00000000  0.00000000  0.82768200  1
  O  O2  1  0.00000000  0.00000000  0.17231800  1
  O  O3  1  0.50000000  0.50000000  0.66991300  1
  O  O4  1  0.50000000  0.00000000  0.00000000  1
  O  O5  1  0.00000000  0.50000000  0.50000000  1
  O  O6  1  0.50000000  0.00000000  0.50000000  1
  O  O7  1  0.00000000  0.50000000  0.00000000  1
loop_
_geom_bond_atom_site_label_1
_geom_bond_atom_site_label_2
_geom_bond_distance
_geom_bond_site_symmetry_2
La0 O0 2.400663 1_555
La0 O4 2.644932 1_565
La0 O7 2.644932 1_555
La0 O4 2.644932 1_555
La0 O7 2.644932 1_655
La0 O2 2.775728 1_665
La0 O2 2.775728 1_555
La0 O2 2.775728 1_655
La0 O2 2.775728 1_565
La1 O3 2.400663 1_555
La1 O4 2.644932 1_566
La1 O7 2.644932 1_556
La1 O4 2.644932 1_556
La1 O7 2.644932 1_656
La1 O1 2.775728 1_555
La1 O1 2.775728 1_565
La1 O1 2.775728 1_665
La1 O1 2.775728 1_655
Cu0 O7 1.942724 1_555
Cu0 O4 1.942724 1_555
Cu0 O7 1.942724 1_545
Cu0 O4 1.942724 1_455
Cu0 O1 2.190218 1_554
Cu0 O2 2.190218 1_555
O0 Ru0 2.159650 1_555
O0 Sr1 2.770268 1_555
O0 Sr1 2.770268 1_655
O0 Sr1 2.770268 1_565
O0 Sr1 2.770268 1_665
O1 Sr0 2.360308 1_555
O2 Sr1 2.360308 1_555
O3 Ru0 2.159650 1_555
O3 Sr0 2.770268 1_565
O3 Sr0 2.770268 1_665
O3 Sr0 2.770268 1_655
O3 Sr0 2.770268 1_555
O5 Ru0 1.942724 1_555
O5 Ru0 1.942724 1_455
O5 Sr1 2.651583 1_555
O5 Sr1 2.651583 1_565
O5 Sr0 2.651583 1_565
O5 Sr0 2.651583 1_555
O6 Ru0 1.942724 1_555
O6 Ru0 1.942724 1_545
O6 Sr1 2.651583 1_555
O6 Sr1 2.651583 1_655
O6 Sr0 2.651583 1_655
O6 Sr0 2.651583 1_555
