# generated using pymatgen
data_Mg3Si4
_symmetry_space_group_name_H-M   'P 1'
_cell_length_a   4.12668900
_cell_length_b   8.11005988
_cell_length_c   8.45642887
_cell_angle_alpha   109.08565828
_cell_angle_beta   102.84321995
_cell_angle_gamma   93.38349432
_symmetry_Int_Tables_number   1
_chemical_formula_structural   Mg3Si4
_chemical_formula_sum   'Mg6 Si8'
_cell_volume   258.09095313
_cell_formula_units_Z   2
loop_
 _symmetry_equiv_pos_site_id
 _symmetry_equiv_pos_as_xyz
  1  'x, y, z'
loop_
 _atom_site_type_symbol
 _atom_site_label
 _atom_site_symmetry_multiplicity
 _atom_site_fract_x
 _atom_site_fract_y
 _atom_site_fract_z
 _atom_site_occupancy
  Mg  Mg0  1  0.01993000  0.30814400  0.82162900  1
  Mg  Mg1  1  0.59243200  0.13349700  0.98914700  1
  Mg  Mg2  1  0.92547200  0.61749400  0.52346500  1
  Mg  Mg3  1  0.21954100  0.33563300  0.26365800  1
  Mg  Mg4  1  0.35179600  0.02393100  0.56443300  1
  Mg  Mg5  1  0.50791500  0.73052500  0.85333100  1
  Si  Si0  1  0.39421200  0.70668600  0.33427200  1
  Si  Si1  1  0.60852800  0.49379300  0.10797400  1
  Si  Si2  1  0.40996300  0.38431700  0.61801500  1
  Si  Si3  1  0.81682300  0.25518700  0.46874600  1
  Si  Si4  1  0.98603900  0.94454400  0.78419700  1
  Si  Si5  1  0.71026100  0.95443900  0.26911800  1
  Si  Si6  1  0.06892200  0.64452600  0.04914500  1
  Si  Si7  1  0.14128700  0.96713500  0.09943100  1
loop_
_geom_bond_atom_site_label_1
_geom_bond_atom_site_label_2
_geom_bond_distance
_geom_bond_site_symmetry_2
Mg0 Si6 2.741248 1_556
Mg0 Si2 2.783407 1_555
Mg0 Si3 2.792745 1_455
Mg0 Si4 2.852455 1_445
Mg0 Si1 2.932495 1_556
Mg0 Si2 2.938496 1_455
Mg1 Si7 2.730282 1_546
Mg1 Si4 2.737971 1_445
Mg1 Si1 2.753108 1_556
Mg1 Si4 2.792650 1_545
Mg1 Si7 2.839831 1_646
Mg1 Si5 3.125779 1_546
Mg2 Si0 2.697029 1_555
Mg2 Si4 2.794880 1_555
Mg2 Si3 2.812834 1_555
Mg2 Si0 2.965146 1_655
Mg2 Si2 2.989525 1_655
Mg2 Si2 3.164047 1_555
Mg3 Si1 2.784982 1_555
Mg3 Si2 2.809940 1_555
Mg3 Si7 2.817241 1_545
Mg3 Si3 2.844065 1_455
Mg3 Si0 2.882581 1_555
Mg3 Si3 2.922000 1_555
Mg3 Si1 3.121959 1_455
Mg4 Si0 2.714469 1_545
Mg4 Si2 2.794312 1_555
Mg4 Si4 2.839229 1_445
Mg4 Si3 3.018751 1_555
Mg4 Si5 3.086622 1_445
Mg4 Si4 3.088299 1_545
Mg4 Si5 3.092370 1_545
Mg4 Si3 3.119787 1_455
Mg5 Si6 2.798159 1_656
Mg5 Si2 2.803811 1_555
Mg5 Si4 2.831898 1_555
Mg5 Si6 2.906887 1_556
Mg5 Si4 2.921924 1_455
Mg5 Si7 3.036950 1_656
Mg5 Si7 3.071363 1_556
Si0 Si6 2.357133 1_555
Si0 Si1 2.489439 1_555
Si0 Si5 2.603068 1_555
Si1 Si6 2.428017 1_655
Si1 Si6 2.631918 1_555
Si2 Si3 2.407143 1_555
Si2 Si3 2.478045 1_455
Si3 Si5 2.417228 1_545
Si4 Si7 2.541211 1_656
Si5 Si7 2.491985 1_555
Si5 Si7 2.538342 1_655
Si6 Si7 2.497833 1_555
