# generated using pymatgen
data_K5Na3Ta4Nb4O20
_symmetry_space_group_name_H-M   'P 1'
_cell_length_a   11.45106560
_cell_length_b   11.46385332
_cell_length_c   17.80882326
_cell_angle_alpha   108.92842657
_cell_angle_beta   108.75797153
_cell_angle_gamma   90.07088528
_symmetry_Int_Tables_number   1
_chemical_formula_structural   K5Na3Ta4Nb4O20
_chemical_formula_sum   'K20 Na12 Ta16 Nb16 O80'
_cell_volume   2079.35653087
_cell_formula_units_Z   4
loop_
 _symmetry_equiv_pos_site_id
 _symmetry_equiv_pos_as_xyz
  1  'x, y, z'
loop_
 _atom_site_type_symbol
 _atom_site_label
 _atom_site_symmetry_multiplicity
 _atom_site_fract_x
 _atom_site_fract_y
 _atom_site_fract_z
 _atom_site_occupancy
  K  K0  1  0.30807100  0.06127200  0.12187200  1
  K  K1  1  0.31333200  0.56265500  0.11879600  1
  K  K2  1  0.80775700  0.05643500  0.12023800  1
  K  K3  1  0.81130700  0.55582300  0.12207200  1
  K  K4  1  0.81297200  0.57254000  0.62961700  1
  K  K5  1  0.18932100  0.93938500  0.37897900  1
  K  K6  1  0.19027500  0.92853000  0.87652200  1
  K  K7  1  0.69178800  0.44402900  0.38186000  1
  K  K8  1  0.68434400  0.42677400  0.87716200  1
  K  K9  1  0.68794500  0.94090100  0.37897100  1
  K  K10  1  0.68794800  0.92208700  0.87453300  1
  K  K11  1  0.05126900  0.30327100  0.11739400  1
  K  K12  1  0.05890400  0.80941800  0.12118200  1
  K  K13  1  0.55793700  0.31381800  0.12275000  1
  K  K14  1  0.55745600  0.81158700  0.12149000  1
  K  K15  1  0.43871400  0.19156900  0.37900500  1
  K  K16  1  0.44881000  0.69566300  0.38396600  1
  K  K17  1  0.44159500  0.70463400  0.88855000  1
  K  K18  1  0.94456600  0.68493100  0.37992700  1
  K  K19  1  0.93137700  0.68942900  0.87203000  1
  Na  Na0  1  0.29563300  0.07661600  0.60498300  1
  Na  Na1  1  0.30275400  0.56994200  0.60378400  1
  Na  Na2  1  0.79897100  0.06512800  0.59929500  1
  Na  Na3  1  0.19117100  0.44018600  0.39338100  1
  Na  Na4  1  0.19516700  0.42882700  0.89397600  1
  Na  Na5  1  0.04992500  0.28279000  0.60508400  1
  Na  Na6  1  0.05946300  0.79671100  0.61126100  1
  Na  Na7  1  0.55241500  0.29504300  0.60776000  1
  Na  Na8  1  0.55710000  0.79234000  0.61292400  1
  Na  Na9  1  0.43969500  0.21177500  0.89532900  1
  Na  Na10  1  0.94321400  0.19651100  0.38490000  1
  Na  Na11  1  0.94483000  0.21170500  0.89943200  1
  Ta  Ta0  1  0.99731000  0.99760900  0.99807200  1
  Ta  Ta1  1  0.00207600  0.00041600  0.50166400  1
  Ta  Ta2  1  0.99827800  0.49716300  0.99861700  1
  Ta  Ta3  1  0.00583000  0.50385000  0.50694800  1
  Ta  Ta4  1  0.49911900  0.00046900  0.00003900  1
  Ta  Ta5  1  0.50209100  0.00400000  0.50416800  1
  Ta  Ta6  1  0.49726200  0.49950500  0.99784000  1
  Ta  Ta7  1  0.50458600  0.50236700  0.50386000  1
  Ta  Ta8  1  0.24720200  0.24783400  0.99910200  1
  Ta  Ta9  1  0.25186000  0.25585000  0.50351800  1
  Ta  Ta10  1  0.24597200  0.74641600  0.99643200  1
  Ta  Ta11  1  0.25548900  0.75230700  0.50271500  1
  Ta  Ta12  1  0.74557500  0.24639300  0.99871600  1
  Ta  Ta13  1  0.75374100  0.25157400  0.50162300  1
  Ta  Ta14  1  0.74755800  0.74610700  0.99889600  1
  Ta  Ta15  1  0.75627300  0.75467000  0.50528100  1
  Nb  Nb0  1  0.11478100  0.11881400  0.25243100  1
  Nb  Nb1  1  0.08441700  0.09166000  0.74716500  1
  Nb  Nb2  1  0.13300900  0.59700100  0.25139200  1
  Nb  Nb3  1  0.14594700  0.56168000  0.74913700  1
  Nb  Nb4  1  0.62834800  0.11540400  0.25134500  1
  Nb  Nb5  1  0.58126600  0.08780500  0.74636000  1
  Nb  Nb6  1  0.62819500  0.61856800  0.25152700  1
  Nb  Nb7  1  0.59046500  0.57983700  0.74630300  1
  Nb  Nb8  1  0.36829900  0.39712100  0.25294900  1
  Nb  Nb9  1  0.34771700  0.42333400  0.74707400  1
  Nb  Nb10  1  0.37029000  0.88749900  0.25024000  1
  Nb  Nb11  1  0.37224400  0.92953400  0.74574200  1
  Nb  Nb12  1  0.87396500  0.38143700  0.25385100  1
  Nb  Nb13  1  0.87113800  0.38432600  0.74828900  1
  Nb  Nb14  1  0.87305500  0.88041300  0.25106000  1
  Nb  Nb15  1  0.87439900  0.94024500  0.74754100  1
  O  O0  1  0.12493100  0.12714200  0.50118000  1
  O  O1  1  0.11718800  0.11994600  0.99105000  1
  O  O2  1  0.13183400  0.62873000  0.50507200  1
  O  O3  1  0.11807400  0.61490200  0.98771300  1
  O  O4  1  0.62675900  0.12734400  0.50243400  1
  O  O5  1  0.61544700  0.11943400  0.98893900  1
  O  O6  1  0.63083900  0.63231600  0.50856600  1
  O  O7  1  0.62078700  0.61987000  0.99504200  1
  O  O8  1  0.12195800  0.36994600  0.99670300  1
  O  O9  1  0.13315100  0.38427200  0.51341700  1
  O  O10  1  0.11899800  0.86998400  0.99354100  1
  O  O11  1  0.13703800  0.88364300  0.51657400  1
  O  O12  1  0.61749500  0.36860600  0.99420900  1
  O  O13  1  0.63303500  0.38068600  0.51397600  1
  O  O14  1  0.62375500  0.87432200  0.99918000  1
  O  O15  1  0.63608400  0.88692400  0.51859700  1
  O  O16  1  0.37532400  0.12844100  0.50267300  1
  O  O17  1  0.36915700  0.12223800  0.99075400  1
  O  O18  1  0.37716300  0.62487300  0.50160400  1
  O  O19  1  0.36762900  0.61935200  0.99286000  1
  O  O20  1  0.87637300  0.12362100  0.49541600  1
  O  O21  1  0.86673200  0.11689900  0.98633400  1
  O  O22  1  0.88277400  0.63077500  0.50738500  1
  O  O23  1  0.87234100  0.61755100  0.99338300  1
  O  O24  1  0.36814800  0.37044500  0.99343100  1
  O  O25  1  0.37972800  0.38107800  0.50956600  1
  O  O26  1  0.37206900  0.87608300  0.99807700  1
  O  O27  1  0.38416500  0.88312000  0.51428600  1
  O  O28  1  0.87128100  0.36986300  0.99791600  1
  O  O29  1  0.88656100  0.38139700  0.51536600  1
  O  O30  1  0.87076400  0.86874900  0.99342300  1
  O  O31  1  0.88328600  0.88398000  0.51365000  1
  O  O32  1  0.05450800  0.06372700  0.11940900  1
  O  O33  1  0.05953200  0.09055700  0.63431700  1
  O  O34  1  0.06897300  0.55945300  0.12476500  1
  O  O35  1  0.08647800  0.58745100  0.64023800  1
  O  O36  1  0.56109900  0.06778500  0.12194300  1
  O  O37  1  0.56205700  0.09842600  0.63705000  1
  O  O38  1  0.55905200  0.56417600  0.12103000  1
  O  O39  1  0.56073200  0.58024800  0.63268500  1
  O  O40  1  0.44644400  0.43617600  0.37991300  1
  O  O41  1  0.42830500  0.43252600  0.86431300  1
  O  O42  1  0.44036000  0.93431800  0.38143500  1
  O  O43  1  0.43374800  0.92264300  0.85725200  1
  O  O44  1  0.94414500  0.43259000  0.38295500  1
  O  O45  1  0.93447500  0.40607500  0.86807600  1
  O  O46  1  0.94218700  0.92475600  0.37946900  1
  O  O47  1  0.93510200  0.92080700  0.85547700  1
  O  O48  1  0.30671800  0.31056600  0.12364900  1
  O  O49  1  0.31254500  0.30477400  0.63301900  1
  O  O50  1  0.30538800  0.80592700  0.12007600  1
  O  O51  1  0.33771200  0.79961400  0.63942100  1
  O  O52  1  0.80608500  0.30070800  0.12073500  1
  O  O53  1  0.82562900  0.28163300  0.63094500  1
  O  O54  1  0.81069300  0.80256600  0.12229800  1
  O  O55  1  0.84186800  0.81049800  0.64218700  1
  O  O56  1  0.18342100  0.20589800  0.37967900  1
  O  O57  1  0.17500500  0.18863500  0.86328800  1
  O  O58  1  0.19466800  0.69406000  0.37976900  1
  O  O59  1  0.19283900  0.68671100  0.86217400  1
  O  O60  1  0.69136800  0.19961900  0.37899000  1
  O  O61  1  0.67396600  0.18465200  0.86136500  1
  O  O62  1  0.69365100  0.69986200  0.38350900  1
  O  O63  1  0.67052000  0.67643600  0.86560600  1
  O  O64  1  0.49623300  0.00669700  0.25017000  1
  O  O65  1  0.40771400  0.10236300  0.74764500  1
  O  O66  1  0.49861700  0.50520900  0.25198000  1
  O  O67  1  0.41371700  0.57811000  0.73699900  1
  O  O68  1  0.99589100  0.99925400  0.25176100  1
  O  O69  1  0.91046500  0.11431700  0.74872300  1
  O  O70  1  0.99291100  0.49501900  0.24955200  1
  O  O71  1  0.97796600  0.51383500  0.74938200  1
  O  O72  1  0.21272400  0.43805500  0.26551600  1
  O  O73  1  0.17159900  0.38802600  0.74824800  1
  O  O74  1  0.24609200  0.00561700  0.25212700  1
  O  O75  1  0.19689800  0.95701600  0.73635600  1
  O  O76  1  0.74650700  0.49444400  0.25279300  1
  O  O77  1  0.73030000  0.47726100  0.74216800  1
  O  O78  1  0.75316600  0.00220100  0.25265300  1
  O  O79  1  0.69727400  0.95864100  0.73565600  1
loop_
_geom_bond_atom_site_label_1
_geom_bond_atom_site_label_2
_geom_bond_distance
_geom_bond_site_symmetry_2
K0 O26 2.812646 1_544
K0 O64 2.831780 1_555
K0 O48 2.847878 1_555
K0 O10 2.876456 1_544
K0 O74 2.882644 1_555
K0 O32 2.890071 1_555
K0 O36 2.897893 1_555
K0 O1 2.898836 1_554
K0 O50 2.917034 1_545
K0 O17 2.922042 1_554
K1 O19 2.771396 1_554
K1 O50 2.783363 1_555
K1 O38 2.801168 1_555
K1 O24 2.819025 1_554
K1 O34 2.834782 1_555
K1 O8 2.866660 1_554
K1 O66 2.888134 1_555
K1 O3 2.891561 1_554
K1 O48 2.920702 1_555
K2 O14 2.755640 1_544
K2 O52 2.797560 1_555
K2 O32 2.831616 1_655
K2 O36 2.837100 1_555
K2 O30 2.854770 1_544
K2 O78 2.869937 1_555
K2 O68 2.882947 1_545
K2 O54 2.922523 1_545
K2 O5 2.937085 1_554
K2 O21 2.954682 1_554
K3 O28 2.797732 1_554
K3 O70 2.821072 1_555
K3 O54 2.827343 1_555
K3 O12 2.878245 1_554
K3 O38 2.884583 1_555
K3 O23 2.884902 1_554
K3 O7 2.885114 1_554
K3 O52 2.917346 1_555
K3 O34 2.935502 1_655
K3 O76 2.938991 1_555
K4 O71 2.629527 1_555
K4 O55 2.674896 1_555
K4 O6 2.745370 1_555
K4 O13 2.764989 1_555
K4 O29 2.804687 1_555
K4 O22 2.807775 1_555
K4 O39 2.907360 1_555
K4 O77 2.957208 1_555
K4 O35 3.077453 1_655
K5 O0 2.812400 1_565
K5 O58 2.817608 1_555
K5 O16 2.821343 1_565
K5 O46 2.837686 1_455
K5 O74 2.856343 1_565
K5 O42 2.861849 1_555
K5 O68 2.880148 1_455
K5 O11 2.954611 1_555
K5 O27 2.958848 1_555
K5 O56 3.052165 1_565
K6 O75 2.644600 1_555
K6 O59 2.701220 1_555
K6 O26 2.707487 1_555
K6 O10 2.731224 1_555
K6 O17 2.764690 1_565
K6 O1 2.806134 1_565
K6 O47 2.821332 1_455
K6 O43 2.914824 1_555
K6 O57 3.067247 1_565
K7 O60 2.785690 1_555
K7 O76 2.792333 1_555
K7 O40 2.799467 1_555
K7 O6 2.845101 1_555
K7 O22 2.846512 1_555
K7 O44 2.886975 1_555
K7 O66 2.915588 1_555
K7 O62 2.923420 1_555
K7 O13 2.939565 1_555
K7 O29 2.973875 1_555
K8 O61 2.696031 1_555
K8 O12 2.702296 1_555
K8 O28 2.754195 1_555
K8 O7 2.794391 1_555
K8 O23 2.808447 1_555
K8 O77 2.847309 1_555
K8 O41 2.869084 1_555
K8 O45 2.925980 1_555
K8 O63 2.936200 1_555
K9 O20 2.763452 1_565
K9 O62 2.790735 1_555
K9 O4 2.799857 1_565
K9 O42 2.850809 1_555
K9 O78 2.866542 1_565
K9 O46 2.914796 1_555
K9 O64 2.921947 1_565
K9 O31 2.958131 1_555
K9 O60 2.966005 1_565
K9 O15 2.977528 1_555
K10 O79 2.673211 1_555
K10 O30 2.689183 1_555
K10 O14 2.757679 1_555
K10 O21 2.761422 1_565
K10 O63 2.771878 1_555
K10 O43 2.827196 1_555
K10 O5 2.839142 1_565
K10 O47 2.956327 1_555
K10 O61 3.094473 1_565
K11 O72 2.641220 1_555
K11 O28 2.755968 1_454
K11 O32 2.758087 1_555
K11 O52 2.827630 1_455
K11 O8 2.835933 1_554
K11 O21 2.838902 1_454
K11 O1 2.842116 1_554
K11 O48 2.891326 1_555
K11 O34 2.900796 1_555
K11 O70 2.911453 1_455
K12 O50 2.829142 1_555
K12 O54 2.849897 1_455
K12 O30 2.852343 1_454
K12 O10 2.855093 1_554
K12 O23 2.862755 1_454
K12 O34 2.888516 1_555
K12 O74 2.908951 1_565
K12 O68 2.909338 1_455
K12 O32 2.926076 1_565
K12 O3 2.946549 1_554
K13 O36 2.816194 1_555
K13 O76 2.824063 1_555
K13 O12 2.834732 1_554
K13 O52 2.856829 1_555
K13 O24 2.864072 1_554
K13 O38 2.880206 1_555
K13 O66 2.881860 1_555
K13 O48 2.882176 1_555
K13 O17 2.897067 1_554
K13 O5 2.940398 1_554
K14 O14 2.813657 1_554
K14 O26 2.818014 1_554
K14 O38 2.833735 1_555
K14 O7 2.875873 1_554
K14 O50 2.878915 1_555
K14 O19 2.887838 1_554
K14 O54 2.897379 1_555
K14 O64 2.908212 1_565
K14 O78 2.926312 1_565
K14 O36 2.934617 1_565
K15 O40 2.800060 1_555
K15 O16 2.821708 1_555
K15 O64 2.830258 1_555
K15 O4 2.832023 1_555
K15 O74 2.858855 1_555
K15 O25 2.884229 1_555
K15 O60 2.894603 1_555
K15 O56 2.931849 1_555
K15 O13 2.931998 1_555
K15 O42 2.963403 1_545
K16 O42 2.752169 1_555
K16 O6 2.805448 1_555
K16 O62 2.806717 1_555
K16 O18 2.815579 1_555
K16 O66 2.855340 1_555
K16 O58 2.886910 1_555
K16 O27 2.902680 1_555
K16 O15 2.902722 1_555
K16 O40 2.951974 1_555
K17 O67 2.528835 1_555
K17 O26 2.610926 1_555
K17 O14 2.622448 1_555
K17 O19 2.704102 1_555
K17 O43 2.727079 1_555
K17 O7 2.729313 1_555
K17 O59 2.729895 1_555
K17 O63 2.783644 1_555
K17 O41 3.003865 1_555
K18 O46 2.752118 1_555
K18 O2 2.800344 1_655
K18 O22 2.825704 1_555
K18 O70 2.826196 1_555
K18 O58 2.866655 1_655
K18 O62 2.898433 1_555
K18 O44 2.910767 1_555
K18 O76 2.918243 1_555
K18 O11 2.985054 1_655
K18 O31 2.987278 1_555
K19 O71 2.647090 1_555
K19 O30 2.732516 1_555
K19 O47 2.763962 1_555
K19 O10 2.770545 1_655
K19 O3 2.803319 1_655
K19 O23 2.810720 1_555
K19 O63 2.953988 1_555
K19 O59 3.054602 1_655
K19 O77 3.078655 1_555
K19 O45 3.226663 1_555
Na0 O65 2.367409 1_555
Na0 O0 2.438701 1_555
Na0 O49 2.493453 1_555
Na0 O16 2.505147 1_555
Na0 O11 2.561709 1_545
Na0 O27 2.700247 1_545
Na0 O33 2.909159 1_555
Na0 O37 2.912252 1_555
Na1 O67 2.273421 1_555
Na1 O2 2.436043 1_555
Na1 O18 2.484590 1_555
Na1 O51 2.499046 1_555
Na1 O9 2.578679 1_555
Na1 O25 2.622788 1_555
Na1 O35 2.746997 1_555
Na1 O39 2.826220 1_555
Na2 O53 2.356050 1_555
Na2 O69 2.422647 1_555
Na2 O4 2.446835 1_555
Na2 O15 2.465708 1_545
Na2 O31 2.543259 1_545
Na2 O20 2.552545 1_555
Na2 O33 2.838925 1_655
Na2 O37 2.994481 1_555
Na3 O72 2.360547 1_555
Na3 O56 2.615618 1_555
Na3 O2 2.678351 1_555
Na3 O9 2.687639 1_555
Na3 O18 2.726679 1_555
Na3 O25 2.728073 1_555
Na3 O44 2.773945 1_455
Na4 O73 2.405950 1_555
Na4 O24 2.454507 1_555
Na4 O8 2.508269 1_555
Na4 O3 2.599717 1_555
Na4 O57 2.621995 1_555
Na4 O19 2.651232 1_555
Na4 O45 2.868218 1_455
Na4 O41 2.886055 1_555
Na5 O73 2.369122 1_555
Na5 O33 2.418191 1_555
Na5 O0 2.495878 1_555
Na5 O20 2.505231 1_455
Na5 O29 2.566107 1_455
Na5 O9 2.675200 1_555
Na5 O53 2.752047 1_455
Na5 O49 2.882589 1_555
Na6 O75 2.428760 1_555
Na6 O22 2.536663 1_455
Na6 O2 2.573061 1_555
Na6 O11 2.584030 1_555
Na6 O35 2.611353 1_555
Na6 O31 2.640164 1_455
Na6 O55 2.713660 1_455
Na7 O37 2.468015 1_555
Na7 O16 2.548160 1_555
Na7 O4 2.574989 1_555
Na7 O13 2.580498 1_555
Na7 O25 2.615513 1_555
Na7 O77 2.802156 1_555
Na7 O49 2.919312 1_555
Na8 O79 2.453774 1_555
Na8 O6 2.516653 1_555
Na8 O39 2.565776 1_555
Na8 O18 2.599097 1_555
Na8 O15 2.640470 1_555
Na8 O27 2.654089 1_555
Na8 O51 2.697837 1_555
Na9 O65 2.421537 1_555
Na9 O24 2.427902 1_555
Na9 O12 2.471781 1_555
Na9 O17 2.570301 1_555
Na9 O5 2.634865 1_555
Na9 O41 2.754577 1_555
Na9 O57 2.893148 1_555
Na9 O61 2.929639 1_555
Na10 O20 2.681782 1_555
Na10 O44 2.717860 1_555
Na10 O0 2.748046 1_655
Na10 O56 2.785034 1_655
Na10 O29 2.844197 1_555
Na10 O60 2.852495 1_555
Na10 O9 2.862291 1_655
Na10 O78 2.921099 1_555
Na10 O68 2.923013 1_545
Na11 O28 2.442024 1_555
Na11 O69 2.445504 1_555
Na11 O45 2.460937 1_555
Na11 O8 2.469417 1_655
Na11 O21 2.520938 1_555
Na11 O1 2.590680 1_655
Na11 O57 2.900667 1_655
Na11 O61 2.947044 1_555
Nb0 O68 1.925232 1_445
Nb0 O74 1.987576 1_555
Nb0 O56 2.033366 1_555
Nb0 O32 2.112804 1_555
Nb1 O57 1.927317 1_555
Nb1 O33 1.932720 1_555
Nb1 O75 2.012510 1_545
Nb1 O69 2.016976 1_455
Nb2 O70 1.969331 1_455
Nb2 O34 2.028378 1_555
Nb2 O58 2.067117 1_555
Nb2 O72 2.090569 1_555
Nb3 O59 1.956046 1_555
Nb3 O35 1.958312 1_555
Nb3 O71 2.001321 1_455
Nb3 O73 2.008379 1_555
Nb4 O78 1.931415 1_555
Nb4 O64 1.949423 1_555
Nb4 O60 2.034630 1_555
Nb4 O36 2.059897 1_555
Nb5 O61 1.917751 1_555
Nb5 O37 1.931639 1_555
Nb5 O79 1.994531 1_545
Nb5 O65 2.001387 1_555
Nb6 O76 1.966388 1_555
Nb6 O66 1.974907 1_555
Nb6 O38 2.071684 1_555
Nb6 O62 2.097380 1_555
Nb7 O39 1.942478 1_555
Nb7 O63 1.949155 1_555
Nb7 O67 1.976442 1_555
Nb7 O77 1.994129 1_555
Nb8 O72 1.906408 1_555
Nb8 O66 1.946391 1_555
Nb8 O40 2.038292 1_555
Nb8 O48 2.062952 1_555
Nb9 O49 1.953630 1_555
Nb9 O41 1.959548 1_555
Nb9 O67 2.010488 1_555
Nb9 O73 2.064485 1_555
Nb10 O74 1.965532 1_565
Nb10 O64 1.986079 1_565
Nb10 O50 2.069829 1_555
Nb10 O42 2.090561 1_555
Nb11 O51 1.909765 1_555
Nb11 O43 1.910056 1_555
Nb11 O75 1.994675 1_555
Nb11 O65 2.009281 1_565
Nb12 O70 1.919336 1_555
Nb12 O76 1.952363 1_555
Nb12 O44 2.052256 1_555
Nb12 O52 2.114318 1_555
Nb13 O71 1.913772 1_555
Nb13 O77 1.927284 1_555
Nb13 O53 1.930435 1_555
Nb13 O45 1.948953 1_555
Nb14 O68 1.951329 1_555
Nb14 O78 1.959310 1_565
Nb14 O54 2.045062 1_555
Nb14 O46 2.048203 1_555
Nb15 O55 1.899988 1_555
Nb15 O47 1.909628 1_555
Nb15 O79 1.989238 1_555
Nb15 O69 2.029357 1_565
O0 Ta1 2.024999 1_555
O0 Ta9 2.051170 1_555
O1 Ta0 2.021467 1_445
O1 Ta8 2.026673 1_555
O2 Ta11 2.021276 1_555
O2 Ta3 2.046811 1_555
O3 Ta2 2.019434 1_455
O3 Ta10 2.034331 1_555
O4 Ta5 2.022379 1_555
O4 Ta13 2.040710 1_555
O5 Ta4 2.003302 1_556
O5 Ta12 2.008081 1_555
O6 Ta15 2.033777 1_555
O6 Ta7 2.037686 1_555
O7 Ta6 1.998089 1_555
O7 Ta14 2.018068 1_555
O8 Ta8 2.005667 1_555
O8 Ta2 2.034160 1_455
O9 Ta3 2.004361 1_555
O9 Ta9 2.009227 1_555
O10 Ta0 2.022273 1_455
O10 Ta10 2.031663 1_555
O11 Ta11 2.036385 1_555
O11 Ta1 2.054942 1_565
O12 Ta12 2.030451 1_555
O12 Ta6 2.037397 1_555
O13 Ta13 2.034463 1_555
O13 Ta7 2.034568 1_555
O14 Ta4 2.033044 1_566
O14 Ta14 2.043331 1_555
O15 Ta5 2.048637 1_565
O15 Ta15 2.056917 1_555
O16 Ta9 2.033942 1_555
O16 Ta5 2.036645 1_555
O17 Ta8 2.011231 1_555
O17 Ta4 2.046307 1_556
O18 Ta11 2.019868 1_555
O18 Ta7 2.026563 1_555
O19 Ta10 2.017050 1_555
O19 Ta6 2.024467 1_555
O20 Ta1 2.020697 1_655
O20 Ta13 2.033599 1_555
O21 Ta0 2.034480 1_545
O21 Ta12 2.041239 1_555
O22 Ta3 2.026730 1_655
O22 Ta15 2.030213 1_555
O23 Ta2 1.998753 1_555
O23 Ta14 2.055452 1_555
O24 Ta8 2.020210 1_555
O24 Ta6 2.055640 1_555
O25 Ta9 2.002384 1_555
O25 Ta7 2.041578 1_555
O26 Ta4 2.020147 1_566
O26 Ta10 2.057839 1_555
O27 Ta11 2.015249 1_555
O27 Ta5 2.022413 1_565
O28 Ta12 2.024099 1_555
O28 Ta2 2.053279 1_555
O29 Ta13 2.026515 1_555
O29 Ta3 2.030233 1_655
O30 Ta0 2.031530 1_555
O30 Ta14 2.036934 1_555
O31 Ta1 2.011146 1_665
O31 Ta15 2.011712 1_555
O32 Ta0 1.923221 1_444
O33 Ta1 2.120498 1_555
O34 Ta2 2.000093 1_454
O35 Ta3 2.125560 1_555
O36 Ta4 1.932126 1_555
O37 Ta5 2.129460 1_555
O38 Ta6 1.951532 1_554
O39 Ta7 2.048162 1_555
O40 Ta7 1.964271 1_555
O41 Ta6 2.115197 1_555
O42 Ta5 1.946115 1_565
O43 Ta4 2.263795 1_566
O44 Ta3 1.966575 1_655
O45 Ta2 2.087959 1_555
O46 Ta1 1.942266 1_665
O47 Ta0 2.261833 1_555
O48 Ta8 1.973084 1_554
O49 Ta9 2.060444 1_555
O50 Ta10 1.958995 1_554
O51 Ta11 2.185329 1_555
O52 Ta12 1.934567 1_554
O53 Ta13 2.089410 1_555
O54 Ta14 1.955870 1_554
O55 Ta15 2.182648 1_555
O56 Ta9 1.968235 1_555
O57 Ta8 2.154474 1_555
O58 Ta11 1.947955 1_555
O59 Ta10 2.134730 1_555
O60 Ta13 1.945854 1_555
O61 Ta12 2.177596 1_555
O62 Ta15 1.930448 1_555
O63 Ta14 2.114771 1_555
