# generated using pymatgen
data_Eu(ZnSn)2
_symmetry_space_group_name_H-M   'P 1'
_cell_length_a   4.63012700
_cell_length_b   4.63012700
_cell_length_c   11.37423200
_cell_angle_alpha   90.00000000
_cell_angle_beta   90.00000000
_cell_angle_gamma   90.00000000
_symmetry_Int_Tables_number   1
_chemical_formula_structural   Eu(ZnSn)2
_chemical_formula_sum   'Eu2 Zn4 Sn4'
_cell_volume   243.84165047
_cell_formula_units_Z   2
loop_
 _symmetry_equiv_pos_site_id
 _symmetry_equiv_pos_as_xyz
  1  'x, y, z'
loop_
 _atom_site_type_symbol
 _atom_site_label
 _atom_site_symmetry_multiplicity
 _atom_site_fract_x
 _atom_site_fract_y
 _atom_site_fract_z
 _atom_site_occupancy
  Eu  Eu0  1  0.00000000  0.50000000  0.24396400  1
  Eu  Eu1  1  0.50000000  0.00000000  0.75603600  1
  Zn  Zn0  1  0.50000000  0.50000000  0.00000000  1
  Zn  Zn1  1  0.00000000  0.00000000  0.00000000  1
  Zn  Zn2  1  0.50000000  0.00000000  0.36157300  1
  Zn  Zn3  1  0.00000000  0.50000000  0.63842700  1
  Sn  Sn0  1  0.00000000  0.00000000  0.50000000  1
  Sn  Sn1  1  0.50000000  0.50000000  0.50000000  1
  Sn  Sn2  1  0.50000000  0.00000000  0.13282700  1
  Sn  Sn3  1  0.00000000  0.50000000  0.86717300  1
loop_
_geom_bond_atom_site_label_1
_geom_bond_atom_site_label_2
_geom_bond_distance
_geom_bond_site_symmetry_2
Eu0 Sn2 3.509556 1_455
Eu0 Sn2 3.509556 1_465
Eu0 Sn2 3.509556 1_555
Eu0 Sn2 3.509556 1_565
Eu0 Zn2 3.536737 1_565
Eu0 Zn2 3.536737 1_455
Eu0 Zn2 3.536737 1_465
Eu0 Zn2 3.536737 1_555
Eu0 Zn0 3.613808 1_555
Eu0 Zn1 3.613808 1_565
Eu0 Zn1 3.613808 1_555
Eu0 Zn0 3.613808 1_455
Eu0 Sn0 3.720283 1_555
Eu0 Sn1 3.720283 1_555
Eu0 Sn0 3.720283 1_565
Eu0 Sn1 3.720283 1_455
Eu1 Sn3 3.509556 1_555
Eu1 Sn3 3.509556 1_545
Eu1 Sn3 3.509556 1_645
Eu1 Sn3 3.509556 1_655
Eu1 Zn3 3.536737 1_545
Eu1 Zn3 3.536737 1_645
Eu1 Zn3 3.536737 1_555
Eu1 Zn3 3.536737 1_655
Eu1 Zn1 3.613808 1_556
Eu1 Zn0 3.613808 1_546
Eu1 Zn1 3.613808 1_656
Eu1 Zn0 3.613808 1_556
Eu1 Sn0 3.720283 1_555
Eu1 Sn0 3.720283 1_655
Eu1 Sn1 3.720283 1_555
Eu1 Sn1 3.720283 1_545
Sn0 Zn3 2.799745 1_555
Sn0 Zn3 2.799745 1_545
Sn0 Zn2 2.799745 1_455
Sn0 Zn2 2.799745 1_555
Sn1 Zn3 2.799745 1_555
Sn1 Zn3 2.799745 1_655
Sn1 Zn2 2.799745 1_555
Sn1 Zn2 2.799745 1_565
Sn2 Zn2 2.601810 1_555
Sn2 Zn1 2.764426 1_555
Sn2 Zn1 2.764426 1_655
Sn2 Zn0 2.764426 1_555
Sn2 Zn0 2.764426 1_545
Sn3 Zn3 2.601810 1_555
Sn3 Zn0 2.764426 1_456
Sn3 Zn1 2.764426 1_556
Sn3 Zn1 2.764426 1_566
Sn3 Zn0 2.764426 1_556
