# generated using pymatgen
data_K2CeH2S3O13
_symmetry_space_group_name_H-M   'P 1'
_cell_length_a   7.29480200
_cell_length_b   11.16285756
_cell_length_c   15.76888526
_cell_angle_alpha   83.56986924
_cell_angle_beta   76.62616372
_cell_angle_gamma   70.92870859
_symmetry_Int_Tables_number   1
_chemical_formula_structural   K2CeH2S3O13
_chemical_formula_sum   'K8 Ce4 H8 S12 O52'
_cell_volume   1179.75725158
_cell_formula_units_Z   4
loop_
 _symmetry_equiv_pos_site_id
 _symmetry_equiv_pos_as_xyz
  1  'x, y, z'
loop_
 _atom_site_type_symbol
 _atom_site_label
 _atom_site_symmetry_multiplicity
 _atom_site_fract_x
 _atom_site_fract_y
 _atom_site_fract_z
 _atom_site_occupancy
  K  K0  1  0.12307300  0.10289300  0.33938600  1
  K  K1  1  0.56535200  0.89710700  0.66061400  1
  K  K2  1  0.99669100  0.50485500  0.20858400  1
  K  K3  1  0.71013100  0.49514500  0.79141600  1
  K  K4  1  0.15935000  0.50000000  0.50000000  1
  K  K5  1  0.75052600  0.00000000  0.00000000  1
  K  K6  1  0.63361200  0.22880400  0.23072600  1
  K  K7  1  0.09314200  0.77119600  0.76927400  1
  Ce  Ce0  1  0.73751400  0.24481400  0.58383800  1
  Ce  Ce1  1  0.56616600  0.75518600  0.41616200  1
  Ce  Ce2  1  0.23113200  0.31683000  0.92249100  1
  Ce  Ce3  1  0.47045300  0.68317000  0.07750900  1
  H  H0  1  0.18718000  0.20487600  0.55717700  1
  H  H1  1  0.94923300  0.79512400  0.44282300  1
  H  H2  1  0.10839000  0.22319000  0.65938200  1
  H  H3  1  0.99096200  0.77681000  0.34061800  1
  H  H4  1  0.23332900  0.03857300  0.90036400  1
  H  H5  1  0.17226600  0.96142700  0.09963600  1
  H  H6  1  0.05779200  0.13452800  0.86457000  1
  H  H7  1  0.05688900  0.86547200  0.13543000  1
  S  S0  1  0.78111300  0.39173300  0.40542200  1
  S  S1  1  0.57826700  0.60826700  0.59457800  1
  S  S2  1  0.20160700  0.20659500  0.11182000  1
  S  S3  1  0.52002200  0.79340500  0.88818000  1
  S  S4  1  0.01898800  0.64353500  0.00227800  1
  S  S5  1  0.66480100  0.35646500  0.99772200  1
  S  S6  1  0.71354900  0.13943800  0.77644000  1
  S  S7  1  0.62942700  0.86056200  0.22356000  1
  S  S8  1  0.24533900  0.40789400  0.72679700  1
  S  S9  1  0.38003100  0.59210600  0.27320300  1
  S  S10  1  0.56489800  0.07700900  0.45251500  1
  S  S11  1  0.09442200  0.92299100  0.54748500  1
  O  O0  1  0.07399300  0.24769500  0.60218900  1
  O  O1  1  0.92387700  0.75230500  0.39781100  1
  O  O2  1  0.13625300  0.12428800  0.90913700  1
  O  O3  1  0.16967900  0.87571200  0.09086300  1
  O  O4  1  0.77296100  0.52729900  0.39699800  1
  O  O5  1  0.69725800  0.47270100  0.60300200  1
  O  O6  1  0.94038100  0.31761200  0.45480000  1
  O  O7  1  0.71279200  0.68238800  0.54520000  1
  O  O8  1  0.82491300  0.34095300  0.31882500  1
  O  O9  1  0.48469100  0.65904700  0.68117500  1
  O  O10  1  0.59605500  0.37241400  0.46254000  1
  O  O11  1  0.43100900  0.62758600  0.53746000  1
  O  O12  1  0.07489300  0.32982300  0.07469000  1
  O  O13  1  0.47940600  0.67017700  0.92531000  1
  O  O14  1  0.08437000  0.12085300  0.14859500  1
  O  O15  1  0.35381900  0.87914700  0.85140500  1
  O  O16  1  0.35175300  0.15271100  0.03022600  1
  O  O17  1  0.53469100  0.84728900  0.96977400  1
  O  O18  1  0.29275600  0.23570700  0.17722800  1
  O  O19  1  0.70569100  0.76429300  0.82277200  1
  O  O20  1  0.15235200  0.62854700  0.06380700  1
  O  O21  1  0.84470600  0.37145300  0.93619300  1
  O  O22  1  0.99801100  0.75983900  0.94830300  1
  O  O23  1  0.70615300  0.24016100  0.05169700  1
  O  O24  1  0.82120400  0.63829200  0.05552400  1
  O  O25  1  0.51501900  0.36170800  0.94447600  1
  O  O26  1  0.09824200  0.53077600  0.94486000  1
  O  O27  1  0.57387800  0.46922400  0.05514000  1
  O  O28  1  0.52052500  0.16478500  0.83952100  1
  O  O29  1  0.52483100  0.83521500  0.16047900  1
  O  O30  1  0.74916300  0.26122800  0.73625700  1
  O  O31  1  0.74664700  0.73877200  0.26374300  1
  O  O32  1  0.70409700  0.07665000  0.69856300  1
  O  O33  1  0.47931000  0.92335000  0.30143700  1
  O  O34  1  0.87456800  0.06225800  0.81880200  1
  O  O35  1  0.75562800  0.93774200  0.18119800  1
  O  O36  1  0.39776400  0.33836800  0.65255300  1
  O  O37  1  0.38868500  0.66163200  0.34744700  1
  O  O38  1  0.34372200  0.43807500  0.79153400  1
  O  O39  1  0.57333000  0.56192500  0.20846600  1
  O  O40  1  0.13671900  0.31973900  0.77780600  1
  O  O41  1  0.23426400  0.68026100  0.22219400  1
  O  O42  1  0.10879200  0.52100400  0.69339700  1
  O  O43  1  0.32319300  0.47899600  0.30660300  1
  O  O44  1  0.57383600  0.93928700  0.47263300  1
  O  O45  1  0.98575600  0.06071300  0.52736700  1
  O  O46  1  0.57233000  0.12290700  0.53881600  1
  O  O47  1  0.23405300  0.87709300  0.46118400  1
  O  O48  1  0.37382900  0.15143300  0.43083800  1
  O  O49  1  0.95610000  0.84856700  0.56916200  1
  O  O50  1  0.73573300  0.08463900  0.38469000  1
  O  O51  1  0.20506200  0.91536100  0.61531000  1
loop_
_geom_bond_atom_site_label_1
_geom_bond_atom_site_label_2
_geom_bond_distance
_geom_bond_site_symmetry_2
K0 O33 2.696993 1_545
K0 O48 2.786091 1_555
K0 O50 2.818787 1_455
K0 O8 2.872954 1_455
K0 O6 2.932730 1_455
K0 O45 2.938345 1_455
K0 O47 2.999827 1_545
K0 O18 3.025662 1_555
K0 O14 3.064670 1_555
K1 O32 2.696993 1_565
K1 O49 2.786091 1_555
K1 O51 2.818787 1_555
K1 O9 2.872954 1_555
K1 O7 2.932731 1_555
K1 O44 2.938345 1_555
K1 O46 2.999827 1_565
K1 O19 3.025662 1_555
K1 O15 3.064667 1_555
K2 O20 2.743564 1_655
K2 O31 2.750304 1_555
K2 O8 2.778092 1_555
K2 O12 2.870408 1_655
K2 O39 2.942846 1_555
K2 O24 3.010130 1_555
K2 O4 3.034807 1_555
K2 O43 3.049424 1_655
K2 O41 3.060574 1_655
K2 O18 3.087729 1_655
K3 O21 2.743561 1_555
K3 O30 2.750304 1_555
K3 O9 2.778096 1_555
K3 O13 2.870410 1_555
K3 O38 2.942846 1_555
K3 O25 3.010137 1_555
K3 O5 3.034809 1_555
K3 O42 3.049418 1_655
K3 O40 3.060568 1_655
K3 O19 3.087726 1_555
K4 O11 2.979737 1_555
K4 O10 2.979737 1_555
K4 O42 3.012428 1_555
K4 O43 3.012428 1_555
K4 O6 3.190865 1_455
K4 O7 3.190871 1_455
K4 O0 3.253002 1_555
K4 O1 3.253002 1_455
K4 O36 3.313560 1_555
K4 O37 3.313560 1_555
K5 O23 2.785107 1_555
K5 O22 2.785107 1_544
K5 O17 2.809844 1_544
K5 O16 2.809849 1_555
K5 O35 2.869844 1_545
K5 O34 2.869844 1_554
K6 O23 2.745634 1_555
K6 O18 2.780426 1_555
K6 O8 2.805830 1_555
K6 O50 2.866586 1_555
K6 O43 3.117950 1_555
K6 O14 3.119578 1_655
K6 O35 3.211803 1_545
K7 O22 2.745634 1_455
K7 O19 2.780426 1_455
K7 O9 2.805830 1_555
K7 O51 2.866586 1_555
K7 O42 3.117950 1_555
K7 O15 3.119584 1_555
K7 O34 3.211803 1_465
Ce0 O46 2.343415 1_555
Ce0 O45 2.351082 1_555
Ce0 O36 2.393105 1_555
Ce0 O6 2.452194 1_555
Ce0 O30 2.453731 1_555
Ce0 O10 2.468722 1_555
Ce0 O32 2.488060 1_555
Ce0 O5 2.508344 1_555
Ce0 O0 2.547907 1_655
Ce1 O47 2.343415 1_555
Ce1 O44 2.351082 1_555
Ce1 O37 2.393105 1_555
Ce1 O7 2.452191 1_555
Ce1 O31 2.453729 1_555
Ce1 O11 2.468722 1_555
Ce1 O33 2.488060 1_555
Ce1 O4 2.508344 1_555
Ce1 O1 2.547907 1_555
Ce2 O26 2.299012 1_555
Ce2 O25 2.389302 1_555
Ce2 O12 2.405121 1_556
Ce2 O28 2.434591 1_555
Ce2 O16 2.440838 1_556
Ce2 O38 2.467100 1_555
Ce2 O2 2.506766 1_555
Ce2 O40 2.525161 1_555
Ce2 O21 2.643710 1_455
Ce3 O27 2.299012 1_555
Ce3 O24 2.389309 1_555
Ce3 O13 2.405121 1_554
Ce3 O29 2.434591 1_555
Ce3 O17 2.440840 1_554
Ce3 O39 2.467098 1_555
Ce3 O3 2.506761 1_555
Ce3 O41 2.525161 1_555
Ce3 O20 2.643710 1_555
H0 O0 0.980296 1_555
H1 O1 0.980296 1_555
H2 O0 0.977616 1_555
H3 O1 0.977616 1_555
H4 O2 0.988771 1_555
H5 O3 0.988768 1_555
H6 O2 0.979734 1_555
H7 O3 0.979744 1_555
O4 S0 1.486974 1_555
O5 S1 1.486976 1_555
O6 S0 1.512187 1_555
O7 S1 1.512187 1_555
O8 S0 1.463312 1_555
O9 S1 1.463311 1_555
O10 S0 1.504793 1_555
O11 S1 1.504787 1_555
O12 S2 1.525941 1_555
O13 S3 1.525941 1_555
O14 S2 1.471376 1_555
O15 S3 1.471371 1_555
O16 S2 1.519145 1_555
O17 S3 1.519148 1_555
O18 S2 1.464603 1_555
O19 S3 1.464603 1_555
O20 S4 1.486528 1_555
O21 S5 1.486528 1_555
O22 S4 1.454750 1_656
O23 S5 1.454750 1_554
O24 S4 1.507922 1_655
O25 S5 1.507928 1_555
O26 S4 1.508623 1_556
O27 S5 1.508623 1_554
O28 S6 1.485574 1_555
O29 S7 1.485574 1_555
O30 S6 1.509639 1_555
O31 S7 1.509637 1_555
O32 S6 1.505859 1_555
O33 S7 1.505859 1_555
O34 S6 1.463195 1_555
O35 S7 1.463195 1_555
O36 S8 1.498902 1_555
O37 S9 1.498899 1_555
O38 S8 1.498211 1_555
O39 S9 1.498200 1_555
O40 S8 1.510172 1_555
O41 S9 1.510176 1_555
O42 S8 1.461393 1_555
O43 S9 1.461397 1_555
O44 S10 1.517638 1_565
O45 S11 1.517638 1_645
O46 S10 1.525080 1_555
O47 S11 1.525080 1_555
O48 S10 1.466232 1_555
O49 S11 1.466232 1_655
O50 S10 1.461692 1_555
O51 S11 1.461692 1_555
