# generated using pymatgen
data_U(CuAs)2
_symmetry_space_group_name_H-M   'P 1'
_cell_length_a   4.05983317
_cell_length_b   4.05983317
_cell_length_c   6.56159500
_cell_angle_alpha   90.00000000
_cell_angle_beta   90.00000000
_cell_angle_gamma   120.00001909
_symmetry_Int_Tables_number   1
_chemical_formula_structural   U(CuAs)2
_chemical_formula_sum   'U1 Cu2 As2'
_cell_volume   93.66047255
_cell_formula_units_Z   1
loop_
 _symmetry_equiv_pos_site_id
 _symmetry_equiv_pos_as_xyz
  1  'x, y, z'
loop_
 _atom_site_type_symbol
 _atom_site_label
 _atom_site_symmetry_multiplicity
 _atom_site_fract_x
 _atom_site_fract_y
 _atom_site_fract_z
 _atom_site_occupancy
  U  U0  1  0.00000000  0.00000000  0.00000000  1
  Cu  Cu0  1  0.66666700  0.33333300  0.63585800  1
  Cu  Cu1  1  0.33333300  0.66666700  0.36414200  1
  As  As0  1  0.66666700  0.33333300  0.25447300  1
  As  As1  1  0.33333300  0.66666700  0.74552700  1
loop_
_geom_bond_atom_site_label_1
_geom_bond_atom_site_label_2
_geom_bond_distance
_geom_bond_site_symmetry_2
As0 Cu1 2.451917 1_545
As0 Cu1 2.451917 1_655
As0 Cu1 2.451925 1_555
As0 Cu0 2.502494 1_555
As0 U0 2.877869 1_655
As0 U0 2.877872 1_555
As0 U0 2.877872 1_665
As1 Cu0 2.451917 1_455
As1 Cu0 2.451917 1_565
As1 Cu0 2.451925 1_555
As1 Cu1 2.502494 1_555
As1 U0 2.877869 1_566
As1 U0 2.877872 1_666
As1 U0 2.877872 1_556
