# generated using pymatgen
data_Li4Co5SnO12
_symmetry_space_group_name_H-M   'P 1'
_cell_length_a   5.01111423
_cell_length_b   10.81829767
_cell_length_c   8.83149689
_cell_angle_alpha   65.89153872
_cell_angle_beta   89.98931000
_cell_angle_gamma   84.97614644
_symmetry_Int_Tables_number   1
_chemical_formula_structural   Li4Co5SnO12
_chemical_formula_sum   'Li8 Co10 Sn2 O24'
_cell_volume   434.99705259
_cell_formula_units_Z   2
loop_
 _symmetry_equiv_pos_site_id
 _symmetry_equiv_pos_as_xyz
  1  'x, y, z'
loop_
 _atom_site_type_symbol
 _atom_site_label
 _atom_site_symmetry_multiplicity
 _atom_site_fract_x
 _atom_site_fract_y
 _atom_site_fract_z
 _atom_site_occupancy
  Li  Li0  1  0.04444300  0.74369200  0.46119800  1
  Li  Li1  1  0.53979500  0.74645200  0.95994600  1
  Li  Li2  1  0.45612400  0.25634700  0.70540100  1
  Li  Li3  1  0.95890300  0.25346700  0.20579300  1
  Li  Li4  1  0.54079400  0.74653500  0.29448300  1
  Li  Li5  1  0.04379000  0.74366200  0.79508900  1
  Li  Li6  1  0.95973900  0.25355700  0.54056200  1
  Li  Li7  1  0.45563900  0.25635100  0.03923200  1
  Co  Co0  1  0.75006200  0.49995700  0.25014800  1
  Co  Co1  1  0.24992000  0.50008100  0.75010200  1
  Co  Co2  1  0.25015200  0.50001400  0.41083200  1
  Co  Co3  1  0.74993400  0.49993800  0.91410000  1
  Co  Co4  1  0.75015300  0.50004300  0.58616900  1
  Co  Co5  1  0.24999900  0.49992400  0.08946500  1
  Co  Co6  1  0.49946500  0.00051100  0.16632600  1
  Co  Co7  1  0.00045800  0.99946900  0.66686400  1
  Co  Co8  1  0.49947300  0.00050100  0.83265300  1
  Co  Co9  1  0.00048000  0.99946700  0.33319400  1
  Sn  Sn0  1  0.99929900  0.00031200  0.99968300  1
  Sn  Sn1  1  0.50089200  0.99968200  0.49997200  1
  O  O0  1  0.91515400  0.60900700  0.69554100  1
  O  O1  1  0.40359000  0.59983300  0.20012700  1
  O  O2  1  0.58498600  0.39117700  0.80463300  1
  O  O3  1  0.09658800  0.40010100  0.30015700  1
  O  O4  1  0.33651000  0.10838100  0.94557000  1
  O  O5  1  0.83871600  0.10751800  0.44598600  1
  O  O6  1  0.66125400  0.89250000  0.05353900  1
  O  O7  1  0.16342400  0.89164700  0.55394900  1
  O  O8  1  0.30288000  0.10726400  0.62399300  1
  O  O9  1  0.80317200  0.10799600  0.12456600  1
  O  O10  1  0.19708500  0.89274300  0.23130300  1
  O  O11  1  0.69676300  0.89203700  0.73259800  1
  O  O12  1  0.80315900  0.10799300  0.76691500  1
  O  O13  1  0.30289000  0.10728000  0.26821500  1
  O  O14  1  0.69677200  0.89202900  0.37497700  1
  O  O15  1  0.19705200  0.89274400  0.87558400  1
  O  O16  1  0.10707100  0.39504400  0.61711300  1
  O  O17  1  0.58821000  0.39699100  0.13788000  1
  O  O18  1  0.58853600  0.39719300  0.46523700  1
  O  O19  1  0.10680300  0.39500800  0.98820900  1
  O  O20  1  0.39329700  0.60500900  0.51200000  1
  O  O21  1  0.91160700  0.60270900  0.03504300  1
  O  O22  1  0.91194200  0.60287800  0.36244000  1
  O  O23  1  0.39302100  0.60495800  0.88321700  1
loop_
_geom_bond_atom_site_label_1
_geom_bond_atom_site_label_2
_geom_bond_distance
_geom_bond_site_symmetry_2
Li0 O20 2.121154 1_555
Li0 O0 2.127763 1_455
Li0 O14 2.168631 1_455
Li0 O22 2.187464 1_455
Li0 O7 2.197013 1_555
Li0 O10 2.201884 1_555
Li1 O23 2.094757 1_555
Li1 O15 2.137952 1_555
Li1 O11 2.182580 1_555
Li1 O6 2.187585 1_556
Li1 O1 2.218467 1_556
Li1 O21 2.231596 1_556
Li2 O16 2.122251 1_555
Li2 O2 2.126514 1_555
Li2 O12 2.166665 1_555
Li2 O18 2.190214 1_555
Li2 O4 2.194173 1_555
Li2 O8 2.207305 1_555
Li3 O19 2.093078 1_654
Li3 O13 2.141737 1_655
Li3 O9 2.176661 1_555
Li3 O5 2.187556 1_555
Li3 O17 2.226134 1_555
Li3 O3 2.226857 1_655
Li4 O20 2.091805 1_555
Li4 O10 2.140549 1_555
Li4 O14 2.173366 1_555
Li4 O6 2.192559 1_555
Li4 O1 2.226570 1_555
Li4 O22 2.228632 1_555
Li5 O23 2.122857 1_555
Li5 O0 2.126369 1_455
Li5 O11 2.166335 1_455
Li5 O21 2.188907 1_456
Li5 O7 2.200023 1_555
Li5 O15 2.202308 1_555
Li6 O16 2.094875 1_655
Li6 O8 2.139067 1_655
Li6 O12 2.176187 1_555
Li6 O5 2.192605 1_555
Li6 O3 2.220692 1_655
Li6 O18 2.228680 1_555
Li7 O19 2.120781 1_554
Li7 O2 2.129914 1_554
Li7 O9 2.167853 1_555
Li7 O17 2.185261 1_555
Li7 O13 2.197181 1_555
Li7 O4 2.202810 1_554
Co0 O1 1.912807 1_555
Co0 O3 1.912954 1_655
Co0 O18 1.982744 1_555
Co0 O21 1.982864 1_555
Co0 O22 1.985395 1_555
Co0 O17 1.985566 1_555
Co1 O0 1.903993 1_455
Co1 O2 1.905132 1_555
Co1 O23 2.101434 1_555
Co1 O16 2.101458 1_555
Co1 O19 2.101876 1_555
Co1 O20 2.102094 1_555
Co2 O16 1.890651 1_555
Co2 O22 1.890717 1_455
Co2 O20 1.890773 1_555
Co2 O18 1.891256 1_555
Co2 O1 1.929596 1_555
Co2 O3 1.929997 1_555
Co3 O19 1.988207 1_655
Co3 O23 1.988766 1_555
Co3 O2 2.025374 1_555
Co3 O0 2.028138 1_555
Co3 O21 2.039986 1_556
Co3 O17 2.040177 1_556
Co4 O20 1.988342 1_555
Co4 O16 1.988637 1_655
Co4 O0 2.026679 1_555
Co4 O2 2.026915 1_555
Co4 O22 2.039762 1_555
Co4 O18 2.040467 1_555
Co5 O23 1.890481 1_554
Co5 O19 1.890735 1_554
Co5 O17 1.891030 1_555
Co5 O21 1.891134 1_455
Co5 O3 1.929460 1_555
Co5 O1 1.929939 1_555
Co6 O10 1.935739 1_545
Co6 O13 1.940021 1_555
Co6 O9 1.940036 1_555
Co6 O14 1.944536 1_545
Co6 O6 1.949223 1_545
Co6 O4 1.950556 1_554
Co7 O8 1.936115 1_565
Co7 O11 1.939609 1_455
Co7 O15 1.940158 1_555
Co7 O12 1.944347 1_465
Co7 O5 1.949449 1_465
Co7 O7 1.950652 1_555
Co8 O15 1.935841 1_545
Co8 O8 1.939848 1_555
Co8 O12 1.939928 1_555
Co8 O11 1.943867 1_545
Co8 O6 1.949494 1_546
Co8 O4 1.951144 1_555
Co9 O13 1.936134 1_565
Co9 O14 1.939729 1_455
Co9 O10 1.939741 1_555
Co9 O9 1.944484 1_465
Co9 O5 1.949545 1_465
Co9 O7 1.950446 1_555
O4 Sn0 2.083251 1_455
O5 Sn1 2.084539 1_545
O6 Sn0 2.085354 1_564
O7 Sn1 2.084162 1_555
O8 Sn1 2.092253 1_545
O9 Sn0 2.094789 1_554
O10 Sn0 2.091637 1_464
O11 Sn1 2.094359 1_555
O12 Sn0 2.095915 1_555
O13 Sn1 2.093042 1_545
O14 Sn1 2.094769 1_555
O15 Sn0 2.092108 1_465
