# generated using pymatgen
data_CaIn2Cu
_symmetry_space_group_name_H-M   'P 1'
_cell_length_a   4.44084390
_cell_length_b   5.83153215
_cell_length_c   7.40204639
_cell_angle_alpha   90.00001287
_cell_angle_beta   89.99999746
_cell_angle_gamma   112.51644771
_symmetry_Int_Tables_number   1
_chemical_formula_structural   CaIn2Cu
_chemical_formula_sum   'Ca2 In4 Cu2'
_cell_volume   177.07761702
_cell_formula_units_Z   2
loop_
 _symmetry_equiv_pos_site_id
 _symmetry_equiv_pos_as_xyz
  1  'x, y, z'
loop_
 _atom_site_type_symbol
 _atom_site_label
 _atom_site_symmetry_multiplicity
 _atom_site_fract_x
 _atom_site_fract_y
 _atom_site_fract_z
 _atom_site_occupancy
  Ca  Ca0  1  0.06736450  0.13501656  0.75000012  1
  Ca  Ca1  1  0.93263544  0.86498343  0.24999989  1
  In  In0  1  0.35593219  0.71161431  0.94853258  1
  In  In1  1  0.64406780  0.28838571  0.05146741  1
  In  In2  1  0.64406787  0.28838583  0.44853263  1
  In  In3  1  0.35593213  0.71161416  0.55146739  1
  Cu  Cu0  1  0.78406997  0.57055062  0.75000013  1
  Cu  Cu1  1  0.21593010  0.42944939  0.24999985  1
loop_
_geom_bond_atom_site_label_1
_geom_bond_atom_site_label_2
_geom_bond_distance
_geom_bond_site_symmetry_2
Ca0 Cu0 3.040775 1_445
Ca0 Cu0 3.223277 1_555
Ca0 Cu0 3.237395 1_455
Ca0 In1 3.253313 1_556
Ca0 In2 3.253314 1_555
Ca0 In1 3.255868 1_456
Ca0 In2 3.255870 1_455
Ca0 In0 3.436223 1_555
Ca0 In3 3.436224 1_555
Ca0 In0 3.501849 1_445
Ca0 In3 3.501850 1_445
Ca0 In0 3.510201 1_545
Ca0 In3 3.510202 1_545
Ca1 Cu1 3.040775 1_665
Ca1 Cu1 3.223277 1_555
Ca1 Cu1 3.237395 1_655
Ca1 In0 3.253312 1_554
Ca1 In3 3.253314 1_555
Ca1 In0 3.255868 1_654
Ca1 In3 3.255870 1_655
Ca1 In1 3.436223 1_555
Ca1 In2 3.436224 1_555
Ca1 In1 3.501849 1_665
Ca1 In2 3.501850 1_665
Ca1 In1 3.510202 1_565
Ca1 In2 3.510202 1_565
Cu0 In1 2.700002 1_556
Cu0 In2 2.700003 1_555
Cu0 In0 2.765696 1_555
Cu0 In3 2.765697 1_555
Cu0 In0 2.772285 1_655
Cu0 In3 2.772286 1_655
Cu1 In0 2.700002 1_554
Cu1 In3 2.700003 1_555
Cu1 In1 2.765695 1_555
Cu1 In2 2.765697 1_555
Cu1 In1 2.772285 1_455
Cu1 In2 2.772287 1_455
