# generated using pymatgen
data_Pb3WO6
_symmetry_space_group_name_H-M   'P 1'
_cell_length_a   8.08731734
_cell_length_b   9.71452172
_cell_length_c   9.58218600
_cell_angle_alpha   90.00000000
_cell_angle_beta   90.00000000
_cell_angle_gamma   87.47266835
_symmetry_Int_Tables_number   1
_chemical_formula_structural   Pb3WO6
_chemical_formula_sum   'Pb12 W4 O24'
_cell_volume   752.08661873
_cell_formula_units_Z   4
loop_
 _symmetry_equiv_pos_site_id
 _symmetry_equiv_pos_as_xyz
  1  'x, y, z'
loop_
 _atom_site_type_symbol
 _atom_site_label
 _atom_site_symmetry_multiplicity
 _atom_site_fract_x
 _atom_site_fract_y
 _atom_site_fract_z
 _atom_site_occupancy
  Pb  Pb0  1  0.75255200  0.76361200  0.46661500  1
  Pb  Pb1  1  0.24744800  0.73638800  0.96661500  1
  Pb  Pb2  1  0.24744800  0.23638800  0.53338500  1
  Pb  Pb3  1  0.75255200  0.26361200  0.03338500  1
  Pb  Pb4  1  0.49661800  0.48771600  0.32298300  1
  Pb  Pb5  1  0.50338200  0.01228400  0.82298300  1
  Pb  Pb6  1  0.50338200  0.51228400  0.67701700  1
  Pb  Pb7  1  0.49661800  0.98771600  0.17701700  1
  Pb  Pb8  1  0.78076300  0.20068600  0.50794700  1
  Pb  Pb9  1  0.21923700  0.29931400  0.00794700  1
  Pb  Pb10  1  0.21923700  0.79931400  0.49205300  1
  Pb  Pb11  1  0.78076300  0.70068600  0.99205300  1
  W  W0  1  0.97281900  0.46198800  0.32602700  1
  W  W1  1  0.02718100  0.03801200  0.82602700  1
  W  W2  1  0.02718100  0.53801200  0.67397300  1
  W  W3  1  0.97281900  0.96198800  0.17397300  1
  O  O0  1  0.53183500  0.34024800  0.50880900  1
  O  O1  1  0.46816500  0.15975200  0.00880900  1
  O  O2  1  0.46816500  0.65975200  0.49119100  1
  O  O3  1  0.53183500  0.84024800  0.99119100  1
  O  O4  1  0.83901200  0.30814600  0.29925400  1
  O  O5  1  0.16098800  0.19185400  0.79925400  1
  O  O6  1  0.16098800  0.69185400  0.70074600  1
  O  O7  1  0.83901200  0.80814600  0.20074600  1
  O  O8  1  0.75408000  0.56400200  0.35457900  1
  O  O9  1  0.24592000  0.93599800  0.85457900  1
  O  O10  1  0.24592000  0.43599800  0.64542100  1
  O  O11  1  0.75408000  0.06400200  0.14542100  1
  O  O12  1  0.18225200  0.36223200  0.33562000  1
  O  O13  1  0.81774800  0.13776800  0.83562000  1
  O  O14  1  0.81774800  0.63776800  0.66438000  1
  O  O15  1  0.18225200  0.86223200  0.16438000  1
  O  O16  1  0.04854700  0.61722000  0.44548400  1
  O  O17  1  0.95145300  0.88278000  0.94548400  1
  O  O18  1  0.95145300  0.38278000  0.55451600  1
  O  O19  1  0.04854700  0.11722000  0.05451600  1
  O  O20  1  0.00216000  0.48240100  0.85075100  1
  O  O21  1  0.99784000  0.01759900  0.35075100  1
  O  O22  1  0.99784000  0.51759900  0.14924900  1
  O  O23  1  0.00216000  0.98240100  0.64924900  1
loop_
_geom_bond_atom_site_label_1
_geom_bond_atom_site_label_2
_geom_bond_distance
_geom_bond_site_symmetry_2
O0 Pb4 2.295218 1_555
O0 Pb6 2.325941 1_555
O0 Pb8 2.377037 1_555
O0 Pb2 2.562763 1_555
O1 Pb5 2.295218 1_554
O1 Pb7 2.325941 1_545
O1 Pb9 2.377037 1_555
O1 Pb3 2.562763 1_555
O2 Pb6 2.295218 1_555
O2 Pb4 2.325941 1_555
O2 Pb10 2.377037 1_555
O2 Pb0 2.562763 1_555
O3 Pb7 2.295218 1_556
O3 Pb5 2.325941 1_565
O3 Pb11 2.377037 1_555
O3 Pb1 2.562763 1_555
O4 W0 1.900791 1_555
O4 Pb8 2.313871 1_555
O4 Pb3 2.681989 1_555
O5 W1 1.900791 1_555
O5 Pb9 2.313871 1_556
O5 Pb2 2.681989 1_555
O6 W2 1.900791 1_555
O6 Pb10 2.313871 1_555
O6 Pb1 2.681989 1_555
O7 W3 1.900791 1_555
O7 Pb11 2.313871 1_554
O7 Pb0 2.681989 1_555
O8 W0 2.007924 1_555
O8 Pb0 2.216014 1_555
O8 Pb4 2.261064 1_555
O9 W1 2.007924 1_565
O9 Pb1 2.216014 1_555
O9 Pb5 2.261064 1_565
O10 W2 2.007924 1_555
O10 Pb2 2.216014 1_555
O10 Pb6 2.261064 1_555
O11 W3 2.007924 1_545
O11 Pb3 2.216014 1_555
O11 Pb7 2.261064 1_545
O12 W0 1.916143 1_455
O12 Pb2 2.303650 1_555
O13 W1 1.916143 1_655
O13 Pb3 2.303650 1_556
O14 W2 1.916143 1_655
O14 Pb0 2.303650 1_555
O15 W3 1.916143 1_455
O15 Pb1 2.303650 1_554
O16 W0 2.010187 1_455
O16 W2 2.329644 1_555
O16 Pb10 2.334364 1_555
O16 Pb0 2.737430 1_455
O17 W1 2.010187 1_665
O17 W3 2.329644 1_556
O17 Pb11 2.334364 1_555
O17 Pb1 2.737430 1_655
O18 W2 2.010187 1_655
O18 W0 2.329644 1_555
O18 Pb8 2.334364 1_555
O18 Pb2 2.737430 1_655
O19 W3 2.010187 1_445
O19 W1 2.329644 1_554
O19 Pb9 2.334364 1_555
O19 Pb3 2.737430 1_455
O20 W2 1.792151 1_555
O21 W3 1.792151 1_545
O22 W0 1.792151 1_555
O23 W1 1.792151 1_565
