# generated using pymatgen
data_NaV3H6(SO7)2
_symmetry_space_group_name_H-M   'P 1'
_cell_length_a   7.14822658
_cell_length_b   7.13574104
_cell_length_c   12.66426025
_cell_angle_alpha   74.94323778
_cell_angle_beta   92.41282953
_cell_angle_gamma   62.41369991
_symmetry_Int_Tables_number   1
_chemical_formula_structural   NaV3H6(SO7)2
_chemical_formula_sum   'Na2 V6 H12 S4 O28'
_cell_volume   542.83935582
_cell_formula_units_Z   2
loop_
 _symmetry_equiv_pos_site_id
 _symmetry_equiv_pos_as_xyz
  1  'x, y, z'
loop_
 _atom_site_type_symbol
 _atom_site_label
 _atom_site_symmetry_multiplicity
 _atom_site_fract_x
 _atom_site_fract_y
 _atom_site_fract_z
 _atom_site_occupancy
  Na  Na0  1  0.49876300  0.00483200  0.49997400  1
  Na  Na1  1  0.00001200  0.99534300  0.99875100  1
  V  V0  1  0.49957300  0.50028400  0.49969000  1
  V  V1  1  0.99991100  0.00056100  0.49990000  1
  V  V2  1  0.74988200  0.00009800  0.74987500  1
  V  V3  1  0.00033600  0.49939800  0.00039400  1
  V  V4  1  0.49998600  0.99916000  0.00018400  1
  V  V5  1  0.24987600  0.99984900  0.24990800  1
  H  H0  1  0.65787000  0.29847700  0.35742600  1
  H  H1  1  0.15714400  0.29731700  0.85825200  1
  H  H2  1  0.45028500  0.71396800  0.15039900  1
  H  H3  1  0.95332800  0.71437000  0.65145800  1
  H  H4  1  0.86527500  0.29991400  0.15023500  1
  H  H5  1  0.36464300  0.29981100  0.64872600  1
  H  H6  1  0.84204100  0.70138100  0.14259700  1
  H  H7  1  0.34285500  0.70276700  0.64174400  1
  H  H8  1  0.05022200  0.28579700  0.34976500  1
  H  H9  1  0.54714800  0.28565100  0.84893400  1
  H  H10  1  0.63483100  0.70033700  0.34995900  1
  H  H11  1  0.13553900  0.70040900  0.85148200  1
  S  S0  1  0.03525100  0.69081500  0.34474100  1
  S  S1  1  0.53722600  0.68876700  0.84498100  1
  S  S2  1  0.46461800  0.30916400  0.15519100  1
  S  S3  1  0.96274500  0.31128400  0.65499800  1
  O  O0  1  0.90605900  0.60520700  0.30149100  1
  O  O1  1  0.40876900  0.60219500  0.80190100  1
  O  O2  1  0.59387500  0.39478200  0.19842900  1
  O  O3  1  0.09127200  0.39792300  0.69795200  1
  O  O4  1  0.24387400  0.49906500  0.41346700  1
  O  O5  1  0.74599000  0.49778900  0.91378900  1
  O  O6  1  0.91408200  0.82844500  0.41489500  1
  O  O7  1  0.41529200  0.82651800  0.91495100  1
  O  O8  1  0.07728500  0.83071700  0.24907700  1
  O  O9  1  0.57872200  0.82914200  0.74922700  1
  O  O10  1  0.25604000  0.50095300  0.08645200  1
  O  O11  1  0.75394500  0.50219400  0.58620600  1
  O  O12  1  0.58579700  0.17155200  0.08503400  1
  O  O13  1  0.08462800  0.17338300  0.58507500  1
  O  O14  1  0.42252100  0.16928800  0.25085000  1
  O  O15  1  0.92127300  0.17104700  0.75082700  1
  O  O16  1  0.80195000  0.74165400  0.06110300  1
  O  O17  1  0.30155500  0.74230300  0.56048000  1
  O  O18  1  0.11104600  0.12290900  0.37024200  1
  O  O19  1  0.60938400  0.12250100  0.86962300  1
  O  O20  1  0.49259300  0.74020600  0.37023800  1
  O  O21  1  0.99317400  0.74176300  0.87174300  1
  O  O22  1  0.69793500  0.25808200  0.43893400  1
  O  O23  1  0.19839400  0.25759100  0.93953500  1
  O  O24  1  0.38927900  0.87692600  0.12990100  1
  O  O25  1  0.89105900  0.87758100  0.63058400  1
  O  O26  1  0.00754600  0.25979700  0.12991200  1
  O  O27  1  0.50700700  0.25853100  0.62841800  1
loop_
_geom_bond_atom_site_label_1
_geom_bond_atom_site_label_2
_geom_bond_distance
_geom_bond_site_symmetry_2
Na0 O27 2.747262 1_555
Na0 O22 2.764063 1_555
Na0 O18 2.797324 1_555
Na0 O17 2.806203 1_545
Na0 O25 2.809794 1_545
Na0 O20 2.819585 1_545
Na0 O4 2.971690 1_555
Na0 O14 2.994544 1_555
Na0 O9 2.998488 1_545
Na0 O13 3.002688 1_555
Na0 O6 3.011976 1_545
Na0 O11 3.020284 1_545
Na1 O21 2.729690 1_455
Na1 O16 2.762285 1_456
Na1 O19 2.791506 1_465
Na1 O23 2.809524 1_565
Na1 O24 2.814141 1_556
Na1 O26 2.835174 1_566
Na1 O10 2.973552 1_556
Na1 O15 2.983170 1_465
Na1 O7 3.001173 1_555
Na1 O8 3.008644 1_556
Na1 O12 3.013323 1_466
Na1 O5 3.018451 1_465
H0 O22 0.987263 1_555
H1 O23 0.986085 1_555
H2 O24 0.986766 1_555
H3 O25 0.987113 1_555
H4 O26 0.986476 1_655
H5 O27 0.986048 1_555
H6 O16 0.987213 1_555
H7 O17 0.986066 1_555
H8 O18 0.986480 1_555
H9 O19 0.986883 1_555
H10 O20 0.986263 1_555
H11 O21 0.985768 1_455
O0 S0 1.476400 1_655
O1 S1 1.476730 1_555
O2 S2 1.476761 1_555
O3 S3 1.476793 1_455
O4 S0 1.495255 1_555
O4 V0 2.094009 1_555
O5 S1 1.494472 1_555
O5 V3 2.089647 1_656
O6 S0 1.494772 1_655
O6 V1 2.091157 1_565
O7 S1 1.495053 1_555
O7 V4 2.091870 1_556
O8 S0 1.494906 1_555
O8 V5 2.088843 1_555
O9 S1 1.495410 1_555
O9 V2 2.090894 1_565
O10 S2 1.495213 1_555
O10 V3 2.094330 1_555
O11 S3 1.494408 1_555
O11 V0 2.090424 1_555
O12 S2 1.494754 1_555
O12 V4 2.091490 1_545
O13 S3 1.495053 1_455
O13 V1 2.092577 1_455
O14 S2 1.495008 1_555
O14 V5 2.091226 1_545
O15 S3 1.495388 1_555
O15 V2 2.092771 1_555
O16 V4 2.020048 1_555
O16 V3 2.025419 1_655
O17 V1 2.019884 1_465
O17 V0 2.024161 1_555
O18 V5 2.023324 1_545
O18 V1 2.024086 1_455
O19 V2 2.018751 1_555
O19 V4 2.027391 1_546
O20 V0 2.019146 1_555
O20 V5 2.024459 1_555
O21 V3 2.023650 1_656
O21 V2 2.032559 1_565
O22 V1 2.020196 1_555
O22 V0 2.025498 1_555
O23 V4 2.020131 1_546
O23 V3 2.023855 1_556
O24 V5 2.020582 1_555
O24 V4 2.022380 1_555
O25 V2 2.015561 1_565
O25 V1 2.025062 1_565
O26 V3 2.017548 1_555
O26 V5 2.022034 1_545
O27 V0 2.020670 1_555
O27 V2 2.029043 1_555
