# generated using pymatgen
data_Nb6Co7
_symmetry_space_group_name_H-M   'P 1'
_cell_length_a   11.21198482
_cell_length_b   11.21198473
_cell_length_c   11.21198565
_cell_angle_alpha   24.82403440
_cell_angle_beta   24.82403451
_cell_angle_gamma   24.82403852
_symmetry_Int_Tables_number   1
_chemical_formula_structural   Nb6Co7
_chemical_formula_sum   'Nb6 Co7'
_cell_volume   218.50812895
_cell_formula_units_Z   1
loop_
 _symmetry_equiv_pos_site_id
 _symmetry_equiv_pos_as_xyz
  1  'x, y, z'
loop_
 _atom_site_type_symbol
 _atom_site_label
 _atom_site_symmetry_multiplicity
 _atom_site_fract_x
 _atom_site_fract_y
 _atom_site_fract_z
 _atom_site_occupancy
  Nb  Nb0  1  0.20790100  0.20790100  0.20790100  1
  Nb  Nb1  1  0.12138200  0.12138200  0.12138200  1
  Nb  Nb2  1  0.58253500  0.58253500  0.58253500  1
  Nb  Nb3  1  0.79209900  0.79209900  0.79209900  1
  Nb  Nb4  1  0.41746500  0.41746500  0.41746500  1
  Nb  Nb5  1  0.87861800  0.87861800  0.87861800  1
  Co  Co0  1  0.11847000  0.60046800  0.11847000  1
  Co  Co1  1  0.11847000  0.11847000  0.60046800  1
  Co  Co2  1  0.88153000  0.88153000  0.39953200  1
  Co  Co3  1  0.39953200  0.88153000  0.88153000  1
  Co  Co4  1  0.00000000  0.00000000  0.00000000  1
  Co  Co5  1  0.60046800  0.11847000  0.11847000  1
  Co  Co6  1  0.88153000  0.39953200  0.88153000  1
loop_
_geom_bond_atom_site_label_1
_geom_bond_atom_site_label_2
_geom_bond_distance
_geom_bond_site_symmetry_2
Nb0 Nb5 2.785847 1_445
Nb0 Nb5 2.785848 1_454
Nb0 Nb5 2.785848 1_544
Nb0 Nb1 2.819093 1_555
Nb1 Nb3 2.785847 1_445
Nb1 Nb3 2.785848 1_454
Nb1 Nb3 2.785848 1_544
Nb1 Nb4 3.035904 1_545
Nb1 Nb4 3.035904 1_455
Nb1 Nb4 3.035904 1_554
Nb2 Nb5 3.035904 1_545
Nb2 Nb5 3.035904 1_455
Nb2 Nb5 3.035904 1_554
Nb3 Nb5 2.819093 1_555
Co0 Co4 2.279547 1_565
Co0 Co1 2.323140 1_555
Co0 Co5 2.323140 1_555
Co0 Co1 2.496672 1_564
Co0 Co5 2.496673 1_465
Co0 Nb2 2.600287 1_455
Co0 Nb2 2.600288 1_554
Co0 Nb5 2.621070 1_454
Co0 Nb0 2.680753 1_555
Co1 Co4 2.279547 1_556
Co1 Co5 2.323140 1_555
Co1 Co5 2.496672 1_456
Co1 Nb2 2.600288 1_545
Co1 Nb2 2.600288 1_455
Co1 Nb5 2.621069 1_445
Co1 Nb0 2.680753 1_555
Co2 Co4 2.279547 1_665
Co2 Co6 2.323140 1_555
Co2 Co3 2.323140 1_555
Co2 Co6 2.496672 1_564
Co2 Co3 2.496672 1_654
Co2 Nb4 2.600288 1_565
Co2 Nb4 2.600288 1_655
Co2 Nb1 2.621069 1_665
Co2 Nb3 2.680753 1_555
Co3 Co4 2.279547 1_566
Co3 Co6 2.323140 1_555
Co3 Co6 2.496673 1_465
Co3 Nb4 2.600287 1_565
Co3 Nb4 2.600288 1_556
Co3 Nb1 2.621070 1_566
Co3 Nb3 2.680753 1_555
Co4 Co6 2.279547 1_454
Co4 Co5 2.279547 1_455
Co5 Nb2 2.600287 1_545
Co5 Nb2 2.600288 1_554
Co5 Nb5 2.621070 1_544
Co5 Nb0 2.680753 1_555
Co6 Nb4 2.600287 1_655
Co6 Nb4 2.600288 1_556
Co6 Nb1 2.621070 1_656
Co6 Nb3 2.680753 1_555
