# generated using pymatgen
data_Dy4(B2O5)3
_symmetry_space_group_name_H-M   'P 1'
_cell_length_a   6.27610610
_cell_length_b   6.27610610
_cell_length_c   18.96833691
_cell_angle_alpha   83.92145950
_cell_angle_beta   83.92145950
_cell_angle_gamma   41.10861998
_symmetry_Int_Tables_number   1
_chemical_formula_structural   Dy4(B2O5)3
_chemical_formula_sum   'Dy8 B12 O30'
_cell_volume   488.09336793
_cell_formula_units_Z   2
loop_
 _symmetry_equiv_pos_site_id
 _symmetry_equiv_pos_as_xyz
  1  'x, y, z'
loop_
 _atom_site_type_symbol
 _atom_site_label
 _atom_site_symmetry_multiplicity
 _atom_site_fract_x
 _atom_site_fract_y
 _atom_site_fract_z
 _atom_site_occupancy
  Dy  Dy0  1  0.06556300  0.66816800  0.09868600  1
  Dy  Dy1  1  0.33183200  0.93443700  0.40131400  1
  Dy  Dy2  1  0.93443700  0.33183200  0.90131400  1
  Dy  Dy3  1  0.66816800  0.06556300  0.59868600  1
  Dy  Dy4  1  0.34777600  0.92686800  0.19698800  1
  Dy  Dy5  1  0.07313200  0.65222400  0.30301200  1
  Dy  Dy6  1  0.65222400  0.07313200  0.80301200  1
  Dy  Dy7  1  0.92686800  0.34777600  0.69698800  1
  B  B0  1  0.36121500  0.97802300  0.02600300  1
  B  B1  1  0.02197700  0.63878500  0.47399700  1
  B  B2  1  0.63878500  0.02197700  0.97399700  1
  B  B3  1  0.97802300  0.36121500  0.52600300  1
  B  B4  1  0.79381100  0.34068300  0.30570500  1
  B  B5  1  0.65931700  0.20618900  0.19429500  1
  B  B6  1  0.20618900  0.65931700  0.69429500  1
  B  B7  1  0.34068300  0.79381100  0.80570500  1
  B  B8  1  0.19607300  0.60868900  0.91231700  1
  B  B9  1  0.39131100  0.80392700  0.58768300  1
  B  B10  1  0.80392700  0.39131100  0.08768300  1
  B  B11  1  0.60868900  0.19607300  0.41231700  1
  O  O0  1  0.07795900  0.55983100  0.86127700  1
  O  O1  1  0.92204100  0.44016900  0.13872300  1
  O  O2  1  0.08761900  0.49552400  0.54900700  1
  O  O3  1  0.50447600  0.91238100  0.95099300  1
  O  O4  1  0.91238100  0.50447600  0.45099300  1
  O  O5  1  0.49552400  0.08761900  0.04900700  1
  O  O6  1  0.16341900  0.81015000  0.62178300  1
  O  O7  1  0.18985000  0.83658100  0.87821700  1
  O  O8  1  0.55983100  0.07795900  0.36127700  1
  O  O9  1  0.81015000  0.16341900  0.12178300  1
  O  O10  1  0.66412700  0.46602700  0.80328200  1
  O  O11  1  0.53397300  0.33587300  0.69671800  1
  O  O12  1  0.33587300  0.53397300  0.19671800  1
  O  O13  1  0.46602700  0.66412700  0.30328200  1
  O  O14  1  0.71143900  0.46029500  0.57044800  1
  O  O15  1  0.53970500  0.28856100  0.92955200  1
  O  O16  1  0.28856100  0.53970500  0.42955200  1
  O  O17  1  0.46029500  0.71143900  0.07044800  1
  O  O18  1  0.75348200  0.99135000  0.47836900  1
  O  O19  1  0.00865000  0.24651800  0.02163100  1
  O  O20  1  0.24651800  0.00865000  0.52163100  1
  O  O21  1  0.99135000  0.75348200  0.97836900  1
  O  O22  1  0.95320800  0.68557600  0.70326600  1
  O  O23  1  0.31442400  0.04679200  0.79673400  1
  O  O24  1  0.04679200  0.31442400  0.29673400  1
  O  O25  1  0.68557600  0.95320800  0.20326600  1
  O  O26  1  0.86538500  0.13461500  0.25000000  1
  O  O27  1  0.13461500  0.86538500  0.75000000  1
  O  O28  1  0.83658100  0.18985000  0.37821700  1
  O  O29  1  0.44016900  0.92204100  0.63872300  1
loop_
_geom_bond_atom_site_label_1
_geom_bond_atom_site_label_2
_geom_bond_distance
_geom_bond_site_symmetry_2
Dy0 O1 2.236746 1_455
Dy0 O9 2.248136 1_465
Dy0 O12 2.286585 1_555
Dy0 O21 2.302747 1_454
Dy0 O25 2.478599 1_455
Dy0 O5 2.571701 1_465
Dy0 O5 2.611086 1_555
Dy0 O17 2.683296 1_555
Dy1 O8 2.236746 1_565
Dy1 O28 2.248136 1_465
Dy1 O13 2.286585 1_555
Dy1 O20 2.302747 1_565
Dy1 O24 2.478599 1_565
Dy1 O4 2.571701 1_465
Dy1 O4 2.611086 1_555
Dy1 O16 2.683296 1_555
Dy2 O0 2.236746 1_655
Dy2 O7 2.248136 1_645
Dy2 O10 2.286585 1_555
Dy2 O19 2.302747 1_656
Dy2 O23 2.478599 1_655
Dy2 O3 2.571701 1_645
Dy2 O3 2.611086 1_555
Dy2 O15 2.683296 1_555
Dy3 O29 2.236746 1_545
Dy3 O6 2.248136 1_645
Dy3 O11 2.286585 1_555
Dy3 O18 2.302747 1_545
Dy3 O22 2.478599 1_545
Dy3 O2 2.571701 1_645
Dy3 O2 2.611086 1_555
Dy3 O14 2.683296 1_555
Dy4 O13 2.259137 1_555
Dy4 O25 2.263178 1_555
Dy4 O26 2.358292 1_465
Dy4 O1 2.374679 1_465
Dy4 O24 2.521541 1_565
Dy4 O12 2.523167 1_555
Dy4 O1 2.612112 1_555
Dy4 O17 2.641490 1_555
Dy5 O12 2.259137 1_555
Dy5 O24 2.263178 1_555
Dy5 O26 2.358292 1_465
Dy5 O8 2.374679 1_465
Dy5 O25 2.521541 1_455
Dy5 O13 2.523167 1_555
Dy5 O8 2.612112 1_555
Dy5 O16 2.641490 1_555
Dy6 O11 2.259137 1_555
Dy6 O23 2.263178 1_555
Dy6 O27 2.358292 1_645
Dy6 O0 2.374679 1_645
Dy6 O22 2.521541 1_545
Dy6 O10 2.523167 1_555
Dy6 O0 2.612112 1_555
Dy6 O15 2.641490 1_555
Dy7 O10 2.259137 1_555
Dy7 O22 2.263178 1_555
Dy7 O27 2.358292 1_645
Dy7 O29 2.374679 1_645
Dy7 O23 2.521541 1_655
Dy7 O11 2.523167 1_555
Dy7 O29 2.612112 1_555
Dy7 O14 2.641490 1_555
B0 O19 1.460496 1_565
B0 O17 1.463283 1_555
B0 O3 1.515772 1_554
B0 O5 1.545718 1_565
B1 O18 1.460496 1_455
B1 O16 1.463283 1_555
B1 O2 1.515772 1_555
B1 O4 1.545718 1_455
B2 O21 1.460496 1_545
B2 O15 1.463283 1_555
B2 O5 1.515772 1_556
B2 O3 1.545718 1_545
B3 O20 1.460496 1_655
B3 O14 1.463283 1_555
B3 O4 1.515772 1_555
B3 O2 1.545718 1_655
B4 O13 1.436042 1_555
B4 O24 1.459942 1_655
B4 O28 1.509809 1_555
B4 O26 1.517997 1_555
B5 O12 1.436042 1_555
B5 O25 1.459942 1_545
B5 O9 1.509809 1_555
B5 O26 1.517997 1_555
B6 O11 1.436042 1_555
B6 O22 1.459942 1_455
B6 O6 1.509809 1_555
B6 O27 1.517997 1_555
B7 O10 1.436042 1_555
B7 O23 1.459942 1_565
B7 O7 1.509809 1_555
B7 O27 1.517997 1_555
B8 O0 1.462277 1_555
B8 O21 1.478895 1_455
B8 O7 1.480146 1_555
B8 O15 1.508433 1_555
B9 O29 1.462277 1_555
B9 O20 1.478895 1_565
B9 O6 1.480146 1_555
B9 O14 1.508433 1_555
B10 O1 1.462277 1_555
B10 O19 1.478895 1_655
B10 O9 1.480146 1_555
B10 O17 1.508433 1_555
B11 O8 1.462277 1_555
B11 O18 1.478895 1_545
B11 O28 1.480146 1_555
B11 O16 1.508433 1_555
