# generated using pymatgen
data_Rb3NpH8O9
_symmetry_space_group_name_H-M   'P 1'
_cell_length_a   7.93873227
_cell_length_b   8.38108342
_cell_length_c   8.38108342
_cell_angle_alpha   84.10840461
_cell_angle_beta   87.35290027
_cell_angle_gamma   87.35290027
_symmetry_Int_Tables_number   1
_chemical_formula_structural   Rb3NpH8O9
_chemical_formula_sum   'Rb6 Np2 H16 O18'
_cell_volume   553.61732535
_cell_formula_units_Z   2
loop_
 _symmetry_equiv_pos_site_id
 _symmetry_equiv_pos_as_xyz
  1  'x, y, z'
loop_
 _atom_site_type_symbol
 _atom_site_label
 _atom_site_symmetry_multiplicity
 _atom_site_fract_x
 _atom_site_fract_y
 _atom_site_fract_z
 _atom_site_occupancy
  Rb  Rb0  1  0.46038100  0.70738500  0.88715200  1
  Rb  Rb1  1  0.03961900  0.11284800  0.29261500  1
  Rb  Rb2  1  0.53961900  0.29261500  0.11284800  1
  Rb  Rb3  1  0.96038100  0.88715200  0.70738500  1
  Rb  Rb4  1  0.25000000  0.56120700  0.43879300  1
  Rb  Rb5  1  0.75000000  0.43879300  0.56120700  1
  Np  Np0  1  0.00000000  0.50000000  0.00000000  1
  Np  Np1  1  0.50000000  0.00000000  0.50000000  1
  H  H0  1  0.09274900  0.82598500  0.05875200  1
  H  H1  1  0.40725100  0.94124800  0.17401500  1
  H  H2  1  0.90725100  0.17401500  0.94124800  1
  H  H3  1  0.59274900  0.05875200  0.82598500  1
  H  H4  1  0.31125400  0.43241100  0.78035400  1
  H  H5  1  0.18874600  0.21964600  0.56758900  1
  H  H6  1  0.68874600  0.56758900  0.21964600  1
  H  H7  1  0.81125400  0.78035400  0.43241100  1
  H  H8  1  0.44259300  0.28136800  0.75517200  1
  H  H9  1  0.05740700  0.24482800  0.71863200  1
  H  H10  1  0.55740700  0.71863200  0.24482800  1
  H  H11  1  0.94259300  0.75517200  0.28136800  1
  H  H12  1  0.65880000  0.95986400  0.10090300  1
  H  H13  1  0.84120000  0.89909700  0.04013600  1
  H  H14  1  0.34120000  0.04013600  0.89909700  1
  H  H15  1  0.15880000  0.10090300  0.95986400  1
  O  O0  1  0.12836300  0.57302100  0.80744900  1
  O  O1  1  0.37163700  0.19255100  0.42697900  1
  O  O2  1  0.87163700  0.42697900  0.19255100  1
  O  O3  1  0.62836300  0.80744900  0.57302100  1
  O  O4  1  0.79484700  0.54701900  0.89454500  1
  O  O5  1  0.70515300  0.10545500  0.45298100  1
  O  O6  1  0.20515300  0.45298100  0.10545500  1
  O  O7  1  0.29484700  0.89454500  0.54701900  1
  O  O8  1  0.98976100  0.76588900  0.08485200  1
  O  O9  1  0.51023900  0.91514800  0.23411100  1
  O  O10  1  0.01023900  0.23411100  0.91514800  1
  O  O11  1  0.48976100  0.08485200  0.76588900  1
  O  O12  1  0.43026100  0.40211500  0.75268100  1
  O  O13  1  0.06973900  0.24731900  0.59788500  1
  O  O14  1  0.56973900  0.59788500  0.24731900  1
  O  O15  1  0.93026100  0.75268100  0.40211500  1
  O  O16  1  0.75000000  0.98656900  0.01343100  1
  O  O17  1  0.25000000  0.01343100  0.98656900  1
loop_
_geom_bond_atom_site_label_1
_geom_bond_atom_site_label_2
_geom_bond_distance
_geom_bond_site_symmetry_2
Np0 O6 1.895029 1_555
Np0 O4 1.895029 1_454
Np0 O2 1.928791 1_455
Np0 O0 1.928791 1_554
Np0 O8 2.404485 1_455
Np0 O10 2.404485 1_554
Np1 O5 1.895029 1_555
Np1 O7 1.895029 1_545
Np1 O1 1.928791 1_555
Np1 O3 1.928791 1_545
Np1 O11 2.404485 1_555
Np1 O9 2.404485 1_545
H0 O8 0.984323 1_455
H1 O9 0.984323 1_555
H2 O10 0.984323 1_655
H3 O11 0.984323 1_555
H4 O12 0.990220 1_555
H4 Rb4 3.007021 1_555
H5 O13 0.990220 1_555
H5 Rb4 3.007021 1_555
H6 O14 0.990220 1_555
H6 Rb5 3.007021 1_555
H7 O15 0.990220 1_555
H7 Rb5 3.007021 1_555
H8 O12 1.010369 1_555
H8 Rb5 3.135250 1_555
H9 O13 1.010369 1_555
H9 Rb5 3.135250 1_455
H10 O14 1.010369 1_555
H10 Rb4 3.135250 1_555
H11 O15 1.010369 1_555
H11 Rb4 3.135250 1_655
H12 O16 1.021760 1_555
H12 O9 1.615897 1_555
H13 O16 1.021760 1_555
H13 O8 1.615897 1_555
H14 O17 1.021760 1_555
H14 O11 1.615897 1_555
H15 O17 1.021760 1_555
H15 O10 1.615897 1_555
O0 Rb3 2.956156 1_455
O0 Rb4 3.204236 1_555
O1 Rb2 2.956156 1_555
O1 Rb4 3.204236 1_555
O2 Rb1 2.956156 1_655
O2 Rb5 3.204236 1_555
O3 Rb0 2.956156 1_555
O3 Rb5 3.204236 1_555
O4 Rb0 2.920449 1_555
O4 Rb5 3.065350 1_555
O5 Rb1 2.920449 1_655
O5 Rb5 3.065350 1_555
O6 Rb2 2.920449 1_555
O6 Rb4 3.065350 1_555
O7 Rb3 2.920449 1_455
O7 Rb4 3.065350 1_555
O12 Rb5 2.950827 1_555
O12 Rb4 3.193403 1_555
O13 Rb5 2.950827 1_455
O13 Rb4 3.193403 1_555
O14 Rb4 2.950827 1_555
O14 Rb5 3.193403 1_555
O15 Rb4 2.950827 1_655
O15 Rb5 3.193403 1_555
