# generated using pymatgen
data_Gd2ZnAg
_symmetry_space_group_name_H-M   'P 1'
_cell_length_a   3.61078974
_cell_length_b   3.61078974
_cell_length_c   7.25329051
_cell_angle_alpha   90.00000000
_cell_angle_beta   90.00000000
_cell_angle_gamma   90.00000000
_symmetry_Int_Tables_number   1
_chemical_formula_structural   Gd2ZnAg
_chemical_formula_sum   'Gd2 Zn1 Ag1'
_cell_volume   94.56696948
_cell_formula_units_Z   1
loop_
 _symmetry_equiv_pos_site_id
 _symmetry_equiv_pos_as_xyz
  1  'x, y, z'
loop_
 _atom_site_type_symbol
 _atom_site_label
 _atom_site_symmetry_multiplicity
 _atom_site_fract_x
 _atom_site_fract_y
 _atom_site_fract_z
 _atom_site_occupancy
  Gd  Gd0  1  -0.00000000  -0.00000000  0.74149295  1
  Gd  Gd1  1  0.00000000  0.00000000  0.25850705  1
  Zn  Zn0  1  0.50000000  0.50000000  0.50000000  1
  Ag  Ag0  1  0.50000000  0.50000000  0.00000000  1
loop_
_geom_bond_atom_site_label_1
_geom_bond_atom_site_label_2
_geom_bond_distance
_geom_bond_site_symmetry_2
Gd0 Zn0 3.096299 1_445
Gd0 Zn0 3.096299 1_455
Gd0 Zn0 3.096299 1_555
Gd0 Zn0 3.096299 1_545
Gd1 Zn0 3.096299 1_545
Gd1 Zn0 3.096299 1_445
Gd1 Zn0 3.096299 1_555
Gd1 Zn0 3.096299 1_455
Ag0 Gd1 3.167748 1_655
Ag0 Gd0 3.167748 1_664
Ag0 Gd1 3.167748 1_555
Ag0 Gd0 3.167748 1_554
Ag0 Gd1 3.167748 1_665
Ag0 Gd0 3.167748 1_654
Ag0 Gd0 3.167748 1_564
Ag0 Gd1 3.167748 1_565
