# generated using pymatgen
data_CaPdF4
_symmetry_space_group_name_H-M   'P 1'
_cell_length_a   5.53127500
_cell_length_b   5.52178700
_cell_length_c   5.55946980
_cell_angle_alpha   87.76431319
_cell_angle_beta   90.00000000
_cell_angle_gamma   90.00000000
_symmetry_Int_Tables_number   1
_chemical_formula_structural   CaPdF4
_chemical_formula_sum   'Ca2 Pd2 F8'
_cell_volume   169.67098099
_cell_formula_units_Z   2
loop_
 _symmetry_equiv_pos_site_id
 _symmetry_equiv_pos_as_xyz
  1  'x, y, z'
loop_
 _atom_site_type_symbol
 _atom_site_label
 _atom_site_symmetry_multiplicity
 _atom_site_fract_x
 _atom_site_fract_y
 _atom_site_fract_z
 _atom_site_occupancy
  Ca  Ca0  1  0.50000000  0.50000000  0.00000000  1
  Ca  Ca1  1  0.00000000  0.50000000  0.50000000  1
  Pd  Pd0  1  0.50000000  0.00000000  0.50000000  1
  Pd  Pd1  1  0.00000000  0.00000000  0.00000000  1
  F  F0  1  0.82435900  0.16652300  0.31573500  1
  F  F1  1  0.32435900  0.83347700  0.18426500  1
  F  F2  1  0.15878600  0.33699100  0.85008600  1
  F  F3  1  0.65878600  0.66300900  0.64991400  1
  F  F4  1  0.17564100  0.83347700  0.68426500  1
  F  F5  1  0.67564100  0.16652300  0.81573500  1
  F  F6  1  0.84121400  0.66300900  0.14991400  1
  F  F7  1  0.34121400  0.33699100  0.35008600  1
loop_
_geom_bond_atom_site_label_1
_geom_bond_atom_site_label_2
_geom_bond_distance
_geom_bond_site_symmetry_2
Ca0 F6 2.263939 1_555
Ca0 F2 2.263939 1_554
Ca0 F3 2.287564 1_554
Ca0 F7 2.287564 1_555
Ca0 F1 2.351842 1_555
Ca0 F5 2.351842 1_554
Ca1 F7 2.263939 1_555
Ca1 F3 2.263939 1_455
Ca1 F2 2.287564 1_555
Ca1 F6 2.287564 1_455
Ca1 F4 2.351842 1_555
Ca1 F0 2.351842 1_455
F0 Pd1 2.235265 1_655
F0 Pd0 2.245058 1_555
F1 Pd0 2.235265 1_565
F1 Pd1 2.245058 1_565
F2 Pd1 2.192617 1_556
F3 Pd0 2.192617 1_565
F4 Pd1 2.235265 1_566
F4 Pd0 2.245058 1_565
F5 Pd0 2.235265 1_555
F5 Pd1 2.245058 1_656
F6 Pd1 2.192617 1_665
F7 Pd0 2.192617 1_555
