# generated using pymatgen
data_Pr3Si
_symmetry_space_group_name_H-M   'P 1'
_cell_length_a   7.15228400
_cell_length_b   7.15228345
_cell_length_c   5.13027700
_cell_angle_alpha   90.00000000
_cell_angle_beta   90.00000000
_cell_angle_gamma   120.00000256
_symmetry_Int_Tables_number   1
_chemical_formula_structural   Pr3Si
_chemical_formula_sum   'Pr6 Si2'
_cell_volume   227.27983395
_cell_formula_units_Z   2
loop_
 _symmetry_equiv_pos_site_id
 _symmetry_equiv_pos_as_xyz
  1  'x, y, z'
loop_
 _atom_site_type_symbol
 _atom_site_label
 _atom_site_symmetry_multiplicity
 _atom_site_fract_x
 _atom_site_fract_y
 _atom_site_fract_z
 _atom_site_occupancy
  Pr  Pr0  1  0.18255800  0.36511700  0.25000000  1
  Pr  Pr1  1  0.63488500  0.81744300  0.25000000  1
  Pr  Pr2  1  0.18255800  0.81744300  0.25000000  1
  Pr  Pr3  1  0.81744300  0.63488400  0.75000100  1
  Pr  Pr4  1  0.36511600  0.18255700  0.75000100  1
  Pr  Pr5  1  0.81744200  0.18255700  0.75000100  1
  Si  Si0  1  0.33333400  0.66666800  0.75000100  1
  Si  Si1  1  0.66666700  0.33333200  0.25000000  1
loop_
_geom_bond_atom_site_label_1
_geom_bond_atom_site_label_2
_geom_bond_distance
_geom_bond_site_symmetry_2
Pr0 Si0 3.173118 1_554
Pr0 Si0 3.173126 1_555
Pr0 Si1 3.581547 1_455
Pr0 Si1 3.581568 1_555
Pr1 Si0 3.173118 1_554
Pr1 Si0 3.173126 1_555
Pr1 Si1 3.581542 1_565
Pr1 Si1 3.581570 1_555
Pr2 Si0 3.173118 1_554
Pr2 Si0 3.173126 1_555
Pr2 Si1 3.581548 1_565
Pr2 Si1 3.581562 1_455
Pr3 Si1 3.173122 1_556
Pr3 Si1 3.173130 1_555
Pr3 Si0 3.581550 1_655
Pr3 Si0 3.581564 1_555
Pr4 Si1 3.173118 1_556
Pr4 Si1 3.173126 1_555
Pr4 Si0 3.581542 1_545
Pr4 Si0 3.581570 1_555
Pr5 Si1 3.173115 1_556
Pr5 Si1 3.173123 1_555
Pr5 Si0 3.581545 1_545
Pr5 Si0 3.581566 1_655
