# generated using pymatgen
data_BN
_symmetry_space_group_name_H-M   'P 1'
_cell_length_a   10.83713749
_cell_length_b   10.83012507
_cell_length_c   10.36520140
_cell_angle_alpha   88.92337743
_cell_angle_beta   97.34155205
_cell_angle_gamma   90.38644517
_symmetry_Int_Tables_number   1
_chemical_formula_structural   BN
_chemical_formula_sum   'B50 N50'
_cell_volume   1206.34061859
_cell_formula_units_Z   50
loop_
 _symmetry_equiv_pos_site_id
 _symmetry_equiv_pos_as_xyz
  1  'x, y, z'
loop_
 _atom_site_type_symbol
 _atom_site_label
 _atom_site_symmetry_multiplicity
 _atom_site_fract_x
 _atom_site_fract_y
 _atom_site_fract_z
 _atom_site_occupancy
  B  B0  1  0.63197000  0.86804100  0.51100800  1
  B  B1  1  0.98141500  0.56112000  0.94603300  1
  B  B2  1  0.33073500  0.60035100  0.61234700  1
  B  B3  1  0.32374100  0.48323300  0.16354700  1
  B  B4  1  0.72467400  0.75927400  0.47305100  1
  B  B5  1  0.53476300  0.30660100  0.51945200  1
  B  B6  1  0.87650200  0.19670600  0.44978000  1
  B  B7  1  0.67777000  0.33727300  0.65969100  1
  B  B8  1  0.93608500  0.34512500  0.49986600  1
  B  B9  1  0.88852000  0.93816900  0.71262400  1
  B  B10  1  0.30384100  0.25460700  0.82603900  1
  B  B11  1  0.49574200  0.98714300  0.56422500  1
  B  B12  1  0.99119000  0.75799100  0.56716100  1
  B  B13  1  0.31438300  0.27710200  0.06696900  1
  B  B14  1  0.38094100  0.29555300  0.30931600  1
  B  B15  1  0.09192100  0.53835600  0.60757600  1
  B  B16  1  0.10262600  0.37921200  0.55765400  1
  B  B17  1  0.28327400  0.85961200  0.88316800  1
  B  B18  1  0.38449800  0.69251500  0.25855300  1
  B  B19  1  0.27998400  0.46012100  0.91518000  1
  B  B20  1  0.24409900  0.65690000  0.79132500  1
  B  B21  1  0.93910400  0.93607100  0.99991900  1
  B  B22  1  0.33032700  0.53067000  0.41440300  1
  B  B23  1  0.11310000  0.26180300  0.44842600  1
  B  B24  1  0.36176700  0.82088400  0.67963700  1
  B  B25  1  0.29679300  0.66940400  0.02543200  1
  B  B26  1  0.96296500  0.31671200  0.25838300  1
  B  B27  1  0.90301900  0.11784600  0.19123600  1
  B  B28  1  0.30585300  0.06872400  0.97072300  1
  B  B29  1  0.96075600  0.79513700  0.81675900  1
  B  B30  1  0.08783200  0.64816200  0.37029700  1
  B  B31  1  0.99805800  0.71610800  0.04260300  1
  B  B32  1  0.43665000  0.90712300  0.33682700  1
  B  B33  1  0.94807100  0.54173100  0.20230500  1
  B  B34  1  0.89340700  0.57951100  0.45248900  1
  B  B35  1  0.05372900  0.79424300  0.41776400  1
  B  B36  1  0.17893000  0.43411800  0.32006300  1
  B  B37  1  0.25369400  0.43770200  0.65312600  1
  B  B38  1  0.71985600  0.41568700  0.42172400  1
  B  B39  1  0.45439400  0.21633300  0.69425100  1
  B  B40  1  0.36773000  0.09220500  0.20553200  1
  B  B41  1  0.00079300  0.91944500  0.19786300  1
  B  B42  1  0.86976100  0.39599500  0.81505400  1
  B  B43  1  0.45251900  0.10488600  0.44456400  1
  B  B44  1  0.78074200  0.02222100  0.60067900  1
  B  B45  1  0.44012300  0.73372100  0.48638900  1
  B  B46  1  0.33630400  0.88065600  0.11533300  1
  B  B47  1  0.34850700  0.03178000  0.74625700  1
  B  B48  1  0.08228000  0.02758700  0.39911400  1
  B  B49  1  0.76924000  0.41062400  0.22557400  1
  N  N0  1  0.49062700  0.85987900  0.46419700  1
  N  N1  1  0.04555000  0.21086600  0.75349300  1
  N  N2  1  0.18525000  0.55523900  0.37040100  1
  N  N3  1  0.68248700  0.13484000  0.98844700  1
  N  N4  1  0.41940300  0.03741400  0.32620000  1
  N  N5  1  0.67017400  0.41538000  0.28519700  1
  N  N6  1  0.32379000  0.42325000  0.29998400  1
  N  N7  1  0.21606200  0.58266300  0.67585800  1
  N  N8  1  0.29062400  0.80242800  0.00989100  1
  N  N9  1  0.78925800  0.66783500  0.45118700  1
  N  N10  1  0.27742100  0.78381000  0.77257100  1
  N  N11  1  0.39694600  0.71507400  0.60887000  1
  N  N12  1  0.29745000  0.98941300  0.86111800  1
  N  N13  1  0.62674500  0.07254200  0.91899900  1
  N  N14  1  0.85496400  0.44415800  0.46747900  1
  N  N15  1  0.64610300  0.37866700  0.52141900  1
  N  N16  1  0.93985200  0.02796600  0.11572500  1
  N  N17  1  0.04684200  0.91495900  0.33740800  1
  N  N18  1  0.44796200  0.24180100  0.42664300  1
  N  N19  1  0.77129500  0.33661400  0.75900100  1
  N  N20  1  0.12247400  0.13157600  0.44740300  1
  N  N21  1  0.28285300  0.38364100  0.79625400  1
  N  N22  1  0.04436400  0.11240700  0.72471000  1
  N  N23  1  0.32953200  0.01329600  0.09826000  1
  N  N24  1  0.99019800  0.69482600  0.90312700  1
  N  N25  1  0.34904100  0.16841200  0.73070200  1
  N  N26  1  0.99607900  0.59042900  0.08980600  1
  N  N27  1  0.95538800  0.82557300  0.67719200  1
  N  N28  1  0.35126500  0.22340300  0.19451600  1
  N  N29  1  0.96374500  0.45293200  0.88140900  1
  N  N30  1  0.33602700  0.61426500  0.15141600  1
  N  N31  1  0.30422000  0.40824100  0.04843800  1
  N  N32  1  0.09216400  0.33076200  0.31428000  1
  N  N33  1  0.26416200  0.59332500  0.91292000  1
  N  N34  1  0.30092800  0.20087200  0.95402900  1
  N  N35  1  0.39201900  0.82528100  0.23522300  1
  N  N36  1  0.92039900  0.91927900  0.86257700  1
  N  N37  1  0.88834400  0.41441200  0.19056200  1
  N  N38  1  0.98942400  0.83601900  0.09210900  1
  N  N39  1  0.96138400  0.60158900  0.32506300  1
  N  N40  1  0.62733700  0.60613300  0.83672000  1
  N  N41  1  0.64566000  0.97166000  0.58838500  1
  N  N42  1  0.55265200  0.27151700  0.66145400  1
  N  N43  1  0.40609300  0.94769800  0.66595000  1
  N  N44  1  0.99503800  0.61815500  0.57048700  1
  N  N45  1  0.82040800  0.10556200  0.51062100  1
  N  N46  1  0.89418900  0.19834600  0.28557700  1
  N  N47  1  0.57050800  0.56765400  0.91035600  1
  N  N48  1  0.41125100  0.64331800  0.38797600  1
  N  N49  1  0.35008700  0.48277900  0.55906600  1
loop_
_geom_bond_atom_site_label_1
_geom_bond_atom_site_label_2
_geom_bond_distance
_geom_bond_site_symmetry_2
B0 N41 1.387723 1_555
B0 N0 1.548984 1_555
B1 N29 1.360845 1_555
B1 N24 1.512765 1_555
B1 N26 1.517691 1_556
B2 N49 1.424765 1_555
B2 N11 1.432752 1_555
B2 N7 1.488476 1_555
B3 N30 1.429121 1_555
B3 N31 1.448283 1_555
B3 N6 1.545074 1_555
B4 N9 1.257073 1_555
B5 N15 1.430761 1_555
B5 N18 1.444988 1_555
B5 N42 1.501811 1_555
B6 N45 1.344652 1_555
B6 N46 1.736676 1_555
B7 N19 1.349113 1_555
B7 N15 1.491673 1_555
B7 N42 1.529322 1_555
B8 N14 1.399876 1_555
B9 N27 1.497926 1_555
B9 N36 1.558463 1_555
B10 N21 1.438768 1_555
B10 N34 1.442599 1_555
B10 N25 1.500808 1_555
B11 N43 1.573981 1_555
B11 N41 1.621277 1_555
B11 N0 1.736577 1_555
B12 N27 1.461253 1_555
B12 N44 1.514920 1_555
B13 N31 1.432687 1_555
B13 N34 1.436777 1_554
B13 N28 1.443949 1_555
B14 N28 1.436550 1_555
B14 N18 1.448698 1_555
B14 N6 1.515516 1_555
B15 N44 1.376100 1_455
B15 N7 1.517171 1_555
B15 B16 1.817523 1_555
B16 B23 1.732176 1_555
B16 B8 1.864271 1_455
B16 B37 1.912148 1_555
B17 N10 1.417108 1_555
B17 N12 1.430380 1_555
B17 N8 1.434766 1_556
B18 N48 1.429468 1_555
B18 N30 1.451755 1_555
B18 N35 1.457047 1_555
B19 N33 1.453317 1_555
B19 N31 1.473984 1_556
B19 N21 1.501689 1_555
B20 N33 1.417468 1_555
B20 N10 1.434751 1_555
B20 N7 1.452956 1_555
B21 N36 1.426961 1_555
B21 N38 1.490138 1_556
B21 N16 1.572800 1_566
B22 N48 1.538479 1_555
B22 N49 1.566354 1_555
B22 N2 1.602659 1_555
B22 N6 1.671603 1_555
B23 N20 1.415047 1_555
B23 N32 1.557315 1_555
B24 N11 1.451035 1_555
B24 N10 1.459517 1_555
B24 N43 1.462304 1_555
B25 N30 1.440434 1_555
B25 N33 1.445947 1_554
B25 N8 1.447675 1_555
B26 N37 1.451215 1_555
B26 N32 1.453399 1_655
B26 N46 1.518392 1_555
B27 N46 1.335114 1_555
B27 N16 1.353949 1_555
B28 N12 1.430361 1_545
B28 N23 1.435028 1_556
B28 N34 1.438898 1_555
B29 N24 1.406619 1_555
B29 N27 1.471610 1_555
B29 N36 1.519684 1_555
B30 N2 1.463335 1_555
B30 N39 1.478992 1_455
B31 N38 1.413334 1_555
B31 N26 1.438663 1_555
B31 N24 1.459864 1_554
B32 N35 1.424009 1_555
B32 N4 1.425004 1_565
B32 N0 1.458843 1_555
B33 N26 1.427165 1_555
B33 N39 1.429307 1_555
B33 N37 1.519611 1_555
B34 N9 1.482999 1_555
B34 N14 1.531759 1_555
B34 N44 1.597771 1_555
B34 N39 1.605861 1_555
B35 N17 1.533958 1_555
B36 N2 1.418804 1_555
B36 N32 1.454177 1_555
B36 N6 1.615106 1_555
B37 N21 1.579119 1_555
B37 N49 1.586070 1_555
B37 N7 1.653379 1_555
B38 N15 1.434783 1_555
B38 N5 1.448420 1_555
B38 N14 1.511877 1_555
B39 N42 1.297273 1_555
B39 N25 1.345555 1_555
B40 N4 1.423961 1_555
B40 N23 1.432239 1_555
B40 N28 1.433849 1_555
B41 N38 1.426285 1_455
B41 N17 1.468578 1_555
B41 N16 1.539966 1_465
B42 N29 1.311144 1_555
B42 N19 1.317635 1_555
B43 N4 1.444157 1_555
B43 N18 1.491292 1_555
B44 N45 1.391575 1_555
B44 N41 1.550235 1_545
B45 N11 1.418580 1_555
B45 N48 1.431385 1_555
B45 N0 1.493165 1_555
B46 N8 1.431154 1_555
B46 N35 1.433042 1_555
B46 N23 1.445271 1_565
B47 N12 1.441706 1_545
B47 N43 1.442388 1_545
B47 N25 1.485537 1_555
B48 N20 1.291304 1_555
B48 N17 1.415856 1_545
B49 N5 1.307168 1_555
B49 N37 1.384865 1_555
N1 N22 1.112209 1_555
N13 N3 1.113519 1_555
N40 N47 1.113654 1_555
