# generated using pymatgen
data_HoMgMn2O6
_symmetry_space_group_name_H-M   'P 1'
_cell_length_a   5.17290000
_cell_length_b   5.44232400
_cell_length_c   7.52032400
_cell_angle_alpha   90.00000000
_cell_angle_beta   90.00000000
_cell_angle_gamma   90.00000000
_symmetry_Int_Tables_number   1
_chemical_formula_structural   HoMgMn2O6
_chemical_formula_sum   'Ho2 Mg2 Mn4 O12'
_cell_volume   211.71665705
_cell_formula_units_Z   2
loop_
 _symmetry_equiv_pos_site_id
 _symmetry_equiv_pos_as_xyz
  1  'x, y, z'
loop_
 _atom_site_type_symbol
 _atom_site_label
 _atom_site_symmetry_multiplicity
 _atom_site_fract_x
 _atom_site_fract_y
 _atom_site_fract_z
 _atom_site_occupancy
  Ho  Ho0  1  0.01809700  0.68213100  0.00000000  1
  Ho  Ho1  1  0.51809700  0.31786900  0.50000000  1
  Mg  Mg0  1  0.48294000  0.18736100  0.00000000  1
  Mg  Mg1  1  0.98294000  0.81263900  0.50000000  1
  Mn  Mn0  1  0.00002900  0.24414600  0.75080400  1
  Mn  Mn1  1  0.00002900  0.24414600  0.24919600  1
  Mn  Mn2  1  0.50002900  0.75585400  0.25080400  1
  Mn  Mn3  1  0.50002900  0.75585400  0.74919600  1
  O  O0  1  0.10633100  0.19399600  0.50000000  1
  O  O1  1  0.19967800  0.95112900  0.81095500  1
  O  O2  1  0.19967800  0.95112900  0.18904500  1
  O  O3  1  0.31117400  0.44002900  0.81144500  1
  O  O4  1  0.31117400  0.44002900  0.18855500  1
  O  O5  1  0.37106200  0.71337300  0.50000000  1
  O  O6  1  0.60633100  0.80600400  0.00000000  1
  O  O7  1  0.69967800  0.04887100  0.31095500  1
  O  O8  1  0.69967800  0.04887100  0.68904500  1
  O  O9  1  0.81117400  0.55997100  0.68855500  1
  O  O10  1  0.81117400  0.55997100  0.31144500  1
  O  O11  1  0.87106200  0.28662700  0.00000000  1
loop_
_geom_bond_atom_site_label_1
_geom_bond_atom_site_label_2
_geom_bond_distance
_geom_bond_site_symmetry_2
Ho0 O6 2.234165 1_455
Ho0 O1 2.246481 1_554
Ho0 O2 2.246481 1_555
Ho0 O11 2.282892 1_455
Ho0 O4 2.458700 1_555
Ho0 O3 2.458700 1_554
Ho0 O9 2.659604 1_454
Ho0 O10 2.659604 1_455
Ho1 O0 2.234165 1_555
Ho1 O8 2.246481 1_555
Ho1 O7 2.246481 1_555
Ho1 O5 2.282892 1_555
Ho1 O10 2.458700 1_555
Ho1 O9 2.458700 1_555
Ho1 O4 2.659604 1_555
Ho1 O3 2.659604 1_555
Mg0 O11 2.079130 1_555
Mg0 O4 2.165893 1_555
Mg0 O3 2.165893 1_554
Mg0 O6 2.171401 1_545
Mg0 O2 2.412703 1_545
Mg0 O1 2.412703 1_544
Mg0 O7 2.700663 1_555
Mg0 O8 2.700663 1_554
Mg1 O5 2.079130 1_655
Mg1 O10 2.165893 1_555
Mg1 O9 2.165893 1_555
Mg1 O0 2.171401 1_665
Mg1 O8 2.412703 1_565
Mg1 O7 2.412703 1_565
Mg1 O1 2.700663 1_655
Mg1 O2 2.700663 1_655
Mn0 O8 1.938837 1_455
Mn0 O1 1.953017 1_545
Mn0 O0 1.983519 1_555
Mn0 O3 1.983687 1_555
Mn0 O11 2.002629 1_456
Mn0 O9 2.031720 1_455
Mn1 O7 1.938837 1_455
Mn1 O2 1.953017 1_545
Mn1 O0 1.983519 1_555
Mn1 O4 1.983687 1_555
Mn1 O11 2.002629 1_455
Mn1 O10 2.031720 1_455
Mn2 O2 1.938837 1_555
Mn2 O7 1.953017 1_565
Mn2 O6 1.983519 1_555
Mn2 O10 1.983687 1_555
Mn2 O5 2.002629 1_555
Mn2 O4 2.031720 1_555
Mn3 O1 1.938837 1_555
Mn3 O8 1.953017 1_565
Mn3 O6 1.983519 1_556
Mn3 O9 1.983687 1_555
Mn3 O5 2.002629 1_555
Mn3 O3 2.031720 1_555
