# generated using pymatgen
data_KBaLaMnO6
_symmetry_space_group_name_H-M   'P 1'
_cell_length_a   8.53778953
_cell_length_b   8.56731502
_cell_length_c   8.57905761
_cell_angle_alpha   90.00000000
_cell_angle_beta   90.00000000
_cell_angle_gamma   90.00000000
_symmetry_Int_Tables_number   1
_chemical_formula_structural   KBaLaMnO6
_chemical_formula_sum   'K4 Ba4 La4 Mn4 O24'
_cell_volume   627.52316867
_cell_formula_units_Z   4
loop_
 _symmetry_equiv_pos_site_id
 _symmetry_equiv_pos_as_xyz
  1  'x, y, z'
loop_
 _atom_site_type_symbol
 _atom_site_label
 _atom_site_symmetry_multiplicity
 _atom_site_fract_x
 _atom_site_fract_y
 _atom_site_fract_z
 _atom_site_occupancy
  K  K0  1  0.00000000  0.50000000  0.50000000  1
  K  K1  1  0.50000000  0.00000000  0.50000000  1
  K  K2  1  0.50000000  0.00000000  -0.00000000  1
  K  K3  1  0.00000000  0.50000000  0.00000000  1
  Ba  Ba0  1  0.50000000  0.50000000  0.00000000  1
  Ba  Ba1  1  0.00000000  0.00000000  0.50000000  1
  Ba  Ba2  1  0.00000000  0.00000000  -0.00000000  1
  Ba  Ba3  1  0.50000000  0.50000000  0.50000000  1
  La  La0  1  0.75000000  0.75000000  0.75000000  1
  La  La1  1  0.25000000  0.25000000  0.75000000  1
  La  La2  1  0.25000000  0.75000000  0.25000000  1
  La  La3  1  0.75000000  0.25000000  0.25000000  1
  Mn  Mn0  1  0.25000000  0.25000000  0.25000000  1
  Mn  Mn1  1  0.75000000  0.75000000  0.25000000  1
  Mn  Mn2  1  0.75000000  0.25000000  0.75000000  1
  Mn  Mn3  1  0.25000000  0.75000000  0.75000000  1
  O  O0  1  0.02441736  0.23214679  0.25756042  1
  O  O1  1  0.97558264  0.76785321  0.25756042  1
  O  O2  1  0.97558264  0.23214679  0.74243958  1
  O  O3  1  0.02441736  0.76785321  0.74243958  1
  O  O4  1  0.24859317  0.02521736  0.24161123  1
  O  O5  1  0.24859317  0.97478264  0.75838877  1
  O  O6  1  0.75140683  0.97478264  0.24161123  1
  O  O7  1  0.75140683  0.02521736  0.75838877  1
  O  O8  1  0.24223275  0.25771350  0.02622390  1
  O  O9  1  0.75776725  0.25771350  0.97377610  1
  O  O10  1  0.24223275  0.74228650  0.97377610  1
  O  O11  1  0.75776725  0.74228650  0.02622390  1
  O  O12  1  0.47558264  0.26785321  0.24243958  1
  O  O13  1  0.52441736  0.73214679  0.24243958  1
  O  O14  1  0.52441736  0.26785321  0.75756042  1
  O  O15  1  0.47558264  0.73214679  0.75756042  1
  O  O16  1  0.25140683  0.47478264  0.25838877  1
  O  O17  1  0.25140683  0.52521736  0.74161123  1
  O  O18  1  0.74859317  0.52521736  0.25838877  1
  O  O19  1  0.74859317  0.47478264  0.74161123  1
  O  O20  1  0.25776725  0.24228650  0.47377610  1
  O  O21  1  0.74223275  0.24228650  0.52622390  1
  O  O22  1  0.25776725  0.75771350  0.52622390  1
  O  O23  1  0.74223275  0.75771350  0.47377610  1
loop_
_geom_bond_atom_site_label_1
_geom_bond_atom_site_label_2
_geom_bond_distance
_geom_bond_site_symmetry_2
K0 O19 2.991730 1_455
K0 O17 2.991730 1_555
K0 O18 2.991730 1_455
K0 O16 2.991730 1_555
K0 O1 3.104108 1_455
K0 O3 3.104108 1_555
K0 O0 3.104108 1_555
K0 O2 3.104108 1_455
K0 O20 3.125516 1_555
K0 O21 3.125516 1_455
K0 O23 3.125516 1_455
K0 O22 3.125516 1_555
K1 O22 2.938793 1_545
K1 O21 2.938793 1_555
K1 O23 2.938793 1_545
K1 O20 2.938793 1_555
K1 O4 3.093196 1_555
K1 O6 3.093196 1_545
K1 O7 3.093196 1_555
K1 O5 3.093196 1_545
K1 O13 3.192481 1_545
K1 O15 3.192481 1_545
K1 O12 3.192481 1_555
K1 O14 3.192481 1_555
K2 O7 2.991730 1_554
K2 O5 2.991730 1_544
K2 O4 2.991730 1_555
K2 O6 2.991730 1_545
K2 O15 3.104108 1_544
K2 O13 3.104108 1_545
K2 O14 3.104108 1_554
K2 O12 3.104108 1_555
K2 O9 3.125516 1_554
K2 O8 3.125516 1_555
K2 O11 3.125516 1_545
K2 O10 3.125516 1_544
K3 O10 2.938793 1_554
K3 O11 2.938793 1_455
K3 O8 2.938793 1_555
K3 O9 2.938793 1_454
K3 O18 3.093196 1_455
K3 O17 3.093196 1_554
K3 O19 3.093196 1_454
K3 O16 3.093196 1_555
K3 O1 3.192481 1_455
K3 O3 3.192481 1_554
K3 O0 3.192481 1_555
K3 O2 3.192481 1_454
Ba0 O14 2.885321 1_554
Ba0 O15 2.885321 1_554
Ba0 O12 2.885321 1_555
Ba0 O13 2.885321 1_555
Ba0 O10 3.033593 1_554
Ba0 O11 3.033593 1_555
Ba0 O8 3.033593 1_555
Ba0 O9 3.033593 1_554
Ba0 O17 3.076575 1_554
Ba0 O18 3.076575 1_555
Ba0 O16 3.076575 1_555
Ba0 O19 3.076575 1_554
Ba1 O2 2.885321 1_455
Ba1 O3 2.885321 1_545
Ba1 O1 2.885321 1_445
Ba1 O0 2.885321 1_555
Ba1 O21 3.033593 1_455
Ba1 O20 3.033593 1_555
Ba1 O23 3.033593 1_445
Ba1 O22 3.033593 1_545
Ba1 O6 3.076575 1_445
Ba1 O4 3.076575 1_555
Ba1 O5 3.076575 1_545
Ba1 O7 3.076575 1_455
Ba2 O5 2.974541 1_544
Ba2 O7 2.974541 1_454
Ba2 O6 2.974541 1_445
Ba2 O4 2.974541 1_555
Ba2 O0 2.980189 1_555
Ba2 O2 2.980189 1_454
Ba2 O1 2.980189 1_445
Ba2 O3 2.980189 1_544
Ba2 O9 3.033589 1_454
Ba2 O8 3.033589 1_555
Ba2 O10 3.033589 1_544
Ba2 O11 3.033589 1_445
Ba3 O17 2.974541 1_555
Ba3 O18 2.974541 1_555
Ba3 O19 2.974541 1_555
Ba3 O16 2.974541 1_555
Ba3 O14 2.980189 1_555
Ba3 O12 2.980189 1_555
Ba3 O13 2.980189 1_555
Ba3 O15 2.980189 1_555
Ba3 O20 3.033589 1_555
Ba3 O23 3.033589 1_555
Ba3 O22 3.033589 1_555
Ba3 O21 3.033589 1_555
La0 O3 2.348801 1_655
La0 O15 2.348801 1_555
La0 O19 2.359002 1_555
La0 O7 2.359002 1_565
La0 O11 2.371589 1_556
La0 O23 2.371589 1_555
La1 O14 2.348801 1_555
La1 O2 2.348801 1_455
La1 O5 2.359002 1_545
La1 O17 2.359002 1_555
La1 O8 2.371589 1_556
La1 O20 2.371589 1_555
La2 O1 2.348801 1_455
La2 O13 2.348801 1_555
La2 O16 2.359002 1_555
La2 O4 2.359002 1_565
La2 O22 2.371589 1_555
La2 O10 2.371589 1_554
La3 O0 2.348801 1_655
La3 O12 2.348801 1_555
La3 O6 2.359002 1_545
La3 O18 2.359002 1_555
La3 O9 2.371589 1_554
La3 O21 2.371589 1_555
Mn0 O20 1.922069 1_555
Mn0 O8 1.922069 1_555
Mn0 O16 1.927165 1_555
Mn0 O4 1.927165 1_555
Mn0 O12 1.933130 1_555
Mn0 O0 1.933130 1_555
Mn1 O23 1.922069 1_555
Mn1 O11 1.922069 1_555
Mn1 O18 1.927165 1_555
Mn1 O6 1.927165 1_555
Mn1 O1 1.933130 1_555
Mn1 O13 1.933130 1_555
Mn2 O9 1.922069 1_555
Mn2 O21 1.922069 1_555
Mn2 O19 1.927165 1_555
Mn2 O7 1.927165 1_555
Mn2 O2 1.933130 1_555
Mn2 O14 1.933130 1_555
Mn3 O10 1.922069 1_555
Mn3 O22 1.922069 1_555
Mn3 O5 1.927165 1_555
Mn3 O17 1.927165 1_555
Mn3 O3 1.933130 1_555
Mn3 O15 1.933130 1_555
