# generated using pymatgen
data_NdSi3Rh
_symmetry_space_group_name_H-M   'P 1'
_cell_length_a   5.74401068
_cell_length_b   5.74401068
_cell_length_c   5.74401068
_cell_angle_alpha   136.81249026
_cell_angle_beta   136.81249026
_cell_angle_gamma   62.72668253
_symmetry_Int_Tables_number   1
_chemical_formula_structural   NdSi3Rh
_chemical_formula_sum   'Nd1 Si3 Rh1'
_cell_volume   87.67080212
_cell_formula_units_Z   1
loop_
 _symmetry_equiv_pos_site_id
 _symmetry_equiv_pos_as_xyz
  1  'x, y, z'
loop_
 _atom_site_type_symbol
 _atom_site_label
 _atom_site_symmetry_multiplicity
 _atom_site_fract_x
 _atom_site_fract_y
 _atom_site_fract_z
 _atom_site_occupancy
  Nd  Nd0  1  0.99991990  0.99991990  -0.00000000  1
  Si  Si0  1  0.41352040  0.41352040  0.00000000  1
  Si  Si1  1  0.26304197  0.76304197  0.50000000  1
  Si  Si2  1  0.76304197  0.26304197  0.50000000  1
  Rh  Rh0  1  0.65447677  0.65447677  0.00000000  1
loop_
_geom_bond_atom_site_label_1
_geom_bond_atom_site_label_2
_geom_bond_distance
_geom_bond_site_symmetry_2
Nd0 Si0 3.107362 1_565
Nd0 Si0 3.107362 1_655
Nd0 Si0 3.107362 1_554
Nd0 Si0 3.107362 1_666
Nd0 Si2 3.141337 1_554
Nd0 Si1 3.141337 1_554
Nd0 Si2 3.141337 1_565
Nd0 Si1 3.141337 1_655
Nd0 Si1 3.336266 1_654
Nd0 Si1 3.336266 1_665
Nd0 Si2 3.336266 1_564
Nd0 Si2 3.336266 1_665
Nd0 Rh0 3.352014 1_554
Nd0 Rh0 3.352014 1_565
Nd0 Rh0 3.352014 1_655
Nd0 Rh0 3.352014 1_666
Nd0 Rh0 3.388603 1_555
Si0 Si2 2.578293 1_555
Si0 Si2 2.578293 1_454
Si0 Si1 2.578293 1_555
Si0 Si1 2.578293 1_544
Rh0 Si0 2.363646 1_555
Rh0 Si2 2.367033 1_565
Rh0 Si1 2.367033 1_655
Rh0 Si2 2.367033 1_554
Rh0 Si1 2.367033 1_554
