# generated using pymatgen
data_Ca3Ga2(SnO4)3
_symmetry_space_group_name_H-M   'P 1'
_cell_length_a   11.19148521
_cell_length_b   11.19148521
_cell_length_c   11.19148521
_cell_angle_alpha   109.47122063
_cell_angle_beta   109.47122063
_cell_angle_gamma   109.47122063
_symmetry_Int_Tables_number   1
_chemical_formula_structural   Ca3Ga2(SnO4)3
_chemical_formula_sum   'Ca12 Ga8 Sn12 O48'
_cell_volume   1079.04929381
_cell_formula_units_Z   4
loop_
 _symmetry_equiv_pos_site_id
 _symmetry_equiv_pos_as_xyz
  1  'x, y, z'
loop_
 _atom_site_type_symbol
 _atom_site_label
 _atom_site_symmetry_multiplicity
 _atom_site_fract_x
 _atom_site_fract_y
 _atom_site_fract_z
 _atom_site_occupancy
  Ca  Ca0  1  0.25000000  0.37500000  0.12500000  1
  Ca  Ca1  1  0.75000000  0.62500000  0.87500000  1
  Ca  Ca2  1  0.75000000  0.12500000  0.37500000  1
  Ca  Ca3  1  0.12500000  0.25000000  0.37500000  1
  Ca  Ca4  1  0.37500000  0.75000000  0.12500000  1
  Ca  Ca5  1  0.25000000  0.87500000  0.62500000  1
  Ca  Ca6  1  0.87500000  0.75000000  0.62500000  1
  Ca  Ca7  1  0.62500000  0.25000000  0.87500000  1
  Ca  Ca8  1  0.37500000  0.12500000  0.25000000  1
  Ca  Ca9  1  0.62500000  0.87500000  0.75000000  1
  Ca  Ca10  1  0.12500000  0.37500000  0.75000000  1
  Ca  Ca11  1  0.87500000  0.62500000  0.25000000  1
  Ga  Ga0  1  0.00000000  0.00000000  0.00000000  1
  Ga  Ga1  1  0.50000000  0.00000000  0.50000000  1
  Ga  Ga2  1  0.00000000  0.50000000  0.50000000  1
  Ga  Ga3  1  0.50000000  0.00000000  0.00000000  1
  Ga  Ga4  1  0.50000000  0.50000000  0.00000000  1
  Ga  Ga5  1  0.50000000  0.50000000  0.50000000  1
  Ga  Ga6  1  0.00000000  0.00000000  0.50000000  1
  Ga  Ga7  1  0.00000000  0.50000000  0.00000000  1
  Sn  Sn0  1  0.25000000  0.62500000  0.37500000  1
  Sn  Sn1  1  0.75000000  0.37500000  0.62500000  1
  Sn  Sn2  1  0.75000000  0.87500000  0.12500000  1
  Sn  Sn3  1  0.37500000  0.25000000  0.62500000  1
  Sn  Sn4  1  0.62500000  0.75000000  0.37500000  1
  Sn  Sn5  1  0.25000000  0.12500000  0.87500000  1
  Sn  Sn6  1  0.12500000  0.75000000  0.87500000  1
  Sn  Sn7  1  0.87500000  0.25000000  0.12500000  1
  Sn  Sn8  1  0.62500000  0.37500000  0.25000000  1
  Sn  Sn9  1  0.37500000  0.62500000  0.75000000  1
  Sn  Sn10  1  0.87500000  0.12500000  0.75000000  1
  Sn  Sn11  1  0.12500000  0.87500000  0.25000000  1
  O  O0  1  0.47388700  0.37874400  0.30283800  1
  O  O1  1  0.52611300  0.62125600  0.69716200  1
  O  O2  1  0.57590600  0.17105000  0.19716200  1
  O  O3  1  0.92409400  0.12125600  0.59514300  1
  O  O4  1  0.30283800  0.47388700  0.37874400  1
  O  O5  1  0.32895000  0.92409400  0.30283800  1
  O  O6  1  0.42409400  0.82895000  0.80283800  1
  O  O7  1  0.07590600  0.87874400  0.40485700  1
  O  O8  1  0.69716200  0.52611300  0.62125600  1
  O  O9  1  0.67105000  0.07590600  0.69716200  1
  O  O10  1  0.02611300  0.32895000  0.90485700  1
  O  O11  1  0.19716200  0.57590600  0.17105000  1
  O  O12  1  0.12125600  0.02611300  0.19716200  1
  O  O13  1  0.97388700  0.67105000  0.09514300  1
  O  O14  1  0.80283800  0.42409400  0.82895000  1
  O  O15  1  0.87874400  0.97388700  0.80283800  1
  O  O16  1  0.59514300  0.92409400  0.12125600  1
  O  O17  1  0.17105000  0.47388700  0.59514300  1
  O  O18  1  0.40485700  0.07590600  0.87874400  1
  O  O19  1  0.82895000  0.52611300  0.40485700  1
  O  O20  1  0.90485700  0.02611300  0.32895000  1
  O  O21  1  0.37874400  0.57590600  0.90485700  1
  O  O22  1  0.09514300  0.97388700  0.67105000  1
  O  O23  1  0.62125600  0.42409400  0.09514300  1
  O  O24  1  0.37874400  0.30283800  0.47388700  1
  O  O25  1  0.57590600  0.90485700  0.37874400  1
  O  O26  1  0.62125600  0.69716200  0.52611300  1
  O  O27  1  0.42409400  0.09514300  0.62125600  1
  O  O28  1  0.12125600  0.59514300  0.92409400  1
  O  O29  1  0.02611300  0.19716200  0.12125600  1
  O  O30  1  0.87874400  0.40485700  0.07590600  1
  O  O31  1  0.97388700  0.80283800  0.87874400  1
  O  O32  1  0.32895000  0.90485700  0.02611300  1
  O  O33  1  0.92409400  0.30283800  0.32895000  1
  O  O34  1  0.67105000  0.09514300  0.97388700  1
  O  O35  1  0.07590600  0.69716200  0.67105000  1
  O  O36  1  0.17105000  0.19716200  0.57590600  1
  O  O37  1  0.47388700  0.59514300  0.17105000  1
  O  O38  1  0.82895000  0.80283800  0.42409400  1
  O  O39  1  0.52611300  0.40485700  0.82895000  1
  O  O40  1  0.30283800  0.32895000  0.92409400  1
  O  O41  1  0.69716200  0.67105000  0.07590600  1
  O  O42  1  0.19716200  0.12125600  0.02611300  1
  O  O43  1  0.80283800  0.87874400  0.97388700  1
  O  O44  1  0.90485700  0.37874400  0.57590600  1
  O  O45  1  0.09514300  0.62125600  0.42409400  1
  O  O46  1  0.59514300  0.17105000  0.47388700  1
  O  O47  1  0.40485700  0.82895000  0.52611300  1
loop_
_geom_bond_atom_site_label_1
_geom_bond_atom_site_label_2
_geom_bond_distance
_geom_bond_site_symmetry_2
Ca0 O40 2.446996 1_554
Ca0 O11 2.446996 1_555
Ca0 O4 2.446997 1_555
Ca0 O42 2.446997 1_555
Ca0 O37 2.605937 1_555
Ca0 O10 2.605937 1_554
Ca0 O29 2.605942 1_555
Ca0 O0 2.605942 1_555
Ca1 O41 2.446996 1_556
Ca1 O14 2.446996 1_555
Ca1 O43 2.446997 1_555
Ca1 O8 2.446997 1_555
Ca1 O13 2.605937 1_556
Ca1 O39 2.605937 1_555
Ca1 O31 2.605942 1_555
Ca1 O1 2.605942 1_555
Ca2 O44 2.446997 1_555
Ca2 O16 2.446997 1_545
Ca2 O20 2.447000 1_555
Ca2 O46 2.447000 1_555
Ca2 O25 2.605942 1_545
Ca2 O3 2.605942 1_555
Ca2 O33 2.605950 1_555
Ca2 O2 2.605950 1_555
Ca3 O36 2.446996 1_555
Ca3 O33 2.446996 1_455
Ca3 O24 2.446997 1_555
Ca3 O29 2.446997 1_555
Ca3 O17 2.605937 1_555
Ca3 O20 2.605937 1_455
Ca3 O12 2.605942 1_555
Ca3 O4 2.605942 1_555
Ca4 O25 2.446997 1_555
Ca4 O28 2.446997 1_554
Ca4 O32 2.447000 1_555
Ca4 O37 2.447000 1_555
Ca4 O21 2.605942 1_554
Ca4 O16 2.605942 1_555
Ca4 O5 2.605950 1_555
Ca4 O11 2.605950 1_555
Ca5 O18 2.446997 1_565
Ca5 O45 2.446997 1_555
Ca5 O47 2.447000 1_555
Ca5 O22 2.447000 1_555
Ca5 O27 2.605942 1_565
Ca5 O7 2.605942 1_555
Ca5 O6 2.605950 1_555
Ca5 O35 2.605950 1_555
Ca6 O35 2.446996 1_655
Ca6 O38 2.446996 1_555
Ca6 O31 2.446997 1_555
Ca6 O26 2.446997 1_555
Ca6 O22 2.605937 1_655
Ca6 O19 2.605937 1_555
Ca6 O15 2.605942 1_555
Ca6 O8 2.605942 1_555
Ca7 O30 2.446997 1_556
Ca7 O27 2.446997 1_555
Ca7 O39 2.447000 1_555
Ca7 O34 2.447000 1_555
Ca7 O23 2.605942 1_556
Ca7 O18 2.605942 1_555
Ca7 O14 2.605950 1_555
Ca7 O9 2.605950 1_555
Ca8 O2 2.446996 1_555
Ca8 O5 2.446996 1_545
Ca8 O0 2.446997 1_555
Ca8 O12 2.446997 1_555
Ca8 O46 2.605937 1_555
Ca8 O32 2.605937 1_545
Ca8 O42 2.605942 1_555
Ca8 O24 2.605942 1_555
Ca9 O9 2.446996 1_565
Ca9 O6 2.446996 1_555
Ca9 O15 2.446997 1_555
Ca9 O1 2.446997 1_555
Ca9 O34 2.605937 1_565
Ca9 O47 2.605937 1_555
Ca9 O43 2.605942 1_555
Ca9 O26 2.605942 1_555
Ca10 O21 2.446997 1_555
Ca10 O3 2.446997 1_455
Ca10 O10 2.447000 1_555
Ca10 O17 2.447000 1_555
Ca10 O44 2.605942 1_455
Ca10 O28 2.605942 1_555
Ca10 O40 2.605950 1_555
Ca10 O36 2.605950 1_555
Ca11 O7 2.446997 1_655
Ca11 O23 2.446997 1_555
Ca11 O19 2.447000 1_555
Ca11 O13 2.447000 1_555
Ca11 O45 2.605942 1_655
Ca11 O30 2.605942 1_555
Ca11 O38 2.605950 1_555
Ca11 O41 2.605950 1_555
Ga0 O12 2.026137 1_555
Ga0 O29 2.026137 1_555
Ga0 O42 2.026137 1_555
Ga0 O31 2.026137 1_444
Ga0 O15 2.026137 1_444
Ga0 O43 2.026137 1_444
Ga1 O27 2.026137 1_555
Ga1 O25 2.026137 1_545
Ga1 O9 2.026142 1_555
Ga1 O5 2.026142 1_545
Ga1 O47 2.026146 1_545
Ga1 O46 2.026146 1_555
Ga2 O45 2.026137 1_555
Ga2 O44 2.026137 1_455
Ga2 O35 2.026142 1_555
Ga2 O33 2.026142 1_455
Ga2 O19 2.026146 1_455
Ga2 O17 2.026146 1_555
Ga3 O16 2.026137 1_545
Ga3 O18 2.026137 1_554
Ga3 O2 2.026142 1_555
Ga3 O6 2.026142 1_544
Ga3 O32 2.026146 1_545
Ga3 O34 2.026146 1_554
Ga4 O23 2.026137 1_555
Ga4 O21 2.026137 1_554
Ga4 O40 2.026142 1_554
Ga4 O41 2.026142 1_555
Ga4 O39 2.026146 1_554
Ga4 O37 2.026146 1_555
Ga5 O1 2.026137 1_555
Ga5 O8 2.026137 1_555
Ga5 O26 2.026137 1_555
Ga5 O4 2.026137 1_555
Ga5 O0 2.026137 1_555
Ga5 O24 2.026137 1_555
Ga6 O3 2.026137 1_455
Ga6 O7 2.026137 1_545
Ga6 O36 2.026142 1_555
Ga6 O38 2.026142 1_445
Ga6 O20 2.026146 1_455
Ga6 O22 2.026146 1_545
Ga7 O28 2.026137 1_554
Ga7 O30 2.026137 1_455
Ga7 O11 2.026142 1_555
Ga7 O14 2.026142 1_454
Ga7 O10 2.026146 1_554
Ga7 O13 2.026146 1_455
O0 Sn8 1.977105 1_555
O1 Sn9 1.977105 1_555
O2 Sn8 1.977095 1_555
O3 Sn10 1.977105 1_555
O4 Sn0 1.977105 1_555
O5 Sn11 1.977095 1_555
O6 Sn9 1.977095 1_555
O7 Sn11 1.977105 1_555
O8 Sn1 1.977105 1_555
O9 Sn10 1.977095 1_555
O10 Sn10 1.977099 1_455
O11 Sn0 1.977095 1_555
O12 Sn11 1.977105 1_545
O13 Sn11 1.977099 1_655
O14 Sn1 1.977095 1_555
O15 Sn10 1.977105 1_565
O16 Sn2 1.977105 1_555
O17 Sn9 1.977099 1_555
O18 Sn5 1.977105 1_555
O19 Sn8 1.977099 1_555
O20 Sn2 1.977099 1_545
O21 Sn9 1.977105 1_555
O22 Sn5 1.977099 1_565
O23 Sn8 1.977105 1_555
O24 Sn3 1.977105 1_555
O25 Sn4 1.977105 1_555
O26 Sn4 1.977105 1_555
O27 Sn3 1.977105 1_555
O28 Sn6 1.977105 1_555
O29 Sn7 1.977105 1_455
O30 Sn7 1.977105 1_555
O31 Sn6 1.977105 1_655
O32 Sn6 1.977099 1_554
O33 Sn7 1.977095 1_555
O34 Sn7 1.977099 1_556
O35 Sn6 1.977095 1_555
O36 Sn3 1.977095 1_555
O37 Sn4 1.977099 1_555
O38 Sn4 1.977095 1_555
O39 Sn3 1.977099 1_555
O40 Sn5 1.977095 1_555
O41 Sn2 1.977095 1_555
O42 Sn5 1.977105 1_554
O43 Sn2 1.977105 1_556
O44 Sn1 1.977105 1_555
O45 Sn0 1.977105 1_555
O46 Sn1 1.977099 1_555
O47 Sn0 1.977099 1_555
