# generated using pymatgen
data_LaUN2
_symmetry_space_group_name_H-M   'P 1'
_cell_length_a   6.27643804
_cell_length_b   6.27643804
_cell_length_c   6.27643742
_cell_angle_alpha   32.92574721
_cell_angle_beta   32.92574721
_cell_angle_gamma   32.92575564
_symmetry_Int_Tables_number   1
_chemical_formula_structural   LaUN2
_chemical_formula_sum   'La1 U1 N2'
_cell_volume   65.00058089
_cell_formula_units_Z   1
loop_
 _symmetry_equiv_pos_site_id
 _symmetry_equiv_pos_as_xyz
  1  'x, y, z'
loop_
 _atom_site_type_symbol
 _atom_site_label
 _atom_site_symmetry_multiplicity
 _atom_site_fract_x
 _atom_site_fract_y
 _atom_site_fract_z
 _atom_site_occupancy
  La  La0  1  0.00000000  0.00000000  -0.00000000  1
  U  U0  1  0.50000000  0.50000000  0.50000000  1
  N  N0  1  0.23201029  0.23201029  0.23201029  1
  N  N1  1  0.76798971  0.76798971  0.76798971  1
loop_
_geom_bond_atom_site_label_1
_geom_bond_atom_site_label_2
_geom_bond_distance
_geom_bond_site_symmetry_2
La0 N0 2.732853 1_554
La0 N1 2.732853 1_445
La0 N0 2.732854 1_545
La0 N0 2.732854 1_455
La0 N1 2.732854 1_544
La0 N1 2.732854 1_454
N0 U0 2.360107 1_554
N0 U0 2.360108 1_455
N0 U0 2.360108 1_545
N1 U0 2.360107 1_556
N1 U0 2.360108 1_565
N1 U0 2.360108 1_655
