# generated using pymatgen
data_Tl3Co
_symmetry_space_group_name_H-M   'P 1'
_cell_length_a   16.81694085
_cell_length_b   17.86089254
_cell_length_c   6.16647698
_cell_angle_alpha   89.86330333
_cell_angle_beta   89.99144186
_cell_angle_gamma   110.26958808
_symmetry_Int_Tables_number   1
_chemical_formula_structural   Tl3Co
_chemical_formula_sum   'Tl48 Co16'
_cell_volume   1737.49039196
_cell_formula_units_Z   16
loop_
 _symmetry_equiv_pos_site_id
 _symmetry_equiv_pos_as_xyz
  1  'x, y, z'
loop_
 _atom_site_type_symbol
 _atom_site_label
 _atom_site_symmetry_multiplicity
 _atom_site_fract_x
 _atom_site_fract_y
 _atom_site_fract_z
 _atom_site_occupancy
  Tl  Tl0_0  1  0.09396900  0.20468850  0.12775900  1
  Tl  Tl0_1  1  0.09396900  0.20468850  0.62775900  1
  Tl  Tl0_2  1  0.09396900  0.70468850  0.12775900  1
  Tl  Tl0_3  1  0.09396900  0.70468850  0.62775900  1
  Tl  Tl0_4  1  0.59396900  0.20468850  0.12775900  1
  Tl  Tl0_5  1  0.59396900  0.20468850  0.62775900  1
  Tl  Tl0_6  1  0.59396900  0.70468850  0.12775900  1
  Tl  Tl0_7  1  0.59396900  0.70468850  0.62775900  1
  Tl  Tl1_0  1  0.30155150  0.40925300  0.12213250  1
  Tl  Tl1_1  1  0.30155150  0.40925300  0.62213250  1
  Tl  Tl1_2  1  0.30155150  0.90925300  0.12213250  1
  Tl  Tl1_3  1  0.30155150  0.90925300  0.62213250  1
  Tl  Tl1_4  1  0.80155150  0.40925300  0.12213250  1
  Tl  Tl1_5  1  0.80155150  0.40925300  0.62213250  1
  Tl  Tl1_6  1  0.80155150  0.90925300  0.12213250  1
  Tl  Tl1_7  1  0.80155150  0.90925300  0.62213250  1
  Tl  Tl2_0  1  0.08473450  0.41701350  0.12491050  1
  Tl  Tl2_1  1  0.08473450  0.41701350  0.62491050  1
  Tl  Tl2_2  1  0.08473450  0.91701350  0.12491050  1
  Tl  Tl2_3  1  0.08473450  0.91701350  0.62491050  1
  Tl  Tl2_4  1  0.58473450  0.41701350  0.12491050  1
  Tl  Tl2_5  1  0.58473450  0.41701350  0.62491050  1
  Tl  Tl2_6  1  0.58473450  0.91701350  0.12491050  1
  Tl  Tl2_7  1  0.58473450  0.91701350  0.62491050  1
  Tl  Tl3_0  1  0.40636300  0.29698200  0.37218450  1
  Tl  Tl3_1  1  0.40636300  0.29698200  0.87218450  1
  Tl  Tl3_2  1  0.40636300  0.79698200  0.37218450  1
  Tl  Tl3_3  1  0.40636300  0.79698200  0.87218450  1
  Tl  Tl3_4  1  0.90636300  0.29698200  0.37218450  1
  Tl  Tl3_5  1  0.90636300  0.29698200  0.87218450  1
  Tl  Tl3_6  1  0.90636300  0.79698200  0.37218450  1
  Tl  Tl3_7  1  0.90636300  0.79698200  0.87218450  1
  Tl  Tl4_0  1  0.19691050  0.09034300  0.37795000  1
  Tl  Tl4_1  1  0.19691050  0.09034300  0.87795000  1
  Tl  Tl4_2  1  0.19691050  0.59034300  0.37795000  1
  Tl  Tl4_3  1  0.19691050  0.59034300  0.87795000  1
  Tl  Tl4_4  1  0.69691050  0.09034300  0.37795000  1
  Tl  Tl4_5  1  0.69691050  0.09034300  0.87795000  1
  Tl  Tl4_6  1  0.69691050  0.59034300  0.37795000  1
  Tl  Tl4_7  1  0.69691050  0.59034300  0.87795000  1
  Tl  Tl5_0  1  0.41669500  0.08153200  0.37500600  1
  Tl  Tl5_1  1  0.41669500  0.08153200  0.87500600  1
  Tl  Tl5_2  1  0.41669500  0.58153200  0.37500600  1
  Tl  Tl5_3  1  0.41669500  0.58153200  0.87500600  1
  Tl  Tl5_4  1  0.91669500  0.08153200  0.37500600  1
  Tl  Tl5_5  1  0.91669500  0.08153200  0.87500600  1
  Tl  Tl5_6  1  0.91669500  0.58153200  0.37500600  1
  Tl  Tl5_7  1  0.91669500  0.58153200  0.87500600  1
  Co  Co0_0  1  0.16470850  0.33470600  0.37479750  1
  Co  Co0_1  1  0.16470850  0.33470600  0.87479750  1
  Co  Co0_2  1  0.16470850  0.83470600  0.37479750  1
  Co  Co0_3  1  0.16470850  0.83470600  0.87479750  1
  Co  Co0_4  1  0.66470850  0.33470600  0.37479750  1
  Co  Co0_5  1  0.66470850  0.33470600  0.87479750  1
  Co  Co0_6  1  0.66470850  0.83470600  0.37479750  1
  Co  Co0_7  1  0.66470850  0.83470600  0.87479750  1
  Co  Co1_0  1  0.33506450  0.16548050  0.12525300  1
  Co  Co1_1  1  0.33506450  0.16548050  0.62525300  1
  Co  Co1_2  1  0.33506450  0.66548050  0.12525300  1
  Co  Co1_3  1  0.33506450  0.66548050  0.62525300  1
  Co  Co1_4  1  0.83506450  0.16548050  0.12525300  1
  Co  Co1_5  1  0.83506450  0.16548050  0.62525300  1
  Co  Co1_6  1  0.83506450  0.66548050  0.12525300  1
  Co  Co1_7  1  0.83506450  0.66548050  0.62525300  1
loop_
_geom_bond_atom_site_label_1
_geom_bond_atom_site_label_2
_geom_bond_distance
_geom_bond_site_symmetry_2
Tl0_0 Tl0_1 3.083238 1_555
Tl0_0 Tl0_1 3.083238 1_554
Tl0_0 Tl5_4 3.389646 1_455
Tl0_0 Tl5_5 3.410204 1_454
Tl0_0 Tl4_0 3.461742 1_555
Tl0_0 Tl4_1 3.464801 1_554
Tl0_1 Tl5_5 3.389646 1_455
Tl0_1 Tl5_4 3.410204 1_455
Tl0_1 Tl4_1 3.461742 1_555
Tl0_1 Tl4_0 3.464801 1_555
Tl0_2 Tl0_3 3.083238 1_555
Tl0_2 Tl0_3 3.083238 1_554
Tl0_2 Tl5_6 3.389646 1_455
Tl0_2 Tl5_7 3.410204 1_454
Tl0_2 Tl4_2 3.461742 1_555
Tl0_2 Tl4_3 3.464801 1_554
Tl0_3 Tl5_7 3.389646 1_455
Tl0_3 Tl5_6 3.410204 1_455
Tl0_3 Tl4_3 3.461742 1_555
Tl0_3 Tl4_2 3.464801 1_555
Tl0_4 Tl0_5 3.083238 1_555
Tl0_4 Tl0_5 3.083238 1_554
Tl0_4 Tl5_0 3.389646 1_555
Tl0_4 Tl5_1 3.410204 1_554
Tl0_4 Tl4_4 3.461742 1_555
Tl0_4 Tl4_5 3.464801 1_554
Tl0_5 Tl5_1 3.389646 1_555
Tl0_5 Tl5_0 3.410204 1_555
Tl0_5 Tl4_5 3.461742 1_555
Tl0_5 Tl4_4 3.464801 1_555
Tl0_6 Tl0_7 3.083238 1_554
Tl0_6 Tl0_7 3.083238 1_555
Tl0_6 Tl5_2 3.389646 1_555
Tl0_6 Tl5_3 3.410204 1_554
Tl0_6 Tl4_6 3.461742 1_555
Tl0_6 Tl4_7 3.464801 1_554
Tl0_7 Tl5_3 3.389646 1_555
Tl0_7 Tl5_2 3.410204 1_555
Tl0_7 Tl4_7 3.461742 1_555
Tl0_7 Tl4_6 3.464801 1_555
Tl1_0 Tl1_1 3.083238 1_555
Tl1_0 Tl1_1 3.083238 1_554
Tl1_0 Tl5_3 3.374675 1_554
Tl1_0 Tl5_2 3.397757 1_555
Tl1_0 Tl3_0 3.455497 1_555
Tl1_0 Tl3_1 3.459242 1_554
Tl1_1 Tl5_2 3.374675 1_555
Tl1_1 Tl5_3 3.397757 1_555
Tl1_1 Tl3_1 3.455497 1_555
Tl1_1 Tl3_0 3.459242 1_555
Tl1_2 Tl1_3 3.083238 1_555
Tl1_2 Tl1_3 3.083238 1_554
Tl1_2 Tl5_1 3.374675 1_564
Tl1_2 Tl5_0 3.397757 1_565
Tl1_2 Tl3_2 3.455497 1_555
Tl1_2 Tl3_3 3.459242 1_554
Tl1_3 Tl5_0 3.374675 1_565
Tl1_3 Tl5_1 3.397757 1_565
Tl1_3 Tl3_3 3.455497 1_555
Tl1_3 Tl3_2 3.459242 1_555
Tl1_4 Tl1_5 3.083238 1_555
Tl1_4 Tl1_5 3.083238 1_554
Tl1_4 Tl5_7 3.374675 1_554
Tl1_4 Tl5_6 3.397757 1_555
Tl1_4 Tl3_4 3.455497 1_555
Tl1_4 Tl3_5 3.459242 1_554
Tl1_5 Tl5_6 3.374675 1_555
Tl1_5 Tl5_7 3.397757 1_555
Tl1_5 Tl3_5 3.455497 1_555
Tl1_5 Tl3_4 3.459242 1_555
Tl1_6 Tl1_7 3.083238 1_555
Tl1_6 Tl1_7 3.083238 1_554
Tl1_6 Tl5_5 3.374675 1_564
Tl1_6 Tl5_4 3.397757 1_565
Tl1_6 Tl3_6 3.455497 1_555
Tl1_6 Tl3_7 3.459242 1_554
Tl1_7 Tl5_4 3.374675 1_565
Tl1_7 Tl5_5 3.397757 1_565
Tl1_7 Tl3_7 3.455497 1_555
Tl1_7 Tl3_6 3.459242 1_555
Tl2_0 Tl2_1 3.083238 1_555
Tl2_0 Tl2_1 3.083238 1_554
Tl2_0 Tl4_3 3.375223 1_554
Tl2_0 Tl3_4 3.383257 1_455
Tl2_0 Tl4_2 3.399264 1_555
Tl2_0 Tl3_5 3.403585 1_454
Tl2_1 Tl4_2 3.375223 1_555
Tl2_1 Tl3_5 3.383257 1_455
Tl2_1 Tl4_3 3.399264 1_555
Tl2_1 Tl3_4 3.403585 1_455
Tl2_2 Tl2_3 3.083238 1_554
Tl2_2 Tl2_3 3.083238 1_555
Tl2_2 Tl4_1 3.375223 1_564
Tl2_2 Tl3_6 3.383257 1_455
Tl2_2 Tl4_0 3.399264 1_565
Tl2_2 Tl3_7 3.403585 1_454
Tl2_3 Tl4_0 3.375223 1_565
Tl2_3 Tl3_7 3.383257 1_455
Tl2_3 Tl4_1 3.399264 1_565
Tl2_3 Tl3_6 3.403585 1_455
Tl2_4 Tl2_5 3.083238 1_555
Tl2_4 Tl2_5 3.083238 1_554
Tl2_4 Tl4_7 3.375223 1_554
Tl2_4 Tl3_0 3.383257 1_555
Tl2_4 Tl4_6 3.399264 1_555
Tl2_4 Tl3_1 3.403585 1_554
Tl2_5 Tl4_6 3.375223 1_555
Tl2_5 Tl3_1 3.383257 1_555
Tl2_5 Tl4_7 3.399264 1_555
Tl2_5 Tl3_0 3.403585 1_555
Tl2_6 Tl2_7 3.083238 1_555
Tl2_6 Tl2_7 3.083238 1_554
Tl2_6 Tl4_5 3.375223 1_564
Tl2_6 Tl3_2 3.383257 1_555
Tl2_6 Tl4_4 3.399264 1_565
Tl2_6 Tl3_3 3.403585 1_554
Tl2_7 Tl4_4 3.375223 1_565
Tl2_7 Tl3_3 3.383257 1_555
Tl2_7 Tl4_5 3.399264 1_565
Tl2_7 Tl3_2 3.403585 1_555
Tl3_0 Tl3_1 3.083238 1_555
Tl3_0 Tl3_1 3.083238 1_554
Tl3_2 Tl3_3 3.083238 1_554
Tl3_2 Tl3_3 3.083238 1_555
Tl3_4 Tl3_5 3.083238 1_554
Tl3_4 Tl3_5 3.083238 1_555
Tl3_6 Tl3_7 3.083238 1_555
Tl3_6 Tl3_7 3.083238 1_554
Tl4_0 Tl4_1 3.083238 1_554
Tl4_0 Tl4_1 3.083238 1_555
Tl4_2 Tl4_3 3.083238 1_555
Tl4_2 Tl4_3 3.083238 1_554
Tl4_4 Tl4_5 3.083238 1_555
Tl4_4 Tl4_5 3.083238 1_554
Tl4_6 Tl4_7 3.083238 1_555
Tl4_6 Tl4_7 3.083238 1_554
Tl5_0 Tl5_1 3.083238 1_554
Tl5_0 Tl5_1 3.083238 1_555
Tl5_2 Tl5_3 3.083238 1_555
Tl5_2 Tl5_3 3.083238 1_554
Tl5_4 Tl5_5 3.083238 1_554
Tl5_4 Tl5_5 3.083238 1_555
Tl5_6 Tl5_7 3.083238 1_554
Tl5_6 Tl5_7 3.083238 1_555
Co0_0 Tl0_0 2.689213 1_555
Co0_0 Tl1_1 2.698631 1_555
Co0_0 Tl0_1 2.703556 1_555
Co0_0 Tl1_0 2.713345 1_555
Co0_0 Tl2_0 2.775630 1_555
Co0_0 Tl2_1 2.780073 1_555
Co0_0 Co0_1 3.083238 1_554
Co0_0 Co0_1 3.083238 1_555
Co0_1 Tl0_1 2.689213 1_555
Co0_1 Tl1_0 2.698631 1_556
Co0_1 Tl0_0 2.703556 1_556
Co0_1 Tl1_1 2.713345 1_555
Co0_1 Tl2_1 2.775630 1_555
Co0_1 Tl2_0 2.780073 1_556
Co0_2 Tl0_2 2.689213 1_555
Co0_2 Tl1_3 2.698631 1_555
Co0_2 Tl0_3 2.703556 1_555
Co0_2 Tl1_2 2.713345 1_555
Co0_2 Tl2_2 2.775630 1_555
Co0_2 Tl2_3 2.780073 1_555
Co0_2 Co0_3 3.083238 1_555
Co0_2 Co0_3 3.083238 1_554
Co0_3 Tl0_3 2.689213 1_555
Co0_3 Tl1_2 2.698631 1_556
Co0_3 Tl0_2 2.703556 1_556
Co0_3 Tl1_3 2.713345 1_555
Co0_3 Tl2_3 2.775630 1_555
Co0_3 Tl2_2 2.780073 1_556
Co0_4 Tl0_4 2.689213 1_555
Co0_4 Tl1_5 2.698631 1_555
Co0_4 Tl0_5 2.703556 1_555
Co0_4 Tl1_4 2.713345 1_555
Co0_4 Tl2_4 2.775630 1_555
Co0_4 Tl2_5 2.780073 1_555
Co0_4 Co0_5 3.083238 1_555
Co0_4 Co0_5 3.083238 1_554
Co0_5 Tl0_5 2.689213 1_555
Co0_5 Tl1_4 2.698631 1_556
Co0_5 Tl0_4 2.703556 1_556
Co0_5 Tl1_5 2.713345 1_555
Co0_5 Tl2_5 2.775630 1_555
Co0_5 Tl2_4 2.780073 1_556
Co0_6 Tl0_6 2.689213 1_555
Co0_6 Tl1_7 2.698631 1_555
Co0_6 Tl0_7 2.703556 1_555
Co0_6 Tl1_6 2.713345 1_555
Co0_6 Tl2_6 2.775630 1_555
Co0_6 Tl2_7 2.780073 1_555
Co0_6 Co0_7 3.083238 1_554
Co0_6 Co0_7 3.083238 1_555
Co0_7 Tl0_7 2.689213 1_555
Co0_7 Tl1_6 2.698631 1_556
Co0_7 Tl0_6 2.703556 1_556
Co0_7 Tl1_7 2.713345 1_555
Co0_7 Tl2_7 2.775630 1_555
Co0_7 Tl2_6 2.780073 1_556
Co1_0 Tl3_0 2.709088 1_555
Co1_0 Tl4_1 2.715683 1_554
Co1_0 Tl3_1 2.724001 1_554
Co1_0 Tl4_0 2.730495 1_555
Co1_0 Tl5_0 2.814316 1_555
Co1_0 Tl5_1 2.819674 1_554
Co1_0 Co1_1 3.083238 1_555
Co1_0 Co1_1 3.083238 1_554
Co1_1 Tl3_1 2.709088 1_555
Co1_1 Tl4_0 2.715683 1_555
Co1_1 Tl3_0 2.724001 1_555
Co1_1 Tl4_1 2.730495 1_555
Co1_1 Tl5_1 2.814316 1_555
Co1_1 Tl5_0 2.819674 1_555
Co1_2 Tl3_2 2.709088 1_555
Co1_2 Tl4_3 2.715683 1_554
Co1_2 Tl3_3 2.724001 1_554
Co1_2 Tl4_2 2.730495 1_555
Co1_2 Tl5_2 2.814316 1_555
Co1_2 Tl5_3 2.819674 1_554
Co1_2 Co1_3 3.083238 1_554
Co1_2 Co1_3 3.083238 1_555
Co1_3 Tl3_3 2.709088 1_555
Co1_3 Tl4_2 2.715683 1_555
Co1_3 Tl3_2 2.724001 1_555
Co1_3 Tl4_3 2.730495 1_555
Co1_3 Tl5_3 2.814316 1_555
Co1_3 Tl5_2 2.819674 1_555
Co1_4 Tl3_4 2.709088 1_555
Co1_4 Tl4_5 2.715683 1_554
Co1_4 Tl3_5 2.724001 1_554
Co1_4 Tl4_4 2.730495 1_555
Co1_4 Tl5_4 2.814316 1_555
Co1_4 Tl5_5 2.819674 1_554
Co1_4 Co1_5 3.083238 1_555
Co1_4 Co1_5 3.083238 1_554
Co1_5 Tl3_5 2.709088 1_555
Co1_5 Tl4_4 2.715683 1_555
Co1_5 Tl3_4 2.724001 1_555
Co1_5 Tl4_5 2.730495 1_555
Co1_5 Tl5_5 2.814316 1_555
Co1_5 Tl5_4 2.819674 1_555
Co1_6 Tl3_6 2.709088 1_555
Co1_6 Tl4_7 2.715683 1_554
Co1_6 Tl3_7 2.724001 1_554
Co1_6 Tl4_6 2.730495 1_555
Co1_6 Tl5_6 2.814316 1_555
Co1_6 Tl5_7 2.819674 1_554
Co1_6 Co1_7 3.083238 1_554
Co1_6 Co1_7 3.083238 1_555
Co1_7 Tl3_7 2.709088 1_555
Co1_7 Tl4_6 2.715683 1_555
Co1_7 Tl3_6 2.724001 1_555
Co1_7 Tl4_7 2.730495 1_555
Co1_7 Tl5_7 2.814316 1_555
Co1_7 Tl5_6 2.819674 1_555
