# generated using pymatgen
data_LaHfMg14
_symmetry_space_group_name_H-M   'P 1'
_cell_length_a   6.59100983
_cell_length_b   6.59100926
_cell_length_c   10.21771807
_cell_angle_alpha   90.00000000
_cell_angle_beta   90.00000000
_cell_angle_gamma   120.00000283
_symmetry_Int_Tables_number   1
_chemical_formula_structural   LaHfMg14
_chemical_formula_sum   'La1 Hf1 Mg14'
_cell_volume   384.40445798
_cell_formula_units_Z   1
loop_
 _symmetry_equiv_pos_site_id
 _symmetry_equiv_pos_as_xyz
  1  'x, y, z'
loop_
 _atom_site_type_symbol
 _atom_site_label
 _atom_site_symmetry_multiplicity
 _atom_site_fract_x
 _atom_site_fract_y
 _atom_site_fract_z
 _atom_site_occupancy
  La  La0  1  0.16666700  0.33333300  0.12500000  1
  Hf  Hf0  1  0.16666700  0.33333300  0.62500000  1
  Mg  Mg0  1  0.17612036  0.83805968  0.12500000  1
  Mg  Mg1  1  0.16775432  0.83387666  0.62500000  1
  Mg  Mg2  1  0.66194032  0.32387964  0.12500000  1
  Mg  Mg3  1  0.66612334  0.33224568  0.62500000  1
  Mg  Mg4  1  0.66194032  0.83805968  0.12500000  1
  Mg  Mg5  1  0.66612334  0.83387666  0.62500000  1
  Mg  Mg6  1  0.33535375  0.16464625  0.38420729  1
  Mg  Mg7  1  0.33535375  0.16464625  0.86579271  1
  Mg  Mg8  1  0.33535375  0.67070851  0.38420729  1
  Mg  Mg9  1  0.33535375  0.67070851  0.86579271  1
  Mg  Mg10  1  0.82929149  0.16464625  0.38420729  1
  Mg  Mg11  1  0.82929149  0.16464625  0.86579271  1
  Mg  Mg12  1  0.83333300  0.66666700  0.37143065  1
  Mg  Mg13  1  0.83333300  0.66666700  0.87856935  1
loop_
_geom_bond_atom_site_label_1
_geom_bond_atom_site_label_2
_geom_bond_distance
_geom_bond_site_symmetry_2
La0 Mg6 3.274598 1_555
La0 Mg7 3.274598 1_554
La0 Mg9 3.274605 1_554
La0 Mg8 3.274605 1_555
La0 Mg10 3.274605 1_455
La0 Mg11 3.274605 1_454
La0 Mg0 3.295946 1_555
La0 Mg4 3.295946 1_555
La0 Mg0 3.295946 1_545
La0 Mg4 3.295946 1_445
La0 Mg2 3.295947 1_555
La0 Mg2 3.295947 1_455
Hf0 Mg6 3.124378 1_555
Hf0 Mg7 3.124378 1_555
Hf0 Mg8 3.124385 1_555
Hf0 Mg9 3.124385 1_555
Hf0 Mg10 3.124385 1_455
Hf0 Mg11 3.124385 1_455
Hf0 Mg1 3.295510 1_555
Hf0 Mg1 3.295510 1_545
Hf0 Mg5 3.295510 1_555
Hf0 Mg5 3.295510 1_445
Hf0 Mg3 3.295511 1_555
Hf0 Mg3 3.295511 1_455
Mg0 Mg12 3.188808 1_455
Mg0 Mg13 3.188808 1_454
Mg0 Mg2 3.202044 1_565
Mg0 Mg4 3.202044 1_555
Mg0 Mg8 3.238876 1_555
Mg0 Mg9 3.238876 1_554
Mg0 Mg6 3.238883 1_565
Mg0 Mg7 3.238883 1_564
Mg0 Mg2 3.388965 1_455
Mg0 Mg4 3.388966 1_455
Mg1 Mg9 3.101314 1_555
Mg1 Mg8 3.101314 1_555
Mg1 Mg6 3.101321 1_565
Mg1 Mg7 3.101321 1_565
Mg1 Mg12 3.218160 1_455
Mg1 Mg13 3.218160 1_455
Mg1 Mg3 3.284755 1_565
Mg1 Mg5 3.284755 1_555
Mg1 Mg3 3.306254 1_455
Mg1 Mg5 3.306255 1_455
Mg2 Mg4 3.202044 1_545
Mg2 Mg6 3.238883 1_555
Mg2 Mg7 3.238883 1_554
Mg2 Mg4 3.388965 1_555
Mg3 Mg6 3.101321 1_555
Mg3 Mg7 3.101321 1_555
Mg3 Mg5 3.284755 1_545
Mg3 Mg5 3.306254 1_555
Mg4 Mg9 3.238883 1_554
Mg4 Mg8 3.238883 1_555
Mg5 Mg9 3.101321 1_555
Mg5 Mg8 3.101321 1_555
Mg6 Mg8 3.255548 1_545
Mg6 Mg8 3.335461 1_555
Mg7 Mg9 3.255548 1_545
Mg7 Mg9 3.335461 1_555
Mg10 Mg3 3.101314 1_555
Mg10 Mg5 3.101321 1_545
Mg10 Mg2 3.238876 1_555
Mg10 Mg4 3.238883 1_545
Mg10 Mg8 3.255548 1_545
Mg10 Mg6 3.255548 1_555
Mg10 Mg12 3.298170 1_555
Mg10 Mg12 3.298170 1_545
Mg10 Mg8 3.335461 1_655
Mg10 Mg6 3.335461 1_655
Mg11 Mg3 3.101314 1_555
Mg11 Mg5 3.101321 1_545
Mg11 Mg2 3.238876 1_556
Mg11 Mg4 3.238883 1_546
Mg11 Mg9 3.255548 1_545
Mg11 Mg7 3.255548 1_555
Mg11 Mg13 3.298170 1_555
Mg11 Mg13 3.298170 1_545
Mg11 Mg9 3.335461 1_655
Mg11 Mg7 3.335461 1_655
Mg12 Mg4 3.188801 1_555
Mg12 Mg2 3.188808 1_555
Mg12 Mg5 3.218153 1_555
Mg12 Mg3 3.218160 1_555
Mg12 Mg6 3.298170 1_555
Mg12 Mg6 3.298170 1_665
Mg12 Mg8 3.298170 1_655
Mg12 Mg8 3.298170 1_555
Mg13 Mg4 3.188801 1_556
Mg13 Mg2 3.188808 1_556
Mg13 Mg5 3.218153 1_555
Mg13 Mg3 3.218160 1_555
Mg13 Mg7 3.298170 1_555
Mg13 Mg7 3.298170 1_665
Mg13 Mg9 3.298170 1_655
Mg13 Mg9 3.298170 1_555
