# generated using pymatgen
data_Ba6Gd2Fe4O15
_symmetry_space_group_name_H-M   'P 1'
_cell_length_a   6.08349200
_cell_length_b   8.24313652
_cell_length_c   18.35600765
_cell_angle_alpha   91.20127275
_cell_angle_beta   90.00000000
_cell_angle_gamma   90.00000000
_symmetry_Int_Tables_number   1
_chemical_formula_structural   Ba6Gd2Fe4O15
_chemical_formula_sum   'Ba12 Gd4 Fe8 O30'
_cell_volume   920.29741776
_cell_formula_units_Z   2
loop_
 _symmetry_equiv_pos_site_id
 _symmetry_equiv_pos_as_xyz
  1  'x, y, z'
loop_
 _atom_site_type_symbol
 _atom_site_label
 _atom_site_symmetry_multiplicity
 _atom_site_fract_x
 _atom_site_fract_y
 _atom_site_fract_z
 _atom_site_occupancy
  Ba  Ba0  1  0.75467700  0.49725100  0.42521400  1
  Ba  Ba1  1  0.24532300  0.50274900  0.57478600  1
  Ba  Ba2  1  0.75467700  0.50274900  0.07478600  1
  Ba  Ba3  1  0.24532300  0.49725100  0.92521400  1
  Ba  Ba4  1  0.74508900  0.97325300  0.41410400  1
  Ba  Ba5  1  0.25491100  0.02674700  0.58589600  1
  Ba  Ba6  1  0.74508900  0.02674700  0.08589600  1
  Ba  Ba7  1  0.25491100  0.97325300  0.91410400  1
  Ba  Ba8  1  0.72420300  0.00000000  0.75000000  1
  Ba  Ba9  1  0.27579700  0.00000000  0.25000000  1
  Ba  Ba10  1  0.66148200  0.50000000  0.75000000  1
  Ba  Ba11  1  0.33851800  0.50000000  0.25000000  1
  Gd  Gd0  1  0.74625200  0.75212200  0.58821800  1
  Gd  Gd1  1  0.25374800  0.24787800  0.41178200  1
  Gd  Gd2  1  0.74625200  0.24787800  0.91178200  1
  Gd  Gd3  1  0.25374800  0.75212200  0.08821800  1
  Fe  Fe0  1  0.74963300  0.75275600  0.93556500  1
  Fe  Fe1  1  0.25036700  0.24724400  0.06443500  1
  Fe  Fe2  1  0.74963300  0.24724400  0.56443500  1
  Fe  Fe3  1  0.25036700  0.75275600  0.43556500  1
  Fe  Fe4  1  0.77660600  0.77030800  0.23543300  1
  Fe  Fe5  1  0.22339400  0.22969200  0.76456700  1
  Fe  Fe6  1  0.77660600  0.22969200  0.26456700  1
  Fe  Fe7  1  0.22339400  0.77030800  0.73543300  1
  O  O0  1  0.20280900  0.00000000  0.75000000  1
  O  O1  1  0.79719100  0.00000000  0.25000000  1
  O  O2  1  0.50592700  0.76436300  0.49343200  1
  O  O3  1  0.49407300  0.23563700  0.50656800  1
  O  O4  1  0.50592700  0.23563700  0.00656800  1
  O  O5  1  0.49407300  0.76436300  0.99343200  1
  O  O6  1  0.76087900  0.96224100  0.89703300  1
  O  O7  1  0.23912100  0.03775900  0.10296700  1
  O  O8  1  0.76087900  0.03775900  0.60296700  1
  O  O9  1  0.23912100  0.96224100  0.39703300  1
  O  O10  1  0.00610900  0.76593500  0.49854900  1
  O  O11  1  0.99389100  0.23406500  0.50145100  1
  O  O12  1  0.00610900  0.23406500  0.00145100  1
  O  O13  1  0.99389100  0.76593500  0.99854900  1
  O  O14  1  0.33696500  0.69335800  0.82154600  1
  O  O15  1  0.66303500  0.30664200  0.17845400  1
  O  O16  1  0.33696500  0.30664200  0.67845400  1
  O  O17  1  0.66303500  0.69335800  0.32154600  1
  O  O18  1  0.44391600  0.74411200  0.66192900  1
  O  O19  1  0.55608400  0.25588800  0.33807100  1
  O  O20  1  0.44391600  0.25588800  0.83807100  1
  O  O21  1  0.55608400  0.74411200  0.16192900  1
  O  O22  1  0.94123400  0.72336300  0.69524300  1
  O  O23  1  0.05876600  0.27663700  0.30475700  1
  O  O24  1  0.94123400  0.27663700  0.80475700  1
  O  O25  1  0.05876600  0.72336300  0.19524300  1
  O  O26  1  0.75793200  0.52740400  0.91877000  1
  O  O27  1  0.24206800  0.47259600  0.08123000  1
  O  O28  1  0.75793200  0.47259600  0.58123000  1
  O  O29  1  0.24206800  0.52740400  0.41877000  1
loop_
_geom_bond_atom_site_label_1
_geom_bond_atom_site_label_2
_geom_bond_distance
_geom_bond_site_symmetry_2
Ba0 O17 2.583433 1_555
Ba0 O19 2.800595 1_555
Ba0 O28 2.875348 1_555
Ba0 O2 2.930957 1_555
Ba0 O29 2.977996 1_655
Ba0 O11 2.984970 1_555
Ba0 O10 2.988652 1_655
Ba0 O3 3.086923 1_555
Ba0 O29 3.130775 1_555
Ba0 O23 3.383748 1_655
Ba1 O16 2.583433 1_555
Ba1 O18 2.800595 1_555
Ba1 O29 2.875348 1_555
Ba1 O3 2.930957 1_555
Ba1 O28 2.977996 1_455
Ba1 O10 2.984970 1_555
Ba1 O11 2.988652 1_455
Ba1 O2 3.086923 1_555
Ba1 O28 3.130775 1_555
Ba1 O22 3.383748 1_455
Ba2 O15 2.583433 1_555
Ba2 O21 2.800595 1_555
Ba2 O26 2.875348 1_554
Ba2 O4 2.930957 1_555
Ba2 O27 2.977996 1_655
Ba2 O13 2.984970 1_554
Ba2 O12 2.988652 1_655
Ba2 O5 3.086923 1_554
Ba2 O27 3.130775 1_555
Ba2 O25 3.383748 1_655
Ba3 O14 2.583433 1_555
Ba3 O20 2.800595 1_555
Ba3 O27 2.875348 1_556
Ba3 O5 2.930957 1_555
Ba3 O26 2.977996 1_455
Ba3 O12 2.984970 1_556
Ba3 O13 2.988652 1_455
Ba3 O4 3.086923 1_556
Ba3 O26 3.130775 1_555
Ba3 O24 3.383748 1_455
Ba4 O2 2.703204 1_555
Ba4 O10 2.820599 1_655
Ba4 O17 2.880040 1_555
Ba4 O19 2.972245 1_565
Ba4 O9 3.022897 1_655
Ba4 O1 3.041519 1_565
Ba4 O11 3.056014 1_565
Ba4 O9 3.095100 1_555
Ba4 O3 3.120367 1_565
Ba5 O3 2.703204 1_555
Ba5 O11 2.820599 1_455
Ba5 O16 2.880040 1_555
Ba5 O18 2.972245 1_545
Ba5 O8 3.022897 1_455
Ba5 O0 3.041519 1_555
Ba5 O10 3.056014 1_545
Ba5 O8 3.095100 1_555
Ba5 O2 3.120367 1_545
Ba6 O4 2.703204 1_555
Ba6 O12 2.820599 1_655
Ba6 O15 2.880040 1_555
Ba6 O21 2.972245 1_545
Ba6 O7 3.022897 1_655
Ba6 O1 3.041519 1_555
Ba6 O13 3.056014 1_544
Ba6 O7 3.095100 1_555
Ba6 O5 3.120367 1_544
Ba7 O5 2.703204 1_555
Ba7 O13 2.820599 1_455
Ba7 O14 2.880040 1_555
Ba7 O20 2.972245 1_565
Ba7 O6 3.022897 1_455
Ba7 O0 3.041519 1_565
Ba7 O12 3.056014 1_566
Ba7 O6 3.095100 1_555
Ba7 O4 3.120367 1_566
Ba8 O6 2.732426 1_545
Ba8 O8 2.732426 1_555
Ba8 O24 2.803105 1_555
Ba8 O22 2.803105 1_545
Ba8 O0 2.911596 1_655
Ba8 O20 3.134836 1_555
Ba8 O18 3.134836 1_545
Ba8 O0 3.171896 1_555
Ba9 O9 2.732426 1_545
Ba9 O7 2.732426 1_555
Ba9 O23 2.803105 1_555
Ba9 O25 2.803105 1_545
Ba9 O1 2.911596 1_455
Ba9 O21 3.134836 1_545
Ba9 O19 3.134836 1_555
Ba9 O1 3.171896 1_555
Ba10 O24 2.715563 1_555
Ba10 O22 2.715563 1_555
Ba10 O14 2.841633 1_555
Ba10 O16 2.841633 1_555
Ba10 O18 2.924185 1_555
Ba10 O20 2.924185 1_555
Ba10 O28 3.156457 1_555
Ba10 O26 3.156457 1_555
Ba11 O25 2.715563 1_555
Ba11 O23 2.715563 1_555
Ba11 O17 2.841633 1_555
Ba11 O15 2.841633 1_555
Ba11 O21 2.924185 1_555
Ba11 O19 2.924185 1_555
Ba11 O27 3.156457 1_555
Ba11 O29 3.156457 1_555
Gd0 O2 2.276457 1_555
Gd0 O18 2.285103 1_555
Gd0 O10 2.286716 1_655
Gd0 O28 2.306147 1_555
Gd0 O22 2.311318 1_555
Gd0 O8 2.366087 1_565
Gd1 O3 2.276457 1_555
Gd1 O19 2.285103 1_555
Gd1 O11 2.286716 1_455
Gd1 O29 2.306147 1_555
Gd1 O23 2.311318 1_555
Gd1 O9 2.366087 1_545
Gd2 O4 2.276457 1_556
Gd2 O20 2.285103 1_555
Gd2 O12 2.286716 1_656
Gd2 O26 2.306147 1_555
Gd2 O24 2.311318 1_555
Gd2 O6 2.366087 1_545
Gd3 O5 2.276457 1_554
Gd3 O21 2.285103 1_555
Gd3 O13 2.286716 1_454
Gd3 O27 2.306147 1_555
Gd3 O25 2.311318 1_555
Gd3 O7 2.366087 1_565
Fe0 O26 1.877308 1_555
Fe0 O6 1.880968 1_555
Fe0 O5 1.884213 1_555
Fe0 O13 1.884464 1_555
Fe1 O27 1.877308 1_555
Fe1 O7 1.880968 1_555
Fe1 O4 1.884213 1_555
Fe1 O12 1.884464 1_555
Fe2 O28 1.877308 1_555
Fe2 O8 1.880968 1_555
Fe2 O3 1.884213 1_555
Fe2 O11 1.884464 1_555
Fe3 O29 1.877308 1_555
Fe3 O9 1.880968 1_555
Fe3 O2 1.884213 1_555
Fe3 O10 1.884464 1_555
Fe4 O17 1.849412 1_555
Fe4 O25 1.904851 1_655
Fe4 O1 1.910720 1_565
Fe4 O21 1.911701 1_555
Fe5 O16 1.849412 1_555
Fe5 O24 1.904851 1_455
Fe5 O0 1.910720 1_555
Fe5 O20 1.911701 1_555
Fe6 O15 1.849412 1_555
Fe6 O23 1.904851 1_655
Fe6 O1 1.910720 1_555
Fe6 O19 1.911701 1_555
Fe7 O14 1.849412 1_555
Fe7 O22 1.904851 1_455
Fe7 O0 1.910720 1_565
Fe7 O18 1.911701 1_555
