# generated using pymatgen
data_RbPdC4Br
_symmetry_space_group_name_H-M   'P 1'
_cell_length_a   7.53421854
_cell_length_b   7.53421854
_cell_length_c   7.53421854
_cell_angle_alpha   120.78348604
_cell_angle_beta   120.78348604
_cell_angle_gamma   88.64823604
_symmetry_Int_Tables_number   1
_chemical_formula_structural   RbPdC4Br
_chemical_formula_sum   'Rb2 Pd2 C8 Br2'
_cell_volume   298.74094589
_cell_formula_units_Z   2
loop_
 _symmetry_equiv_pos_site_id
 _symmetry_equiv_pos_as_xyz
  1  'x, y, z'
loop_
 _atom_site_type_symbol
 _atom_site_label
 _atom_site_symmetry_multiplicity
 _atom_site_fract_x
 _atom_site_fract_y
 _atom_site_fract_z
 _atom_site_occupancy
  Rb  Rb0  1  0.75000000  0.25000000  0.50000000  1
  Rb  Rb1  1  0.25000000  0.75000000  0.50000000  1
  Pd  Pd0  1  0.00000000  0.00000000  0.00000000  1
  Pd  Pd1  1  0.50000000  0.50000000  0.00000000  1
  C  C0  1  0.19038400  0.19038400  0.38076700  1
  C  C1  1  0.80961700  0.80961600  0.61923300  1
  C  C2  1  0.19038400  0.80961600  0.00000000  1
  C  C3  1  0.80961600  0.19038400  0.00000000  1
  C  C4  1  0.69061000  0.69061000  0.38122000  1
  C  C5  1  0.30939000  0.30939000  0.61878000  1
  C  C6  1  0.69061000  0.30939000  0.00000000  1
  C  C7  1  0.30939000  0.69061000  0.00000000  1
  Br  Br0  1  0.74323200  0.74323200  0.00000000  1
  Br  Br1  1  0.25676800  0.25676800  0.00000000  1
loop_
_geom_bond_atom_site_label_1
_geom_bond_atom_site_label_2
_geom_bond_distance
_geom_bond_site_symmetry_2
C0 C5 1.252968 1_555
C0 Pd0 2.004465 1_555
C1 C4 1.252968 1_555
C1 Pd0 2.004465 1_666
C2 C7 1.252962 1_555
C2 Pd0 2.004470 1_565
C3 C6 1.252962 1_555
C3 Pd0 2.004470 1_655
C4 Pd1 2.006850 1_555
C5 Pd1 2.006850 1_556
C6 Pd1 2.006850 1_555
C7 Pd1 2.006850 1_555
Br0 Pd1 2.622026 1_555
Br0 Pd0 2.767944 1_665
Br0 Rb1 3.723125 1_554
Br0 Rb1 3.723125 1_655
Br0 Rb0 3.723125 1_565
Br0 Rb0 3.723125 1_554
Br1 Pd1 2.622026 1_555
Br1 Pd0 2.767944 1_555
Br1 Rb1 3.723125 1_555
Br1 Rb0 3.723125 1_454
Br1 Rb1 3.723125 1_544
Br1 Rb0 3.723125 1_555
