# generated using pymatgen
data_RbAlH4
_symmetry_space_group_name_H-M   'P 1'
_cell_length_a   7.73801715
_cell_length_b   7.73801715
_cell_length_c   6.51041500
_cell_angle_alpha   90.00000000
_cell_angle_beta   90.00000000
_cell_angle_gamma   151.47291564
_symmetry_Int_Tables_number   1
_chemical_formula_structural   RbAlH4
_chemical_formula_sum   'Rb2 Al2 H8'
_cell_volume   186.16963439
_cell_formula_units_Z   2
loop_
 _symmetry_equiv_pos_site_id
 _symmetry_equiv_pos_as_xyz
  1  'x, y, z'
loop_
 _atom_site_type_symbol
 _atom_site_label
 _atom_site_symmetry_multiplicity
 _atom_site_fract_x
 _atom_site_fract_y
 _atom_site_fract_z
 _atom_site_occupancy
  Rb  Rb0  1  0.62044300  0.37955700  0.16640800  1
  Rb  Rb1  1  0.37955700  0.62044300  0.66640800  1
  Al  Al0  1  0.88421500  0.11578500  0.14443300  1
  Al  Al1  1  0.11578500  0.88421500  0.64443300  1
  H  H0  1  0.80844300  0.19155700  0.96497100  1
  H  H1  1  0.19155700  0.80844300  0.46497100  1
  H  H2  1  0.39061400  0.60938600  0.15301800  1
  H  H3  1  0.60938600  0.39061400  0.65301800  1
  H  H4  1  0.01481700  0.98518300  0.54625100  1
  H  H5  1  0.98518300  0.01481700  0.04625100  1
  H  H6  1  0.84769100  0.15230900  0.37932000  1
  H  H7  1  0.15230900  0.84769100  0.87932000  1
loop_
_geom_bond_atom_site_label_1
_geom_bond_atom_site_label_2
_geom_bond_distance
_geom_bond_site_symmetry_2
Al0 H6 1.624376 1_555
Al0 H0 1.629947 1_554
Al0 H5 1.643786 1_555
Al0 H2 1.909743 1_655
Al0 H2 1.909743 1_545
Al1 H7 1.624376 1_555
Al1 H1 1.629947 1_555
Al1 H4 1.643786 1_555
Al1 H3 1.909743 1_455
Al1 H3 1.909743 1_565
H0 Rb1 2.924164 1_655
H0 Rb1 2.924164 1_545
H0 Rb0 3.109848 1_556
H1 Rb0 2.924164 1_565
H1 Rb0 2.924164 1_455
H1 Rb1 3.109848 1_555
H2 Rb1 3.172371 1_554
H3 Rb0 3.172371 1_555
H4 Rb1 2.891815 1_565
H4 Rb1 2.891815 1_455
H5 Rb0 2.891815 1_655
H5 Rb0 2.891815 1_545
H6 Rb1 2.712309 1_655
H6 Rb1 2.712309 1_545
H7 Rb0 2.712309 1_566
H7 Rb0 2.712309 1_456
