# generated using pymatgen
data_UPO5
_symmetry_space_group_name_H-M   'P 1'
_cell_length_a   5.57820823
_cell_length_b   5.57820823
_cell_length_c   12.76791500
_cell_angle_alpha   90.00000000
_cell_angle_beta   90.00000000
_cell_angle_gamma   102.14259495
_symmetry_Int_Tables_number   1
_chemical_formula_structural   UPO5
_chemical_formula_sum   'U4 P4 O20'
_cell_volume   388.40308735
_cell_formula_units_Z   4
loop_
 _symmetry_equiv_pos_site_id
 _symmetry_equiv_pos_as_xyz
  1  'x, y, z'
loop_
 _atom_site_type_symbol
 _atom_site_label
 _atom_site_symmetry_multiplicity
 _atom_site_fract_x
 _atom_site_fract_y
 _atom_site_fract_z
 _atom_site_occupancy
  U  U0  1  0.33239100  0.66760900  0.42516900  1
  U  U1  1  0.66760900  0.33239100  0.57483100  1
  U  U2  1  0.16760900  0.83239100  0.92516900  1
  U  U3  1  0.83239100  0.16760900  0.07483100  1
  P  P0  1  0.08955900  0.91044100  0.63710400  1
  P  P1  1  0.91044100  0.08955900  0.36289600  1
  P  P2  1  0.41044100  0.58955900  0.13710400  1
  P  P3  1  0.58955900  0.41044100  0.86289600  1
  O  O0  1  0.98120900  0.66691300  0.57796600  1
  O  O1  1  0.66691300  0.98120900  0.42203400  1
  O  O2  1  0.16691300  0.48120900  0.07796600  1
  O  O3  1  0.48120900  0.16691300  0.92203400  1
  O  O4  1  0.01879100  0.33308700  0.42203400  1
  O  O5  1  0.33308700  0.01879100  0.57796600  1
  O  O6  1  0.83308700  0.51879100  0.92203400  1
  O  O7  1  0.51879100  0.83308700  0.07796600  1
  O  O8  1  0.14328900  0.85671100  0.75132800  1
  O  O9  1  0.85671100  0.14328900  0.24867200  1
  O  O10  1  0.35671100  0.64328900  0.25132800  1
  O  O11  1  0.64328900  0.35671100  0.74867200  1
  O  O12  1  0.91220000  0.08780000  0.62760600  1
  O  O13  1  0.08780000  0.91220000  0.37239400  1
  O  O14  1  0.58780000  0.41220000  0.12760600  1
  O  O15  1  0.41220000  0.58780000  0.87239400  1
  O  O16  1  0.44196800  0.55803200  0.58584700  1
  O  O17  1  0.55803200  0.44196800  0.41415300  1
  O  O18  1  0.05803200  0.94196800  0.08584700  1
  O  O19  1  0.94196800  0.05803200  0.91415300  1
loop_
_geom_bond_atom_site_label_1
_geom_bond_atom_site_label_2
_geom_bond_distance
_geom_bond_site_symmetry_2
O0 P0 1.560579 1_655
O0 U1 2.273887 1_555
O1 P1 1.560579 1_565
O1 U0 2.273887 1_555
O2 P2 1.560579 1_555
O2 U3 2.273887 1_455
O3 P3 1.560579 1_555
O3 U2 2.273887 1_545
O4 P1 1.560579 1_455
O4 U0 2.273887 1_555
O5 P0 1.560579 1_545
O5 U1 2.273887 1_555
O6 P3 1.560579 1_555
O6 U2 2.273887 1_655
O7 P2 1.560579 1_555
O7 U3 2.273887 1_565
O8 P0 1.531140 1_555
O8 U2 2.229600 1_555
O9 P1 1.531140 1_555
O9 U3 2.229600 1_555
O10 P2 1.531140 1_555
O10 U0 2.229600 1_555
O11 P3 1.531140 1_555
O11 U1 2.229600 1_555
O12 P0 1.544050 1_645
O12 U1 2.227158 1_555
O13 P1 1.544050 1_465
O13 U0 2.227158 1_555
O14 P2 1.544050 1_555
O14 U3 2.227158 1_555
O15 P3 1.544050 1_555
O15 U2 2.227158 1_555
O16 U1 1.963359 1_555
O16 U0 2.261230 1_555
O17 U0 1.963359 1_555
O17 U1 2.261230 1_555
O18 U3 1.963359 1_465
O18 U2 2.261230 1_554
O19 U2 1.963359 1_645
O19 U3 2.261230 1_556
