# generated using pymatgen
data_SrMg2Pd
_symmetry_space_group_name_H-M   'P 1'
_cell_length_a   6.07388265
_cell_length_b   6.07388265
_cell_length_c   8.23139045
_cell_angle_alpha   90.00000000
_cell_angle_beta   90.00000000
_cell_angle_gamma   138.09464176
_symmetry_Int_Tables_number   1
_chemical_formula_structural   SrMg2Pd
_chemical_formula_sum   'Sr2 Mg4 Pd2'
_cell_volume   202.82376715
_cell_formula_units_Z   2
loop_
 _symmetry_equiv_pos_site_id
 _symmetry_equiv_pos_as_xyz
  1  'x, y, z'
loop_
 _atom_site_type_symbol
 _atom_site_label
 _atom_site_symmetry_multiplicity
 _atom_site_fract_x
 _atom_site_fract_y
 _atom_site_fract_z
 _atom_site_occupancy
  Sr  Sr0  1  0.94784247  0.05215753  0.25000000  1
  Sr  Sr1  1  0.05215753  0.94784247  0.75000000  1
  Mg  Mg0  1  0.66771117  0.33228883  0.43966225  1
  Mg  Mg1  1  0.33228883  0.66771117  0.56033775  1
  Mg  Mg2  1  0.66771117  0.33228883  0.06033775  1
  Mg  Mg3  1  0.33228883  0.66771117  0.93966225  1
  Pd  Pd0  1  0.22880240  0.77119760  0.25000000  1
  Pd  Pd1  1  0.77119760  0.22880240  0.75000000  1
loop_
_geom_bond_atom_site_label_1
_geom_bond_atom_site_label_2
_geom_bond_distance
_geom_bond_site_symmetry_2
Mg0 Pd0 2.763187 1_655
Mg0 Pd0 2.763187 1_545
Mg0 Pd1 2.811371 1_555
Mg1 Pd1 2.763187 1_565
Mg1 Pd1 2.763187 1_455
Mg1 Pd0 2.811371 1_555
Mg2 Pd0 2.763187 1_655
Mg2 Pd0 2.763187 1_545
Mg2 Pd1 2.811371 1_554
Mg3 Pd1 2.763187 1_565
Mg3 Pd1 2.763187 1_455
Mg3 Pd0 2.811371 1_556
Pd0 Sr0 3.187352 1_465
Pd0 Sr0 3.300352 1_455
Pd0 Sr0 3.300352 1_565
Pd1 Sr1 3.187352 1_645
Pd1 Sr1 3.300352 1_545
Pd1 Sr1 3.300352 1_655
