# generated using pymatgen
data_Sr2CeO4
_symmetry_space_group_name_H-M   'P 1'
_cell_length_a   3.61843097
_cell_length_b   6.12414890
_cell_length_c   10.34481853
_cell_angle_alpha   90.00000000
_cell_angle_beta   90.00000000
_cell_angle_gamma   90.00000000
_symmetry_Int_Tables_number   1
_chemical_formula_structural   Sr2CeO4
_chemical_formula_sum   'Sr4 Ce2 O8'
_cell_volume   229.23921357
_cell_formula_units_Z   2
loop_
 _symmetry_equiv_pos_site_id
 _symmetry_equiv_pos_as_xyz
  1  'x, y, z'
loop_
 _atom_site_type_symbol
 _atom_site_label
 _atom_site_symmetry_multiplicity
 _atom_site_fract_x
 _atom_site_fract_y
 _atom_site_fract_z
 _atom_site_occupancy
  Sr  Sr0  1  0.50000000  0.43640350  0.17932210  1
  Sr  Sr1  1  0.50000000  0.56359650  0.82067790  1
  Sr  Sr2  1  0.50000000  0.93640350  0.32067790  1
  Sr  Sr3  1  0.50000000  0.06359650  0.67932210  1
  Ce  Ce0  1  -0.00000000  0.50000000  0.50000000  1
  Ce  Ce1  1  -0.00000000  0.00000000  -0.00000000  1
  O  O0  1  0.50000000  0.27385909  0.45701528  1
  O  O1  1  0.50000000  0.72614091  0.54298472  1
  O  O2  1  0.50000000  0.77385909  0.04298472  1
  O  O3  1  0.50000000  0.22614091  0.95701528  1
  O  O4  1  -0.00000000  0.64326987  0.30595234  1
  O  O5  1  -0.00000000  0.35673013  0.69404766  1
  O  O6  1  0.00000000  0.85673013  0.80595234  1
  O  O7  1  0.00000000  0.14326987  0.19404766  1
loop_
_geom_bond_atom_site_label_1
_geom_bond_atom_site_label_2
_geom_bond_distance
_geom_bond_site_symmetry_2
Ce0 O4 2.190764 1_555
Ce0 O5 2.190764 1_555
Ce0 O0 2.321421 1_455
Ce0 O1 2.321421 1_455
Ce0 O1 2.321421 1_555
Ce0 O0 2.321421 1_555
Ce1 O7 2.190764 1_555
Ce1 O6 2.190764 1_544
Ce1 O2 2.321421 1_445
Ce1 O3 2.321421 1_554
Ce1 O2 2.321421 1_545
Ce1 O3 2.321421 1_454
O0 Sr2 2.502027 1_545
O0 Sr3 2.635687 1_555
O0 Sr0 3.040269 1_555
O1 Sr3 2.502027 1_565
O1 Sr2 2.635687 1_555
O1 Sr1 3.040269 1_555
O2 Sr0 2.502027 1_555
O2 Sr1 2.635687 1_554
O2 Sr2 3.040269 1_555
O3 Sr1 2.502027 1_555
O3 Sr0 2.635687 1_556
O3 Sr3 3.040269 1_555
O4 Sr2 2.553270 1_455
O4 Sr2 2.553270 1_555
O4 Sr0 2.567929 1_455
O4 Sr0 2.567929 1_555
O5 Sr3 2.553270 1_555
O5 Sr3 2.553270 1_455
O5 Sr1 2.567929 1_455
O5 Sr1 2.567929 1_555
O6 Sr1 2.553270 1_455
O6 Sr1 2.553270 1_555
O6 Sr3 2.567929 1_465
O6 Sr3 2.567929 1_565
O7 Sr0 2.553270 1_455
O7 Sr0 2.553270 1_555
O7 Sr2 2.567929 1_445
O7 Sr2 2.567929 1_545
