# generated using pymatgen
data_Te2MoW3(Se2S)2
_symmetry_space_group_name_H-M   'P 1'
_cell_length_a   3.34225000
_cell_length_b   3.34224272
_cell_length_c   38.20148100
_cell_angle_alpha   89.99994363
_cell_angle_beta   90.00000000
_cell_angle_gamma   120.00007205
_symmetry_Int_Tables_number   1
_chemical_formula_structural   Te2MoW3(Se2S)2
_chemical_formula_sum   'Te2 Mo1 W3 Se4 S2'
_cell_volume   369.56210692
_cell_formula_units_Z   1
loop_
 _symmetry_equiv_pos_site_id
 _symmetry_equiv_pos_as_xyz
  1  'x, y, z'
loop_
 _atom_site_type_symbol
 _atom_site_label
 _atom_site_symmetry_multiplicity
 _atom_site_fract_x
 _atom_site_fract_y
 _atom_site_fract_z
 _atom_site_occupancy
  Te  Te0  1  0.66664900  0.33329700  0.41973800  1
  Te  Te1  1  0.66664600  0.33329100  0.51961400  1
  Mo  Mo0  1  0.33330500  0.66661100  0.09393600  1
  W  W0  1  0.33331000  0.66662000  0.46968300  1
  W  W1  1  0.66669000  0.33338000  0.28179000  1
  W  W2  1  0.66669100  0.33338300  0.65753800  1
  Se  Se0  1  0.33335100  0.66670400  0.32554900  1
  Se  Se1  1  0.66664600  0.33329000  0.05031700  1
  Se  Se2  1  0.66664600  0.33329200  0.13752800  1
  Se  Se3  1  0.33335300  0.66670600  0.23798900  1
  S  S0  1  0.33335700  0.66671500  0.69741700  1
  S  S1  1  0.33335600  0.66671300  0.61764900  1
loop_
_geom_bond_atom_site_label_1
_geom_bond_atom_site_label_2
_geom_bond_distance
_geom_bond_site_symmetry_2
Te0 W0 2.713640 1_655
Te0 W0 2.713642 1_555
Te0 W0 2.713668 1_545
Te1 W0 2.713268 1_655
Te1 W0 2.713271 1_555
Te1 W0 2.713282 1_545
Mo0 Se2 2.548844 1_455
Mo0 Se2 2.548846 1_555
Mo0 Se2 2.548891 1_565
Mo0 Se1 2.549519 1_455
Mo0 Se1 2.549526 1_555
Mo0 Se1 2.549558 1_565
Se0 W1 2.553022 1_455
Se0 W1 2.553027 1_555
Se0 W1 2.553050 1_565
Se3 W1 2.554076 1_555
Se3 W1 2.554076 1_455
Se3 W1 2.554099 1_565
S0 W2 2.458534 1_565
S0 W2 2.458535 1_455
S0 W2 2.458535 1_555
S1 W2 2.458768 1_455
S1 W2 2.458768 1_555
S1 W2 2.458778 1_565
