# generated using pymatgen
data_Na6Mn7Fe6(PO4)12
_symmetry_space_group_name_H-M   'P 1'
_cell_length_a   6.58307776
_cell_length_b   8.83180227
_cell_length_c   17.51811646
_cell_angle_alpha   92.84723552
_cell_angle_beta   106.43393714
_cell_angle_gamma   106.75444841
_symmetry_Int_Tables_number   1
_chemical_formula_structural   Na6Mn7Fe6(PO4)12
_chemical_formula_sum   'Na6 Mn7 Fe6 P12 O48'
_cell_volume   925.83302879
_cell_formula_units_Z   1
loop_
 _symmetry_equiv_pos_site_id
 _symmetry_equiv_pos_as_xyz
  1  'x, y, z'
loop_
 _atom_site_type_symbol
 _atom_site_label
 _atom_site_symmetry_multiplicity
 _atom_site_fract_x
 _atom_site_fract_y
 _atom_site_fract_z
 _atom_site_occupancy
  Na  Na0  1  0.00194200  0.49622400  0.74728500  1
  Na  Na1  1  0.24429400  0.98143900  0.50599700  1
  Na  Na2  1  0.99776300  0.49890000  0.25253200  1
  Na  Na3  1  0.49853900  0.49607900  0.74919700  1
  Na  Na4  1  0.75489200  0.02015200  0.99547100  1
  Na  Na5  1  0.75365900  0.02143300  0.48912000  1
  Mn  Mn0  1  0.25324400  0.26481800  0.87023800  1
  Mn  Mn1  1  0.36077700  0.93427500  0.31238200  1
  Mn  Mn2  1  0.25406900  0.26760600  0.36795000  1
  Mn  Mn3  1  0.74078400  0.72416100  0.63201800  1
  Mn  Mn4  1  0.49718300  0.50388100  0.25114700  1
  Mn  Mn5  1  0.86269900  0.61898600  0.46625600  1
  Mn  Mn6  1  0.75562300  0.73352100  0.13490700  1
  Fe  Fe0  1  0.36728200  0.93748700  0.81340300  1
  Fe  Fe1  1  0.13766500  0.38232600  0.53283300  1
  Fe  Fe2  1  0.13563900  0.38228900  0.03081600  1
  Fe  Fe3  1  0.87650800  0.62310200  0.96907400  1
  Fe  Fe4  1  0.63548500  0.06255700  0.68984200  1
  Fe  Fe5  1  0.62240400  0.06089500  0.18368500  1
  P  P0  1  0.37855200  0.65633000  0.93365300  1
  P  P1  1  0.25090000  0.71918800  0.64661200  1
  P  P2  1  0.12663700  0.12621000  0.67480400  1
  P  P3  1  0.37888700  0.65888600  0.43770900  1
  P  P4  1  0.25276000  0.71179900  0.14384800  1
  P  P5  1  0.13087000  0.13242800  0.16990800  1
  P  P6  1  0.87090700  0.86451100  0.82600300  1
  P  P7  1  0.75050600  0.28466900  0.85680200  1
  P  P8  1  0.62138300  0.33837900  0.56465900  1
  P  P9  1  0.86477600  0.87821500  0.32668200  1
  P  P10  1  0.74645700  0.28405400  0.35162400  1
  P  P11  1  0.62601200  0.34889900  0.06580200  1
  O  O0  1  0.18876800  0.61155500  0.97358600  1
  O  O1  1  0.04055900  0.74806900  0.59127200  1
  O  O2  1  0.25294500  0.74381500  0.73581500  1
  O  O3  1  0.40396700  0.82528700  0.90756600  1
  O  O4  1  0.10423500  0.98954500  0.83458200  1
  O  O5  1  0.17748400  0.27240200  0.73710200  1
  O  O6  1  0.32446200  0.52622000  0.86276000  1
  O  O7  1  0.40134800  0.32999100  0.00073800  1
  O  O8  1  0.11367100  0.16214500  0.58890700  1
  O  O9  1  0.26014000  0.54837800  0.63428500  1
  O  O10  1  0.18267000  0.59596500  0.47176600  1
  O  O11  1  0.03630400  0.73038500  0.08442700  1
  O  O12  1  0.46414900  0.83684800  0.63269500  1
  O  O13  1  0.31629700  0.04596800  0.70579300  1
  O  O14  1  0.23170200  0.73067300  0.22845700  1
  O  O15  1  0.39388400  0.83115200  0.41955600  1
  O  O16  1  0.09464800  0.00090100  0.33373600  1
  O  O17  1  0.68990200  0.95318300  0.80020400  1
  O  O18  1  0.20324400  0.28185400  0.23598300  1
  O  O19  1  0.34442100  0.54028900  0.36187700  1
  O  O20  1  0.53804000  0.16800000  0.87070300  1
  O  O21  1  0.39202600  0.31380300  0.49960800  1
  O  O22  1  0.09974400  0.17836500  0.08573100  1
  O  O23  1  0.27640900  0.54154000  0.13486200  1
  O  O24  1  0.74561800  0.45822300  0.87072700  1
  O  O25  1  0.87331500  0.81077000  0.90900100  1
  O  O26  1  0.60178500  0.67004100  0.50336000  1
  O  O27  1  0.46659700  0.82804300  0.13117200  1
  O  O28  1  0.66531100  0.46312600  0.63707400  1
  O  O29  1  0.81713700  0.72209500  0.76149200  1
  O  O30  1  0.31262900  0.04769300  0.19303900  1
  O  O31  1  0.89402500  0.00198600  0.66972100  1
  O  O32  1  0.60687400  0.16787700  0.59209700  1
  O  O33  1  0.74848600  0.25967400  0.76816400  1
  O  O34  1  0.67985200  0.95601400  0.29289900  1
  O  O35  1  0.54038600  0.17647300  0.37065100  1
  O  O36  1  0.96177700  0.25716200  0.91254500  1
  O  O37  1  0.80900600  0.38834300  0.52571600  1
  O  O38  1  0.73385100  0.45798900  0.35569600  1
  O  O39  1  0.87311600  0.83879800  0.41230000  1
  O  O40  1  0.60854600  0.67199900  0.99847900  1
  O  O41  1  0.66825400  0.47153400  0.14029800  1
  O  O42  1  0.80537900  0.72244800  0.26616000  1
  O  O43  1  0.90017400  0.00841400  0.16826000  1
  O  O44  1  0.62939800  0.18301700  0.09132400  1
  O  O45  1  0.74972100  0.25344900  0.26338900  1
  O  O46  1  0.96268100  0.26513900  0.40881300  1
  O  O47  1  0.81596100  0.41265800  0.02685300  1
loop_
_geom_bond_atom_site_label_1
_geom_bond_atom_site_label_2
_geom_bond_distance
_geom_bond_site_symmetry_2
Na0 O33 2.386179 1_455
Na0 O2 2.387594 1_555
Na0 O6 2.421257 1_555
Na0 O28 2.423539 1_455
Na0 O5 2.583297 1_555
Na0 O29 2.653799 1_455
Na1 O39 2.449970 1_455
Na1 O32 2.476647 1_565
Na1 O15 2.534209 1_555
Na1 O8 2.581410 1_565
Na1 O21 2.832510 1_565
Na1 O1 2.850311 1_555
Na1 O12 2.860288 1_555
Na1 O16 2.928062 1_565
Na2 O14 2.318504 1_655
Na2 O45 2.361696 1_555
Na2 O41 2.422148 1_555
Na2 O19 2.446793 1_655
Na2 O42 2.669235 1_555
Na2 O18 2.692586 1_655
Na2 O38 2.809730 1_555
Na3 O9 2.334830 1_555
Na3 O5 2.390029 1_555
Na3 O24 2.390574 1_555
Na3 O29 2.391184 1_555
Na3 O28 2.548650 1_555
Na3 O6 2.599049 1_555
Na4 O22 2.350944 1_656
Na4 O3 2.470165 1_545
Na4 O44 2.607899 1_556
Na4 O25 2.746456 1_545
Na4 O20 2.848329 1_555
Na4 O36 2.850398 1_555
Na4 O43 2.922005 1_556
Na4 O40 2.953366 1_545
Na5 O15 2.405696 1_545
Na5 O8 2.441103 1_655
Na5 O39 2.479044 1_545
Na5 O32 2.708482 1_555
Na5 O35 2.809848 1_555
Na5 O46 2.862489 1_555
Mn0 O7 2.189240 1_556
Mn0 O36 2.229410 1_455
Mn0 O6 2.237766 1_555
Mn0 O5 2.251539 1_555
Mn0 O20 2.272124 1_555
Mn0 O4 2.321729 1_545
Mn1 O14 2.065561 1_555
Mn1 O15 2.110624 1_555
Mn1 O16 2.121041 1_565
Mn1 O35 2.158125 1_565
Mn1 O34 2.178319 1_555
Mn1 O30 2.343261 1_565
Mn2 O21 2.195095 1_555
Mn2 O46 2.224167 1_455
Mn2 O35 2.242915 1_555
Mn2 O16 2.255562 1_555
Mn2 O18 2.255610 1_555
Mn2 O19 2.323860 1_555
Mn3 O26 2.149296 1_555
Mn3 O29 2.182149 1_555
Mn3 O28 2.225850 1_555
Mn3 O1 2.240607 1_655
Mn3 O12 2.315825 1_555
Mn3 O31 2.347217 1_565
Mn4 O38 2.183875 1_555
Mn4 O23 2.245767 1_555
Mn4 O18 2.264904 1_555
Mn4 O42 2.302476 1_555
Mn4 O19 2.470970 1_555
Mn4 O41 2.547249 1_555
Mn5 O38 2.143355 1_555
Mn5 O10 2.149737 1_655
Mn5 O26 2.150610 1_555
Mn5 O39 2.192972 1_555
Mn5 O1 2.235705 1_655
Mn5 O37 2.315873 1_555
Mn6 O41 2.231289 1_555
Mn6 O42 2.240162 1_555
Mn6 O11 2.269042 1_655
Mn6 O27 2.274226 1_555
Mn6 O40 2.281001 1_554
Mn6 O43 2.313793 1_565
Fe0 O2 1.946168 1_555
Fe0 O3 1.958638 1_555
Fe0 O4 2.037959 1_555
Fe0 O20 2.062762 1_565
Fe0 O13 2.142684 1_565
Fe0 O17 2.166714 1_555
Fe1 O9 2.051336 1_555
Fe1 O21 2.146998 1_555
Fe1 O37 2.147975 1_455
Fe1 O46 2.188944 1_455
Fe1 O10 2.202238 1_555
Fe1 O8 2.207218 1_555
Fe2 O23 2.048729 1_555
Fe2 O22 2.068899 1_555
Fe2 O7 2.124554 1_555
Fe2 O36 2.127316 1_454
Fe2 O47 2.179482 1_455
Fe2 O0 2.284552 1_554
Fe3 O24 2.004628 1_555
Fe3 O25 2.008955 1_555
Fe3 O11 2.029828 1_656
Fe3 O0 2.066882 1_655
Fe3 O40 2.120104 1_555
Fe3 O47 2.150774 1_556
Fe4 O33 1.976153 1_555
Fe4 O32 1.977230 1_555
Fe4 O12 2.028463 1_545
Fe4 O31 2.037848 1_555
Fe4 O13 2.161840 1_555
Fe4 O17 2.189149 1_545
Fe5 O45 1.955568 1_555
Fe5 O44 1.992533 1_555
Fe5 O27 2.046842 1_545
Fe5 O30 2.062273 1_555
Fe5 O43 2.094599 1_555
Fe5 O34 2.151764 1_545
O0 P0 1.563271 1_555
O1 P1 1.546259 1_555
O2 P1 1.562710 1_555
O3 P0 1.559023 1_555
O4 P6 1.573637 1_455
O5 P2 1.540863 1_555
O6 P0 1.536777 1_555
O7 P11 1.548962 1_555
O8 P2 1.537102 1_555
O9 P1 1.534294 1_555
O10 P3 1.545451 1_555
O11 P4 1.566377 1_555
O12 P1 1.577273 1_555
O13 P2 1.587656 1_555
O14 P4 1.532621 1_555
O15 P3 1.550749 1_555
O16 P9 1.553977 1_445
O17 P6 1.582988 1_555
O18 P5 1.575477 1_555
O19 P3 1.570835 1_555
O20 P7 1.569735 1_555
O21 P8 1.561533 1_555
O22 P5 1.522331 1_555
O23 P4 1.560587 1_555
O24 P7 1.551042 1_555
O25 P6 1.549001 1_555
O26 P3 1.560788 1_555
O27 P4 1.565643 1_555
O28 P8 1.541633 1_555
O29 P6 1.536306 1_555
O30 P5 1.558199 1_555
O31 P2 1.581465 1_655
O32 P8 1.588293 1_555
O33 P7 1.553247 1_555
O34 P9 1.555426 1_555
O35 P10 1.548662 1_555
O36 P7 1.548180 1_555
O37 P8 1.542121 1_555
O38 P10 1.561321 1_555
O39 P9 1.545995 1_555
O40 P0 1.578580 1_555
O41 P11 1.560161 1_555
O42 P9 1.574782 1_555
O43 P5 1.587423 1_655
O44 P11 1.557237 1_555
O45 P10 1.563131 1_555
O46 P10 1.550664 1_555
O47 P11 1.568829 1_555
