# generated using pymatgen
data_CeMg
_symmetry_space_group_name_H-M   'P 1'
_cell_length_a   5.92165567
_cell_length_b   5.92165567
_cell_length_c   6.64735653
_cell_angle_alpha   60.78620555
_cell_angle_beta   60.78620555
_cell_angle_gamma   59.56849973
_symmetry_Int_Tables_number   1
_chemical_formula_structural   CeMg
_chemical_formula_sum   'Ce3 Mg3'
_cell_volume   166.19257651
_cell_formula_units_Z   3
loop_
 _symmetry_equiv_pos_site_id
 _symmetry_equiv_pos_as_xyz
  1  'x, y, z'
loop_
 _atom_site_type_symbol
 _atom_site_label
 _atom_site_symmetry_multiplicity
 _atom_site_fract_x
 _atom_site_fract_y
 _atom_site_fract_z
 _atom_site_occupancy
  Ce  Ce0  1  0.33561200  0.66438800  0.00000000  1
  Ce  Ce1  1  0.16732300  0.16459300  0.50436100  1
  Ce  Ce2  1  0.83540700  0.83267700  0.49563900  1
  Mg  Mg0  1  0.65947800  0.00094400  0.99832900  1
  Mg  Mg1  1  0.99905600  0.34052200  0.00167100  1
  Mg  Mg2  1  0.50312200  0.49687800  0.50000000  1
loop_
_geom_bond_atom_site_label_1
_geom_bond_atom_site_label_2
_geom_bond_distance
_geom_bond_site_symmetry_2
Ce0 Ce2 3.321652 1_554
Ce0 Ce1 3.321652 1_555
Ce0 Ce2 3.363088 1_455
Ce0 Ce1 3.363088 1_564
Ce0 Mg1 3.388156 1_455
Ce0 Mg0 3.388156 1_564
Ce0 Mg1 3.391454 1_555
Ce0 Mg0 3.391454 1_554
Ce0 Mg1 3.455598 1_465
Ce0 Mg0 3.455598 1_464
Ce0 Mg2 3.466694 1_555
Ce0 Mg2 3.466694 1_554
Ce1 Mg0 3.312374 1_455
Ce1 Mg0 3.391052 1_554
Ce1 Ce2 3.395301 1_455
Ce1 Ce2 3.395301 1_545
Ce1 Mg2 3.399720 1_455
Ce1 Mg2 3.417360 1_555
Ce1 Mg2 3.417560 1_545
Ce1 Ce2 3.444648 1_445
Ce1 Mg1 3.470538 1_455
Ce1 Mg1 3.478694 1_456
Ce2 Mg1 3.312374 1_565
Ce2 Mg1 3.391052 1_556
Ce2 Mg2 3.399720 1_565
Ce2 Mg2 3.417360 1_555
Ce2 Mg2 3.417560 1_655
Ce2 Mg0 3.470538 1_565
Ce2 Mg0 3.478694 1_564
Mg0 Mg2 3.310121 1_546
Mg0 Mg2 3.346373 1_555
Mg0 Mg1 3.366115 1_546
Mg0 Mg1 3.366115 1_456
Mg0 Mg1 3.503007 1_556
Mg1 Mg2 3.310121 1_654
Mg1 Mg2 3.346373 1_555
