# generated using pymatgen
data_K2UH4C5(NO6)2
_symmetry_space_group_name_H-M   'P 1'
_cell_length_a   6.88291500
_cell_length_b   8.90315700
_cell_length_c   24.45002186
_cell_angle_alpha   84.15564452
_cell_angle_beta   90.00000000
_cell_angle_gamma   90.00000000
_symmetry_Int_Tables_number   1
_chemical_formula_structural   K2UH4C5(NO6)2
_chemical_formula_sum   'K8 U4 H16 C20 N8 O48'
_cell_volume   1490.50149986
_cell_formula_units_Z   4
loop_
 _symmetry_equiv_pos_site_id
 _symmetry_equiv_pos_as_xyz
  1  'x, y, z'
loop_
 _atom_site_type_symbol
 _atom_site_label
 _atom_site_symmetry_multiplicity
 _atom_site_fract_x
 _atom_site_fract_y
 _atom_site_fract_z
 _atom_site_occupancy
  K  K0  1  0.62894200  0.01134100  0.11693000  1
  K  K1  1  0.12894200  0.98865900  0.38307000  1
  K  K2  1  0.37105800  0.98865900  0.88307000  1
  K  K3  1  0.87105800  0.01134100  0.61693000  1
  K  K4  1  0.66635800  0.48647300  0.09018800  1
  K  K5  1  0.16635800  0.51352700  0.40981200  1
  K  K6  1  0.33364200  0.51352700  0.90981200  1
  K  K7  1  0.83364200  0.48647300  0.59018800  1
  U  U0  1  0.14414300  0.71187200  0.14011000  1
  U  U1  1  0.64414300  0.28812800  0.35989000  1
  U  U2  1  0.85585700  0.28812800  0.85989000  1
  U  U3  1  0.35585700  0.71187200  0.64011000  1
  H  H0  1  0.15373500  0.11132200  0.16094100  1
  H  H1  1  0.65373500  0.88867800  0.33905900  1
  H  H2  1  0.84626500  0.88867800  0.83905900  1
  H  H3  1  0.34626500  0.11132200  0.66094100  1
  H  H4  1  0.08544900  0.22967400  0.10190300  1
  H  H5  1  0.58544900  0.77032600  0.39809700  1
  H  H6  1  0.91455100  0.77032600  0.89809700  1
  H  H7  1  0.41455100  0.22967400  0.60190300  1
  H  H8  1  0.17030600  0.21992400  0.24608100  1
  H  H9  1  0.67030600  0.78007600  0.25391900  1
  H  H10  1  0.82969400  0.78007600  0.75391900  1
  H  H11  1  0.32969400  0.21992400  0.74608100  1
  H  H12  1  0.11497200  0.41526900  0.24577800  1
  H  H13  1  0.61497200  0.58473100  0.25422200  1
  H  H14  1  0.88502800  0.58473100  0.75422200  1
  H  H15  1  0.38502800  0.41526900  0.74577800  1
  C  C0  1  0.17620800  0.77795900  0.00523500  1
  C  C1  1  0.67620800  0.22204100  0.49476500  1
  C  C2  1  0.82379200  0.22204100  0.99476500  1
  C  C3  1  0.32379200  0.77795900  0.50523500  1
  C  C4  1  0.22853200  0.93676600  0.02635200  1
  C  C5  1  0.72853200  0.06323400  0.47364800  1
  C  C6  1  0.77146800  0.06323400  0.97364800  1
  C  C7  1  0.27146800  0.93676600  0.52635200  1
  C  C8  1  0.19961500  0.90882800  0.24541200  1
  C  C9  1  0.69961500  0.09117200  0.25458800  1
  C  C10  1  0.80038500  0.09117200  0.75458800  1
  C  C11  1  0.30038500  0.90882800  0.74541200  1
  C  C12  1  0.13973800  0.74973300  0.27251300  1
  C  C13  1  0.63973800  0.25026700  0.22748700  1
  C  C14  1  0.86026200  0.25026700  0.72748700  1
  C  C15  1  0.36026200  0.74973300  0.77251300  1
  C  C16  1  0.09471400  0.33446700  0.17159800  1
  C  C17  1  0.59471400  0.66553300  0.32840200  1
  C  C18  1  0.90528600  0.66553300  0.82840200  1
  C  C19  1  0.40528600  0.33446700  0.67159800  1
  N  N0  1  0.11385800  0.21582000  0.14285600  1
  N  N1  1  0.61385800  0.78418000  0.35714400  1
  N  N2  1  0.88614200  0.78418000  0.85714400  1
  N  N3  1  0.38614200  0.21582000  0.64285600  1
  N  N4  1  0.12322700  0.32017800  0.22603900  1
  N  N5  1  0.62322700  0.67982200  0.27396100  1
  N  N6  1  0.87677300  0.67982200  0.77396100  1
  N  N7  1  0.37677300  0.32017800  0.72603900  1
  O  O0  1  0.88868700  0.76603900  0.13485800  1
  O  O1  1  0.38868700  0.23396100  0.36514200  1
  O  O2  1  0.11131300  0.23396100  0.86514200  1
  O  O3  1  0.61131300  0.76603900  0.63485800  1
  O  O4  1  0.39955900  0.65678400  0.14276300  1
  O  O5  1  0.89955900  0.34321600  0.35723700  1
  O  O6  1  0.60044100  0.34321600  0.85723700  1
  O  O7  1  0.10044100  0.65678400  0.64276300  1
  O  O8  1  0.11637800  0.65236400  0.23732300  1
  O  O9  1  0.61637800  0.34763600  0.26267700  1
  O  O10  1  0.88362200  0.34763600  0.76267700  1
  O  O11  1  0.38362200  0.65236400  0.73732300  1
  O  O12  1  0.13841200  0.67650400  0.04476900  1
  O  O13  1  0.63841200  0.32349600  0.45523100  1
  O  O14  1  0.86158800  0.32349600  0.95523100  1
  O  O15  1  0.36158800  0.67650400  0.54476900  1
  O  O16  1  0.23554100  0.93273600  0.07884200  1
  O  O17  1  0.73554100  0.06726400  0.42115800  1
  O  O18  1  0.76445900  0.06726400  0.92115800  1
  O  O19  1  0.26445900  0.93273600  0.57884200  1
  O  O20  1  0.04321900  0.46345500  0.14652500  1
  O  O21  1  0.54321900  0.53654500  0.35347500  1
  O  O22  1  0.95678100  0.53654500  0.85347500  1
  O  O23  1  0.45678100  0.46345500  0.64652500  1
  O  O24  1  0.21692100  0.91664100  0.19250800  1
  O  O25  1  0.71692100  0.08335900  0.30749200  1
  O  O26  1  0.78307900  0.08335900  0.80749200  1
  O  O27  1  0.28307900  0.91664100  0.69250800  1
  O  O28  1  0.11822600  0.72801800  0.32312700  1
  O  O29  1  0.61822600  0.27198200  0.17687300  1
  O  O30  1  0.88177400  0.27198200  0.67687300  1
  O  O31  1  0.38177400  0.72801800  0.82312700  1
  O  O32  1  0.26020500  0.04659400  0.99179800  1
  O  O33  1  0.76020500  0.95340600  0.50820200  1
  O  O34  1  0.73979500  0.95340600  0.00820200  1
  O  O35  1  0.23979500  0.04659400  0.49179800  1
  O  O36  1  0.22528500  0.01519000  0.27386900  1
  O  O37  1  0.72528500  0.98481000  0.22613100  1
  O  O38  1  0.77471500  0.98481000  0.72613100  1
  O  O39  1  0.27471500  0.01519000  0.77386900  1
  O  O40  1  0.17998100  0.76345300  0.95526100  1
  O  O41  1  0.67998100  0.23654700  0.54473900  1
  O  O42  1  0.82001900  0.23654700  0.04473900  1
  O  O43  1  0.32001900  0.76345300  0.45526100  1
  O  O44  1  0.35006300  0.33993800  0.01767700  1
  O  O45  1  0.85006300  0.66006200  0.48232300  1
  O  O46  1  0.64993700  0.66006200  0.98232300  1
  O  O47  1  0.14993700  0.33993800  0.51767700  1
loop_
_geom_bond_atom_site_label_1
_geom_bond_atom_site_label_2
_geom_bond_distance
_geom_bond_site_symmetry_2
K0 O37 2.737847 1_545
K0 O0 2.821898 1_545
K0 O42 2.853876 1_555
K0 O34 2.862615 1_545
K0 O29 2.868957 1_555
K0 O16 2.970119 1_545
K1 O36 2.737847 1_565
K1 O1 2.821898 1_565
K1 O43 2.853876 1_555
K1 O35 2.862615 1_565
K1 O28 2.868957 1_555
K1 O17 2.970119 1_465
K2 O39 2.737847 1_565
K2 O2 2.821898 1_565
K2 O40 2.853876 1_555
K2 O32 2.862615 1_565
K2 O31 2.868957 1_555
K2 O18 2.970119 1_565
K3 O38 2.737847 1_545
K3 O3 2.821898 1_545
K3 O41 2.853876 1_555
K3 O33 2.862615 1_545
K3 O30 2.868957 1_555
K3 O19 2.970119 1_645
K4 O29 2.724758 1_555
K4 O4 2.778622 1_555
K4 O42 2.794313 1_555
K4 O46 2.920034 1_554
K4 O20 2.934311 1_655
K4 O44 3.171074 1_555
K4 O0 3.206780 1_555
K5 O28 2.724758 1_555
K5 O5 2.778622 1_455
K5 O43 2.794313 1_555
K5 O47 2.920034 1_555
K5 O21 2.934311 1_555
K5 O45 3.171074 1_455
K5 O1 3.206780 1_555
K6 O31 2.724758 1_555
K6 O6 2.778622 1_555
K6 O40 2.794313 1_555
K6 O44 2.920034 1_556
K6 O22 2.934311 1_455
K6 O46 3.171074 1_555
K6 O2 3.206780 1_555
K7 O30 2.724758 1_555
K7 O7 2.778622 1_655
K7 O41 2.794313 1_555
K7 O45 2.920034 1_555
K7 O23 2.934311 1_555
K7 O47 3.171074 1_655
K7 O3 3.206780 1_555
H0 N0 1.025987 1_555
H1 N1 1.025987 1_555
H2 N2 1.025987 1_555
H3 N3 1.025987 1_555
H4 N0 1.015333 1_555
H5 N1 1.015333 1_555
H6 N2 1.015333 1_555
H7 N3 1.015333 1_555
H8 N4 1.026035 1_555
H9 N5 1.026035 1_555
H10 N6 1.026035 1_555
H11 N7 1.026035 1_555
H12 N4 1.017894 1_555
H13 N5 1.017894 1_555
H14 N6 1.017894 1_555
H15 N7 1.017894 1_555
C0 O40 1.241952 1_554
C0 O12 1.280660 1_555
C1 O41 1.241952 1_555
C1 O13 1.280660 1_555
C2 O42 1.241952 1_556
C2 O14 1.280660 1_555
C3 O43 1.241952 1_555
C3 O15 1.280660 1_555
C4 O32 1.244659 1_564
C4 O16 1.281134 1_555
C5 O33 1.244659 1_545
C5 O17 1.281134 1_555
C6 O34 1.244659 1_546
C6 O18 1.281134 1_555
C7 O35 1.244659 1_565
C7 O19 1.281134 1_555
C8 O36 1.243474 1_565
C8 O24 1.293776 1_555
C9 O37 1.243474 1_545
C9 O25 1.293776 1_555
C10 O38 1.243474 1_545
C10 O26 1.293776 1_555
C11 O39 1.243474 1_565
C11 O27 1.293776 1_555
C12 O28 1.241779 1_555
C12 O8 1.292104 1_555
C13 O29 1.241779 1_555
C13 O9 1.292104 1_555
C14 O30 1.241779 1_555
C14 O10 1.292104 1_555
C15 O31 1.241779 1_555
C15 O11 1.292104 1_555
C16 O20 1.294947 1_555
C16 N0 1.333502 1_555
C16 N4 1.338655 1_555
C17 O21 1.294947 1_555
C17 N1 1.333502 1_555
C17 N5 1.338655 1_555
C18 O22 1.294947 1_555
C18 N2 1.333502 1_555
C18 N6 1.338655 1_555
C19 O23 1.294947 1_555
C19 N3 1.333502 1_555
C19 N7 1.338655 1_555
O0 U0 1.824282 1_655
O1 U1 1.824282 1_555
O2 U2 1.824282 1_455
O3 U3 1.824282 1_555
O4 U0 1.824517 1_555
O5 U1 1.824517 1_555
O6 U2 1.824517 1_555
O7 U3 1.824517 1_555
O8 U0 2.389608 1_555
O9 U1 2.389608 1_555
O10 U2 2.389608 1_555
O11 U3 2.389608 1_555
O12 U0 2.384151 1_555
O13 U1 2.384151 1_555
O14 U2 2.384151 1_555
O15 U3 2.384151 1_555
O16 U0 2.430339 1_555
O17 U1 2.430339 1_555
O18 U2 2.430339 1_555
O19 U3 2.430339 1_555
O20 U0 2.308266 1_555
O21 U1 2.308266 1_555
O22 U2 2.308266 1_555
O23 U3 2.308266 1_555
O24 U0 2.385695 1_555
O25 U1 2.385695 1_555
O26 U2 2.385695 1_555
O27 U3 2.385695 1_555
