# generated using pymatgen
data_CaLaCrSnO6
_symmetry_space_group_name_H-M   'P 1'
_cell_length_a   5.69443300
_cell_length_b   9.70904043
_cell_length_c   9.74779814
_cell_angle_alpha   70.15139485
_cell_angle_beta   89.99994698
_cell_angle_gamma   89.99964898
_symmetry_Int_Tables_number   1
_chemical_formula_structural   CaLaCrSnO6
_chemical_formula_sum   'Ca4 La4 Cr4 Sn4 O24'
_cell_volume   506.91495066
_cell_formula_units_Z   4
loop_
 _symmetry_equiv_pos_site_id
 _symmetry_equiv_pos_as_xyz
  1  'x, y, z'
loop_
 _atom_site_type_symbol
 _atom_site_label
 _atom_site_symmetry_multiplicity
 _atom_site_fract_x
 _atom_site_fract_y
 _atom_site_fract_z
 _atom_site_occupancy
  Ca  Ca0  1  0.45232500  0.13117700  0.61832200  1
  Ca  Ca1  1  0.45231800  0.63120000  0.11825400  1
  Ca  Ca2  1  0.04770300  0.63116100  0.61831000  1
  Ca  Ca3  1  0.04764000  0.13120300  0.11831900  1
  La  La0  1  0.95864900  0.36962200  0.38079100  1
  La  La1  1  0.95852600  0.86964600  0.88074100  1
  La  La2  1  0.54146100  0.86962700  0.38080500  1
  La  La3  1  0.54143100  0.36967600  0.88068400  1
  Cr  Cr0  1  0.00033300  0.49940800  0.99990800  1
  Cr  Cr1  1  0.49973800  0.99939600  0.99989100  1
  Cr  Cr2  1  0.00031800  0.99936700  0.49995100  1
  Cr  Cr3  1  0.49964400  0.49940100  0.50002600  1
  Sn  Sn0  1  0.00079500  0.75036100  0.25061800  1
  Sn  Sn1  1  0.00079400  0.25035500  0.75062500  1
  Sn  Sn2  1  0.49918000  0.25032100  0.25060700  1
  Sn  Sn3  1  0.49917600  0.75032100  0.75061000  1
  O  O0  1  0.46865300  0.07815900  0.16849000  1
  O  O1  1  0.46869400  0.57812700  0.66838100  1
  O  O2  1  0.03133800  0.07814300  0.66846500  1
  O  O3  1  0.03133200  0.57815000  0.16846000  1
  O  O4  1  0.21260600  0.37304700  0.57786400  1
  O  O5  1  0.21254800  0.87301800  0.07794500  1
  O  O6  1  0.28740700  0.87305900  0.57790100  1
  O  O7  1  0.28741900  0.37303100  0.07794500  1
  O  O8  1  0.20621900  0.16842800  0.38029800  1
  O  O9  1  0.20616300  0.66840000  0.88032400  1
  O  O10  1  0.29379900  0.66841900  0.38025500  1
  O  O11  1  0.29379000  0.16840500  0.88031900  1
  O  O12  1  0.70380000  0.32833100  0.62049100  1
  O  O13  1  0.70379200  0.82831600  0.12056400  1
  O  O14  1  0.79622800  0.82833500  0.62053600  1
  O  O15  1  0.79617100  0.32831600  0.12056900  1
  O  O16  1  0.70910300  0.12607900  0.42502300  1
  O  O17  1  0.70912400  0.62605600  0.92506200  1
  O  O18  1  0.79091000  0.62606600  0.42499400  1
  O  O19  1  0.79085900  0.12604500  0.92506200  1
  O  O20  1  0.97247500  0.92546100  0.32816600  1
  O  O21  1  0.97245600  0.42546200  0.82816300  1
  O  O22  1  0.52752700  0.92545900  0.82819500  1
  O  O23  1  0.52755500  0.42545600  0.32806900  1
loop_
_geom_bond_atom_site_label_1
_geom_bond_atom_site_label_2
_geom_bond_distance
_geom_bond_site_symmetry_2
Ca0 O22 2.362880 1_545
Ca0 O12 2.396389 1_555
Ca0 O16 2.398787 1_555
Ca0 O2 2.465788 1_555
Ca0 O4 2.627665 1_555
Ca0 O8 2.628374 1_555
Ca0 O6 2.826337 1_545
Ca0 O11 2.845145 1_555
Ca1 O23 2.362728 1_555
Ca1 O13 2.396475 1_555
Ca1 O17 2.398186 1_554
Ca1 O3 2.465882 1_555
Ca1 O5 2.627613 1_555
Ca1 O9 2.627838 1_554
Ca1 O7 2.826283 1_555
Ca1 O10 2.845115 1_555
Ca2 O21 2.362716 1_455
Ca2 O14 2.396686 1_455
Ca2 O18 2.398965 1_455
Ca2 O1 2.465715 1_555
Ca2 O6 2.627937 1_555
Ca2 O10 2.628586 1_555
Ca2 O4 2.826369 1_555
Ca2 O9 2.845214 1_555
Ca3 O20 2.362827 1_445
Ca3 O15 2.396256 1_455
Ca3 O19 2.398643 1_454
Ca3 O0 2.465975 1_555
Ca3 O7 2.627639 1_555
Ca3 O11 2.628390 1_554
Ca3 O5 2.826713 1_545
Ca3 O8 2.845050 1_555
La0 O3 2.389275 1_655
La0 O8 2.410310 1_655
La0 O4 2.413745 1_655
La0 O23 2.528834 1_555
La0 O12 2.662727 1_555
La0 O16 2.665353 1_555
La0 O18 2.832975 1_555
La0 O15 2.853415 1_555
La1 O2 2.388925 1_665
La1 O9 2.410737 1_655
La1 O5 2.414843 1_656
La1 O22 2.528056 1_555
La1 O13 2.663306 1_556
La1 O17 2.665175 1_555
La1 O19 2.832949 1_565
La1 O14 2.852949 1_555
La2 O0 2.389326 1_565
La2 O10 2.410894 1_555
La2 O6 2.414272 1_555
La2 O20 2.528292 1_555
La2 O14 2.662721 1_555
La2 O18 2.665248 1_555
La2 O16 2.832937 1_565
La2 O13 2.853336 1_555
La3 O1 2.388753 1_555
La3 O11 2.410821 1_555
La3 O7 2.415204 1_556
La3 O21 2.528136 1_555
La3 O15 2.663781 1_556
La3 O19 2.665493 1_555
La3 O17 2.833088 1_555
La3 O12 2.853113 1_555
Cr0 O7 2.030487 1_556
Cr0 O9 2.031229 1_555
Cr0 O21 2.039504 1_455
Cr0 O15 2.041480 1_456
Cr0 O3 2.041593 1_556
Cr0 O17 2.045706 1_455
Cr1 O5 2.031007 1_556
Cr1 O11 2.031672 1_565
Cr1 O22 2.038960 1_555
Cr1 O13 2.041083 1_556
Cr1 O0 2.042193 1_566
Cr1 O19 2.045290 1_565
Cr2 O6 2.030037 1_555
Cr2 O8 2.032074 1_565
Cr2 O20 2.039611 1_455
Cr2 O14 2.040664 1_455
Cr2 O2 2.041472 1_565
Cr2 O16 2.046154 1_465
Cr3 O4 2.029843 1_555
Cr3 O10 2.031969 1_555
Cr3 O1 2.039678 1_555
Cr3 O12 2.040746 1_555
Cr3 O23 2.041456 1_555
Cr3 O18 2.046337 1_555
O0 Sn2 2.091305 1_555
O1 Sn3 2.092286 1_555
O2 Sn1 2.092036 1_555
O3 Sn0 2.092011 1_555
O4 Sn1 2.085077 1_555
O5 Sn0 2.084255 1_555
O6 Sn3 2.084750 1_555
O7 Sn2 2.084362 1_555
O8 Sn2 2.081074 1_555
O9 Sn3 2.081467 1_555
O10 Sn0 2.081097 1_555
O11 Sn1 2.081340 1_555
O12 Sn1 2.095313 1_655
O13 Sn0 2.094946 1_655
O14 Sn3 2.095360 1_555
O15 Sn2 2.094882 1_555
O16 Sn2 2.093307 1_555
O17 Sn3 2.093672 1_555
O18 Sn0 2.093105 1_655
O19 Sn1 2.093678 1_655
O20 Sn0 2.088129 1_655
O21 Sn1 2.088138 1_655
O22 Sn3 2.088720 1_555
O23 Sn2 2.087938 1_555
