# generated using pymatgen
data_Li2CuSb
_symmetry_space_group_name_H-M   'P 1'
_cell_length_a   4.44903967
_cell_length_b   4.44904058
_cell_length_c   4.44904005
_cell_angle_alpha   60.00000389
_cell_angle_beta   59.99999707
_cell_angle_gamma   59.99999594
_symmetry_Int_Tables_number   1
_chemical_formula_structural   Li2CuSb
_chemical_formula_sum   'Li2 Cu1 Sb1'
_cell_volume   62.27072934
_cell_formula_units_Z   1
loop_
 _symmetry_equiv_pos_site_id
 _symmetry_equiv_pos_as_xyz
  1  'x, y, z'
loop_
 _atom_site_type_symbol
 _atom_site_label
 _atom_site_symmetry_multiplicity
 _atom_site_fract_x
 _atom_site_fract_y
 _atom_site_fract_z
 _atom_site_occupancy
  Li  Li0  1  0.25000000  0.25000000  0.25000000  1
  Li  Li1  1  0.50000000  0.50000000  0.50000000  1
  Cu  Cu0  1  -0.00000000  0.00000000  0.00000000  1
  Sb  Sb0  1  0.75000000  0.75000000  0.75000000  1
loop_
_geom_bond_atom_site_label_1
_geom_bond_atom_site_label_2
_geom_bond_distance
_geom_bond_site_symmetry_2
Li0 Sb0 3.145946 1_455
Li0 Sb0 3.145946 1_545
Li0 Sb0 3.145946 1_544
Li0 Sb0 3.145946 1_454
Li0 Sb0 3.145947 1_445
Li0 Sb0 3.145947 1_554
Li1 Sb0 2.724469 1_455
Li1 Sb0 2.724470 1_554
Li1 Sb0 2.724470 1_555
Li1 Sb0 2.724470 1_545
Cu0 Li0 2.724469 1_455
Cu0 Sb0 2.724469 1_544
Cu0 Sb0 2.724470 1_445
Cu0 Li0 2.724470 1_554
Cu0 Li0 2.724470 1_555
Cu0 Sb0 2.724470 1_444
Cu0 Sb0 2.724470 1_454
Cu0 Li0 2.724470 1_545
Cu0 Li1 3.145946 1_454
Cu0 Li1 3.145946 1_545
Cu0 Li1 3.145946 1_544
Cu0 Li1 3.145946 1_455
Cu0 Li1 3.145947 1_445
Cu0 Li1 3.145947 1_554
