# generated using pymatgen
data_Tm2S3
_symmetry_space_group_name_H-M   'P 1'
_cell_length_a   6.81010258
_cell_length_b   6.81010258
_cell_length_c   18.55582200
_cell_angle_alpha   90.00000000
_cell_angle_beta   90.00000000
_cell_angle_gamma   120.00000560
_symmetry_Int_Tables_number   1
_chemical_formula_structural   Tm2S3
_chemical_formula_sum   'Tm12 S18'
_cell_volume   745.27767491
_cell_formula_units_Z   6
loop_
 _symmetry_equiv_pos_site_id
 _symmetry_equiv_pos_as_xyz
  1  'x, y, z'
loop_
 _atom_site_type_symbol
 _atom_site_label
 _atom_site_symmetry_multiplicity
 _atom_site_fract_x
 _atom_site_fract_y
 _atom_site_fract_z
 _atom_site_occupancy
  Tm  Tm0  1  0.00000000  0.00000000  0.45513800  1
  Tm  Tm1  1  0.00000000  0.00000000  0.95513800  1
  Tm  Tm2  1  0.00000000  0.00000000  0.15746000  1
  Tm  Tm3  1  0.00000000  0.00000000  0.65746000  1
  Tm  Tm4  1  0.66666700  0.33333300  0.49105800  1
  Tm  Tm5  1  0.33333300  0.66666700  0.49105800  1
  Tm  Tm6  1  0.33333300  0.66666700  0.99105800  1
  Tm  Tm7  1  0.66666700  0.33333300  0.99105800  1
  Tm  Tm8  1  0.66666700  0.33333300  0.29226100  1
  Tm  Tm9  1  0.33333300  0.66666700  0.29226100  1
  Tm  Tm10  1  0.33333300  0.66666700  0.79226100  1
  Tm  Tm11  1  0.66666700  0.33333300  0.79226100  1
  S  S0  1  0.63129400  0.00000000  0.39519500  1
  S  S1  1  0.36870600  0.36870600  0.39519500  1
  S  S2  1  0.00000000  0.63129400  0.39519500  1
  S  S3  1  0.36870600  0.00000000  0.89519500  1
  S  S4  1  0.63129400  0.63129400  0.89519500  1
  S  S5  1  0.00000000  0.36870600  0.89519500  1
  S  S6  1  0.69965800  0.00000000  0.05206700  1
  S  S7  1  0.30034200  0.30034200  0.05206700  1
  S  S8  1  0.00000000  0.69965800  0.05206700  1
  S  S9  1  0.30034200  0.00000000  0.55206700  1
  S  S10  1  0.69965800  0.69965800  0.55206700  1
  S  S11  1  0.00000000  0.30034200  0.55206700  1
  S  S12  1  0.33943300  0.00000000  0.22399000  1
  S  S13  1  0.66056700  0.66056700  0.22399000  1
  S  S14  1  0.00000000  0.33943300  0.22399000  1
  S  S15  1  0.66056700  0.00000000  0.72399000  1
  S  S16  1  0.33943300  0.33943300  0.72399000  1
  S  S17  1  0.00000000  0.66056700  0.72399000  1
loop_
_geom_bond_atom_site_label_1
_geom_bond_atom_site_label_2
_geom_bond_distance
_geom_bond_site_symmetry_2
S0 Tm0 2.746259 1_655
S0 Tm4 2.797933 1_555
S0 Tm5 2.797935 1_545
S0 Tm8 2.883129 1_555
S0 Tm9 2.883131 1_545
S1 Tm0 2.746259 1_555
S1 Tm5 2.797938 1_555
S1 Tm4 2.797938 1_555
S1 Tm8 2.883134 1_555
S1 Tm9 2.883134 1_555
S2 Tm0 2.746259 1_565
S2 Tm5 2.797933 1_555
S2 Tm4 2.797935 1_455
S2 Tm9 2.883129 1_555
S2 Tm8 2.883131 1_455
S3 Tm1 2.746259 1_555
S3 Tm6 2.797933 1_545
S3 Tm7 2.797935 1_555
S3 Tm10 2.883129 1_545
S3 Tm11 2.883131 1_555
S4 Tm1 2.746259 1_665
S4 Tm7 2.797938 1_555
S4 Tm6 2.797938 1_555
S4 Tm11 2.883134 1_555
S4 Tm10 2.883134 1_555
S5 Tm1 2.746259 1_555
S5 Tm7 2.797933 1_455
S5 Tm6 2.797935 1_555
S5 Tm11 2.883129 1_455
S5 Tm10 2.883131 1_555
S6 Tm7 2.644829 1_554
S6 Tm6 2.644833 1_544
S6 Tm1 2.723683 1_654
S6 Tm2 2.829855 1_655
S7 Tm7 2.644836 1_554
S7 Tm6 2.644836 1_554
S7 Tm1 2.723683 1_554
S7 Tm2 2.829855 1_555
S8 Tm6 2.644829 1_554
S8 Tm7 2.644833 1_454
S8 Tm1 2.723683 1_564
S8 Tm2 2.829855 1_565
S9 Tm5 2.644829 1_545
S9 Tm4 2.644833 1_555
S9 Tm0 2.723683 1_555
S9 Tm3 2.829855 1_555
S10 Tm5 2.644836 1_555
S10 Tm4 2.644836 1_555
S10 Tm0 2.723683 1_665
S10 Tm3 2.829855 1_665
S11 Tm4 2.644829 1_455
S11 Tm5 2.644833 1_555
S11 Tm0 2.723683 1_555
S11 Tm3 2.829855 1_555
S12 Tm9 2.581727 1_545
S12 Tm8 2.581730 1_555
S12 Tm2 2.620574 1_555
S13 Tm9 2.581733 1_555
S13 Tm8 2.581733 1_555
S13 Tm2 2.620574 1_665
S14 Tm8 2.581727 1_455
S14 Tm9 2.581730 1_555
S14 Tm2 2.620574 1_555
S15 Tm11 2.581727 1_555
S15 Tm10 2.581730 1_545
S15 Tm3 2.620574 1_655
S16 Tm10 2.581733 1_555
S16 Tm11 2.581733 1_555
S16 Tm3 2.620574 1_555
S17 Tm10 2.581727 1_555
S17 Tm11 2.581730 1_455
S17 Tm3 2.620574 1_565
