# generated using pymatgen
data_GdCr3(BO3)4
_symmetry_space_group_name_H-M   'P 1'
_cell_length_a   6.10928075
_cell_length_b   6.10928075
_cell_length_c   6.10928042
_cell_angle_alpha   103.97349461
_cell_angle_beta   103.97349461
_cell_angle_gamma   103.97350033
_symmetry_Int_Tables_number   1
_chemical_formula_structural   GdCr3(BO3)4
_chemical_formula_sum   'Gd1 Cr3 B4 O12'
_cell_volume   203.55203037
_cell_formula_units_Z   1
loop_
 _symmetry_equiv_pos_site_id
 _symmetry_equiv_pos_as_xyz
  1  'x, y, z'
loop_
 _atom_site_type_symbol
 _atom_site_label
 _atom_site_symmetry_multiplicity
 _atom_site_fract_x
 _atom_site_fract_y
 _atom_site_fract_z
 _atom_site_occupancy
  Gd  Gd0  1  0.50000000  0.50000000  0.50000000  1
  Cr  Cr0  1  0.05215800  0.50000000  0.94784200  1
  Cr  Cr1  1  0.94784200  0.05215800  0.50000000  1
  Cr  Cr2  1  0.50000000  0.94784200  0.05215800  1
  B  B0  1  0.00000000  0.00000000  0.00000000  1
  B  B1  1  0.44689800  0.00000000  0.55310200  1
  B  B2  1  0.55310200  0.44689800  0.00000000  1
  B  B3  1  0.00000000  0.55310200  0.44689800  1
  O  O0  1  0.85601000  0.00000000  0.14399000  1
  O  O1  1  0.14399000  0.85601000  0.00000000  1
  O  O2  1  0.00000000  0.14399000  0.85601000  1
  O  O3  1  0.59148500  0.00000000  0.40851500  1
  O  O4  1  0.40851500  0.59148500  0.00000000  1
  O  O5  1  0.00000000  0.40851500  0.59148500  1
  O  O6  1  0.47191500  0.87020300  0.70789300  1
  O  O7  1  0.70789300  0.47191500  0.87020300  1
  O  O8  1  0.87020300  0.70789300  0.47191500  1
  O  O9  1  0.29210800  0.12979700  0.52808500  1
  O  O10  1  0.12979700  0.52808500  0.29210800  1
  O  O11  1  0.52808500  0.29210800  0.12979700  1
loop_
_geom_bond_atom_site_label_1
_geom_bond_atom_site_label_2
_geom_bond_distance
_geom_bond_site_symmetry_2
Gd0 O9 2.379724 1_555
Gd0 O11 2.379724 1_555
Gd0 O10 2.379724 1_555
Gd0 O8 2.379726 1_555
Gd0 O7 2.379726 1_555
Gd0 O6 2.379726 1_555
Cr0 O7 1.995633 1_455
Cr0 O10 1.995639 1_556
Cr0 O1 2.033820 1_556
Cr0 O2 2.033820 1_555
Cr0 O5 2.035910 1_555
Cr0 O4 2.035910 1_556
Cr1 O8 1.995633 1_545
Cr1 O9 1.995639 1_655
Cr1 O0 2.033819 1_555
Cr1 O2 2.033819 1_655
Cr1 O3 2.035910 1_555
Cr1 O5 2.035910 1_655
Cr2 O6 1.995633 1_554
Cr2 O11 1.995639 1_565
Cr2 O1 2.033820 1_555
Cr2 O0 2.033820 1_565
Cr2 O3 2.035910 1_565
Cr2 O4 2.035910 1_555
B0 O2 1.386137 1_554
B0 O0 1.386137 1_455
B0 O1 1.386137 1_545
B1 O9 1.377424 1_555
B1 O6 1.377429 1_545
B1 O3 1.391884 1_555
B2 O11 1.377424 1_555
B2 O7 1.377429 1_554
B2 O4 1.391884 1_555
B3 O10 1.377424 1_555
B3 O8 1.377429 1_455
B3 O5 1.391884 1_555
