# generated using pymatgen
data_Ba3(FeN2)2
_symmetry_space_group_name_H-M   'P 1'
_cell_length_a   7.59512764
_cell_length_b   8.94500389
_cell_length_c   5.63869216
_cell_angle_alpha   90.00000357
_cell_angle_beta   93.12187340
_cell_angle_gamma   126.07647655
_symmetry_Int_Tables_number   1
_chemical_formula_structural   Ba3(FeN2)2
_chemical_formula_sum   'Ba6 Fe4 N8'
_cell_volume   308.91694226
_cell_formula_units_Z   2
loop_
 _symmetry_equiv_pos_site_id
 _symmetry_equiv_pos_as_xyz
  1  'x, y, z'
loop_
 _atom_site_type_symbol
 _atom_site_label
 _atom_site_symmetry_multiplicity
 _atom_site_fract_x
 _atom_site_fract_y
 _atom_site_fract_z
 _atom_site_occupancy
  Ba  Ba0  1  0.25965400  0.99563400  0.05980600  1
  Ba  Ba1  1  0.74034600  0.73598000  0.44019400  1
  Ba  Ba2  1  0.74034600  0.00436600  0.94019400  1
  Ba  Ba3  1  0.25965400  0.26402000  0.55980600  1
  Ba  Ba4  1  0.00000000  0.59378700  0.75000000  1
  Ba  Ba5  1  0.00000000  0.40621300  0.25000000  1
  Fe  Fe0  1  0.57044500  0.16034900  0.55975200  1
  Fe  Fe1  1  0.42955500  0.58990500  0.94024800  1
  Fe  Fe2  1  0.42955500  0.83965100  0.44024800  1
  Fe  Fe3  1  0.57044500  0.41009500  0.05975200  1
  N  N0  1  0.28299300  0.94028600  0.54107200  1
  N  N1  1  0.71700700  0.65729400  0.95892800  1
  N  N2  1  0.71700700  0.05971400  0.45892800  1
  N  N3  1  0.28299300  0.34270600  0.04107200  1
  N  N4  1  0.62175900  0.26743300  0.86661900  1
  N  N5  1  0.37824100  0.64567500  0.63338100  1
  N  N6  1  0.37824100  0.73256700  0.13338100  1
  N  N7  1  0.62175900  0.35432500  0.36661900  1
loop_
_geom_bond_atom_site_label_1
_geom_bond_atom_site_label_2
_geom_bond_distance
_geom_bond_site_symmetry_2
Ba0 N4 2.666982 1_564
Ba0 N0 2.773396 1_555
Ba0 N6 2.995998 1_555
Ba0 N0 2.998647 1_554
Ba0 N3 3.005792 1_565
Ba0 N7 3.152864 1_565
Ba0 N1 3.394676 1_454
Ba1 N5 2.666985 1_555
Ba1 N1 2.773394 1_554
Ba1 N7 2.996007 1_555
Ba1 N1 2.998645 1_555
Ba1 N2 3.005801 1_565
Ba1 N6 3.152868 1_555
Ba1 N0 3.394678 1_655
Ba2 N6 2.666982 1_546
Ba2 N2 2.773396 1_555
Ba2 N4 2.995998 1_555
Ba2 N2 2.998647 1_556
Ba2 N1 3.005792 1_545
Ba2 N5 3.152864 1_545
Ba2 N3 3.394676 1_656
Ba3 N7 2.666985 1_555
Ba3 N3 2.773394 1_556
Ba3 N5 2.996007 1_555
Ba3 N3 2.998645 1_555
Ba3 N0 3.005801 1_545
Ba3 N4 3.152868 1_555
Ba3 N2 3.394678 1_455
Ba4 N5 2.745206 1_555
Ba4 N4 2.745210 1_455
Ba4 N0 2.836217 1_555
Ba4 N1 2.836223 1_455
Ba4 N6 3.096886 1_556
Ba4 N7 3.096887 1_455
Ba5 N7 2.745206 1_455
Ba5 N6 2.745210 1_555
Ba5 N2 2.836217 1_455
Ba5 N3 2.836223 1_555
Ba5 N4 3.096886 1_454
Ba5 N5 3.096887 1_555
Fe0 N4 1.884230 1_555
Fe0 N0 1.888380 1_545
Fe0 N7 1.896915 1_555
Fe0 N2 1.903081 1_555
Fe1 N5 1.884230 1_555
Fe1 N1 1.888380 1_555
Fe1 N6 1.896915 1_556
Fe1 N3 1.903096 1_556
Fe2 N6 1.884230 1_555
Fe2 N2 1.888380 1_565
Fe2 N5 1.896915 1_555
Fe2 N0 1.903081 1_555
Fe3 N7 1.884230 1_555
Fe3 N3 1.888380 1_555
Fe3 N4 1.896915 1_554
Fe3 N1 1.903096 1_554
