# generated using pymatgen
data_CaV2P2(H4O7)2
_symmetry_space_group_name_H-M   'P 1'
_cell_length_a   6.42300600
_cell_length_b   6.45653822
_cell_length_c   6.75100633
_cell_angle_alpha   92.97746273
_cell_angle_beta   109.06323312
_cell_angle_gamma   90.11593982
_symmetry_Int_Tables_number   1
_chemical_formula_structural   CaV2P2(H4O7)2
_chemical_formula_sum   'Ca1 V2 P2 H8 O14'
_cell_volume   264.20238025
_cell_formula_units_Z   1
loop_
 _symmetry_equiv_pos_site_id
 _symmetry_equiv_pos_as_xyz
  1  'x, y, z'
loop_
 _atom_site_type_symbol
 _atom_site_label
 _atom_site_symmetry_multiplicity
 _atom_site_fract_x
 _atom_site_fract_y
 _atom_site_fract_z
 _atom_site_occupancy
  Ca  Ca0  1  0.08389300  0.35525300  0.49406000  1
  V  V0  1  0.14644400  0.65178200  0.05726700  1
  V  V1  1  0.57690900  0.14655900  0.88419100  1
  P  P0  1  0.60785100  0.65173100  0.96377600  1
  P  P1  1  0.10686200  0.15331100  0.98432700  1
  H  H0  1  0.10746600  0.78472900  0.42997200  1
  H  H1  1  0.35175200  0.72845200  0.55465600  1
  H  H2  1  0.53600100  0.24813100  0.46582200  1
  H  H3  1  0.37218000  0.05612200  0.37619500  1
  H  H4  1  0.62237300  0.52889600  0.34208600  1
  H  H5  1  0.69202600  0.50987500  0.59537700  1
  H  H6  1  0.83094400  0.96077000  0.48873700  1
  H  H7  1  0.07192600  0.99775800  0.63910800  1
  O  O0  1  0.07903600  0.60896800  0.80056500  1
  O  O1  1  0.47899300  0.64233300  0.12367600  1
  O  O2  1  0.18459000  0.96338900  0.11809700  1
  O  O3  1  0.85295600  0.67095800  0.09833900  1
  O  O4  1  0.14401200  0.34741500  0.13911800  1
  O  O5  1  0.22456100  0.67967800  0.43024500  1
  O  O6  1  0.66290400  0.16215000  0.14028200  1
  O  O7  1  0.24246300  0.17151100  0.82987700  1
  O  O8  1  0.53138600  0.83398400  0.81576100  1
  O  O9  1  0.56094400  0.45335900  0.81268900  1
  O  O10  1  0.86713700  0.13076500  0.83624200  1
  O  O11  1  0.43410700  0.15107900  0.50287800  1
  O  O12  1  0.71264900  0.45093500  0.46574000  1
  O  O13  1  0.98083400  0.98190500  0.48801800  1
loop_
_geom_bond_atom_site_label_1
_geom_bond_atom_site_label_2
_geom_bond_distance
_geom_bond_site_symmetry_2
Ca0 O5 2.393721 1_555
Ca0 O12 2.413397 1_455
Ca0 O13 2.493233 1_445
Ca0 O7 2.521997 1_555
Ca0 O4 2.546648 1_555
Ca0 O0 2.579983 1_555
Ca0 O11 2.594985 1_555
H0 O5 1.013407 1_555
H0 O13 1.611334 1_455
H1 O5 0.997635 1_555
H2 O11 1.002564 1_555
H3 O11 0.993909 1_555
H4 O12 1.007524 1_555
H4 O1 1.669299 1_555
H5 O12 0.984701 1_555
H6 O13 0.973710 1_555
H7 O13 0.996139 1_455
H7 O7 1.743680 1_565
O0 V0 1.651293 1_556
O1 P0 1.563395 1_554
O1 V0 2.035902 1_555
O2 P1 1.546439 1_564
O2 V0 2.030486 1_555
O3 P0 1.540260 1_554
O3 V0 1.996129 1_655
O4 P1 1.555448 1_554
O4 V0 2.070206 1_555
O5 V0 2.398259 1_555
O6 V1 1.631603 1_554
O7 P1 1.570076 1_555
O7 V1 2.065904 1_555
O8 P0 1.558302 1_555
O8 V1 2.045574 1_565
O9 P0 1.559991 1_555
O9 V1 2.057955 1_555
O10 P1 1.539458 1_655
O10 V1 1.995420 1_555
O11 V1 2.436071 1_555
