# generated using pymatgen
data_Sr2Mn3(BO5)2
_symmetry_space_group_name_H-M   'P 1'
_cell_length_a   3.39295100
_cell_length_b   5.80976608
_cell_length_c   10.66310225
_cell_angle_alpha   87.85884758
_cell_angle_beta   90.00000000
_cell_angle_gamma   90.00000000
_symmetry_Int_Tables_number   1
_chemical_formula_structural   Sr2Mn3(BO5)2
_chemical_formula_sum   'Sr2 Mn3 B2 O10'
_cell_volume   210.04700098
_cell_formula_units_Z   1
loop_
 _symmetry_equiv_pos_site_id
 _symmetry_equiv_pos_as_xyz
  1  'x, y, z'
loop_
 _atom_site_type_symbol
 _atom_site_label
 _atom_site_symmetry_multiplicity
 _atom_site_fract_x
 _atom_site_fract_y
 _atom_site_fract_z
 _atom_site_occupancy
  Sr  Sr0  1  0.50000000  0.14850700  0.31828600  1
  Sr  Sr1  1  0.00000000  0.97975600  0.00516400  1
  Mn  Mn0  1  0.50000000  0.47733600  0.99121200  1
  Mn  Mn1  1  0.50000000  0.81442600  0.70973800  1
  Mn  Mn2  1  0.00000000  0.54712500  0.50606600  1
  B  B0  1  0.00000000  0.65849800  0.22781200  1
  B  B1  1  0.00000000  0.31125800  0.75907800  1
  O  O0  1  0.00000000  0.53077500  0.68903200  1
  O  O1  1  0.00000000  0.49022400  0.32429700  1
  O  O2  1  0.00000000  0.59112300  0.10243400  1
  O  O3  1  0.00000000  0.34754600  0.88649900  1
  O  O4  1  0.50000000  0.76489400  0.88623100  1
  O  O5  1  0.50000000  0.21693500  0.09071800  1
  O  O6  1  0.00000000  0.88613800  0.25108700  1
  O  O7  1  0.00000000  0.09079700  0.71318700  1
  O  O8  1  0.50000000  0.78028300  0.52637700  1
  O  O9  1  0.50000000  0.36437900  0.51278100  1
loop_
_geom_bond_atom_site_label_1
_geom_bond_atom_site_label_2
_geom_bond_distance
_geom_bond_site_symmetry_2
Mn0 O5 1.815114 1_556
Mn0 O4 1.975960 1_555
Mn0 O3 2.180883 1_655
Mn0 O3 2.180883 1_555
Mn0 O2 2.186358 1_556
Mn0 O2 2.186358 1_656
Mn1 O4 1.893179 1_555
Mn1 O8 1.972593 1_555
Mn1 O7 2.337073 1_665
Mn1 O7 2.337073 1_565
Mn1 O0 2.381111 1_555
Mn1 O0 2.381111 1_655
Mn2 O0 1.949748 1_555
Mn2 O1 1.978349 1_555
Mn2 O9 2.001176 1_455
Mn2 O9 2.001176 1_555
Mn2 O8 2.186728 1_455
Mn2 O8 2.186728 1_555
B0 O6 1.354703 1_555
B0 O1 1.392515 1_555
B0 O2 1.407009 1_555
B1 O3 1.382724 1_555
B1 O7 1.388094 1_555
B1 O0 1.453682 1_555
O1 Sr0 2.614009 1_555
O1 Sr0 2.614009 1_455
O2 Sr1 2.449236 1_555
O3 Sr1 2.442304 1_546
O4 Sr1 2.482516 1_656
O4 Sr1 2.482516 1_556
O5 Sr1 2.388087 1_545
O5 Sr1 2.388087 1_645
O5 Sr0 2.444229 1_555
O6 Sr0 2.407610 1_565
O6 Sr0 2.407610 1_465
O6 Sr1 2.658142 1_555
O8 Sr0 3.024133 1_565
O9 Sr0 2.463419 1_555
