# generated using pymatgen
data_Li2MnCoO4
_symmetry_space_group_name_H-M   'P 1'
_cell_length_a   2.91157804
_cell_length_b   9.73152316
_cell_length_c   5.21689956
_cell_angle_alpha   84.48700581
_cell_angle_beta   89.99392744
_cell_angle_gamma   81.42181272
_symmetry_Int_Tables_number   1
_chemical_formula_structural   Li2MnCoO4
_chemical_formula_sum   'Li4 Mn2 Co2 O8'
_cell_volume   145.47123630
_cell_formula_units_Z   2
loop_
 _symmetry_equiv_pos_site_id
 _symmetry_equiv_pos_as_xyz
  1  'x, y, z'
loop_
 _atom_site_type_symbol
 _atom_site_label
 _atom_site_symmetry_multiplicity
 _atom_site_fract_x
 _atom_site_fract_y
 _atom_site_fract_z
 _atom_site_occupancy
  Li  Li0  1  0.12500000  0.75000000  0.37500000  1
  Li  Li1  1  0.62499900  0.75000300  0.87500100  1
  Li  Li2  1  0.87752400  0.24594300  0.63298400  1
  Li  Li3  1  0.37248300  0.25405500  0.11701800  1
  Mn  Mn0  1  0.50020700  0.99953000  0.50086800  1
  Mn  Mn1  1  0.74979200  0.50047500  0.24914800  1
  Co  Co0  1  0.99952300  0.00082800  0.00097100  1
  Co  Co1  1  0.25047600  0.49917100  0.74902100  1
  O  O0  1  0.44354000  0.11325400  0.79090500  1
  O  O1  1  0.80645900  0.38674700  0.95910900  1
  O  O2  1  0.69520100  0.61005500  0.54127300  1
  O  O3  1  0.55480200  0.88993700  0.20871000  1
  O  O4  1  0.94377000  0.11289900  0.34055100  1
  O  O5  1  0.30622100  0.38711000  0.40942600  1
  O  O6  1  0.19269300  0.61510400  0.08461100  1
  O  O7  1  0.05730900  0.88488900  0.66540200  1
loop_
_geom_bond_atom_site_label_1
_geom_bond_atom_site_label_2
_geom_bond_distance
_geom_bond_site_symmetry_2
Li0 O6 2.088546 1_555
Li0 O7 2.088553 1_555
Li0 O3 2.110510 1_555
Li0 O2 2.110527 1_455
Li0 O3 2.112377 1_455
Li0 O2 2.112390 1_555
Li1 O7 2.172518 1_655
Li1 O6 2.172617 1_556
Li1 O7 2.174404 1_555
Li1 O6 2.174494 1_656
Li1 O3 2.302050 1_556
Li1 O2 2.302219 1_555
Li2 O0 2.055012 1_655
Li2 O0 2.055445 1_555
Li2 O4 2.084683 1_555
Li2 O5 2.238032 1_655
Li2 O5 2.241695 1_555
Li2 O1 2.275583 1_555
Li3 O1 2.055021 1_454
Li3 O1 2.055427 1_554
Li3 O5 2.084653 1_555
Li3 O4 2.237933 1_455
Li3 O4 2.241556 1_555
Li3 O0 2.275513 1_554
Mn0 O3 1.935839 1_555
Mn0 O0 1.951591 1_565
Mn0 O4 1.957345 1_465
Mn0 O4 1.957569 1_565
Mn0 O7 1.972030 1_655
Mn0 O7 1.972117 1_555
Mn1 O2 1.935617 1_555
Mn1 O1 1.951624 1_554
Mn1 O5 1.957237 1_655
Mn1 O5 1.957487 1_555
Mn1 O6 1.971983 1_555
Mn1 O6 1.972056 1_655
Co0 O3 2.051220 1_545
Co0 O3 2.051363 1_645
Co0 O0 2.064004 1_554
Co0 O0 2.064112 1_654
Co0 O4 2.161614 1_555
Co0 O7 2.165367 1_644
Co1 O2 2.051212 1_555
Co1 O2 2.051353 1_455
Co1 O1 2.064052 1_555
Co1 O1 2.064156 1_455
Co1 O5 2.161626 1_555
Co1 O6 2.165427 1_556
