# generated using pymatgen
data_YTh
_symmetry_space_group_name_H-M   'P 1'
_cell_length_a   12.24799696
_cell_length_b   12.24799696
_cell_length_c   12.24799788
_cell_angle_alpha   34.14129103
_cell_angle_beta   34.14129103
_cell_angle_gamma   34.14129561
_symmetry_Int_Tables_number   1
_chemical_formula_structural   YTh
_chemical_formula_sum   'Y8 Th8'
_cell_volume   515.99918996
_cell_formula_units_Z   8
loop_
 _symmetry_equiv_pos_site_id
 _symmetry_equiv_pos_as_xyz
  1  'x, y, z'
loop_
 _atom_site_type_symbol
 _atom_site_label
 _atom_site_symmetry_multiplicity
 _atom_site_fract_x
 _atom_site_fract_y
 _atom_site_fract_z
 _atom_site_occupancy
  Y  Y0_0  1  0.25000000  0.25000000  0.25000000  1
  Y  Y0_1  1  0.25000000  0.25000000  0.75000000  1
  Y  Y0_2  1  0.25000000  0.75000000  0.25000000  1
  Y  Y0_3  1  0.25000000  0.75000000  0.75000000  1
  Y  Y0_4  1  0.75000000  0.25000000  0.25000000  1
  Y  Y0_5  1  0.75000000  0.25000000  0.75000000  1
  Y  Y0_6  1  0.75000000  0.75000000  0.25000000  1
  Y  Y0_7  1  0.75000000  0.75000000  0.75000000  1
  Th  Th0_0  1  0.00000000  0.00000000  0.00000000  1
  Th  Th0_1  1  0.00000000  0.00000000  0.50000000  1
  Th  Th0_2  1  0.00000000  0.50000000  0.00000000  1
  Th  Th0_3  1  1.00000000  0.50000000  0.50000000  1
  Th  Th0_4  1  0.50000000  0.00000000  0.00000000  1
  Th  Th0_5  1  0.50000000  0.00000000  0.50000000  1
  Th  Th0_6  1  0.50000000  0.50000000  0.00000000  1
  Th  Th0_7  1  0.50000000  0.50000000  0.50000000  1
loop_
_geom_bond_atom_site_label_1
_geom_bond_atom_site_label_2
_geom_bond_distance
_geom_bond_site_symmetry_2
Y0_0 Y0_3 3.595407 1_554
Y0_0 Y0_5 3.595407 1_554
Y0_0 Y0_5 3.595407 1_455
Y0_0 Y0_3 3.595407 1_545
Y0_0 Y0_6 3.595407 1_455
Y0_0 Y0_6 3.595407 1_545
Y0_1 Y0_4 3.595407 1_456
Y0_1 Y0_2 3.595407 1_555
Y0_1 Y0_2 3.595407 1_546
Y0_1 Y0_4 3.595407 1_555
Y0_1 Y0_7 3.595407 1_455
Y0_1 Y0_7 3.595407 1_545
Y0_2 Y0_7 3.595407 1_554
Y0_2 Y0_7 3.595407 1_455
Y0_2 Y0_4 3.595407 1_555
Y0_2 Y0_4 3.595407 1_465
Y0_3 Y0_6 3.595407 1_456
Y0_3 Y0_6 3.595407 1_555
Y0_3 Y0_5 3.595407 1_555
Y0_3 Y0_5 3.595407 1_465
Y0_4 Y0_7 3.595407 1_554
Y0_4 Y0_7 3.595407 1_545
Y0_5 Y0_6 3.595407 1_555
Y0_5 Y0_6 3.595407 1_546
Th0_0 Y0_1 3.550715 1_554
Th0_0 Y0_6 3.550715 1_445
Th0_0 Y0_4 3.550715 1_455
Th0_0 Y0_2 3.550715 1_545
Th0_0 Y0_5 3.550715 1_454
Th0_0 Y0_3 3.550715 1_544
Th0_0 Th0_5 3.595407 1_554
Th0_0 Th0_3 3.595407 1_445
Th0_0 Th0_3 3.595407 1_454
Th0_0 Th0_5 3.595407 1_455
Th0_0 Th0_6 3.595407 1_455
Th0_0 Th0_6 3.595407 1_545
Th0_1 Y0_0 3.550715 1_555
Th0_1 Y0_7 3.550715 1_445
Th0_1 Y0_3 3.550715 1_545
Th0_1 Y0_5 3.550715 1_455
Th0_1 Y0_4 3.550715 1_455
Th0_1 Y0_2 3.550715 1_545
Th0_1 Th0_2 3.595407 1_555
Th0_1 Th0_4 3.595407 1_555
Th0_1 Th0_2 3.595407 1_546
Th0_1 Th0_4 3.595407 1_456
Th0_1 Th0_7 3.595407 1_545
Th0_1 Th0_7 3.595407 1_455
Th0_2 Y0_3 3.550715 1_554
Th0_2 Y0_4 3.550715 1_455
Th0_2 Y0_6 3.550715 1_455
Th0_2 Y0_7 3.550715 1_454
Th0_2 Y0_1 3.550715 1_554
Th0_2 Y0_0 3.550715 1_555
Th0_2 Th0_7 3.595407 1_455
Th0_2 Th0_7 3.595407 1_554
Th0_2 Th0_4 3.595407 1_555
Th0_2 Th0_4 3.595407 1_465
Th0_3 Y0_5 3.550715 1_555
Th0_3 Y0_2 3.550715 1_655
Th0_3 Y0_0 3.550715 1_655
Th0_3 Y0_6 3.550715 1_555
Th0_3 Y0_7 3.550715 1_555
Th0_3 Y0_1 3.550715 1_655
Th0_3 Th0_6 3.595407 1_556
Th0_3 Th0_6 3.595407 1_655
Th0_3 Th0_5 3.595407 1_565
Th0_3 Th0_5 3.595407 1_655
Th0_4 Y0_5 3.550715 1_554
Th0_4 Y0_2 3.550715 1_545
Th0_4 Y0_6 3.550715 1_545
Th0_4 Y0_7 3.550715 1_544
Th0_4 Y0_0 3.550715 1_555
Th0_4 Y0_1 3.550715 1_554
Th0_4 Th0_7 3.595407 1_545
Th0_4 Th0_7 3.595407 1_554
Th0_5 Y0_4 3.550715 1_555
Th0_5 Y0_3 3.550715 1_545
Th0_5 Y0_0 3.550715 1_555
Th0_5 Y0_6 3.550715 1_545
Th0_5 Y0_1 3.550715 1_555
Th0_5 Y0_7 3.550715 1_545
Th0_5 Th0_6 3.595407 1_555
Th0_5 Th0_6 3.595407 1_546
Th0_6 Y0_7 3.550715 1_554
Th0_6 Y0_0 3.550715 1_555
Th0_6 Y0_2 3.550715 1_555
Th0_6 Y0_4 3.550715 1_555
Th0_6 Y0_5 3.550715 1_554
Th0_6 Y0_3 3.550715 1_554
Th0_7 Y0_1 3.550715 1_555
Th0_7 Y0_6 3.550715 1_555
Th0_7 Y0_3 3.550715 1_555
Th0_7 Y0_2 3.550715 1_555
Th0_7 Y0_4 3.550715 1_555
Th0_7 Y0_5 3.550715 1_555
