# generated using pymatgen
data_Yb(FeSb3)4
_symmetry_space_group_name_H-M   'P 1'
_cell_length_a   7.89634161
_cell_length_b   7.89634161
_cell_length_c   7.89634161
_cell_angle_alpha   109.47122063
_cell_angle_beta   109.47122063
_cell_angle_gamma   109.47122063
_symmetry_Int_Tables_number   1
_chemical_formula_structural   Yb(FeSb3)4
_chemical_formula_sum   'Yb1 Fe4 Sb12'
_cell_volume   379.01456027
_cell_formula_units_Z   1
loop_
 _symmetry_equiv_pos_site_id
 _symmetry_equiv_pos_as_xyz
  1  'x, y, z'
loop_
 _atom_site_type_symbol
 _atom_site_label
 _atom_site_symmetry_multiplicity
 _atom_site_fract_x
 _atom_site_fract_y
 _atom_site_fract_z
 _atom_site_occupancy
  Yb  Yb0  1  0.00000000  0.00000000  0.00000000  1
  Fe  Fe0  1  0.50000000  0.50000000  0.50000000  1
  Fe  Fe1  1  0.50000000  0.00000000  0.00000000  1
  Fe  Fe2  1  0.00000000  0.50000000  0.00000000  1
  Fe  Fe3  1  0.00000000  0.00000000  0.50000000  1
  Sb  Sb0  1  0.83921184  0.66726203  0.50647387  1
  Sb  Sb1  1  0.16078816  0.33273797  0.49352613  1
  Sb  Sb2  1  0.16078816  0.66726203  0.82804919  1
  Sb  Sb3  1  0.83921184  0.33273797  0.17195081  1
  Sb  Sb4  1  0.66726203  0.50647387  0.83921184  1
  Sb  Sb5  1  0.33273797  0.49352613  0.16078816  1
  Sb  Sb6  1  0.66726203  0.82804919  0.16078816  1
  Sb  Sb7  1  0.33273797  0.17195081  0.83921184  1
  Sb  Sb8  1  0.50647387  0.83921184  0.66726203  1
  Sb  Sb9  1  0.49352613  0.16078816  0.33273797  1
  Sb  Sb10  1  0.17195081  0.83921184  0.33273797  1
  Sb  Sb11  1  0.82804919  0.16078816  0.66726203  1
loop_
_geom_bond_atom_site_label_1
_geom_bond_atom_site_label_2
_geom_bond_distance
_geom_bond_site_symmetry_2
Fe0 Sb8 2.535112 1_555
Fe0 Sb0 2.535112 1_555
Fe0 Sb4 2.535112 1_555
Fe0 Sb5 2.535112 1_555
Fe0 Sb9 2.535112 1_555
Fe0 Sb1 2.535112 1_555
Fe1 Sb3 2.535111 1_555
Fe1 Sb2 2.535111 1_544
Fe1 Sb9 2.535112 1_555
Fe1 Sb8 2.535112 1_544
Fe1 Sb6 2.535119 1_545
Fe1 Sb7 2.535119 1_554
Fe2 Sb10 2.535111 1_555
Fe2 Sb11 2.535111 1_454
Fe2 Sb5 2.535112 1_555
Fe2 Sb4 2.535112 1_454
Fe2 Sb2 2.535119 1_554
Fe2 Sb3 2.535119 1_455
Fe3 Sb7 2.535111 1_555
Fe3 Sb6 2.535111 1_445
Fe3 Sb1 2.535112 1_555
Fe3 Sb0 2.535112 1_445
Fe3 Sb11 2.535119 1_455
Fe3 Sb10 2.535119 1_545
Sb0 Sb2 2.932099 1_655
Sb0 Sb3 3.050156 1_555
Sb0 Yb0 3.369526 1_666
Sb1 Sb3 2.932099 1_455
Sb1 Sb2 3.050156 1_555
Sb1 Yb0 3.369526 1_555
Sb2 Yb0 3.369528 1_566
Sb3 Yb0 3.369528 1_655
Sb4 Sb6 2.932099 1_556
Sb4 Sb7 3.050156 1_555
Sb4 Yb0 3.369526 1_666
Sb5 Sb7 2.932099 1_554
Sb5 Sb6 3.050156 1_555
Sb5 Yb0 3.369526 1_555
Sb6 Yb0 3.369528 1_665
Sb7 Yb0 3.369528 1_556
Sb8 Yb0 3.369526 1_666
Sb9 Yb0 3.369526 1_555
Sb10 Sb9 2.932099 1_565
Sb10 Sb8 3.050156 1_555
Sb10 Yb0 3.369528 1_565
Sb11 Sb8 2.932099 1_545
Sb11 Sb9 3.050156 1_555
Sb11 Yb0 3.369528 1_656
