# generated using pymatgen
data_TmNiSn2
_symmetry_space_group_name_H-M   'P 1'
_cell_length_a   4.40655900
_cell_length_b   14.53575100
_cell_length_c   16.05787400
_cell_angle_alpha   90.00000000
_cell_angle_beta   90.00000000
_cell_angle_gamma   90.00000000
_symmetry_Int_Tables_number   1
_chemical_formula_structural   TmNiSn2
_chemical_formula_sum   'Tm12 Ni12 Sn24'
_cell_volume   1028.54929299
_cell_formula_units_Z   12
loop_
 _symmetry_equiv_pos_site_id
 _symmetry_equiv_pos_as_xyz
  1  'x, y, z'
loop_
 _atom_site_type_symbol
 _atom_site_label
 _atom_site_symmetry_multiplicity
 _atom_site_fract_x
 _atom_site_fract_y
 _atom_site_fract_z
 _atom_site_occupancy
  Tm  Tm0  1  0.25000000  0.97359700  0.34821000  1
  Tm  Tm1  1  0.25000000  0.52640300  0.84821000  1
  Tm  Tm2  1  0.75000000  0.02640300  0.65179000  1
  Tm  Tm3  1  0.75000000  0.47359700  0.15179000  1
  Tm  Tm4  1  0.25000000  0.27486900  0.87396400  1
  Tm  Tm5  1  0.25000000  0.22513100  0.37396400  1
  Tm  Tm6  1  0.75000000  0.72513100  0.12603600  1
  Tm  Tm7  1  0.75000000  0.77486900  0.62603600  1
  Tm  Tm8  1  0.25000000  0.39831600  0.64631800  1
  Tm  Tm9  1  0.25000000  0.10168400  0.14631800  1
  Tm  Tm10  1  0.75000000  0.60168400  0.35368200  1
  Tm  Tm11  1  0.75000000  0.89831600  0.85368200  1
  Ni  Ni0  1  0.25000000  0.60761300  0.05338400  1
  Ni  Ni1  1  0.25000000  0.89238700  0.55338400  1
  Ni  Ni2  1  0.75000000  0.39238700  0.94661600  1
  Ni  Ni3  1  0.75000000  0.10761300  0.44661600  1
  Ni  Ni4  1  0.25000000  0.74461300  0.30758500  1
  Ni  Ni5  1  0.25000000  0.75538700  0.80758500  1
  Ni  Ni6  1  0.75000000  0.25538700  0.69241500  1
  Ni  Ni7  1  0.75000000  0.24461300  0.19241500  1
  Ni  Ni8  1  0.25000000  0.04568700  0.79975900  1
  Ni  Ni9  1  0.25000000  0.45431300  0.29975900  1
  Ni  Ni10  1  0.75000000  0.95431300  0.20024100  1
  Ni  Ni11  1  0.75000000  0.54568700  0.70024100  1
  Sn  Sn0  1  0.25000000  0.17743000  0.68332700  1
  Sn  Sn1  1  0.25000000  0.32257000  0.18332700  1
  Sn  Sn2  1  0.75000000  0.82257000  0.31667300  1
  Sn  Sn3  1  0.75000000  0.67743000  0.81667300  1
  Sn  Sn4  1  0.25000000  0.05298900  0.95745700  1
  Sn  Sn5  1  0.25000000  0.44701100  0.45745700  1
  Sn  Sn6  1  0.75000000  0.94701100  0.04254300  1
  Sn  Sn7  1  0.75000000  0.55298900  0.54254300  1
  Sn  Sn8  1  0.25000000  0.07742500  0.52024200  1
  Sn  Sn9  1  0.25000000  0.42257500  0.02024200  1
  Sn  Sn10  1  0.75000000  0.92257500  0.47975800  1
  Sn  Sn11  1  0.75000000  0.57742500  0.97975800  1
  Sn  Sn12  1  0.25000000  0.60472800  0.21497000  1
  Sn  Sn13  1  0.25000000  0.89527200  0.71497000  1
  Sn  Sn14  1  0.75000000  0.39527200  0.78503000  1
  Sn  Sn15  1  0.75000000  0.10472800  0.28503000  1
  Sn  Sn16  1  0.25000000  0.73448400  0.46929100  1
  Sn  Sn17  1  0.25000000  0.76551600  0.96929100  1
  Sn  Sn18  1  0.75000000  0.26551600  0.53070900  1
  Sn  Sn19  1  0.75000000  0.23448400  0.03070900  1
  Sn  Sn20  1  0.25000000  0.86782600  0.17528500  1
  Sn  Sn21  1  0.25000000  0.63217400  0.67528500  1
  Sn  Sn22  1  0.75000000  0.13217400  0.82471500  1
  Sn  Sn23  1  0.75000000  0.36782600  0.32471500  1
loop_
_geom_bond_atom_site_label_1
_geom_bond_atom_site_label_2
_geom_bond_distance
_geom_bond_site_symmetry_2
Ni0 Sn11 2.538655 1_454
Ni0 Sn11 2.538655 1_554
Ni0 Sn12 2.595066 1_555
Ni0 Sn17 2.663002 1_554
Ni0 Sn9 2.741812 1_555
Ni0 Tm6 3.022163 1_555
Ni0 Tm6 3.022163 1_455
Ni0 Tm3 3.338598 1_455
Ni0 Tm3 3.338598 1_555
Ni0 Tm1 3.499747 1_554
Ni1 Sn10 2.538655 1_555
Ni1 Sn10 2.538655 1_455
Ni1 Sn13 2.595066 1_555
Ni1 Sn16 2.663002 1_555
Ni1 Sn8 2.741812 1_565
Ni1 Tm7 3.022163 1_455
Ni1 Tm7 3.022163 1_555
Ni1 Tm2 3.338598 1_465
Ni1 Tm2 3.338598 1_565
Ni1 Tm0 3.499747 1_555
Ni2 Sn9 2.538655 1_656
Ni2 Sn9 2.538655 1_556
Ni2 Sn14 2.595066 1_555
Ni2 Sn19 2.663002 1_556
Ni2 Sn11 2.741812 1_555
Ni2 Tm4 3.022163 1_555
Ni2 Tm4 3.022163 1_655
Ni2 Tm1 3.338598 1_655
Ni2 Tm1 3.338598 1_555
Ni2 Tm3 3.499747 1_556
Ni3 Sn8 2.538655 1_655
Ni3 Sn8 2.538655 1_555
Ni3 Sn15 2.595066 1_555
Ni3 Sn18 2.663002 1_555
Ni3 Sn10 2.741812 1_545
Ni3 Tm5 3.022163 1_555
Ni3 Tm5 3.022163 1_655
Ni3 Tm0 3.338598 1_645
Ni3 Tm0 3.338598 1_545
Ni3 Tm2 3.499747 1_555
Ni4 Sn2 2.481894 1_555
Ni4 Sn2 2.481894 1_455
Ni4 Sn12 2.519168 1_555
Ni4 Sn16 2.600825 1_555
Ni4 Sn20 2.778664 1_555
Ni4 Tm10 3.117484 1_455
Ni4 Tm10 3.117484 1_555
Ni4 Tm0 3.391780 1_555
Ni5 Sn3 2.481894 1_455
Ni5 Sn3 2.481894 1_555
Ni5 Sn13 2.519168 1_555
Ni5 Sn17 2.600825 1_555
Ni5 Sn21 2.778664 1_555
Ni5 Tm11 3.117484 1_555
Ni5 Tm11 3.117484 1_455
Ni5 Tm1 3.391780 1_555
Ni6 Sn0 2.481894 1_655
Ni6 Sn0 2.481894 1_555
Ni6 Sn14 2.519168 1_555
Ni6 Sn18 2.600825 1_555
Ni6 Sn22 2.778664 1_555
Ni6 Tm8 3.117484 1_655
Ni6 Tm8 3.117484 1_555
Ni6 Tm2 3.391780 1_555
Ni7 Sn1 2.481894 1_555
Ni7 Sn1 2.481894 1_655
Ni7 Sn15 2.519168 1_555
Ni7 Sn19 2.600825 1_555
Ni7 Sn23 2.778664 1_555
Ni7 Tm9 3.117484 1_555
Ni7 Tm9 3.117484 1_655
Ni7 Tm3 3.391780 1_555
Ni8 Sn4 2.534518 1_555
Ni8 Sn22 2.568164 1_555
Ni8 Sn22 2.568164 1_455
Ni8 Sn13 2.575673 1_545
Ni8 Sn0 2.676332 1_555
Ni8 Tm11 3.192648 1_545
Ni8 Tm11 3.192648 1_445
Ni8 Tm2 3.252493 1_455
Ni8 Tm2 3.252493 1_555
Ni9 Sn5 2.534518 1_555
Ni9 Sn23 2.568164 1_555
Ni9 Sn23 2.568164 1_455
Ni9 Sn12 2.575673 1_555
Ni9 Sn1 2.676332 1_555
Ni9 Tm10 3.192648 1_555
Ni9 Tm10 3.192648 1_455
Ni9 Tm3 3.252493 1_455
Ni9 Tm3 3.252493 1_555
Ni10 Sn6 2.534518 1_555
Ni10 Sn20 2.568164 1_655
Ni10 Sn20 2.568164 1_555
Ni10 Sn15 2.575673 1_565
Ni10 Sn2 2.676332 1_555
Ni10 Tm9 3.192648 1_665
Ni10 Tm9 3.192648 1_565
Ni10 Tm0 3.252493 1_555
Ni10 Tm0 3.252493 1_655
Ni11 Sn7 2.534518 1_555
Ni11 Sn21 2.568164 1_555
Ni11 Sn21 2.568164 1_655
Ni11 Sn14 2.575673 1_555
Ni11 Sn3 2.676332 1_555
Ni11 Tm8 3.192648 1_655
Ni11 Tm8 3.192648 1_555
Ni11 Tm1 3.252493 1_655
Ni11 Tm1 3.252493 1_555
Sn0 Sn8 2.995196 1_555
Sn0 Tm2 3.151222 1_555
Sn0 Tm2 3.151222 1_455
Sn0 Tm8 3.265280 1_555
Sn0 Tm4 3.373002 1_555
Sn1 Sn9 2.995196 1_555
Sn1 Tm3 3.151222 1_455
Sn1 Tm3 3.151222 1_555
Sn1 Tm9 3.265280 1_555
Sn1 Tm5 3.373002 1_555
Sn2 Tm0 3.151222 1_555
Sn2 Tm0 3.151222 1_655
Sn2 Tm10 3.265280 1_555
Sn2 Tm6 3.373002 1_555
Sn3 Tm1 3.151222 1_655
Sn3 Tm1 3.151222 1_555
Sn3 Tm11 3.265280 1_555
Sn3 Tm7 3.373002 1_555
Sn4 Tm9 3.114212 1_556
Sn4 Tm4 3.492763 1_555
Sn4 Tm11 3.561762 1_445
Sn4 Tm11 3.561762 1_545
Sn5 Tm8 3.114212 1_555
Sn5 Tm5 3.492763 1_555
Sn5 Tm10 3.561762 1_555
Sn5 Tm10 3.561762 1_455
Sn6 Tm11 3.114212 1_554
Sn6 Tm6 3.492763 1_555
Sn6 Tm9 3.561762 1_565
Sn6 Tm9 3.561762 1_665
Sn7 Tm10 3.114212 1_555
Sn7 Tm7 3.492763 1_555
Sn7 Tm8 3.561762 1_655
Sn7 Tm8 3.561762 1_555
Sn8 Tm2 3.141119 1_555
Sn8 Tm2 3.141119 1_455
Sn8 Tm0 3.147852 1_545
Sn8 Tm5 3.182307 1_555
Sn9 Tm3 3.141119 1_455
Sn9 Tm3 3.141119 1_555
Sn9 Tm1 3.147852 1_554
Sn9 Tm4 3.182307 1_554
Sn10 Sn2 2.995196 1_555
Sn10 Tm0 3.141119 1_555
Sn10 Tm0 3.141119 1_655
Sn10 Tm2 3.147852 1_565
Sn10 Tm7 3.182307 1_555
Sn11 Sn3 2.995196 1_555
Sn11 Tm1 3.141119 1_555
Sn11 Tm1 3.141119 1_655
Sn11 Tm3 3.147852 1_556
Sn11 Tm6 3.182307 1_556
Sn12 Tm3 3.084946 1_455
Sn12 Tm3 3.084946 1_555
Sn12 Tm10 3.133336 1_555
Sn12 Tm10 3.133336 1_455
Sn12 Tm6 3.155456 1_555
Sn12 Tm6 3.155456 1_455
Sn13 Tm2 3.084946 1_465
Sn13 Tm2 3.084946 1_565
Sn13 Tm11 3.133336 1_455
Sn13 Tm11 3.133336 1_555
Sn13 Tm7 3.155456 1_555
Sn13 Tm7 3.155456 1_455
Sn14 Tm1 3.084946 1_655
Sn14 Tm1 3.084946 1_555
Sn14 Tm8 3.133336 1_655
Sn14 Tm8 3.133336 1_555
Sn14 Tm4 3.155456 1_555
Sn14 Tm4 3.155456 1_655
Sn15 Tm0 3.084946 1_545
Sn15 Tm0 3.084946 1_645
Sn15 Tm9 3.133336 1_555
Sn15 Tm9 3.133336 1_655
Sn15 Tm5 3.155456 1_555
Sn15 Tm5 3.155456 1_655
Sn16 Tm7 3.396216 1_455
Sn16 Tm7 3.396216 1_555
Sn16 Tm10 3.468001 1_555
Sn16 Tm10 3.468001 1_455
Sn17 Tm6 3.396216 1_556
Sn17 Tm6 3.396216 1_456
Sn17 Tm11 3.468001 1_555
Sn17 Tm11 3.468001 1_455
Sn18 Tm5 3.396216 1_555
Sn18 Tm5 3.396216 1_655
Sn18 Tm8 3.468001 1_555
Sn18 Tm8 3.468001 1_655
Sn19 Tm4 3.396216 1_554
Sn19 Tm4 3.396216 1_654
Sn19 Tm9 3.468001 1_555
Sn19 Tm9 3.468001 1_655
Sn20 Tm6 3.127631 1_555
Sn20 Tm6 3.127631 1_455
Sn20 Tm0 3.174027 1_555
Sn20 Tm9 3.430979 1_565
Sn21 Tm7 3.127631 1_455
Sn21 Tm7 3.127631 1_555
Sn21 Tm1 3.174027 1_555
Sn21 Tm8 3.430979 1_555
Sn22 Tm4 3.127631 1_655
Sn22 Tm4 3.127631 1_555
Sn22 Tm2 3.174027 1_555
Sn22 Tm11 3.430979 1_545
Sn23 Tm5 3.127631 1_555
Sn23 Tm5 3.127631 1_655
Sn23 Tm3 3.174027 1_555
Sn23 Tm10 3.430979 1_555
