# generated using pymatgen
data_Li6Mn3CoO10
_symmetry_space_group_name_H-M   'P 1'
_cell_length_a   10.91189969
_cell_length_b   10.91189969
_cell_length_c   5.83690717
_cell_angle_alpha   81.95575853
_cell_angle_beta   81.95575853
_cell_angle_gamma   15.10574018
_symmetry_Int_Tables_number   1
_chemical_formula_structural   Li6Mn3CoO10
_chemical_formula_sum   'Li6 Mn3 Co1 O10'
_cell_volume   179.30369230
_cell_formula_units_Z   1
loop_
 _symmetry_equiv_pos_site_id
 _symmetry_equiv_pos_as_xyz
  1  'x, y, z'
loop_
 _atom_site_type_symbol
 _atom_site_label
 _atom_site_symmetry_multiplicity
 _atom_site_fract_x
 _atom_site_fract_y
 _atom_site_fract_z
 _atom_site_occupancy
  Li  Li0  1  0.60019500  0.60019500  0.70006200  1
  Li  Li1  1  0.79621800  0.79621800  0.10140100  1
  Li  Li2  1  0.19249400  0.19249400  0.90846400  1
  Li  Li3  1  0.40294400  0.40294400  0.30020900  1
  Li  Li4  1  0.00962100  0.00962100  0.48928600  1
  Li  Li5  1  0.60077400  0.60077400  0.20077900  1
  Mn  Mn0  1  0.00794100  0.00794100  0.00055000  1
  Mn  Mn1  1  0.19355400  0.19355400  0.40077200  1
  Mn  Mn2  1  0.40099000  0.40099000  0.79579500  1
  Co  Co0  1  0.79641700  0.79641700  0.60216100  1
  O  O0  1  0.50309100  0.50309100  0.77357100  1
  O  O1  1  0.70134800  0.70134800  0.17443600  1
  O  O2  1  0.09213100  0.09213100  0.95761800  1
  O  O3  1  0.29345900  0.29345900  0.37776400  1
  O  O4  1  0.89980700  0.89980700  0.56657500  1
  O  O5  1  0.69841300  0.69841300  0.62737800  1
  O  O6  1  0.90455700  0.90455700  0.02692700  1
  O  O7  1  0.29710600  0.29710600  0.82541200  1
  O  O8  1  0.49971000  0.49971000  0.22691100  1
  O  O9  1  0.10923100  0.10923100  0.44393100  1
loop_
_geom_bond_atom_site_label_1
_geom_bond_atom_site_label_2
_geom_bond_distance
_geom_bond_site_symmetry_2
Li0 O9 2.061044 1_565
Li0 O9 2.061044 1_655
Li0 O2 2.067251 1_655
Li0 O2 2.067251 1_565
Li0 O0 2.083973 1_555
Li0 O5 2.107284 1_555
Li1 O1 2.036493 1_555
Li1 O3 2.153049 1_655
Li1 O3 2.153049 1_565
Li1 O7 2.154956 1_564
Li1 O7 2.154956 1_654
Li1 O6 2.322707 1_555
Li2 O1 2.141937 1_546
Li2 O1 2.141937 1_456
Li2 O2 2.149646 1_555
Li2 O5 2.169337 1_545
Li2 O5 2.169337 1_455
Li2 O7 2.246649 1_555
Li3 O8 2.076736 1_555
Li3 O4 2.109315 1_545
Li3 O4 2.109315 1_455
Li3 O6 2.141740 1_545
Li3 O6 2.141740 1_455
Li3 O3 2.347913 1_555
Li4 O8 2.131005 1_455
Li4 O8 2.131005 1_545
Li4 O9 2.133794 1_555
Li4 O0 2.182736 1_545
Li4 O0 2.182736 1_455
Li4 O4 2.354823 1_445
Li5 O9 2.044066 1_655
Li5 O9 2.044066 1_565
Li5 O2 2.044862 1_654
Li5 O2 2.044862 1_564
Li5 O1 2.159530 1_555
Li5 O8 2.170193 1_555
Mn0 O2 1.803178 1_554
Mn0 O8 1.941163 1_455
Mn0 O8 1.941163 1_545
Mn0 O0 1.965358 1_454
Mn0 O0 1.965358 1_544
Mn0 O6 2.220161 1_445
Mn1 O9 1.806023 1_555
Mn1 O1 1.941130 1_545
Mn1 O1 1.941130 1_455
Mn1 O5 1.963903 1_455
Mn1 O5 1.963903 1_545
Mn1 O3 2.146554 1_555
Mn2 O4 1.964059 1_455
Mn2 O4 1.964059 1_545
Mn2 O6 1.978015 1_456
Mn2 O6 1.978015 1_546
Mn2 O0 2.194349 1_555
Mn2 O7 2.229649 1_555
Co0 O7 1.939303 1_655
Co0 O7 1.939303 1_565
Co0 O3 1.949469 1_565
Co0 O3 1.949469 1_655
Co0 O5 2.104536 1_555
Co0 O4 2.217022 1_555
