# generated using pymatgen
data_CsH2F3
_symmetry_space_group_name_H-M   'P 1'
_cell_length_a   7.34023501
_cell_length_b   8.98032584
_cell_length_c   11.34808852
_cell_angle_alpha   90.00000000
_cell_angle_beta   90.00000000
_cell_angle_gamma   90.00000000
_symmetry_Int_Tables_number   1
_chemical_formula_structural   CsH2F3
_chemical_formula_sum   'Cs8 H16 F24'
_cell_volume   748.03991883
_cell_formula_units_Z   8
loop_
 _symmetry_equiv_pos_site_id
 _symmetry_equiv_pos_as_xyz
  1  'x, y, z'
loop_
 _atom_site_type_symbol
 _atom_site_label
 _atom_site_symmetry_multiplicity
 _atom_site_fract_x
 _atom_site_fract_y
 _atom_site_fract_z
 _atom_site_occupancy
  Cs  Cs0  1  0.01634845  0.35491735  0.10964020  1
  Cs  Cs1  1  0.48365155  0.64508265  0.60964020  1
  Cs  Cs2  1  0.98365155  0.85491735  0.39035980  1
  Cs  Cs3  1  0.51634845  0.14508265  0.89035980  1
  Cs  Cs4  1  0.52681618  0.21457316  0.33950543  1
  Cs  Cs5  1  0.97318382  0.78542684  0.83950543  1
  Cs  Cs6  1  0.47318382  0.71457316  0.16049457  1
  Cs  Cs7  1  0.02681618  0.28542684  0.66049457  1
  H  H0  1  0.53547074  0.41029256  0.05844626  1
  H  H1  1  0.96452926  0.58970744  0.55844626  1
  H  H2  1  0.46452926  0.91029256  0.44155374  1
  H  H3  1  0.03547074  0.08970744  0.94155374  1
  H  H4  1  0.21224389  0.49423933  0.37262529  1
  H  H5  1  0.28775611  0.50576067  0.87262529  1
  H  H6  1  0.78775611  0.99423933  0.12737471  1
  H  H7  1  0.71224389  0.00576067  0.62737471  1
  H  H8  1  0.20256612  0.02012758  0.12012866  1
  H  H9  1  0.29743388  0.97987242  0.62012866  1
  H  H10  1  0.79743388  0.52012758  0.37987134  1
  H  H11  1  0.70256612  0.47987242  0.87987134  1
  H  H12  1  0.02627635  0.26294624  0.38549663  1
  H  H13  1  0.47372365  0.73705376  0.88549663  1
  H  H14  1  0.97372365  0.76294624  0.11450337  1
  H  H15  1  0.52627635  0.23705376  0.61450337  1
  F  F0  1  0.16044828  0.35376588  0.36186905  1
  F  F1  1  0.33955172  0.64623412  0.86186905  1
  F  F2  1  0.83955172  0.85376588  0.13813095  1
  F  F3  1  0.66044828  0.14623412  0.63813095  1
  F  F4  1  0.16864484  0.03688799  0.00503548  1
  F  F5  1  0.33135516  0.96311201  0.50503548  1
  F  F6  1  0.83135516  0.53688799  0.49496452  1
  F  F7  1  0.66864484  0.46311201  0.99496452  1
  F  F8  1  0.26266083  0.59901013  0.37614140  1
  F  F9  1  0.23733917  0.40098987  0.87614140  1
  F  F10  1  0.73733917  0.09901013  0.12385860  1
  F  F11  1  0.76266083  0.90098987  0.62385860  1
  F  F12  1  0.23715993  0.01039300  0.20577803  1
  F  F13  1  0.26284007  0.98960700  0.70577803  1
  F  F14  1  0.76284007  0.51039300  0.29422197  1
  F  F15  1  0.73715993  0.48960700  0.79422197  1
  F  F16  1  0.43371993  0.37126484  0.11134174  1
  F  F17  1  0.06628007  0.62873516  0.61134174  1
  F  F18  1  0.56628007  0.87126484  0.38865826  1
  F  F19  1  0.93371993  0.12873516  0.88865826  1
  F  F20  1  0.07445134  0.68869203  0.09654721  1
  F  F21  1  0.42554866  0.31130797  0.59654721  1
  F  F22  1  0.92554866  0.18869203  0.40345279  1
  F  F23  1  0.57445134  0.81130797  0.90345279  1
loop_
_geom_bond_atom_site_label_1
_geom_bond_atom_site_label_2
_geom_bond_distance
_geom_bond_site_symmetry_2
Cs0 F7 3.025132 1_454
Cs0 F20 3.031239 1_555
Cs0 F0 3.051515 1_555
Cs0 F16 3.067181 1_555
Cs0 F10 3.082485 1_455
Cs0 F14 3.130433 1_455
Cs0 F9 3.134282 1_554
Cs1 F6 3.025132 1_555
Cs1 F21 3.031239 1_555
Cs1 F1 3.051515 1_555
Cs1 F17 3.067181 1_555
Cs1 F11 3.082485 1_555
Cs1 F15 3.130433 1_555
Cs1 F8 3.134282 1_555
Cs2 F5 3.025132 1_655
Cs2 F22 3.031239 1_565
Cs2 F2 3.051515 1_555
Cs2 F18 3.067181 1_555
Cs2 F8 3.082485 1_655
Cs2 F12 3.130433 1_665
Cs2 F11 3.134282 1_555
Cs3 F4 3.025132 1_556
Cs3 F23 3.031239 1_545
Cs3 F3 3.051515 1_555
Cs3 F19 3.067181 1_555
Cs3 F9 3.082485 1_555
Cs3 F13 3.130433 1_545
Cs3 F10 3.134282 1_556
Cs4 F0 2.976380 1_555
Cs4 H2 3.002813 1_545
Cs4 F22 3.024356 1_555
Cs4 F16 3.025076 1_555
Cs4 F10 3.074674 1_555
Cs4 H15 3.127227 1_555
Cs4 F21 3.133000 1_555
Cs4 F18 3.146436 1_545
Cs4 F12 3.191482 1_555
Cs4 F14 3.212916 1_555
Cs4 F5 3.269022 1_545
Cs5 F1 2.976380 1_655
Cs5 H3 3.002813 1_665
Cs5 F23 3.024356 1_555
Cs5 F17 3.025076 1_655
Cs5 F11 3.074674 1_555
Cs5 H14 3.127227 1_556
Cs5 F20 3.133000 1_656
Cs5 F19 3.146436 1_565
Cs5 F13 3.191482 1_655
Cs5 F15 3.212916 1_555
Cs5 F4 3.269022 1_666
Cs6 F2 2.976380 1_555
Cs6 H0 3.002813 1_555
Cs6 F20 3.024356 1_555
Cs6 F18 3.025076 1_555
Cs6 F8 3.074674 1_555
Cs6 H13 3.127227 1_554
Cs6 F23 3.133000 1_554
Cs6 F16 3.146436 1_555
Cs6 F14 3.191482 1_555
Cs6 F12 3.212916 1_565
Cs6 F7 3.269022 1_554
Cs7 F3 2.976380 1_455
Cs7 H1 3.002813 1_455
Cs7 F21 3.024356 1_555
Cs7 F19 3.025076 1_455
Cs7 F9 3.074674 1_555
Cs7 H12 3.127227 1_555
Cs7 F22 3.133000 1_455
Cs7 F17 3.146436 1_555
Cs7 F15 3.191482 1_455
Cs7 F13 3.212916 1_545
Cs7 F6 3.269022 1_455
F0 H12 1.306528 1_555
F0 H4 1.323186 1_555
F1 H13 1.306528 1_555
F1 H5 1.323186 1_555
F2 H14 1.306528 1_555
F2 H6 1.323186 1_555
F3 H15 1.306528 1_555
F3 H7 1.323186 1_555
F4 H3 1.303660 1_554
F4 H8 1.338101 1_555
F5 H2 1.303660 1_555
F5 H9 1.338101 1_555
F6 H1 1.303660 1_555
F6 H10 1.338101 1_555
F7 H0 1.303660 1_556
F7 H11 1.338101 1_555
F8 H4 1.011827 1_555
F9 H5 1.011827 1_555
F10 H6 1.011827 1_545
F11 H7 1.011827 1_565
F12 H8 1.008375 1_555
F13 H9 1.008375 1_555
F14 H10 1.008375 1_555
F15 H11 1.008375 1_555
F16 H0 1.020282 1_555
F17 H1 1.020282 1_455
F18 H2 1.020282 1_555
F19 H3 1.020282 1_655
F20 H14 1.016287 1_455
F21 H15 1.016287 1_555
F22 H12 1.016287 1_655
F23 H13 1.016287 1_555
