# generated using pymatgen
data_Sc2H10S3O17
_symmetry_space_group_name_H-M   'P 1'
_cell_length_a   6.64929845
_cell_length_b   12.04682536
_cell_length_c   11.83969649
_cell_angle_alpha   89.96643167
_cell_angle_beta   99.76060953
_cell_angle_gamma   85.05267127
_symmetry_Int_Tables_number   1
_chemical_formula_structural   Sc2H10S3O17
_chemical_formula_sum   'Sc4 H20 S6 O34'
_cell_volume   931.07227761
_cell_formula_units_Z   2
loop_
 _symmetry_equiv_pos_site_id
 _symmetry_equiv_pos_as_xyz
  1  'x, y, z'
loop_
 _atom_site_type_symbol
 _atom_site_label
 _atom_site_symmetry_multiplicity
 _atom_site_fract_x
 _atom_site_fract_y
 _atom_site_fract_z
 _atom_site_occupancy
  Sc  Sc0  1  0.34632400  0.86334800  0.29628200  1
  Sc  Sc1  1  0.00000000  0.50000000  0.00000000  1
  Sc  Sc2  1  0.65367600  0.13665200  0.70371800  1
  Sc  Sc3  1  0.00000000  0.50000000  0.50000000  1
  H  H0  1  0.59791400  0.15048400  0.00042500  1
  H  H1  1  0.88367400  0.71464800  0.53595000  1
  H  H2  1  0.69341000  0.89777900  0.22273000  1
  H  H3  1  0.76038500  0.38856500  0.33674600  1
  H  H4  1  0.62537700  0.98201900  0.72138700  1
  H  H5  1  0.29194000  0.11717700  0.97302400  1
  H  H6  1  0.69085600  0.72977000  0.40568800  1
  H  H7  1  0.30914400  0.27023000  0.59431200  1
  H  H8  1  0.71802100  0.72293600  0.84643100  1
  H  H9  1  0.53889100  0.09566400  0.36401500  1
  H  H10  1  0.34110900  0.32562900  0.17506400  1
  H  H11  1  0.70806000  0.88282300  0.02697600  1
  H  H12  1  0.28197900  0.27706400  0.15356900  1
  H  H13  1  0.46110900  0.90433600  0.63598500  1
  H  H14  1  0.11632600  0.28535200  0.46405000  1
  H  H15  1  0.23961500  0.61143500  0.66325400  1
  H  H16  1  0.37462300  0.01798100  0.27861300  1
  H  H17  1  0.30659000  0.10222100  0.77727000  1
  H  H18  1  0.40208600  0.84951600  0.99957500  1
  H  H19  1  0.65889100  0.67437100  0.82493600  1
  S  S0  1  0.11229400  0.77855100  0.02236600  1
  S  S1  1  0.19716500  0.82001900  0.54092600  1
  S  S2  1  0.69741400  0.54561500  0.21286000  1
  S  S3  1  0.80283500  0.17998100  0.45907400  1
  S  S4  1  0.88770600  0.22144900  0.97763400  1
  S  S5  1  0.30258600  0.45438500  0.78714000  1
  O  O0  1  0.58001700  0.90902900  0.05806600  1
  O  O1  1  0.99047300  0.15777800  0.41308200  1
  O  O2  1  0.92727400  0.84700000  0.97518600  1
  O  O3  1  0.17914400  0.79542300  0.14612200  1
  O  O4  1  0.15544800  0.83151300  0.41186100  1
  O  O5  1  0.08720500  0.65782400  0.00209100  1
  O  O6  1  0.72286400  0.40294000  0.68226400  1
  O  O7  1  0.41089300  0.21012100  0.63479100  1
  O  O8  1  0.68460200  0.28591400  0.42049700  1
  O  O9  1  0.27782100  0.53569000  0.40163200  1
  O  O10  1  0.61278700  0.84789500  0.17046000  1
  O  O11  1  0.86788700  0.53272200  0.13733500  1
  O  O12  1  0.27713600  0.59706000  0.31773600  1
  O  O13  1  0.82572200  0.46055400  0.32982200  1
  O  O14  1  0.47356700  0.51672300  0.83865400  1
  O  O15  1  0.28705600  0.80180000  0.95758300  1
  O  O16  1  0.91279500  0.34217600  0.99790900  1
  O  O17  1  0.13211300  0.46727800  0.86266500  1
  O  O18  1  0.72217900  0.46431000  0.59836800  1
  O  O19  1  0.85872600  0.64942000  0.48696800  1
  O  O20  1  0.71294400  0.19820000  0.04241700  1
  O  O21  1  0.66191000  0.08123200  0.42584800  1
  O  O22  1  0.17427800  0.53944600  0.67017800  1
  O  O23  1  0.07272600  0.15300000  0.02481400  1
  O  O24  1  0.14127400  0.35058000  0.51303200  1
  O  O25  1  0.84455200  0.16848700  0.58813900  1
  O  O26  1  0.58910700  0.78987900  0.36520900  1
  O  O27  1  0.52643300  0.48327700  0.16134600  1
  O  O28  1  0.82085600  0.20457700  0.85387800  1
  O  O29  1  0.41998300  0.09097100  0.94193400  1
  O  O30  1  0.31539800  0.71408600  0.57950300  1
  O  O31  1  0.33809000  0.91876800  0.57415200  1
  O  O32  1  0.38721300  0.15210500  0.82954000  1
  O  O33  1  0.00952700  0.84222200  0.58691800  1
loop_
_geom_bond_atom_site_label_1
_geom_bond_atom_site_label_2
_geom_bond_distance
_geom_bond_site_symmetry_2
H0 O20 1.053500 1_555
H0 O29 1.504137 1_554
H1 O19 0.985751 1_555
H2 O10 0.987433 1_555
H3 O13 1.012197 1_555
H4 Sc2 1.903334 1_565
H5 O29 1.009987 1_555
H5 O23 1.697569 1_556
H6 O26 1.008429 1_555
H6 O19 1.599160 1_555
H7 O7 1.008429 1_555
H7 O24 1.599160 1_555
H9 O21 1.003772 1_555
H10 H12 0.753368 1_555
H11 O0 1.009987 1_555
H11 O2 1.697569 1_554
H13 O31 1.003772 1_555
H14 O24 0.985751 1_555
H15 O22 1.012197 1_555
H16 Sc0 1.903334 1_545
H17 O32 0.987433 1_555
H18 O15 1.053500 1_555
H18 O0 1.504137 1_556
H19 H8 0.753368 1_555
O1 S3 1.448338 1_555
O2 S0 1.448097 1_656
O3 S0 1.476789 1_555
O3 Sc0 2.134140 1_555
O4 S1 1.510160 1_555
O4 Sc0 2.074301 1_555
O5 S0 1.493099 1_555
O5 Sc1 2.033971 1_555
O7 Sc2 1.833421 1_555
O8 S3 1.469615 1_555
O9 Sc3 2.412411 1_555
O10 Sc0 2.496290 1_555
O11 S2 1.556295 1_555
O11 Sc1 1.999077 1_655
O12 O9 1.237045 1_555
O13 S2 1.772720 1_555
O13 Sc3 2.220984 1_655
O14 S5 1.463281 1_555
O15 S0 1.541165 1_556
O16 S4 1.493099 1_555
O16 Sc1 2.033971 1_656
O17 S5 1.556295 1_555
O17 Sc1 1.999077 1_556
O18 O6 1.237045 1_555
O18 Sc3 2.412411 1_655
O19 Sc3 1.950703 1_655
O20 S4 1.541165 1_554
O21 S3 1.586136 1_555
O22 S5 1.772720 1_555
O22 Sc3 2.220984 1_555
O23 S4 1.448097 1_454
O24 Sc3 1.950703 1_555
O25 S3 1.510160 1_555
O25 Sc2 2.074301 1_555
O26 Sc0 1.833421 1_555
O27 S2 1.463281 1_555
O28 S4 1.476789 1_555
O28 Sc2 2.134140 1_555
O30 S1 1.469615 1_555
O31 S1 1.586136 1_555
O32 Sc2 2.496290 1_555
O33 S1 1.448338 1_555
