# generated using pymatgen
data_Sr7CaTi5Mn3O24
_symmetry_space_group_name_H-M   'P 1'
_cell_length_a   7.84769666
_cell_length_b   7.84769666
_cell_length_c   7.79353826
_cell_angle_alpha   89.98944299
_cell_angle_beta   89.98944299
_cell_angle_gamma   90.01103756
_symmetry_Int_Tables_number   1
_chemical_formula_structural   Sr7CaTi5Mn3O24
_chemical_formula_sum   'Sr7 Ca1 Ti5 Mn3 O24'
_cell_volume   479.97549464
_cell_formula_units_Z   1
loop_
 _symmetry_equiv_pos_site_id
 _symmetry_equiv_pos_as_xyz
  1  'x, y, z'
loop_
 _atom_site_type_symbol
 _atom_site_label
 _atom_site_symmetry_multiplicity
 _atom_site_fract_x
 _atom_site_fract_y
 _atom_site_fract_z
 _atom_site_occupancy
  Sr  Sr0  1  0.75187700  0.24834400  0.24521800  1
  Sr  Sr1  1  0.75164500  0.75164500  0.24522900  1
  Sr  Sr2  1  0.24834400  0.75187700  0.24521800  1
  Sr  Sr3  1  0.75167100  0.24827500  0.75471700  1
  Sr  Sr4  1  0.75164300  0.75164300  0.75462600  1
  Sr  Sr5  1  0.24829300  0.24829300  0.75507100  1
  Sr  Sr6  1  0.24827500  0.75167100  0.75471700  1
  Ca  Ca0  1  0.24782800  0.24782800  0.24418400  1
  Ti  Ti0  1  0.49893000  0.49893000  0.00077000  1
  Ti  Ti1  1  0.00079300  0.00079300  0.49883700  1
  Ti  Ti2  1  0.00080100  0.49920900  0.49899600  1
  Ti  Ti3  1  0.49920900  0.00080100  0.49899600  1
  Ti  Ti4  1  0.49920500  0.49920500  0.49922900  1
  Mn  Mn0  1  0.00064600  0.00064600  0.00031700  1
  Mn  Mn1  1  0.00055600  0.49924600  0.00051300  1
  Mn  Mn2  1  0.49924600  0.00055600  0.00051300  1
  O  O0  1  0.00229600  0.00229600  0.24732700  1
  O  O1  1  0.00214300  0.49782800  0.24729200  1
  O  O2  1  0.49782800  0.00214300  0.24729200  1
  O  O3  1  0.49824400  0.49824400  0.24946400  1
  O  O4  1  0.00037600  0.00037600  0.75255800  1
  O  O5  1  0.00058300  0.49951000  0.75271200  1
  O  O6  1  0.49951000  0.00058300  0.75271200  1
  O  O7  1  0.49939700  0.49939700  0.75067100  1
  O  O8  1  0.74910400  0.00048400  0.00016500  1
  O  O9  1  0.75258500  0.49946500  0.00049800  1
  O  O10  1  0.25082500  0.00301400  0.00332200  1
  O  O11  1  0.24737800  0.49772800  0.00235700  1
  O  O12  1  0.75013100  0.00060300  0.49939100  1
  O  O13  1  0.75010000  0.49939200  0.49939200  1
  O  O14  1  0.24986600  0.00192600  0.49814600  1
  O  O15  1  0.24996700  0.49809400  0.49814000  1
  O  O16  1  0.00301400  0.25082500  0.00332200  1
  O  O17  1  0.00048400  0.74910400  0.00016500  1
  O  O18  1  0.49772800  0.24737800  0.00235700  1
  O  O19  1  0.49946500  0.75258500  0.00049800  1
  O  O20  1  0.00192600  0.24986600  0.49814600  1
  O  O21  1  0.00060300  0.75013100  0.49939100  1
  O  O22  1  0.49809400  0.24996700  0.49814000  1
  O  O23  1  0.49939200  0.75010000  0.49939200  1
loop_
_geom_bond_atom_site_label_1
_geom_bond_atom_site_label_2
_geom_bond_distance
_geom_bond_site_symmetry_2
Ca0 O10 2.686401 1_555
Ca0 O16 2.686401 1_555
Ca0 O11 2.719701 1_555
Ca0 O18 2.719701 1_555
Ca0 O0 2.724834 1_555
Ca0 O1 2.751111 1_555
Ca0 O2 2.751111 1_555
Ca0 O20 2.764117 1_555
Ca0 O14 2.764117 1_555
Ca0 O3 2.779244 1_555
Ca0 O22 2.788611 1_555
Ca0 O15 2.788611 1_555
Mn0 O0 1.925174 1_555
Mn0 O4 1.930922 1_554
Mn0 O10 1.963557 1_555
Mn0 O16 1.963557 1_555
Mn0 O17 1.974026 1_545
Mn0 O8 1.974026 1_455
Mn1 O1 1.923354 1_555
Mn1 O5 1.931247 1_554
Mn1 O11 1.937079 1_555
Mn1 O9 1.946002 1_455
Mn1 O16 1.949751 1_555
Mn1 O17 1.960811 1_555
Mn2 O2 1.923354 1_555
Mn2 O6 1.931247 1_554
Mn2 O18 1.937079 1_555
Mn2 O19 1.946002 1_545
Mn2 O10 1.949751 1_555
Mn2 O8 1.960811 1_555
O0 Ti1 1.960219 1_555
O0 Sr2 2.755396 1_545
O0 Sr0 2.755396 1_455
O0 Sr1 2.781589 1_445
O1 Ti2 1.961723 1_555
O1 Sr0 2.772980 1_455
O1 Sr2 2.776084 1_555
O1 Sr1 2.798901 1_455
O2 Ti3 1.961723 1_555
O2 Sr2 2.772980 1_545
O2 Sr0 2.776084 1_555
O2 Sr1 2.798901 1_545
O3 Ti0 1.938219 1_555
O3 Ti4 1.946585 1_555
O3 Sr2 2.794727 1_555
O3 Sr0 2.794727 1_555
O3 Sr1 2.812239 1_555
O4 Ti1 1.977389 1_555
O4 Sr5 2.751272 1_555
O4 Sr6 2.756055 1_545
O4 Sr3 2.756055 1_455
O4 Sr4 2.760295 1_445
O5 Ti2 1.977348 1_555
O5 Sr5 2.769022 1_555
O5 Sr6 2.773656 1_555
O5 Sr3 2.775198 1_455
O5 Sr4 2.780898 1_455
O6 Ti3 1.977348 1_555
O6 Sr5 2.769022 1_555
O6 Sr3 2.773656 1_555
O6 Sr6 2.775198 1_545
O6 Sr4 2.780898 1_545
O7 Ti0 1.949162 1_556
O7 Ti4 1.959625 1_555
O7 Sr5 2.786766 1_555
O7 Sr3 2.793879 1_555
O7 Sr6 2.793879 1_555
O7 Sr4 2.799415 1_555
O8 Sr0 2.726320 1_555
O8 Sr3 2.727572 1_554
O8 Sr1 2.731357 1_545
O8 Sr4 2.734456 1_544
O9 Ti0 1.990612 1_555
O9 Sr0 2.742248 1_555
O9 Sr1 2.748797 1_555
O9 Sr3 2.748904 1_554
O9 Sr4 2.754459 1_554
O10 Sr2 2.727141 1_545
O10 Sr5 2.729005 1_554
O10 Sr6 2.765208 1_544
O11 Ti0 1.974161 1_555
O11 Sr5 2.747260 1_554
O11 Sr2 2.749892 1_555
O11 Sr6 2.773988 1_554
O12 Ti1 1.967124 1_655
O12 Ti3 1.969164 1_555
O12 Sr0 2.775363 1_555
O12 Sr3 2.781913 1_555
O12 Sr1 2.782507 1_545
O12 Sr4 2.787968 1_545
O13 Ti2 1.967428 1_655
O13 Ti4 1.968949 1_555
O13 Sr0 2.794126 1_555
O13 Sr1 2.800215 1_555
O13 Sr3 2.800355 1_555
O13 Sr4 2.806634 1_555
O14 Ti1 1.954674 1_555
O14 Ti3 1.956802 1_555
O14 Sr2 2.781702 1_545
O14 Sr5 2.783719 1_555
O14 Sr6 2.802513 1_545
O15 Ti2 1.955411 1_555
O15 Ti4 1.955982 1_555
O15 Sr2 2.801913 1_555
O15 Sr5 2.802024 1_555
O15 Sr6 2.821400 1_555
O16 Sr0 2.727141 1_455
O16 Sr5 2.729005 1_554
O16 Sr3 2.765208 1_454
O17 Sr2 2.726320 1_555
O17 Sr6 2.727572 1_554
O17 Sr1 2.731357 1_455
O17 Sr4 2.734456 1_454
O18 Ti0 1.974161 1_555
O18 Sr5 2.747260 1_554
O18 Sr0 2.749892 1_555
O18 Sr3 2.773988 1_554
O19 Ti0 1.990612 1_555
O19 Sr2 2.742248 1_555
O19 Sr1 2.748797 1_555
O19 Sr6 2.748904 1_554
O19 Sr4 2.754459 1_554
O20 Ti1 1.954674 1_555
O20 Ti2 1.956802 1_555
O20 Sr0 2.781702 1_455
O20 Sr5 2.783719 1_555
O20 Sr3 2.802513 1_455
O21 Ti1 1.967124 1_565
O21 Ti2 1.969164 1_555
O21 Sr2 2.775363 1_555
O21 Sr6 2.781913 1_555
O21 Sr1 2.782507 1_455
O21 Sr4 2.787968 1_455
O22 Ti3 1.955411 1_555
O22 Ti4 1.955982 1_555
O22 Sr0 2.801913 1_555
O22 Sr5 2.802024 1_555
O22 Sr3 2.821400 1_555
O23 Ti3 1.967428 1_565
O23 Ti4 1.968949 1_555
O23 Sr2 2.794126 1_555
O23 Sr1 2.800215 1_555
O23 Sr6 2.800355 1_555
O23 Sr4 2.806634 1_555
