# generated using pymatgen
data_V3(PbO3)4
_symmetry_space_group_name_H-M   'P 1'
_cell_length_a   9.33718440
_cell_length_b   9.33719773
_cell_length_c   9.33719599
_cell_angle_alpha   109.47118163
_cell_angle_beta   109.47131400
_cell_angle_gamma   109.47119275
_symmetry_Int_Tables_number   1
_chemical_formula_structural   V3(PbO3)4
_chemical_formula_sum   'V6 Pb8 O24'
_cell_volume   626.65272655
_cell_formula_units_Z   2
loop_
 _symmetry_equiv_pos_site_id
 _symmetry_equiv_pos_as_xyz
  1  'x, y, z'
loop_
 _atom_site_type_symbol
 _atom_site_label
 _atom_site_symmetry_multiplicity
 _atom_site_fract_x
 _atom_site_fract_y
 _atom_site_fract_z
 _atom_site_occupancy
  V  V0  1  0.12501996  0.87501912  0.24999920  1
  V  V1  1  0.37498172  0.62498004  0.75000056  1
  V  V2  1  0.87502079  0.24999933  0.12502138  1
  V  V3  1  0.62498040  0.74999895  0.37498089  1
  V  V4  1  0.24999949  0.12501977  0.87502016  1
  V  V5  1  0.75000034  0.37498115  0.62498166  1
  Pb  Pb0  1  0.34261212  0.34261262  0.34261218  1
  Pb  Pb1  1  0.15738839  0.50000012  -0.00000013  1
  Pb  Pb2  1  0.00000004  0.15738822  0.50000017  1
  Pb  Pb3  1  0.84259558  0.84259563  0.84259594  1
  Pb  Pb4  1  0.50000036  -0.00000006  0.15738796  1
  Pb  Pb5  1  0.65740467  0.50000019  0.00000014  1
  Pb  Pb6  1  0.50000006  0.00000001  0.65740460  1
  Pb  Pb7  1  -0.00000045  0.65740395  0.49999947  1
  O  O0  1  0.31335845  0.15641338  0.08353185  1
  O  O1  1  0.18663848  0.27017099  0.84305473  1
  O  O2  1  0.92711645  0.34358053  0.65694288  1
  O  O3  1  0.15641700  0.08353489  0.31336291  1
  O  O4  1  0.81335486  0.58350958  0.65639860  1
  O  O5  1  0.57288301  0.22982865  0.41646588  1
  O  O6  1  0.27017279  0.84305701  0.18663803  1
  O  O7  1  0.68664752  0.34304437  0.77015332  1
  O  O8  1  0.34358383  0.65694457  0.92711537  1
  O  O9  1  0.42710852  0.15695544  0.84360140  1
  O  O10  1  0.22982974  0.41647107  0.57288666  1
  O  O11  1  0.07289047  0.91649259  0.72984657  1
  O  O12  1  0.08353041  0.31335860  0.15641523  1
  O  O13  1  0.65639802  0.81335422  0.58350932  1
  O  O14  1  0.65694287  0.92711745  0.34358275  1
  O  O15  1  0.84360169  0.42710967  0.15695614  1
  O  O16  1  0.41646742  0.57288462  0.22982726  1
  O  O17  1  0.72984463  0.07288874  0.91649385  1
  O  O18  1  0.84305773  0.18663991  0.27017253  1
  O  O19  1  0.77015351  0.68664719  0.34304406  1
  O  O20  1  0.58350572  0.65639575  0.81335178  1
  O  O21  1  0.34304377  0.77015382  0.68664540  1
  O  O22  1  0.91649651  0.72984800  0.07289240  1
  O  O23  1  0.15695514  0.84360091  0.42710794  1
loop_
_geom_bond_atom_site_label_1
_geom_bond_atom_site_label_2
_geom_bond_distance
_geom_bond_site_symmetry_2
O0 V4 1.721178 1_554
O0 Pb0 2.321269 1_555
O0 Pb4 2.685621 1_555
O1 V4 1.721175 1_555
O1 Pb1 2.321264 1_556
O1 Pb2 2.685617 1_555
O2 V5 1.721198 1_555
O2 Pb2 2.321232 1_655
O2 Pb1 2.685630 1_656
O3 V0 1.721202 1_545
O3 Pb0 2.321256 1_555
O3 Pb2 2.685613 1_555
O4 V5 1.721263 1_555
O4 Pb3 2.321361 1_555
O4 Pb7 2.685609 1_655
O5 V5 1.721195 1_555
O5 Pb4 2.321259 1_555
O5 Pb0 2.685615 1_555
O6 V0 1.721180 1_555
O6 Pb4 2.321243 1_565
O6 Pb1 2.685636 1_555
O7 V5 1.721231 1_555
O7 Pb5 2.321381 1_556
O7 Pb6 2.685621 1_555
O8 V1 1.721172 1_555
O8 Pb1 2.321264 1_556
O8 Pb4 2.685628 1_566
O9 V4 1.721250 1_555
O9 Pb6 2.321372 1_555
O9 Pb5 2.685622 1_556
O10 V1 1.721151 1_555
O10 Pb2 2.321278 1_555
O10 Pb0 2.685642 1_555
O11 V4 1.721248 1_565
O11 Pb7 2.321377 1_555
O11 Pb3 2.685616 1_455
O12 V2 1.721157 1_455
O12 Pb0 2.321263 1_555
O12 Pb1 2.685640 1_555
O13 V3 1.721260 1_555
O13 Pb3 2.321358 1_555
O13 Pb6 2.685609 1_565
O14 V3 1.721208 1_555
O14 Pb4 2.321235 1_565
O14 Pb2 2.685631 1_665
O15 V2 1.721266 1_555
O15 Pb5 2.321364 1_555
O15 Pb7 2.685609 1_655
O16 V3 1.721173 1_555
O16 Pb1 2.321247 1_555
O16 Pb0 2.685636 1_555
O17 V2 1.721256 1_556
O17 Pb6 2.321371 1_555
O17 Pb3 2.685614 1_545
O18 V2 1.721160 1_555
O18 Pb2 2.321249 1_655
O18 Pb4 2.685636 1_555
O19 V3 1.721237 1_555
O19 Pb7 2.321371 1_655
O19 Pb5 2.685616 1_555
O20 V1 1.721226 1_555
O20 Pb3 2.321378 1_555
O20 Pb5 2.685615 1_556
O21 V1 1.721265 1_555
O21 Pb6 2.321365 1_565
O21 Pb7 2.685609 1_555
O22 V0 1.721218 1_655
O22 Pb5 2.321392 1_555
O22 Pb3 2.685620 1_554
O23 V0 1.721246 1_555
O23 Pb7 2.321373 1_555
O23 Pb6 2.685618 1_565
