# generated using pymatgen
data_Yb3(Mg2H7)2
_symmetry_space_group_name_H-M   'P 1'
_cell_length_a   6.46176283
_cell_length_b   6.46176283
_cell_length_c   6.70949500
_cell_angle_alpha   90.00000000
_cell_angle_beta   90.00000000
_cell_angle_gamma   120.00000847
_symmetry_Int_Tables_number   1
_chemical_formula_structural   Yb3(Mg2H7)2
_chemical_formula_sum   'Yb3 Mg4 H14'
_cell_volume   242.61768552
_cell_formula_units_Z   1
loop_
 _symmetry_equiv_pos_site_id
 _symmetry_equiv_pos_as_xyz
  1  'x, y, z'
loop_
 _atom_site_type_symbol
 _atom_site_label
 _atom_site_symmetry_multiplicity
 _atom_site_fract_x
 _atom_site_fract_y
 _atom_site_fract_z
 _atom_site_occupancy
  Yb  Yb0  1  0.40169000  0.40169000  0.00000000  1
  Yb  Yb1  1  0.00000000  0.59831000  0.00000000  1
  Yb  Yb2  1  0.59831000  0.00000000  0.00000000  1
  Mg  Mg0  1  0.00000000  0.00000000  0.69412400  1
  Mg  Mg1  1  0.00000000  0.00000000  0.30587600  1
  Mg  Mg2  1  0.66666700  0.33333300  0.50000000  1
  Mg  Mg3  1  0.33333300  0.66666700  0.50000000  1
  H  H0  1  0.77585800  0.77585800  0.00000000  1
  H  H1  1  0.00000000  0.22414200  0.00000000  1
  H  H2  1  0.22414200  0.00000000  0.00000000  1
  H  H3  1  0.66666700  0.33333300  0.00000000  1
  H  H4  1  0.33333300  0.66666700  0.00000000  1
  H  H5  1  0.38737600  0.38737600  0.67057300  1
  H  H6  1  0.00000000  0.61262400  0.67057300  1
  H  H7  1  0.38737600  0.38737600  0.32942700  1
  H  H8  1  0.00000000  0.61262400  0.32942700  1
  H  H9  1  0.61262400  0.00000000  0.67057300  1
  H  H10  1  0.61262400  0.00000000  0.32942700  1
  H  H11  1  0.76981800  0.76981800  0.50000000  1
  H  H12  1  0.00000000  0.23018200  0.50000000  1
  H  H13  1  0.23018200  0.00000000  0.50000000  1
loop_
_geom_bond_atom_site_label_1
_geom_bond_atom_site_label_2
_geom_bond_distance
_geom_bond_site_symmetry_2
H0 Yb2 2.252913 1_565
H0 Yb1 2.252913 1_655
H0 Yb0 2.417785 1_555
H1 Yb2 2.252913 1_455
H1 Yb0 2.252913 1_555
H1 Yb1 2.417785 1_555
H2 Yb1 2.252913 1_545
H2 Yb0 2.252913 1_555
H2 Yb2 2.417785 1_555
H3 Yb2 1.970551 1_555
H3 Yb1 1.970553 1_655
H3 Yb0 1.970557 1_555
H4 Yb1 1.970551 1_555
H4 Yb2 1.970553 1_565
H4 Yb0 1.970557 1_555
H5 Yb0 2.212223 1_556
H5 Mg3 2.306285 1_555
H5 Mg2 2.306285 1_555
H6 Yb1 2.212223 1_556
H6 Mg3 2.306279 1_555
H6 Mg2 2.306281 1_455
H7 Yb0 2.212223 1_555
H7 Mg3 2.306285 1_555
H7 Mg2 2.306285 1_555
H8 Yb1 2.212223 1_555
H8 Mg3 2.306279 1_555
H8 Mg2 2.306281 1_455
H9 Yb2 2.212223 1_556
H9 Mg2 2.306279 1_555
H9 Mg3 2.306281 1_545
H10 Yb2 2.212223 1_555
H10 Mg2 2.306279 1_555
H10 Mg3 2.306281 1_545
H11 Mg0 1.977054 1_665
H11 Mg1 1.977054 1_665
H12 Mg0 1.977054 1_555
H12 Mg1 1.977054 1_555
H13 Mg0 1.977054 1_555
H13 Mg1 1.977054 1_555
