# generated using pymatgen
data_ScZn6
_symmetry_space_group_name_H-M   'P 1'
_cell_length_a   11.79109427
_cell_length_b   11.79109427
_cell_length_c   11.79109427
_cell_angle_alpha   70.06484361
_cell_angle_beta   70.31836499
_cell_angle_gamma   108.79905525
_symmetry_Int_Tables_number   1
_chemical_formula_structural   ScZn6
_chemical_formula_sum   'Sc12 Zn72'
_cell_volume   1261.80871867
_cell_formula_units_Z   12
loop_
 _symmetry_equiv_pos_site_id
 _symmetry_equiv_pos_as_xyz
  1  'x, y, z'
loop_
 _atom_site_type_symbol
 _atom_site_label
 _atom_site_symmetry_multiplicity
 _atom_site_fract_x
 _atom_site_fract_y
 _atom_site_fract_z
 _atom_site_occupancy
  Sc  Sc0  1  0.80835509  0.51054357  0.29781253  1
  Sc  Sc1  1  0.19164491  0.48945643  0.70218747  1
  Sc  Sc2  1  0.80835509  0.10616662  0.70218747  1
  Sc  Sc3  1  0.19164491  0.89383338  0.29781253  1
  Sc  Sc4  1  0.70157316  0.18636575  0.11206109  1
  Sc  Sc5  1  0.29842684  0.81363425  0.88793891  1
  Sc  Sc6  1  0.29842684  0.18636575  0.51520842  1
  Sc  Sc7  1  0.70157316  0.81363425  0.48479158  1
  Sc  Sc8  1  0.49361476  0.30251591  0.80890116  1
  Sc  Sc9  1  0.50638524  0.69748409  0.19109884  1
  Sc  Sc10  1  0.88858293  0.69748409  0.80890116  1
  Sc  Sc11  1  0.11141707  0.30251591  0.19109884  1
  Zn  Zn0  1  0.19012241  0.50000000  0.30987759  1
  Zn  Zn1  1  0.80987759  0.50000000  0.69012241  1
  Zn  Zn2  1  0.30753561  0.80753561  0.50000000  1
  Zn  Zn3  1  0.69246439  0.19246439  0.50000000  1
  Zn  Zn4  1  0.50000000  0.69196487  0.80803513  1
  Zn  Zn5  1  0.50000000  0.30803513  0.19196487  1
  Zn  Zn6  1  0.77948695  0.45258518  0.08199666  1
  Zn  Zn7  1  0.46541916  0.54741482  0.67309823  1
  Zn  Zn8  1  0.53458084  0.86148361  0.91800334  1
  Zn  Zn9  1  0.22051305  0.13851639  0.32690177  1
  Zn  Zn10  1  0.68637805  0.22428286  0.85712394  1
  Zn  Zn11  1  0.08140679  0.54350199  0.14287606  1
  Zn  Zn12  1  0.31362195  0.45649801  0.46209519  1
  Zn  Zn13  1  0.91859321  0.77571714  0.53790481  1
  Zn  Zn14  1  0.54045353  0.31354807  0.54564965  1
  Zn  Zn15  1  0.45954647  0.91389882  0.22690446  1
  Zn  Zn16  1  0.14080228  0.68645193  0.77309554  1
  Zn  Zn17  1  0.85919772  0.08610118  0.45435035  1
  Zn  Zn18  1  0.22051305  0.54741482  0.91800334  1
  Zn  Zn19  1  0.53458084  0.45258518  0.32690177  1
  Zn  Zn20  1  0.46541916  0.13851639  0.08199666  1
  Zn  Zn21  1  0.77948695  0.86148361  0.67309823  1
  Zn  Zn22  1  0.31362195  0.77571714  0.14287606  1
  Zn  Zn23  1  0.91859321  0.45649801  0.85712394  1
  Zn  Zn24  1  0.68637805  0.54350199  0.53790481  1
  Zn  Zn25  1  0.08140679  0.22428286  0.46209519  1
  Zn  Zn26  1  0.45954647  0.68645193  0.45435035  1
  Zn  Zn27  1  0.54045353  0.08610118  0.77309554  1
  Zn  Zn28  1  0.85919772  0.31354807  0.22690446  1
  Zn  Zn29  1  0.14080228  0.91389882  0.54564965  1
  Zn  Zn30  1  0.73999298  0.64520332  0.09478966  1
  Zn  Zn31  1  0.26000702  0.35479668  0.90521034  1
  Zn  Zn32  1  0.73999298  0.83478265  0.90521034  1
  Zn  Zn33  1  0.26000702  0.16521735  0.09478966  1
  Zn  Zn34  1  0.90716945  0.23764556  0.85518599  1
  Zn  Zn35  1  0.09283055  0.76235444  0.14481401  1
  Zn  Zn36  1  0.09283055  0.23764556  0.66952289  1
  Zn  Zn37  1  0.90716945  0.76235444  0.33047711  1
  Zn  Zn38  1  0.32214754  0.09059735  0.76844981  1
  Zn  Zn39  1  0.67785246  0.90940265  0.23155019  1
  Zn  Zn40  1  0.14095284  0.90940265  0.76844981  1
  Zn  Zn41  1  0.85904716  0.09059735  0.23155019  1
  Zn  Zn42  1  0.99811606  0.67644644  0.99884937  1
  Zn  Zn43  1  0.32470519  0.32355356  0.67833038  1
  Zn  Zn44  1  0.67529481  0.99696543  0.00115063  1
  Zn  Zn45  1  0.00188394  0.00303457  0.32166962  1
  Zn  Zn46  1  0.00188394  0.32355356  0.00115063  1
  Zn  Zn47  1  0.67529481  0.67644644  0.32166962  1
  Zn  Zn48  1  0.32470519  0.00303457  0.99884937  1
  Zn  Zn49  1  0.99811606  0.99696543  0.67833038  1
  Zn  Zn50  1  0.59499835  0.24707076  0.34792660  1
  Zn  Zn51  1  0.40500165  0.75292924  0.65207340  1
  Zn  Zn52  1  0.59499835  0.94292395  0.65207340  1
  Zn  Zn53  1  0.40500165  0.05707605  0.34792660  1
  Zn  Zn54  1  0.65515173  0.40277786  0.94207041  1
  Zn  Zn55  1  0.34484827  0.59722214  0.05792959  1
  Zn  Zn56  1  0.34484827  0.40277786  0.25237487  1
  Zn  Zn57  1  0.65515173  0.59722214  0.74762513  1
  Zn  Zn58  1  0.75264340  0.34752312  0.59488073  1
  Zn  Zn59  1  0.24735660  0.65247688  0.40512027  1
  Zn  Zn60  1  0.05759615  0.65247688  0.59488073  1
  Zn  Zn61  1  0.94240385  0.34752312  0.40512027  1
  Zn  Zn62  1  0.40557120  0.00000000  0.59442880  1
  Zn  Zn63  1  0.59442880  0.00000000  0.40557120  1
  Zn  Zn64  1  0.58775080  0.58775080  -0.00000000  1
  Zn  Zn65  1  0.41224920  0.41224920  -0.00000000  1
  Zn  Zn66  1  0.00000000  0.40517397  0.59482603  1
  Zn  Zn67  1  0.00000000  0.59482603  0.40517397  1
  Zn  Zn68  1  0.91404118  0.82464397  0.08939721  1
  Zn  Zn69  1  0.08595882  0.17535603  0.91060279  1
  Zn  Zn70  1  0.91404118  0.00343840  0.91060279  1
  Zn  Zn71  1  0.08595882  0.99656160  0.08939721  1
loop_
_geom_bond_atom_site_label_1
_geom_bond_atom_site_label_2
_geom_bond_distance
_geom_bond_site_symmetry_2
Sc0 Zn14 2.887533 1_555
Sc0 Zn28 2.887549 1_555
Sc0 Zn47 2.902288 1_555
Sc0 Zn42 2.902290 1_554
Sc0 Zn30 2.904151 1_555
Sc0 Zn24 2.932867 1_555
Sc0 Zn11 2.932879 1_655
Sc0 Zn6 2.945813 1_555
Sc0 Zn19 2.945816 1_555
Sc0 Zn67 3.005625 1_655
Sc0 Zn50 3.006494 1_555
Sc0 Zn35 3.028869 1_655
Sc0 Zn37 3.028872 1_555
Sc0 Zn58 3.072564 1_555
Sc0 Zn61 3.072570 1_555
Sc0 Zn3 3.165833 1_555
Sc0 Zn68 3.172518 1_555
Sc1 Zn26 2.887533 1_555
Sc1 Zn16 2.887549 1_555
Sc1 Zn43 2.902288 1_555
Sc1 Zn46 2.902290 1_556
Sc1 Zn31 2.904151 1_555
Sc1 Zn12 2.932867 1_555
Sc1 Zn23 2.932879 1_455
Sc1 Zn18 2.945813 1_555
Sc1 Zn7 2.945816 1_555
Sc1 Zn66 3.005625 1_555
Sc1 Zn51 3.006494 1_555
Sc1 Zn34 3.028869 1_455
Sc1 Zn36 3.028872 1_555
Sc1 Zn59 3.072554 1_555
Sc1 Zn60 3.072566 1_555
Sc1 Zn2 3.165833 1_555
Sc1 Zn69 3.172518 1_555
Sc2 Zn27 2.887526 1_555
Sc2 Zn17 2.887538 1_555
Sc2 Zn49 2.902282 1_545
Sc2 Zn44 2.902292 1_546
Sc2 Zn32 2.904147 1_545
Sc2 Zn25 2.932872 1_655
Sc2 Zn10 2.932884 1_555
Sc2 Zn21 2.945795 1_545
Sc2 Zn8 2.945809 1_545
Sc2 Zn66 3.005637 1_655
Sc2 Zn52 3.006477 1_545
Sc2 Zn36 3.028872 1_655
Sc2 Zn34 3.028893 1_555
Sc2 Zn61 3.072555 1_555
Sc2 Zn58 3.072560 1_555
Sc2 Zn3 3.165826 1_555
Sc2 Zn70 3.172525 1_555
Sc3 Zn15 2.887526 1_555
Sc3 Zn29 2.887538 1_555
Sc3 Zn45 2.902282 1_565
Sc3 Zn48 2.902292 1_564
Sc3 Zn33 2.904147 1_565
Sc3 Zn13 2.932872 1_455
Sc3 Zn22 2.932884 1_555
Sc3 Zn9 2.945795 1_565
Sc3 Zn20 2.945809 1_565
Sc3 Zn67 3.005637 1_555
Sc3 Zn53 3.006477 1_565
Sc3 Zn37 3.028872 1_455
Sc3 Zn35 3.028893 1_555
Sc3 Zn59 3.072562 1_555
Sc3 Zn60 3.072562 1_555
Sc3 Zn2 3.165826 1_555
Sc3 Zn71 3.172525 1_555
Sc4 Zn20 2.825997 1_555
Sc4 Zn6 2.826008 1_555
Sc4 Zn34 2.876954 1_554
Sc4 Zn63 2.912356 1_555
Sc4 Zn46 2.934637 1_655
Sc4 Zn44 2.934637 1_545
Sc4 Zn39 2.955738 1_545
Sc4 Zn41 2.955738 1_555
Sc4 Zn10 2.960728 1_554
Sc4 Zn23 2.960728 1_554
Sc4 Zn15 2.969925 1_545
Sc4 Zn28 2.969927 1_555
Sc4 Zn54 2.996653 1_554
Sc4 Zn50 3.067432 1_555
Sc4 Zn53 3.067442 1_555
Sc4 Zn5 3.194640 1_555
Sc5 Zn8 2.825997 1_555
Sc5 Zn18 2.826008 1_555
Sc5 Zn35 2.876954 1_556
Sc5 Zn62 2.912356 1_565
Sc5 Zn42 2.934637 1_455
Sc5 Zn48 2.934637 1_565
Sc5 Zn38 2.955738 1_565
Sc5 Zn40 2.955738 1_555
Sc5 Zn22 2.960728 1_556
Sc5 Zn11 2.960728 1_556
Sc5 Zn27 2.969925 1_565
Sc5 Zn16 2.969927 1_555
Sc5 Zn55 2.996653 1_556
Sc5 Zn51 3.067432 1_555
Sc5 Zn52 3.067442 1_555
Sc5 Zn4 3.194640 1_555
Sc6 Zn19 2.826005 1_555
Sc6 Zn9 2.826020 1_555
Sc6 Zn36 2.876952 1_555
Sc6 Zn62 2.912354 1_555
Sc6 Zn43 2.934628 1_555
Sc6 Zn49 2.934637 1_445
Sc6 Zn38 2.955727 1_555
Sc6 Zn40 2.955733 1_545
Sc6 Zn12 2.960726 1_555
Sc6 Zn25 2.960733 1_555
Sc6 Zn29 2.969922 1_545
Sc6 Zn14 2.969929 1_555
Sc6 Zn56 2.996653 1_555
Sc6 Zn53 3.067438 1_555
Sc6 Zn50 3.067447 1_555
Sc6 Zn5 3.194649 1_555
Sc7 Zn7 2.826005 1_555
Sc7 Zn21 2.826020 1_555
Sc7 Zn37 2.876952 1_555
Sc7 Zn63 2.912354 1_565
Sc7 Zn47 2.934628 1_555
Sc7 Zn45 2.934637 1_665
Sc7 Zn39 2.955727 1_555
Sc7 Zn41 2.955733 1_565
Sc7 Zn24 2.960726 1_555
Sc7 Zn13 2.960733 1_555
Sc7 Zn17 2.969922 1_565
Sc7 Zn26 2.969929 1_555
Sc7 Zn57 2.996653 1_555
Sc7 Zn52 3.067438 1_555
Sc7 Zn51 3.067447 1_555
Sc7 Zn4 3.194649 1_555
Sc8 Zn10 2.864330 1_555
Sc8 Zn24 2.864330 1_555
Sc8 Zn14 2.912135 1_555
Sc8 Zn27 2.912154 1_555
Sc8 Zn43 2.919208 1_555
Sc8 Zn48 2.919218 1_555
Sc8 Zn33 2.953227 1_556
Sc8 Zn31 2.953227 1_555
Sc8 Zn38 2.960603 1_555
Sc8 Zn58 2.971312 1_555
Sc8 Zn7 2.972744 1_555
Sc8 Zn20 2.972757 1_556
Sc8 Zn65 3.000621 1_556
Sc8 Zn57 3.052892 1_555
Sc8 Zn54 3.052896 1_555
Sc8 Zn1 3.154597 1_555
Sc9 Zn22 2.864330 1_555
Sc9 Zn12 2.864330 1_555
Sc9 Zn26 2.912135 1_555
Sc9 Zn15 2.912154 1_555
Sc9 Zn47 2.919208 1_555
Sc9 Zn44 2.919218 1_555
Sc9 Zn32 2.953227 1_554
Sc9 Zn30 2.953227 1_555
Sc9 Zn39 2.960603 1_555
Sc9 Zn59 2.971317 1_555
Sc9 Zn19 2.972744 1_555
Sc9 Zn8 2.972757 1_554
Sc9 Zn64 3.000621 1_555
Sc9 Zn56 3.052892 1_555
Sc9 Zn55 3.052896 1_555
Sc9 Zn0 3.154597 1_555
Sc10 Zn13 2.864330 1_555
Sc10 Zn23 2.864330 1_555
Sc10 Zn16 2.912137 1_655
Sc10 Zn29 2.912139 1_655
Sc10 Zn42 2.919218 1_555
Sc10 Zn49 2.919218 1_555
Sc10 Zn30 2.953227 1_556
Sc10 Zn32 2.953227 1_555
Sc10 Zn40 2.960603 1_655
Sc10 Zn60 2.971304 1_655
Sc10 Zn6 2.972751 1_556
Sc10 Zn21 2.972751 1_555
Sc10 Zn64 3.000621 1_556
Sc10 Zn54 3.052896 1_555
Sc10 Zn57 3.052904 1_555
Sc10 Zn1 3.154597 1_555
Sc11 Zn25 2.864330 1_555
Sc11 Zn11 2.864330 1_555
Sc11 Zn28 2.912137 1_455
Sc11 Zn17 2.912139 1_455
Sc11 Zn45 2.919218 1_555
Sc11 Zn46 2.919218 1_555
Sc11 Zn31 2.953227 1_554
Sc11 Zn33 2.953227 1_555
Sc11 Zn41 2.960603 1_455
Sc11 Zn61 2.971312 1_455
Sc11 Zn18 2.972751 1_554
Sc11 Zn9 2.972751 1_555
Sc11 Zn65 3.000621 1_555
Sc11 Zn55 3.052896 1_555
Sc11 Zn56 3.052904 1_555
Sc11 Zn0 3.154597 1_555
Zn0 Zn61 2.460530 1_455
Zn0 Zn59 2.460539 1_555
Zn0 Zn56 2.479304 1_555
Zn0 Zn55 2.479306 1_555
Zn0 Zn25 2.686830 1_555
Zn0 Zn12 2.686830 1_555
Zn0 Zn22 2.686830 1_555
Zn0 Zn11 2.686830 1_555
Zn0 Zn67 2.883337 1_555
Zn0 Zn66 2.883337 1_555
Zn1 Zn58 2.460530 1_555
Zn1 Zn60 2.460532 1_655
Zn1 Zn57 2.479304 1_555
Zn1 Zn54 2.479306 1_555
Zn1 Zn13 2.686830 1_555
Zn1 Zn10 2.686830 1_555
Zn1 Zn24 2.686830 1_555
Zn1 Zn23 2.686830 1_555
Zn1 Zn66 2.883337 1_655
Zn1 Zn67 2.883337 1_655
Zn2 Zn51 2.455244 1_555
Zn2 Zn53 2.455255 1_565
Zn2 Zn59 2.488205 1_555
Zn2 Zn60 2.488212 1_555
Zn2 Zn26 2.657844 1_555
Zn2 Zn29 2.657862 1_555
Zn2 Zn63 2.936871 1_565
Zn2 Zn62 2.936871 1_565
Zn3 Zn50 2.455244 1_555
Zn3 Zn52 2.455255 1_545
Zn3 Zn61 2.488214 1_555
Zn3 Zn58 2.488214 1_555
Zn3 Zn62 2.936871 1_555
Zn3 Zn63 2.936871 1_555
Zn4 Zn55 2.466591 1_556
Zn4 Zn57 2.466593 1_555
Zn4 Zn52 2.481566 1_555
Zn4 Zn51 2.481578 1_555
Zn4 Zn7 2.727818 1_555
Zn4 Zn8 2.727819 1_555
Zn4 Zn64 2.864285 1_556
Zn4 Zn65 2.864285 1_556
Zn5 Zn54 2.466591 1_554
Zn5 Zn56 2.466593 1_555
Zn5 Zn53 2.481566 1_555
Zn5 Zn50 2.481578 1_555
Zn5 Zn9 2.727820 1_555
Zn5 Zn6 2.727820 1_555
Zn5 Zn65 2.864285 1_555
Zn5 Zn64 2.864285 1_555
Zn10 Zn34 2.548725 1_555
Zn10 Zn44 2.570217 1_546
Zn10 Zn20 2.580929 1_556
Zn10 Zn58 2.619199 1_555
Zn10 Zn27 2.653137 1_555
Zn10 Zn54 2.693859 1_555
Zn11 Zn35 2.548717 1_555
Zn11 Zn42 2.570223 1_454
Zn11 Zn18 2.580935 1_554
Zn11 Zn61 2.619210 1_455
Zn11 Zn28 2.653137 1_455
Zn11 Zn55 2.693859 1_555
Zn12 Zn36 2.548718 1_555
Zn12 Zn43 2.570230 1_555
Zn12 Zn19 2.580926 1_555
Zn12 Zn59 2.619210 1_555
Zn12 Zn26 2.653134 1_555
Zn12 Zn56 2.693848 1_555
Zn13 Zn37 2.548710 1_555
Zn13 Zn45 2.570223 1_665
Zn13 Zn21 2.580935 1_555
Zn13 Zn60 2.619202 1_655
Zn13 Zn29 2.653141 1_655
Zn13 Zn57 2.693856 1_555
Zn14 Zn43 2.563480 1_555
Zn14 Zn19 2.579752 1_555
Zn14 Zn38 2.610080 1_555
Zn14 Zn50 2.650358 1_555
Zn14 Zn24 2.653134 1_555
Zn14 Zn3 2.657844 1_555
Zn14 Zn58 2.692228 1_555
Zn15 Zn44 2.563483 1_555
Zn15 Zn20 2.579717 1_565
Zn15 Zn39 2.610092 1_555
Zn15 Zn53 2.650348 1_565
Zn15 Zn22 2.653137 1_555
Zn15 Zn2 2.657850 1_555
Zn15 Zn59 2.692236 1_555
Zn16 Zn42 2.563480 1_455
Zn16 Zn18 2.579738 1_555
Zn16 Zn40 2.610076 1_555
Zn16 Zn51 2.650348 1_555
Zn16 Zn23 2.653137 1_455
Zn16 Zn2 2.657853 1_555
Zn16 Zn60 2.692228 1_555
Zn17 Zn45 2.563470 1_655
Zn17 Zn21 2.579732 1_545
Zn17 Zn41 2.610072 1_555
Zn17 Zn52 2.650351 1_545
Zn17 Zn25 2.653141 1_655
Zn17 Zn3 2.657862 1_555
Zn17 Zn61 2.692243 1_555
Zn18 Zn31 2.503160 1_555
Zn18 Zn46 2.592567 1_556
Zn18 Zn55 2.636556 1_556
Zn18 Zn51 2.694971 1_555
Zn18 Zn4 2.727820 1_555
Zn19 Zn30 2.503164 1_555
Zn19 Zn47 2.592567 1_555
Zn19 Zn56 2.636537 1_555
Zn19 Zn50 2.694986 1_555
Zn19 Zn5 2.727818 1_555
Zn20 Zn33 2.503172 1_555
Zn20 Zn48 2.592567 1_554
Zn20 Zn54 2.636553 1_554
Zn20 Zn53 2.694967 1_555
Zn20 Zn5 2.727819 1_555
Zn21 Zn32 2.503160 1_555
Zn21 Zn49 2.592567 1_555
Zn21 Zn57 2.636559 1_555
Zn21 Zn52 2.694961 1_555
Zn21 Zn4 2.727820 1_555
Zn22 Zn35 2.548725 1_555
Zn22 Zn48 2.570217 1_564
Zn22 Zn8 2.580929 1_554
Zn22 Zn59 2.619210 1_555
Zn22 Zn55 2.693859 1_555
Zn23 Zn34 2.548717 1_555
Zn23 Zn46 2.570223 1_656
Zn23 Zn6 2.580935 1_556
Zn23 Zn60 2.619202 1_655
Zn23 Zn54 2.693859 1_555
Zn24 Zn37 2.548718 1_555
Zn24 Zn47 2.570230 1_555
Zn24 Zn7 2.580926 1_555
Zn24 Zn58 2.619210 1_555
Zn24 Zn57 2.693848 1_555
Zn25 Zn36 2.548710 1_555
Zn25 Zn49 2.570223 1_445
Zn25 Zn9 2.580935 1_555
Zn25 Zn61 2.619199 1_455
Zn25 Zn56 2.693856 1_555
Zn26 Zn47 2.563480 1_555
Zn26 Zn7 2.579752 1_555
Zn26 Zn39 2.610080 1_555
Zn26 Zn51 2.650358 1_555
Zn26 Zn59 2.692222 1_555
Zn27 Zn48 2.563483 1_555
Zn27 Zn8 2.579717 1_545
Zn27 Zn38 2.610092 1_555
Zn27 Zn52 2.650348 1_545
Zn27 Zn3 2.657850 1_555
Zn27 Zn58 2.692235 1_555
Zn28 Zn46 2.563480 1_655
Zn28 Zn6 2.579738 1_555
Zn28 Zn41 2.610076 1_555
Zn28 Zn50 2.650348 1_555
Zn28 Zn3 2.657853 1_555
Zn28 Zn61 2.692239 1_555
Zn29 Zn49 2.563470 1_455
Zn29 Zn9 2.579732 1_565
Zn29 Zn40 2.610072 1_555
Zn29 Zn53 2.650351 1_565
Zn29 Zn60 2.692239 1_555
Zn30 Zn68 2.390430 1_555
Zn30 Zn64 2.452447 1_555
Zn30 Zn6 2.503160 1_555
Zn30 Zn32 2.566357 1_554
Zn30 Zn47 2.711582 1_555
Zn30 Zn42 2.711582 1_554
Zn31 Zn69 2.390430 1_555
Zn31 Zn65 2.452447 1_556
Zn31 Zn7 2.503164 1_555
Zn31 Zn33 2.566357 1_556
Zn31 Zn43 2.711582 1_555
Zn31 Zn46 2.711582 1_556
Zn32 Zn70 2.390430 1_565
Zn32 Zn64 2.452447 1_556
Zn32 Zn8 2.503172 1_555
Zn32 Zn49 2.711582 1_555
Zn32 Zn44 2.711586 1_556
Zn33 Zn71 2.390430 1_545
Zn33 Zn65 2.452447 1_555
Zn33 Zn9 2.503160 1_555
Zn33 Zn45 2.711582 1_555
Zn33 Zn48 2.711586 1_554
Zn34 Zn36 2.521255 1_655
Zn34 Zn66 2.594680 1_655
Zn34 Zn46 2.643829 1_656
Zn34 Zn44 2.643846 1_546
Zn34 Zn69 2.647468 1_655
Zn34 Zn70 2.647474 1_555
Zn35 Zn37 2.521255 1_455
Zn35 Zn67 2.594680 1_555
Zn35 Zn42 2.643829 1_454
Zn35 Zn48 2.643846 1_564
Zn35 Zn68 2.647468 1_455
Zn35 Zn71 2.647474 1_555
Zn36 Zn66 2.594668 1_555
Zn36 Zn49 2.643835 1_445
Zn36 Zn43 2.643857 1_555
Zn36 Zn70 2.647478 1_455
Zn36 Zn69 2.647484 1_555
Zn37 Zn67 2.594668 1_655
Zn37 Zn45 2.643835 1_665
Zn37 Zn47 2.643857 1_555
Zn37 Zn71 2.647478 1_655
Zn37 Zn68 2.647484 1_555
Zn38 Zn40 2.487421 1_545
Zn38 Zn43 2.570929 1_555
Zn38 Zn48 2.570940 1_555
Zn38 Zn62 2.670467 1_555
Zn39 Zn41 2.487421 1_565
Zn39 Zn47 2.570929 1_555
Zn39 Zn44 2.570940 1_555
Zn39 Zn63 2.670467 1_565
Zn40 Zn42 2.570934 1_455
Zn40 Zn49 2.570934 1_455
Zn40 Zn62 2.670467 1_565
Zn41 Zn45 2.570934 1_655
Zn41 Zn46 2.570934 1_655
Zn41 Zn63 2.670467 1_555
Zn42 Zn6 2.592567 1_556
Zn42 Zn68 2.617595 1_556
Zn43 Zn7 2.592567 1_555
Zn43 Zn69 2.617601 1_555
Zn44 Zn8 2.592567 1_554
Zn44 Zn70 2.617606 1_564
Zn45 Zn9 2.592567 1_555
Zn45 Zn71 2.617595 1_545
Zn46 Zn69 2.617595 1_554
Zn47 Zn68 2.617601 1_555
Zn48 Zn71 2.617606 1_546
Zn49 Zn70 2.617595 1_565
Zn50 Zn53 2.608240 1_555
Zn50 Zn6 2.694971 1_555
Zn50 Zn63 2.753729 1_555
Zn50 Zn62 2.753735 1_555
Zn51 Zn52 2.608240 1_555
Zn51 Zn7 2.694986 1_555
Zn51 Zn62 2.753729 1_565
Zn51 Zn63 2.753735 1_565
Zn52 Zn8 2.694967 1_555
Zn52 Zn63 2.753739 1_565
Zn52 Zn62 2.753745 1_565
Zn53 Zn9 2.694961 1_555
Zn53 Zn62 2.753739 1_555
Zn53 Zn63 2.753745 1_555
Zn54 Zn57 2.632222 1_555
Zn54 Zn6 2.636556 1_556
Zn54 Zn64 2.760876 1_556
Zn54 Zn65 2.760876 1_556
Zn55 Zn56 2.632222 1_555
Zn55 Zn8 2.636553 1_554
Zn55 Zn64 2.760876 1_555
Zn55 Zn65 2.760876 1_555
Zn56 Zn9 2.636559 1_555
Zn56 Zn64 2.760881 1_555
Zn56 Zn65 2.760887 1_555
Zn57 Zn7 2.636537 1_555
Zn57 Zn65 2.760881 1_556
Zn57 Zn64 2.760887 1_556
Zn58 Zn61 2.576910 1_555
Zn58 Zn66 2.772960 1_655
Zn58 Zn67 2.772967 1_655
Zn59 Zn60 2.576910 1_555
Zn59 Zn67 2.772965 1_555
Zn59 Zn66 2.772966 1_555
Zn60 Zn67 2.772972 1_555
Zn60 Zn66 2.772972 1_555
Zn61 Zn66 2.772960 1_655
Zn61 Zn67 2.772967 1_655
Zn62 Zn63 2.564649 1_555
Zn64 Zn65 2.409267 1_555
Zn66 Zn67 2.567342 1_555
Zn68 Zn71 2.360067 1_655
Zn68 Zn70 2.420361 1_564
Zn69 Zn70 2.360067 1_455
Zn69 Zn71 2.420361 1_546
