# generated using pymatgen
data_Ce(AlPd)2
_symmetry_space_group_name_H-M   'P 1'
_cell_length_a   4.30865300
_cell_length_b   4.30865300
_cell_length_c   10.38339000
_cell_angle_alpha   90.00000000
_cell_angle_beta   90.00000000
_cell_angle_gamma   90.00000000
_symmetry_Int_Tables_number   1
_chemical_formula_structural   Ce(AlPd)2
_chemical_formula_sum   'Ce2 Al4 Pd4'
_cell_volume   192.76234682
_cell_formula_units_Z   2
loop_
 _symmetry_equiv_pos_site_id
 _symmetry_equiv_pos_as_xyz
  1  'x, y, z'
loop_
 _atom_site_type_symbol
 _atom_site_label
 _atom_site_symmetry_multiplicity
 _atom_site_fract_x
 _atom_site_fract_y
 _atom_site_fract_z
 _atom_site_occupancy
  Ce  Ce0  1  0.00000000  0.50000000  0.24923300  1
  Ce  Ce1  1  0.50000000  0.00000000  0.75076700  1
  Al  Al0  1  0.00000000  0.50000000  0.62549900  1
  Al  Al1  1  0.50000000  0.00000000  0.37450100  1
  Al  Al2  1  0.00000000  0.00000000  0.00000000  1
  Al  Al3  1  0.50000000  0.50000000  0.00000000  1
  Pd  Pd0  1  0.00000000  0.50000000  0.86751400  1
  Pd  Pd1  1  0.50000000  0.00000000  0.13248600  1
  Pd  Pd2  1  0.00000000  0.00000000  0.50000000  1
  Pd  Pd3  1  0.50000000  0.50000000  0.50000000  1
loop_
_geom_bond_atom_site_label_1
_geom_bond_atom_site_label_2
_geom_bond_distance
_geom_bond_site_symmetry_2
Ce0 Pd1 3.278986 1_565
Ce0 Pd1 3.278986 1_555
Ce0 Pd1 3.278986 1_465
Ce0 Pd1 3.278986 1_455
Ce0 Pd3 3.379491 1_455
Ce0 Pd2 3.379491 1_555
Ce0 Pd3 3.379491 1_555
Ce0 Pd2 3.379491 1_565
Ce1 Pd0 3.278986 1_645
Ce1 Pd0 3.278986 1_655
Ce1 Pd0 3.278986 1_545
Ce1 Pd0 3.278986 1_555
Ce1 Pd2 3.379491 1_655
Ce1 Pd3 3.379491 1_545
Ce1 Pd3 3.379491 1_555
Ce1 Pd2 3.379491 1_555
Al0 Pd0 2.512936 1_555
Al0 Pd3 2.517778 1_455
Al0 Pd2 2.517778 1_555
Al0 Pd3 2.517778 1_555
Al0 Pd2 2.517778 1_565
Al0 Ce1 3.312715 1_555
Al0 Ce1 3.312715 1_455
Al0 Ce1 3.312715 1_465
Al0 Ce1 3.312715 1_565
Al1 Pd1 2.512936 1_555
Al1 Pd2 2.517778 1_655
Al1 Pd3 2.517778 1_545
Al1 Pd2 2.517778 1_555
Al1 Pd3 2.517778 1_555
Al1 Ce0 3.312715 1_655
Al1 Ce0 3.312715 1_645
Al1 Ce0 3.312715 1_555
Al1 Ce0 3.312715 1_545
Al2 Pd0 2.556080 1_544
Al2 Pd1 2.556080 1_555
Al2 Pd0 2.556080 1_554
Al2 Pd1 2.556080 1_455
Al2 Ce0 3.367234 1_555
Al2 Ce0 3.367234 1_545
Al2 Ce1 3.367234 1_454
Al2 Ce1 3.367234 1_554
Al3 Pd1 2.556080 1_565
Al3 Pd1 2.556080 1_555
Al3 Pd0 2.556080 1_554
Al3 Pd0 2.556080 1_654
Al3 Ce0 3.367234 1_555
Al3 Ce0 3.367234 1_655
Al3 Ce1 3.367234 1_554
Al3 Ce1 3.367234 1_564
