# generated using pymatgen
data_Gd3TlC
_symmetry_space_group_name_H-M   'P 1'
_cell_length_a   4.96836386
_cell_length_b   4.96836698
_cell_length_c   4.96837114
_cell_angle_alpha   90.00000000
_cell_angle_beta   90.00000000
_cell_angle_gamma   90.00000000
_symmetry_Int_Tables_number   1
_chemical_formula_structural   Gd3TlC
_chemical_formula_sum   'Gd3 Tl1 C1'
_cell_volume   122.64252724
_cell_formula_units_Z   1
loop_
 _symmetry_equiv_pos_site_id
 _symmetry_equiv_pos_as_xyz
  1  'x, y, z'
loop_
 _atom_site_type_symbol
 _atom_site_label
 _atom_site_symmetry_multiplicity
 _atom_site_fract_x
 _atom_site_fract_y
 _atom_site_fract_z
 _atom_site_occupancy
  Gd  Gd0  1  0.50000000  -0.00000000  0.00000000  1
  Gd  Gd1  1  -0.00000000  0.50000000  0.00000000  1
  Gd  Gd2  1  -0.00000000  0.00000000  0.50000000  1
  Tl  Tl0  1  0.50000000  0.50000000  0.50000000  1
  C  C0  1  0.00000000  -0.00000000  -0.00000000  1
loop_
_geom_bond_atom_site_label_1
_geom_bond_atom_site_label_2
_geom_bond_distance
_geom_bond_site_symmetry_2
Gd0 Tl0 3.513167 1_555
Gd0 Tl0 3.513167 1_544
Gd0 Tl0 3.513167 1_545
Gd0 Tl0 3.513167 1_554
Gd1 Tl0 3.513166 1_555
Gd1 Tl0 3.513166 1_554
Gd1 Tl0 3.513166 1_454
Gd1 Tl0 3.513166 1_455
Gd2 Tl0 3.513165 1_445
Gd2 Tl0 3.513165 1_455
Gd2 Tl0 3.513165 1_555
Gd2 Tl0 3.513165 1_545
C0 Gd0 2.484182 1_455
C0 Gd0 2.484182 1_555
C0 Gd1 2.484183 1_555
C0 Gd1 2.484183 1_545
C0 Gd2 2.484186 1_555
C0 Gd2 2.484186 1_554
