# generated using pymatgen
data_LaDyTl2
_symmetry_space_group_name_H-M   'P 1'
_cell_length_a   5.48258194
_cell_length_b   5.48258194
_cell_length_c   5.48258194
_cell_angle_alpha   60.00000000
_cell_angle_beta   60.00000000
_cell_angle_gamma   60.00000000
_symmetry_Int_Tables_number   1
_chemical_formula_structural   LaDyTl2
_chemical_formula_sum   'La1 Dy1 Tl2'
_cell_volume   116.53071099
_cell_formula_units_Z   1
loop_
 _symmetry_equiv_pos_site_id
 _symmetry_equiv_pos_as_xyz
  1  'x, y, z'
loop_
 _atom_site_type_symbol
 _atom_site_label
 _atom_site_symmetry_multiplicity
 _atom_site_fract_x
 _atom_site_fract_y
 _atom_site_fract_z
 _atom_site_occupancy
  La  La0  1  -0.00000000  0.00000000  0.00000000  1
  Dy  Dy0  1  0.50000000  0.50000000  0.50000000  1
  Tl  Tl0  1  0.25000000  0.25000000  0.25000000  1
  Tl  Tl1  1  0.75000000  0.75000000  0.75000000  1
loop_
_geom_bond_atom_site_label_1
_geom_bond_atom_site_label_2
_geom_bond_distance
_geom_bond_site_symmetry_2
La0 Tl0 3.357382 1_555
La0 Tl1 3.357382 1_445
La0 Tl1 3.357382 1_444
La0 Tl0 3.357382 1_554
La0 Tl0 3.357382 1_455
La0 Tl0 3.357382 1_545
La0 Tl1 3.357382 1_454
La0 Tl1 3.357382 1_544
Dy0 Tl1 3.357382 1_554
Dy0 Tl0 3.357382 1_556
Dy0 Tl0 3.357382 1_555
Dy0 Tl1 3.357382 1_555
Dy0 Tl0 3.357382 1_565
Dy0 Tl1 3.357382 1_455
Dy0 Tl1 3.357382 1_545
Dy0 Tl0 3.357382 1_655
