# generated using pymatgen
data_CdPt3
_symmetry_space_group_name_H-M   'P 1'
_cell_length_a   5.77503442
_cell_length_b   5.77503442
_cell_length_c   18.65979715
_cell_angle_alpha   81.09796677
_cell_angle_beta   98.90203323
_cell_angle_gamma   120.00000000
_symmetry_Int_Tables_number   1
_chemical_formula_structural   CdPt3
_chemical_formula_sum   'Cd8 Pt24'
_cell_volume   530.27418817
_cell_formula_units_Z   8
loop_
 _symmetry_equiv_pos_site_id
 _symmetry_equiv_pos_as_xyz
  1  'x, y, z'
loop_
 _atom_site_type_symbol
 _atom_site_label
 _atom_site_symmetry_multiplicity
 _atom_site_fract_x
 _atom_site_fract_y
 _atom_site_fract_z
 _atom_site_occupancy
  Cd  Cd0_0  1  0.00000000  0.00000000  0.00000000  1
  Cd  Cd0_1  1  0.00000000  1.00000000  0.50000000  1
  Cd  Cd0_2  1  0.00000000  0.50000000  0.00000000  1
  Cd  Cd0_3  1  1.00000000  0.50000000  0.50000000  1
  Cd  Cd0_4  1  0.50000000  0.00000000  0.00000000  1
  Cd  Cd0_5  1  0.50000000  1.00000000  0.50000000  1
  Cd  Cd0_6  1  0.50000000  0.50000000  0.00000000  1
  Cd  Cd0_7  1  0.50000000  0.50000000  0.50000000  1
  Pt  Pt0_0  1  0.37541850  0.12458150  0.12625600  1
  Pt  Pt0_1  1  0.37541850  0.12458150  0.62625600  1
  Pt  Pt0_2  1  0.37541850  0.62458150  0.12625600  1
  Pt  Pt0_3  1  0.37541850  0.62458150  0.62625600  1
  Pt  Pt0_4  1  0.87541850  0.12458150  0.12625600  1
  Pt  Pt0_5  1  0.87541850  0.12458150  0.62625600  1
  Pt  Pt0_6  1  0.87541850  0.62458150  0.12625600  1
  Pt  Pt0_7  1  0.87541850  0.62458150  0.62625600  1
  Pt  Pt1_0  1  0.25000000  0.25000000  0.25000000  1
  Pt  Pt1_1  1  0.25000000  0.25000000  0.75000000  1
  Pt  Pt1_2  1  0.25000000  0.75000000  0.25000000  1
  Pt  Pt1_3  1  0.25000000  0.75000000  0.75000000  1
  Pt  Pt1_4  1  0.75000000  0.25000000  0.25000000  1
  Pt  Pt1_5  1  0.75000000  0.25000000  0.75000000  1
  Pt  Pt1_6  1  0.75000000  0.75000000  0.25000000  1
  Pt  Pt1_7  1  0.75000000  0.75000000  0.75000000  1
  Pt  Pt2_0  1  0.12458150  0.37541850  0.37374400  1
  Pt  Pt2_1  1  0.12458150  0.37541850  0.87374400  1
  Pt  Pt2_2  1  0.12458150  0.87541850  0.37374400  1
  Pt  Pt2_3  1  0.12458150  0.87541850  0.87374400  1
  Pt  Pt2_4  1  0.62458150  0.37541850  0.37374400  1
  Pt  Pt2_5  1  0.62458150  0.37541850  0.87374400  1
  Pt  Pt2_6  1  0.62458150  0.87541850  0.37374400  1
  Pt  Pt2_7  1  0.62458150  0.87541850  0.87374400  1
loop_
_geom_bond_atom_site_label_1
_geom_bond_atom_site_label_2
_geom_bond_distance
_geom_bond_site_symmetry_2
Cd0_0 Pt0_0 2.855233 1_555
Cd0_0 Pt0_6 2.855233 1_445
Cd0_0 Pt2_1 2.855233 1_554
Cd0_0 Pt2_7 2.855233 1_444
Cd0_0 Pt0_4 2.855235 1_455
Cd0_0 Pt2_3 2.855235 1_544
Cd0_0 Cd0_6 2.887517 1_555
Cd0_0 Cd0_6 2.887517 1_445
Cd0_0 Cd0_2 2.887517 1_555
Cd0_0 Cd0_4 2.887517 1_555
Cd0_0 Cd0_4 2.887517 1_455
Cd0_0 Cd0_2 2.887517 1_545
Cd0_1 Pt0_1 2.855233 1_565
Cd0_1 Pt0_7 2.855233 1_455
Cd0_1 Pt2_0 2.855233 1_565
Cd0_1 Pt2_6 2.855233 1_455
Cd0_1 Pt0_5 2.855235 1_465
Cd0_1 Pt2_2 2.855235 1_555
Cd0_1 Cd0_7 2.887517 1_565
Cd0_1 Cd0_3 2.887517 1_465
Cd0_1 Cd0_5 2.887517 1_555
Cd0_1 Cd0_5 2.887517 1_455
Cd0_1 Cd0_3 2.887517 1_455
Cd0_1 Cd0_7 2.887517 1_455
Cd0_2 Pt0_4 2.855233 1_455
Cd0_2 Pt0_2 2.855233 1_555
Cd0_2 Pt2_3 2.855233 1_554
Cd0_2 Pt2_5 2.855233 1_454
Cd0_2 Pt0_6 2.855235 1_455
Cd0_2 Pt2_1 2.855235 1_554
Cd0_2 Cd0_6 2.887517 1_455
Cd0_2 Cd0_4 2.887517 1_565
Cd0_2 Cd0_4 2.887517 1_455
Cd0_2 Cd0_6 2.887517 1_555
Cd0_3 Pt0_5 2.855233 1_555
Cd0_3 Pt0_3 2.855233 1_655
Cd0_3 Pt2_2 2.855233 1_655
Cd0_3 Pt2_4 2.855233 1_555
Cd0_3 Pt0_7 2.855235 1_555
Cd0_3 Pt2_0 2.855235 1_655
Cd0_3 Cd0_5 2.887517 1_545
Cd0_3 Cd0_7 2.887517 1_555
Cd0_3 Cd0_7 2.887517 1_655
Cd0_3 Cd0_5 2.887517 1_655
Cd0_4 Pt0_2 2.855233 1_545
Cd0_4 Pt0_4 2.855233 1_555
Cd0_4 Pt2_5 2.855233 1_554
Cd0_4 Pt2_3 2.855233 1_544
Cd0_4 Pt0_0 2.855235 1_555
Cd0_4 Pt2_7 2.855235 1_544
Cd0_4 Cd0_6 2.887517 1_555
Cd0_4 Cd0_6 2.887517 1_545
Cd0_5 Pt0_5 2.855233 1_565
Cd0_5 Pt0_3 2.855233 1_555
Cd0_5 Pt2_2 2.855233 1_555
Cd0_5 Pt2_4 2.855233 1_565
Cd0_5 Pt0_1 2.855235 1_565
Cd0_5 Pt2_6 2.855235 1_555
Cd0_5 Cd0_7 2.887517 1_565
Cd0_5 Cd0_7 2.887517 1_555
Cd0_6 Pt0_0 2.855233 1_555
Cd0_6 Pt0_6 2.855233 1_555
Cd0_6 Pt2_7 2.855233 1_554
Cd0_6 Pt2_1 2.855233 1_554
Cd0_6 Pt0_2 2.855235 1_555
Cd0_6 Pt2_5 2.855235 1_554
Cd0_7 Pt0_1 2.855233 1_555
Cd0_7 Pt0_7 2.855233 1_555
Cd0_7 Pt2_0 2.855233 1_555
Cd0_7 Pt2_6 2.855233 1_555
Cd0_7 Pt0_3 2.855235 1_555
Cd0_7 Pt2_4 2.855235 1_555
Pt0_0 Pt1_0 2.817920 1_555
Pt0_0 Pt1_2 2.817921 1_545
Pt0_0 Pt1_4 2.817921 1_555
Pt0_0 Pt0_2 2.887517 1_545
Pt0_0 Pt0_6 2.887517 1_445
Pt0_0 Pt0_4 2.887517 1_555
Pt0_0 Pt0_6 2.887517 1_555
Pt0_0 Pt0_4 2.887517 1_455
Pt0_0 Pt0_2 2.887517 1_555
Pt0_1 Pt1_1 2.817920 1_555
Pt0_1 Pt1_5 2.817921 1_555
Pt0_1 Pt1_3 2.817921 1_545
Pt0_1 Pt0_3 2.887517 1_555
Pt0_1 Pt0_5 2.887517 1_455
Pt0_1 Pt0_7 2.887517 1_555
Pt0_1 Pt0_5 2.887517 1_555
Pt0_1 Pt0_7 2.887517 1_445
Pt0_1 Pt0_3 2.887517 1_545
Pt0_2 Pt1_2 2.817920 1_555
Pt0_2 Pt1_6 2.817921 1_555
Pt0_2 Pt1_0 2.817921 1_555
Pt0_2 Pt0_4 2.887517 1_565
Pt0_2 Pt0_6 2.887517 1_455
Pt0_2 Pt0_6 2.887517 1_555
Pt0_2 Pt0_4 2.887517 1_455
Pt0_3 Pt1_3 2.817920 1_555
Pt0_3 Pt1_1 2.817921 1_555
Pt0_3 Pt1_7 2.817921 1_555
Pt0_3 Pt0_7 2.887517 1_555
Pt0_3 Pt0_5 2.887517 1_455
Pt0_3 Pt0_7 2.887517 1_455
Pt0_3 Pt0_5 2.887517 1_565
Pt0_4 Pt1_4 2.817920 1_555
Pt0_4 Pt1_6 2.817921 1_545
Pt0_4 Pt1_0 2.817921 1_655
Pt0_4 Pt0_6 2.887517 1_545
Pt0_4 Pt0_6 2.887517 1_555
Pt0_5 Pt1_5 2.817920 1_555
Pt0_5 Pt1_7 2.817921 1_545
Pt0_5 Pt1_1 2.817921 1_655
Pt0_5 Pt0_7 2.887517 1_545
Pt0_5 Pt0_7 2.887517 1_555
Pt0_6 Pt1_6 2.817920 1_555
Pt0_6 Pt1_2 2.817921 1_655
Pt0_6 Pt1_4 2.817921 1_555
Pt0_7 Pt1_7 2.817920 1_555
Pt0_7 Pt1_5 2.817921 1_555
Pt0_7 Pt1_3 2.817921 1_655
Pt1_0 Pt2_0 2.817920 1_555
Pt1_0 Pt2_4 2.817921 1_555
Pt1_0 Pt2_2 2.817921 1_545
Pt1_0 Pt1_4 2.887517 1_455
Pt1_0 Pt1_6 2.887517 1_555
Pt1_0 Pt1_2 2.887517 1_545
Pt1_0 Pt1_2 2.887517 1_555
Pt1_0 Pt1_6 2.887517 1_445
Pt1_0 Pt1_4 2.887517 1_555
Pt1_1 Pt2_1 2.817920 1_555
Pt1_1 Pt2_3 2.817921 1_545
Pt1_1 Pt2_5 2.817921 1_555
Pt1_1 Pt1_3 2.887517 1_545
Pt1_1 Pt1_7 2.887517 1_445
Pt1_1 Pt1_5 2.887517 1_455
Pt1_1 Pt1_5 2.887517 1_555
Pt1_1 Pt1_3 2.887517 1_555
Pt1_1 Pt1_7 2.887517 1_555
Pt1_2 Pt2_2 2.817920 1_555
Pt1_2 Pt2_6 2.817921 1_555
Pt1_2 Pt2_0 2.817921 1_555
Pt1_2 Pt1_6 2.887517 1_455
Pt1_2 Pt1_4 2.887517 1_455
Pt1_2 Pt1_4 2.887517 1_565
Pt1_2 Pt1_6 2.887517 1_555
Pt1_3 Pt2_3 2.817920 1_555
Pt1_3 Pt2_1 2.817921 1_555
Pt1_3 Pt2_7 2.817921 1_555
Pt1_3 Pt1_7 2.887517 1_455
Pt1_3 Pt1_5 2.887517 1_455
Pt1_3 Pt1_5 2.887517 1_565
Pt1_3 Pt1_7 2.887517 1_555
Pt1_4 Pt2_4 2.817920 1_555
Pt1_4 Pt2_6 2.817921 1_545
Pt1_4 Pt2_0 2.817921 1_655
Pt1_4 Pt1_6 2.887517 1_555
Pt1_4 Pt1_6 2.887517 1_545
Pt1_5 Pt2_5 2.817920 1_555
Pt1_5 Pt2_1 2.817921 1_655
Pt1_5 Pt2_7 2.817921 1_545
Pt1_5 Pt1_7 2.887517 1_555
Pt1_5 Pt1_7 2.887517 1_545
Pt1_6 Pt2_6 2.817920 1_555
Pt1_6 Pt2_4 2.817921 1_555
Pt1_6 Pt2_2 2.817921 1_655
Pt1_7 Pt2_7 2.817920 1_555
Pt1_7 Pt2_3 2.817921 1_655
Pt1_7 Pt2_5 2.817921 1_555
Pt2_0 Pt2_2 2.887517 1_545
Pt2_0 Pt2_4 2.887517 1_455
Pt2_0 Pt2_6 2.887517 1_445
Pt2_0 Pt2_2 2.887517 1_555
Pt2_0 Pt2_6 2.887517 1_555
Pt2_0 Pt2_4 2.887517 1_555
Pt2_1 Pt2_5 2.887517 1_455
Pt2_1 Pt2_3 2.887517 1_545
Pt2_1 Pt2_7 2.887517 1_555
Pt2_1 Pt2_7 2.887517 1_445
Pt2_1 Pt2_3 2.887517 1_555
Pt2_1 Pt2_5 2.887517 1_555
Pt2_2 Pt2_6 2.887517 1_455
Pt2_2 Pt2_4 2.887517 1_565
Pt2_2 Pt2_4 2.887517 1_455
Pt2_2 Pt2_6 2.887517 1_555
Pt2_3 Pt2_5 2.887517 1_455
Pt2_3 Pt2_7 2.887517 1_555
Pt2_3 Pt2_7 2.887517 1_455
Pt2_3 Pt2_5 2.887517 1_565
Pt2_4 Pt2_6 2.887517 1_545
Pt2_4 Pt2_6 2.887517 1_555
Pt2_5 Pt2_7 2.887517 1_545
Pt2_5 Pt2_7 2.887517 1_555
