# generated using pymatgen
data_Er2Mn17C3
_symmetry_space_group_name_H-M   'P 1'
_cell_length_a   8.47844633
_cell_length_b   8.47844633
_cell_length_c   8.26781600
_cell_angle_alpha   90.00000000
_cell_angle_beta   90.00000000
_cell_angle_gamma   120.00000256
_symmetry_Int_Tables_number   1
_chemical_formula_structural   Er2Mn17C3
_chemical_formula_sum   'Er4 Mn34 C6'
_cell_volume   514.69976966
_cell_formula_units_Z   2
loop_
 _symmetry_equiv_pos_site_id
 _symmetry_equiv_pos_as_xyz
  1  'x, y, z'
loop_
 _atom_site_type_symbol
 _atom_site_label
 _atom_site_symmetry_multiplicity
 _atom_site_fract_x
 _atom_site_fract_y
 _atom_site_fract_z
 _atom_site_occupancy
  Er  Er0  1  0.33333300  0.66666700  0.25000000  1
  Er  Er1  1  0.66666700  0.33333300  0.75000000  1
  Er  Er2  1  0.00000000  0.00000000  0.25000000  1
  Er  Er3  1  0.00000000  0.00000000  0.75000000  1
  Mn  Mn0  1  0.38955300  0.06058500  0.25000000  1
  Mn  Mn1  1  0.61044700  0.93941500  0.75000000  1
  Mn  Mn2  1  0.93941500  0.32896900  0.25000000  1
  Mn  Mn3  1  0.06058500  0.38955300  0.75000000  1
  Mn  Mn4  1  0.06058500  0.67103100  0.75000000  1
  Mn  Mn5  1  0.93941500  0.61044700  0.25000000  1
  Mn  Mn6  1  0.67103100  0.61044700  0.25000000  1
  Mn  Mn7  1  0.32896900  0.93941500  0.75000000  1
  Mn  Mn8  1  0.32896900  0.38955300  0.75000000  1
  Mn  Mn9  1  0.67103100  0.06058500  0.25000000  1
  Mn  Mn10  1  0.61044700  0.67103100  0.75000000  1
  Mn  Mn11  1  0.38955300  0.32896900  0.25000000  1
  Mn  Mn12  1  0.33333300  0.66666700  0.60886500  1
  Mn  Mn13  1  0.66666700  0.33333300  0.39113500  1
  Mn  Mn14  1  0.66666700  0.33333300  0.10886500  1
  Mn  Mn15  1  0.33333300  0.66666700  0.89113500  1
  Mn  Mn16  1  0.17034000  0.34068000  0.02556700  1
  Mn  Mn17  1  0.82966000  0.65932000  0.97443300  1
  Mn  Mn18  1  0.65932000  0.82966000  0.02556700  1
  Mn  Mn19  1  0.82966000  0.65932000  0.52556700  1
  Mn  Mn20  1  0.34068000  0.17034000  0.97443300  1
  Mn  Mn21  1  0.17034000  0.34068000  0.47443300  1
  Mn  Mn22  1  0.17034000  0.82966000  0.02556700  1
  Mn  Mn23  1  0.34068000  0.17034000  0.52556700  1
  Mn  Mn24  1  0.82966000  0.17034000  0.97443300  1
  Mn  Mn25  1  0.65932000  0.82966000  0.47443300  1
  Mn  Mn26  1  0.82966000  0.17034000  0.52556700  1
  Mn  Mn27  1  0.17034000  0.82966000  0.47443300  1
  Mn  Mn28  1  0.50000000  0.00000000  0.00000000  1
  Mn  Mn29  1  0.00000000  0.50000000  0.00000000  1
  Mn  Mn30  1  0.50000000  0.00000000  0.50000000  1
  Mn  Mn31  1  0.50000000  0.50000000  0.00000000  1
  Mn  Mn32  1  0.00000000  0.50000000  0.50000000  1
  Mn  Mn33  1  0.50000000  0.50000000  0.50000000  1
  C  C0  1  0.16462400  0.32924900  0.25000000  1
  C  C1  1  0.83537600  0.67075100  0.75000000  1
  C  C2  1  0.67075100  0.83537600  0.25000000  1
  C  C3  1  0.32924900  0.16462400  0.75000000  1
  C  C4  1  0.16462400  0.83537600  0.25000000  1
  C  C5  1  0.83537600  0.16462400  0.75000000  1
loop_
_geom_bond_atom_site_label_1
_geom_bond_atom_site_label_2
_geom_bond_distance
_geom_bond_site_symmetry_2
Er0 Mn12 2.967030 1_555
Er0 Mn15 2.967030 1_554
Er0 Mn30 3.203533 1_565
Er0 Mn32 3.203533 1_555
Er0 Mn28 3.203533 1_565
Er0 Mn29 3.203533 1_555
Er0 Mn33 3.203539 1_555
Er0 Mn31 3.203539 1_555
Er1 Mn13 2.967030 1_555
Er1 Mn14 2.967030 1_556
Er1 Mn30 3.203533 1_555
Er1 Mn28 3.203533 1_556
Er1 Mn29 3.203533 1_656
Er1 Mn32 3.203533 1_655
Er1 Mn33 3.203539 1_555
Er1 Mn31 3.203539 1_556
Mn0 Mn28 2.427764 1_555
Mn0 Mn30 2.427764 1_555
Mn0 Mn13 2.606940 1_555
Mn0 Mn14 2.606940 1_555
Mn1 Mn30 2.427764 1_565
Mn1 Mn28 2.427764 1_566
Mn1 Mn15 2.606940 1_555
Mn1 Mn12 2.606940 1_555
Mn2 Mn32 2.427760 1_655
Mn2 Mn29 2.427760 1_655
Mn3 Mn32 2.427764 1_555
Mn10 Mn33 2.427761 1_555
Mn10 Mn31 2.427761 1_556
Mn10 Mn15 2.606947 1_555
Mn10 Mn12 2.606947 1_555
Mn11 Mn33 2.427761 1_555
Mn11 Mn31 2.427761 1_555
Mn11 Mn13 2.606947 1_555
Mn11 Mn14 2.606947 1_555
Mn12 Mn15 2.333756 1_555
Mn12 Mn7 2.606932 1_555
Mn12 Mn4 2.606932 1_555
Mn12 Mn3 2.606940 1_555
Mn12 Mn8 2.606947 1_555
Mn12 Mn30 2.607770 1_565
Mn12 Mn32 2.607770 1_555
Mn12 Mn33 2.607776 1_555
Mn12 Mn27 2.639036 1_555
Mn12 Mn21 2.639043 1_555
Mn12 Mn25 2.639043 1_555
Mn13 Mn14 2.333756 1_555
Mn13 Mn2 2.606932 1_555
Mn13 Mn9 2.606932 1_555
Mn13 Mn5 2.606940 1_555
Mn13 Mn6 2.606947 1_555
Mn13 Mn30 2.607770 1_555
Mn13 Mn32 2.607770 1_655
Mn13 Mn33 2.607776 1_555
Mn13 Mn26 2.639036 1_555
Mn13 Mn23 2.639043 1_555
Mn13 Mn19 2.639043 1_555
Mn14 Mn2 2.606932 1_555
Mn14 Mn9 2.606932 1_555
Mn14 Mn5 2.606940 1_555
Mn14 Mn6 2.606947 1_555
Mn14 Mn29 2.607770 1_655
Mn14 Mn28 2.607770 1_555
Mn14 Mn31 2.607776 1_555
Mn14 Mn24 2.639036 1_554
Mn14 Mn20 2.639043 1_554
Mn14 Mn17 2.639043 1_554
Mn15 Mn7 2.606932 1_555
Mn15 Mn4 2.606932 1_555
Mn15 Mn3 2.606940 1_555
Mn15 Mn8 2.606947 1_555
Mn15 Mn29 2.607770 1_556
Mn15 Mn28 2.607770 1_566
Mn15 Mn31 2.607776 1_556
Mn15 Mn22 2.639036 1_556
Mn15 Mn16 2.639043 1_556
Mn15 Mn18 2.639043 1_556
Mn16 Mn31 2.430206 1_555
Mn16 Mn29 2.430206 1_555
Mn17 Mn31 2.430206 1_556
Mn17 Mn29 2.430206 1_656
Mn18 Mn31 2.430206 1_555
Mn18 Mn28 2.430206 1_565
Mn19 Mn33 2.430206 1_555
Mn19 Mn32 2.430206 1_655
Mn20 Mn31 2.430206 1_556
Mn20 Mn28 2.430206 1_556
Mn21 Mn33 2.430206 1_555
Mn21 Mn32 2.430206 1_555
Mn22 Mn29 2.430206 1_555
Mn22 Mn28 2.430206 1_565
Mn23 Mn33 2.430206 1_555
Mn23 Mn30 2.430206 1_555
Mn24 Mn28 2.430206 1_556
Mn24 Mn29 2.430206 1_656
Mn25 Mn33 2.430206 1_555
Mn25 Mn30 2.430206 1_565
Mn26 Mn30 2.430206 1_555
Mn26 Mn32 2.430206 1_655
Mn27 Mn32 2.430206 1_555
Mn27 Mn30 2.430206 1_565
Mn28 Mn7 2.427760 1_544
Mn28 Mn9 2.427760 1_555
Mn29 Mn4 2.427760 1_554
Mn29 Mn3 2.427764 1_554
Mn29 Mn5 2.427764 1_455
Mn30 Mn7 2.427760 1_545
Mn30 Mn9 2.427760 1_555
Mn31 Mn8 2.427761 1_554
Mn31 Mn6 2.427761 1_555
Mn32 Mn4 2.427760 1_555
Mn32 Mn5 2.427764 1_455
Mn33 Mn8 2.427761 1_555
Mn33 Mn6 2.427761 1_555
C0 Mn16 1.857468 1_555
C0 Mn21 1.857468 1_555
C0 Mn2 1.908237 1_455
C0 Mn11 1.908237 1_555
C0 Er2 2.417527 1_555
C0 Er0 2.477508 1_555
C1 Mn19 1.857468 1_555
C1 Mn17 1.857468 1_555
C1 Mn4 1.908237 1_655
C1 Mn10 1.908237 1_555
C1 Er3 2.417527 1_665
C1 Er1 2.477508 1_555
C2 Mn25 1.857468 1_555
C2 Mn18 1.857468 1_555
C2 Mn9 1.908237 1_565
C2 Mn6 1.908237 1_555
C2 Er2 2.417527 1_665
C2 Er0 2.477508 1_555
C3 Mn20 1.857468 1_555
C3 Mn23 1.857468 1_555
C3 Mn7 1.908237 1_545
C3 Mn8 1.908237 1_555
C3 Er3 2.417527 1_555
C3 Er1 2.477508 1_555
C4 Mn22 1.857468 1_555
C4 Mn27 1.857468 1_555
C4 Mn5 1.908236 1_455
C4 Mn0 1.908236 1_565
C4 Er2 2.417520 1_565
C4 Er0 2.477509 1_555
C5 Mn26 1.857468 1_555
C5 Mn24 1.857468 1_555
C5 Mn1 1.908236 1_545
C5 Mn3 1.908236 1_655
C5 Er3 2.417520 1_655
C5 Er1 2.477509 1_555
