# generated using pymatgen
data_BPb3O4F
_symmetry_space_group_name_H-M   'P 1'
_cell_length_a   6.63050000
_cell_length_b   7.77748200
_cell_length_c   12.15854100
_cell_angle_alpha   90.00000000
_cell_angle_beta   90.00000000
_cell_angle_gamma   90.00000000
_symmetry_Int_Tables_number   1
_chemical_formula_structural   BPb3O4F
_chemical_formula_sum   'B4 Pb12 O16 F4'
_cell_volume   626.99886934
_cell_formula_units_Z   4
loop_
 _symmetry_equiv_pos_site_id
 _symmetry_equiv_pos_as_xyz
  1  'x, y, z'
loop_
 _atom_site_type_symbol
 _atom_site_label
 _atom_site_symmetry_multiplicity
 _atom_site_fract_x
 _atom_site_fract_y
 _atom_site_fract_z
 _atom_site_occupancy
  B  B0  1  0.25000000  0.97908300  0.50000000  1
  B  B1  1  0.75000000  0.02091700  0.00000000  1
  B  B2  1  0.75000000  0.02091700  0.50000000  1
  B  B3  1  0.25000000  0.97908300  0.00000000  1
  Pb  Pb0  1  0.46966800  0.32947400  0.39519900  1
  Pb  Pb1  1  0.53033200  0.67052600  0.89519900  1
  Pb  Pb2  1  0.03033200  0.32947400  0.60480100  1
  Pb  Pb3  1  0.96966800  0.67052600  0.10480100  1
  Pb  Pb4  1  0.53033200  0.67052600  0.60480100  1
  Pb  Pb5  1  0.46966800  0.32947400  0.10480100  1
  Pb  Pb6  1  0.96966800  0.67052600  0.39519900  1
  Pb  Pb7  1  0.03033200  0.32947400  0.89519900  1
  Pb  Pb8  1  0.43833400  0.89355900  0.25000000  1
  Pb  Pb9  1  0.56166600  0.10644100  0.75000000  1
  Pb  Pb10  1  0.06166600  0.89355900  0.75000000  1
  Pb  Pb11  1  0.93833400  0.10644100  0.25000000  1
  O  O0  1  0.58597500  0.19215900  0.25000000  1
  O  O1  1  0.41402500  0.80784100  0.75000000  1
  O  O2  1  0.91402500  0.19215900  0.75000000  1
  O  O3  1  0.08597500  0.80784100  0.25000000  1
  O  O4  1  0.29705700  0.06769700  0.40410900  1
  O  O5  1  0.70294300  0.93230300  0.90410900  1
  O  O6  1  0.20294300  0.06769700  0.59589100  1
  O  O7  1  0.79705700  0.93230300  0.09589100  1
  O  O8  1  0.70294300  0.93230300  0.59589100  1
  O  O9  1  0.29705700  0.06769700  0.09589100  1
  O  O10  1  0.79705700  0.93230300  0.40410900  1
  O  O11  1  0.20294300  0.06769700  0.90410900  1
  O  O12  1  0.75000000  0.20042400  0.50000000  1
  O  O13  1  0.25000000  0.79957600  0.00000000  1
  O  O14  1  0.25000000  0.79957600  0.50000000  1
  O  O15  1  0.75000000  0.20042400  0.00000000  1
  F  F0  1  0.20060800  0.42382600  0.25000000  1
  F  F1  1  0.79939200  0.57617400  0.75000000  1
  F  F2  1  0.29939200  0.42382600  0.75000000  1
  F  F3  1  0.70060800  0.57617400  0.25000000  1
loop_
_geom_bond_atom_site_label_1
_geom_bond_atom_site_label_2
_geom_bond_distance
_geom_bond_site_symmetry_2
B0 O6 1.389838 1_565
B0 O4 1.389838 1_565
B0 O14 1.396112 1_555
B1 O5 1.389838 1_544
B1 O7 1.389838 1_545
B1 O15 1.396112 1_555
B2 O8 1.389838 1_545
B2 O10 1.389838 1_545
B2 O12 1.396112 1_555
B3 O11 1.389838 1_564
B3 O9 1.389838 1_565
B3 O13 1.396112 1_555
O0 Pb5 2.202708 1_555
O0 Pb0 2.202708 1_555
O0 Pb11 2.429573 1_555
O0 Pb8 2.520248 1_545
O1 Pb1 2.202708 1_555
O1 Pb4 2.202708 1_555
O1 Pb10 2.429573 1_555
O1 Pb9 2.520248 1_565
O2 Pb2 2.202708 1_655
O2 Pb7 2.202708 1_655
O2 Pb9 2.429573 1_555
O2 Pb10 2.520248 1_645
O3 Pb3 2.202708 1_455
O3 Pb6 2.202708 1_455
O3 Pb8 2.429573 1_555
O3 Pb11 2.520248 1_465
O4 Pb0 2.338112 1_555
O4 Pb8 2.494526 1_545
O5 Pb1 2.338112 1_555
O5 Pb9 2.494526 1_565
O6 Pb2 2.338112 1_555
O6 Pb10 2.494526 1_545
O7 Pb3 2.338112 1_555
O7 Pb11 2.494526 1_565
O8 Pb4 2.338112 1_555
O8 Pb9 2.494526 1_565
O9 Pb5 2.338112 1_555
O9 Pb8 2.494526 1_545
O10 Pb6 2.338112 1_555
O10 Pb11 2.494526 1_565
O11 Pb7 2.338112 1_555
O11 Pb10 2.494526 1_545
O12 Pb0 2.466973 1_555
O12 Pb2 2.466973 1_655
O13 Pb3 2.466973 1_455
O13 Pb1 2.466973 1_554
O14 Pb6 2.466973 1_455
O14 Pb4 2.466973 1_555
O15 Pb7 2.466973 1_654
O15 Pb5 2.466973 1_555
F0 Pb5 2.614923 1_555
F0 Pb0 2.614923 1_555
F1 Pb4 2.614923 1_555
F1 Pb1 2.614923 1_555
F2 Pb2 2.614923 1_555
F2 Pb7 2.614923 1_555
F3 Pb3 2.614923 1_555
F3 Pb6 2.614923 1_555
