# generated using pymatgen
data_Pr(Cd10Ni)2
_symmetry_space_group_name_H-M   'P 1'
_cell_length_a   11.18041887
_cell_length_b   11.18041887
_cell_length_c   11.18041887
_cell_angle_alpha   60.00000000
_cell_angle_beta   60.00000000
_cell_angle_gamma   60.00000000
_symmetry_Int_Tables_number   1
_chemical_formula_structural   Pr(Cd10Ni)2
_chemical_formula_sum   'Pr2 Cd40 Ni4'
_cell_volume   988.23271254
_cell_formula_units_Z   2
loop_
 _symmetry_equiv_pos_site_id
 _symmetry_equiv_pos_as_xyz
  1  'x, y, z'
loop_
 _atom_site_type_symbol
 _atom_site_label
 _atom_site_symmetry_multiplicity
 _atom_site_fract_x
 _atom_site_fract_y
 _atom_site_fract_z
 _atom_site_occupancy
  Pr  Pr0  1  0.50000000  0.50000000  0.50000000  1
  Pr  Pr1  1  0.75000000  0.75000000  0.75000000  1
  Cd  Cd0  1  0.56909100  0.30017800  0.30017800  1
  Cd  Cd1  1  0.30017800  0.56909100  0.83055200  1
  Cd  Cd2  1  0.30017800  0.83055200  0.56909100  1
  Cd  Cd3  1  0.83055200  0.30017800  0.30017800  1
  Cd  Cd4  1  0.30017800  0.30017800  0.56909100  1
  Cd  Cd5  1  0.56909100  0.83055200  0.30017800  1
  Cd  Cd6  1  0.83055200  0.56909100  0.30017800  1
  Cd  Cd7  1  0.30017800  0.30017800  0.83055200  1
  Cd  Cd8  1  0.30017800  0.56909100  0.30017800  1
  Cd  Cd9  1  0.83055200  0.30017800  0.56909100  1
  Cd  Cd10  1  0.56909100  0.30017800  0.83055200  1
  Cd  Cd11  1  0.30017800  0.83055200  0.30017800  1
  Cd  Cd12  1  0.68090900  0.94982200  0.94982200  1
  Cd  Cd13  1  0.94982200  0.68090900  0.41944800  1
  Cd  Cd14  1  0.94982200  0.41944800  0.68090900  1
  Cd  Cd15  1  0.41944800  0.94982200  0.94982200  1
  Cd  Cd16  1  0.94982200  0.94982200  0.68090900  1
  Cd  Cd17  1  0.68090900  0.41944800  0.94982200  1
  Cd  Cd18  1  0.41944800  0.68090900  0.94982200  1
  Cd  Cd19  1  0.94982200  0.94982200  0.41944800  1
  Cd  Cd20  1  0.94982200  0.68090900  0.94982200  1
  Cd  Cd21  1  0.41944800  0.94982200  0.68090900  1
  Cd  Cd22  1  0.68090900  0.94982200  0.41944800  1
  Cd  Cd23  1  0.94982200  0.41944800  0.94982200  1
  Cd  Cd24  1  0.86343000  0.86343000  0.13657000  1
  Cd  Cd25  1  0.13657000  0.13657000  0.86343000  1
  Cd  Cd26  1  0.86343000  0.13657000  0.86343000  1
  Cd  Cd27  1  0.13657000  0.86343000  0.13657000  1
  Cd  Cd28  1  0.13657000  0.86343000  0.86343000  1
  Cd  Cd29  1  0.86343000  0.13657000  0.13657000  1
  Cd  Cd30  1  0.38657000  0.38657000  0.11343000  1
  Cd  Cd31  1  0.11343000  0.11343000  0.38657000  1
  Cd  Cd32  1  0.38657000  0.11343000  0.38657000  1
  Cd  Cd33  1  0.11343000  0.38657000  0.11343000  1
  Cd  Cd34  1  0.11343000  0.38657000  0.38657000  1
  Cd  Cd35  1  0.38657000  0.11343000  0.11343000  1
  Cd  Cd36  1  0.12500000  0.62500000  0.62500000  1
  Cd  Cd37  1  0.62500000  0.12500000  0.62500000  1
  Cd  Cd38  1  0.62500000  0.62500000  0.12500000  1
  Cd  Cd39  1  0.62500000  0.62500000  0.62500000  1
  Ni  Ni0  1  0.62500000  0.12500000  0.12500000  1
  Ni  Ni1  1  0.12500000  0.62500000  0.12500000  1
  Ni  Ni2  1  0.12500000  0.12500000  0.62500000  1
  Ni  Ni3  1  0.12500000  0.12500000  0.12500000  1
loop_
_geom_bond_atom_site_label_1
_geom_bond_atom_site_label_2
_geom_bond_distance
_geom_bond_site_symmetry_2
Cd0 Cd3 2.923243 1_555
Cd0 Cd29 2.971253 1_555
Cd0 Cd4 3.006560 1_555
Cd0 Cd8 3.006560 1_555
Cd0 Ni0 3.074102 1_555
Cd0 Cd32 3.119234 1_555
Cd0 Cd30 3.119234 1_555
Cd0 Cd22 3.198682 1_545
Cd0 Cd17 3.198682 1_554
Cd0 Cd37 3.368764 1_555
Cd0 Cd38 3.368764 1_555
Cd0 Pr0 3.481193 1_555
Cd1 Cd2 2.923243 1_555
Cd1 Cd28 2.971257 1_555
Cd1 Cd7 3.006560 1_555
Cd1 Cd10 3.006560 1_555
Cd1 Ni1 3.074112 1_556
Cd1 Cd33 3.119238 1_556
Cd1 Cd30 3.119243 1_556
Cd1 Cd20 3.198682 1_455
Cd1 Cd18 3.198701 1_555
Cd1 Cd36 3.368754 1_555
Cd1 Cd39 3.368763 1_555
Cd1 Pr0 3.481183 1_555
Cd2 Cd28 2.971257 1_555
Cd2 Cd5 3.006560 1_555
Cd2 Ni2 3.074112 1_565
Cd2 Cd31 3.119238 1_565
Cd2 Cd32 3.119243 1_565
Cd2 Cd21 3.198701 1_555
Cd2 Cd36 3.368754 1_555
Cd2 Cd39 3.368763 1_555
Cd2 Pr0 3.481183 1_555
Cd3 Cd6 3.006560 1_555
Cd3 Cd9 3.006560 1_555
Cd3 Ni3 3.074107 1_655
Cd3 Cd31 3.119243 1_655
Cd3 Cd33 3.119243 1_655
Cd3 Cd37 3.368759 1_555
Cd3 Cd38 3.368759 1_555
Cd3 Pr0 3.481188 1_555
Cd4 Cd7 2.923243 1_555
Cd4 Cd8 3.006560 1_555
Cd4 Ni2 3.074102 1_555
Cd4 Pr0 3.481193 1_555
Cd5 Cd6 2.923243 1_555
Cd5 Ni0 3.074112 1_565
Cd5 Pr0 3.481183 1_555
Cd6 Cd9 3.006560 1_555
Cd6 Ni1 3.074112 1_655
Cd6 Pr0 3.481183 1_555
Cd7 Ni3 3.074107 1_556
Cd7 Pr0 3.481188 1_555
Cd8 Ni1 3.074102 1_555
Cd8 Pr0 3.481193 1_555
Cd9 Ni2 3.074112 1_655
Cd9 Pr0 3.481183 1_555
Cd10 Cd9 2.923243 1_555
Cd10 Cd26 2.971257 1_555
Cd10 Cd7 3.006560 1_555
Cd10 Ni0 3.074112 1_556
Cd10 Cd35 3.119238 1_556
Cd10 Cd30 3.119243 1_556
Cd10 Cd12 3.198682 1_545
Cd10 Cd17 3.198701 1_555
Cd10 Cd37 3.368754 1_555
Cd10 Cd39 3.368763 1_555
Cd10 Pr0 3.481183 1_555
Cd11 Cd8 2.923243 1_555
Cd11 Cd27 2.971247 1_555
Cd11 Cd2 3.006560 1_555
Cd11 Cd5 3.006560 1_555
Cd11 Ni3 3.074107 1_565
Cd11 Cd35 3.119243 1_565
Cd11 Cd31 3.119243 1_565
Cd11 Cd15 3.198683 1_554
Cd11 Cd19 3.198683 1_455
Cd11 Cd36 3.368759 1_555
Cd11 Cd38 3.368759 1_555
Cd11 Pr0 3.481188 1_555
Cd12 Cd15 2.923243 1_555
Cd12 Cd35 2.971253 1_566
Cd12 Cd16 3.006560 1_555
Cd12 Cd20 3.006560 1_555
Cd12 Ni0 3.074102 1_566
Cd12 Cd24 3.119234 1_556
Cd12 Cd26 3.119234 1_565
Cd12 Cd5 3.198682 1_556
Cd12 Cd38 3.368764 1_556
Cd12 Cd37 3.368764 1_565
Cd12 Pr1 3.481193 1_555
Cd13 Cd14 2.923243 1_555
Cd13 Cd34 2.971257 1_655
Cd13 Cd22 3.006560 1_555
Cd13 Cd19 3.006560 1_555
Cd13 Ni1 3.074112 1_655
Cd13 Cd27 3.119238 1_655
Cd13 Cd24 3.119243 1_555
Cd13 Cd8 3.198682 1_655
Cd13 Cd6 3.198701 1_555
Cd13 Cd36 3.368754 1_655
Cd13 Cd39 3.368763 1_555
Cd13 Pr1 3.481183 1_555
Cd14 Cd34 2.971257 1_655
Cd14 Cd17 3.006560 1_555
Cd14 Cd23 3.006560 1_555
Cd14 Ni2 3.074112 1_655
Cd14 Cd25 3.119238 1_655
Cd14 Cd26 3.119243 1_555
Cd14 Cd4 3.198682 1_655
Cd14 Cd9 3.198701 1_555
Cd14 Cd36 3.368754 1_655
Cd14 Cd39 3.368763 1_555
Cd14 Pr1 3.481183 1_555
Cd15 Cd35 2.971247 1_566
Cd15 Cd18 3.006560 1_555
Cd15 Cd21 3.006560 1_555
Cd15 Ni3 3.074107 1_566
Cd15 Cd25 3.119243 1_565
Cd15 Cd27 3.119243 1_556
Cd15 Cd7 3.198683 1_565
Cd15 Cd37 3.368759 1_565
Cd15 Cd38 3.368759 1_556
Cd15 Pr1 3.481188 1_555
Cd16 Cd19 2.923243 1_555
Cd16 Cd31 2.971253 1_665
Cd16 Cd20 3.006560 1_555
Cd16 Ni2 3.074102 1_665
Cd16 Cd28 3.119234 1_655
Cd16 Cd26 3.119234 1_565
Cd16 Cd9 3.198682 1_565
Cd16 Cd2 3.198682 1_655
Cd16 Cd37 3.368764 1_565
Cd16 Cd36 3.368764 1_655
Cd16 Pr1 3.481193 1_555
Cd17 Cd18 2.923243 1_555
Cd17 Cd30 2.971257 1_556
Cd17 Cd23 3.006560 1_555
Cd17 Ni0 3.074112 1_556
Cd17 Cd29 3.119238 1_556
Cd17 Cd26 3.119243 1_555
Cd17 Cd38 3.368754 1_556
Cd17 Cd39 3.368763 1_555
Cd17 Pr1 3.481183 1_555
Cd18 Cd30 2.971257 1_556
Cd18 Cd21 3.006560 1_555
Cd18 Ni1 3.074112 1_556
Cd18 Cd27 3.119238 1_556
Cd18 Cd28 3.119243 1_555
Cd18 Cd8 3.198682 1_556
Cd18 Cd38 3.368754 1_556
Cd18 Cd39 3.368763 1_555
Cd18 Pr1 3.481183 1_555
Cd19 Cd31 2.971247 1_665
Cd19 Cd22 3.006560 1_555
Cd19 Ni3 3.074107 1_665
Cd19 Cd29 3.119243 1_565
Cd19 Cd27 3.119243 1_655
Cd19 Cd3 3.198683 1_565
Cd19 Cd37 3.368759 1_565
Cd19 Cd36 3.368759 1_655
Cd19 Pr1 3.481188 1_555
Cd20 Cd23 2.923243 1_555
Cd20 Cd33 2.971253 1_656
Cd20 Ni1 3.074102 1_656
Cd20 Cd28 3.119234 1_655
Cd20 Cd24 3.119234 1_556
Cd20 Cd6 3.198682 1_556
Cd20 Cd38 3.368764 1_556
Cd20 Cd36 3.368764 1_655
Cd20 Pr1 3.481193 1_555
Cd21 Cd22 2.923243 1_555
Cd21 Cd32 2.971257 1_565
Cd21 Ni2 3.074112 1_565
Cd21 Cd25 3.119238 1_565
Cd21 Cd28 3.119243 1_555
Cd21 Cd4 3.198682 1_565
Cd21 Cd37 3.368754 1_565
Cd21 Cd39 3.368763 1_555
Cd21 Pr1 3.481183 1_555
Cd22 Cd32 2.971257 1_565
Cd22 Ni0 3.074112 1_565
Cd22 Cd29 3.119238 1_565
Cd22 Cd24 3.119243 1_555
Cd22 Cd5 3.198701 1_555
Cd22 Cd37 3.368754 1_565
Cd22 Cd39 3.368763 1_555
Cd22 Pr1 3.481183 1_555
Cd23 Cd33 2.971247 1_656
Cd23 Ni3 3.074107 1_656
Cd23 Cd29 3.119243 1_556
Cd23 Cd25 3.119243 1_655
Cd23 Cd3 3.198683 1_556
Cd23 Cd7 3.198683 1_655
Cd23 Cd38 3.368759 1_556
Cd23 Cd36 3.368759 1_655
Cd23 Pr1 3.481188 1_555
Cd24 Ni0 2.801085 1_565
Cd24 Ni1 2.801085 1_655
Cd24 Cd6 2.971257 1_555
Cd24 Cd5 2.971257 1_555
Cd24 Cd28 3.053820 1_654
Cd24 Cd26 3.053820 1_564
Cd24 Cd27 3.053820 1_655
Cd24 Cd29 3.053820 1_565
Cd25 Ni3 2.801085 1_556
Cd25 Ni2 2.801085 1_555
Cd25 Cd7 2.971247 1_555
Cd25 Cd4 2.971253 1_555
Cd25 Cd26 3.053820 1_455
Cd25 Cd28 3.053820 1_545
Cd25 Cd27 3.053820 1_546
Cd25 Cd29 3.053820 1_456
Cd26 Ni0 2.801085 1_556
Cd26 Ni2 2.801085 1_655
Cd26 Cd9 2.971257 1_555
Cd26 Cd28 3.053820 1_645
Cd26 Cd29 3.053820 1_556
Cd27 Ni3 2.801085 1_565
Cd27 Ni1 2.801085 1_555
Cd27 Cd8 2.971253 1_555
Cd27 Cd28 3.053820 1_554
Cd27 Cd29 3.053820 1_465
Cd28 Ni1 2.801085 1_556
Cd28 Ni2 2.801085 1_565
Cd29 Ni3 2.801085 1_655
Cd29 Ni0 2.801085 1_555
Cd29 Cd3 2.971247 1_555
Cd30 Ni1 2.801085 1_555
Cd30 Ni0 2.801085 1_555
Cd30 Cd34 3.053820 1_555
Cd30 Cd35 3.053820 1_555
Cd30 Cd32 3.053820 1_555
Cd30 Cd33 3.053820 1_555
Cd30 Cd8 3.119234 1_555
Cd31 Ni2 2.801085 1_555
Cd31 Ni3 2.801085 1_555
Cd31 Cd34 3.053820 1_555
Cd31 Cd33 3.053820 1_555
Cd31 Cd35 3.053820 1_555
Cd31 Cd32 3.053820 1_555
Cd31 Cd9 3.119238 1_455
Cd32 Ni0 2.801085 1_555
Cd32 Ni2 2.801085 1_555
Cd32 Cd34 3.053820 1_555
Cd32 Cd35 3.053820 1_555
Cd32 Cd4 3.119234 1_555
Cd32 Cd5 3.119243 1_545
Cd33 Ni1 2.801085 1_555
Cd33 Ni3 2.801085 1_555
Cd33 Cd34 3.053820 1_555
Cd33 Cd35 3.053820 1_555
Cd33 Cd6 3.119238 1_455
Cd33 Cd7 3.119243 1_554
Cd34 Ni1 2.801085 1_555
Cd34 Ni2 2.801085 1_555
Cd34 Cd4 3.119234 1_555
Cd34 Cd8 3.119234 1_555
Cd34 Cd6 3.119243 1_455
Cd34 Cd9 3.119243 1_455
Cd35 Ni0 2.801085 1_555
Cd35 Ni3 2.801085 1_555
Cd35 Cd5 3.119238 1_545
Cd35 Cd7 3.119243 1_554
Cd36 Cd7 3.368759 1_555
Cd36 Cd4 3.368764 1_555
Cd36 Cd8 3.368764 1_555
Cd36 Pr0 3.423290 1_555
Cd36 Pr1 3.423290 1_455
Cd37 Cd9 3.368754 1_555
Cd37 Cd7 3.368759 1_555
Cd37 Cd4 3.368764 1_555
Cd37 Pr1 3.423290 1_545
Cd37 Pr0 3.423290 1_555
Cd38 Cd6 3.368754 1_555
Cd38 Cd5 3.368754 1_555
Cd38 Cd8 3.368764 1_555
Cd38 Pr0 3.423290 1_555
Cd38 Pr1 3.423290 1_554
Cd39 Cd9 3.368763 1_555
Cd39 Cd5 3.368763 1_555
Cd39 Cd6 3.368763 1_555
Cd39 Pr1 3.423290 1_555
Cd39 Pr0 3.423290 1_555
