# generated using pymatgen
data_K2TaNbO6
_symmetry_space_group_name_H-M   'P 1'
_cell_length_a   4.05150100
_cell_length_b   4.05150100
_cell_length_c   8.09989100
_cell_angle_alpha   90.00000000
_cell_angle_beta   90.00000000
_cell_angle_gamma   90.00000000
_symmetry_Int_Tables_number   1
_chemical_formula_structural   K2TaNbO6
_chemical_formula_sum   'K2 Ta1 Nb1 O6'
_cell_volume   132.95695966
_cell_formula_units_Z   1
loop_
 _symmetry_equiv_pos_site_id
 _symmetry_equiv_pos_as_xyz
  1  'x, y, z'
loop_
 _atom_site_type_symbol
 _atom_site_label
 _atom_site_symmetry_multiplicity
 _atom_site_fract_x
 _atom_site_fract_y
 _atom_site_fract_z
 _atom_site_occupancy
  K  K0  1  0.50000000  0.50000000  0.25118800  1
  K  K1  1  0.50000000  0.50000000  0.74881200  1
  Ta  Ta0  1  0.00000000  0.00000000  0.00000000  1
  Nb  Nb0  1  0.00000000  0.00000000  0.50000000  1
  O  O0  1  0.00000000  0.00000000  0.24797800  1
  O  O1  1  0.00000000  0.00000000  0.75202200  1
  O  O2  1  0.00000000  0.50000000  0.00000000  1
  O  O3  1  0.50000000  0.00000000  0.00000000  1
  O  O4  1  0.00000000  0.50000000  0.50000000  1
  O  O5  1  0.50000000  0.00000000  0.50000000  1
loop_
_geom_bond_atom_site_label_1
_geom_bond_atom_site_label_2
_geom_bond_distance
_geom_bond_site_symmetry_2
K0 O5 2.857499 1_565
K0 O4 2.857499 1_555
K0 O4 2.857499 1_655
K0 O5 2.857499 1_555
K0 O0 2.864962 1_565
K0 O0 2.864962 1_555
K0 O0 2.864962 1_655
K0 O0 2.864962 1_665
K0 O3 2.871105 1_565
K0 O2 2.871105 1_655
K0 O2 2.871105 1_555
K0 O3 2.871105 1_555
K1 O4 2.857499 1_555
K1 O4 2.857499 1_655
K1 O5 2.857499 1_555
K1 O5 2.857499 1_565
K1 O1 2.864962 1_655
K1 O1 2.864962 1_565
K1 O1 2.864962 1_665
K1 O1 2.864962 1_555
K1 O2 2.871105 1_556
K1 O2 2.871105 1_656
K1 O3 2.871105 1_566
K1 O3 2.871105 1_556
Nb0 O4 2.025751 1_555
Nb0 O5 2.025751 1_555
Nb0 O5 2.025751 1_455
Nb0 O4 2.025751 1_545
Nb0 O1 2.041351 1_555
Nb0 O0 2.041351 1_555
O0 Ta0 2.008595 1_555
O1 Ta0 2.008595 1_556
O2 Ta0 2.025751 1_555
O2 Ta0 2.025751 1_565
O3 Ta0 2.025751 1_555
O3 Ta0 2.025751 1_655
