# generated using pymatgen
data_ErGa4Ni
_symmetry_space_group_name_H-M   'P 1'
_cell_length_a   7.77836281
_cell_length_b   7.77836281
_cell_length_c   6.50951507
_cell_angle_alpha   90.00000000
_cell_angle_beta   90.00000000
_cell_angle_gamma   149.82039435
_symmetry_Int_Tables_number   1
_chemical_formula_structural   ErGa4Ni
_chemical_formula_sum   'Er2 Ga8 Ni2'
_cell_volume   197.99057713
_cell_formula_units_Z   2
loop_
 _symmetry_equiv_pos_site_id
 _symmetry_equiv_pos_as_xyz
  1  'x, y, z'
loop_
 _atom_site_type_symbol
 _atom_site_label
 _atom_site_symmetry_multiplicity
 _atom_site_fract_x
 _atom_site_fract_y
 _atom_site_fract_z
 _atom_site_occupancy
  Er  Er0  1  0.87965014  0.12034986  0.75000000  1
  Er  Er1  1  0.12034986  0.87965014  0.25000000  1
  Ga  Ga0  1  0.50000000  0.50000000  0.00000000  1
  Ga  Ga1  1  0.50000000  0.50000000  0.50000000  1
  Ga  Ga2  1  0.06997315  0.93002685  0.75000000  1
  Ga  Ga3  1  0.93002685  0.06997315  0.25000000  1
  Ga  Ga4  1  0.68517138  0.31482862  0.94872257  1
  Ga  Ga5  1  0.31482862  0.68517138  0.05127743  1
  Ga  Ga6  1  0.68517138  0.31482862  0.55127743  1
  Ga  Ga7  1  0.31482862  0.68517138  0.44872257  1
  Ni  Ni0  1  0.22430502  0.77569498  0.75000000  1
  Ni  Ni1  1  0.77569498  0.22430502  0.25000000  1
loop_
_geom_bond_atom_site_label_1
_geom_bond_atom_site_label_2
_geom_bond_distance
_geom_bond_site_symmetry_2
Er0 Ga2 2.858711 1_645
Er0 Ga5 2.982387 1_656
Er0 Ga7 2.982387 1_655
Er0 Ga7 2.982387 1_545
Er0 Ga5 2.982387 1_546
Er0 Ni0 3.089484 1_655
Er0 Ni0 3.089484 1_545
Er0 Ga1 3.164899 1_545
Er0 Ga0 3.164899 1_546
Er0 Ga0 3.164899 1_656
Er0 Ga1 3.164899 1_655
Er0 Ga6 3.194743 1_555
Er0 Ga4 3.194743 1_555
Er0 Ga3 3.341557 1_556
Er0 Ga3 3.341557 1_555
Er1 Ga3 2.858711 1_465
Er1 Ga6 2.982387 1_565
Er1 Ga4 2.982387 1_454
Er1 Ga6 2.982387 1_455
Er1 Ga4 2.982387 1_564
Er1 Ni1 3.089484 1_565
Er1 Ni1 3.089484 1_455
Er1 Ga1 3.164899 1_565
Er1 Ga0 3.164899 1_565
Er1 Ga0 3.164899 1_455
Er1 Ga1 3.164899 1_455
Er1 Ga7 3.194743 1_555
Er1 Ga5 3.194743 1_555
Er1 Ga2 3.341557 1_554
Er1 Ga2 3.341557 1_555
Ga0 Ga4 2.801290 1_554
Ga0 Ga5 2.801290 1_555
Ga0 Ga3 2.802405 1_565
Ga0 Ga2 2.802405 1_654
Ga0 Ga3 2.802405 1_455
Ga0 Ga2 2.802405 1_544
Ga1 Ga6 2.801290 1_555
Ga1 Ga7 2.801290 1_555
Ga1 Ga3 2.802405 1_565
Ga1 Ga3 2.802405 1_455
Ga1 Ga2 2.802405 1_545
Ga1 Ga2 2.802405 1_655
Ga2 Ni0 2.318113 1_555
Ga2 Ga6 2.961051 1_565
Ga2 Ga4 2.961051 1_565
Ga2 Ga4 2.961051 1_455
Ga2 Ga6 2.961051 1_455
Ga3 Ni1 2.318113 1_555
Ga3 Ga7 2.961051 1_655
Ga3 Ga5 2.961051 1_655
Ga3 Ga7 2.961051 1_545
Ga3 Ga5 2.961051 1_545
Ga4 Ni1 2.386410 1_556
Ga4 Ni0 2.473732 1_545
Ga4 Ni0 2.473732 1_655
Ga4 Ga6 2.587175 1_555
Ga4 Ga5 2.887709 1_546
Ga4 Ga5 2.887709 1_656
Ga5 Ni0 2.386410 1_554
Ga5 Ni1 2.473732 1_565
Ga5 Ni1 2.473732 1_455
Ga5 Ga7 2.587175 1_555
Ga6 Ni1 2.386410 1_555
Ga6 Ni0 2.473732 1_545
Ga6 Ni0 2.473732 1_655
Ga6 Ga7 2.887709 1_545
Ga6 Ga7 2.887709 1_655
Ga7 Ni0 2.386410 1_555
Ga7 Ni1 2.473732 1_565
Ga7 Ni1 2.473732 1_455
