# generated using pymatgen
data_Na3Ca2TaO6
_symmetry_space_group_name_H-M   'P 1'
_cell_length_a   10.99375380
_cell_length_b   10.44012881
_cell_length_c   5.83263614
_cell_angle_alpha   79.51942373
_cell_angle_beta   69.03491466
_cell_angle_gamma   31.44566161
_symmetry_Int_Tables_number   1
_chemical_formula_structural   Na3Ca2TaO6
_chemical_formula_sum   'Na6 Ca4 Ta2 O12'
_cell_volume   315.49625550
_cell_formula_units_Z   2
loop_
 _symmetry_equiv_pos_site_id
 _symmetry_equiv_pos_as_xyz
  1  'x, y, z'
loop_
 _atom_site_type_symbol
 _atom_site_label
 _atom_site_symmetry_multiplicity
 _atom_site_fract_x
 _atom_site_fract_y
 _atom_site_fract_z
 _atom_site_occupancy
  Na  Na0  1  0.00000000  0.00000000  0.00000000  1
  Na  Na1  1  0.08633000  0.08633000  0.41367000  1
  Na  Na2  1  0.83633000  0.83633000  0.16367000  1
  Na  Na3  1  0.16367000  0.16367000  0.83633000  1
  Na  Na4  1  0.25000000  0.25000000  0.25000000  1
  Na  Na5  1  0.41367000  0.41367000  0.08633000  1
  Ca  Ca0  1  0.58056800  0.58056800  0.91943200  1
  Ca  Ca1  1  0.91943200  0.91943200  0.58056800  1
  Ca  Ca2  1  0.66943200  0.66943200  0.33056800  1
  Ca  Ca3  1  0.33056800  0.33056800  0.66943200  1
  Ta  Ta0  1  0.75000000  0.75000000  0.75000000  1
  Ta  Ta1  1  0.50000000  0.50000000  0.50000000  1
  O  O0  1  0.28805500  0.71194500  0.28805500  1
  O  O1  1  0.71194500  0.28805500  0.71194500  1
  O  O2  1  0.96194500  0.53805500  0.96194500  1
  O  O3  1  0.53805500  0.96194500  0.53805500  1
  O  O4  1  0.20689000  0.64594400  0.78398000  1
  O  O5  1  0.36318600  0.78398000  0.64594400  1
  O  O6  1  0.78398000  0.36318600  0.20689000  1
  O  O7  1  0.64594400  0.20689000  0.36318600  1
  O  O8  1  0.60405600  0.04311000  0.88681400  1
  O  O9  1  0.88681400  0.46602000  0.60405600  1
  O  O10  1  0.46602000  0.88681400  0.04311000  1
  O  O11  1  0.04311000  0.60405600  0.46602000  1
loop_
_geom_bond_atom_site_label_1
_geom_bond_atom_site_label_2
_geom_bond_distance
_geom_bond_site_symmetry_2
Na0 O5 2.392155 1_544
Na0 O6 2.392155 1_455
Na0 O7 2.392155 1_455
Na0 O4 2.392155 1_544
Na0 O1 2.759500 1_454
Na0 O0 2.759500 1_545
Na1 O0 2.412715 1_545
Na1 O1 2.412715 1_455
Na1 O6 2.462756 1_455
Na1 O5 2.462756 1_545
Na1 O9 2.603922 1_455
Na1 O10 2.603922 1_545
Na2 O2 2.412715 1_554
Na2 O3 2.412715 1_555
Na2 O8 2.462756 1_564
Na2 O11 2.462756 1_655
Na2 O4 2.603922 1_654
Na2 O7 2.603922 1_565
Na3 O3 2.412715 1_545
Na3 O2 2.412715 1_455
Na3 O10 2.462756 1_546
Na3 O9 2.462756 1_455
Na3 O6 2.603922 1_456
Na3 O5 2.603922 1_545
Na4 O10 2.392155 1_545
Na4 O9 2.392155 1_455
Na4 O8 2.392155 1_554
Na4 O11 2.392155 1_555
Na4 O3 2.759500 1_545
Na4 O2 2.759500 1_454
Na5 O1 2.412715 1_554
Na5 O0 2.412715 1_555
Na5 O4 2.462756 1_554
Na5 O7 2.462756 1_555
Na5 O11 2.603922 1_555
Na5 O8 2.603922 1_554
Ca0 O1 2.333352 1_555
Ca0 O0 2.333352 1_556
Ca0 O5 2.366790 1_555
Ca0 O6 2.366790 1_556
Ca0 O9 2.376473 1_555
Ca0 O10 2.376473 1_556
Ca1 O0 2.333352 1_655
Ca1 O1 2.333352 1_565
Ca1 O7 2.366790 1_565
Ca1 O4 2.366790 1_655
Ca1 O8 2.376473 1_565
Ca1 O11 2.376473 1_655
Ca2 O3 2.333352 1_555
Ca2 O2 2.333352 1_554
Ca2 O9 2.366790 1_555
Ca2 O10 2.366790 1_555
Ca2 O6 2.376473 1_555
Ca2 O5 2.376473 1_555
Ca3 O3 2.333352 1_545
Ca3 O2 2.333352 1_455
Ca3 O8 2.366790 1_555
Ca3 O11 2.366790 1_555
Ca3 O4 2.376473 1_555
Ca3 O7 2.376473 1_555
O0 Ta1 2.030384 1_555
O1 Ta1 2.030384 1_555
O2 Ta0 2.030384 1_555
O3 Ta0 2.030384 1_555
O4 Ta1 2.042055 1_555
O5 Ta1 2.042055 1_555
O6 Ta1 2.042055 1_555
O7 Ta1 2.042055 1_555
O8 Ta0 2.042055 1_545
O9 Ta0 2.042055 1_555
O10 Ta0 2.042055 1_554
O11 Ta0 2.042055 1_455
