# generated using pymatgen
data_CeIn2Pd3
_symmetry_space_group_name_H-M   'P 1'
_cell_length_a   4.69293300
_cell_length_b   9.95125400
_cell_length_c   10.26594500
_cell_angle_alpha   90.00000000
_cell_angle_beta   90.00000000
_cell_angle_gamma   90.00000000
_symmetry_Int_Tables_number   1
_chemical_formula_structural   CeIn2Pd3
_chemical_formula_sum   'Ce4 In8 Pd12'
_cell_volume   479.42546551
_cell_formula_units_Z   4
loop_
 _symmetry_equiv_pos_site_id
 _symmetry_equiv_pos_as_xyz
  1  'x, y, z'
loop_
 _atom_site_type_symbol
 _atom_site_label
 _atom_site_symmetry_multiplicity
 _atom_site_fract_x
 _atom_site_fract_y
 _atom_site_fract_z
 _atom_site_occupancy
  Ce  Ce0  1  0.25000000  0.44181900  0.73012500  1
  Ce  Ce1  1  0.25000000  0.05818100  0.23012500  1
  Ce  Ce2  1  0.75000000  0.55818100  0.26987500  1
  Ce  Ce3  1  0.75000000  0.94181900  0.76987500  1
  In  In0  1  0.25000000  0.88507900  0.51681500  1
  In  In1  1  0.25000000  0.61492100  0.01681500  1
  In  In2  1  0.75000000  0.11492100  0.48318500  1
  In  In3  1  0.75000000  0.38507900  0.98318500  1
  In  In4  1  0.25000000  0.15950500  0.89529300  1
  In  In5  1  0.25000000  0.34049500  0.39529300  1
  In  In6  1  0.75000000  0.84049500  0.10470700  1
  In  In7  1  0.75000000  0.65950500  0.60470700  1
  Pd  Pd0  1  0.25000000  0.14662900  0.61987500  1
  Pd  Pd1  1  0.25000000  0.35337100  0.11987500  1
  Pd  Pd2  1  0.75000000  0.85337100  0.38012500  1
  Pd  Pd3  1  0.75000000  0.64662900  0.88012500  1
  Pd  Pd4  1  0.25000000  0.73712500  0.74369500  1
  Pd  Pd5  1  0.25000000  0.76287500  0.24369500  1
  Pd  Pd6  1  0.75000000  0.26287500  0.25630500  1
  Pd  Pd7  1  0.75000000  0.23712500  0.75630500  1
  Pd  Pd8  1  0.25000000  0.89524500  0.97352500  1
  Pd  Pd9  1  0.25000000  0.60475500  0.47352500  1
  Pd  Pd10  1  0.75000000  0.10475500  0.02647500  1
  Pd  Pd11  1  0.75000000  0.39524500  0.52647500  1
loop_
_geom_bond_atom_site_label_1
_geom_bond_atom_site_label_2
_geom_bond_distance
_geom_bond_site_symmetry_2
Ce0 Pd4 2.941965 1_555
Ce0 Pd9 3.093254 1_555
Ce0 Pd7 3.118870 1_455
Ce0 Pd7 3.118870 1_555
Ce0 Pd0 3.148013 1_555
Ce0 Pd11 3.176723 1_455
Ce0 Pd11 3.176723 1_555
Ce0 In4 3.281415 1_555
Ce0 In1 3.410188 1_556
Ce0 In7 3.443295 1_455
Ce0 In7 3.443295 1_555
Ce0 Pd3 3.468586 1_555
Ce0 Pd3 3.468586 1_455
Ce0 In3 3.545956 1_455
Ce0 In3 3.545956 1_555
Ce0 In5 3.582201 1_555
Ce1 Pd5 2.941965 1_545
Ce1 Pd8 3.093254 1_544
Ce1 Pd6 3.118870 1_455
Ce1 Pd6 3.118870 1_555
Ce1 Pd1 3.148013 1_555
Ce1 Pd10 3.176723 1_455
Ce1 Pd10 3.176723 1_555
Ce1 In5 3.281415 1_555
Ce1 In0 3.410188 1_545
Ce1 In6 3.443295 1_545
Ce1 In6 3.443295 1_445
Ce1 Pd2 3.468586 1_445
Ce1 Pd2 3.468586 1_545
Ce1 In2 3.545956 1_455
Ce1 In2 3.545956 1_555
Ce1 In4 3.582201 1_554
Ce2 Pd6 2.941965 1_555
Ce2 Pd11 3.093254 1_555
Ce2 Pd5 3.118870 1_555
Ce2 Pd5 3.118870 1_655
Ce2 Pd2 3.148013 1_555
Ce2 Pd9 3.176723 1_555
Ce2 Pd9 3.176723 1_655
Ce2 In6 3.281415 1_555
Ce2 In3 3.410188 1_554
Ce2 In5 3.443295 1_655
Ce2 In5 3.443295 1_555
Ce2 Pd1 3.468586 1_555
Ce2 Pd1 3.468586 1_655
Ce2 In1 3.545956 1_655
Ce2 In1 3.545956 1_555
Ce2 In7 3.582201 1_555
Ce3 Pd7 2.941965 1_565
Ce3 Pd10 3.093254 1_566
Ce3 Pd4 3.118870 1_655
Ce3 Pd4 3.118870 1_555
Ce3 Pd3 3.148013 1_555
Ce3 Pd8 3.176723 1_655
Ce3 Pd8 3.176723 1_555
Ce3 In7 3.281415 1_555
Ce3 In2 3.410188 1_565
Ce3 In4 3.443295 1_665
Ce3 In4 3.443295 1_565
Ce3 Pd0 3.468586 1_565
Ce3 Pd0 3.468586 1_665
Ce3 In0 3.545956 1_555
Ce3 In0 3.545956 1_655
Ce3 In6 3.582201 1_556
In0 Pd2 2.752196 1_455
In0 Pd2 2.752196 1_555
In0 Pd4 2.755473 1_555
In0 Pd0 2.809571 1_565
In0 Pd9 2.824754 1_555
In0 Pd5 3.056198 1_555
In0 In2 3.294914 1_465
In0 In2 3.294914 1_565
In0 In7 3.370299 1_555
In0 In7 3.370299 1_455
In1 Pd3 2.752196 1_454
In1 Pd3 2.752196 1_554
In1 Pd5 2.755473 1_555
In1 Pd1 2.809571 1_555
In1 Pd8 2.824754 1_554
In1 Pd4 3.056198 1_554
In1 In3 3.294914 1_454
In1 In3 3.294914 1_554
In1 In6 3.370299 1_455
In1 In6 3.370299 1_555
In2 Pd0 2.752196 1_655
In2 Pd0 2.752196 1_555
In2 Pd6 2.755473 1_555
In2 Pd2 2.809571 1_545
In2 Pd11 2.824754 1_555
In2 Pd7 3.056198 1_555
In2 In5 3.370299 1_555
In2 In5 3.370299 1_655
In3 Pd1 2.752196 1_656
In3 Pd1 2.752196 1_556
In3 Pd7 2.755473 1_555
In3 Pd3 2.809571 1_555
In3 Pd10 2.824754 1_556
In3 Pd6 3.056198 1_556
In3 In4 3.370299 1_655
In3 In4 3.370299 1_555
In4 Pd8 2.749623 1_545
In4 Pd10 2.759776 1_456
In4 Pd10 2.759776 1_556
In4 Pd0 2.830328 1_555
In4 Pd7 2.852790 1_455
In4 Pd7 2.852790 1_555
In4 Pd1 3.006226 1_556
In5 Pd9 2.749623 1_555
In5 Pd11 2.759776 1_455
In5 Pd11 2.759776 1_555
In5 Pd1 2.830328 1_555
In5 Pd6 2.852790 1_555
In5 Pd6 2.852790 1_455
In5 Pd0 3.006226 1_555
In6 Pd10 2.749623 1_565
In6 Pd8 2.759776 1_654
In6 Pd8 2.759776 1_554
In6 Pd2 2.830328 1_555
In6 Pd5 2.852790 1_655
In6 Pd5 2.852790 1_555
In6 Pd3 3.006226 1_554
In7 Pd11 2.749623 1_555
In7 Pd9 2.759776 1_555
In7 Pd9 2.759776 1_655
In7 Pd3 2.830328 1_555
In7 Pd4 2.852790 1_555
In7 Pd4 2.852790 1_655
In7 Pd2 3.006226 1_555
Pd0 Pd7 2.877243 1_555
Pd0 Pd7 2.877243 1_455
Pd1 Pd6 2.877243 1_455
Pd1 Pd6 2.877243 1_555
Pd2 Pd5 2.877243 1_555
Pd2 Pd5 2.877243 1_655
Pd3 Pd4 2.877243 1_655
Pd3 Pd4 2.877243 1_555
Pd4 Pd8 2.835974 1_555
Pd4 Pd9 3.070460 1_555
Pd5 Pd9 2.835974 1_555
Pd5 Pd8 3.070460 1_554
Pd10 Pd6 2.835974 1_555
Pd10 Pd7 3.070460 1_554
Pd10 Pd8 3.185615 1_644
Pd10 Pd8 3.185615 1_544
Pd11 Pd7 2.835974 1_555
Pd11 Pd6 3.070460 1_555
Pd11 Pd9 3.185615 1_555
Pd11 Pd9 3.185615 1_655
