# generated using pymatgen
data_Mg3ScZn8
_symmetry_space_group_name_H-M   'P 1'
_cell_length_a   5.15566509
_cell_length_b   5.15565129
_cell_length_c   8.43612160
_cell_angle_alpha   89.99859259
_cell_angle_beta   90.00177330
_cell_angle_gamma   119.99611510
_symmetry_Int_Tables_number   1
_chemical_formula_structural   Mg3ScZn8
_chemical_formula_sum   'Mg3 Sc1 Zn8'
_cell_volume   194.20423502
_cell_formula_units_Z   1
loop_
 _symmetry_equiv_pos_site_id
 _symmetry_equiv_pos_as_xyz
  1  'x, y, z'
loop_
 _atom_site_type_symbol
 _atom_site_label
 _atom_site_symmetry_multiplicity
 _atom_site_fract_x
 _atom_site_fract_y
 _atom_site_fract_z
 _atom_site_occupancy
  Mg  Mg0  1  0.33321650  0.66677659  0.43690138  1
  Mg  Mg1  1  0.33334741  0.66665297  0.06190261  1
  Mg  Mg2  1  0.66668495  0.33331639  0.93295809  1
  Sc  Sc0  1  0.66668372  0.33331887  0.55876967  1
  Zn  Zn0  1  0.16931575  0.33843787  0.75047791  1
  Zn  Zn1  1  0.16930326  0.83068810  0.75049028  1
  Zn  Zn2  1  0.66157020  0.83069980  0.75047823  1
  Zn  Zn3  1  0.82944979  0.65911153  0.25061902  1
  Zn  Zn4  1  0.82951495  0.17049948  0.25061952  1
  Zn  Zn5  1  0.34088304  0.17052460  0.25061892  1
  Zn  Zn6  1  0.00003916  0.99996528  0.50072685  1
  Zn  Zn7  1  -0.00000974  0.00000551  0.00543452  1
loop_
_geom_bond_atom_site_label_1
_geom_bond_atom_site_label_2
_geom_bond_distance
_geom_bond_site_symmetry_2
Mg0 Zn5 3.018861 1_565
Mg0 Zn3 3.018943 1_455
Mg0 Zn4 3.019329 1_455
Mg0 Zn4 3.019439 1_565
Mg0 Zn3 3.019602 1_555
Mg0 Zn5 3.019674 1_555
Mg0 Zn1 3.023435 1_555
Mg0 Zn6 3.023566 1_555
Mg0 Zn0 3.024442 1_555
Mg0 Zn2 3.024464 1_555
Mg0 Zn6 3.025669 1_545
Mg0 Zn6 3.025720 1_655
Mg0 Sc0 3.148737 1_455
Mg0 Sc0 3.148759 1_565
Mg0 Sc0 3.150171 1_555
Mg0 Mg1 3.163535 1_555
Mg1 Zn1 3.007853 1_554
Mg1 Zn0 3.008335 1_554
Mg1 Zn2 3.008365 1_554
Mg1 Zn7 3.014523 1_665
Mg1 Zn7 3.014530 1_555
Mg1 Zn7 3.014615 1_565
Mg1 Zn3 3.029404 1_555
Mg1 Zn5 3.029507 1_555
Mg1 Zn4 3.030118 1_455
Mg1 Zn4 3.030162 1_565
Mg1 Zn5 3.030488 1_565
Mg1 Zn3 3.030605 1_455
Mg1 Mg2 3.169167 1_554
Mg1 Mg2 3.169231 1_454
Mg1 Mg2 3.169239 1_564
Mg2 Zn0 3.002242 1_555
Mg2 Zn2 3.002291 1_555
Mg2 Zn1 3.002659 1_655
Mg2 Zn1 3.002686 1_545
Mg2 Zn2 3.002882 1_545
Mg2 Zn0 3.002947 1_655
Mg2 Zn7 3.038470 1_656
Mg2 Zn7 3.038982 1_666
Mg2 Zn7 3.039021 1_556
Mg2 Zn4 3.048811 1_556
Mg2 Zn3 3.049217 1_556
Mg2 Zn5 3.049247 1_556
Mg2 Sc0 3.156699 1_555
Sc0 Zn4 2.978620 1_555
Sc0 Zn3 2.978920 1_555
Sc0 Zn5 2.978926 1_555
Sc0 Zn6 3.016637 1_545
Sc0 Zn6 3.016643 1_655
Sc0 Zn6 3.016771 1_645
Sc0 Zn0 3.042966 1_555
Sc0 Zn2 3.042997 1_555
Sc0 Zn1 3.043393 1_655
Sc0 Zn1 3.043459 1_545
Sc0 Zn2 3.043477 1_545
Sc0 Zn0 3.043517 1_655
Zn0 Zn1 2.537903 1_555
Zn0 Zn2 2.538064 1_555
Zn0 Zn6 2.592931 1_545
Zn0 Zn1 2.617749 1_545
Zn0 Zn2 2.617897 1_445
Zn0 Zn7 2.628610 1_556
Zn1 Zn2 2.537933 1_555
Zn1 Zn6 2.593092 1_555
Zn1 Zn2 2.617732 1_455
Zn1 Zn7 2.629036 1_566
Zn2 Zn6 2.592940 1_655
Zn2 Zn7 2.628565 1_666
Zn3 Zn5 2.519083 1_555
Zn3 Zn4 2.519281 1_555
Zn3 Zn7 2.568094 1_665
Zn3 Zn6 2.601583 1_655
Zn3 Zn4 2.636370 1_565
Zn3 Zn5 2.636878 1_665
Zn4 Zn5 2.519287 1_555
Zn4 Zn7 2.568297 1_655
Zn4 Zn6 2.602011 1_645
Zn4 Zn5 2.636378 1_655
Zn5 Zn7 2.568079 1_555
Zn5 Zn6 2.601574 1_545
