# generated using pymatgen
data_V4ZnO6
_symmetry_space_group_name_H-M   'P 1'
_cell_length_a   5.27322613
_cell_length_b   5.27322613
_cell_length_c   15.73413900
_cell_angle_alpha   90.00000000
_cell_angle_beta   90.00000000
_cell_angle_gamma   147.45863598
_symmetry_Int_Tables_number   1
_chemical_formula_structural   V4ZnO6
_chemical_formula_sum   'V8 Zn2 O12'
_cell_volume   235.34450086
_cell_formula_units_Z   2
loop_
 _symmetry_equiv_pos_site_id
 _symmetry_equiv_pos_as_xyz
  1  'x, y, z'
loop_
 _atom_site_type_symbol
 _atom_site_label
 _atom_site_symmetry_multiplicity
 _atom_site_fract_x
 _atom_site_fract_y
 _atom_site_fract_z
 _atom_site_occupancy
  V  V0  1  0.13453600  0.86546400  0.04732200  1
  V  V1  1  0.60292500  0.39707500  0.63814300  1
  V  V2  1  0.86546400  0.13453600  0.95267800  1
  V  V3  1  0.39707500  0.60292500  0.36185700  1
  V  V4  1  0.13453600  0.86546400  0.45267800  1
  V  V5  1  0.86546400  0.13453600  0.54732200  1
  V  V6  1  0.39707500  0.60292500  0.13814300  1
  V  V7  1  0.60292500  0.39707500  0.86185700  1
  Zn  Zn0  1  0.34919200  0.65080800  0.75000000  1
  Zn  Zn1  1  0.65080800  0.34919200  0.25000000  1
  O  O0  1  0.50000000  0.50000000  0.50000000  1
  O  O1  1  0.50000000  0.50000000  0.00000000  1
  O  O2  1  0.96648800  0.03351200  0.83795400  1
  O  O3  1  0.03351200  0.96648800  0.16204600  1
  O  O4  1  0.03351200  0.96648800  0.33795400  1
  O  O5  1  0.96648800  0.03351200  0.66204600  1
  O  O6  1  0.22298200  0.77701800  0.92122800  1
  O  O7  1  0.77701800  0.22298200  0.07877200  1
  O  O8  1  0.77701800  0.22298200  0.42122800  1
  O  O9  1  0.22298200  0.77701800  0.57877200  1
  O  O10  1  0.70973700  0.29026300  0.75000000  1
  O  O11  1  0.29026300  0.70973700  0.25000000  1
loop_
_geom_bond_atom_site_label_1
_geom_bond_atom_site_label_2
_geom_bond_distance
_geom_bond_site_symmetry_2
O0 V4 2.142980 1_545
O0 V5 2.142980 1_565
O0 V4 2.142980 1_655
O0 V5 2.142980 1_455
O0 V3 2.410429 1_555
O0 V1 2.410429 1_555
O1 V2 2.142980 1_564
O1 V0 2.142980 1_545
O1 V2 2.142980 1_454
O1 V0 2.142980 1_655
O1 V6 2.410429 1_555
O1 V7 2.410429 1_554
O2 V7 2.057236 1_655
O2 V7 2.057236 1_545
O2 V2 2.074702 1_555
O2 Zn0 2.346935 1_545
O2 Zn0 2.346935 1_655
O3 V6 2.057236 1_565
O3 V6 2.057236 1_455
O3 V0 2.074702 1_555
O3 Zn1 2.346935 1_455
O3 Zn1 2.346935 1_565
O4 V3 2.057236 1_565
O4 V3 2.057236 1_455
O4 V4 2.074702 1_555
O4 Zn1 2.346935 1_455
O4 Zn1 2.346935 1_565
O5 V1 2.057236 1_655
O5 V1 2.057236 1_545
O5 V5 2.074702 1_555
O5 Zn0 2.346935 1_545
O5 Zn0 2.346935 1_655
O6 V2 2.123312 1_565
O6 V2 2.123312 1_455
O6 V7 2.129034 1_455
O6 V7 2.129034 1_565
O6 V0 2.176690 1_556
O7 V0 2.123312 1_545
O7 V0 2.123312 1_655
O7 V6 2.129034 1_545
O7 V6 2.129034 1_655
O7 V2 2.176690 1_554
O8 V4 2.123312 1_655
O8 V4 2.123312 1_545
O8 V3 2.129034 1_545
O8 V3 2.129034 1_655
O8 V5 2.176690 1_555
O9 V5 2.123312 1_565
O9 V5 2.123312 1_455
O9 V1 2.129034 1_455
O9 V1 2.129034 1_565
O9 V4 2.176690 1_555
O10 Zn0 2.043555 1_655
O10 Zn0 2.043555 1_545
O10 V7 2.065640 1_555
O10 V1 2.065640 1_555
O11 Zn1 2.043555 1_565
O11 Zn1 2.043555 1_455
O11 V3 2.065640 1_555
O11 V6 2.065640 1_555
