# generated using pymatgen
data_KRbMg30O31
_symmetry_space_group_name_H-M   'P 1'
_cell_length_a   8.69535900
_cell_length_b   8.71591300
_cell_length_c   8.73989400
_cell_angle_alpha   90.00000000
_cell_angle_beta   90.00000000
_cell_angle_gamma   90.00000000
_symmetry_Int_Tables_number   1
_chemical_formula_structural   KRbMg30O31
_chemical_formula_sum   'K1 Rb1 Mg30 O31'
_cell_volume   662.37902134
_cell_formula_units_Z   1
loop_
 _symmetry_equiv_pos_site_id
 _symmetry_equiv_pos_as_xyz
  1  'x, y, z'
loop_
 _atom_site_type_symbol
 _atom_site_label
 _atom_site_symmetry_multiplicity
 _atom_site_fract_x
 _atom_site_fract_y
 _atom_site_fract_z
 _atom_site_occupancy
  K  K0  1  0.99537000  0.00000000  0.00000000  1
  Rb  Rb0  1  0.99207700  0.50000000  0.50000000  1
  Mg  Mg0  1  0.97972300  0.00000000  0.50000000  1
  Mg  Mg1  1  0.99830400  0.50000000  0.00000000  1
  Mg  Mg2  1  0.49944200  0.00000000  0.00000000  1
  Mg  Mg3  1  0.51871700  0.00000000  0.50000000  1
  Mg  Mg4  1  0.50103500  0.50000000  0.00000000  1
  Mg  Mg5  1  0.49793500  0.50000000  0.50000000  1
  Mg  Mg6  1  0.00348500  0.24904100  0.24776800  1
  Mg  Mg7  1  0.00348500  0.24904100  0.75223200  1
  Mg  Mg8  1  0.00348500  0.75095900  0.24776800  1
  Mg  Mg9  1  0.00348500  0.75095900  0.75223200  1
  Mg  Mg10  1  0.49807200  0.24980500  0.24932500  1
  Mg  Mg11  1  0.49807200  0.24980500  0.75067500  1
  Mg  Mg12  1  0.49807200  0.75019500  0.24932500  1
  Mg  Mg13  1  0.49807200  0.75019500  0.75067500  1
  Mg  Mg14  1  0.24816800  0.00000000  0.22746200  1
  Mg  Mg15  1  0.24816800  0.00000000  0.77253800  1
  Mg  Mg16  1  0.25126700  0.50000000  0.24152200  1
  Mg  Mg17  1  0.25126700  0.50000000  0.75847800  1
  Mg  Mg18  1  0.74917700  0.00000000  0.24776800  1
  Mg  Mg19  1  0.74917700  0.00000000  0.75223200  1
  Mg  Mg20  1  0.74722000  0.50000000  0.24498100  1
  Mg  Mg21  1  0.74722000  0.50000000  0.75501900  1
  Mg  Mg22  1  0.25069300  0.25674900  0.00000000  1
  Mg  Mg23  1  0.25066300  0.27150800  0.50000000  1
  Mg  Mg24  1  0.25069300  0.74325100  0.00000000  1
  Mg  Mg25  1  0.25066300  0.72849200  0.50000000  1
  Mg  Mg26  1  0.74916400  0.25291900  0.00000000  1
  Mg  Mg27  1  0.74474800  0.25092000  0.50000000  1
  Mg  Mg28  1  0.74916400  0.74708100  0.00000000  1
  Mg  Mg29  1  0.74474800  0.74908000  0.50000000  1
  O  O0  1  0.27321500  0.00000000  0.00000000  1
  O  O1  1  0.26100100  0.50000000  0.00000000  1
  O  O2  1  0.27702000  0.50000000  0.50000000  1
  O  O3  1  0.72349300  0.00000000  0.00000000  1
  O  O4  1  0.74605400  0.00000000  0.50000000  1
  O  O5  1  0.74080000  0.50000000  0.00000000  1
  O  O6  1  0.71665100  0.50000000  0.50000000  1
  O  O7  1  0.25210700  0.24674400  0.25237700  1
  O  O8  1  0.25210700  0.24674400  0.74762300  1
  O  O9  1  0.25210700  0.75325600  0.25237700  1
  O  O10  1  0.25210700  0.75325600  0.74762300  1
  O  O11  1  0.75034200  0.24801000  0.25342400  1
  O  O12  1  0.75034200  0.24801000  0.74657600  1
  O  O13  1  0.75034200  0.75199000  0.25342400  1
  O  O14  1  0.75034200  0.75199000  0.74657600  1
  O  O15  1  0.01006600  0.00000000  0.27207400  1
  O  O16  1  0.01006600  0.00000000  0.72792600  1
  O  O17  1  0.00306500  0.50000000  0.22401800  1
  O  O18  1  0.00306500  0.50000000  0.77598200  1
  O  O19  1  0.49206100  0.00000000  0.26020200  1
  O  O20  1  0.49206100  0.00000000  0.73979800  1
  O  O21  1  0.49887900  0.50000000  0.24720600  1
  O  O22  1  0.49887900  0.50000000  0.75279400  1
  O  O23  1  0.00186200  0.26949000  0.00000000  1
  O  O24  1  0.01833000  0.22049300  0.50000000  1
  O  O25  1  0.00186200  0.73051000  0.00000000  1
  O  O26  1  0.01833000  0.77950700  0.50000000  1
  O  O27  1  0.49960800  0.25103700  0.00000000  1
  O  O28  1  0.49159700  0.23831600  0.50000000  1
  O  O29  1  0.49960800  0.74896300  0.00000000  1
  O  O30  1  0.49159700  0.76168400  0.50000000  1
loop_
_geom_bond_atom_site_label_1
_geom_bond_atom_site_label_2
_geom_bond_distance
_geom_bond_site_symmetry_2
K0 O25 2.349530 1_645
K0 O23 2.349530 1_655
K0 O3 2.364068 1_555
K0 O15 2.381329 1_655
K0 O16 2.381329 1_654
K0 O0 2.415962 1_655
Mg0 O24 1.950898 1_655
Mg0 O26 1.950898 1_645
Mg0 O16 2.009446 1_655
Mg0 O15 2.009446 1_655
Mg0 O4 2.031836 1_555
Mg1 O17 1.958331 1_655
Mg1 O18 1.958331 1_654
Mg1 O23 2.009343 1_655
Mg1 O25 2.009343 1_655
Mg1 O5 2.239090 1_555
Mg1 O1 2.284245 1_655
Mg2 O3 1.948204 1_555
Mg2 O0 1.967125 1_555
Mg2 O27 2.188017 1_555
Mg2 O29 2.188017 1_545
Mg2 O19 2.275043 1_555
Mg2 O20 2.275043 1_554
Mg3 O4 1.976777 1_555
Mg3 O28 2.090485 1_555
Mg3 O30 2.090485 1_545
Mg3 O20 2.108587 1_555
Mg3 O19 2.108587 1_555
Mg4 O5 2.084843 1_555
Mg4 O1 2.087182 1_555
Mg4 O21 2.160636 1_555
Mg4 O22 2.160636 1_554
Mg4 O29 2.169975 1_555
Mg4 O27 2.169975 1_555
Mg5 O6 1.901814 1_555
Mg5 O2 1.920935 1_555
Mg5 O22 2.209408 1_555
Mg5 O21 2.209408 1_555
Mg5 O30 2.281481 1_555
Mg5 O28 2.281481 1_555
Mg6 O7 2.162325 1_555
Mg6 O23 2.172834 1_555
Mg6 O15 2.181741 1_555
Mg6 O17 2.197167 1_555
Mg6 O11 2.201743 1_455
Mg6 O24 2.222231 1_555
Mg7 O8 2.162325 1_555
Mg7 O23 2.172834 1_556
Mg7 O16 2.181741 1_555
Mg7 O18 2.197167 1_555
Mg7 O12 2.201743 1_455
Mg7 O24 2.222231 1_555
Mg8 O9 2.162325 1_555
Mg8 O25 2.172834 1_555
Mg8 O15 2.181741 1_565
Mg8 O17 2.197167 1_555
Mg8 O13 2.201743 1_455
Mg8 O26 2.222231 1_555
Mg9 O10 2.162325 1_555
Mg9 O25 2.172834 1_556
Mg9 O16 2.181741 1_565
Mg9 O18 2.197167 1_555
Mg9 O14 2.201743 1_455
Mg9 O26 2.222231 1_555
Mg10 O7 2.139087 1_555
Mg10 O27 2.179141 1_555
Mg10 O19 2.179980 1_555
Mg10 O21 2.180768 1_555
Mg10 O28 2.193883 1_555
Mg10 O11 2.193927 1_555
Mg11 O8 2.139087 1_555
Mg11 O27 2.179141 1_556
Mg11 O20 2.179980 1_555
Mg11 O22 2.180768 1_555
Mg11 O28 2.193883 1_555
Mg11 O12 2.193927 1_555
Mg12 O9 2.139087 1_555
Mg12 O29 2.179141 1_555
Mg12 O19 2.179980 1_565
Mg12 O21 2.180768 1_555
Mg12 O30 2.193883 1_555
Mg12 O13 2.193927 1_555
Mg13 O10 2.139087 1_555
Mg13 O29 2.179141 1_556
Mg13 O20 2.179980 1_565
Mg13 O22 2.180768 1_555
Mg13 O30 2.193883 1_555
Mg13 O14 2.193927 1_555
Mg14 O0 1.999888 1_555
Mg14 O15 2.106777 1_555
Mg14 O19 2.139954 1_555
Mg14 O7 2.161867 1_555
Mg14 O9 2.161867 1_545
Mg15 O0 1.999888 1_556
Mg15 O16 2.106777 1_555
Mg15 O20 2.139954 1_555
Mg15 O8 2.161867 1_555
Mg15 O10 2.161867 1_545
Mg16 O1 2.112573 1_555
Mg16 O21 2.153648 1_555
Mg16 O17 2.163621 1_555
Mg16 O9 2.209407 1_555
Mg16 O7 2.209407 1_555
Mg16 O2 2.270142 1_555
Mg17 O1 2.112573 1_556
Mg17 O22 2.153648 1_555
Mg17 O18 2.163621 1_555
Mg17 O10 2.209407 1_555
Mg17 O8 2.209407 1_555
Mg17 O2 2.270142 1_555
Mg18 O13 2.162222 1_545
Mg18 O11 2.162222 1_555
Mg18 O3 2.176952 1_555
Mg18 O4 2.204648 1_555
Mg18 O19 2.238355 1_555
Mg18 O15 2.278448 1_655
Mg19 O14 2.162222 1_545
Mg19 O12 2.162222 1_555
Mg19 O3 2.176952 1_556
Mg19 O4 2.204648 1_555
Mg19 O20 2.238355 1_555
Mg19 O16 2.278448 1_655
Mg20 O5 2.141836 1_555
Mg20 O21 2.159502 1_555
Mg20 O11 2.197730 1_555
Mg20 O13 2.197730 1_555
Mg20 O17 2.232196 1_655
Mg20 O6 2.244633 1_555
Mg21 O5 2.141836 1_556
Mg21 O22 2.159502 1_555
Mg21 O12 2.197730 1_555
Mg21 O14 2.197730 1_555
Mg21 O18 2.232196 1_655
Mg21 O6 2.244633 1_555
Mg22 O1 2.122048 1_555
Mg22 O27 2.164978 1_555
Mg22 O23 2.166523 1_555
Mg22 O7 2.207506 1_555
Mg22 O8 2.207506 1_554
Mg22 O0 2.246355 1_555
Mg23 O2 2.004660 1_555
Mg23 O24 2.068572 1_555
Mg23 O28 2.114888 1_555
Mg23 O8 2.174972 1_555
Mg23 O7 2.174972 1_555
Mg24 O1 2.122048 1_555
Mg24 O29 2.164978 1_555
Mg24 O25 2.166523 1_555
Mg24 O9 2.207506 1_555
Mg24 O10 2.207506 1_554
Mg24 O0 2.246355 1_565
Mg25 O2 2.004660 1_555
Mg25 O26 2.068572 1_555
Mg25 O30 2.114888 1_555
Mg25 O10 2.174972 1_555
Mg25 O9 2.174972 1_555
Mg26 O5 2.154764 1_555
Mg26 O27 2.170041 1_555
Mg26 O23 2.202042 1_655
Mg26 O11 2.215336 1_555
Mg26 O12 2.215336 1_554
Mg26 O3 2.215693 1_555
Mg27 O12 2.155746 1_555
Mg27 O11 2.155746 1_555
Mg27 O6 2.184664 1_555
Mg27 O4 2.187026 1_555
Mg27 O28 2.203978 1_555
Mg27 O24 2.393630 1_655
Mg28 O5 2.154764 1_555
Mg28 O29 2.170041 1_555
Mg28 O25 2.202042 1_655
Mg28 O13 2.215336 1_555
Mg28 O14 2.215336 1_554
Mg28 O3 2.215693 1_565
Mg29 O13 2.155746 1_555
Mg29 O14 2.155746 1_555
Mg29 O6 2.184664 1_555
Mg29 O4 2.187026 1_565
Mg29 O30 2.203978 1_555
Mg29 O26 2.393630 1_655
O2 Rb0 2.477682 1_455
O6 Rb0 2.394928 1_555
O17 Rb0 2.413945 1_455
O18 Rb0 2.413945 1_455
O24 Rb0 2.446831 1_455
O26 Rb0 2.446831 1_455
