# generated using pymatgen
data_CaMg30NbO32
_symmetry_space_group_name_H-M   'P 1'
_cell_length_a   8.58070500
_cell_length_b   8.58070500
_cell_length_c   8.63077700
_cell_angle_alpha   90.00000000
_cell_angle_beta   90.00000000
_cell_angle_gamma   90.00000000
_symmetry_Int_Tables_number   1
_chemical_formula_structural   CaMg30NbO32
_chemical_formula_sum   'Ca1 Mg30 Nb1 O32'
_cell_volume   635.47114965
_cell_formula_units_Z   1
loop_
 _symmetry_equiv_pos_site_id
 _symmetry_equiv_pos_as_xyz
  1  'x, y, z'
loop_
 _atom_site_type_symbol
 _atom_site_label
 _atom_site_symmetry_multiplicity
 _atom_site_fract_x
 _atom_site_fract_y
 _atom_site_fract_z
 _atom_site_occupancy
  Ca  Ca0  1  0.00000000  0.00000000  0.00000000  1
  Mg  Mg0  1  0.00000000  0.50000000  0.00000000  1
  Mg  Mg1  1  0.00000000  0.50000000  0.50000000  1
  Mg  Mg2  1  0.50000000  0.00000000  0.00000000  1
  Mg  Mg3  1  0.50000000  0.00000000  0.50000000  1
  Mg  Mg4  1  0.50000000  0.50000000  0.00000000  1
  Mg  Mg5  1  0.50000000  0.50000000  0.50000000  1
  Mg  Mg6  1  0.00000000  0.25457900  0.25067800  1
  Mg  Mg7  1  0.00000000  0.25457900  0.74932200  1
  Mg  Mg8  1  0.00000000  0.74542100  0.25067800  1
  Mg  Mg9  1  0.00000000  0.74542100  0.74932200  1
  Mg  Mg10  1  0.50000000  0.25034900  0.25008900  1
  Mg  Mg11  1  0.50000000  0.25034900  0.74991100  1
  Mg  Mg12  1  0.50000000  0.74965100  0.25008900  1
  Mg  Mg13  1  0.50000000  0.74965100  0.74991100  1
  Mg  Mg14  1  0.25457900  0.00000000  0.25067800  1
  Mg  Mg15  1  0.25457900  0.00000000  0.74932200  1
  Mg  Mg16  1  0.25034900  0.50000000  0.25008900  1
  Mg  Mg17  1  0.25034900  0.50000000  0.74991100  1
  Mg  Mg18  1  0.74542100  0.00000000  0.25067800  1
  Mg  Mg19  1  0.74542100  0.00000000  0.74932200  1
  Mg  Mg20  1  0.74965100  0.50000000  0.25008900  1
  Mg  Mg21  1  0.74965100  0.50000000  0.74991100  1
  Mg  Mg22  1  0.25290000  0.25290000  0.00000000  1
  Mg  Mg23  1  0.25191400  0.25191400  0.50000000  1
  Mg  Mg24  1  0.25290000  0.74710000  0.00000000  1
  Mg  Mg25  1  0.25191400  0.74808600  0.50000000  1
  Mg  Mg26  1  0.74710000  0.25290000  0.00000000  1
  Mg  Mg27  1  0.74808600  0.25191400  0.50000000  1
  Mg  Mg28  1  0.74710000  0.74710000  0.00000000  1
  Mg  Mg29  1  0.74808600  0.74808600  0.50000000  1
  Nb  Nb0  1  0.00000000  0.00000000  0.50000000  1
  O  O0  1  0.26378200  0.00000000  0.00000000  1
  O  O1  1  0.26306100  0.00000000  0.50000000  1
  O  O2  1  0.25252600  0.50000000  0.00000000  1
  O  O3  1  0.25185000  0.50000000  0.50000000  1
  O  O4  1  0.73621800  0.00000000  0.00000000  1
  O  O5  1  0.73693900  0.00000000  0.50000000  1
  O  O6  1  0.74747400  0.50000000  0.00000000  1
  O  O7  1  0.74815000  0.50000000  0.50000000  1
  O  O8  1  0.24967100  0.24967100  0.25013400  1
  O  O9  1  0.24967100  0.24967100  0.74986600  1
  O  O10  1  0.24967100  0.75032900  0.25013400  1
  O  O11  1  0.24967100  0.75032900  0.74986600  1
  O  O12  1  0.75032900  0.24967100  0.25013400  1
  O  O13  1  0.75032900  0.24967100  0.74986600  1
  O  O14  1  0.75032900  0.75032900  0.25013400  1
  O  O15  1  0.75032900  0.75032900  0.74986600  1
  O  O16  1  0.00000000  0.00000000  0.24925700  1
  O  O17  1  0.00000000  0.00000000  0.75074300  1
  O  O18  1  0.00000000  0.50000000  0.25083400  1
  O  O19  1  0.00000000  0.50000000  0.74916600  1
  O  O20  1  0.50000000  0.00000000  0.25083400  1
  O  O21  1  0.50000000  0.00000000  0.74916600  1
  O  O22  1  0.50000000  0.50000000  0.25015200  1
  O  O23  1  0.50000000  0.50000000  0.74984800  1
  O  O24  1  0.00000000  0.26378200  0.00000000  1
  O  O25  1  0.00000000  0.26306100  0.50000000  1
  O  O26  1  0.00000000  0.73621800  0.00000000  1
  O  O27  1  0.00000000  0.73693900  0.50000000  1
  O  O28  1  0.50000000  0.25252600  0.00000000  1
  O  O29  1  0.50000000  0.25185000  0.50000000  1
  O  O30  1  0.50000000  0.74747400  0.00000000  1
  O  O31  1  0.50000000  0.74815000  0.50000000  1
loop_
_geom_bond_atom_site_label_1
_geom_bond_atom_site_label_2
_geom_bond_distance
_geom_bond_site_symmetry_2
Ca0 O17 2.151282 1_554
Ca0 O16 2.151282 1_555
Ca0 O26 2.263436 1_545
Ca0 O4 2.263436 1_455
Ca0 O24 2.263436 1_555
Ca0 O0 2.263436 1_555
Mg0 O24 2.026917 1_555
Mg0 O26 2.026917 1_555
Mg0 O18 2.164892 1_555
Mg0 O19 2.164892 1_554
Mg0 O2 2.166851 1_555
Mg0 O6 2.166851 1_455
Mg1 O27 2.033104 1_555
Mg1 O25 2.033104 1_555
Mg1 O18 2.150496 1_555
Mg1 O19 2.150496 1_555
Mg1 O3 2.161051 1_555
Mg1 O7 2.161051 1_455
Mg2 O0 2.026917 1_555
Mg2 O4 2.026917 1_555
Mg2 O20 2.164892 1_555
Mg2 O21 2.164892 1_554
Mg2 O28 2.166851 1_555
Mg2 O30 2.166851 1_545
Mg3 O1 2.033104 1_555
Mg3 O5 2.033104 1_555
Mg3 O20 2.150496 1_555
Mg3 O21 2.150496 1_555
Mg3 O29 2.161051 1_555
Mg3 O31 2.161051 1_545
Mg4 O6 2.123501 1_555
Mg4 O30 2.123501 1_555
Mg4 O2 2.123501 1_555
Mg4 O28 2.123501 1_555
Mg4 O22 2.159006 1_555
Mg4 O23 2.159006 1_554
Mg5 O3 2.129302 1_555
Mg5 O29 2.129302 1_555
Mg5 O7 2.129302 1_555
Mg5 O31 2.129302 1_555
Mg5 O23 2.156382 1_555
Mg5 O22 2.156382 1_555
Mg6 O18 2.105886 1_555
Mg6 O12 2.142772 1_455
Mg6 O8 2.142772 1_555
Mg6 O25 2.153073 1_555
Mg6 O24 2.164987 1_555
Mg6 O16 2.184502 1_555
Mg7 O19 2.105886 1_555
Mg7 O9 2.142772 1_555
Mg7 O13 2.142772 1_455
Mg7 O25 2.153073 1_555
Mg7 O24 2.164987 1_556
Mg7 O17 2.184502 1_555
Mg8 O18 2.105886 1_555
Mg8 O14 2.142772 1_455
Mg8 O10 2.142772 1_555
Mg8 O27 2.153073 1_555
Mg8 O26 2.164987 1_555
Mg8 O16 2.184502 1_565
Mg9 O19 2.105886 1_555
Mg9 O11 2.142772 1_555
Mg9 O15 2.142772 1_455
Mg9 O27 2.153073 1_555
Mg9 O26 2.164987 1_556
Mg9 O17 2.184502 1_565
Mg10 O22 2.142182 1_555
Mg10 O12 2.148007 1_555
Mg10 O8 2.148007 1_555
Mg10 O20 2.148181 1_555
Mg10 O29 2.156965 1_555
Mg10 O28 2.158543 1_555
Mg11 O23 2.142182 1_555
Mg11 O13 2.148007 1_555
Mg11 O9 2.148007 1_555
Mg11 O21 2.148181 1_555
Mg11 O29 2.156965 1_555
Mg11 O28 2.158543 1_556
Mg12 O22 2.142182 1_555
Mg12 O10 2.148007 1_555
Mg12 O14 2.148007 1_555
Mg12 O20 2.148181 1_565
Mg12 O31 2.156965 1_555
Mg12 O30 2.158543 1_555
Mg13 O23 2.142182 1_555
Mg13 O11 2.148007 1_555
Mg13 O15 2.148007 1_555
Mg13 O21 2.148181 1_565
Mg13 O31 2.156965 1_555
Mg13 O30 2.158543 1_556
Mg14 O20 2.105886 1_555
Mg14 O8 2.142772 1_555
Mg14 O10 2.142772 1_545
Mg14 O1 2.153073 1_555
Mg14 O0 2.164987 1_555
Mg14 O16 2.184502 1_555
Mg15 O21 2.105886 1_555
Mg15 O9 2.142772 1_555
Mg15 O11 2.142772 1_545
Mg15 O1 2.153073 1_555
Mg15 O0 2.164987 1_556
Mg15 O17 2.184502 1_555
Mg16 O22 2.142182 1_555
Mg16 O10 2.148007 1_555
Mg16 O8 2.148007 1_555
Mg16 O18 2.148181 1_555
Mg16 O3 2.156965 1_555
Mg16 O2 2.158543 1_555
Mg17 O23 2.142182 1_555
Mg17 O11 2.148007 1_555
Mg17 O9 2.148007 1_555
Mg17 O19 2.148181 1_555
Mg17 O3 2.156965 1_555
Mg17 O2 2.158543 1_556
Mg18 O20 2.105886 1_555
Mg18 O14 2.142772 1_545
Mg18 O12 2.142772 1_555
Mg18 O5 2.153073 1_555
Mg18 O4 2.164987 1_555
Mg18 O16 2.184502 1_655
Mg19 O21 2.105886 1_555
Mg19 O13 2.142772 1_555
Mg19 O15 2.142772 1_545
Mg19 O5 2.153073 1_555
Mg19 O4 2.164987 1_556
Mg19 O17 2.184502 1_655
Mg20 O22 2.142182 1_555
Mg20 O12 2.148007 1_555
Mg20 O14 2.148007 1_555
Mg20 O18 2.148181 1_655
Mg20 O7 2.156965 1_555
Mg20 O6 2.158543 1_555
Mg21 O23 2.142182 1_555
Mg21 O13 2.148007 1_555
Mg21 O15 2.148007 1_555
Mg21 O19 2.148181 1_655
Mg21 O7 2.156965 1_555
Mg21 O6 2.158543 1_556
Mg22 O2 2.120295 1_555
Mg22 O28 2.120295 1_555
Mg22 O9 2.159206 1_554
Mg22 O8 2.159206 1_555
Mg22 O0 2.172068 1_555
Mg22 O24 2.172068 1_555
Mg23 O3 2.128753 1_555
Mg23 O29 2.128753 1_555
Mg23 O8 2.156709 1_555
Mg23 O9 2.156709 1_555
Mg23 O25 2.163715 1_555
Mg23 O1 2.163715 1_555
Mg24 O30 2.120295 1_555
Mg24 O2 2.120295 1_555
Mg24 O11 2.159206 1_554
Mg24 O10 2.159206 1_555
Mg24 O0 2.172068 1_565
Mg24 O26 2.172068 1_555
Mg25 O31 2.128753 1_555
Mg25 O3 2.128753 1_555
Mg25 O10 2.156709 1_555
Mg25 O11 2.156709 1_555
Mg25 O1 2.163715 1_565
Mg25 O27 2.163715 1_555
Mg26 O6 2.120295 1_555
Mg26 O28 2.120295 1_555
Mg26 O13 2.159206 1_554
Mg26 O12 2.159206 1_555
Mg26 O4 2.172068 1_555
Mg26 O24 2.172068 1_655
Mg27 O7 2.128753 1_555
Mg27 O29 2.128753 1_555
Mg27 O12 2.156709 1_555
Mg27 O13 2.156709 1_555
Mg27 O25 2.163715 1_655
Mg27 O5 2.163715 1_555
Mg28 O30 2.120295 1_555
Mg28 O6 2.120295 1_555
Mg28 O15 2.159206 1_554
Mg28 O14 2.159206 1_555
Mg28 O4 2.172068 1_565
Mg28 O26 2.172068 1_655
Mg29 O7 2.128753 1_555
Mg29 O31 2.128753 1_555
Mg29 O14 2.156709 1_555
Mg29 O15 2.156709 1_555
Mg29 O5 2.163715 1_565
Mg29 O27 2.163715 1_655
Nb0 O16 2.164107 1_555
Nb0 O17 2.164107 1_555
Nb0 O1 2.257249 1_555
Nb0 O5 2.257249 1_455
Nb0 O25 2.257249 1_555
Nb0 O27 2.257249 1_545
