# generated using pymatgen
data_YbPrSe2
_symmetry_space_group_name_H-M   'P 1'
_cell_length_a   7.41323259
_cell_length_b   7.41323259
_cell_length_c   7.41323263
_cell_angle_alpha   31.57737640
_cell_angle_beta   31.57737640
_cell_angle_gamma   31.57738172
_symmetry_Int_Tables_number   1
_chemical_formula_structural   YbPrSe2
_chemical_formula_sum   'Yb1 Pr1 Se2'
_cell_volume   99.19086091
_cell_formula_units_Z   1
loop_
 _symmetry_equiv_pos_site_id
 _symmetry_equiv_pos_as_xyz
  1  'x, y, z'
loop_
 _atom_site_type_symbol
 _atom_site_label
 _atom_site_symmetry_multiplicity
 _atom_site_fract_x
 _atom_site_fract_y
 _atom_site_fract_z
 _atom_site_occupancy
  Yb  Yb0  1  0.50000000  0.50000000  0.50000000  1
  Pr  Pr0  1  0.00000000  0.00000000  0.00000000  1
  Se  Se0  1  0.24098244  0.24098244  0.24098244  1
  Se  Se1  1  0.75901756  0.75901756  0.75901756  1
loop_
_geom_bond_atom_site_label_1
_geom_bond_atom_site_label_2
_geom_bond_distance
_geom_bond_site_symmetry_2
Pr0 Se1 3.037546 1_445
Pr0 Se0 3.037546 1_554
Pr0 Se1 3.037546 1_544
Pr0 Se1 3.037546 1_454
Pr0 Se0 3.037546 1_455
Pr0 Se0 3.037546 1_545
Se0 Yb0 2.808332 1_554
Se0 Yb0 2.808332 1_455
Se0 Yb0 2.808332 1_545
Se1 Yb0 2.808332 1_556
Se1 Yb0 2.808332 1_655
Se1 Yb0 2.808332 1_565
