# generated using pymatgen
data_Pr2TeO6
_symmetry_space_group_name_H-M   'P 1'
_cell_length_a   5.47712449
_cell_length_b   9.39589068
_cell_length_c   10.27075436
_cell_angle_alpha   90.00000000
_cell_angle_beta   90.00000000
_cell_angle_gamma   90.00000000
_symmetry_Int_Tables_number   1
_chemical_formula_structural   Pr2TeO6
_chemical_formula_sum   'Pr8 Te4 O24'
_cell_volume   528.55831571
_cell_formula_units_Z   4
loop_
 _symmetry_equiv_pos_site_id
 _symmetry_equiv_pos_as_xyz
  1  'x, y, z'
loop_
 _atom_site_type_symbol
 _atom_site_label
 _atom_site_symmetry_multiplicity
 _atom_site_fract_x
 _atom_site_fract_y
 _atom_site_fract_z
 _atom_site_occupancy
  Pr  Pr0  1  0.03211058  0.21725941  0.13821536  1
  Pr  Pr1  1  0.46788942  0.78274059  0.63821536  1
  Pr  Pr2  1  0.96788942  0.71725941  0.36178464  1
  Pr  Pr3  1  0.53211058  0.28274059  0.86178464  1
  Pr  Pr4  1  0.02698909  0.10471750  0.54144685  1
  Pr  Pr5  1  0.47301091  0.89528250  0.04144685  1
  Pr  Pr6  1  0.97301091  0.60471750  0.95855315  1
  Pr  Pr7  1  0.52698909  0.39528250  0.45855315  1
  Te  Te0  1  0.54269991  0.00438436  0.35757601  1
  Te  Te1  1  0.95730009  0.99561564  0.85757601  1
  Te  Te2  1  0.45730009  0.50438436  0.14242399  1
  Te  Te3  1  0.04269991  0.49561564  0.64242399  1
  O  O0  1  0.43409591  0.14738126  0.47836688  1
  O  O1  1  0.06590409  0.85261874  0.97836688  1
  O  O2  1  0.56590409  0.64738126  0.02163312  1
  O  O3  1  0.93409591  0.35261874  0.52163312  1
  O  O4  1  0.71747542  0.38899286  0.06602455  1
  O  O5  1  0.78252458  0.61100714  0.56602455  1
  O  O6  1  0.28252458  0.88899286  0.43397545  1
  O  O7  1  0.21747542  0.11100714  0.93397545  1
  O  O8  1  0.25186775  0.41444968  0.00986240  1
  O  O9  1  0.24813225  0.58555032  0.50986240  1
  O  O10  1  0.74813225  0.91444968  0.49013760  1
  O  O11  1  0.75186775  0.08555032  0.99013760  1
  O  O12  1  0.19507084  0.63747272  0.17557164  1
  O  O13  1  0.30492916  0.36252728  0.67557164  1
  O  O14  1  0.80492916  0.13747272  0.32442836  1
  O  O15  1  0.69507084  0.86252728  0.82442836  1
  O  O16  1  0.33571877  0.05455037  0.21621576  1
  O  O17  1  0.16428123  0.94544963  0.71621576  1
  O  O18  1  0.66428123  0.55455037  0.28378424  1
  O  O19  1  0.83571877  0.44544963  0.78378424  1
  O  O20  1  0.32141800  0.36491093  0.25616959  1
  O  O21  1  0.17858200  0.63508907  0.75616959  1
  O  O22  1  0.67858200  0.86491093  0.24383041  1
  O  O23  1  0.82141800  0.13508907  0.74383041  1
loop_
_geom_bond_atom_site_label_1
_geom_bond_atom_site_label_2
_geom_bond_distance
_geom_bond_site_symmetry_2
O0 Te0 1.923062 1_555
O0 Pr4 2.356339 1_555
O0 Pr7 2.392843 1_555
O1 Te1 1.923062 1_455
O1 Pr5 2.356339 1_556
O1 Pr6 2.392843 1_455
O2 Te2 1.923062 1_555
O2 Pr6 2.356339 1_554
O2 Pr5 2.392843 1_555
O3 Te3 1.923062 1_655
O3 Pr7 2.356339 1_555
O3 Pr4 2.392843 1_655
O4 Te2 1.954964 1_555
O4 Pr0 2.474504 1_655
O4 Pr3 2.535306 1_554
O4 Pr6 2.699205 1_554
O5 Te3 1.954964 1_655
O5 Pr1 2.474504 1_555
O5 Pr2 2.535306 1_555
O5 Pr7 2.699205 1_555
O6 Te0 1.954964 1_565
O6 Pr2 2.474504 1_455
O6 Pr1 2.535306 1_555
O6 Pr4 2.699205 1_565
O7 Te1 1.954964 1_445
O7 Pr3 2.474504 1_555
O7 Pr0 2.535306 1_556
O7 Pr5 2.699205 1_546
O8 Te2 1.958005 1_555
O8 Pr6 2.409660 1_454
O8 Pr3 2.490082 1_554
O8 Pr0 2.572819 1_555
O9 Te3 1.958005 1_555
O9 Pr7 2.409660 1_555
O9 Pr2 2.490082 1_455
O9 Pr1 2.572819 1_555
O10 Te0 1.958005 1_565
O10 Pr4 2.409660 1_665
O10 Pr1 2.490082 1_555
O10 Pr2 2.572819 1_555
O11 Te1 1.958005 1_545
O11 Pr5 2.409660 1_546
O11 Pr0 2.490082 1_656
O11 Pr3 2.572819 1_555
O12 Te2 1.934545 1_555
O12 Pr2 2.401692 1_455
O12 Pr6 2.557767 1_454
O13 Te3 1.934545 1_555
O13 Pr3 2.401692 1_555
O13 Pr7 2.557767 1_555
O14 Te0 1.934545 1_555
O14 Pr0 2.401692 1_655
O14 Pr4 2.557767 1_655
O15 Te1 1.934545 1_555
O15 Pr1 2.401692 1_555
O15 Pr5 2.557767 1_556
O16 Te0 1.901396 1_555
O16 Pr0 2.396717 1_555
O16 Pr5 2.454977 1_545
O17 Te1 1.901396 1_455
O17 Pr1 2.396717 1_555
O17 Pr4 2.454977 1_565
O18 Te2 1.901396 1_555
O18 Pr2 2.396717 1_555
O18 Pr7 2.454977 1_555
O19 Te3 1.901396 1_655
O19 Pr3 2.396717 1_555
O19 Pr6 2.454977 1_555
O20 Te2 1.906846 1_555
O20 Pr7 2.381152 1_555
O20 Pr0 2.429651 1_555
O21 Te3 1.906846 1_555
O21 Pr6 2.381152 1_455
O21 Pr1 2.429651 1_555
O22 Te0 1.906846 1_565
O22 Pr5 2.381152 1_555
O22 Pr2 2.429651 1_555
O23 Te1 1.906846 1_545
O23 Pr4 2.381152 1_655
O23 Pr3 2.429651 1_555
