# generated using pymatgen
data_Sr2Ni(PO4)2
_symmetry_space_group_name_H-M   'P 1'
_cell_length_a   10.11725800
_cell_length_b   9.12289800
_cell_length_c   11.80459182
_cell_angle_alpha   82.15108998
_cell_angle_beta   90.00000000
_cell_angle_gamma   90.00000000
_symmetry_Int_Tables_number   1
_chemical_formula_structural   Sr2Ni(PO4)2
_chemical_formula_sum   'Sr12 Ni6 P12 O48'
_cell_volume   1079.34133177
_cell_formula_units_Z   6
loop_
 _symmetry_equiv_pos_site_id
 _symmetry_equiv_pos_as_xyz
  1  'x, y, z'
loop_
 _atom_site_type_symbol
 _atom_site_label
 _atom_site_symmetry_multiplicity
 _atom_site_fract_x
 _atom_site_fract_y
 _atom_site_fract_z
 _atom_site_occupancy
  Sr  Sr0  1  0.84974800  0.16750900  0.84773100  1
  Sr  Sr1  1  0.34974800  0.33249100  0.15226900  1
  Sr  Sr2  1  0.15025200  0.83249100  0.15226900  1
  Sr  Sr3  1  0.65025200  0.66750900  0.84773100  1
  Sr  Sr4  1  0.11839200  0.69653500  0.50465600  1
  Sr  Sr5  1  0.61839200  0.80346500  0.49534400  1
  Sr  Sr6  1  0.88160800  0.30346500  0.49534400  1
  Sr  Sr7  1  0.38160800  0.19653500  0.50465600  1
  Sr  Sr8  1  0.72507600  0.16300600  0.18970900  1
  Sr  Sr9  1  0.22507600  0.33699400  0.81029100  1
  Sr  Sr10  1  0.27492400  0.83699400  0.81029100  1
  Sr  Sr11  1  0.77492400  0.66300600  0.18970900  1
  Ni  Ni0  1  0.89073600  0.87469500  0.67660700  1
  Ni  Ni1  1  0.39073600  0.62530500  0.32339300  1
  Ni  Ni2  1  0.10926400  0.12530500  0.32339300  1
  Ni  Ni3  1  0.60926400  0.37469500  0.67660700  1
  Ni  Ni4  1  0.50000000  0.00000000  0.00000000  1
  Ni  Ni5  1  0.00000000  0.50000000  0.00000000  1
  P  P0  1  0.43302900  0.71057100  0.04278500  1
  P  P1  1  0.93302900  0.78942900  0.95721500  1
  P  P2  1  0.56697100  0.28942900  0.95721500  1
  P  P3  1  0.06697100  0.21057100  0.04278500  1
  P  P4  1  0.07596400  0.50559800  0.28669700  1
  P  P5  1  0.57596400  0.99440200  0.71330300  1
  P  P6  1  0.92403600  0.49440200  0.71330300  1
  P  P7  1  0.42403600  0.00559800  0.28669700  1
  P  P8  1  0.39920000  0.56260500  0.62572900  1
  P  P9  1  0.89920000  0.93739500  0.37427100  1
  P  P10  1  0.60080000  0.43739500  0.37427100  1
  P  P11  1  0.10080000  0.06260500  0.62572900  1
  O  O0  1  0.57669100  0.76870600  0.05761200  1
  O  O1  1  0.07669100  0.73129400  0.94238800  1
  O  O2  1  0.42330900  0.23129400  0.94238800  1
  O  O3  1  0.92330900  0.26870600  0.05761200  1
  O  O4  1  0.38224200  0.61079000  0.15032800  1
  O  O5  1  0.88224200  0.88921000  0.84967200  1
  O  O6  1  0.61775800  0.38921000  0.84967200  1
  O  O7  1  0.11775800  0.11079000  0.15032800  1
  O  O8  1  0.41955600  0.63238200  0.93593200  1
  O  O9  1  0.91955600  0.86761800  0.06406800  1
  O  O10  1  0.58044400  0.36761800  0.06406800  1
  O  O11  1  0.08044400  0.13238200  0.93593200  1
  O  O12  1  0.34528600  0.85669600  0.02075700  1
  O  O13  1  0.84528600  0.64330400  0.97924300  1
  O  O14  1  0.65471400  0.14330400  0.97924300  1
  O  O15  1  0.15471400  0.35669600  0.02075700  1
  O  O16  1  0.18851800  0.61298400  0.31542500  1
  O  O17  1  0.68851800  0.88701600  0.68457500  1
  O  O18  1  0.81148200  0.38701600  0.68457500  1
  O  O19  1  0.31148200  0.11298400  0.31542500  1
  O  O20  1  0.96418500  0.52236900  0.37354000  1
  O  O21  1  0.46418500  0.97763100  0.62646000  1
  O  O22  1  0.03581500  0.47763100  0.62646000  1
  O  O23  1  0.53581500  0.02236900  0.37354000  1
  O  O24  1  0.13363000  0.34883600  0.29328700  1
  O  O25  1  0.63363000  0.15116400  0.70671300  1
  O  O26  1  0.86637000  0.65116400  0.70671300  1
  O  O27  1  0.36637000  0.84883600  0.29328700  1
  O  O28  1  0.02176300  0.56492500  0.16507100  1
  O  O29  1  0.52176300  0.93507500  0.83492900  1
  O  O30  1  0.13193700  0.13309500  0.50128800  1
  O  O31  1  0.63193700  0.36690500  0.49871200  1
  O  O32  1  0.86806300  0.86690500  0.49871200  1
  O  O33  1  0.36806300  0.63309500  0.50128800  1
  O  O34  1  0.95535600  0.10255000  0.65558500  1
  O  O35  1  0.45535600  0.39745000  0.34441500  1
  O  O36  1  0.04464400  0.89745000  0.34441500  1
  O  O37  1  0.54464400  0.60255000  0.65558500  1
  O  O38  1  0.10195700  0.88848000  0.64283300  1
  O  O39  1  0.60195700  0.61152000  0.35716700  1
  O  O40  1  0.89804300  0.11152000  0.35716700  1
  O  O41  1  0.39804300  0.38848000  0.64283300  1
  O  O42  1  0.20619300  0.11559400  0.70493200  1
  O  O43  1  0.70619300  0.38440600  0.29506800  1
  O  O44  1  0.79380700  0.88440600  0.29506800  1
  O  O45  1  0.29380700  0.61559400  0.70493200  1
  O  O46  1  0.47823700  0.06492500  0.16507100  1
  O  O47  1  0.97823700  0.43507500  0.83492900  1
loop_
_geom_bond_atom_site_label_1
_geom_bond_atom_site_label_2
_geom_bond_distance
_geom_bond_site_symmetry_2
Ni0 O26 2.036584 1_555
Ni0 O17 2.051839 1_555
Ni0 O5 2.067002 1_555
Ni0 O32 2.123285 1_555
Ni0 O34 2.160811 1_565
Ni0 O38 2.174338 1_655
Ni1 O27 2.036584 1_555
Ni1 O16 2.051839 1_555
Ni1 O4 2.067002 1_555
Ni1 O33 2.123285 1_555
Ni1 O35 2.160811 1_555
Ni1 O39 2.174338 1_555
Ni2 O24 2.036584 1_555
Ni2 O19 2.051839 1_555
Ni2 O7 2.067002 1_555
Ni2 O30 2.123285 1_555
Ni2 O36 2.160811 1_545
Ni2 O40 2.174338 1_455
Ni3 O25 2.036584 1_555
Ni3 O18 2.051839 1_555
Ni3 O6 2.067002 1_555
Ni3 O31 2.123285 1_555
Ni3 O37 2.160811 1_555
Ni3 O41 2.174338 1_555
Ni4 O12 2.032686 1_545
Ni4 O14 2.032686 1_554
Ni4 O46 2.124043 1_555
Ni4 O29 2.124043 1_544
Ni4 O0 2.263847 1_545
Ni4 O2 2.263847 1_554
Ni5 O13 2.032686 1_454
Ni5 O15 2.032686 1_555
Ni5 O28 2.124043 1_555
Ni5 O47 2.124043 1_454
Ni5 O1 2.263847 1_554
Ni5 O3 2.263847 1_455
O0 P0 1.565194 1_555
O0 Sr11 2.640658 1_555
O0 Sr3 2.858185 1_554
O1 P1 1.565194 1_455
O1 Sr10 2.640658 1_555
O1 Sr2 2.858185 1_556
O2 P2 1.565194 1_555
O2 Sr9 2.640658 1_555
O2 Sr1 2.858185 1_556
O3 P3 1.565194 1_655
O3 Sr8 2.640658 1_555
O3 Sr0 2.858185 1_554
O4 P0 1.545528 1_555
O4 Sr1 2.557087 1_555
O4 Sr2 3.100452 1_555
O5 P1 1.545528 1_555
O5 Sr0 2.557087 1_565
O5 Sr3 3.100452 1_555
O6 P2 1.545528 1_555
O6 Sr3 2.557087 1_555
O6 Sr0 3.100452 1_555
O7 P3 1.545528 1_555
O7 Sr2 2.557087 1_545
O7 Sr1 3.100452 1_555
O8 P0 1.537579 1_556
O8 Sr3 2.557972 1_555
O8 Sr10 2.658787 1_555
O9 P1 1.537579 1_554
O9 Sr2 2.557972 1_655
O9 Sr11 2.658787 1_555
O10 P2 1.537579 1_554
O10 Sr1 2.557972 1_555
O10 Sr8 2.658787 1_555
O11 P3 1.537579 1_556
O11 Sr0 2.557972 1_455
O11 Sr9 2.658787 1_555
O12 P0 1.593140 1_555
O12 Sr2 2.501754 1_555
O12 Sr10 2.614115 1_554
O13 P1 1.593140 1_555
O13 Sr3 2.501754 1_555
O13 Sr11 2.614115 1_556
O14 P2 1.593140 1_555
O14 Sr0 2.501754 1_555
O14 Sr8 2.614115 1_556
O15 P3 1.593140 1_555
O15 Sr1 2.501754 1_555
O15 Sr9 2.614115 1_554
O16 P4 1.569147 1_555
O16 Sr4 2.557192 1_555
O16 Sr2 2.610764 1_555
O17 P5 1.569147 1_555
O17 Sr5 2.557192 1_555
O17 Sr3 2.610764 1_555
O18 P6 1.569147 1_555
O18 Sr6 2.557192 1_555
O18 Sr0 2.610764 1_555
O19 P7 1.569147 1_555
O19 Sr7 2.557192 1_555
O19 Sr1 2.610764 1_555
O20 P4 1.547934 1_655
O20 Sr6 2.443214 1_555
O20 Sr4 2.833010 1_655
O20 Sr11 3.043236 1_555
O21 P5 1.547934 1_555
O21 Sr7 2.443214 1_565
O21 Sr5 2.833010 1_555
O21 Sr10 3.043236 1_555
O22 P6 1.547934 1_455
O22 Sr4 2.443214 1_555
O22 Sr6 2.833010 1_455
O22 Sr9 3.043236 1_555
O23 P7 1.547934 1_555
O23 Sr5 2.443214 1_545
O23 Sr7 2.833010 1_555
O23 Sr8 3.043236 1_555
O24 P4 1.536653 1_555
O24 Sr1 2.764417 1_555
O25 P5 1.536653 1_545
O25 Sr0 2.764417 1_555
O26 P6 1.536653 1_555
O26 Sr3 2.764417 1_555
O27 P7 1.536653 1_565
O27 Sr2 2.764417 1_555
O28 P4 1.562935 1_555
O28 Sr11 2.681973 1_455
O28 Sr2 2.751426 1_555
O29 P5 1.562935 1_555
O29 Sr10 2.681973 1_555
O29 Sr3 2.751426 1_555
O30 P11 1.553275 1_555
O30 Sr7 2.592958 1_555
O30 Sr6 2.967350 1_455
O31 P10 1.553275 1_555
O31 Sr6 2.592958 1_555
O31 Sr7 2.967350 1_555
O32 P9 1.553275 1_555
O32 Sr5 2.592958 1_555
O32 Sr4 2.967350 1_655
O33 P8 1.553275 1_555
O33 Sr4 2.592958 1_555
O33 Sr5 2.967350 1_555
O34 P11 1.567605 1_655
O34 Sr6 2.558799 1_555
O34 Sr0 2.646636 1_555
O35 P10 1.567605 1_555
O35 Sr7 2.558799 1_555
O35 Sr1 2.646636 1_555
O36 P9 1.567605 1_455
O36 Sr4 2.558799 1_555
O36 Sr2 2.646636 1_555
O37 P8 1.567605 1_555
O37 Sr5 2.558799 1_555
O37 Sr3 2.646636 1_555
O38 P11 1.573758 1_565
O38 Sr4 2.556296 1_555
O38 Sr10 2.633817 1_555
O39 P10 1.573758 1_555
O39 Sr5 2.556296 1_555
O39 Sr11 2.633817 1_555
O40 P9 1.573758 1_545
O40 Sr6 2.556296 1_555
O40 Sr8 2.633817 1_555
O41 P8 1.573758 1_555
O41 Sr7 2.556296 1_555
O41 Sr9 2.633817 1_555
O42 P11 1.538912 1_555
O42 Sr9 2.519737 1_555
O42 Sr10 2.761692 1_545
O42 Sr7 2.967729 1_555
O43 P10 1.538912 1_555
O43 Sr8 2.519737 1_555
O43 Sr11 2.761692 1_555
O43 Sr6 2.967729 1_555
O44 P9 1.538912 1_555
O44 Sr11 2.519737 1_555
O44 Sr8 2.761692 1_565
O44 Sr5 2.967729 1_555
O45 P8 1.538912 1_555
O45 Sr10 2.519737 1_555
O45 Sr9 2.761692 1_555
O45 Sr4 2.967729 1_555
O46 P7 1.562935 1_555
O46 Sr8 2.681973 1_555
O46 Sr1 2.751426 1_555
O47 P6 1.562935 1_555
O47 Sr9 2.681973 1_655
O47 Sr0 2.751426 1_555
