# generated using pymatgen
data_Ba2TaMnO6
_symmetry_space_group_name_H-M   'P 1'
_cell_length_a   5.78159532
_cell_length_b   5.78266840
_cell_length_c   19.38548581
_cell_angle_alpha   99.83320023
_cell_angle_beta   99.87410202
_cell_angle_gamma   61.29777304
_symmetry_Int_Tables_number   1
_chemical_formula_structural   Ba2TaMnO6
_chemical_formula_sum   'Ba8 Ta4 Mn4 O24'
_cell_volume   557.11949471
_cell_formula_units_Z   4
loop_
 _symmetry_equiv_pos_site_id
 _symmetry_equiv_pos_as_xyz
  1  'x, y, z'
loop_
 _atom_site_type_symbol
 _atom_site_label
 _atom_site_symmetry_multiplicity
 _atom_site_fract_x
 _atom_site_fract_y
 _atom_site_fract_z
 _atom_site_occupancy
  Ba  Ba0  1  0.24220600  0.25939200  0.74999600  1
  Ba  Ba1  1  0.50791900  0.49119900  0.50030200  1
  Ba  Ba2  1  0.00784200  0.99190900  0.00030700  1
  Ba  Ba3  1  0.74228700  0.75861600  0.24992300  1
  Ba  Ba4  1  0.61705600  0.63412400  0.87474000  1
  Ba  Ba5  1  0.88200700  0.86540100  0.62470000  1
  Ba  Ba6  1  0.38281400  0.36590800  0.12504700  1
  Ba  Ba7  1  0.11713200  0.13355800  0.37474400  1
  Ta  Ta0  1  0.92494800  0.95140700  0.81258800  1
  Ta  Ta1  1  0.19984900  0.17391100  0.56239600  1
  Ta  Ta2  1  0.69996500  0.67425600  0.06244100  1
  Ta  Ta3  1  0.42501800  0.45072300  0.31260500  1
  Mn  Mn0  1  0.31230800  0.31304300  0.93751900  1
  Mn  Mn1  1  0.56226800  0.56256000  0.68750200  1
  Mn  Mn2  1  0.06280000  0.06237700  0.18755800  1
  Mn  Mn3  1  0.81232400  0.81245800  0.43742400  1
  O  O0  1  0.21082200  0.78258800  0.75217500  1
  O  O1  1  0.51986400  0.98280500  0.50114500  1
  O  O2  1  0.02006500  0.48311500  0.00124900  1
  O  O3  1  0.71136100  0.27992700  0.25240000  1
  O  O4  1  0.60524000  0.14233700  0.87389300  1
  O  O5  1  0.91386000  0.34280600  0.62272800  1
  O  O6  1  0.41390800  0.84283700  0.12275900  1
  O  O7  1  0.10515500  0.64209900  0.37383100  1
  O  O8  1  0.10998100  0.14376400  0.87524000  1
  O  O9  1  0.39384900  0.35708800  0.62532700  1
  O  O10  1  0.89391800  0.85732800  0.12537300  1
  O  O11  1  0.60920700  0.64367300  0.37521800  1
  O  O12  1  0.73105600  0.76829400  0.74971800  1
  O  O13  1  0.01575800  0.98114900  0.49959600  1
  O  O14  1  0.51591600  0.48127600  0.99964100  1
  O  O15  1  0.23095600  0.26774100  0.24970000  1
  O  O16  1  0.73280800  0.27395300  0.75183200  1
  O  O17  1  0.02932500  0.46107900  0.50247700  1
  O  O18  1  0.52948400  0.96143600  0.00256600  1
  O  O19  1  0.23334500  0.77269400  0.25169700  1
  O  O20  1  0.09584000  0.66402200  0.87251300  1
  O  O21  1  0.39188000  0.85152400  0.62319000  1
  O  O22  1  0.89211000  0.35190000  0.12334300  1
  O  O23  1  0.59555200  0.16372300  0.37259800  1
loop_
_geom_bond_atom_site_label_1
_geom_bond_atom_site_label_2
_geom_bond_distance
_geom_bond_site_symmetry_2
Ba0 O5 2.800701 1_455
Ba0 O4 2.844992 1_555
Ba0 O0 2.856537 1_545
Ba0 O16 2.871869 1_555
Ba0 O12 2.888513 1_545
Ba0 O16 2.911855 1_455
Ba0 O9 2.932133 1_555
Ba0 O8 2.933991 1_555
Ba0 O0 2.935959 1_555
Ba0 O20 2.953158 1_555
Ba0 O12 3.006711 1_455
Ba0 O21 3.023780 1_545
Ba1 O23 2.806908 1_555
Ba1 O21 2.824315 1_555
Ba1 O17 2.862524 1_555
Ba1 O1 2.873819 1_555
Ba1 O13 2.894892 1_555
Ba1 O1 2.910138 1_545
Ba1 O17 2.928185 1_655
Ba1 O9 2.931217 1_555
Ba1 O11 2.951825 1_555
Ba1 O5 2.954317 1_555
Ba1 O13 3.000372 1_645
Ba1 O7 3.002617 1_555
Ba2 O20 2.809356 1_554
Ba2 O22 2.825517 1_465
Ba2 O18 2.862551 1_455
Ba2 O2 2.871987 1_565
Ba2 O14 2.892484 1_464
Ba2 O2 2.912042 1_555
Ba2 O18 2.928418 1_555
Ba2 O10 2.932921 1_455
Ba2 O8 2.951992 1_564
Ba2 O6 2.955235 1_555
Ba2 O4 3.001186 1_464
Ba2 O14 3.002786 1_554
Ba3 O6 2.799175 1_555
Ba3 O7 2.844610 1_655
Ba3 O3 2.867123 1_555
Ba3 O19 2.873299 1_655
Ba3 O15 2.887320 1_655
Ba3 O19 2.910285 1_555
Ba3 O3 2.925350 1_565
Ba3 O10 2.932809 1_555
Ba3 O11 2.935468 1_555
Ba3 O23 2.956878 1_565
Ba3 O15 3.007901 1_565
Ba3 O22 3.017278 1_555
Ba4 O18 2.808378 1_556
Ba4 O16 2.824136 1_555
Ba4 O20 2.863136 1_655
Ba4 O4 2.874481 1_555
Ba4 O8 2.898348 1_655
Ba4 O4 2.909450 1_565
Ba4 O20 2.927490 1_555
Ba4 O12 2.931139 1_555
Ba4 O14 2.949353 1_555
Ba4 O0 2.957143 1_555
Ba4 O8 2.996903 1_565
Ba4 O2 3.003896 1_656
Ba5 O0 2.805104 1_655
Ba5 O1 2.837557 1_555
Ba5 O5 2.860681 1_565
Ba5 O21 2.868171 1_555
Ba5 O9 2.888257 1_565
Ba5 O21 2.915281 1_655
Ba5 O5 2.931931 1_555
Ba5 O12 2.934533 1_555
Ba5 O13 2.936391 1_655
Ba5 O17 2.948392 1_655
Ba5 O9 3.007049 1_655
Ba5 O16 3.030241 1_565
Ba6 O3 2.802521 1_555
Ba6 O2 2.842773 1_555
Ba6 O6 2.856774 1_555
Ba6 O22 2.871271 1_455
Ba6 O10 2.889605 1_455
Ba6 O22 2.912273 1_555
Ba6 O15 2.933815 1_555
Ba6 O6 2.935641 1_545
Ba6 O14 2.938707 1_554
Ba6 O18 2.952262 1_545
Ba6 O10 3.005631 1_545
Ba6 O19 3.018365 1_555
Ba7 O17 2.807478 1_555
Ba7 O19 2.828175 1_545
Ba7 O23 2.861550 1_555
Ba7 O7 2.872835 1_545
Ba7 O11 2.894435 1_545
Ba7 O7 2.911139 1_555
Ba7 O23 2.929162 1_455
Ba7 O15 2.931064 1_555
Ba7 O13 2.947787 1_545
Ba7 O3 2.952152 1_455
Ba7 O11 3.000800 1_455
Ba7 O1 3.001481 1_545
Mn0 O8 1.999002 1_555
Mn0 O14 1.999009 1_555
Mn0 O2 2.013256 1_556
Mn0 O4 2.014658 1_555
Mn0 O20 2.272993 1_555
Mn0 O18 2.276216 1_546
Mn1 O16 2.005304 1_555
Mn1 O21 2.006531 1_555
Mn1 O9 2.008049 1_555
Mn1 O12 2.010895 1_555
Mn1 O0 2.272662 1_555
Mn1 O5 2.274406 1_555
Mn2 O15 2.006319 1_555
Mn2 O19 2.007167 1_545
Mn2 O22 2.007502 1_455
Mn2 O10 2.008148 1_445
Mn2 O6 2.272644 1_545
Mn2 O3 2.274160 1_455
Mn3 O11 1.999779 1_555
Mn3 O13 2.000458 1_655
Mn3 O7 2.013850 1_655
Mn3 O1 2.013999 1_555
Mn3 O23 2.272102 1_565
Mn3 O17 2.275307 1_655
O0 Ta0 1.944199 1_455
O1 Ta1 2.096593 1_565
O2 Ta2 2.096234 1_455
O3 Ta3 1.943391 1_555
O4 Ta0 2.095955 1_545
O5 Ta1 1.943629 1_655
O6 Ta2 1.943747 1_555
O7 Ta3 2.095662 1_555
O8 Ta0 2.023057 1_445
O9 Ta1 2.024561 1_555
O10 Ta2 2.023962 1_555
O11 Ta3 2.021785 1_555
O12 Ta0 2.023374 1_555
O13 Ta1 2.022143 1_565
O14 Ta2 2.022860 1_556
O15 Ta3 2.023828 1_555
O16 Ta0 2.100367 1_545
O17 Ta1 1.942249 1_555
O18 Ta2 1.941740 1_555
O19 Ta3 2.099759 1_555
O20 Ta0 1.943210 1_455
O21 Ta1 2.100150 1_565
O22 Ta2 2.101327 1_555
O23 Ta3 1.942499 1_555
