# generated using pymatgen
data_DyHg2
_symmetry_space_group_name_H-M   'P 1'
_cell_length_a   4.88589042
_cell_length_b   4.88589088
_cell_length_c   3.44699542
_cell_angle_alpha   90.00000000
_cell_angle_beta   90.00000000
_cell_angle_gamma   120.00000363
_symmetry_Int_Tables_number   1
_chemical_formula_structural   DyHg2
_chemical_formula_sum   'Dy1 Hg2'
_cell_volume   71.26213150
_cell_formula_units_Z   1
loop_
 _symmetry_equiv_pos_site_id
 _symmetry_equiv_pos_as_xyz
  1  'x, y, z'
loop_
 _atom_site_type_symbol
 _atom_site_label
 _atom_site_symmetry_multiplicity
 _atom_site_fract_x
 _atom_site_fract_y
 _atom_site_fract_z
 _atom_site_occupancy
  Dy  Dy0  1  0.00000000  -0.00000000  -0.00000000  1
  Hg  Hg0  1  0.33333300  0.66666700  0.50000000  1
  Hg  Hg1  1  0.66666700  0.33333300  0.50000000  1
loop_
_geom_bond_atom_site_label_1
_geom_bond_atom_site_label_2
_geom_bond_distance
_geom_bond_site_symmetry_2
Dy0 Hg0 3.305713 1_544
Dy0 Hg0 3.305713 1_545
Dy0 Hg1 3.305713 1_455
Dy0 Hg1 3.305713 1_454
Dy0 Hg1 3.305716 1_555
Dy0 Hg1 3.305716 1_554
Dy0 Hg0 3.305716 1_444
Dy0 Hg0 3.305716 1_445
Dy0 Hg0 3.305717 1_554
Dy0 Hg0 3.305717 1_555
Dy0 Hg1 3.305717 1_444
Dy0 Hg1 3.305717 1_445
Hg0 Hg1 2.820867 1_455
Hg0 Hg1 2.820867 1_565
Hg0 Hg1 2.820876 1_555
