# generated using pymatgen
data_K6ZnS4
_symmetry_space_group_name_H-M   'P 1'
_cell_length_a   9.79268086
_cell_length_b   9.79269965
_cell_length_c   7.63469861
_cell_angle_alpha   89.99998988
_cell_angle_beta   90.00001932
_cell_angle_gamma   119.99994295
_symmetry_Int_Tables_number   1
_chemical_formula_structural   K6ZnS4
_chemical_formula_sum   'K12 Zn2 S8'
_cell_volume   634.05482908
_cell_formula_units_Z   2
loop_
 _symmetry_equiv_pos_site_id
 _symmetry_equiv_pos_as_xyz
  1  'x, y, z'
loop_
 _atom_site_type_symbol
 _atom_site_label
 _atom_site_symmetry_multiplicity
 _atom_site_fract_x
 _atom_site_fract_y
 _atom_site_fract_z
 _atom_site_occupancy
  K  K0  1  0.29425619  0.14712848  0.95529297  1
  K  K1  1  0.85287134  0.70574360  0.95529283  1
  K  K2  1  0.85287137  0.14712835  0.95529264  1
  K  K3  1  0.70574280  0.85287155  0.45529301  1
  K  K4  1  0.14712804  0.29425566  0.45529316  1
  K  K5  1  0.14712913  0.85287156  0.45529306  1
  K  K6  1  0.05571118  0.52786387  0.13438924  1
  K  K7  1  0.47215179  0.94428844  0.13438901  1
  K  K8  1  0.47214345  0.52785612  0.13438965  1
  K  K9  1  0.94428665  0.47213598  0.63438884  1
  K  K10  1  0.52785579  0.05571233  0.63438960  1
  K  K11  1  0.52785574  0.47214389  0.63438980  1
  Zn  Zn0  1  0.66666769  0.33333197  0.24907753  1
  Zn  Zn1  1  0.33333129  0.66666801  0.74907744  1
  S  S0  1  0.66666630  0.33333318  0.93272837  1
  S  S1  1  0.33333285  0.66666665  0.43272828  1
  S  S2  1  0.39583421  0.19791763  0.34735088  1
  S  S3  1  0.80208204  0.60416564  0.34735081  1
  S  S4  1  0.80208199  0.19791761  0.34735050  1
  S  S5  1  0.60416500  0.80208247  0.84735092  1
  S  S6  1  0.19791702  0.39583449  0.84735093  1
  S  S7  1  0.19791713  0.80208248  0.84735054  1
loop_
_geom_bond_atom_site_label_1
_geom_bond_atom_site_label_2
_geom_bond_distance
_geom_bond_site_symmetry_2
K0 S2 3.114741 1_556
K0 S6 3.130265 1_555
K0 S7 3.130277 1_545
K0 S0 3.162999 1_555
K1 S3 3.114742 1_556
K1 S5 3.130262 1_555
K1 S7 3.130269 1_655
K1 S0 3.163008 1_555
K2 S4 3.114743 1_556
K2 S6 3.130268 1_655
K2 S5 3.130273 1_545
K2 S0 3.162997 1_555
K3 S5 3.114741 1_555
K3 S3 3.130265 1_555
K3 S4 3.130277 1_565
K3 S1 3.162998 1_555
K4 S6 3.114743 1_555
K4 S2 3.130256 1_555
K4 S4 3.130273 1_455
K4 S1 3.163013 1_555
K5 S7 3.114736 1_555
K5 S2 3.130272 1_565
K5 S3 3.130278 1_455
K5 S1 3.162987 1_555
K6 S7 3.195819 1_554
K6 S6 3.195915 1_554
K6 S1 3.275880 1_555
K6 S3 3.350596 1_455
K6 S4 3.350689 1_455
K7 S5 3.195817 1_554
K7 S7 3.195912 1_554
K7 S1 3.275885 1_555
K7 S4 3.350593 1_565
K7 S2 3.350692 1_565
K8 S6 3.195863 1_554
K8 S5 3.195866 1_554
K8 S1 3.275875 1_555
K8 S3 3.350637 1_555
K8 S2 3.350644 1_555
K9 S4 3.195815 1_555
K9 S3 3.195907 1_555
K9 S0 3.275875 1_555
K9 S6 3.350605 1_655
K9 S7 3.350695 1_655
K10 S4 3.195864 1_555
K10 S2 3.195866 1_555
K10 S0 3.275877 1_555
K10 S7 3.350643 1_545
K10 S5 3.350646 1_545
K11 S3 3.195864 1_555
K11 S2 3.195866 1_555
K11 S0 3.275875 1_555
K11 S6 3.350640 1_555
K11 S5 3.350644 1_555
S0 Zn0 2.415230 1_556
S1 Zn1 2.415230 1_555
S2 Zn0 2.416300 1_555
S3 Zn0 2.416305 1_555
S4 Zn0 2.416260 1_555
S5 Zn1 2.416302 1_555
S6 Zn1 2.416305 1_555
S7 Zn1 2.416260 1_555
