# generated using pymatgen
data_Sr3(BN2)2
_symmetry_space_group_name_H-M   'P 1'
_cell_length_a   7.64709347
_cell_length_b   7.64709347
_cell_length_c   7.64709347
_cell_angle_alpha   90.00000000
_cell_angle_beta   90.00000000
_cell_angle_gamma   90.00000000
_symmetry_Int_Tables_number   1
_chemical_formula_structural   Sr3(BN2)2
_chemical_formula_sum   'Sr9 B6 N12'
_cell_volume   447.18702665
_cell_formula_units_Z   3
loop_
 _symmetry_equiv_pos_site_id
 _symmetry_equiv_pos_as_xyz
  1  'x, y, z'
loop_
 _atom_site_type_symbol
 _atom_site_label
 _atom_site_symmetry_multiplicity
 _atom_site_fract_x
 _atom_site_fract_y
 _atom_site_fract_z
 _atom_site_occupancy
  Sr  Sr0  1  0.73700463  0.73700463  0.26299537  1
  Sr  Sr1  1  0.26299537  0.26299537  0.73700463  1
  Sr  Sr2  1  0.73700463  0.26299537  0.73700463  1
  Sr  Sr3  1  0.26299537  0.73700463  0.26299537  1
  Sr  Sr4  1  0.73700463  0.26299537  0.26299537  1
  Sr  Sr5  1  0.26299537  0.73700463  0.73700463  1
  Sr  Sr6  1  0.73700463  0.73700463  0.73700463  1
  Sr  Sr7  1  0.26299537  0.26299537  0.26299537  1
  Sr  Sr8  1  -0.00000000  -0.00000000  0.00000000  1
  B  B0  1  -0.00000000  -0.00000000  0.50000000  1
  B  B1  1  0.50000000  0.50000000  0.00000000  1
  B  B2  1  0.50000000  -0.00000000  0.50000000  1
  B  B3  1  -0.00000000  0.50000000  0.00000000  1
  B  B4  1  0.50000000  -0.00000000  0.00000000  1
  B  B5  1  -0.00000000  0.50000000  0.50000000  1
  N  N0  1  0.50000000  0.50000000  0.17500924  1
  N  N1  1  -0.00000000  -0.00000000  0.67473792  1
  N  N2  1  0.50000000  0.82499076  0.50000000  1
  N  N3  1  -0.00000000  0.32526208  0.00000000  1
  N  N4  1  0.32526208  -0.00000000  0.00000000  1
  N  N5  1  0.82499076  0.50000000  0.50000000  1
  N  N6  1  0.50000000  0.50000000  0.82499076  1
  N  N7  1  -0.00000000  -0.00000000  0.32526208  1
  N  N8  1  0.50000000  0.17500924  0.50000000  1
  N  N9  1  -0.00000000  0.67473792  0.00000000  1
  N  N10  1  0.67473792  -0.00000000  0.00000000  1
  N  N11  1  0.17500924  0.50000000  0.50000000  1
loop_
_geom_bond_atom_site_label_1
_geom_bond_atom_site_label_2
_geom_bond_distance
_geom_bond_site_symmetry_2
B0 N1 1.336237 1_555
B0 N7 1.336237 1_555
B1 N6 1.338312 1_554
B1 N0 1.338312 1_555
B2 N2 1.338312 1_545
B2 N8 1.338312 1_555
B3 N3 1.336237 1_555
B3 N9 1.336237 1_555
B4 N10 1.336237 1_555
B4 N4 1.336237 1_555
B5 N5 1.338312 1_455
B5 N11 1.338312 1_555
N0 Sr4 2.649957 1_555
N0 Sr7 2.649957 1_555
N0 Sr3 2.649957 1_555
N0 Sr0 2.649957 1_555
N1 Sr8 2.487310 1_556
N1 Sr6 2.883778 1_445
N1 Sr5 2.883778 1_545
N1 Sr1 2.883778 1_555
N1 Sr2 2.883778 1_455
N2 Sr3 2.649957 1_555
N2 Sr0 2.649957 1_555
N2 Sr6 2.649957 1_555
N2 Sr5 2.649957 1_555
N3 Sr8 2.487310 1_555
N3 Sr2 2.883778 1_454
N3 Sr4 2.883778 1_455
N3 Sr1 2.883778 1_554
N3 Sr7 2.883778 1_555
N4 Sr8 2.487310 1_555
N4 Sr5 2.883778 1_544
N4 Sr1 2.883778 1_554
N4 Sr3 2.883778 1_545
N4 Sr7 2.883778 1_555
N5 Sr4 2.649957 1_555
N5 Sr6 2.649957 1_555
N5 Sr2 2.649957 1_555
N5 Sr0 2.649957 1_555
N6 Sr2 2.649957 1_555
N6 Sr1 2.649957 1_555
N6 Sr6 2.649957 1_555
N6 Sr5 2.649957 1_555
N7 Sr8 2.487310 1_555
N7 Sr0 2.883778 1_445
N7 Sr4 2.883778 1_455
N7 Sr3 2.883778 1_545
N7 Sr7 2.883778 1_555
N8 Sr4 2.649957 1_555
N8 Sr7 2.649957 1_555
N8 Sr1 2.649957 1_555
N8 Sr2 2.649957 1_555
N9 Sr8 2.487310 1_565
N9 Sr6 2.883778 1_454
N9 Sr5 2.883778 1_554
N9 Sr0 2.883778 1_455
N9 Sr3 2.883778 1_555
N10 Sr8 2.487310 1_655
N10 Sr2 2.883778 1_554
N10 Sr6 2.883778 1_544
N10 Sr0 2.883778 1_545
N10 Sr4 2.883778 1_555
N11 Sr7 2.649957 1_555
N11 Sr3 2.649957 1_555
N11 Sr1 2.649957 1_555
N11 Sr5 2.649957 1_555
