# generated using pymatgen
data_Eu2Co12P7
_symmetry_space_group_name_H-M   'P 1'
_cell_length_a   3.58348900
_cell_length_b   9.10503517
_cell_length_c   9.08702404
_cell_angle_alpha   120.10969725
_cell_angle_beta   90.00000000
_cell_angle_gamma   90.00000000
_symmetry_Int_Tables_number   1
_chemical_formula_structural   Eu2Co12P7
_chemical_formula_sum   'Eu2 Co12 P7'
_cell_volume   256.48317928
_cell_formula_units_Z   1
loop_
 _symmetry_equiv_pos_site_id
 _symmetry_equiv_pos_as_xyz
  1  'x, y, z'
loop_
 _atom_site_type_symbol
 _atom_site_label
 _atom_site_symmetry_multiplicity
 _atom_site_fract_x
 _atom_site_fract_y
 _atom_site_fract_z
 _atom_site_occupancy
  Eu  Eu0  1  0.00000000  0.66645400  0.33357100  1
  Eu  Eu1  1  0.50000000  0.33360200  0.66659400  1
  Co  Co0  1  0.00000000  0.37587700  0.94373900  1
  Co  Co1  1  0.00000000  0.05597700  0.43179700  1
  Co  Co2  1  0.00000000  0.56796200  0.62408700  1
  Co  Co3  1  0.00000000  0.88141200  0.72942700  1
  Co  Co4  1  0.00000000  0.27058200  0.15202700  1
  Co  Co5  1  0.00000000  0.84789600  0.11855300  1
  Co  Co6  1  0.50000000  0.94954500  0.56778700  1
  Co  Co7  1  0.50000000  0.43221500  0.38219300  1
  Co  Co8  1  0.50000000  0.61776200  0.05023700  1
  Co  Co9  1  0.50000000  0.13228000  0.89594700  1
  Co  Co10  1  0.50000000  0.10325500  0.23480500  1
  Co  Co11  1  0.50000000  0.76516500  0.86865000  1
  P  P0  1  0.00000000  0.10997600  0.70760300  1
  P  P1  1  0.00000000  0.29227700  0.40242200  1
  P  P2  1  0.00000000  0.59766000  0.88990000  1
  P  P3  1  0.50000000  0.70895200  0.60194300  1
  P  P4  1  0.50000000  0.39829200  0.10704600  1
  P  P5  1  0.50000000  0.89297100  0.29119700  1
  P  P6  1  0.00000000  0.99988900  0.00047500  1
loop_
_geom_bond_atom_site_label_1
_geom_bond_atom_site_label_2
_geom_bond_distance
_geom_bond_site_symmetry_2
Eu0 P3 2.891466 1_555
Eu0 P3 2.891466 1_455
Eu0 P4 2.892483 1_555
Eu0 P4 2.892483 1_455
Eu0 P5 2.899841 1_555
Eu0 P5 2.899841 1_455
Eu1 P1 2.865008 1_555
Eu1 P1 2.865008 1_655
Eu1 P2 2.865928 1_555
Eu1 P2 2.865928 1_655
Eu1 P0 2.873376 1_555
Eu1 P0 2.873376 1_655
Co0 P4 2.269430 1_456
Co0 P4 2.269430 1_556
Co0 P0 2.292063 1_555
Co0 P2 2.303976 1_555
Co0 Eu1 2.954382 1_555
Co0 Eu1 2.954382 1_455
Co0 Eu0 3.185156 1_556
Co1 P5 2.267809 1_445
Co1 P5 2.267809 1_545
Co1 P1 2.297064 1_555
Co1 P0 2.299290 1_555
Co1 Eu1 2.956543 1_455
Co1 Eu1 2.956543 1_555
Co1 Eu0 3.193600 1_545
Co2 P3 2.271111 1_555
Co2 P3 2.271111 1_455
Co2 P2 2.291769 1_555
Co2 P1 2.298952 1_555
Co2 Eu1 2.956323 1_555
Co2 Eu1 2.956323 1_455
Co2 Eu0 3.185698 1_555
Co3 P6 2.136442 1_556
Co3 P0 2.187308 1_565
Co3 P3 2.278807 1_455
Co3 P3 2.278807 1_555
Co3 Eu0 3.115519 1_555
Co4 P6 2.136743 1_545
Co4 P1 2.182950 1_555
Co4 P4 2.281753 1_555
Co4 P4 2.281753 1_455
Co4 Eu0 3.122096 1_555
Co5 P6 2.134545 1_555
Co5 P2 2.181417 1_554
Co5 P5 2.279032 1_455
Co5 P5 2.279032 1_555
Co5 Eu0 3.128164 1_555
Co6 P0 2.257489 1_565
Co6 P0 2.257489 1_665
Co6 P5 2.298578 1_555
Co6 P3 2.361623 1_555
Co6 Eu0 2.979907 1_555
Co6 Eu0 2.979907 1_655
Co7 P1 2.258885 1_655
Co7 P1 2.258885 1_555
Co7 P3 2.299607 1_555
Co7 P4 2.360492 1_555
Co7 Eu0 2.983226 1_555
Co7 Eu0 2.983226 1_655
Co8 P2 2.258119 1_654
Co8 P2 2.258119 1_554
Co8 P4 2.301000 1_555
Co8 P5 2.359763 1_555
Co8 Eu0 2.981702 1_655
Co8 Eu0 2.981702 1_555
Co9 P4 2.210096 1_556
Co9 P0 2.414965 1_655
Co9 P0 2.414965 1_555
Co9 P6 2.591211 1_546
Co9 P6 2.591211 1_646
Co10 P5 2.216491 1_545
Co10 P1 2.421205 1_555
Co10 P1 2.421205 1_655
Co10 P6 2.572859 1_645
Co10 P6 2.572859 1_545
Co11 P3 2.211587 1_555
Co11 P2 2.422636 1_555
Co11 P2 2.422636 1_655
Co11 P6 2.577636 1_656
Co11 P6 2.577636 1_556
