# generated using pymatgen
data_In2AgTe3Br
_symmetry_space_group_name_H-M   'P 1'
_cell_length_a   4.30070700
_cell_length_b   4.30070700
_cell_length_c   11.70547000
_cell_angle_alpha   90.00000000
_cell_angle_beta   90.00000000
_cell_angle_gamma   90.00000000
_symmetry_Int_Tables_number   1
_chemical_formula_structural   In2AgTe3Br
_chemical_formula_sum   'In2 Ag1 Te3 Br1'
_cell_volume   216.50531775
_cell_formula_units_Z   1
loop_
 _symmetry_equiv_pos_site_id
 _symmetry_equiv_pos_as_xyz
  1  'x, y, z'
loop_
 _atom_site_type_symbol
 _atom_site_label
 _atom_site_symmetry_multiplicity
 _atom_site_fract_x
 _atom_site_fract_y
 _atom_site_fract_z
 _atom_site_occupancy
  In  In0  1  0.50000000  0.50000000  0.73581300  1
  In  In1  1  0.50000000  0.50000000  0.26418700  1
  Ag  Ag0  1  0.00000000  0.00000000  0.00000000  1
  Te  Te0  1  0.00000000  0.00000000  0.76041200  1
  Te  Te1  1  0.00000000  0.00000000  0.23958800  1
  Te  Te2  1  0.50000000  0.50000000  0.00000000  1
  Br  Br0  1  0.50000000  0.50000000  0.50000000  1
loop_
_geom_bond_atom_site_label_1
_geom_bond_atom_site_label_2
_geom_bond_distance
_geom_bond_site_symmetry_2
In0 Te0 3.054661 1_665
In0 Te0 3.054661 1_555
In0 Te0 3.054661 1_565
In0 Te0 3.054661 1_655
In0 Te2 3.092433 1_556
In1 Te1 3.054661 1_565
In1 Te1 3.054661 1_555
In1 Te1 3.054661 1_655
In1 Te1 3.054661 1_665
In1 Te2 3.092433 1_555
Ag0 Te1 2.804490 1_555
Ag0 Te0 2.804490 1_554
Ag0 Te2 3.041059 1_445
Ag0 Te2 3.041059 1_455
Ag0 Te2 3.041059 1_545
Ag0 Te2 3.041059 1_555
Br0 In1 2.760302 1_555
Br0 In0 2.760302 1_555
