# generated using pymatgen
data_TiCrAgS4
_symmetry_space_group_name_H-M   'P 1'
_cell_length_a   3.48723900
_cell_length_b   11.21655300
_cell_length_c   12.85787700
_cell_angle_alpha   90.00000000
_cell_angle_beta   90.00000000
_cell_angle_gamma   90.00000000
_symmetry_Int_Tables_number   1
_chemical_formula_structural   TiCrAgS4
_chemical_formula_sum   'Ti4 Cr4 Ag4 S16'
_cell_volume   502.93330100
_cell_formula_units_Z   4
loop_
 _symmetry_equiv_pos_site_id
 _symmetry_equiv_pos_as_xyz
  1  'x, y, z'
loop_
 _atom_site_type_symbol
 _atom_site_label
 _atom_site_symmetry_multiplicity
 _atom_site_fract_x
 _atom_site_fract_y
 _atom_site_fract_z
 _atom_site_occupancy
  Ti  Ti0  1  0.00000000  0.05109900  0.63071300  1
  Ti  Ti1  1  0.00000000  0.55109900  0.36928700  1
  Ti  Ti2  1  0.00000000  0.09012800  0.15306100  1
  Ti  Ti3  1  0.00000000  0.59012800  0.84693900  1
  Cr  Cr0  1  0.50000000  0.94675600  0.85928300  1
  Cr  Cr1  1  0.50000000  0.44675600  0.14071700  1
  Cr  Cr2  1  0.50000000  0.91688400  0.33934300  1
  Cr  Cr3  1  0.50000000  0.41688400  0.66065700  1
  Ag  Ag0  1  0.50000000  0.75032600  0.07171100  1
  Ag  Ag1  1  0.00000000  0.24276700  0.43551200  1
  Ag  Ag2  1  0.00000000  0.74276700  0.56448800  1
  Ag  Ag3  1  0.50000000  0.25032600  0.92828900  1
  S  S0  1  0.00000000  0.96424700  0.45995600  1
  S  S1  1  0.50000000  0.03357600  0.03381500  1
  S  S2  1  0.50000000  0.53357600  0.96618500  1
  S  S3  1  0.00000000  0.46424700  0.54004400  1
  S  S4  1  0.50000000  0.90821700  0.67929800  1
  S  S5  1  0.00000000  0.08633600  0.81836600  1
  S  S6  1  0.00000000  0.58633600  0.18163400  1
  S  S7  1  0.50000000  0.40821700  0.32070200  1
  S  S8  1  0.00000000  0.88316500  0.21587900  1
  S  S9  1  0.50000000  0.11914100  0.28437500  1
  S  S10  1  0.50000000  0.61914100  0.71562500  1
  S  S11  1  0.00000000  0.38316500  0.78412100  1
  S  S12  1  0.00000000  0.80361800  0.89701500  1
  S  S13  1  0.50000000  0.20374200  0.60292400  1
  S  S14  1  0.50000000  0.70374200  0.39707600  1
  S  S15  1  0.00000000  0.30361800  0.10298500  1
loop_
_geom_bond_atom_site_label_1
_geom_bond_atom_site_label_2
_geom_bond_distance
_geom_bond_site_symmetry_2
Cr0 S4 2.354251 1_555
Cr0 S5 2.401691 1_565
Cr0 S5 2.401691 1_665
Cr0 S12 2.419351 1_655
Cr0 S12 2.419351 1_555
Cr0 S1 2.446296 1_566
Cr1 S7 2.354251 1_555
Cr1 S6 2.401691 1_655
Cr1 S6 2.401691 1_555
Cr1 S15 2.419351 1_555
Cr1 S15 2.419351 1_655
Cr1 S2 2.446296 1_554
Cr2 S9 2.376172 1_565
Cr2 S8 2.388171 1_555
Cr2 S8 2.388171 1_655
Cr2 S0 2.393220 1_655
Cr2 S0 2.393220 1_555
Cr2 S14 2.503314 1_555
Cr3 S10 2.376172 1_555
Cr3 S11 2.388171 1_555
Cr3 S11 2.388171 1_655
Cr3 S3 2.393220 1_555
Cr3 S3 2.393220 1_655
Cr3 S13 2.503314 1_555
Ag0 S2 2.784186 1_554
Ag0 S6 2.901938 1_655
Ag0 S6 2.901938 1_555
Ag0 S12 2.905688 1_554
Ag0 S12 2.905688 1_654
Ag0 S8 2.948979 1_655
Ag0 S8 2.948979 1_555
Ag1 S13 2.804521 1_555
Ag1 S13 2.804521 1_455
Ag1 S3 2.824527 1_555
Ag1 S7 2.943353 1_455
Ag1 S7 2.943353 1_555
Ag1 S9 2.956256 1_455
Ag1 S9 2.956256 1_555
Ag1 S0 3.139805 1_545
Ag2 S14 2.804521 1_455
Ag2 S14 2.804521 1_555
Ag2 S0 2.824527 1_555
Ag2 S4 2.943353 1_455
Ag2 S4 2.943353 1_555
Ag2 S10 2.956256 1_555
Ag2 S10 2.956256 1_455
Ag2 S3 3.139805 1_555
Ag3 S1 2.784186 1_556
Ag3 S5 2.901938 1_555
Ag3 S5 2.901938 1_655
Ag3 S15 2.905688 1_656
Ag3 S15 2.905688 1_556
Ag3 S11 2.948979 1_555
Ag3 S11 2.948979 1_655
S0 Ti0 2.401992 1_565
S1 Ti2 2.406954 1_655
S1 Ti2 2.406954 1_555
S2 Ti3 2.406954 1_555
S2 Ti3 2.406954 1_655
S3 Ti1 2.401992 1_555
S4 Ti0 2.449270 1_665
S4 Ti0 2.449270 1_565
S5 Ti0 2.444976 1_555
S6 Ti1 2.444976 1_555
S7 Ti1 2.449270 1_655
S7 Ti1 2.449270 1_555
S8 Ti2 2.457914 1_565
S9 Ti2 2.448851 1_655
S9 Ti2 2.448851 1_555
S10 Ti3 2.448851 1_555
S10 Ti3 2.448851 1_655
S11 Ti3 2.457914 1_555
S12 Ti3 2.479674 1_555
S13 Ti0 2.469668 1_555
S13 Ti0 2.469668 1_655
S14 Ti1 2.469668 1_555
S14 Ti1 2.469668 1_655
S15 Ti2 2.479674 1_555
