# generated using pymatgen
data_BaCaSmBiO6
_symmetry_space_group_name_H-M   'P 1'
_cell_length_a   8.61256981
_cell_length_b   8.64561392
_cell_length_c   8.62493626
_cell_angle_alpha   90.00000000
_cell_angle_beta   90.00000000
_cell_angle_gamma   90.00000000
_symmetry_Int_Tables_number   1
_chemical_formula_structural   BaCaSmBiO6
_chemical_formula_sum   'Ba4 Ca4 Sm4 Bi4 O24'
_cell_volume   642.22097725
_cell_formula_units_Z   4
loop_
 _symmetry_equiv_pos_site_id
 _symmetry_equiv_pos_as_xyz
  1  'x, y, z'
loop_
 _atom_site_type_symbol
 _atom_site_label
 _atom_site_symmetry_multiplicity
 _atom_site_fract_x
 _atom_site_fract_y
 _atom_site_fract_z
 _atom_site_occupancy
  Ba  Ba0  1  0.00000000  0.00000000  0.00000000  1
  Ba  Ba1  1  0.50000000  0.50000000  0.50000000  1
  Ba  Ba2  1  0.00000000  0.50000000  0.00000000  1
  Ba  Ba3  1  0.00000000  0.00000000  0.50000000  1
  Ca  Ca0  1  0.00000000  0.50000000  0.50000000  1
  Ca  Ca1  1  0.50000000  0.00000000  0.50000000  1
  Ca  Ca2  1  0.50000000  0.50000000  0.00000000  1
  Ca  Ca3  1  0.50000000  0.00000000  0.00000000  1
  Sm  Sm0  1  0.25533506  0.25102636  0.25156077  1
  Sm  Sm1  1  0.74466494  0.74897364  0.25156077  1
  Sm  Sm2  1  0.74466494  0.25102636  0.74843923  1
  Sm  Sm3  1  0.25533506  0.74897364  0.74843923  1
  Bi  Bi0  1  0.74352827  0.74851311  0.75064867  1
  Bi  Bi1  1  0.25647173  0.25148689  0.75064867  1
  Bi  Bi2  1  0.25647173  0.74851311  0.24935133  1
  Bi  Bi3  1  0.74352827  0.25148689  0.24935133  1
  O  O0  1  0.98924582  0.21185307  0.27655657  1
  O  O1  1  0.01075418  0.78814693  0.27655657  1
  O  O2  1  0.01075418  0.21185307  0.72344343  1
  O  O3  1  0.98924582  0.78814693  0.72344343  1
  O  O4  1  0.30302330  0.98990939  0.20179836  1
  O  O5  1  0.30302330  0.01009061  0.79820164  1
  O  O6  1  0.69697670  0.01009061  0.20179836  1
  O  O7  1  0.69697670  0.98990939  0.79820164  1
  O  O8  1  0.21965409  0.28478514  0.99202696  1
  O  O9  1  0.78034591  0.28478514  0.00797304  1
  O  O10  1  0.21965409  0.71521486  0.00797304  1
  O  O11  1  0.78034591  0.71521486  0.99202696  1
  O  O12  1  0.50867184  0.31465170  0.20676464  1
  O  O13  1  0.49132816  0.68534830  0.20676464  1
  O  O14  1  0.49132816  0.31465170  0.79323536  1
  O  O15  1  0.50867184  0.68534830  0.79323536  1
  O  O16  1  0.20586589  0.51064807  0.30962542  1
  O  O17  1  0.20586589  0.48935193  0.69037458  1
  O  O18  1  0.79413411  0.48935193  0.30962542  1
  O  O19  1  0.79413411  0.51064807  0.69037458  1
  O  O20  1  0.30582456  0.19907084  0.51116171  1
  O  O21  1  0.69417544  0.19907084  0.48883829  1
  O  O22  1  0.30582456  0.80092916  0.48883829  1
  O  O23  1  0.69417544  0.80092916  0.51116171  1
loop_
_geom_bond_atom_site_label_1
_geom_bond_atom_site_label_2
_geom_bond_distance
_geom_bond_site_symmetry_2
Ba0 O2 3.008806 1_554
Ba0 O1 3.008806 1_545
Ba0 O0 3.008806 1_455
Ba0 O3 3.008806 1_444
Ba0 O9 3.105757 1_455
Ba0 O10 3.105757 1_545
Ba0 O8 3.105757 1_554
Ba0 O11 3.105757 1_444
Ba0 O5 3.138160 1_554
Ba0 O7 3.138160 1_444
Ba0 O6 3.138160 1_455
Ba0 O4 3.138160 1_545
Ba1 O15 2.994988 1_555
Ba1 O14 2.994988 1_555
Ba1 O13 2.994988 1_555
Ba1 O12 2.994988 1_555
Ba1 O16 3.020247 1_555
Ba1 O17 3.020247 1_555
Ba1 O18 3.020247 1_555
Ba1 O19 3.020247 1_555
Ba1 O20 3.094342 1_555
Ba1 O23 3.094342 1_555
Ba1 O21 3.094342 1_555
Ba1 O22 3.094342 1_555
Ba2 O11 2.654366 1_454
Ba2 O8 2.654366 1_554
Ba2 O9 2.654366 1_455
Ba2 O10 2.654366 1_555
Ba2 O16 3.206820 1_555
Ba2 O18 3.206820 1_455
Ba2 O17 3.206820 1_554
Ba2 O19 3.206820 1_454
Ba3 O1 2.660335 1_545
Ba3 O0 2.660335 1_455
Ba3 O2 2.660335 1_555
Ba3 O3 2.660335 1_445
Ba3 O22 3.147862 1_545
Ba3 O21 3.147862 1_455
Ba3 O20 3.147862 1_555
Ba3 O23 3.147862 1_445
Ca0 O17 2.418302 1_555
Ca0 O19 2.418302 1_455
Ca0 O16 2.418302 1_555
Ca0 O18 2.418302 1_455
Ca1 O22 2.401702 1_545
Ca1 O21 2.401702 1_555
Ca1 O20 2.401702 1_555
Ca1 O23 2.401702 1_545
Ca2 O12 2.398686 1_555
Ca2 O13 2.398686 1_555
Ca2 O14 2.398686 1_554
Ca2 O15 2.398686 1_554
Ca2 O8 3.049034 1_554
Ca2 O11 3.049034 1_554
Ca2 O9 3.049034 1_555
Ca2 O10 3.049034 1_555
Ca3 O7 2.432072 1_544
Ca3 O5 2.432072 1_554
Ca3 O4 2.432072 1_545
Ca3 O6 2.432072 1_555
Bi0 O11 2.125469 1_555
Bi0 O15 2.127093 1_555
Bi0 O3 2.156624 1_555
Bi0 O23 2.156982 1_555
Bi0 O7 2.164396 1_555
Bi0 O19 2.165494 1_555
Bi1 O8 2.125469 1_555
Bi1 O14 2.127093 1_555
Bi1 O2 2.156624 1_555
Bi1 O20 2.156982 1_555
Bi1 O5 2.164396 1_555
Bi1 O17 2.165494 1_555
Bi2 O10 2.125469 1_555
Bi2 O13 2.127093 1_555
Bi2 O1 2.156624 1_555
Bi2 O22 2.156982 1_555
Bi2 O4 2.164396 1_555
Bi2 O16 2.165494 1_555
Bi3 O9 2.125469 1_555
Bi3 O12 2.127093 1_555
Bi3 O0 2.156624 1_555
Bi3 O21 2.156982 1_555
Bi3 O6 2.164396 1_555
Bi3 O18 2.165494 1_555
O0 Sm0 2.326612 1_655
O1 Sm1 2.326612 1_455
O2 Sm2 2.326612 1_455
O3 Sm3 2.326612 1_655
O4 Sm0 2.334369 1_565
O5 Sm3 2.334369 1_545
O6 Sm1 2.334369 1_545
O7 Sm2 2.334369 1_565
O8 Sm0 2.278231 1_556
O9 Sm2 2.278231 1_554
O10 Sm3 2.278231 1_554
O11 Sm1 2.278231 1_556
O12 Sm0 2.283083 1_555
O13 Sm1 2.283083 1_555
O14 Sm2 2.283083 1_555
O15 Sm3 2.283083 1_555
O16 Sm0 2.338912 1_555
O17 Sm3 2.338912 1_555
O18 Sm1 2.338912 1_555
O19 Sm2 2.338912 1_555
O20 Sm0 2.324686 1_555
O21 Sm2 2.324686 1_555
O22 Sm3 2.324686 1_555
O23 Sm1 2.324686 1_555
