# generated using pymatgen
data_CaCdPt
_symmetry_space_group_name_H-M   'P 1'
_cell_length_a   4.30573501
_cell_length_b   7.24993804
_cell_length_c   8.54104201
_cell_angle_alpha   90.00000000
_cell_angle_beta   90.00000000
_cell_angle_gamma   90.00000000
_symmetry_Int_Tables_number   1
_chemical_formula_structural   CaCdPt
_chemical_formula_sum   'Ca4 Cd4 Pt4'
_cell_volume   266.61983252
_cell_formula_units_Z   4
loop_
 _symmetry_equiv_pos_site_id
 _symmetry_equiv_pos_as_xyz
  1  'x, y, z'
loop_
 _atom_site_type_symbol
 _atom_site_label
 _atom_site_symmetry_multiplicity
 _atom_site_fract_x
 _atom_site_fract_y
 _atom_site_fract_z
 _atom_site_occupancy
  Ca  Ca0  1  0.75000000  0.46513208  0.17694650  1
  Ca  Ca1  1  0.75000000  0.96513208  0.32305350  1
  Ca  Ca2  1  0.25000000  0.53486792  0.82305350  1
  Ca  Ca3  1  0.25000000  0.03486792  0.67694650  1
  Cd  Cd0  1  0.75000000  0.35718679  0.56286450  1
  Cd  Cd1  1  0.75000000  0.85718679  0.93713550  1
  Cd  Cd2  1  0.25000000  0.64281321  0.43713550  1
  Cd  Cd3  1  0.25000000  0.14281321  0.06286450  1
  Pt  Pt0  1  0.75000000  0.24135860  0.87150808  1
  Pt  Pt1  1  0.75000000  0.74135860  0.62849192  1
  Pt  Pt2  1  0.25000000  0.75864140  0.12849192  1
  Pt  Pt3  1  0.25000000  0.25864140  0.37150808  1
loop_
_geom_bond_atom_site_label_1
_geom_bond_atom_site_label_2
_geom_bond_distance
_geom_bond_site_symmetry_2
Ca0 Pt2 3.055188 1_655
Ca0 Pt2 3.055188 1_555
Ca0 Pt0 3.072074 1_554
Ca0 Pt3 3.104420 1_655
Ca0 Pt3 3.104420 1_555
Ca1 Pt3 3.055188 1_565
Ca1 Pt3 3.055188 1_665
Ca1 Pt1 3.072074 1_555
Ca1 Pt2 3.104420 1_655
Ca1 Pt2 3.104420 1_555
Ca2 Pt0 3.055188 1_455
Ca2 Pt0 3.055188 1_555
Ca2 Pt2 3.072074 1_556
Ca2 Pt1 3.104420 1_555
Ca2 Pt1 3.104420 1_455
Ca3 Pt1 3.055188 1_545
Ca3 Pt1 3.055188 1_445
Ca3 Pt3 3.072074 1_555
Ca3 Pt0 3.104420 1_455
Ca3 Pt0 3.104420 1_555
Cd0 Pt0 2.766658 1_555
Cd0 Pt3 2.795797 1_555
Cd0 Pt3 2.795797 1_655
Cd0 Pt1 2.841065 1_555
Cd1 Pt1 2.766658 1_555
Cd1 Pt2 2.795797 1_556
Cd1 Pt2 2.795797 1_656
Cd1 Pt0 2.841065 1_565
Cd2 Pt2 2.766658 1_555
Cd2 Pt1 2.795797 1_455
Cd2 Pt1 2.795797 1_555
Cd2 Pt3 2.841065 1_555
Cd3 Pt3 2.766658 1_555
Cd3 Pt0 2.795797 1_454
Cd3 Pt0 2.795797 1_554
Cd3 Pt2 2.841065 1_545
