# generated using pymatgen
data_Li6Sm(BO3)3
_symmetry_space_group_name_H-M   'P 1'
_cell_length_a   16.59493500
_cell_length_b   6.78963500
_cell_length_c   7.32250445
_cell_angle_alpha   74.28313376
_cell_angle_beta   90.00000000
_cell_angle_gamma   90.00000000
_symmetry_Int_Tables_number   1
_chemical_formula_structural   Li6Sm(BO3)3
_chemical_formula_sum   'Li24 Sm4 B12 O36'
_cell_volume   794.20555533
_cell_formula_units_Z   4
loop_
 _symmetry_equiv_pos_site_id
 _symmetry_equiv_pos_as_xyz
  1  'x, y, z'
loop_
 _atom_site_type_symbol
 _atom_site_label
 _atom_site_symmetry_multiplicity
 _atom_site_fract_x
 _atom_site_fract_y
 _atom_site_fract_z
 _atom_site_occupancy
  Li  Li0  1  0.96613500  0.94615000  0.19330900  1
  Li  Li1  1  0.03386500  0.05385000  0.80669100  1
  Li  Li2  1  0.46613500  0.55385000  0.80669100  1
  Li  Li3  1  0.53386500  0.44615000  0.19330900  1
  Li  Li4  1  0.55434900  0.91124100  0.63725300  1
  Li  Li5  1  0.44565100  0.08875900  0.36274700  1
  Li  Li6  1  0.05434900  0.58875900  0.36274700  1
  Li  Li7  1  0.94565100  0.41124100  0.63725300  1
  Li  Li8  1  0.46997800  0.83132200  0.04303400  1
  Li  Li9  1  0.53002200  0.16867800  0.95696600  1
  Li  Li10  1  0.96997800  0.66867800  0.95696600  1
  Li  Li11  1  0.03002200  0.33132200  0.04303400  1
  Li  Li12  1  0.70685300  0.86518900  0.79049900  1
  Li  Li13  1  0.29314700  0.13481100  0.20950100  1
  Li  Li14  1  0.20685300  0.63481100  0.20950100  1
  Li  Li15  1  0.79314700  0.36518900  0.79049900  1
  Li  Li16  1  0.79660000  0.95503500  0.06073500  1
  Li  Li17  1  0.20340000  0.04496500  0.93926500  1
  Li  Li18  1  0.29660000  0.54496500  0.93926500  1
  Li  Li19  1  0.70340000  0.45503500  0.06073500  1
  Li  Li20  1  0.99565700  0.82292500  0.57438900  1
  Li  Li21  1  0.00434300  0.17707500  0.42561100  1
  Li  Li22  1  0.49565700  0.67707500  0.42561100  1
  Li  Li23  1  0.50434300  0.32292500  0.57438900  1
  Sm  Sm0  1  0.68991000  0.65262400  0.42217700  1
  Sm  Sm1  1  0.31009000  0.34737600  0.57782300  1
  Sm  Sm2  1  0.18991000  0.84737600  0.57782300  1
  Sm  Sm3  1  0.81009000  0.15262400  0.42217700  1
  B  B0  1  0.88100200  0.00070400  0.79066900  1
  B  B1  1  0.11899800  0.99929600  0.20933100  1
  B  B2  1  0.38100200  0.49929600  0.20933100  1
  B  B3  1  0.61899800  0.50070400  0.79066900  1
  B  B4  1  0.61526500  0.81253500  0.05913200  1
  B  B5  1  0.38473500  0.18746500  0.94086800  1
  B  B6  1  0.11526500  0.68746500  0.94086800  1
  B  B7  1  0.88473500  0.31253500  0.05913200  1
  B  B8  1  0.86591000  0.66210700  0.41825900  1
  B  B9  1  0.13409000  0.33789300  0.58174100  1
  B  B10  1  0.36591000  0.83789300  0.58174100  1
  B  B11  1  0.63409000  0.16210700  0.41825900  1
  O  O0  1  0.94766400  0.67525700  0.41427000  1
  O  O1  1  0.05233600  0.32474300  0.58573000  1
  O  O2  1  0.44766400  0.82474300  0.58573000  1
  O  O3  1  0.55233600  0.17525700  0.41427000  1
  O  O4  1  0.69794400  0.77456400  0.07647500  1
  O  O5  1  0.30205600  0.22543600  0.92352500  1
  O  O6  1  0.19794400  0.72543600  0.92352500  1
  O  O7  1  0.80205600  0.27456400  0.07647500  1
  O  O8  1  0.81667000  0.83327500  0.35183900  1
  O  O9  1  0.18333000  0.16672500  0.64816100  1
  O  O10  1  0.31667000  0.66672500  0.64816100  1
  O  O11  1  0.68333000  0.33327500  0.35183900  1
  O  O12  1  0.56847100  0.72976700  0.22060400  1
  O  O13  1  0.43152900  0.27023300  0.77939600  1
  O  O14  1  0.06847100  0.77023300  0.77939600  1
  O  O15  1  0.93152900  0.22976700  0.22060400  1
  O  O16  1  0.41387600  0.58611300  0.03454100  1
  O  O17  1  0.58612400  0.41388700  0.96545900  1
  O  O18  1  0.91387600  0.91388700  0.96545900  1
  O  O19  1  0.08612400  0.08611300  0.03454100  1
  O  O20  1  0.57900700  0.92527800  0.89424800  1
  O  O21  1  0.42099300  0.07472200  0.10575200  1
  O  O22  1  0.07900700  0.57472200  0.10575200  1
  O  O23  1  0.92099300  0.42527800  0.89424800  1
  O  O24  1  0.42760200  0.45716200  0.37465800  1
  O  O25  1  0.57239800  0.54283800  0.62534200  1
  O  O26  1  0.92760200  0.04283800  0.62534200  1
  O  O27  1  0.07239800  0.95716200  0.37465800  1
  O  O28  1  0.67290600  0.97488500  0.49842400  1
  O  O29  1  0.32709400  0.02511500  0.50157600  1
  O  O30  1  0.17290600  0.52511500  0.50157600  1
  O  O31  1  0.82709400  0.47488500  0.49842400  1
  O  O32  1  0.20049100  0.94467500  0.23258400  1
  O  O33  1  0.79950900  0.05532500  0.76741600  1
  O  O34  1  0.70049100  0.55532500  0.76741600  1
  O  O35  1  0.29950900  0.44467500  0.23258400  1
loop_
_geom_bond_atom_site_label_1
_geom_bond_atom_site_label_2
_geom_bond_distance
_geom_bond_site_symmetry_2
Li0 O18 1.944673 1_554
Li0 O15 2.070366 1_565
Li0 O0 2.117188 1_555
Li0 O27 2.220912 1_655
Li0 O19 2.370871 1_665
Li1 O19 1.944673 1_556
Li1 O14 2.070366 1_545
Li1 O1 2.117188 1_555
Li1 O26 2.220912 1_455
Li1 O18 2.370871 1_445
Li2 O16 1.944673 1_556
Li2 O13 2.070366 1_555
Li2 O2 2.117188 1_555
Li2 O25 2.220912 1_555
Li2 O17 2.370871 1_555
Li3 O17 1.944673 1_554
Li3 O12 2.070366 1_555
Li3 O3 2.117188 1_555
Li3 O24 2.220912 1_555
Li3 O16 2.370871 1_555
Li4 O2 1.934351 1_555
Li4 O20 1.953213 1_555
Li4 O3 2.072377 1_565
Li4 O28 2.202954 1_555
Li4 O25 2.544037 1_555
Li5 O3 1.934351 1_555
Li5 O21 1.953213 1_555
Li5 O2 2.072377 1_545
Li5 O29 2.202954 1_555
Li5 O24 2.544037 1_555
Li6 O0 1.934351 1_455
Li6 O22 1.953213 1_555
Li6 O1 2.072377 1_555
Li6 O30 2.202954 1_555
Li6 O27 2.544037 1_555
Li7 O1 1.934351 1_655
Li7 O23 1.953213 1_555
Li7 O0 2.072377 1_555
Li7 O31 2.202954 1_555
Li7 O26 2.544037 1_555
Li8 O16 1.923165 1_555
Li8 O21 2.003492 1_565
Li8 O12 2.086127 1_555
Li8 O20 2.119214 1_554
Li9 O17 1.923165 1_555
Li9 O20 2.003492 1_545
Li9 O13 2.086127 1_555
Li9 O21 2.119214 1_556
Li10 O18 1.923165 1_555
Li10 O23 2.003492 1_555
Li10 O14 2.086127 1_655
Li10 O22 2.119214 1_656
Li11 O19 1.923165 1_555
Li11 O22 2.003492 1_555
Li11 O15 2.086127 1_455
Li11 O23 2.119214 1_454
Li12 O33 1.985244 1_565
Li12 O4 2.021754 1_556
Li12 O28 2.140846 1_555
Li12 O34 2.158382 1_555
Li12 O20 2.326518 1_555
Li13 O32 1.985244 1_545
Li13 O5 2.021754 1_554
Li13 O29 2.140846 1_555
Li13 O35 2.158382 1_555
Li13 O21 2.326518 1_555
Li14 O35 1.985244 1_555
Li14 O6 2.021754 1_554
Li14 O30 2.140846 1_555
Li14 O32 2.158382 1_555
Li14 O22 2.326518 1_555
Li15 O34 1.985244 1_555
Li15 O7 2.021754 1_556
Li15 O31 2.140846 1_555
Li15 O33 2.158382 1_555
Li15 O23 2.326518 1_555
Li16 O4 2.029434 1_555
Li16 O33 2.070464 1_564
Li16 O8 2.093663 1_555
Li16 O18 2.111403 1_554
Li16 O7 2.205361 1_565
Li17 O5 2.029434 1_555
Li17 O32 2.070464 1_546
Li17 O9 2.093663 1_555
Li17 O19 2.111403 1_556
Li17 O6 2.205361 1_545
Li18 O6 2.029434 1_555
Li18 O35 2.070464 1_556
Li18 O10 2.093663 1_555
Li18 O16 2.111403 1_556
Li18 O5 2.205361 1_555
Li19 O7 2.029434 1_555
Li19 O34 2.070464 1_554
Li19 O11 2.093663 1_555
Li19 O17 2.111403 1_554
Li19 O4 2.205361 1_555
Li20 O14 1.884309 1_655
Li20 O0 1.910787 1_555
Li20 O27 1.967067 1_655
Li20 O26 1.986436 1_565
Li21 O15 1.884309 1_455
Li21 O1 1.910787 1_555
Li21 O26 1.967067 1_455
Li21 O27 1.986436 1_545
Li22 O12 1.884309 1_555
Li22 O2 1.910787 1_555
Li22 O25 1.967067 1_555
Li22 O24 1.986436 1_555
Li23 O13 1.884309 1_555
Li23 O3 1.910787 1_555
Li23 O24 1.967067 1_555
Li23 O25 1.986436 1_555
B0 O18 1.369119 1_545
B0 O26 1.399219 1_555
B0 O33 1.400437 1_555
B1 O19 1.369119 1_565
B1 O27 1.399219 1_555
B1 O32 1.400437 1_555
B2 O16 1.369119 1_555
B2 O24 1.399219 1_555
B2 O35 1.400437 1_555
B3 O17 1.369119 1_555
B3 O25 1.399219 1_555
B3 O34 1.400437 1_555
B4 O20 1.380226 1_554
B4 O4 1.395487 1_555
B4 O12 1.398880 1_555
B5 O21 1.380226 1_556
B5 O5 1.395487 1_555
B5 O13 1.398880 1_555
B6 O22 1.380226 1_556
B6 O6 1.395487 1_555
B6 O14 1.398880 1_555
B7 O23 1.380226 1_554
B7 O7 1.395487 1_555
B7 O15 1.398880 1_555
B8 O0 1.359431 1_555
B8 O8 1.395946 1_555
B8 O31 1.403965 1_555
B9 O1 1.359431 1_555
B9 O9 1.395946 1_555
B9 O30 1.403965 1_555
B10 O2 1.359431 1_555
B10 O10 1.395946 1_555
B10 O29 1.403965 1_565
B11 O3 1.359431 1_555
B11 O11 1.395946 1_555
B11 O28 1.403965 1_545
O4 Sm0 2.444545 1_555
O5 Sm1 2.444545 1_555
O6 Sm2 2.444545 1_555
O7 Sm3 2.444545 1_555
O8 Sm3 2.362963 1_565
O8 Sm0 2.419190 1_555
O9 Sm2 2.362963 1_545
O9 Sm1 2.419190 1_555
O10 Sm1 2.362963 1_555
O10 Sm2 2.419190 1_555
O11 Sm0 2.362963 1_555
O11 Sm3 2.419190 1_555
O12 Sm0 2.468897 1_555
O13 Sm1 2.468897 1_555
O14 Sm2 2.468897 1_555
O15 Sm3 2.468897 1_555
O24 Sm1 2.443551 1_555
O25 Sm0 2.443551 1_555
O26 Sm3 2.443551 1_555
O27 Sm2 2.443551 1_555
O28 Sm0 2.416749 1_555
O28 Sm3 2.566270 1_565
O29 Sm1 2.416749 1_555
O29 Sm2 2.566270 1_545
O30 Sm2 2.416749 1_555
O30 Sm1 2.566270 1_555
O31 Sm3 2.416749 1_555
O31 Sm0 2.566270 1_555
O32 Sm2 2.439943 1_555
O33 Sm3 2.439943 1_555
O34 Sm0 2.439943 1_555
O35 Sm1 2.439943 1_555
