# generated using pymatgen
data_La2CrO6
_symmetry_space_group_name_H-M   'P 1'
_cell_length_a   5.35845122
_cell_length_b   5.35845122
_cell_length_c   5.35845111
_cell_angle_alpha   64.18396147
_cell_angle_beta   64.18396147
_cell_angle_gamma   64.18396112
_symmetry_Int_Tables_number   1
_chemical_formula_structural   La2CrO6
_chemical_formula_sum   'La2 Cr1 O6'
_cell_volume   118.80309413
_cell_formula_units_Z   1
loop_
 _symmetry_equiv_pos_site_id
 _symmetry_equiv_pos_as_xyz
  1  'x, y, z'
loop_
 _atom_site_type_symbol
 _atom_site_label
 _atom_site_symmetry_multiplicity
 _atom_site_fract_x
 _atom_site_fract_y
 _atom_site_fract_z
 _atom_site_occupancy
  La  La0  1  0.74544900  0.74544900  0.74544900  1
  La  La1  1  0.25455100  0.25455100  0.25455100  1
  Cr  Cr0  1  0.00000000  0.00000000  0.00000000  1
  O  O0  1  0.78956000  0.31148600  0.14553000  1
  O  O1  1  0.14553000  0.78956000  0.31148600  1
  O  O2  1  0.31148600  0.14553000  0.78956000  1
  O  O3  1  0.21044000  0.68851400  0.85447000  1
  O  O4  1  0.68851400  0.85447000  0.21044000  1
  O  O5  1  0.85447000  0.21044000  0.68851400  1
loop_
_geom_bond_atom_site_label_1
_geom_bond_atom_site_label_2
_geom_bond_distance
_geom_bond_site_symmetry_2
La0 O1 2.383248 1_655
La0 O0 2.383248 1_556
La0 O2 2.383248 1_565
La0 O4 2.663274 1_556
La0 O3 2.663274 1_655
La0 O5 2.663274 1_565
La0 O4 2.793007 1_555
La0 O5 2.793007 1_555
La0 O3 2.793007 1_555
La1 O5 2.383248 1_455
La1 O3 2.383248 1_554
La1 O4 2.383248 1_545
La1 O2 2.663274 1_554
La1 O0 2.663274 1_455
La1 O1 2.663274 1_545
La1 O2 2.793007 1_555
La1 O1 2.793007 1_555
La1 O0 2.793007 1_555
Cr0 O5 1.842280 1_454
Cr0 O1 1.842280 1_545
Cr0 O0 1.842280 1_455
Cr0 O3 1.842280 1_544
Cr0 O2 1.842280 1_554
Cr0 O4 1.842280 1_445
