# generated using pymatgen
data_NaSmCu2F8
_symmetry_space_group_name_H-M   'P 1'
_cell_length_a   6.52087342
_cell_length_b   6.52087342
_cell_length_c   6.52087342
_cell_angle_alpha   130.15600253
_cell_angle_beta   130.15600253
_cell_angle_gamma   73.15749206
_symmetry_Int_Tables_number   1
_chemical_formula_structural   NaSmCu2F8
_chemical_formula_sum   'Na1 Sm1 Cu2 F8'
_cell_volume   158.15025151
_cell_formula_units_Z   1
loop_
 _symmetry_equiv_pos_site_id
 _symmetry_equiv_pos_as_xyz
  1  'x, y, z'
loop_
 _atom_site_type_symbol
 _atom_site_label
 _atom_site_symmetry_multiplicity
 _atom_site_fract_x
 _atom_site_fract_y
 _atom_site_fract_z
 _atom_site_occupancy
  Na  Na0  1  0.50000000  0.50000000  0.00000000  1
  Sm  Sm0  1  0.00000000  0.00000000  0.00000000  1
  Cu  Cu0  1  0.75000000  0.25000000  0.50000000  1
  Cu  Cu1  1  0.25000000  0.75000000  0.50000000  1
  F  F0  1  0.43659900  0.29155700  0.48217500  1
  F  F1  1  0.80938200  0.95442300  0.51782500  1
  F  F2  1  0.29155700  0.80938200  0.85495800  1
  F  F3  1  0.19061800  0.70844300  0.14504200  1
  F  F4  1  0.95442300  0.43659900  0.14504200  1
  F  F5  1  0.56340100  0.04557700  0.85495800  1
  F  F6  1  0.04557700  0.19061800  0.48217500  1
  F  F7  1  0.70844300  0.56340100  0.51782500  1
loop_
_geom_bond_atom_site_label_1
_geom_bond_atom_site_label_2
_geom_bond_distance
_geom_bond_site_symmetry_2
Cu0 F7 1.917493 1_555
Cu0 F0 1.917493 1_555
Cu0 F6 1.917499 1_655
Cu0 F1 1.917499 1_545
Cu1 F3 1.917493 1_555
Cu1 F2 1.917493 1_555
Cu1 F5 1.917496 1_565
Cu1 F4 1.917496 1_455
F0 Sm0 2.342572 1_555
F0 Na0 2.454788 1_556
F1 Sm0 2.342568 1_666
F1 Na0 2.454784 1_555
F2 Sm0 2.342572 1_566
F2 Na0 2.454788 1_556
F3 Sm0 2.342572 1_565
F3 Na0 2.454788 1_555
F4 Sm0 2.342572 1_655
F4 Na0 2.454782 1_555
F5 Sm0 2.342572 1_656
F5 Na0 2.454782 1_556
F6 Sm0 2.342568 1_555
F6 Na0 2.454784 1_556
F7 Sm0 2.342572 1_666
F7 Na0 2.454788 1_555
