# generated using pymatgen
data_Na2ZnS2
_symmetry_space_group_name_H-M   'P 1'
_cell_length_a   7.02876498
_cell_length_b   6.81013936
_cell_length_c   8.79115133
_cell_angle_alpha   86.03343569
_cell_angle_beta   90.00000000
_cell_angle_gamma   90.00000000
_symmetry_Int_Tables_number   1
_chemical_formula_structural   Na2ZnS2
_chemical_formula_sum   'Na8 Zn4 S8'
_cell_volume   419.79688822
_cell_formula_units_Z   4
loop_
 _symmetry_equiv_pos_site_id
 _symmetry_equiv_pos_as_xyz
  1  'x, y, z'
loop_
 _atom_site_type_symbol
 _atom_site_label
 _atom_site_symmetry_multiplicity
 _atom_site_fract_x
 _atom_site_fract_y
 _atom_site_fract_z
 _atom_site_occupancy
  Na  Na0  1  0.17170273  0.95187709  0.67610225  1
  Na  Na1  1  0.67170273  0.54812291  0.32389775  1
  Na  Na2  1  0.82829727  0.04812291  0.32389775  1
  Na  Na3  1  0.32829727  0.45187709  0.67610225  1
  Na  Na4  1  0.26263037  0.98804963  0.05152950  1
  Na  Na5  1  0.76263037  0.51195037  0.94847050  1
  Na  Na6  1  0.73736963  0.01195037  0.94847050  1
  Na  Na7  1  0.23736963  0.48804963  0.05152950  1
  Zn  Zn0  1  0.09475823  0.65386555  0.37146726  1
  Zn  Zn1  1  0.59475823  0.84613445  0.62853274  1
  Zn  Zn2  1  0.90524177  0.34613445  0.62853274  1
  Zn  Zn3  1  0.40524177  0.15386555  0.37146726  1
  S  S0  1  0.61133927  0.19675410  0.58803475  1
  S  S1  1  0.11133927  0.30324590  0.41196525  1
  S  S2  1  0.38866073  0.80324590  0.41196525  1
  S  S3  1  0.88866073  0.69675410  0.58803475  1
  S  S4  1  0.54360587  0.25240642  0.14539111  1
  S  S5  1  0.04360587  0.24759358  0.85460889  1
  S  S6  1  0.45639413  0.74759358  0.85460889  1
  S  S7  1  0.95639413  0.75240642  0.14539111  1
loop_
_geom_bond_atom_site_label_1
_geom_bond_atom_site_label_2
_geom_bond_distance
_geom_bond_site_symmetry_2
Na0 S3 2.786037 1_455
Na0 S5 2.786789 1_565
Na0 S6 2.846076 1_555
Na0 S2 3.011177 1_555
Na1 S2 2.786037 1_555
Na1 S4 2.786789 1_555
Na1 S7 2.846076 1_555
Na1 S3 3.011177 1_555
Na2 S1 2.786037 1_655
Na2 S7 2.786789 1_545
Na2 S4 2.846076 1_555
Na2 S0 3.011177 1_555
Na3 S0 2.786037 1_555
Na3 S6 2.786789 1_555
Na3 S5 2.846076 1_555
Na3 S1 3.011177 1_555
Na4 S7 2.775975 1_455
Na4 S6 2.815221 1_554
Na4 S4 2.833332 1_565
Na4 S5 2.840373 1_564
Na5 S6 2.775975 1_555
Na5 S7 2.815221 1_556
Na5 S5 2.833332 1_655
Na5 S4 2.840373 1_556
Na6 S5 2.775975 1_655
Na6 S4 2.815221 1_556
Na6 S6 2.833332 1_545
Na6 S7 2.840373 1_546
Na7 S4 2.775975 1_555
Na7 S5 2.815221 1_554
Na7 S7 2.833332 1_455
Na7 S6 2.840373 1_554
S0 Zn2 2.340764 1_555
S0 Zn1 2.392523 1_545
S0 Zn3 2.425998 1_555
S1 Zn3 2.340764 1_555
S1 Zn0 2.392523 1_555
S1 Zn2 2.425998 1_455
S2 Zn0 2.340764 1_555
S2 Zn3 2.392523 1_565
S2 Zn1 2.425998 1_555
S3 Zn1 2.340764 1_555
S3 Zn2 2.392523 1_555
S3 Zn0 2.425998 1_655
S4 Zn3 2.271931 1_555
S5 Zn2 2.271931 1_455
S6 Zn1 2.271931 1_555
S7 Zn0 2.271931 1_655
