# generated using pymatgen
data_Ho8Mg(Ge2O7)4
_symmetry_space_group_name_H-M   'P 1'
_cell_length_a   6.82919925
_cell_length_b   6.82919925
_cell_length_c   12.96429920
_cell_angle_alpha   88.91788583
_cell_angle_beta   91.08211417
_cell_angle_gamma   90.00871668
_symmetry_Int_Tables_number   1
_chemical_formula_structural   Ho8Mg(Ge2O7)4
_chemical_formula_sum   'Ho8 Mg1 Ge8 O28'
_cell_volume   604.41284167
_cell_formula_units_Z   1
loop_
 _symmetry_equiv_pos_site_id
 _symmetry_equiv_pos_as_xyz
  1  'x, y, z'
loop_
 _atom_site_type_symbol
 _atom_site_label
 _atom_site_symmetry_multiplicity
 _atom_site_fract_x
 _atom_site_fract_y
 _atom_site_fract_z
 _atom_site_occupancy
  Ho  Ho0  1  0.84808104  0.63057497  0.89052025  1
  Ho  Ho1  1  0.33907047  0.87700320  0.87842678  1
  Ho  Ho2  1  0.35308294  0.14841995  0.63748365  1
  Ho  Ho3  1  0.64792482  0.11506759  0.35280194  1
  Ho  Ho4  1  0.14841995  0.35308294  0.36251635  1
  Ho  Ho5  1  0.11506759  0.64792482  0.64719806  1
  Ho  Ho6  1  0.63057497  0.84808104  0.10947975  1
  Ho  Ho7  1  0.87700320  0.33907047  0.12157322  1
  Mg  Mg0  1  0.48880047  0.48880047  0.50000000  1
  Ge  Ge0  1  0.40560709  0.34177112  0.12406625  1
  Ge  Ge1  1  0.71190512  0.60398562  0.35184455  1
  Ge  Ge2  1  0.60398562  0.71190512  0.64815545  1
  Ge  Ge3  1  0.09945550  0.83224554  0.12927723  1
  Ge  Ge4  1  0.83224554  0.09945550  0.87072277  1
  Ge  Ge5  1  0.15590218  0.87953894  0.38793609  1
  Ge  Ge6  1  0.87953894  0.15590218  0.61206391  1
  Ge  Ge7  1  0.34177112  0.40560709  0.87593375  1
  O  O0  1  0.34535971  0.19043964  0.80350295  1
  O  O1  1  0.05498259  0.96373012  0.61212918  1
  O  O2  1  0.65775834  0.19172670  0.53616560  1
  O  O3  1  0.65467466  0.93940689  0.92982989  1
  O  O4  1  0.33652163  0.06675749  0.41424455  1
  O  O5  1  0.38975945  0.84871598  0.70636760  1
  O  O6  1  0.52503654  0.58430989  0.88386534  1
  O  O7  1  0.42287944  0.48595966  0.64247929  1
  O  O8  1  0.16120596  0.76633485  0.26164323  1
  O  O9  1  0.58430989  0.52503654  0.11613466  1
  O  O10  1  0.29685757  0.29685757  0.00000000  1
  O  O11  1  0.92685834  0.02199665  0.12622538  1
  O  O12  1  0.19172670  0.65775834  0.46383440  1
  O  O13  1  0.93940689  0.65467466  0.07017011  1
  O  O14  1  0.85214183  0.31275844  0.94349490  1
  O  O15  1  0.02199665  0.92685834  0.87377462  1
  O  O16  1  0.15420385  0.56877100  0.82938048  1
  O  O17  1  0.31275844  0.85214183  0.05650510  1
  O  O18  1  0.63660290  0.81749947  0.27825300  1
  O  O19  1  0.19043964  0.34535971  0.19649705  1
  O  O20  1  0.56877100  0.15420385  0.17061952  1
  O  O21  1  0.81749947  0.63660290  0.72174700  1
  O  O22  1  0.96373012  0.05498259  0.38787082  1
  O  O23  1  0.06675749  0.33652163  0.58575545  1
  O  O24  1  0.69090686  0.69090686  0.50000000  1
  O  O25  1  0.84871598  0.38975945  0.29363240  1
  O  O26  1  0.76633485  0.16120596  0.73835677  1
  O  O27  1  0.48595966  0.42287944  0.35752071  1
loop_
_geom_bond_atom_site_label_1
_geom_bond_atom_site_label_2
_geom_bond_distance
_geom_bond_site_symmetry_2
Ho0 O21 2.193653 1_555
Ho0 O6 2.228886 1_555
Ho0 O14 2.264113 1_555
Ho0 O16 2.291813 1_655
Ho0 O15 2.354623 1_655
Ho0 O13 2.408329 1_556
Ho0 O3 2.553296 1_555
Ho1 O15 2.191543 1_555
Ho1 O5 2.275589 1_555
Ho1 O3 2.286336 1_555
Ho1 O17 2.322043 1_556
Ho1 O0 2.334562 1_565
Ho1 O6 2.367569 1_555
Ho1 O16 2.539400 1_555
Ho2 O0 2.178359 1_555
Ho2 O5 2.229809 1_545
Ho2 O7 2.355661 1_555
Ho2 O1 2.415142 1_545
Ho2 O23 2.417037 1_555
Ho2 O2 2.496083 1_555
Ho2 O4 2.957774 1_555
Ho3 O22 2.232175 1_555
Ho3 O18 2.267379 1_545
Ho3 O4 2.306463 1_555
Ho3 O27 2.377848 1_555
Ho3 O20 2.422815 1_555
Ho3 O2 2.443469 1_555
Ho3 O25 2.443855 1_555
Ho4 O19 2.178359 1_555
Ho4 O25 2.229809 1_455
Ho4 O27 2.355661 1_555
Ho4 O22 2.415142 1_455
Ho4 O4 2.417037 1_555
Ho4 O12 2.496083 1_555
Ho4 O23 2.957774 1_555
Ho5 O1 2.232175 1_555
Ho5 O21 2.267379 1_455
Ho5 O23 2.306463 1_555
Ho5 O7 2.377848 1_555
Ho5 O16 2.422815 1_555
Ho5 O12 2.443469 1_555
Ho5 O5 2.443855 1_555
Ho6 O18 2.193653 1_555
Ho6 O9 2.228886 1_555
Ho6 O17 2.264113 1_555
Ho6 O20 2.291813 1_565
Ho6 O11 2.354623 1_565
Ho6 O3 2.408329 1_554
Ho6 O13 2.553296 1_555
Ho7 O11 2.191543 1_555
Ho7 O25 2.275589 1_555
Ho7 O13 2.286336 1_555
Ho7 O14 2.322043 1_554
Ho7 O19 2.334562 1_655
Ho7 O9 2.367569 1_555
Ho7 O20 2.539400 1_555
Mg0 O27 1.909199 1_555
Mg0 O7 1.909199 1_555
Mg0 O24 1.951784 1_555
Mg0 O2 2.368856 1_555
Mg0 O12 2.368856 1_555
Ge0 O9 1.750928 1_555
Ge0 O19 1.759132 1_555
Ge0 O20 1.786755 1_555
Ge0 O10 1.790570 1_555
Ge1 O18 1.797216 1_555
Ge1 O25 1.910909 1_555
Ge1 O27 1.978968 1_555
Ge1 O24 2.028702 1_555
Ge2 O21 1.797216 1_555
Ge2 O5 1.910909 1_555
Ge2 O7 1.978968 1_555
Ge2 O24 2.028702 1_555
Ge3 O11 1.751254 1_465
Ge3 O17 1.754277 1_555
Ge3 O13 1.804291 1_455
Ge3 O8 1.807971 1_555
Ge4 O15 1.751254 1_645
Ge4 O14 1.754277 1_555
Ge4 O3 1.804291 1_545
Ge4 O26 1.807971 1_555
Ge5 O22 1.777156 1_465
Ge5 O12 1.804645 1_555
Ge5 O4 1.809037 1_565
Ge5 O8 1.824771 1_555
Ge6 O1 1.777156 1_645
Ge6 O2 1.804645 1_555
Ge6 O23 1.809037 1_655
Ge6 O26 1.824771 1_555
Ge7 O6 1.750928 1_555
Ge7 O0 1.759132 1_555
Ge7 O16 1.786755 1_555
Ge7 O10 1.790570 1_556
