# generated using pymatgen
data_Fe5O7F3
_symmetry_space_group_name_H-M   'P 1'
_cell_length_a   4.64830200
_cell_length_b   4.64844400
_cell_length_c   15.28741700
_cell_angle_alpha   90.00000000
_cell_angle_beta   90.00000000
_cell_angle_gamma   90.00000000
_symmetry_Int_Tables_number   1
_chemical_formula_structural   Fe5O7F3
_chemical_formula_sum   'Fe10 O14 F6'
_cell_volume   330.32089904
_cell_formula_units_Z   2
loop_
 _symmetry_equiv_pos_site_id
 _symmetry_equiv_pos_as_xyz
  1  'x, y, z'
loop_
 _atom_site_type_symbol
 _atom_site_label
 _atom_site_symmetry_multiplicity
 _atom_site_fract_x
 _atom_site_fract_y
 _atom_site_fract_z
 _atom_site_occupancy
  Fe  Fe0  1  0.98418100  0.71729200  0.80647300  1
  Fe  Fe1  1  0.02577000  0.77377800  0.00000000  1
  Fe  Fe2  1  0.98418100  0.71729200  0.19352700  1
  Fe  Fe3  1  0.00413700  0.75348000  0.39903000  1
  Fe  Fe4  1  0.00413700  0.75348000  0.60097000  1
  Fe  Fe5  1  0.50413700  0.24652000  0.89903000  1
  Fe  Fe6  1  0.48418100  0.28270800  0.30647300  1
  Fe  Fe7  1  0.50413700  0.24652000  0.10097000  1
  Fe  Fe8  1  0.52577000  0.22622200  0.50000000  1
  Fe  Fe9  1  0.48418100  0.28270800  0.69352700  1
  O  O0  1  0.20559800  0.55271400  0.90330800  1
  O  O1  1  0.20559800  0.55271400  0.09669200  1
  O  O2  1  0.17582500  0.56534900  0.29958500  1
  O  O3  1  0.17582500  0.56534900  0.70041500  1
  O  O4  1  0.67582500  0.43465100  0.79958500  1
  O  O5  1  0.67582500  0.43465100  0.20041500  1
  O  O6  1  0.70559800  0.44728600  0.40330800  1
  O  O7  1  0.70559800  0.44728600  0.59669200  1
  O  O8  1  0.32609100  0.06691800  0.00000000  1
  O  O9  1  0.30904800  0.05152000  0.40136400  1
  O  O10  1  0.30904800  0.05152000  0.59863600  1
  O  O11  1  0.80904800  0.94848000  0.90136400  1
  O  O12  1  0.80904800  0.94848000  0.09863600  1
  O  O13  1  0.82609100  0.93308200  0.50000000  1
  F  F0  1  0.21105800  0.54564700  0.50000000  1
  F  F1  1  0.71105800  0.45435300  0.00000000  1
  F  F2  1  0.28975100  0.04919000  0.79671800  1
  F  F3  1  0.28975100  0.04919000  0.20328200  1
  F  F4  1  0.78975100  0.95081000  0.29671800  1
  F  F5  1  0.78975100  0.95081000  0.70328200  1
loop_
_geom_bond_atom_site_label_1
_geom_bond_atom_site_label_2
_geom_bond_distance
_geom_bond_site_symmetry_2
Fe0 O4 1.947230 1_555
Fe0 O0 1.958573 1_655
Fe0 O3 1.980202 1_655
Fe0 O11 1.980396 1_555
Fe1 O8 1.950787 1_565
Fe1 O0 1.984862 1_554
Fe1 O1 1.984862 1_555
Fe1 O12 1.986972 1_455
Fe1 O11 1.986972 1_454
Fe2 O5 1.947230 1_555
Fe2 O1 1.958573 1_655
Fe2 O2 1.980202 1_655
Fe2 O12 1.980396 1_555
Fe3 O2 1.926878 1_555
Fe3 O13 1.940247 1_455
Fe3 O9 1.982286 1_565
Fe3 O6 1.988930 1_455
Fe4 O3 1.926878 1_555
Fe4 O13 1.940247 1_455
Fe4 O10 1.982286 1_565
Fe4 O7 1.988930 1_455
Fe5 O4 1.926878 1_555
Fe5 O8 1.940247 1_556
Fe5 O11 1.982286 1_545
Fe5 O0 1.988930 1_555
Fe6 O2 1.947230 1_555
Fe6 O6 1.958573 1_555
Fe6 O5 1.980202 1_555
Fe6 O9 1.980396 1_555
Fe7 O5 1.926878 1_555
Fe7 O8 1.940247 1_555
Fe7 O12 1.982286 1_545
Fe7 O1 1.988930 1_555
Fe8 O13 1.950787 1_545
Fe8 O7 1.984862 1_555
Fe8 O6 1.984862 1_555
Fe8 O10 1.986972 1_555
Fe8 O9 1.986972 1_555
Fe9 O3 1.947230 1_555
Fe9 O7 1.958573 1_555
Fe9 O4 1.980202 1_555
Fe9 O10 1.980396 1_555
F0 Fe3 2.059388 1_555
F0 Fe4 2.059388 1_555
F0 Fe8 2.084400 1_555
F1 Fe5 2.059388 1_554
F1 Fe7 2.059388 1_555
F1 Fe1 2.084400 1_655
F2 Fe5 2.069018 1_555
F2 Fe0 2.102376 1_445
F2 Fe9 2.117470 1_555
F3 Fe7 2.069018 1_555
F3 Fe2 2.102376 1_445
F3 Fe6 2.117470 1_555
F4 Fe3 2.069018 1_655
F4 Fe6 2.102376 1_565
F4 Fe2 2.117470 1_555
F5 Fe4 2.069018 1_655
F5 Fe9 2.102376 1_565
F5 Fe0 2.117470 1_555
