# generated using pymatgen
data_MgPd3
_symmetry_space_group_name_H-M   'P 1'
_cell_length_a   17.90563952
_cell_length_b   17.90563952
_cell_length_c   17.90563925
_cell_angle_alpha   18.46266171
_cell_angle_beta   18.46266171
_cell_angle_gamma   18.46266294
_symmetry_Int_Tables_number   1
_chemical_formula_structural   MgPd3
_chemical_formula_sum   'Mg8 Pd24'
_cell_volume   502.92184383
_cell_formula_units_Z   8
loop_
 _symmetry_equiv_pos_site_id
 _symmetry_equiv_pos_as_xyz
  1  'x, y, z'
loop_
 _atom_site_type_symbol
 _atom_site_label
 _atom_site_symmetry_multiplicity
 _atom_site_fract_x
 _atom_site_fract_y
 _atom_site_fract_z
 _atom_site_occupancy
  Mg  Mg0_0  1  0.00000000  0.00000000  0.00000000  1
  Mg  Mg0_1  1  0.00000000  0.00000000  0.50000000  1
  Mg  Mg0_2  1  0.00000000  0.50000000  0.00000000  1
  Mg  Mg0_3  1  1.00000000  0.50000000  0.50000000  1
  Mg  Mg0_4  1  0.50000000  0.00000000  0.00000000  1
  Mg  Mg0_5  1  0.50000000  1.00000000  0.50000000  1
  Mg  Mg0_6  1  0.50000000  0.50000000  0.00000000  1
  Mg  Mg0_7  1  0.50000000  0.50000000  0.50000000  1
  Pd  Pd0_0  1  0.12667800  0.12667800  0.12667800  1
  Pd  Pd0_1  1  0.12667800  0.12667800  0.62667800  1
  Pd  Pd0_2  1  0.12667800  0.62667800  0.12667800  1
  Pd  Pd0_3  1  0.12667800  0.62667800  0.62667800  1
  Pd  Pd0_4  1  0.62667800  0.12667800  0.12667800  1
  Pd  Pd0_5  1  0.62667800  0.12667800  0.62667800  1
  Pd  Pd0_6  1  0.62667800  0.62667800  0.12667800  1
  Pd  Pd0_7  1  0.62667800  0.62667800  0.62667800  1
  Pd  Pd1_0  1  0.25000000  0.25000000  0.25000000  1
  Pd  Pd1_1  1  0.25000000  0.25000000  0.75000000  1
  Pd  Pd1_2  1  0.25000000  0.75000000  0.25000000  1
  Pd  Pd1_3  1  0.25000000  0.75000000  0.75000000  1
  Pd  Pd1_4  1  0.75000000  0.25000000  0.25000000  1
  Pd  Pd1_5  1  0.75000000  0.25000000  0.75000000  1
  Pd  Pd1_6  1  0.75000000  0.75000000  0.25000000  1
  Pd  Pd1_7  1  0.75000000  0.75000000  0.75000000  1
  Pd  Pd2_0  1  0.37332200  0.37332200  0.37332200  1
  Pd  Pd2_1  1  0.37332200  0.37332200  0.87332200  1
  Pd  Pd2_2  1  0.37332200  0.87332200  0.37332200  1
  Pd  Pd2_3  1  0.37332200  0.87332200  0.87332200  1
  Pd  Pd2_4  1  0.87332200  0.37332200  0.37332200  1
  Pd  Pd2_5  1  0.87332200  0.37332200  0.87332200  1
  Pd  Pd2_6  1  0.87332200  0.87332200  0.37332200  1
  Pd  Pd2_7  1  0.87332200  0.87332200  0.87332200  1
loop_
_geom_bond_atom_site_label_1
_geom_bond_atom_site_label_2
_geom_bond_distance
_geom_bond_site_symmetry_2
Mg0_0 Pd2_6 2.684431 1_445
Mg0_0 Pd0_1 2.684431 1_554
Mg0_0 Pd2_3 2.684431 1_544
Mg0_0 Pd2_5 2.684431 1_454
Mg0_0 Pd0_4 2.684431 1_455
Mg0_0 Pd0_2 2.684431 1_545
Mg0_0 Mg0_5 2.872440 1_445
Mg0_0 Mg0_3 2.872440 1_454
Mg0_0 Mg0_5 2.872440 1_544
Mg0_0 Mg0_3 2.872440 1_445
Mg0_0 Mg0_6 2.872440 1_455
Mg0_0 Mg0_6 2.872440 1_545
Mg0_1 Pd2_7 2.684431 1_445
Mg0_1 Pd0_0 2.684431 1_555
Mg0_1 Pd2_2 2.684431 1_545
Mg0_1 Pd2_4 2.684431 1_455
Mg0_1 Pd0_3 2.684431 1_545
Mg0_1 Pd0_5 2.684431 1_455
Mg0_1 Mg0_4 2.872440 1_555
Mg0_1 Mg0_2 2.872440 1_555
Mg0_1 Mg0_4 2.872440 1_456
Mg0_1 Mg0_2 2.872440 1_546
Mg0_1 Mg0_7 2.872440 1_455
Mg0_1 Mg0_7 2.872440 1_545
Mg0_2 Pd2_4 2.684431 1_455
Mg0_2 Pd0_3 2.684431 1_554
Mg0_2 Pd2_7 2.684431 1_454
Mg0_2 Pd2_1 2.684431 1_554
Mg0_2 Pd0_0 2.684431 1_555
Mg0_2 Pd0_6 2.684431 1_455
Mg0_2 Mg0_7 2.872440 1_554
Mg0_2 Mg0_7 2.872440 1_455
Mg0_2 Mg0_4 2.872440 1_555
Mg0_2 Mg0_4 2.872440 1_465
Mg0_3 Pd2_5 2.684431 1_555
Mg0_3 Pd0_2 2.684431 1_655
Mg0_3 Pd2_6 2.684431 1_555
Mg0_3 Pd2_0 2.684431 1_655
Mg0_3 Pd0_1 2.684431 1_655
Mg0_3 Pd0_7 2.684431 1_555
Mg0_3 Mg0_6 2.872440 1_556
Mg0_3 Mg0_6 2.872440 1_655
Mg0_3 Mg0_5 2.872440 1_555
Mg0_3 Mg0_5 2.872440 1_645
Mg0_4 Pd2_2 2.684431 1_545
Mg0_4 Pd0_5 2.684431 1_554
Mg0_4 Pd2_7 2.684431 1_544
Mg0_4 Pd2_1 2.684431 1_554
Mg0_4 Pd0_0 2.684431 1_555
Mg0_4 Pd0_6 2.684431 1_545
Mg0_4 Mg0_7 2.872440 1_554
Mg0_4 Mg0_7 2.872440 1_545
Mg0_5 Pd2_3 2.684431 1_555
Mg0_5 Pd0_4 2.684431 1_565
Mg0_5 Pd2_6 2.684431 1_555
Mg0_5 Pd2_0 2.684431 1_565
Mg0_5 Pd0_1 2.684431 1_565
Mg0_5 Pd0_7 2.684431 1_555
Mg0_5 Mg0_6 2.872440 1_556
Mg0_5 Mg0_6 2.872440 1_565
Mg0_6 Pd2_0 2.684431 1_555
Mg0_6 Pd0_7 2.684431 1_554
Mg0_6 Pd2_5 2.684431 1_554
Mg0_6 Pd2_3 2.684431 1_554
Mg0_6 Pd0_2 2.684431 1_555
Mg0_6 Pd0_4 2.684431 1_555
Mg0_7 Pd2_1 2.684431 1_555
Mg0_7 Pd0_6 2.684431 1_555
Mg0_7 Pd2_4 2.684431 1_555
Mg0_7 Pd2_2 2.684431 1_555
Mg0_7 Pd0_5 2.684431 1_555
Mg0_7 Pd0_3 2.684431 1_555
Pd0_0 Pd1_1 2.825856 1_554
Pd0_0 Pd1_2 2.825856 1_545
Pd0_0 Pd1_4 2.825856 1_455
Pd0_0 Pd0_3 2.872440 1_554
Pd0_0 Pd0_5 2.872440 1_554
Pd0_0 Pd0_3 2.872440 1_545
Pd0_0 Pd0_5 2.872440 1_455
Pd0_0 Pd0_6 2.872440 1_545
Pd0_0 Pd0_6 2.872440 1_455
Pd0_1 Pd1_0 2.825856 1_555
Pd0_1 Pd1_5 2.825856 1_455
Pd0_1 Pd1_3 2.825856 1_545
Pd0_1 Pd0_4 2.872440 1_555
Pd0_1 Pd0_2 2.872440 1_555
Pd0_1 Pd0_4 2.872440 1_456
Pd0_1 Pd0_2 2.872440 1_546
Pd0_1 Pd0_7 2.872440 1_455
Pd0_1 Pd0_7 2.872440 1_545
Pd0_2 Pd1_3 2.825856 1_554
Pd0_2 Pd1_0 2.825856 1_555
Pd0_2 Pd1_6 2.825856 1_455
Pd0_2 Pd0_7 2.872440 1_455
Pd0_2 Pd0_7 2.872440 1_554
Pd0_2 Pd0_4 2.872440 1_465
Pd0_2 Pd0_4 2.872440 1_555
Pd0_3 Pd1_2 2.825856 1_555
Pd0_3 Pd1_1 2.825856 1_555
Pd0_3 Pd1_7 2.825856 1_455
Pd0_3 Pd0_6 2.872440 1_555
Pd0_3 Pd0_6 2.872440 1_456
Pd0_3 Pd0_5 2.872440 1_555
Pd0_3 Pd0_5 2.872440 1_465
Pd0_4 Pd1_5 2.825856 1_554
Pd0_4 Pd1_0 2.825856 1_555
Pd0_4 Pd1_6 2.825856 1_545
Pd0_4 Pd0_7 2.872440 1_545
Pd0_4 Pd0_7 2.872440 1_554
Pd0_5 Pd1_4 2.825856 1_555
Pd0_5 Pd1_1 2.825856 1_555
Pd0_5 Pd1_7 2.825856 1_545
Pd0_5 Pd0_6 2.872440 1_555
Pd0_5 Pd0_6 2.872440 1_546
Pd0_6 Pd1_7 2.825856 1_554
Pd0_6 Pd1_4 2.825856 1_555
Pd0_6 Pd1_2 2.825856 1_555
Pd0_7 Pd1_6 2.825856 1_555
Pd0_7 Pd1_5 2.825856 1_555
Pd0_7 Pd1_3 2.825856 1_555
Pd1_0 Pd2_1 2.825856 1_554
Pd1_0 Pd2_4 2.825856 1_455
Pd1_0 Pd2_2 2.825856 1_545
Pd1_0 Pd1_5 2.872440 1_455
Pd1_0 Pd1_3 2.872440 1_545
Pd1_0 Pd1_5 2.872440 1_554
Pd1_0 Pd1_3 2.872440 1_554
Pd1_0 Pd1_6 2.872440 1_545
Pd1_0 Pd1_6 2.872440 1_455
Pd1_1 Pd2_0 2.825856 1_555
Pd1_1 Pd2_3 2.825856 1_545
Pd1_1 Pd2_5 2.825856 1_455
Pd1_1 Pd1_2 2.872440 1_555
Pd1_1 Pd1_4 2.872440 1_456
Pd1_1 Pd1_2 2.872440 1_546
Pd1_1 Pd1_4 2.872440 1_555
Pd1_1 Pd1_7 2.872440 1_455
Pd1_1 Pd1_7 2.872440 1_545
Pd1_2 Pd2_3 2.825856 1_554
Pd1_2 Pd2_6 2.825856 1_455
Pd1_2 Pd2_0 2.825856 1_555
Pd1_2 Pd1_7 2.872440 1_554
Pd1_2 Pd1_7 2.872440 1_455
Pd1_2 Pd1_4 2.872440 1_555
Pd1_2 Pd1_4 2.872440 1_465
Pd1_3 Pd2_2 2.825856 1_555
Pd1_3 Pd2_7 2.825856 1_455
Pd1_3 Pd2_1 2.825856 1_555
Pd1_3 Pd1_6 2.872440 1_456
Pd1_3 Pd1_6 2.872440 1_555
Pd1_3 Pd1_5 2.872440 1_465
Pd1_3 Pd1_5 2.872440 1_555
Pd1_4 Pd2_5 2.825856 1_554
Pd1_4 Pd2_6 2.825856 1_545
Pd1_4 Pd2_0 2.825856 1_555
Pd1_4 Pd1_7 2.872440 1_554
Pd1_4 Pd1_7 2.872440 1_545
Pd1_5 Pd2_4 2.825856 1_555
Pd1_5 Pd2_7 2.825856 1_545
Pd1_5 Pd2_1 2.825856 1_555
Pd1_5 Pd1_6 2.872440 1_546
Pd1_5 Pd1_6 2.872440 1_555
Pd1_6 Pd2_7 2.825856 1_554
Pd1_6 Pd2_4 2.825856 1_555
Pd1_6 Pd2_2 2.825856 1_555
Pd1_7 Pd2_6 2.825856 1_555
Pd1_7 Pd2_3 2.825856 1_555
Pd1_7 Pd2_5 2.825856 1_555
Pd2_0 Pd2_3 2.872440 1_554
Pd2_0 Pd2_3 2.872440 1_545
Pd2_0 Pd2_5 2.872440 1_455
Pd2_0 Pd2_5 2.872440 1_554
Pd2_0 Pd2_6 2.872440 1_545
Pd2_0 Pd2_6 2.872440 1_455
Pd2_1 Pd2_4 2.872440 1_456
Pd2_1 Pd2_2 2.872440 1_546
Pd2_1 Pd2_4 2.872440 1_555
Pd2_1 Pd2_2 2.872440 1_555
Pd2_1 Pd2_7 2.872440 1_545
Pd2_1 Pd2_7 2.872440 1_455
Pd2_2 Pd2_7 2.872440 1_455
Pd2_2 Pd2_7 2.872440 1_554
Pd2_2 Pd2_4 2.872440 1_555
Pd2_2 Pd2_4 2.872440 1_465
Pd2_3 Pd2_6 2.872440 1_555
Pd2_3 Pd2_6 2.872440 1_456
Pd2_3 Pd2_5 2.872440 1_465
Pd2_3 Pd2_5 2.872440 1_555
Pd2_4 Pd2_7 2.872440 1_554
Pd2_4 Pd2_7 2.872440 1_545
Pd2_5 Pd2_6 2.872440 1_555
Pd2_5 Pd2_6 2.872440 1_546
