# generated using pymatgen
data_TiMn2O6
_symmetry_space_group_name_H-M   'P 1'
_cell_length_a   5.10283955
_cell_length_b   5.10284047
_cell_length_c   9.70014200
_cell_angle_alpha   90.00009121
_cell_angle_beta   89.99991376
_cell_angle_gamma   120.07860329
_symmetry_Int_Tables_number   1
_chemical_formula_structural   TiMn2O6
_chemical_formula_sum   'Ti2 Mn4 O12'
_cell_volume   218.56876390
_cell_formula_units_Z   2
loop_
 _symmetry_equiv_pos_site_id
 _symmetry_equiv_pos_as_xyz
  1  'x, y, z'
loop_
 _atom_site_type_symbol
 _atom_site_label
 _atom_site_symmetry_multiplicity
 _atom_site_fract_x
 _atom_site_fract_y
 _atom_site_fract_z
 _atom_site_occupancy
  Ti  Ti0  1  0.00000000  0.99999700  0.00000300  1
  Ti  Ti1  1  0.49999900  0.50000200  0.50000100  1
  Mn  Mn0  1  0.16673200  0.83326700  0.50000100  1
  Mn  Mn1  1  0.33326800  0.66673100  0.99999600  1
  Mn  Mn2  1  0.66673300  0.33326500  0.00000000  1
  Mn  Mn3  1  0.83326700  0.16673600  0.50000100  1
  O  O0  1  0.99997000  0.66089200  0.09931200  1
  O  O1  1  0.00003200  0.33910300  0.90068500  1
  O  O2  1  0.16089300  0.49996800  0.40068500  1
  O  O3  1  0.50003200  0.83911000  0.59931600  1
  O  O4  1  0.16047700  0.16048000  0.59970500  1
  O  O5  1  0.33952200  0.33952300  0.09970200  1
  O  O6  1  0.66047900  0.66047400  0.90029500  1
  O  O7  1  0.33910900  0.00003500  0.90068600  1
  O  O8  1  0.83952200  0.83952500  0.40029700  1
  O  O9  1  0.49996700  0.16089500  0.40068500  1
  O  O10  1  0.83910700  0.50003600  0.59931700  1
  O  O11  1  0.66089100  0.99996200  0.09931200  1
loop_
_geom_bond_atom_site_label_1
_geom_bond_atom_site_label_2
_geom_bond_distance
_geom_bond_site_symmetry_2
Mn0 O10 1.940352 1_455
Mn0 O9 1.940368 1_565
Mn0 O3 1.941851 1_555
Mn0 O2 1.941858 1_555
Mn0 O8 1.943640 1_455
Mn0 O4 1.943644 1_565
Mn1 O1 1.940346 1_555
Mn1 O11 1.940348 1_556
Mn1 O7 1.941849 1_565
Mn1 O0 1.941853 1_456
Mn1 O6 1.943625 1_555
Mn1 O5 1.943632 1_556
Mn2 O7 1.940338 1_554
Mn2 O0 1.940351 1_555
Mn2 O11 1.941852 1_545
Mn2 O1 1.941855 1_654
Mn2 O6 1.943631 1_554
Mn2 O5 1.943632 1_555
Mn3 O2 1.940357 1_655
Mn3 O3 1.940358 1_545
Mn3 O10 1.941860 1_555
Mn3 O9 1.941860 1_555
Mn3 O8 1.943635 1_545
Mn3 O4 1.943635 1_655
O0 Ti0 1.980401 1_655
O1 Ti0 1.980444 1_546
O2 Ti1 1.980429 1_555
O3 Ti1 1.980433 1_555
O4 Ti1 1.982394 1_555
O5 Ti0 1.982379 1_545
O6 Ti0 1.982412 1_656
O7 Ti0 1.980436 1_546
O8 Ti1 1.982398 1_555
O9 Ti1 1.980436 1_555
O10 Ti1 1.980438 1_555
O11 Ti0 1.980405 1_655
