# generated using pymatgen
data_Nd6Ni20P13
_symmetry_space_group_name_H-M   'P 1'
_cell_length_a   12.71169400
_cell_length_b   12.71174427
_cell_length_c   3.82940348
_cell_angle_alpha   90.00000000
_cell_angle_beta   90.00000000
_cell_angle_gamma   119.99824297
_symmetry_Int_Tables_number   1
_chemical_formula_structural   Nd6Ni20P13
_chemical_formula_sum   'Nd6 Ni20 P13'
_cell_volume   535.89292784
_cell_formula_units_Z   1
loop_
 _symmetry_equiv_pos_site_id
 _symmetry_equiv_pos_as_xyz
  1  'x, y, z'
loop_
 _atom_site_type_symbol
 _atom_site_label
 _atom_site_symmetry_multiplicity
 _atom_site_fract_x
 _atom_site_fract_y
 _atom_site_fract_z
 _atom_site_occupancy
  Nd  Nd0  1  0.80052388  0.94877091  -0.00000000  1
  Nd  Nd1  1  0.05121213  0.85175324  -0.00000000  1
  Nd  Nd2  1  0.14828333  0.19948048  -0.00000000  1
  Nd  Nd3  1  0.51825604  0.13319430  0.50000000  1
  Nd  Nd4  1  0.86681167  0.38505159  0.50000000  1
  Nd  Nd5  1  0.61492622  0.48174744  0.50000000  1
  Ni  Ni0  1  0.52574247  0.77184620  0.00000000  1
  Ni  Ni1  1  0.22817005  0.75390244  0.00000000  1
  Ni  Ni2  1  0.24610556  0.47422760  -0.00000000  1
  Ni  Ni3  1  -0.00000344  -0.00000606  0.50000000  1
  Ni  Ni4  1  0.40159175  0.80996053  0.50000000  1
  Ni  Ni5  1  0.19011733  0.59168413  0.50000000  1
  Ni  Ni6  1  0.40823890  0.59846820  0.50000000  1
  Ni  Ni7  1  0.66666055  0.33332450  -0.00000000  1
  Ni  Ni8  1  0.77171073  0.69058969  0.00000000  1
  Ni  Ni9  1  0.30942376  0.08113683  0.00000000  1
  Ni  Ni10  1  0.91886741  0.22825365  -0.00000000  1
  Ni  Ni11  1  0.64335453  0.73680956  0.50000000  1
  Ni  Ni12  1  0.26318116  0.90660866  0.50000000  1
  Ni  Ni13  1  0.09342287  0.35657020  0.50000000  1
  Ni  Ni14  1  0.35854640  0.25869512  0.50000000  1
  Ni  Ni15  1  0.74130000  0.09980773  0.50000000  1
  Ni  Ni16  1  0.90013273  0.64148076  0.50000000  1
  Ni  Ni17  1  0.57179131  0.98365424  0.00000000  1
  Ni  Ni18  1  0.01634399  0.58814273  -0.00000000  1
  Ni  Ni19  1  0.41189160  0.42822111  0.00000000  1
  P  P0  1  0.85223332  0.79868043  0.50000000  1
  P  P1  1  0.20132097  0.05356597  0.50000000  1
  P  P2  1  0.94644713  0.14773112  0.50000000  1
  P  P3  1  0.60405036  0.89809879  0.50000000  1
  P  P4  1  0.10188080  0.70594666  0.50000000  1
  P  P5  1  0.29410943  0.39597367  0.50000000  1
  P  P6  1  0.46598978  0.28047845  -0.00000000  1
  P  P7  1  0.71952596  0.18549395  0.00000000  1
  P  P8  1  0.81448329  0.53401707  0.00000000  1
  P  P9  1  0.37422786  0.94417190  0.00000000  1
  P  P10  1  0.05583490  0.43002920  -0.00000000  1
  P  P11  1  0.56996297  0.62579098  0.00000000  1
  P  P12  1  0.33332830  0.66664401  0.00000000  1
loop_
_geom_bond_atom_site_label_1
_geom_bond_atom_site_label_2
_geom_bond_distance
_geom_bond_site_symmetry_2
Nd0 P3 2.951256 1_554
Nd0 P3 2.951256 1_555
Nd0 P2 2.968542 1_564
Nd0 P2 2.968542 1_565
Nd0 Ni3 2.978012 1_664
Nd0 Ni3 2.978012 1_665
Nd0 P0 2.998717 1_554
Nd0 P0 2.998717 1_555
Nd0 Ni15 3.060122 1_565
Nd0 Ni15 3.060122 1_564
Nd0 Ni0 3.066502 1_555
Nd0 Ni11 3.087815 1_554
Nd0 Ni11 3.087815 1_555
Nd0 Ni10 3.088786 1_565
Nd0 Ni8 3.115004 1_555
Nd0 Ni17 3.152757 1_555
Nd1 P4 2.951262 1_554
Nd1 P4 2.951262 1_555
Nd1 P0 2.968594 1_455
Nd1 P0 2.968594 1_454
Nd1 Ni3 2.977857 1_565
Nd1 Ni3 2.977857 1_564
Nd1 P1 2.998908 1_565
Nd1 P1 2.998908 1_564
Nd1 Ni16 3.060366 1_455
Nd1 Ni16 3.060366 1_454
Nd1 Ni1 3.066749 1_555
Nd1 Ni12 3.087683 1_555
Nd1 Ni12 3.087683 1_554
Nd1 Ni8 3.089012 1_455
Nd1 Ni9 3.115374 1_565
Nd1 Ni18 3.152799 1_555
Nd2 P5 2.951486 1_555
Nd2 P5 2.951486 1_554
Nd2 P1 2.968412 1_555
Nd2 P1 2.968412 1_554
Nd2 Ni3 2.978238 1_554
Nd2 Ni3 2.978238 1_555
Nd2 P2 2.998975 1_455
Nd2 P2 2.998975 1_454
Nd2 Ni14 3.060190 1_554
Nd2 Ni14 3.060190 1_555
Nd2 Ni2 3.066147 1_555
Nd2 Ni13 3.087466 1_554
Nd2 Ni13 3.087466 1_555
Nd2 Ni9 3.088721 1_555
Nd2 Ni10 3.115280 1_455
Nd2 Ni19 3.152835 1_555
Nd3 P9 2.897001 1_545
Nd3 P9 2.897001 1_546
Nd3 P6 2.976006 1_556
Nd3 P6 2.976006 1_555
Nd3 Ni7 2.982931 1_555
Nd3 Ni7 2.982931 1_556
Nd3 P7 2.992166 1_556
Nd3 P7 2.992166 1_555
Nd3 Ni17 3.006031 1_545
Nd3 Ni17 3.006031 1_546
Nd3 Ni9 3.065025 1_556
Nd3 Ni9 3.065025 1_555
Nd3 Ni15 3.069541 1_555
Nd3 Ni12 3.077469 1_545
Nd3 Ni14 3.147279 1_555
Nd4 P10 2.897021 1_656
Nd4 P10 2.897021 1_655
Nd4 P7 2.976113 1_556
Nd4 P7 2.976113 1_555
Nd4 Ni7 2.983091 1_555
Nd4 Ni7 2.983091 1_556
Nd4 P8 2.992297 1_556
Nd4 P8 2.992297 1_555
Nd4 Ni18 3.006175 1_656
Nd4 Ni18 3.006175 1_655
Nd4 Ni10 3.065216 1_555
Nd4 Ni10 3.065216 1_556
Nd4 Ni16 3.069885 1_555
Nd4 Ni13 3.077640 1_655
Nd4 Ni15 3.147735 1_555
Nd5 P11 2.896892 1_556
Nd5 P11 2.896892 1_555
Nd5 P8 2.976080 1_555
Nd5 P8 2.976080 1_556
Nd5 Ni7 2.983111 1_555
Nd5 Ni7 2.983111 1_556
Nd5 P6 2.992105 1_555
Nd5 P6 2.992105 1_556
Nd5 Ni19 3.005689 1_556
Nd5 Ni19 3.005689 1_555
Nd5 Ni8 3.065157 1_556
Nd5 Ni8 3.065157 1_555
Nd5 Ni14 3.069290 1_555
Nd5 Ni11 3.077562 1_555
Nd5 Ni16 3.147343 1_555
Ni0 P12 2.121345 1_555
Ni0 P11 2.192392 1_555
Ni0 P3 2.373850 1_554
Ni0 P3 2.373850 1_555
Ni1 P12 2.121286 1_555
Ni1 P9 2.192414 1_555
Ni1 P4 2.374084 1_554
Ni1 P4 2.374084 1_555
Ni2 P12 2.121365 1_555
Ni2 P10 2.192433 1_555
Ni2 P5 2.373800 1_554
Ni2 P5 2.373800 1_555
Ni3 P2 2.295327 1_455
Ni3 P0 2.295725 1_445
Ni3 P1 2.295743 1_555
Ni4 P3 2.235034 1_555
Ni4 P12 2.481381 1_556
Ni4 P12 2.481381 1_555
Ni4 P9 2.700209 1_556
Ni4 P9 2.700209 1_555
Ni5 P4 2.235356 1_555
Ni5 P12 2.480632 1_555
Ni5 P12 2.480632 1_556
Ni5 P10 2.700925 1_555
Ni5 P10 2.700925 1_556
Ni6 P5 2.235251 1_555
Ni6 P12 2.479738 1_555
Ni6 P12 2.479738 1_556
Ni6 P11 2.701665 1_556
Ni6 P11 2.701665 1_555
Ni7 P6 2.290129 1_555
Ni7 P7 2.290347 1_555
Ni7 P8 2.290361 1_555
Ni8 P11 2.267843 1_555
Ni8 P0 2.279339 1_554
Ni8 P0 2.279339 1_555
Ni8 P8 2.310640 1_555
Ni9 P9 2.268051 1_545
Ni9 P1 2.279402 1_554
Ni9 P1 2.279402 1_555
Ni9 P6 2.310653 1_555
Ni10 P10 2.268190 1_655
Ni10 P2 2.279374 1_554
Ni10 P2 2.279374 1_555
Ni10 P7 2.310665 1_555
Ni11 P11 2.282876 1_555
Ni11 P11 2.282876 1_556
Ni11 P3 2.340411 1_555
Ni11 P0 2.362307 1_555
Ni12 P9 2.283130 1_555
Ni12 P9 2.283130 1_556
Ni12 P4 2.341096 1_555
Ni12 P1 2.361560 1_565
Ni13 P10 2.283090 1_555
Ni13 P10 2.283090 1_556
Ni13 P5 2.341175 1_555
Ni13 P2 2.361886 1_455
Ni14 P5 2.268354 1_555
Ni14 P6 2.286911 1_555
Ni14 P6 2.286911 1_556
Ni14 P1 2.362741 1_555
Ni15 P3 2.268286 1_545
Ni15 P7 2.287042 1_556
Ni15 P7 2.287042 1_555
Ni15 P2 2.362842 1_555
Ni16 P4 2.268706 1_655
Ni16 P8 2.286995 1_555
Ni16 P8 2.286995 1_556
Ni16 P0 2.362313 1_555
Ni17 P7 2.300355 1_565
Ni17 P9 2.301845 1_555
Ni17 P3 2.337300 1_554
Ni17 P3 2.337300 1_555
Ni18 P8 2.300502 1_455
Ni18 P10 2.302304 1_555
Ni18 P4 2.337234 1_555
Ni18 P4 2.337234 1_554
Ni19 P6 2.300321 1_555
Ni19 P11 2.301909 1_555
Ni19 P5 2.337103 1_554
Ni19 P5 2.337103 1_555
