# generated using pymatgen
data_Ce2Ga2Co15
_symmetry_space_group_name_H-M   'P 1'
_cell_length_a   6.35841815
_cell_length_b   6.35841815
_cell_length_c   6.35841892
_cell_angle_alpha   82.80871738
_cell_angle_beta   82.80871738
_cell_angle_gamma   82.80871289
_symmetry_Int_Tables_number   1
_chemical_formula_structural   Ce2Ga2Co15
_chemical_formula_sum   'Ce2 Ga2 Co15'
_cell_volume   251.46827461
_cell_formula_units_Z   1
loop_
 _symmetry_equiv_pos_site_id
 _symmetry_equiv_pos_as_xyz
  1  'x, y, z'
loop_
 _atom_site_type_symbol
 _atom_site_label
 _atom_site_symmetry_multiplicity
 _atom_site_fract_x
 _atom_site_fract_y
 _atom_site_fract_z
 _atom_site_occupancy
  Ce  Ce0  1  0.64755600  0.64755600  0.64755600  1
  Ce  Ce1  1  0.35244400  0.35244400  0.35244400  1
  Ga  Ga0  1  0.89453000  0.89453000  0.89453000  1
  Ga  Ga1  1  0.10547000  0.10547000  0.10547000  1
  Co  Co0  1  0.00000000  0.00000000  0.50000000  1
  Co  Co1  1  0.00000000  0.50000000  0.00000000  1
  Co  Co2  1  0.50000000  0.00000000  0.00000000  1
  Co  Co3  1  0.28917600  0.71082400  0.00000000  1
  Co  Co4  1  0.71082400  0.00000000  0.28917600  1
  Co  Co5  1  0.00000000  0.28917600  0.71082400  1
  Co  Co6  1  0.28917600  0.00000000  0.71082400  1
  Co  Co7  1  0.00000000  0.71082400  0.28917600  1
  Co  Co8  1  0.71082400  0.28917600  0.00000000  1
  Co  Co9  1  0.35031600  0.35031600  0.85075300  1
  Co  Co10  1  0.35031600  0.85075300  0.35031600  1
  Co  Co11  1  0.85075300  0.35031600  0.35031600  1
  Co  Co12  1  0.64968400  0.64968400  0.14924700  1
  Co  Co13  1  0.64968400  0.14924700  0.64968400  1
  Co  Co14  1  0.14924700  0.64968400  0.64968400  1
loop_
_geom_bond_atom_site_label_1
_geom_bond_atom_site_label_2
_geom_bond_distance
_geom_bond_site_symmetry_2
Ce0 Co10 2.912886 1_555
Ce0 Co11 2.912886 1_555
Ce0 Co9 2.912886 1_555
Ce0 Co5 3.015650 1_655
Ce0 Co6 3.015650 1_565
Ce0 Co8 3.015651 1_556
Ce0 Co3 3.015651 1_556
Ce0 Co4 3.015651 1_565
Ce0 Co7 3.015651 1_655
Ce0 Ga0 3.041440 1_555
Ce0 Co13 3.165133 1_555
Ce0 Co14 3.165133 1_555
Ce0 Co12 3.165133 1_555
Ce0 Co13 3.193411 1_565
Ce0 Co14 3.193411 1_655
Ce0 Co12 3.193412 1_556
Ce0 Co0 3.335991 1_665
Ce0 Co2 3.335991 1_566
Ce0 Co1 3.335991 1_656
Ce0 Ce1 3.634251 1_555
Ce1 Co14 2.912886 1_555
Ce1 Co13 2.912886 1_555
Ce1 Co12 2.912886 1_555
Ce1 Co7 3.015650 1_555
Ce1 Co4 3.015650 1_555
Ce1 Co8 3.015651 1_555
Ce1 Co3 3.015651 1_555
Ce1 Co5 3.015651 1_555
Ce1 Co6 3.015651 1_555
Ce1 Ga1 3.041440 1_555
Ce1 Co10 3.165133 1_555
Ce1 Co11 3.165133 1_555
Ce1 Co9 3.165133 1_555
Ce1 Co10 3.193411 1_545
Ce1 Co11 3.193411 1_455
Ce1 Co9 3.193412 1_554
Ce1 Co0 3.335991 1_555
Ce1 Co2 3.335991 1_555
Ce1 Co1 3.335991 1_555
Ga0 Ga1 2.597688 1_666
Co0 Co6 2.407256 1_555
Co0 Co4 2.407256 1_455
Co0 Co7 2.407256 1_545
Co0 Co5 2.407256 1_555
Co0 Co11 2.435997 1_455
Co0 Co10 2.435997 1_545
Co0 Co13 2.435997 1_455
Co0 Co14 2.435997 1_545
Co0 Ga0 2.542182 1_445
Co0 Ga1 2.542182 1_555
Co1 Co3 2.407256 1_555
Co1 Co8 2.407256 1_455
Co1 Co7 2.407256 1_555
Co1 Co5 2.407256 1_554
Co1 Co9 2.435997 1_554
Co1 Co12 2.435997 1_455
Co1 Co11 2.435998 1_455
Co1 Co14 2.435998 1_554
Co1 Ga1 2.542182 1_555
Co1 Ga0 2.542182 1_454
Co2 Co8 2.407256 1_555
Co2 Co3 2.407256 1_545
Co2 Co4 2.407256 1_555
Co2 Co6 2.407256 1_554
Co2 Co9 2.435997 1_554
Co2 Ga1 2.542182 1_555
Co2 Ga0 2.542182 1_544
Co3 Co6 2.432121 1_564
Co3 Co7 2.432121 1_555
Co3 Co9 2.556421 1_554
Co3 Ga0 2.757210 1_454
Co3 Ga1 2.757210 1_565
Co4 Co7 2.432121 1_645
Co4 Co8 2.432121 1_555
Co4 Ga1 2.757210 1_655
Co4 Ga0 2.757210 1_544
Co5 Co6 2.432121 1_555
Co5 Co8 2.432121 1_456
Co5 Co9 2.589185 1_555
Co5 Ga0 2.757210 1_445
Co5 Ga1 2.757210 1_556
Co6 Co9 2.589185 1_555
Co6 Ga0 2.757210 1_445
Co6 Ga1 2.757210 1_556
Co7 Ga1 2.757210 1_565
Co7 Ga0 2.757210 1_454
Co8 Co9 2.556421 1_554
Co8 Ga0 2.757210 1_544
Co8 Ga1 2.757210 1_655
Co9 Ga1 2.610519 1_556
Co10 Co2 2.435998 1_565
Co10 Co12 2.466377 1_555
Co10 Co14 2.466377 1_555
Co10 Co4 2.556421 1_565
Co10 Co6 2.556421 1_565
Co10 Co7 2.589185 1_555
Co10 Co3 2.589185 1_555
Co10 Ga1 2.610519 1_565
Co11 Co12 2.466377 1_555
Co11 Co13 2.466377 1_555
Co11 Co7 2.556421 1_655
Co11 Co5 2.556421 1_655
Co11 Co4 2.589185 1_555
Co11 Co8 2.589185 1_555
Co11 Ga1 2.610519 1_655
Co12 Co2 2.435997 1_565
Co12 Co8 2.556421 1_555
Co12 Co3 2.556421 1_555
Co12 Co4 2.589185 1_565
Co12 Co7 2.589185 1_655
Co12 Ga0 2.610519 1_554
Co13 Co2 2.435998 1_556
Co13 Co9 2.466377 1_555
Co13 Co6 2.556421 1_555
Co13 Co4 2.556421 1_555
Co13 Co5 2.589185 1_655
Co13 Co8 2.589185 1_556
Co13 Ga0 2.610519 1_545
Co14 Co9 2.466377 1_555
Co14 Co5 2.556421 1_555
Co14 Co7 2.556421 1_555
Co14 Co6 2.589185 1_565
Co14 Co3 2.589185 1_556
Co14 Ga0 2.610519 1_455
