# generated using pymatgen
data_Li4Mn3CoO8
_symmetry_space_group_name_H-M   'P 1'
_cell_length_a   5.20987595
_cell_length_b   5.20987595
_cell_length_c   10.07823961
_cell_angle_alpha   78.05530360
_cell_angle_beta   78.05530360
_cell_angle_gamma   34.26352834
_symmetry_Int_Tables_number   1
_chemical_formula_structural   Li4Mn3CoO8
_chemical_formula_sum   'Li4 Mn3 Co1 O8'
_cell_volume   150.35430274
_cell_formula_units_Z   1
loop_
 _symmetry_equiv_pos_site_id
 _symmetry_equiv_pos_as_xyz
  1  'x, y, z'
loop_
 _atom_site_type_symbol
 _atom_site_label
 _atom_site_symmetry_multiplicity
 _atom_site_fract_x
 _atom_site_fract_y
 _atom_site_fract_z
 _atom_site_occupancy
  Li  Li0  1  0.75138800  0.75138800  0.87896300  1
  Li  Li1  1  0.24925500  0.24925500  0.62455700  1
  Li  Li2  1  0.75074500  0.75074500  0.37544300  1
  Li  Li3  1  0.24861200  0.24861200  0.12103700  1
  Mn  Mn0  1  0.50060100  0.50060100  0.75039200  1
  Mn  Mn1  1  0.00000000  0.00000000  0.50000000  1
  Mn  Mn2  1  0.49939900  0.49939900  0.24960800  1
  Co  Co0  1  0.00000000  0.00000000  0.00000000  1
  O  O0  1  0.11532200  0.11532200  0.82106900  1
  O  O1  1  0.61632000  0.61632000  0.57027800  1
  O  O2  1  0.11521800  0.11521800  0.32002900  1
  O  O3  1  0.61466900  0.61466900  0.06932500  1
  O  O4  1  0.38533100  0.38533100  0.93067500  1
  O  O5  1  0.88478200  0.88478200  0.67997100  1
  O  O6  1  0.38368000  0.38368000  0.42972200  1
  O  O7  1  0.88467800  0.88467800  0.17893100  1
loop_
_geom_bond_atom_site_label_1
_geom_bond_atom_site_label_2
_geom_bond_distance
_geom_bond_site_symmetry_2
Li0 O3 2.098263 1_556
Li0 O5 2.152306 1_555
Li0 O4 2.169504 1_565
Li0 O4 2.169504 1_655
Li0 O0 2.207656 1_655
Li0 O0 2.207656 1_565
Li1 O6 2.123414 1_555
Li1 O0 2.134680 1_555
Li1 O1 2.172621 1_545
Li1 O1 2.172621 1_455
Li1 O5 2.194247 1_455
Li1 O5 2.194247 1_545
Li2 O1 2.123414 1_555
Li2 O7 2.134680 1_555
Li2 O6 2.172621 1_655
Li2 O6 2.172621 1_565
Li2 O2 2.194247 1_565
Li2 O2 2.194247 1_655
Li3 O4 2.098263 1_554
Li3 O2 2.152306 1_555
Li3 O3 2.169504 1_455
Li3 O3 2.169504 1_545
Li3 O7 2.207656 1_545
Li3 O7 2.207656 1_455
Mn0 O4 1.927525 1_555
Mn0 O1 1.927896 1_555
Mn0 O0 2.126018 1_655
Mn0 O0 2.126018 1_565
Mn0 O5 2.131541 1_545
Mn0 O5 2.131541 1_455
Mn1 O2 1.924765 1_555
Mn1 O5 1.924765 1_445
Mn1 O6 2.133955 1_545
Mn1 O1 2.133955 1_545
Mn1 O1 2.133955 1_455
Mn1 O6 2.133955 1_455
Mn2 O3 1.927525 1_555
Mn2 O6 1.927896 1_555
Mn2 O7 2.126018 1_545
Mn2 O7 2.126018 1_455
Mn2 O2 2.131541 1_655
Mn2 O2 2.131541 1_565
Co0 O7 1.916660 1_445
Co0 O0 1.916660 1_554
Co0 O3 2.119586 1_455
Co0 O3 2.119586 1_545
Co0 O4 2.119586 1_454
Co0 O4 2.119586 1_544
