# generated using pymatgen
data_ZnCoSb2O7
_symmetry_space_group_name_H-M   'P 1'
_cell_length_a   14.70815300
_cell_length_b   6.60166100
_cell_length_c   13.11295514
_cell_angle_alpha   74.65849001
_cell_angle_beta   90.00000000
_cell_angle_gamma   90.00000000
_symmetry_Int_Tables_number   1
_chemical_formula_structural   ZnCoSb2O7
_chemical_formula_sum   'Zn8 Co8 Sb16 O56'
_cell_volume   1227.87404892
_cell_formula_units_Z   8
loop_
 _symmetry_equiv_pos_site_id
 _symmetry_equiv_pos_as_xyz
  1  'x, y, z'
loop_
 _atom_site_type_symbol
 _atom_site_label
 _atom_site_symmetry_multiplicity
 _atom_site_fract_x
 _atom_site_fract_y
 _atom_site_fract_z
 _atom_site_occupancy
  Zn  Zn0  1  0.52522500  0.94088700  0.77986800  1
  Zn  Zn1  1  0.89357100  0.68611700  0.89706100  1
  Zn  Zn2  1  0.39357100  0.31388300  0.60293900  1
  Zn  Zn3  1  0.10642900  0.31388300  0.10293900  1
  Zn  Zn4  1  0.60642900  0.68611700  0.39706100  1
  Zn  Zn5  1  0.97477500  0.94088700  0.27986800  1
  Zn  Zn6  1  0.47477500  0.05911300  0.22013200  1
  Zn  Zn7  1  0.02522500  0.05911300  0.72013200  1
  Co  Co0  1  0.65460800  0.32719200  0.10111000  1
  Co  Co1  1  0.15460800  0.67280800  0.39889000  1
  Co  Co2  1  0.34539200  0.67280800  0.89889000  1
  Co  Co3  1  0.84539200  0.32719200  0.60111000  1
  Co  Co4  1  0.77052700  0.98119800  0.24830300  1
  Co  Co5  1  0.27052700  0.01880200  0.25169700  1
  Co  Co6  1  0.22947300  0.01880200  0.75169700  1
  Co  Co7  1  0.72947300  0.98119800  0.74830300  1
  Sb  Sb0  1  0.89585100  0.07789900  0.01119900  1
  Sb  Sb1  1  0.02650300  0.60692900  0.66909100  1
  Sb  Sb2  1  0.47349700  0.60692900  0.16909100  1
  Sb  Sb3  1  0.97349700  0.39307100  0.33090900  1
  Sb  Sb4  1  0.73671900  0.42752900  0.82298600  1
  Sb  Sb5  1  0.23671900  0.57247100  0.67701400  1
  Sb  Sb6  1  0.26328100  0.57247100  0.17701400  1
  Sb  Sb7  1  0.76328100  0.42752900  0.32298600  1
  Sb  Sb8  1  0.52650300  0.39307100  0.83090900  1
  Sb  Sb9  1  0.16820600  0.14074200  0.48596200  1
  Sb  Sb10  1  0.66820600  0.85925800  0.01403800  1
  Sb  Sb11  1  0.83179400  0.85925800  0.51403800  1
  Sb  Sb12  1  0.39585100  0.92210100  0.48880100  1
  Sb  Sb13  1  0.60414900  0.07789900  0.51119900  1
  Sb  Sb14  1  0.10414900  0.92210100  0.98880100  1
  Sb  Sb15  1  0.33179400  0.14074200  0.98596200  1
  O  O0  1  0.02801600  0.17383600  0.01212000  1
  O  O1  1  0.52801600  0.82616400  0.48788000  1
  O  O2  1  0.97198400  0.82616400  0.98788000  1
  O  O3  1  0.47198400  0.17383600  0.51212000  1
  O  O4  1  0.80233800  0.93406300  0.95148800  1
  O  O5  1  0.30233800  0.06593700  0.54851200  1
  O  O6  1  0.19766200  0.06593700  0.04851200  1
  O  O7  1  0.69766200  0.93406300  0.45148800  1
  O  O8  1  0.88058400  0.00272000  0.16035900  1
  O  O9  1  0.38058400  0.99728000  0.33964100  1
  O  O10  1  0.11941600  0.99728000  0.83964100  1
  O  O11  1  0.61941600  0.00272000  0.66035900  1
  O  O12  1  0.28301900  0.41296400  0.92779500  1
  O  O13  1  0.78301900  0.58703600  0.57220500  1
  O  O14  1  0.71698100  0.58703600  0.07220500  1
  O  O15  1  0.21698100  0.41296400  0.42779500  1
  O  O16  1  0.36606000  0.02061900  0.13396400  1
  O  O17  1  0.86606000  0.97938100  0.36603600  1
  O  O18  1  0.63394000  0.97938100  0.86603600  1
  O  O19  1  0.13394000  0.02061900  0.63396400  1
  O  O20  1  0.31434400  0.96275000  0.89249400  1
  O  O21  1  0.46994200  0.66275600  0.82534400  1
  O  O22  1  0.81434400  0.03725000  0.60750600  1
  O  O23  1  0.18565600  0.96275000  0.39249400  1
  O  O24  1  0.47599300  0.23474400  0.73583600  1
  O  O25  1  0.97599300  0.76525600  0.76416400  1
  O  O26  1  0.52400700  0.76525600  0.26416400  1
  O  O27  1  0.02400700  0.23474400  0.23583600  1
  O  O28  1  0.46287000  0.22445100  0.95566800  1
  O  O29  1  0.96287000  0.77554900  0.54433200  1
  O  O30  1  0.53713000  0.77554900  0.04433200  1
  O  O31  1  0.03713000  0.22445100  0.45566800  1
  O  O32  1  0.87252800  0.50154400  0.22983300  1
  O  O33  1  0.37252800  0.49845600  0.27016700  1
  O  O34  1  0.12747200  0.49845600  0.77016700  1
  O  O35  1  0.62747200  0.50154400  0.72983300  1
  O  O36  1  0.70708500  0.24163400  0.25225100  1
  O  O37  1  0.20708500  0.75836600  0.24774900  1
  O  O38  1  0.29291500  0.75836600  0.74774900  1
  O  O39  1  0.79291500  0.24163400  0.75225100  1
  O  O40  1  0.65039700  0.36430300  0.43780100  1
  O  O41  1  0.15039700  0.63569700  0.06219900  1
  O  O42  1  0.34960300  0.63569700  0.56219900  1
  O  O43  1  0.84960300  0.36430300  0.93780100  1
  O  O44  1  0.71287000  0.70166700  0.30102800  1
  O  O45  1  0.21287000  0.29833300  0.19897200  1
  O  O46  1  0.28713000  0.29833300  0.69897200  1
  O  O47  1  0.78713000  0.70166700  0.80102800  1
  O  O48  1  0.86251000  0.36600800  0.43209100  1
  O  O49  1  0.36251000  0.63399200  0.06790900  1
  O  O50  1  0.13749000  0.63399200  0.56790900  1
  O  O51  1  0.63749000  0.36600800  0.93209100  1
  O  O52  1  0.03005800  0.66275600  0.32534400  1
  O  O53  1  0.53005800  0.33724400  0.17465600  1
  O  O54  1  0.96994200  0.33724400  0.67465600  1
  O  O55  1  0.68565600  0.03725000  0.10750600  1
loop_
_geom_bond_atom_site_label_1
_geom_bond_atom_site_label_2
_geom_bond_distance
_geom_bond_site_symmetry_2
Co0 O14 1.893101 1_555
Co0 O55 1.947922 1_555
Co0 O36 2.061643 1_555
Co0 O53 2.079472 1_555
Co0 O51 2.177313 1_554
Co1 O15 1.893101 1_555
Co1 O23 1.947922 1_555
Co1 O37 2.061643 1_555
Co1 O52 2.079472 1_555
Co1 O50 2.177313 1_555
Co2 O12 1.893101 1_555
Co2 O20 1.947922 1_555
Co2 O38 2.061643 1_555
Co2 O21 2.079472 1_555
Co2 O49 2.177313 1_556
Co3 O13 1.893101 1_555
Co3 O22 1.947922 1_555
Co3 O39 2.061643 1_555
Co3 O54 2.079472 1_555
Co3 O48 2.177313 1_555
Co4 O36 1.968885 1_565
Co4 O8 1.970704 1_565
Co4 O44 1.981776 1_555
Co4 O17 2.085208 1_555
Co4 O55 2.177696 1_565
Co5 O37 1.968885 1_545
Co5 O9 1.970704 1_545
Co5 O45 1.981776 1_555
Co5 O16 2.085208 1_555
Co5 O23 2.177696 1_545
Co6 O38 1.968885 1_545
Co6 O10 1.970704 1_545
Co6 O46 1.981776 1_555
Co6 O19 2.085208 1_555
Co6 O20 2.177696 1_545
Co7 O39 1.968885 1_565
Co7 O11 1.970704 1_565
Co7 O47 1.981776 1_555
Co7 O18 2.085208 1_555
Co7 O22 2.177696 1_565
O0 Sb0 2.045501 1_455
O0 Zn3 2.045915 1_555
O0 Sb14 2.092392 1_544
O1 Sb12 2.045501 1_555
O1 Zn4 2.045915 1_555
O1 Sb13 2.092392 1_565
O2 Sb14 2.045501 1_655
O2 Zn1 2.045915 1_555
O2 Sb0 2.092392 1_566
O3 Sb13 2.045501 1_555
O3 Zn2 2.045915 1_555
O3 Sb12 2.092392 1_545
O4 Sb0 1.949327 1_566
O4 Sb10 2.143448 1_556
O4 Zn1 2.368001 1_555
O5 Sb12 1.949327 1_545
O5 Sb9 2.143448 1_555
O5 Zn2 2.368001 1_555
O6 Sb14 1.949327 1_544
O6 Sb15 2.143448 1_554
O6 Zn3 2.368001 1_555
O7 Sb13 1.949327 1_565
O7 Sb11 2.143448 1_555
O7 Zn4 2.368001 1_555
O8 Sb0 1.899668 1_555
O8 Zn5 2.050184 1_545
O9 Sb12 1.899668 1_555
O9 Zn6 2.050184 1_565
O10 Sb14 1.899668 1_555
O10 Zn7 2.050184 1_565
O11 Sb13 1.899668 1_555
O11 Zn0 2.050184 1_545
O12 Sb15 1.897561 1_555
O13 Sb11 1.897561 1_555
O14 Sb10 1.897561 1_555
O15 Sb9 1.897561 1_555
O16 Sb15 1.958313 1_554
O16 Zn6 2.012466 1_555
O17 Sb11 1.958313 1_555
O17 Zn5 2.012466 1_555
O18 Sb10 1.958313 1_556
O18 Zn0 2.012466 1_555
O19 Sb9 1.958313 1_555
O19 Zn7 2.012466 1_555
O20 Sb15 1.926359 1_565
O21 Sb8 1.948939 1_555
O21 Zn0 1.951599 1_555
O22 Sb11 1.926359 1_545
O23 Sb9 1.926359 1_565
O24 Sb8 1.971837 1_555
O24 Zn0 2.007089 1_545
O24 Zn2 2.073092 1_555
O25 Sb1 1.971837 1_655
O25 Zn7 2.007089 1_665
O25 Zn1 2.073092 1_555
O26 Sb2 1.971837 1_555
O26 Zn6 2.007089 1_565
O26 Zn4 2.073092 1_555
O27 Sb3 1.971837 1_455
O27 Zn5 2.007089 1_445
O27 Zn3 2.073092 1_555
O28 Sb8 1.956487 1_555
O28 Sb15 2.015880 1_555
O29 Sb1 1.956487 1_655
O29 Sb11 2.015880 1_555
O30 Sb2 1.956487 1_555
O30 Sb10 2.015880 1_555
O31 Sb3 1.956487 1_455
O31 Sb9 2.015880 1_555
O32 Sb3 1.993164 1_555
O32 Sb7 1.999223 1_555
O33 Sb2 1.993164 1_555
O33 Sb6 1.999223 1_555
O34 Sb1 1.993164 1_555
O34 Sb5 1.999223 1_555
O35 Sb8 1.993164 1_555
O35 Sb4 1.999223 1_555
O36 Sb7 1.910991 1_555
O37 Sb6 1.910991 1_555
O38 Sb5 1.910991 1_555
O39 Sb4 1.910991 1_555
O40 Sb13 2.000256 1_555
O40 Zn4 2.148621 1_555
O40 Sb7 2.205689 1_555
O41 Sb14 2.000256 1_554
O41 Zn3 2.148621 1_555
O41 Sb6 2.205689 1_555
O42 Sb12 2.000256 1_555
O42 Zn2 2.148621 1_555
O42 Sb5 2.205689 1_555
O43 Sb0 2.000256 1_556
O43 Zn1 2.148621 1_555
O43 Sb4 2.205689 1_555
O44 Sb7 1.905827 1_555
O44 Zn4 1.994708 1_555
O45 Sb6 1.905827 1_555
O45 Zn3 1.994708 1_555
O46 Sb5 1.905827 1_555
O46 Zn2 1.994708 1_555
O47 Sb4 1.905827 1_555
O47 Zn1 1.994708 1_555
O48 Sb7 2.008588 1_555
O48 Sb3 2.081261 1_555
O49 Sb6 2.008588 1_555
O49 Sb2 2.081261 1_555
O50 Sb5 2.008588 1_555
O50 Sb1 2.081261 1_555
O51 Sb4 2.008588 1_555
O51 Sb8 2.081261 1_555
O52 Sb3 1.948939 1_455
O52 Zn5 1.951599 1_455
O53 Sb2 1.948939 1_555
O53 Zn6 1.951599 1_555
O54 Sb1 1.948939 1_655
O54 Zn7 1.951599 1_655
O55 Sb10 1.926359 1_545
