# generated using pymatgen
data_BaTi18Mn3O38
_symmetry_space_group_name_H-M   'P 1'
_cell_length_a   9.30164190
_cell_length_b   9.30164190
_cell_length_c   9.30164289
_cell_angle_alpha   68.78735962
_cell_angle_beta   68.78735962
_cell_angle_gamma   68.78735793
_symmetry_Int_Tables_number   1
_chemical_formula_structural   BaTi18Mn3O38
_chemical_formula_sum   'Ba1 Ti18 Mn3 O38'
_cell_volume   674.28107349
_cell_formula_units_Z   1
loop_
 _symmetry_equiv_pos_site_id
 _symmetry_equiv_pos_as_xyz
  1  'x, y, z'
loop_
 _atom_site_type_symbol
 _atom_site_label
 _atom_site_symmetry_multiplicity
 _atom_site_fract_x
 _atom_site_fract_y
 _atom_site_fract_z
 _atom_site_occupancy
  Ba  Ba0  1  0.00000000  0.00000000  0.00000000  1
  Ti  Ti0  1  0.35982500  0.91275700  0.53275400  1
  Ti  Ti1  1  0.53275400  0.35982500  0.91275700  1
  Ti  Ti2  1  0.91275700  0.53275400  0.35982500  1
  Ti  Ti3  1  0.64017500  0.08724300  0.46724600  1
  Ti  Ti4  1  0.46724600  0.64017500  0.08724300  1
  Ti  Ti5  1  0.08724300  0.46724600  0.64017500  1
  Ti  Ti6  1  0.85043300  0.28587100  0.68538700  1
  Ti  Ti7  1  0.68538700  0.85043300  0.28587100  1
  Ti  Ti8  1  0.28587100  0.68538700  0.85043300  1
  Ti  Ti9  1  0.14956700  0.71412900  0.31461300  1
  Ti  Ti10  1  0.31461300  0.14956700  0.71412900  1
  Ti  Ti11  1  0.71412900  0.31461300  0.14956700  1
  Ti  Ti12  1  0.97937600  0.87597400  0.65184300  1
  Ti  Ti13  1  0.65184300  0.97937600  0.87597400  1
  Ti  Ti14  1  0.87597400  0.65184300  0.97937600  1
  Ti  Ti15  1  0.02062400  0.12402600  0.34815700  1
  Ti  Ti16  1  0.34815700  0.02062400  0.12402600  1
  Ti  Ti17  1  0.12402600  0.34815700  0.02062400  1
  Mn  Mn0  1  0.50000000  0.50000000  0.50000000  1
  Mn  Mn1  1  0.68960600  0.68960600  0.68960600  1
  Mn  Mn2  1  0.31039400  0.31039400  0.31039400  1
  O  O0  1  0.78820300  0.78820300  0.78820300  1
  O  O1  1  0.21179700  0.21179700  0.21179700  1
  O  O2  1  0.92522200  0.75597200  0.29448800  1
  O  O3  1  0.29448800  0.92522200  0.75597200  1
  O  O4  1  0.75597200  0.29448800  0.92522200  1
  O  O5  1  0.07477800  0.24402800  0.70551200  1
  O  O6  1  0.70551200  0.07477800  0.24402800  1
  O  O7  1  0.24402800  0.70551200  0.07477800  1
  O  O8  1  0.86792500  0.51009100  0.60716300  1
  O  O9  1  0.60716300  0.86792500  0.51009100  1
  O  O10  1  0.51009100  0.60716300  0.86792500  1
  O  O11  1  0.13207500  0.48990900  0.39283700  1
  O  O12  1  0.39283700  0.13207500  0.48990900  1
  O  O13  1  0.48990900  0.39283700  0.13207500  1
  O  O14  1  0.54389300  0.07437500  0.70217800  1
  O  O15  1  0.01133400  0.48651200  0.85579900  1
  O  O16  1  0.48651200  0.85579900  0.01133400  1
  O  O17  1  0.98866600  0.51348800  0.14420100  1
  O  O18  1  0.14420100  0.98866600  0.51348800  1
  O  O19  1  0.51348800  0.14420100  0.98866600  1
  O  O20  1  0.70217700  0.54389300  0.07437500  1
  O  O21  1  0.07437500  0.70217800  0.54389300  1
  O  O22  1  0.62759400  0.30562200  0.37632200  1
  O  O23  1  0.30562200  0.37632200  0.62759400  1
  O  O24  1  0.37632200  0.62759400  0.30562200  1
  O  O25  1  0.37240600  0.69437800  0.62367800  1
  O  O26  1  0.69437800  0.62367800  0.37240600  1
  O  O27  1  0.62367800  0.37240600  0.69437800  1
  O  O28  1  0.23882300  0.15401400  0.93896900  1
  O  O29  1  0.15401400  0.93896900  0.23882300  1
  O  O30  1  0.93896900  0.23882300  0.15401400  1
  O  O31  1  0.76117700  0.84598600  0.06103100  1
  O  O32  1  0.84598600  0.06103100  0.76117700  1
  O  O33  1  0.06103100  0.76117700  0.84598600  1
  O  O34  1  0.45610700  0.92562500  0.29782200  1
  O  O35  1  0.92562500  0.29782200  0.45610700  1
  O  O36  1  0.29782300  0.45610700  0.92562500  1
  O  O37  1  0.85579900  0.01133400  0.48651200  1
loop_
_geom_bond_atom_site_label_1
_geom_bond_atom_site_label_2
_geom_bond_distance
_geom_bond_site_symmetry_2
Ba0 O28 2.848024 1_554
Ba0 O31 2.848024 1_445
Ba0 O30 2.848025 1_455
Ba0 O33 2.848025 1_544
Ba0 O29 2.848025 1_545
Ba0 O32 2.848025 1_454
Ba0 O4 2.898911 1_454
Ba0 O7 2.898911 1_545
Ba0 O3 2.898911 1_544
Ba0 O6 2.898911 1_455
Ba0 O2 2.898911 1_445
Ba0 O5 2.898911 1_554
Mn0 O26 2.228295 1_555
Mn0 O23 2.228295 1_555
Mn0 O25 2.228295 1_555
Mn0 O22 2.228295 1_555
Mn0 O27 2.228295 1_555
Mn0 O24 2.228295 1_555
Mn1 O8 2.032073 1_555
Mn1 O10 2.032073 1_555
Mn1 O9 2.032073 1_555
Mn1 O0 2.085498 1_555
Mn2 O11 2.032073 1_555
Mn2 O13 2.032073 1_555
Mn2 O12 2.032073 1_555
Mn2 O1 2.085498 1_555
O0 Ti13 2.026431 1_555
O0 Ti12 2.026431 1_555
O0 Ti14 2.026431 1_555
O1 Ti16 2.026431 1_555
O1 Ti15 2.026431 1_555
O1 Ti17 2.026431 1_555
O2 Ti2 1.975818 1_555
O2 Ti9 2.045330 1_655
O2 Ti7 2.101222 1_555
O3 Ti0 1.975818 1_555
O3 Ti10 2.045330 1_565
O3 Ti8 2.101222 1_555
O4 Ti1 1.975818 1_555
O4 Ti11 2.045330 1_556
O4 Ti6 2.101223 1_555
O5 Ti5 1.975818 1_555
O5 Ti6 2.045330 1_455
O5 Ti10 2.101222 1_555
O6 Ti3 1.975818 1_555
O6 Ti7 2.045330 1_545
O6 Ti11 2.101222 1_555
O7 Ti4 1.975818 1_555
O7 Ti8 2.045330 1_554
O7 Ti9 2.101223 1_555
O8 Ti6 1.991835 1_555
O8 Ti5 2.047243 1_655
O8 Ti2 2.128309 1_555
O9 Ti7 1.991835 1_555
O9 Ti3 2.047243 1_565
O9 Ti0 2.128309 1_555
O10 Ti8 1.991835 1_555
O10 Ti4 2.047243 1_556
O10 Ti1 2.128309 1_555
O11 Ti9 1.991835 1_555
O11 Ti2 2.047243 1_455
O11 Ti5 2.128309 1_555
O12 Ti10 1.991835 1_555
O12 Ti0 2.047243 1_545
O12 Ti3 2.128309 1_555
O13 Ti11 1.991835 1_555
O13 Ti1 2.047243 1_554
O13 Ti4 2.128309 1_555
O14 Ti10 1.963449 1_555
O14 Ti13 1.975163 1_545
O14 Ti3 2.015877 1_555
O15 Ti5 1.922770 1_555
O15 Ti17 1.965816 1_556
O15 Ti14 2.025394 1_455
O16 Ti4 1.922770 1_555
O16 Ti16 1.965816 1_565
O16 Ti13 2.025394 1_554
O17 Ti2 1.922770 1_555
O17 Ti14 1.965816 1_554
O17 Ti17 2.025394 1_655
O18 Ti0 1.922770 1_555
O18 Ti12 1.965816 1_455
O18 Ti15 2.025394 1_565
O19 Ti1 1.922770 1_555
O19 Ti13 1.965816 1_545
O19 Ti16 2.025394 1_556
O20 Ti11 1.963447 1_555
O20 Ti14 1.975171 1_554
O20 Ti4 2.015869 1_555
O21 Ti9 1.963450 1_555
O21 Ti12 1.975163 1_455
O21 Ti5 2.015877 1_555
O22 Ti3 1.873895 1_555
O22 Ti11 1.948351 1_555
O23 Ti5 1.873895 1_555
O23 Ti10 1.948351 1_555
O24 Ti4 1.873895 1_555
O24 Ti9 1.948351 1_555
O25 Ti0 1.873895 1_555
O25 Ti8 1.948351 1_555
O26 Ti2 1.873895 1_555
O26 Ti7 1.948351 1_555
O27 Ti1 1.873895 1_555
O27 Ti6 1.948351 1_555
O28 Ti10 1.961411 1_555
O28 Ti17 1.997098 1_556
O28 Ti16 2.084428 1_556
O29 Ti9 1.961411 1_555
O29 Ti16 1.997098 1_565
O29 Ti15 2.084428 1_565
O30 Ti11 1.961411 1_555
O30 Ti15 1.997098 1_655
O30 Ti17 2.084428 1_655
O31 Ti7 1.961411 1_555
O31 Ti14 1.997098 1_554
O31 Ti13 2.084428 1_554
O32 Ti6 1.961411 1_555
O32 Ti13 1.997098 1_545
O32 Ti12 2.084428 1_545
O33 Ti8 1.961411 1_555
O33 Ti12 1.997098 1_455
O33 Ti14 2.084428 1_455
O34 Ti7 1.963449 1_555
O34 Ti16 1.975163 1_565
O34 Ti0 2.015877 1_555
O35 Ti6 1.963450 1_555
O35 Ti15 1.975163 1_655
O35 Ti2 2.015877 1_555
O36 Ti8 1.963447 1_555
O36 Ti17 1.975171 1_556
O36 Ti1 2.015869 1_555
O37 Ti3 1.922770 1_555
O37 Ti15 1.965816 1_655
O37 Ti12 2.025394 1_545
