# generated using pymatgen
data_Fe3P4O15
_symmetry_space_group_name_H-M   'P 1'
_cell_length_a   6.42794600
_cell_length_b   11.00014500
_cell_length_c   17.59203200
_cell_angle_alpha   90.00000000
_cell_angle_beta   90.00000000
_cell_angle_gamma   90.00000000
_symmetry_Int_Tables_number   1
_chemical_formula_structural   Fe3P4O15
_chemical_formula_sum   'Fe12 P16 O60'
_cell_volume   1243.90334568
_cell_formula_units_Z   4
loop_
 _symmetry_equiv_pos_site_id
 _symmetry_equiv_pos_as_xyz
  1  'x, y, z'
loop_
 _atom_site_type_symbol
 _atom_site_label
 _atom_site_symmetry_multiplicity
 _atom_site_fract_x
 _atom_site_fract_y
 _atom_site_fract_z
 _atom_site_occupancy
  Fe  Fe0  1  0.07757300  0.50837100  0.13235100  1
  Fe  Fe1  1  0.09280100  0.98241400  0.14171500  1
  Fe  Fe2  1  0.81614700  0.25912800  0.24795200  1
  Fe  Fe3  1  0.31614700  0.75912800  0.25204800  1
  Fe  Fe4  1  0.59280100  0.48241400  0.35828500  1
  Fe  Fe5  1  0.57757300  0.00837100  0.36764900  1
  Fe  Fe6  1  0.07757300  0.99162900  0.63235100  1
  Fe  Fe7  1  0.09280100  0.51758600  0.64171500  1
  Fe  Fe8  1  0.81614700  0.24087200  0.74795200  1
  Fe  Fe9  1  0.31614700  0.74087200  0.75204800  1
  Fe  Fe10  1  0.59280100  0.01758600  0.85828500  1
  Fe  Fe11  1  0.57757300  0.49162900  0.86764900  1
  P  P0  1  0.17598000  0.76621500  0.06421100  1
  P  P1  1  0.95494100  0.24387900  0.07720400  1
  P  P2  1  0.57567700  0.52372200  0.18696400  1
  P  P3  1  0.58480400  0.00144300  0.20498600  1
  P  P4  1  0.08480400  0.50144300  0.29501400  1
  P  P5  1  0.07567700  0.02372200  0.31303600  1
  P  P6  1  0.45494100  0.74387900  0.42279600  1
  P  P7  1  0.67598000  0.26621500  0.43578900  1
  P  P8  1  0.17598000  0.73378500  0.56421100  1
  P  P9  1  0.95494100  0.25612100  0.57720400  1
  P  P10  1  0.57567700  0.97627800  0.68696400  1
  P  P11  1  0.58480400  0.49855700  0.70498600  1
  P  P12  1  0.08480400  0.99855700  0.79501400  1
  P  P13  1  0.07567700  0.47627800  0.81303600  1
  P  P14  1  0.45494100  0.75612100  0.92279600  1
  P  P15  1  0.67598000  0.23378500  0.93578900  1
  O  O0  1  0.36023000  0.78098900  0.00486600  1
  O  O1  1  0.03272000  0.87625400  0.05254300  1
  O  O2  1  0.08295500  0.64039700  0.05665000  1
  O  O3  1  0.07193100  0.36401300  0.07028500  1
  O  O4  1  0.09844000  0.13614400  0.08985200  1
  O  O5  1  0.38670300  0.49739400  0.13669100  1
  O  O6  1  0.77096200  0.53367400  0.13766600  1
  O  O7  1  0.78168800  0.24953900  0.13746000  1
  O  O8  1  0.27531500  0.78885400  0.14303600  1
  O  O9  1  0.40208400  0.02158200  0.15142300  1
  O  O10  1  0.78372500  0.97810200  0.15988500  1
  O  O11  1  0.03988600  0.39637600  0.23625800  1
  O  O12  1  0.60826400  0.41713300  0.24717700  1
  O  O13  1  0.11158400  0.61253500  0.23841700  1
  O  O14  1  0.54353700  0.63841000  0.23710600  1
  O  O15  1  0.04353700  0.13841000  0.26289400  1
  O  O16  1  0.61158400  0.11253500  0.26158300  1
  O  O17  1  0.10826400  0.91713300  0.25282300  1
  O  O18  1  0.53988600  0.89637600  0.26374200  1
  O  O19  1  0.28372500  0.47810200  0.34011500  1
  O  O20  1  0.90208400  0.52158200  0.34857700  1
  O  O21  1  0.77531500  0.28885400  0.35696400  1
  O  O22  1  0.28168800  0.74953900  0.36254000  1
  O  O23  1  0.27096200  0.03367400  0.36233400  1
  O  O24  1  0.88670300  0.99739400  0.36330900  1
  O  O25  1  0.59844000  0.63614400  0.41014800  1
  O  O26  1  0.57193100  0.86401300  0.42971500  1
  O  O27  1  0.58295500  0.14039700  0.44335000  1
  O  O28  1  0.53272000  0.37625400  0.44745700  1
  O  O29  1  0.86023000  0.28098900  0.49513400  1
  O  O30  1  0.36023000  0.71901100  0.50486600  1
  O  O31  1  0.03272000  0.62374600  0.55254300  1
  O  O32  1  0.08295500  0.85960300  0.55665000  1
  O  O33  1  0.07193100  0.13598700  0.57028500  1
  O  O34  1  0.09844000  0.36385600  0.58985200  1
  O  O35  1  0.38670300  0.00260600  0.63669100  1
  O  O36  1  0.77096200  0.96632600  0.63766600  1
  O  O37  1  0.78168800  0.25046100  0.63746000  1
  O  O38  1  0.27531500  0.71114600  0.64303600  1
  O  O39  1  0.40208400  0.47841800  0.65142300  1
  O  O40  1  0.78372500  0.52189800  0.65988500  1
  O  O41  1  0.03988600  0.10362400  0.73625800  1
  O  O42  1  0.60826400  0.08286700  0.74717700  1
  O  O43  1  0.11158400  0.88746500  0.73841700  1
  O  O44  1  0.54353700  0.86159000  0.73710600  1
  O  O45  1  0.04353700  0.36159000  0.76289400  1
  O  O46  1  0.61158400  0.38746500  0.76158300  1
  O  O47  1  0.10826400  0.58286700  0.75282300  1
  O  O48  1  0.53988600  0.60362400  0.76374200  1
  O  O49  1  0.28372500  0.02189800  0.84011500  1
  O  O50  1  0.90208400  0.97841800  0.84857700  1
  O  O51  1  0.77531500  0.21114600  0.85696400  1
  O  O52  1  0.28168800  0.75046100  0.86254000  1
  O  O53  1  0.27096200  0.46632600  0.86233400  1
  O  O54  1  0.88670300  0.50260600  0.86330900  1
  O  O55  1  0.59844000  0.86385600  0.91014800  1
  O  O56  1  0.57193100  0.63598700  0.92971500  1
  O  O57  1  0.58295500  0.35960300  0.94335000  1
  O  O58  1  0.53272000  0.12374600  0.94745700  1
  O  O59  1  0.86023000  0.21901100  0.99513400  1
loop_
_geom_bond_atom_site_label_1
_geom_bond_atom_site_label_2
_geom_bond_distance
_geom_bond_site_symmetry_2
Fe0 O3 1.927460 1_555
Fe0 O2 1.970762 1_555
Fe0 O5 1.992200 1_555
Fe0 O6 1.992631 1_455
Fe0 O13 2.200532 1_555
Fe0 O11 2.217603 1_555
Fe1 O4 1.921822 1_565
Fe1 O1 1.993419 1_555
Fe1 O10 2.012833 1_455
Fe1 O9 2.041363 1_565
Fe1 O17 2.084723 1_555
Fe2 O7 1.959200 1_555
Fe2 O21 1.963046 1_555
Fe2 O15 1.992204 1_655
Fe2 O16 2.094473 1_555
Fe2 O11 2.095239 1_655
Fe2 O12 2.192417 1_555
Fe3 O22 1.959200 1_555
Fe3 O8 1.963046 1_555
Fe3 O14 1.992204 1_555
Fe3 O13 2.094473 1_555
Fe3 O18 2.095239 1_555
Fe3 O17 2.192417 1_555
Fe4 O25 1.921822 1_555
Fe4 O28 1.993419 1_555
Fe4 O19 2.012833 1_555
Fe4 O20 2.041363 1_555
Fe4 O12 2.084723 1_555
Fe5 O26 1.927460 1_545
Fe5 O27 1.970762 1_555
Fe5 O24 1.992200 1_545
Fe5 O23 1.992631 1_555
Fe5 O16 2.200532 1_555
Fe5 O18 2.217603 1_545
Fe6 O33 1.927460 1_565
Fe6 O32 1.970762 1_555
Fe6 O35 1.992200 1_565
Fe6 O36 1.992631 1_455
Fe6 O43 2.200532 1_555
Fe6 O41 2.217603 1_565
Fe7 O34 1.921822 1_555
Fe7 O31 1.993419 1_555
Fe7 O40 2.012833 1_455
Fe7 O39 2.041363 1_555
Fe7 O47 2.084723 1_555
Fe8 O37 1.959200 1_555
Fe8 O51 1.963046 1_555
Fe8 O45 1.992204 1_655
Fe8 O46 2.094473 1_555
Fe8 O41 2.095239 1_655
Fe8 O42 2.192417 1_555
Fe9 O52 1.959200 1_555
Fe9 O38 1.963046 1_555
Fe9 O44 1.992204 1_555
Fe9 O43 2.094473 1_555
Fe9 O48 2.095239 1_555
Fe9 O47 2.192417 1_555
Fe10 O55 1.921822 1_545
Fe10 O58 1.993419 1_555
Fe10 O49 2.012833 1_555
Fe10 O50 2.041363 1_545
Fe10 O42 2.084723 1_555
Fe11 O56 1.927460 1_555
Fe11 O57 1.970762 1_555
Fe11 O54 1.992200 1_555
Fe11 O53 1.992631 1_555
Fe11 O46 2.200532 1_555
Fe11 O48 2.217603 1_555
O0 P0 1.587145 1_555
O0 P14 1.590585 1_554
O1 P0 1.534701 1_555
O2 P0 1.513522 1_555
O3 P1 1.525342 1_455
O4 P1 1.518157 1_455
O5 P2 1.530221 1_555
O6 P2 1.529654 1_555
O7 P1 1.538756 1_555
O8 P0 1.546816 1_555
O9 P3 1.521991 1_555
O10 P3 1.526561 1_565
O11 P4 1.577192 1_555
O12 P2 1.593948 1_555
O13 P4 1.585660 1_555
O14 P2 1.553183 1_555
O15 P5 1.553183 1_555
O16 P3 1.585660 1_555
O17 P5 1.593948 1_565
O18 P3 1.577192 1_565
O19 P4 1.526561 1_555
O20 P4 1.521991 1_655
O21 P7 1.546816 1_555
O22 P6 1.538756 1_555
O23 P5 1.529654 1_555
O24 P5 1.530221 1_665
O25 P6 1.518157 1_555
O26 P6 1.525342 1_555
O27 P7 1.513522 1_555
O28 P7 1.534701 1_555
O29 P7 1.587145 1_555
O29 P9 1.590585 1_555
O30 P8 1.587145 1_555
O30 P6 1.590585 1_555
O31 P8 1.534701 1_555
O32 P8 1.513522 1_555
O33 P9 1.525342 1_455
O34 P9 1.518157 1_455
O35 P10 1.530221 1_545
O36 P10 1.529654 1_555
O37 P9 1.538756 1_555
O38 P8 1.546816 1_555
O39 P11 1.521991 1_555
O40 P11 1.526561 1_555
O41 P12 1.577192 1_545
O42 P10 1.593948 1_545
O43 P12 1.585660 1_555
O44 P10 1.553183 1_555
O45 P13 1.553183 1_555
O46 P11 1.585660 1_555
O47 P13 1.593948 1_555
O48 P11 1.577192 1_555
O49 P12 1.526561 1_545
O50 P12 1.521991 1_655
O51 P15 1.546816 1_555
O52 P14 1.538756 1_555
O53 P13 1.529654 1_555
O54 P13 1.530221 1_655
O55 P14 1.518157 1_555
O56 P14 1.525342 1_555
O57 P15 1.513522 1_555
O58 P15 1.534701 1_555
O59 P15 1.587145 1_555
O59 P1 1.590585 1_556
