# generated using pymatgen
data_CeCoRh
_symmetry_space_group_name_H-M   'P 1'
_cell_length_a   5.17083412
_cell_length_b   5.17083412
_cell_length_c   5.17083412
_cell_angle_alpha   121.32129569
_cell_angle_beta   117.11947997
_cell_angle_gamma   91.39332974
_symmetry_Int_Tables_number   1
_chemical_formula_structural   CeCoRh
_chemical_formula_sum   'Ce2 Co2 Rh2'
_cell_volume   98.72025067
_cell_formula_units_Z   2
loop_
 _symmetry_equiv_pos_site_id
 _symmetry_equiv_pos_as_xyz
  1  'x, y, z'
loop_
 _atom_site_type_symbol
 _atom_site_label
 _atom_site_symmetry_multiplicity
 _atom_site_fract_x
 _atom_site_fract_y
 _atom_site_fract_z
 _atom_site_occupancy
  Ce  Ce0  1  0.36831400  0.11831400  0.25000000  1
  Ce  Ce1  1  0.63168600  0.88168600  0.75000000  1
  Co  Co0  1  0.00000000  0.50000000  0.00000000  1
  Co  Co1  1  0.00000000  0.00000000  0.50000000  1
  Rh  Rh0  1  0.50000000  0.50000000  0.00000000  1
  Rh  Rh1  1  0.00000000  0.50000000  0.50000000  1
loop_
_geom_bond_atom_site_label_1
_geom_bond_atom_site_label_2
_geom_bond_distance
_geom_bond_site_symmetry_2
Ce0 Co0 2.946621 1_545
Ce0 Co1 2.946621 1_555
Ce0 Rh0 2.994696 1_545
Ce0 Rh1 2.994696 1_544
Ce0 Rh0 2.994696 1_556
Ce0 Rh1 2.994696 1_555
Ce0 Rh1 3.069153 1_655
Ce0 Rh0 3.069153 1_555
Ce0 Co1 3.127973 1_655
Ce0 Co0 3.127973 1_656
Ce0 Co1 3.127973 1_554
Ce0 Co0 3.127973 1_555
Ce1 Co0 2.946621 1_666
Ce1 Co1 2.946621 1_665
Ce1 Rh1 2.994696 1_655
Ce1 Rh1 2.994696 1_666
Ce1 Rh0 2.994696 1_566
Ce1 Rh0 2.994696 1_555
Ce1 Rh1 3.069153 1_555
Ce1 Rh0 3.069153 1_556
Ce1 Co0 3.127973 1_656
Ce1 Co0 3.127973 1_555
Ce1 Co1 3.127973 1_565
Ce1 Co1 3.127973 1_666
Co0 Co1 2.533612 1_565
Co0 Co1 2.533612 1_554
Co0 Rh1 2.585417 1_554
Co0 Rh0 2.585417 1_555
Co0 Rh1 2.585417 1_555
Co0 Rh0 2.585417 1_455
Co1 Rh0 2.585417 1_556
Co1 Rh0 2.585417 1_445
Co1 Rh1 2.585417 1_555
Co1 Rh1 2.585417 1_545
Rh0 Rh1 2.697155 1_655
Rh0 Rh1 2.697155 1_554
