# generated using pymatgen
data_HfBi
_symmetry_space_group_name_H-M   'P 1'
_cell_length_a   3.81514237
_cell_length_b   5.72835976
_cell_length_c   14.30669551
_cell_angle_alpha   90.00046634
_cell_angle_beta   90.00033509
_cell_angle_gamma   109.45191862
_symmetry_Int_Tables_number   1
_chemical_formula_structural   HfBi
_chemical_formula_sum   'Hf6 Bi6'
_cell_volume   294.81922968
_cell_formula_units_Z   6
loop_
 _symmetry_equiv_pos_site_id
 _symmetry_equiv_pos_as_xyz
  1  'x, y, z'
loop_
 _atom_site_type_symbol
 _atom_site_label
 _atom_site_symmetry_multiplicity
 _atom_site_fract_x
 _atom_site_fract_y
 _atom_site_fract_z
 _atom_site_occupancy
  Hf  Hf0  1  0.40046284  0.80067174  0.24999312  1
  Hf  Hf1  1  0.59953979  0.19933228  0.74998862  1
  Hf  Hf2  1  0.07149854  0.14298066  0.11019297  1
  Hf  Hf3  1  0.92849748  0.85703333  0.88982892  1
  Hf  Hf4  1  0.92849903  0.85701783  0.61017198  1
  Hf  Hf5  1  0.07149805  0.14296013  0.38980988  1
  Bi  Bi0  1  0.68433690  0.36831287  0.25000622  1
  Bi  Bi1  1  0.31567898  0.63169813  0.75000546  1
  Bi  Bi2  1  0.35920416  0.71810386  0.05007171  1
  Bi  Bi3  1  0.64077368  0.28189474  0.94992573  1
  Bi  Bi4  1  0.64079319  0.28189602  0.55008016  1
  Bi  Bi5  1  0.35921836  0.71809741  0.44992624  1
loop_
_geom_bond_atom_site_label_1
_geom_bond_atom_site_label_2
_geom_bond_distance
_geom_bond_site_symmetry_2
Hf0 Hf2 3.325064 1_665
Hf0 Hf5 3.325130 1_665
Hf0 Hf2 3.325595 1_565
Hf0 Hf5 3.325645 1_565
Hf1 Hf4 3.325190 1_445
Hf1 Hf3 3.325405 1_445
Hf1 Hf4 3.325738 1_545
Hf1 Hf3 3.325885 1_545
Bi0 Hf0 3.015254 1_655
Bi0 Hf0 3.015547 1_555
Bi0 Hf5 3.019712 1_655
Bi0 Hf2 3.019732 1_655
Bi0 Hf5 3.020492 1_555
Bi0 Hf2 3.020530 1_555
Bi0 Hf0 3.066052 1_545
Bi1 Hf1 3.015307 1_455
Bi1 Hf1 3.015552 1_555
Bi1 Hf3 3.019887 1_455
Bi1 Hf4 3.019928 1_455
Bi1 Hf3 3.020581 1_555
Bi1 Hf4 3.020697 1_555
Bi1 Hf1 3.066015 1_565
Bi2 Hf0 2.894771 1_555
Bi2 Hf3 3.074942 1_554
Bi2 Hf3 3.075748 1_454
Bi2 Hf2 3.105333 1_665
Bi2 Hf2 3.106046 1_565
Bi2 Hf2 3.223356 1_555
Bi2 Bi3 3.352361 1_554
Bi2 Bi3 3.353735 1_454
Bi2 Bi3 3.365483 1_564
Bi3 Hf1 2.894989 1_555
Bi3 Hf2 3.075158 1_556
Bi3 Hf2 3.076013 1_656
Bi3 Hf3 3.105150 1_445
Bi3 Hf3 3.105913 1_545
Bi3 Hf3 3.223343 1_555
Bi4 Hf1 2.894594 1_555
Bi4 Hf5 3.075212 1_555
Bi4 Hf5 3.076057 1_655
Bi4 Hf4 3.105239 1_445
Bi4 Hf4 3.105945 1_545
Bi4 Hf4 3.223219 1_555
Bi4 Bi5 3.352395 1_555
Bi4 Bi5 3.353782 1_655
Bi4 Bi5 3.365541 1_545
Bi5 Hf0 2.894952 1_555
Bi5 Hf4 3.074914 1_555
Bi5 Hf4 3.075791 1_455
Bi5 Hf5 3.105259 1_665
Bi5 Hf5 3.105996 1_565
Bi5 Hf5 3.223393 1_555
