# generated using pymatgen
data_LiBH7N
_symmetry_space_group_name_H-M   'P 1'
_cell_length_a   4.51136200
_cell_length_b   5.99843000
_cell_length_c   14.70555200
_cell_angle_alpha   90.00000000
_cell_angle_beta   90.00000000
_cell_angle_gamma   90.00000000
_symmetry_Int_Tables_number   1
_chemical_formula_structural   LiBH7N
_chemical_formula_sum   'Li4 B4 H28 N4'
_cell_volume   397.94825384
_cell_formula_units_Z   4
loop_
 _symmetry_equiv_pos_site_id
 _symmetry_equiv_pos_as_xyz
  1  'x, y, z'
loop_
 _atom_site_type_symbol
 _atom_site_label
 _atom_site_symmetry_multiplicity
 _atom_site_fract_x
 _atom_site_fract_y
 _atom_site_fract_z
 _atom_site_occupancy
  Li  Li0  1  0.75000000  0.87982800  0.42717900  1
  Li  Li1  1  0.75000000  0.37982800  0.07282100  1
  Li  Li2  1  0.25000000  0.12017200  0.57282100  1
  Li  Li3  1  0.25000000  0.62017200  0.92717900  1
  B  B0  1  0.75000000  0.91934100  0.59744700  1
  B  B1  1  0.75000000  0.41934100  0.90255300  1
  B  B2  1  0.25000000  0.08065900  0.40255300  1
  B  B3  1  0.25000000  0.58065900  0.09744700  1
  H  H0  1  0.75000000  0.60567100  0.28809200  1
  H  H1  1  0.75000000  0.10567100  0.21190800  1
  H  H2  1  0.25000000  0.39432900  0.71190800  1
  H  H3  1  0.25000000  0.89432900  0.78809200  1
  H  H4  1  0.57070600  0.48040100  0.36989100  1
  H  H5  1  0.92929400  0.98040100  0.13010900  1
  H  H6  1  0.07070600  0.51959900  0.63010900  1
  H  H7  1  0.42929400  0.01959900  0.86989100  1
  H  H8  1  0.42929400  0.51959900  0.63010900  1
  H  H9  1  0.07070600  0.01959900  0.86989100  1
  H  H10  1  0.92929400  0.48040100  0.36989100  1
  H  H11  1  0.57070600  0.98040100  0.13010900  1
  H  H12  1  0.75000000  0.74333100  0.55442200  1
  H  H13  1  0.75000000  0.24333100  0.94557800  1
  H  H14  1  0.25000000  0.25666900  0.44557800  1
  H  H15  1  0.25000000  0.75666900  0.05442200  1
  H  H16  1  0.75000000  0.08012100  0.54507600  1
  H  H17  1  0.75000000  0.58012100  0.95492400  1
  H  H18  1  0.25000000  0.91987900  0.45492400  1
  H  H19  1  0.25000000  0.41987900  0.04507600  1
  H  H20  1  0.53054500  0.92685400  0.64644600  1
  H  H21  1  0.96945500  0.42685400  0.85355400  1
  H  H22  1  0.03054500  0.07314600  0.35355400  1
  H  H23  1  0.46945500  0.57314600  0.14644600  1
  H  H24  1  0.46945500  0.07314600  0.35355400  1
  H  H25  1  0.03054500  0.57314600  0.14644600  1
  H  H26  1  0.96945500  0.92685400  0.64644600  1
  H  H27  1  0.53054500  0.42685400  0.85355400  1
  N  N0  1  0.75000000  0.58006500  0.35705100  1
  N  N1  1  0.75000000  0.08006500  0.14294900  1
  N  N2  1  0.25000000  0.41993500  0.64294900  1
  N  N3  1  0.25000000  0.91993500  0.85705100  1
loop_
_geom_bond_atom_site_label_1
_geom_bond_atom_site_label_2
_geom_bond_distance
_geom_bond_site_symmetry_2
Li0 N0 2.072851 1_555
Li1 N1 2.072851 1_555
Li2 N2 2.072851 1_555
Li3 N3 2.072851 1_555
B0 H26 1.225322 1_555
B0 H20 1.225322 1_555
B0 H12 1.230852 1_555
B0 H16 1.234197 1_565
B1 H21 1.225322 1_555
B1 H27 1.225322 1_555
B1 H13 1.230852 1_555
B1 H17 1.234197 1_555
B2 H24 1.225322 1_555
B2 H22 1.225322 1_555
B2 H14 1.230852 1_555
B2 H18 1.234197 1_545
B3 H23 1.225322 1_555
B3 H25 1.225322 1_555
B3 H15 1.230852 1_555
B3 H19 1.234197 1_555
H0 N0 1.025646 1_555
H1 N1 1.025646 1_555
H2 N2 1.025646 1_555
H3 N3 1.025646 1_555
H4 N0 1.023379 1_555
H5 N1 1.023379 1_565
H6 N2 1.023379 1_555
H7 N3 1.023379 1_545
H8 N2 1.023379 1_555
H9 N3 1.023379 1_545
H10 N0 1.023379 1_555
H11 N1 1.023379 1_565
H12 Li0 2.042471 1_555
H13 Li1 2.042471 1_556
H14 Li2 2.042471 1_555
H15 Li3 2.042471 1_554
H16 Li0 2.109342 1_545
H17 Li1 2.109342 1_556
H18 Li2 2.109342 1_565
H19 Li3 2.109342 1_554
H20 Li2 2.029472 1_565
H21 Li3 2.029472 1_655
H22 Li0 2.029472 1_445
H23 Li1 2.029472 1_555
H24 Li0 2.029472 1_545
H25 Li1 2.029472 1_455
H26 Li2 2.029472 1_665
H27 Li3 2.029472 1_555
