# generated using pymatgen
data_TbIn5Co
_symmetry_space_group_name_H-M   'P 1'
_cell_length_a   4.54718895
_cell_length_b   4.54718895
_cell_length_c   7.46316644
_cell_angle_alpha   90.00000000
_cell_angle_beta   90.00000000
_cell_angle_gamma   90.00000000
_symmetry_Int_Tables_number   1
_chemical_formula_structural   TbIn5Co
_chemical_formula_sum   'Tb1 In5 Co1'
_cell_volume   154.31535026
_cell_formula_units_Z   1
loop_
 _symmetry_equiv_pos_site_id
 _symmetry_equiv_pos_as_xyz
  1  'x, y, z'
loop_
 _atom_site_type_symbol
 _atom_site_label
 _atom_site_symmetry_multiplicity
 _atom_site_fract_x
 _atom_site_fract_y
 _atom_site_fract_z
 _atom_site_occupancy
  Tb  Tb0  1  -0.00000000  -0.00000000  0.00000000  1
  In  In0  1  -0.00000000  0.50000000  0.30786038  1
  In  In1  1  0.00000000  0.50000000  0.69213962  1
  In  In2  1  0.50000000  -0.00000000  0.30786038  1
  In  In3  1  0.50000000  0.00000000  0.69213962  1
  In  In4  1  0.50000000  0.50000000  0.00000000  1
  Co  Co0  1  -0.00000000  -0.00000000  0.50000000  1
loop_
_geom_bond_atom_site_label_1
_geom_bond_atom_site_label_2
_geom_bond_distance
_geom_bond_site_symmetry_2
In0 In1 2.867940 1_555
In0 In2 3.215348 1_465
In0 In2 3.215348 1_455
In0 In2 3.215348 1_555
In0 In2 3.215348 1_565
In0 Tb0 3.232377 1_555
In0 Tb0 3.232377 1_565
In0 In4 3.232377 1_455
In0 In4 3.232377 1_555
In1 In3 3.215348 1_455
In1 In3 3.215348 1_555
In1 In3 3.215348 1_465
In1 In3 3.215348 1_565
In1 Tb0 3.232377 1_566
In1 In4 3.232377 1_556
In1 In4 3.232377 1_456
In1 Tb0 3.232377 1_556
In2 In3 2.867940 1_555
In2 Tb0 3.232377 1_555
In2 Tb0 3.232377 1_655
In2 In4 3.232377 1_545
In2 In4 3.232377 1_555
In3 In4 3.232377 1_556
In3 Tb0 3.232377 1_556
In3 In4 3.232377 1_546
In3 Tb0 3.232377 1_656
In4 Tb0 3.215348 1_565
In4 Tb0 3.215348 1_665
In4 Tb0 3.215348 1_655
In4 Tb0 3.215348 1_555
Co0 In0 2.688029 1_555
Co0 In3 2.688029 1_555
Co0 In1 2.688029 1_545
Co0 In0 2.688029 1_545
Co0 In1 2.688029 1_555
Co0 In2 2.688029 1_555
Co0 In2 2.688029 1_455
Co0 In3 2.688029 1_455
