# generated using pymatgen
data_Zn3Fe9(PO4)8
_symmetry_space_group_name_H-M   'P 1'
_cell_length_a   6.12797800
_cell_length_b   9.65992167
_cell_length_c   10.57072932
_cell_angle_alpha   89.74679931
_cell_angle_beta   89.81586364
_cell_angle_gamma   89.81260061
_symmetry_Int_Tables_number   1
_chemical_formula_structural   Zn3Fe9(PO4)8
_chemical_formula_sum   'Zn3 Fe9 P8 O32'
_cell_volume   625.72998662
_cell_formula_units_Z   1
loop_
 _symmetry_equiv_pos_site_id
 _symmetry_equiv_pos_as_xyz
  1  'x, y, z'
loop_
 _atom_site_type_symbol
 _atom_site_label
 _atom_site_symmetry_multiplicity
 _atom_site_fract_x
 _atom_site_fract_y
 _atom_site_fract_z
 _atom_site_occupancy
  Zn  Zn0  1  0.00025600  0.74999000  0.49997900  1
  Zn  Zn1  1  0.99974400  0.25001000  0.50002100  1
  Zn  Zn2  1  0.00000000  0.00000000  0.00000000  1
  Fe  Fe0  1  0.00000000  0.50000000  0.00000000  1
  Fe  Fe1  1  0.73646000  0.74200700  0.21734700  1
  Fe  Fe2  1  0.73534300  0.24071700  0.21743800  1
  Fe  Fe3  1  0.26387900  0.99017700  0.28291300  1
  Fe  Fe4  1  0.26443100  0.49109900  0.28269600  1
  Fe  Fe5  1  0.26465700  0.75928300  0.78256200  1
  Fe  Fe6  1  0.26354000  0.25799300  0.78265300  1
  Fe  Fe7  1  0.73556900  0.50890100  0.71730400  1
  Fe  Fe8  1  0.73612100  0.00982300  0.71708700  1
  P  P0  1  0.76222800  0.96505100  0.40082500  1
  P  P1  1  0.76241800  0.46494200  0.40029900  1
  P  P2  1  0.23834800  0.71567400  0.09994900  1
  P  P3  1  0.23807500  0.21409300  0.09966800  1
  P  P4  1  0.23758200  0.53505800  0.59970100  1
  P  P5  1  0.23777200  0.03494900  0.59917500  1
  P  P6  1  0.76192500  0.78590700  0.90033200  1
  P  P7  1  0.76165200  0.28432600  0.90005100  1
  O  O0  1  0.75412900  0.84231600  0.03771300  1
  O  O1  1  0.75362100  0.34036000  0.03724600  1
  O  O2  1  0.24511200  0.59270200  0.46229500  1
  O  O3  1  0.24534000  0.09266500  0.46190700  1
  O  O4  1  0.24637900  0.65964000  0.96275400  1
  O  O5  1  0.24587100  0.15768400  0.96228700  1
  O  O6  1  0.75466000  0.90733500  0.53809300  1
  O  O7  1  0.75488800  0.40729800  0.53770500  1
  O  O8  1  0.77698300  0.62455400  0.39507800  1
  O  O9  1  0.77745500  0.12454100  0.39538000  1
  O  O10  1  0.22234000  0.87559500  0.10469100  1
  O  O11  1  0.22164200  0.37347900  0.10415000  1
  O  O12  1  0.22254500  0.87545900  0.60462000  1
  O  O13  1  0.22301700  0.37544600  0.60492200  1
  O  O14  1  0.77835800  0.62652100  0.89585000  1
  O  O15  1  0.77766000  0.12440500  0.89530900  1
  O  O16  1  0.57235300  0.90989800  0.31882600  1
  O  O17  1  0.57286200  0.40976400  0.31808200  1
  O  O18  1  0.42824400  0.65962800  0.18203500  1
  O  O19  1  0.42802100  0.15902800  0.18209300  1
  O  O20  1  0.42713800  0.59023600  0.68191800  1
  O  O21  1  0.42764700  0.09010200  0.68117400  1
  O  O22  1  0.57197900  0.84097200  0.81790700  1
  O  O23  1  0.57175600  0.34037200  0.81796500  1
  O  O24  1  0.97143000  0.89030700  0.34092100  1
  O  O25  1  0.97211600  0.39053200  0.34047300  1
  O  O26  1  0.02958800  0.64212000  0.16021700  1
  O  O27  1  0.02888400  0.14001100  0.15975800  1
  O  O28  1  0.02788400  0.60946800  0.65952700  1
  O  O29  1  0.02857000  0.10969300  0.65907900  1
  O  O30  1  0.97111600  0.85998900  0.84024200  1
  O  O31  1  0.97041200  0.35788000  0.83978300  1
loop_
_geom_bond_atom_site_label_1
_geom_bond_atom_site_label_2
_geom_bond_distance
_geom_bond_site_symmetry_2
Fe0 O14 2.130121 1_454
Fe0 O11 2.130121 1_555
Fe0 O26 2.193196 1_555
Fe0 O31 2.193196 1_454
Fe0 O4 2.195147 1_554
Fe0 O1 2.195147 1_455
Fe1 O18 2.087324 1_555
Fe1 O26 2.123489 1_655
Fe1 O0 2.130592 1_555
Fe1 O16 2.188624 1_555
Fe1 O8 2.204757 1_555
Fe1 O24 2.423631 1_555
Fe2 O19 2.079859 1_555
Fe2 O27 2.130867 1_655
Fe2 O1 2.133138 1_555
Fe2 O17 2.188094 1_555
Fe2 O9 2.201519 1_555
Fe2 O25 2.435898 1_555
Fe3 O16 2.076352 1_555
Fe3 O24 2.125425 1_455
Fe3 O3 2.141852 1_565
Fe3 O19 2.190087 1_565
Fe3 O10 2.205106 1_555
Fe3 O27 2.417684 1_565
Fe4 O17 2.078889 1_555
Fe4 O25 2.127117 1_455
Fe4 O2 2.143793 1_555
Fe4 O18 2.186035 1_555
Fe4 O11 2.223943 1_555
Fe4 O26 2.420138 1_555
Fe5 O22 2.079859 1_555
Fe5 O30 2.130867 1_455
Fe5 O4 2.133138 1_555
Fe5 O20 2.188094 1_555
Fe5 O12 2.201519 1_555
Fe5 O28 2.435898 1_555
Fe6 O23 2.087324 1_555
Fe6 O31 2.123489 1_455
Fe6 O5 2.130592 1_555
Fe6 O21 2.188624 1_555
Fe6 O13 2.204757 1_555
Fe6 O29 2.423631 1_555
Fe7 O20 2.078889 1_555
Fe7 O28 2.127117 1_655
Fe7 O7 2.143793 1_555
Fe7 O23 2.186035 1_555
Fe7 O14 2.223943 1_555
Fe7 O31 2.420138 1_555
Fe8 O21 2.076352 1_555
Fe8 O29 2.125425 1_655
Fe8 O6 2.141852 1_545
Fe8 O22 2.190087 1_545
Fe8 O15 2.205106 1_555
Fe8 O30 2.417684 1_545
O0 P6 1.553872 1_554
O0 Zn2 2.180600 1_665
O1 P7 1.550788 1_554
O2 P4 1.553862 1_555
O2 Zn0 2.169156 1_555
O3 P5 1.552755 1_555
O3 Zn1 2.173508 1_455
O4 P2 1.550788 1_556
O5 P3 1.553872 1_556
O5 Zn2 2.180600 1_556
O6 P0 1.552755 1_555
O6 Zn0 2.173508 1_655
O7 P1 1.553862 1_555
O7 Zn1 2.169156 1_555
O8 P1 1.545444 1_555
O8 Zn0 2.145300 1_655
O9 P0 1.544596 1_545
O9 Zn1 2.140186 1_555
O10 P2 1.548638 1_555
O10 Zn2 2.124265 1_565
O11 P3 1.543544 1_555
O12 P5 1.544596 1_565
O12 Zn0 2.140186 1_555
O13 P4 1.545444 1_555
O13 Zn1 2.145300 1_455
O14 P6 1.543544 1_555
O15 P7 1.548638 1_555
O15 Zn2 2.124265 1_656
O16 P0 1.550367 1_555
O17 P1 1.550279 1_555
O18 P2 1.548676 1_555
O19 P3 1.547684 1_555
O20 P4 1.550279 1_555
O21 P5 1.550367 1_555
O22 P6 1.547684 1_555
O23 P7 1.548676 1_555
O24 P0 1.599546 1_555
O24 Zn0 2.162318 1_655
O25 P1 1.600201 1_555
O25 Zn1 2.166978 1_555
O26 P2 1.594983 1_555
O27 P3 1.598642 1_555
O27 Zn2 2.176270 1_555
O28 P4 1.600201 1_555
O28 Zn0 2.166978 1_555
O29 P5 1.599546 1_555
O29 Zn1 2.162318 1_455
O30 P6 1.598642 1_555
O30 Zn2 2.176270 1_666
O31 P7 1.594983 1_555
