# generated using pymatgen
data_HoAu6
_symmetry_space_group_name_H-M   'P 1'
_cell_length_a   10.50533900
_cell_length_b   10.50533900
_cell_length_c   9.93202400
_cell_angle_alpha   90.00000000
_cell_angle_beta   90.00000000
_cell_angle_gamma   90.00000000
_symmetry_Int_Tables_number   1
_chemical_formula_structural   HoAu6
_chemical_formula_sum   'Ho8 Au48'
_cell_volume   1096.11949771
_cell_formula_units_Z   8
loop_
 _symmetry_equiv_pos_site_id
 _symmetry_equiv_pos_as_xyz
  1  'x, y, z'
loop_
 _atom_site_type_symbol
 _atom_site_label
 _atom_site_symmetry_multiplicity
 _atom_site_fract_x
 _atom_site_fract_y
 _atom_site_fract_z
 _atom_site_occupancy
  Ho  Ho0  1  0.32527000  0.82527000  0.03818300  1
  Ho  Ho1  1  0.67473000  0.82527000  0.53818300  1
  Ho  Ho2  1  0.32527000  0.17473000  0.53818300  1
  Ho  Ho3  1  0.67473000  0.17473000  0.03818300  1
  Ho  Ho4  1  0.17473000  0.67473000  0.46181700  1
  Ho  Ho5  1  0.82527000  0.67473000  0.96181700  1
  Ho  Ho6  1  0.17473000  0.32527000  0.96181700  1
  Ho  Ho7  1  0.82527000  0.32527000  0.46181700  1
  Au  Au0  1  0.92940500  0.76311700  0.67089900  1
  Au  Au1  1  0.07059500  0.76311700  0.17089900  1
  Au  Au2  1  0.92940500  0.23688300  0.17089900  1
  Au  Au3  1  0.07059500  0.23688300  0.67089900  1
  Au  Au4  1  0.26311700  0.42940600  0.67089900  1
  Au  Au5  1  0.26311700  0.57059500  0.17089900  1
  Au  Au6  1  0.73688300  0.42940600  0.17089900  1
  Au  Au7  1  0.73688300  0.57059500  0.67089900  1
  Au  Au8  1  0.57059500  0.73688300  0.82910100  1
  Au  Au9  1  0.42940600  0.73688300  0.32910100  1
  Au  Au10  1  0.57059500  0.26311700  0.32910100  1
  Au  Au11  1  0.42940600  0.26311700  0.82910100  1
  Au  Au12  1  0.23688300  0.07059500  0.82910100  1
  Au  Au13  1  0.23688300  0.92940500  0.32910100  1
  Au  Au14  1  0.76311700  0.07059500  0.32910100  1
  Au  Au15  1  0.76311700  0.92940500  0.82910100  1
  Au  Au16  1  0.87217000  0.05029600  0.60452500  1
  Au  Au17  1  0.12783000  0.05029600  0.10452500  1
  Au  Au18  1  0.87217000  0.94970400  0.10452500  1
  Au  Au19  1  0.12783000  0.94970400  0.60452500  1
  Au  Au20  1  0.55029600  0.37217000  0.60452500  1
  Au  Au21  1  0.55029600  0.62783000  0.10452500  1
  Au  Au22  1  0.44970400  0.37217000  0.10452500  1
  Au  Au23  1  0.44970400  0.62783000  0.60452500  1
  Au  Au24  1  0.62783000  0.44970400  0.89547500  1
  Au  Au25  1  0.37217000  0.44970400  0.39547500  1
  Au  Au26  1  0.62783000  0.55029600  0.39547500  1
  Au  Au27  1  0.37217000  0.55029600  0.89547500  1
  Au  Au28  1  0.94970400  0.12783000  0.89547500  1
  Au  Au29  1  0.94970400  0.87217000  0.39547500  1
  Au  Au30  1  0.05029600  0.12783000  0.39547500  1
  Au  Au31  1  0.05029600  0.87217000  0.89547500  1
  Au  Au32  1  0.39797000  0.89797000  0.57048300  1
  Au  Au33  1  0.60203000  0.89797000  0.07048300  1
  Au  Au34  1  0.39797000  0.10203000  0.07048300  1
  Au  Au35  1  0.60203000  0.10203000  0.57048300  1
  Au  Au36  1  0.10203000  0.60203000  0.92951700  1
  Au  Au37  1  0.89797000  0.60203000  0.42951700  1
  Au  Au38  1  0.10203000  0.39797000  0.42951700  1
  Au  Au39  1  0.89797000  0.39797000  0.92951700  1
  Au  Au40  1  0.50000000  0.00000000  0.31798900  1
  Au  Au41  1  0.50000000  0.00000000  0.81798900  1
  Au  Au42  1  0.00000000  0.50000000  0.18201100  1
  Au  Au43  1  0.00000000  0.50000000  0.68201100  1
  Au  Au44  1  0.25000000  0.75000000  0.75000000  1
  Au  Au45  1  0.75000000  0.75000000  0.25000000  1
  Au  Au46  1  0.25000000  0.25000000  0.25000000  1
  Au  Au47  1  0.75000000  0.25000000  0.75000000  1
loop_
_geom_bond_atom_site_label_1
_geom_bond_atom_site_label_2
_geom_bond_distance
_geom_bond_site_symmetry_2
Au0 Au31 2.810782 1_655
Au0 Au43 2.864022 1_655
Au0 Au19 2.936331 1_655
Au0 Au29 2.973385 1_555
Au0 Ho1 3.053168 1_555
Au0 Au16 3.146089 1_565
Au0 Ho5 3.226083 1_555
Au0 Ho4 3.437521 1_655
Au1 Au29 2.810782 1_455
Au1 Au42 2.864022 1_555
Au1 Au18 2.936331 1_455
Au1 Au31 2.973385 1_554
Au1 Ho0 3.053168 1_555
Au1 Au17 3.146089 1_565
Au1 Ho4 3.226083 1_555
Au1 Ho5 3.437521 1_454
Au2 Au30 2.810782 1_655
Au2 Au42 2.864022 1_655
Au2 Au28 2.973385 1_554
Au2 Ho3 3.053168 1_555
Au2 Ho7 3.226083 1_555
Au2 Ho6 3.437521 1_654
Au3 Au43 2.864022 1_555
Au3 Au30 2.973385 1_555
Au3 Ho2 3.053168 1_555
Au3 Ho6 3.226083 1_555
Au3 Ho7 3.437521 1_455
Au4 Au43 2.864019 1_555
Au4 Ho2 3.053177 1_555
Au4 Ho6 3.226087 1_555
Au4 Ho4 3.437513 1_555
Au5 Ho0 3.053168 1_555
Au5 Ho4 3.226083 1_555
Au5 Ho6 3.437521 1_554
Au6 Ho3 3.053177 1_555
Au6 Ho7 3.226087 1_555
Au6 Ho5 3.437513 1_554
Au7 Ho1 3.053168 1_555
Au7 Ho5 3.226083 1_555
Au7 Ho7 3.437521 1_555
Au8 Ho5 3.053168 1_555
Au8 Ho1 3.226083 1_555
Au8 Ho0 3.437521 1_556
Au9 Ho4 3.053177 1_555
Au9 Ho0 3.226087 1_555
Au9 Ho1 3.437513 1_555
Au10 Au22 2.810782 1_555
Au10 Au40 2.864022 1_555
Au10 Au25 2.936331 1_555
Au10 Au20 2.973385 1_555
Au10 Ho7 3.053168 1_555
Au10 Au26 3.146089 1_555
Au10 Ho3 3.226083 1_555
Au10 Ho2 3.437521 1_555
Au11 Au20 2.810777 1_555
Au11 Au41 2.864019 1_555
Au11 Au24 2.936323 1_555
Au11 Au22 2.973385 1_556
Au11 Ho6 3.053177 1_555
Au11 Au27 3.146091 1_555
Au11 Ho2 3.226087 1_555
Au11 Ho3 3.437513 1_556
Au12 Au19 2.810782 1_545
Au12 Au41 2.864022 1_555
Au12 Au31 2.936331 1_545
Au12 Au17 2.973385 1_556
Au12 Ho6 3.053168 1_555
Au12 Au28 3.146089 1_455
Au12 Ho2 3.226083 1_555
Au12 Ho0 3.437521 1_546
Au13 Au17 2.810782 1_565
Au13 Au40 2.864022 1_565
Au13 Au30 2.936331 1_565
Au13 Au19 2.973385 1_555
Au13 Ho4 3.053168 1_555
Au13 Au29 3.146089 1_455
Au13 Ho0 3.226083 1_555
Au13 Ho2 3.437521 1_565
Au14 Au18 2.810782 1_545
Au14 Au40 2.864022 1_555
Au14 Au29 2.936331 1_545
Au14 Au16 2.973385 1_555
Au14 Ho7 3.053168 1_555
Au14 Au30 3.146089 1_655
Au14 Ho3 3.226083 1_555
Au14 Ho1 3.437521 1_545
Au15 Au16 2.810782 1_565
Au15 Au41 2.864022 1_565
Au15 Au28 2.936331 1_565
Au15 Au18 2.973385 1_556
Au15 Ho5 3.053168 1_555
Au15 Au31 3.146089 1_655
Au15 Ho1 3.226083 1_555
Au15 Ho3 3.437521 1_566
Au16 Au47 2.852414 1_555
Au16 Au19 2.886212 1_645
Au16 Au35 2.909198 1_555
Au16 Au30 2.911372 1_655
Au16 Au29 2.911372 1_545
Au16 Au3 2.936331 1_655
Au16 Au28 3.110849 1_555
Au16 Ho1 3.213213 1_545
Au16 Ho7 3.255192 1_555
Au17 Au46 2.852414 1_555
Au17 Au18 2.886212 1_445
Au17 Au34 2.909198 1_555
Au17 Au28 2.911372 1_454
Au17 Au31 2.911372 1_544
Au17 Au2 2.936331 1_455
Au17 Au30 3.110849 1_555
Au17 Ho0 3.213213 1_545
Au17 Ho6 3.255192 1_554
Au18 Au45 2.852414 1_555
Au18 Au33 2.909198 1_555
Au18 Au31 2.911372 1_654
Au18 Au28 2.911372 1_564
Au18 Au29 3.110849 1_555
Au18 Au2 3.146089 1_565
Au18 Ho3 3.213213 1_565
Au18 Ho5 3.255192 1_554
Au19 Au44 2.852414 1_555
Au19 Au32 2.909198 1_555
Au19 Au30 2.911372 1_565
Au19 Au29 2.911372 1_455
Au19 Au31 3.110849 1_555
Au19 Au3 3.146089 1_565
Au19 Ho2 3.213213 1_565
Au19 Ho4 3.255192 1_555
Au20 Au47 2.852414 1_555
Au20 Au23 2.886212 1_555
Au20 Au35 2.909198 1_555
Au20 Au26 2.911372 1_555
Au20 Au25 2.911372 1_555
Au20 Au7 2.936331 1_555
Au20 Au24 3.110849 1_555
Au20 Au4 3.146091 1_555
Au20 Ho2 3.213213 1_555
Au20 Ho7 3.255192 1_555
Au21 Au9 2.810777 1_555
Au21 Au45 2.852414 1_555
Au21 Au22 2.886212 1_555
Au21 Au33 2.909198 1_555
Au21 Au27 2.911372 1_554
Au21 Au24 2.911372 1_554
Au21 Au6 2.936323 1_555
Au21 Au8 2.973385 1_554
Au21 Au26 3.110849 1_555
Au21 Au5 3.146089 1_555
Au21 Ho0 3.213213 1_555
Au21 Ho5 3.255192 1_554
Au22 Au46 2.852414 1_555
Au22 Au34 2.909198 1_555
Au22 Au27 2.911372 1_554
Au22 Au24 2.911372 1_554
Au22 Au5 2.936331 1_555
Au22 Au25 3.110849 1_555
Au22 Au6 3.146091 1_555
Au22 Ho3 3.213213 1_555
Au22 Ho6 3.255192 1_554
Au23 Au8 2.810782 1_555
Au23 Au44 2.852414 1_555
Au23 Au32 2.909198 1_555
Au23 Au26 2.911372 1_555
Au23 Au25 2.911372 1_555
Au23 Au4 2.936323 1_555
Au23 Au9 2.973385 1_555
Au23 Au27 3.110849 1_555
Au23 Au7 3.146089 1_555
Au23 Ho1 3.213213 1_555
Au23 Ho4 3.255192 1_555
Au24 Au7 2.810782 1_555
Au24 Au47 2.852414 1_555
Au24 Au27 2.886212 1_555
Au24 Au39 2.909198 1_555
Au24 Au6 2.973385 1_556
Au24 Au8 3.146089 1_555
Au24 Ho5 3.213213 1_555
Au24 Ho3 3.255192 1_556
Au25 Au5 2.810782 1_555
Au25 Au46 2.852414 1_555
Au25 Au26 2.886212 1_555
Au25 Au38 2.909198 1_555
Au25 Au4 2.973385 1_555
Au25 Au9 3.146091 1_555
Au25 Ho4 3.213213 1_555
Au25 Ho2 3.255192 1_555
Au26 Au6 2.810777 1_555
Au26 Au45 2.852414 1_555
Au26 Au37 2.909198 1_555
Au26 Au9 2.936323 1_555
Au26 Au7 2.973385 1_555
Au26 Ho7 3.213213 1_555
Au26 Ho1 3.255192 1_555
Au27 Au4 2.810777 1_555
Au27 Au44 2.852414 1_555
Au27 Au36 2.909198 1_555
Au27 Au8 2.936331 1_555
Au27 Au5 2.973385 1_556
Au27 Ho6 3.213213 1_555
Au27 Ho0 3.255192 1_556
Au28 Au3 2.810782 1_655
Au28 Au47 2.852414 1_555
Au28 Au31 2.886212 1_645
Au28 Au39 2.909198 1_555
Au28 Ho6 3.213213 1_655
Au28 Ho3 3.255192 1_556
Au29 Au45 2.852414 1_555
Au29 Au30 2.886212 1_665
Au29 Au37 2.909198 1_555
Au29 Ho4 3.213213 1_655
Au29 Ho1 3.255192 1_555
Au30 Au46 2.852414 1_555
Au30 Au38 2.909198 1_555
Au30 Ho7 3.213213 1_455
Au30 Ho2 3.255192 1_555
Au31 Au44 2.852414 1_555
Au31 Au36 2.909198 1_555
Au31 Ho5 3.213213 1_455
Au31 Ho0 3.255192 1_556
Au32 Au41 2.888025 1_565
Au32 Au40 2.930309 1_565
Au32 Ho2 3.023164 1_565
Au32 Ho1 3.023164 1_555
Au32 Ho4 3.487817 1_555
Au33 Au40 2.888025 1_565
Au33 Au41 2.930309 1_564
Au33 Ho0 3.023164 1_555
Au33 Ho3 3.023164 1_565
Au33 Ho5 3.487817 1_554
Au34 Au40 2.888025 1_555
Au34 Au41 2.930309 1_554
Au34 Ho0 3.023164 1_545
Au34 Ho3 3.023164 1_555
Au34 Ho6 3.487817 1_554
Au35 Au41 2.888025 1_555
Au35 Au40 2.930309 1_555
Au35 Ho2 3.023164 1_555
Au35 Ho1 3.023164 1_545
Au35 Ho7 3.487817 1_555
Au36 Au43 2.888025 1_555
Au36 Au42 2.930309 1_556
Au36 Ho6 3.023164 1_555
Au36 Ho5 3.023164 1_455
Au36 Ho0 3.487817 1_556
Au37 Au42 2.888025 1_655
Au37 Au43 2.930309 1_655
Au37 Ho7 3.023164 1_555
Au37 Ho4 3.023164 1_655
Au37 Ho1 3.487817 1_555
Au38 Au42 2.888025 1_555
Au38 Au43 2.930309 1_555
Au38 Ho4 3.023164 1_555
Au38 Ho7 3.023164 1_455
Au38 Ho2 3.487817 1_555
Au39 Au43 2.888025 1_655
Au39 Au42 2.930309 1_656
Au39 Ho6 3.023164 1_655
Au39 Ho5 3.023164 1_555
Au39 Ho3 3.487817 1_556
Au40 Au9 2.864019 1_545
Au40 Ho2 3.394361 1_555
Au40 Ho1 3.394361 1_545
Au41 Au8 2.864022 1_545
Au41 Ho3 3.394361 1_556
Au41 Ho0 3.394361 1_546
Au42 Au6 2.864019 1_455
Au42 Au5 2.864022 1_555
Au42 Ho6 3.394361 1_554
Au42 Ho5 3.394361 1_454
Au43 Au7 2.864022 1_455
Au43 Ho7 3.394361 1_455
Au43 Ho4 3.394361 1_555
Au44 Ho4 3.072938 1_555
Au44 Ho0 3.072938 1_556
Au45 Ho5 3.072938 1_554
Au45 Ho1 3.072938 1_555
Au46 Ho6 3.072938 1_554
Au46 Ho2 3.072938 1_555
Au47 Ho7 3.072938 1_555
Au47 Ho3 3.072938 1_556
