# generated using pymatgen
data_CaMg2
_symmetry_space_group_name_H-M   'P 1'
_cell_length_a   13.58360637
_cell_length_b   13.58360637
_cell_length_c   15.38058101
_cell_angle_alpha   74.85764804
_cell_angle_beta   74.85764804
_cell_angle_gamma   29.72419368
_symmetry_Int_Tables_number   1
_chemical_formula_structural   CaMg2
_chemical_formula_sum   'Ca16 Mg32'
_cell_volume   1354.75938271
_cell_formula_units_Z   16
loop_
 _symmetry_equiv_pos_site_id
 _symmetry_equiv_pos_as_xyz
  1  'x, y, z'
loop_
 _atom_site_type_symbol
 _atom_site_label
 _atom_site_symmetry_multiplicity
 _atom_site_fract_x
 _atom_site_fract_y
 _atom_site_fract_z
 _atom_site_occupancy
  Ca  Ca0_0  1  0.26093450  0.26093450  0.11011950  1
  Ca  Ca0_1  1  0.26093450  0.26093450  0.61011950  1
  Ca  Ca0_2  1  0.26093450  0.76093450  0.11011950  1
  Ca  Ca0_3  1  0.26093450  0.76093450  0.61011950  1
  Ca  Ca0_4  1  0.76093450  0.26093450  0.11011950  1
  Ca  Ca0_5  1  0.76093450  0.26093450  0.61011950  1
  Ca  Ca0_6  1  0.76093450  0.76093450  0.11011950  1
  Ca  Ca0_7  1  0.76093450  0.76093450  0.61011950  1
  Ca  Ca1_0  1  0.23906550  0.23906550  0.38988050  1
  Ca  Ca1_1  1  0.23906550  0.23906550  0.88988050  1
  Ca  Ca1_2  1  0.23906550  0.73906550  0.38988050  1
  Ca  Ca1_3  1  0.23906550  0.73906550  0.88988050  1
  Ca  Ca1_4  1  0.73906550  0.23906550  0.38988050  1
  Ca  Ca1_5  1  0.73906550  0.23906550  0.88988050  1
  Ca  Ca1_6  1  0.73906550  0.73906550  0.38988050  1
  Ca  Ca1_7  1  0.73906550  0.73906550  0.88988050  1
  Mg  Mg0_0  1  0.40065800  0.40065800  0.06821900  1
  Mg  Mg0_1  1  0.40065800  0.40065800  0.56821900  1
  Mg  Mg0_2  1  0.40065800  0.90065800  0.06821900  1
  Mg  Mg0_3  1  0.40065800  0.90065800  0.56821900  1
  Mg  Mg0_4  1  0.90065800  0.40065800  0.06821900  1
  Mg  Mg0_5  1  0.90065800  0.40065800  0.56821900  1
  Mg  Mg0_6  1  0.90065800  0.90065800  0.06821900  1
  Mg  Mg0_7  1  0.90065800  0.90065800  0.56821900  1
  Mg  Mg1_0  1  0.07994750  0.07994750  0.23109250  1
  Mg  Mg1_1  1  0.07994750  0.07994750  0.73109250  1
  Mg  Mg1_2  1  0.07994750  0.57994750  0.23109250  1
  Mg  Mg1_3  1  0.07994750  0.57994750  0.73109250  1
  Mg  Mg1_4  1  0.57994750  0.07994750  0.23109250  1
  Mg  Mg1_5  1  0.57994750  0.07994750  0.73109250  1
  Mg  Mg1_6  1  0.57994750  0.57994750  0.23109250  1
  Mg  Mg1_7  1  0.57994750  0.57994750  0.73109250  1
  Mg  Mg2_0  1  0.42005250  0.42005250  0.26890750  1
  Mg  Mg2_1  1  0.42005250  0.42005250  0.76890750  1
  Mg  Mg2_2  1  0.42005250  0.92005250  0.26890750  1
  Mg  Mg2_3  1  0.42005250  0.92005250  0.76890750  1
  Mg  Mg2_4  1  0.92005250  0.42005250  0.26890750  1
  Mg  Mg2_5  1  0.92005250  0.42005250  0.76890750  1
  Mg  Mg2_6  1  0.92005250  0.92005250  0.26890750  1
  Mg  Mg2_7  1  0.92005250  0.92005250  0.76890750  1
  Mg  Mg3_0  1  0.09934200  0.09934200  0.43178100  1
  Mg  Mg3_1  1  0.09934200  0.09934200  0.93178100  1
  Mg  Mg3_2  1  0.09934200  0.59934200  0.43178100  1
  Mg  Mg3_3  1  0.09934200  0.59934200  0.93178100  1
  Mg  Mg3_4  1  0.59934200  0.09934200  0.43178100  1
  Mg  Mg3_5  1  0.59934200  0.09934200  0.93178100  1
  Mg  Mg3_6  1  0.59934200  0.59934200  0.43178100  1
  Mg  Mg3_7  1  0.59934200  0.59934200  0.93178100  1
loop_
_geom_bond_atom_site_label_1
_geom_bond_atom_site_label_2
_geom_bond_distance
_geom_bond_site_symmetry_2
Ca0_0 Mg2_4 3.397653 1_455
Ca0_0 Mg2_2 3.397653 1_545
Ca0_0 Mg1_4 3.406344 1_555
Ca0_0 Mg1_2 3.406344 1_555
Ca0_0 Ca0_6 3.484106 1_455
Ca0_0 Ca0_6 3.484106 1_545
Ca0_0 Mg3_5 3.536353 1_554
Ca0_0 Mg3_3 3.536353 1_554
Ca0_0 Mg0_0 3.549394 1_555
Ca0_0 Mg0_2 3.583813 1_545
Ca0_0 Mg0_4 3.583813 1_455
Ca0_0 Ca1_1 3.585481 1_554
Ca0_1 Mg2_3 3.397653 1_545
Ca0_1 Mg2_5 3.397653 1_455
Ca0_1 Mg1_5 3.406344 1_555
Ca0_1 Mg1_3 3.406344 1_555
Ca0_1 Ca0_7 3.484106 1_545
Ca0_1 Ca0_7 3.484106 1_455
Ca0_1 Mg3_4 3.536353 1_555
Ca0_1 Mg3_2 3.536353 1_555
Ca0_1 Mg0_1 3.549394 1_555
Ca0_1 Mg0_3 3.583813 1_545
Ca0_1 Mg0_5 3.583813 1_455
Ca0_1 Ca1_0 3.585481 1_555
Ca0_2 Mg2_0 3.397653 1_555
Ca0_2 Mg2_6 3.397653 1_455
Ca0_2 Mg1_6 3.406344 1_555
Ca0_2 Mg1_0 3.406344 1_565
Ca0_2 Ca0_4 3.484106 1_555
Ca0_2 Ca0_4 3.484106 1_465
Ca0_2 Mg3_7 3.536353 1_554
Ca0_2 Mg3_1 3.536353 1_564
Ca0_2 Mg0_2 3.549394 1_555
Ca0_2 Mg0_6 3.583813 1_455
Ca0_2 Mg0_0 3.583813 1_555
Ca0_2 Ca1_3 3.585481 1_554
Ca0_3 Mg2_7 3.397653 1_455
Ca0_3 Mg2_1 3.397653 1_555
Ca0_3 Mg1_7 3.406344 1_555
Ca0_3 Mg1_1 3.406344 1_565
Ca0_3 Ca0_5 3.484106 1_555
Ca0_3 Ca0_5 3.484106 1_465
Ca0_3 Mg3_0 3.536353 1_565
Ca0_3 Mg3_6 3.536353 1_555
Ca0_3 Mg0_3 3.549394 1_555
Ca0_3 Mg0_1 3.583813 1_555
Ca0_3 Mg0_7 3.583813 1_455
Ca0_3 Ca1_2 3.585481 1_555
Ca0_4 Mg2_0 3.397653 1_555
Ca0_4 Mg2_6 3.397653 1_545
Ca0_4 Mg1_6 3.406344 1_555
Ca0_4 Mg1_0 3.406344 1_655
Ca0_4 Mg3_7 3.536353 1_554
Ca0_4 Mg3_1 3.536353 1_654
Ca0_4 Mg0_4 3.549394 1_555
Ca0_4 Mg0_6 3.583813 1_545
Ca0_4 Mg0_0 3.583813 1_555
Ca0_4 Ca1_5 3.585481 1_554
Ca0_5 Mg2_7 3.397653 1_545
Ca0_5 Mg2_1 3.397653 1_555
Ca0_5 Mg1_1 3.406344 1_655
Ca0_5 Mg1_7 3.406344 1_555
Ca0_5 Mg3_0 3.536353 1_655
Ca0_5 Mg3_6 3.536353 1_555
Ca0_5 Mg0_5 3.549394 1_555
Ca0_5 Mg0_1 3.583813 1_555
Ca0_5 Mg0_7 3.583813 1_545
Ca0_5 Ca1_4 3.585481 1_555
Ca0_6 Mg2_2 3.397653 1_555
Ca0_6 Mg2_4 3.397653 1_555
Ca0_6 Mg1_2 3.406344 1_655
Ca0_6 Mg1_4 3.406344 1_565
Ca0_6 Mg3_5 3.536353 1_564
Ca0_6 Mg3_3 3.536353 1_654
Ca0_6 Mg0_6 3.549394 1_555
Ca0_6 Mg0_2 3.583813 1_555
Ca0_6 Mg0_4 3.583813 1_555
Ca0_6 Ca1_7 3.585481 1_554
Ca0_7 Mg2_3 3.397653 1_555
Ca0_7 Mg2_5 3.397653 1_555
Ca0_7 Mg1_5 3.406344 1_565
Ca0_7 Mg1_3 3.406344 1_655
Ca0_7 Mg3_4 3.536353 1_565
Ca0_7 Mg3_2 3.536353 1_655
Ca0_7 Mg0_7 3.549394 1_555
Ca0_7 Mg0_3 3.583813 1_555
Ca0_7 Mg0_5 3.583813 1_555
Ca0_7 Ca1_6 3.585481 1_555
Ca1_0 Mg1_4 3.397653 1_555
Ca1_0 Mg1_2 3.397653 1_555
Ca1_0 Mg2_2 3.406344 1_545
Ca1_0 Mg2_4 3.406344 1_455
Ca1_0 Ca1_6 3.484106 1_455
Ca1_0 Ca1_6 3.484106 1_545
Ca1_0 Mg0_3 3.536353 1_545
Ca1_0 Mg0_5 3.536353 1_455
Ca1_0 Mg3_0 3.549394 1_555
Ca1_0 Mg3_4 3.583813 1_555
Ca1_0 Mg3_2 3.583813 1_555
Ca1_1 Mg1_3 3.397653 1_555
Ca1_1 Mg1_5 3.397653 1_555
Ca1_1 Mg2_3 3.406344 1_545
Ca1_1 Mg2_5 3.406344 1_455
Ca1_1 Ca1_7 3.484106 1_545
Ca1_1 Ca1_7 3.484106 1_455
Ca1_1 Mg0_2 3.536353 1_546
Ca1_1 Mg0_4 3.536353 1_456
Ca1_1 Mg3_1 3.549394 1_555
Ca1_1 Mg3_5 3.583813 1_555
Ca1_1 Mg3_3 3.583813 1_555
Ca1_2 Mg1_6 3.397653 1_555
Ca1_2 Mg1_0 3.397653 1_565
Ca1_2 Mg2_0 3.406344 1_555
Ca1_2 Mg2_6 3.406344 1_455
Ca1_2 Ca1_4 3.484106 1_555
Ca1_2 Ca1_4 3.484106 1_465
Ca1_2 Mg0_1 3.536353 1_555
Ca1_2 Mg0_7 3.536353 1_455
Ca1_2 Mg3_2 3.549394 1_555
Ca1_2 Mg3_0 3.583813 1_565
Ca1_2 Mg3_6 3.583813 1_555
Ca1_3 Mg1_7 3.397653 1_555
Ca1_3 Mg1_1 3.397653 1_565
Ca1_3 Mg2_7 3.406344 1_455
Ca1_3 Mg2_1 3.406344 1_555
Ca1_3 Ca1_5 3.484106 1_465
Ca1_3 Ca1_5 3.484106 1_555
Ca1_3 Mg0_6 3.536353 1_456
Ca1_3 Mg0_0 3.536353 1_556
Ca1_3 Mg3_3 3.549394 1_555
Ca1_3 Mg3_7 3.583813 1_555
Ca1_3 Mg3_1 3.583813 1_565
Ca1_4 Mg1_6 3.397653 1_555
Ca1_4 Mg1_0 3.397653 1_655
Ca1_4 Mg2_0 3.406344 1_555
Ca1_4 Mg2_6 3.406344 1_545
Ca1_4 Mg0_1 3.536353 1_555
Ca1_4 Mg0_7 3.536353 1_545
Ca1_4 Mg3_4 3.549394 1_555
Ca1_4 Mg3_0 3.583813 1_655
Ca1_4 Mg3_6 3.583813 1_555
Ca1_5 Mg1_1 3.397653 1_655
Ca1_5 Mg1_7 3.397653 1_555
Ca1_5 Mg2_7 3.406344 1_545
Ca1_5 Mg2_1 3.406344 1_555
Ca1_5 Mg0_6 3.536353 1_546
Ca1_5 Mg0_0 3.536353 1_556
Ca1_5 Mg3_5 3.549394 1_555
Ca1_5 Mg3_7 3.583813 1_555
Ca1_5 Mg3_1 3.583813 1_655
Ca1_6 Mg1_4 3.397653 1_565
Ca1_6 Mg1_2 3.397653 1_655
Ca1_6 Mg2_2 3.406344 1_555
Ca1_6 Mg2_4 3.406344 1_555
Ca1_6 Mg0_3 3.536353 1_555
Ca1_6 Mg0_5 3.536353 1_555
Ca1_6 Mg3_6 3.549394 1_555
Ca1_6 Mg3_4 3.583813 1_565
Ca1_6 Mg3_2 3.583813 1_655
Ca1_7 Mg1_3 3.397653 1_655
Ca1_7 Mg1_5 3.397653 1_565
Ca1_7 Mg2_3 3.406344 1_555
Ca1_7 Mg2_5 3.406344 1_555
Ca1_7 Mg0_2 3.536353 1_556
Ca1_7 Mg0_4 3.536353 1_556
Ca1_7 Mg3_7 3.549394 1_555
Ca1_7 Mg3_5 3.583813 1_565
Ca1_7 Mg3_3 3.583813 1_655
Mg0_0 Mg1_2 3.200561 1_555
Mg0_0 Mg1_4 3.200561 1_555
Mg0_0 Mg2_0 3.261408 1_555
Mg0_0 Mg3_3 3.283676 1_554
Mg0_0 Mg3_5 3.283676 1_554
Mg0_0 Mg0_6 3.484106 1_455
Mg0_0 Mg0_6 3.484106 1_545
Mg0_1 Mg1_3 3.200561 1_555
Mg0_1 Mg1_5 3.200561 1_555
Mg0_1 Mg2_1 3.261408 1_555
Mg0_1 Mg3_2 3.283676 1_555
Mg0_1 Mg3_4 3.283676 1_555
Mg0_1 Mg0_7 3.484106 1_545
Mg0_1 Mg0_7 3.484106 1_455
Mg0_2 Mg1_0 3.200561 1_565
Mg0_2 Mg1_6 3.200561 1_555
Mg0_2 Mg2_2 3.261408 1_555
Mg0_2 Mg3_1 3.283676 1_564
Mg0_2 Mg3_7 3.283676 1_554
Mg0_2 Mg0_4 3.484106 1_555
Mg0_2 Mg0_4 3.484106 1_465
Mg0_3 Mg1_7 3.200561 1_555
Mg0_3 Mg1_1 3.200561 1_565
Mg0_3 Mg2_3 3.261408 1_555
Mg0_3 Mg3_6 3.283676 1_555
Mg0_3 Mg3_0 3.283676 1_565
Mg0_3 Mg0_5 3.484106 1_555
Mg0_3 Mg0_5 3.484106 1_465
Mg0_4 Mg1_0 3.200561 1_655
Mg0_4 Mg1_6 3.200561 1_555
Mg0_4 Mg2_4 3.261408 1_555
Mg0_4 Mg3_1 3.283676 1_654
Mg0_4 Mg3_7 3.283676 1_554
Mg0_5 Mg1_7 3.200561 1_555
Mg0_5 Mg1_1 3.200561 1_655
Mg0_5 Mg2_5 3.261408 1_555
Mg0_5 Mg3_6 3.283676 1_555
Mg0_5 Mg3_0 3.283676 1_655
Mg0_6 Mg1_2 3.200561 1_655
Mg0_6 Mg1_4 3.200561 1_565
Mg0_6 Mg2_6 3.261408 1_555
Mg0_6 Mg3_3 3.283676 1_654
Mg0_6 Mg3_5 3.283676 1_564
Mg0_7 Mg1_5 3.200561 1_565
Mg0_7 Mg1_3 3.200561 1_655
Mg0_7 Mg2_7 3.261408 1_555
Mg0_7 Mg3_4 3.283676 1_565
Mg0_7 Mg3_2 3.283676 1_655
Mg1_0 Mg2_4 3.116864 1_455
Mg1_0 Mg2_2 3.116864 1_545
Mg1_0 Mg3_0 3.261408 1_555
Mg1_0 Mg1_6 3.484106 1_545
Mg1_0 Mg1_6 3.484106 1_455
Mg1_1 Mg2_5 3.116864 1_455
Mg1_1 Mg2_3 3.116864 1_545
Mg1_1 Mg3_1 3.261408 1_555
Mg1_1 Mg1_7 3.484106 1_455
Mg1_1 Mg1_7 3.484106 1_545
Mg1_2 Mg2_6 3.116864 1_455
Mg1_2 Mg2_0 3.116864 1_555
Mg1_2 Mg3_2 3.261408 1_555
Mg1_2 Mg1_4 3.484106 1_555
Mg1_2 Mg1_4 3.484106 1_465
Mg1_3 Mg2_1 3.116864 1_555
Mg1_3 Mg2_7 3.116864 1_455
Mg1_3 Mg3_3 3.261408 1_555
Mg1_3 Mg1_5 3.484106 1_555
Mg1_3 Mg1_5 3.484106 1_465
Mg1_4 Mg2_6 3.116864 1_545
Mg1_4 Mg2_0 3.116864 1_555
Mg1_4 Mg3_4 3.261408 1_555
Mg1_5 Mg2_1 3.116864 1_555
Mg1_5 Mg2_7 3.116864 1_545
Mg1_5 Mg3_5 3.261408 1_555
Mg1_6 Mg2_4 3.116864 1_555
Mg1_6 Mg2_2 3.116864 1_555
Mg1_6 Mg3_6 3.261408 1_555
Mg1_7 Mg2_5 3.116864 1_555
Mg1_7 Mg2_3 3.116864 1_555
Mg1_7 Mg3_7 3.261408 1_555
Mg2_0 Mg3_2 3.200561 1_555
Mg2_0 Mg3_4 3.200561 1_555
Mg2_0 Mg2_6 3.484106 1_545
Mg2_0 Mg2_6 3.484106 1_455
Mg2_1 Mg3_3 3.200561 1_555
Mg2_1 Mg3_5 3.200561 1_555
Mg2_1 Mg2_7 3.484106 1_455
Mg2_1 Mg2_7 3.484106 1_545
Mg2_2 Mg3_6 3.200561 1_555
Mg2_2 Mg3_0 3.200561 1_565
Mg2_2 Mg2_4 3.484106 1_555
Mg2_2 Mg2_4 3.484106 1_465
Mg2_3 Mg3_1 3.200561 1_565
Mg2_3 Mg3_7 3.200561 1_555
Mg2_3 Mg2_5 3.484106 1_555
Mg2_3 Mg2_5 3.484106 1_465
Mg2_4 Mg3_6 3.200561 1_555
Mg2_4 Mg3_0 3.200561 1_655
Mg2_5 Mg3_7 3.200561 1_555
Mg2_5 Mg3_1 3.200561 1_655
Mg2_6 Mg3_2 3.200561 1_655
Mg2_6 Mg3_4 3.200561 1_565
Mg2_7 Mg3_3 3.200561 1_655
Mg2_7 Mg3_5 3.200561 1_565
Mg3_0 Mg3_6 3.484106 1_455
Mg3_0 Mg3_6 3.484106 1_545
Mg3_1 Mg3_7 3.484106 1_455
Mg3_1 Mg3_7 3.484106 1_545
Mg3_2 Mg3_4 3.484106 1_555
Mg3_2 Mg3_4 3.484106 1_465
Mg3_3 Mg3_5 3.484106 1_555
Mg3_3 Mg3_5 3.484106 1_465
