# generated using pymatgen
data_HfCo3B2
_symmetry_space_group_name_H-M   'P 1'
_cell_length_a   5.64513592
_cell_length_b   5.64513581
_cell_length_c   5.64513601
_cell_angle_alpha   94.44689280
_cell_angle_beta   94.44689511
_cell_angle_gamma   94.44690407
_symmetry_Int_Tables_number   1
_chemical_formula_structural   HfCo3B2
_chemical_formula_sum   'Hf3 Co9 B6'
_cell_volume   178.18245849
_cell_formula_units_Z   3
loop_
 _symmetry_equiv_pos_site_id
 _symmetry_equiv_pos_as_xyz
  1  'x, y, z'
loop_
 _atom_site_type_symbol
 _atom_site_label
 _atom_site_symmetry_multiplicity
 _atom_site_fract_x
 _atom_site_fract_y
 _atom_site_fract_z
 _atom_site_occupancy
  Hf  Hf0  1  0.00000000  0.00000000  0.00000000  1
  Hf  Hf1  1  0.67053824  0.67053824  0.67053824  1
  Hf  Hf2  1  0.32946176  0.32946176  0.32946176  1
  Co  Co0  1  0.00000000  0.50000000  0.00000000  1
  Co  Co1  1  0.50000000  0.00000000  0.00000000  1
  Co  Co2  1  0.00000000  0.00000000  0.50000000  1
  Co  Co3  1  0.19544475  0.69375578  0.69375978  1
  Co  Co4  1  0.69375578  0.69375978  0.19544475  1
  Co  Co5  1  0.69375978  0.19544475  0.69375578  1
  Co  Co6  1  0.80455425  0.30624422  0.30624022  1
  Co  Co7  1  0.30624422  0.30624022  0.80455425  1
  Co  Co8  1  0.30624022  0.80455425  0.30624422  1
  B  B0  1  0.00000408  0.37563498  0.62435724  1
  B  B1  1  0.37563498  0.62435724  0.00000408  1
  B  B2  1  0.62435724  0.00000408  0.37563498  1
  B  B3  1  0.99999592  0.62436502  0.37564276  1
  B  B4  1  0.62436502  0.37564276  0.99999592  1
  B  B5  1  0.37564276  0.99999592  0.62436502  1
loop_
_geom_bond_atom_site_label_1
_geom_bond_atom_site_label_2
_geom_bond_distance
_geom_bond_site_symmetry_2
Hf0 Hf1 2.961081 1_444
Hf0 Hf2 2.961081 1_555
Hf1 Hf2 3.065470 1_555
Co0 Hf1 2.804257 1_454
Co0 Hf2 2.804257 1_555
Co0 Hf0 2.822568 1_555
Co0 Hf0 2.822568 1_565
Co1 Hf1 2.804257 1_544
Co1 Hf2 2.804257 1_555
Co1 Hf0 2.822568 1_655
Co1 Hf0 2.822568 1_555
Co2 Hf2 2.804256 1_555
Co2 Hf1 2.804256 1_445
Co2 Hf0 2.822568 1_555
Co2 Hf0 2.822568 1_556
Co3 Hf0 2.706059 1_566
Co3 Hf1 2.708076 1_555
Co3 Hf1 2.948153 1_455
Co3 Hf2 2.976147 1_555
Co4 Hf0 2.706058 1_665
Co4 Hf1 2.708076 1_555
Co4 Hf1 2.948153 1_554
Co4 Hf2 2.976147 1_555
Co5 Hf0 2.706059 1_656
Co5 Hf1 2.708076 1_555
Co5 Hf1 2.948153 1_545
Co5 Hf2 2.976147 1_555
Co6 Hf0 2.706062 1_655
Co6 Hf2 2.708070 1_555
Co6 Hf2 2.948159 1_655
Co6 Hf1 2.976145 1_555
Co7 Hf0 2.706061 1_556
Co7 Hf2 2.708070 1_555
Co7 Hf2 2.948159 1_556
Co7 Hf1 2.976145 1_555
Co8 Hf0 2.706061 1_565
Co8 Hf2 2.708070 1_555
Co8 Hf2 2.948159 1_565
Co8 Hf1 2.976145 1_555
B0 Co7 2.017667 1_555
B0 Co5 2.017676 1_455
B0 Co3 2.027902 1_555
B0 Co6 2.027903 1_455
B0 B3 2.061198 1_455
B0 Co2 2.181407 1_555
B0 Co0 2.181464 1_556
B0 Hf2 2.605040 1_555
B0 Hf1 2.605110 1_455
B1 Co8 2.017667 1_555
B1 Co3 2.017676 1_554
B1 Co4 2.027902 1_555
B1 Co7 2.027903 1_554
B1 B4 2.061198 1_554
B1 Co0 2.181407 1_555
B1 Co1 2.181464 1_565
B1 Hf2 2.605039 1_555
B1 Hf1 2.605110 1_554
B2 Co6 2.017667 1_555
B2 Co4 2.017676 1_545
B2 Co5 2.027903 1_555
B2 Co8 2.027903 1_545
B2 B5 2.061198 1_545
B2 Co1 2.181407 1_555
B2 Co2 2.181464 1_655
B2 Hf2 2.605040 1_555
B2 Hf1 2.605110 1_545
B3 Co4 2.017670 1_555
B3 Co8 2.017673 1_655
B3 Co3 2.027901 1_655
B3 Co6 2.027905 1_555
B3 Co2 2.181407 1_665
B3 Co0 2.181464 1_655
B3 Hf1 2.605040 1_555
B3 Hf2 2.605110 1_655
B4 Co5 2.017670 1_555
B4 Co6 2.017673 1_556
B4 Co4 2.027901 1_556
B4 Co7 2.027905 1_555
B4 Co0 2.181407 1_656
B4 Co1 2.181464 1_556
B4 Hf1 2.605039 1_555
B4 Hf2 2.605110 1_556
B5 Co3 2.017670 1_555
B5 Co7 2.017673 1_565
B5 Co5 2.027900 1_565
B5 Co8 2.027905 1_555
B5 Co1 2.181407 1_566
B5 Co2 2.181464 1_565
B5 Hf1 2.605040 1_555
B5 Hf2 2.605110 1_565
