# generated using pymatgen
data_Mn10CuN8
_symmetry_space_group_name_H-M   'P 1'
_cell_length_a   7.69142786
_cell_length_b   4.05185155
_cell_length_c   6.56641578
_cell_angle_alpha   90.00000169
_cell_angle_beta   73.91213809
_cell_angle_gamma   74.72806702
_symmetry_Int_Tables_number   1
_chemical_formula_structural   Mn10CuN8
_chemical_formula_sum   'Mn10 Cu1 N8'
_cell_volume   189.09257539
_cell_formula_units_Z   1
loop_
 _symmetry_equiv_pos_site_id
 _symmetry_equiv_pos_as_xyz
  1  'x, y, z'
loop_
 _atom_site_type_symbol
 _atom_site_label
 _atom_site_symmetry_multiplicity
 _atom_site_fract_x
 _atom_site_fract_y
 _atom_site_fract_z
 _atom_site_occupancy
  Mn  Mn0  1  0.42162510  0.78918745  0.82730417  1
  Mn  Mn1  1  0.57837490  0.21081255  0.17269583  1
  Mn  Mn2  1  0.07902998  0.96048501  0.76872009  1
  Mn  Mn3  1  0.92097002  0.03951499  0.23127991  1
  Mn  Mn4  1  0.64943462  0.67528269  0.43112130  1
  Mn  Mn5  1  0.35056538  0.32471731  0.56887870  1
  Mn  Mn6  1  0.80884514  0.59557743  0.96133974  1
  Mn  Mn7  1  0.19115486  0.40442257  0.03866026  1
  Mn  Mn8  1  0.30434350  0.84782825  0.28540226  1
  Mn  Mn9  1  0.69565650  0.15217175  0.71459774  1
  Cu  Cu0  1  -0.00000000  0.50000000  0.50000000  1
  N  N0  1  0.19083487  0.90458207  0.04768014  1
  N  N1  1  0.80916513  0.09541793  0.95231986  1
  N  N2  1  0.35339367  0.82330316  0.56943826  1
  N  N3  1  0.64660633  0.17669684  0.43056174  1
  N  N4  1  0.68679341  0.65660329  0.72857859  1
  N  N5  1  0.31320659  0.34339671  0.27142141  1
  N  N6  1  0.90677911  0.54661045  0.23014059  1
  N  N7  1  0.09322089  0.45338955  0.76985941  1
loop_
_geom_bond_atom_site_label_1
_geom_bond_atom_site_label_2
_geom_bond_distance
_geom_bond_site_symmetry_2
Mn0 N4 1.886410 1_555
Mn0 N0 1.898100 1_556
Mn0 N2 1.901554 1_555
Mn1 N5 1.886410 1_555
Mn1 N1 1.898100 1_554
Mn1 N3 1.901554 1_555
Mn2 N1 2.018904 1_465
Mn2 N7 2.028785 1_565
Mn2 N7 2.028786 1_555
Mn2 N2 2.079930 1_555
Mn2 N0 2.217336 1_556
Mn3 N0 2.018904 1_645
Mn3 N6 2.028785 1_545
Mn3 N6 2.028786 1_555
Mn3 N3 2.079930 1_555
Mn3 N1 2.217336 1_554
Mn4 N6 1.984926 1_555
Mn4 N3 2.026049 1_555
Mn4 N3 2.026049 1_565
Mn4 N4 2.050120 1_555
Mn4 N2 2.122185 1_555
Mn5 N7 1.984926 1_555
Mn5 N2 2.026049 1_555
Mn5 N2 2.026049 1_545
Mn5 N5 2.050120 1_555
Mn5 N3 2.122185 1_555
Mn6 N4 1.987797 1_555
Mn6 N1 2.026771 1_555
Mn6 N1 2.026775 1_565
Mn6 N6 2.092919 1_556
Mn6 N7 2.123415 1_655
Mn7 N5 1.987797 1_555
Mn7 N0 2.026771 1_555
Mn7 N0 2.026775 1_545
Mn7 N7 2.092919 1_554
Mn7 N6 2.123415 1_455
Mn8 N0 1.975167 1_555
Mn8 N2 2.000255 1_555
Mn8 N5 2.028216 1_555
Mn8 N5 2.028216 1_565
Mn9 N1 1.975167 1_555
Mn9 N3 2.000255 1_555
Mn9 N4 2.028216 1_555
Mn9 N4 2.028216 1_545
Cu0 N7 2.079086 1_555
Cu0 N6 2.079086 1_455
Cu0 N4 2.376880 1_455
Cu0 N5 2.376880 1_555
