# generated using pymatgen
data_Mg2MnSbO6
_symmetry_space_group_name_H-M   'P 1'
_cell_length_a   5.40742798
_cell_length_b   7.55637600
_cell_length_c   10.62622436
_cell_angle_alpha   89.99996688
_cell_angle_beta   94.65423862
_cell_angle_gamma   90.00008847
_symmetry_Int_Tables_number   1
_chemical_formula_structural   Mg2MnSbO6
_chemical_formula_sum   'Mg8 Mn4 Sb4 O24'
_cell_volume   432.76171961
_cell_formula_units_Z   4
loop_
 _symmetry_equiv_pos_site_id
 _symmetry_equiv_pos_as_xyz
  1  'x, y, z'
loop_
 _atom_site_type_symbol
 _atom_site_label
 _atom_site_symmetry_multiplicity
 _atom_site_fract_x
 _atom_site_fract_y
 _atom_site_fract_z
 _atom_site_occupancy
  Mg  Mg0  1  0.56981300  0.74999900  0.26396600  1
  Mg  Mg1  1  0.56980700  0.74999800  0.76396700  1
  Mg  Mg2  1  0.43019100  0.25000000  0.23603500  1
  Mg  Mg3  1  0.43018800  0.25000100  0.73603500  1
  Mg  Mg4  1  0.02694000  0.75000000  0.01639700  1
  Mg  Mg5  1  0.02693300  0.74999800  0.51640000  1
  Mg  Mg6  1  0.97305900  0.25000200  0.48360300  1
  Mg  Mg7  1  0.97306500  0.25000100  0.98360100  1
  Mn  Mn0  1  0.00000200  0.50000400  0.74999600  1
  Mn  Mn1  1  0.99997200  0.00000300  0.74999600  1
  Mn  Mn2  1  0.00002200  0.49999000  0.25000300  1
  Mn  Mn3  1  0.00000200  0.00000800  0.24999300  1
  Sb  Sb0  1  0.49999800  0.50000000  0.00000400  1
  Sb  Sb1  1  0.50000600  0.49999900  0.49999800  1
  Sb  Sb2  1  0.49999500  0.00000000  0.00000200  1
  Sb  Sb3  1  0.50000300  0.99999900  0.49999700  1
  O  O0  1  0.58156100  0.25000000  0.43230500  1
  O  O1  1  0.58155800  0.24999900  0.93231300  1
  O  O2  1  0.41844000  0.75000100  0.06769700  1
  O  O3  1  0.41844200  0.75000000  0.56768700  1
  O  O4  1  0.92535900  0.74999800  0.19528900  1
  O  O5  1  0.92537000  0.75000100  0.69529200  1
  O  O6  1  0.07464400  0.25000100  0.30471400  1
  O  O7  1  0.07462800  0.25000000  0.80470700  1
  O  O8  1  0.67938400  0.43549100  0.16525300  1
  O  O9  1  0.67938000  0.43549100  0.66524800  1
  O  O10  1  0.32061900  0.93549000  0.33474800  1
  O  O11  1  0.32061600  0.93549100  0.83475100  1
  O  O12  1  0.67938200  0.06451100  0.16525200  1
  O  O13  1  0.67937800  0.06450800  0.66524700  1
  O  O14  1  0.32062400  0.56451000  0.33474900  1
  O  O15  1  0.32061800  0.56450900  0.83475100  1
  O  O16  1  0.19854900  0.07129800  0.07905300  1
  O  O17  1  0.19853500  0.07130100  0.57903700  1
  O  O18  1  0.80145000  0.57129700  0.42094900  1
  O  O19  1  0.80146800  0.57130200  0.92096300  1
  O  O20  1  0.19855000  0.42870200  0.07905200  1
  O  O21  1  0.19853200  0.42869900  0.57903600  1
  O  O22  1  0.80145200  0.92870200  0.42095000  1
  O  O23  1  0.80146800  0.92869800  0.92096300  1
loop_
_geom_bond_atom_site_label_1
_geom_bond_atom_site_label_2
_geom_bond_distance
_geom_bond_site_symmetry_2
Mg0 O4 2.111071 1_555
Mg0 O14 2.123780 1_555
Mg0 O10 2.123807 1_555
Mg0 O2 2.177770 1_555
Mg0 O18 2.415765 1_555
Mg0 O22 2.415780 1_555
Mg0 O8 2.683310 1_555
Mg0 O12 2.683336 1_565
Mg1 O5 2.111148 1_555
Mg1 O15 2.123784 1_555
Mg1 O11 2.123814 1_555
Mg1 O3 2.177866 1_555
Mg1 O19 2.415889 1_555
Mg1 O23 2.415905 1_555
Mg1 O9 2.683332 1_555
Mg1 O13 2.683351 1_565
Mg2 O6 2.111085 1_555
Mg2 O12 2.123790 1_555
Mg2 O8 2.123800 1_555
Mg2 O0 2.177775 1_555
Mg2 O16 2.415770 1_555
Mg2 O20 2.415775 1_555
Mg2 O10 2.683322 1_545
Mg2 O14 2.683323 1_555
Mg3 O7 2.111120 1_555
Mg3 O9 2.123813 1_555
Mg3 O13 2.123828 1_555
Mg3 O1 2.177854 1_555
Mg3 O17 2.415899 1_555
Mg3 O21 2.415906 1_555
Mg3 O15 2.683322 1_555
Mg3 O11 2.683335 1_545
Mg4 O4 2.021082 1_455
Mg4 O19 2.034107 1_454
Mg4 O23 2.034109 1_454
Mg4 O2 2.142802 1_555
Mg4 O16 2.664316 1_565
Mg4 O20 2.664317 1_555
Mg5 O5 2.021048 1_455
Mg5 O18 2.034236 1_455
Mg5 O22 2.034242 1_455
Mg5 O3 2.142825 1_555
Mg5 O21 2.664260 1_555
Mg5 O17 2.664293 1_565
Mg6 O6 2.021059 1_655
Mg6 O21 2.034100 1_655
Mg6 O17 2.034136 1_655
Mg6 O0 2.142788 1_555
Mg6 O18 2.664292 1_555
Mg6 O22 2.664319 1_545
Mg7 O7 2.021069 1_655
Mg7 O20 2.034243 1_656
Mg7 O16 2.034256 1_656
Mg7 O1 2.142817 1_555
Mg7 O19 2.664275 1_555
Mg7 O23 2.664287 1_545
Mn0 O15 1.949629 1_555
Mn0 O9 1.949643 1_455
Mn0 O5 2.007808 1_455
Mn0 O7 2.007872 1_555
Mn0 O21 2.249343 1_555
Mn0 O19 2.249405 1_455
Mn1 O13 1.949504 1_555
Mn1 O11 1.949773 1_645
Mn1 O5 2.007814 1_545
Mn1 O7 2.007851 1_655
Mn1 O23 2.249329 1_545
Mn1 O17 2.249417 1_655
Mn2 O14 1.949556 1_555
Mn2 O8 1.949699 1_455
Mn2 O6 2.007762 1_555
Mn2 O4 2.007945 1_455
Mn2 O20 2.249226 1_555
Mn2 O18 2.249344 1_455
Mn3 O12 1.949587 1_455
Mn3 O10 1.949660 1_545
Mn3 O6 2.007838 1_555
Mn3 O4 2.007911 1_445
Mn3 O16 2.249185 1_555
Mn3 O22 2.249375 1_445
O0 Sb1 2.081355 1_555
O0 Sb3 2.081367 1_545
O1 Sb2 2.081348 1_556
O1 Sb0 2.081367 1_556
O2 Sb2 2.081361 1_565
O2 Sb0 2.081373 1_555
O3 Sb3 2.081349 1_555
O3 Sb1 2.081365 1_555
O8 Sb0 1.996387 1_555
O9 Sb1 1.996367 1_555
O10 Sb3 1.996383 1_555
O11 Sb2 1.996389 1_566
O12 Sb2 1.996402 1_555
O13 Sb3 1.996371 1_545
O14 Sb1 1.996382 1_555
O15 Sb0 1.996410 1_556
O16 Sb2 1.968540 1_555
O17 Sb3 1.968593 1_545
O18 Sb1 1.968518 1_555
O19 Sb0 1.968606 1_556
O20 Sb0 1.968532 1_555
O21 Sb1 1.968605 1_555
O22 Sb3 1.968531 1_555
O23 Sb2 1.968611 1_566
