# generated using pymatgen
data_Rb2CdP2O7
_symmetry_space_group_name_H-M   'P 1'
_cell_length_a   10.06426300
_cell_length_b   5.47822500
_cell_length_c   15.91657604
_cell_angle_alpha   87.81607561
_cell_angle_beta   90.00000000
_cell_angle_gamma   90.00000000
_symmetry_Int_Tables_number   1
_chemical_formula_structural   Rb2CdP2O7
_chemical_formula_sum   'Rb8 Cd4 P8 O28'
_cell_volume   876.91182355
_cell_formula_units_Z   4
loop_
 _symmetry_equiv_pos_site_id
 _symmetry_equiv_pos_as_xyz
  1  'x, y, z'
loop_
 _atom_site_type_symbol
 _atom_site_label
 _atom_site_symmetry_multiplicity
 _atom_site_fract_x
 _atom_site_fract_y
 _atom_site_fract_z
 _atom_site_occupancy
  Rb  Rb0  1  0.15486200  0.22250300  0.92426900  1
  Rb  Rb1  1  0.65486200  0.77749700  0.57573100  1
  Rb  Rb2  1  0.84513800  0.77749700  0.07573100  1
  Rb  Rb3  1  0.34513800  0.22250300  0.42426900  1
  Rb  Rb4  1  0.02172500  0.23929700  0.61056300  1
  Rb  Rb5  1  0.52172500  0.76070300  0.88943700  1
  Rb  Rb6  1  0.97827500  0.76070300  0.38943700  1
  Rb  Rb7  1  0.47827500  0.23929700  0.11056300  1
  Cd  Cd0  1  0.38745700  0.24214600  0.68658300  1
  Cd  Cd1  1  0.88745700  0.75785400  0.81341700  1
  Cd  Cd2  1  0.61254300  0.75785400  0.31341700  1
  Cd  Cd3  1  0.11254300  0.24214600  0.18658300  1
  P  P0  1  0.22633100  0.74484600  0.77049200  1
  P  P1  1  0.72633100  0.25515400  0.72950800  1
  P  P2  1  0.77366900  0.25515400  0.22950800  1
  P  P3  1  0.27366900  0.74484600  0.27049200  1
  P  P4  1  0.25684500  0.74475100  0.58610800  1
  P  P5  1  0.75684500  0.25524900  0.91389200  1
  P  P6  1  0.74315500  0.25524900  0.41389200  1
  P  P7  1  0.24315500  0.74475100  0.08610800  1
  O  O0  1  0.29775600  0.47443300  0.58102400  1
  O  O1  1  0.79775600  0.52556700  0.91897600  1
  O  O2  1  0.70224400  0.52556700  0.41897600  1
  O  O3  1  0.20224400  0.47443300  0.08102400  1
  O  O4  1  0.37601500  0.91617700  0.59703200  1
  O  O5  1  0.87601500  0.08382300  0.90296800  1
  O  O6  1  0.62398500  0.08382300  0.40296800  1
  O  O7  1  0.12398500  0.91617700  0.09703200  1
  O  O8  1  0.29606800  0.98973800  0.78475800  1
  O  O9  1  0.79606800  0.01026200  0.71524200  1
  O  O10  1  0.70393200  0.01026200  0.21524200  1
  O  O11  1  0.20393200  0.98973800  0.28475800  1
  O  O12  1  0.16624600  0.75722700  0.67444100  1
  O  O13  1  0.66624600  0.24277300  0.82555900  1
  O  O14  1  0.83375400  0.24277300  0.32555900  1
  O  O15  1  0.33375400  0.75722700  0.17444100  1
  O  O16  1  0.32221900  0.52811900  0.78035800  1
  O  O17  1  0.82221900  0.47188100  0.71964200  1
  O  O18  1  0.67778100  0.47188100  0.21964200  1
  O  O19  1  0.17778100  0.52811900  0.28035800  1
  O  O20  1  0.10424000  0.71273500  0.82754400  1
  O  O21  1  0.60424000  0.28726500  0.67245600  1
  O  O22  1  0.89576000  0.28726500  0.17245600  1
  O  O23  1  0.39576000  0.71273500  0.32754400  1
  O  O24  1  0.15892100  0.82556800  0.51812500  1
  O  O25  1  0.65892100  0.17443200  0.98187500  1
  O  O26  1  0.84107900  0.17443200  0.48187500  1
  O  O27  1  0.34107900  0.82556800  0.01812500  1
loop_
_geom_bond_atom_site_label_1
_geom_bond_atom_site_label_2
_geom_bond_distance
_geom_bond_site_symmetry_2
Cd0 O21 2.206241 1_555
Cd0 O8 2.243887 1_545
Cd0 O0 2.257039 1_555
Cd0 O16 2.300304 1_555
Cd0 O4 2.329742 1_545
Cd1 O20 2.206241 1_655
Cd1 O9 2.243887 1_565
Cd1 O1 2.257039 1_555
Cd1 O17 2.300304 1_555
Cd1 O5 2.329742 1_565
Cd2 O23 2.206241 1_555
Cd2 O10 2.243887 1_565
Cd2 O2 2.257039 1_555
Cd2 O18 2.300304 1_555
Cd2 O6 2.329742 1_565
Cd3 O22 2.206241 1_455
Cd3 O11 2.243887 1_545
Cd3 O3 2.257039 1_555
Cd3 O19 2.300304 1_555
Cd3 O7 2.329742 1_545
O0 P4 1.542130 1_555
O0 Rb3 2.935922 1_555
O0 Rb4 3.090586 1_555
O1 P5 1.542130 1_555
O1 Rb2 2.935922 1_556
O1 Rb5 3.090586 1_555
O2 P6 1.542130 1_555
O2 Rb1 2.935922 1_555
O2 Rb6 3.090586 1_555
O3 P7 1.542130 1_555
O3 Rb0 2.935922 1_554
O3 Rb7 3.090586 1_555
O4 P4 1.537226 1_555
O4 Rb1 2.930457 1_555
O4 Rb3 3.181563 1_565
O5 P5 1.537226 1_555
O5 Rb0 2.930457 1_655
O5 Rb2 3.181563 1_546
O6 P6 1.537226 1_555
O6 Rb3 2.930457 1_555
O6 Rb1 3.181563 1_545
O7 P7 1.537226 1_555
O7 Rb2 2.930457 1_455
O7 Rb0 3.181563 1_564
O8 P0 1.538568 1_555
O8 Rb0 2.965163 1_565
O8 Rb5 3.057567 1_555
O9 P1 1.538568 1_555
O9 Rb1 2.965163 1_545
O9 Rb4 3.057567 1_655
O10 P2 1.538568 1_555
O10 Rb2 2.965163 1_545
O10 Rb7 3.057567 1_555
O11 P3 1.538568 1_555
O11 Rb3 2.965163 1_565
O11 Rb6 3.057567 1_455
O12 P0 1.643050 1_555
O12 P4 1.679320 1_555
O12 Rb4 3.149433 1_565
O12 Rb4 3.379294 1_555
O13 P1 1.643050 1_555
O13 P5 1.679320 1_555
O13 Rb5 3.149433 1_545
O13 Rb5 3.379294 1_555
O14 P2 1.643050 1_555
O14 P6 1.679320 1_555
O14 Rb6 3.149433 1_545
O14 Rb6 3.379294 1_555
O15 P3 1.643050 1_555
O15 P7 1.679320 1_555
O15 Rb7 3.149433 1_565
O15 Rb7 3.379294 1_555
O16 P0 1.533424 1_555
O16 Rb5 2.972861 1_555
O16 Rb0 3.254910 1_555
O17 P1 1.533424 1_555
O17 Rb4 2.972861 1_655
O17 Rb1 3.254910 1_555
O18 P2 1.533424 1_555
O18 Rb7 2.972861 1_555
O18 Rb2 3.254910 1_555
O19 P3 1.533424 1_555
O19 Rb6 2.972861 1_455
O19 Rb3 3.254910 1_555
O20 P0 1.534017 1_555
O20 Rb0 3.086593 1_555
O20 Rb0 3.279655 1_565
O21 P1 1.534017 1_555
O21 Rb1 3.086593 1_555
O21 Rb1 3.279655 1_545
O22 P2 1.534017 1_555
O22 Rb2 3.086593 1_555
O22 Rb2 3.279655 1_545
O23 P3 1.534017 1_555
O23 Rb3 3.086593 1_555
O23 Rb3 3.279655 1_565
O24 P4 1.517110 1_555
O24 Rb6 2.771739 1_455
O24 Rb4 3.076107 1_565
O24 Rb3 3.197639 1_565
O25 P5 1.517110 1_555
O25 Rb7 2.771739 1_556
O25 Rb5 3.076107 1_545
O25 Rb2 3.197639 1_546
O26 P6 1.517110 1_555
O26 Rb4 2.771739 1_655
O26 Rb6 3.076107 1_545
O26 Rb1 3.197639 1_545
O27 P7 1.517110 1_555
O27 Rb5 2.771739 1_554
O27 Rb7 3.076107 1_565
O27 Rb0 3.197639 1_564
