# generated using pymatgen
data_CdFeO3
_symmetry_space_group_name_H-M   'P 1'
_cell_length_a   5.36836819
_cell_length_b   5.48929253
_cell_length_c   7.66726701
_cell_angle_alpha   89.99821876
_cell_angle_beta   89.99297411
_cell_angle_gamma   89.29287302
_symmetry_Int_Tables_number   1
_chemical_formula_structural   CdFeO3
_chemical_formula_sum   'Cd4 Fe4 O12'
_cell_volume   225.92598168
_cell_formula_units_Z   4
loop_
 _symmetry_equiv_pos_site_id
 _symmetry_equiv_pos_as_xyz
  1  'x, y, z'
loop_
 _atom_site_type_symbol
 _atom_site_label
 _atom_site_symmetry_multiplicity
 _atom_site_fract_x
 _atom_site_fract_y
 _atom_site_fract_z
 _atom_site_occupancy
  Cd  Cd0  1  0.01475800  0.95195800  0.75000700  1
  Cd  Cd1  1  0.49248600  0.45447200  0.75000300  1
  Cd  Cd2  1  0.50754300  0.54551900  0.25001500  1
  Cd  Cd3  1  0.98523300  0.04806200  0.25000200  1
  Fe  Fe0  1  0.49996300  0.99997000  0.99999700  1
  Fe  Fe1  1  0.49999900  0.99999000  0.49998800  1
  Fe  Fe2  1  0.00002300  0.50002100  0.99995800  1
  Fe  Fe3  1  0.99997000  0.49999500  0.49995300  1
  O  O0  1  0.08817200  0.46793600  0.25013500  1
  O  O1  1  0.39625200  0.96313500  0.24999100  1
  O  O2  1  0.60374500  0.03686600  0.75003200  1
  O  O3  1  0.91185000  0.53207600  0.74984400  1
  O  O4  1  0.20402800  0.20020100  0.55252900  1
  O  O5  1  0.20421000  0.19994000  0.94758600  1
  O  O6  1  0.30714300  0.70963000  0.55229900  1
  O  O7  1  0.30691600  0.70932900  0.94781900  1
  O  O8  1  0.69308500  0.29065800  0.05219600  1
  O  O9  1  0.69286100  0.29035300  0.44772400  1
  O  O10  1  0.79579000  0.80008200  0.05243000  1
  O  O11  1  0.79597400  0.79980900  0.44749200  1
loop_
_geom_bond_atom_site_label_1
_geom_bond_atom_site_label_2
_geom_bond_distance
_geom_bond_site_symmetry_2
Cd0 O2 2.249524 1_465
Cd0 O4 2.283749 1_565
Cd0 O5 2.284064 1_565
Cd0 O3 2.376760 1_455
Cd0 O6 2.545406 1_555
Cd0 O7 2.546169 1_555
Cd0 O10 2.734389 1_456
Cd0 O11 2.735313 1_455
Cd1 O7 2.283715 1_555
Cd1 O6 2.283731 1_555
Cd1 O3 2.296409 1_555
Cd1 O2 2.361751 1_555
Cd1 O4 2.587022 1_555
Cd1 O5 2.587431 1_555
Cd1 O8 2.704318 1_556
Cd1 O9 2.704780 1_555
Cd2 O8 2.283679 1_555
Cd2 O9 2.283726 1_555
Cd2 O0 2.296423 1_555
Cd2 O1 2.361846 1_555
Cd2 O11 2.587005 1_555
Cd2 O10 2.587439 1_555
Cd2 O7 2.704390 1_554
Cd2 O6 2.704851 1_555
Cd3 O1 2.249576 1_645
Cd3 O11 2.283817 1_545
Cd3 O10 2.284000 1_545
Cd3 O0 2.376758 1_655
Cd3 O9 2.545323 1_555
Cd3 O8 2.546016 1_555
Cd3 O5 2.734368 1_654
Cd3 O4 2.735399 1_655
Fe0 O7 1.954575 1_555
Fe0 O8 1.955037 1_566
Fe0 O5 1.960702 1_565
Fe0 O10 1.960808 1_556
Fe0 O2 2.006759 1_565
Fe0 O1 2.006830 1_556
Fe1 O9 1.952845 1_565
Fe1 O6 1.952888 1_555
Fe1 O11 1.962363 1_555
Fe1 O4 1.962508 1_565
Fe1 O1 2.007060 1_555
Fe1 O2 2.007415 1_565
Fe2 O3 1.982600 1_455
Fe2 O0 1.983050 1_556
Fe2 O5 2.007867 1_555
Fe2 O10 2.008063 1_456
Fe2 O7 2.059306 1_555
Fe2 O8 2.059820 1_456
Fe3 O0 1.980342 1_655
Fe3 O3 1.980789 1_555
Fe3 O11 2.006295 1_555
Fe3 O4 2.006561 1_655
Fe3 O9 2.061509 1_555
Fe3 O6 2.061939 1_655
