# generated using pymatgen
data_VCrSe2
_symmetry_space_group_name_H-M   'P 1'
_cell_length_a   3.83812117
_cell_length_b   3.83812117
_cell_length_c   5.66539024
_cell_angle_alpha   89.95069572
_cell_angle_beta   90.04930428
_cell_angle_gamma   119.85210209
_symmetry_Int_Tables_number   1
_chemical_formula_structural   VCrSe2
_chemical_formula_sum   'V1 Cr1 Se2'
_cell_volume   72.38405667
_cell_formula_units_Z   1
loop_
 _symmetry_equiv_pos_site_id
 _symmetry_equiv_pos_as_xyz
  1  'x, y, z'
loop_
 _atom_site_type_symbol
 _atom_site_label
 _atom_site_symmetry_multiplicity
 _atom_site_fract_x
 _atom_site_fract_y
 _atom_site_fract_z
 _atom_site_occupancy
  V  V0  1  0.00000000  0.00000000  0.00000000  1
  Cr  Cr0  1  0.00000000  0.00000000  0.50000000  1
  Se  Se0  1  0.66687100  0.33312900  0.75527800  1
  Se  Se1  1  0.33312900  0.66687100  0.24472200  1
loop_
_geom_bond_atom_site_label_1
_geom_bond_atom_site_label_2
_geom_bond_distance
_geom_bond_site_symmetry_2
Cr0 Se1 2.644818 1_545
Cr0 Se0 2.644818 1_455
Cr0 Se1 2.648867 1_555
Cr0 Se1 2.648867 1_445
Cr0 Se0 2.648867 1_445
Cr0 Se0 2.648867 1_555
Se0 V0 2.610208 1_656
Se0 V0 2.617887 1_666
Se0 V0 2.617887 1_556
Se1 V0 2.610208 1_565
Se1 V0 2.617887 1_555
Se1 V0 2.617887 1_665
