# generated using pymatgen
data_Na2Yb2B2TeO10
_symmetry_space_group_name_H-M   'P 1'
_cell_length_a   10.18324100
_cell_length_b   6.39665300
_cell_length_c   6.81219440
_cell_angle_alpha   76.59987697
_cell_angle_beta   90.00000000
_cell_angle_gamma   90.00000000
_symmetry_Int_Tables_number   1
_chemical_formula_structural   Na2Yb2B2TeO10
_chemical_formula_sum   'Na4 Yb4 B4 Te2 O20'
_cell_volume   431.65663206
_cell_formula_units_Z   2
loop_
 _symmetry_equiv_pos_site_id
 _symmetry_equiv_pos_as_xyz
  1  'x, y, z'
loop_
 _atom_site_type_symbol
 _atom_site_label
 _atom_site_symmetry_multiplicity
 _atom_site_fract_x
 _atom_site_fract_y
 _atom_site_fract_z
 _atom_site_occupancy
  Na  Na0  1  0.60994800  0.41510000  0.16375800  1
  Na  Na1  1  0.10994800  0.58490000  0.33624200  1
  Na  Na2  1  0.39005200  0.58490000  0.83624200  1
  Na  Na3  1  0.89005200  0.41510000  0.66375800  1
  Yb  Yb0  1  0.83210100  0.87641100  0.02184400  1
  Yb  Yb1  1  0.33210100  0.12358900  0.47815600  1
  Yb  Yb2  1  0.16789900  0.12358900  0.97815600  1
  Yb  Yb3  1  0.66789900  0.87641100  0.52184400  1
  B  B0  1  0.40035600  0.66819100  0.36692300  1
  B  B1  1  0.90035600  0.33180900  0.13307700  1
  B  B2  1  0.59964400  0.33180900  0.63307700  1
  B  B3  1  0.09964400  0.66819100  0.86692300  1
  Te  Te0  1  0.50000000  0.00000000  0.00000000  1
  Te  Te1  1  0.00000000  0.00000000  0.50000000  1
  O  O0  1  0.82607300  0.50818000  0.05325900  1
  O  O1  1  0.32607300  0.49182000  0.44674100  1
  O  O2  1  0.17392700  0.49182000  0.94674100  1
  O  O3  1  0.67392700  0.50818000  0.55325900  1
  O  O4  1  0.64596800  0.00615400  0.17617100  1
  O  O5  1  0.14596800  0.99384600  0.32382900  1
  O  O6  1  0.35403200  0.99384600  0.82382900  1
  O  O7  1  0.85403200  0.00615400  0.67617100  1
  O  O8  1  0.43854900  0.70692900  0.16479000  1
  O  O9  1  0.93854900  0.29307100  0.33521000  1
  O  O10  1  0.56145100  0.29307100  0.83521000  1
  O  O11  1  0.06145100  0.70692900  0.66479000  1
  O  O12  1  0.93625600  0.20353800  0.00679200  1
  O  O13  1  0.43625600  0.79646200  0.49320800  1
  O  O14  1  0.06374400  0.79646200  0.99320800  1
  O  O15  1  0.56374400  0.20353800  0.50679200  1
  O  O16  1  0.38885300  0.16215500  0.13605700  1
  O  O17  1  0.88885300  0.83784500  0.36394300  1
  O  O18  1  0.61114700  0.83784500  0.86394300  1
  O  O19  1  0.11114700  0.16215500  0.63605700  1
loop_
_geom_bond_atom_site_label_1
_geom_bond_atom_site_label_2
_geom_bond_distance
_geom_bond_site_symmetry_2
Na0 O0 2.357359 1_555
Na0 O15 2.459208 1_555
Na0 O8 2.556799 1_555
Na0 O10 2.583057 1_554
Na0 O4 2.623361 1_555
Na0 O16 2.804308 1_555
Na0 O3 2.924297 1_555
Na0 O18 2.987322 1_554
Na1 O1 2.357359 1_555
Na1 O14 2.459208 1_554
Na1 O9 2.556799 1_455
Na1 O11 2.583057 1_555
Na1 O5 2.623361 1_555
Na1 O17 2.804308 1_455
Na1 O2 2.924297 1_554
Na1 O19 2.987322 1_555
Na2 O2 2.357359 1_555
Na2 O13 2.459208 1_555
Na2 O10 2.556799 1_555
Na2 O8 2.583057 1_556
Na2 O6 2.623361 1_555
Na2 O18 2.804308 1_555
Na2 O1 2.924297 1_555
Na2 O16 2.987322 1_556
Na3 O3 2.357359 1_555
Na3 O12 2.459208 1_556
Na3 O11 2.556799 1_655
Na3 O9 2.583057 1_555
Na3 O7 2.623361 1_555
Na3 O19 2.804308 1_655
Na3 O0 2.924297 1_556
Na3 O17 2.987322 1_555
B0 O1 1.362470 1_555
B0 O13 1.368986 1_555
B0 O8 1.396626 1_555
B1 O0 1.362470 1_555
B1 O12 1.368986 1_555
B1 O9 1.396626 1_555
B2 O3 1.362470 1_555
B2 O15 1.368986 1_555
B2 O10 1.396626 1_555
B3 O2 1.362470 1_555
B3 O14 1.368986 1_555
B3 O11 1.396626 1_555
O0 Yb0 2.316042 1_555
O1 Yb1 2.316042 1_555
O2 Yb2 2.316042 1_555
O3 Yb3 2.316042 1_555
O4 Te0 1.916554 1_555
O4 Yb3 2.319024 1_545
O4 Yb0 2.406470 1_545
O5 Te1 1.916554 1_565
O5 Yb2 2.319024 1_564
O5 Yb1 2.406470 1_565
O6 Te0 1.916554 1_566
O6 Yb1 2.319024 1_565
O6 Yb2 2.406470 1_565
O7 Te1 1.916554 1_655
O7 Yb0 2.319024 1_546
O7 Yb3 2.406470 1_545
O8 Te0 2.047133 1_565
O9 Te1 2.047133 1_655
O10 Te0 2.047133 1_556
O11 Te1 2.047133 1_565
O12 Yb0 2.326939 1_545
O12 Yb2 2.431075 1_654
O13 Yb1 2.326939 1_565
O13 Yb3 2.431075 1_555
O14 Yb2 2.326939 1_565
O14 Yb0 2.431075 1_456
O15 Yb3 2.326939 1_545
O15 Yb1 2.431075 1_555
O16 Te0 1.913526 1_555
O16 Yb1 2.357828 1_555
O16 Yb2 2.530514 1_554
O17 Te1 1.913526 1_665
O17 Yb0 2.357828 1_555
O17 Yb3 2.530514 1_555
O18 Te0 1.913526 1_566
O18 Yb3 2.357828 1_555
O18 Yb0 2.530514 1_556
O19 Te1 1.913526 1_555
O19 Yb2 2.357828 1_555
O19 Yb1 2.530514 1_555
