# generated using pymatgen
data_Nd5Zr3(Ni4As3)4
_symmetry_space_group_name_H-M   'P 1'
_cell_length_a   12.83739732
_cell_length_b   12.83739732
_cell_length_c   4.00226200
_cell_angle_alpha   90.00000000
_cell_angle_beta   90.00000000
_cell_angle_gamma   119.99999649
_symmetry_Int_Tables_number   1
_chemical_formula_structural   Nd5Zr3(Ni4As3)4
_chemical_formula_sum   'Nd5 Zr3 Ni16 As12'
_cell_volume   571.20253773
_cell_formula_units_Z   1
loop_
 _symmetry_equiv_pos_site_id
 _symmetry_equiv_pos_as_xyz
  1  'x, y, z'
loop_
 _atom_site_type_symbol
 _atom_site_label
 _atom_site_symmetry_multiplicity
 _atom_site_fract_x
 _atom_site_fract_y
 _atom_site_fract_z
 _atom_site_occupancy
  Nd  Nd0  1  0.00000000  0.18714700  0.50000000  1
  Nd  Nd1  1  0.81285300  0.81285300  0.50000000  1
  Nd  Nd2  1  0.18714700  0.00000000  0.50000000  1
  Nd  Nd3  1  0.66666700  0.33333300  0.00000000  1
  Nd  Nd4  1  0.33333300  0.66666700  0.00000000  1
  Zr  Zr0  1  0.00000000  0.56626700  0.00000000  1
  Zr  Zr1  1  0.43373300  0.43373300  0.00000000  1
  Zr  Zr2  1  0.56626700  0.00000000  0.00000000  1
  Ni  Ni0  1  0.00000000  0.72229100  0.50000000  1
  Ni  Ni1  1  0.27770900  0.27770900  0.50000000  1
  Ni  Ni2  1  0.72229100  0.00000000  0.50000000  1
  Ni  Ni3  1  0.80457500  0.18335800  0.00000000  1
  Ni  Ni4  1  0.81664200  0.62121700  0.00000000  1
  Ni  Ni5  1  0.37878300  0.19542500  0.00000000  1
  Ni  Ni6  1  0.18335800  0.80457500  0.00000000  1
  Ni  Ni7  1  0.62121700  0.81664200  0.00000000  1
  Ni  Ni8  1  0.19542500  0.37878300  0.00000000  1
  Ni  Ni9  1  0.88112700  0.36386300  0.50000000  1
  Ni  Ni10  1  0.63613700  0.51726400  0.50000000  1
  Ni  Ni11  1  0.48273600  0.11887300  0.50000000  1
  Ni  Ni12  1  0.36386300  0.88112700  0.50000000  1
  Ni  Ni13  1  0.51726400  0.63613700  0.50000000  1
  Ni  Ni14  1  0.11887300  0.48273600  0.50000000  1
  Ni  Ni15  1  0.00000000  0.00000000  0.00000000  1
  As  As0  1  0.00000000  0.81922500  0.00000000  1
  As  As1  1  0.18077500  0.18077500  0.00000000  1
  As  As2  1  0.81922500  0.00000000  0.00000000  1
  As  As3  1  0.69578300  0.17208400  0.50000000  1
  As  As4  1  0.82791600  0.52369900  0.50000000  1
  As  As5  1  0.47630100  0.30421700  0.50000000  1
  As  As6  1  0.17208400  0.69578300  0.50000000  1
  As  As7  1  0.52369900  0.82791600  0.50000000  1
  As  As8  1  0.30421700  0.47630100  0.50000000  1
  As  As9  1  0.00000000  0.35958200  0.00000000  1
  As  As10  1  0.64041800  0.64041800  0.00000000  1
  As  As11  1  0.35958200  0.00000000  0.00000000  1
loop_
_geom_bond_atom_site_label_1
_geom_bond_atom_site_label_2
_geom_bond_distance
_geom_bond_site_symmetry_2
Nd0 Ni15 3.126729 1_556
Nd0 Ni15 3.126729 1_555
Nd0 Ni1 3.149061 1_555
Nd0 Ni2 3.149061 1_455
Nd0 Ni3 3.190405 1_455
Nd0 Ni3 3.190405 1_456
Nd0 Ni8 3.190405 1_555
Nd0 Ni8 3.190405 1_556
Nd0 Ni9 3.307121 1_455
Nd0 Ni14 3.307121 1_555
Nd1 Ni15 3.126730 1_666
Nd1 Ni15 3.126730 1_665
Nd1 Ni0 3.149060 1_655
Nd1 Ni2 3.149060 1_565
Nd1 Ni4 3.190405 1_555
Nd1 Ni4 3.190405 1_556
Nd1 Ni7 3.190405 1_556
Nd1 Ni7 3.190405 1_555
Nd1 Ni10 3.307121 1_555
Nd1 Ni13 3.307121 1_555
Nd2 Ni15 3.126729 1_556
Nd2 Ni15 3.126729 1_555
Nd2 Ni1 3.149061 1_555
Nd2 Ni0 3.149061 1_545
Nd2 Ni6 3.190405 1_545
Nd2 Ni6 3.190405 1_546
Nd2 Ni5 3.190405 1_555
Nd2 Ni5 3.190405 1_556
Nd2 Ni12 3.307121 1_545
Nd2 Ni11 3.307121 1_555
Nd3 Ni3 3.201480 1_555
Nd3 Ni4 3.201491 1_555
Nd3 Ni5 3.201491 1_555
Nd3 Ni9 3.264770 1_555
Nd3 Ni9 3.264770 1_554
Nd3 Ni11 3.264774 1_555
Nd3 Ni11 3.264774 1_554
Nd3 Ni10 3.264780 1_555
Nd3 Ni10 3.264780 1_554
Nd4 Ni6 3.201480 1_555
Nd4 Ni7 3.201491 1_555
Nd4 Ni8 3.201491 1_555
Nd4 Ni12 3.264770 1_555
Nd4 Ni12 3.264770 1_554
Nd4 Ni14 3.264774 1_554
Nd4 Ni14 3.264774 1_555
Nd4 Ni13 3.264780 1_555
Nd4 Ni13 3.264780 1_554
Ni0 Zr0 2.831308 1_556
Ni0 Zr0 2.831308 1_555
Ni1 Zr1 2.831308 1_555
Ni1 Zr1 2.831308 1_556
Ni2 Zr2 2.831308 1_555
Ni2 Zr2 2.831308 1_556
Ni3 Zr2 2.774636 1_555
Ni4 Zr0 2.774636 1_655
Ni5 Zr1 2.774636 1_555
Ni6 Zr0 2.774636 1_555
Ni7 Zr2 2.774636 1_565
Ni8 Zr1 2.774636 1_555
Ni9 Zr0 3.019854 1_655
Ni9 Zr0 3.019854 1_656
Ni10 Zr1 3.019854 1_556
Ni10 Zr1 3.019854 1_555
Ni11 Zr2 3.019854 1_555
Ni11 Zr2 3.019854 1_556
Ni12 Zr2 3.019854 1_565
Ni12 Zr2 3.019854 1_566
Ni13 Zr1 3.019854 1_556
Ni13 Zr1 3.019854 1_555
Ni14 Zr0 3.019854 1_556
Ni14 Zr0 3.019854 1_555
As0 Ni15 2.320681 1_565
As0 Ni0 2.356482 1_555
As0 Ni0 2.356482 1_554
As0 Ni6 2.453286 1_555
As0 Ni4 2.453286 1_455
As0 Nd1 3.096224 1_455
As0 Nd1 3.096224 1_454
As0 Nd2 3.096225 1_564
As0 Nd2 3.096225 1_565
As1 Ni15 2.320681 1_555
As1 Ni1 2.356482 1_555
As1 Ni1 2.356482 1_554
As1 Ni8 2.453286 1_555
As1 Ni5 2.453286 1_555
As1 Nd0 3.096224 1_555
As1 Nd2 3.096224 1_554
As1 Nd0 3.096224 1_554
As1 Nd2 3.096224 1_555
As2 Ni15 2.320681 1_655
As2 Ni2 2.356482 1_554
As2 Ni2 2.356482 1_555
As2 Ni3 2.453286 1_555
As2 Ni7 2.453286 1_545
As2 Nd1 3.096224 1_544
As2 Nd1 3.096224 1_545
As2 Nd0 3.096225 1_654
As2 Nd0 3.096225 1_655
As3 Ni2 2.397440 1_555
As3 Ni3 2.402884 1_555
As3 Ni3 2.402884 1_556
As3 Ni9 2.421696 1_555
As3 Ni11 2.465449 1_555
As3 Zr2 2.824203 1_556
As3 Zr2 2.824203 1_555
As3 Nd3 3.033632 1_556
As3 Nd3 3.033632 1_555
As4 Ni0 2.397440 1_655
As4 Ni4 2.402884 1_556
As4 Ni4 2.402884 1_555
As4 Ni10 2.421696 1_555
As4 Ni9 2.465448 1_555
As4 Zr0 2.824203 1_655
As4 Zr0 2.824203 1_656
As4 Nd3 3.033638 1_556
As4 Nd3 3.033638 1_555
As5 Ni1 2.397440 1_555
As5 Ni5 2.402884 1_555
As5 Ni5 2.402884 1_556
As5 Ni11 2.421696 1_555
As5 Ni10 2.465449 1_555
As5 Zr1 2.824203 1_555
As5 Zr1 2.824203 1_556
As5 Nd3 3.033641 1_555
As5 Nd3 3.033641 1_556
As6 Ni0 2.397440 1_555
As6 Ni6 2.402884 1_555
As6 Ni6 2.402884 1_556
As6 Ni12 2.421696 1_555
As6 Ni14 2.465449 1_555
As6 Zr0 2.824203 1_556
As6 Zr0 2.824203 1_555
As6 Nd4 3.033632 1_555
As6 Nd4 3.033632 1_556
As7 Ni2 2.397440 1_565
As7 Ni7 2.402884 1_556
As7 Ni7 2.402884 1_555
As7 Ni13 2.421696 1_555
As7 Ni12 2.465448 1_555
As7 Zr2 2.824203 1_565
As7 Zr2 2.824203 1_566
As7 Nd4 3.033638 1_555
As7 Nd4 3.033638 1_556
As8 Ni1 2.397440 1_555
As8 Ni8 2.402884 1_555
As8 Ni8 2.402884 1_556
As8 Ni14 2.421696 1_555
As8 Ni13 2.465449 1_555
As8 Zr1 2.824203 1_555
As8 Zr1 2.824203 1_556
As8 Nd4 3.033641 1_556
As8 Nd4 3.033641 1_555
As9 Ni8 2.395035 1_555
As9 Ni3 2.395035 1_455
As9 Ni9 2.533801 1_455
As9 Ni9 2.533801 1_454
As9 Ni14 2.533801 1_555
As9 Ni14 2.533801 1_554
As9 Zr0 2.653297 1_555
As9 Nd0 2.984062 1_554
As9 Nd0 2.984062 1_555
As10 Ni7 2.395035 1_555
As10 Ni4 2.395035 1_555
As10 Ni10 2.533801 1_555
As10 Ni13 2.533801 1_555
As10 Ni13 2.533801 1_554
As10 Ni10 2.533801 1_554
As10 Zr1 2.653298 1_555
As10 Nd1 2.984062 1_554
As10 Nd1 2.984062 1_555
As11 Ni5 2.395035 1_555
As11 Ni6 2.395035 1_545
As11 Ni12 2.533801 1_545
As11 Ni12 2.533801 1_544
As11 Ni11 2.533801 1_555
As11 Ni11 2.533801 1_554
As11 Zr2 2.653297 1_555
As11 Nd2 2.984062 1_555
As11 Nd2 2.984062 1_554
