# generated using pymatgen
data_Sr3MgFe2S2O5
_symmetry_space_group_name_H-M   'P 1'
_cell_length_a   14.09979413
_cell_length_b   14.09979413
_cell_length_c   14.09979413
_cell_angle_alpha   163.86251267
_cell_angle_beta   163.86251267
_cell_angle_gamma   22.89858494
_symmetry_Int_Tables_number   1
_chemical_formula_structural   Sr3MgFe2S2O5
_chemical_formula_sum   'Sr3 Mg1 Fe2 S2 O5'
_cell_volume   216.50240725
_cell_formula_units_Z   1
loop_
 _symmetry_equiv_pos_site_id
 _symmetry_equiv_pos_as_xyz
  1  'x, y, z'
loop_
 _atom_site_type_symbol
 _atom_site_label
 _atom_site_symmetry_multiplicity
 _atom_site_fract_x
 _atom_site_fract_y
 _atom_site_fract_z
 _atom_site_occupancy
  Sr  Sr0  1  0.50000000  0.50000000  0.00000000  1
  Sr  Sr1  1  0.63759600  0.63759600  0.00000000  1
  Sr  Sr2  1  0.36240400  0.36240400  0.00000000  1
  Mg  Mg0  1  0.75000000  0.25000000  0.50000000  1
  Fe  Fe0  1  0.06968200  0.06968200  0.00000000  1
  Fe  Fe1  1  0.93031800  0.93031800  0.00000000  1
  S  S0  1  0.19367700  0.19367700  0.00000000  1
  S  S1  1  0.80632300  0.80632300  0.00000000  1
  O  O0  1  0.07913100  0.57913100  0.50000000  1
  O  O1  1  0.58017900  0.08017900  0.50000000  1
  O  O2  1  0.91982100  0.41982100  0.50000000  1
  O  O3  1  0.42086900  0.92086900  0.50000000  1
  O  O4  1  0.00000000  0.00000000  0.00000000  1
loop_
_geom_bond_atom_site_label_1
_geom_bond_atom_site_label_2
_geom_bond_distance
_geom_bond_site_symmetry_2
Mg0 S0 2.517924 1_656
Mg0 S1 2.517924 1_556
Mg0 S0 2.517924 1_555
Mg0 S1 2.517924 1_545
Fe0 O4 1.925902 1_555
Fe0 O0 1.996220 1_544
Fe0 O0 1.996220 1_555
Fe0 O1 2.000215 1_454
Fe0 O1 2.000215 1_555
Fe1 O4 1.925902 1_665
Fe1 O3 1.996220 1_655
Fe1 O3 1.996220 1_554
Fe1 O2 2.000215 1_565
Fe1 O2 2.000215 1_554
S0 Sr1 3.199352 1_556
S0 Sr1 3.199352 1_444
S0 Sr1 3.199352 1_545
S0 Sr1 3.199352 1_455
S1 Sr2 3.199352 1_565
S1 Sr2 3.199352 1_655
S1 Sr2 3.199352 1_666
S1 Sr2 3.199352 1_554
O0 Sr1 2.554949 1_556
O0 Sr1 2.554949 1_455
O0 Sr0 2.949561 1_556
O0 Sr0 2.949561 1_455
O1 Sr1 2.536729 1_556
O1 Sr1 2.536729 1_545
O1 Sr0 2.971102 1_556
O1 Sr0 2.971102 1_545
O2 Sr2 2.536729 1_656
O2 Sr2 2.536729 1_555
O2 Sr0 2.971102 1_555
O2 Sr0 2.971102 1_656
O3 Sr2 2.554949 1_555
O3 Sr2 2.554949 1_566
O3 Sr0 2.949561 1_555
O3 Sr0 2.949561 1_566
O4 Sr0 2.798818 1_556
O4 Sr0 2.798818 1_444
O4 Sr0 2.798818 1_545
O4 Sr0 2.798818 1_455
