# generated using pymatgen
data_Rb3SbSe4
_symmetry_space_group_name_H-M   'P 1'
_cell_length_a   9.96770840
_cell_length_b   10.35305399
_cell_length_c   11.57175110
_cell_angle_alpha   90.00000000
_cell_angle_beta   90.00000000
_cell_angle_gamma   90.00000000
_symmetry_Int_Tables_number   1
_chemical_formula_structural   Rb3SbSe4
_chemical_formula_sum   'Rb12 Sb4 Se16'
_cell_volume   1194.16100958
_cell_formula_units_Z   4
loop_
 _symmetry_equiv_pos_site_id
 _symmetry_equiv_pos_as_xyz
  1  'x, y, z'
loop_
 _atom_site_type_symbol
 _atom_site_label
 _atom_site_symmetry_multiplicity
 _atom_site_fract_x
 _atom_site_fract_y
 _atom_site_fract_z
 _atom_site_occupancy
  Rb  Rb0  1  0.93439420  0.30180717  0.95547279  1
  Rb  Rb1  1  0.43439420  0.19819283  0.95547279  1
  Rb  Rb2  1  0.56560580  0.80180717  0.45547279  1
  Rb  Rb3  1  0.06560580  0.69819283  0.04452721  1
  Rb  Rb4  1  0.13799649  0.91892426  0.75000000  1
  Rb  Rb5  1  0.63799649  0.58107574  0.75000000  1
  Rb  Rb6  1  0.36200351  0.41892426  0.25000000  1
  Rb  Rb7  1  0.86200351  0.08107574  0.25000000  1
  Rb  Rb8  1  0.06560580  0.69819283  0.45547279  1
  Rb  Rb9  1  0.43439420  0.19819283  0.54452721  1
  Rb  Rb10  1  0.56560580  0.80180717  0.04452721  1
  Rb  Rb11  1  0.93439420  0.30180717  0.54452721  1
  Sb  Sb0  1  0.77831075  0.52038256  0.25000000  1
  Sb  Sb1  1  0.27831075  0.97961744  0.25000000  1
  Sb  Sb2  1  0.72168925  0.02038256  0.75000000  1
  Sb  Sb3  1  0.22168925  0.47961744  0.75000000  1
  Se  Se0  1  0.65022542  0.46702088  0.07199490  1
  Se  Se1  1  0.15022542  0.03297912  0.42800510  1
  Se  Se2  1  0.84977458  0.96702088  0.92800510  1
  Se  Se3  1  0.34977458  0.53297912  0.57199490  1
  Se  Se4  1  0.34977458  0.53297912  0.92800510  1
  Se  Se5  1  0.84977458  0.96702088  0.57199490  1
  Se  Se6  1  0.15022542  0.03297912  0.07199490  1
  Se  Se7  1  0.65022542  0.46702088  0.42800510  1
  Se  Se8  1  0.00131559  0.59516508  0.75000000  1
  Se  Se9  1  0.50131559  0.90483492  0.75000000  1
  Se  Se10  1  0.49868441  0.09516508  0.25000000  1
  Se  Se11  1  0.99868441  0.40483492  0.25000000  1
  Se  Se12  1  0.17832637  0.24309391  0.75000000  1
  Se  Se13  1  0.82167363  0.75690609  0.25000000  1
  Se  Se14  1  0.32167363  0.74309391  0.25000000  1
  Se  Se15  1  0.67832637  0.25690609  0.75000000  1
loop_
_geom_bond_atom_site_label_1
_geom_bond_atom_site_label_2
_geom_bond_distance
_geom_bond_site_symmetry_2
Rb0 Se12 3.454675 1_655
Rb0 Se15 3.519127 1_555
Rb0 Se0 3.573081 1_556
Rb0 Se2 3.581345 1_545
Rb0 Se11 3.628250 1_556
Rb0 Se6 3.767296 1_656
Rb0 Se8 3.914410 1_655
Rb1 Se15 3.454675 1_555
Rb1 Se12 3.519127 1_555
Rb1 Se6 3.573081 1_556
Rb1 Se4 3.581345 1_555
Rb1 Se10 3.628250 1_556
Rb1 Se0 3.767296 1_556
Rb1 Se9 3.914410 1_545
Rb2 Se14 3.454675 1_555
Rb2 Se13 3.519127 1_555
Rb2 Se5 3.573081 1_555
Rb2 Se7 3.581345 1_555
Rb2 Se9 3.628250 1_555
Rb2 Se3 3.767296 1_555
Rb2 Se10 3.914410 1_565
Rb3 Se13 3.454675 1_455
Rb3 Se14 3.519127 1_555
Rb3 Se4 3.573081 1_554
Rb3 Se6 3.581345 1_565
Rb3 Se8 3.628250 1_554
Rb3 Se2 3.767296 1_454
Rb3 Se11 3.914410 1_455
Rb4 Se12 3.380136 1_565
Rb4 Se2 3.569941 1_455
Rb4 Se5 3.569941 1_455
Rb4 Se8 3.618194 1_555
Rb4 Se9 3.624395 1_555
Rb4 Se6 3.910575 1_566
Rb4 Se1 3.910575 1_565
Rb5 Se15 3.380136 1_555
Rb5 Se4 3.569941 1_555
Rb5 Se3 3.569941 1_555
Rb5 Se9 3.618194 1_555
Rb5 Se8 3.624395 1_655
Rb5 Se0 3.910575 1_556
Rb5 Se7 3.910575 1_555
Rb6 Se14 3.380136 1_555
Rb6 Se7 3.569941 1_555
Rb6 Se0 3.569941 1_555
Rb6 Se10 3.618194 1_555
Rb6 Se11 3.624395 1_455
Rb6 Se3 3.910575 1_555
Rb6 Se4 3.910575 1_554
Rb7 Se13 3.380136 1_545
Rb7 Se1 3.569941 1_655
Rb7 Se6 3.569941 1_655
Rb7 Se11 3.618194 1_555
Rb7 Se10 3.624395 1_555
Rb7 Se5 3.910575 1_545
Rb7 Se2 3.910575 1_544
Rb8 Se13 3.454675 1_455
Rb8 Se14 3.519127 1_555
Rb8 Se3 3.573081 1_555
Rb8 Se1 3.581345 1_565
Rb8 Se8 3.628250 1_555
Rb8 Se5 3.767296 1_455
Rb8 Se11 3.914410 1_455
Rb9 Se15 3.454675 1_555
Rb9 Se12 3.519127 1_555
Rb9 Se1 3.573081 1_555
Rb9 Se3 3.581345 1_555
Rb9 Se10 3.628250 1_555
Rb9 Se7 3.767296 1_555
Rb9 Se9 3.914410 1_545
Rb10 Se14 3.454675 1_555
Rb10 Se13 3.519127 1_555
Rb10 Se2 3.573081 1_554
Rb10 Se0 3.581345 1_555
Rb10 Se9 3.628250 1_554
Rb10 Se4 3.767296 1_554
Rb10 Se10 3.914410 1_565
Rb11 Se12 3.454675 1_655
Rb11 Se15 3.519127 1_555
Rb11 Se7 3.573081 1_555
Rb11 Se5 3.581345 1_545
Rb11 Se11 3.628250 1_555
Rb11 Se1 3.767296 1_655
Rb11 Se8 3.914410 1_655
Sb0 Se7 2.485582 1_555
Sb0 Se0 2.485582 1_555
Sb0 Se13 2.486595 1_555
Sb0 Se11 2.501241 1_555
Sb1 Se1 2.485582 1_565
Sb1 Se6 2.485582 1_565
Sb1 Se14 2.486595 1_555
Sb1 Se10 2.501241 1_565
Sb2 Se2 2.485582 1_545
Sb2 Se5 2.485582 1_545
Sb2 Se15 2.486595 1_555
Sb2 Se9 2.501241 1_545
Sb3 Se4 2.485582 1_555
Sb3 Se3 2.485582 1_555
Sb3 Se12 2.486595 1_555
Sb3 Se8 2.501241 1_555
