# generated using pymatgen
data_Mg6TiNi
_symmetry_space_group_name_H-M   'P 1'
_cell_length_a   4.76109500
_cell_length_b   6.02523800
_cell_length_c   10.89647500
_cell_angle_alpha   90.00000000
_cell_angle_beta   90.00000000
_cell_angle_gamma   90.00000000
_symmetry_Int_Tables_number   1
_chemical_formula_structural   Mg6TiNi
_chemical_formula_sum   'Mg12 Ti2 Ni2'
_cell_volume   312.58424190
_cell_formula_units_Z   2
loop_
 _symmetry_equiv_pos_site_id
 _symmetry_equiv_pos_as_xyz
  1  'x, y, z'
loop_
 _atom_site_type_symbol
 _atom_site_label
 _atom_site_symmetry_multiplicity
 _atom_site_fract_x
 _atom_site_fract_y
 _atom_site_fract_z
 _atom_site_occupancy
  Mg  Mg0  1  0.00000000  0.74105300  0.08406600  1
  Mg  Mg1  1  0.00000000  0.25894700  0.08406600  1
  Mg  Mg2  1  0.00000000  0.00000000  0.32786600  1
  Mg  Mg3  1  0.50000000  0.25768500  0.42210700  1
  Mg  Mg4  1  0.50000000  0.74231500  0.42210700  1
  Mg  Mg5  1  0.50000000  0.00000000  0.16753000  1
  Mg  Mg6  1  0.00000000  0.24105300  0.58406600  1
  Mg  Mg7  1  0.00000000  0.75894700  0.58406600  1
  Mg  Mg8  1  0.00000000  0.50000000  0.82786600  1
  Mg  Mg9  1  0.50000000  0.75768500  0.92210700  1
  Mg  Mg10  1  0.50000000  0.24231500  0.92210700  1
  Mg  Mg11  1  0.50000000  0.50000000  0.66753000  1
  Ti  Ti0  1  0.50000000  0.50000000  0.18978000  1
  Ti  Ti1  1  0.50000000  0.00000000  0.68978000  1
  Ni  Ni0  1  0.00000000  0.50000000  0.30247700  1
  Ni  Ni1  1  0.00000000  0.00000000  0.80247700  1
loop_
_geom_bond_atom_site_label_1
_geom_bond_atom_site_label_2
_geom_bond_distance
_geom_bond_site_symmetry_2
Mg0 Ni0 2.788089 1_555
Mg0 Mg1 2.904803 1_555
Mg0 Mg9 2.965047 1_554
Mg0 Mg9 2.965047 1_454
Mg0 Mg5 2.988044 1_565
Mg0 Mg5 2.988044 1_465
Mg0 Ti0 3.017180 1_455
Mg0 Ti0 3.017180 1_555
Mg0 Mg2 3.080843 1_565
Mg0 Mg1 3.120435 1_565
Mg0 Mg8 3.146892 1_554
Mg1 Ni0 2.788089 1_555
Mg1 Mg10 2.965047 1_454
Mg1 Mg10 2.965047 1_554
Mg1 Mg5 2.988044 1_455
Mg1 Mg5 2.988044 1_555
Mg1 Ti0 3.017180 1_455
Mg1 Ti0 3.017180 1_555
Mg1 Mg2 3.080843 1_555
Mg1 Mg8 3.146892 1_554
Mg2 Mg5 2.952855 1_455
Mg2 Mg5 2.952855 1_555
Mg2 Mg3 3.021941 1_555
Mg2 Mg4 3.021941 1_445
Mg2 Mg3 3.021941 1_455
Mg2 Mg4 3.021941 1_545
Mg2 Ni0 3.025295 1_555
Mg2 Ni0 3.025295 1_545
Mg2 Mg6 3.146892 1_555
Mg2 Mg7 3.146892 1_545
Mg3 Mg4 2.920011 1_555
Mg3 Ti0 2.922386 1_555
Mg3 Mg6 2.965047 1_655
Mg3 Mg6 2.965047 1_555
Mg3 Ni0 3.081859 1_655
Mg3 Ni0 3.081859 1_555
Mg3 Mg4 3.105227 1_545
Mg3 Mg5 3.178937 1_555
Mg3 Ti1 3.304195 1_555
Mg4 Ti0 2.922386 1_555
Mg4 Mg7 2.965047 1_555
Mg4 Mg7 2.965047 1_655
Mg4 Ni0 3.081859 1_655
Mg4 Ni0 3.081859 1_555
Mg4 Mg5 3.178937 1_565
Mg4 Ti1 3.304195 1_565
Mg5 Ti0 3.022359 1_545
Mg5 Ti0 3.022359 1_555
Mg5 Mg9 3.046835 1_544
Mg6 Ni1 2.788089 1_555
Mg6 Mg7 2.904803 1_545
Mg6 Ti1 3.017180 1_555
Mg6 Ti1 3.017180 1_455
Mg6 Mg8 3.080843 1_555
Mg6 Mg7 3.120435 1_555
Mg7 Ni1 2.788089 1_565
Mg7 Ti1 3.017180 1_565
Mg7 Ti1 3.017180 1_465
Mg7 Mg8 3.080843 1_555
Mg8 Mg9 3.021941 1_455
Mg8 Mg9 3.021941 1_555
Mg8 Ni1 3.025295 1_565
Mg8 Ni1 3.025295 1_555
Mg9 Ti1 2.922386 1_565
Mg9 Ni1 3.081859 1_565
Mg9 Ni1 3.081859 1_665
Mg9 Ti0 3.304195 1_556
Mg10 Mg9 2.920011 1_545
Mg10 Ti1 2.922386 1_555
Mg10 Mg8 3.021941 1_655
Mg10 Mg8 3.021941 1_555
Mg10 Mg5 3.046835 1_556
Mg10 Ni1 3.081859 1_655
Mg10 Ni1 3.081859 1_555
Mg10 Mg9 3.105227 1_555
Mg10 Mg11 3.178937 1_555
Mg10 Ti0 3.304195 1_556
Mg11 Mg8 2.952855 1_655
Mg11 Mg8 2.952855 1_555
Mg11 Mg7 2.988044 1_655
Mg11 Mg7 2.988044 1_555
Mg11 Mg6 2.988044 1_555
Mg11 Mg6 2.988044 1_655
Mg11 Ti1 3.022359 1_565
Mg11 Ti1 3.022359 1_555
Mg11 Mg4 3.046835 1_555
Mg11 Mg3 3.046835 1_555
Mg11 Mg9 3.178937 1_555
Ni0 Ti0 2.678617 1_555
Ni0 Ti0 2.678617 1_455
Ni1 Ti1 2.678617 1_455
Ni1 Ti1 2.678617 1_555
