# generated using pymatgen
data_KLiDyF5
_symmetry_space_group_name_H-M   'P 1'
_cell_length_a   6.43494672
_cell_length_b   6.26276227
_cell_length_c   11.66117988
_cell_angle_alpha   90.00000000
_cell_angle_beta   90.00000000
_cell_angle_gamma   113.58188200
_symmetry_Int_Tables_number   1
_chemical_formula_structural   KLiDyF5
_chemical_formula_sum   'K4 Li4 Dy4 F20'
_cell_volume   430.70584648
_cell_formula_units_Z   4
loop_
 _symmetry_equiv_pos_site_id
 _symmetry_equiv_pos_as_xyz
  1  'x, y, z'
loop_
 _atom_site_type_symbol
 _atom_site_label
 _atom_site_symmetry_multiplicity
 _atom_site_fract_x
 _atom_site_fract_y
 _atom_site_fract_z
 _atom_site_occupancy
  K  K0  1  0.94710384  0.96251439  0.34898125  1
  K  K1  1  0.05289616  0.03748561  0.65101875  1
  K  K2  1  0.05289616  0.53748561  0.84898125  1
  K  K3  1  0.94710384  0.46251439  0.15101875  1
  Li  Li0  1  0.55904174  0.96123009  0.74463725  1
  Li  Li1  1  0.44095826  0.03876991  0.25536275  1
  Li  Li2  1  0.44095826  0.53876991  0.24463725  1
  Li  Li3  1  0.55904174  0.46123009  0.75536275  1
  Dy  Dy0  1  0.68232620  0.82028276  0.99708560  1
  Dy  Dy1  1  0.31767380  0.17971724  0.00291440  1
  Dy  Dy2  1  0.31767380  0.67971724  0.49708560  1
  Dy  Dy3  1  0.68232620  0.32028276  0.50291440  1
  F  F0  1  0.72091014  0.77703863  0.80312887  1
  F  F1  1  0.27908986  0.22296137  0.19687113  1
  F  F2  1  0.27908986  0.72296137  0.30312887  1
  F  F3  1  0.72091014  0.27703863  0.69687113  1
  F  F4  1  0.66562274  0.95094883  0.53249124  1
  F  F5  1  0.33437726  0.04905117  0.46750876  1
  F  F6  1  0.33437726  0.54905117  0.03249124  1
  F  F7  1  0.66562274  0.45094883  0.96750876  1
  F  F8  1  0.95642039  0.67525651  0.50729192  1
  F  F9  1  0.04357961  0.32474349  0.49270808  1
  F  F10  1  0.04357961  0.82474349  0.00729192  1
  F  F11  1  0.95642039  0.17525651  0.99270808  1
  F  F12  1  0.46338703  0.96540637  0.89414108  1
  F  F13  1  0.53661297  0.03459363  0.10585892  1
  F  F14  1  0.53661297  0.53459363  0.39414108  1
  F  F15  1  0.46338703  0.46540637  0.60585892  1
  F  F16  1  0.28921602  0.78113640  0.67511503  1
  F  F17  1  0.71078398  0.21886360  0.32488497  1
  F  F18  1  0.71078398  0.71886360  0.17511503  1
  F  F19  1  0.28921602  0.28113640  0.82488497  1
loop_
_geom_bond_atom_site_label_1
_geom_bond_atom_site_label_2
_geom_bond_distance
_geom_bond_site_symmetry_2
Dy0 F18 2.199988 1_556
Dy0 F11 2.217755 1_565
Dy0 F6 2.241883 1_556
Dy0 F12 2.297079 1_555
Dy0 F7 2.298214 1_555
Dy0 F13 2.301412 1_566
Dy0 F0 2.303123 1_555
Dy0 F10 2.316671 1_656
Dy1 F19 2.199988 1_554
Dy1 F10 2.217755 1_545
Dy1 F7 2.241883 1_554
Dy1 F13 2.297079 1_555
Dy1 F6 2.298214 1_555
Dy1 F12 2.301412 1_544
Dy1 F1 2.303123 1_555
Dy1 F11 2.316671 1_454
Dy2 F16 2.199988 1_555
Dy2 F9 2.217755 1_555
Dy2 F4 2.241883 1_555
Dy2 F14 2.297079 1_555
Dy2 F5 2.298214 1_565
Dy2 F15 2.301412 1_555
Dy2 F2 2.303123 1_555
Dy2 F8 2.316671 1_455
Dy3 F17 2.199988 1_555
Dy3 F8 2.217755 1_555
Dy3 F5 2.241883 1_555
Dy3 F15 2.297079 1_555
Dy3 F4 2.298214 1_545
Dy3 F14 2.301412 1_555
Dy3 F3 2.303123 1_555
Dy3 F9 2.316671 1_655
F0 Li3 1.912770 1_555
F0 Li0 1.960166 1_555
F0 K1 2.753654 1_665
F0 K2 3.108846 1_655
F1 Li2 1.912770 1_555
F1 Li1 1.960166 1_555
F1 K0 2.753654 1_445
F1 K3 3.108846 1_455
F2 Li1 1.912770 1_565
F2 Li2 1.960166 1_555
F2 K3 2.753654 1_455
F2 K0 3.108846 1_455
F3 Li0 1.912770 1_545
F3 Li3 1.960166 1_555
F3 K2 2.753654 1_655
F3 K1 3.108846 1_655
F4 Li0 2.574861 1_555
F4 K1 2.708127 1_665
F4 K0 2.785766 1_555
F5 Li1 2.574861 1_555
F5 K0 2.708127 1_445
F5 K1 2.785766 1_555
F6 Li2 2.574861 1_555
F6 K3 2.708127 1_455
F6 K2 2.785766 1_554
F7 Li3 2.574861 1_555
F7 K2 2.708127 1_655
F7 K3 2.785766 1_556
F8 K0 2.595079 1_555
F8 K1 2.685882 1_665
F9 K1 2.595079 1_555
F9 K0 2.685882 1_445
F10 K2 2.595079 1_554
F10 K3 2.685882 1_455
F11 K3 2.595079 1_556
F11 K2 2.685882 1_655
F12 Li0 1.852528 1_555
F12 K2 2.961905 1_555
F13 Li1 1.852528 1_555
F13 K3 2.961905 1_555
F14 Li2 1.852528 1_555
F14 K0 2.961905 1_555
F15 Li3 1.852528 1_555
F15 K1 2.961905 1_555
F16 Li0 1.837727 1_555
F16 K2 2.625839 1_555
F16 K1 2.631048 1_565
F17 Li1 1.837727 1_555
F17 K3 2.625839 1_555
F17 K0 2.631048 1_545
F18 Li2 1.837727 1_555
F18 K0 2.625839 1_555
F18 K3 2.631048 1_555
F19 Li3 1.837727 1_555
F19 K1 2.625839 1_555
F19 K2 2.631048 1_555
