# generated using pymatgen
data_Bi2O3
_symmetry_space_group_name_H-M   'P 1'
_cell_length_a   5.67528238
_cell_length_b   5.67528238
_cell_length_c   5.67528194
_cell_angle_alpha   88.84776286
_cell_angle_beta   88.84776286
_cell_angle_gamma   88.84777686
_symmetry_Int_Tables_number   1
_chemical_formula_structural   Bi2O3
_chemical_formula_sum   'Bi4 O6'
_cell_volume   182.68477103
_cell_formula_units_Z   2
loop_
 _symmetry_equiv_pos_site_id
 _symmetry_equiv_pos_as_xyz
  1  'x, y, z'
loop_
 _atom_site_type_symbol
 _atom_site_label
 _atom_site_symmetry_multiplicity
 _atom_site_fract_x
 _atom_site_fract_y
 _atom_site_fract_z
 _atom_site_occupancy
  Bi  Bi0  1  0.02177138  0.52141799  0.52141799  1
  Bi  Bi1  1  0.52141799  0.52141799  0.02177138  1
  Bi  Bi2  1  0.52141799  0.02177138  0.52141799  1
  Bi  Bi3  1  0.00663434  0.00663434  0.00663434  1
  O  O0  1  0.65532428  0.26360927  0.26360927  1
  O  O1  1  0.26360927  0.26360927  0.65532428  1
  O  O2  1  0.26360927  0.65532428  0.26360927  1
  O  O3  1  0.16008740  0.76506353  0.76506353  1
  O  O4  1  0.76506353  0.76506353  0.16008740  1
  O  O5  1  0.76506353  0.16008740  0.76506353  1
loop_
_geom_bond_atom_site_label_1
_geom_bond_atom_site_label_2
_geom_bond_distance
_geom_bond_site_symmetry_2
Bi0 O2 2.125681 1_555
Bi0 O1 2.125682 1_555
Bi0 O3 2.145795 1_555
Bi1 O2 2.125681 1_555
Bi1 O0 2.125681 1_555
Bi1 O4 2.145795 1_555
Bi2 O0 2.125681 1_555
Bi2 O1 2.125682 1_555
Bi2 O5 2.145795 1_555
Bi3 O4 2.120658 1_445
Bi3 O3 2.120658 1_544
Bi3 O5 2.120658 1_454
