# generated using pymatgen
data_Cr5Te8
_symmetry_space_group_name_H-M   'P 1'
_cell_length_a   7.35095758
_cell_length_b   7.35095570
_cell_length_c   7.92020473
_cell_angle_alpha   106.22086223
_cell_angle_beta   105.13680721
_cell_angle_gamma   114.68830213
_symmetry_Int_Tables_number   1
_chemical_formula_structural   Cr5Te8
_chemical_formula_sum   'Cr5 Te8'
_cell_volume   336.55475288
_cell_formula_units_Z   1
loop_
 _symmetry_equiv_pos_site_id
 _symmetry_equiv_pos_as_xyz
  1  'x, y, z'
loop_
 _atom_site_type_symbol
 _atom_site_label
 _atom_site_symmetry_multiplicity
 _atom_site_fract_x
 _atom_site_fract_y
 _atom_site_fract_z
 _atom_site_occupancy
  Cr  Cr0  1  0.26548096  0.76548096  0.50000000  1
  Cr  Cr1  1  0.73451904  0.23451904  0.50000000  1
  Cr  Cr2  1  0.26553752  0.74429614  0.00983466  1
  Cr  Cr3  1  0.73446248  0.25570386  0.99016534  1
  Cr  Cr4  1  0.00000000  -0.00000000  0.00000000  1
  Te  Te0  1  0.54579712  0.78852871  0.33432583  1
  Te  Te1  1  0.45420288  0.21147129  0.66567417  1
  Te  Te2  1  0.45709331  0.20241093  0.16894032  1
  Te  Te3  1  0.54290669  0.79758907  0.83105968  1
  Te  Te4  1  0.03347061  0.28815299  0.83105968  1
  Te  Te5  1  0.96652939  0.71184701  0.16894032  1
  Te  Te6  1  0.02757530  0.29866032  0.32623462  1
  Te  Te7  1  0.97242470  0.70133968  0.67376538  1
loop_
_geom_bond_atom_site_label_1
_geom_bond_atom_site_label_2
_geom_bond_distance
_geom_bond_site_symmetry_2
Cr0 Te1 2.690947 1_565
Cr0 Te0 2.690947 1_555
Cr0 Te3 2.747613 1_555
Cr0 Te5 2.747613 1_455
Cr0 Te6 2.796341 1_555
Cr0 Te7 2.796347 1_455
Cr1 Te0 2.690947 1_545
Cr1 Te1 2.690947 1_555
Cr1 Te2 2.747613 1_555
Cr1 Te4 2.747613 1_655
Cr1 Te7 2.796341 1_555
Cr1 Te6 2.796347 1_655
Cr2 Te0 2.676476 1_555
Cr2 Te4 2.732382 1_554
Cr2 Te3 2.732389 1_554
Cr2 Te5 2.766324 1_455
Cr2 Te2 2.766329 1_565
Cr2 Te7 2.791775 1_454
Cr3 Te1 2.676476 1_555
Cr3 Te5 2.732382 1_556
Cr3 Te2 2.732389 1_556
Cr3 Te4 2.766324 1_655
Cr3 Te3 2.766329 1_545
Cr3 Te6 2.791775 1_656
Cr4 Te4 2.767250 1_554
Cr4 Te5 2.767250 1_445
Cr4 Te3 2.767250 1_444
Cr4 Te2 2.767250 1_555
Cr4 Te6 2.778990 1_555
Cr4 Te7 2.778990 1_444
