# generated using pymatgen
data_DyAlNi
_symmetry_space_group_name_H-M   'P 1'
_cell_length_a   5.28176593
_cell_length_b   5.28211069
_cell_length_c   8.62517900
_cell_angle_alpha   90.00000000
_cell_angle_beta   90.00000000
_cell_angle_gamma   61.45345663
_symmetry_Int_Tables_number   1
_chemical_formula_structural   DyAlNi
_chemical_formula_sum   'Dy4 Al4 Ni4'
_cell_volume   211.37885180
_cell_formula_units_Z   4
loop_
 _symmetry_equiv_pos_site_id
 _symmetry_equiv_pos_as_xyz
  1  'x, y, z'
loop_
 _atom_site_type_symbol
 _atom_site_label
 _atom_site_symmetry_multiplicity
 _atom_site_fract_x
 _atom_site_fract_y
 _atom_site_fract_z
 _atom_site_occupancy
  Dy  Dy0  1  0.32935600  0.32943700  0.56765500  1
  Dy  Dy1  1  0.65920800  0.65914300  0.45970700  1
  Dy  Dy2  1  0.65920800  0.65914300  0.04029300  1
  Dy  Dy3  1  0.32935600  0.32943700  0.93234500  1
  Al  Al0  1  0.85992100  0.85992600  0.75000000  1
  Al  Al1  1  0.16064200  0.66481300  0.25000000  1
  Al  Al2  1  0.66486300  0.16058900  0.25000000  1
  Al  Al3  1  0.16283000  0.16282600  0.25000000  1
  Ni  Ni0  1  0.99289400  0.99283100  0.48859700  1
  Ni  Ni1  1  0.99289400  0.99283100  0.01140300  1
  Ni  Ni2  1  0.84963200  0.33928800  0.75000000  1
  Ni  Ni3  1  0.33919600  0.84973300  0.75000000  1
loop_
_geom_bond_atom_site_label_1
_geom_bond_atom_site_label_2
_geom_bond_distance
_geom_bond_site_symmetry_2
Dy0 Ni2 2.961479 1_455
Dy0 Ni3 2.961554 1_545
Dy0 Ni0 3.131168 1_445
Dy0 Dy1 3.136076 1_555
Dy0 Dy3 3.145517 1_555
Dy0 Ni0 3.154415 1_455
Dy0 Ni0 3.154891 1_545
Dy0 Ni2 3.188151 1_555
Dy0 Ni3 3.188373 1_555
Dy0 Dy1 3.246056 1_455
Dy0 Dy1 3.246902 1_545
Dy1 Ni2 2.917382 1_555
Dy1 Ni3 2.917745 1_555
Dy1 Ni0 3.040392 1_555
Dy1 Ni0 3.102547 1_455
Dy1 Ni0 3.102733 1_545
Dy2 Ni2 2.917382 1_554
Dy2 Ni3 2.917745 1_554
Dy2 Ni1 3.040392 1_555
Dy2 Ni1 3.102547 1_455
Dy2 Ni1 3.102733 1_545
Dy2 Dy3 3.136076 1_554
Dy2 Dy3 3.246056 1_654
Dy2 Dy3 3.246902 1_564
Dy3 Ni2 2.961479 1_455
Dy3 Ni3 2.961554 1_545
Dy3 Ni1 3.131168 1_446
Dy3 Ni1 3.154415 1_456
Dy3 Ni1 3.154891 1_546
Dy3 Ni2 3.188151 1_555
Dy3 Ni3 3.188373 1_555
Al0 Ni3 2.506136 1_655
Al0 Ni2 2.506528 1_565
Al0 Ni0 2.557492 1_555
Al0 Ni1 2.557492 1_556
Al0 Ni2 2.776448 1_555
Al0 Ni3 2.776479 1_555
Al0 Dy2 3.097153 1_556
Al0 Dy1 3.097153 1_555
Al0 Dy0 3.135730 1_655
Al0 Dy3 3.135730 1_655
Al0 Dy3 3.136048 1_565
Al0 Dy0 3.136048 1_565
Al1 Ni0 2.560263 1_455
Al1 Ni1 2.560263 1_455
Al1 Al3 2.636102 1_565
Al1 Al3 2.646048 1_555
Al1 Al2 2.675983 1_465
Al1 Al2 2.721566 1_555
Al1 Dy0 3.151223 1_555
Al1 Dy3 3.151223 1_554
Al1 Dy2 3.182994 1_555
Al1 Dy1 3.182994 1_555
Al1 Dy1 3.219106 1_455
Al1 Dy2 3.219106 1_455
Al2 Ni0 2.560243 1_545
Al2 Ni1 2.560243 1_545
Al2 Al3 2.635812 1_655
Al2 Al3 2.645995 1_555
Al2 Dy0 3.151480 1_555
Al2 Dy3 3.151480 1_554
Al2 Dy2 3.183115 1_555
Al2 Dy1 3.183115 1_555
Al2 Dy2 3.219269 1_545
Al2 Dy1 3.219269 1_545
Al3 Ni1 2.572413 1_445
Al3 Ni0 2.572413 1_445
Al3 Dy0 3.129631 1_555
Al3 Dy3 3.129631 1_554
Al3 Dy2 3.248876 1_455
Al3 Dy1 3.248876 1_455
Al3 Dy1 3.249154 1_545
Al3 Dy2 3.249154 1_545
Ni0 Ni3 2.771095 1_655
Ni0 Ni2 2.771557 1_565
Ni1 Ni3 2.771095 1_654
Ni1 Ni2 2.771557 1_564
Ni2 Ni3 2.642421 1_645
Ni2 Ni3 2.755128 1_555
