# generated using pymatgen
data_V5(FeO6)2
_symmetry_space_group_name_H-M   'P 1'
_cell_length_a   7.11783921
_cell_length_b   6.65904072
_cell_length_c   21.27222675
_cell_angle_alpha   93.33550820
_cell_angle_beta   91.09417823
_cell_angle_gamma   110.36980164
_symmetry_Int_Tables_number   1
_chemical_formula_structural   V5(FeO6)2
_chemical_formula_sum   'V20 Fe8 O48'
_cell_volume   942.77400336
_cell_formula_units_Z   4
loop_
 _symmetry_equiv_pos_site_id
 _symmetry_equiv_pos_as_xyz
  1  'x, y, z'
loop_
 _atom_site_type_symbol
 _atom_site_label
 _atom_site_symmetry_multiplicity
 _atom_site_fract_x
 _atom_site_fract_y
 _atom_site_fract_z
 _atom_site_occupancy
  V  V0  1  0.21459234  0.87972602  0.51885547  1
  V  V1  1  0.17486100  0.88235706  0.85327128  1
  V  V2  1  0.36594643  0.53469846  0.10859434  1
  V  V3  1  0.41210238  0.59249666  0.58159726  1
  V  V4  1  0.17854898  0.73744635  0.21129713  1
  V  V5  1  0.06796193  0.28808300  0.21303643  1
  V  V6  1  0.04310720  0.28076907  0.52673482  1
  V  V7  1  0.03589781  0.27616146  0.84984343  1
  V  V8  1  0.76819102  0.85596432  0.20347175  1
  V  V9  1  0.69432562  0.89837378  0.48577536  1
  V  V10  1  0.73100880  0.89865929  0.86211151  1
  V  V11  1  0.33098873  0.12141112  0.32054152  1
  V  V12  1  0.33834200  0.04981002  0.70643858  1
  V  V13  1  0.88260348  0.66478682  0.97936953  1
  V  V14  1  0.86535924  0.75196780  0.34525425  1
  V  V15  1  0.87900203  0.73438945  0.65225327  1
  V  V16  1  0.59762502  0.37981439  0.42899843  1
  V  V17  1  0.87945726  0.21422373  0.36838455  1
  V  V18  1  0.93316656  0.19410746  0.01902217  1
  V  V19  1  0.85767355  0.21405319  0.68861439  1
  Fe  Fe0  1  0.23501607  0.58421724  0.37517648  1
  Fe  Fe1  1  0.31972487  0.56157843  0.75171082  1
  Fe  Fe2  1  0.31451017  0.63808759  0.95078840  1
  Fe  Fe3  1  0.70176180  0.46251068  0.78193234  1
  Fe  Fe4  1  0.20792354  0.04308037  0.10194356  1
  Fe  Fe5  1  0.63425014  0.35214437  0.19608498  1
  Fe  Fe6  1  0.59642281  0.24526130  0.57737375  1
  Fe  Fe7  1  0.55009766  0.21988663  0.90772119  1
  O  O0  1  0.27747529  0.80999574  0.13210655  1
  O  O1  1  0.24625746  0.84423472  0.44036921  1
  O  O2  1  0.28663270  0.84780849  0.76787852  1
  O  O3  1  0.94119386  0.50394281  0.19589964  1
  O  O4  1  0.16773130  0.56200371  0.86470857  1
  O  O5  1  0.15672531  0.59555904  0.54212462  1
  O  O6  1  0.40929127  0.61566066  0.03430482  1
  O  O7  1  0.35348415  0.59631614  0.66014434  1
  O  O8  1  0.23860212  0.80372590  0.29679831  1
  O  O9  1  0.73803945  0.10072303  0.21834513  1
  O  O10  1  0.48509208  0.89103265  0.55056615  1
  O  O11  1  0.47155235  0.91316459  0.90831777  1
  O  O12  1  0.09812277  0.28437013  0.10261179  1
  O  O13  1  0.01726891  0.93017717  0.02725641  1
  O  O14  1  0.05405702  0.30099369  0.44151105  1
  O  O15  1  0.03277030  0.96279540  0.18856729  1
  O  O16  1  0.04861099  0.03098348  0.34095599  1
  O  O17  1  0.94711503  0.94196996  0.51557839  1
  O  O18  1  0.05812047  0.34268598  0.75809130  1
  O  O19  1  0.14503289  0.91816164  0.64225405  1
  O  O20  1  0.96119948  0.98254891  0.81316197  1
  O  O21  1  0.30897783  0.53722064  0.20326353  1
  O  O22  1  0.55530154  0.60463084  0.48017036  1
  O  O23  1  0.56804521  0.67639331  0.81301203  1
  O  O24  1  0.64847279  0.71136346  0.13799632  1
  O  O25  1  0.73795308  0.90853375  0.39986403  1
  O  O26  1  0.78948050  0.91546462  0.69324553  1
  O  O27  1  0.36157451  0.21025563  0.24638348  1
  O  O28  1  0.27932563  0.19151108  0.87926685  1
  O  O29  1  0.30018015  0.27104065  0.55023277  1
  O  O30  1  0.39339913  0.38914160  0.37404140  1
  O  O31  1  0.63673493  0.47189436  0.96130407  1
  O  O32  1  0.40565872  0.30874613  0.74999145  1
  O  O33  1  0.70136704  0.12486775  0.03913517  1
  O  O34  1  0.72830595  0.22900738  0.83535928  1
  O  O35  1  0.44867764  0.28785763  0.11826954  1
  O  O36  1  0.59142225  0.15999609  0.35653918  1
  O  O37  1  0.56534088  0.13883208  0.66394748  1
  O  O38  1  0.66988079  0.20776014  0.48357436  1
  O  O39  1  0.71217293  0.68617572  0.26685157  1
  O  O40  1  0.68127279  0.58128486  0.59323315  1
  O  O41  1  0.90977228  0.75250216  0.89816066  1
  O  O42  1  0.84727466  0.51794209  0.39586529  1
  O  O43  1  0.03289802  0.50230677  0.99399621  1
  O  O44  1  0.85419749  0.52636661  0.70519291  1
  O  O45  1  0.02833521  0.36502987  0.30701917  1
  O  O46  1  0.90171975  0.25340313  0.59736301  1
  O  O47  1  0.89731363  0.13555078  0.92456832  1
loop_
_geom_bond_atom_site_label_1
_geom_bond_atom_site_label_2
_geom_bond_distance
_geom_bond_site_symmetry_2
Fe0 O30 1.993942 1_555
Fe0 O1 2.132482 1_555
Fe0 O45 2.138725 1_555
Fe0 O8 2.275155 1_555
Fe0 O14 2.427994 1_555
Fe0 O42 2.688208 1_455
Fe1 O18 1.937399 1_555
Fe1 O32 1.980062 1_555
Fe1 O7 1.984156 1_555
Fe1 O2 2.011473 1_555
Fe1 O23 2.065011 1_555
Fe2 O6 1.920654 1_556
Fe2 O4 2.037559 1_555
Fe2 O11 2.055903 1_555
Fe2 O43 2.141398 1_555
Fe3 O44 1.962164 1_555
Fe3 O34 2.036429 1_555
Fe3 O23 2.056602 1_555
Fe3 O32 2.077050 1_555
Fe4 O35 1.918575 1_555
Fe4 O0 1.924715 1_545
Fe4 O13 1.999847 1_545
Fe4 O12 2.016098 1_555
Fe4 O15 2.230236 1_545
Fe5 O35 2.026921 1_555
Fe5 O3 2.063593 1_555
Fe5 O9 2.124368 1_555
Fe5 O27 2.173665 1_555
Fe5 O39 2.498200 1_555
Fe5 O24 2.727493 1_555
Fe6 O37 2.000265 1_555
Fe6 O38 2.095188 1_555
Fe6 O40 2.109264 1_555
Fe6 O46 2.187675 1_555
Fe6 O29 2.241887 1_555
Fe6 O10 2.245472 1_545
Fe7 O31 1.877701 1_555
Fe7 O11 1.921660 1_545
Fe7 O28 1.950698 1_555
Fe7 O34 2.003480 1_555
O0 V4 1.862831 1_555
O0 V2 2.171722 1_555
O1 V0 1.702845 1_555
O2 V12 1.879176 1_565
O2 V1 2.029654 1_555
O3 V4 1.862826 1_655
O3 V5 1.991121 1_655
O4 V7 1.810746 1_555
O4 V1 2.144297 1_555
O5 V0 1.889332 1_555
O5 V6 1.971075 1_555
O5 V3 1.994774 1_555
O6 V2 1.698580 1_555
O7 V3 1.730783 1_555
O8 V4 1.852324 1_555
O8 V11 2.014279 1_565
O9 V8 1.728784 1_545
O9 V5 2.251867 1_655
O10 V0 2.002830 1_555
O10 V3 2.025944 1_555
O10 V9 2.038500 1_555
O11 V10 2.137395 1_555
O11 V1 2.334298 1_555
O12 V2 2.045196 1_555
O12 V18 2.050911 1_455
O12 V5 2.362328 1_555
O13 V13 1.911431 1_454
O13 V18 2.059652 1_465
O14 V6 1.826832 1_555
O14 V17 1.902578 1_455
O15 V8 1.808193 1_455
O15 V5 2.124095 1_565
O15 V4 2.170604 1_555
O16 V14 1.870561 1_445
O16 V11 1.952477 1_555
O16 V17 2.060510 1_455
O17 V9 1.815245 1_555
O17 V0 2.085423 1_655
O17 V6 2.114577 1_665
O18 V19 1.968495 1_455
O18 V7 2.023437 1_555
O19 V12 1.864179 1_565
O19 V15 1.887034 1_455
O19 V0 2.694577 1_555
O20 V10 1.891167 1_555
O20 V7 1.948644 1_665
O20 V1 2.051586 1_655
O21 V4 1.873513 1_555
O21 V5 1.952176 1_555
O21 V2 2.062083 1_555
O22 V9 1.854835 1_555
O22 V16 1.911471 1_555
O22 V3 2.397397 1_555
O23 V10 1.790439 1_555
O24 V8 1.679473 1_555
O24 V2 2.009623 1_555
O25 V9 1.860724 1_555
O25 V14 1.953544 1_555
O25 V17 2.088929 1_565
O26 V15 1.747589 1_555
O26 V19 1.884530 1_565
O27 V11 1.708213 1_555
O27 V5 2.424785 1_555
O28 V1 1.970528 1_545
O28 V7 2.095531 1_555
O29 V6 1.911437 1_555
O29 V3 2.070814 1_555
O29 V0 2.506730 1_545
O30 V16 1.868166 1_555
O30 V11 1.965769 1_555
O31 V13 1.792270 1_555
O32 V12 1.811911 1_555
O33 V18 1.624248 1_555
O34 V7 2.114556 1_655
O34 V10 2.310425 1_545
O35 V2 1.949236 1_555
O36 V11 1.918333 1_555
O36 V17 1.962511 1_555
O36 V16 2.051897 1_555
O37 V12 1.797324 1_555
O37 V19 2.014449 1_555
O38 V16 1.862033 1_555
O38 V9 2.130122 1_545
O39 V8 1.771752 1_555
O39 V14 1.917118 1_555
O40 V15 1.838788 1_555
O40 V3 1.954783 1_555
O41 V13 1.847794 1_555
O41 V10 2.016439 1_555
O41 V1 2.061273 1_655
O42 V16 1.867041 1_555
O42 V14 1.914447 1_555
O42 V17 2.162096 1_555
O43 V13 1.801136 1_455
O43 V18 2.031419 1_456
O44 V15 1.799195 1_555
O44 V19 2.097850 1_555
O45 V17 1.816581 1_455
O45 V5 2.083731 1_555
O46 V6 1.806984 1_655
O46 V19 1.990010 1_555
O47 V7 1.991621 1_655
O47 V10 2.012690 1_545
O47 V18 2.018466 1_556
