# generated using pymatgen
data_MnZnSiO5
_symmetry_space_group_name_H-M   'P 1'
_cell_length_a   5.28509610
_cell_length_b   5.28509610
_cell_length_c   7.08789503
_cell_angle_alpha   73.86541369
_cell_angle_beta   73.86541369
_cell_angle_gamma   101.61269065
_symmetry_Int_Tables_number   1
_chemical_formula_structural   MnZnSiO5
_chemical_formula_sum   'Mn2 Zn2 Si2 O10'
_cell_volume   174.17127882
_cell_formula_units_Z   2
loop_
 _symmetry_equiv_pos_site_id
 _symmetry_equiv_pos_as_xyz
  1  'x, y, z'
loop_
 _atom_site_type_symbol
 _atom_site_label
 _atom_site_symmetry_multiplicity
 _atom_site_fract_x
 _atom_site_fract_y
 _atom_site_fract_z
 _atom_site_occupancy
  Mn  Mn0  1  0.50000000  0.50000000  0.50000000  1
  Mn  Mn1  1  0.50000000  0.50000000  0.00000000  1
  Zn  Zn0  1  0.83310000  0.16690000  0.75000000  1
  Zn  Zn1  1  0.16690000  0.83310000  0.25000000  1
  Si  Si0  1  0.17914500  0.82085500  0.75000000  1
  Si  Si1  1  0.82085500  0.17914500  0.25000000  1
  O  O0  1  0.38607100  0.80378300  0.88355200  1
  O  O1  1  0.19621700  0.61392900  0.61644800  1
  O  O2  1  0.61392900  0.19621700  0.11644800  1
  O  O3  1  0.80378300  0.38607100  0.38355200  1
  O  O4  1  0.77528200  0.85273000  0.40721300  1
  O  O5  1  0.14727000  0.22471800  0.09278700  1
  O  O6  1  0.22471800  0.14727000  0.59278700  1
  O  O7  1  0.85273000  0.77528200  0.90721300  1
  O  O8  1  0.41439100  0.58560900  0.25000000  1
  O  O9  1  0.58560900  0.41439100  0.75000000  1
loop_
_geom_bond_atom_site_label_1
_geom_bond_atom_site_label_2
_geom_bond_distance
_geom_bond_site_symmetry_2
Mn0 O3 1.884250 1_555
Mn0 O1 1.884250 1_555
Mn0 O9 1.905710 1_555
Mn0 O8 1.905710 1_555
Mn0 O4 1.928574 1_555
Mn0 O6 1.928574 1_555
Mn1 O0 1.884250 1_554
Mn1 O2 1.884250 1_555
Mn1 O8 1.905710 1_555
Mn1 O9 1.905710 1_554
Mn1 O7 1.928574 1_554
Mn1 O5 1.928574 1_555
O0 Si0 1.633351 1_555
O0 Zn0 2.466343 1_565
O0 Zn1 2.595330 1_556
O1 Si0 1.633351 1_555
O1 Zn0 2.466343 1_455
O1 Zn1 2.595330 1_555
O2 Si1 1.633351 1_555
O2 Zn1 2.466343 1_545
O2 Zn0 2.595330 1_554
O3 Si1 1.633351 1_555
O3 Zn1 2.466343 1_655
O3 Zn0 2.595330 1_555
O4 Si1 1.700272 1_565
O4 Zn1 2.098841 1_655
O5 Si1 1.700272 1_455
O5 Zn1 2.098841 1_545
O6 Si0 1.700272 1_545
O6 Zn0 2.098841 1_455
O7 Si0 1.700272 1_655
O7 Zn0 2.098841 1_565
O8 Zn1 2.027459 1_555
O9 Zn0 2.027459 1_555
