# generated using pymatgen
data_Mg5Si9
_symmetry_space_group_name_H-M   'P 1'
_cell_length_a   6.95179000
_cell_length_b   7.08602260
_cell_length_c   12.60241938
_cell_angle_alpha   76.53564366
_cell_angle_beta   82.94999404
_cell_angle_gamma   62.96007212
_symmetry_Int_Tables_number   1
_chemical_formula_structural   Mg5Si9
_chemical_formula_sum   'Mg10 Si18'
_cell_volume   537.64229463
_cell_formula_units_Z   2
loop_
 _symmetry_equiv_pos_site_id
 _symmetry_equiv_pos_as_xyz
  1  'x, y, z'
loop_
 _atom_site_type_symbol
 _atom_site_label
 _atom_site_symmetry_multiplicity
 _atom_site_fract_x
 _atom_site_fract_y
 _atom_site_fract_z
 _atom_site_occupancy
  Mg  Mg0  1  0.97905400  0.54495100  0.73817100  1
  Mg  Mg1  1  0.97724800  0.16780900  0.38545700  1
  Mg  Mg2  1  0.59433400  0.87494500  0.53397700  1
  Mg  Mg3  1  0.40687000  0.30083000  0.36790000  1
  Mg  Mg4  1  0.82826800  0.35920400  0.59136800  1
  Mg  Mg5  1  0.11120700  0.65938300  0.47385700  1
  Mg  Mg6  1  0.16671400  0.25543000  0.14740500  1
  Mg  Mg7  1  0.19605500  0.67114200  0.90399100  1
  Mg  Mg8  1  0.73784200  0.86848100  0.11187300  1
  Mg  Mg9  1  0.37856500  0.11751900  0.92516500  1
  Si  Si0  1  0.26885600  0.62551500  0.15340300  1
  Si  Si1  1  0.67043300  0.47609100  0.90033400  1
  Si  Si2  1  0.78720300  0.92000000  0.32192300  1
  Si  Si3  1  0.22548900  0.96263700  0.71097200  1
  Si  Si4  1  0.43072300  0.92323300  0.31089500  1
  Si  Si5  1  0.75205000  0.02387000  0.77583900  1
  Si  Si6  1  0.61382300  0.56910900  0.23201100  1
  Si  Si7  1  0.42138500  0.34387000  0.72665400  1
  Si  Si8  1  0.80149800  0.19646200  0.16973700  1
  Si  Si9  1  0.96800100  0.93541600  0.61065200  1
  Si  Si10  1  0.96332700  0.14242600  0.85897400  1
  Si  Si11  1  0.09145400  0.99028400  0.04643700  1
  Si  Si12  1  0.00296500  0.55791600  0.28223900  1
  Si  Si13  1  0.53090800  0.61520400  0.72269300  1
  Si  Si14  1  0.77792700  0.73301400  0.92683300  1
  Si  Si15  1  0.49320400  0.34281400  0.05119100  1
  Si  Si16  1  0.28718500  0.24783600  0.59272600  1
  Si  Si17  1  0.53722300  0.57491400  0.42711100  1
loop_
_geom_bond_atom_site_label_1
_geom_bond_atom_site_label_2
_geom_bond_distance
_geom_bond_site_symmetry_2
Mg0 Si7 2.740424 1_655
Mg0 Si9 2.830250 1_555
Mg0 Si14 2.889484 1_555
Mg0 Si1 2.903238 1_555
Mg0 Si13 2.947122 1_555
Mg0 Si10 2.947173 1_555
Mg0 Si16 3.018871 1_655
Mg0 Si5 3.151104 1_565
Mg1 Si12 2.843094 1_655
Mg1 Si2 2.914400 1_545
Mg1 Si9 2.940284 1_545
Mg1 Si4 2.981317 1_645
Mg1 Si8 3.042608 1_555
Mg1 Si17 3.200366 1_555
Mg1 Si6 3.211714 1_555
Mg2 Si16 2.735393 1_565
Mg2 Si13 2.771319 1_555
Mg2 Si2 2.855461 1_555
Mg2 Si17 2.953555 1_555
Mg2 Si4 3.049206 1_555
Mg2 Mg3 3.055901 1_565
Mg2 Si9 3.112259 1_555
Mg2 Si3 3.119155 1_555
Mg2 Mg4 3.190248 1_555
Mg2 Mg5 3.270877 1_655
Mg3 Si12 2.746927 1_555
Mg3 Si17 2.755190 1_555
Mg3 Si16 2.840966 1_555
Mg3 Si4 2.857489 1_545
Mg3 Si2 2.910927 1_545
Mg3 Si6 2.997064 1_555
Mg3 Si0 3.042116 1_555
Mg4 Si9 2.662017 1_545
Mg4 Si13 2.729790 1_555
Mg4 Si17 2.730907 1_555
Mg4 Si16 2.918742 1_655
Mg4 Si5 3.098628 1_555
Mg4 Si3 3.128537 1_645
Mg4 Si7 3.150994 1_555
Mg5 Si9 2.677207 1_455
Mg5 Si16 2.723392 1_555
Mg5 Si17 2.756888 1_555
Mg5 Si2 2.789264 1_455
Mg5 Si12 2.942990 1_555
Mg6 Si15 2.694025 1_555
Mg6 Si8 2.726583 1_455
Mg6 Si11 2.755597 1_545
Mg6 Si12 2.789319 1_555
Mg6 Si4 2.810027 1_545
Mg6 Si0 3.030778 1_555
Mg7 Si14 2.723762 1_455
Mg7 Si15 2.771716 1_556
Mg7 Si3 2.854423 1_555
Mg7 Si10 2.919313 1_465
Mg7 Si1 2.938689 1_555
Mg7 Si11 2.990057 1_556
Mg7 Si13 3.012211 1_555
Mg7 Si0 3.163670 1_556
Mg8 Si14 2.660225 1_554
Mg8 Si6 2.717088 1_555
Mg8 Si8 2.816467 1_565
Mg8 Si12 2.816533 1_655
Mg8 Si2 2.836417 1_555
Mg8 Si11 2.927106 1_655
Mg8 Si15 2.949461 1_565
Mg8 Si4 3.063534 1_555
Mg9 Si7 2.702317 1_555
Mg9 Si11 2.716263 1_546
Mg9 Si14 2.870839 1_545
Mg9 Si15 2.890411 1_556
Mg9 Si5 2.922094 1_555
Mg9 Si10 3.019771 1_455
Si0 Si11 2.430287 1_555
Si0 Si15 2.443852 1_555
Si0 Si12 2.447136 1_555
Si0 Si6 2.533670 1_555
Si1 Si13 2.358036 1_555
Si1 Si14 2.359181 1_555
Si1 Si15 2.381414 1_556
Si1 Si10 2.438026 1_555
Si2 Si8 2.430342 1_565
Si2 Si4 2.488499 1_555
Si3 Si9 2.413029 1_455
Si4 Si6 2.617670 1_555
Si5 Si7 2.401246 1_555
Si5 Si9 2.442384 1_545
Si6 Si8 2.621473 1_555
Si10 Si5 2.422840 1_555
Si10 Si11 2.448338 1_646
Si10 Si3 2.566030 1_645
Si11 Si8 2.494563 1_465
Si12 Si2 2.448926 1_455
Si12 Si6 2.815518 1_455
Si13 Si7 2.357088 1_555
Si13 Si3 2.397051 1_555
Si14 Si5 2.412821 1_565
Si15 Si8 2.438100 1_555
Si16 Si7 2.383438 1_555
Si16 Si3 2.391135 1_545
Si17 Si4 2.388825 1_555
Si17 Si6 2.456910 1_555
