# generated using pymatgen
data_Li9Mn2Co5O16
_symmetry_space_group_name_H-M   'P 1'
_cell_length_a   5.14005700
_cell_length_b   5.83025393
_cell_length_c   10.33695969
_cell_angle_alpha   104.80574036
_cell_angle_beta   95.17814200
_cell_angle_gamma   108.16164669
_symmetry_Int_Tables_number   1
_chemical_formula_structural   Li9Mn2Co5O16
_chemical_formula_sum   'Li9 Mn2 Co5 O16'
_cell_volume   279.66103908
_cell_formula_units_Z   1
loop_
 _symmetry_equiv_pos_site_id
 _symmetry_equiv_pos_as_xyz
  1  'x, y, z'
loop_
 _atom_site_type_symbol
 _atom_site_label
 _atom_site_symmetry_multiplicity
 _atom_site_fract_x
 _atom_site_fract_y
 _atom_site_fract_z
 _atom_site_occupancy
  Li  Li0  1  0.37857100  0.80619300  0.12215700  1
  Li  Li1  1  0.12291200  0.94048000  0.37183800  1
  Li  Li2  1  0.88137700  0.07096000  0.62050900  1
  Li  Li3  1  0.62429200  0.19995500  0.88148900  1
  Li  Li4  1  0.37871800  0.31960100  0.12394800  1
  Li  Li5  1  0.12498200  0.43466000  0.37283700  1
  Li  Li6  1  0.87826000  0.55879600  0.62300000  1
  Li  Li7  1  0.61008500  0.67139900  0.88467300  1
  Li  Li8  1  0.99946800  0.49597700  0.00214100  1
  Mn  Mn0  1  0.00567900  0.00113500  0.00219600  1
  Mn  Mn1  1  0.24311200  0.87483000  0.75226100  1
  Co  Co0  1  0.75266600  0.12202000  0.24877700  1
  Co  Co1  1  0.49376400  0.25240300  0.49823300  1
  Co  Co2  1  0.24563900  0.38152600  0.75102200  1
  Co  Co3  1  0.75196600  0.61469400  0.25034400  1
  Co  Co4  1  0.50031100  0.75017800  0.50022500  1
  O  O0  1  0.70784200  0.67182100  0.06581800  1
  O  O1  1  0.48564100  0.78161400  0.31253000  1
  O  O2  1  0.19755500  0.92644900  0.56906200  1
  O  O3  1  0.96726600  0.03754000  0.81370500  1
  O  O4  1  0.72073300  0.14014800  0.06607800  1
  O  O5  1  0.43357700  0.27363100  0.32327900  1
  O  O6  1  0.20623300  0.43184000  0.56815300  1
  O  O7  1  0.97118000  0.54406900  0.80347500  1
  O  O8  1  0.07617200  0.96777700  0.17345100  1
  O  O9  1  0.78679400  0.07108100  0.43562600  1
  O  O10  1  0.52505800  0.22192800  0.68370300  1
  O  O11  1  0.29931100  0.32984300  0.93005000  1
  O  O12  1  0.01647800  0.45106500  0.19789500  1
  O  O13  1  0.79523100  0.57534000  0.43425800  1
  O  O14  1  0.52262500  0.72301300  0.68959400  1
  O  O15  1  0.29650200  0.85803400  0.92767500  1
loop_
_geom_bond_atom_site_label_1
_geom_bond_atom_site_label_2
_geom_bond_distance
_geom_bond_site_symmetry_2
Li0 O1 2.047867 1_555
Li0 O8 2.095463 1_555
Li0 O15 2.132550 1_554
Li0 O0 2.142121 1_555
Li0 O4 2.417914 1_565
Li1 O2 2.067315 1_555
Li1 O8 2.095280 1_555
Li1 O9 2.183690 1_465
Li1 O5 2.298698 1_565
Li1 O1 2.388006 1_555
Li1 O13 2.539321 1_455
Li2 O9 1.929237 1_555
Li2 O3 2.077129 1_555
Li2 O2 2.101065 1_645
Li2 O10 2.341554 1_555
Li2 O6 2.462297 1_655
Li2 O14 2.582972 1_545
Li3 O4 2.070068 1_556
Li3 O11 2.088400 1_555
Li3 O10 2.107830 1_555
Li3 Li8 2.154971 1_556
Li3 Mn1 2.265954 1_545
Li3 O3 2.328084 1_555
Li3 O15 2.361875 1_545
Li3 O7 2.590565 1_555
Li4 O11 2.028826 1_554
Li4 O5 2.149742 1_555
Li4 Mn0 2.204244 1_555
Li4 O12 2.342155 1_555
Li4 O4 2.357868 1_555
Li4 O8 2.362043 1_545
Li4 O0 2.467473 1_555
Li5 O12 1.878828 1_555
Li5 O6 2.029775 1_555
Li5 O5 2.118747 1_555
Li5 O13 2.177933 1_455
Li5 O1 2.536226 1_555
Li6 O7 1.913742 1_555
Li6 O13 1.992350 1_555
Li6 O6 2.108827 1_655
Li6 Mn1 2.198324 1_655
Li6 O14 2.390272 1_555
Li6 O10 2.481888 1_555
Li6 O2 2.486352 1_655
Li7 O0 1.893606 1_556
Li7 O14 2.142394 1_555
Li7 O15 2.226009 1_555
Li7 Mn0 2.286883 1_666
Li7 O11 2.316639 1_555
Li7 O7 2.349941 1_555
Li8 O12 2.103307 1_655
Li8 O0 2.126612 1_555
Li8 O7 2.140758 1_554
Li8 O11 2.153573 1_654
Li8 O4 2.410830 1_555
Mn0 O8 1.845814 1_545
Mn0 O4 1.969559 1_455
Mn0 O3 2.012072 1_454
Mn0 O15 2.044728 1_544
Mn1 O15 1.841317 1_555
Mn1 O14 1.983668 1_555
Mn1 O2 1.996685 1_555
Mn1 O3 2.001693 1_465
Mn1 O7 2.219856 1_455
Co0 O4 1.913535 1_555
Co0 O9 2.028290 1_555
Co0 Li5 2.194799 1_655
Co0 O12 2.195097 1_655
Co0 O5 2.201893 1_555
Co0 Li0 2.215363 1_545
Co0 O8 2.233395 1_645
Co0 O1 2.321759 1_545
Co1 O5 1.849038 1_555
Co1 O10 1.967062 1_555
Co1 O6 2.138069 1_555
Co1 O9 2.150329 1_555
Co1 Li1 2.196116 1_545
Co1 Li6 2.218527 1_555
Co1 O13 2.320768 1_555
Co1 O2 2.360983 1_545
Co2 O11 1.958650 1_555
Co2 O7 1.972591 1_455
Co2 O6 1.987882 1_555
Co2 O10 2.023711 1_555
Co2 Li7 2.154056 1_555
Co2 Li2 2.187783 1_455
Co2 O14 2.331594 1_555
Co2 O3 2.352000 1_455
Co3 O12 1.931290 1_655
Co3 O13 1.973513 1_555
Co3 O1 1.975823 1_555
Co3 O0 2.023459 1_555
Co3 Li4 2.165361 1_555
Co3 Li1 2.216161 1_655
Co4 O1 1.991880 1_555
Co4 O14 1.999823 1_555
Co4 O13 2.143983 1_555
Co4 O2 2.192564 1_555
Co4 Li5 2.220550 1_555
Co4 Li2 2.229023 1_565
Co4 O9 2.283250 1_565
Co4 O6 2.308967 1_555
O1 O9 1.944687 1_565
