# generated using pymatgen
data_MgV4(NiO6)2
_symmetry_space_group_name_H-M   'P 1'
_cell_length_a   6.86200438
_cell_length_b   6.40560897
_cell_length_c   5.93203040
_cell_angle_alpha   76.65974412
_cell_angle_beta   101.20547304
_cell_angle_gamma   99.26772098
_symmetry_Int_Tables_number   1
_chemical_formula_structural   MgV4(NiO6)2
_chemical_formula_sum   'Mg1 V4 Ni2 O12'
_cell_volume   247.02054599
_cell_formula_units_Z   1
loop_
 _symmetry_equiv_pos_site_id
 _symmetry_equiv_pos_as_xyz
  1  'x, y, z'
loop_
 _atom_site_type_symbol
 _atom_site_label
 _atom_site_symmetry_multiplicity
 _atom_site_fract_x
 _atom_site_fract_y
 _atom_site_fract_z
 _atom_site_occupancy
  Mg  Mg0  1  0.26448400  0.42104900  0.39227700  1
  V  V0  1  0.23968500  0.67170800  0.74898000  1
  V  V1  1  0.39103300  0.87158400  0.19550500  1
  V  V2  1  0.60135600  0.18207600  0.78330200  1
  V  V3  1  0.74212400  0.36552900  0.24720100  1
  Ni  Ni0  1  0.09009400  0.08046900  0.79714000  1
  Ni  Ni1  1  0.91305200  0.93265800  0.29163700  1
  O  O0  1  0.03147700  0.81889300  0.63340000  1
  O  O1  1  0.18047700  0.38729800  0.71321300  1
  O  O2  1  0.16059100  0.98749700  0.14782200  1
  O  O3  1  0.38245600  0.70952700  0.49718200  1
  O  O4  1  0.38275000  0.99534700  0.82000400  1
  O  O5  1  0.32029600  0.60813600  0.08179100  1
  O  O6  1  0.65106800  0.40574300  0.93055600  1
  O  O7  1  0.63509300  0.03256800  0.22278100  1
  O  O8  1  0.55571500  0.30326300  0.47343000  1
  O  O9  1  0.80451000  0.05821800  0.82308700  1
  O  O10  1  0.81134600  0.62569200  0.25800800  1
  O  O11  1  0.97239200  0.26274500  0.31768600  1
loop_
_geom_bond_atom_site_label_1
_geom_bond_atom_site_label_2
_geom_bond_distance
_geom_bond_site_symmetry_2
Mg0 O5 2.020613 1_555
Mg0 O1 2.049380 1_555
Mg0 O3 2.076121 1_555
Mg0 O11 2.109297 1_455
Mg0 O8 2.176892 1_555
Ni0 O1 1.941972 1_555
Ni0 O9 1.975218 1_455
Ni0 O2 2.011499 1_546
Ni0 O0 2.072395 1_545
Ni0 O4 2.135720 1_545
Ni1 O2 1.992289 1_655
Ni1 O10 2.019434 1_555
Ni1 O0 2.042115 1_655
Ni1 O7 2.045526 1_565
Ni1 O11 2.123537 1_565
O0 V0 1.776254 1_555
O1 V0 1.853530 1_555
O2 V1 1.799781 1_555
O3 V1 1.856763 1_555
O3 V0 1.890731 1_555
O4 V2 1.776837 1_565
O4 V1 2.178030 1_556
O4 V0 2.241832 1_555
O5 V0 1.909599 1_554
O5 V1 1.916417 1_555
O6 V2 1.798997 1_555
O6 V3 1.832313 1_556
O7 V1 1.819267 1_545
O7 V3 2.169329 1_555
O7 V2 2.540065 1_554
O8 V2 1.809874 1_555
O8 V3 1.962670 1_555
O9 V2 1.664477 1_555
O10 V3 1.670169 1_555
O11 V3 1.748227 1_555
