# generated using pymatgen
data_Li7Mn2(CoO4)3
_symmetry_space_group_name_H-M   'P 1'
_cell_length_a   5.88184900
_cell_length_b   5.88332310
_cell_length_c   6.47666708
_cell_angle_alpha   104.59627240
_cell_angle_beta   103.32900381
_cell_angle_gamma   87.25939723
_symmetry_Int_Tables_number   1
_chemical_formula_structural   Li7Mn2(CoO4)3
_chemical_formula_sum   'Li7 Mn2 Co3 O12'
_cell_volume   211.03529870
_cell_formula_units_Z   1
loop_
 _symmetry_equiv_pos_site_id
 _symmetry_equiv_pos_as_xyz
  1  'x, y, z'
loop_
 _atom_site_type_symbol
 _atom_site_label
 _atom_site_symmetry_multiplicity
 _atom_site_fract_x
 _atom_site_fract_y
 _atom_site_fract_z
 _atom_site_occupancy
  Li  Li0  1  0.82595800  0.83471200  0.32793700  1
  Li  Li1  1  0.65996700  0.16509900  0.67035500  1
  Li  Li2  1  0.49743900  0.50137400  0.99660900  1
  Li  Li3  1  0.33893700  0.83383300  0.33116900  1
  Li  Li4  1  0.17778400  0.16321600  0.67484800  1
  Li  Li5  1  0.99930800  0.49912800  0.99705000  1
  Li  Li6  1  0.50030000  0.99923800  0.99654500  1
  Mn  Mn0  1  0.00045500  0.99697200  0.99926700  1
  Mn  Mn1  1  0.82551100  0.33058500  0.33283900  1
  Co  Co0  1  0.66594600  0.67065800  0.66587200  1
  Co  Co1  1  0.33104700  0.33124500  0.33366800  1
  Co  Co2  1  0.17708800  0.67452400  0.67254700  1
  O  O0  1  0.05861700  0.08205200  0.31821900  1
  O  O1  1  0.90218900  0.43135800  0.65013500  1
  O  O2  1  0.76580800  0.76605800  0.98028600  1
  O  O3  1  0.58985800  0.11875100  0.33678200  1
  O  O4  1  0.39962800  0.42369800  0.65101700  1
  O  O5  1  0.23560700  0.75432000  0.98946600  1
  O  O6  1  0.59764700  0.57757400  0.34178900  1
  O  O7  1  0.42722600  0.89428700  0.65950900  1
  O  O8  1  0.23724700  0.23357000  0.02280300  1
  O  O9  1  0.07645000  0.55423500  0.34837200  1
  O  O10  1  0.94314600  0.91745100  0.68555400  1
  O  O11  1  0.76683300  0.24606300  0.01736200  1
loop_
_geom_bond_atom_site_label_1
_geom_bond_atom_site_label_2
_geom_bond_distance
_geom_bond_site_symmetry_2
Li0 O0 2.066523 1_665
Li0 O6 2.101970 1_555
Li0 O3 2.119161 1_565
Li0 O2 2.132156 1_554
Li0 O9 2.167698 1_655
Li0 O10 2.191895 1_555
Li1 O3 2.053038 1_555
Li1 O4 2.111880 1_555
Li1 O11 2.123846 1_556
Li1 O7 2.127276 1_545
Li1 O10 2.161345 1_545
Li1 O1 2.214427 1_555
Li2 O5 2.090747 1_555
Li2 O6 2.111615 1_556
Li2 O4 2.113196 1_555
Li2 O11 2.135651 1_556
Li2 O2 2.307115 1_555
Li2 O8 2.310498 1_556
Li3 O7 2.011381 1_555
Li3 O5 2.090748 1_554
Li3 O6 2.092348 1_555
Li3 O0 2.150795 1_565
Li3 O3 2.273881 1_565
Li3 O9 2.348731 1_555
Li4 O10 2.070182 1_445
Li4 O7 2.105190 1_545
Li4 O4 2.116205 1_555
Li4 O8 2.133680 1_556
Li4 O0 2.187227 1_555
Li4 O1 2.214743 1_455
Li5 O2 2.043341 1_555
Li5 O8 2.059629 1_656
Li5 O5 2.111041 1_655
Li5 O11 2.116625 1_556
Li5 O1 2.124170 1_555
Li5 O9 2.157459 1_656
Li6 O8 2.030447 1_566
Li6 O2 2.032265 1_555
Li6 O7 2.060187 1_555
Li6 O3 2.084948 1_566
Li6 O11 2.146204 1_566
Li6 O5 2.156524 1_555
Mn0 O10 1.918583 1_455
Mn0 O5 1.939356 1_555
Mn0 O2 1.944860 1_455
Mn0 O0 1.950453 1_566
Mn0 O11 1.960797 1_466
Mn0 O8 1.970085 1_566
Mn1 O3 1.916415 1_555
Mn1 O6 1.928298 1_555
Mn1 O11 1.928830 1_555
Mn1 O1 1.939631 1_555
Mn1 O0 1.955826 1_655
Mn1 O9 1.992620 1_655
Co0 O7 1.878361 1_555
Co0 O2 1.926327 1_555
Co0 O1 1.931126 1_555
Co0 O6 1.979872 1_555
Co0 O4 2.156792 1_555
Co0 O10 2.195467 1_555
Co1 O8 1.903491 1_555
Co1 O3 1.922824 1_555
Co1 O4 1.938639 1_555
Co1 O9 1.946184 1_555
Co1 O6 2.168607 1_555
Co1 O0 2.191772 1_555
Co2 O4 1.925143 1_555
Co2 O10 1.935941 1_455
Co2 O5 1.938034 1_555
Co2 O9 1.994382 1_555
Co2 O7 2.034130 1_555
Co2 O1 2.165755 1_455
