# generated using pymatgen
data_Li4V2Si(PO6)2
_symmetry_space_group_name_H-M   'P 1'
_cell_length_a   8.98135935
_cell_length_b   8.48030801
_cell_length_c   12.41356769
_cell_angle_alpha   94.60047757
_cell_angle_beta   89.96359804
_cell_angle_gamma   89.99773548
_symmetry_Int_Tables_number   1
_chemical_formula_structural   Li4V2Si(PO6)2
_chemical_formula_sum   'Li16 V8 Si4 P8 O48'
_cell_volume   942.42926249
_cell_formula_units_Z   4
loop_
 _symmetry_equiv_pos_site_id
 _symmetry_equiv_pos_as_xyz
  1  'x, y, z'
loop_
 _atom_site_type_symbol
 _atom_site_label
 _atom_site_symmetry_multiplicity
 _atom_site_fract_x
 _atom_site_fract_y
 _atom_site_fract_z
 _atom_site_occupancy
  Li  Li0  1  0.96485000  0.44504800  0.29791200  1
  Li  Li1  1  0.74550900  0.75700900  0.25109500  1
  Li  Li2  1  0.65533200  0.75910000  0.49337400  1
  Li  Li3  1  0.75565500  0.75804900  0.74961300  1
  Li  Li4  1  0.45265600  0.54588800  0.20945700  1
  Li  Li5  1  0.96225300  0.03261600  0.69761500  1
  Li  Li6  1  0.84474900  0.75901100  0.99388100  1
  Li  Li7  1  0.53712000  0.03194900  0.19812600  1
  Li  Li8  1  0.44010300  0.00069800  0.80987000  1
  Li  Li9  1  0.16693400  0.22322700  0.99007900  1
  Li  Li10  1  0.53306500  0.45705600  0.80329700  1
  Li  Li11  1  0.05809300  0.99741600  0.30969100  1
  Li  Li12  1  0.26514500  0.24654500  0.24527300  1
  Li  Li13  1  0.33428200  0.22445100  0.49313900  1
  Li  Li14  1  0.23509100  0.24721900  0.74443700  1
  Li  Li15  1  0.04705100  0.54517700  0.70858600  1
  V  V0  1  0.74873500  0.46413100  0.10876200  1
  V  V1  1  0.24927000  0.96554200  0.10814700  1
  V  V2  1  0.75122400  0.46429600  0.60864800  1
  V  V3  1  0.75167600  0.03643700  0.38950500  1
  V  V4  1  0.25022900  0.96707200  0.60724200  1
  V  V5  1  0.74781700  0.03657600  0.88921400  1
  V  V6  1  0.25528000  0.53197000  0.39409700  1
  V  V7  1  0.24385400  0.53244600  0.89379400  1
  Si  Si0  1  0.45344600  0.25315100  0.00182700  1
  Si  Si1  1  0.39841100  0.89646800  0.35126300  1
  Si  Si2  1  0.10214600  0.89686500  0.85131700  1
  Si  Si3  1  0.04603600  0.25397300  0.50165100  1
  P  P0  1  0.94883400  0.75128700  0.50106700  1
  P  P1  1  0.89777400  0.09806600  0.14699900  1
  P  P2  1  0.55112900  0.74997900  0.00052700  1
  P  P3  1  0.60458000  0.40149200  0.35199700  1
  P  P4  1  0.89516000  0.40117200  0.85195400  1
  P  P5  1  0.60294600  0.09743400  0.64667400  1
  P  P6  1  0.10248900  0.59792400  0.14913700  1
  P  P7  1  0.39696600  0.59676100  0.64840100  1
  O  O0  1  0.93028800  0.59391400  0.17016700  1
  O  O1  1  0.85160800  0.27360200  0.16196200  1
  O  O2  1  0.84500500  0.81744700  0.41352300  1
  O  O3  1  0.66230800  0.68541500  0.08500500  1
  O  O4  1  0.85084100  0.01915100  0.03662100  1
  O  O5  1  0.94640400  0.12494200  0.42851100  1
  O  O6  1  0.83716600  0.68666800  0.58534500  1
  O  O7  1  0.45794500  0.87473500  0.06725700  1
  O  O8  1  0.94680700  0.38467500  0.57313900  1
  O  O9  1  0.91999400  0.90426700  0.82994500  1
  O  O10  1  0.82965500  0.99346300  0.23259300  1
  O  O11  1  0.67111600  0.50831900  0.26633500  1
  O  O12  1  0.58082700  0.90206900  0.32990000  1
  O  O13  1  0.55375000  0.38273200  0.07346900  1
  O  O14  1  0.65050400  0.48365600  0.46145600  1
  O  O15  1  0.82891000  0.50837700  0.76653400  1
  O  O16  1  0.32552200  0.00726200  0.26127000  1
  O  O17  1  0.65607400  0.22882500  0.33720500  1
  O  O18  1  0.36005500  0.70811800  0.33725800  1
  O  O19  1  0.84360100  0.22861300  0.83712200  1
  O  O20  1  0.34110200  0.17953700  0.09036000  1
  O  O21  1  0.84951800  0.48280000  0.96169300  1
  O  O22  1  0.34130600  0.98058000  0.46617900  1
  O  O23  1  0.43265000  0.39442900  0.33082400  1
  O  O24  1  0.56910300  0.59171600  0.67001200  1
  O  O25  1  0.64888900  0.01613800  0.53672300  1
  O  O26  1  0.14779500  0.51777300  0.03869500  1
  O  O27  1  0.65576900  0.81727200  0.91401100  1
  O  O28  1  0.65388200  0.27094800  0.66026100  1
  O  O29  1  0.14819600  0.77257300  0.16078000  1
  O  O30  1  0.35195400  0.77105100  0.65827100  1
  O  O31  1  0.17110500  0.49438500  0.23575800  1
  O  O32  1  0.66942200  0.99261600  0.73277600  1
  O  O33  1  0.35156200  0.51411300  0.53867000  1
  O  O34  1  0.45444900  0.62466100  0.93767400  1
  O  O35  1  0.43142700  0.10230600  0.66841100  1
  O  O36  1  0.32814800  0.49468400  0.73597900  1
  O  O37  1  0.17625700  0.00607500  0.76061700  1
  O  O38  1  0.06897900  0.09965300  0.16911300  1
  O  O39  1  0.04742100  0.62645000  0.44001500  1
  O  O40  1  0.55267700  0.12376800  0.92876600  1
  O  O41  1  0.15816800  0.32239000  0.40989000  1
  O  O42  1  0.03979900  0.87856900  0.56731000  1
  O  O43  1  0.16097600  0.98013600  0.96563800  1
  O  O44  1  0.34156200  0.32287500  0.91044000  1
  O  O45  1  0.15730600  0.18089300  0.59070800  1
  O  O46  1  0.13908800  0.70810100  0.83708900  1
  O  O47  1  0.06722600  0.39375600  0.83105600  1
loop_
_geom_bond_atom_site_label_1
_geom_bond_atom_site_label_2
_geom_bond_distance
_geom_bond_site_symmetry_2
Li0 O31 2.062025 1_655
Li0 O0 2.127554 1_555
Li0 O39 2.365298 1_655
Li0 O1 2.367502 1_555
Li0 O41 2.502730 1_655
Li1 O12 2.112551 1_555
Li1 O10 2.172215 1_555
Li1 O2 2.227844 1_555
Li1 O3 2.231389 1_555
Li1 O11 2.234706 1_555
Li1 O0 2.334771 1_555
Li2 O2 2.050844 1_555
Li2 O6 2.112488 1_555
Li2 O25 2.203649 1_565
Li2 O14 2.338082 1_555
Li2 O12 2.536161 1_555
Li3 O9 2.124654 1_555
Li3 O32 2.160374 1_555
Li3 O6 2.204669 1_555
Li3 O15 2.243065 1_555
Li3 O27 2.248331 1_555
Li3 O24 2.356277 1_555
Li4 O23 2.064448 1_555
Li4 O11 2.118379 1_555
Li4 O18 2.179312 1_555
Li4 O13 2.282920 1_555
Li4 O31 2.591071 1_555
Li5 O9 2.076832 1_545
Li5 O37 2.094441 1_655
Li5 O42 2.113682 1_645
Li5 O19 2.536353 1_555
Li6 O27 2.046605 1_555
Li6 O3 2.113045 1_556
Li6 O4 2.227893 1_566
Li6 O21 2.344770 1_555
Li6 O9 2.552620 1_555
Li7 O16 2.072285 1_555
Li7 O12 2.081542 1_545
Li7 O7 2.139256 1_545
Li7 O17 2.539617 1_555
Li8 O40 2.011154 1_555
Li8 O35 2.018665 1_555
Li8 O32 2.269244 1_545
Li8 O37 2.449012 1_555
Li9 O20 2.051890 1_556
Li9 O43 2.060179 1_545
Li9 O44 2.069651 1_555
Li9 O26 2.528040 1_556
Li10 O36 2.057188 1_555
Li10 O24 2.109213 1_555
Li10 O34 2.217973 1_555
Li10 O44 2.502410 1_555
Li10 O28 2.523672 1_555
Li11 O38 2.012220 1_565
Li11 O5 2.023245 1_465
Li11 O10 2.263592 1_455
Li11 O16 2.478610 1_565
Li12 O20 2.075891 1_555
Li12 O16 2.125042 1_555
Li12 O23 2.180005 1_555
Li12 O31 2.276953 1_555
Li12 O41 2.302014 1_555
Li12 O38 2.315815 1_555
Li13 O45 2.049203 1_555
Li13 O22 2.069290 1_545
Li13 O41 2.097460 1_555
Li13 O33 2.480923 1_555
Li14 O45 2.067771 1_555
Li14 O37 2.137129 1_555
Li14 O47 2.181029 1_555
Li14 O36 2.269131 1_555
Li14 O35 2.306947 1_555
Li14 O44 2.315807 1_555
Li15 O47 2.075213 1_555
Li15 O15 2.118393 1_455
Li15 O46 2.187478 1_555
Li15 O8 2.263879 1_455
Li15 O36 2.587879 1_555
O0 P6 1.569137 1_655
O0 V0 2.078059 1_555
O1 P1 1.542027 1_555
O1 V0 2.017982 1_555
O2 P0 1.569851 1_555
O2 V3 2.080710 1_565
O3 P2 1.577964 1_555
O3 V0 2.073626 1_555
O4 P1 1.535125 1_555
O4 V5 2.066849 1_554
O5 Si3 1.632214 1_655
O5 V3 1.949202 1_555
O6 P0 1.578402 1_555
O6 V2 2.079180 1_555
O7 P2 1.537652 1_555
O7 V1 2.073452 1_555
O8 Si3 1.628325 1_655
O8 V2 1.920165 1_555
O9 Si2 1.659502 1_655
O9 V5 2.014333 1_565
O10 P1 1.562230 1_565
O10 V3 2.074068 1_565
O11 P3 1.569183 1_555
O11 V0 2.081628 1_555
O12 Si1 1.660791 1_555
O12 V3 2.016625 1_565
O13 Si0 1.629218 1_555
O13 V0 1.920366 1_555
O14 P3 1.533217 1_555
O14 V2 2.057681 1_555
O15 P4 1.568548 1_555
O15 V2 2.086172 1_555
O16 Si1 1.651844 1_545
O16 V1 2.025101 1_545
O17 P3 1.532450 1_555
O17 V3 1.997771 1_555
O18 Si1 1.629641 1_555
O18 V6 1.945021 1_555
O19 P4 1.531887 1_555
O19 V5 1.994661 1_555
O20 Si0 1.650551 1_555
O20 V1 2.021501 1_545
O21 P4 1.533282 1_555
O21 V0 2.054671 1_556
O22 Si1 1.625609 1_555
O22 V4 1.943949 1_555
O23 P3 1.566880 1_555
O23 V6 2.089597 1_555
O24 P7 1.570463 1_555
O24 V2 2.071135 1_555
O25 P5 1.535182 1_555
O25 V3 2.066389 1_555
O26 P6 1.535234 1_555
O26 V7 2.007288 1_554
O27 P2 1.568245 1_556
O27 V5 2.080522 1_565
O28 P5 1.537284 1_555
O28 V2 2.007787 1_555
O29 P6 1.532574 1_555
O29 V1 2.024785 1_555
O30 P7 1.527700 1_555
O30 V4 2.041767 1_555
O31 P6 1.568187 1_555
O31 V6 2.106642 1_555
O32 P5 1.562743 1_565
O32 V5 2.071602 1_565
O33 P7 1.536414 1_555
O33 V6 2.009253 1_555
O34 P2 1.536249 1_556
O34 V7 2.102106 1_555
O35 P5 1.563731 1_555
O35 V4 2.098156 1_545
O36 P7 1.569529 1_555
O36 V7 2.100247 1_555
O37 Si2 1.653727 1_545
O37 V4 2.018191 1_545
O38 P1 1.562006 1_455
O38 V1 2.085290 1_545
O39 P0 1.532810 1_455
O39 V6 2.092195 1_555
O40 Si0 1.630943 1_556
O40 V5 1.949372 1_555
O41 Si3 1.659213 1_555
O41 V6 2.003439 1_555
O42 P0 1.538601 1_455
O42 V4 2.079072 1_555
O43 Si2 1.622345 1_555
O43 V1 1.952071 1_556
O44 Si0 1.659919 1_556
O44 V7 2.007572 1_555
O45 Si3 1.648094 1_555
O45 V4 2.021480 1_545
O46 Si2 1.630428 1_555
O46 V7 1.941321 1_555
O47 P4 1.567271 1_455
O47 V7 2.088335 1_555
