# generated using pymatgen
data_HfNiP
_symmetry_space_group_name_H-M   'P 1'
_cell_length_a   3.67859960
_cell_length_b   6.27456056
_cell_length_c   7.09088192
_cell_angle_alpha   90.00000000
_cell_angle_beta   90.00000000
_cell_angle_gamma   90.00000000
_symmetry_Int_Tables_number   1
_chemical_formula_structural   HfNiP
_chemical_formula_sum   'Hf4 Ni4 P4'
_cell_volume   163.66887152
_cell_formula_units_Z   4
loop_
 _symmetry_equiv_pos_site_id
 _symmetry_equiv_pos_as_xyz
  1  'x, y, z'
loop_
 _atom_site_type_symbol
 _atom_site_label
 _atom_site_symmetry_multiplicity
 _atom_site_fract_x
 _atom_site_fract_y
 _atom_site_fract_z
 _atom_site_occupancy
  Hf  Hf0  1  0.25000000  0.01855870  0.81663992  1
  Hf  Hf1  1  0.25000000  0.51855870  0.68336008  1
  Hf  Hf2  1  0.75000000  0.98144130  0.18336008  1
  Hf  Hf3  1  0.75000000  0.48144130  0.31663992  1
  Ni  Ni0  1  0.25000000  0.15614401  0.43157293  1
  Ni  Ni1  1  0.25000000  0.65614401  0.06842707  1
  Ni  Ni2  1  0.75000000  0.84385599  0.56842707  1
  Ni  Ni3  1  0.75000000  0.34385599  0.93157293  1
  P  P0  1  0.25000000  0.77882997  0.38897711  1
  P  P1  1  0.25000000  0.27882997  0.11102289  1
  P  P2  1  0.75000000  0.22117003  0.61102289  1
  P  P3  1  0.75000000  0.72117003  0.88897711  1
loop_
_geom_bond_atom_site_label_1
_geom_bond_atom_site_label_2
_geom_bond_distance
_geom_bond_site_symmetry_2
Hf0 P1 2.650351 1_556
Hf0 P2 2.669270 1_555
Hf0 P2 2.669270 1_455
Hf0 P3 2.669835 1_445
Hf0 P3 2.669835 1_545
Hf0 Ni2 2.771716 1_545
Hf0 Ni2 2.771716 1_445
Hf0 Ni0 2.863687 1_555
Hf0 Ni3 2.865884 1_555
Hf0 Ni3 2.865884 1_455
Hf0 Ni1 2.891137 1_546
Hf1 P0 2.650351 1_555
Hf1 P3 2.669270 1_455
Hf1 P3 2.669270 1_555
Hf1 P2 2.669835 1_455
Hf1 P2 2.669835 1_555
Hf1 Ni3 2.771716 1_455
Hf1 Ni3 2.771716 1_555
Hf1 Ni1 2.863687 1_556
Hf1 Ni2 2.865884 1_455
Hf1 Ni2 2.865884 1_555
Hf1 Ni0 2.891137 1_555
Hf2 P3 2.650351 1_554
Hf2 P0 2.669270 1_555
Hf2 P0 2.669270 1_655
Hf2 P1 2.669835 1_665
Hf2 P1 2.669835 1_565
Hf2 Ni0 2.771716 1_565
Hf2 Ni0 2.771716 1_665
Hf2 Ni2 2.863687 1_555
Hf2 Ni1 2.865884 1_555
Hf2 Ni1 2.865884 1_655
Hf2 Ni3 2.891137 1_564
Hf3 P2 2.650351 1_555
Hf3 P1 2.669270 1_555
Hf3 P1 2.669270 1_655
Hf3 P0 2.669835 1_555
Hf3 P0 2.669835 1_655
Hf3 Ni1 2.771716 1_555
Hf3 Ni1 2.771716 1_655
Hf3 Ni3 2.863687 1_554
Hf3 Ni0 2.865884 1_655
Hf3 Ni0 2.865884 1_555
Hf3 Ni2 2.891137 1_555
Ni0 P2 2.273466 1_455
Ni0 P2 2.273466 1_555
Ni0 P0 2.386669 1_545
Ni0 P1 2.399800 1_555
Ni1 P3 2.273466 1_554
Ni1 P3 2.273466 1_454
Ni1 P1 2.386669 1_555
Ni1 P0 2.399800 1_555
Ni2 P0 2.273466 1_655
Ni2 P0 2.273466 1_555
Ni2 P2 2.386669 1_565
Ni2 P3 2.399800 1_555
Ni3 P1 2.273466 1_656
Ni3 P1 2.273466 1_556
Ni3 P3 2.386669 1_555
Ni3 P2 2.399800 1_555
