# generated using pymatgen
data_HfMg14Cd
_symmetry_space_group_name_H-M   'P 1'
_cell_length_a   6.40427121
_cell_length_b   6.35262998
_cell_length_c   10.15559687
_cell_angle_alpha   90.00000000
_cell_angle_beta   90.00000000
_cell_angle_gamma   119.73362149
_symmetry_Int_Tables_number   1
_chemical_formula_structural   HfMg14Cd
_chemical_formula_sum   'Hf1 Mg14 Cd1'
_cell_volume   358.77225345
_cell_formula_units_Z   1
loop_
 _symmetry_equiv_pos_site_id
 _symmetry_equiv_pos_as_xyz
  1  'x, y, z'
loop_
 _atom_site_type_symbol
 _atom_site_label
 _atom_site_symmetry_multiplicity
 _atom_site_fract_x
 _atom_site_fract_y
 _atom_site_fract_z
 _atom_site_occupancy
  Hf  Hf0  1  0.16326102  0.83163001  0.12500000  1
  Mg  Mg0  1  0.16634495  0.33317198  0.62500000  1
  Mg  Mg1  1  0.16671994  0.83335947  0.62500000  1
  Mg  Mg2  1  0.66348647  0.33512690  0.12500000  1
  Mg  Mg3  1  0.66653351  0.33281992  0.62500000  1
  Mg  Mg4  1  0.66348647  0.82835857  0.12500000  1
  Mg  Mg5  1  0.66653351  0.83371259  0.62500000  1
  Mg  Mg6  1  0.33163722  0.16262614  0.37293324  1
  Mg  Mg7  1  0.33163722  0.16262614  0.87706676  1
  Mg  Mg8  1  0.33163722  0.66901207  0.37293324  1
  Mg  Mg9  1  0.33163722  0.66901207  0.87706676  1
  Mg  Mg10  1  0.83418712  0.16709406  0.37225006  1
  Mg  Mg11  1  0.83418712  0.16709406  0.87774994  1
  Mg  Mg12  1  0.83814952  0.66907526  0.37441774  1
  Mg  Mg13  1  0.83814952  0.66907526  0.87558226  1
  Cd  Cd0  1  0.17241200  0.33620550  0.12500000  1
loop_
_geom_bond_atom_site_label_1
_geom_bond_atom_site_label_2
_geom_bond_distance
_geom_bond_site_symmetry_2
Hf0 Mg9 3.110441 1_554
Hf0 Mg8 3.110441 1_555
Hf0 Mg7 3.110447 1_564
Hf0 Mg6 3.110447 1_565
Hf0 Mg13 3.112039 1_454
Hf0 Mg12 3.112039 1_455
Hf0 Mg2 3.190435 1_455
Hf0 Mg4 3.190435 1_455
Hf0 Mg2 3.213937 1_565
Hf0 Mg4 3.213937 1_555
Mg0 Mg6 3.159910 1_555
Mg0 Mg7 3.159910 1_555
Mg0 Mg8 3.159916 1_555
Mg0 Mg9 3.159916 1_555
Mg0 Mg10 3.162372 1_455
Mg0 Mg11 3.162372 1_455
Mg0 Mg1 3.176316 1_555
Mg0 Mg1 3.176316 1_545
Mg0 Mg5 3.199819 1_445
Mg0 Mg3 3.199819 1_455
Mg0 Mg5 3.204453 1_555
Mg0 Mg3 3.204453 1_555
Mg1 Mg12 3.132852 1_455
Mg1 Mg13 3.132852 1_455
Mg1 Mg8 3.138845 1_555
Mg1 Mg9 3.138845 1_555
Mg1 Mg6 3.138851 1_565
Mg1 Mg7 3.138851 1_565
Mg1 Mg3 3.199829 1_565
Mg1 Mg5 3.199830 1_555
Mg1 Mg3 3.204442 1_455
Mg1 Mg5 3.204443 1_455
Mg2 Mg7 3.122063 1_554
Mg2 Mg6 3.122063 1_555
Mg2 Mg4 3.133318 1_555
Mg2 Mg4 3.219312 1_545
Mg3 Mg6 3.165726 1_555
Mg3 Mg7 3.165726 1_555
Mg3 Mg5 3.170644 1_545
Mg3 Mg5 3.181986 1_555
Mg4 Mg9 3.122063 1_554
Mg4 Mg8 3.122063 1_555
Mg5 Mg8 3.165726 1_555
Mg5 Mg9 3.165726 1_555
Mg6 Mg8 3.135748 1_545
Mg6 Mg8 3.216882 1_555
Mg7 Mg9 3.135748 1_545
Mg7 Mg9 3.216882 1_555
Mg10 Mg2 3.130030 1_555
Mg10 Mg4 3.130036 1_545
Mg10 Mg3 3.157701 1_555
Mg10 Mg5 3.157707 1_545
Mg10 Mg12 3.176468 1_555
Mg10 Mg12 3.176468 1_545
Mg10 Mg8 3.199985 1_655
Mg10 Mg6 3.199985 1_655
Mg10 Mg8 3.204491 1_545
Mg10 Mg6 3.204491 1_555
Mg11 Mg2 3.130030 1_556
Mg11 Mg4 3.130036 1_546
Mg11 Mg3 3.157701 1_555
Mg11 Mg5 3.157707 1_545
Mg11 Mg13 3.176468 1_555
Mg11 Mg13 3.176468 1_545
Mg11 Mg9 3.199985 1_655
Mg11 Mg7 3.199985 1_655
Mg11 Mg9 3.204491 1_545
Mg11 Mg7 3.204491 1_555
Mg12 Mg4 3.132711 1_555
Mg12 Mg2 3.132717 1_555
Mg12 Mg5 3.149307 1_555
Mg12 Mg3 3.149313 1_555
Mg12 Mg6 3.160664 1_665
Mg12 Mg8 3.160664 1_655
Mg12 Mg6 3.243678 1_555
Mg12 Mg8 3.243678 1_555
Mg13 Mg4 3.132711 1_556
Mg13 Mg2 3.132717 1_556
Mg13 Mg5 3.149307 1_555
Mg13 Mg3 3.149313 1_555
Mg13 Mg7 3.160664 1_665
Mg13 Mg9 3.160664 1_655
Mg13 Mg7 3.243678 1_555
Mg13 Mg9 3.243678 1_555
Cd0 Mg7 3.116245 1_554
Cd0 Mg6 3.116245 1_555
Cd0 Mg9 3.116252 1_554
Cd0 Mg8 3.116252 1_555
Cd0 Mg11 3.137317 1_454
Cd0 Mg10 3.137317 1_455
Cd0 Mg4 3.148378 1_555
Cd0 Mg2 3.148378 1_555
Cd0 Hf0 3.176723 1_545
Cd0 Hf0 3.176723 1_555
Cd0 Mg4 3.255904 1_445
Cd0 Mg2 3.255904 1_455
