# generated using pymatgen
data_Li9Fe4(BO3)8
_symmetry_space_group_name_H-M   'P 1'
_cell_length_a   10.34855000
_cell_length_b   10.44804888
_cell_length_c   11.03777072
_cell_angle_alpha   102.70624610
_cell_angle_beta   102.79939039
_cell_angle_gamma   119.29168856
_symmetry_Int_Tables_number   1
_chemical_formula_structural   Li9Fe4(BO3)8
_chemical_formula_sum   'Li18 Fe8 B16 O48'
_cell_volume   936.28142911
_cell_formula_units_Z   2
loop_
 _symmetry_equiv_pos_site_id
 _symmetry_equiv_pos_as_xyz
  1  'x, y, z'
loop_
 _atom_site_type_symbol
 _atom_site_label
 _atom_site_symmetry_multiplicity
 _atom_site_fract_x
 _atom_site_fract_y
 _atom_site_fract_z
 _atom_site_occupancy
  Li  Li0  1  0.12268600  0.15792700  0.93335800  1
  Li  Li1  1  0.39910600  0.06601900  0.61945100  1
  Li  Li2  1  0.23610100  0.25249500  0.32194500  1
  Li  Li3  1  0.42270800  0.47386300  0.83493900  1
  Li  Li4  1  0.10716300  0.45138600  0.38086800  1
  Li  Li5  1  0.48900600  0.02013600  0.15679000  1
  Li  Li6  1  0.99416400  0.52314600  0.16435100  1
  Li  Li7  1  0.01028100  0.47623700  0.83036700  1
  Li  Li8  1  0.50289900  0.97789800  0.82299900  1
  Li  Li9  1  0.47476300  0.46094300  0.11383700  1
  Li  Li10  1  0.70874700  0.85556400  0.86836900  1
  Li  Li11  1  0.89703500  0.56293900  0.62722100  1
  Li  Li12  1  0.79437900  0.28055400  0.41071600  1
  Li  Li13  1  0.29449700  0.78113300  0.40383600  1
  Li  Li14  1  0.73783800  0.75991200  0.34037600  1
  Li  Li15  1  0.61127200  0.95221400  0.37749900  1
  Li  Li16  1  0.79774400  0.64460100  0.11740700  1
  Li  Li17  1  0.98454100  0.96320400  0.09785800  1
  Fe  Fe0  1  0.83315500  0.14990100  0.12637300  1
  Fe  Fe1  1  0.33299200  0.65417600  0.12394400  1
  Fe  Fe2  1  0.67456000  0.35249400  0.87799500  1
  Fe  Fe3  1  0.17234300  0.85578300  0.88080900  1
  Fe  Fe4  1  0.90720600  0.08067300  0.62808600  1
  Fe  Fe5  1  0.40451500  0.58487900  0.62258900  1
  Fe  Fe6  1  0.60407900  0.42354800  0.37805400  1
  Fe  Fe7  1  0.10059400  0.92079700  0.37154900  1
  B  B0  1  0.37646400  0.18676700  0.88965200  1
  B  B1  1  0.07124800  0.39040300  0.61867400  1
  B  B2  1  0.43735800  0.11283000  0.37448600  1
  B  B3  1  0.84275200  0.18521400  0.86947500  1
  B  B4  1  0.34817100  0.69858100  0.87215300  1
  B  B5  1  0.13388400  0.32816100  0.12796600  1
  B  B6  1  0.56363100  0.40797400  0.63691000  1
  B  B7  1  0.06312300  0.89827400  0.62786700  1
  B  B8  1  0.94282100  0.09713700  0.36956100  1
  B  B9  1  0.44122100  0.59995900  0.36831300  1
  B  B10  1  0.86917900  0.68308000  0.88498200  1
  B  B11  1  0.66844500  0.32261700  0.13739400  1
  B  B12  1  0.15770100  0.81360600  0.13312600  1
  B  B13  1  0.57259700  0.89578800  0.61714000  1
  B  B14  1  0.93690900  0.61319200  0.37734700  1
  B  B15  1  0.64294200  0.82039200  0.12370900  1
  O  O0  1  0.24284100  0.06903600  0.89872800  1
  O  O1  1  0.09047000  0.27897100  0.65018900  1
  O  O2  1  0.06401300  0.08119700  0.35333800  1
  O  O3  1  0.48007400  0.15411000  0.84979000  1
  O  O4  1  0.40863700  0.33527400  0.92093700  1
  O  O5  1  0.32518200  0.99378800  0.40505000  1
  O  O6  1  0.74905800  0.08109000  0.92186900  1
  O  O7  1  0.25555800  0.59558800  0.92500600  1
  O  O8  1  0.18128600  0.49805000  0.58188600  1
  O  O9  1  0.10881200  0.18467200  0.11969600  1
  O  O10  1  0.02363300  0.35684100  0.15584600  1
  O  O11  1  0.57553700  0.29948300  0.68312800  1
  O  O12  1  0.07021600  0.79109500  0.67775300  1
  O  O13  1  0.56597200  0.11487400  0.36109600  1
  O  O14  1  0.06761600  0.61812000  0.36630600  1
  O  O15  1  0.45691600  0.44245500  0.65904100  1
  O  O16  1  0.41219700  0.22817600  0.35686300  1
  O  O17  1  0.94474400  0.15832400  0.82313300  1
  O  O18  1  0.45177500  0.67409400  0.82522300  1
  O  O19  1  0.83574400  0.31206400  0.86275100  1
  O  O20  1  0.33738300  0.82286800  0.86323400  1
  O  O21  1  0.83824100  0.00158300  0.42033600  1
  O  O22  1  0.33506000  0.50588700  0.41933600  1
  O  O23  1  0.74855700  0.57146700  0.91269700  1
  O  O24  1  0.26096200  0.43629800  0.10396800  1
  O  O25  1  0.66509600  0.47806900  0.57449100  1
  O  O26  1  0.16654900  0.96904800  0.56799200  1
  O  O27  1  0.67804500  0.19783100  0.14715600  1
  O  O28  1  0.17618600  0.69550000  0.15135700  1
  O  O29  1  0.57031300  0.35279500  0.18626500  1
  O  O30  1  0.04495300  0.82948700  0.17167300  1
  O  O31  1  0.59294900  0.78790300  0.65707700  1
  O  O32  1  0.55989300  0.57892300  0.35375200  1
  O  O33  1  0.94272500  0.39555100  0.62099000  1
  O  O34  1  0.44274100  0.89957000  0.61584700  1
  O  O35  1  0.92282700  0.20660900  0.33046100  1
  O  O36  1  0.42905400  0.71404100  0.33148300  1
  O  O37  1  0.97350600  0.65180400  0.84614100  1
  O  O38  1  0.88825000  0.82516800  0.90462000  1
  O  O39  1  0.83144800  0.49923400  0.41621100  1
  O  O40  1  0.75740400  0.42291400  0.08024400  1
  O  O41  1  0.24860100  0.91187600  0.07776600  1
  O  O42  1  0.68357800  0.00079500  0.57973100  1
  O  O43  1  0.63272800  0.68807300  0.13364300  1
  O  O44  1  0.53148600  0.85108900  0.14833000  1
  O  O45  1  0.95003700  0.92654000  0.63831000  1
  O  O46  1  0.90336300  0.71882000  0.34416000  1
  O  O47  1  0.76476100  0.92941000  0.09355800  1
loop_
_geom_bond_atom_site_label_1
_geom_bond_atom_site_label_2
_geom_bond_distance
_geom_bond_site_symmetry_2
Li0 O0 1.933702 1_555
Li0 O17 1.971845 1_455
Li0 O9 2.060635 1_556
Li1 O26 1.973892 1_545
Li1 O34 1.993937 1_545
Li1 O11 2.024060 1_555
Li1 O5 2.145325 1_545
Li1 O3 2.298965 1_555
Li2 O16 1.928467 1_555
Li2 O2 1.980435 1_555
Li2 O9 2.075726 1_555
Li2 O22 2.195600 1_555
Li3 O4 1.865061 1_555
Li3 O18 1.993933 1_555
Li3 O15 2.034807 1_555
Li4 O14 2.004917 1_555
Li4 O8 2.037942 1_555
Li4 O22 2.049992 1_555
Li4 O35 2.149202 1_455
Li4 O10 2.241842 1_555
Li5 O27 1.977442 1_555
Li5 O44 2.006705 1_545
Li5 O41 2.020035 1_545
Li5 O13 2.037240 1_555
Li6 O10 1.892187 1_655
Li6 O28 1.930203 1_655
Li6 O40 2.003856 1_555
Li6 O14 2.017326 1_655
Li7 O19 1.963809 1_455
Li7 O37 2.027776 1_455
Li7 O7 2.060085 1_555
Li7 O33 2.095422 1_455
Li8 O20 1.921823 1_555
Li8 O3 1.936430 1_565
Li8 O34 2.081582 1_555
Li8 O6 2.098990 1_565
Li9 O4 1.992764 1_554
Li9 O29 2.008482 1_555
Li9 O43 2.041821 1_555
Li9 O24 2.072888 1_555
Li9 O32 2.403313 1_555
Li10 O38 2.003859 1_555
Li10 O6 2.095669 1_565
Li10 O31 2.140653 1_555
Li10 O18 2.236387 1_555
Li10 O47 2.278110 1_556
Li11 O25 1.989354 1_555
Li11 O12 1.999316 1_655
Li11 O33 2.014326 1_555
Li11 O39 2.122235 1_555
Li11 O37 2.184963 1_555
Li12 O13 1.972076 1_555
Li12 O35 2.091421 1_555
Li12 O39 2.107641 1_555
Li12 O33 2.139363 1_555
Li13 O14 1.982609 1_555
Li13 O36 2.066328 1_555
Li13 O5 2.081391 1_555
Li13 O34 2.153802 1_555
Li13 O28 2.526913 1_555
Li14 O46 1.953472 1_555
Li14 O32 1.955644 1_555
Li14 O21 2.068889 1_565
Li14 O43 2.073983 1_555
Li15 O13 2.004521 1_565
Li15 O42 2.046972 1_565
Li15 O21 2.054660 1_565
Li15 O36 2.105751 1_555
Li15 O44 2.289498 1_555
Li16 O43 2.003326 1_555
Li16 O40 2.065752 1_555
Li16 O23 2.073353 1_554
Li16 O30 2.147413 1_655
Li16 O46 2.272664 1_555
Li17 O9 1.942068 1_665
Li17 O38 1.980179 1_554
Li17 O30 2.033767 1_655
Li17 O47 2.111596 1_555
Fe0 O27 1.943995 1_555
Fe0 O47 1.965466 1_545
Fe0 O10 1.975408 1_655
Fe0 O6 2.042789 1_554
Fe0 O35 2.058004 1_555
Fe1 O28 1.938249 1_555
Fe1 O24 1.957611 1_555
Fe1 O44 1.975033 1_555
Fe1 O7 1.996900 1_554
Fe1 O36 2.092690 1_555
Fe2 O23 1.933279 1_555
Fe2 O19 1.942056 1_555
Fe2 O3 1.949450 1_555
Fe2 O11 1.981717 1_555
Fe2 O40 2.017944 1_556
Fe3 O0 1.920243 1_565
Fe3 O20 1.940383 1_555
Fe3 O41 1.979695 1_556
Fe3 O37 1.980839 1_455
Fe3 O12 2.045060 1_555
Fe4 O45 1.886473 1_545
Fe4 O1 1.917441 1_655
Fe4 O42 1.924554 1_555
Fe4 O17 1.999182 1_555
Fe4 O21 2.077190 1_555
Fe5 O15 1.904350 1_555
Fe5 O8 1.916135 1_555
Fe5 O31 1.927529 1_555
Fe5 O22 2.030133 1_555
Fe5 O18 2.064626 1_555
Fe6 O32 1.944201 1_555
Fe6 O16 1.944838 1_555
Fe6 O29 1.970029 1_555
Fe6 O25 1.980531 1_555
Fe6 O39 1.983124 1_555
Fe7 O2 1.930673 1_565
Fe7 O5 1.969986 1_555
Fe7 O46 1.985413 1_455
Fe7 O26 1.987012 1_555
Fe7 O30 2.020567 1_555
B0 O4 1.358472 1_555
B0 O0 1.373475 1_555
B0 O3 1.400219 1_555
B1 O33 1.362710 1_455
B1 O8 1.370807 1_555
B1 O1 1.374830 1_555
B2 O13 1.361804 1_555
B2 O16 1.394895 1_555
B2 O5 1.397725 1_545
B3 O19 1.379209 1_555
B3 O17 1.385909 1_555
B3 O6 1.396829 1_555
B4 O20 1.378995 1_555
B4 O7 1.389801 1_555
B4 O18 1.392649 1_555
B5 O9 1.368167 1_555
B5 O24 1.381376 1_555
B5 O10 1.391318 1_555
B6 O15 1.370822 1_555
B6 O25 1.379705 1_555
B6 O11 1.386897 1_555
B7 O45 1.361260 1_455
B7 O26 1.372252 1_555
B7 O12 1.377072 1_555
B8 O2 1.386899 1_655
B8 O21 1.392731 1_555
B8 O35 1.395145 1_555
B9 O32 1.385047 1_555
B9 O36 1.392533 1_555
B9 O22 1.396855 1_555
B10 O38 1.357424 1_555
B10 O23 1.383248 1_555
B10 O37 1.394581 1_555
B11 O29 1.379456 1_555
B11 O27 1.380251 1_555
B11 O40 1.395583 1_555
B12 O41 1.377694 1_555
B12 O28 1.386702 1_555
B12 O30 1.395804 1_555
B13 O34 1.360636 1_555
B13 O42 1.367349 1_565
B13 O31 1.385270 1_555
B14 O14 1.361894 1_655
B14 O39 1.397617 1_555
B14 O46 1.403220 1_555
B15 O43 1.365015 1_555
B15 O47 1.394618 1_555
B15 O44 1.403419 1_555
