# generated using pymatgen
data_Ca2Mn2B4O13
_symmetry_space_group_name_H-M   'P 1'
_cell_length_a   9.16118704
_cell_length_b   12.01130740
_cell_length_c   8.68742100
_cell_angle_alpha   89.99996411
_cell_angle_beta   89.99996079
_cell_angle_gamma   90.08729734
_symmetry_Int_Tables_number   1
_chemical_formula_structural   Ca2Mn2B4O13
_chemical_formula_sum   'Ca8 Mn8 B16 O52'
_cell_volume   955.94387780
_cell_formula_units_Z   4
loop_
 _symmetry_equiv_pos_site_id
 _symmetry_equiv_pos_as_xyz
  1  'x, y, z'
loop_
 _atom_site_type_symbol
 _atom_site_label
 _atom_site_symmetry_multiplicity
 _atom_site_fract_x
 _atom_site_fract_y
 _atom_site_fract_z
 _atom_site_occupancy
  Ca  Ca0  1  0.75948100  0.37870600  0.22424200  1
  Ca  Ca1  1  0.24812500  0.62909500  0.22986100  1
  Ca  Ca2  1  0.25148100  0.12859100  0.77020300  1
  Ca  Ca3  1  0.73971500  0.87995800  0.77496600  1
  Ca  Ca4  1  0.24812500  0.62909400  0.77014000  1
  Ca  Ca5  1  0.75948100  0.37870700  0.77575900  1
  Ca  Ca6  1  0.73971400  0.87995800  0.22503400  1
  Ca  Ca7  1  0.25148300  0.12859100  0.22979700  1
  Mn  Mn0  1  0.49444200  0.49727300  0.00000000  1
  Mn  Mn1  1  0.00668800  0.99706300  0.00000000  1
  Mn  Mn2  1  0.03723500  0.49582600  0.00000100  1
  Mn  Mn3  1  0.46143200  0.99494300  0.99999900  1
  Mn  Mn4  1  0.02374900  0.26144000  0.00000000  1
  Mn  Mn5  1  0.97219500  0.72989000  0.00000000  1
  Mn  Mn6  1  0.52308600  0.22983200  0.99999900  1
  Mn  Mn7  1  0.48072400  0.76052900  0.99999900  1
  B  B0  1  0.77714600  0.22169500  0.50000000  1
  B  B1  1  0.22506100  0.78115300  0.50000000  1
  B  B2  1  0.27450900  0.28118600  0.50000000  1
  B  B3  1  0.72388000  0.72145100  0.50000000  1
  B  B4  1  0.76888000  0.03182000  0.50000000  1
  B  B5  1  0.23196700  0.97059600  0.50000000  1
  B  B6  1  0.26757200  0.47068100  0.50000000  1
  B  B7  1  0.73223600  0.53144700  0.50000000  1
  B  B8  1  0.90330100  0.12476700  0.28762900  1
  B  B9  1  0.09917000  0.87634600  0.28776200  1
  B  B10  1  0.40010800  0.37670600  0.71224300  1
  B  B11  1  0.59792300  0.62424900  0.71222800  1
  B  B12  1  0.09917100  0.87634500  0.71223900  1
  B  B13  1  0.90330000  0.12476700  0.71237100  1
  B  B14  1  0.59792200  0.62424800  0.28777300  1
  B  B15  1  0.40010700  0.37670500  0.28775900  1
  O  O0  1  0.69636300  0.33265700  0.49999900  1
  O  O1  1  0.30651700  0.66971300  0.50000000  1
  O  O2  1  0.19305700  0.16953500  0.50000000  1
  O  O3  1  0.80457400  0.83282800  0.49999900  1
  O  O4  1  0.68578400  0.92162400  0.50000000  1
  O  O5  1  0.31314600  0.08152800  0.50000000  1
  O  O6  1  0.18638100  0.58147100  0.50000000  1
  O  O7  1  0.81519400  0.42158400  0.50000000  1
  O  O8  1  0.67922300  0.12880600  0.49999900  1
  O  O9  1  0.32275000  0.87407900  0.50000000  1
  O  O10  1  0.17689000  0.37402600  0.50000100  1
  O  O11  1  0.82172600  0.62871200  0.49999900  1
  O  O12  1  0.86887300  0.22393700  0.35599900  1
  O  O13  1  0.13312100  0.77786400  0.35766100  1
  O  O14  1  0.36639500  0.27822800  0.64240700  1
  O  O15  1  0.63217200  0.72345400  0.64394000  1
  O  O16  1  0.13312100  0.77786400  0.64234000  1
  O  O17  1  0.86887100  0.22393700  0.64400200  1
  O  O18  1  0.63217200  0.72345400  0.35606000  1
  O  O19  1  0.36639600  0.27822800  0.35759400  1
  O  O20  1  0.85784200  0.02713500  0.35385700  1
  O  O21  1  0.14316800  0.97444200  0.35376900  1
  O  O22  1  0.35636700  0.47491000  0.64622400  1
  O  O23  1  0.64309400  0.52654200  0.64610900  1
  O  O24  1  0.14316800  0.97444200  0.64623100  1
  O  O25  1  0.85784200  0.02713500  0.64614300  1
  O  O26  1  0.64309400  0.52654200  0.35389100  1
  O  O27  1  0.35636600  0.47491000  0.35377600  1
  O  O28  1  0.98918700  0.12586200  0.15237900  1
  O  O29  1  0.01699200  0.87211800  0.15105800  1
  O  O30  1  0.48195700  0.37260900  0.84910300  1
  O  O31  1  0.51216600  0.62532500  0.84751900  1
  O  O32  1  0.01699200  0.87211800  0.84894200  1
  O  O33  1  0.98918700  0.12586200  0.84762000  1
  O  O34  1  0.51216600  0.62532500  0.15248200  1
  O  O35  1  0.48195700  0.37260900  0.15089800  1
  O  O36  1  0.69426500  0.48133900  0.00000100  1
  O  O37  1  0.27925400  0.51842800  0.00000000  1
  O  O38  1  0.21977900  0.01621200  0.00000000  1
  O  O39  1  0.80601100  0.98161000  0.00000000  1
  O  O40  1  0.71355800  0.25914200  0.00000000  1
  O  O41  1  0.28854800  0.73638100  0.00000000  1
  O  O42  1  0.21579900  0.23768300  0.00000000  1
  O  O43  1  0.78155600  0.76112900  0.00000000  1
  O  O44  1  0.00503200  0.37369700  0.14076400  1
  O  O45  1  0.00731700  0.62021400  0.14041300  1
  O  O46  1  0.49056300  0.11945200  0.85961700  1
  O  O47  1  0.49586700  0.87313800  0.85919300  1
  O  O48  1  0.00731600  0.62021400  0.85958800  1
  O  O49  1  0.00503200  0.37369800  0.85923700  1
  O  O50  1  0.49586600  0.87313800  0.14080600  1
  O  O51  1  0.49056300  0.11945200  0.14038100  1
loop_
_geom_bond_atom_site_label_1
_geom_bond_atom_site_label_2
_geom_bond_distance
_geom_bond_site_symmetry_2
Ca0 O26 2.358888 1_555
Ca0 O44 2.364399 1_655
Ca0 O36 2.381992 1_555
Ca0 O12 2.403326 1_555
Ca0 O40 2.456142 1_555
Ca0 O7 2.502794 1_555
Ca0 O0 2.525528 1_555
Ca0 O35 2.621990 1_555
Ca1 O45 2.341223 1_555
Ca1 O13 2.354031 1_555
Ca1 O27 2.361678 1_555
Ca1 O41 2.404973 1_555
Ca1 O37 2.415991 1_555
Ca1 O1 2.455792 1_555
Ca1 O6 2.480666 1_555
Ca1 O34 2.511072 1_555
Ca2 O46 2.326687 1_555
Ca2 O14 2.359133 1_555
Ca2 O24 2.359472 1_545
Ca2 O42 2.410505 1_556
Ca2 O38 2.427045 1_556
Ca2 O2 2.457492 1_555
Ca2 O5 2.479878 1_555
Ca2 O33 2.495437 1_455
Ca3 O47 2.352027 1_555
Ca3 O25 2.354323 1_565
Ca3 O39 2.383125 1_556
Ca3 O15 2.407159 1_555
Ca3 O43 2.451050 1_556
Ca3 O4 2.490267 1_555
Ca3 O3 2.526002 1_555
Ca3 O32 2.622052 1_655
Ca4 O48 2.341230 1_555
Ca4 O16 2.354040 1_555
Ca4 O22 2.361677 1_555
Ca4 O41 2.404974 1_556
Ca4 O37 2.415976 1_556
Ca4 O1 2.455801 1_555
Ca4 O6 2.480673 1_555
Ca4 O31 2.511073 1_555
Ca5 O23 2.358883 1_555
Ca5 O49 2.364400 1_655
Ca5 O36 2.381993 1_556
Ca5 O17 2.403328 1_555
Ca5 O40 2.456140 1_556
Ca5 O7 2.502798 1_555
Ca5 O0 2.525556 1_555
Ca5 O30 2.621990 1_555
Ca6 O50 2.352031 1_555
Ca6 O20 2.354329 1_565
Ca6 O39 2.383125 1_555
Ca6 O18 2.407153 1_555
Ca6 O43 2.451052 1_555
Ca6 O4 2.490265 1_555
Ca6 O3 2.525988 1_555
Ca6 O29 2.622060 1_655
Ca7 O51 2.326674 1_555
Ca7 O19 2.359135 1_555
Ca7 O21 2.359478 1_545
Ca7 O42 2.410507 1_555
Ca7 O38 2.427049 1_555
Ca7 O2 2.457496 1_555
Ca7 O5 2.479874 1_555
Ca7 O28 2.495458 1_455
Mn0 O36 1.840883 1_555
Mn0 O37 1.988070 1_555
Mn0 O30 1.993283 1_554
Mn0 O35 1.993287 1_555
Mn0 O31 2.036175 1_554
Mn0 O34 2.036182 1_555
Mn1 O39 1.847504 1_455
Mn1 O38 1.965321 1_565
Mn1 O29 1.995931 1_555
Mn1 O32 1.995933 1_554
Mn1 O28 2.042598 1_465
Mn1 O33 2.042602 1_464
Mn2 O49 1.932095 1_554
Mn2 O44 1.932097 1_555
Mn2 O45 1.948474 1_555
Mn2 O48 1.948480 1_554
Mn2 O37 2.233329 1_555
Mn3 O47 1.933319 1_555
Mn3 O50 1.933322 1_556
Mn3 O46 1.947791 1_565
Mn3 O51 1.947793 1_566
Mn3 O38 2.228906 1_566
Mn4 O42 1.782825 1_555
Mn4 O44 1.828549 1_555
Mn4 O49 1.828551 1_554
Mn4 O28 2.122024 1_455
Mn4 O33 2.122031 1_454
Mn5 O43 1.786891 1_555
Mn5 O48 1.824333 1_654
Mn5 O45 1.824339 1_655
Mn5 O32 2.192457 1_654
Mn5 O29 2.192458 1_655
Mn6 O40 1.779583 1_556
Mn6 O51 1.825556 1_556
Mn6 O46 1.825558 1_555
Mn6 O30 2.191667 1_555
Mn6 O35 2.191683 1_556
Mn7 O41 1.783857 1_556
Mn7 O47 1.828788 1_555
Mn7 O50 1.828795 1_556
Mn7 O31 2.115755 1_555
Mn7 O34 2.115770 1_556
Mn7 O43 2.755977 1_556
B0 O8 1.430577 1_555
B0 O17 1.507247 1_555
B0 O12 1.507249 1_555
B0 O0 1.525470 1_555
B1 O9 1.429582 1_555
B1 O13 1.496654 1_555
B1 O16 1.496660 1_555
B1 O1 1.533492 1_555
B2 O10 1.430502 1_555
B2 O19 1.496826 1_555
B2 O14 1.496829 1_555
B2 O2 1.533702 1_555
B3 O11 1.430860 1_555
B3 O15 1.506707 1_555
B3 O18 1.506708 1_555
B3 O3 1.527464 1_555
B4 O8 1.426399 1_555
B4 O20 1.509776 1_555
B4 O25 1.509777 1_555
B4 O4 1.525895 1_545
B5 O9 1.427794 1_555
B5 O24 1.509264 1_555
B5 O21 1.509265 1_555
B5 O5 1.524945 1_565
B6 O10 1.426543 1_555
B6 O27 1.509256 1_555
B6 O22 1.509262 1_555
B6 O6 1.525488 1_555
B7 O11 1.426215 1_555
B7 O23 1.510425 1_555
B7 O26 1.510426 1_555
B7 O7 1.523806 1_555
B8 O12 1.368311 1_555
B8 O20 1.370465 1_555
B8 O28 1.414138 1_555
B9 O13 1.365961 1_555
B9 O21 1.370454 1_555
B9 O29 1.407000 1_555
B10 O14 1.364364 1_555
B10 O22 1.371975 1_555
B10 O30 1.406561 1_555
B11 O15 1.367156 1_555
B11 O23 1.371123 1_555
B11 O31 1.413797 1_555
B12 O16 1.365949 1_555
B12 O24 1.370465 1_555
B12 O32 1.406997 1_555
B13 O17 1.368309 1_555
B13 O25 1.370463 1_555
B13 O33 1.414136 1_555
B14 O18 1.367165 1_555
B14 O26 1.371111 1_555
B14 O34 1.413793 1_555
B15 O19 1.364345 1_555
B15 O27 1.371979 1_555
B15 O35 1.406572 1_555
