# generated using pymatgen
data_Er5SbAu2
_symmetry_space_group_name_H-M   'P 1'
_cell_length_a   8.61380595
_cell_length_b   8.61380595
_cell_length_c   8.61380595
_cell_angle_alpha   124.31004821
_cell_angle_beta   124.31004821
_cell_angle_gamma   82.68398609
_symmetry_Int_Tables_number   1
_chemical_formula_structural   Er5SbAu2
_chemical_formula_sum   'Er10 Sb2 Au4'
_cell_volume   418.73785349
_cell_formula_units_Z   2
loop_
 _symmetry_equiv_pos_site_id
 _symmetry_equiv_pos_as_xyz
  1  'x, y, z'
loop_
 _atom_site_type_symbol
 _atom_site_label
 _atom_site_symmetry_multiplicity
 _atom_site_fract_x
 _atom_site_fract_y
 _atom_site_fract_z
 _atom_site_occupancy
  Er  Er0  1  0.00000000  0.00000000  0.00000000  1
  Er  Er1  1  0.50000000  0.50000000  0.00000000  1
  Er  Er2  1  0.01326700  0.51326700  0.81312100  1
  Er  Er3  1  0.70014600  0.20014600  0.18687900  1
  Er  Er4  1  0.51326700  0.70014600  0.50000000  1
  Er  Er5  1  0.20014600  0.01326700  0.50000000  1
  Er  Er6  1  0.98673300  0.48673300  0.18687900  1
  Er  Er7  1  0.29985400  0.79985400  0.81312100  1
  Er  Er8  1  0.48673300  0.29985400  0.50000000  1
  Er  Er9  1  0.79985400  0.98673300  0.50000000  1
  Sb  Sb0  1  0.75000000  0.75000000  0.00000000  1
  Sb  Sb1  1  0.25000000  0.25000000  0.00000000  1
  Au  Au0  1  0.63633200  0.13633200  0.77266300  1
  Au  Au1  1  0.36366800  0.86366800  0.22733700  1
  Au  Au2  1  0.13633200  0.36366800  0.50000000  1
  Au  Au3  1  0.86366800  0.63633200  0.50000000  1
loop_
_geom_bond_atom_site_label_1
_geom_bond_atom_site_label_2
_geom_bond_distance
_geom_bond_site_symmetry_2
Er0 Sb0 3.233538 1_445
Er0 Sb1 3.233538 1_555
Er1 Sb1 3.233538 1_555
Er1 Sb0 3.233538 1_555
Er2 Sb0 3.336035 1_456
Er2 Sb1 3.336035 1_556
Er3 Sb1 3.336035 1_555
Er3 Sb0 3.336035 1_545
Er4 Sb1 3.336035 1_555
Er4 Sb0 3.336035 1_556
Er5 Sb0 3.336035 1_445
Er5 Sb1 3.336035 1_556
Er6 Sb1 3.336035 1_655
Er6 Sb0 3.336035 1_555
Er7 Sb0 3.336035 1_556
Er7 Sb1 3.336035 1_566
Er8 Sb1 3.336035 1_555
Er8 Sb0 3.336035 1_556
Er9 Sb1 3.336035 1_666
Er9 Sb0 3.336035 1_555
Au0 Er6 2.998276 1_556
Au0 Er3 2.998284 1_556
Au0 Er9 3.002673 1_545
Au0 Er8 3.002673 1_555
Au0 Er5 3.002681 1_555
Au0 Er4 3.002681 1_545
Au0 Er0 3.125194 1_656
Au0 Er1 3.125194 1_556
Au1 Er2 2.998276 1_554
Au1 Er7 2.998284 1_554
Au1 Er5 3.002673 1_565
Au1 Er4 3.002673 1_555
Au1 Er8 3.002681 1_565
Au1 Er9 3.002681 1_555
Au1 Er0 3.125194 1_565
Au1 Er1 3.125194 1_555
Au2 Er8 2.998276 1_555
Au2 Er5 2.998276 1_555
Au2 Er2 3.002680 1_555
Au2 Er6 3.002680 1_455
Au2 Er3 3.002680 1_455
Au2 Er7 3.002680 1_555
Au2 Er1 3.125191 1_556
Au2 Er0 3.125191 1_555
Au3 Er4 2.998276 1_555
Au3 Er9 2.998276 1_555
Au3 Er6 3.002680 1_555
Au3 Er2 3.002680 1_655
Au3 Er7 3.002680 1_655
Au3 Er3 3.002680 1_555
Au3 Er1 3.125191 1_555
Au3 Er0 3.125191 1_666
