# generated using pymatgen
data_Pr2Cu2O5
_symmetry_space_group_name_H-M   'P 1'
_cell_length_a   3.88698200
_cell_length_b   5.57267700
_cell_length_c   10.34920900
_cell_angle_alpha   90.00000000
_cell_angle_beta   90.00000000
_cell_angle_gamma   90.00000000
_symmetry_Int_Tables_number   1
_chemical_formula_structural   Pr2Cu2O5
_chemical_formula_sum   'Pr4 Cu4 O10'
_cell_volume   224.17313146
_cell_formula_units_Z   2
loop_
 _symmetry_equiv_pos_site_id
 _symmetry_equiv_pos_as_xyz
  1  'x, y, z'
loop_
 _atom_site_type_symbol
 _atom_site_label
 _atom_site_symmetry_multiplicity
 _atom_site_fract_x
 _atom_site_fract_y
 _atom_site_fract_z
 _atom_site_occupancy
  Pr  Pr0  1  0.50000000  0.82164900  0.14152900  1
  Pr  Pr1  1  0.50000000  0.17835100  0.85847100  1
  Pr  Pr2  1  0.50000000  0.32164900  0.35847100  1
  Pr  Pr3  1  0.50000000  0.67835100  0.64152900  1
  Cu  Cu0  1  0.00000000  0.79880100  0.39863500  1
  Cu  Cu1  1  0.00000000  0.20119900  0.60136500  1
  Cu  Cu2  1  0.00000000  0.29880100  0.10136500  1
  Cu  Cu3  1  0.00000000  0.70119900  0.89863500  1
  O  O0  1  0.50000000  0.77415000  0.39601600  1
  O  O1  1  0.50000000  0.22585000  0.60398400  1
  O  O2  1  0.50000000  0.27415000  0.10398400  1
  O  O3  1  0.50000000  0.72585000  0.89601600  1
  O  O4  1  0.00000000  0.08058300  0.29120200  1
  O  O5  1  0.00000000  0.91941700  0.70879800  1
  O  O6  1  0.00000000  0.58058300  0.20879800  1
  O  O7  1  0.00000000  0.41941700  0.79120200  1
  O  O8  1  0.00000000  0.50000000  0.50000000  1
  O  O9  1  0.00000000  0.00000000  0.00000000  1
loop_
_geom_bond_atom_site_label_1
_geom_bond_atom_site_label_2
_geom_bond_distance
_geom_bond_site_symmetry_2
Cu0 O4 1.924054 1_565
Cu0 O0 1.948528 1_555
Cu0 O0 1.948528 1_455
Cu0 O8 1.968027 1_555
Cu0 O6 2.310562 1_555
Cu1 O5 1.924054 1_545
Cu1 O1 1.948528 1_555
Cu1 O1 1.948528 1_455
Cu1 O8 1.968027 1_555
Cu1 O7 2.310562 1_555
Cu2 O6 1.924054 1_555
Cu2 O2 1.948528 1_455
Cu2 O2 1.948528 1_555
Cu2 O9 1.968027 1_555
Cu2 O4 2.310562 1_555
Cu3 O7 1.924054 1_555
Cu3 O3 1.948528 1_455
Cu3 O3 1.948528 1_555
Cu3 O9 1.968027 1_566
Cu3 O5 2.310562 1_555
O0 Pr2 2.551403 1_555
O0 Pr3 2.596344 1_555
O0 Pr0 2.647007 1_555
O0 Pr2 3.075678 1_565
O1 Pr3 2.551403 1_555
O1 Pr2 2.596344 1_555
O1 Pr1 2.647007 1_555
O1 Pr3 3.075678 1_545
O2 Pr0 2.551403 1_545
O2 Pr1 2.596344 1_554
O2 Pr2 2.647007 1_555
O2 Pr0 3.075678 1_555
O3 Pr1 2.551403 1_565
O3 Pr0 2.596344 1_556
O3 Pr3 2.647007 1_555
O3 Pr1 3.075678 1_555
O4 Pr2 2.463027 1_455
O4 Pr2 2.463027 1_555
O4 Pr0 2.873790 1_445
O4 Pr0 2.873790 1_545
O5 Pr3 2.463027 1_455
O5 Pr3 2.463027 1_555
O5 Pr1 2.873790 1_565
O5 Pr1 2.873790 1_465
O6 Pr0 2.463027 1_455
O6 Pr0 2.463027 1_555
O6 Pr2 2.873790 1_455
O6 Pr2 2.873790 1_555
O7 Pr1 2.463027 1_555
O7 Pr1 2.463027 1_455
O7 Pr3 2.873790 1_455
O7 Pr3 2.873790 1_555
O8 Pr3 2.628757 1_455
O8 Pr3 2.628757 1_555
O8 Pr2 2.628757 1_455
O8 Pr2 2.628757 1_555
O9 Pr1 2.628757 1_554
O9 Pr1 2.628757 1_454
O9 Pr0 2.628757 1_445
O9 Pr0 2.628757 1_545
