# generated using pymatgen
data_K5Na3Ta7NbO20
_symmetry_space_group_name_H-M   'P 1'
_cell_length_a   11.49984411
_cell_length_b   11.38876890
_cell_length_c   17.83087441
_cell_angle_alpha   108.85220533
_cell_angle_beta   109.02935433
_cell_angle_gamma   89.75201714
_symmetry_Int_Tables_number   1
_chemical_formula_structural   K5Na3Ta7NbO20
_chemical_formula_sum   'K20 Na12 Ta28 Nb4 O80'
_cell_volume   2075.87874411
_cell_formula_units_Z   4
loop_
 _symmetry_equiv_pos_site_id
 _symmetry_equiv_pos_as_xyz
  1  'x, y, z'
loop_
 _atom_site_type_symbol
 _atom_site_label
 _atom_site_symmetry_multiplicity
 _atom_site_fract_x
 _atom_site_fract_y
 _atom_site_fract_z
 _atom_site_occupancy
  K  K0  1  0.30833600  0.06486100  0.12115900  1
  K  K1  1  0.30594300  0.56582900  0.12300300  1
  K  K2  1  0.81058400  0.05846400  0.12149500  1
  K  K3  1  0.80385100  0.55487200  0.11967200  1
  K  K4  1  0.81372200  0.56791300  0.62518100  1
  K  K5  1  0.19197200  0.94491400  0.38112600  1
  K  K6  1  0.18582200  0.93081200  0.87203300  1
  K  K7  1  0.68975400  0.43824900  0.38045000  1
  K  K8  1  0.67568900  0.42955300  0.87265700  1
  K  K9  1  0.68914600  0.93643300  0.37767900  1
  K  K10  1  0.68813300  0.93245300  0.88775700  1
  K  K11  1  0.05489500  0.31337000  0.12115100  1
  K  K12  1  0.06150400  0.81279900  0.11995700  1
  K  K13  1  0.55865800  0.30884300  0.12222900  1
  K  K14  1  0.56086500  0.80805900  0.12234600  1
  K  K15  1  0.43771800  0.19344600  0.38014500  1
  K  K16  1  0.43441200  0.69442100  0.37723600  1
  K  K17  1  0.44194600  0.70081200  0.87799400  1
  K  K18  1  0.93727400  0.68728900  0.38172200  1
  K  K19  1  0.93759400  0.69214200  0.87555800  1
  Na  Na0  1  0.29442400  0.06986900  0.60688200  1
  Na  Na1  1  0.31308500  0.57031500  0.61423500  1
  Na  Na2  1  0.80477600  0.06867500  0.61113500  1
  Na  Na3  1  0.18826400  0.43704200  0.38463800  1
  Na  Na4  1  0.18874300  0.43346900  0.89416600  1
  Na  Na5  1  0.04265400  0.28864900  0.60486400  1
  Na  Na6  1  0.06348400  0.80308500  0.61345300  1
  Na  Na7  1  0.55680600  0.30456600  0.61220000  1
  Na  Na8  1  0.54707800  0.78858500  0.60447000  1
  Na  Na9  1  0.43792100  0.20672100  0.89451000  1
  Na  Na10  1  0.94465500  0.19834700  0.38463700  1
  Na  Na11  1  0.94045000  0.20490600  0.88919900  1
  Ta  Ta0  1  0.99684800  0.00162600  0.99961500  1
  Ta  Ta1  1  0.99898000  0.00204500  0.50057200  1
  Ta  Ta2  1  0.99523800  0.50004200  0.99816800  1
  Ta  Ta3  1  0.00380600  0.50379000  0.50722800  1
  Ta  Ta4  1  0.49632600  0.99984100  0.99838500  1
  Ta  Ta5  1  0.50005300  0.00294500  0.50306100  1
  Ta  Ta6  1  0.49455900  0.49910200  0.99731800  1
  Ta  Ta7  1  0.49968500  0.50230600  0.50110600  1
  Ta  Ta8  1  0.24634900  0.25104100  0.99948600  1
  Ta  Ta9  1  0.25091700  0.25631600  0.50498900  1
  Ta  Ta10  1  0.24565800  0.74705300  0.99507400  1
  Ta  Ta11  1  0.25058800  0.75275200  0.50262600  1
  Ta  Ta12  1  0.74675400  0.24856500  0.00054500  1
  Ta  Ta13  1  0.75032800  0.25167500  0.50106000  1
  Ta  Ta14  1  0.74764200  0.74672700  0.99911800  1
  Ta  Ta15  1  0.74975700  0.75328800  0.50231500  1
  Ta  Ta16  1  0.11951000  0.12946700  0.25308900  1
  Ta  Ta17  1  0.09913900  0.10923500  0.74823300  1
  Ta  Ta18  1  0.10281100  0.62547100  0.25104300  1
  Ta  Ta19  1  0.64088600  0.11154100  0.25086200  1
  Ta  Ta20  1  0.58801600  0.07638800  0.74808300  1
  Ta  Ta21  1  0.62348800  0.60612900  0.25005600  1
  Ta  Ta22  1  0.35768800  0.39201500  0.25140000  1
  Ta  Ta23  1  0.37292300  0.89590700  0.24943700  1
  Ta  Ta24  1  0.87873700  0.37442500  0.25477300  1
  Ta  Ta25  1  0.87364700  0.38238600  0.74872400  1
  Ta  Ta26  1  0.89299100  0.87429700  0.25067300  1
  Ta  Ta27  1  0.84383300  0.89944400  0.74841600  1
  Nb  Nb0  1  0.14917300  0.56489500  0.74925700  1
  Nb  Nb1  1  0.61858200  0.61165700  0.74792500  1
  Nb  Nb2  1  0.34353000  0.41152300  0.74891600  1
  Nb  Nb3  1  0.38628700  0.92442500  0.74821600  1
  O  O0  1  0.12027100  0.12625000  0.49721100  1
  O  O1  1  0.11726100  0.12351300  0.99201000  1
  O  O2  1  0.12794700  0.62785400  0.50335600  1
  O  O3  1  0.12031000  0.62148500  0.99497000  1
  O  O4  1  0.62519500  0.12741600  0.50392200  1
  O  O5  1  0.61947800  0.12567600  0.99771100  1
  O  O6  1  0.62236000  0.62748900  0.49809700  1
  O  O7  1  0.62034800  0.62259500  0.99716800  1
  O  O8  1  0.12137100  0.37561000  0.99984900  1
  O  O9  1  0.12682700  0.38016800  0.50742200  1
  O  O10  1  0.12169100  0.87525200  0.99648900  1
  O  O11  1  0.13030800  0.88426100  0.51343300  1
  O  O12  1  0.61744800  0.37079000  0.99607100  1
  O  O13  1  0.62547200  0.37739700  0.50572600  1
  O  O14  1  0.62311800  0.87602900  0.00289600  1
  O  O15  1  0.62678000  0.88120000  0.50721800  1
  O  O16  1  0.37511800  0.12948400  0.50402500  1
  O  O17  1  0.36911100  0.12510100  0.99492800  1
  O  O18  1  0.36959700  0.62357700  0.49571000  1
  O  O19  1  0.36885900  0.62303200  0.99806200  1
  O  O20  1  0.87163500  0.12334200  0.49308300  1
  O  O21  1  0.87019500  0.12415000  0.99635800  1
  O  O22  1  0.87780200  0.62940500  0.50352200  1
  O  O23  1  0.87119700  0.62166000  0.99759500  1
  O  O24  1  0.37009000  0.37501400  0.99960300  1
  O  O25  1  0.37630400  0.38169400  0.50896900  1
  O  O26  1  0.37296900  0.87621300  0.99909700  1
  O  O27  1  0.37731500  0.87970800  0.50544000  1
  O  O28  1  0.86944000  0.37097400  0.99708700  1
  O  O29  1  0.87916400  0.37697800  0.50583200  1
  O  O30  1  0.87596200  0.87602800  0.00300400  1
  O  O31  1  0.87895400  0.88241000  0.50890000  1
  O  O32  1  0.06216000  0.07338300  0.12712700  1
  O  O33  1  0.05817200  0.09262700  0.63032500  1
  O  O34  1  0.05809400  0.57159700  0.12836800  1
  O  O35  1  0.07348800  0.57621600  0.63405600  1
  O  O36  1  0.56384300  0.07068600  0.12841600  1
  O  O37  1  0.56091000  0.07614600  0.63483700  1
  O  O38  1  0.56047600  0.56646700  0.12739100  1
  O  O39  1  0.56089800  0.57907800  0.62492900  1
  O  O40  1  0.43157000  0.42845500  0.37235600  1
  O  O41  1  0.42417800  0.43294200  0.87069500  1
  O  O42  1  0.43642900  0.93730200  0.37559300  1
  O  O43  1  0.43840000  0.94190600  0.86993700  1
  O  O44  1  0.94054400  0.42817400  0.37656700  1
  O  O45  1  0.93211400  0.42692300  0.87187500  1
  O  O46  1  0.94061600  0.92405400  0.37518300  1
  O  O47  1  0.92076800  0.93783300  0.86920700  1
  O  O48  1  0.30710100  0.31005800  0.12638100  1
  O  O49  1  0.30471700  0.30355900  0.62948700  1
  O  O50  1  0.31101600  0.81318700  0.12736200  1
  O  O51  1  0.32743000  0.81123800  0.63037700  1
  O  O52  1  0.81058300  0.30592600  0.12590900  1
  O  O53  1  0.82098800  0.29914400  0.62539500  1
  O  O54  1  0.81620400  0.80349400  0.12979200  1
  O  O55  1  0.80967300  0.81322700  0.62910500  1
  O  O56  1  0.18466800  0.20317000  0.37576200  1
  O  O57  1  0.18076600  0.20282000  0.86714700  1
  O  O58  1  0.17948900  0.70027400  0.37488700  1
  O  O59  1  0.18992100  0.68450100  0.86748000  1
  O  O60  1  0.68435700  0.19478300  0.37285000  1
  O  O61  1  0.67534900  0.17498500  0.86419300  1
  O  O62  1  0.68630700  0.69307000  0.37404600  1
  O  O63  1  0.68880100  0.68757000  0.87413900  1
  O  O64  1  0.50195900  0.00585300  0.25181100  1
  O  O65  1  0.42247200  0.10443600  0.74905000  1
  O  O66  1  0.49795100  0.49338700  0.25072500  1
  O  O67  1  0.48091200  0.50852400  0.74552800  1
  O  O68  1  0.00078600  0.00583900  0.25302900  1
  O  O69  1  0.99461200  0.98380700  0.74824000  1
  O  O70  1  0.99473400  0.49867100  0.25188900  1
  O  O71  1  0.97897800  0.50803900  0.75029500  1
  O  O72  1  0.23776900  0.50327900  0.25349800  1
  O  O73  1  0.16997100  0.38832100  0.74843500  1
  O  O74  1  0.24658800  0.00612000  0.25250600  1
  O  O75  1  0.22296600  0.99644700  0.74216700  1
  O  O76  1  0.74962900  0.49523900  0.25102000  1
  O  O77  1  0.72010400  0.45164800  0.73956400  1
  O  O78  1  0.76075200  0.00015800  0.25402600  1
  O  O79  1  0.67700500  0.92559800  0.73758000  1
loop_
_geom_bond_atom_site_label_1
_geom_bond_atom_site_label_2
_geom_bond_distance
_geom_bond_site_symmetry_2
K0 O48 2.763940 1_555
K0 O26 2.815056 1_544
K0 O10 2.835157 1_544
K0 O17 2.837816 1_554
K0 O32 2.867512 1_555
K0 O1 2.873883 1_554
K0 O36 2.898775 1_555
K0 O50 2.903533 1_545
K0 O64 2.907391 1_555
K0 O74 2.921992 1_555
K1 O50 2.793291 1_555
K1 O19 2.811435 1_554
K1 O3 2.813567 1_554
K1 O8 2.818948 1_554
K1 O24 2.839474 1_554
K1 O34 2.882598 1_555
K1 O38 2.902499 1_555
K1 O48 2.932817 1_555
K1 O66 2.943132 1_555
K1 O72 2.966803 1_555
K2 O30 2.744357 1_545
K2 O14 2.768188 1_545
K2 O52 2.793849 1_555
K2 O21 2.844099 1_554
K2 O68 2.862859 1_655
K2 O5 2.863832 1_554
K2 O32 2.865774 1_655
K2 O78 2.873027 1_555
K2 O36 2.880927 1_555
K2 O54 2.954294 1_545
K3 O54 2.779693 1_555
K3 O12 2.796358 1_554
K3 O28 2.799280 1_554
K3 O7 2.808601 1_554
K3 O23 2.844467 1_554
K3 O38 2.847064 1_555
K3 O52 2.872788 1_555
K3 O34 2.880758 1_655
K3 O76 2.884295 1_555
K3 O70 2.893886 1_555
K4 O71 2.694558 1_555
K4 O55 2.772578 1_555
K4 O22 2.787108 1_555
K4 O29 2.804155 1_555
K4 O13 2.824578 1_555
K4 O6 2.857768 1_555
K4 O39 2.908269 1_555
K4 O35 2.939772 1_655
K4 O53 3.062928 1_555
K4 O77 3.203370 1_555
K5 O0 2.750461 1_565
K5 O58 2.754695 1_555
K5 O16 2.776381 1_565
K5 O27 2.824366 1_555
K5 O42 2.844893 1_555
K5 O74 2.848917 1_565
K5 O46 2.865817 1_455
K5 O68 2.875520 1_565
K5 O11 2.948545 1_555
K5 O56 2.973447 1_565
K6 O59 2.780651 1_555
K6 O69 2.784972 1_455
K6 O10 2.801377 1_555
K6 O75 2.805304 1_555
K6 O26 2.805503 1_555
K6 O17 2.834721 1_565
K6 O1 2.839964 1_565
K6 O43 2.920809 1_555
K6 O47 3.033160 1_455
K6 O57 3.126838 1_565
K7 O60 2.731975 1_555
K7 O6 2.787488 1_555
K7 O29 2.837097 1_555
K7 O22 2.844358 1_555
K7 O13 2.845739 1_555
K7 O66 2.865238 1_555
K7 O76 2.868742 1_555
K7 O44 2.908246 1_555
K7 O40 2.926041 1_555
K7 O62 2.940577 1_555
K8 O77 2.670877 1_555
K8 O12 2.766904 1_555
K8 O7 2.814672 1_555
K8 O28 2.837637 1_555
K8 O61 2.853978 1_555
K8 O41 2.881363 1_555
K8 O23 2.903629 1_555
K8 O63 2.934152 1_555
K8 O45 2.953400 1_555
K8 O67 2.992259 1_555
K9 O20 2.749820 1_565
K9 O62 2.751441 1_555
K9 O31 2.864587 1_555
K9 O4 2.870609 1_565
K9 O15 2.875474 1_555
K9 O64 2.877049 1_565
K9 O78 2.879126 1_565
K9 O42 2.894307 1_555
K9 O46 2.908795 1_555
K9 O60 2.970983 1_565
K10 O79 2.614295 1_555
K10 O14 2.654162 1_556
K10 O30 2.692265 1_556
K10 O63 2.720378 1_555
K10 O5 2.741511 1_565
K10 O21 2.750140 1_565
K10 O43 2.790103 1_555
K10 O47 2.803883 1_555
K10 O61 2.921267 1_565
K11 O32 2.769280 1_555
K11 O28 2.778798 1_454
K11 O8 2.799790 1_554
K11 O21 2.822311 1_454
K11 O52 2.840792 1_455
K11 O72 2.859036 1_555
K11 O70 2.868162 1_455
K11 O48 2.871756 1_555
K11 O1 2.887540 1_554
K11 O34 2.901725 1_555
K12 O30 2.734155 1_455
K12 O34 2.800182 1_555
K12 O10 2.800290 1_554
K12 O50 2.829009 1_555
K12 O3 2.829023 1_554
K12 O23 2.854228 1_454
K12 O54 2.887337 1_455
K12 O74 2.891528 1_565
K12 O32 2.928855 1_565
K12 O68 2.940565 1_565
K13 O36 2.749557 1_555
K13 O5 2.788762 1_554
K13 O24 2.830199 1_554
K13 O17 2.833021 1_554
K13 O12 2.834889 1_554
K13 O66 2.841223 1_555
K13 O76 2.864296 1_555
K13 O52 2.876664 1_555
K13 O38 2.905535 1_555
K13 O48 2.917705 1_555
K14 O14 2.777199 1_555
K14 O38 2.781876 1_555
K14 O7 2.801367 1_554
K14 O19 2.838733 1_554
K14 O26 2.844697 1_554
K14 O54 2.896799 1_555
K14 O50 2.903374 1_555
K14 O64 2.916882 1_565
K14 O36 2.957739 1_565
K14 O78 2.964367 1_565
K15 O40 2.723954 1_555
K15 O13 2.814182 1_555
K15 O16 2.830092 1_555
K15 O4 2.835555 1_555
K15 O74 2.864075 1_555
K15 O25 2.869455 1_555
K15 O64 2.876773 1_555
K15 O60 2.881674 1_555
K15 O56 2.888109 1_555
K15 O42 2.891925 1_545
K16 O42 2.775997 1_555
K16 O18 2.793323 1_555
K16 O6 2.811904 1_555
K16 O27 2.821195 1_555
K16 O15 2.881242 1_555
K16 O72 2.899245 1_555
K16 O62 2.915673 1_555
K16 O58 2.918967 1_555
K16 O66 2.930381 1_555
K16 O40 3.002050 1_555
K17 O14 2.724134 1_556
K17 O26 2.756464 1_555
K17 O43 2.794934 1_555
K17 O7 2.807608 1_555
K17 O67 2.813260 1_555
K17 O59 2.845581 1_555
K17 O63 2.864099 1_555
K17 O19 2.912058 1_555
K17 O41 3.016120 1_555
K18 O46 2.737331 1_555
K18 O22 2.741677 1_555
K18 O2 2.793699 1_655
K18 O58 2.834070 1_655
K18 O62 2.845895 1_555
K18 O70 2.860403 1_555
K18 O31 2.872732 1_555
K18 O76 2.887725 1_555
K18 O44 2.923058 1_555
K18 O11 2.952000 1_655
K19 O71 2.696193 1_555
K19 O10 2.763302 1_655
K19 O3 2.787714 1_655
K19 O30 2.830928 1_556
K19 O47 2.839988 1_555
K19 O63 2.853483 1_555
K19 O23 2.860078 1_555
K19 O59 2.951368 1_655
K19 O45 3.000428 1_555
Na0 O65 2.382295 1_555
Na0 O0 2.548290 1_555
Na0 O11 2.552311 1_545
Na0 O49 2.556970 1_555
Na0 O16 2.570167 1_555
Na0 O27 2.728657 1_545
Na0 O33 2.878838 1_555
Na0 O37 2.937306 1_555
Na1 O25 2.633780 1_555
Na1 O2 2.636551 1_555
Na1 O18 2.642783 1_555
Na1 O51 2.664801 1_555
Na1 O9 2.760312 1_555
Na1 O39 2.793482 1_555
Na1 O67 2.794144 1_555
Na1 O35 2.887790 1_555
Na2 O53 2.555540 1_555
Na2 O4 2.570421 1_555
Na2 O31 2.655200 1_545
Na2 O15 2.681370 1_545
Na2 O20 2.704839 1_555
Na2 O33 2.824769 1_655
Na2 O37 2.966179 1_555
Na3 O56 2.616357 1_555
Na3 O18 2.722152 1_555
Na3 O9 2.764244 1_555
Na3 O2 2.766978 1_555
Na3 O25 2.784485 1_555
Na3 O44 2.805707 1_455
Na3 O40 2.875690 1_555
Na3 O72 2.893574 1_555
Na3 O70 2.945077 1_455
Na4 O73 2.415562 1_555
Na4 O57 2.509194 1_555
Na4 O8 2.518823 1_555
Na4 O24 2.562611 1_555
Na4 O3 2.618325 1_555
Na4 O19 2.708291 1_555
Na4 O45 2.844453 1_455
Na4 O41 2.871009 1_555
Na5 O73 2.382854 1_555
Na5 O33 2.412570 1_555
Na5 O20 2.536873 1_455
Na5 O29 2.575181 1_455
Na5 O0 2.590509 1_555
Na5 O53 2.687744 1_455
Na5 O9 2.705175 1_555
Na5 O49 2.897810 1_555
Na6 O11 2.567355 1_555
Na6 O2 2.605844 1_555
Na6 O22 2.667539 1_455
Na6 O31 2.699420 1_455
Na6 O35 2.721634 1_555
Na6 O75 2.739408 1_555
Na6 O69 2.944498 1_455
Na6 O51 2.949573 1_555
Na6 O55 3.019603 1_455
Na7 O77 2.505522 1_555
Na7 O4 2.622139 1_555
Na7 O13 2.630001 1_555
Na7 O16 2.642795 1_555
Na7 O25 2.646886 1_555
Na7 O37 2.756384 1_555
Na8 O79 2.369566 1_555
Na8 O39 2.524459 1_555
Na8 O6 2.553676 1_555
Na8 O18 2.560267 1_555
Na8 O27 2.631545 1_555
Na8 O15 2.680775 1_555
Na8 O51 2.708957 1_555
Na8 O55 2.907503 1_555
Na9 O65 2.421662 1_555
Na9 O24 2.532327 1_555
Na9 O12 2.538062 1_555
Na9 O17 2.588861 1_555
Na9 O5 2.678232 1_555
Na9 O41 2.739118 1_555
Na9 O57 2.833998 1_555
Na9 O43 2.904342 1_545
Na9 O61 2.950517 1_555
Na10 O44 2.666808 1_555
Na10 O0 2.681286 1_655
Na10 O20 2.703053 1_555
Na10 O29 2.753693 1_555
Na10 O9 2.754408 1_655
Na10 O56 2.817452 1_655
Na10 O68 2.894986 1_655
Na10 O78 2.902313 1_555
Na10 O60 2.931120 1_555
Na11 O28 2.569898 1_555
Na11 O8 2.623033 1_655
Na11 O45 2.642211 1_555
Na11 O1 2.646774 1_655
Na11 O21 2.701540 1_555
Na11 O57 2.914559 1_655
Na11 O61 2.938264 1_555
Na11 O47 2.946602 1_545
Nb0 O35 1.999487 1_555
Nb0 O59 2.006112 1_555
Nb0 O73 2.020014 1_555
Nb0 O71 2.071873 1_455
Nb1 O67 1.956377 1_555
Nb1 O39 1.978653 1_555
Nb1 O63 2.006953 1_555
Nb1 O77 2.150712 1_555
Nb2 O67 1.959727 1_555
Nb2 O49 1.984619 1_555
Nb2 O41 1.995277 1_555
Nb2 O73 2.011332 1_555
Nb3 O51 1.965823 1_555
Nb3 O43 1.995741 1_555
Nb3 O75 2.030684 1_555
Nb3 O65 2.088049 1_565
O0 Ta1 2.019019 1_455
O0 Ta9 2.054583 1_555
O1 Ta8 2.023713 1_555
O1 Ta0 2.030652 1_455
O2 Ta11 2.013426 1_555
O2 Ta3 2.045478 1_555
O3 Ta2 2.026471 1_455
O3 Ta10 2.034047 1_555
O4 Ta5 2.017419 1_555
O4 Ta13 2.046512 1_555
O5 Ta12 2.006835 1_556
O5 Ta4 2.024707 1_545
O6 Ta15 2.020226 1_555
O6 Ta7 2.035151 1_555
O7 Ta6 2.023152 1_555
O7 Ta14 2.023767 1_555
O8 Ta8 2.015148 1_555
O8 Ta2 2.023470 1_455
O9 Ta3 1.991571 1_555
O9 Ta9 2.002805 1_555
O10 Ta0 2.029322 1_465
O10 Ta10 2.036244 1_555
O11 Ta1 2.021944 1_465
O11 Ta11 2.040325 1_555
O12 Ta6 2.028473 1_555
O12 Ta12 2.032649 1_556
O13 Ta13 2.025275 1_555
O13 Ta7 2.025618 1_555
O14 Ta4 2.024796 1_554
O14 Ta14 2.050426 1_554
O15 Ta5 2.007554 1_565
O15 Ta15 2.027384 1_555
O16 Ta9 2.027038 1_555
O16 Ta5 2.030642 1_555
O17 Ta8 2.009678 1_555
O17 Ta4 2.039376 1_545
O18 Ta11 2.006959 1_555
O18 Ta7 2.031968 1_555
O19 Ta10 1.996805 1_555
O19 Ta6 2.016075 1_555
O20 Ta1 2.011206 1_555
O20 Ta13 2.019858 1_555
O21 Ta12 2.002932 1_556
O21 Ta0 2.012831 1_555
O22 Ta3 2.032577 1_655
O22 Ta15 2.034761 1_555
O23 Ta2 1.983899 1_555
O23 Ta14 2.007744 1_555
O24 Ta8 2.007972 1_555
O24 Ta6 2.034798 1_555
O25 Ta9 2.002176 1_555
O25 Ta7 2.047125 1_555
O26 Ta4 2.008859 1_555
O26 Ta10 2.048008 1_555
O27 Ta5 2.014590 1_565
O27 Ta11 2.034841 1_555
O28 Ta12 2.016716 1_556
O28 Ta2 2.058102 1_555
O29 Ta13 2.023967 1_555
O29 Ta3 2.027900 1_655
O30 Ta0 2.027349 1_564
O30 Ta14 2.058411 1_554
O31 Ta1 2.016013 1_565
O31 Ta15 2.043840 1_555
O32 Ta16 1.999522 1_555
O32 Ta0 2.022964 1_454
O33 Ta17 1.943119 1_555
O33 Ta1 2.077742 1_455
O34 Ta18 1.956399 1_555
O34 Ta2 2.065055 1_454
O35 Ta3 2.013747 1_555
O36 Ta19 1.963154 1_555
O36 Ta4 2.062068 1_544
O37 Ta20 1.939226 1_555
O37 Ta5 2.091073 1_555
O38 Ta21 1.960582 1_555
O38 Ta6 2.061809 1_554
O39 Ta7 1.969510 1_555
O40 Ta22 1.943025 1_555
O40 Ta7 2.043658 1_555
O41 Ta6 2.008651 1_555
O42 Ta23 2.015460 1_555
O42 Ta5 2.020481 1_565
O43 Ta4 2.038880 1_555
O44 Ta24 1.932417 1_555
O44 Ta3 2.074216 1_655
O45 Ta25 1.962559 1_555
O45 Ta2 2.004711 1_555
O46 Ta26 1.986643 1_555
O46 Ta1 1.995347 1_565
O47 Ta27 1.940355 1_555
O47 Ta0 2.070591 1_565
O48 Ta22 1.998332 1_555
O48 Ta8 2.012423 1_554
O49 Ta9 1.983841 1_555
O50 Ta23 1.949982 1_555
O50 Ta10 2.096860 1_554
O51 Ta11 2.031091 1_555
O52 Ta12 1.988165 1_555
O52 Ta24 2.043294 1_555
O53 Ta25 1.972466 1_555
O53 Ta13 1.980435 1_555
O54 Ta26 1.928099 1_555
O54 Ta14 2.074026 1_554
O55 Ta27 1.937201 1_555
O55 Ta15 2.010663 1_555
O56 Ta16 1.949535 1_555
O56 Ta9 2.052842 1_555
O57 Ta17 1.939905 1_555
O57 Ta8 2.108136 1_555
O58 Ta18 1.974999 1_555
O58 Ta11 2.030687 1_555
O59 Ta10 2.024858 1_555
O60 Ta19 1.960184 1_555
O60 Ta13 2.034115 1_555
O61 Ta20 1.925440 1_555
O61 Ta12 2.162177 1_556
O62 Ta21 1.984973 1_555
O62 Ta15 2.033759 1_555
O63 Ta14 1.981983 1_555
O64 Ta23 1.926780 1_545
O64 Ta19 2.012203 1_555
O65 Ta20 1.933677 1_555
O66 Ta21 1.941673 1_555
O66 Ta22 1.993128 1_555
O68 Ta26 1.929816 1_445
O68 Ta16 1.964984 1_555
O69 Ta17 1.870966 1_665
O69 Ta27 1.987354 1_555
O70 Ta18 1.916299 1_655
O70 Ta24 1.972919 1_555
O71 Ta25 1.866236 1_555
O72 Ta22 1.869961 1_555
O72 Ta18 2.079321 1_555
O74 Ta23 1.918565 1_545
O74 Ta16 2.022822 1_555
O75 Ta17 1.919440 1_565
O76 Ta21 1.918690 1_555
O76 Ta24 2.019671 1_555
O77 Ta25 1.910446 1_555
O78 Ta19 1.868907 1_555
O78 Ta26 2.087071 1_545
O79 Ta27 1.896629 1_555
O79 Ta20 1.983285 1_565
