# generated using pymatgen
data_CoP2H10(NO4)2
_symmetry_space_group_name_H-M   'P 1'
_cell_length_a   10.54180800
_cell_length_b   6.47561600
_cell_length_c   12.75431274
_cell_angle_alpha   76.10041919
_cell_angle_beta   90.00000000
_cell_angle_gamma   90.00000000
_symmetry_Int_Tables_number   1
_chemical_formula_structural   CoP2H10(NO4)2
_chemical_formula_sum   'Co4 P8 H40 N8 O32'
_cell_volume   845.17460826
_cell_formula_units_Z   4
loop_
 _symmetry_equiv_pos_site_id
 _symmetry_equiv_pos_as_xyz
  1  'x, y, z'
loop_
 _atom_site_type_symbol
 _atom_site_label
 _atom_site_symmetry_multiplicity
 _atom_site_fract_x
 _atom_site_fract_y
 _atom_site_fract_z
 _atom_site_occupancy
  Co  Co0  1  0.69869400  0.95298700  0.65217200  1
  Co  Co1  1  0.19869400  0.04701300  0.84782800  1
  Co  Co2  1  0.30130600  0.04701300  0.34782800  1
  Co  Co3  1  0.80130600  0.95298700  0.15217200  1
  P  P0  1  0.96916200  0.72887000  0.60688300  1
  P  P1  1  0.46916200  0.27113000  0.89311700  1
  P  P2  1  0.03083800  0.27113000  0.39311700  1
  P  P3  1  0.53083800  0.72887000  0.10688300  1
  P  P4  1  0.68957200  0.96157900  0.91754900  1
  P  P5  1  0.18957200  0.03842100  0.58245100  1
  P  P6  1  0.31042800  0.03842100  0.08245100  1
  P  P7  1  0.81042800  0.96157900  0.41754900  1
  H  H0  1  0.54487900  0.69455500  0.92963100  1
  H  H1  1  0.04487900  0.30544500  0.57036900  1
  H  H2  1  0.45512100  0.30544500  0.07036900  1
  H  H3  1  0.95512100  0.69455500  0.42963100  1
  H  H4  1  0.18891600  0.68048200  0.61380000  1
  H  H5  1  0.68891600  0.31951800  0.88620000  1
  H  H6  1  0.81108400  0.31951800  0.38620000  1
  H  H7  1  0.31108400  0.68048200  0.11380000  1
  H  H8  1  0.94862100  0.95627500  0.90520100  1
  H  H9  1  0.44862100  0.04372500  0.59479900  1
  H  H10  1  0.05137900  0.04372500  0.09479900  1
  H  H11  1  0.55137900  0.95627500  0.40520100  1
  H  H12  1  0.96703200  0.92385900  0.78677600  1
  H  H13  1  0.46703200  0.07614100  0.71322400  1
  H  H14  1  0.03296800  0.07614100  0.21322400  1
  H  H15  1  0.53296800  0.92385900  0.28677600  1
  H  H16  1  0.83087600  0.34549300  0.63684600  1
  H  H17  1  0.33087600  0.65450700  0.86315400  1
  H  H18  1  0.16912400  0.65450700  0.36315400  1
  H  H19  1  0.66912400  0.34549300  0.13684600  1
  H  H20  1  0.72321100  0.35950300  0.54768900  1
  H  H21  1  0.22321100  0.64049700  0.95231100  1
  H  H22  1  0.27678900  0.64049700  0.45231100  1
  H  H23  1  0.77678900  0.35950300  0.04768900  1
  H  H24  1  0.56154500  0.60147200  0.73897600  1
  H  H25  1  0.06154500  0.39852800  0.76102400  1
  H  H26  1  0.43845500  0.39852800  0.26102400  1
  H  H27  1  0.93845500  0.60147200  0.23897600  1
  H  H28  1  0.65953600  0.52142300  0.66236300  1
  H  H29  1  0.15953600  0.47857700  0.83763700  1
  H  H30  1  0.34046400  0.47857700  0.33763700  1
  H  H31  1  0.84046400  0.52142300  0.16236300  1
  H  H32  1  0.91893800  0.44296100  0.90257500  1
  H  H33  1  0.41893800  0.55703900  0.59742500  1
  H  H34  1  0.08106200  0.55703900  0.09742500  1
  H  H35  1  0.58106200  0.44296100  0.40257500  1
  H  H36  1  0.81565700  0.62531200  0.87064200  1
  H  H37  1  0.31565700  0.37468800  0.62935800  1
  H  H38  1  0.18434300  0.37468800  0.12935800  1
  H  H39  1  0.68434300  0.62531200  0.37064200  1
  N  N0  1  0.58163800  0.78592800  0.97860200  1
  N  N1  1  0.08163800  0.21407200  0.52139800  1
  N  N2  1  0.41836200  0.21407200  0.02139800  1
  N  N3  1  0.91836200  0.78592800  0.47860200  1
  N  N4  1  0.12152700  0.79810100  0.60896200  1
  N  N5  1  0.62152700  0.20189900  0.89103800  1
  N  N6  1  0.87847300  0.20189900  0.39103800  1
  N  N7  1  0.37847300  0.79810100  0.10896200  1
  O  O0  1  0.89102700  0.86485100  0.66466700  1
  O  O1  1  0.39102700  0.13514900  0.83533300  1
  O  O2  1  0.10897300  0.13514900  0.33533300  1
  O  O3  1  0.60897300  0.86485100  0.16466700  1
  O  O4  1  0.96875200  0.48741700  0.64841200  1
  O  O5  1  0.46875200  0.51258300  0.85158800  1
  O  O6  1  0.03124800  0.51258300  0.35158800  1
  O  O7  1  0.53124800  0.48741700  0.14841200  1
  O  O8  1  0.80427900  0.97224600  0.98918500  1
  O  O9  1  0.30427900  0.02775400  0.51081500  1
  O  O10  1  0.19572100  0.02775400  0.01081500  1
  O  O11  1  0.69572100  0.97224600  0.48918500  1
  O  O12  1  0.72230400  0.89502300  0.81446700  1
  O  O13  1  0.22230400  0.10497700  0.68553300  1
  O  O14  1  0.27769600  0.10497700  0.18553300  1
  O  O15  1  0.77769600  0.89502300  0.31446700  1
  O  O16  1  0.01304000  0.92969000  0.85360300  1
  O  O17  1  0.51304000  0.07031000  0.64639700  1
  O  O18  1  0.98696000  0.07031000  0.14639700  1
  O  O19  1  0.48696000  0.92969000  0.35360300  1
  O  O20  1  0.74390400  0.29511500  0.62467200  1
  O  O21  1  0.24390400  0.70488500  0.87532800  1
  O  O22  1  0.25609600  0.70488500  0.37532800  1
  O  O23  1  0.75609600  0.29511500  0.12467200  1
  O  O24  1  0.60864500  0.64626500  0.66944000  1
  O  O25  1  0.10864500  0.35373500  0.83056000  1
  O  O26  1  0.39135500  0.35373500  0.33056000  1
  O  O27  1  0.89135500  0.64626500  0.16944000  1
  O  O28  1  0.83037800  0.47806000  0.91315800  1
  O  O29  1  0.33037800  0.52194000  0.58684200  1
  O  O30  1  0.16962200  0.52194000  0.08684200  1
  O  O31  1  0.66962200  0.47806000  0.41315800  1
loop_
_geom_bond_atom_site_label_1
_geom_bond_atom_site_label_2
_geom_bond_distance
_geom_bond_site_symmetry_2
Co0 O12 2.028371 1_555
Co0 O11 2.052641 1_555
Co0 O17 2.094301 1_565
Co0 O0 2.101986 1_555
Co0 O24 2.164374 1_555
Co0 O20 2.210254 1_565
Co1 O13 2.028371 1_555
Co1 O10 2.052641 1_556
Co1 O16 2.094301 1_545
Co1 O1 2.101986 1_555
Co1 O25 2.164374 1_555
Co1 O21 2.210254 1_545
Co2 O14 2.028371 1_555
Co2 O9 2.052641 1_555
Co2 O19 2.094301 1_545
Co2 O2 2.101986 1_555
Co2 O26 2.164374 1_555
Co2 O22 2.210254 1_545
Co3 O15 2.028371 1_555
Co3 O8 2.052641 1_554
Co3 O18 2.094301 1_565
Co3 O3 2.101986 1_555
Co3 O27 2.164374 1_555
Co3 O23 2.210254 1_565
H0 N0 1.033410 1_555
H1 N1 1.033410 1_555
H2 N2 1.033410 1_555
H3 N3 1.033410 1_555
H4 N4 1.032481 1_555
H5 N5 1.032481 1_555
H6 N6 1.032481 1_555
H7 N7 1.032481 1_555
H8 O16 0.989104 1_655
H9 O17 0.989104 1_555
H10 O18 0.989104 1_455
H11 O19 0.989104 1_555
H12 O16 0.989238 1_655
H13 O17 0.989238 1_555
H14 O18 0.989238 1_455
H15 O19 0.989238 1_555
H16 O20 0.997732 1_555
H17 O21 0.997732 1_555
H18 O22 0.997732 1_555
H19 O23 0.997732 1_555
H20 O20 0.994387 1_555
H21 O21 0.994387 1_555
H22 O22 0.994387 1_555
H23 O23 0.994387 1_555
H24 O24 0.996813 1_555
H25 O25 0.996813 1_555
H26 O26 0.996813 1_555
H27 O27 0.996813 1_555
H28 O24 0.992258 1_555
H29 O25 0.992258 1_555
H30 O26 0.992258 1_555
H31 O27 0.992258 1_555
H32 O28 0.977852 1_555
H33 O29 0.977852 1_555
H34 O30 0.977852 1_555
H35 O31 0.977852 1_555
H36 O28 0.989424 1_555
H37 O29 0.989424 1_555
H38 O30 0.989424 1_555
H39 O31 0.989424 1_555
N0 P4 1.664104 1_555
N0 P3 1.676247 1_556
N1 P5 1.664104 1_555
N1 P2 1.676247 1_555
N2 P6 1.664104 1_555
N2 P1 1.676247 1_554
N3 P7 1.664104 1_555
N3 P0 1.676247 1_555
N4 P0 1.669517 1_455
N4 P5 1.672688 1_565
N5 P1 1.669517 1_555
N5 P4 1.672688 1_545
N6 P2 1.669517 1_655
N6 P7 1.672688 1_545
N7 P3 1.669517 1_555
N7 P6 1.672688 1_565
O0 P0 1.519472 1_555
O1 P1 1.519472 1_555
O2 P2 1.519472 1_555
O3 P3 1.519472 1_555
O4 P0 1.525580 1_555
O5 P1 1.525580 1_555
O6 P2 1.525580 1_555
O7 P3 1.525580 1_555
O8 P4 1.527119 1_555
O9 P5 1.527119 1_555
O10 P6 1.527119 1_555
O11 P7 1.527119 1_555
O12 P4 1.518419 1_555
O13 P5 1.518419 1_555
O14 P6 1.518419 1_555
O15 P7 1.518419 1_555
