# generated using pymatgen
data_Mg(FeO2)2
_symmetry_space_group_name_H-M   'P 1'
_cell_length_a   2.87746000
_cell_length_b   8.75753000
_cell_length_c   10.16892700
_cell_angle_alpha   90.00000000
_cell_angle_beta   90.00000000
_cell_angle_gamma   90.00000000
_symmetry_Int_Tables_number   1
_chemical_formula_structural   Mg(FeO2)2
_chemical_formula_sum   'Mg4 Fe8 O16'
_cell_volume   256.25128892
_cell_formula_units_Z   4
loop_
 _symmetry_equiv_pos_site_id
 _symmetry_equiv_pos_as_xyz
  1  'x, y, z'
loop_
 _atom_site_type_symbol
 _atom_site_label
 _atom_site_symmetry_multiplicity
 _atom_site_fract_x
 _atom_site_fract_y
 _atom_site_fract_z
 _atom_site_occupancy
  Mg  Mg0  1  0.75000000  0.75722000  0.15887700  1
  Mg  Mg1  1  0.25000000  0.24278000  0.84112300  1
  Mg  Mg2  1  0.75000000  0.25722000  0.34112300  1
  Mg  Mg3  1  0.25000000  0.74278000  0.65887700  1
  Fe  Fe0  1  0.75000000  0.94212200  0.38254200  1
  Fe  Fe1  1  0.25000000  0.05787800  0.61745800  1
  Fe  Fe2  1  0.75000000  0.44212200  0.11745800  1
  Fe  Fe3  1  0.25000000  0.55787800  0.88254200  1
  Fe  Fe4  1  0.75000000  0.91206500  0.90100200  1
  Fe  Fe5  1  0.25000000  0.08793500  0.09899800  1
  Fe  Fe6  1  0.75000000  0.41206500  0.59899800  1
  Fe  Fe7  1  0.25000000  0.58793500  0.40100200  1
  O  O0  1  0.75000000  0.70125800  0.82569400  1
  O  O1  1  0.25000000  0.29874200  0.17430600  1
  O  O2  1  0.75000000  0.20125800  0.67430600  1
  O  O3  1  0.25000000  0.79874200  0.32569400  1
  O  O4  1  0.75000000  0.62106400  0.53433300  1
  O  O5  1  0.25000000  0.37893600  0.46566700  1
  O  O6  1  0.75000000  0.12106400  0.96566700  1
  O  O7  1  0.25000000  0.87893600  0.03433300  1
  O  O8  1  0.75000000  0.53861500  0.28527400  1
  O  O9  1  0.25000000  0.46138500  0.71472600  1
  O  O10  1  0.75000000  0.03861500  0.21472600  1
  O  O11  1  0.25000000  0.96138500  0.78527400  1
  O  O12  1  0.75000000  0.91067300  0.57222800  1
  O  O13  1  0.25000000  0.08932700  0.42777200  1
  O  O14  1  0.75000000  0.41067300  0.92777200  1
  O  O15  1  0.25000000  0.58932700  0.07222800  1
loop_
_geom_bond_atom_site_label_1
_geom_bond_atom_site_label_2
_geom_bond_distance
_geom_bond_site_symmetry_2
Mg0 O7 2.193199 1_655
Mg0 O7 2.193199 1_555
Mg0 O15 2.237899 1_655
Mg0 O15 2.237899 1_555
Mg0 O3 2.253835 1_555
Mg0 O3 2.253835 1_655
Mg0 O8 2.305891 1_555
Mg0 O10 2.528920 1_565
Mg1 O6 2.193199 1_555
Mg1 O6 2.193199 1_455
Mg1 O14 2.237899 1_455
Mg1 O14 2.237899 1_555
Mg1 O2 2.253835 1_455
Mg1 O2 2.253835 1_555
Mg1 O9 2.305891 1_555
Mg1 O11 2.528920 1_545
Mg2 O5 2.193199 1_655
Mg2 O5 2.193199 1_555
Mg2 O13 2.237899 1_555
Mg2 O13 2.237899 1_655
Mg2 O1 2.253835 1_655
Mg2 O1 2.253835 1_555
Mg2 O10 2.305891 1_555
Mg2 O8 2.528920 1_555
Mg3 O4 2.193199 1_455
Mg3 O4 2.193199 1_555
Mg3 O12 2.237899 1_455
Mg3 O12 2.237899 1_555
Mg3 O0 2.253835 1_455
Mg3 O0 2.253835 1_555
Mg3 O11 2.305891 1_555
Mg3 O9 2.528920 1_555
Fe0 O10 1.904275 1_565
Fe0 O12 1.948466 1_555
Fe0 O13 1.985800 1_665
Fe0 O13 1.985800 1_565
Fe0 O3 1.995192 1_555
Fe0 O3 1.995192 1_655
Fe1 O11 1.904275 1_545
Fe1 O13 1.948466 1_555
Fe1 O12 1.985800 1_445
Fe1 O12 1.985800 1_545
Fe1 O2 1.995192 1_455
Fe1 O2 1.995192 1_555
Fe2 O8 1.904275 1_555
Fe2 O14 1.948466 1_554
Fe2 O15 1.985800 1_555
Fe2 O15 1.985800 1_655
Fe2 O1 1.995192 1_555
Fe2 O1 1.995192 1_655
Fe3 O9 1.904275 1_555
Fe3 O15 1.948466 1_556
Fe3 O14 1.985800 1_455
Fe3 O14 1.985800 1_555
Fe3 O0 1.995192 1_455
Fe3 O0 1.995192 1_555
Fe4 O11 1.908253 1_655
Fe4 O11 1.908253 1_555
Fe4 O6 1.944854 1_565
Fe4 O7 1.998100 1_556
Fe4 O7 1.998100 1_656
Fe4 O0 1.998679 1_555
Fe5 O10 1.908253 1_455
Fe5 O10 1.908253 1_555
Fe5 O7 1.944854 1_545
Fe5 O6 1.998100 1_454
Fe5 O6 1.998100 1_554
Fe5 O1 1.998679 1_555
Fe6 O9 1.908253 1_555
Fe6 O9 1.908253 1_655
Fe6 O4 1.944854 1_555
Fe6 O5 1.998100 1_655
Fe6 O5 1.998100 1_555
Fe6 O2 1.998679 1_555
Fe7 O8 1.908253 1_455
Fe7 O8 1.908253 1_555
Fe7 O5 1.944854 1_555
Fe7 O4 1.998100 1_455
Fe7 O4 1.998100 1_555
Fe7 O3 1.998679 1_555
