# generated using pymatgen
data_PrHfO4
_symmetry_space_group_name_H-M   'P 1'
_cell_length_a   10.82732100
_cell_length_b   10.82732100
_cell_length_c   10.82732100
_cell_angle_alpha   90.00000000
_cell_angle_beta   90.00000000
_cell_angle_gamma   90.00000000
_symmetry_Int_Tables_number   1
_chemical_formula_structural   PrHfO4
_chemical_formula_sum   'Pr16 Hf16 O64'
_cell_volume   1269.29636927
_cell_formula_units_Z   16
loop_
 _symmetry_equiv_pos_site_id
 _symmetry_equiv_pos_as_xyz
  1  'x, y, z'
loop_
 _atom_site_type_symbol
 _atom_site_label
 _atom_site_symmetry_multiplicity
 _atom_site_fract_x
 _atom_site_fract_y
 _atom_site_fract_z
 _atom_site_occupancy
  Pr  Pr0  1  0.12298700  0.37740700  0.37590800  1
  Pr  Pr1  1  0.12409200  0.87701300  0.87740700  1
  Pr  Pr2  1  0.12259300  0.62409200  0.62298700  1
  Pr  Pr3  1  0.12509700  0.12509700  0.12509700  1
  Pr  Pr4  1  0.37490300  0.87490300  0.62509700  1
  Pr  Pr5  1  0.37740700  0.37590800  0.12298700  1
  Pr  Pr6  1  0.37590800  0.12298700  0.37740700  1
  Pr  Pr7  1  0.37701300  0.62259300  0.87590800  1
  Pr  Pr8  1  0.62298700  0.12259300  0.62409200  1
  Pr  Pr9  1  0.62409200  0.62298700  0.12259300  1
  Pr  Pr10  1  0.62259300  0.87590800  0.37701300  1
  Pr  Pr11  1  0.62509700  0.37490300  0.87490300  1
  Pr  Pr12  1  0.87490300  0.62509700  0.37490300  1
  Pr  Pr13  1  0.87740700  0.12409200  0.87701300  1
  Pr  Pr14  1  0.87590800  0.37701300  0.62259300  1
  Pr  Pr15  1  0.87701300  0.87740700  0.12409200  1
  Hf  Hf0  1  0.12029500  0.61790400  0.11628200  1
  Hf  Hf1  1  0.11628200  0.12029500  0.61790400  1
  Hf  Hf2  1  0.12297800  0.87702200  0.37702200  1
  Hf  Hf3  1  0.11790400  0.38371800  0.87970500  1
  Hf  Hf4  1  0.38209600  0.61628200  0.37970500  1
  Hf  Hf5  1  0.37702200  0.12297800  0.87702200  1
  Hf  Hf6  1  0.38371800  0.87970500  0.11790400  1
  Hf  Hf7  1  0.37970500  0.38209600  0.61628200  1
  Hf  Hf8  1  0.62029500  0.88209600  0.88371800  1
  Hf  Hf9  1  0.61628200  0.37970500  0.38209600  1
  Hf  Hf10  1  0.62297800  0.62297800  0.62297800  1
  Hf  Hf11  1  0.61790400  0.11628200  0.12029500  1
  Hf  Hf12  1  0.88209600  0.88371800  0.62029500  1
  Hf  Hf13  1  0.87702200  0.37702200  0.12297800  1
  Hf  Hf14  1  0.88371800  0.62029500  0.88209600  1
  Hf  Hf15  1  0.87970500  0.11790400  0.38371800  1
  O  O0  1  0.03512700  0.74433300  0.24880700  1
  O  O1  1  0.00101800  0.99563400  0.28217300  1
  O  O2  1  0.00147200  0.73042300  0.99886700  1
  O  O3  1  0.00282700  0.00282700  0.00282700  1
  O  O4  1  0.98981800  0.01018200  0.51018200  1
  O  O5  1  0.99886700  0.00147200  0.73042300  1
  O  O6  1  0.00436600  0.78217300  0.49898200  1
  O  O7  1  0.03984600  0.25055200  0.75139900  1
  O  O8  1  0.24944800  0.24860100  0.53984600  1
  O  O9  1  0.24860100  0.53984600  0.24944800  1
  O  O10  1  0.25660400  0.24339600  0.75660400  1
  O  O11  1  0.24880700  0.03512700  0.74433300  1
  O  O12  1  0.21782700  0.99898200  0.49563400  1
  O  O13  1  0.23042300  0.50113300  0.99852800  1
  O  O14  1  0.25566700  0.74880700  0.46487300  1
  O  O15  1  0.24878300  0.74878300  0.75121700  1
  O  O16  1  0.25121700  0.25121700  0.25121700  1
  O  O17  1  0.24433300  0.25119300  0.96487300  1
  O  O18  1  0.26957700  0.49886700  0.49852800  1
  O  O19  1  0.28217300  0.00101800  0.99563400  1
  O  O20  1  0.25119300  0.96487300  0.24433300  1
  O  O21  1  0.24339600  0.75660400  0.25660400  1
  O  O22  1  0.25139900  0.46015400  0.74944800  1
  O  O23  1  0.25055200  0.75139900  0.03984600  1
  O  O24  1  0.46015400  0.74944800  0.25139900  1
  O  O25  1  0.49717300  0.99717300  0.50282700  1
  O  O26  1  0.51018200  0.98981800  0.01018200  1
  O  O27  1  0.50113300  0.99852800  0.23042300  1
  O  O28  1  0.49563400  0.21782700  0.99898200  1
  O  O29  1  0.49852800  0.26957700  0.49886700  1
  O  O30  1  0.46487300  0.25566700  0.74880700  1
  O  O31  1  0.49898200  0.00436600  0.78217300  1
  O  O32  1  0.50101800  0.50436600  0.71782700  1
  O  O33  1  0.53512700  0.75566700  0.75119300  1
  O  O34  1  0.50147200  0.76957700  0.00113300  1
  O  O35  1  0.50282700  0.49717300  0.99717300  1
  O  O36  1  0.49886700  0.49852800  0.26957700  1
  O  O37  1  0.48981800  0.48981800  0.48981800  1
  O  O38  1  0.50436600  0.71782700  0.50101800  1
  O  O39  1  0.53984600  0.24944800  0.24860100  1
  O  O40  1  0.74944800  0.25139900  0.46015400  1
  O  O41  1  0.74860100  0.96015400  0.75055200  1
  O  O42  1  0.75660400  0.25660400  0.24339600  1
  O  O43  1  0.74880700  0.46487300  0.25566700  1
  O  O44  1  0.71782700  0.50101800  0.50436600  1
  O  O45  1  0.73042300  0.99886700  0.00147200  1
  O  O46  1  0.75566700  0.75119300  0.53512700  1
  O  O47  1  0.74878300  0.75121700  0.24878300  1
  O  O48  1  0.75121700  0.24878300  0.74878300  1
  O  O49  1  0.74433300  0.24880700  0.03512700  1
  O  O50  1  0.76957700  0.00113300  0.50147200  1
  O  O51  1  0.78217300  0.49898200  0.00436600  1
  O  O52  1  0.75119300  0.53512700  0.75566700  1
  O  O53  1  0.74339600  0.74339600  0.74339600  1
  O  O54  1  0.75139900  0.03984600  0.25055200  1
  O  O55  1  0.75055200  0.74860100  0.96015400  1
  O  O56  1  0.96015400  0.75055200  0.74860100  1
  O  O57  1  0.99563400  0.28217300  0.00101800  1
  O  O58  1  0.01018200  0.51018200  0.98981800  1
  O  O59  1  0.00113300  0.50147200  0.76957700  1
  O  O60  1  0.99717300  0.50282700  0.49717300  1
  O  O61  1  0.99852800  0.23042300  0.50113300  1
  O  O62  1  0.96487300  0.24433300  0.25119300  1
  O  O63  1  0.99898200  0.49563400  0.21782700  1
loop_
_geom_bond_atom_site_label_1
_geom_bond_atom_site_label_2
_geom_bond_distance
_geom_bond_site_symmetry_2
Hf0 O13 2.155416 1_554
Hf0 O58 2.157927 1_554
Hf0 O63 2.164874 1_455
Hf0 O9 2.173264 1_555
Hf0 O2 2.180723 1_554
Hf0 O23 2.182458 1_555
Hf0 O0 2.187032 1_555
Hf0 O21 2.517947 1_555
Hf1 O61 2.155416 1_455
Hf1 O4 2.157927 1_455
Hf1 O12 2.164874 1_545
Hf1 O8 2.173264 1_555
Hf1 O5 2.180723 1_455
Hf1 O7 2.182458 1_555
Hf1 O11 2.187032 1_555
Hf1 O10 2.517947 1_555
Hf2 O1 2.108949 1_555
Hf2 O12 2.108949 1_555
Hf2 O6 2.108949 1_555
Hf2 O0 2.212678 1_555
Hf2 O20 2.212678 1_555
Hf2 O14 2.212678 1_555
Hf2 O21 2.258255 1_555
Hf2 O4 2.497212 1_465
Hf3 O59 2.155416 1_555
Hf3 O58 2.157927 1_555
Hf3 O57 2.164874 1_456
Hf3 O7 2.173264 1_555
Hf3 O13 2.180723 1_555
Hf3 O22 2.182458 1_555
Hf3 O17 2.187032 1_555
Hf3 O10 2.517947 1_555
Hf4 O36 2.155416 1_555
Hf4 O37 2.157927 1_555
Hf4 O38 2.164874 1_555
Hf4 O24 2.173264 1_555
Hf4 O18 2.180723 1_555
Hf4 O9 2.182458 1_555
Hf4 O14 2.187032 1_555
Hf4 O21 2.517947 1_555
Hf5 O19 2.108949 1_555
Hf5 O28 2.108949 1_555
Hf5 O31 2.108949 1_555
Hf5 O11 2.212678 1_555
Hf5 O17 2.212678 1_555
Hf5 O30 2.212678 1_555
Hf5 O10 2.258255 1_555
Hf5 O26 2.497212 1_546
Hf6 O34 2.155416 1_555
Hf6 O26 2.157927 1_555
Hf6 O19 2.164874 1_564
Hf6 O23 2.173264 1_555
Hf6 O27 2.180723 1_555
Hf6 O24 2.182458 1_555
Hf6 O20 2.187032 1_555
Hf6 O21 2.517947 1_555
Hf7 O18 2.155416 1_555
Hf7 O37 2.157927 1_555
Hf7 O32 2.164874 1_555
Hf7 O22 2.173264 1_555
Hf7 O29 2.180723 1_555
Hf7 O8 2.182458 1_555
Hf7 O30 2.187032 1_555
Hf7 O10 2.517947 1_555
Hf8 O45 2.155416 1_556
Hf8 O26 2.157927 1_556
Hf8 O31 2.164874 1_565
Hf8 O41 2.173264 1_555
Hf8 O34 2.180723 1_556
Hf8 O55 2.182458 1_555
Hf8 O33 2.187032 1_555
Hf8 O53 2.517947 1_555
Hf9 O29 2.155416 1_555
Hf9 O37 2.157927 1_555
Hf9 O44 2.164874 1_555
Hf9 O40 2.173264 1_555
Hf9 O36 2.180723 1_555
Hf9 O39 2.182458 1_555
Hf9 O43 2.187032 1_555
Hf9 O42 2.517947 1_555
Hf10 O38 2.108949 1_555
Hf10 O44 2.108949 1_555
Hf10 O32 2.108949 1_555
Hf10 O46 2.212678 1_555
Hf10 O52 2.212678 1_555
Hf10 O33 2.212678 1_555
Hf10 O53 2.258255 1_555
Hf10 O37 2.497212 1_555
Hf11 O27 2.155416 1_545
Hf11 O26 2.157927 1_545
Hf11 O28 2.164874 1_554
Hf11 O39 2.173264 1_555
Hf11 O45 2.180723 1_545
Hf11 O54 2.182458 1_555
Hf11 O49 2.187032 1_555
Hf11 O42 2.517947 1_555
Hf12 O5 2.155416 1_565
Hf12 O4 2.157927 1_565
Hf12 O6 2.164874 1_655
Hf12 O56 2.173264 1_555
Hf12 O50 2.180723 1_565
Hf12 O41 2.182458 1_555
Hf12 O46 2.187032 1_555
Hf12 O53 2.517947 1_555
Hf13 O57 2.108949 1_555
Hf13 O63 2.108949 1_555
Hf13 O51 2.108949 1_555
Hf13 O49 2.212678 1_555
Hf13 O62 2.212678 1_555
Hf13 O43 2.212678 1_555
Hf13 O42 2.258255 1_555
Hf13 O58 2.497212 1_654
Hf14 O2 2.155416 1_655
Hf14 O58 2.157927 1_655
Hf14 O51 2.164874 1_556
Hf14 O55 2.173264 1_555
Hf14 O59 2.180723 1_655
Hf14 O56 2.182458 1_555
Hf14 O52 2.187032 1_555
Hf14 O53 2.517947 1_555
Hf15 O50 2.155416 1_555
Hf15 O4 2.157927 1_555
Hf15 O1 2.164874 1_645
Hf15 O54 2.173264 1_555
Hf15 O61 2.180723 1_555
Hf15 O40 2.182458 1_555
Hf15 O62 2.187032 1_555
Hf15 O42 2.517947 1_555
O0 Pr12 2.557384 1_455
O0 Pr15 2.613460 1_455
O1 Pr15 2.524054 1_455
O1 Pr3 2.581110 1_565
O2 Pr1 2.451780 1_555
O2 Pr15 2.487355 1_456
O3 Pr3 2.292987 1_555
O3 Pr1 2.328869 1_544
O3 Pr13 2.328869 1_454
O3 Pr15 2.328869 1_445
O5 Pr13 2.451780 1_555
O5 Pr1 2.487355 1_645
O6 Pr2 2.524054 1_555
O6 Pr12 2.581110 1_455
O7 Pr13 2.611101 1_455
O7 Pr14 2.640158 1_455
O8 Pr6 2.611101 1_555
O8 Pr0 2.640158 1_555
O9 Pr0 2.611101 1_555
O9 Pr5 2.640158 1_555
O11 Pr4 2.557384 1_545
O11 Pr1 2.613460 1_545
O12 Pr6 2.524054 1_565
O12 Pr4 2.581110 1_555
O13 Pr7 2.451780 1_555
O13 Pr5 2.487355 1_556
O14 Pr4 2.557384 1_555
O14 Pr2 2.613460 1_555
O15 Pr4 2.365188 1_555
O15 Pr2 2.370038 1_555
O15 Pr1 2.370038 1_555
O15 Pr7 2.370038 1_555
O16 Pr3 2.365188 1_555
O16 Pr6 2.370038 1_555
O16 Pr5 2.370038 1_555
O16 Pr0 2.370038 1_555
O17 Pr3 2.557384 1_556
O17 Pr5 2.613460 1_556
O18 Pr0 2.451780 1_555
O18 Pr2 2.487355 1_555
O19 Pr1 2.524054 1_545
O19 Pr3 2.581110 1_556
O20 Pr3 2.557384 1_565
O20 Pr6 2.613460 1_565
O22 Pr7 2.611101 1_555
O22 Pr2 2.640158 1_555
O23 Pr1 2.611101 1_554
O23 Pr7 2.640158 1_554
O24 Pr10 2.611101 1_555
O24 Pr9 2.640158 1_555
O25 Pr4 2.292987 1_555
O25 Pr8 2.328869 1_565
O25 Pr6 2.328869 1_565
O25 Pr10 2.328869 1_555
O27 Pr10 2.451780 1_555
O27 Pr6 2.487355 1_565
O28 Pr5 2.524054 1_556
O28 Pr11 2.581110 1_555
O29 Pr6 2.451780 1_555
O29 Pr8 2.487355 1_555
O30 Pr11 2.557384 1_555
O30 Pr8 2.613460 1_555
O31 Pr8 2.524054 1_555
O31 Pr4 2.581110 1_545
O32 Pr7 2.524054 1_555
O32 Pr11 2.581110 1_555
O33 Pr4 2.557384 1_555
O33 Pr7 2.613460 1_555
O34 Pr9 2.451780 1_555
O34 Pr7 2.487355 1_554
O35 Pr11 2.292987 1_555
O35 Pr9 2.328869 1_556
O35 Pr5 2.328869 1_556
O35 Pr7 2.328869 1_555
O36 Pr5 2.451780 1_555
O36 Pr9 2.487355 1_555
O38 Pr10 2.524054 1_555
O38 Pr4 2.581110 1_555
O39 Pr5 2.611101 1_555
O39 Pr6 2.640158 1_555
O40 Pr14 2.611101 1_555
O40 Pr8 2.640158 1_555
O41 Pr8 2.611101 1_565
O41 Pr13 2.640158 1_565
O43 Pr12 2.557384 1_555
O43 Pr9 2.613460 1_555
O44 Pr14 2.524054 1_555
O44 Pr12 2.581110 1_555
O45 Pr15 2.451780 1_555
O45 Pr13 2.487355 1_564
O46 Pr12 2.557384 1_555
O46 Pr10 2.613460 1_555
O47 Pr12 2.365188 1_555
O47 Pr9 2.370038 1_555
O47 Pr15 2.370038 1_555
O47 Pr10 2.370038 1_555
O48 Pr11 2.365188 1_555
O48 Pr8 2.370038 1_555
O48 Pr13 2.370038 1_555
O48 Pr14 2.370038 1_555
O49 Pr11 2.557384 1_554
O49 Pr13 2.613460 1_554
O50 Pr8 2.451780 1_555
O50 Pr10 2.487355 1_545
O51 Pr9 2.524054 1_555
O51 Pr11 2.581110 1_554
O52 Pr11 2.557384 1_555
O52 Pr14 2.613460 1_555
O54 Pr15 2.611101 1_545
O54 Pr10 2.640158 1_545
O55 Pr9 2.611101 1_556
O55 Pr15 2.640158 1_556
O56 Pr2 2.611101 1_655
O56 Pr1 2.640158 1_655
O57 Pr13 2.524054 1_554
O57 Pr3 2.581110 1_655
O59 Pr2 2.451780 1_555
O59 Pr14 2.487355 1_455
O60 Pr12 2.292987 1_555
O60 Pr2 2.328869 1_655
O60 Pr0 2.328869 1_655
O60 Pr14 2.328869 1_555
O61 Pr14 2.451780 1_555
O61 Pr0 2.487355 1_655
O62 Pr3 2.557384 1_655
O62 Pr0 2.613460 1_655
O63 Pr0 2.524054 1_655
O63 Pr12 2.581110 1_555
