# generated using pymatgen
data_Ba6Fe25S27
_symmetry_space_group_name_H-M   'P 1'
_cell_length_a   9.82008900
_cell_length_b   9.82008900
_cell_length_c   9.82008900
_cell_angle_alpha   90.00000000
_cell_angle_beta   90.00000000
_cell_angle_gamma   90.00000000
_symmetry_Int_Tables_number   1
_chemical_formula_structural   Ba6Fe25S27
_chemical_formula_sum   'Ba6 Fe25 S27'
_cell_volume   946.99191568
_cell_formula_units_Z   1
loop_
 _symmetry_equiv_pos_site_id
 _symmetry_equiv_pos_as_xyz
  1  'x, y, z'
loop_
 _atom_site_type_symbol
 _atom_site_label
 _atom_site_symmetry_multiplicity
 _atom_site_fract_x
 _atom_site_fract_y
 _atom_site_fract_z
 _atom_site_occupancy
  Ba  Ba0  1  0.19389100  0.50000000  0.50000000  1
  Ba  Ba1  1  0.50000000  0.50000000  0.80610900  1
  Ba  Ba2  1  0.50000000  0.19389100  0.50000000  1
  Ba  Ba3  1  0.50000000  0.50000000  0.19389100  1
  Ba  Ba4  1  0.50000000  0.80610900  0.50000000  1
  Ba  Ba5  1  0.80610900  0.50000000  0.50000000  1
  Fe  Fe0  1  0.13299800  0.36165100  0.86700200  1
  Fe  Fe1  1  0.36165100  0.13299800  0.86700200  1
  Fe  Fe2  1  0.13299800  0.13299800  0.63834900  1
  Fe  Fe3  1  0.13299800  0.63834900  0.13299800  1
  Fe  Fe4  1  0.36165100  0.86700200  0.13299800  1
  Fe  Fe5  1  0.13299800  0.86700200  0.36165100  1
  Fe  Fe6  1  0.86700200  0.36165100  0.13299800  1
  Fe  Fe7  1  0.63834900  0.13299800  0.13299800  1
  Fe  Fe8  1  0.86700200  0.13299800  0.36165100  1
  Fe  Fe9  1  0.86700200  0.63834900  0.86700200  1
  Fe  Fe10  1  0.63834900  0.86700200  0.86700200  1
  Fe  Fe11  1  0.86700200  0.86700200  0.63834900  1
  Fe  Fe12  1  0.86700200  0.63834900  0.13299800  1
  Fe  Fe13  1  0.63834900  0.86700200  0.13299800  1
  Fe  Fe14  1  0.86700200  0.86700200  0.36165100  1
  Fe  Fe15  1  0.86700200  0.36165100  0.86700200  1
  Fe  Fe16  1  0.63834900  0.13299800  0.86700200  1
  Fe  Fe17  1  0.86700200  0.13299800  0.63834900  1
  Fe  Fe18  1  0.13299800  0.63834900  0.86700200  1
  Fe  Fe19  1  0.36165100  0.86700200  0.86700200  1
  Fe  Fe20  1  0.13299800  0.86700200  0.63834900  1
  Fe  Fe21  1  0.13299800  0.36165100  0.13299800  1
  Fe  Fe22  1  0.36165100  0.13299800  0.13299800  1
  Fe  Fe23  1  0.13299800  0.13299800  0.36165100  1
  Fe  Fe24  1  0.00000000  0.00000000  0.00000000  1
  S  S0  1  0.50000000  0.50000000  0.50000000  1
  S  S1  1  0.00000000  0.23745000  0.00000000  1
  S  S2  1  0.23745000  0.00000000  0.00000000  1
  S  S3  1  0.00000000  0.00000000  0.76255000  1
  S  S4  1  0.00000000  0.76255000  0.00000000  1
  S  S5  1  0.00000000  0.00000000  0.23745000  1
  S  S6  1  0.76255000  0.00000000  0.00000000  1
  S  S7  1  0.27485400  0.27485400  0.72514600  1
  S  S8  1  0.27485400  0.72514600  0.27485400  1
  S  S9  1  0.72514600  0.27485400  0.27485400  1
  S  S10  1  0.72514600  0.72514600  0.72514600  1
  S  S11  1  0.72514600  0.72514600  0.27485400  1
  S  S12  1  0.72514600  0.27485400  0.72514600  1
  S  S13  1  0.27485400  0.72514600  0.72514600  1
  S  S14  1  0.27485400  0.27485400  0.27485400  1
  S  S15  1  0.24489500  0.50000000  0.00000000  1
  S  S16  1  0.50000000  0.00000000  0.75510500  1
  S  S17  1  0.00000000  0.24489500  0.50000000  1
  S  S18  1  0.24489500  0.00000000  0.50000000  1
  S  S19  1  0.50000000  0.24489500  0.00000000  1
  S  S20  1  0.00000000  0.50000000  0.75510500  1
  S  S21  1  0.50000000  0.00000000  0.24489500  1
  S  S22  1  0.00000000  0.75510500  0.50000000  1
  S  S23  1  0.50000000  0.75510500  0.00000000  1
  S  S24  1  0.00000000  0.50000000  0.24489500  1
  S  S25  1  0.75510500  0.50000000  0.00000000  1
  S  S26  1  0.75510500  0.00000000  0.50000000  1
loop_
_geom_bond_atom_site_label_1
_geom_bond_atom_site_label_2
_geom_bond_distance
_geom_bond_site_symmetry_2
Ba0 S0 3.006018 1_555
Ba0 S20 3.146604 1_555
Ba0 S17 3.146604 1_555
Ba0 S24 3.146604 1_555
Ba0 S22 3.146604 1_555
Ba0 S7 3.226261 1_555
Ba0 S13 3.226261 1_555
Ba0 S8 3.226261 1_555
Ba0 S14 3.226261 1_555
Ba1 S0 3.006018 1_555
Ba1 S25 3.146604 1_556
Ba1 S15 3.146604 1_556
Ba1 S19 3.146604 1_556
Ba1 S23 3.146604 1_556
Ba1 S10 3.226261 1_555
Ba1 S12 3.226261 1_555
Ba1 S13 3.226261 1_555
Ba1 S7 3.226261 1_555
Ba2 S0 3.006018 1_555
Ba2 S16 3.146604 1_555
Ba2 S26 3.146604 1_555
Ba2 S21 3.146604 1_555
Ba2 S18 3.146604 1_555
Ba2 S7 3.226261 1_555
Ba2 S12 3.226261 1_555
Ba2 S9 3.226261 1_555
Ba2 S14 3.226261 1_555
Ba3 S0 3.006018 1_555
Ba3 S23 3.146604 1_555
Ba3 S15 3.146604 1_555
Ba3 S25 3.146604 1_555
Ba3 S19 3.146604 1_555
Ba3 S9 3.226261 1_555
Ba3 S11 3.226261 1_555
Ba3 S8 3.226261 1_555
Ba3 S14 3.226261 1_555
Ba4 S0 3.006018 1_555
Ba4 S21 3.146604 1_565
Ba4 S18 3.146604 1_565
Ba4 S16 3.146604 1_565
Ba4 S26 3.146604 1_565
Ba4 S10 3.226261 1_555
Ba4 S13 3.226261 1_555
Ba4 S11 3.226261 1_555
Ba4 S8 3.226261 1_555
Ba5 S0 3.006018 1_555
Ba5 S20 3.146604 1_655
Ba5 S24 3.146604 1_655
Ba5 S22 3.146604 1_655
Ba5 S17 3.146604 1_655
Ba5 S10 3.226261 1_555
Ba5 S11 3.226261 1_555
Ba5 S12 3.226261 1_555
Ba5 S9 3.226261 1_555
Fe0 S7 2.146537 1_555
Fe0 S15 2.181516 1_556
Fe0 S20 2.181516 1_555
Fe0 S1 2.213397 1_556
Fe1 S7 2.146537 1_555
Fe1 S19 2.181516 1_556
Fe1 S16 2.181516 1_555
Fe1 S2 2.213397 1_556
Fe2 S7 2.146537 1_555
Fe2 S17 2.181516 1_555
Fe2 S18 2.181516 1_555
Fe2 S3 2.213397 1_555
Fe3 S8 2.146537 1_555
Fe3 S15 2.181516 1_555
Fe3 S24 2.181516 1_555
Fe3 S4 2.213397 1_555
Fe4 S8 2.146537 1_555
Fe4 S21 2.181516 1_565
Fe4 S23 2.181516 1_555
Fe4 S2 2.213397 1_565
Fe5 S8 2.146537 1_555
Fe5 S18 2.181516 1_565
Fe5 S22 2.181516 1_555
Fe5 S5 2.213397 1_565
Fe6 S9 2.146537 1_555
Fe6 S24 2.181516 1_655
Fe6 S25 2.181516 1_555
Fe6 S1 2.213397 1_655
Fe7 S9 2.146537 1_555
Fe7 S19 2.181516 1_555
Fe7 S21 2.181516 1_555
Fe7 S6 2.213397 1_555
Fe8 S9 2.146537 1_555
Fe8 S17 2.181516 1_655
Fe8 S26 2.181516 1_555
Fe8 S5 2.213397 1_655
Fe9 S10 2.146537 1_555
Fe9 S25 2.181516 1_556
Fe9 S20 2.181516 1_655
Fe9 S4 2.213397 1_656
Fe10 S10 2.146537 1_555
Fe10 S23 2.181516 1_556
Fe10 S16 2.181516 1_565
Fe10 S6 2.213397 1_566
Fe11 S10 2.146537 1_555
Fe11 S22 2.181516 1_655
Fe11 S26 2.181516 1_565
Fe11 S3 2.213397 1_665
Fe12 S11 2.146537 1_555
Fe12 S24 2.181516 1_655
Fe12 S25 2.181516 1_555
Fe12 S4 2.213397 1_655
Fe13 S11 2.146537 1_555
Fe13 S21 2.181516 1_565
Fe13 S23 2.181516 1_555
Fe13 S6 2.213397 1_565
Fe14 S11 2.146537 1_555
Fe14 S26 2.181516 1_565
Fe14 S22 2.181516 1_655
Fe14 S5 2.213397 1_665
Fe15 S12 2.146537 1_555
Fe15 S25 2.181516 1_556
Fe15 S20 2.181516 1_655
Fe15 S1 2.213397 1_656
Fe16 S12 2.146537 1_555
Fe16 S19 2.181516 1_556
Fe16 S16 2.181516 1_555
Fe16 S6 2.213397 1_556
Fe17 S12 2.146537 1_555
Fe17 S17 2.181516 1_655
Fe17 S26 2.181516 1_555
Fe17 S3 2.213397 1_655
Fe18 S13 2.146537 1_555
Fe18 S15 2.181516 1_556
Fe18 S20 2.181516 1_555
Fe18 S4 2.213397 1_556
Fe19 S13 2.146537 1_555
Fe19 S23 2.181516 1_556
Fe19 S16 2.181516 1_565
Fe19 S2 2.213397 1_566
Fe20 S13 2.146537 1_555
Fe20 S18 2.181516 1_565
Fe20 S22 2.181516 1_555
Fe20 S3 2.213397 1_565
Fe21 S14 2.146537 1_555
Fe21 S15 2.181516 1_555
Fe21 S24 2.181516 1_555
Fe21 S1 2.213397 1_555
Fe22 S14 2.146537 1_555
Fe22 S21 2.181516 1_555
Fe22 S19 2.181516 1_555
Fe22 S2 2.213397 1_555
Fe23 S14 2.146537 1_555
Fe23 S18 2.181516 1_555
Fe23 S17 2.181516 1_555
Fe23 S5 2.213397 1_555
Fe24 S2 2.331780 1_555
Fe24 S1 2.331780 1_555
Fe24 S5 2.331780 1_555
Fe24 S3 2.331780 1_554
Fe24 S4 2.331780 1_545
Fe24 S6 2.331780 1_455
