# generated using pymatgen
data_CaMoO
_symmetry_space_group_name_H-M   'P 1'
_cell_length_a   5.58749928
_cell_length_b   3.36769710
_cell_length_c   11.36305525
_cell_angle_alpha   90.02542839
_cell_angle_beta   90.43646651
_cell_angle_gamma   90.00290098
_symmetry_Int_Tables_number   1
_chemical_formula_structural   CaMoO
_chemical_formula_sum   'Ca4 Mo4 O4'
_cell_volume   213.81244361
_cell_formula_units_Z   4
loop_
 _symmetry_equiv_pos_site_id
 _symmetry_equiv_pos_as_xyz
  1  'x, y, z'
loop_
 _atom_site_type_symbol
 _atom_site_label
 _atom_site_symmetry_multiplicity
 _atom_site_fract_x
 _atom_site_fract_y
 _atom_site_fract_z
 _atom_site_occupancy
  Ca  Ca0  1  0.01909200  0.74761500  0.34532400  1
  Ca  Ca1  1  0.98121100  0.23877300  0.65395200  1
  Ca  Ca2  1  0.51745000  0.74655200  0.15835600  1
  Ca  Ca3  1  0.48497200  0.24041500  0.84223400  1
  Mo  Mo0  1  0.51805000  0.24500800  0.40107400  1
  Mo  Mo1  1  0.48291300  0.74302100  0.59908600  1
  Mo  Mo2  1  0.98760300  0.74239600  0.89901800  1
  Mo  Mo3  1  0.01557200  0.24524700  0.10080200  1
  O  O0  1  0.76811300  0.24690800  0.25199600  1
  O  O1  1  0.26644300  0.24677100  0.25113800  1
  O  O2  1  0.73506600  0.73834900  0.74918800  1
  O  O3  1  0.23315400  0.73697800  0.74783300  1
loop_
_geom_bond_atom_site_label_1
_geom_bond_atom_site_label_2
_geom_bond_distance
_geom_bond_site_symmetry_2
Ca0 O0 2.428520 1_465
Ca0 O1 2.430066 1_565
Ca0 O0 2.431069 1_455
Ca0 O1 2.433442 1_555
Ca1 O3 2.431056 1_655
Ca1 O2 2.431969 1_555
Ca1 O2 2.434514 1_545
Ca1 O3 2.440168 1_645
Ca2 O0 2.429862 1_555
Ca2 O0 2.430771 1_565
Ca2 O1 2.436238 1_555
Ca2 O1 2.436709 1_565
Ca3 O3 2.430170 1_555
Ca3 O2 2.430307 1_555
Ca3 O2 2.439379 1_545
Ca3 O3 2.445404 1_545
Mo0 O1 2.200609 1_555
Mo0 O0 2.204070 1_555
Mo1 O3 2.200164 1_555
Mo1 O2 2.204043 1_555
Mo2 O2 2.203003 1_555
Mo2 O3 2.206787 1_655
Mo3 O1 2.201505 1_555
Mo3 O0 2.213509 1_455
