# generated using pymatgen
data_Er2Ga3Ni
_symmetry_space_group_name_H-M   'P 1'
_cell_length_a   5.46823645
_cell_length_b   5.46823645
_cell_length_c   6.97591193
_cell_angle_alpha   51.38542400
_cell_angle_beta   51.38542400
_cell_angle_gamma   46.07350854
_symmetry_Int_Tables_number   1
_chemical_formula_structural   Er2Ga3Ni
_chemical_formula_sum   'Er2 Ga3 Ni1'
_cell_volume   110.40896883
_cell_formula_units_Z   1
loop_
 _symmetry_equiv_pos_site_id
 _symmetry_equiv_pos_as_xyz
  1  'x, y, z'
loop_
 _atom_site_type_symbol
 _atom_site_label
 _atom_site_symmetry_multiplicity
 _atom_site_fract_x
 _atom_site_fract_y
 _atom_site_fract_z
 _atom_site_occupancy
  Er  Er0  1  0.46072109  0.46072109  0.29134105  1
  Er  Er1  1  0.54542930  0.54542930  0.70451029  1
  Ga  Ga0  1  0.14847949  0.14847949  0.31629971  1
  Ga  Ga1  1  0.17644342  0.17644342  0.87580323  1
  Ga  Ga2  1  0.83655384  0.83655384  0.09383581  1
  Ni  Ni0  1  0.83237286  0.83237286  0.71820891  1
loop_
_geom_bond_atom_site_label_1
_geom_bond_atom_site_label_2
_geom_bond_distance
_geom_bond_site_symmetry_2
Er0 Ga0 2.937055 1_655
Er0 Ga0 2.937055 1_565
Er0 Ga1 2.997906 1_555
Er0 Ga2 3.022786 1_555
Er0 Ga1 3.026450 1_654
Er0 Ga1 3.026450 1_564
Er0 Ga0 3.027135 1_555
Er0 Ni0 3.113272 1_554
Er0 Ni0 3.146050 1_545
Er0 Ni0 3.146050 1_455
Er0 Ga2 3.220883 1_545
Er0 Ga2 3.220883 1_455
Er1 Ga2 2.937780 1_546
Er1 Ga2 2.937780 1_456
Er1 Ni0 2.953536 1_555
Er1 Ni0 2.984631 1_455
Er1 Ni0 2.984631 1_545
Er1 Ga0 3.029690 1_565
Er1 Ga0 3.029690 1_655
Er1 Ga1 3.033155 1_555
Er1 Ga2 3.131016 1_555
Er1 Ga1 3.143626 1_565
Er1 Ga1 3.143626 1_655
Ga0 Ni0 2.425714 1_445
Ga0 Ga2 2.566313 1_545
Ga0 Ga2 2.566313 1_455
Ga0 Ga1 2.889417 1_554
Ga1 Ni0 2.431109 1_545
Ga1 Ni0 2.431109 1_455
Ga1 Ga2 2.637840 1_446
Ga2 Ni0 2.649057 1_554
