# generated using pymatgen
data_Zr4Co4Si7
_symmetry_space_group_name_H-M   'P 1'
_cell_length_a   9.49126541
_cell_length_b   9.49126541
_cell_length_c   9.49126541
_cell_angle_alpha   94.10469107
_cell_angle_beta   94.10469107
_cell_angle_gamma   148.96380644
_symmetry_Int_Tables_number   1
_chemical_formula_structural   Zr4Co4Si7
_chemical_formula_sum   'Zr8 Co8 Si14'
_cell_volume   424.75685627
_cell_formula_units_Z   2
loop_
 _symmetry_equiv_pos_site_id
 _symmetry_equiv_pos_as_xyz
  1  'x, y, z'
loop_
 _atom_site_type_symbol
 _atom_site_label
 _atom_site_symmetry_multiplicity
 _atom_site_fract_x
 _atom_site_fract_y
 _atom_site_fract_z
 _atom_site_occupancy
  Zr  Zr0  1  0.13765700  0.13765700  0.27531500  1
  Zr  Zr1  1  0.86234300  0.86234300  0.72468500  1
  Zr  Zr2  1  0.86234300  0.13765700  0.00000000  1
  Zr  Zr3  1  0.13765700  0.86234300  0.00000000  1
  Zr  Zr4  1  0.50000000  0.30298000  0.80298000  1
  Zr  Zr5  1  0.50000000  0.69702000  0.19702000  1
  Zr  Zr6  1  0.69702000  0.50000000  0.19702000  1
  Zr  Zr7  1  0.30298000  0.50000000  0.80298000  1
  Co  Co0  1  0.39718800  0.89718800  0.79437700  1
  Co  Co1  1  0.10281200  0.60281200  0.20562300  1
  Co  Co2  1  0.10281200  0.89718800  0.50000000  1
  Co  Co3  1  0.39718800  0.60281200  0.50000000  1
  Co  Co4  1  0.60281200  0.39718800  0.50000000  1
  Co  Co5  1  0.89718800  0.10281200  0.50000000  1
  Co  Co6  1  0.89718800  0.39718800  0.79437700  1
  Co  Co7  1  0.60281200  0.10281200  0.20562300  1
  Si  Si0  1  0.50000000  0.09195000  0.59195000  1
  Si  Si1  1  0.50000000  0.90805000  0.40805000  1
  Si  Si2  1  0.90805000  0.50000000  0.40805000  1
  Si  Si3  1  0.09195000  0.50000000  0.59195000  1
  Si  Si4  1  0.74932700  0.74932700  0.00000000  1
  Si  Si5  1  0.25067300  0.25067300  0.00000000  1
  Si  Si6  1  0.28864200  0.28864200  0.57728300  1
  Si  Si7  1  0.71135800  0.71135800  0.42271700  1
  Si  Si8  1  0.71135800  0.28864200  0.00000000  1
  Si  Si9  1  0.28864200  0.71135800  0.00000000  1
  Si  Si10  1  0.00000000  0.30337900  0.30337900  1
  Si  Si11  1  0.00000000  0.69662100  0.69662100  1
  Si  Si12  1  0.69662100  0.00000000  0.69662100  1
  Si  Si13  1  0.30337900  0.00000000  0.30337900  1
loop_
_geom_bond_atom_site_label_1
_geom_bond_atom_site_label_2
_geom_bond_distance
_geom_bond_site_symmetry_2
Co0 Si11 2.375842 1_555
Co0 Si12 2.375845 1_565
Co0 Si9 2.376503 1_556
Co0 Si8 2.376506 1_566
Co0 Si3 2.397140 1_555
Co0 Si0 2.397143 1_565
Co0 Co6 2.539319 1_565
Co0 Co6 2.539319 1_455
Co0 Zr7 3.048892 1_555
Co0 Zr4 3.048894 1_565
Co0 Zr3 3.061125 1_556
Co0 Zr2 3.061127 1_566
Co1 Si13 2.375842 1_565
Co1 Si10 2.375845 1_555
Co1 Si9 2.376503 1_555
Co1 Si8 2.376506 1_455
Co1 Si1 2.397140 1_555
Co1 Si2 2.397143 1_455
Co1 Co7 2.539319 1_565
Co1 Co7 2.539319 1_455
Co1 Zr5 3.048892 1_555
Co1 Zr6 3.048894 1_455
Co1 Zr3 3.061125 1_555
Co1 Zr2 3.061127 1_455
Co2 Si13 2.375840 1_565
Co2 Si11 2.375840 1_555
Co2 Si7 2.376511 1_455
Co2 Si6 2.376511 1_565
Co2 Si0 2.397134 1_565
Co2 Si2 2.397134 1_455
Co2 Co4 2.539319 1_565
Co2 Co4 2.539319 1_455
Co2 Zr4 3.048893 1_565
Co2 Zr6 3.048893 1_455
Co2 Zr0 3.061125 1_565
Co2 Zr1 3.061125 1_455
Co3 Si12 2.375840 1_565
Co3 Si10 2.375840 1_555
Co3 Si6 2.376508 1_555
Co3 Si7 2.376508 1_555
Co3 Si3 2.397134 1_555
Co3 Si1 2.397134 1_555
Co3 Co5 2.539319 1_565
Co3 Co5 2.539319 1_455
Co3 Zr7 3.048893 1_555
Co3 Zr5 3.048893 1_555
Co3 Zr0 3.061127 1_555
Co3 Zr1 3.061127 1_555
Co4 Si11 2.375840 1_655
Co4 Si13 2.375840 1_555
Co4 Si6 2.376508 1_555
Co4 Si7 2.376508 1_555
Co4 Si0 2.397134 1_555
Co4 Si2 2.397134 1_555
Co4 Zr6 3.048893 1_555
Co4 Zr4 3.048893 1_555
Co4 Zr1 3.061127 1_555
Co4 Zr0 3.061127 1_555
Co5 Si12 2.375840 1_555
Co5 Si10 2.375840 1_655
Co5 Si7 2.376511 1_545
Co5 Si6 2.376511 1_655
Co5 Si3 2.397134 1_655
Co5 Si1 2.397134 1_545
Co5 Zr5 3.048893 1_545
Co5 Zr7 3.048893 1_655
Co5 Zr0 3.061125 1_655
Co5 Zr1 3.061125 1_545
Co6 Si12 2.375842 1_555
Co6 Si11 2.375845 1_655
Co6 Si8 2.376503 1_556
Co6 Si9 2.376506 1_656
Co6 Si0 2.397140 1_555
Co6 Si3 2.397143 1_655
Co6 Zr4 3.048892 1_555
Co6 Zr7 3.048894 1_655
Co6 Zr2 3.061125 1_556
Co6 Zr3 3.061127 1_656
Co7 Si10 2.375842 1_655
Co7 Si13 2.375845 1_555
Co7 Si8 2.376503 1_555
Co7 Si9 2.376506 1_545
Co7 Si2 2.397140 1_555
Co7 Si1 2.397143 1_545
Co7 Zr6 3.048892 1_555
Co7 Zr5 3.048894 1_545
Co7 Zr2 3.061125 1_555
Co7 Zr3 3.061127 1_545
Si0 Si1 2.378446 1_545
Si0 Zr4 2.729328 1_555
Si1 Zr5 2.729328 1_555
Si2 Si3 2.378446 1_655
Si2 Zr6 2.729328 1_555
Si3 Zr7 2.729328 1_555
Si4 Si5 2.532483 1_555
Si4 Si5 2.546155 1_665
Si4 Zr3 2.821374 1_655
Si4 Zr2 2.821374 1_565
Si4 Zr0 2.821381 1_665
Si4 Zr1 2.821383 1_554
Si4 Zr4 2.845407 1_554
Si4 Zr5 2.845407 1_555
Si4 Zr6 2.845407 1_555
Si4 Zr7 2.845407 1_554
Si5 Zr3 2.821374 1_545
Si5 Zr2 2.821374 1_455
Si5 Zr1 2.821381 1_444
Si5 Zr0 2.821383 1_555
Si5 Zr7 2.845407 1_554
Si5 Zr5 2.845407 1_555
Si5 Zr6 2.845407 1_555
Si5 Zr4 2.845407 1_554
Si6 Zr4 2.739860 1_555
Si6 Zr7 2.739860 1_555
Si6 Zr0 2.761579 1_555
Si6 Zr1 2.874949 1_445
Si6 Zr1 2.874949 1_555
Si7 Zr5 2.739860 1_555
Si7 Zr6 2.739860 1_555
Si7 Zr1 2.761579 1_555
Si7 Zr0 2.874949 1_665
Si7 Zr0 2.874949 1_555
Si8 Zr4 2.739853 1_554
Si8 Zr6 2.739853 1_555
Si8 Zr2 2.761597 1_555
Si8 Zr3 2.874949 1_655
Si8 Zr3 2.874949 1_545
Si9 Zr7 2.739853 1_554
Si9 Zr5 2.739853 1_555
Si9 Zr3 2.761597 1_555
Si9 Zr2 2.874949 1_455
Si9 Zr2 2.874949 1_565
Si10 Zr0 2.786329 1_555
Si10 Zr2 2.786329 1_455
Si10 Zr5 2.887968 1_555
Si10 Zr5 2.887968 1_445
Si11 Zr1 2.786329 1_455
Si11 Zr3 2.786329 1_556
Si11 Zr4 2.887968 1_455
Si11 Zr4 2.887968 1_565
Si12 Zr1 2.786329 1_545
Si12 Zr2 2.786329 1_556
Si12 Zr7 2.887968 1_655
Si12 Zr7 2.887968 1_545
Si13 Zr0 2.786329 1_555
Si13 Zr3 2.786329 1_545
Si13 Zr6 2.887968 1_555
Si13 Zr6 2.887968 1_445
