# generated using pymatgen
data_PrMn2ZnO6
_symmetry_space_group_name_H-M   'P 1'
_cell_length_a   5.29837400
_cell_length_b   5.43940300
_cell_length_c   7.72959900
_cell_angle_alpha   90.00000000
_cell_angle_beta   90.00000000
_cell_angle_gamma   90.00000000
_symmetry_Int_Tables_number   1
_chemical_formula_structural   PrMn2ZnO6
_chemical_formula_sum   'Pr2 Mn4 Zn2 O12'
_cell_volume   222.76697694
_cell_formula_units_Z   2
loop_
 _symmetry_equiv_pos_site_id
 _symmetry_equiv_pos_as_xyz
  1  'x, y, z'
loop_
 _atom_site_type_symbol
 _atom_site_label
 _atom_site_symmetry_multiplicity
 _atom_site_fract_x
 _atom_site_fract_y
 _atom_site_fract_z
 _atom_site_occupancy
  Pr  Pr0  1  0.01071200  0.71112300  0.00000000  1
  Pr  Pr1  1  0.51071200  0.28887700  0.50000000  1
  Mn  Mn0  1  0.99992600  0.24546500  0.75039100  1
  Mn  Mn1  1  0.99992600  0.24546500  0.24960900  1
  Mn  Mn2  1  0.49992600  0.75453500  0.25039100  1
  Mn  Mn3  1  0.49992600  0.75453500  0.74960900  1
  Zn  Zn0  1  0.48510700  0.21188800  0.00000000  1
  Zn  Zn1  1  0.98510700  0.78811200  0.50000000  1
  O  O0  1  0.07632500  0.20692600  0.50000000  1
  O  O1  1  0.22183900  0.97288600  0.80242000  1
  O  O2  1  0.22183900  0.97288600  0.19758000  1
  O  O3  1  0.30541800  0.44716000  0.19227900  1
  O  O4  1  0.30541800  0.44716000  0.80772100  1
  O  O5  1  0.37350000  0.73010100  0.50000000  1
  O  O6  1  0.57632500  0.79307400  0.00000000  1
  O  O7  1  0.72183900  0.02711400  0.69758000  1
  O  O8  1  0.72183900  0.02711400  0.30242000  1
  O  O9  1  0.80541800  0.55284000  0.69227900  1
  O  O10  1  0.80541800  0.55284000  0.30772100  1
  O  O11  1  0.87350000  0.26989900  0.00000000  1
loop_
_geom_bond_atom_site_label_1
_geom_bond_atom_site_label_2
_geom_bond_distance
_geom_bond_site_symmetry_2
Mn0 O1 1.934552 1_645
Mn0 O7 1.936026 1_555
Mn0 O0 1.988381 1_655
Mn0 O4 2.004969 1_655
Mn0 O9 2.014752 1_555
Mn0 O11 2.046671 1_556
Mn1 O2 1.934552 1_645
Mn1 O8 1.936026 1_555
Mn1 O0 1.988381 1_655
Mn1 O3 2.004969 1_655
Mn1 O10 2.014752 1_555
Mn1 O11 2.046671 1_555
Mn2 O8 1.934552 1_565
Mn2 O2 1.936026 1_555
Mn2 O6 1.988381 1_555
Mn2 O10 2.004969 1_555
Mn2 O3 2.014752 1_555
Mn2 O5 2.046671 1_555
Mn3 O7 1.934552 1_565
Mn3 O1 1.936026 1_555
Mn3 O6 1.988381 1_556
Mn3 O9 2.004969 1_555
Mn3 O4 2.014752 1_555
Mn3 O5 2.046671 1_555
O0 Zn1 2.328802 1_445
O0 Pr1 2.344315 1_555
O1 Pr0 2.368759 1_556
O1 Zn0 2.442986 1_566
O2 Pr0 2.368759 1_555
O2 Zn0 2.442986 1_565
O3 Zn0 2.180151 1_555
O3 Pr0 2.590096 1_555
O3 Pr1 2.753535 1_555
O4 Zn0 2.180151 1_556
O4 Pr0 2.590096 1_556
O4 Pr1 2.753535 1_555
O5 Zn1 2.081903 1_455
O5 Pr1 2.507689 1_555
O6 Zn0 2.328802 1_565
O6 Pr0 2.344315 1_655
O7 Pr1 2.368759 1_555
O7 Zn1 2.442986 1_545
O8 Pr1 2.368759 1_555
O8 Zn1 2.442986 1_545
O9 Zn1 2.180151 1_555
O9 Pr1 2.590096 1_555
O9 Pr0 2.753535 1_656
O10 Zn1 2.180151 1_555
O10 Pr1 2.590096 1_555
O10 Pr0 2.753535 1_655
O11 Zn0 2.081903 1_555
O11 Pr0 2.507689 1_655
