# generated using pymatgen
data_Ca4PbN4
_symmetry_space_group_name_H-M   'P 1'
_cell_length_a   6.19550281
_cell_length_b   6.22239227
_cell_length_c   9.45168140
_cell_angle_alpha   69.66764632
_cell_angle_beta   81.21379200
_cell_angle_gamma   68.72868997
_symmetry_Int_Tables_number   1
_chemical_formula_structural   Ca4PbN4
_chemical_formula_sum   'Ca8 Pb2 N8'
_cell_volume   318.24210445
_cell_formula_units_Z   2
loop_
 _symmetry_equiv_pos_site_id
 _symmetry_equiv_pos_as_xyz
  1  'x, y, z'
loop_
 _atom_site_type_symbol
 _atom_site_label
 _atom_site_symmetry_multiplicity
 _atom_site_fract_x
 _atom_site_fract_y
 _atom_site_fract_z
 _atom_site_occupancy
  Ca  Ca0  1  0.72861300  0.62226500  0.20288800  1
  Ca  Ca1  1  0.27138700  0.37773500  0.79711200  1
  Ca  Ca2  1  0.74870600  0.24984300  0.99742000  1
  Ca  Ca3  1  0.25129400  0.75015700  0.00258000  1
  Ca  Ca4  1  0.73922500  0.47873400  0.57732800  1
  Ca  Ca5  1  0.26077500  0.52126600  0.42267200  1
  Ca  Ca6  1  0.25411300  0.94047500  0.58854800  1
  Ca  Ca7  1  0.74588700  0.05952500  0.41145200  1
  Pb  Pb0  1  0.72343400  0.83955500  0.76905200  1
  Pb  Pb1  1  0.27656600  0.16044500  0.23094800  1
  N  N0  1  0.99901800  0.69143700  0.60580000  1
  N  N1  1  0.00098200  0.30856300  0.39420000  1
  N  N2  1  0.84993300  0.86226200  0.96374100  1
  N  N3  1  0.15006700  0.13773800  0.03625900  1
  N  N4  1  0.50141400  0.60175800  0.80192100  1
  N  N5  1  0.49858600  0.39824200  0.19807900  1
  N  N6  1  0.50390300  0.80854000  0.38836800  1
  N  N7  1  0.49609700  0.19146000  0.61163200  1
loop_
_geom_bond_atom_site_label_1
_geom_bond_atom_site_label_2
_geom_bond_distance
_geom_bond_site_symmetry_2
Ca0 N5 2.341241 1_555
Ca0 N6 2.418814 1_555
Ca0 N2 2.419479 1_554
Ca0 N1 2.452915 1_655
Ca1 N4 2.341241 1_555
Ca1 N7 2.418814 1_555
Ca1 N3 2.419479 1_556
Ca1 N0 2.452915 1_455
Ca2 N3 2.376352 1_656
Ca2 N2 2.384522 1_545
Ca2 N5 2.476266 1_556
Ca2 N4 2.485052 1_555
Ca3 N2 2.376352 1_454
Ca3 N3 2.384522 1_565
Ca3 N4 2.476266 1_554
Ca3 N5 2.485052 1_555
Ca4 N6 2.367351 1_555
Ca4 N1 2.432542 1_655
Ca4 N0 2.517989 1_555
Ca4 N4 2.572630 1_555
Ca4 N7 2.640267 1_555
Ca5 N7 2.367351 1_555
Ca5 N0 2.432542 1_455
Ca5 N1 2.517989 1_555
Ca5 N5 2.572630 1_555
Ca5 N6 2.640267 1_555
Ca6 N6 2.431426 1_555
Ca6 N1 2.535691 1_565
Ca6 N0 2.539356 1_455
Ca6 N4 2.550283 1_555
Ca6 N7 2.601879 1_565
Ca7 N7 2.431426 1_555
Ca7 N0 2.535691 1_545
Ca7 N1 2.539356 1_655
Ca7 N5 2.550283 1_555
Ca7 N6 2.601879 1_545
N0 Pb0 2.277528 1_555
N1 Pb1 2.277528 1_555
N2 Pb0 2.172993 1_555
N3 Pb1 2.172993 1_555
N4 Pb0 2.281395 1_555
N5 Pb1 2.281395 1_555
N6 Pb1 2.265107 1_565
N7 Pb0 2.265107 1_545
