# generated using pymatgen
data_Nb3V3Ir2
_symmetry_space_group_name_H-M   'P 1'
_cell_length_a   4.99841719
_cell_length_b   4.99841719
_cell_length_c   4.99841719
_cell_angle_alpha   89.88313473
_cell_angle_beta   90.11686527
_cell_angle_gamma   90.11686527
_symmetry_Int_Tables_number   1
_chemical_formula_structural   Nb3V3Ir2
_chemical_formula_sum   'Nb3 V3 Ir2'
_cell_volume   124.88054882
_cell_formula_units_Z   1
loop_
 _symmetry_equiv_pos_site_id
 _symmetry_equiv_pos_as_xyz
  1  'x, y, z'
loop_
 _atom_site_type_symbol
 _atom_site_label
 _atom_site_symmetry_multiplicity
 _atom_site_fract_x
 _atom_site_fract_y
 _atom_site_fract_z
 _atom_site_occupancy
  Nb  Nb0  1  0.50304000  0.75000000  0.00304000  1
  Nb  Nb1  1  0.25000000  0.00304000  0.49696000  1
  Nb  Nb2  1  0.99696000  0.49696000  0.75000000  1
  V  V0  1  0.50278300  0.25000000  0.00278300  1
  V  V1  1  0.75000000  0.00278300  0.49721700  1
  V  V2  1  0.99721700  0.49721700  0.25000000  1
  Ir  Ir0  1  0.50365100  0.49634900  0.49634900  1
  Ir  Ir1  1  0.99634900  0.00365100  0.00365100  1
loop_
_geom_bond_atom_site_label_1
_geom_bond_atom_site_label_2
_geom_bond_distance
_geom_bond_site_symmetry_2
Nb0 V0 2.499209 1_565
Nb0 V0 2.499209 1_555
Nb0 V1 3.035716 1_565
Nb0 V2 3.035716 1_555
Nb0 Nb2 3.053932 1_554
Nb0 Nb1 3.053932 1_565
Nb0 V1 3.083172 1_564
Nb0 V2 3.083172 1_455
Nb0 Nb2 3.094952 1_454
Nb0 Nb1 3.094952 1_564
Nb1 V1 2.499209 1_455
Nb1 V1 2.499209 1_555
Nb1 V2 3.035716 1_455
Nb1 V0 3.035716 1_555
Nb1 Nb2 3.053932 1_455
Nb1 V0 3.083172 1_556
Nb1 V2 3.083172 1_445
Nb1 Nb2 3.094952 1_445
Nb2 V2 2.499209 1_556
Nb2 V2 2.499209 1_555
Nb2 V0 3.035716 1_556
Nb2 V1 3.035716 1_555
Nb2 V0 3.083172 1_656
Nb2 V1 3.083172 1_565
V0 V2 3.023731 1_555
V0 V1 3.023731 1_555
V0 V2 3.077574 1_455
V0 V1 3.077574 1_554
V1 V2 3.023731 1_555
V1 V2 3.077574 1_545
Ir0 V2 2.759513 1_555
Ir0 V0 2.759513 1_555
Ir0 V1 2.759513 1_555
Ir0 Nb0 2.770323 1_555
Ir0 Nb1 2.770323 1_555
Ir0 Nb2 2.770323 1_555
Ir0 V0 2.812719 1_556
Ir0 V1 2.812719 1_565
Ir0 V2 2.812719 1_455
Ir0 Nb2 2.834597 1_455
Ir0 Nb1 2.834597 1_565
Ir0 Nb0 2.834597 1_556
Ir1 V0 2.759513 1_555
Ir1 V1 2.759513 1_555
Ir1 V2 2.759513 1_555
Ir1 Nb0 2.770323 1_545
Ir1 Nb2 2.770323 1_554
Ir1 Nb1 2.770323 1_655
Ir1 V1 2.812719 1_554
Ir1 V2 2.812719 1_545
Ir1 V0 2.812719 1_655
Ir1 Nb2 2.834597 1_544
Ir1 Nb1 2.834597 1_654
Ir1 Nb0 2.834597 1_645
