# generated using pymatgen
data_AgH20S6N5O9
_symmetry_space_group_name_H-M   'P 1'
_cell_length_a   10.99142000
_cell_length_b   10.16822900
_cell_length_c   16.04110752
_cell_angle_alpha   85.91236570
_cell_angle_beta   90.00000000
_cell_angle_gamma   90.00000000
_symmetry_Int_Tables_number   1
_chemical_formula_structural   AgH20S6N5O9
_chemical_formula_sum   'Ag4 H80 S24 N20 O36'
_cell_volume   1788.24616203
_cell_formula_units_Z   4
loop_
 _symmetry_equiv_pos_site_id
 _symmetry_equiv_pos_as_xyz
  1  'x, y, z'
loop_
 _atom_site_type_symbol
 _atom_site_label
 _atom_site_symmetry_multiplicity
 _atom_site_fract_x
 _atom_site_fract_y
 _atom_site_fract_z
 _atom_site_occupancy
  Ag  Ag0  1  0.93596400  0.82744400  0.53991900  1
  Ag  Ag1  1  0.43596400  0.17255600  0.96008100  1
  Ag  Ag2  1  0.06403600  0.17255600  0.46008100  1
  Ag  Ag3  1  0.56403600  0.82744400  0.03991900  1
  H  H0  1  0.12312300  0.87953300  0.77879400  1
  H  H1  1  0.62312300  0.12046700  0.72120600  1
  H  H2  1  0.87687700  0.12046700  0.22120600  1
  H  H3  1  0.37687700  0.87953300  0.27879400  1
  H  H4  1  0.02827800  0.87905300  0.86311000  1
  H  H5  1  0.52827800  0.12094700  0.63689000  1
  H  H6  1  0.97172200  0.12094700  0.13689000  1
  H  H7  1  0.47172200  0.87905300  0.36311000  1
  H  H8  1  0.99796100  0.97801000  0.77994500  1
  H  H9  1  0.49796100  0.02199000  0.72005500  1
  H  H10  1  0.00203900  0.02199000  0.22005500  1
  H  H11  1  0.50203900  0.97801000  0.27994500  1
  H  H12  1  0.12128600  0.00904700  0.84094800  1
  H  H13  1  0.62128600  0.99095300  0.65905200  1
  H  H14  1  0.87871400  0.99095300  0.15905200  1
  H  H15  1  0.37871400  0.00904700  0.34094800  1
  H  H16  1  0.93919200  0.51389800  0.80895000  1
  H  H17  1  0.43919200  0.48610200  0.69105000  1
  H  H18  1  0.06080800  0.48610200  0.19105000  1
  H  H19  1  0.56080800  0.51389800  0.30895000  1
  H  H20  1  0.94742000  0.38888000  0.88843300  1
  H  H21  1  0.44742000  0.61112000  0.61156700  1
  H  H22  1  0.05258000  0.61112000  0.11156700  1
  H  H23  1  0.55258000  0.38888000  0.38843300  1
  H  H24  1  0.91105400  0.35443200  0.78919100  1
  H  H25  1  0.41105400  0.64556800  0.71080900  1
  H  H26  1  0.08894600  0.64556800  0.21080900  1
  H  H27  1  0.58894600  0.35443200  0.28919100  1
  H  H28  1  0.81294600  0.43795100  0.84608300  1
  H  H29  1  0.31294600  0.56204900  0.65391700  1
  H  H30  1  0.18705400  0.56204900  0.15391700  1
  H  H31  1  0.68705400  0.43795100  0.34608300  1
  H  H32  1  0.86575500  0.49934100  0.60186900  1
  H  H33  1  0.36575500  0.50065900  0.89813100  1
  H  H34  1  0.13424500  0.50065900  0.39813100  1
  H  H35  1  0.63424500  0.49934100  0.10186900  1
  H  H36  1  0.73225600  0.47454800  0.65513700  1
  H  H37  1  0.23225600  0.52545200  0.84486300  1
  H  H38  1  0.26774400  0.52545200  0.34486300  1
  H  H39  1  0.76774400  0.47454800  0.15513700  1
  H  H40  1  0.78674100  0.35609100  0.59632000  1
  H  H41  1  0.28674100  0.64390900  0.90368000  1
  H  H42  1  0.21325900  0.64390900  0.40368000  1
  H  H43  1  0.71325900  0.35609100  0.09632000  1
  H  H44  1  0.73397400  0.50344600  0.54923300  1
  H  H45  1  0.23397400  0.49655400  0.95076700  1
  H  H46  1  0.26602600  0.49655400  0.45076700  1
  H  H47  1  0.76602600  0.50344600  0.04923300  1
  H  H48  1  0.83529900  0.81576400  0.32160800  1
  H  H49  1  0.33529900  0.18423600  0.17839200  1
  H  H50  1  0.16470100  0.18423600  0.67839200  1
  H  H51  1  0.66470100  0.81576400  0.82160800  1
  H  H52  1  0.74536900  0.69068000  0.35740600  1
  H  H53  1  0.24536900  0.30932000  0.14259400  1
  H  H54  1  0.25463100  0.30932000  0.64259400  1
  H  H55  1  0.75463100  0.69068000  0.85740600  1
  H  H56  1  0.83733100  0.67041500  0.27495500  1
  H  H57  1  0.33733100  0.32958500  0.22504500  1
  H  H58  1  0.16266900  0.32958500  0.72504500  1
  H  H59  1  0.66266900  0.67041500  0.77495500  1
  H  H60  1  0.71410100  0.76902000  0.26428700  1
  H  H61  1  0.21410100  0.23098000  0.23571300  1
  H  H62  1  0.28589900  0.23098000  0.73571300  1
  H  H63  1  0.78589900  0.76902000  0.76428700  1
  H  H64  1  0.69483100  0.01123100  0.43942300  1
  H  H65  1  0.19483100  0.98876900  0.06057700  1
  H  H66  1  0.30516900  0.98876900  0.56057700  1
  H  H67  1  0.80516900  0.01123100  0.93942300  1
  H  H68  1  0.76792300  0.12126700  0.49784200  1
  H  H69  1  0.26792300  0.87873300  0.00215800  1
  H  H70  1  0.23207700  0.87873300  0.50215800  1
  H  H71  1  0.73207700  0.12126700  0.99784200  1
  H  H72  1  0.63554900  0.16222400  0.45220000  1
  H  H73  1  0.13554900  0.83777600  0.04780000  1
  H  H74  1  0.36445100  0.83777600  0.54780000  1
  H  H75  1  0.86445100  0.16222400  0.95220000  1
  H  H76  1  0.76185700  0.14928800  0.39165600  1
  H  H77  1  0.26185700  0.85071200  0.10834400  1
  H  H78  1  0.23814300  0.85071200  0.60834400  1
  H  H79  1  0.73814300  0.14928800  0.89165600  1
  S  S0  1  0.96670400  0.95309200  0.39531700  1
  S  S1  1  0.46670400  0.04690800  0.10468300  1
  S  S2  1  0.03329600  0.04690800  0.60468300  1
  S  S3  1  0.53329600  0.95309200  0.89531700  1
  S  S4  1  0.71256200  0.80308300  0.59296800  1
  S  S5  1  0.21256200  0.19691700  0.90703200  1
  S  S6  1  0.28743800  0.19691700  0.40703200  1
  S  S7  1  0.78743800  0.80308300  0.09296800  1
  S  S8  1  0.05317200  0.61245800  0.57992400  1
  S  S9  1  0.55317200  0.38754200  0.92007600  1
  S  S10  1  0.94682800  0.38754200  0.42007600  1
  S  S11  1  0.44682800  0.61245800  0.07992400  1
  S  S12  1  0.10516000  0.86674800  0.33168100  1
  S  S13  1  0.60516000  0.13325200  0.16831900  1
  S  S14  1  0.89484000  0.13325200  0.66831900  1
  S  S15  1  0.39484000  0.86674800  0.83168100  1
  S  S16  1  0.61490700  0.74672800  0.49421800  1
  S  S17  1  0.11490700  0.25327200  0.00578200  1
  S  S18  1  0.38509300  0.25327200  0.50578200  1
  S  S19  1  0.88509300  0.74672800  0.99421800  1
  S  S20  1  0.08781400  0.64044500  0.70192200  1
  S  S21  1  0.58781400  0.35955500  0.79807800  1
  S  S22  1  0.91218600  0.35955500  0.29807800  1
  S  S23  1  0.41218600  0.64044500  0.20192200  1
  N  N0  1  0.06981400  0.93680900  0.81537000  1
  N  N1  1  0.56981400  0.06319100  0.68463000  1
  N  N2  1  0.93018600  0.06319100  0.18463000  1
  N  N3  1  0.43018600  0.93680900  0.31537000  1
  N  N4  1  0.90326200  0.42419000  0.83367300  1
  N  N5  1  0.40326200  0.57581000  0.66632700  1
  N  N6  1  0.09673800  0.57581000  0.16632700  1
  N  N7  1  0.59673800  0.42419000  0.33367300  1
  N  N8  1  0.77904800  0.45794000  0.60041800  1
  N  N9  1  0.27904800  0.54206000  0.89958200  1
  N  N10  1  0.22095200  0.54206000  0.39958200  1
  N  N11  1  0.72095200  0.45794000  0.10041800  1
  N  N12  1  0.78325100  0.73678600  0.30375100  1
  N  N13  1  0.28325100  0.26321400  0.19624900  1
  N  N14  1  0.21674900  0.26321400  0.69624900  1
  N  N15  1  0.71674900  0.73678600  0.80375100  1
  N  N16  1  0.71600200  0.11041100  0.44459000  1
  N  N17  1  0.21600200  0.88958900  0.05541000  1
  N  N18  1  0.28399800  0.88958900  0.55541000  1
  N  N19  1  0.78399800  0.11041100  0.94459000  1
  O  O0  1  0.15021800  0.96879300  0.26865600  1
  O  O1  1  0.65021800  0.03120700  0.23134400  1
  O  O2  1  0.84978200  0.03120700  0.73134400  1
  O  O3  1  0.34978200  0.96879300  0.76865600  1
  O  O4  1  0.05077800  0.75307300  0.29239000  1
  O  O5  1  0.55077800  0.24692700  0.20761000  1
  O  O6  1  0.94922200  0.24692700  0.70761000  1
  O  O7  1  0.44922200  0.75307300  0.79239000  1
  O  O8  1  0.20227000  0.82278200  0.39238500  1
  O  O9  1  0.70227000  0.17721800  0.10761500  1
  O  O10  1  0.79773000  0.17721800  0.60761500  1
  O  O11  1  0.29773000  0.82278200  0.89238500  1
  O  O12  1  0.61681700  0.85609900  0.42701100  1
  O  O13  1  0.11681700  0.14390100  0.07298900  1
  O  O14  1  0.38318300  0.14390100  0.57298900  1
  O  O15  1  0.88318300  0.85609900  0.92701100  1
  O  O16  1  0.48681300  0.72047100  0.52176000  1
  O  O17  1  0.98681300  0.27952900  0.97824000  1
  O  O18  1  0.51318700  0.27952900  0.47824000  1
  O  O19  1  0.01318700  0.72047100  0.02176000  1
  O  O20  1  0.67048400  0.62626400  0.46284000  1
  O  O21  1  0.17048400  0.37373600  0.03716000  1
  O  O22  1  0.32951600  0.37373600  0.53716000  1
  O  O23  1  0.82951600  0.62626400  0.96284000  1
  O  O24  1  0.14667000  0.51761400  0.74036500  1
  O  O25  1  0.64667000  0.48238600  0.75963500  1
  O  O26  1  0.85333000  0.48238600  0.25963500  1
  O  O27  1  0.35333000  0.51761400  0.24036500  1
  O  O28  1  0.97265100  0.66562900  0.74660500  1
  O  O29  1  0.47265100  0.33437100  0.75339500  1
  O  O30  1  0.02734900  0.33437100  0.25339500  1
  O  O31  1  0.52734900  0.66562900  0.24660500  1
  O  O32  1  0.17425400  0.75287400  0.70506900  1
  O  O33  1  0.67425400  0.24712600  0.79493100  1
  O  O34  1  0.82574600  0.24712600  0.29493100  1
  O  O35  1  0.32574600  0.75287400  0.20506900  1
loop_
_geom_bond_atom_site_label_1
_geom_bond_atom_site_label_2
_geom_bond_distance
_geom_bond_site_symmetry_2
Ag0 S8 2.578799 1_655
Ag0 S0 2.589287 1_555
Ag0 S4 2.604795 1_555
Ag0 S2 2.744844 1_665
Ag1 S9 2.578799 1_555
Ag1 S1 2.589287 1_556
Ag1 S5 2.604795 1_555
Ag1 S3 2.744844 1_545
Ag2 S10 2.578799 1_455
Ag2 S2 2.589287 1_555
Ag2 S6 2.604795 1_555
Ag2 S0 2.744844 1_445
Ag3 S11 2.578799 1_555
Ag3 S3 2.589287 1_554
Ag3 S7 2.604795 1_555
Ag3 S1 2.744844 1_565
H0 N0 1.037047 1_555
H1 N1 1.037047 1_555
H2 N2 1.037047 1_555
H3 N3 1.037047 1_555
H4 N0 1.037140 1_555
H5 N1 1.037140 1_555
H6 N2 1.037140 1_555
H7 N3 1.037140 1_555
H8 N0 1.043177 1_655
H9 N1 1.043177 1_555
H10 N2 1.043177 1_455
H11 N3 1.043177 1_555
H12 N0 1.034854 1_545
H13 N1 1.034854 1_565
H14 N2 1.034854 1_565
H15 N3 1.034854 1_545
H16 N4 1.045814 1_555
H17 N5 1.045814 1_555
H18 N6 1.045814 1_555
H19 N7 1.045814 1_555
H20 N4 1.044570 1_555
H21 N5 1.044570 1_555
H22 N6 1.044570 1_555
H23 N7 1.044570 1_555
H24 N4 1.044873 1_555
H25 N5 1.044873 1_555
H26 N6 1.044873 1_555
H27 N7 1.044873 1_555
H28 N4 1.024029 1_555
H29 N5 1.024029 1_555
H30 N6 1.024029 1_555
H31 N7 1.024029 1_555
H32 N8 1.042799 1_555
H33 N9 1.042799 1_555
H34 N10 1.042799 1_555
H35 N11 1.042799 1_555
H36 N8 1.041449 1_555
H37 N9 1.041449 1_555
H38 N10 1.041449 1_555
H39 N11 1.041449 1_555
H40 N8 1.045798 1_555
H41 N9 1.045798 1_555
H42 N10 1.045798 1_555
H43 N11 1.045798 1_555
H44 N8 1.039008 1_555
H45 N9 1.039008 1_555
H46 N10 1.039008 1_555
H47 N11 1.039008 1_555
H48 N12 1.042612 1_555
H49 N13 1.042612 1_555
H50 N14 1.042612 1_555
H51 N15 1.042612 1_555
H52 N12 1.037503 1_555
H53 N13 1.037503 1_555
H54 N14 1.037503 1_555
H55 N15 1.037503 1_555
H56 N12 1.032763 1_555
H57 N13 1.032763 1_555
H58 N14 1.032763 1_555
H59 N15 1.032763 1_555
H60 N12 1.027756 1_555
H61 N13 1.027756 1_555
H62 N14 1.027756 1_555
H63 N15 1.027756 1_555
H64 N16 1.044020 1_555
H65 N17 1.044020 1_555
H66 N18 1.044020 1_555
H67 N19 1.044020 1_555
H68 N16 1.039713 1_555
H69 N17 1.039713 1_555
H70 N18 1.039713 1_555
H71 N19 1.039713 1_555
H72 N16 1.040967 1_555
H73 N17 1.040967 1_555
H74 N18 1.040967 1_555
H75 N19 1.040967 1_555
H76 N16 1.040888 1_555
H77 N17 1.040888 1_555
H78 N18 1.040888 1_555
H79 N19 1.040888 1_555
S0 S12 2.063145 1_655
S1 S13 2.063145 1_555
S10 S22 2.033506 1_555
S11 S23 2.033506 1_555
S14 S2 2.063145 1_655
S15 S3 2.063145 1_555
S16 S4 2.029565 1_555
S17 S5 2.029565 1_554
S18 S6 2.029565 1_555
S19 S7 2.029565 1_556
S20 S8 2.033506 1_555
S21 S9 2.033506 1_555
O0 S12 1.481375 1_555
O1 S13 1.481375 1_555
O2 S14 1.481375 1_555
O3 S15 1.481375 1_555
O4 S12 1.481362 1_555
O5 S13 1.481362 1_555
O6 S14 1.481362 1_555
O7 S15 1.481362 1_555
O8 S12 1.491743 1_555
O9 S13 1.491743 1_555
O10 S14 1.491743 1_555
O11 S15 1.491743 1_555
O12 S16 1.492832 1_555
O13 S17 1.492832 1_555
O14 S18 1.492832 1_555
O15 S19 1.492832 1_555
O16 S16 1.493967 1_555
O17 S17 1.493967 1_656
O18 S18 1.493967 1_555
O19 S19 1.493967 1_454
O20 S16 1.488221 1_555
O21 S17 1.488221 1_555
O22 S18 1.488221 1_555
O23 S19 1.488221 1_555
O24 S20 1.499635 1_555
O25 S21 1.499635 1_555
O26 S22 1.499635 1_555
O27 S23 1.499635 1_555
O28 S20 1.485852 1_655
O29 S21 1.485852 1_555
O30 S22 1.485852 1_455
O31 S23 1.485852 1_555
O32 S20 1.490093 1_555
O33 S21 1.490093 1_555
O34 S22 1.490093 1_555
O35 S23 1.490093 1_555
