# generated using pymatgen
data_Sc4S3N2
_symmetry_space_group_name_H-M   'P 1'
_cell_length_a   6.32188797
_cell_length_b   3.59187840
_cell_length_c   9.77062669
_cell_angle_alpha   89.99999817
_cell_angle_beta   50.30656371
_cell_angle_gamma   73.49596984
_symmetry_Int_Tables_number   1
_chemical_formula_structural   Sc4S3N2
_chemical_formula_sum   'Sc4 S3 N2'
_cell_volume   158.65908451
_cell_formula_units_Z   1
loop_
 _symmetry_equiv_pos_site_id
 _symmetry_equiv_pos_as_xyz
  1  'x, y, z'
loop_
 _atom_site_type_symbol
 _atom_site_label
 _atom_site_symmetry_multiplicity
 _atom_site_fract_x
 _atom_site_fract_y
 _atom_site_fract_z
 _atom_site_occupancy
  Sc  Sc0  1  0.23331500  0.88334200  0.64944200  1
  Sc  Sc1  1  0.76668500  0.11665800  0.35055800  1
  Sc  Sc2  1  0.57412600  0.71293700  0.15086900  1
  Sc  Sc3  1  0.42587400  0.28706300  0.84913100  1
  S  S0  1  0.00000000  0.00000000  0.00000000  1
  S  S1  1  0.78672000  0.60664000  0.78185900  1
  S  S2  1  0.21328000  0.39336000  0.21814100  1
  N  N0  1  0.54887200  0.72556400  0.36566200  1
  N  N1  1  0.45112800  0.27443600  0.63433800  1
loop_
_geom_bond_atom_site_label_1
_geom_bond_atom_site_label_2
_geom_bond_distance
_geom_bond_site_symmetry_2
S0 Sc2 2.644331 1_455
S0 Sc3 2.644331 1_544
S0 Sc3 2.644331 1_554
S0 Sc2 2.644331 1_445
S0 Sc1 2.697865 1_455
S0 Sc0 2.697865 1_544
S1 Sc3 2.554631 1_565
S1 Sc3 2.554632 1_555
S1 Sc0 2.749766 1_655
S1 Sc0 2.749768 1_645
S1 Sc2 2.910353 1_556
S2 Sc2 2.554631 1_545
S2 Sc2 2.554632 1_555
S2 Sc1 2.749766 1_455
S2 Sc1 2.749768 1_465
S2 Sc3 2.910353 1_554
N0 Sc2 1.999957 1_555
N0 Sc0 2.069045 1_555
N0 Sc1 2.175012 1_555
N0 Sc1 2.175015 1_565
N1 Sc3 1.999957 1_555
N1 Sc1 2.069045 1_555
N1 Sc0 2.175012 1_555
N1 Sc0 2.175015 1_545
