# generated using pymatgen
data_LiTl4(NiO3)4
_symmetry_space_group_name_H-M   'P 1'
_cell_length_a   5.60115213
_cell_length_b   5.60171231
_cell_length_c   7.62502311
_cell_angle_alpha   88.86110805
_cell_angle_beta   91.38108913
_cell_angle_gamma   96.17714019
_symmetry_Int_Tables_number   1
_chemical_formula_structural   LiTl4(NiO3)4
_chemical_formula_sum   'Li1 Tl4 Ni4 O12'
_cell_volume   237.74895251
_cell_formula_units_Z   1
loop_
 _symmetry_equiv_pos_site_id
 _symmetry_equiv_pos_as_xyz
  1  'x, y, z'
loop_
 _atom_site_type_symbol
 _atom_site_label
 _atom_site_symmetry_multiplicity
 _atom_site_fract_x
 _atom_site_fract_y
 _atom_site_fract_z
 _atom_site_occupancy
  Li  Li0  1  0.28179100  0.78947000  0.74874000  1
  Tl  Tl0  1  0.51132900  0.53546000  0.24545200  1
  Tl  Tl1  1  0.93250100  0.99951000  0.77028000  1
  Tl  Tl2  1  0.50333400  0.41691800  0.74698600  1
  Tl  Tl3  1  0.00816200  0.03278200  0.26204900  1
  Ni  Ni0  1  0.49554600  0.99621700  0.01306400  1
  Ni  Ni1  1  0.49840900  0.97758700  0.48965100  1
  Ni  Ni2  1  0.99560000  0.48840700  0.49823300  1
  Ni  Ni3  1  0.00506300  0.49995400  0.00209000  1
  O  O0  1  0.66927600  0.29407900  0.45519100  1
  O  O1  1  0.68663200  0.32075500  0.02939500  1
  O  O2  1  0.16056700  0.16992600  0.55662900  1
  O  O3  1  0.79446200  0.77521100  0.43310500  1
  O  O4  1  0.80693800  0.82391700  0.04841100  1
  O  O5  1  0.39288700  0.94071500  0.25502700  1
  O  O6  1  0.20701100  0.19069300  0.94365400  1
  O  O7  1  0.55656600  0.01815700  0.74195300  1
  O  O8  1  0.92075800  0.57208400  0.75380400  1
  O  O9  1  0.32422700  0.66780100  0.96972800  1
  O  O10  1  0.09429300  0.42981000  0.24596300  1
  O  O11  1  0.32965000  0.65578500  0.54059600  1
loop_
_geom_bond_atom_site_label_1
_geom_bond_atom_site_label_2
_geom_bond_distance
_geom_bond_site_symmetry_2
Li0 O11 1.806242 1_555
Li0 O9 1.824903 1_555
Li0 O7 1.894556 1_565
Li0 O8 2.246244 1_455
Li0 Tl1 2.399475 1_455
Li0 Tl2 2.540570 1_555
Ni0 O5 1.954760 1_555
Ni0 O9 2.010827 1_554
Ni0 O1 2.012435 1_565
Ni0 O4 2.091783 1_555
Ni0 O6 2.096070 1_564
Ni0 O7 2.102444 1_564
Ni1 O5 1.878832 1_555
Ni1 O0 1.938197 1_565
Ni1 O7 1.957048 1_565
Ni1 O11 1.979160 1_555
Ni1 O3 2.163163 1_555
Ni1 O2 2.347278 1_565
Ni2 O11 2.022299 1_655
Ni2 O0 2.047098 1_555
Ni2 O10 2.056413 1_655
Ni2 O8 2.076291 1_555
Ni2 O3 2.104241 1_555
Ni2 O2 2.130304 1_655
Ni3 O9 1.947065 1_554
Ni3 O10 1.957161 1_555
Ni3 O1 1.963786 1_455
Ni3 O8 1.984427 1_454
Ni3 O6 2.226183 1_554
Ni3 O4 2.264360 1_455
O0 Tl0 2.296059 1_555
O0 Tl2 2.566313 1_555
O1 Tl0 2.352784 1_555
O1 Tl2 2.438771 1_554
O2 Tl1 2.230054 1_445
O2 Tl3 2.489831 1_555
O2 Tl2 2.660996 1_555
O3 Tl3 2.201024 1_665
O3 Tl0 2.423775 1_555
O4 Tl3 2.235245 1_665
O4 Tl1 2.408286 1_554
O4 Tl0 2.656589 1_555
O5 Tl3 2.271186 1_565
O5 Tl0 2.435555 1_555
O6 Tl1 2.205136 1_445
O6 Tl2 2.490235 1_555
O7 Tl1 2.125069 1_545
O7 Tl2 2.286324 1_555
O8 Tl1 2.393853 1_555
O8 Tl2 2.404849 1_555
O9 Tl0 2.463124 1_556
O9 Tl2 2.519233 1_555
O10 Tl3 2.226034 1_555
O10 Tl0 2.347223 1_555
O11 Tl2 2.309992 1_555
O11 Tl0 2.621604 1_555
