# generated using pymatgen
data_MgMn(GeO3)2
_symmetry_space_group_name_H-M   'P 1'
_cell_length_a   9.26841600
_cell_length_b   5.50444800
_cell_length_c   9.96198834
_cell_angle_alpha   75.83595720
_cell_angle_beta   90.00000000
_cell_angle_gamma   90.00000000
_symmetry_Int_Tables_number   1
_chemical_formula_structural   MgMn(GeO3)2
_chemical_formula_sum   'Mg4 Mn4 Ge8 O24'
_cell_volume   492.78505426
_cell_formula_units_Z   4
loop_
 _symmetry_equiv_pos_site_id
 _symmetry_equiv_pos_as_xyz
  1  'x, y, z'
loop_
 _atom_site_type_symbol
 _atom_site_label
 _atom_site_symmetry_multiplicity
 _atom_site_fract_x
 _atom_site_fract_y
 _atom_site_fract_z
 _atom_site_occupancy
  Mg  Mg0  1  0.48675000  0.55577200  0.24510100  1
  Mg  Mg1  1  0.98675000  0.94422800  0.75489900  1
  Mg  Mg2  1  0.51325000  0.44422800  0.75489900  1
  Mg  Mg3  1  0.01325000  0.05577200  0.24510100  1
  Mn  Mn0  1  0.65291300  0.04624700  0.24358800  1
  Mn  Mn1  1  0.15291300  0.45375300  0.75641200  1
  Mn  Mn2  1  0.34708700  0.95375300  0.75641200  1
  Mn  Mn3  1  0.84708700  0.54624700  0.24358800  1
  Ge  Ge0  1  0.33715800  0.17961000  0.05675100  1
  Ge  Ge1  1  0.83715800  0.32039000  0.94324900  1
  Ge  Ge2  1  0.66284200  0.82039000  0.94324900  1
  Ge  Ge3  1  0.16284200  0.67961000  0.05675100  1
  Ge  Ge4  1  0.34276200  0.75498600  0.45833700  1
  Ge  Ge5  1  0.84276200  0.74501400  0.54166300  1
  Ge  Ge6  1  0.65723800  0.24501400  0.54166300  1
  Ge  Ge7  1  0.15723800  0.25498600  0.45833700  1
  O  O0  1  0.28401700  0.49750500  0.38682900  1
  O  O1  1  0.78401700  0.00249500  0.61317100  1
  O  O2  1  0.71598300  0.50249500  0.61317100  1
  O  O3  1  0.21598300  0.99750500  0.38682900  1
  O  O4  1  0.32221900  0.83573900  0.10727700  1
  O  O5  1  0.82221900  0.66426100  0.89272300  1
  O  O6  1  0.67778100  0.16426100  0.89272300  1
  O  O7  1  0.17778100  0.33573900  0.10727700  1
  O  O8  1  0.99239300  0.29801800  0.37280500  1
  O  O9  1  0.49239300  0.20198200  0.62719500  1
  O  O10  1  0.00760700  0.70198200  0.62719500  1
  O  O11  1  0.50760700  0.79801800  0.37280500  1
  O  O12  1  0.02202000  0.78116500  0.14252400  1
  O  O13  1  0.52202000  0.71883500  0.85747600  1
  O  O14  1  0.97798000  0.21883500  0.85747600  1
  O  O15  1  0.47798000  0.28116500  0.14252400  1
  O  O16  1  0.34378100  0.24917300  0.87424600  1
  O  O17  1  0.84378100  0.25082700  0.12575400  1
  O  O18  1  0.65621900  0.75082700  0.12575400  1
  O  O19  1  0.15621900  0.74917300  0.87424600  1
  O  O20  1  0.34511200  0.67042400  0.63940200  1
  O  O21  1  0.84511200  0.82957600  0.36059800  1
  O  O22  1  0.65488800  0.32957600  0.36059800  1
  O  O23  1  0.15488800  0.17042400  0.63940200  1
loop_
_geom_bond_atom_site_label_1
_geom_bond_atom_site_label_2
_geom_bond_distance
_geom_bond_site_symmetry_2
Mg0 O15 2.022764 1_555
Mg0 O11 2.064961 1_555
Mg0 O18 2.099698 1_555
Mg0 O22 2.145110 1_555
Mg0 O0 2.324948 1_555
Mg0 O4 2.355833 1_555
Mg1 O14 2.022764 1_565
Mg1 O10 2.064961 1_655
Mg1 O19 2.099698 1_655
Mg1 O23 2.145110 1_665
Mg1 O1 2.324948 1_565
Mg1 O5 2.355833 1_555
Mg2 O13 2.022764 1_555
Mg2 O9 2.064961 1_555
Mg2 O16 2.099698 1_555
Mg2 O20 2.145110 1_555
Mg2 O2 2.324948 1_555
Mg2 O6 2.355833 1_555
Mg3 O12 2.022764 1_545
Mg3 O8 2.064961 1_455
Mg3 O17 2.099698 1_455
Mg3 O21 2.145110 1_445
Mg3 O3 2.324948 1_545
Mg3 O7 2.355833 1_555
Mn0 O11 2.115881 1_545
Mn0 O15 2.162724 1_555
Mn0 O22 2.163567 1_555
Mn0 O18 2.226511 1_545
Mn0 O17 2.264650 1_555
Mn0 O21 2.296544 1_545
Mn1 O10 2.115881 1_555
Mn1 O14 2.162724 1_455
Mn1 O23 2.163567 1_555
Mn1 O19 2.226511 1_555
Mn1 O16 2.264650 1_555
Mn1 O20 2.296544 1_555
Mn2 O9 2.115881 1_565
Mn2 O13 2.162724 1_555
Mn2 O20 2.163567 1_555
Mn2 O16 2.226511 1_565
Mn2 O19 2.264650 1_555
Mn2 O23 2.296544 1_565
Mn3 O8 2.115881 1_555
Mn3 O12 2.162724 1_655
Mn3 O21 2.163567 1_555
Mn3 O17 2.226511 1_555
Mn3 O18 2.264650 1_555
Mn3 O22 2.296544 1_555
Ge0 O15 1.726240 1_555
Ge0 O16 1.764998 1_554
Ge0 O7 1.840017 1_555
Ge0 O4 1.840931 1_545
Ge1 O14 1.726240 1_555
Ge1 O17 1.764998 1_556
Ge1 O6 1.840017 1_555
Ge1 O5 1.840931 1_555
Ge2 O13 1.726240 1_555
Ge2 O18 1.764998 1_556
Ge2 O5 1.840017 1_555
Ge2 O6 1.840931 1_565
Ge3 O12 1.726240 1_555
Ge3 O19 1.764998 1_554
Ge3 O4 1.840017 1_555
Ge3 O7 1.840931 1_555
Ge4 O11 1.737149 1_555
Ge4 O20 1.749233 1_555
Ge4 O3 1.790204 1_555
Ge4 O0 1.818442 1_555
Ge5 O10 1.737149 1_655
Ge5 O21 1.749233 1_555
Ge5 O2 1.790204 1_555
Ge5 O1 1.818442 1_565
Ge6 O9 1.737149 1_555
Ge6 O22 1.749233 1_555
Ge6 O1 1.790204 1_555
Ge6 O2 1.818442 1_555
Ge7 O8 1.737149 1_455
Ge7 O23 1.749233 1_555
Ge7 O0 1.790204 1_555
Ge7 O3 1.818442 1_545
