# generated using pymatgen
data_Na4Si4H18O19
_symmetry_space_group_name_H-M   'P 1'
_cell_length_a   9.96638885
_cell_length_b   12.51814532
_cell_length_c   14.98299297
_cell_angle_alpha   90.00000000
_cell_angle_beta   104.34686590
_cell_angle_gamma   90.00000000
_symmetry_Int_Tables_number   1
_chemical_formula_structural   Na4Si4H18O19
_chemical_formula_sum   'Na16 Si16 H72 O76'
_cell_volume   1810.99193517
_cell_formula_units_Z   4
loop_
 _symmetry_equiv_pos_site_id
 _symmetry_equiv_pos_as_xyz
  1  'x, y, z'
loop_
 _atom_site_type_symbol
 _atom_site_label
 _atom_site_symmetry_multiplicity
 _atom_site_fract_x
 _atom_site_fract_y
 _atom_site_fract_z
 _atom_site_occupancy
  Na  Na0  1  0.04238935  0.87601389  0.56584786  1
  Na  Na1  1  0.95761065  0.37601389  0.93415214  1
  Na  Na2  1  0.95761065  0.12398611  0.43415214  1
  Na  Na3  1  0.04238935  0.62398611  0.06584786  1
  Na  Na4  1  0.76415325  0.64069472  0.55717800  1
  Na  Na5  1  0.23584675  0.14069472  0.94282200  1
  Na  Na6  1  0.23584675  0.35930528  0.44282200  1
  Na  Na7  1  0.76415325  0.85930528  0.05717800  1
  Na  Na8  1  0.30800173  0.60563418  0.57201610  1
  Na  Na9  1  0.69199827  0.10563418  0.92798390  1
  Na  Na10  1  0.69199827  0.39436582  0.42798390  1
  Na  Na11  1  0.30800173  0.89436582  0.07201610  1
  Na  Na12  1  0.48040066  0.87740199  0.55169370  1
  Na  Na13  1  0.51959934  0.37740199  0.94830630  1
  Na  Na14  1  0.51959934  0.12259801  0.44830630  1
  Na  Na15  1  0.48040066  0.62259801  0.05169370  1
  Si  Si0  1  0.59358118  0.67825732  0.73241115  1
  Si  Si1  1  0.40641882  0.17825732  0.76758885  1
  Si  Si2  1  0.40641882  0.32174268  0.26758885  1
  Si  Si3  1  0.59358118  0.82174268  0.23241115  1
  Si  Si4  1  0.85513414  0.81943257  0.73733360  1
  Si  Si5  1  0.14486586  0.31943257  0.76266640  1
  Si  Si6  1  0.14486586  0.18056743  0.26266640  1
  Si  Si7  1  0.85513414  0.68056743  0.23733360  1
  Si  Si8  1  0.34089115  0.82892453  0.73486443  1
  Si  Si9  1  0.65910885  0.32892453  0.76513557  1
  Si  Si10  1  0.65910885  0.17107547  0.26513557  1
  Si  Si11  1  0.34089115  0.67107547  0.23486443  1
  Si  Si12  1  0.10006173  0.66887625  0.73944413  1
  Si  Si13  1  0.89993827  0.16887625  0.76055587  1
  Si  Si14  1  0.89993827  0.33112375  0.26055587  1
  Si  Si15  1  0.10006173  0.83112375  0.23944413  1
  H  H0  1  0.00280520  0.08806000  0.62029654  1
  H  H1  1  0.99719480  0.58806000  0.87970346  1
  H  H2  1  0.99719480  0.91194000  0.37970346  1
  H  H3  1  0.00280520  0.41194000  0.12029654  1
  H  H4  1  0.16345275  0.08612098  0.62138068  1
  H  H5  1  0.83654725  0.58612098  0.87861932  1
  H  H6  1  0.83654725  0.91387902  0.37861932  1
  H  H7  1  0.16345275  0.41387902  0.12138068  1
  H  H8  1  0.66192507  0.83112097  0.43821541  1
  H  H9  1  0.33807493  0.33112097  0.06178459  1
  H  H10  1  0.33807493  0.16887903  0.56178459  1
  H  H11  1  0.66192507  0.66887903  0.93821541  1
  H  H12  1  0.74397398  0.85502755  0.54181435  1
  H  H13  1  0.25602602  0.35502755  0.95818565  1
  H  H14  1  0.25602602  0.14497245  0.45818565  1
  H  H15  1  0.74397398  0.64497245  0.04181435  1
  H  H16  1  0.02922906  0.64713615  0.54578402  1
  H  H17  1  0.97077094  0.14713615  0.95421598  1
  H  H18  1  0.97077094  0.35286385  0.45421598  1
  H  H19  1  0.02922906  0.85286385  0.04578402  1
  H  H20  1  0.95530401  0.67803267  0.44135241  1
  H  H21  1  0.04469599  0.17803267  0.05864759  1
  H  H22  1  0.04469599  0.32196733  0.55864759  1
  H  H23  1  0.95530401  0.82196733  0.94135241  1
  H  H24  1  0.25609227  0.78680078  0.42946402  1
  H  H25  1  0.74390773  0.28680078  0.07053598  1
  H  H26  1  0.74390773  0.21319922  0.57053598  1
  H  H27  1  0.25609227  0.71319922  0.92946402  1
  H  H28  1  0.36890849  0.70250672  0.42454597  1
  H  H29  1  0.63109151  0.20250672  0.07545403  1
  H  H30  1  0.63109151  0.29749328  0.57545403  1
  H  H31  1  0.36890849  0.79749328  0.92454597  1
  H  H32  1  0.85924186  0.97855167  0.65872043  1
  H  H33  1  0.14075814  0.47855167  0.84127957  1
  H  H34  1  0.14075814  0.02144833  0.34127957  1
  H  H35  1  0.85924186  0.52144833  0.15872043  1
  H  H36  1  0.59353987  0.51885987  0.65601133  1
  H  H37  1  0.40646013  0.01885987  0.84398867  1
  H  H38  1  0.40646013  0.48114013  0.34398867  1
  H  H39  1  0.59353987  0.98114013  0.15601133  1
  H  H40  1  0.91277432  0.42703122  0.61998498  1
  H  H41  1  0.08722568  0.92703122  0.88001502  1
  H  H42  1  0.08722568  0.57296878  0.38001502  1
  H  H43  1  0.91277432  0.07296878  0.11998498  1
  H  H44  1  0.75589570  0.42785763  0.62191848  1
  H  H45  1  0.24410430  0.92785763  0.87808152  1
  H  H46  1  0.24410430  0.57214237  0.37808152  1
  H  H47  1  0.75589570  0.07214237  0.12191848  1
  H  H48  1  0.33864844  0.99311074  0.66298040  1
  H  H49  1  0.66135156  0.49311074  0.83701960  1
  H  H50  1  0.66135156  0.00688926  0.33701960  1
  H  H51  1  0.33864844  0.50688926  0.16298040  1
  H  H52  1  0.10544602  0.50736295  0.66271824  1
  H  H53  1  0.89455398  0.00736295  0.83728176  1
  H  H54  1  0.89455398  0.49263705  0.33728176  1
  H  H55  1  0.10544602  0.99263705  0.16271824  1
  H  H56  1  0.67748038  0.06810888  0.63068155  1
  H  H57  1  0.32251962  0.56810888  0.86931845  1
  H  H58  1  0.32251962  0.93189112  0.36931845  1
  H  H59  1  0.67748038  0.43189112  0.13068155  1
  H  H60  1  0.51844456  0.07504460  0.63297988  1
  H  H61  1  0.48155544  0.57504460  0.86702012  1
  H  H62  1  0.48155544  0.92495540  0.36702012  1
  H  H63  1  0.51844456  0.42495540  0.13297988  1
  H  H64  1  0.42506049  0.39758447  0.62575750  1
  H  H65  1  0.57493951  0.89758447  0.87424250  1
  H  H66  1  0.57493951  0.60241553  0.37424250  1
  H  H67  1  0.42506049  0.10241553  0.12575750  1
  H  H68  1  0.26458173  0.39632102  0.62944149  1
  H  H69  1  0.73541827  0.89632102  0.87055851  1
  H  H70  1  0.73541827  0.60367898  0.37055851  1
  H  H71  1  0.26458173  0.10367898  0.12944149  1
  O  O0  1  0.07126687  0.06092244  0.58731149  1
  O  O1  1  0.92873313  0.56092244  0.91268851  1
  O  O2  1  0.92873313  0.93907756  0.41268851  1
  O  O3  1  0.07126687  0.43907756  0.08731149  1
  O  O4  1  0.67138492  0.80969202  0.50388431  1
  O  O5  1  0.32861508  0.30969202  0.99611569  1
  O  O6  1  0.32861508  0.19030798  0.49611569  1
  O  O7  1  0.67138492  0.69030798  0.00388431  1
  O  O8  1  0.97460970  0.70323757  0.50673404  1
  O  O9  1  0.02539030  0.20323757  0.99326596  1
  O  O10  1  0.02539030  0.29676243  0.49326596  1
  O  O11  1  0.97460970  0.79676243  0.00673404  1
  O  O12  1  0.33153627  0.74478082  0.46963979  1
  O  O13  1  0.66846373  0.24478082  0.03036021  1
  O  O14  1  0.66846373  0.25521918  0.53036021  1
  O  O15  1  0.33153627  0.75521918  0.96963979  1
  O  O16  1  0.39793958  0.88224758  0.83491152  1
  O  O17  1  0.60206042  0.38224758  0.66508848  1
  O  O18  1  0.60206042  0.11775242  0.16508848  1
  O  O19  1  0.39793958  0.61775242  0.33491152  1
  O  O20  1  0.91054721  0.87885200  0.83466236  1
  O  O21  1  0.08945279  0.37885200  0.66533764  1
  O  O22  1  0.08945279  0.12114800  0.16533764  1
  O  O23  1  0.91054721  0.62114800  0.33466236  1
  O  O24  1  0.14948375  0.61393060  0.83939107  1
  O  O25  1  0.85051625  0.11393060  0.66060893  1
  O  O26  1  0.85051625  0.38606940  0.16060893  1
  O  O27  1  0.14948375  0.88606940  0.33939107  1
  O  O28  1  0.63996022  0.61663191  0.82936137  1
  O  O29  1  0.36003978  0.11663191  0.67063863  1
  O  O30  1  0.36003978  0.38336809  0.17063863  1
  O  O31  1  0.63996022  0.88336809  0.32936137  1
  O  O32  1  0.86559395  0.89890589  0.64987991  1
  O  O33  1  0.13440605  0.39890589  0.85012009  1
  O  O34  1  0.13440605  0.10109411  0.35012009  1
  O  O35  1  0.86559395  0.60109411  0.14987991  1
  O  O36  1  0.93635790  0.70909089  0.71881736  1
  O  O37  1  0.06364210  0.20909089  0.78118264  1
  O  O38  1  0.06364210  0.29090911  0.28118264  1
  O  O39  1  0.93635790  0.79090911  0.21881736  1
  O  O40  1  0.43469519  0.72822296  0.71137807  1
  O  O41  1  0.56530481  0.22822296  0.78862193  1
  O  O42  1  0.56530481  0.27177704  0.28862193  1
  O  O43  1  0.43469519  0.77177704  0.21137807  1
  O  O44  1  0.58593070  0.59791678  0.64276546  1
  O  O45  1  0.41406930  0.09791678  0.85723454  1
  O  O46  1  0.41406930  0.40208322  0.35723454  1
  O  O47  1  0.58593070  0.90208322  0.14276546  1
  O  O48  1  0.69193319  0.78120287  0.72142215  1
  O  O49  1  0.30806681  0.28120287  0.77857785  1
  O  O50  1  0.30806681  0.21879713  0.27857785  1
  O  O51  1  0.69193319  0.71879713  0.22142215  1
  O  O52  1  0.18396468  0.77780981  0.72263780  1
  O  O53  1  0.81603532  0.27780981  0.77736220  1
  O  O54  1  0.81603532  0.22219019  0.27736220  1
  O  O55  1  0.18396468  0.72219019  0.22263780  1
  O  O56  1  0.82207009  0.45935608  0.58975419  1
  O  O57  1  0.17792991  0.95935608  0.91024581  1
  O  O58  1  0.17792991  0.54064392  0.41024581  1
  O  O59  1  0.82207009  0.04064392  0.08975419  1
  O  O60  1  0.32480605  0.91320813  0.64802892  1
  O  O61  1  0.67519395  0.41320813  0.85197108  1
  O  O62  1  0.67519395  0.08679187  0.35197108  1
  O  O63  1  0.32480605  0.58679187  0.14802892  1
  O  O64  1  0.11694377  0.58760430  0.65477092  1
  O  O65  1  0.88305623  0.08760430  0.84522908  1
  O  O66  1  0.88305623  0.41239570  0.34522908  1
  O  O67  1  0.11694377  0.91239570  0.15477092  1
  O  O68  1  0.58372262  0.03913826  0.60257235  1
  O  O69  1  0.41627738  0.53913826  0.89742765  1
  O  O70  1  0.41627738  0.96086174  0.39742765  1
  O  O71  1  0.58372262  0.46086174  0.10257235  1
  O  O72  1  0.32986564  0.42288356  0.59469119  1
  O  O73  1  0.67013436  0.92288356  0.90530881  1
  O  O74  1  0.67013436  0.57711644  0.40530881  1
  O  O75  1  0.32986564  0.07711644  0.09469119  1
loop_
_geom_bond_atom_site_label_1
_geom_bond_atom_site_label_2
_geom_bond_distance
_geom_bond_site_symmetry_2
Na0 O0 2.344840 1_565
Na0 O8 2.371108 1_455
Na0 O32 2.423107 1_455
Na0 O2 2.425725 1_455
Na0 O52 2.716270 1_555
Na0 O60 2.817402 1_555
Na1 O1 2.344840 1_555
Na1 O9 2.371108 1_655
Na1 O33 2.423107 1_655
Na1 O3 2.425725 1_656
Na1 O53 2.716270 1_555
Na1 O61 2.817402 1_555
Na2 O2 2.344840 1_545
Na2 O10 2.371108 1_655
Na2 O34 2.423107 1_655
Na2 O0 2.425725 1_655
Na2 O54 2.716270 1_555
Na2 O62 2.817402 1_555
Na3 O3 2.344840 1_555
Na3 O11 2.371108 1_455
Na3 O35 2.423107 1_455
Na3 O1 2.425725 1_454
Na3 O55 2.716270 1_555
Na3 O63 2.817402 1_555
Na4 O56 2.363218 1_555
Na4 O4 2.366861 1_555
Na4 O74 2.373285 1_555
Na4 O44 2.492997 1_555
Na4 O8 2.523749 1_555
Na4 O36 2.735696 1_555
Na5 O57 2.363218 1_545
Na5 O5 2.366861 1_555
Na5 O75 2.373285 1_556
Na5 O45 2.492997 1_555
Na5 O9 2.523749 1_555
Na5 O37 2.735696 1_555
Na6 O58 2.363218 1_555
Na6 O6 2.366861 1_555
Na6 O72 2.373285 1_555
Na6 O46 2.492997 1_555
Na6 O10 2.523749 1_555
Na6 O38 2.735696 1_555
Na7 O59 2.363218 1_565
Na7 O7 2.366861 1_555
Na7 O73 2.373285 1_554
Na7 O47 2.492997 1_555
Na7 O11 2.523749 1_555
Na7 O39 2.735696 1_555
Na8 O72 2.315121 1_555
Na8 O12 2.370706 1_555
Na8 O64 2.526701 1_555
Na8 O58 2.580706 1_555
Na8 O40 2.646255 1_555
Na8 O44 2.711175 1_555
Na9 O73 2.315121 1_545
Na9 O13 2.370706 1_556
Na9 O65 2.526701 1_555
Na9 O59 2.580706 1_556
Na9 O41 2.646255 1_555
Na9 O45 2.711175 1_555
Na10 O74 2.315121 1_555
Na10 O14 2.370706 1_555
Na10 O66 2.526701 1_555
Na10 O56 2.580706 1_555
Na10 O42 2.646255 1_555
Na10 O46 2.711175 1_555
Na11 O75 2.315121 1_565
Na11 O15 2.370706 1_554
Na11 O67 2.526701 1_555
Na11 O57 2.580706 1_554
Na11 O43 2.646255 1_555
Na11 O47 2.711175 1_555
Na12 O68 2.313360 1_565
Na12 O4 2.351657 1_555
Na12 O12 2.358997 1_555
Na12 O60 2.407958 1_555
Na12 O70 2.471906 1_555
Na13 O69 2.313360 1_555
Na13 O5 2.351657 1_555
Na13 O13 2.358997 1_556
Na13 O61 2.407958 1_555
Na13 O71 2.471906 1_556
Na14 O70 2.313360 1_545
Na14 O6 2.351657 1_555
Na14 O14 2.358997 1_555
Na14 O62 2.407958 1_555
Na14 O68 2.471906 1_555
Na15 O71 2.313360 1_555
Na15 O7 2.351657 1_555
Na15 O15 2.358997 1_554
Na15 O63 2.407958 1_555
Na15 O69 2.471906 1_554
H0 O0 0.996154 1_555
H1 O1 0.996154 1_555
H2 O2 0.996154 1_555
H3 O3 0.996154 1_555
H4 O0 0.985782 1_555
H5 O1 0.985782 1_555
H6 O2 0.985782 1_555
H7 O3 0.985782 1_555
H8 O4 1.001482 1_555
H9 O5 1.001482 1_554
H10 O6 1.001482 1_555
H11 O7 1.001482 1_556
H12 O4 0.982178 1_555
H13 O5 0.982178 1_555
H14 O6 0.982178 1_555
H15 O7 0.982178 1_555
H16 O8 0.986922 1_455
H17 O9 0.986922 1_655
H18 O10 0.986922 1_655
H19 O11 0.986922 1_455
H20 O8 1.001401 1_555
H20 O23 1.705283 1_555
H21 O9 1.001401 1_554
H21 O22 1.705283 1_555
H22 O10 1.001401 1_555
H22 O21 1.705283 1_555
H23 O11 1.001401 1_556
H23 O20 1.705283 1_555
H24 O12 0.989995 1_555
H25 O13 0.989995 1_555
H26 O14 0.989995 1_555
H27 O15 0.989995 1_555
H28 O12 0.999991 1_555
H29 O13 0.999991 1_555
H30 O14 0.999991 1_555
H31 O15 0.999991 1_555
H32 O32 1.009828 1_555
H33 O33 1.009828 1_555
H34 O34 1.009828 1_555
H35 O35 1.009828 1_555
H36 O44 1.008503 1_555
H37 O45 1.008503 1_555
H38 O46 1.008503 1_555
H39 O47 1.008503 1_555
H40 O56 0.991556 1_555
H41 O57 0.991556 1_555
H42 O58 0.991556 1_555
H43 O59 0.991556 1_555
H44 O56 0.990049 1_555
H45 O57 0.990049 1_555
H46 O58 0.990049 1_555
H47 O59 0.990049 1_555
H48 O60 1.026823 1_555
H48 O29 1.561218 1_565
H49 O61 1.026823 1_555
H49 O28 1.561218 1_555
H50 O62 1.026823 1_555
H50 O31 1.561218 1_545
H51 O63 1.026823 1_555
H51 O30 1.561218 1_555
H52 O64 1.021292 1_555
H52 O21 1.618031 1_555
H53 O65 1.021292 1_555
H53 O20 1.618031 1_545
H54 O66 1.021292 1_555
H54 O23 1.618031 1_555
H55 O67 1.021292 1_555
H55 O22 1.618031 1_565
H56 O68 0.993487 1_555
H57 O69 0.993487 1_555
H58 O70 0.993487 1_555
H59 O71 0.993487 1_555
H60 O68 0.989826 1_555
H61 O69 0.989826 1_555
H62 O70 0.989826 1_555
H63 O71 0.989826 1_555
H64 O72 0.999113 1_555
H65 O73 0.999113 1_555
H66 O74 0.999113 1_555
H67 O75 0.999113 1_555
H68 O72 0.986348 1_555
H69 O73 0.986348 1_555
H70 O74 0.986348 1_555
H71 O75 0.986348 1_555
O16 Si8 1.610425 1_555
O17 Si9 1.610425 1_555
O18 Si10 1.610425 1_555
O19 Si11 1.610425 1_555
O20 Si4 1.608016 1_555
O21 Si5 1.608016 1_555
O22 Si6 1.608016 1_555
O23 Si7 1.608016 1_555
O24 Si12 1.610180 1_555
O25 Si13 1.610180 1_555
O26 Si14 1.610180 1_555
O27 Si15 1.610180 1_555
O28 Si0 1.608128 1_555
O29 Si1 1.608128 1_555
O30 Si2 1.608128 1_555
O31 Si3 1.608128 1_555
O32 Si4 1.668904 1_555
O33 Si5 1.668904 1_555
O34 Si6 1.668904 1_555
O35 Si7 1.668904 1_555
O36 Si4 1.658760 1_555
O36 Si12 1.661614 1_655
O37 Si5 1.658760 1_555
O37 Si13 1.661614 1_455
O38 Si6 1.658760 1_555
O38 Si14 1.661614 1_455
O39 Si7 1.658760 1_555
O39 Si15 1.661614 1_655
O40 Si8 1.658309 1_555
O40 Si0 1.658541 1_555
O41 Si9 1.658309 1_555
O41 Si1 1.658541 1_555
O42 Si10 1.658309 1_555
O42 Si2 1.658541 1_555
O43 Si11 1.658309 1_555
O43 Si3 1.658541 1_555
O44 Si0 1.664513 1_555
O45 Si1 1.664513 1_555
O46 Si2 1.664513 1_555
O47 Si3 1.664513 1_555
O48 Si0 1.651856 1_555
O48 Si4 1.655074 1_555
O49 Si1 1.651856 1_555
O49 Si5 1.655074 1_555
O50 Si2 1.651856 1_555
O50 Si6 1.655074 1_555
O51 Si3 1.651856 1_555
O51 Si7 1.655074 1_555
O52 Si12 1.651223 1_555
O52 Si8 1.657425 1_555
O53 Si13 1.651223 1_555
O53 Si9 1.657425 1_555
O54 Si14 1.651223 1_555
O54 Si10 1.657425 1_555
O55 Si15 1.651223 1_555
O55 Si11 1.657425 1_555
O60 Si8 1.651745 1_555
O61 Si9 1.651745 1_555
O62 Si10 1.651745 1_555
O63 Si11 1.651745 1_555
O64 Si12 1.666925 1_555
O65 Si13 1.666925 1_555
O66 Si14 1.666925 1_555
O67 Si15 1.666925 1_555
