# generated using pymatgen
data_Nd2MgSe4
_symmetry_space_group_name_H-M   'P 1'
_cell_length_a   7.73339100
_cell_length_b   9.01625789
_cell_length_c   13.68977449
_cell_angle_alpha   99.40473304
_cell_angle_beta   95.95926851
_cell_angle_gamma   90.28544877
_symmetry_Int_Tables_number   1
_chemical_formula_structural   Nd2MgSe4
_chemical_formula_sum   'Nd8 Mg4 Se16'
_cell_volume   936.38301840
_cell_formula_units_Z   4
loop_
 _symmetry_equiv_pos_site_id
 _symmetry_equiv_pos_as_xyz
  1  'x, y, z'
loop_
 _atom_site_type_symbol
 _atom_site_label
 _atom_site_symmetry_multiplicity
 _atom_site_fract_x
 _atom_site_fract_y
 _atom_site_fract_z
 _atom_site_occupancy
  Nd  Nd0  1  0.86648900  0.29984500  0.68935300  1
  Nd  Nd1  1  0.13351100  0.70015500  0.31064700  1
  Nd  Nd2  1  0.75501400  0.13209200  0.00048100  1
  Nd  Nd3  1  0.24498600  0.86790800  0.99951900  1
  Nd  Nd4  1  0.63126600  0.44313500  0.30775900  1
  Nd  Nd5  1  0.36873400  0.55686500  0.69224100  1
  Nd  Nd6  1  0.63508800  0.96025900  0.31174700  1
  Nd  Nd7  1  0.36491200  0.03974100  0.68825300  1
  Mg  Mg0  1  0.86484300  0.79965600  0.70418100  1
  Mg  Mg1  1  0.13515700  0.20034400  0.29581900  1
  Mg  Mg2  1  0.75144400  0.62056100  0.99400200  1
  Mg  Mg3  1  0.24855600  0.37943900  0.00599800  1
  Se  Se0  1  0.91361900  0.35853100  0.89719700  1
  Se  Se1  1  0.08638100  0.64146900  0.10280300  1
  Se  Se2  1  0.88437700  0.83939800  0.89397100  1
  Se  Se3  1  0.11562300  0.16060200  0.10602900  1
  Se  Se4  1  0.84319600  0.22065400  0.37641700  1
  Se  Se5  1  0.15680400  0.77934600  0.62358300  1
  Se  Se6  1  0.80509800  0.71945700  0.38374200  1
  Se  Se7  1  0.19490200  0.28054300  0.61625800  1
  Se  Se8  1  0.70153400  0.01423800  0.62745200  1
  Se  Se9  1  0.29846600  0.98576200  0.37254800  1
  Se  Se10  1  0.69881200  0.54897500  0.62337800  1
  Se  Se11  1  0.30118800  0.45102500  0.37662200  1
  Se  Se12  1  0.61299400  0.89259600  0.10416800  1
  Se  Se13  1  0.38700600  0.10740400  0.89583200  1
  Se  Se14  1  0.59155600  0.41209700  0.10017400  1
  Se  Se15  1  0.40844400  0.58790300  0.89982600  1
loop_
_geom_bond_atom_site_label_1
_geom_bond_atom_site_label_2
_geom_bond_distance
_geom_bond_site_symmetry_2
Nd0 Se0 2.792753 1_555
Nd0 Se7 2.820834 1_655
Nd0 Se10 2.826936 1_555
Nd0 Se8 2.829528 1_555
Nd1 Se1 2.792753 1_555
Nd1 Se6 2.820834 1_455
Nd1 Se11 2.826936 1_555
Nd1 Se9 2.829528 1_555
Nd2 Se0 2.991738 1_554
Nd2 Se3 2.994275 1_655
Nd2 Se14 3.016304 1_555
Nd2 Se2 3.027022 1_544
Nd2 Se12 3.030796 1_545
Nd2 Se13 3.040437 1_554
Nd3 Se1 2.991738 1_556
Nd3 Se2 2.994275 1_455
Nd3 Se15 3.016304 1_555
Nd3 Se3 3.027022 1_566
Nd3 Se13 3.030796 1_565
Nd3 Se12 3.040437 1_556
Nd4 Se14 2.793999 1_555
Nd4 Se11 2.808776 1_555
Nd4 Se4 2.814684 1_555
Nd4 Se6 2.815230 1_555
Nd5 Se15 2.793999 1_555
Nd5 Se10 2.808776 1_555
Nd5 Se5 2.814684 1_555
Nd5 Se7 2.815230 1_555
Nd6 Se12 2.794325 1_555
Nd6 Se6 2.805799 1_555
Nd6 Se4 2.805923 1_565
Nd6 Se9 2.813507 1_555
Nd7 Se13 2.794325 1_555
Nd7 Se7 2.805799 1_555
Nd7 Se5 2.805923 1_545
Nd7 Se8 2.813507 1_555
Mg0 Se2 2.552542 1_555
Mg0 Se5 2.608488 1_655
Mg0 Se10 2.615307 1_555
Mg0 Se8 2.618123 1_565
Mg1 Se3 2.552542 1_555
Mg1 Se4 2.608488 1_455
Mg1 Se11 2.615307 1_555
Mg1 Se9 2.618123 1_545
Mg2 Se15 2.818325 1_555
Mg2 Se2 2.824946 1_555
Mg2 Se1 2.839973 1_656
Mg2 Se0 2.874394 1_555
Mg2 Se14 2.901216 1_556
Mg2 Se12 2.930759 1_556
Mg3 Se14 2.818325 1_555
Mg3 Se3 2.824946 1_555
Mg3 Se0 2.839973 1_454
Mg3 Se1 2.874394 1_555
Mg3 Se15 2.901216 1_554
Mg3 Se13 2.930759 1_554
