# generated using pymatgen
data_Te2Mo3Se4
_symmetry_space_group_name_H-M   'P 1'
_cell_length_a   3.40124065
_cell_length_b   3.40124065
_cell_length_c   31.41433500
_cell_angle_alpha   90.00000000
_cell_angle_beta   90.00000000
_cell_angle_gamma   120.00001273
_symmetry_Int_Tables_number   1
_chemical_formula_structural   Te2Mo3Se4
_chemical_formula_sum   'Te2 Mo3 Se4'
_cell_volume   314.72639678
_cell_formula_units_Z   1
loop_
 _symmetry_equiv_pos_site_id
 _symmetry_equiv_pos_as_xyz
  1  'x, y, z'
loop_
 _atom_site_type_symbol
 _atom_site_label
 _atom_site_symmetry_multiplicity
 _atom_site_fract_x
 _atom_site_fract_y
 _atom_site_fract_z
 _atom_site_occupancy
  Te  Te0  1  0.33333300  0.66666700  0.51863900  1
  Te  Te1  1  0.33333300  0.66666700  0.63798000  1
  Mo  Mo0  1  0.00000000  0.00000000  0.11564900  1
  Mo  Mo1  1  0.00000000  0.00000000  0.57832800  1
  Mo  Mo2  1  0.33333300  0.66666700  0.34697000  1
  Se  Se0  1  0.00000000  0.00000000  0.39948900  1
  Se  Se1  1  0.33333300  0.66666700  0.06314800  1
  Se  Se2  1  0.33333300  0.66666700  0.16816300  1
  Se  Se3  1  0.00000000  0.00000000  0.29447400  1
loop_
_geom_bond_atom_site_label_1
_geom_bond_atom_site_label_2
_geom_bond_distance
_geom_bond_site_symmetry_2
Mo0 Se1 2.564425 1_545
Mo0 Se1 2.564427 1_445
Mo0 Se1 2.564427 1_555
Mo0 Se2 2.564688 1_545
Mo0 Se2 2.564690 1_555
Mo0 Se2 2.564690 1_445
Mo1 Te1 2.714359 1_545
Mo1 Te1 2.714361 1_445
Mo1 Te1 2.714361 1_555
Mo1 Te0 2.715162 1_545
Mo1 Te0 2.715163 1_555
Mo1 Te0 2.715163 1_445
Mo2 Se3 2.564324 1_565
Mo2 Se3 2.564326 1_555
Mo2 Se3 2.564326 1_665
Mo2 Se0 2.564789 1_565
Mo2 Se0 2.564791 1_665
Mo2 Se0 2.564791 1_555
