# generated using pymatgen
data_Li4MnCo2O7
_symmetry_space_group_name_H-M   'P 1'
_cell_length_a   3.02338000
_cell_length_b   5.04283517
_cell_length_c   16.67786973
_cell_angle_alpha   90.06830735
_cell_angle_beta   91.48179724
_cell_angle_gamma   91.73022485
_symmetry_Int_Tables_number   1
_chemical_formula_structural   Li4MnCo2O7
_chemical_formula_sum   'Li8 Mn2 Co4 O14'
_cell_volume   254.07616822
_cell_formula_units_Z   2
loop_
 _symmetry_equiv_pos_site_id
 _symmetry_equiv_pos_as_xyz
  1  'x, y, z'
loop_
 _atom_site_type_symbol
 _atom_site_label
 _atom_site_symmetry_multiplicity
 _atom_site_fract_x
 _atom_site_fract_y
 _atom_site_fract_z
 _atom_site_occupancy
  Li  Li0  1  0.92840600  0.35712400  0.85704000  1
  Li  Li1  1  0.35411800  0.21628300  0.71351800  1
  Li  Li2  1  0.78019000  0.07475700  0.57094400  1
  Li  Li3  1  0.21402400  0.92890700  0.42816400  1
  Li  Li4  1  0.64847400  0.78379500  0.28590000  1
  Li  Li5  1  0.07457200  0.64034600  0.14390700  1
  Li  Li6  1  0.50123000  0.49844700  0.00047400  1
  Li  Li7  1  0.71456400  0.42857000  0.42781500  1
  Mn  Mn0  1  0.99414400  0.99946800  0.00232300  1
  Mn  Mn1  1  0.86001400  0.71203600  0.71209400  1
  Co  Co0  1  0.42845600  0.85711400  0.85694000  1
  Co  Co1  1  0.27461400  0.56820600  0.56397700  1
  Co  Co2  1  0.15001200  0.28841200  0.29114800  1
  Co  Co3  1  0.57274600  0.14734900  0.14509600  1
  O  O0  1  0.42646000  0.15980900  0.92787900  1
  O  O1  1  0.90891500  0.01582600  0.78461500  1
  O  O2  1  0.29699100  0.86150200  0.63898200  1
  O  O3  1  0.72515600  0.73810900  0.50491100  1
  O  O4  1  0.17268800  0.57643300  0.34792500  1
  O  O5  1  0.58778300  0.43867500  0.21562300  1
  O  O6  1  0.00246000  0.30502900  0.07376400  1
  O  O7  1  0.42834800  0.55303000  0.78686300  1
  O  O8  1  0.84514500  0.41111900  0.64093700  1
  O  O9  1  0.25704500  0.28047100  0.50743500  1
  O  O10  1  0.70630800  0.11727500  0.35127500  1
  O  O11  1  0.13855300  0.00025900  0.21570500  1
  O  O12  1  0.56091200  0.84333300  0.07557400  1
  O  O13  1  0.94767200  0.69831900  0.92917500  1
loop_
_geom_bond_atom_site_label_1
_geom_bond_atom_site_label_2
_geom_bond_distance
_geom_bond_site_symmetry_2
Li0 O13 2.096798 1_555
Li0 O1 2.099985 1_555
Li0 O7 2.152442 1_555
Li0 O7 2.152809 1_655
Li0 O0 2.157455 1_655
Li0 O0 2.166394 1_555
Li1 O1 2.059820 1_455
Li1 O7 2.094817 1_555
Li1 O8 2.154594 1_555
Li1 O2 2.177373 1_545
Li1 O8 2.190073 1_455
Li1 O1 2.289931 1_555
Li2 O3 2.022766 1_545
Li2 O8 2.059538 1_555
Li2 O9 2.065884 1_655
Li2 O2 2.138247 1_545
Li2 O9 2.171355 1_555
Li2 O2 2.213179 1_645
Li3 O3 2.182564 1_455
Li3 O10 2.185908 1_565
Li3 O9 2.208956 1_565
Li3 O10 2.211825 1_465
Li3 O4 2.222183 1_555
Li3 O3 2.223200 1_555
Li4 O10 2.003856 1_565
Li4 O4 2.054625 1_555
Li4 O5 2.097876 1_555
Li4 O4 2.166407 1_655
Li4 O11 2.180052 1_665
Li4 O11 2.224913 1_565
Li5 O6 2.057957 1_555
Li5 O12 2.123022 1_555
Li5 O5 2.152779 1_455
Li5 O11 2.174183 1_565
Li5 O12 2.183034 1_455
Li5 O5 2.207856 1_555
Li6 O13 2.062881 1_554
Li6 O0 2.095423 1_554
Li6 O12 2.142505 1_555
Li6 O6 2.174570 1_555
Li6 O6 2.176738 1_655
Li6 O13 2.287507 1_454
Li7 O3 2.020135 1_555
Li7 O10 2.021298 1_555
Li7 O9 2.066261 1_555
Li7 O4 2.070065 1_655
Li7 O9 2.230420 1_655
Li7 O4 2.231262 1_555
Mn0 O6 1.945855 1_665
Mn0 O13 1.946315 1_554
Mn0 O12 1.962355 1_555
Mn0 O0 1.981458 1_664
Mn0 O12 2.241470 1_655
Mn0 O0 2.262087 1_564
Mn1 O8 1.924044 1_555
Mn1 O1 1.950463 1_565
Mn1 O2 1.955949 1_655
Mn1 O7 1.981047 1_555
Mn1 O2 2.219200 1_555
Mn1 O7 2.263894 1_655
Co0 O7 1.926934 1_555
Co0 O0 1.930396 1_565
Co0 O13 2.056239 1_455
Co0 O1 2.056295 1_565
Co0 O13 2.130080 1_555
Co0 O1 2.131456 1_465
Co1 O9 1.728284 1_555
Co1 O3 1.887040 1_555
Co1 O2 1.934457 1_555
Co1 O8 1.996858 1_455
Co1 O3 2.113643 1_455
Co1 O8 2.284906 1_555
Co2 O4 1.731559 1_555
Co2 O10 1.884594 1_455
Co2 O11 1.919950 1_555
Co2 O5 1.985065 1_555
Co2 O10 2.140477 1_555
Co2 O5 2.240429 1_455
Co3 O5 1.879620 1_555
Co3 O11 1.919231 1_555
Co3 O12 1.919994 1_545
Co3 O6 1.937853 1_655
Co3 O11 2.199499 1_655
Co3 O6 2.235927 1_555
