# generated using pymatgen
data_Er4Ga12Pt
_symmetry_space_group_name_H-M   'P 1'
_cell_length_a   7.36194078
_cell_length_b   7.36194078
_cell_length_c   7.36194078
_cell_angle_alpha   109.47122063
_cell_angle_beta   109.47122063
_cell_angle_gamma   109.47122063
_symmetry_Int_Tables_number   1
_chemical_formula_structural   Er4Ga12Pt
_chemical_formula_sum   'Er4 Ga12 Pt1'
_cell_volume   307.15321664
_cell_formula_units_Z   1
loop_
 _symmetry_equiv_pos_site_id
 _symmetry_equiv_pos_as_xyz
  1  'x, y, z'
loop_
 _atom_site_type_symbol
 _atom_site_label
 _atom_site_symmetry_multiplicity
 _atom_site_fract_x
 _atom_site_fract_y
 _atom_site_fract_z
 _atom_site_occupancy
  Er  Er0  1  0.50000000  0.50000000  0.50000000  1
  Er  Er1  1  0.00000000  0.00000000  0.50000000  1
  Er  Er2  1  0.00000000  0.50000000  0.00000000  1
  Er  Er3  1  0.50000000  0.00000000  0.00000000  1
  Ga  Ga0  1  0.00000000  0.29801199  0.29801199  1
  Ga  Ga1  1  -0.00000000  0.70198801  0.70198801  1
  Ga  Ga2  1  0.29801199  0.00000000  0.29801199  1
  Ga  Ga3  1  0.70198801  -0.00000000  0.70198801  1
  Ga  Ga4  1  0.29801199  0.29801199  0.00000000  1
  Ga  Ga5  1  0.70198801  0.70198801  -0.00000000  1
  Ga  Ga6  1  0.50000000  0.75000000  0.25000000  1
  Ga  Ga7  1  0.50000000  0.25000000  0.75000000  1
  Ga  Ga8  1  0.25000000  0.50000000  0.75000000  1
  Ga  Ga9  1  0.75000000  0.50000000  0.25000000  1
  Ga  Ga10  1  0.75000000  0.25000000  0.50000000  1
  Ga  Ga11  1  0.25000000  0.75000000  0.50000000  1
  Pt  Pt0  1  0.00000000  0.00000000  0.00000000  1
loop_
_geom_bond_atom_site_label_1
_geom_bond_atom_site_label_2
_geom_bond_distance
_geom_bond_site_symmetry_2
Er0 Ga10 3.005500 1_555
Er0 Ga6 3.005500 1_555
Er0 Ga9 3.005500 1_555
Er0 Ga7 3.005500 1_555
Er0 Ga11 3.005500 1_555
Er0 Ga8 3.005500 1_555
Er0 Ga2 3.033086 1_555
Er0 Ga3 3.033086 1_565
Er0 Ga0 3.033086 1_555
Er0 Ga5 3.033086 1_556
Er0 Ga4 3.033086 1_555
Er0 Ga1 3.033086 1_655
Er1 Ga9 3.005500 1_445
Er1 Ga6 3.005500 1_445
Er1 Ga7 3.005500 1_555
Er1 Ga8 3.005500 1_555
Er1 Ga10 3.005500 1_455
Er1 Ga11 3.005500 1_545
Er1 Ga1 3.033086 1_545
Er1 Ga2 3.033086 1_555
Er1 Ga3 3.033086 1_455
Er1 Ga0 3.033086 1_555
Er1 Ga4 3.033086 1_556
Er1 Ga5 3.033086 1_445
Er2 Ga7 3.005500 1_454
Er2 Ga6 3.005500 1_555
Er2 Ga9 3.005500 1_455
Er2 Ga10 3.005500 1_454
Er2 Ga8 3.005500 1_554
Er2 Ga11 3.005500 1_555
Er2 Ga1 3.033086 1_554
Er2 Ga0 3.033086 1_555
Er2 Ga4 3.033086 1_555
Er2 Ga2 3.033086 1_565
Er2 Ga3 3.033086 1_454
Er2 Ga5 3.033086 1_455
Er3 Ga9 3.005500 1_555
Er3 Ga8 3.005500 1_544
Er3 Ga10 3.005500 1_555
Er3 Ga7 3.005500 1_554
Er3 Ga6 3.005500 1_545
Er3 Ga11 3.005500 1_544
Er3 Ga1 3.033086 1_544
Er3 Ga3 3.033086 1_554
Er3 Ga2 3.033086 1_555
Er3 Ga5 3.033086 1_545
Er3 Ga0 3.033086 1_655
Er3 Ga4 3.033086 1_555
Ga0 Pt0 2.533351 1_555
Ga0 Ga11 2.732185 1_555
Ga0 Ga8 2.732185 1_555
Ga0 Ga10 2.732185 1_455
Ga0 Ga9 2.732185 1_455
Ga1 Pt0 2.533351 1_566
Ga1 Ga11 2.732185 1_555
Ga1 Ga8 2.732185 1_555
Ga1 Ga10 2.732185 1_455
Ga1 Ga9 2.732185 1_455
Ga2 Pt0 2.533351 1_555
Ga2 Ga6 2.732185 1_545
Ga2 Ga7 2.732185 1_555
Ga3 Pt0 2.533351 1_656
Ga3 Ga6 2.732185 1_545
Ga3 Ga7 2.732185 1_555
Ga4 Pt0 2.533351 1_555
Ga4 Ga7 2.732185 1_554
Ga4 Ga6 2.732185 1_555
Ga4 Ga9 2.732185 1_555
Ga4 Ga8 2.732185 1_554
Ga5 Pt0 2.533351 1_665
Ga5 Ga7 2.732185 1_554
Ga5 Ga6 2.732185 1_555
Ga5 Ga9 2.732185 1_555
Ga5 Ga8 2.732185 1_554
Ga6 Ga9 3.005500 1_555
Ga6 Ga8 3.005500 1_554
Ga7 Ga9 3.005500 1_556
Ga7 Ga8 3.005500 1_555
Ga10 Ga2 2.732185 1_555
Ga10 Ga3 2.732185 1_555
Ga10 Ga6 3.005500 1_545
Ga10 Ga8 3.005500 1_655
Ga10 Ga9 3.005500 1_555
Ga10 Ga7 3.005500 1_555
Ga11 Ga2 2.732185 1_565
Ga11 Ga3 2.732185 1_565
Ga11 Ga9 3.005500 1_455
Ga11 Ga7 3.005500 1_565
Ga11 Ga6 3.005500 1_555
Ga11 Ga8 3.005500 1_555
