# generated using pymatgen
data_Ca33Mo27O80
_symmetry_space_group_name_H-M   'P 1'
_cell_length_a   12.52447746
_cell_length_b   12.52447746
_cell_length_c   15.15062247
_cell_angle_alpha   65.58567478
_cell_angle_beta   65.58567475
_cell_angle_gamma   90.00000000
_symmetry_Int_Tables_number   1
_chemical_formula_structural   Ca33Mo27O80
_chemical_formula_sum   'Ca33 Mo27 O80'
_cell_volume   1928.26166937
_cell_formula_units_Z   1
loop_
 _symmetry_equiv_pos_site_id
 _symmetry_equiv_pos_as_xyz
  1  'x, y, z'
loop_
 _atom_site_type_symbol
 _atom_site_label
 _atom_site_symmetry_multiplicity
 _atom_site_fract_x
 _atom_site_fract_y
 _atom_site_fract_z
 _atom_site_occupancy
  Ca  Ca0  1  0.75000000  0.75000000  0.50000000  1
  Ca  Ca1  1  0.11111479  0.30980469  0.15592144  1
  Ca  Ca2  1  0.36458361  0.05843328  0.65741559  1
  Ca  Ca3  1  0.61375839  0.81159067  0.15403461  1
  Ca  Ca4  1  0.85931092  0.56329061  0.65402045  1
  Ca  Ca5  1  0.48666863  0.78268894  0.65402045  1
  Ca  Ca6  1  0.73296377  0.53427387  0.15592144  1
  Ca  Ca7  1  0.97800080  0.28415112  0.65741559  1
  Ca  Ca8  1  0.23220700  0.03437472  0.15403461  1
  Ca  Ca9  1  0.78268894  0.85931092  0.65402045  1
  Ca  Ca10  1  0.03437472  0.61375839  0.15403461  1
  Ca  Ca11  1  0.28415112  0.36458361  0.65741559  1
  Ca  Ca12  1  0.53427387  0.11111479  0.15592144  1
  Ca  Ca13  1  0.81159067  0.23220700  0.15403461  1
  Ca  Ca14  1  0.05843328  0.97800080  0.65741559  1
  Ca  Ca15  1  0.30980469  0.73296377  0.15592144  1
  Ca  Ca16  1  0.56329061  0.48666863  0.65402045  1
  Ca  Ca17  1  0.64068908  0.93670939  0.34597955  1
  Ca  Ca18  1  0.88624161  0.68840933  0.84596539  1
  Ca  Ca19  1  0.13541639  0.44156672  0.34258441  1
  Ca  Ca20  1  0.38888521  0.19019531  0.84407856  1
  Ca  Ca21  1  0.26779300  0.46562528  0.84596539  1
  Ca  Ca22  1  0.52199920  0.21584888  0.34258441  1
  Ca  Ca23  1  0.76703623  0.96572613  0.84407856  1
  Ca  Ca24  1  0.01333137  0.71731106  0.34597955  1
  Ca  Ca25  1  0.96572613  0.38888521  0.84407856  1
  Ca  Ca26  1  0.21584888  0.13541639  0.34258441  1
  Ca  Ca27  1  0.46562528  0.88624161  0.84596539  1
  Ca  Ca28  1  0.71731106  0.64068908  0.34597955  1
  Ca  Ca29  1  0.93670939  0.01333137  0.34597955  1
  Ca  Ca30  1  0.19019531  0.76703623  0.84407856  1
  Ca  Ca31  1  0.44156672  0.52199920  0.34258441  1
  Ca  Ca32  1  0.68840933  0.26779300  0.84596539  1
  Mo  Mo0  1  0.07839722  0.79542510  0.50000000  1
  Mo  Mo1  1  0.57013183  0.29762013  0.50000000  1
  Mo  Mo2  1  0.82295898  0.04670673  0.99851372  1
  Mo  Mo3  1  0.32147270  0.54522045  0.00148628  1
  Mo  Mo4  1  0.67704102  0.45329327  0.00148628  1
  Mo  Mo5  1  0.17852730  0.95477955  0.99851372  1
  Mo  Mo6  1  0.42160278  0.70457490  0.50000000  1
  Mo  Mo7  1  0.92986817  0.20237987  0.50000000  1
  Mo  Mo8  1  0.70457490  0.07839722  0.50000000  1
  Mo  Mo9  1  0.20237987  0.57013183  0.50000000  1
  Mo  Mo10  1  0.45329327  0.32147270  0.00148628  1
  Mo  Mo11  1  0.95477955  0.82295898  0.99851372  1
  Mo  Mo12  1  0.04670673  0.17852730  0.99851372  1
  Mo  Mo13  1  0.54522045  0.67704102  0.00148628  1
  Mo  Mo14  1  0.79542510  0.42160278  0.50000000  1
  Mo  Mo15  1  0.29762013  0.92986817  0.50000000  1
  Mo  Mo16  1  0.91722808  0.91722808  0.16554384  1
  Mo  Mo17  1  0.41304923  0.41304923  0.17390154  1
  Mo  Mo18  1  0.66565606  0.16565606  0.66868788  1
  Mo  Mo19  1  0.16565606  0.66565606  0.66868788  1
  Mo  Mo20  1  0.58277192  0.58277192  0.83445616  1
  Mo  Mo21  1  0.08695077  0.08695077  0.82609846  1
  Mo  Mo22  1  0.33434394  0.83434394  0.33131212  1
  Mo  Mo23  1  0.83434394  0.33434394  0.33131212  1
  Mo  Mo24  1  -0.00000000  0.50000000  0.00000000  1
  Mo  Mo25  1  0.25000000  0.25000000  0.50000000  1
  Mo  Mo26  1  0.50000000  -0.00000000  0.00000000  1
  O  O0  1  0.00096796  0.30813953  0.33812205  1
  O  O1  1  0.49944511  0.80916862  0.33743825  1
  O  O2  1  0.75108384  0.55769248  0.84002038  1
  O  O3  1  0.25203024  0.06057551  0.83520290  1
  O  O4  1  0.16311664  0.85339314  0.33743825  1
  O  O5  1  0.66090999  0.35373842  0.33812205  1
  O  O6  1  0.91276686  0.10422159  0.83520290  1
  O  O7  1  0.40889578  0.60228714  0.84002038  1
  O  O8  1  0.35373842  0.00096796  0.33812205  1
  O  O9  1  0.85339314  0.49944511  0.33743825  1
  O  O10  1  0.10422159  0.25203024  0.83520290  1
  O  O11  1  0.60228714  0.75108384  0.84002038  1
  O  O12  1  0.80916862  0.16311664  0.33743825  1
  O  O13  1  0.30813953  0.66090999  0.33812205  1
  O  O14  1  0.55769248  0.40889578  0.84002038  1
  O  O15  1  0.06057551  0.91276686  0.83520290  1
  O  O16  1  0.74891616  0.94230752  0.15997962  1
  O  O17  1  0.24796976  0.43942449  0.16479710  1
  O  O18  1  0.49903204  0.19186047  0.66187795  1
  O  O19  1  0.00055489  0.69083138  0.66256175  1
  O  O20  1  0.58723314  0.39577841  0.16479710  1
  O  O21  1  0.09110422  0.89771286  0.15997962  1
  O  O22  1  0.33688336  0.64660686  0.66256175  1
  O  O23  1  0.83909001  0.14626158  0.66187795  1
  O  O24  1  0.39577841  0.24796976  0.16479710  1
  O  O25  1  0.89771286  0.74891616  0.15997962  1
  O  O26  1  0.14626158  0.49903204  0.66187795  1
  O  O27  1  0.64660686  0.00055489  0.66256175  1
  O  O28  1  0.94230752  0.09110422  0.15997962  1
  O  O29  1  0.43942449  0.58723314  0.16479710  1
  O  O30  1  0.69083138  0.33688336  0.66256175  1
  O  O31  1  0.19186047  0.83909001  0.66187795  1
  O  O32  1  0.30158300  0.37310482  0.00205390  1
  O  O33  1  0.80363690  0.87515872  0.99794610  1
  O  O34  1  0.05277037  0.62411239  0.50000000  1
  O  O35  1  0.55189545  0.12703398  0.50000000  1
  O  O36  1  0.44722963  0.87588761  0.50000000  1
  O  O37  1  0.94810455  0.37296602  0.50000000  1
  O  O38  1  0.19841700  0.12689518  0.99794610  1
  O  O39  1  0.69636310  0.62484128  0.00205390  1
  O  O40  1  0.87588761  0.05277037  0.50000000  1
  O  O41  1  0.37296602  0.55189545  0.50000000  1
  O  O42  1  0.62484128  0.30158300  0.00205390  1
  O  O43  1  0.12689518  0.80363690  0.99794610  1
  O  O44  1  0.87515872  0.19841700  0.99794610  1
  O  O45  1  0.37310482  0.69636310  0.00205390  1
  O  O46  1  0.62411239  0.44722963  0.50000000  1
  O  O47  1  0.12703398  0.94810455  0.50000000  1
  O  O48  1  0.84303604  0.42871973  0.00141534  1
  O  O49  1  0.34445138  0.93013508  0.99858466  1
  O  O50  1  0.58056089  0.67893073  0.50000000  1
  O  O51  1  0.09953858  0.17994170  0.50000000  1
  O  O52  1  0.91943911  0.82106927  0.50000000  1
  O  O53  1  0.40046142  0.32005830  0.50000000  1
  O  O54  1  0.65696396  0.07128027  0.99858466  1
  O  O55  1  0.15554862  0.56986492  0.00141534  1
  O  O56  1  0.07128027  0.34445138  0.99858466  1
  O  O57  1  0.56986492  0.84303604  0.00141534  1
  O  O58  1  0.82106927  0.58056089  0.50000000  1
  O  O59  1  0.32005830  0.09953858  0.50000000  1
  O  O60  1  0.67893073  0.91943911  0.50000000  1
  O  O61  1  0.17994170  0.40046142  0.50000000  1
  O  O62  1  0.42871973  0.15554862  0.00141534  1
  O  O63  1  0.93013508  0.65696396  0.99858466  1
  O  O64  1  0.62608678  0.12315452  0.25069179  1
  O  O65  1  0.12322143  0.62615369  0.25069179  1
  O  O66  1  0.37684548  0.37677857  0.74930821  1
  O  O67  1  0.87384631  0.87391322  0.74930821  1
  O  O68  1  0.12315452  0.12322143  0.25069179  1
  O  O69  1  0.62615369  0.62608678  0.25069179  1
  O  O70  1  0.87391322  0.37684548  0.74930821  1
  O  O71  1  0.37677857  0.87384631  0.74930821  1
  O  O72  1  0.91642362  0.41642362  0.16715276  1
  O  O73  1  0.41642362  0.91642362  0.16715276  1
  O  O74  1  0.66298196  0.66298196  0.67403608  1
  O  O75  1  0.17118359  0.17118359  0.65763282  1
  O  O76  1  0.08357638  0.58357638  0.83284724  1
  O  O77  1  0.58357638  0.08357638  0.83284724  1
  O  O78  1  0.83701804  0.83701804  0.32596392  1
  O  O79  1  0.32881641  0.32881641  0.34236718  1
loop_
_geom_bond_atom_site_label_1
_geom_bond_atom_site_label_2
_geom_bond_distance
_geom_bond_site_symmetry_2
Ca0 O78 2.139371 1_555
Ca0 O74 2.139371 1_555
Ca0 O50 2.301250 1_555
Ca0 O58 2.301250 1_555
Ca0 O60 2.301250 1_555
Ca0 O52 2.301250 1_555
Ca1 O68 2.224972 1_555
Ca1 O32 2.372486 1_555
Ca1 O17 2.441823 1_555
Ca1 O56 2.499501 1_554
Ca1 O0 2.515552 1_555
Ca1 O72 2.757311 1_455
Ca1 O55 3.003062 1_555
Ca2 O71 2.195760 1_545
Ca2 O35 2.368681 1_555
Ca2 O18 2.412505 1_555
Ca2 O3 2.482771 1_555
Ca2 O59 2.519609 1_555
Ca2 O75 2.803322 1_555
Ca3 O69 2.223031 1_555
Ca3 O33 2.382504 1_554
Ca3 O16 2.408704 1_555
Ca3 O57 2.470215 1_555
Ca3 O1 2.532470 1_555
Ca3 O73 2.771543 1_555
Ca3 O54 3.005385 1_564
Ca4 O70 2.236493 1_555
Ca4 O34 2.398522 1_655
Ca4 O19 2.461276 1_655
Ca4 O58 2.495617 1_555
Ca4 O2 2.542136 1_555
Ca4 O74 2.719151 1_555
Ca4 O52 2.958922 1_555
Ca5 O71 2.236493 1_555
Ca5 O36 2.398522 1_555
Ca5 O22 2.461276 1_555
Ca5 O60 2.495617 1_555
Ca5 O7 2.542136 1_555
Ca5 O74 2.719151 1_555
Ca5 O50 2.958922 1_555
Ca6 O69 2.224972 1_555
Ca6 O39 2.372486 1_555
Ca6 O20 2.441823 1_555
Ca6 O63 2.499501 1_554
Ca6 O5 2.515552 1_555
Ca6 O72 2.757311 1_555
Ca6 O48 3.003062 1_555
Ca7 O70 2.195760 1_555
Ca7 O37 2.368681 1_555
Ca7 O23 2.412505 1_555
Ca7 O6 2.482770 1_555
Ca7 O61 2.519609 1_655
Ca7 O75 2.803322 1_655
Ca8 O68 2.223031 1_555
Ca8 O38 2.382504 1_554
Ca8 O21 2.408704 1_545
Ca8 O62 2.470214 1_555
Ca8 O4 2.532470 1_545
Ca8 O73 2.771543 1_545
Ca8 O49 3.005385 1_544
Ca9 O67 2.236493 1_555
Ca9 O40 2.398522 1_565
Ca9 O27 2.461276 1_565
Ca9 O52 2.495617 1_555
Ca9 O11 2.542136 1_555
Ca9 O74 2.719151 1_555
Ca9 O60 2.958922 1_555
Ca10 O65 2.223031 1_555
Ca10 O43 2.382504 1_554
Ca10 O25 2.408704 1_455
Ca10 O55 2.470215 1_555
Ca10 O9 2.532470 1_455
Ca10 O72 2.771543 1_455
Ca10 O63 3.005385 1_454
Ca11 O66 2.195760 1_555
Ca11 O41 2.368681 1_555
Ca11 O26 2.412505 1_555
Ca11 O10 2.482770 1_555
Ca11 O53 2.519609 1_555
Ca11 O75 2.803322 1_555
Ca12 O64 2.224972 1_555
Ca12 O42 2.372486 1_555
Ca12 O24 2.441823 1_555
Ca12 O54 2.499501 1_554
Ca12 O8 2.515552 1_555
Ca12 O73 2.757311 1_545
Ca12 O62 3.003062 1_555
Ca13 O64 2.223031 1_555
Ca13 O44 2.382504 1_554
Ca13 O28 2.408704 1_555
Ca13 O48 2.470214 1_555
Ca13 O12 2.532470 1_555
Ca13 O72 2.771543 1_555
Ca13 O56 3.005385 1_654
Ca14 O67 2.195760 1_455
Ca14 O47 2.368681 1_555
Ca14 O31 2.412505 1_555
Ca14 O15 2.482771 1_555
Ca14 O51 2.519609 1_565
Ca14 O75 2.803322 1_565
Ca15 O65 2.224972 1_555
Ca15 O45 2.372486 1_555
Ca15 O29 2.441823 1_555
Ca15 O49 2.499501 1_554
Ca15 O13 2.515552 1_555
Ca15 O73 2.757311 1_555
Ca15 O57 3.003062 1_555
Ca16 O66 2.236493 1_555
Ca16 O46 2.398522 1_555
Ca16 O30 2.461276 1_555
Ca16 O50 2.495617 1_555
Ca16 O14 2.542136 1_555
Ca16 O74 2.719151 1_555
Ca16 O58 2.958922 1_555
Ca17 O64 2.236493 1_565
Ca17 O36 2.398522 1_555
Ca17 O1 2.461276 1_555
Ca17 O60 2.495617 1_555
Ca17 O16 2.542136 1_555
Ca17 O78 2.719151 1_555
Ca17 O50 2.958922 1_555
Ca18 O67 2.223031 1_555
Ca18 O39 2.382504 1_556
Ca18 O2 2.408704 1_555
Ca18 O63 2.470215 1_555
Ca18 O19 2.532470 1_655
Ca18 O76 2.771543 1_655
Ca18 O48 3.005385 1_556
Ca19 O65 2.195760 1_555
Ca19 O37 2.368681 1_455
Ca19 O0 2.412505 1_555
Ca19 O17 2.482771 1_555
Ca19 O61 2.519609 1_555
Ca19 O79 2.803322 1_555
Ca20 O66 2.224972 1_555
Ca20 O38 2.372486 1_555
Ca20 O3 2.441823 1_555
Ca20 O62 2.499501 1_556
Ca20 O18 2.515552 1_555
Ca20 O77 2.757311 1_555
Ca20 O49 3.003062 1_545
Ca21 O66 2.223031 1_555
Ca21 O32 2.382504 1_556
Ca21 O7 2.408704 1_555
Ca21 O56 2.470214 1_555
Ca21 O22 2.532470 1_555
Ca21 O76 2.771543 1_555
Ca21 O55 3.005385 1_556
Ca22 O64 2.195760 1_555
Ca22 O35 2.368681 1_555
Ca22 O5 2.412505 1_555
Ca22 O20 2.482770 1_555
Ca22 O59 2.519609 1_555
Ca22 O79 2.803322 1_555
Ca23 O67 2.224972 1_555
Ca23 O33 2.372486 1_555
Ca23 O6 2.441823 1_565
Ca23 O57 2.499501 1_556
Ca23 O23 2.515552 1_565
Ca23 O77 2.757311 1_565
Ca23 O54 3.003062 1_565
Ca24 O65 2.236493 1_555
Ca24 O34 2.398522 1_555
Ca24 O4 2.461276 1_555
Ca24 O58 2.495617 1_455
Ca24 O21 2.542136 1_555
Ca24 O78 2.719151 1_455
Ca24 O52 2.958922 1_455
Ca25 O70 2.224972 1_555
Ca25 O44 2.372486 1_555
Ca25 O10 2.441823 1_655
Ca25 O48 2.499501 1_556
Ca25 O26 2.515552 1_655
Ca25 O76 2.757311 1_655
Ca25 O56 3.003062 1_655
Ca26 O68 2.195760 1_555
Ca26 O47 2.368681 1_545
Ca26 O8 2.412505 1_555
Ca26 O24 2.482770 1_555
Ca26 O51 2.519609 1_555
Ca26 O79 2.803322 1_555
Ca27 O71 2.223031 1_555
Ca27 O45 2.382504 1_556
Ca27 O11 2.408704 1_555
Ca27 O49 2.470215 1_555
Ca27 O27 2.532470 1_565
Ca27 O77 2.771543 1_565
Ca27 O57 3.005385 1_556
Ca28 O69 2.236493 1_555
Ca28 O46 2.398522 1_555
Ca28 O9 2.461276 1_555
Ca28 O50 2.495617 1_555
Ca28 O25 2.542136 1_555
Ca28 O78 2.719151 1_555
Ca28 O58 2.958922 1_555
Ca29 O68 2.236493 1_655
Ca29 O40 2.398522 1_555
Ca29 O12 2.461276 1_555
Ca29 O52 2.495617 1_545
Ca29 O28 2.542136 1_555
Ca29 O78 2.719151 1_545
Ca29 O60 2.958922 1_545
Ca30 O71 2.224972 1_555
Ca30 O43 2.372486 1_555
Ca30 O15 2.441823 1_555
Ca30 O55 2.499501 1_556
Ca30 O31 2.515552 1_555
Ca30 O76 2.757311 1_555
Ca30 O63 3.003062 1_455
Ca31 O69 2.195760 1_555
Ca31 O41 2.368681 1_555
Ca31 O13 2.412505 1_555
Ca31 O29 2.482771 1_555
Ca31 O53 2.519609 1_555
Ca31 O79 2.803322 1_555
Ca32 O70 2.223031 1_555
Ca32 O42 2.382504 1_556
Ca32 O14 2.408704 1_555
Ca32 O54 2.470214 1_555
Ca32 O30 2.532470 1_555
Ca32 O77 2.771543 1_555
Ca32 O62 3.005385 1_556
Mo0 O47 2.006910 1_555
Mo0 O52 2.016608 1_455
Mo0 O4 2.019998 1_555
Mo0 O19 2.019998 1_555
Mo0 O34 2.169476 1_555
Mo1 O46 1.992018 1_555
Mo1 O5 2.017817 1_555
Mo1 O18 2.017817 1_555
Mo1 O53 2.143535 1_555
Mo1 O35 2.148676 1_555
Mo2 O44 2.004916 1_555
Mo2 O16 2.008608 1_546
Mo2 O6 2.032735 1_555
Mo2 O54 2.101284 1_555
Mo2 O33 2.166078 1_545
Mo3 O45 2.004916 1_555
Mo3 O7 2.008608 1_554
Mo3 O17 2.032735 1_555
Mo3 O55 2.101284 1_555
Mo3 O32 2.166078 1_555
Mo4 O42 2.004916 1_555
Mo4 O2 2.008608 1_554
Mo4 O20 2.032735 1_555
Mo4 O48 2.101284 1_555
Mo4 O39 2.166078 1_555
Mo5 O43 2.004916 1_555
Mo5 O21 2.008608 1_556
Mo5 O3 2.032735 1_565
Mo5 O49 2.101284 1_555
Mo5 O38 2.166078 1_565
Mo6 O41 2.006910 1_555
Mo6 O50 2.016608 1_555
Mo6 O22 2.019998 1_555
Mo6 O1 2.019998 1_555
Mo6 O36 2.169476 1_555
Mo7 O40 1.992018 1_555
Mo7 O23 2.017817 1_555
Mo7 O0 2.017817 1_655
Mo7 O51 2.143535 1_655
Mo7 O37 2.148676 1_555
Mo8 O35 2.006910 1_555
Mo8 O60 2.016608 1_545
Mo8 O27 2.019998 1_555
Mo8 O12 2.019998 1_555
Mo8 O40 2.169476 1_555
Mo9 O34 1.992018 1_555
Mo9 O26 2.017817 1_555
Mo9 O13 2.017817 1_555
Mo9 O61 2.143535 1_555
Mo9 O41 2.148676 1_555
Mo10 O32 2.004916 1_555
Mo10 O14 2.008608 1_554
Mo10 O24 2.032735 1_555
Mo10 O62 2.101284 1_555
Mo10 O42 2.166078 1_555
Mo11 O33 2.004916 1_555
Mo11 O25 2.008608 1_556
Mo11 O15 2.032735 1_655
Mo11 O63 2.101284 1_555
Mo11 O43 2.166078 1_655
Mo12 O38 2.004916 1_555
Mo12 O28 2.008608 1_456
Mo12 O10 2.032735 1_555
Mo12 O56 2.101284 1_555
Mo12 O44 2.166078 1_455
Mo13 O39 2.004916 1_555
Mo13 O11 2.008608 1_554
Mo13 O29 2.032735 1_555
Mo13 O57 2.101284 1_555
Mo13 O45 2.166078 1_555
Mo14 O37 2.006910 1_555
Mo14 O58 2.016608 1_555
Mo14 O9 2.019998 1_555
Mo14 O30 2.019998 1_555
Mo14 O46 2.169476 1_555
Mo15 O36 1.992018 1_555
Mo15 O8 2.017817 1_565
Mo15 O31 2.017817 1_555
Mo15 O59 2.143535 1_565
Mo15 O47 2.148676 1_555
Mo16 O78 1.971993 1_555
Mo16 O25 2.162066 1_555
Mo16 O21 2.162066 1_655
Mo16 O16 2.162066 1_555
Mo16 O28 2.162066 1_565
Mo17 O79 2.070895 1_555
Mo17 O24 2.144979 1_555
Mo17 O20 2.144979 1_555
Mo17 O17 2.144979 1_555
Mo17 O29 2.144979 1_555
Mo18 O77 2.017959 1_555
Mo18 O30 2.125634 1_555
Mo18 O27 2.125634 1_555
Mo18 O23 2.150214 1_555
Mo18 O18 2.150214 1_555
Mo19 O76 2.017959 1_555
Mo19 O19 2.125634 1_555
Mo19 O22 2.125634 1_555
Mo19 O26 2.150214 1_555
Mo19 O31 2.150214 1_555
Mo20 O74 1.971993 1_555
Mo20 O11 2.162066 1_555
Mo20 O7 2.162066 1_555
Mo20 O2 2.162066 1_555
Mo20 O14 2.162066 1_555
Mo21 O75 2.070895 1_555
Mo21 O10 2.144979 1_555
Mo21 O6 2.144979 1_455
Mo21 O3 2.144979 1_555
Mo21 O15 2.144979 1_545
Mo22 O73 2.017959 1_555
Mo22 O1 2.125634 1_555
Mo22 O4 2.125634 1_555
Mo22 O8 2.150214 1_565
Mo22 O13 2.150214 1_555
Mo23 O72 2.017959 1_555
Mo23 O12 2.125634 1_555
Mo23 O9 2.125634 1_555
Mo23 O5 2.150214 1_555
Mo23 O0 2.150214 1_655
Mo24 O76 2.054756 1_554
Mo24 O72 2.054756 1_455
Mo24 O55 2.147444 1_555
Mo24 O63 2.147444 1_454
Mo24 O56 2.147444 1_554
Mo24 O48 2.147444 1_455
Mo25 O75 1.937731 1_555
Mo25 O79 1.937731 1_555
Mo25 O61 2.078716 1_555
Mo25 O51 2.078716 1_555
Mo25 O59 2.078716 1_555
Mo25 O53 2.078716 1_555
Mo26 O73 2.054756 1_545
Mo26 O77 2.054756 1_554
Mo26 O49 2.147444 1_544
Mo26 O57 2.147444 1_545
Mo26 O62 2.147444 1_555
Mo26 O54 2.147444 1_554
