# generated using pymatgen
data_NiGeN2
_symmetry_space_group_name_H-M   'P 1'
_cell_length_a   5.25047000
_cell_length_b   10.59287200
_cell_length_c   12.92147600
_cell_angle_alpha   90.00000000
_cell_angle_beta   90.00000000
_cell_angle_gamma   90.00000000
_symmetry_Int_Tables_number   1
_chemical_formula_structural   NiGeN2
_chemical_formula_sum   'Ni16 Ge16 N32'
_cell_volume   718.66092343
_cell_formula_units_Z   16
loop_
 _symmetry_equiv_pos_site_id
 _symmetry_equiv_pos_as_xyz
  1  'x, y, z'
loop_
 _atom_site_type_symbol
 _atom_site_label
 _atom_site_symmetry_multiplicity
 _atom_site_fract_x
 _atom_site_fract_y
 _atom_site_fract_z
 _atom_site_occupancy
  Ni  Ni0  1  0.66184200  0.94992200  0.44197200  1
  Ni  Ni1  1  0.16184200  0.55007800  0.55802800  1
  Ni  Ni2  1  0.33815800  0.44992200  0.05802800  1
  Ni  Ni3  1  0.83815800  0.05007800  0.94197200  1
  Ni  Ni4  1  0.33815800  0.05007800  0.55802800  1
  Ni  Ni5  1  0.83815800  0.44992200  0.44197200  1
  Ni  Ni6  1  0.66184200  0.55007800  0.94197200  1
  Ni  Ni7  1  0.16184200  0.94992200  0.05802800  1
  Ni  Ni8  1  0.79239800  0.29823100  0.30471400  1
  Ni  Ni9  1  0.29239800  0.20176900  0.69528600  1
  Ni  Ni10  1  0.20760200  0.79823100  0.19528600  1
  Ni  Ni11  1  0.70760200  0.70176900  0.80471400  1
  Ni  Ni12  1  0.20760200  0.70176900  0.69528600  1
  Ni  Ni13  1  0.70760200  0.79823100  0.30471400  1
  Ni  Ni14  1  0.79239800  0.20176900  0.80471400  1
  Ni  Ni15  1  0.29239800  0.29823100  0.19528600  1
  Ge  Ge0  1  0.63038600  0.04246100  0.18579600  1
  Ge  Ge1  1  0.13038600  0.45753900  0.81420400  1
  Ge  Ge2  1  0.36961400  0.54246100  0.31420400  1
  Ge  Ge3  1  0.86961400  0.95753900  0.68579600  1
  Ge  Ge4  1  0.36961400  0.95753900  0.81420400  1
  Ge  Ge5  1  0.86961400  0.54246100  0.18579600  1
  Ge  Ge6  1  0.63038600  0.45753900  0.68579600  1
  Ge  Ge7  1  0.13038600  0.04246100  0.31420400  1
  Ge  Ge8  1  0.78956200  0.29378300  0.06121700  1
  Ge  Ge9  1  0.28956200  0.20621700  0.93878300  1
  Ge  Ge10  1  0.21043800  0.79378300  0.43878300  1
  Ge  Ge11  1  0.71043800  0.70621700  0.56121700  1
  Ge  Ge12  1  0.21043800  0.70621700  0.93878300  1
  Ge  Ge13  1  0.71043800  0.79378300  0.06121700  1
  Ge  Ge14  1  0.78956200  0.20621700  0.56121700  1
  Ge  Ge15  1  0.28956200  0.29378300  0.43878300  1
  N  N0  1  0.70086500  0.48221100  0.30317800  1
  N  N1  1  0.20086500  0.01778900  0.69682200  1
  N  N2  1  0.29913500  0.98221100  0.19682200  1
  N  N3  1  0.79913500  0.51778900  0.80317800  1
  N  N4  1  0.29913500  0.51778900  0.69682200  1
  N  N5  1  0.79913500  0.98221100  0.30317800  1
  N  N6  1  0.70086500  0.01778900  0.80317800  1
  N  N7  1  0.20086500  0.48221100  0.19682200  1
  N  N8  1  0.64603200  0.28440300  0.44552300  1
  N  N9  1  0.14603200  0.21559700  0.55447700  1
  N  N10  1  0.35396800  0.78440300  0.05447700  1
  N  N11  1  0.85396800  0.71559700  0.94552300  1
  N  N12  1  0.35396800  0.71559700  0.55447700  1
  N  N13  1  0.85396800  0.78440300  0.44552300  1
  N  N14  1  0.64603200  0.21559700  0.94552300  1
  N  N15  1  0.14603200  0.28440300  0.05447700  1
  N  N16  1  0.71529600  0.46607100  0.07147700  1
  N  N17  1  0.21529600  0.03392900  0.92852300  1
  N  N18  1  0.28470400  0.96607100  0.42852300  1
  N  N19  1  0.78470400  0.53392900  0.57147700  1
  N  N20  1  0.28470400  0.53392900  0.92852300  1
  N  N21  1  0.78470400  0.96607100  0.07147700  1
  N  N22  1  0.71529600  0.03392900  0.57147700  1
  N  N23  1  0.21529600  0.46607100  0.42852300  1
  N  N24  1  0.64044500  0.21943100  0.18101800  1
  N  N25  1  0.14044500  0.28056900  0.81898200  1
  N  N26  1  0.35955500  0.71943100  0.31898200  1
  N  N27  1  0.85955500  0.78056900  0.68101800  1
  N  N28  1  0.35955500  0.78056900  0.81898200  1
  N  N29  1  0.85955500  0.71943100  0.18101800  1
  N  N30  1  0.64044500  0.28056900  0.68101800  1
  N  N31  1  0.14044500  0.21943100  0.31898200  1
loop_
_geom_bond_atom_site_label_1
_geom_bond_atom_site_label_2
_geom_bond_distance
_geom_bond_site_symmetry_2
Ge0 N2 1.858096 1_545
Ge0 N5 1.868922 1_545
Ge0 N21 1.869040 1_545
Ge0 N24 1.876380 1_555
Ge1 N3 1.858096 1_455
Ge1 N4 1.868922 1_555
Ge1 N20 1.869040 1_555
Ge1 N25 1.876380 1_555
Ge2 N0 1.858096 1_555
Ge2 N7 1.868922 1_555
Ge2 N23 1.869040 1_555
Ge2 N26 1.876380 1_555
Ge3 N1 1.858096 1_665
Ge3 N6 1.868922 1_565
Ge3 N22 1.869040 1_565
Ge3 N27 1.876380 1_555
Ge4 N6 1.858096 1_565
Ge4 N1 1.868922 1_565
Ge4 N17 1.869040 1_565
Ge4 N28 1.876380 1_555
Ge5 N7 1.858096 1_655
Ge5 N0 1.868922 1_555
Ge5 N16 1.869040 1_555
Ge5 N29 1.876380 1_555
Ge6 N4 1.858096 1_555
Ge6 N3 1.868922 1_555
Ge6 N19 1.869040 1_555
Ge6 N30 1.876380 1_555
Ge7 N5 1.858096 1_445
Ge7 N2 1.868922 1_545
Ge7 N18 1.869040 1_545
Ge7 N31 1.876380 1_555
Ge8 N14 1.867803 1_554
Ge8 N16 1.870919 1_555
Ge8 N15 1.876293 1_655
Ge8 N24 1.905157 1_555
Ge9 N15 1.867803 1_556
Ge9 N17 1.870919 1_555
Ge9 N14 1.876293 1_555
Ge9 N25 1.905157 1_555
Ge10 N12 1.867803 1_555
Ge10 N18 1.870919 1_555
Ge10 N13 1.876293 1_455
Ge10 N26 1.905157 1_555
Ge11 N13 1.867803 1_555
Ge11 N19 1.870919 1_555
Ge11 N12 1.876293 1_555
Ge11 N27 1.905157 1_555
Ge12 N10 1.867803 1_556
Ge12 N20 1.870919 1_555
Ge12 N11 1.876293 1_455
Ge12 N28 1.905157 1_555
Ge13 N11 1.867803 1_554
Ge13 N21 1.870919 1_555
Ge13 N10 1.876293 1_555
Ge13 N29 1.905157 1_555
Ge14 N8 1.867803 1_555
Ge14 N22 1.870919 1_555
Ge14 N9 1.876293 1_655
Ge14 N30 1.905157 1_555
Ge15 N9 1.867803 1_555
Ge15 N23 1.870919 1_555
Ge15 N8 1.876293 1_555
Ge15 N31 1.905157 1_555
N0 Ni5 1.962902 1_555
N0 Ni8 2.007357 1_555
N1 Ni4 1.962902 1_555
N1 Ni9 2.007357 1_555
N2 Ni7 1.962902 1_555
N2 Ni10 2.007357 1_555
N3 Ni6 1.962902 1_555
N3 Ni11 2.007357 1_555
N4 Ni1 1.962902 1_555
N4 Ni12 2.007357 1_555
N5 Ni0 1.962902 1_555
N5 Ni13 2.007357 1_555
N6 Ni3 1.962902 1_555
N6 Ni14 2.007357 1_555
N7 Ni2 1.962902 1_555
N7 Ni15 2.007357 1_555
N8 Ni8 1.980522 1_555
N8 Ni5 2.023320 1_555
N9 Ni9 1.980522 1_555
N9 Ni4 2.023320 1_555
N10 Ni10 1.980522 1_555
N10 Ni7 2.023320 1_555
N11 Ni11 1.980522 1_555
N11 Ni6 2.023320 1_555
N12 Ni12 1.980522 1_555
N12 Ni1 2.023320 1_555
N13 Ni13 1.980522 1_555
N13 Ni0 2.023320 1_555
N14 Ni14 1.980522 1_555
N14 Ni3 2.023320 1_555
N15 Ni15 1.980522 1_555
N15 Ni2 2.023320 1_555
N16 Ni6 1.915960 1_554
N16 Ni2 1.995110 1_555
N17 Ni7 1.915960 1_546
N17 Ni3 1.995110 1_455
N18 Ni4 1.915960 1_565
N18 Ni0 1.995110 1_555
N19 Ni5 1.915960 1_555
N19 Ni1 1.995110 1_655
N20 Ni2 1.915960 1_556
N20 Ni6 1.995110 1_555
N21 Ni3 1.915960 1_564
N21 Ni7 1.995110 1_655
N22 Ni0 1.915960 1_545
N22 Ni4 1.995110 1_555
N23 Ni1 1.915960 1_555
N23 Ni5 1.995110 1_455
N24 Ni8 1.971789 1_555
N24 Ni15 2.017467 1_555
N25 Ni9 1.971789 1_555
N25 Ni14 2.017467 1_455
N26 Ni10 1.971789 1_555
N26 Ni13 2.017467 1_555
N27 Ni11 1.971789 1_555
N27 Ni12 2.017467 1_655
N28 Ni12 1.971789 1_555
N28 Ni11 2.017467 1_555
N29 Ni13 1.971789 1_555
N29 Ni10 2.017467 1_655
N30 Ni14 1.971789 1_555
N30 Ni9 2.017467 1_555
N31 Ni15 1.971789 1_555
N31 Ni8 2.017467 1_455
