# generated using pymatgen
data_NdZr3Mn8
_symmetry_space_group_name_H-M   'P 1'
_cell_length_a   5.06934003
_cell_length_b   5.06934003
_cell_length_c   8.39055645
_cell_angle_alpha   89.92361215
_cell_angle_beta   90.07638785
_cell_angle_gamma   122.38610050
_symmetry_Int_Tables_number   1
_chemical_formula_structural   NdZr3Mn8
_chemical_formula_sum   'Nd1 Zr3 Mn8'
_cell_volume   182.08371411
_cell_formula_units_Z   1
loop_
 _symmetry_equiv_pos_site_id
 _symmetry_equiv_pos_as_xyz
  1  'x, y, z'
loop_
 _atom_site_type_symbol
 _atom_site_label
 _atom_site_symmetry_multiplicity
 _atom_site_fract_x
 _atom_site_fract_y
 _atom_site_fract_z
 _atom_site_occupancy
  Nd  Nd0  1  0.66661500  0.33338500  0.56120100  1
  Zr  Zr0  1  0.33470800  0.66529200  0.43001400  1
  Zr  Zr1  1  0.33463500  0.66536500  0.06369000  1
  Zr  Zr2  1  0.66506200  0.33493800  0.94051100  1
  Mn  Mn0  1  0.99812700  0.00187300  0.49748300  1
  Mn  Mn1  1  0.99917400  0.00082600  0.00166100  1
  Mn  Mn2  1  0.17354300  0.33656000  0.76090100  1
  Mn  Mn3  1  0.17201500  0.82798500  0.76004900  1
  Mn  Mn4  1  0.66344000  0.82645700  0.76090100  1
  Mn  Mn5  1  0.82964200  0.66677700  0.24054800  1
  Mn  Mn6  1  0.82981600  0.17018400  0.24249500  1
  Mn  Mn7  1  0.33322300  0.17035800  0.24054800  1
loop_
_geom_bond_atom_site_label_1
_geom_bond_atom_site_label_2
_geom_bond_distance
_geom_bond_site_symmetry_2
Nd0 Zr0 3.068145 1_545
Nd0 Zr0 3.068145 1_655
Nd0 Zr0 3.145845 1_555
Nd0 Zr2 3.182673 1_555
Zr0 Zr1 3.073661 1_555
Zr1 Zr2 3.049559 1_564
Zr1 Zr2 3.049559 1_454
Zr1 Zr2 3.113628 1_554
Mn0 Mn5 2.591009 1_545
Mn0 Mn7 2.591009 1_655
Mn0 Mn6 2.608359 1_555
Mn0 Mn4 2.634953 1_545
Mn0 Mn2 2.634953 1_655
Mn0 Mn3 2.688802 1_645
Mn0 Zr0 2.896995 1_545
Mn0 Zr0 2.896995 1_655
Mn0 Nd0 2.913896 1_545
Mn0 Nd0 2.913896 1_655
Mn0 Nd0 2.994085 1_555
Mn0 Zr0 3.044148 1_645
Mn1 Mn5 2.461776 1_545
Mn1 Mn7 2.461776 1_655
Mn1 Mn4 2.478471 1_544
Mn1 Mn2 2.478471 1_654
Mn1 Mn6 2.521182 1_555
Mn1 Mn3 2.545009 1_644
Mn1 Zr1 2.894268 1_545
Mn1 Zr1 2.894268 1_655
Mn1 Zr2 2.899023 1_654
Mn1 Zr2 2.899023 1_544
Mn1 Zr2 3.011500 1_554
Mn1 Zr1 3.024560 1_645
Mn2 Mn4 2.393355 1_555
Mn2 Mn4 2.492069 1_445
Mn2 Mn3 2.495359 1_555
Mn2 Mn3 2.574018 1_545
Mn2 Zr1 2.906420 1_556
Mn2 Zr2 2.914028 1_555
Mn2 Zr2 2.983818 1_455
Mn2 Nd0 3.018271 1_555
Mn2 Nd0 3.058755 1_455
Mn2 Zr0 3.112518 1_555
Mn3 Mn4 2.495359 1_555
Mn3 Mn4 2.574018 1_455
Mn3 Zr2 2.874660 1_565
Mn3 Zr2 2.874660 1_455
Mn3 Zr1 2.926921 1_556
Mn3 Nd0 2.958481 1_565
Mn3 Nd0 2.958481 1_455
Mn3 Zr0 3.125636 1_555
Mn4 Zr1 2.906420 1_556
Mn4 Zr2 2.914028 1_555
Mn4 Zr2 2.983818 1_565
Mn4 Nd0 3.018271 1_555
Mn4 Nd0 3.058755 1_565
Mn4 Zr0 3.112518 1_555
Mn5 Mn7 2.425217 1_555
Mn5 Mn7 2.460207 1_665
Mn5 Mn6 2.517903 1_555
Mn5 Mn6 2.551543 1_565
Mn5 Zr2 2.892369 1_554
Mn5 Zr1 2.910302 1_555
Mn5 Zr1 2.964019 1_655
Mn5 Zr0 2.968615 1_555
Mn5 Zr0 3.015368 1_655
Mn5 Nd0 3.045566 1_555
Mn6 Mn7 2.517903 1_555
Mn6 Mn7 2.551543 1_655
Mn6 Zr1 2.867000 1_655
Mn6 Zr1 2.867000 1_545
Mn6 Zr0 2.905869 1_545
Mn6 Zr0 2.905869 1_655
Mn6 Zr2 2.924255 1_554
Mn6 Nd0 3.043824 1_555
Mn7 Zr2 2.892369 1_554
Mn7 Zr1 2.910302 1_555
Mn7 Zr1 2.964019 1_545
Mn7 Zr0 2.968615 1_555
Mn7 Zr0 3.015368 1_545
Mn7 Nd0 3.045566 1_555
