# generated using pymatgen
data_Li9Mn2Co5O16
_symmetry_space_group_name_H-M   'P 1'
_cell_length_a   5.89711100
_cell_length_b   6.44151675
_cell_length_c   7.87248978
_cell_angle_alpha   86.06599459
_cell_angle_beta   75.85911941
_cell_angle_gamma   76.88190063
_symmetry_Int_Tables_number   1
_chemical_formula_structural   Li9Mn2Co5O16
_chemical_formula_sum   'Li9 Mn2 Co5 O16'
_cell_volume   282.39054391
_cell_formula_units_Z   1
loop_
 _symmetry_equiv_pos_site_id
 _symmetry_equiv_pos_as_xyz
  1  'x, y, z'
loop_
 _atom_site_type_symbol
 _atom_site_label
 _atom_site_symmetry_multiplicity
 _atom_site_fract_x
 _atom_site_fract_y
 _atom_site_fract_z
 _atom_site_occupancy
  Li  Li0  1  0.94207500  0.87656900  0.37109000  1
  Li  Li1  1  0.67648800  0.36649200  0.87686400  1
  Li  Li2  1  0.43082300  0.87503000  0.36478500  1
  Li  Li3  1  0.80220200  0.63224000  0.12340900  1
  Li  Li4  1  0.56917700  0.12497000  0.63521500  1
  Li  Li5  1  0.32351200  0.63350800  0.12313600  1
  Li  Li6  1  0.19779800  0.36776000  0.87659100  1
  Li  Li7  1  0.05792500  0.12343100  0.62891000  1
  Li  Li8  1  0.50000000  0.00000000  0.00000000  1
  Mn  Mn0  1  0.87129500  0.75326800  0.75488400  1
  Mn  Mn1  1  0.12870500  0.24673200  0.24511600  1
  Co  Co0  1  0.62205100  0.25128700  0.24428100  1
  Co  Co1  1  0.37794900  0.74871300  0.75571900  1
  Co  Co2  1  0.24789400  0.50052300  0.49795900  1
  Co  Co3  1  0.00000000  0.00000000  0.00000000  1
  Co  Co4  1  0.75210600  0.49947700  0.50204100  1
  O  O0  1  0.15173500  0.79254000  0.56689800  1
  O  O1  1  0.91932500  0.29512900  0.08111900  1
  O  O2  1  0.66684200  0.79422100  0.58336200  1
  O  O3  1  0.01338700  0.54808300  0.31849400  1
  O  O4  1  0.78463100  0.04563500  0.80849300  1
  O  O5  1  0.52042000  0.54365200  0.32014500  1
  O  O6  1  0.38677400  0.31498000  0.07300400  1
  O  O7  1  0.26763100  0.03657800  0.81720600  1
  O  O8  1  0.73236900  0.96342200  0.18279400  1
  O  O9  1  0.47958000  0.45634800  0.67985500  1
  O  O10  1  0.21536900  0.95436500  0.19150700  1
  O  O11  1  0.61322600  0.68502000  0.92699600  1
  O  O12  1  0.33315800  0.20577900  0.41663800  1
  O  O13  1  0.08067500  0.70487100  0.91888100  1
  O  O14  1  0.98661300  0.45191700  0.68150600  1
  O  O15  1  0.84826500  0.20746000  0.43310200  1
loop_
_geom_bond_atom_site_label_1
_geom_bond_atom_site_label_2
_geom_bond_distance
_geom_bond_site_symmetry_2
Li0 O10 2.000836 1_655
Li0 O3 2.111104 1_655
Li0 O8 2.123106 1_555
Li0 O15 2.136117 1_565
Li0 O2 2.156907 1_555
Li0 O0 2.170444 1_655
Li1 O11 2.048549 1_555
Li1 O6 2.076364 1_556
Li1 O4 2.086799 1_555
Li1 O9 2.130853 1_555
Li1 O14 2.231395 1_555
Li1 O1 2.360634 1_556
Li2 O10 2.047633 1_555
Li2 O5 2.111717 1_555
Li2 O12 2.117772 1_565
Li2 O0 2.127007 1_555
Li2 O8 2.154496 1_555
Li2 O2 2.426431 1_555
Li3 O11 2.084771 1_554
Li3 O13 2.112259 1_654
Li3 O5 2.130093 1_555
Li3 O8 2.140837 1_555
Li3 O1 2.146945 1_555
Li3 O3 2.171959 1_655
Li4 O4 2.047633 1_555
Li4 O9 2.111717 1_555
Li4 O2 2.117772 1_545
Li4 O15 2.127007 1_555
Li4 O7 2.154496 1_555
Li4 O12 2.426431 1_555
Li5 O6 2.048549 1_555
Li5 O11 2.076364 1_554
Li5 O10 2.086799 1_555
Li5 O5 2.130853 1_555
Li5 O3 2.231395 1_555
Li5 O13 2.360634 1_554
Li6 O6 2.084771 1_556
Li6 O1 2.112259 1_456
Li6 O9 2.130093 1_555
Li6 O7 2.140837 1_555
Li6 O13 2.146945 1_555
Li6 O14 2.171959 1_455
Li7 O4 2.000836 1_455
Li7 O14 2.111104 1_455
Li7 O7 2.123106 1_555
Li7 O0 2.136117 1_545
Li7 O12 2.156907 1_555
Li7 O15 2.170444 1_455
Li8 O4 2.025692 1_554
Li8 O10 2.025692 1_545
Li8 O6 2.061633 1_555
Li8 O11 2.061633 1_544
Li8 O7 2.185071 1_554
Li8 O8 2.185071 1_545
Mn0 O4 1.884902 1_565
Mn0 O11 1.886698 1_555
Mn0 O13 1.958972 1_655
Mn0 O14 1.981657 1_555
Mn0 O0 1.982883 1_655
Mn0 O2 1.987163 1_555
Mn1 O10 1.884902 1_545
Mn1 O6 1.886698 1_555
Mn1 O1 1.958972 1_455
Mn1 O3 1.981657 1_555
Mn1 O15 1.982883 1_455
Mn1 O12 1.987163 1_555
Co0 O8 1.875537 1_545
Co0 O5 1.931246 1_555
Co0 O12 1.967750 1_555
Co0 O1 1.969157 1_555
Co0 O6 2.119265 1_555
Co0 O15 2.193017 1_555
Co1 O7 1.875537 1_565
Co1 O9 1.931246 1_555
Co1 O2 1.967750 1_555
Co1 O13 1.969157 1_555
Co1 O11 2.119265 1_555
Co1 O0 2.193017 1_555
Co2 O14 1.905017 1_455
Co2 O0 1.913091 1_555
Co2 O5 1.915625 1_555
Co2 O12 1.960490 1_555
Co2 O3 2.169189 1_555
Co2 O9 2.172973 1_555
Co3 O8 1.905198 1_445
Co3 O7 1.905198 1_554
Co3 O1 1.963633 1_455
Co3 O13 1.963633 1_544
Co3 O10 2.162806 1_545
Co3 O4 2.162806 1_454
Co4 O3 1.905017 1_655
Co4 O15 1.913091 1_555
Co4 O9 1.915625 1_555
Co4 O2 1.960490 1_555
Co4 O14 2.169189 1_555
Co4 O5 2.172973 1_555
