# generated using pymatgen
data_Dy3Ru2
_symmetry_space_group_name_H-M   'P 1'
_cell_length_a   4.75265100
_cell_length_b   7.58293308
_cell_length_c   7.58293272
_cell_angle_alpha   119.99999914
_cell_angle_beta   90.00000000
_cell_angle_gamma   90.00000000
_symmetry_Int_Tables_number   1
_chemical_formula_structural   Dy3Ru2
_chemical_formula_sum   'Dy6 Ru4'
_cell_volume   236.66878746
_cell_formula_units_Z   2
loop_
 _symmetry_equiv_pos_site_id
 _symmetry_equiv_pos_as_xyz
  1  'x, y, z'
loop_
 _atom_site_type_symbol
 _atom_site_label
 _atom_site_symmetry_multiplicity
 _atom_site_fract_x
 _atom_site_fract_y
 _atom_site_fract_z
 _atom_site_occupancy
  Dy  Dy0  1  0.75000000  0.61674900  0.69559900  1
  Dy  Dy1  1  0.25000000  0.38325100  0.30440100  1
  Dy  Dy2  1  0.75000000  0.07885000  0.38325100  1
  Dy  Dy3  1  0.25000000  0.92115000  0.61674900  1
  Dy  Dy4  1  0.75000000  0.30440100  0.92115000  1
  Dy  Dy5  1  0.25000000  0.69559900  0.07885000  1
  Ru  Ru0  1  0.75000000  0.66666700  0.33333300  1
  Ru  Ru1  1  0.25000000  0.33333300  0.66666700  1
  Ru  Ru2  1  0.00000000  0.00000000  0.00000000  1
  Ru  Ru3  1  0.50000000  0.00000000  0.00000000  1
loop_
_geom_bond_atom_site_label_1
_geom_bond_atom_site_label_2
_geom_bond_distance
_geom_bond_site_symmetry_2
Dy0 Ru2 2.911597 1_666
Dy0 Ru3 2.911597 1_566
Dy0 Ru0 2.954543 1_555
Dy0 Ru1 3.137243 1_655
Dy0 Ru1 3.137243 1_555
Dy1 Ru2 2.911597 1_555
Dy1 Ru3 2.911597 1_555
Dy1 Ru1 2.954543 1_555
Dy1 Ru0 3.137243 1_555
Dy1 Ru0 3.137243 1_455
Dy2 Ru3 2.911597 1_555
Dy2 Ru2 2.911597 1_655
Dy2 Ru0 2.954536 1_545
Dy2 Ru1 3.137241 1_655
Dy2 Ru1 3.137241 1_555
Dy3 Ru2 2.911597 1_566
Dy3 Ru3 2.911597 1_566
Dy3 Ru1 2.954536 1_565
Dy3 Ru0 3.137241 1_555
Dy3 Ru0 3.137241 1_455
Dy4 Ru3 2.911597 1_556
Dy4 Ru2 2.911597 1_656
Dy4 Ru0 2.954539 1_556
Dy4 Ru1 3.137238 1_555
Dy4 Ru1 3.137238 1_655
Dy5 Ru2 2.911597 1_565
Dy5 Ru3 2.911597 1_565
Dy5 Ru1 2.954539 1_554
Dy5 Ru0 3.137238 1_455
Dy5 Ru0 3.137238 1_555
Ru2 Ru3 2.376326 1_455
Ru2 Ru3 2.376326 1_555
