# generated using pymatgen
data_HfCrAgS4
_symmetry_space_group_name_H-M   'P 1'
_cell_length_a   11.34455700
_cell_length_b   3.59526900
_cell_length_c   13.19479700
_cell_angle_alpha   90.00000000
_cell_angle_beta   90.00000000
_cell_angle_gamma   90.00000000
_symmetry_Int_Tables_number   1
_chemical_formula_structural   HfCrAgS4
_chemical_formula_sum   'Hf4 Cr4 Ag4 S16'
_cell_volume   538.17267675
_cell_formula_units_Z   4
loop_
 _symmetry_equiv_pos_site_id
 _symmetry_equiv_pos_as_xyz
  1  'x, y, z'
loop_
 _atom_site_type_symbol
 _atom_site_label
 _atom_site_symmetry_multiplicity
 _atom_site_fract_x
 _atom_site_fract_y
 _atom_site_fract_z
 _atom_site_occupancy
  Hf  Hf0  1  0.95323100  0.75000000  0.88568900  1
  Hf  Hf1  1  0.54676900  0.25000000  0.38568900  1
  Hf  Hf2  1  0.92828700  0.75000000  0.41181600  1
  Hf  Hf3  1  0.57171300  0.25000000  0.91181600  1
  Cr  Cr0  1  0.06203000  0.25000000  0.11019700  1
  Cr  Cr1  1  0.43797000  0.75000000  0.61019700  1
  Cr  Cr2  1  0.09208600  0.25000000  0.59454500  1
  Cr  Cr3  1  0.40791400  0.75000000  0.09454500  1
  Ag  Ag0  1  0.24391700  0.25000000  0.30958900  1
  Ag  Ag1  1  0.74709900  0.75000000  0.66637400  1
  Ag  Ag2  1  0.25608300  0.75000000  0.80958900  1
  Ag  Ag3  1  0.75290100  0.25000000  0.16637400  1
  S  S0  1  0.04535600  0.75000000  0.71021100  1
  S  S1  1  0.97737700  0.25000000  0.28547200  1
  S  S2  1  0.45464400  0.25000000  0.21021100  1
  S  S3  1  0.52262300  0.75000000  0.78547200  1
  S  S4  1  0.09943400  0.25000000  0.93226900  1
  S  S5  1  0.91928300  0.75000000  0.07633100  1
  S  S6  1  0.40056600  0.75000000  0.43226900  1
  S  S7  1  0.58071700  0.25000000  0.57633100  1
  S  S8  1  0.13133500  0.75000000  0.47824600  1
  S  S9  1  0.88390300  0.25000000  0.54301400  1
  S  S10  1  0.36866500  0.25000000  0.97824600  1
  S  S11  1  0.61609700  0.75000000  0.04301400  1
  S  S12  1  0.19986600  0.75000000  0.14970900  1
  S  S13  1  0.79727200  0.25000000  0.84653700  1
  S  S14  1  0.30013400  0.25000000  0.64970900  1
  S  S15  1  0.70272800  0.75000000  0.34653700  1
loop_
_geom_bond_atom_site_label_1
_geom_bond_atom_site_label_2
_geom_bond_distance
_geom_bond_site_symmetry_2
Hf0 S4 2.521948 1_655
Hf0 S4 2.521948 1_665
Hf0 S0 2.540341 1_655
Hf0 S5 2.544793 1_556
Hf0 S13 2.574634 1_565
Hf0 S13 2.574634 1_555
Hf1 S6 2.521948 1_555
Hf1 S6 2.521948 1_545
Hf1 S2 2.540341 1_555
Hf1 S7 2.544793 1_555
Hf1 S15 2.574634 1_545
Hf1 S15 2.574634 1_555
Hf2 S8 2.464624 1_655
Hf2 S1 2.514120 1_555
Hf2 S1 2.514120 1_565
Hf2 S9 2.545945 1_555
Hf2 S9 2.545945 1_565
Hf2 S15 2.699947 1_555
Hf3 S10 2.464624 1_555
Hf3 S3 2.514120 1_545
Hf3 S3 2.514120 1_555
Hf3 S11 2.545945 1_556
Hf3 S11 2.545945 1_546
Hf3 S13 2.699947 1_555
Cr0 S4 2.385763 1_554
Cr0 S12 2.438938 1_555
Cr0 S12 2.438938 1_545
Cr0 S5 2.460413 1_455
Cr0 S5 2.460413 1_445
Cr0 S1 2.504184 1_455
Cr1 S6 2.385763 1_555
Cr1 S14 2.438938 1_565
Cr1 S14 2.438938 1_555
Cr1 S7 2.460413 1_565
Cr1 S7 2.460413 1_555
Cr1 S3 2.504184 1_555
Cr2 S8 2.405113 1_545
Cr2 S8 2.405113 1_555
Cr2 S0 2.416978 1_545
Cr2 S0 2.416978 1_555
Cr2 S9 2.457673 1_455
Cr2 S14 2.469901 1_555
Cr3 S10 2.405113 1_554
Cr3 S10 2.405113 1_564
Cr3 S2 2.416978 1_565
Cr3 S2 2.416978 1_555
Cr3 S11 2.457673 1_555
Cr3 S12 2.469901 1_555
Ag0 S2 2.726614 1_555
Ag0 S12 2.816305 1_555
Ag0 S12 2.816305 1_545
Ag0 S6 3.001655 1_555
Ag0 S6 3.001655 1_545
Ag0 S1 3.040477 1_455
Ag0 S8 3.132905 1_545
Ag0 S8 3.132905 1_555
Ag1 S7 2.864584 1_555
Ag1 S7 2.864584 1_565
Ag1 S9 2.879162 1_555
Ag1 S9 2.879162 1_565
Ag1 S3 2.992424 1_555
Ag1 S13 3.034240 1_555
Ag1 S13 3.034240 1_565
Ag2 S0 2.726614 1_555
Ag2 S14 2.816305 1_565
Ag2 S14 2.816305 1_555
Ag2 S4 3.001655 1_555
Ag2 S4 3.001655 1_565
Ag2 S3 3.040477 1_555
Ag2 S10 3.132905 1_565
Ag2 S10 3.132905 1_555
Ag3 S5 2.864584 1_545
Ag3 S5 2.864584 1_555
Ag3 S11 2.879162 1_555
Ag3 S11 2.879162 1_545
Ag3 S1 2.992424 1_555
Ag3 S15 3.034240 1_555
Ag3 S15 3.034240 1_545
