# generated using pymatgen
data_Ca2TaWO6
_symmetry_space_group_name_H-M   'P 1'
_cell_length_a   5.75036100
_cell_length_b   5.57214400
_cell_length_c   9.74665312
_cell_angle_alpha   55.11154159
_cell_angle_beta   90.00000000
_cell_angle_gamma   90.00000000
_symmetry_Int_Tables_number   1
_chemical_formula_structural   Ca2TaWO6
_chemical_formula_sum   'Ca4 Ta2 W2 O12'
_cell_volume   256.16998925
_cell_formula_units_Z   2
loop_
 _symmetry_equiv_pos_site_id
 _symmetry_equiv_pos_as_xyz
  1  'x, y, z'
loop_
 _atom_site_type_symbol
 _atom_site_label
 _atom_site_symmetry_multiplicity
 _atom_site_fract_x
 _atom_site_fract_y
 _atom_site_fract_z
 _atom_site_occupancy
  Ca  Ca0  1  0.05116900  0.26086400  0.75170600  1
  Ca  Ca1  1  0.55116900  0.73913600  0.74829400  1
  Ca  Ca2  1  0.94883100  0.73913600  0.24829400  1
  Ca  Ca3  1  0.44883100  0.26086400  0.25170600  1
  Ta  Ta0  1  0.00000000  0.50000000  0.00000000  1
  Ta  Ta1  1  0.50000000  0.50000000  0.50000000  1
  W  W0  1  0.00000000  0.00000000  0.50000000  1
  W  W1  1  0.50000000  0.00000000  0.00000000  1
  O  O0  1  0.30886000  0.74020900  0.55110100  1
  O  O1  1  0.80886000  0.25979100  0.94889900  1
  O  O2  1  0.69114000  0.25979100  0.44889900  1
  O  O3  1  0.19114000  0.74020900  0.05110100  1
  O  O4  1  0.21151600  0.36993700  0.44292300  1
  O  O5  1  0.71151600  0.63006300  0.05707700  1
  O  O6  1  0.78848400  0.63006300  0.55707700  1
  O  O7  1  0.28848400  0.36993700  0.94292300  1
  O  O8  1  0.46292400  0.15761400  0.73964200  1
  O  O9  1  0.96292400  0.84238600  0.76035800  1
  O  O10  1  0.03707600  0.15761400  0.23964200  1
  O  O11  1  0.53707600  0.84238600  0.26035800  1
loop_
_geom_bond_atom_site_label_1
_geom_bond_atom_site_label_2
_geom_bond_distance
_geom_bond_site_symmetry_2
Ca0 O9 2.340309 1_445
Ca0 O1 2.371145 1_455
Ca0 O6 2.376574 1_455
Ca0 O8 2.455281 1_555
Ca0 O7 2.645922 1_555
Ca0 O0 2.679297 1_555
Ca0 O3 2.809849 1_546
Ca0 O4 2.860907 1_555
Ca1 O8 2.340309 1_565
Ca1 O0 2.371145 1_555
Ca1 O7 2.376574 1_555
Ca1 O9 2.455281 1_555
Ca1 O6 2.645922 1_555
Ca1 O1 2.679297 1_555
Ca1 O2 2.809849 1_565
Ca1 O5 2.860907 1_556
Ca2 O10 2.340309 1_665
Ca2 O3 2.371145 1_655
Ca2 O4 2.376574 1_655
Ca2 O11 2.455281 1_555
Ca2 O5 2.645922 1_555
Ca2 O2 2.679297 1_555
Ca2 O1 2.809849 1_564
Ca2 O6 2.860907 1_555
Ca3 O11 2.340309 1_545
Ca3 O2 2.371145 1_555
Ca3 O5 2.376574 1_555
Ca3 O10 2.455281 1_555
Ca3 O4 2.645922 1_555
Ca3 O3 2.679297 1_555
Ca3 O0 2.809849 1_545
Ca3 O7 2.860907 1_554
O0 Ta1 2.002570 1_555
O0 W0 2.161754 1_565
O1 Ta0 2.002570 1_656
O1 W1 2.161754 1_556
O2 Ta1 2.002570 1_555
O2 W0 2.161754 1_655
O3 Ta0 2.002570 1_555
O3 W1 2.161754 1_565
O4 Ta1 2.011923 1_555
O4 W0 2.173971 1_555
O5 Ta0 2.011923 1_655
O5 W1 2.173971 1_565
O6 Ta1 2.011923 1_555
O6 W0 2.173971 1_665
O7 Ta0 2.011923 1_556
O7 W1 2.173971 1_556
O8 Ta1 2.010758 1_555
O8 W1 2.169513 1_556
O9 Ta0 2.010758 1_656
O9 W0 2.169513 1_665
O10 Ta0 2.010758 1_555
O10 W0 2.169513 1_555
O11 Ta1 2.010758 1_555
O11 W1 2.169513 1_565
