# generated using pymatgen
data_EuAs3
_symmetry_space_group_name_H-M   'P 1'
_cell_length_a   5.88373100
_cell_length_b   6.00445672
_cell_length_c   6.07218136
_cell_angle_alpha   79.23233512
_cell_angle_beta   71.06571066
_cell_angle_gamma   75.54119388
_symmetry_Int_Tables_number   1
_chemical_formula_structural   EuAs3
_chemical_formula_sum   'Eu2 As6'
_cell_volume   195.17195718
_cell_formula_units_Z   2
loop_
 _symmetry_equiv_pos_site_id
 _symmetry_equiv_pos_as_xyz
  1  'x, y, z'
loop_
 _atom_site_type_symbol
 _atom_site_label
 _atom_site_symmetry_multiplicity
 _atom_site_fract_x
 _atom_site_fract_y
 _atom_site_fract_z
 _atom_site_occupancy
  Eu  Eu0  1  0.66005600  0.67811000  0.64810700  1
  Eu  Eu1  1  0.33994400  0.32189000  0.35189300  1
  As  As0  1  0.77756000  0.00445500  0.02090100  1
  As  As1  1  0.22244000  0.99554500  0.97909900  1
  As  As2  1  0.18842800  0.85773500  0.40385800  1
  As  As3  1  0.81157200  0.14226500  0.59614200  1
  As  As4  1  0.78536600  0.58150600  0.11849000  1
  As  As5  1  0.21463400  0.41849400  0.88151000  1
loop_
_geom_bond_atom_site_label_1
_geom_bond_atom_site_label_2
_geom_bond_distance
_geom_bond_site_symmetry_2
As0 As4 2.489945 1_545
As0 As3 2.515426 1_554
As0 As1 2.534333 1_644
As0 Eu1 3.150294 1_555
As1 As5 2.489945 1_565
As1 As2 2.515426 1_556
As1 Eu0 3.150294 1_555
As2 As3 2.524300 1_465
As2 Eu1 3.064510 1_565
As2 Eu1 3.163984 1_555
As2 Eu0 3.333469 1_455
As2 Eu0 3.412005 1_555
As3 Eu0 3.064510 1_545
As3 Eu0 3.163984 1_555
As3 Eu1 3.333469 1_655
As3 Eu1 3.412005 1_555
As4 As5 2.518137 1_654
As4 Eu0 3.093906 1_554
As4 Eu1 3.179793 1_555
As4 Eu0 3.188569 1_555
As5 Eu1 3.093906 1_556
As5 Eu0 3.179793 1_555
As5 Eu1 3.188569 1_555
