# generated using pymatgen
data_Sr4Fe4O13
_symmetry_space_group_name_H-M   'P 1'
_cell_length_a   5.04135600
_cell_length_b   10.32968900
_cell_length_c   12.48201265
_cell_angle_alpha   114.44269631
_cell_angle_beta   101.65071085
_cell_angle_gamma   90.00000000
_symmetry_Int_Tables_number   1
_chemical_formula_structural   Sr4Fe4O13
_chemical_formula_sum   'Sr8 Fe8 O26'
_cell_volume   577.00938738
_cell_formula_units_Z   2
loop_
 _symmetry_equiv_pos_site_id
 _symmetry_equiv_pos_as_xyz
  1  'x, y, z'
loop_
 _atom_site_type_symbol
 _atom_site_label
 _atom_site_symmetry_multiplicity
 _atom_site_fract_x
 _atom_site_fract_y
 _atom_site_fract_z
 _atom_site_occupancy
  Sr  Sr0  1  0.14365500  0.02255500  0.30025400  1
  Sr  Sr1  1  0.84340100  0.97744500  0.69974600  1
  Sr  Sr2  1  0.64365500  0.27770000  0.30025400  1
  Sr  Sr3  1  0.34340100  0.72230000  0.69974600  1
  Sr  Sr4  1  0.32412800  0.21207900  0.67636600  1
  Sr  Sr5  1  0.64776200  0.78792100  0.32363400  1
  Sr  Sr6  1  0.82412800  0.46428800  0.67636600  1
  Sr  Sr7  1  0.14776200  0.53571200  0.32363400  1
  Fe  Fe0  1  0.52176100  0.09765100  0.92914300  1
  Fe  Fe1  1  0.59261800  0.90234900  0.07085700  1
  Fe  Fe2  1  0.02176100  0.83149200  0.92914300  1
  Fe  Fe3  1  0.09261800  0.16850800  0.07085700  1
  Fe  Fe4  1  0.06930700  0.65088300  0.09685500  1
  Fe  Fe5  1  0.97245200  0.34911700  0.90314500  1
  Fe  Fe6  1  0.56930700  0.44597200  0.09685500  1
  Fe  Fe7  1  0.47245200  0.55402900  0.90314500  1
  O  O0  1  0.37337600  0.00555700  0.76332800  1
  O  O1  1  0.61004800  0.99444300  0.23667200  1
  O  O2  1  0.87337600  0.75777100  0.76332800  1
  O  O3  1  0.11004800  0.24222900  0.23667200  1
  O  O4  1  0.12375200  0.74848000  0.26568400  1
  O  O5  1  0.85806800  0.25152000  0.73431600  1
  O  O6  1  0.62375200  0.51720400  0.26568400  1
  O  O7  1  0.35806800  0.48279600  0.73431600  1
  O  O8  1  0.51944600  0.69927000  0.51037400  1
  O  O9  1  0.00907100  0.30073000  0.48962600  1
  O  O10  1  0.01944600  0.81110500  0.51037400  1
  O  O11  1  0.50907100  0.18889500  0.48962600  1
  O  O12  1  0.51147000  0.05459700  0.49042200  1
  O  O13  1  0.02104800  0.94540300  0.50957800  1
  O  O14  1  0.01147000  0.43582500  0.49042200  1
  O  O15  1  0.52104800  0.56417500  0.50957800  1
  O  O16  1  0.88452100  0.17777200  0.92184500  1
  O  O17  1  0.96267600  0.82222800  0.07815500  1
  O  O18  1  0.38452100  0.74407300  0.92184500  1
  O  O19  1  0.46267600  0.25592700  0.07815500  1
  O  O20  1  0.37598800  0.37050200  0.91246800  1
  O  O21  1  0.46352000  0.62949800  0.08753200  1
  O  O22  1  0.87598800  0.54196600  0.91246800  1
  O  O23  1  0.96352000  0.45803400  0.08753200  1
  O  O24  1  0.78773200  0.00000000  0.00000000  1
  O  O25  1  0.28773200  0.00000000  0.00000000  1
loop_
_geom_bond_atom_site_label_1
_geom_bond_atom_site_label_2
_geom_bond_distance
_geom_bond_site_symmetry_2
Fe0 O0 1.869095 1_555
Fe0 O24 1.963908 1_556
Fe0 O19 1.982028 1_556
Fe0 O16 2.041435 1_555
Fe0 O25 2.086013 1_556
Fe1 O1 1.869095 1_555
Fe1 O24 1.963908 1_565
Fe1 O18 1.982028 1_554
Fe1 O17 2.041435 1_555
Fe1 O25 2.086013 1_565
Fe2 O2 1.869095 1_455
Fe2 O25 1.963908 1_566
Fe2 O17 1.982027 1_456
Fe2 O18 2.041435 1_555
Fe2 O24 2.086013 1_466
Fe3 O3 1.869095 1_555
Fe3 O25 1.963908 1_555
Fe3 O16 1.982027 1_454
Fe3 O19 2.041435 1_555
Fe3 O24 2.086013 1_455
Fe4 O4 1.881687 1_555
Fe4 O17 1.940969 1_455
Fe4 O23 2.012311 1_455
Fe4 O21 2.020917 1_555
Fe4 O22 2.112769 1_454
Fe5 O5 1.881687 1_555
Fe5 O16 1.940969 1_555
Fe5 O22 2.012311 1_555
Fe5 O20 2.020917 1_655
Fe5 O23 2.112769 1_556
Fe6 O6 1.881687 1_555
Fe6 O19 1.940969 1_555
Fe6 O21 2.012311 1_555
Fe6 O23 2.020917 1_555
Fe6 O20 2.112769 1_554
Fe7 O7 1.881686 1_555
Fe7 O18 1.940959 1_555
Fe7 O20 2.012321 1_555
Fe7 O22 2.020918 1_555
Fe7 O21 2.112770 1_556
O0 Sr1 2.608738 1_445
O0 Sr1 2.626371 1_545
O0 Sr3 2.691422 1_545
O0 Sr4 2.756511 1_555
O1 Sr0 2.608738 1_565
O1 Sr0 2.626371 1_665
O1 Sr2 2.691422 1_565
O1 Sr5 2.756511 1_555
O2 Sr3 2.608738 1_555
O2 Sr3 2.626371 1_655
O2 Sr1 2.691412 1_555
O2 Sr6 2.756502 1_555
O3 Sr2 2.608738 1_455
O3 Sr2 2.626371 1_555
O3 Sr0 2.691412 1_555
O3 Sr7 2.756502 1_555
O4 Sr7 2.578483 1_555
O4 Sr5 2.579193 1_555
O4 Sr5 2.627662 1_455
O4 Sr0 2.680107 1_565
O5 Sr6 2.578483 1_555
O5 Sr4 2.579193 1_655
O5 Sr4 2.627662 1_555
O5 Sr1 2.680107 1_545
O6 Sr5 2.578473 1_555
O6 Sr7 2.579193 1_655
O6 Sr7 2.627663 1_555
O6 Sr2 2.680097 1_555
O7 Sr4 2.578473 1_555
O7 Sr6 2.579193 1_555
O7 Sr6 2.627663 1_455
O7 Sr3 2.680097 1_555
O8 Sr7 2.602988 1_555
O8 Sr3 2.610265 1_555
O8 Sr5 3.010899 1_555
O8 Sr1 3.054703 1_555
O9 Sr6 2.602985 1_455
O9 Sr2 2.610262 1_455
O9 Sr4 3.010900 1_555
O9 Sr0 3.054705 1_555
O10 O13 1.391432 1_555
O10 Sr5 2.602982 1_455
O10 Sr1 2.610259 1_455
O10 Sr7 3.010912 1_555
O10 Sr3 3.054715 1_555
O11 O12 1.391432 1_555
O11 Sr4 2.602979 1_555
O11 Sr0 2.610256 1_555
O11 Sr6 3.010913 1_555
O11 Sr2 3.054717 1_555
O12 Sr4 2.585713 1_555
O12 Sr0 2.598921 1_555
O12 Sr5 2.868144 1_545
O12 Sr1 3.196769 1_545
O13 Sr5 2.585713 1_455
O13 Sr1 2.598921 1_455
O13 Sr4 2.868144 1_565
O13 Sr0 3.196769 1_565
O14 O9 1.391443 1_555
O14 Sr6 2.585710 1_455
O14 Sr2 2.598919 1_455
O14 Sr7 2.868137 1_555
O14 Sr3 3.196763 1_555
O15 O8 1.391443 1_555
O15 Sr7 2.585710 1_555
O15 Sr3 2.598919 1_555
O15 Sr6 2.868137 1_555
O15 Sr2 3.196763 1_555
O16 Sr1 2.651567 1_545
O17 Sr0 2.651567 1_665
O18 Sr3 2.651563 1_555
O19 Sr2 2.651563 1_555
O20 Sr4 2.670027 1_555
O21 Sr5 2.670027 1_555
O22 Sr6 2.670028 1_555
O23 Sr7 2.670028 1_655
