# generated using pymatgen
data_SrCr10O15
_symmetry_space_group_name_H-M   'P 1'
_cell_length_a   7.83858530
_cell_length_b   7.83858530
_cell_length_c   9.54359800
_cell_angle_alpha   90.00000000
_cell_angle_beta   90.00000000
_cell_angle_gamma   96.27240412
_symmetry_Int_Tables_number   1
_chemical_formula_structural   SrCr10O15
_chemical_formula_sum   'Sr2 Cr20 O30'
_cell_volume   582.88097641
_cell_formula_units_Z   2
loop_
 _symmetry_equiv_pos_site_id
 _symmetry_equiv_pos_as_xyz
  1  'x, y, z'
loop_
 _atom_site_type_symbol
 _atom_site_label
 _atom_site_symmetry_multiplicity
 _atom_site_fract_x
 _atom_site_fract_y
 _atom_site_fract_z
 _atom_site_occupancy
  Sr  Sr0  1  0.50000000  0.50000000  0.50000000  1
  Sr  Sr1  1  0.00000000  0.00000000  0.00000000  1
  Cr  Cr0  1  0.81485300  0.81485300  0.63412100  1
  Cr  Cr1  1  0.68514700  0.68514700  0.13412100  1
  Cr  Cr2  1  0.31485300  0.31485300  0.86587900  1
  Cr  Cr3  1  0.18514700  0.18514700  0.36587900  1
  Cr  Cr4  1  0.79008200  0.04409900  0.35445000  1
  Cr  Cr5  1  0.70991800  0.45590100  0.85445000  1
  Cr  Cr6  1  0.54409900  0.29008200  0.14555000  1
  Cr  Cr7  1  0.95590100  0.20991800  0.64555000  1
  Cr  Cr8  1  0.20991800  0.95590100  0.64555000  1
  Cr  Cr9  1  0.29008200  0.54409900  0.14555000  1
  Cr  Cr10  1  0.45590100  0.70991800  0.85445000  1
  Cr  Cr11  1  0.04409900  0.79008200  0.35445000  1
  Cr  Cr12  1  0.91877700  0.40627200  0.11413000  1
  Cr  Cr13  1  0.58122300  0.09372800  0.61413000  1
  Cr  Cr14  1  0.90627200  0.41877700  0.38587000  1
  Cr  Cr15  1  0.59372800  0.08122300  0.88587000  1
  Cr  Cr16  1  0.08122300  0.59372800  0.88587000  1
  Cr  Cr17  1  0.41877700  0.90627200  0.38587000  1
  Cr  Cr18  1  0.09372800  0.58122300  0.61413000  1
  Cr  Cr19  1  0.40627200  0.91877700  0.11413000  1
  O  O0  1  0.00000000  0.00000000  0.50000000  1
  O  O1  1  0.50000000  0.50000000  0.00000000  1
  O  O2  1  0.75420000  0.24580000  0.50000000  1
  O  O3  1  0.74580000  0.25420000  0.00000000  1
  O  O4  1  0.24580000  0.75420000  0.50000000  1
  O  O5  1  0.25420000  0.74580000  0.00000000  1
  O  O6  1  0.63838100  0.63838100  0.73087100  1
  O  O7  1  0.86161900  0.86161900  0.23087100  1
  O  O8  1  0.13838100  0.13838100  0.76912900  1
  O  O9  1  0.36161900  0.36161900  0.26912900  1
  O  O10  1  0.06492500  0.56492500  0.25000000  1
  O  O11  1  0.43507500  0.93507500  0.75000000  1
  O  O12  1  0.93507500  0.43507500  0.75000000  1
  O  O13  1  0.56492500  0.06492500  0.25000000  1
  O  O14  1  0.46074100  0.72302500  0.24153300  1
  O  O15  1  0.03925900  0.77697500  0.74153300  1
  O  O16  1  0.22302500  0.96074100  0.25846700  1
  O  O17  1  0.27697500  0.53925900  0.75846700  1
  O  O18  1  0.53925900  0.27697500  0.75846700  1
  O  O19  1  0.96074100  0.22302500  0.25846700  1
  O  O20  1  0.77697500  0.03925900  0.74153300  1
  O  O21  1  0.72302500  0.46074100  0.24153300  1
  O  O22  1  0.36317800  0.10388100  0.50706400  1
  O  O23  1  0.13682200  0.39611900  0.00706400  1
  O  O24  1  0.60388100  0.86317800  0.99293600  1
  O  O25  1  0.89611900  0.63682200  0.49293600  1
  O  O26  1  0.63682200  0.89611900  0.49293600  1
  O  O27  1  0.86317800  0.60388100  0.99293600  1
  O  O28  1  0.39611900  0.13682200  0.00706400  1
  O  O29  1  0.10388100  0.36317800  0.50706400  1
loop_
_geom_bond_atom_site_label_1
_geom_bond_atom_site_label_2
_geom_bond_distance
_geom_bond_site_symmetry_2
Cr0 O6 2.064323 1_555
Cr0 O20 2.085011 1_565
Cr0 O15 2.085011 1_655
Cr0 O25 2.088780 1_555
Cr0 O26 2.088780 1_555
Cr0 O0 2.321776 1_665
Cr1 O7 2.064323 1_555
Cr1 O14 2.085011 1_555
Cr1 O21 2.085011 1_555
Cr1 O27 2.088780 1_554
Cr1 O24 2.088780 1_554
Cr1 O1 2.321776 1_555
Cr2 O8 2.064323 1_555
Cr2 O17 2.085011 1_555
Cr2 O18 2.085011 1_555
Cr2 O23 2.088780 1_556
Cr2 O28 2.088780 1_556
Cr2 O1 2.321776 1_556
Cr3 O9 2.064323 1_555
Cr3 O16 2.085011 1_545
Cr3 O19 2.085011 1_455
Cr3 O29 2.088780 1_555
Cr3 O22 2.088780 1_555
Cr3 O0 2.321776 1_555
Cr4 O7 1.981581 1_545
Cr4 O19 2.045903 1_555
Cr4 O13 2.048948 1_555
Cr4 O26 2.056937 1_545
Cr4 O2 2.146047 1_555
Cr4 O0 2.209261 1_655
Cr5 O6 1.981581 1_555
Cr5 O18 2.045903 1_555
Cr5 O12 2.048948 1_555
Cr5 O27 2.056937 1_555
Cr5 O3 2.146047 1_556
Cr5 O1 2.209261 1_556
Cr6 O9 1.981581 1_555
Cr6 O21 2.045903 1_555
Cr6 O13 2.048948 1_555
Cr6 O28 2.056937 1_555
Cr6 O3 2.146047 1_555
Cr6 O1 2.209261 1_555
Cr7 O8 1.981581 1_655
Cr7 O20 2.045903 1_555
Cr7 O12 2.048948 1_555
Cr7 O29 2.056937 1_655
Cr7 O2 2.146047 1_555
Cr7 O0 2.209261 1_655
Cr8 O8 1.981581 1_565
Cr8 O15 2.045903 1_555
Cr8 O11 2.048948 1_555
Cr8 O22 2.056937 1_565
Cr8 O4 2.146047 1_555
Cr8 O0 2.209261 1_565
Cr9 O9 1.981581 1_555
Cr9 O14 2.045903 1_555
Cr9 O10 2.048948 1_555
Cr9 O23 2.056937 1_555
Cr9 O5 2.146047 1_555
Cr9 O1 2.209261 1_555
Cr10 O6 1.981581 1_555
Cr10 O17 2.045903 1_555
Cr10 O11 2.048948 1_555
Cr10 O24 2.056937 1_555
Cr10 O5 2.146047 1_556
Cr10 O1 2.209261 1_556
Cr11 O7 1.981581 1_455
Cr11 O16 2.045903 1_555
Cr11 O10 2.048948 1_555
Cr11 O25 2.056937 1_455
Cr11 O4 2.146047 1_555
Cr11 O0 2.209261 1_565
Cr12 O23 2.000341 1_655
Cr12 O27 2.018553 1_554
Cr12 O3 2.023016 1_555
Cr12 O21 2.039182 1_555
Cr12 O19 2.042589 1_555
Cr12 O10 2.056467 1_655
Cr13 O22 2.000341 1_555
Cr13 O26 2.018553 1_545
Cr13 O2 2.023016 1_555
Cr13 O20 2.039182 1_555
Cr13 O18 2.042589 1_555
Cr13 O11 2.056467 1_545
Cr14 O25 2.000341 1_555
Cr14 O29 2.018553 1_655
Cr14 O2 2.023016 1_555
Cr14 O19 2.039182 1_555
Cr14 O21 2.042589 1_555
Cr14 O10 2.056467 1_655
Cr15 O24 2.000341 1_545
Cr15 O28 2.018553 1_556
Cr15 O3 2.023016 1_556
Cr15 O18 2.039182 1_555
Cr15 O20 2.042589 1_555
Cr15 O11 2.056467 1_545
Cr16 O27 2.000341 1_455
Cr16 O23 2.018553 1_556
Cr16 O5 2.023016 1_556
Cr16 O17 2.039182 1_555
Cr16 O15 2.042589 1_555
Cr16 O12 2.056467 1_455
Cr17 O26 2.000341 1_555
Cr17 O22 2.018553 1_565
Cr17 O4 2.023016 1_555
Cr17 O16 2.039182 1_555
Cr17 O14 2.042589 1_555
Cr17 O13 2.056467 1_565
Cr18 O29 2.000341 1_555
Cr18 O25 2.018553 1_455
Cr18 O4 2.023016 1_555
Cr18 O15 2.039182 1_555
Cr18 O17 2.042589 1_555
Cr18 O12 2.056467 1_455
Cr19 O28 2.000341 1_565
Cr19 O24 2.018553 1_554
Cr19 O5 2.023016 1_555
Cr19 O14 2.039182 1_555
Cr19 O16 2.042589 1_555
Cr19 O13 2.056467 1_565
O2 Sr0 2.967864 1_555
O3 Sr1 2.967864 1_655
O4 Sr0 2.967864 1_555
O5 Sr1 2.967864 1_565
O6 Sr0 2.636438 1_555
O7 Sr1 2.636438 1_665
O8 Sr1 2.636438 1_556
O9 Sr0 2.636438 1_555
O14 Sr0 3.058283 1_555
O15 Sr1 3.058283 1_566
O16 Sr1 3.058283 1_565
O17 Sr0 3.058283 1_555
O18 Sr0 3.058283 1_555
O19 Sr1 3.058283 1_655
O20 Sr1 3.058283 1_656
O21 Sr0 3.058283 1_555
O22 Sr0 3.173046 1_555
O23 Sr1 3.173046 1_555
O24 Sr1 3.173046 1_666
O25 Sr0 3.173046 1_555
O26 Sr0 3.173046 1_555
O27 Sr1 3.173046 1_666
O28 Sr1 3.173046 1_555
O29 Sr0 3.173046 1_555
