# generated using pymatgen
data_Y3Ge6N11
_symmetry_space_group_name_H-M   'P 1'
_cell_length_a   10.36962800
_cell_length_b   10.36962800
_cell_length_c   5.16525400
_cell_angle_alpha   90.00000000
_cell_angle_beta   90.00000000
_cell_angle_gamma   90.00000000
_symmetry_Int_Tables_number   1
_chemical_formula_structural   Y3Ge6N11
_chemical_formula_sum   'Y6 Ge12 N22'
_cell_volume   555.41555221
_cell_formula_units_Z   2
loop_
 _symmetry_equiv_pos_site_id
 _symmetry_equiv_pos_as_xyz
  1  'x, y, z'
loop_
 _atom_site_type_symbol
 _atom_site_label
 _atom_site_symmetry_multiplicity
 _atom_site_fract_x
 _atom_site_fract_y
 _atom_site_fract_z
 _atom_site_occupancy
  Y  Y0  1  0.31665500  0.81665500  0.96806600  1
  Y  Y1  1  0.68334500  0.18334500  0.96806600  1
  Y  Y2  1  0.18334500  0.31665500  0.96806600  1
  Y  Y3  1  0.81665500  0.68334500  0.96806600  1
  Y  Y4  1  0.50000000  0.50000000  0.96531000  1
  Y  Y5  1  0.00000000  0.00000000  0.96531000  1
  Ge  Ge0  1  0.41878000  0.29411200  0.52815100  1
  Ge  Ge1  1  0.58122000  0.70588800  0.52815100  1
  Ge  Ge2  1  0.08122000  0.79411200  0.52815100  1
  Ge  Ge3  1  0.91878000  0.20588800  0.52815100  1
  Ge  Ge4  1  0.29411200  0.58122000  0.52815100  1
  Ge  Ge5  1  0.70588800  0.41878000  0.52815100  1
  Ge  Ge6  1  0.79411200  0.91878000  0.52815100  1
  Ge  Ge7  1  0.20588800  0.08122000  0.52815100  1
  Ge  Ge8  1  0.87884300  0.37884300  0.04648300  1
  Ge  Ge9  1  0.12115700  0.62115700  0.04648300  1
  Ge  Ge10  1  0.62115700  0.87884300  0.04648300  1
  Ge  Ge11  1  0.37884300  0.12115700  0.04648300  1
  N  N0  1  0.31655700  0.42218000  0.67519000  1
  N  N1  1  0.68344300  0.57782000  0.67519000  1
  N  N2  1  0.18344300  0.92218000  0.67519000  1
  N  N3  1  0.81655700  0.07782000  0.67519000  1
  N  N4  1  0.42218000  0.68344300  0.67519000  1
  N  N5  1  0.57782000  0.31655700  0.67519000  1
  N  N6  1  0.92218000  0.81655700  0.67519000  1
  N  N7  1  0.07782000  0.18344300  0.67519000  1
  N  N8  1  0.41291100  0.28847800  0.16890600  1
  N  N9  1  0.58708900  0.71152200  0.16890600  1
  N  N10  1  0.08708900  0.78847800  0.16890600  1
  N  N11  1  0.91291100  0.21152200  0.16890600  1
  N  N12  1  0.28847800  0.58708900  0.16890600  1
  N  N13  1  0.71152200  0.41291100  0.16890600  1
  N  N14  1  0.78847800  0.91291100  0.16890600  1
  N  N15  1  0.21152200  0.08708900  0.16890600  1
  N  N16  1  0.84686400  0.34686400  0.69573600  1
  N  N17  1  0.15313600  0.65313600  0.69573600  1
  N  N18  1  0.65313600  0.84686400  0.69573600  1
  N  N19  1  0.34686400  0.15313600  0.69573600  1
  N  N20  1  0.50000000  0.00000000  0.09367400  1
  N  N21  1  0.00000000  0.50000000  0.09367400  1
loop_
_geom_bond_atom_site_label_1
_geom_bond_atom_site_label_2
_geom_bond_distance
_geom_bond_site_symmetry_2
Ge0 N5 1.830523 1_555
Ge0 N19 1.855394 1_555
Ge0 N8 1.857508 1_555
Ge0 N0 1.861207 1_555
Ge1 N4 1.830523 1_555
Ge1 N18 1.855394 1_555
Ge1 N9 1.857508 1_555
Ge1 N1 1.861207 1_555
Ge2 N6 1.830523 1_455
Ge2 N17 1.855394 1_555
Ge2 N10 1.857508 1_555
Ge2 N2 1.861207 1_555
Ge3 N7 1.830523 1_655
Ge3 N16 1.855394 1_555
Ge3 N11 1.857508 1_555
Ge3 N3 1.861207 1_555
Ge4 N0 1.830523 1_555
Ge4 N17 1.855394 1_555
Ge4 N12 1.857508 1_555
Ge4 N4 1.861207 1_555
Ge5 N1 1.830523 1_555
Ge5 N16 1.855394 1_555
Ge5 N13 1.857508 1_555
Ge5 N5 1.861207 1_555
Ge6 N3 1.830523 1_565
Ge6 N18 1.855394 1_555
Ge6 N14 1.857508 1_555
Ge6 N6 1.861207 1_555
Ge7 N2 1.830523 1_545
Ge7 N19 1.855394 1_555
Ge7 N15 1.857508 1_555
Ge7 N7 1.861207 1_555
Ge8 N21 1.793394 1_655
Ge8 N16 1.871411 1_554
Ge8 N13 1.880182 1_555
Ge8 N11 1.880182 1_555
Ge9 N21 1.793394 1_555
Ge9 N17 1.871411 1_554
Ge9 N12 1.880182 1_555
Ge9 N10 1.880182 1_555
Ge10 N20 1.793394 1_565
Ge10 N18 1.871411 1_554
Ge10 N9 1.880182 1_555
Ge10 N14 1.880182 1_555
Ge11 N20 1.793394 1_555
Ge11 N19 1.871411 1_554
Ge11 N8 1.880182 1_555
Ge11 N15 1.880182 1_555
N0 Y2 2.322509 1_555
N0 Y4 2.552513 1_555
N1 Y3 2.322509 1_555
N1 Y4 2.552513 1_555
N2 Y0 2.322509 1_555
N2 Y5 2.552513 1_565
N3 Y1 2.322509 1_555
N3 Y5 2.552513 1_655
N4 Y0 2.322509 1_555
N4 Y4 2.552513 1_555
N5 Y1 2.322509 1_555
N5 Y4 2.552513 1_555
N6 Y3 2.322509 1_555
N6 Y5 2.552513 1_665
N7 Y2 2.322509 1_555
N7 Y5 2.552513 1_555
N8 Y4 2.594705 1_554
N8 Y2 2.613120 1_554
N9 Y4 2.594705 1_554
N9 Y3 2.613120 1_554
N10 Y5 2.594705 1_564
N10 Y0 2.613120 1_554
N11 Y5 2.594705 1_654
N11 Y1 2.613120 1_554
N12 Y4 2.594705 1_554
N12 Y0 2.613120 1_554
N13 Y4 2.594705 1_554
N13 Y1 2.613120 1_554
N14 Y5 2.594705 1_664
N14 Y3 2.613120 1_554
N15 Y5 2.594705 1_554
N15 Y2 2.613120 1_554
N20 Y1 2.765901 1_554
N20 Y0 2.765901 1_544
N21 Y2 2.765901 1_554
N21 Y3 2.765901 1_454
