# generated using pymatgen
data_Tl4Sn5S12
_symmetry_space_group_name_H-M   'P 1'
_cell_length_a   7.50399200
_cell_length_b   9.87483567
_cell_length_c   17.36787709
_cell_angle_alpha   104.99746001
_cell_angle_beta   90.12190294
_cell_angle_gamma   111.92491564
_symmetry_Int_Tables_number   1
_chemical_formula_structural   Tl4Sn5S12
_chemical_formula_sum   'Tl8 Sn10 S24'
_cell_volume   1146.19848277
_cell_formula_units_Z   2
loop_
 _symmetry_equiv_pos_site_id
 _symmetry_equiv_pos_as_xyz
  1  'x, y, z'
loop_
 _atom_site_type_symbol
 _atom_site_label
 _atom_site_symmetry_multiplicity
 _atom_site_fract_x
 _atom_site_fract_y
 _atom_site_fract_z
 _atom_site_occupancy
  Tl  Tl0  1  0.31260800  0.05964500  0.70198300  1
  Tl  Tl1  1  0.68739200  0.94035500  0.29801700  1
  Tl  Tl2  1  0.10140700  0.60788000  0.85466400  1
  Tl  Tl3  1  0.89859300  0.39212000  0.14533600  1
  Tl  Tl4  1  0.41740600  0.54022100  0.61265400  1
  Tl  Tl5  1  0.58259400  0.45977900  0.38734600  1
  Tl  Tl6  1  0.62462400  0.66057900  0.85683200  1
  Tl  Tl7  1  0.37537600  0.33942100  0.14316800  1
  Sn  Sn0  1  0.68314700  0.99187200  0.58249700  1
  Sn  Sn1  1  0.31685300  0.00812800  0.41750300  1
  Sn  Sn2  1  0.01777100  0.72634600  0.59724400  1
  Sn  Sn3  1  0.98222900  0.27365400  0.40275600  1
  Sn  Sn4  1  0.88446200  0.30181200  0.72998600  1
  Sn  Sn5  1  0.11553800  0.69818800  0.27001400  1
  Sn  Sn6  1  0.68758900  0.17984800  0.94751000  1
  Sn  Sn7  1  0.31241100  0.82015200  0.05249000  1
  Sn  Sn8  1  0.18471300  0.17719800  0.94212300  1
  Sn  Sn9  1  0.81528700  0.82280200  0.05787700  1
  S  S0  1  0.47158300  0.15418000  0.52190600  1
  S  S1  1  0.52841700  0.84582000  0.47809400  1
  S  S2  1  0.01213200  0.16200200  0.54555300  1
  S  S3  1  0.98786800  0.83799800  0.45444700  1
  S  S4  1  0.73051200  0.04113900  0.72150100  1
  S  S5  1  0.26948800  0.95886100  0.27849900  1
  S  S6  1  0.33036200  0.77047000  0.67282100  1
  S  S7  1  0.66963800  0.22953000  0.32717900  1
  S  S8  1  0.88197900  0.45879300  0.59270400  1
  S  S9  1  0.11802100  0.54120700  0.40729600  1
  S  S10  1  0.81043700  0.76884300  0.67068200  1
  S  S11  1  0.18956300  0.23115700  0.32931800  1
  S  S12  1  0.21046100  0.35416800  0.79813700  1
  S  S13  1  0.78953900  0.64583200  0.20186300  1
  S  S14  1  0.33742900  0.00624600  0.90801400  1
  S  S15  1  0.66257100  0.99375400  0.09198600  1
  S  S16  1  0.69342500  0.36054900  0.80325300  1
  S  S17  1  0.30657500  0.63945100  0.19674700  1
  S  S18  1  0.96189500  0.67162400  0.00798400  1
  S  S19  1  0.03810500  0.32837600  0.99201600  1
  S  S20  1  0.46995800  0.66191900  0.01685200  1
  S  S21  1  0.53004200  0.33808100  0.98314800  1
  S  S22  1  0.17035400  0.99443000  0.08759200  1
  S  S23  1  0.82964600  0.00557000  0.91240800  1
loop_
_geom_bond_atom_site_label_1
_geom_bond_atom_site_label_2
_geom_bond_distance
_geom_bond_site_symmetry_2
Sn2 Tl0 3.237721 1_565
Sn3 Tl1 3.237721 1_545
Sn4 Tl2 3.065505 1_655
Sn5 Tl3 3.065505 1_455
S0 Sn1 2.025615 1_555
S0 Sn0 2.993773 1_545
S1 Sn0 2.025615 1_555
S1 Sn1 2.993773 1_565
S2 Sn0 2.606917 1_445
S2 Sn3 3.002389 1_455
S3 Sn1 2.606917 1_665
S3 Sn2 3.002389 1_655
S4 Sn0 2.334682 1_545
S4 Sn4 2.358928 1_555
S5 Sn1 2.334682 1_565
S5 Sn5 2.358928 1_555
S6 Sn2 2.518464 1_555
S6 Tl4 2.563295 1_555
S6 Tl0 2.822114 1_565
S7 Sn3 2.518464 1_555
S7 Tl5 2.563295 1_555
S7 Tl1 2.822114 1_545
S8 Sn2 2.430285 1_655
S9 Sn3 2.430285 1_455
S10 Sn2 2.107731 1_655
S10 Tl4 2.940800 1_555
S11 Sn3 2.107731 1_455
S11 Tl5 2.940800 1_555
S12 Sn4 2.525692 1_455
S12 Tl2 2.858649 1_555
S13 Sn5 2.525692 1_655
S13 Tl3 2.858649 1_555
S14 Sn8 2.333232 1_555
S14 Sn6 2.516639 1_555
S15 Sn9 2.333232 1_555
S15 Sn7 2.516639 1_555
S16 Sn4 2.063347 1_555
S16 Tl2 3.067723 1_655
S16 Tl6 3.102868 1_555
S17 Sn5 2.063347 1_555
S17 Tl3 3.067723 1_455
S17 Tl7 3.102868 1_555
S18 Sn9 2.179646 1_555
S18 Sn7 2.488101 1_655
S18 Tl2 2.866954 1_654
S19 Sn8 2.179646 1_555
S19 Sn6 2.488101 1_455
S19 Tl3 2.866954 1_456
S20 Sn7 2.259278 1_555
S20 Sn9 2.465481 1_555
S20 Tl6 3.012865 1_554
S21 Sn6 2.259278 1_555
S21 Sn8 2.465481 1_555
S21 Tl7 3.012865 1_556
S22 Sn7 2.302065 1_555
S22 Sn9 2.531220 1_455
S22 Tl7 3.046670 1_565
S23 Sn6 2.302065 1_555
S23 Sn8 2.531220 1_655
S23 Tl6 3.046670 1_545
