# generated using pymatgen
data_ZnNi3C
_symmetry_space_group_name_H-M   'P 1'
_cell_length_a   3.76625300
_cell_length_b   3.76625300
_cell_length_c   3.76625300
_cell_angle_alpha   90.00000000
_cell_angle_beta   90.00000000
_cell_angle_gamma   90.00000000
_symmetry_Int_Tables_number   1
_chemical_formula_structural   ZnNi3C
_chemical_formula_sum   'Zn1 Ni3 C1'
_cell_volume   53.42302453
_cell_formula_units_Z   1
loop_
 _symmetry_equiv_pos_site_id
 _symmetry_equiv_pos_as_xyz
  1  'x, y, z'
loop_
 _atom_site_type_symbol
 _atom_site_label
 _atom_site_symmetry_multiplicity
 _atom_site_fract_x
 _atom_site_fract_y
 _atom_site_fract_z
 _atom_site_occupancy
  Zn  Zn0  1  0.00000000  0.00000000  0.00000000  1
  Ni  Ni0  1  0.00000000  0.50000000  0.50000000  1
  Ni  Ni1  1  0.50000000  0.50000000  0.00000000  1
  Ni  Ni2  1  0.50000000  0.00000000  0.50000000  1
  C  C0  1  0.50000000  0.50000000  0.50000000  1
loop_
_geom_bond_atom_site_label_1
_geom_bond_atom_site_label_2
_geom_bond_distance
_geom_bond_site_symmetry_2
Ni0 Zn0 2.663143 1_555
Ni0 Zn0 2.663143 1_556
Ni0 Zn0 2.663143 1_566
Ni0 Zn0 2.663143 1_565
Ni1 Zn0 2.663143 1_655
Ni1 Zn0 2.663143 1_555
Ni1 Zn0 2.663143 1_565
Ni1 Zn0 2.663143 1_665
Ni2 Zn0 2.663143 1_655
Ni2 Zn0 2.663143 1_556
Ni2 Zn0 2.663143 1_656
Ni2 Zn0 2.663143 1_555
C0 Ni0 1.883126 1_555
C0 Ni1 1.883126 1_555
C0 Ni0 1.883126 1_655
C0 Ni2 1.883126 1_555
C0 Ni2 1.883126 1_565
C0 Ni1 1.883126 1_556
