# generated using pymatgen
data_Ti2C2O9
_symmetry_space_group_name_H-M   'P 1'
_cell_length_a   9.57953315
_cell_length_b   9.57953315
_cell_length_c   9.79925400
_cell_angle_alpha   90.00000000
_cell_angle_beta   90.00000000
_cell_angle_gamma   109.56210243
_symmetry_Int_Tables_number   1
_chemical_formula_structural   Ti2C2O9
_chemical_formula_sum   'Ti8 C8 O36'
_cell_volume   847.34695838
_cell_formula_units_Z   4
loop_
 _symmetry_equiv_pos_site_id
 _symmetry_equiv_pos_as_xyz
  1  'x, y, z'
loop_
 _atom_site_type_symbol
 _atom_site_label
 _atom_site_symmetry_multiplicity
 _atom_site_fract_x
 _atom_site_fract_y
 _atom_site_fract_z
 _atom_site_occupancy
  Ti  Ti0  1  0.67584400  0.04083100  0.09704000  1
  Ti  Ti1  1  0.95916900  0.32415600  0.90296000  1
  Ti  Ti2  1  0.45916900  0.82415600  0.59704000  1
  Ti  Ti3  1  0.17584400  0.54083100  0.40296000  1
  Ti  Ti4  1  0.32415600  0.95916900  0.90296000  1
  Ti  Ti5  1  0.04083100  0.67584400  0.09704000  1
  Ti  Ti6  1  0.54083100  0.17584400  0.40296000  1
  Ti  Ti7  1  0.82415600  0.45916900  0.59704000  1
  C  C0  1  0.88807400  0.88807400  0.16940600  1
  C  C1  1  0.11192600  0.11192600  0.83059400  1
  C  C2  1  0.61192600  0.61192600  0.66940600  1
  C  C3  1  0.38807400  0.38807400  0.33059400  1
  C  C4  1  0.81755700  0.81755700  0.03301000  1
  C  C5  1  0.18244300  0.18244300  0.96699000  1
  C  C6  1  0.68244300  0.68244300  0.53301000  1
  C  C7  1  0.31755700  0.31755700  0.46699000  1
  O  O0  1  0.84194900  0.98741000  0.21668500  1
  O  O1  1  0.01259000  0.15805100  0.78331500  1
  O  O2  1  0.51259000  0.65805100  0.71668500  1
  O  O3  1  0.34194900  0.48741000  0.28331500  1
  O  O4  1  0.15805100  0.01259000  0.78331500  1
  O  O5  1  0.98741000  0.84194900  0.21668500  1
  O  O6  1  0.48741000  0.34194900  0.28331500  1
  O  O7  1  0.65805100  0.51259000  0.71668500  1
  O  O8  1  0.72141200  0.86651000  0.98276000  1
  O  O9  1  0.13349000  0.27858800  0.01724000  1
  O  O10  1  0.63349000  0.77858800  0.48276000  1
  O  O11  1  0.22141200  0.36651000  0.51724000  1
  O  O12  1  0.27858800  0.13349000  0.01724000  1
  O  O13  1  0.86651000  0.72141200  0.98276000  1
  O  O14  1  0.36651000  0.22141200  0.51724000  1
  O  O15  1  0.77858800  0.63349000  0.48276000  1
  O  O16  1  0.62932600  0.12932600  0.25000000  1
  O  O17  1  0.87067400  0.37067400  0.75000000  1
  O  O18  1  0.37067400  0.87067400  0.75000000  1
  O  O19  1  0.12932600  0.62932600  0.25000000  1
  O  O20  1  0.50000000  0.00000000  0.00000000  1
  O  O21  1  0.00000000  0.50000000  0.00000000  1
  O  O22  1  0.50000000  0.00000000  0.50000000  1
  O  O23  1  0.00000000  0.50000000  0.50000000  1
  O  O24  1  0.81507400  0.18492600  0.00000000  1
  O  O25  1  0.31507400  0.68492600  0.50000000  1
  O  O26  1  0.18492600  0.81507400  0.00000000  1
  O  O27  1  0.68492600  0.31507400  0.50000000  1
  O  O28  1  0.54905300  0.84674600  0.18918200  1
  O  O29  1  0.15325400  0.45094700  0.81081800  1
  O  O30  1  0.65325400  0.95094700  0.68918200  1
  O  O31  1  0.04905300  0.34674600  0.31081800  1
  O  O32  1  0.45094700  0.15325400  0.81081800  1
  O  O33  1  0.84674600  0.54905300  0.18918200  1
  O  O34  1  0.34674600  0.04905300  0.31081800  1
  O  O35  1  0.95094700  0.65325400  0.68918200  1
loop_
_geom_bond_atom_site_label_1
_geom_bond_atom_site_label_2
_geom_bond_distance
_geom_bond_site_symmetry_2
C0 O0 1.263716 1_555
C0 O5 1.263716 1_555
C1 O4 1.263716 1_555
C1 O1 1.263716 1_555
C2 O2 1.263716 1_555
C2 O7 1.263716 1_555
C3 O6 1.263716 1_555
C3 O3 1.263716 1_555
C4 O8 1.264871 1_554
C4 O13 1.264871 1_554
C5 O9 1.264871 1_556
C5 O12 1.264871 1_556
C6 O10 1.264871 1_555
C6 O15 1.264871 1_555
C7 O11 1.264871 1_555
C7 O14 1.264871 1_555
O0 Ti0 2.171112 1_565
O1 Ti1 2.171112 1_455
O2 Ti2 2.171112 1_555
O3 Ti3 2.171112 1_555
O4 Ti4 2.171112 1_545
O5 Ti5 2.171112 1_655
O6 Ti6 2.171112 1_555
O7 Ti7 2.171112 1_555
O8 Ti0 2.172877 1_566
O9 Ti1 2.172877 1_454
O10 Ti2 2.172877 1_555
O11 Ti3 2.172877 1_555
O12 Ti4 2.172877 1_544
O13 Ti5 2.172877 1_656
O14 Ti6 2.172877 1_555
O15 Ti7 2.172877 1_555
O16 Ti0 1.848486 1_555
O16 Ti6 1.848486 1_555
O17 Ti7 1.848486 1_555
O17 Ti1 1.848486 1_555
O18 Ti2 1.848486 1_555
O18 Ti4 1.848486 1_555
O19 Ti5 1.848486 1_555
O19 Ti3 1.848486 1_555
O20 Ti0 1.858378 1_555
O20 Ti4 1.858378 1_544
O21 Ti5 1.858378 1_555
O21 Ti1 1.858378 1_454
O22 Ti2 1.858378 1_545
O22 Ti6 1.858378 1_555
O23 Ti7 1.858378 1_455
O23 Ti3 1.858378 1_555
O24 Ti0 1.831850 1_555
O24 Ti1 1.831850 1_554
O25 Ti2 1.831850 1_555
O25 Ti3 1.831850 1_555
O26 Ti5 1.831850 1_555
O26 Ti4 1.831850 1_554
O27 Ti7 1.831850 1_555
O27 Ti6 1.831850 1_555
O28 Ti0 2.057927 1_565
O29 Ti1 2.057927 1_455
O30 Ti2 2.057927 1_555
O31 Ti3 2.057927 1_555
O32 Ti4 2.057927 1_545
O33 Ti5 2.057927 1_655
O34 Ti6 2.057927 1_555
O35 Ti7 2.057927 1_555
