# generated using pymatgen
data_Ba2YNi3O8
_symmetry_space_group_name_H-M   'P 1'
_cell_length_a   3.94340800
_cell_length_b   3.94340800
_cell_length_c   11.55825400
_cell_angle_alpha   90.00000000
_cell_angle_beta   90.00000000
_cell_angle_gamma   90.00000000
_symmetry_Int_Tables_number   1
_chemical_formula_structural   Ba2YNi3O8
_chemical_formula_sum   'Ba2 Y1 Ni3 O8'
_cell_volume   179.73624341
_cell_formula_units_Z   1
loop_
 _symmetry_equiv_pos_site_id
 _symmetry_equiv_pos_as_xyz
  1  'x, y, z'
loop_
 _atom_site_type_symbol
 _atom_site_label
 _atom_site_symmetry_multiplicity
 _atom_site_fract_x
 _atom_site_fract_y
 _atom_site_fract_z
 _atom_site_occupancy
  Ba  Ba0  1  0.50000000  0.50000000  0.17178000  1
  Ba  Ba1  1  0.50000000  0.50000000  0.82822000  1
  Y  Y0  1  0.50000000  0.50000000  0.50000000  1
  Ni  Ni0  1  0.00000000  0.00000000  0.34307400  1
  Ni  Ni1  1  0.00000000  0.00000000  0.00000000  1
  Ni  Ni2  1  0.00000000  0.00000000  0.65692600  1
  O  O0  1  0.00000000  0.50000000  0.37831000  1
  O  O1  1  0.50000000  0.00000000  0.37831000  1
  O  O2  1  0.50000000  0.00000000  0.00000000  1
  O  O3  1  0.00000000  0.00000000  0.17158600  1
  O  O4  1  0.00000000  0.50000000  0.62169000  1
  O  O5  1  0.50000000  0.00000000  0.62169000  1
  O  O6  1  0.00000000  0.00000000  0.82841400  1
  O  O7  1  0.00000000  0.50000000  0.00000000  1
loop_
_geom_bond_atom_site_label_1
_geom_bond_atom_site_label_2
_geom_bond_distance
_geom_bond_site_symmetry_2
Ba0 O3 2.788411 1_555
Ba0 O3 2.788411 1_655
Ba0 O3 2.788411 1_565
Ba0 O3 2.788411 1_665
Ba0 O7 2.798166 1_655
Ba0 O7 2.798166 1_555
Ba0 O2 2.798166 1_555
Ba0 O2 2.798166 1_565
Ba0 O0 3.096125 1_655
Ba0 O1 3.096125 1_555
Ba0 O0 3.096125 1_555
Ba0 O1 3.096125 1_565
Ba1 O6 2.788411 1_555
Ba1 O6 2.788411 1_655
Ba1 O6 2.788411 1_565
Ba1 O6 2.788411 1_665
Ba1 O2 2.798166 1_556
Ba1 O7 2.798166 1_556
Ba1 O2 2.798166 1_566
Ba1 O7 2.798166 1_656
Ba1 O5 3.096125 1_555
Ba1 O5 3.096125 1_565
Ba1 O4 3.096125 1_655
Ba1 O4 3.096125 1_555
Ni0 O3 1.982102 1_555
Ni0 O1 2.013326 1_555
Ni0 O1 2.013326 1_455
Ni0 O0 2.013326 1_545
Ni0 O0 2.013326 1_555
Ni1 O7 1.971704 1_555
Ni1 O2 1.971704 1_455
Ni1 O2 1.971704 1_555
Ni1 O7 1.971704 1_545
Ni1 O3 1.983235 1_555
Ni1 O6 1.983235 1_554
Ni2 O6 1.982102 1_555
Ni2 O5 2.013326 1_455
Ni2 O5 2.013326 1_555
Ni2 O4 2.013326 1_545
Ni2 O4 2.013326 1_555
O0 Y0 2.421967 1_455
O0 Y0 2.421967 1_555
O1 Y0 2.421967 1_545
O1 Y0 2.421967 1_555
O4 Y0 2.421967 1_455
O4 Y0 2.421967 1_555
O5 Y0 2.421967 1_555
O5 Y0 2.421967 1_545
