# generated using pymatgen
data_K2LuF5
_symmetry_space_group_name_H-M   'P 1'
_cell_length_a   6.50064104
_cell_length_b   7.05843925
_cell_length_c   10.66340557
_cell_angle_alpha   90.00000000
_cell_angle_beta   90.00000000
_cell_angle_gamma   90.00000000
_symmetry_Int_Tables_number   1
_chemical_formula_structural   K2LuF5
_chemical_formula_sum   'K8 Lu4 F20'
_cell_volume   489.28375185
_cell_formula_units_Z   4
loop_
 _symmetry_equiv_pos_site_id
 _symmetry_equiv_pos_as_xyz
  1  'x, y, z'
loop_
 _atom_site_type_symbol
 _atom_site_label
 _atom_site_symmetry_multiplicity
 _atom_site_fract_x
 _atom_site_fract_y
 _atom_site_fract_z
 _atom_site_occupancy
  K  K0  1  0.53809238  0.49695649  0.82927399  1
  K  K1  1  0.46190762  0.50304351  0.17072601  1
  K  K2  1  0.03809238  0.50304351  0.67072601  1
  K  K3  1  0.46190762  0.99695649  0.17072601  1
  K  K4  1  0.96190762  0.49695649  0.32927399  1
  K  K5  1  0.53809238  0.00304351  0.82927399  1
  K  K6  1  0.96190762  0.00304351  0.32927399  1
  K  K7  1  0.03809238  0.99695649  0.67072601  1
  Lu  Lu0  1  0.56377743  0.75000000  0.50253300  1
  Lu  Lu1  1  0.43622257  0.25000000  0.49746700  1
  Lu  Lu2  1  0.06377743  0.25000000  0.99746700  1
  Lu  Lu3  1  0.93622257  0.75000000  0.00253300  1
  F  F0  1  0.84418438  0.75000000  0.81092807  1
  F  F1  1  0.15581562  0.25000000  0.18907193  1
  F  F2  1  0.34418438  0.25000000  0.68907193  1
  F  F3  1  0.65581562  0.75000000  0.31092807  1
  F  F4  1  0.37696223  0.75000000  0.66527443  1
  F  F5  1  0.62303777  0.25000000  0.33472557  1
  F  F6  1  0.87696223  0.25000000  0.83472557  1
  F  F7  1  0.12303777  0.75000000  0.16527443  1
  F  F8  1  0.88929423  0.75000000  0.51398415  1
  F  F9  1  0.11070577  0.25000000  0.48601585  1
  F  F10  1  0.38929423  0.25000000  0.98601585  1
  F  F11  1  0.61070577  0.75000000  0.01398415  1
  F  F12  1  0.64802250  0.03656189  0.57259188  1
  F  F13  1  0.35197750  0.96343811  0.42740812  1
  F  F14  1  0.14802250  0.96343811  0.92740812  1
  F  F15  1  0.35197750  0.53656189  0.42740812  1
  F  F16  1  0.85197750  0.03656189  0.07259188  1
  F  F17  1  0.64802250  0.46343811  0.57259188  1
  F  F18  1  0.85197750  0.46343811  0.07259188  1
  F  F19  1  0.14802250  0.53656189  0.92740812  1
loop_
_geom_bond_atom_site_label_1
_geom_bond_atom_site_label_2
_geom_bond_distance
_geom_bond_site_symmetry_2
F0 Lu3 2.128962 1_556
F0 K7 2.619645 1_655
F0 K2 2.619645 1_655
F0 K5 2.680984 1_565
F0 K0 2.680984 1_555
F1 Lu2 2.128962 1_554
F1 K6 2.619645 1_455
F1 K4 2.619645 1_455
F1 K3 2.680984 1_545
F1 K1 2.680984 1_555
F2 Lu1 2.128962 1_555
F2 K5 2.619645 1_555
F2 K0 2.619645 1_555
F2 K7 2.680984 1_545
F2 K2 2.680984 1_555
F3 Lu0 2.128962 1_555
F3 K1 2.619645 1_555
F3 K3 2.619645 1_555
F3 K4 2.680984 1_555
F3 K6 2.680984 1_565
F4 Lu0 2.118100 1_555
F4 K5 2.710268 1_565
F4 K0 2.710268 1_555
F4 K2 2.809718 1_555
F4 K7 2.809718 1_555
F5 Lu1 2.118100 1_555
F5 K3 2.710268 1_545
F5 K1 2.710268 1_555
F5 K4 2.809718 1_555
F5 K6 2.809718 1_555
F6 Lu2 2.118100 1_655
F6 K2 2.710268 1_655
F6 K7 2.710268 1_645
F6 K0 2.809718 1_555
F6 K5 2.809718 1_555
F7 Lu3 2.118100 1_455
F7 K6 2.710268 1_465
F7 K4 2.710268 1_455
F7 K1 2.809718 1_555
F7 K3 2.809718 1_555
F8 Lu0 2.119588 1_555
F8 K7 2.601483 1_655
F8 K2 2.601483 1_655
F8 K6 2.700448 1_565
F8 K4 2.700448 1_555
F9 Lu1 2.119588 1_555
F9 K6 2.601483 1_455
F9 K4 2.601483 1_455
F9 K7 2.700448 1_545
F9 K2 2.700448 1_555
F10 Lu2 2.119588 1_555
F10 K5 2.601483 1_555
F10 K0 2.601483 1_555
F10 K1 2.700448 1_556
F10 K3 2.700448 1_546
F11 Lu3 2.119588 1_555
F11 K1 2.601483 1_555
F11 K3 2.601483 1_555
F11 K5 2.700448 1_564
F11 K0 2.700448 1_554
F12 Lu1 2.192505 1_555
F12 Lu0 2.224693 1_545
F12 K7 2.757352 1_645
F12 K5 2.838731 1_555
F13 Lu0 2.192505 1_555
F13 Lu1 2.224693 1_565
F13 K6 2.757352 1_465
F13 K3 2.838731 1_555
F14 Lu3 2.192505 1_456
F14 Lu2 2.224693 1_565
F14 K5 2.757352 1_565
F14 K7 2.838731 1_555
F15 Lu0 2.192505 1_555
F15 Lu1 2.224693 1_555
F15 K4 2.757352 1_455
F15 K1 2.838731 1_555
F16 Lu2 2.192505 1_654
F16 Lu3 2.224693 1_545
F16 K3 2.757352 1_545
F16 K6 2.838731 1_555
F17 Lu1 2.192505 1_555
F17 Lu0 2.224693 1_555
F17 K2 2.757352 1_655
F17 K0 2.838731 1_555
F18 Lu2 2.192505 1_654
F18 Lu3 2.224693 1_555
F18 K1 2.757352 1_555
F18 K4 2.838731 1_555
F19 Lu3 2.192505 1_456
F19 Lu2 2.224693 1_555
F19 K0 2.757352 1_555
F19 K2 2.838731 1_555
