# generated using pymatgen
data_Mg6ZnC
_symmetry_space_group_name_H-M   'P 1'
_cell_length_a   3.44192600
_cell_length_b   8.55380300
_cell_length_c   10.19276300
_cell_angle_alpha   90.00000000
_cell_angle_beta   90.00000000
_cell_angle_gamma   90.00000000
_symmetry_Int_Tables_number   1
_chemical_formula_structural   Mg6ZnC
_chemical_formula_sum   'Mg12 Zn2 C2'
_cell_volume   300.09081229
_cell_formula_units_Z   2
loop_
 _symmetry_equiv_pos_site_id
 _symmetry_equiv_pos_as_xyz
  1  'x, y, z'
loop_
 _atom_site_type_symbol
 _atom_site_label
 _atom_site_symmetry_multiplicity
 _atom_site_fract_x
 _atom_site_fract_y
 _atom_site_fract_z
 _atom_site_occupancy
  Mg  Mg0  1  0.00000000  0.66156100  0.13383400  1
  Mg  Mg1  1  0.00000000  0.33843900  0.13383400  1
  Mg  Mg2  1  0.00000000  0.50000000  0.88139800  1
  Mg  Mg3  1  0.50000000  0.76222800  0.89173100  1
  Mg  Mg4  1  0.50000000  0.23777200  0.89173100  1
  Mg  Mg5  1  0.50000000  0.50000000  0.63105300  1
  Mg  Mg6  1  0.00000000  0.16156100  0.63383400  1
  Mg  Mg7  1  0.00000000  0.83843900  0.63383400  1
  Mg  Mg8  1  0.00000000  0.00000000  0.38139800  1
  Mg  Mg9  1  0.50000000  0.26222800  0.39173100  1
  Mg  Mg10  1  0.50000000  0.73777200  0.39173100  1
  Mg  Mg11  1  0.50000000  0.00000000  0.13105300  1
  Zn  Zn0  1  0.00000000  0.50000000  0.41214600  1
  Zn  Zn1  1  0.00000000  0.00000000  0.91214600  1
  C  C0  1  0.50000000  0.50000000  0.02427300  1
  C  C1  1  0.50000000  0.00000000  0.52427300  1
loop_
_geom_bond_atom_site_label_1
_geom_bond_atom_site_label_2
_geom_bond_distance
_geom_bond_site_symmetry_2
Mg0 Zn0 3.155483 1_555
Mg1 Zn0 3.155483 1_555
Mg3 Zn1 2.672373 1_565
Mg3 Zn1 2.672373 1_665
Mg4 Zn1 2.672373 1_555
Mg4 Zn1 2.672373 1_655
Mg5 Zn0 2.817848 1_655
Mg5 Zn0 2.817848 1_555
Mg6 Zn1 3.155483 1_555
Mg7 Zn1 3.155483 1_565
Mg9 Zn0 2.672373 1_555
Mg9 Zn0 2.672373 1_655
Mg10 Zn0 2.672373 1_555
Mg10 Zn0 2.672373 1_655
Mg11 Zn1 2.817848 1_554
Mg11 Zn1 2.817848 1_654
C0 Mg2 2.254439 1_654
C0 Mg2 2.254439 1_554
C0 Mg0 2.473583 1_555
C0 Mg0 2.473583 1_655
C0 Mg1 2.473583 1_555
C0 Mg1 2.473583 1_655
C0 Mg4 2.618468 1_554
C0 Mg3 2.618468 1_554
C1 Mg8 2.254439 1_655
C1 Mg8 2.254439 1_555
C1 Mg7 2.473583 1_645
C1 Mg7 2.473583 1_545
C1 Mg6 2.473583 1_655
C1 Mg6 2.473583 1_555
C1 Mg9 2.618468 1_555
C1 Mg10 2.618468 1_545
