# generated using pymatgen
data_In2Se2O7
_symmetry_space_group_name_H-M   'P 1'
_cell_length_a   6.90521216
_cell_length_b   12.77721833
_cell_length_c   13.85612009
_cell_angle_alpha   90.00000000
_cell_angle_beta   90.00000000
_cell_angle_gamma   90.00000000
_symmetry_Int_Tables_number   1
_chemical_formula_structural   In2Se2O7
_chemical_formula_sum   'In16 Se16 O56'
_cell_volume   1222.51720875
_cell_formula_units_Z   8
loop_
 _symmetry_equiv_pos_site_id
 _symmetry_equiv_pos_as_xyz
  1  'x, y, z'
loop_
 _atom_site_type_symbol
 _atom_site_label
 _atom_site_symmetry_multiplicity
 _atom_site_fract_x
 _atom_site_fract_y
 _atom_site_fract_z
 _atom_site_occupancy
  In  In0  1  0.45127492  0.98733973  0.37220704  1
  In  In1  1  0.04872508  0.98733973  0.12779296  1
  In  In2  1  0.54872508  0.51266027  0.87220704  1
  In  In3  1  0.95127492  0.51266027  0.62779296  1
  In  In4  1  0.54872508  0.01266027  0.62779296  1
  In  In5  1  0.95127492  0.01266027  0.87220704  1
  In  In6  1  0.45127492  0.48733973  0.12779296  1
  In  In7  1  0.04872508  0.48733973  0.37220704  1
  In  In8  1  0.25000000  0.24600394  0.25000000  1
  In  In9  1  0.75000000  0.25399606  0.75000000  1
  In  In10  1  0.75000000  0.75399606  0.75000000  1
  In  In11  1  0.25000000  0.74600394  0.25000000  1
  In  In12  1  0.75000000  0.83352901  0.25000000  1
  In  In13  1  0.25000000  0.66647099  0.75000000  1
  In  In14  1  0.25000000  0.16647099  0.75000000  1
  In  In15  1  0.75000000  0.33352901  0.25000000  1
  Se  Se0  1  0.96765812  0.05831977  0.37145266  1
  Se  Se1  1  0.53234188  0.05831977  0.12854734  1
  Se  Se2  1  0.03234188  0.44168023  0.87145266  1
  Se  Se3  1  0.46765812  0.44168023  0.62854734  1
  Se  Se4  1  0.03234188  0.94168023  0.62854734  1
  Se  Se5  1  0.46765812  0.94168023  0.87145266  1
  Se  Se6  1  0.96765812  0.55831977  0.12854734  1
  Se  Se7  1  0.53234188  0.55831977  0.37145266  1
  Se  Se8  1  0.50993783  0.22991098  0.46044504  1
  Se  Se9  1  0.99006217  0.22991098  0.03955496  1
  Se  Se10  1  0.49006217  0.27008902  0.96044504  1
  Se  Se11  1  0.00993783  0.27008902  0.53955496  1
  Se  Se12  1  0.49006217  0.77008902  0.53955496  1
  Se  Se13  1  0.00993783  0.77008902  0.96044504  1
  Se  Se14  1  0.50993783  0.72991098  0.03955496  1
  Se  Se15  1  0.99006217  0.72991098  0.46044504  1
  O  O0  1  0.04071451  0.09576216  0.25533474  1
  O  O1  1  0.45928549  0.09576216  0.24466526  1
  O  O2  1  0.95928549  0.40423784  0.75533474  1
  O  O3  1  0.54071451  0.40423784  0.74466526  1
  O  O4  1  0.95928549  0.90423784  0.74466526  1
  O  O5  1  0.54071451  0.90423784  0.75533474  1
  O  O6  1  0.04071451  0.59576216  0.24466526  1
  O  O7  1  0.45928549  0.59576216  0.25533474  1
  O  O8  1  0.14567832  0.97203662  0.40069395  1
  O  O9  1  0.35432168  0.97203662  0.09930605  1
  O  O10  1  0.85432168  0.52796338  0.90069395  1
  O  O11  1  0.64567832  0.52796338  0.59930605  1
  O  O12  1  0.85432168  0.02796338  0.59930605  1
  O  O13  1  0.64567832  0.02796338  0.90069395  1
  O  O14  1  0.14567832  0.47203662  0.09930605  1
  O  O15  1  0.35432168  0.47203662  0.40069395  1
  O  O16  1  0.77934341  0.97336922  0.35198981  1
  O  O17  1  0.72065659  0.97336922  0.14801019  1
  O  O18  1  0.22065659  0.52663078  0.85198981  1
  O  O19  1  0.27934341  0.52663078  0.64801019  1
  O  O20  1  0.22065659  0.02663078  0.64801019  1
  O  O21  1  0.27934341  0.02663078  0.85198981  1
  O  O22  1  0.77934341  0.47336922  0.14801019  1
  O  O23  1  0.72065659  0.47336922  0.35198981  1
  O  O24  1  0.52868882  0.09712866  0.48638688  1
  O  O25  1  0.97131118  0.09712866  0.01361312  1
  O  O26  1  0.47131118  0.40287134  0.98638688  1
  O  O27  1  0.02868882  0.40287134  0.51361312  1
  O  O28  1  0.47131118  0.90287134  0.51361312  1
  O  O29  1  0.02868882  0.90287134  0.98638688  1
  O  O30  1  0.52868882  0.59712866  0.01361312  1
  O  O31  1  0.97131118  0.59712866  0.48638688  1
  O  O32  1  0.29814004  0.21824278  0.39781040  1
  O  O33  1  0.20185996  0.21824278  0.10218960  1
  O  O34  1  0.70185996  0.28175722  0.89781040  1
  O  O35  1  0.79814004  0.28175722  0.60218960  1
  O  O36  1  0.70185996  0.78175722  0.60218960  1
  O  O37  1  0.79814004  0.78175722  0.89781040  1
  O  O38  1  0.29814004  0.71824278  0.10218960  1
  O  O39  1  0.20185996  0.71824278  0.39781040  1
  O  O40  1  0.68442202  0.23616573  0.37507386  1
  O  O41  1  0.81557798  0.23616573  0.12492614  1
  O  O42  1  0.31557798  0.26383427  0.87507386  1
  O  O43  1  0.18442202  0.26383427  0.62492614  1
  O  O44  1  0.31557798  0.76383427  0.62492614  1
  O  O45  1  0.18442202  0.76383427  0.87507386  1
  O  O46  1  0.68442202  0.73616573  0.12492614  1
  O  O47  1  0.81557798  0.73616573  0.37507386  1
  O  O48  1  0.46792035  0.84965391  0.29245408  1
  O  O49  1  0.03207965  0.84965391  0.20754592  1
  O  O50  1  0.53207965  0.65034609  0.79245408  1
  O  O51  1  0.96792035  0.65034609  0.70754592  1
  O  O52  1  0.53207965  0.15034609  0.70754592  1
  O  O53  1  0.96792035  0.15034609  0.79245408  1
  O  O54  1  0.46792035  0.34965391  0.20754592  1
  O  O55  1  0.03207965  0.34965391  0.29245408  1
loop_
_geom_bond_atom_site_label_1
_geom_bond_atom_site_label_2
_geom_bond_distance
_geom_bond_site_symmetry_2
In0 O48 2.080701 1_555
In0 O8 2.155694 1_555
In0 O24 2.180963 1_565
In0 O28 2.241201 1_555
In0 O1 2.246182 1_565
In0 O16 2.289606 1_555
In1 O49 2.080701 1_555
In1 O9 2.155694 1_555
In1 O25 2.180963 1_465
In1 O29 2.241201 1_554
In1 O0 2.246182 1_565
In1 O17 2.289606 1_455
In2 O50 2.080701 1_555
In2 O10 2.155694 1_555
In2 O26 2.180963 1_555
In2 O30 2.241201 1_556
In2 O3 2.246182 1_555
In2 O18 2.289606 1_555
In3 O51 2.080701 1_555
In3 O11 2.155694 1_555
In3 O27 2.180963 1_655
In3 O31 2.241201 1_555
In3 O2 2.246182 1_555
In3 O19 2.289606 1_655
In4 O52 2.080701 1_555
In4 O12 2.155694 1_555
In4 O28 2.180963 1_545
In4 O24 2.241201 1_555
In4 O5 2.246182 1_545
In4 O20 2.289606 1_555
In5 O53 2.080701 1_555
In5 O13 2.155694 1_555
In5 O29 2.180963 1_645
In5 O25 2.241201 1_556
In5 O4 2.246182 1_545
In5 O21 2.289606 1_655
In6 O54 2.080701 1_555
In6 O14 2.155694 1_555
In6 O30 2.180963 1_555
In6 O26 2.241201 1_554
In6 O7 2.246182 1_555
In6 O22 2.289606 1_555
In7 O55 2.080701 1_555
In7 O15 2.155694 1_555
In7 O31 2.180963 1_455
In7 O27 2.241201 1_555
In7 O6 2.246182 1_555
In7 O23 2.289606 1_455
In8 O55 2.089101 1_555
In8 O54 2.089101 1_555
In8 O32 2.104981 1_555
In8 O33 2.104981 1_555
In8 O1 2.403975 1_555
In8 O0 2.403975 1_555
In9 O52 2.089101 1_555
In9 O53 2.089101 1_555
In9 O34 2.104981 1_555
In9 O35 2.104981 1_555
In9 O3 2.403975 1_555
In9 O2 2.403975 1_555
In10 O51 2.089101 1_555
In10 O50 2.089101 1_555
In10 O36 2.104981 1_555
In10 O37 2.104981 1_555
In10 O5 2.403975 1_555
In10 O4 2.403975 1_555
In11 O48 2.089101 1_555
In11 O49 2.089101 1_555
In11 O39 2.104981 1_555
In11 O38 2.104981 1_555
In11 O7 2.403975 1_555
In11 O6 2.403975 1_555
In12 O48 2.045113 1_555
In12 O49 2.045113 1_655
In12 O46 2.180847 1_555
In12 O47 2.180847 1_555
In12 O17 2.287069 1_555
In12 O16 2.287069 1_555
In13 O51 2.045113 1_455
In13 O50 2.045113 1_555
In13 O44 2.180847 1_555
In13 O45 2.180847 1_555
In13 O19 2.287069 1_555
In13 O18 2.287069 1_555
In14 O52 2.045113 1_555
In14 O53 2.045113 1_455
In14 O42 2.180847 1_555
In14 O43 2.180847 1_555
In14 O20 2.287069 1_555
In14 O21 2.287069 1_555
In15 O55 2.045113 1_655
In15 O54 2.045113 1_555
In15 O40 2.180847 1_555
In15 O41 2.180847 1_555
In15 O22 2.287069 1_555
In15 O23 2.287069 1_555
O0 Se0 1.752731 1_455
O1 Se1 1.752731 1_555
O2 Se2 1.752731 1_655
O3 Se3 1.752731 1_555
O4 Se4 1.752731 1_655
O5 Se5 1.752731 1_555
O6 Se6 1.752731 1_455
O7 Se7 1.752731 1_555
O8 Se0 1.700199 1_465
O9 Se1 1.700199 1_565
O10 Se2 1.700199 1_655
O11 Se3 1.700199 1_555
O12 Se4 1.700199 1_645
O13 Se5 1.700199 1_545
O14 Se6 1.700199 1_455
O15 Se7 1.700199 1_555
O16 Se0 1.715170 1_565
O17 Se1 1.715170 1_565
O18 Se2 1.715170 1_555
O19 Se3 1.715170 1_555
O20 Se4 1.715170 1_545
O21 Se5 1.715170 1_545
O22 Se6 1.715170 1_555
O23 Se7 1.715170 1_555
O24 Se8 1.739076 1_555
O25 Se9 1.739076 1_555
O26 Se10 1.739076 1_555
O27 Se11 1.739076 1_555
O28 Se12 1.739076 1_555
O29 Se13 1.739076 1_555
O30 Se14 1.739076 1_555
O31 Se15 1.739076 1_555
O32 Se8 1.707150 1_555
O33 Se9 1.707150 1_455
O34 Se10 1.707150 1_555
O35 Se11 1.707150 1_655
O36 Se12 1.707150 1_555
O37 Se13 1.707150 1_655
O38 Se14 1.707150 1_555
O39 Se15 1.707150 1_455
O40 Se8 1.690365 1_555
O41 Se9 1.690365 1_555
O42 Se10 1.690365 1_555
O43 Se11 1.690365 1_555
O44 Se12 1.690365 1_555
O45 Se13 1.690365 1_555
O46 Se14 1.690365 1_555
O47 Se15 1.690365 1_555
