# generated using pymatgen
data_Mg2Si
_symmetry_space_group_name_H-M   'P 1'
_cell_length_a   5.63092600
_cell_length_b   7.04100716
_cell_length_c   7.40186722
_cell_angle_alpha   72.49551485
_cell_angle_beta   68.94926419
_cell_angle_gamma   70.52423406
_symmetry_Int_Tables_number   1
_chemical_formula_structural   Mg2Si
_chemical_formula_sum   'Mg8 Si4'
_cell_volume   252.68511989
_cell_formula_units_Z   4
loop_
 _symmetry_equiv_pos_site_id
 _symmetry_equiv_pos_as_xyz
  1  'x, y, z'
loop_
 _atom_site_type_symbol
 _atom_site_label
 _atom_site_symmetry_multiplicity
 _atom_site_fract_x
 _atom_site_fract_y
 _atom_site_fract_z
 _atom_site_occupancy
  Mg  Mg0  1  0.52110600  0.19022500  0.26628200  1
  Mg  Mg1  1  0.50392500  0.25684500  0.65200900  1
  Mg  Mg2  1  0.01211700  0.41785300  0.05352300  1
  Mg  Mg3  1  0.55243400  0.49932700  0.90071600  1
  Mg  Mg4  1  0.98988300  0.50059000  0.47230500  1
  Mg  Mg5  1  0.02244300  0.01035600  0.41603000  1
  Mg  Mg6  1  0.51501900  0.66932500  0.27182100  1
  Mg  Mg7  1  0.00900800  0.07341700  0.84717700  1
  Si  Si0  1  0.74154200  0.81887000  0.83523400  1
  Si  Si1  1  0.36381600  0.04393600  0.04033200  1
  Si  Si2  1  0.21547800  0.66442600  0.67650600  1
  Si  Si3  1  0.55333800  0.85471900  0.56853300  1
loop_
_geom_bond_atom_site_label_1
_geom_bond_atom_site_label_2
_geom_bond_distance
_geom_bond_site_symmetry_2
Mg0 Si1 2.711314 1_555
Mg0 Si3 2.728576 1_545
Mg1 Si1 2.774694 1_556
Mg1 Si2 2.810682 1_555
Mg1 Si3 2.979837 1_545
Mg1 Si0 3.029132 1_545
Mg2 Si1 2.720642 1_555
Mg2 Si2 2.868540 1_554
Mg2 Si0 3.009970 1_454
Mg3 Si0 2.646072 1_555
Mg3 Si2 2.708568 1_555
Mg3 Si3 2.933515 1_555
Mg4 Si3 2.913847 1_555
Mg4 Si2 2.938417 1_655
Mg5 Si1 2.748005 1_555
Mg5 Si2 2.783249 1_545
Mg5 Si3 2.914893 1_445
Mg5 Si0 3.054048 1_445
Mg6 Si1 2.729426 1_565
Mg6 Si2 2.857581 1_555
Mg6 Si3 2.970986 1_555
Mg6 Si0 3.011006 1_554
Mg7 Si0 2.734814 1_445
Mg7 Si1 2.770504 1_556
Mg7 Si2 3.184508 1_545
Mg7 Si3 3.200247 1_545
Si0 Si3 2.471562 1_555
Si0 Si1 2.493958 1_566
Si0 Si2 2.503161 1_655
Si2 Si3 2.452876 1_555
