# generated using pymatgen
data_Na3Ge3(MoO6)2
_symmetry_space_group_name_H-M   'P 1'
_cell_length_a   10.91243624
_cell_length_b   10.91243624
_cell_length_c   10.91243624
_cell_angle_alpha   109.47122063
_cell_angle_beta   109.47122063
_cell_angle_gamma   109.47122063
_symmetry_Int_Tables_number   1
_chemical_formula_structural   Na3Ge3(MoO6)2
_chemical_formula_sum   'Na12 Ge12 Mo8 O48'
_cell_volume   1000.32993815
_cell_formula_units_Z   4
loop_
 _symmetry_equiv_pos_site_id
 _symmetry_equiv_pos_as_xyz
  1  'x, y, z'
loop_
 _atom_site_type_symbol
 _atom_site_label
 _atom_site_symmetry_multiplicity
 _atom_site_fract_x
 _atom_site_fract_y
 _atom_site_fract_z
 _atom_site_occupancy
  Na  Na0  1  0.25000000  0.87500000  0.62500000  1
  Na  Na1  1  0.75000000  0.62500000  0.87500000  1
  Na  Na2  1  0.87500000  0.75000000  0.62500000  1
  Na  Na3  1  0.62500000  0.25000000  0.87500000  1
  Na  Na4  1  0.87500000  0.62500000  0.25000000  1
  Na  Na5  1  0.62500000  0.87500000  0.75000000  1
  Na  Na6  1  0.75000000  0.12500000  0.37500000  1
  Na  Na7  1  0.25000000  0.37500000  0.12500000  1
  Na  Na8  1  0.12500000  0.25000000  0.37500000  1
  Na  Na9  1  0.37500000  0.75000000  0.12500000  1
  Na  Na10  1  0.12500000  0.37500000  0.75000000  1
  Na  Na11  1  0.37500000  0.12500000  0.25000000  1
  Ge  Ge0  1  0.37500000  0.62500000  0.75000000  1
  Ge  Ge1  1  0.62500000  0.37500000  0.25000000  1
  Ge  Ge2  1  0.87500000  0.25000000  0.12500000  1
  Ge  Ge3  1  0.75000000  0.37500000  0.62500000  1
  Ge  Ge4  1  0.62500000  0.75000000  0.37500000  1
  Ge  Ge5  1  0.25000000  0.12500000  0.87500000  1
  Ge  Ge6  1  0.75000000  0.87500000  0.12500000  1
  Ge  Ge7  1  0.25000000  0.62500000  0.37500000  1
  Ge  Ge8  1  0.37500000  0.25000000  0.62500000  1
  Ge  Ge9  1  0.12500000  0.75000000  0.87500000  1
  Ge  Ge10  1  0.87500000  0.12500000  0.75000000  1
  Ge  Ge11  1  0.12500000  0.87500000  0.25000000  1
  Mo  Mo0  1  0.00000000  0.00000000  0.00000000  1
  Mo  Mo1  1  0.00000000  0.00000000  0.50000000  1
  Mo  Mo2  1  0.50000000  0.00000000  0.00000000  1
  Mo  Mo3  1  0.00000000  0.50000000  0.00000000  1
  Mo  Mo4  1  0.50000000  0.00000000  0.50000000  1
  Mo  Mo5  1  0.50000000  0.50000000  0.00000000  1
  Mo  Mo6  1  0.00000000  0.50000000  0.50000000  1
  Mo  Mo7  1  0.50000000  0.50000000  0.50000000  1
  O  O0  1  0.08044600  0.69540100  0.68584100  1
  O  O1  1  0.61495500  0.41955400  0.10539500  1
  O  O2  1  0.39460500  0.81415900  0.50956000  1
  O  O3  1  0.99044000  0.80459900  0.88504500  1
  O  O4  1  0.81415900  0.80459900  0.41955400  1
  O  O5  1  0.88504500  0.99044000  0.80459900  1
  O  O6  1  0.88504500  0.39460500  0.08044600  1
  O  O7  1  0.80459900  0.88504500  0.99044000  1
  O  O8  1  0.68584100  0.10539500  0.99044000  1
  O  O9  1  0.50956000  0.61495500  0.69540100  1
  O  O10  1  0.69540100  0.50956000  0.61495500  1
  O  O11  1  0.80459900  0.41955400  0.81415900  1
  O  O12  1  0.08044600  0.88504500  0.39460500  1
  O  O13  1  0.10539500  0.99044000  0.68584100  1
  O  O14  1  0.41955400  0.81415900  0.80459900  1
  O  O15  1  0.39460500  0.08044600  0.88504500  1
  O  O16  1  0.99044000  0.68584100  0.10539500  1
  O  O17  1  0.41955400  0.10539500  0.61495500  1
  O  O18  1  0.50956000  0.39460500  0.81415900  1
  O  O19  1  0.31415900  0.89460500  0.00956000  1
  O  O20  1  0.81415900  0.50956000  0.39460500  1
  O  O21  1  0.69540100  0.68584100  0.08044600  1
  O  O22  1  0.10539500  0.61495500  0.41955400  1
  O  O23  1  0.61495500  0.69540100  0.50956000  1
  O  O24  1  0.91955400  0.30459900  0.31415900  1
  O  O25  1  0.38504500  0.58044600  0.89460500  1
  O  O26  1  0.60539500  0.18584100  0.49044000  1
  O  O27  1  0.00956000  0.19540100  0.11495500  1
  O  O28  1  0.18584100  0.19540100  0.58044600  1
  O  O29  1  0.11495500  0.00956000  0.19540100  1
  O  O30  1  0.11495500  0.60539500  0.91955400  1
  O  O31  1  0.19540100  0.11495500  0.00956000  1
  O  O32  1  0.38504500  0.30459900  0.49044000  1
  O  O33  1  0.89460500  0.38504500  0.58044600  1
  O  O34  1  0.30459900  0.31415900  0.91955400  1
  O  O35  1  0.31415900  0.91955400  0.30459900  1
  O  O36  1  0.18584100  0.49044000  0.60539500  1
  O  O37  1  0.49044000  0.60539500  0.18584100  1
  O  O38  1  0.58044600  0.89460500  0.38504500  1
  O  O39  1  0.00956000  0.31415900  0.89460500  1
  O  O40  1  0.60539500  0.91955400  0.11495500  1
  O  O41  1  0.58044600  0.18584100  0.19540100  1
  O  O42  1  0.89460500  0.00956000  0.31415900  1
  O  O43  1  0.91955400  0.11495500  0.60539500  1
  O  O44  1  0.19540100  0.58044600  0.18584100  1
  O  O45  1  0.30459900  0.49044000  0.38504500  1
  O  O46  1  0.49044000  0.38504500  0.30459900  1
  O  O47  1  0.68584100  0.08044600  0.69540100  1
loop_
_geom_bond_atom_site_label_1
_geom_bond_atom_site_label_2
_geom_bond_distance
_geom_bond_site_symmetry_2
Na0 O15 2.446197 1_565
Na0 O2 2.446197 1_555
Na0 O22 2.446197 1_555
Na0 O13 2.446197 1_555
Na0 O17 2.640871 1_565
Na0 O14 2.640871 1_555
Na0 O0 2.640871 1_555
Na0 O12 2.640871 1_555
Na1 O21 2.446197 1_556
Na1 O7 2.446197 1_555
Na1 O11 2.446197 1_555
Na1 O10 2.446197 1_555
Na1 O9 2.640871 1_555
Na1 O16 2.640871 1_556
Na1 O18 2.640871 1_555
Na1 O3 2.640871 1_555
Na2 O0 2.446197 1_655
Na2 O4 2.446197 1_555
Na2 O3 2.446197 1_555
Na2 O23 2.446197 1_555
Na2 O10 2.640871 1_555
Na2 O13 2.640871 1_655
Na2 O20 2.640871 1_555
Na2 O5 2.640871 1_555
Na3 O6 2.446197 1_556
Na3 O18 2.446197 1_555
Na3 O17 2.446197 1_555
Na3 O8 2.446197 1_555
Na3 O1 2.640871 1_556
Na3 O11 2.640871 1_555
Na3 O15 2.640871 1_555
Na3 O47 2.640871 1_555
Na4 O12 2.446197 1_655
Na4 O20 2.446197 1_555
Na4 O1 2.446197 1_555
Na4 O16 2.446197 1_555
Na4 O22 2.640871 1_655
Na4 O4 2.640871 1_555
Na4 O6 2.640871 1_555
Na4 O21 2.640871 1_555
Na5 O47 2.446197 1_565
Na5 O14 2.446197 1_555
Na5 O5 2.446197 1_555
Na5 O9 2.446197 1_555
Na5 O23 2.640871 1_555
Na5 O8 2.640871 1_565
Na5 O2 2.640871 1_555
Na5 O7 2.640871 1_555
Na6 O33 2.446197 1_555
Na6 O26 2.446197 1_555
Na6 O40 2.446197 1_545
Na6 O42 2.446197 1_555
Na6 O41 2.640871 1_555
Na6 O38 2.640871 1_545
Na6 O43 2.640871 1_555
Na6 O24 2.640871 1_555
Na7 O45 2.446197 1_555
Na7 O31 2.446197 1_555
Na7 O44 2.446197 1_555
Na7 O34 2.446197 1_554
Na7 O39 2.640871 1_554
Na7 O27 2.640871 1_555
Na7 O37 2.640871 1_555
Na7 O46 2.640871 1_555
Na8 O32 2.446197 1_555
Na8 O27 2.446197 1_555
Na8 O28 2.446197 1_555
Na8 O24 2.446197 1_455
Na8 O42 2.640871 1_455
Na8 O29 2.640871 1_555
Na8 O36 2.640871 1_555
Na8 O45 2.640871 1_555
Na9 O38 2.446197 1_555
Na9 O37 2.446197 1_555
Na9 O30 2.446197 1_554
Na9 O19 2.446197 1_555
Na9 O44 2.640871 1_555
Na9 O25 2.640871 1_554
Na9 O40 2.640871 1_555
Na9 O35 2.640871 1_555
Na10 O25 2.446197 1_555
Na10 O36 2.446197 1_555
Na10 O43 2.446197 1_455
Na10 O39 2.446197 1_555
Na10 O28 2.640871 1_555
Na10 O33 2.640871 1_455
Na10 O30 2.640871 1_555
Na10 O34 2.640871 1_555
Na11 O46 2.446197 1_555
Na11 O29 2.446197 1_555
Na11 O41 2.446197 1_555
Na11 O35 2.446197 1_545
Na11 O19 2.640871 1_545
Na11 O31 2.640871 1_555
Na11 O26 2.640871 1_555
Na11 O32 2.640871 1_555
Ge0 O14 1.780491 1_555
Ge0 O25 1.780491 1_555
Ge0 O36 1.780491 1_555
Ge0 O9 1.780491 1_555
Ge1 O46 1.780491 1_555
Ge1 O20 1.780491 1_555
Ge1 O1 1.780491 1_555
Ge1 O41 1.780491 1_555
Ge2 O24 1.780491 1_555
Ge2 O27 1.780491 1_655
Ge2 O6 1.780491 1_555
Ge2 O8 1.780491 1_554
Ge3 O11 1.780491 1_555
Ge3 O33 1.780491 1_555
Ge3 O26 1.780491 1_555
Ge3 O10 1.780491 1_555
Ge4 O4 1.780491 1_555
Ge4 O38 1.780491 1_555
Ge4 O37 1.780491 1_555
Ge4 O23 1.780491 1_555
Ge5 O34 1.780491 1_555
Ge5 O31 1.780491 1_556
Ge5 O15 1.780491 1_555
Ge5 O13 1.780491 1_545
Ge6 O42 1.780491 1_565
Ge6 O7 1.780491 1_554
Ge6 O40 1.780491 1_555
Ge6 O21 1.780491 1_555
Ge7 O45 1.780491 1_555
Ge7 O2 1.780491 1_555
Ge7 O22 1.780491 1_555
Ge7 O44 1.780491 1_555
Ge8 O32 1.780491 1_555
Ge8 O18 1.780491 1_555
Ge8 O17 1.780491 1_555
Ge8 O28 1.780491 1_555
Ge9 O19 1.780491 1_556
Ge9 O3 1.780491 1_455
Ge9 O30 1.780491 1_555
Ge9 O0 1.780491 1_555
Ge10 O39 1.780491 1_655
Ge10 O5 1.780491 1_545
Ge10 O43 1.780491 1_555
Ge10 O47 1.780491 1_555
Ge11 O35 1.780491 1_555
Ge11 O29 1.780491 1_565
Ge11 O12 1.780491 1_555
Ge11 O16 1.780491 1_455
Mo0 O31 2.027915 1_555
Mo0 O27 2.027915 1_555
Mo0 O29 2.027915 1_555
Mo0 O3 2.027915 1_444
Mo0 O7 2.027915 1_444
Mo0 O5 2.027915 1_444
Mo1 O13 2.027915 1_545
Mo1 O12 2.027915 1_545
Mo1 O28 2.027915 1_555
Mo1 O43 2.027915 1_455
Mo1 O4 2.027915 1_445
Mo1 O42 2.027915 1_455
Mo2 O8 2.027915 1_554
Mo2 O15 2.027915 1_554
Mo2 O41 2.027915 1_555
Mo2 O40 2.027915 1_545
Mo2 O14 2.027915 1_544
Mo2 O19 2.027915 1_545
Mo3 O16 2.027915 1_455
Mo3 O6 2.027915 1_455
Mo3 O44 2.027915 1_555
Mo3 O11 2.027915 1_454
Mo3 O30 2.027915 1_554
Mo3 O39 2.027915 1_554
Mo4 O17 2.027915 1_555
Mo4 O26 2.027915 1_555
Mo4 O47 2.027915 1_555
Mo4 O2 2.027915 1_545
Mo4 O35 2.027915 1_545
Mo4 O38 2.027915 1_545
Mo5 O1 2.027915 1_555
Mo5 O37 2.027915 1_555
Mo5 O21 2.027915 1_555
Mo5 O18 2.027915 1_554
Mo5 O34 2.027915 1_554
Mo5 O25 2.027915 1_554
Mo6 O22 2.027915 1_555
Mo6 O36 2.027915 1_555
Mo6 O0 2.027915 1_555
Mo6 O20 2.027915 1_455
Mo6 O24 2.027915 1_455
Mo6 O33 2.027915 1_455
Mo7 O9 2.027915 1_555
Mo7 O23 2.027915 1_555
Mo7 O10 2.027915 1_555
Mo7 O45 2.027915 1_555
Mo7 O32 2.027915 1_555
Mo7 O46 2.027915 1_555
