# generated using pymatgen
data_SrLiTi4CrO11
_symmetry_space_group_name_H-M   'P 1'
_cell_length_a   13.95195600
_cell_length_b   5.86433800
_cell_length_c   11.59200305
_cell_angle_alpha   59.66532928
_cell_angle_beta   90.00000000
_cell_angle_gamma   90.00000000
_symmetry_Int_Tables_number   1
_chemical_formula_structural   SrLiTi4CrO11
_chemical_formula_sum   'Sr4 Li4 Ti16 Cr4 O44'
_cell_volume   818.59428870
_cell_formula_units_Z   4
loop_
 _symmetry_equiv_pos_site_id
 _symmetry_equiv_pos_as_xyz
  1  'x, y, z'
loop_
 _atom_site_type_symbol
 _atom_site_label
 _atom_site_symmetry_multiplicity
 _atom_site_fract_x
 _atom_site_fract_y
 _atom_site_fract_z
 _atom_site_occupancy
  Sr  Sr0  1  0.90341800  0.84809300  0.89618500  1
  Sr  Sr1  1  0.40341800  0.15190700  0.60381500  1
  Sr  Sr2  1  0.59658200  0.84809300  0.39618500  1
  Sr  Sr3  1  0.09658200  0.15190700  0.10381500  1
  Li  Li0  1  0.45644000  0.82521300  0.92137500  1
  Li  Li1  1  0.95644000  0.17478700  0.57862500  1
  Li  Li2  1  0.04356000  0.82521300  0.42137500  1
  Li  Li3  1  0.54356000  0.17478700  0.07862500  1
  Ti  Ti0  1  0.33206500  0.82781000  0.16689200  1
  Ti  Ti1  1  0.16447500  0.35643300  0.39018300  1
  Ti  Ti2  1  0.17245900  0.81211100  0.93444100  1
  Ti  Ti3  1  0.99877800  0.53624600  0.22164400  1
  Ti  Ti4  1  0.66447500  0.64356700  0.10981700  1
  Ti  Ti5  1  0.49877800  0.46375400  0.27835600  1
  Ti  Ti6  1  0.67245900  0.18788900  0.56555900  1
  Ti  Ti7  1  0.83206500  0.17219000  0.33310800  1
  Ti  Ti8  1  0.16793500  0.82781000  0.66689200  1
  Ti  Ti9  1  0.33552500  0.35643300  0.89018300  1
  Ti  Ti10  1  0.00122200  0.46375400  0.77835600  1
  Ti  Ti11  1  0.50122200  0.53624600  0.72164400  1
  Ti  Ti12  1  0.83552500  0.64356700  0.60981700  1
  Ti  Ti13  1  0.32754100  0.81211100  0.43444100  1
  Ti  Ti14  1  0.82754100  0.18788900  0.06555900  1
  Ti  Ti15  1  0.66793500  0.17219000  0.83310800  1
  Cr  Cr0  1  0.82971100  0.66793200  0.33220300  1
  Cr  Cr1  1  0.32971100  0.33206800  0.16779700  1
  Cr  Cr2  1  0.67028900  0.66793200  0.83220300  1
  Cr  Cr3  1  0.17028900  0.33206800  0.66779700  1
  O  O0  1  0.75651900  0.00883200  0.99436700  1
  O  O1  1  0.25852400  0.49614800  0.50520000  1
  O  O2  1  0.58327700  0.31923600  0.67429000  1
  O  O3  1  0.08360400  0.16927900  0.83046700  1
  O  O4  1  0.58808900  0.78788700  0.18475300  1
  O  O5  1  0.08680700  0.65620300  0.31505300  1
  O  O6  1  0.73792800  0.01551500  0.74081500  1
  O  O7  1  0.75760900  0.49641000  0.24846400  1
  O  O8  1  0.23792800  0.98448500  0.75918500  1
  O  O9  1  0.56535600  0.31160400  0.44163300  1
  O  O10  1  0.91380200  0.35160900  0.39428400  1
  O  O11  1  0.60276900  0.82551900  0.92907300  1
  O  O12  1  0.10276900  0.17448100  0.57092700  1
  O  O13  1  0.25760900  0.50359000  0.25153600  1
  O  O14  1  0.41380200  0.64839100  0.10571600  1
  O  O15  1  0.06535600  0.68839600  0.05836700  1
  O  O16  1  0.08808900  0.21211300  0.31524700  1
  O  O17  1  0.58680700  0.34379700  0.18494700  1
  O  O18  1  0.58360400  0.83072100  0.66953300  1
  O  O19  1  0.08327700  0.68076400  0.82571000  1
  O  O20  1  0.75852400  0.50385200  0.99480000  1
  O  O21  1  0.25651900  0.99116800  0.50563300  1
  O  O22  1  0.74348100  0.00883200  0.49436700  1
  O  O23  1  0.24147600  0.49614800  0.00520000  1
  O  O24  1  0.41639600  0.16927900  0.33046700  1
  O  O25  1  0.91672300  0.31923600  0.17429000  1
  O  O26  1  0.41319300  0.65620300  0.81505300  1
  O  O27  1  0.91191100  0.78788700  0.68475300  1
  O  O28  1  0.93464400  0.31160400  0.94163300  1
  O  O29  1  0.74239100  0.49641000  0.74846400  1
  O  O30  1  0.24239100  0.50359000  0.75153600  1
  O  O31  1  0.08619800  0.64839100  0.60571600  1
  O  O32  1  0.43464400  0.68839600  0.55836700  1
  O  O33  1  0.89723100  0.82551900  0.42907300  1
  O  O34  1  0.26207200  0.98448500  0.25918500  1
  O  O35  1  0.76207200  0.01551500  0.24081500  1
  O  O36  1  0.39723100  0.17448100  0.07092700  1
  O  O37  1  0.58619800  0.35160900  0.89428400  1
  O  O38  1  0.41191100  0.21211300  0.81524700  1
  O  O39  1  0.91319300  0.34379700  0.68494700  1
  O  O40  1  0.41672300  0.68076400  0.32571000  1
  O  O41  1  0.91639600  0.83072100  0.16953300  1
  O  O42  1  0.74147600  0.50385200  0.49480000  1
  O  O43  1  0.24348100  0.99116800  0.00563300  1
loop_
_geom_bond_atom_site_label_1
_geom_bond_atom_site_label_2
_geom_bond_distance
_geom_bond_site_symmetry_2
Li0 O14 1.938349 1_556
Li0 O26 2.024678 1_555
Li0 O11 2.043565 1_555
Li0 O38 2.056192 1_565
Li1 O10 1.938349 1_555
Li1 O39 2.024678 1_555
Li1 O12 2.043565 1_655
Li1 O27 2.056192 1_545
Li2 O31 1.938349 1_555
Li2 O5 2.024678 1_555
Li2 O33 2.043565 1_455
Li2 O16 2.056192 1_565
Li3 O37 1.938349 1_554
Li3 O17 2.024678 1_555
Li3 O36 2.043565 1_555
Li3 O4 2.056192 1_545
Cr0 O7 1.988025 1_555
Cr0 O35 1.996623 1_565
Cr0 O10 1.996758 1_555
Cr0 O33 2.012619 1_555
Cr0 O41 2.027680 1_555
Cr0 O42 2.040094 1_555
Cr1 O13 1.988025 1_555
Cr1 O34 1.996623 1_545
Cr1 O14 1.996758 1_555
Cr1 O36 2.012619 1_555
Cr1 O24 2.027680 1_555
Cr1 O23 2.040094 1_555
Cr2 O29 1.988025 1_555
Cr2 O6 1.996623 1_565
Cr2 O37 1.996758 1_555
Cr2 O11 2.012619 1_555
Cr2 O18 2.027680 1_555
Cr2 O20 2.040094 1_555
Cr3 O30 1.988025 1_555
Cr3 O8 1.996623 1_545
Cr3 O31 1.996758 1_555
Cr3 O12 2.012619 1_555
Cr3 O3 2.027680 1_555
Cr3 O1 2.040094 1_555
O0 Ti14 1.908100 1_556
O0 Ti15 2.032415 1_555
O0 Ti4 2.265586 1_546
O0 Sr0 2.732784 1_545
O1 Ti13 1.870326 1_555
O1 Ti1 2.296554 1_555
O1 Sr1 2.671661 1_555
O2 Ti15 1.981027 1_555
O2 Ti11 1.984224 1_555
O2 Ti6 2.170434 1_555
O2 Sr1 2.955851 1_555
O2 Sr2 3.153842 1_555
O3 Ti10 1.901178 1_555
O3 Ti2 2.196973 1_545
O3 Sr0 2.999771 1_445
O3 Sr3 3.123691 1_556
O4 Ti4 1.830097 1_555
O4 Ti5 2.063934 1_555
O4 Sr2 2.649489 1_555
O5 Ti1 1.864573 1_555
O5 Ti3 1.986238 1_455
O5 Sr3 2.697217 1_565
O6 Ti6 1.977137 1_555
O6 Ti15 1.983766 1_555
O6 Sr0 2.784357 1_545
O7 Ti4 1.901387 1_555
O7 Ti7 1.942297 1_555
O8 Ti2 1.977137 1_555
O8 Ti8 1.983766 1_555
O8 Sr1 2.784357 1_565
O9 Ti5 1.880284 1_555
O9 Ti6 1.941702 1_555
O9 Sr1 2.781679 1_555
O9 Sr2 2.948117 1_555
O9 Sr2 3.049980 1_545
O10 Ti7 1.914196 1_555
O10 Ti3 2.096234 1_555
O11 Ti15 1.978079 1_565
O11 Ti4 2.002831 1_556
O12 Ti8 1.978079 1_545
O12 Ti1 2.002831 1_555
O13 Ti1 1.901387 1_555
O13 Ti0 1.942297 1_555
O14 Ti0 1.914196 1_555
O14 Ti5 2.096234 1_555
O15 Ti3 1.880284 1_455
O15 Ti2 1.941702 1_554
O15 Sr0 2.781679 1_454
O15 Sr3 2.948117 1_555
O15 Sr3 3.049980 1_565
O16 Ti1 1.830097 1_555
O16 Ti3 2.063934 1_455
O16 Sr3 2.649489 1_555
O17 Ti4 1.864573 1_555
O17 Ti5 1.986238 1_555
O17 Sr2 2.697217 1_545
O18 Ti11 1.901178 1_555
O18 Ti6 2.196973 1_565
O18 Sr1 2.999771 1_565
O18 Sr2 3.123691 1_555
O19 Ti8 1.981027 1_555
O19 Ti10 1.984224 1_555
O19 Ti2 2.170434 1_555
O19 Sr0 2.955851 1_455
O19 Sr3 3.153842 1_556
O20 Ti14 1.870326 1_556
O20 Ti4 2.296554 1_556
O20 Sr0 2.671661 1_555
O21 Ti13 1.908100 1_555
O21 Ti8 2.032415 1_555
O21 Ti1 2.265586 1_565
O21 Sr1 2.732784 1_565
O22 Ti6 1.908100 1_555
O22 Ti7 2.032415 1_555
O22 Ti12 2.265586 1_545
O22 Sr2 2.732784 1_545
O23 Ti2 1.870326 1_554
O23 Ti9 2.296554 1_554
O23 Sr3 2.671661 1_555
O24 Ti5 1.901178 1_555
O24 Ti13 2.196973 1_545
O24 Sr2 2.999771 1_545
O24 Sr1 3.123691 1_555
O25 Ti7 1.981027 1_555
O25 Ti3 1.984224 1_555
O25 Ti14 2.170434 1_555
O25 Sr3 2.955851 1_655
O25 Sr0 3.153842 1_554
O26 Ti9 1.864573 1_555
O26 Ti11 1.986238 1_555
O26 Sr1 2.697217 1_565
O27 Ti12 1.830097 1_555
O27 Ti10 2.063934 1_655
O27 Sr0 2.649489 1_555
O28 Ti10 1.880284 1_655
O28 Ti14 1.941702 1_556
O28 Sr3 2.781679 1_656
O28 Sr0 2.948117 1_555
O28 Sr0 3.049980 1_545
O29 Ti12 1.901387 1_555
O29 Ti15 1.942297 1_555
O30 Ti9 1.901387 1_555
O30 Ti8 1.942297 1_555
O31 Ti8 1.914196 1_555
O31 Ti10 2.096234 1_555
O32 Ti11 1.880284 1_555
O32 Ti13 1.941702 1_555
O32 Sr2 2.781679 1_555
O32 Sr1 2.948117 1_555
O32 Sr1 3.049980 1_565
O33 Ti7 1.978079 1_565
O33 Ti12 2.002831 1_555
O34 Ti13 1.977137 1_555
O34 Ti0 1.983766 1_555
O34 Sr3 2.784357 1_565
O35 Ti14 1.977137 1_555
O35 Ti7 1.983766 1_555
O35 Sr2 2.784357 1_545
O36 Ti0 1.978079 1_545
O36 Ti9 2.002831 1_554
O37 Ti15 1.914196 1_555
O37 Ti11 2.096234 1_555
O38 Ti9 1.830097 1_555
O38 Ti11 2.063934 1_555
O38 Sr1 2.649489 1_555
O39 Ti12 1.864573 1_555
O39 Ti10 1.986238 1_655
O39 Sr0 2.697217 1_545
O40 Ti0 1.981027 1_555
O40 Ti5 1.984224 1_555
O40 Ti13 2.170434 1_555
O40 Sr2 2.955851 1_555
O40 Sr1 3.153842 1_555
O41 Ti3 1.901178 1_555
O41 Ti14 2.196973 1_565
O41 Sr3 2.999771 1_665
O41 Sr0 3.123691 1_554
O42 Ti6 1.870326 1_555
O42 Ti12 2.296554 1_555
O42 Sr2 2.671661 1_555
O43 Ti2 1.908100 1_554
O43 Ti0 2.032415 1_555
O43 Ti9 2.265586 1_564
O43 Sr3 2.732784 1_565
