# generated using pymatgen
data_U(AlFe2)4
_symmetry_space_group_name_H-M   'P 1'
_cell_length_a   4.81155400
_cell_length_b   6.47905398
_cell_length_c   6.47905398
_cell_angle_alpha   82.07506274
_cell_angle_beta   68.20319305
_cell_angle_gamma   68.20319305
_symmetry_Int_Tables_number   1
_chemical_formula_structural   U(AlFe2)4
_chemical_formula_sum   'U1 Al4 Fe8'
_cell_volume   174.13195588
_cell_formula_units_Z   1
loop_
 _symmetry_equiv_pos_site_id
 _symmetry_equiv_pos_as_xyz
  1  'x, y, z'
loop_
 _atom_site_type_symbol
 _atom_site_label
 _atom_site_symmetry_multiplicity
 _atom_site_fract_x
 _atom_site_fract_y
 _atom_site_fract_z
 _atom_site_occupancy
  U  U0  1  0.00000000  0.00000000  0.00000000  1
  Al  Al0  1  0.00000000  0.34797000  0.65203000  1
  Al  Al1  1  0.00000000  0.65203000  0.34797000  1
  Al  Al2  1  0.65203000  0.34797000  0.34797000  1
  Al  Al3  1  0.34797000  0.65203000  0.65203000  1
  Fe  Fe0  1  0.00000000  0.00000000  0.50000000  1
  Fe  Fe1  1  0.50000000  0.00000000  0.50000000  1
  Fe  Fe2  1  0.50000000  0.50000000  0.00000000  1
  Fe  Fe3  1  0.00000000  0.50000000  0.00000000  1
  Fe  Fe4  1  0.50000000  0.77385200  0.22614900  1
  Fe  Fe5  1  0.50000000  0.22614900  0.77385200  1
  Fe  Fe6  1  0.72614800  0.77385200  0.77385200  1
  Fe  Fe7  1  0.27385200  0.22614900  0.22614900  1
loop_
_geom_bond_atom_site_label_1
_geom_bond_atom_site_label_2
_geom_bond_distance
_geom_bond_site_symmetry_2
Al0 Fe3 2.581755 1_556
Al0 Fe1 2.581755 1_555
Al0 Fe0 2.581755 1_555
Al0 Fe2 2.581755 1_456
Al0 Al1 2.586848 1_555
Al0 Fe5 2.619526 1_455
Al0 Fe5 2.619530 1_555
Al0 Fe7 2.664788 1_555
Al0 Fe6 2.664795 1_455
Al0 U0 2.960420 1_556
Al0 Al2 3.022193 1_555
Al0 Al3 3.022193 1_455
Al0 Al3 3.022193 1_555
Al0 Al2 3.022193 1_455
Al1 Fe0 2.581755 1_565
Al1 Fe2 2.581755 1_555
Al1 Fe3 2.581755 1_555
Al1 Fe1 2.581755 1_465
Al1 Fe4 2.619526 1_455
Al1 Fe4 2.619530 1_555
Al1 Fe7 2.664788 1_555
Al1 Fe6 2.664795 1_455
Al1 U0 2.960420 1_565
Al1 Al2 3.022193 1_555
Al1 Al3 3.022193 1_455
Al1 Al3 3.022193 1_555
Al1 Al2 3.022193 1_455
Al2 Fe3 2.581755 1_655
Al2 Fe2 2.581755 1_555
Al2 Fe1 2.581755 1_555
Al2 Fe0 2.581755 1_655
Al2 Al3 2.586848 1_555
Al2 Fe7 2.619522 1_555
Al2 Fe7 2.619531 1_655
Al2 Fe4 2.664794 1_555
Al2 Fe5 2.664794 1_555
Al2 U0 2.960420 1_655
Al3 Fe0 2.581755 1_565
Al3 Fe2 2.581755 1_556
Al3 Fe1 2.581755 1_565
Al3 Fe3 2.581755 1_556
Al3 Fe6 2.619530 1_555
Al3 Fe6 2.619530 1_455
Al3 Fe5 2.664790 1_555
Al3 Fe4 2.664790 1_555
Al3 U0 2.960420 1_566
Fe0 Fe1 2.405777 1_455
Fe0 Fe1 2.405777 1_555
Fe0 Fe4 2.451918 1_545
Fe0 Fe6 2.451921 1_445
Fe0 Fe7 2.451923 1_555
Fe0 Fe5 2.451923 1_455
Fe0 U0 3.239527 1_556
Fe0 U0 3.239527 1_555
Fe1 Fe4 2.451916 1_545
Fe1 Fe7 2.451918 1_555
Fe1 Fe6 2.451921 1_545
Fe1 Fe5 2.451926 1_555
Fe1 U0 3.239527 1_556
Fe1 U0 3.239527 1_655
Fe2 Fe3 2.405777 1_555
Fe2 Fe3 2.405777 1_655
Fe2 Fe5 2.451916 1_554
Fe2 Fe7 2.451918 1_555
Fe2 Fe6 2.451921 1_554
Fe2 Fe4 2.451926 1_555
Fe2 U0 3.239527 1_655
Fe2 U0 3.239527 1_565
Fe3 Fe5 2.451918 1_554
Fe3 Fe6 2.451921 1_454
Fe3 Fe7 2.451923 1_555
Fe3 Fe4 2.451923 1_455
Fe3 U0 3.239527 1_555
Fe3 U0 3.239527 1_565
Fe4 Fe7 2.720948 1_565
Fe4 Fe6 2.720948 1_554
Fe4 U0 3.080508 1_665
Fe4 U0 3.080512 1_565
Fe5 Fe7 2.720948 1_556
Fe5 Fe6 2.720948 1_545
Fe5 U0 3.080508 1_656
Fe5 U0 3.080512 1_556
Fe6 U0 3.080507 1_666
Fe6 U0 3.080507 1_566
Fe7 U0 3.080509 1_655
Fe7 U0 3.080516 1_555
