# generated using pymatgen
data_Zn3Cu2H14(SO9)2
_symmetry_space_group_name_H-M   'P 1'
_cell_length_a   5.36437029
_cell_length_b   6.33124293
_cell_length_c   10.43328090
_cell_angle_alpha   94.68539091
_cell_angle_beta   89.56855618
_cell_angle_gamma   90.36029556
_symmetry_Int_Tables_number   1
_chemical_formula_structural   Zn3Cu2H14(SO9)2
_chemical_formula_sum   'Zn3 Cu2 H14 S2 O18'
_cell_volume   353.14701661
_cell_formula_units_Z   1
loop_
 _symmetry_equiv_pos_site_id
 _symmetry_equiv_pos_as_xyz
  1  'x, y, z'
loop_
 _atom_site_type_symbol
 _atom_site_label
 _atom_site_symmetry_multiplicity
 _atom_site_fract_x
 _atom_site_fract_y
 _atom_site_fract_z
 _atom_site_occupancy
  Zn  Zn0  1  0.00000000  -0.00000000  -0.00000000  1
  Zn  Zn1  1  0.49011207  0.74978494  0.50483633  1
  Zn  Zn2  1  0.50988793  0.25021506  0.49516367  1
  Cu  Cu0  1  0.00000000  -0.00000000  0.50000000  1
  Cu  Cu1  1  0.00000000  0.50000000  0.50000000  1
  H  H0  1  0.78382818  0.35243890  0.06764647  1
  H  H1  1  0.21617182  0.64756110  0.93235353  1
  H  H2  1  0.64931827  0.27242402  0.93527152  1
  H  H3  1  0.35068173  0.72757598  0.06472848  1
  H  H4  1  0.81381321  0.66819982  0.85972544  1
  H  H5  1  0.18618679  0.33180018  0.14027456  1
  H  H6  1  0.58068331  0.80286337  0.91147585  1
  H  H7  1  0.41931669  0.19713663  0.08852415  1
  H  H8  1  0.89264295  0.21478979  0.31822631  1
  H  H9  1  0.10735705  0.78521021  0.68177369  1
  H  H10  1  0.30351000  0.99401060  0.31656145  1
  H  H11  1  0.69649000  0.00598940  0.68343855  1
  H  H12  1  0.32297623  0.50225443  0.31969871  1
  H  H13  1  0.67702377  0.49774557  0.68030129  1
  S  S0  1  0.23013381  0.30105352  0.78048247  1
  S  S1  1  0.76986619  0.69894648  0.21951753  1
  O  O0  1  0.20984669  0.27747004  0.63784991  1
  O  O1  1  0.79015331  0.72252996  0.36215009  1
  O  O2  1  0.49094437  0.35215343  0.81526456  1
  O  O3  1  0.50905563  0.64784657  0.18473544  1
  O  O4  1  0.06733011  0.47563559  0.83209625  1
  O  O5  1  0.93266989  0.52436441  0.16790375  1
  O  O6  1  0.15036463  0.09940570  0.82947926  1
  O  O7  1  0.84963537  0.90059430  0.17052074  1
  O  O8  1  0.31982550  0.99684835  0.40912132  1
  O  O9  1  0.68017450  0.00315165  0.59087868  1
  O  O10  1  0.31845589  0.48552816  0.41130854  1
  O  O11  1  0.68154411  0.51447184  0.58869146  1
  O  O12  1  0.86342913  0.23440044  0.41010488  1
  O  O13  1  0.13657087  0.76559956  0.58989512  1
  O  O14  1  0.28453030  0.77428736  0.98292625  1
  O  O15  1  0.71546970  0.22571264  0.01707375  1
  O  O16  1  0.75361773  0.81246923  0.87912708  1
  O  O17  1  0.24638227  0.18753077  0.12087292  1
loop_
_geom_bond_atom_site_label_1
_geom_bond_atom_site_label_2
_geom_bond_distance
_geom_bond_site_symmetry_2
Cu0 O9 1.953394 1_455
Cu0 O8 1.953394 1_545
Cu0 O12 1.967280 1_455
Cu0 O13 1.967280 1_545
Cu0 O1 2.451231 1_445
Cu0 O0 2.451231 1_555
Cu1 O11 1.935796 1_455
Cu1 O10 1.935796 1_555
Cu1 O13 1.995314 1_555
Cu1 O12 1.995314 1_455
Cu1 O1 2.386635 1_455
Cu1 O0 2.386635 1_555
H0 O15 0.993311 1_555
H0 O5 1.652915 1_555
H1 O14 0.993311 1_555
H1 O4 1.652915 1_555
H2 O15 0.994439 1_556
H2 O2 1.633685 1_555
H3 O14 0.994439 1_554
H3 O3 1.633685 1_555
H4 O16 0.975743 1_555
H5 O17 0.975743 1_555
H6 O16 0.987995 1_555
H7 O17 0.987995 1_555
H8 O12 0.968203 1_555
H9 O13 0.968203 1_555
H10 O8 0.969012 1_555
H11 O9 0.969012 1_555
H12 O10 0.970306 1_555
H13 O11 0.970306 1_555
O0 S0 1.488150 1_555
O0 Zn2 2.182200 1_555
O1 S1 1.488150 1_555
O1 Zn1 2.182200 1_555
O2 S0 1.475320 1_555
O3 S1 1.475320 1_555
O4 S0 1.477247 1_555
O5 S1 1.477247 1_555
O6 S0 1.473364 1_555
O6 Zn0 2.089691 1_556
O7 S1 1.473364 1_555
O7 Zn0 2.089691 1_665
O8 Zn2 2.043665 1_565
O8 Zn1 2.136673 1_555
O9 Zn1 2.043665 1_545
O9 Zn2 2.136673 1_555
O10 Zn2 2.070087 1_555
O10 Zn1 2.080079 1_555
O11 Zn1 2.070087 1_555
O11 Zn2 2.080079 1_555
O12 Zn2 2.087322 1_555
O13 Zn1 2.087322 1_555
O14 Zn0 2.094114 1_566
O15 Zn0 2.094114 1_655
O16 Zn0 2.123127 1_666
O17 Zn0 2.123127 1_555
