# generated using pymatgen
data_Sr5Ca3Ti3Mn5O24
_symmetry_space_group_name_H-M   'P 1'
_cell_length_a   7.73531500
_cell_length_b   7.77539812
_cell_length_c   7.77890915
_cell_angle_alpha   90.00925730
_cell_angle_beta   90.00659951
_cell_angle_gamma   90.01016165
_symmetry_Int_Tables_number   1
_chemical_formula_structural   Sr5Ca3Ti3Mn5O24
_chemical_formula_sum   'Sr5 Ca3 Ti3 Mn5 O24'
_cell_volume   467.86367027
_cell_formula_units_Z   1
loop_
 _symmetry_equiv_pos_site_id
 _symmetry_equiv_pos_as_xyz
  1  'x, y, z'
loop_
 _atom_site_type_symbol
 _atom_site_label
 _atom_site_symmetry_multiplicity
 _atom_site_fract_x
 _atom_site_fract_y
 _atom_site_fract_z
 _atom_site_occupancy
  Sr  Sr0  1  0.75392900  0.75140000  0.75131800  1
  Sr  Sr1  1  0.24595900  0.75138500  0.75130400  1
  Sr  Sr2  1  0.75397300  0.75128300  0.24870900  1
  Sr  Sr3  1  0.24600500  0.75136700  0.24874900  1
  Sr  Sr4  1  0.75431400  0.24864300  0.24859500  1
  Ca  Ca0  1  0.75548300  0.24833500  0.75159800  1
  Ca  Ca1  1  0.24438900  0.24837200  0.75171200  1
  Ca  Ca2  1  0.24490300  0.24831200  0.24830400  1
  Ti  Ti0  1  0.49901100  0.49694300  0.99929900  1
  Ti  Ti1  1  0.49902000  0.00208000  0.50097400  1
  Ti  Ti2  1  0.49896400  0.49796400  0.50066900  1
  Mn  Mn0  1  0.00050600  0.00150700  0.99943600  1
  Mn  Mn1  1  0.49936700  0.00132700  0.99954800  1
  Mn  Mn2  1  0.00033900  0.49821300  0.99947400  1
  Mn  Mn3  1  0.00038100  0.00170600  0.50057200  1
  Mn  Mn4  1  0.00032200  0.49835500  0.50057100  1
  O  O0  1  0.00028100  0.00564400  0.74992300  1
  O  O1  1  0.49955600  0.00424200  0.75315800  1
  O  O2  1  0.00021100  0.49438400  0.75020700  1
  O  O3  1  0.49951800  0.49634900  0.75049700  1
  O  O4  1  0.00274600  0.00322200  0.25002400  1
  O  O5  1  0.49806900  0.00279900  0.24689800  1
  O  O6  1  0.00278700  0.49679900  0.24980900  1
  O  O7  1  0.49841600  0.49741400  0.24948100  1
  O  O8  1  0.00027800  0.75001000  0.99977800  1
  O  O9  1  0.49956800  0.75306300  0.99958600  1
  O  O10  1  0.00264300  0.25010600  0.99731900  1
  O  O11  1  0.49817400  0.24676200  0.99814900  1
  O  O12  1  0.00015500  0.75018900  0.50023000  1
  O  O13  1  0.49956500  0.75056300  0.50047000  1
  O  O14  1  0.00275100  0.24982200  0.50267800  1
  O  O15  1  0.49851200  0.24951000  0.50154400  1
  O  O16  1  0.74961000  0.00305800  0.99724700  1
  O  O17  1  0.25046600  0.00560800  0.99985200  1
  O  O18  1  0.75294500  0.49729900  0.99807700  1
  O  O19  1  0.24700300  0.49591200  0.99958800  1
  O  O20  1  0.75293000  0.00272600  0.50190400  1
  O  O21  1  0.24702800  0.00415100  0.50043000  1
  O  O22  1  0.75326500  0.49729300  0.50190500  1
  O  O23  1  0.24665600  0.49588300  0.50041000  1
loop_
_geom_bond_atom_site_label_1
_geom_bond_atom_site_label_2
_geom_bond_distance
_geom_bond_site_symmetry_2
Ca0 O0 2.673567 1_655
Ca0 O2 2.691196 1_655
Ca0 O16 2.700339 1_555
Ca0 O10 2.703359 1_655
Ca0 O14 2.721902 1_655
Ca0 O20 2.723759 1_555
Ca0 O18 2.724462 1_555
Ca0 O1 2.742270 1_555
Ca0 O22 2.742501 1_555
Ca0 O3 2.764139 1_555
Ca0 O11 2.764221 1_555
Ca0 O15 2.781000 1_555
Ca1 O0 2.669520 1_555
Ca1 O10 2.673585 1_555
Ca1 O2 2.688480 1_555
Ca1 O14 2.691804 1_555
Ca1 O17 2.700422 1_555
Ca1 O19 2.724283 1_555
Ca1 O21 2.725064 1_555
Ca1 O1 2.738709 1_555
Ca1 O23 2.743477 1_555
Ca1 O11 2.743725 1_555
Ca1 O3 2.758824 1_555
Ca1 O15 2.766237 1_555
Ca2 O4 2.671937 1_555
Ca2 O6 2.691081 1_555
Ca2 O17 2.701336 1_554
Ca2 O10 2.706088 1_554
Ca2 O14 2.724892 1_555
Ca2 O19 2.729658 1_554
Ca2 O21 2.729862 1_555
Ca2 O5 2.735067 1_555
Ca2 O23 2.747796 1_555
Ca2 O7 2.756032 1_555
Ca2 O11 2.761498 1_554
Ca2 O15 2.779974 1_555
Mn0 O10 1.933097 1_555
Mn0 O17 1.933779 1_555
Mn0 O16 1.940872 1_455
Mn0 O0 1.941211 1_555
Mn0 O4 1.949420 1_556
Mn0 O8 1.955492 1_545
Mn1 O11 1.908412 1_555
Mn1 O1 1.916784 1_555
Mn1 O5 1.924173 1_556
Mn1 O17 1.925623 1_555
Mn1 O9 1.930352 1_545
Mn1 O16 1.935838 1_555
Mn2 O19 1.908111 1_555
Mn2 O18 1.913712 1_455
Mn2 O10 1.929286 1_555
Mn2 O2 1.939249 1_555
Mn2 O6 1.947456 1_556
Mn2 O8 1.957823 1_555
Mn3 O21 1.907984 1_555
Mn3 O20 1.914158 1_455
Mn3 O14 1.929351 1_555
Mn3 O0 1.939916 1_555
Mn3 O4 1.949116 1_555
Mn3 O12 1.955647 1_545
Mn4 O23 1.905572 1_555
Mn4 O22 1.911109 1_455
Mn4 O14 1.932610 1_555
Mn4 O2 1.942146 1_555
Mn4 O6 1.950786 1_555
Mn4 O12 1.958112 1_555
O0 Sr1 2.742508 1_545
O0 Sr0 2.745555 1_445
O1 Ti1 1.961790 1_555
O1 Sr1 2.777105 1_545
O1 Sr0 2.781760 1_545
O2 Sr1 2.757794 1_555
O2 Sr0 2.761217 1_455
O3 Ti0 1.935417 1_555
O3 Ti2 1.943436 1_555
O3 Sr1 2.789384 1_555
O3 Sr0 2.793609 1_555
O4 Sr4 2.708461 1_455
O4 Sr3 2.716059 1_545
O4 Sr2 2.745764 1_445
O5 Ti1 1.976456 1_555
O5 Sr4 2.753479 1_555
O5 Sr3 2.760893 1_545
O5 Sr2 2.782895 1_545
O6 Sr4 2.723220 1_455
O6 Sr3 2.730604 1_555
O6 Sr2 2.760622 1_455
O7 Ti0 1.946152 1_554
O7 Ti2 1.953977 1_555
O7 Sr4 2.767874 1_555
O7 Sr3 2.777150 1_555
O7 Sr2 2.793360 1_555
O8 Sr1 2.710810 1_555
O8 Sr3 2.713502 1_556
O8 Sr0 2.714048 1_455
O8 Sr2 2.716727 1_456
O9 Ti0 1.991440 1_555
O9 Sr1 2.752797 1_555
O9 Sr0 2.757188 1_555
O9 Sr3 2.757677 1_556
O9 Sr2 2.761784 1_556
O10 Sr4 2.740717 1_456
O11 Ti0 1.945286 1_555
O11 Sr4 2.778564 1_556
O12 Sr1 2.725612 1_555
O12 Sr0 2.728285 1_455
O12 Sr3 2.728445 1_555
O12 Sr2 2.730144 1_455
O13 Ti1 1.955653 1_565
O13 Ti2 1.964063 1_555
O13 Sr1 2.767041 1_555
O13 Sr0 2.770958 1_555
O13 Sr3 2.771342 1_555
O13 Sr2 2.776524 1_555
O14 Sr4 2.756589 1_455
O15 Ti1 1.923876 1_555
O15 Ti2 1.931844 1_555
O15 Sr4 2.790689 1_555
O16 Sr4 2.732985 1_556
O16 Sr0 2.736526 1_545
O16 Sr2 2.767871 1_546
O17 Sr1 2.765029 1_545
O17 Sr3 2.767476 1_546
O18 Ti0 1.964285 1_555
O18 Sr4 2.745363 1_556
O18 Sr0 2.754879 1_555
O18 Sr2 2.774862 1_556
O19 Ti0 1.949378 1_555
O19 Sr1 2.770800 1_555
O19 Sr3 2.775012 1_556
O20 Ti1 1.964092 1_555
O20 Sr4 2.745944 1_555
O20 Sr0 2.753958 1_545
O20 Sr2 2.774955 1_545
O21 Ti1 1.949311 1_555
O21 Sr1 2.769907 1_545
O21 Sr3 2.773983 1_545
O22 Ti2 1.967129 1_555
O22 Sr4 2.760339 1_555
O22 Sr0 2.768885 1_555
O22 Sr2 2.789389 1_555
O23 Ti2 1.951747 1_555
O23 Sr1 2.784698 1_555
O23 Sr3 2.789231 1_555
