# generated using pymatgen
data_K3Na7Mg2H12S6(NO18)2
_symmetry_space_group_name_H-M   'P 1'
_cell_length_a   10.32370068
_cell_length_b   10.32370068
_cell_length_c   10.32370094
_cell_angle_alpha   64.78837409
_cell_angle_beta   64.78837409
_cell_angle_gamma   64.78837311
_symmetry_Int_Tables_number   1
_chemical_formula_structural   K3Na7Mg2H12S6(NO18)2
_chemical_formula_sum   'K3 Na7 Mg2 H12 S6 N2 O36'
_cell_volume   859.52395225
_cell_formula_units_Z   1
loop_
 _symmetry_equiv_pos_site_id
 _symmetry_equiv_pos_as_xyz
  1  'x, y, z'
loop_
 _atom_site_type_symbol
 _atom_site_label
 _atom_site_symmetry_multiplicity
 _atom_site_fract_x
 _atom_site_fract_y
 _atom_site_fract_z
 _atom_site_occupancy
  K  K0  1  0.99910700  0.50067200  0.50202100  1
  K  K1  1  0.50067200  0.50202100  0.99910700  1
  K  K2  1  0.50202100  0.99910700  0.50067200  1
  Na  Na0  1  0.27184700  0.73964700  0.25903200  1
  Na  Na1  1  0.73964700  0.25903200  0.27184700  1
  Na  Na2  1  0.25903200  0.27184700  0.73964700  1
  Na  Na3  1  0.72392100  0.26759700  0.73917800  1
  Na  Na4  1  0.26759700  0.73917800  0.72392100  1
  Na  Na5  1  0.73917800  0.72392100  0.26759700  1
  Na  Na6  1  0.12796200  0.12796200  0.12796200  1
  Mg  Mg0  1  0.00166400  0.00166400  0.00166400  1
  Mg  Mg1  1  0.87675900  0.87675900  0.87675900  1
  H  H0  1  0.23379600  0.96725400  0.37676500  1
  H  H1  1  0.96725400  0.37676500  0.23379600  1
  H  H2  1  0.37676500  0.23379600  0.96725400  1
  H  H3  1  0.77605700  0.01531500  0.63337400  1
  H  H4  1  0.01531500  0.63337400  0.77605700  1
  H  H5  1  0.63337400  0.77605700  0.01531500  1
  H  H6  1  0.37807000  0.96423200  0.24076100  1
  H  H7  1  0.96423200  0.24076100  0.37807000  1
  H  H8  1  0.24076100  0.37807000  0.96423200  1
  H  H9  1  0.63350300  0.01799800  0.77262200  1
  H  H10  1  0.01799800  0.77262200  0.63350300  1
  H  H11  1  0.77262200  0.63350300  0.01799800  1
  S  S0  1  0.10086600  0.62199100  0.09540500  1
  S  S1  1  0.62199100  0.09540500  0.10086600  1
  S  S2  1  0.09540500  0.10086600  0.62199100  1
  S  S3  1  0.89241600  0.38769500  0.89729800  1
  S  S4  1  0.38769500  0.89729800  0.89241600  1
  S  S5  1  0.89729800  0.89241600  0.38769500  1
  N  N0  1  0.42764900  0.42764900  0.42764900  1
  N  N1  1  0.57205900  0.57205900  0.57205900  1
  O  O0  1  0.18967400  0.62554300  0.17326900  1
  O  O1  1  0.62554300  0.17326900  0.18967400  1
  O  O2  1  0.17326900  0.18967400  0.62554300  1
  O  O3  1  0.79896400  0.39987400  0.81403100  1
  O  O4  1  0.39987400  0.81403100  0.79896400  1
  O  O5  1  0.81403100  0.79896400  0.39987400  1
  O  O6  1  0.01687700  0.78202000  0.02178500  1
  O  O7  1  0.78202000  0.02178500  0.01687700  1
  O  O8  1  0.02178500  0.01687700  0.78202000  1
  O  O9  1  0.96936800  0.22542500  0.96418400  1
  O  O10  1  0.22542500  0.96418400  0.96936800  1
  O  O11  1  0.96418400  0.96936800  0.22542500  1
  O  O12  1  0.98579400  0.54571700  0.20370600  1
  O  O13  1  0.54571700  0.20370600  0.98579400  1
  O  O14  1  0.20370600  0.98579400  0.54571700  1
  O  O15  1  0.01085300  0.46299600  0.79254500  1
  O  O16  1  0.46299600  0.79254500  0.01085300  1
  O  O17  1  0.79254500  0.01085300  0.46299600  1
  O  O18  1  0.20070600  0.55176400  0.97378000  1
  O  O19  1  0.55176400  0.97378000  0.20070600  1
  O  O20  1  0.97378000  0.20070600  0.55176400  1
  O  O21  1  0.79635600  0.45668500  0.02135000  1
  O  O22  1  0.45668500  0.02135000  0.79635600  1
  O  O23  1  0.02135000  0.79635600  0.45668500  1
  O  O24  1  0.29612500  0.50626900  0.48105800  1
  O  O25  1  0.50626900  0.48105800  0.29612500  1
  O  O26  1  0.48105800  0.29612500  0.50626900  1
  O  O27  1  0.70363800  0.49517200  0.51647800  1
  O  O28  1  0.49517200  0.51647800  0.70363800  1
  O  O29  1  0.51647800  0.70363800  0.49517200  1
  O  O30  1  0.27690100  0.27756600  0.95122100  1
  O  O31  1  0.27756600  0.95122100  0.27690100  1
  O  O32  1  0.95122100  0.27690100  0.27756600  1
  O  O33  1  0.73881200  0.73979500  0.01915400  1
  O  O34  1  0.73979500  0.01915400  0.73881200  1
  O  O35  1  0.01915400  0.73881200  0.73979500  1
loop_
_geom_bond_atom_site_label_1
_geom_bond_atom_site_label_2
_geom_bond_distance
_geom_bond_site_symmetry_2
K0 O5 2.860634 1_555
K0 O15 2.904739 1_655
K0 O2 2.952048 1_655
K0 O12 2.967463 1_555
K0 O23 2.979651 1_655
K0 O24 3.004575 1_655
K0 O3 3.005625 1_555
K0 O27 3.013722 1_555
K0 O20 3.023675 1_555
K0 O0 3.129864 1_655
K1 O3 2.860634 1_555
K1 O16 2.904738 1_556
K1 O0 2.952048 1_556
K1 O13 2.967463 1_555
K1 O21 2.979651 1_556
K1 O25 3.004575 1_556
K1 O4 3.005625 1_555
K1 O28 3.013722 1_555
K1 O18 3.023675 1_555
K1 O1 3.129864 1_556
K2 O4 2.860634 1_555
K2 O17 2.904738 1_565
K2 O1 2.952048 1_565
K2 O14 2.967463 1_555
K2 O22 2.979651 1_565
K2 O26 3.004575 1_565
K2 O5 3.005625 1_555
K2 O29 3.013722 1_555
K2 O19 3.023675 1_555
K2 O2 3.129864 1_565
Na0 O31 2.295817 1_555
Na0 O0 2.295858 1_555
Na0 O16 2.485081 1_555
Na0 O24 2.528192 1_555
Na0 O23 2.535058 1_555
Na0 O25 2.746789 1_555
Na1 O32 2.295817 1_555
Na1 O1 2.295858 1_555
Na1 O17 2.485081 1_555
Na1 O25 2.528192 1_555
Na1 O21 2.535058 1_555
Na1 O26 2.746789 1_555
Na2 O30 2.295817 1_555
Na2 O2 2.295858 1_555
Na2 O15 2.485081 1_555
Na2 O26 2.528192 1_555
Na2 O22 2.535057 1_555
Na2 O24 2.746789 1_555
Na3 O3 2.317869 1_555
Na3 O13 2.431973 1_555
Na3 O27 2.497747 1_555
Na3 O20 2.498597 1_555
Na3 O34 2.500995 1_555
Na3 O28 2.660636 1_555
Na4 O4 2.317869 1_555
Na4 O14 2.431973 1_555
Na4 O28 2.497747 1_555
Na4 O18 2.498597 1_555
Na4 O35 2.500995 1_555
Na4 O29 2.660636 1_555
Na5 O5 2.317869 1_555
Na5 O12 2.431973 1_555
Na5 O29 2.497747 1_555
Na5 O19 2.498597 1_555
Na5 O33 2.500995 1_555
Na5 O27 2.660636 1_555
Na6 O31 2.304577 1_545
Na6 O32 2.304577 1_455
Na6 O30 2.304577 1_554
Na6 O11 2.461190 1_445
Na6 O10 2.461190 1_544
Na6 O9 2.461190 1_454
Mg0 O10 2.071099 1_544
Mg0 O9 2.071099 1_454
Mg0 O11 2.071099 1_445
Mg0 O7 2.129007 1_455
Mg0 O6 2.129007 1_545
Mg0 O8 2.129007 1_554
Mg1 O35 2.085579 1_655
Mg1 O34 2.085579 1_565
Mg1 O33 2.085579 1_556
Mg1 O8 2.164009 1_665
Mg1 O7 2.164009 1_566
Mg1 O6 2.164009 1_656
H0 O31 0.989572 1_555
H0 O14 1.716848 1_555
H1 O32 0.989572 1_555
H1 O12 1.716848 1_555
H2 O30 0.989572 1_555
H2 O13 1.716848 1_555
H3 O34 1.001763 1_555
H3 O17 1.712371 1_555
H4 O35 1.001763 1_555
H4 O15 1.712371 1_555
H5 O33 1.001763 1_555
H5 O16 1.712371 1_555
H6 O31 0.989972 1_555
H6 O19 1.697146 1_555
H7 O32 0.989972 1_555
H7 O20 1.697146 1_555
H8 O30 0.989972 1_555
H8 O18 1.697146 1_555
H9 O34 1.003697 1_555
H9 O22 1.722134 1_555
H10 O35 1.003697 1_555
H10 O23 1.722134 1_555
H11 O33 1.003697 1_555
H11 O21 1.722134 1_555
N0 O24 1.269260 1_555
N0 O26 1.269260 1_555
N0 O25 1.269260 1_555
N1 O27 1.268828 1_555
N1 O29 1.268828 1_555
N1 O28 1.268828 1_555
O0 S0 1.472988 1_555
O1 S1 1.472988 1_555
O2 S2 1.472988 1_555
O3 S3 1.482113 1_555
O4 S4 1.482113 1_555
O5 S5 1.482113 1_555
O6 S0 1.526503 1_555
O7 S1 1.526503 1_555
O8 S2 1.526503 1_555
O9 S3 1.504122 1_555
O10 S4 1.504122 1_555
O11 S5 1.504122 1_555
O12 S0 1.482137 1_655
O13 S1 1.482137 1_556
O14 S2 1.482137 1_565
O15 S3 1.495301 1_455
O16 S4 1.495301 1_554
O17 S5 1.495301 1_545
O18 S0 1.483559 1_556
O19 S1 1.483559 1_565
O20 S2 1.483559 1_655
O21 S3 1.491385 1_554
O22 S4 1.491385 1_545
O23 S5 1.491385 1_455
