# generated using pymatgen
data_Na2SO14
_symmetry_space_group_name_H-M   'P 1'
_cell_length_a   6.69411700
_cell_length_b   11.16652200
_cell_length_c   15.24376405
_cell_angle_alpha   82.14152365
_cell_angle_beta   90.00000000
_cell_angle_gamma   90.00000000
_symmetry_Int_Tables_number   1
_chemical_formula_structural   Na2SO14
_chemical_formula_sum   'Na8 S4 O56'
_cell_volume   1128.77044499
_cell_formula_units_Z   4
loop_
 _symmetry_equiv_pos_site_id
 _symmetry_equiv_pos_as_xyz
  1  'x, y, z'
loop_
 _atom_site_type_symbol
 _atom_site_label
 _atom_site_symmetry_multiplicity
 _atom_site_fract_x
 _atom_site_fract_y
 _atom_site_fract_z
 _atom_site_occupancy
  Na  Na0  1  0.02085000  0.74749000  0.73332800  1
  Na  Na1  1  0.52085000  0.25251000  0.76667200  1
  Na  Na2  1  0.97915000  0.25251000  0.26667200  1
  Na  Na3  1  0.47915000  0.74749000  0.23332800  1
  Na  Na4  1  0.32927900  0.73463000  0.94067200  1
  Na  Na5  1  0.82927900  0.26537000  0.55932800  1
  Na  Na6  1  0.67072100  0.26537000  0.05932800  1
  Na  Na7  1  0.17072100  0.73463000  0.44067200  1
  S  S0  1  0.56850400  0.72223000  0.76514200  1
  S  S1  1  0.06850400  0.27777000  0.73485800  1
  S  S2  1  0.43149600  0.27777000  0.23485800  1
  S  S3  1  0.93149600  0.72223000  0.26514200  1
  O  O0  1  0.91541900  0.92723000  0.55631900  1
  O  O1  1  0.41541900  0.07277000  0.94368100  1
  O  O2  1  0.08458100  0.07277000  0.44368100  1
  O  O3  1  0.58458100  0.92723000  0.05631900  1
  O  O4  1  0.05745300  0.64023400  0.60105200  1
  O  O5  1  0.55745300  0.35976600  0.89894800  1
  O  O6  1  0.94254700  0.35976600  0.39894800  1
  O  O7  1  0.44254700  0.64023400  0.10105200  1
  O  O8  1  0.32780800  0.99219500  0.64199700  1
  O  O9  1  0.82780800  0.00780500  0.85800300  1
  O  O10  1  0.67219200  0.00780500  0.35800300  1
  O  O11  1  0.17219200  0.99219500  0.14199700  1
  O  O12  1  0.94113500  0.58212300  0.94310600  1
  O  O13  1  0.44113500  0.41787700  0.55689400  1
  O  O14  1  0.05886500  0.41787700  0.05689400  1
  O  O15  1  0.55886500  0.58212300  0.44310600  1
  O  O16  1  0.06843800  0.86963200  0.86891000  1
  O  O17  1  0.56843800  0.13036800  0.63109000  1
  O  O18  1  0.93156200  0.13036800  0.13109000  1
  O  O19  1  0.43156200  0.86963200  0.36891000  1
  O  O20  1  0.41048300  0.52800200  0.92716500  1
  O  O21  1  0.91048300  0.47199800  0.57283500  1
  O  O22  1  0.58951700  0.47199800  0.07283500  1
  O  O23  1  0.08951700  0.52800200  0.42716500  1
  O  O24  1  0.52960800  0.89672100  0.98528300  1
  O  O25  1  0.02960800  0.10327900  0.51471700  1
  O  O26  1  0.47039200  0.10327900  0.01471700  1
  O  O27  1  0.97039200  0.89672100  0.48528300  1
  O  O28  1  0.99882700  0.60579200  0.01558600  1
  O  O29  1  0.49882700  0.39420800  0.48441400  1
  O  O30  1  0.00117300  0.39420800  0.98441400  1
  O  O31  1  0.50117300  0.60579200  0.51558600  1
  O  O32  1  0.61851600  0.59494200  0.75550900  1
  O  O33  1  0.11851600  0.40505800  0.74449100  1
  O  O34  1  0.38148400  0.40505800  0.24449100  1
  O  O35  1  0.88148400  0.59494200  0.25550900  1
  O  O36  1  0.69114700  0.80299400  0.70075800  1
  O  O37  1  0.19114700  0.19700600  0.79924200  1
  O  O38  1  0.30885300  0.19700600  0.29924200  1
  O  O39  1  0.80885300  0.80299400  0.20075800  1
  O  O40  1  0.35197100  0.74752900  0.75303400  1
  O  O41  1  0.85197100  0.25247100  0.74696600  1
  O  O42  1  0.64802900  0.25247100  0.24696600  1
  O  O43  1  0.14802900  0.74752900  0.25303400  1
  O  O44  1  0.62622100  0.74241400  0.85750600  1
  O  O45  1  0.12622100  0.25758600  0.64249400  1
  O  O46  1  0.37377900  0.25758600  0.14249400  1
  O  O47  1  0.87377900  0.74241400  0.35750600  1
  O  O48  1  0.89008200  0.57591100  0.60033200  1
  O  O49  1  0.39008200  0.42408900  0.89966800  1
  O  O50  1  0.10991800  0.42408900  0.39966800  1
  O  O51  1  0.60991800  0.57591100  0.10033200  1
  O  O52  1  0.97956600  0.96152400  0.90023100  1
  O  O53  1  0.47956600  0.03847600  0.59976900  1
  O  O54  1  0.02043400  0.03847600  0.09976900  1
  O  O55  1  0.52043400  0.96152400  0.40023100  1
loop_
_geom_bond_atom_site_label_1
_geom_bond_atom_site_label_2
_geom_bond_distance
_geom_bond_site_symmetry_2
Na0 O40 2.236833 1_555
Na0 O36 2.327585 1_455
Na0 O4 2.494124 1_555
Na0 O16 2.646530 1_555
Na1 O41 2.236833 1_555
Na1 O37 2.327585 1_555
Na1 O5 2.494124 1_555
Na1 O17 2.646530 1_555
Na2 O42 2.236833 1_555
Na2 O38 2.327585 1_655
Na2 O6 2.494124 1_555
Na2 O18 2.646530 1_555
Na3 O43 2.236833 1_555
Na3 O39 2.327585 1_555
Na3 O7 2.494124 1_555
Na3 O19 2.646530 1_555
Na4 O44 2.352839 1_555
Na4 O20 2.406554 1_555
Na4 O24 2.423523 1_555
Na4 O16 2.463158 1_555
Na4 O7 2.637863 1_556
Na4 O28 2.796056 1_456
Na4 O40 2.848250 1_555
Na5 O45 2.352839 1_655
Na5 O21 2.406554 1_555
Na5 O25 2.423523 1_655
Na5 O17 2.463158 1_555
Na5 O6 2.637863 1_555
Na5 O29 2.796056 1_555
Na5 O41 2.848250 1_555
Na6 O46 2.352839 1_555
Na6 O22 2.406554 1_555
Na6 O26 2.423523 1_555
Na6 O18 2.463158 1_555
Na6 O5 2.637863 1_554
Na6 O30 2.796056 1_654
Na6 O42 2.848250 1_555
Na7 O47 2.352839 1_455
Na7 O23 2.406554 1_555
Na7 O27 2.423523 1_455
Na7 O19 2.463158 1_555
Na7 O4 2.637863 1_555
Na7 O31 2.796056 1_555
Na7 O43 2.848250 1_555
O0 O27 1.234884 1_555
O1 O26 1.234884 1_556
O2 O25 1.234884 1_555
O4 O48 1.331720 1_455
O10 O55 1.273775 1_545
O11 O54 1.273775 1_565
O12 O28 1.232716 1_556
O13 O29 1.232716 1_555
O14 O30 1.232716 1_554
O15 O31 1.232716 1_555
O16 O52 1.329950 1_455
O17 O53 1.329950 1_555
O18 O54 1.329950 1_655
O19 O55 1.329950 1_555
O20 O49 1.293734 1_555
O21 O48 1.293734 1_555
O22 O51 1.293734 1_555
O23 O50 1.293734 1_555
O24 O3 1.234884 1_556
O32 S0 1.486942 1_555
O33 S1 1.486942 1_555
O34 S2 1.486942 1_555
O35 S3 1.486942 1_555
O36 S0 1.486126 1_555
O37 S1 1.486126 1_555
O38 S2 1.486126 1_555
O39 S3 1.486126 1_555
O40 S0 1.483461 1_555
O41 S1 1.483461 1_655
O42 S2 1.483461 1_555
O43 S3 1.483461 1_455
O44 S0 1.506402 1_555
O45 S1 1.506402 1_555
O46 S2 1.506402 1_555
O47 S3 1.506402 1_555
O49 O5 1.331720 1_555
O50 O6 1.331720 1_455
O51 O7 1.331720 1_555
O52 O9 1.273775 1_565
O53 O8 1.273775 1_545
