# generated using pymatgen
data_Sc
_symmetry_space_group_name_H-M   'P 1'
_cell_length_a   6.43287299
_cell_length_b   6.55495305
_cell_length_c   6.58209483
_cell_angle_alpha   119.41251872
_cell_angle_beta   59.42934114
_cell_angle_gamma   89.17378792
_symmetry_Int_Tables_number   1
_chemical_formula_structural   Sc
_chemical_formula_sum   Sc8
_cell_volume   194.82649506
_cell_formula_units_Z   8
loop_
 _symmetry_equiv_pos_site_id
 _symmetry_equiv_pos_as_xyz
  1  'x, y, z'
loop_
 _atom_site_type_symbol
 _atom_site_label
 _atom_site_symmetry_multiplicity
 _atom_site_fract_x
 _atom_site_fract_y
 _atom_site_fract_z
 _atom_site_occupancy
  Sc  Sc0_0  1  0.49995850  0.00001650  0.00000850  1
  Sc  Sc0_1  1  0.49995850  0.00001650  0.50000850  1
  Sc  Sc0_2  1  0.49995850  0.50001650  0.00000850  1
  Sc  Sc0_3  1  0.49995850  0.50001650  0.50000850  1
  Sc  Sc0_4  1  0.99995850  0.00001650  0.00000850  1
  Sc  Sc0_5  1  0.99995850  0.00001650  0.50000850  1
  Sc  Sc0_6  1  0.99995850  0.50001650  0.00000850  1
  Sc  Sc0_7  1  0.99995850  0.50001650  0.50000850  1
loop_
_geom_bond_atom_site_label_1
_geom_bond_atom_site_label_2
_geom_bond_distance
_geom_bond_site_symmetry_2
Sc0_0 Sc0_7 3.201962 1_455
Sc0_0 Sc0_7 3.201962 1_544
Sc0_0 Sc0_4 3.216436 1_555
Sc0_0 Sc0_4 3.216436 1_455
Sc0_0 Sc0_5 3.226287 1_455
Sc0_0 Sc0_5 3.226287 1_554
Sc0_0 Sc0_2 3.277477 1_555
Sc0_0 Sc0_2 3.277477 1_545
Sc0_0 Sc0_1 3.291047 1_555
Sc0_0 Sc0_1 3.291047 1_554
Sc0_0 Sc0_3 3.313403 1_544
Sc0_0 Sc0_3 3.313403 1_555
Sc0_1 Sc0_6 3.201962 1_456
Sc0_1 Sc0_6 3.201962 1_545
Sc0_1 Sc0_5 3.216436 1_455
Sc0_1 Sc0_5 3.216436 1_555
Sc0_1 Sc0_4 3.226287 1_555
Sc0_1 Sc0_4 3.226287 1_456
Sc0_1 Sc0_3 3.277477 1_555
Sc0_1 Sc0_3 3.277477 1_545
Sc0_1 Sc0_2 3.313403 1_545
Sc0_1 Sc0_2 3.313403 1_556
Sc0_2 Sc0_5 3.201962 1_554
Sc0_2 Sc0_5 3.201962 1_465
Sc0_2 Sc0_6 3.216436 1_555
Sc0_2 Sc0_6 3.216436 1_455
Sc0_2 Sc0_7 3.226287 1_554
Sc0_2 Sc0_7 3.226287 1_455
Sc0_2 Sc0_3 3.291047 1_555
Sc0_2 Sc0_3 3.291047 1_554
Sc0_3 Sc0_4 3.201962 1_555
Sc0_3 Sc0_4 3.201962 1_466
Sc0_3 Sc0_7 3.216436 1_455
Sc0_3 Sc0_7 3.216436 1_555
Sc0_3 Sc0_6 3.226287 1_555
Sc0_3 Sc0_6 3.226287 1_456
Sc0_4 Sc0_6 3.277477 1_555
Sc0_4 Sc0_6 3.277477 1_545
Sc0_4 Sc0_5 3.291047 1_555
Sc0_4 Sc0_5 3.291047 1_554
Sc0_4 Sc0_7 3.313403 1_544
Sc0_4 Sc0_7 3.313403 1_555
Sc0_5 Sc0_7 3.277477 1_555
Sc0_5 Sc0_7 3.277477 1_545
Sc0_5 Sc0_6 3.313403 1_545
Sc0_5 Sc0_6 3.313403 1_556
Sc0_6 Sc0_7 3.291047 1_554
Sc0_6 Sc0_7 3.291047 1_555
