# generated using pymatgen
data_Co3Te2(PO7)2
_symmetry_space_group_name_H-M   'P 1'
_cell_length_a   10.03650738
_cell_length_b   10.03650738
_cell_length_c   4.80835055
_cell_angle_alpha   77.47535644
_cell_angle_beta   77.47535644
_cell_angle_gamma   34.70113329
_symmetry_Int_Tables_number   1
_chemical_formula_structural   Co3Te2(PO7)2
_chemical_formula_sum   'Co3 Te2 P2 O14'
_cell_volume   268.52875727
_cell_formula_units_Z   1
loop_
 _symmetry_equiv_pos_site_id
 _symmetry_equiv_pos_as_xyz
  1  'x, y, z'
loop_
 _atom_site_type_symbol
 _atom_site_label
 _atom_site_symmetry_multiplicity
 _atom_site_fract_x
 _atom_site_fract_y
 _atom_site_fract_z
 _atom_site_occupancy
  Co  Co0  1  0.50000000  0.00000000  0.00000000  1
  Co  Co1  1  0.00000000  0.50000000  0.00000000  1
  Co  Co2  1  0.50000000  0.50000000  0.00000000  1
  Te  Te0  1  0.90340600  0.90340600  0.03266000  1
  Te  Te1  1  0.09659400  0.09659400  0.96734000  1
  P  P0  1  0.33788200  0.33788200  0.40781500  1
  P  P1  1  0.66211800  0.66211800  0.59218500  1
  O  O0  1  0.41906800  0.41906800  0.34809900  1
  O  O1  1  0.58093200  0.58093200  0.65190100  1
  O  O2  1  0.19748200  0.70719800  0.82612200  1
  O  O3  1  0.70719800  0.19748200  0.82612200  1
  O  O4  1  0.80251800  0.29280200  0.17387800  1
  O  O5  1  0.29280200  0.80251800  0.17387800  1
  O  O6  1  0.30442700  0.30442700  0.73805800  1
  O  O7  1  0.69557300  0.69557300  0.26194200  1
  O  O8  1  0.52031300  0.09935600  0.27543400  1
  O  O9  1  0.09935600  0.52031300  0.27543400  1
  O  O10  1  0.47968700  0.90064400  0.72456600  1
  O  O11  1  0.90064400  0.47968700  0.72456600  1
  O  O12  1  0.82096500  0.82096500  0.85036000  1
  O  O13  1  0.17903500  0.17903500  0.14964000  1
loop_
_geom_bond_atom_site_label_1
_geom_bond_atom_site_label_2
_geom_bond_distance
_geom_bond_site_symmetry_2
Co0 O8 1.952976 1_555
Co0 O10 1.952976 1_544
Co0 O12 2.039967 1_544
Co0 O13 2.039967 1_555
Co0 O7 2.077641 1_545
Co0 O6 2.077641 1_554
Co1 O9 1.952976 1_555
Co1 O11 1.952976 1_454
Co1 O12 2.039967 1_454
Co1 O13 2.039967 1_555
Co1 O6 2.077641 1_554
Co1 O7 2.077641 1_455
Co2 O0 2.006652 1_555
Co2 O1 2.006652 1_554
Co2 O5 2.051157 1_555
Co2 O4 2.051157 1_555
Co2 O3 2.051157 1_554
Co2 O2 2.051157 1_554
O0 P0 1.516266 1_555
O1 P1 1.516266 1_555
O2 Te0 1.896207 1_456
O3 Te0 1.896207 1_546
O4 Te1 1.896207 1_654
O5 Te1 1.896207 1_564
O6 P0 1.571581 1_555
O7 P1 1.571581 1_555
O8 P0 1.561044 1_555
O8 Te0 2.574786 1_545
O9 P0 1.561044 1_555
O9 Te0 2.574786 1_455
O10 P1 1.561044 1_555
O10 Te1 2.574786 1_565
O11 P1 1.561044 1_555
O11 Te1 2.574786 1_655
O12 Te0 1.972929 1_556
O13 Te1 1.972929 1_554
