# generated using pymatgen
data_Tb(Al2Cu)4
_symmetry_space_group_name_H-M   'P 1'
_cell_length_a   6.68169244
_cell_length_b   6.68169244
_cell_length_c   6.68169244
_cell_angle_alpha   98.33933789
_cell_angle_beta   98.33933789
_cell_angle_gamma   135.22913051
_symmetry_Int_Tables_number   1
_chemical_formula_structural   Tb(Al2Cu)4
_chemical_formula_sum   'Tb1 Al8 Cu4'
_cell_volume   194.25612905
_cell_formula_units_Z   1
loop_
 _symmetry_equiv_pos_site_id
 _symmetry_equiv_pos_as_xyz
  1  'x, y, z'
loop_
 _atom_site_type_symbol
 _atom_site_label
 _atom_site_symmetry_multiplicity
 _atom_site_fract_x
 _atom_site_fract_y
 _atom_site_fract_z
 _atom_site_occupancy
  Tb  Tb0  1  -0.00000000  0.00000000  -0.00000000  1
  Al  Al0  1  -0.00000000  0.34839456  0.34839456  1
  Al  Al1  1  0.00000000  0.65160544  0.65160544  1
  Al  Al2  1  0.65160544  -0.00000000  0.65160544  1
  Al  Al3  1  0.34839456  0.00000000  0.34839456  1
  Al  Al4  1  0.50000000  0.28074468  0.78074468  1
  Al  Al5  1  0.50000000  0.71925532  0.21925532  1
  Al  Al6  1  0.71925532  0.50000000  0.21925532  1
  Al  Al7  1  0.28074468  0.50000000  0.78074468  1
  Cu  Cu0  1  -0.00000000  0.00000000  0.50000000  1
  Cu  Cu1  1  0.50000000  0.50000000  0.50000000  1
  Cu  Cu2  1  0.50000000  0.00000000  -0.00000000  1
  Cu  Cu3  1  -0.00000000  0.50000000  -0.00000000  1
loop_
_geom_bond_atom_site_label_1
_geom_bond_atom_site_label_2
_geom_bond_distance
_geom_bond_site_symmetry_2
Al0 Al1 2.649234 1_555
Al0 Cu0 2.670037 1_555
Al0 Cu1 2.670037 1_555
Al0 Cu3 2.670037 1_555
Al0 Cu2 2.670037 1_455
Al0 Al5 2.783564 1_445
Al0 Al5 2.783564 1_555
Al0 Al6 2.787746 1_455
Al0 Al7 2.787746 1_555
Al0 Tb0 3.044016 1_555
Al1 Cu1 2.670037 1_455
Al1 Cu0 2.670037 1_565
Al1 Cu2 2.670037 1_566
Al1 Cu3 2.670037 1_556
Al1 Al4 2.783564 1_455
Al1 Al4 2.783564 1_565
Al1 Al6 2.787746 1_455
Al1 Al7 2.787746 1_555
Al1 Tb0 3.044016 1_566
Al2 Al3 2.649234 1_555
Al2 Cu0 2.670037 1_655
Al2 Cu3 2.670037 1_656
Al2 Cu1 2.670037 1_545
Al2 Cu2 2.670037 1_556
Al2 Al7 2.783564 1_545
Al2 Al7 2.783564 1_655
Al2 Al5 2.787746 1_545
Al2 Al4 2.787746 1_555
Al2 Tb0 3.044016 1_656
Al3 Cu3 2.670037 1_545
Al3 Cu0 2.670037 1_555
Al3 Cu2 2.670037 1_555
Al3 Cu1 2.670037 1_555
Al3 Al6 2.783564 1_555
Al3 Al6 2.783564 1_445
Al3 Al5 2.787746 1_545
Al3 Al4 2.787746 1_555
Al3 Tb0 3.044016 1_555
Al4 Cu0 2.542081 1_555
Al4 Cu1 2.542081 1_555
Al4 Cu3 2.542081 1_656
Al4 Cu2 2.542081 1_556
Al4 Al7 2.709197 1_555
Al4 Al6 2.709197 1_556
Al4 Tb0 3.185120 1_666
Al4 Tb0 3.185120 1_556
Al5 Cu2 2.542081 1_565
Al5 Cu1 2.542081 1_555
Al5 Cu3 2.542081 1_555
Al5 Cu0 2.542081 1_665
Al5 Al7 2.709197 1_554
Al5 Al6 2.709197 1_555
Al5 Tb0 3.185120 1_665
Al5 Tb0 3.185120 1_555
Al6 Cu2 2.542081 1_555
Al6 Cu1 2.542081 1_555
Al6 Cu0 2.542081 1_665
Al6 Cu3 2.542081 1_655
Al6 Tb0 3.185120 1_665
Al6 Tb0 3.185120 1_555
Al7 Cu0 2.542081 1_555
Al7 Cu1 2.542081 1_555
Al7 Cu3 2.542081 1_556
Al7 Cu2 2.542081 1_566
Al7 Tb0 3.185120 1_666
Al7 Tb0 3.185120 1_556
Cu0 Cu1 2.544625 1_445
Cu0 Cu1 2.544625 1_555
Cu0 Tb0 3.340846 1_556
Cu0 Tb0 3.340846 1_555
Cu1 Tb0 3.340846 1_666
Cu1 Tb0 3.340846 1_555
Cu2 Cu3 2.544625 1_655
Cu2 Cu3 2.544625 1_545
Cu2 Tb0 3.340846 1_655
Cu2 Tb0 3.340846 1_555
Cu3 Tb0 3.340846 1_565
Cu3 Tb0 3.340846 1_555
