# generated using pymatgen
data_Ba7Ga4As9
_symmetry_space_group_name_H-M   'P 1'
_cell_length_a   6.86544284
_cell_length_b   10.24540857
_cell_length_c   17.18932988
_cell_angle_alpha   90.00000000
_cell_angle_beta   90.00000000
_cell_angle_gamma   90.00000000
_symmetry_Int_Tables_number   1
_chemical_formula_structural   Ba7Ga4As9
_chemical_formula_sum   'Ba14 Ga8 As18'
_cell_volume   1209.08486243
_cell_formula_units_Z   2
loop_
 _symmetry_equiv_pos_site_id
 _symmetry_equiv_pos_as_xyz
  1  'x, y, z'
loop_
 _atom_site_type_symbol
 _atom_site_label
 _atom_site_symmetry_multiplicity
 _atom_site_fract_x
 _atom_site_fract_y
 _atom_site_fract_z
 _atom_site_occupancy
  Ba  Ba0  1  0.45114125  0.50000000  0.78376508  1
  Ba  Ba1  1  0.45114125  0.50000000  0.21623492  1
  Ba  Ba2  1  0.54885875  0.00000000  0.71623492  1
  Ba  Ba3  1  0.54885875  0.00000000  0.28376508  1
  Ba  Ba4  1  0.94560375  0.27731489  0.87525603  1
  Ba  Ba5  1  0.94560375  0.72268511  0.87525603  1
  Ba  Ba6  1  0.94560375  0.27731489  0.12474397  1
  Ba  Ba7  1  0.94560375  0.72268511  0.12474397  1
  Ba  Ba8  1  0.05439625  0.22268511  0.62474397  1
  Ba  Ba9  1  0.05439625  0.77731489  0.62474397  1
  Ba  Ba10  1  0.05439625  0.22268511  0.37525603  1
  Ba  Ba11  1  0.05439625  0.77731489  0.37525603  1
  Ba  Ba12  1  0.40535487  0.50000000  0.50000000  1
  Ba  Ba13  1  0.59464513  0.00000000  0.00000000  1
  Ga  Ga0  1  0.76557470  0.50000000  0.37645256  1
  Ga  Ga1  1  0.76557470  0.50000000  0.62354744  1
  Ga  Ga2  1  0.23442530  0.00000000  0.12354744  1
  Ga  Ga3  1  0.23442530  0.00000000  0.87645256  1
  Ga  Ga4  1  0.56973196  0.82348500  0.50000000  1
  Ga  Ga5  1  0.56973196  0.17651500  0.50000000  1
  Ga  Ga6  1  0.43026804  0.67651500  0.00000000  1
  Ga  Ga7  1  0.43026804  0.32348500  0.00000000  1
  As  As0  1  0.56035553  0.29125859  0.37206959  1
  As  As1  1  0.56035553  0.70874141  0.37206959  1
  As  As2  1  0.56035553  0.29125859  0.62793041  1
  As  As3  1  0.56035553  0.70874141  0.62793041  1
  As  As4  1  0.43964447  0.20874141  0.12793041  1
  As  As5  1  0.43964447  0.79125859  0.12793041  1
  As  As6  1  0.43964447  0.20874141  0.87206959  1
  As  As7  1  0.43964447  0.79125859  0.87206959  1
  As  As8  1  0.97765765  0.50000000  0.26292967  1
  As  As9  1  0.97765765  0.50000000  0.73707033  1
  As  As10  1  0.02234235  0.00000000  0.23707033  1
  As  As11  1  0.02234235  0.00000000  0.76292967  1
  As  As12  1  0.69263420  0.50000000  0.00000000  1
  As  As13  1  0.30736580  0.00000000  0.50000000  1
  As  As14  1  0.16754346  0.50000000  0.00000000  1
  As  As15  1  0.83245654  0.00000000  0.50000000  1
  As  As16  1  0.95226536  0.50000000  0.50000000  1
  As  As17  1  0.04773464  0.00000000  0.00000000  1
loop_
_geom_bond_atom_site_label_1
_geom_bond_atom_site_label_2
_geom_bond_distance
_geom_bond_site_symmetry_2
Ba0 Ga1 3.499256 1_555
Ba1 Ga0 3.499256 1_555
Ba2 Ga3 3.499256 1_555
Ba3 Ga2 3.499256 1_555
Ba4 Ga3 3.464781 1_655
Ba5 Ga3 3.464781 1_665
Ba6 Ga2 3.464781 1_655
Ba7 Ga2 3.464781 1_665
Ba8 Ga1 3.464781 1_455
Ba9 Ga1 3.464781 1_455
Ba10 Ga0 3.464781 1_455
Ba11 Ga0 3.464781 1_455
As0 Ga5 2.494381 1_555
As0 Ga0 2.562132 1_555
As0 Ba12 3.246839 1_555
As0 Ba3 3.348861 1_555
As0 Ba10 3.464240 1_655
As0 Ba1 3.508759 1_555
As0 Ba10 3.544394 1_555
As1 Ga4 2.494381 1_555
As1 Ga0 2.562132 1_555
As1 Ba12 3.246839 1_555
As1 Ba3 3.348861 1_565
As1 Ba11 3.464240 1_655
As1 Ba1 3.508759 1_555
As1 Ba11 3.544394 1_555
As2 Ga5 2.494381 1_555
As2 Ga1 2.562132 1_555
As2 Ba12 3.246839 1_555
As2 Ba2 3.348861 1_555
As2 Ba8 3.464240 1_655
As2 Ba0 3.508759 1_555
As2 Ba8 3.544394 1_555
As3 Ga4 2.494381 1_555
As3 Ga1 2.562132 1_555
As3 Ba12 3.246839 1_555
As3 Ba2 3.348861 1_565
As3 Ba9 3.464240 1_655
As3 Ba0 3.508759 1_555
As3 Ba9 3.544394 1_555
As4 Ga7 2.494381 1_555
As4 Ga2 2.562132 1_555
As4 Ba13 3.246839 1_555
As4 Ba1 3.348861 1_555
As4 Ba6 3.464240 1_455
As4 Ba3 3.508759 1_555
As4 Ba6 3.544394 1_555
As5 Ga6 2.494381 1_555
As5 Ga2 2.562132 1_565
As5 Ba13 3.246839 1_565
As5 Ba1 3.348861 1_555
As5 Ba7 3.464240 1_455
As5 Ba3 3.508759 1_565
As5 Ba7 3.544394 1_555
As6 Ga7 2.494381 1_556
As6 Ga3 2.562132 1_555
As6 Ba13 3.246839 1_556
As6 Ba0 3.348861 1_555
As6 Ba4 3.464240 1_455
As6 Ba2 3.508759 1_555
As6 Ba4 3.544394 1_555
As7 Ga6 2.494381 1_556
As7 Ga3 2.562132 1_565
As7 Ba13 3.246839 1_566
As7 Ba0 3.348861 1_555
As7 Ba5 3.464240 1_455
As7 Ba2 3.508759 1_565
As7 Ba5 3.544394 1_555
As8 Ga0 2.434739 1_555
As8 Ba6 3.300881 1_555
As8 Ba7 3.300881 1_555
As8 Ba1 3.348303 1_655
As8 Ba10 3.475349 1_655
As8 Ba11 3.475349 1_655
As8 Ba1 3.702810 1_555
As9 Ga1 2.434739 1_555
As9 Ba4 3.300881 1_555
As9 Ba5 3.300881 1_555
As9 Ba0 3.348303 1_655
As9 Ba8 3.475349 1_655
As9 Ba9 3.475349 1_655
As9 Ba0 3.702810 1_555
As10 Ga2 2.434739 1_555
As10 Ba10 3.300881 1_555
As10 Ba11 3.300881 1_545
As10 Ba3 3.348303 1_455
As10 Ba7 3.475349 1_445
As10 Ba6 3.475349 1_455
As10 Ba3 3.702810 1_555
As11 Ga3 2.434739 1_555
As11 Ba8 3.300881 1_555
As11 Ba9 3.300881 1_545
As11 Ba2 3.348303 1_455
As11 Ba4 3.475349 1_455
As11 Ba5 3.475349 1_445
As11 Ba2 3.702810 1_555
As12 Ga6 2.552468 1_555
As12 Ga7 2.552468 1_555
As12 Ba4 3.580420 1_554
As12 Ba5 3.580420 1_554
As12 Ba6 3.580420 1_555
As12 Ba7 3.580420 1_555
As13 Ga5 2.552468 1_555
As13 Ga4 2.552468 1_545
As13 Ba11 3.580420 1_545
As13 Ba10 3.580420 1_555
As13 Ba8 3.580420 1_555
As13 Ba9 3.580420 1_545
As14 Ga6 2.554205 1_555
As14 Ga7 2.554205 1_555
As14 Ba5 3.482071 1_454
As14 Ba4 3.482071 1_454
As14 Ba6 3.482071 1_455
As14 Ba7 3.482071 1_455
As15 Ga5 2.554205 1_555
As15 Ga4 2.554205 1_545
As15 Ba10 3.482071 1_655
As15 Ba11 3.482071 1_645
As15 Ba9 3.482071 1_645
As15 Ba8 3.482071 1_655
As16 Ga0 2.480501 1_555
As16 Ga1 2.480501 1_555
As16 Ba12 3.110660 1_655
As16 Ba10 3.627942 1_655
As16 Ba11 3.627942 1_655
As16 Ba9 3.627942 1_655
As16 Ba8 3.627942 1_655
As17 Ga3 2.480501 1_554
As17 Ga2 2.480501 1_555
As17 Ba13 3.110660 1_455
As17 Ba5 3.627942 1_444
As17 Ba4 3.627942 1_454
As17 Ba7 3.627942 1_445
As17 Ba6 3.627942 1_455
