# generated using pymatgen
data_Ga31Mo6
_symmetry_space_group_name_H-M   'P 1'
_cell_length_a   9.58388400
_cell_length_b   9.58582067
_cell_length_c   14.57935213
_cell_angle_alpha   80.82977946
_cell_angle_beta   87.00401140
_cell_angle_gamma   85.49643752
_symmetry_Int_Tables_number   1
_chemical_formula_structural   Ga31Mo6
_chemical_formula_sum   'Ga62 Mo12'
_cell_volume   1317.11937967
_cell_formula_units_Z   2
loop_
 _symmetry_equiv_pos_site_id
 _symmetry_equiv_pos_as_xyz
  1  'x, y, z'
loop_
 _atom_site_type_symbol
 _atom_site_label
 _atom_site_symmetry_multiplicity
 _atom_site_fract_x
 _atom_site_fract_y
 _atom_site_fract_z
 _atom_site_occupancy
  Ga  Ga0  1  0.43576100  0.47266200  0.33039200  1
  Ga  Ga1  1  0.56423900  0.52733800  0.66960800  1
  Ga  Ga2  1  0.00000000  0.00000000  0.00000000  1
  Ga  Ga3  1  0.50000000  0.00000000  0.50000000  1
  Ga  Ga4  1  0.00000000  0.50000000  0.50000000  1
  Ga  Ga5  1  0.50000000  0.50000000  0.00000000  1
  Ga  Ga6  1  0.11062100  0.81838900  0.60862400  1
  Ga  Ga7  1  0.88937900  0.18161100  0.39137600  1
  Ga  Ga8  1  0.16049500  0.31161100  0.08380500  1
  Ga  Ga9  1  0.83950500  0.68838900  0.91619500  1
  Ga  Ga10  1  0.07052000  0.53054200  0.67221200  1
  Ga  Ga11  1  0.92948000  0.46945800  0.32778800  1
  Ga  Ga12  1  0.27856800  0.10749500  0.70704000  1
  Ga  Ga13  1  0.72143200  0.89250500  0.29296000  1
  Ga  Ga14  1  0.21064500  0.59763800  0.02096700  1
  Ga  Ga15  1  0.78935500  0.40236200  0.97903300  1
  Ga  Ga16  1  0.07413300  0.26705000  0.91704700  1
  Ga  Ga17  1  0.92586700  0.73295000  0.08295300  1
  Ga  Ga18  1  0.01862700  0.23640100  0.73739900  1
  Ga  Ga19  1  0.98137300  0.76359900  0.26260100  1
  Ga  Ga20  1  0.26936600  0.88079200  0.96202600  1
  Ga  Ga21  1  0.73063400  0.11920800  0.03797400  1
  Ga  Ga22  1  0.34332400  0.14012700  0.88186000  1
  Ga  Ga23  1  0.65667600  0.85987300  0.11814000  1
  Ga  Ga24  1  0.43476900  0.95870800  0.32613700  1
  Ga  Ga25  1  0.56523100  0.04129200  0.67386300  1
  Ga  Ga26  1  0.14935000  0.03923100  0.36294500  1
  Ga  Ga27  1  0.85065000  0.96076900  0.63705500  1
  Ga  Ga28  1  0.20170900  0.33161600  0.40261400  1
  Ga  Ga29  1  0.79829100  0.66838400  0.59738600  1
  Ga  Ga30  1  0.10623000  0.56529900  0.85273300  1
  Ga  Ga31  1  0.89377000  0.43470100  0.14726700  1
  Ga  Ga32  1  0.62849700  0.04620500  0.85831900  1
  Ga  Ga33  1  0.37150300  0.95379500  0.14168100  1
  Ga  Ga34  1  0.83419100  0.15152000  0.21289700  1
  Ga  Ga35  1  0.16580900  0.84848000  0.78710300  1
  Ga  Ga36  1  0.40174200  0.78922600  0.64743400  1
  Ga  Ga37  1  0.59825800  0.21077400  0.35256600  1
  Ga  Ga38  1  0.43985000  0.21686600  0.05000200  1
  Ga  Ga39  1  0.56015000  0.78313400  0.94999800  1
  Ga  Ga40  1  0.32817900  0.39548100  0.73447500  1
  Ga  Ga41  1  0.67182100  0.60451900  0.26552500  1
  Ga  Ga42  1  0.08943300  0.03852400  0.17517400  1
  Ga  Ga43  1  0.91056700  0.96147600  0.82482600  1
  Ga  Ga44  1  0.34122800  0.23745100  0.24260800  1
  Ga  Ga45  1  0.65877200  0.76254900  0.75739200  1
  Ga  Ga46  1  0.27845400  0.73000600  0.30926100  1
  Ga  Ga47  1  0.72154600  0.26999400  0.69073900  1
  Ga  Ga48  1  0.21446700  0.07785000  0.53551100  1
  Ga  Ga49  1  0.78553300  0.92215000  0.46448900  1
  Ga  Ga50  1  0.04914000  0.78287200  0.43681900  1
  Ga  Ga51  1  0.95086000  0.21712800  0.56318100  1
  Ga  Ga52  1  0.39834900  0.62933900  0.82549400  1
  Ga  Ga53  1  0.60165100  0.37066100  0.17450600  1
  Ga  Ga54  1  0.17717400  0.52121000  0.21646900  1
  Ga  Ga55  1  0.82282600  0.47879000  0.78353100  1
  Ga  Ga56  1  0.56672300  0.33988700  0.85289300  1
  Ga  Ga57  1  0.43327700  0.66011300  0.14710700  1
  Ga  Ga58  1  0.54644700  0.69754900  0.45581600  1
  Ga  Ga59  1  0.45355300  0.30245100  0.54418400  1
  Ga  Ga60  1  0.30012100  0.56635600  0.52023500  1
  Ga  Ga61  1  0.69987900  0.43364400  0.47976500  1
  Mo  Mo0  1  0.30321000  0.84112600  0.47219600  1
  Mo  Mo1  1  0.69679000  0.15887400  0.52780400  1
  Mo  Mo2  1  0.18530600  0.32874800  0.59056100  1
  Mo  Mo3  1  0.81469400  0.67125200  0.40943900  1
  Mo  Mo4  1  0.30429000  0.39383300  0.92811600  1
  Mo  Mo5  1  0.69571000  0.60616700  0.07188400  1
  Mo  Mo6  1  0.06406600  0.27164100  0.25473700  1
  Mo  Mo7  1  0.93593400  0.72835900  0.74526300  1
  Mo  Mo8  1  0.42521500  0.90728800  0.80838600  1
  Mo  Mo9  1  0.57478500  0.09271200  0.19161400  1
  Mo  Mo10  1  0.82856200  0.20970000  0.87217000  1
  Mo  Mo11  1  0.17143800  0.79030000  0.12783000  1
loop_
_geom_bond_atom_site_label_1
_geom_bond_atom_site_label_2
_geom_bond_distance
_geom_bond_site_symmetry_2
Ga0 Ga41 2.730332 1_555
Ga0 Ga46 2.770458 1_555
Ga0 Ga28 2.782797 1_555
Ga0 Ga37 2.830548 1_555
Ga0 Ga53 2.955572 1_555
Ga0 Ga57 2.973103 1_555
Ga0 Ga44 2.983988 1_555
Ga0 Ga54 3.019907 1_555
Ga1 Ga40 2.730332 1_555
Ga1 Ga47 2.770458 1_555
Ga1 Ga29 2.782797 1_555
Ga1 Ga36 2.830548 1_555
Ga1 Ga52 2.955572 1_555
Ga1 Ga56 2.973103 1_555
Ga1 Ga45 2.983988 1_555
Ga1 Ga55 3.019907 1_555
Ga2 Ga21 2.804600 1_455
Ga2 Ga20 2.804600 1_544
Ga2 Ga42 2.823593 1_555
Ga2 Ga43 2.823593 1_444
Ga2 Mo11 2.970003 1_545
Ga2 Mo10 2.970003 1_454
Ga3 Mo1 2.601626 1_555
Ga3 Mo0 2.601626 1_545
Ga3 Ga49 2.822729 1_545
Ga3 Ga48 2.822729 1_555
Ga4 Mo2 2.586214 1_555
Ga4 Mo3 2.586214 1_455
Ga4 Ga51 2.789612 1_455
Ga4 Ga50 2.789612 1_555
Ga5 Mo5 2.548995 1_555
Ga5 Mo4 2.548995 1_554
Ga6 Mo7 2.616574 1_455
Ga6 Mo0 2.636623 1_555
Ga7 Mo6 2.616574 1_655
Ga7 Mo1 2.636623 1_555
Ga8 Mo6 2.592654 1_555
Ga8 Mo4 2.635520 1_554
Ga9 Mo7 2.592654 1_555
Ga9 Mo5 2.635520 1_556
Ga10 Mo7 2.551422 1_455
Ga10 Mo2 2.575255 1_555
Ga10 Ga6 2.816839 1_555
Ga10 Ga40 2.820577 1_555
Ga11 Mo6 2.551422 1_655
Ga11 Mo3 2.575255 1_555
Ga11 Ga7 2.816839 1_555
Ga11 Ga41 2.820577 1_555
Ga12 Mo8 2.594467 1_545
Ga12 Mo2 2.625625 1_555
Ga12 Ga48 2.669568 1_555
Ga12 Ga22 2.725647 1_555
Ga12 Ga18 2.739474 1_555
Ga12 Ga25 2.805303 1_555
Ga12 Ga35 2.839149 1_545
Ga12 Ga40 2.929987 1_555
Ga13 Mo9 2.594467 1_565
Ga13 Mo3 2.625625 1_555
Ga13 Ga49 2.669568 1_555
Ga13 Ga23 2.725647 1_555
Ga13 Ga19 2.739474 1_555
Ga13 Ga24 2.805303 1_555
Ga13 Ga34 2.839149 1_565
Ga13 Ga41 2.929987 1_555
Ga14 Mo11 2.593497 1_555
Ga14 Mo4 2.625890 1_554
Ga15 Mo10 2.593497 1_555
Ga15 Mo5 2.625890 1_556
Ga16 Mo10 2.597725 1_455
Ga16 Mo4 2.624748 1_555
Ga16 Ga2 2.780199 1_556
Ga16 Ga22 2.822580 1_555
Ga17 Mo11 2.597725 1_655
Ga17 Mo5 2.624748 1_555
Ga17 Ga2 2.780199 1_665
Ga17 Ga23 2.822580 1_555
Ga18 Mo10 2.604441 1_455
Ga18 Mo2 2.679367 1_555
Ga18 Ga51 2.692271 1_455
Ga18 Ga47 2.943062 1_455
Ga18 Ga43 2.976979 1_445
Ga19 Mo11 2.604441 1_655
Ga19 Mo3 2.679367 1_555
Ga19 Ga50 2.692271 1_655
Ga19 Ga46 2.943062 1_655
Ga19 Ga42 2.976979 1_665
Ga20 Mo11 2.588252 1_556
Ga20 Mo8 2.615616 1_555
Ga20 Ga22 2.704136 1_565
Ga20 Ga35 2.854720 1_555
Ga21 Mo10 2.588252 1_554
Ga21 Mo9 2.615616 1_555
Ga21 Ga23 2.704136 1_545
Ga21 Ga34 2.854720 1_555
Ga22 Mo4 2.619690 1_555
Ga22 Mo8 2.672852 1_545
Ga22 Ga32 2.830553 1_555
Ga22 Ga38 2.885303 1_556
Ga22 Ga56 2.953071 1_555
Ga22 Ga40 2.988356 1_555
Ga23 Mo5 2.619690 1_555
Ga23 Mo9 2.672852 1_565
Ga23 Ga33 2.830553 1_555
Ga23 Ga39 2.885303 1_554
Ga23 Ga57 2.953071 1_555
Ga23 Ga41 2.988356 1_555
Ga24 Mo9 2.547519 1_565
Ga24 Mo0 2.563626 1_555
Ga24 Ga46 2.799508 1_555
Ga25 Mo8 2.547519 1_545
Ga25 Mo1 2.563626 1_555
Ga25 Ga47 2.799508 1_555
Ga26 Mo6 2.617012 1_555
Ga26 Mo0 2.675683 1_545
Ga26 Ga48 2.711741 1_555
Ga26 Ga50 2.745933 1_545
Ga26 Ga7 2.789380 1_455
Ga26 Ga42 2.827541 1_555
Ga27 Mo7 2.617012 1_555
Ga27 Mo1 2.675683 1_565
Ga27 Ga49 2.711741 1_555
Ga27 Ga51 2.745933 1_565
Ga27 Ga6 2.789380 1_655
Ga27 Ga43 2.827541 1_555
Ga28 Mo2 2.732308 1_555
Ga28 Mo6 2.744134 1_555
Ga28 Ga48 2.856951 1_555
Ga29 Mo3 2.732308 1_555
Ga29 Mo7 2.744134 1_555
Ga29 Ga49 2.856951 1_555
Ga30 Mo7 2.578369 1_455
Ga30 Mo4 2.581643 1_555
Ga30 Ga35 2.822879 1_555
Ga31 Mo6 2.578369 1_655
Ga31 Mo5 2.581643 1_555
Ga31 Ga34 2.822879 1_555
Ga32 Mo10 2.605127 1_555
Ga32 Mo8 2.638842 1_545
Ga32 Ga43 2.801731 1_545
Ga33 Mo11 2.605127 1_555
Ga33 Mo9 2.638842 1_565
Ga33 Ga42 2.801731 1_565
Ga34 Mo9 2.636537 1_555
Ga34 Ga42 2.663229 1_655
Ga34 Mo6 2.704500 1_655
Ga34 Ga7 2.746084 1_555
Ga34 Ga53 2.951821 1_555
Ga34 Ga37 3.044265 1_555
Ga35 Mo8 2.636537 1_555
Ga35 Ga43 2.663229 1_455
Ga35 Mo7 2.704500 1_455
Ga35 Ga6 2.746084 1_555
Ga35 Ga52 2.951821 1_555
Ga35 Ga36 3.044265 1_555
Ga36 Mo0 2.727604 1_555
Ga36 Mo8 2.789165 1_555
Ga36 Ga6 2.859181 1_555
Ga37 Mo1 2.727604 1_555
Ga37 Mo9 2.789165 1_555
Ga37 Ga7 2.859181 1_555
Ga38 Mo9 2.570135 1_555
Ga38 Mo4 2.580267 1_554
Ga39 Mo8 2.570135 1_555
Ga39 Mo5 2.580267 1_556
Ga40 Mo2 2.748114 1_555
Ga40 Mo4 2.818100 1_555
Ga40 Ga56 2.901597 1_555
Ga40 Ga52 2.918337 1_555
Ga41 Mo3 2.748114 1_555
Ga41 Mo5 2.818100 1_555
Ga41 Ga57 2.901597 1_555
Ga41 Ga53 2.918337 1_555
Ga42 Mo11 2.632283 1_545
Ga42 Mo6 2.666378 1_555
Ga42 Ga8 2.857390 1_555
Ga43 Mo10 2.632283 1_565
Ga43 Mo7 2.666378 1_555
Ga43 Ga9 2.857390 1_555
Ga44 Mo6 2.650888 1_555
Ga44 Mo9 2.674920 1_555
Ga45 Mo7 2.650888 1_555
Ga45 Mo8 2.674920 1_555
Ga46 Mo0 2.781894 1_555
Ga46 Ga54 2.843184 1_555
Ga46 Mo11 2.843584 1_555
Ga46 Ga57 2.867328 1_555
Ga46 Ga50 2.871160 1_555
Ga47 Mo1 2.781894 1_555
Ga47 Ga55 2.843184 1_555
Ga47 Mo10 2.843584 1_555
Ga47 Ga56 2.867328 1_555
Ga47 Ga51 2.871160 1_555
Ga48 Mo2 2.644398 1_555
Ga48 Mo0 2.647110 1_545
Ga48 Ga6 2.783067 1_545
Ga48 Ga51 2.804148 1_455
Ga49 Mo3 2.644398 1_555
Ga49 Mo1 2.647110 1_565
Ga49 Ga7 2.783067 1_565
Ga49 Ga50 2.804148 1_655
Ga50 Mo0 2.635067 1_555
Ga50 Mo3 2.638219 1_455
Ga50 Ga6 2.682303 1_555
Ga51 Mo1 2.635067 1_555
Ga51 Mo2 2.638219 1_655
Ga51 Ga7 2.682303 1_555
Ga52 Mo8 2.667691 1_555
Ga52 Mo4 2.692497 1_555
Ga53 Mo9 2.667691 1_555
Ga53 Mo5 2.692497 1_555
Ga54 Mo6 2.669867 1_555
Ga54 Mo11 2.692451 1_555
Ga55 Mo7 2.669867 1_555
Ga55 Mo10 2.692451 1_555
Ga56 Mo10 2.720985 1_555
Ga56 Mo4 2.735728 1_555
Ga57 Mo11 2.720985 1_555
Ga57 Mo5 2.735728 1_555
Ga58 Mo3 2.626942 1_555
Ga58 Mo0 2.632155 1_555
Ga59 Mo2 2.626942 1_555
Ga59 Mo1 2.632155 1_555
Ga60 Mo0 2.617425 1_555
Ga60 Mo2 2.642188 1_555
Ga61 Mo1 2.617425 1_555
Ga61 Mo3 2.642188 1_555
