# generated using pymatgen
data_TeC4S4(N2F)4
_symmetry_space_group_name_H-M   'P 1'
_cell_length_a   6.49411700
_cell_length_b   6.49411700
_cell_length_c   22.40056126
_cell_angle_alpha   81.29206973
_cell_angle_beta   81.29206973
_cell_angle_gamma   81.88008725
_symmetry_Int_Tables_number   1
_chemical_formula_structural   TeC4S4(N2F)4
_chemical_formula_sum   'Te2 C8 S8 N16 F8'
_cell_volume   916.26396581
_cell_formula_units_Z   2
loop_
 _symmetry_equiv_pos_site_id
 _symmetry_equiv_pos_as_xyz
  1  'x, y, z'
loop_
 _atom_site_type_symbol
 _atom_site_label
 _atom_site_symmetry_multiplicity
 _atom_site_fract_x
 _atom_site_fract_y
 _atom_site_fract_z
 _atom_site_occupancy
  Te  Te0  1  0.50000000  0.00000000  0.50000000  1
  Te  Te1  1  0.00000000  0.50000000  0.00000000  1
  C  C0  1  0.55603600  0.65110700  0.64097500  1
  C  C1  1  0.34889300  0.44396400  0.85902500  1
  C  C2  1  0.44396400  0.34889300  0.35902500  1
  C  C3  1  0.65110700  0.55603600  0.14097500  1
  C  C4  1  0.94452900  0.82487800  0.37943800  1
  C  C5  1  0.17512200  0.05547100  0.12056200  1
  C  C6  1  0.05547100  0.17512200  0.62056200  1
  C  C7  1  0.82487800  0.94452900  0.87943800  1
  S  S0  1  0.68930200  0.88100300  0.60473800  1
  S  S1  1  0.11899700  0.31069800  0.89526200  1
  S  S2  1  0.31069800  0.11899700  0.39526200  1
  S  S3  1  0.88100300  0.68930200  0.10473800  1
  S  S4  1  0.76792500  0.67980400  0.48059700  1
  S  S5  1  0.32019600  0.23207500  0.01940300  1
  S  S6  1  0.23207500  0.32019600  0.51940300  1
  S  S7  1  0.67980400  0.76792500  0.98059700  1
  N  N0  1  0.63797900  0.51190000  0.68590500  1
  N  N1  1  0.48810000  0.36202100  0.81409500  1
  N  N2  1  0.36202100  0.48810000  0.31409500  1
  N  N3  1  0.51190000  0.63797900  0.18590500  1
  N  N4  1  0.38386300  0.63532200  0.62105100  1
  N  N5  1  0.36467800  0.61613700  0.87894900  1
  N  N6  1  0.61613700  0.36467800  0.37894900  1
  N  N7  1  0.63532200  0.38386300  0.12105100  1
  N  N8  1  0.97312800  0.75762700  0.43661500  1
  N  N9  1  0.24237300  0.02687200  0.06338500  1
  N  N10  1  0.02687200  0.24237300  0.56338500  1
  N  N11  1  0.75762700  0.97312800  0.93661500  1
  N  N12  1  0.92479900  0.90150700  0.32902100  1
  N  N13  1  0.09849300  0.07520100  0.17097900  1
  N  N14  1  0.07520100  0.09849300  0.67097900  1
  N  N15  1  0.90150700  0.92479900  0.82902100  1
  F  F0  1  0.42219000  0.17910800  0.80206000  1
  F  F1  1  0.82089200  0.57781000  0.69794000  1
  F  F2  1  0.57781000  0.82089200  0.19794000  1
  F  F3  1  0.17910800  0.42219000  0.30206000  1
  F  F4  1  0.61279300  0.02404600  0.65989700  1
  F  F5  1  0.97595400  0.38720700  0.84010300  1
  F  F6  1  0.38720700  0.97595400  0.34010300  1
  F  F7  1  0.02404600  0.61279300  0.15989700  1
loop_
_geom_bond_atom_site_label_1
_geom_bond_atom_site_label_2
_geom_bond_distance
_geom_bond_site_symmetry_2
C0 N4 1.287325 1_555
C0 N0 1.365347 1_555
C0 S0 1.849918 1_555
C1 N5 1.287325 1_555
C1 N1 1.365347 1_555
C1 S1 1.849918 1_555
C2 N6 1.287325 1_555
C2 N2 1.365347 1_555
C2 S2 1.849918 1_555
C3 N7 1.287325 1_555
C3 N3 1.365347 1_555
C3 S3 1.849918 1_555
C4 N12 1.181170 1_555
C4 N8 1.321141 1_555
C5 N13 1.181170 1_555
C5 N9 1.321141 1_555
C6 N14 1.181170 1_555
C6 N10 1.321141 1_555
C7 N15 1.181170 1_555
C7 N11 1.321141 1_555
S0 Te0 2.769310 1_565
S1 Te1 2.769310 1_556
S2 Te0 2.769310 1_555
S3 Te1 2.769310 1_655
S4 Te0 2.561791 1_565
S5 Te1 2.561791 1_555
S6 Te0 2.561791 1_555
S7 Te1 2.561791 1_656
N8 S4 1.626001 1_555
N9 S5 1.626001 1_555
N10 S6 1.626001 1_555
N11 S7 1.626001 1_555
F0 N1 1.393710 1_555
F1 N0 1.393710 1_555
F2 N3 1.393710 1_555
F3 N2 1.393710 1_555
F4 S0 1.633326 1_545
F5 S1 1.633326 1_655
F6 S2 1.633326 1_565
F7 S3 1.633326 1_455
