# generated using pymatgen
data_SrCa3Lu9O18
_symmetry_space_group_name_H-M   'P 1'
_cell_length_a   17.32835110
_cell_length_b   17.32835110
_cell_length_c   3.32354900
_cell_angle_alpha   90.00000000
_cell_angle_beta   90.00000000
_cell_angle_gamma   119.99999657
_symmetry_Int_Tables_number   1
_chemical_formula_structural   SrCa3Lu9O18
_chemical_formula_sum   'Sr2 Ca6 Lu18 O36'
_cell_volume   864.26556675
_cell_formula_units_Z   2
loop_
 _symmetry_equiv_pos_site_id
 _symmetry_equiv_pos_as_xyz
  1  'x, y, z'
loop_
 _atom_site_type_symbol
 _atom_site_label
 _atom_site_symmetry_multiplicity
 _atom_site_fract_x
 _atom_site_fract_y
 _atom_site_fract_z
 _atom_site_occupancy
  Sr  Sr0  1  0.66666700  0.33333300  0.03051300  1
  Sr  Sr1  1  0.33333300  0.66666700  0.53051300  1
  Ca  Ca0  1  0.00214500  0.32926400  0.74920700  1
  Ca  Ca1  1  0.32711900  0.99785500  0.74920700  1
  Ca  Ca2  1  0.99785500  0.67073600  0.24920700  1
  Ca  Ca3  1  0.67073600  0.67288100  0.74920700  1
  Ca  Ca4  1  0.67288100  0.00214500  0.24920700  1
  Ca  Ca5  1  0.32926400  0.32711900  0.24920700  1
  Lu  Lu0  1  0.78380800  0.21901700  0.74266600  1
  Lu  Lu1  1  0.43520900  0.21619200  0.74266600  1
  Lu  Lu2  1  0.21619200  0.78098300  0.24266600  1
  Lu  Lu3  1  0.78098300  0.56479100  0.74266600  1
  Lu  Lu4  1  0.56479100  0.78380800  0.24266600  1
  Lu  Lu5  1  0.21901700  0.43520900  0.24266600  1
  Lu  Lu6  1  0.77059900  0.88689100  0.74884400  1
  Lu  Lu7  1  0.11629200  0.22940100  0.74884400  1
  Lu  Lu8  1  0.22940100  0.11310900  0.24884400  1
  Lu  Lu9  1  0.11310900  0.88370800  0.74884400  1
  Lu  Lu10  1  0.88370800  0.77059900  0.24884400  1
  Lu  Lu11  1  0.88689100  0.11629200  0.24884400  1
  Lu  Lu12  1  0.44997300  0.55218900  0.75610100  1
  Lu  Lu13  1  0.10221600  0.55002700  0.75610100  1
  Lu  Lu14  1  0.55002700  0.44781100  0.25610100  1
  Lu  Lu15  1  0.44781100  0.89778400  0.75610100  1
  Lu  Lu16  1  0.89778400  0.44997300  0.25610100  1
  Lu  Lu17  1  0.55218900  0.10221600  0.25610100  1
  O  O0  1  0.49832600  0.69429000  0.74271400  1
  O  O1  1  0.19596400  0.50167400  0.74271400  1
  O  O2  1  0.50167400  0.30571000  0.24271400  1
  O  O3  1  0.30571000  0.80403600  0.74271400  1
  O  O4  1  0.80403600  0.49832600  0.24271400  1
  O  O5  1  0.69429000  0.19596400  0.24271400  1
  O  O6  1  0.78079300  0.09110200  0.74829300  1
  O  O7  1  0.31031000  0.21920700  0.74829300  1
  O  O8  1  0.21920700  0.90889800  0.24829300  1
  O  O9  1  0.90889800  0.68969000  0.74829300  1
  O  O10  1  0.68969000  0.78079300  0.24829300  1
  O  O11  1  0.09110200  0.31031000  0.24829300  1
  O  O12  1  0.97400700  0.55157300  0.75190800  1
  O  O13  1  0.57756600  0.02599300  0.75190800  1
  O  O14  1  0.02599300  0.44842700  0.25190800  1
  O  O15  1  0.44842700  0.42243400  0.75190800  1
  O  O16  1  0.42243400  0.97400700  0.25190800  1
  O  O17  1  0.55157300  0.57756600  0.25190800  1
  O  O18  1  0.63780300  0.88578500  0.74723400  1
  O  O19  1  0.24798300  0.36219700  0.74723400  1
  O  O20  1  0.36219700  0.11421500  0.24723400  1
  O  O21  1  0.11421500  0.75201700  0.74723400  1
  O  O22  1  0.75201700  0.63780300  0.24723400  1
  O  O23  1  0.88578500  0.24798300  0.24723400  1
  O  O24  1  0.97426800  0.15446500  0.74894000  1
  O  O25  1  0.18019800  0.02573200  0.74894000  1
  O  O26  1  0.02573200  0.84553500  0.24894000  1
  O  O27  1  0.84553500  0.81980200  0.74894000  1
  O  O28  1  0.81980200  0.97426800  0.24894000  1
  O  O29  1  0.15446500  0.18019800  0.24894000  1
  O  O30  1  0.82100400  0.36108200  0.75392200  1
  O  O31  1  0.54007700  0.17899600  0.75392200  1
  O  O32  1  0.17899600  0.63891800  0.25392200  1
  O  O33  1  0.63891800  0.45992300  0.75392200  1
  O  O34  1  0.45992300  0.82100400  0.25392200  1
  O  O35  1  0.36108200  0.54007700  0.25392200  1
loop_
_geom_bond_atom_site_label_1
_geom_bond_atom_site_label_2
_geom_bond_distance
_geom_bond_site_symmetry_2
Ca0 O11 2.396189 1_556
Ca0 O11 2.400399 1_555
Ca0 O23 2.439091 1_456
Ca0 O23 2.448010 1_455
Ca0 O14 2.512570 1_555
Ca0 O14 2.524416 1_556
Ca0 O24 2.818665 1_455
Ca1 O8 2.396197 1_556
Ca1 O8 2.400407 1_555
Ca1 O20 2.439094 1_566
Ca1 O20 2.448013 1_565
Ca1 O16 2.512569 1_555
Ca1 O16 2.524416 1_556
Ca1 O25 2.818648 1_565
Ca2 O9 2.396189 1_555
Ca2 O9 2.400399 1_554
Ca2 O21 2.439091 1_655
Ca2 O21 2.448010 1_654
Ca2 O12 2.512570 1_554
Ca2 O12 2.524416 1_555
Ca2 O26 2.818665 1_655
Ca3 O10 2.396201 1_556
Ca3 O10 2.400411 1_555
Ca3 O22 2.439082 1_556
Ca3 O22 2.448001 1_555
Ca3 O17 2.512570 1_555
Ca3 O17 2.524416 1_556
Ca3 O27 2.818659 1_555
Ca4 O6 2.396197 1_555
Ca4 O6 2.400407 1_554
Ca4 O18 2.439094 1_545
Ca4 O18 2.448013 1_544
Ca4 O13 2.512569 1_554
Ca4 O13 2.524416 1_555
Ca4 O28 2.818648 1_545
Ca5 O7 2.396201 1_555
Ca5 O7 2.400411 1_554
Ca5 O19 2.439082 1_555
Ca5 O19 2.448001 1_554
Ca5 O15 2.512570 1_554
Ca5 O15 2.524416 1_555
Ca5 O29 2.818659 1_555
Lu0 O5 2.169586 1_555
Lu0 O5 2.169830 1_556
Lu0 O6 2.190981 1_555
Lu0 O30 2.211414 1_555
Lu0 O23 2.280101 1_555
Lu0 O23 2.302124 1_556
Lu1 O2 2.169586 1_555
Lu1 O2 2.169830 1_556
Lu1 O7 2.190963 1_555
Lu1 O31 2.211397 1_555
Lu1 O20 2.280104 1_555
Lu1 O20 2.302127 1_556
Lu2 O3 2.169586 1_554
Lu2 O3 2.169830 1_555
Lu2 O8 2.190981 1_555
Lu2 O32 2.211414 1_555
Lu2 O21 2.280101 1_554
Lu2 O21 2.302124 1_555
Lu3 O4 2.169586 1_555
Lu3 O4 2.169830 1_556
Lu3 O9 2.190972 1_555
Lu3 O33 2.211409 1_555
Lu3 O22 2.280112 1_555
Lu3 O22 2.302136 1_556
Lu4 O0 2.169586 1_554
Lu4 O0 2.169830 1_555
Lu4 O10 2.190963 1_555
Lu4 O34 2.211397 1_555
Lu4 O18 2.280104 1_554
Lu4 O18 2.302127 1_555
Lu5 O1 2.169586 1_554
Lu5 O1 2.169830 1_555
Lu5 O11 2.190972 1_555
Lu5 O35 2.211409 1_555
Lu5 O19 2.280112 1_554
Lu5 O19 2.302136 1_555
Lu6 O28 2.118711 1_555
Lu6 O28 2.119212 1_556
Lu6 O27 2.132424 1_555
Lu6 O18 2.291619 1_555
Lu6 O10 2.350223 1_556
Lu6 O10 2.352811 1_555
Lu7 O29 2.118702 1_555
Lu7 O29 2.119203 1_556
Lu7 O24 2.132409 1_455
Lu7 O19 2.291628 1_555
Lu7 O11 2.350231 1_556
Lu7 O11 2.352819 1_555
Lu8 O25 2.118711 1_554
Lu8 O25 2.119212 1_555
Lu8 O29 2.132424 1_555
Lu8 O20 2.291619 1_555
Lu8 O7 2.350223 1_555
Lu8 O7 2.352811 1_554
Lu9 O26 2.118712 1_555
Lu9 O26 2.119213 1_556
Lu9 O25 2.132409 1_565
Lu9 O21 2.291637 1_555
Lu9 O8 2.350219 1_556
Lu9 O8 2.352808 1_555
Lu10 O27 2.118702 1_554
Lu10 O27 2.119203 1_555
Lu10 O26 2.132409 1_655
Lu10 O22 2.291628 1_555
Lu10 O9 2.350231 1_555
Lu10 O9 2.352819 1_554
Lu11 O24 2.118712 1_554
Lu11 O24 2.119213 1_555
Lu11 O28 2.132409 1_545
Lu11 O23 2.291637 1_555
Lu11 O6 2.350219 1_555
Lu11 O6 2.352808 1_554
Lu12 O0 2.168904 1_555
Lu12 O35 2.197924 1_556
Lu12 O35 2.208848 1_555
Lu12 O15 2.235209 1_555
Lu12 O17 2.287821 1_556
Lu12 O17 2.307977 1_555
Lu13 O1 2.168904 1_555
Lu13 O32 2.197929 1_556
Lu13 O32 2.208852 1_555
Lu13 O12 2.235209 1_455
Lu13 O14 2.287822 1_556
Lu13 O14 2.307977 1_555
Lu14 O2 2.168904 1_555
Lu14 O33 2.197924 1_555
Lu14 O33 2.208848 1_554
Lu14 O17 2.235209 1_555
Lu14 O15 2.287821 1_555
Lu14 O15 2.307977 1_554
Lu15 O3 2.168904 1_555
Lu15 O34 2.197936 1_556
Lu15 O34 2.208859 1_555
Lu15 O13 2.235209 1_565
Lu15 O16 2.287821 1_556
Lu15 O16 2.307977 1_555
Lu16 O4 2.168904 1_555
Lu16 O30 2.197929 1_555
Lu16 O30 2.208852 1_554
Lu16 O14 2.235209 1_655
Lu16 O12 2.287822 1_555
Lu16 O12 2.307977 1_554
Lu17 O5 2.168904 1_555
Lu17 O31 2.197936 1_555
Lu17 O31 2.208859 1_554
Lu17 O16 2.235209 1_545
Lu17 O13 2.287821 1_555
Lu17 O13 2.307977 1_554
O0 Sr1 2.744484 1_555
O1 Sr1 2.744478 1_555
O2 Sr0 2.744484 1_555
O3 Sr1 2.744468 1_555
O4 Sr0 2.744478 1_555
O5 Sr0 2.744468 1_555
O30 Sr0 2.634906 1_556
O31 Sr0 2.634917 1_556
O32 Sr1 2.634906 1_555
O33 Sr0 2.634938 1_556
O34 Sr1 2.634917 1_555
O35 Sr1 2.634938 1_555
