# generated using pymatgen
data_HoScGe
_symmetry_space_group_name_H-M   'P 1'
_cell_length_a   6.18698001
_cell_length_b   8.68830372
_cell_length_c   9.17511736
_cell_angle_alpha   121.88576804
_cell_angle_beta   90.00147557
_cell_angle_gamma   90.00367305
_symmetry_Int_Tables_number   1
_chemical_formula_structural   HoScGe
_chemical_formula_sum   'Ho6 Sc6 Ge6'
_cell_volume   418.77974555
_cell_formula_units_Z   6
loop_
 _symmetry_equiv_pos_site_id
 _symmetry_equiv_pos_as_xyz
  1  'x, y, z'
loop_
 _atom_site_type_symbol
 _atom_site_label
 _atom_site_symmetry_multiplicity
 _atom_site_fract_x
 _atom_site_fract_y
 _atom_site_fract_z
 _atom_site_occupancy
  Ho  Ho0  1  0.75006800  0.26796800  0.97535300  1
  Ho  Ho1  1  0.74997400  0.73206500  0.70736600  1
  Ho  Ho2  1  0.75002200  0.99999200  0.30287000  1
  Ho  Ho3  1  0.24992900  0.74304000  0.00386900  1
  Ho  Ho4  1  0.25000100  0.25736200  0.26094500  1
  Ho  Ho5  1  0.25001900  0.00005100  0.74763500  1
  Sc  Sc0  1  0.50166500  0.31328600  0.65780900  1
  Sc  Sc1  1  0.50161300  0.68640600  0.34439200  1
  Sc  Sc2  1  0.99835700  0.68643800  0.34437000  1
  Sc  Sc3  1  0.99836300  0.31332500  0.65779800  1
  Sc  Sc4  1  0.74989200  0.63271100  0.99513300  1
  Sc  Sc5  1  0.74999100  0.36707300  0.36250500  1
  Ge  Ge0  1  0.54412100  0.00011200  0.02010500  1
  Ge  Ge1  1  0.95587100  0.00010000  0.02009200  1
  Ge  Ge2  1  0.75000400  0.99996300  0.61501500  1
  Ge  Ge3  1  0.25012900  0.40185000  0.98973100  1
  Ge  Ge4  1  0.24999400  0.59831100  0.58821500  1
  Ge  Ge5  1  0.24999000  0.99994800  0.40679600  1
loop_
_geom_bond_atom_site_label_1
_geom_bond_atom_site_label_2
_geom_bond_distance
_geom_bond_site_symmetry_2
Ho0 Sc4 3.076995 1_555
Ho0 Sc5 3.182454 1_556
Ho1 Sc5 3.076943 1_555
Ho1 Sc4 3.181843 1_555
Ho2 Sc5 2.937263 1_565
Ho2 Sc4 2.938778 1_554
Ho3 Sc4 3.226883 1_554
Ho3 Sc4 3.227200 1_454
Ho4 Sc5 3.226035 1_555
Ho4 Sc5 3.226317 1_455
Sc0 Sc4 3.250312 1_555
Sc0 Sc5 3.355259 1_555
Sc1 Sc5 3.251828 1_555
Sc1 Sc4 3.356635 1_554
Sc2 Sc5 3.251975 1_555
Sc2 Sc4 3.356779 1_554
Sc3 Sc4 3.251200 1_555
Sc3 Sc5 3.355072 1_555
Ge0 Ge1 2.547489 1_555
Ge0 Ho3 2.823428 1_545
Ge0 Ho4 2.823617 1_555
Ge0 Ho0 2.866573 1_554
Ge0 Ho1 2.867069 1_544
Ge0 Ho2 2.890752 1_545
Ge0 Ho5 3.091770 1_554
Ge0 Sc5 3.327834 1_555
Ge0 Sc4 3.330256 1_544
Ge1 Ho3 2.823047 1_645
Ge1 Ho4 2.823481 1_655
Ge1 Ho0 2.866325 1_554
Ge1 Ho1 2.866894 1_544
Ge1 Ho2 2.890726 1_545
Ge1 Ho5 3.091962 1_654
Ge1 Sc5 3.328176 1_555
Ge1 Sc4 3.330543 1_544
Ge2 Ho2 2.864100 1_555
Ge2 Ho1 2.866909 1_555
Ge2 Ho0 2.866974 1_565
Ge2 Sc0 2.965954 1_565
Ge2 Sc3 2.966150 1_565
Ge2 Sc1 2.966766 1_555
Ge2 Sc2 2.966830 1_555
Ge2 Ho5 3.323993 1_565
Ge2 Ho5 3.324107 1_665
Ge3 Ho3 2.897936 1_556
Ge3 Ho5 2.988086 1_555
Ge3 Sc0 3.132624 1_555
Ge3 Sc3 3.133380 1_455
Ge3 Sc1 3.259161 1_556
Ge3 Sc2 3.260188 1_456
Ge3 Ho0 3.282708 1_555
Ge3 Ho0 3.283272 1_455
Ge3 Ho4 3.326915 1_556
Ge4 Ho4 2.897309 1_555
Ge4 Ho5 2.988137 1_565
Ge4 Sc1 3.134157 1_555
Ge4 Sc2 3.134547 1_455
Ge4 Sc3 3.260632 1_455
Ge4 Sc0 3.261238 1_555
Ge4 Ho1 3.282032 1_555
Ge4 Ho1 3.282458 1_455
Ge4 Ho3 3.325516 1_556
Ge5 Sc0 2.918140 1_565
Ge5 Sc3 2.918376 1_465
Ge5 Sc2 2.919332 1_455
Ge5 Sc1 2.919791 1_555
Ge5 Ho5 3.126765 1_565
Ge5 Ho3 3.151451 1_555
Ge5 Ho4 3.155076 1_565
Ge5 Ho2 3.236961 1_455
Ge5 Ho2 3.237386 1_555
