# generated using pymatgen
data_CdTe
_symmetry_space_group_name_H-M   'P 1'
_cell_length_a   9.05589922
_cell_length_b   9.05589922
_cell_length_c   9.05589922
_cell_angle_alpha   97.02048184
_cell_angle_beta   97.02048184
_cell_angle_gamma   139.07360008
_symmetry_Int_Tables_number   1
_chemical_formula_structural   CdTe
_chemical_formula_sum   'Cd8 Te8'
_cell_volume   455.81317555
_cell_formula_units_Z   8
loop_
 _symmetry_equiv_pos_site_id
 _symmetry_equiv_pos_as_xyz
  1  'x, y, z'
loop_
 _atom_site_type_symbol
 _atom_site_label
 _atom_site_symmetry_multiplicity
 _atom_site_fract_x
 _atom_site_fract_y
 _atom_site_fract_z
 _atom_site_occupancy
  Cd  Cd0_0  1  0.37500000  0.12500000  0.25000000  1
  Cd  Cd0_1  1  0.37500000  0.12500000  0.75000000  1
  Cd  Cd0_2  1  0.37500000  0.62500000  0.25000000  1
  Cd  Cd0_3  1  0.37500000  0.62500000  0.75000000  1
  Cd  Cd0_4  1  0.87500000  0.12500000  0.25000000  1
  Cd  Cd0_5  1  0.87500000  0.12500000  0.75000000  1
  Cd  Cd0_6  1  0.87500000  0.62500000  0.25000000  1
  Cd  Cd0_7  1  0.87500000  0.62500000  0.75000000  1
  Te  Te0_0  1  0.00000000  0.00000000  0.00000000  1
  Te  Te0_1  1  0.00000000  0.00000000  0.50000000  1
  Te  Te0_2  1  0.00000000  0.50000000  0.00000000  1
  Te  Te0_3  1  0.00000000  0.50000000  0.50000000  1
  Te  Te0_4  1  0.50000000  0.00000000  0.00000000  1
  Te  Te0_5  1  0.50000000  0.00000000  0.50000000  1
  Te  Te0_6  1  0.50000000  0.50000000  0.00000000  1
  Te  Te0_7  1  0.50000000  0.50000000  0.50000000  1
loop_
_geom_bond_atom_site_label_1
_geom_bond_atom_site_label_2
_geom_bond_distance
_geom_bond_site_symmetry_2
Cd0_0 Te0_5 3.102369 1_555
Cd0_0 Te0_7 3.102369 1_555
Cd0_0 Te0_4 3.102369 1_555
Cd0_0 Te0_0 3.102369 1_555
Cd0_0 Cd0_6 3.165994 1_445
Cd0_0 Cd0_6 3.165994 1_555
Cd0_1 Te0_4 3.102369 1_556
Cd0_1 Te0_5 3.102369 1_555
Cd0_1 Te0_6 3.102369 1_556
Cd0_1 Te0_1 3.102369 1_555
Cd0_1 Cd0_7 3.165994 1_555
Cd0_1 Cd0_7 3.165994 1_445
Cd0_2 Te0_6 3.102369 1_555
Cd0_2 Te0_7 3.102369 1_555
Cd0_2 Te0_5 3.102369 1_565
Cd0_2 Te0_2 3.102369 1_555
Cd0_2 Cd0_4 3.165994 1_455
Cd0_2 Cd0_4 3.165994 1_565
Cd0_3 Te0_7 3.102369 1_555
Cd0_3 Te0_6 3.102369 1_556
Cd0_3 Te0_3 3.102369 1_555
Cd0_3 Te0_4 3.102369 1_566
Cd0_3 Cd0_5 3.165994 1_455
Cd0_3 Cd0_5 3.165994 1_565
Cd0_4 Te0_1 3.102369 1_655
Cd0_4 Te0_0 3.102369 1_655
Cd0_4 Te0_3 3.102369 1_655
Cd0_4 Te0_4 3.102369 1_555
Cd0_5 Te0_1 3.102369 1_655
Cd0_5 Te0_0 3.102369 1_656
Cd0_5 Te0_2 3.102369 1_656
Cd0_5 Te0_5 3.102369 1_555
Cd0_6 Te0_3 3.102369 1_655
Cd0_6 Te0_2 3.102369 1_655
Cd0_6 Te0_1 3.102369 1_665
Cd0_6 Te0_6 3.102369 1_555
Cd0_7 Te0_2 3.102369 1_656
Cd0_7 Te0_0 3.102369 1_666
Cd0_7 Te0_3 3.102369 1_655
Cd0_7 Te0_7 3.102369 1_555
Te0_0 Te0_6 3.165994 1_555
Te0_0 Te0_6 3.165994 1_445
Te0_1 Te0_7 3.165994 1_445
Te0_1 Te0_7 3.165994 1_555
Te0_2 Te0_4 3.165994 1_565
Te0_2 Te0_4 3.165994 1_455
Te0_3 Te0_5 3.165994 1_565
Te0_3 Te0_5 3.165994 1_455
