# generated using pymatgen
data_YCo5As3
_symmetry_space_group_name_H-M   'P 1'
_cell_length_a   3.80693966
_cell_length_b   12.06830295
_cell_length_c   10.57318753
_cell_angle_alpha   89.99817687
_cell_angle_beta   90.00000000
_cell_angle_gamma   90.00000000
_symmetry_Int_Tables_number   1
_chemical_formula_structural   YCo5As3
_chemical_formula_sum   'Y4 Co20 As12'
_cell_volume   485.76713846
_cell_formula_units_Z   4
loop_
 _symmetry_equiv_pos_site_id
 _symmetry_equiv_pos_as_xyz
  1  'x, y, z'
loop_
 _atom_site_type_symbol
 _atom_site_label
 _atom_site_symmetry_multiplicity
 _atom_site_fract_x
 _atom_site_fract_y
 _atom_site_fract_z
 _atom_site_occupancy
  Y  Y0  1  0.75000000  0.70121249  0.08139757  1
  Y  Y1  1  0.25000000  0.29874604  0.91859482  1
  Y  Y2  1  0.25000000  0.79872579  0.58144366  1
  Y  Y3  1  0.75000000  0.20129886  0.41856487  1
  Co  Co0  1  0.75000000  0.69622703  0.38302408  1
  Co  Co1  1  0.25000000  0.30378846  0.61696597  1
  Co  Co2  1  0.25000000  0.80374625  0.88303895  1
  Co  Co3  1  0.75000000  0.19623136  0.11695361  1
  Co  Co4  1  0.75000000  0.99047661  0.20399141  1
  Co  Co5  1  0.25000000  0.00952069  0.79597905  1
  Co  Co6  1  0.25000000  0.50952311  0.70399753  1
  Co  Co7  1  0.75000000  0.49047153  0.29599732  1
  Co  Co8  1  0.75000000  0.67441031  0.78496684  1
  Co  Co9  1  0.25000000  0.32557410  0.21502888  1
  Co  Co10  1  0.25000000  0.82558540  0.28496056  1
  Co  Co11  1  0.75000000  0.17442620  0.71505243  1
  Co  Co12  1  0.75000000  0.93281512  0.97096335  1
  Co  Co13  1  0.25000000  0.06719866  0.02901786  1
  Co  Co14  1  0.25000000  0.56717474  0.47097820  1
  Co  Co15  1  0.75000000  0.43280076  0.52902144  1
  Co  Co16  1  0.75000000  0.98866292  0.59582253  1
  Co  Co17  1  0.25000000  0.01140093  0.40421073  1
  Co  Co18  1  0.25000000  0.51137150  0.09579404  1
  Co  Co19  1  0.75000000  0.48861438  0.90421289  1
  As  As0  1  0.75000000  0.61551933  0.58316354  1
  As  As1  1  0.25000000  0.38447140  0.41682954  1
  As  As2  1  0.25000000  0.88445626  0.08315097  1
  As  As3  1  0.75000000  0.11554693  0.91685434  1
  As  As4  1  0.75000000  0.89152322  0.39926999  1
  As  As5  1  0.25000000  0.10849364  0.60075989  1
  As  As6  1  0.25000000  0.60845799  0.89927920  1
  As  As7  1  0.75000000  0.39152454  0.10072893  1
  As  As8  1  0.75000000  0.86658792  0.77097261  1
  As  As9  1  0.25000000  0.13341257  0.22902252  1
  As  As10  1  0.25000000  0.63340140  0.27095376  1
  As  As11  1  0.75000000  0.36659956  0.72903508  1
loop_
_geom_bond_atom_site_label_1
_geom_bond_atom_site_label_2
_geom_bond_distance
_geom_bond_site_symmetry_2
Co0 Y2 3.091083 1_655
Co0 Y2 3.091083 1_555
Co0 Y0 3.189719 1_555
Co1 Y3 3.090907 1_555
Co1 Y3 3.090907 1_455
Co1 Y1 3.189757 1_555
Co2 Y0 3.090762 1_456
Co2 Y0 3.090762 1_556
Co2 Y2 3.189401 1_555
Co3 Y1 3.090671 1_554
Co3 Y1 3.090671 1_654
Co3 Y3 3.189581 1_555
Co4 Y3 3.408926 1_565
Co5 Y2 3.408412 1_545
Co6 Y1 3.408579 1_555
Co7 Y0 3.408271 1_555
Co8 Y0 3.150874 1_556
Co8 Y2 3.241057 1_555
Co8 Y2 3.241057 1_655
Co9 Y1 3.150941 1_554
Co9 Y3 3.240922 1_455
Co9 Y3 3.240922 1_555
Co10 Y2 3.151476 1_555
Co10 Y0 3.241720 1_455
Co10 Y0 3.241720 1_555
Co11 Y3 3.151539 1_555
Co11 Y1 3.241279 1_555
Co11 Y1 3.241279 1_655
Co12 Y0 3.029107 1_556
Co13 Y1 3.028446 1_554
Co14 Y2 3.028728 1_555
Co15 Y3 3.028145 1_555
Co16 Y2 2.983387 1_655
Co16 Y2 2.983387 1_555
Co16 Y3 3.177639 1_565
Co17 Y3 2.983011 1_555
Co17 Y3 2.983011 1_455
Co17 Y2 3.177867 1_545
Co18 Y0 2.982498 1_455
Co18 Y0 2.982498 1_555
Co18 Y1 3.177269 1_554
Co19 Y1 2.982744 1_555
Co19 Y1 2.982744 1_655
Co19 Y0 3.176912 1_556
As0 Co8 2.248979 1_555
As0 Co15 2.278215 1_555
As0 Co14 2.317457 1_655
As0 Co14 2.317457 1_555
As0 Co0 2.329482 1_555
As0 Co6 2.625204 1_655
As0 Co6 2.625204 1_555
As0 Y2 2.917534 1_555
As0 Y2 2.917534 1_655
As1 Co9 2.248976 1_555
As1 Co14 2.278055 1_555
As1 Co15 2.317446 1_555
As1 Co15 2.317446 1_455
As1 Co1 2.329328 1_555
As1 Co7 2.625218 1_455
As1 Co7 2.625218 1_555
As1 Y3 2.917225 1_555
As1 Y3 2.917225 1_455
As2 Co10 2.248922 1_555
As2 Co13 2.278434 1_565
As2 Co12 2.317494 1_554
As2 Co12 2.317494 1_454
As2 Co2 2.329286 1_554
As2 Co4 2.625418 1_555
As2 Co4 2.625418 1_455
As2 Y0 2.917879 1_455
As2 Y0 2.917879 1_555
As3 Co11 2.248877 1_555
As3 Co12 2.278247 1_545
As3 Co13 2.317331 1_556
As3 Co13 2.317331 1_656
As3 Co3 2.329035 1_556
As3 Co5 2.625632 1_655
As3 Co5 2.625632 1_555
As3 Y1 2.917469 1_655
As3 Y1 2.917469 1_555
As4 Co0 2.363150 1_555
As4 Co4 2.385165 1_555
As4 Co16 2.386070 1_555
As4 Co10 2.391075 1_655
As4 Co10 2.391075 1_555
As4 Co17 2.391429 1_565
As4 Co17 2.391429 1_665
As4 Y2 2.930415 1_555
As4 Y2 2.930415 1_655
As5 Co1 2.363103 1_555
As5 Co5 2.384739 1_555
As5 Co17 2.385760 1_555
As5 Co11 2.390963 1_555
As5 Co11 2.390963 1_455
As5 Co16 2.391085 1_445
As5 Co16 2.391085 1_545
As5 Y3 2.930599 1_455
As5 Y3 2.930599 1_555
As6 Co2 2.363039 1_555
As6 Co6 2.385147 1_555
As6 Co18 2.385342 1_556
As6 Co8 2.391123 1_555
As6 Co8 2.391123 1_455
As6 Co19 2.391176 1_555
As6 Co19 2.391176 1_455
As6 Y0 2.929879 1_456
As6 Y0 2.929879 1_556
As7 Co3 2.363087 1_555
As7 Co7 2.385099 1_555
As7 Co19 2.385373 1_554
As7 Co9 2.391049 1_555
As7 Co9 2.391049 1_655
As7 Co18 2.391201 1_555
As7 Co18 2.391201 1_655
As7 Y1 2.930099 1_654
As7 Y1 2.930099 1_554
As8 Co12 2.260572 1_555
As8 Co8 2.323968 1_555
As8 Co16 2.366383 1_555
As8 Co2 2.366914 1_655
As8 Co2 2.366914 1_555
As8 Co5 2.582364 1_565
As8 Co5 2.582364 1_665
As8 Y2 2.882663 1_655
As8 Y2 2.882663 1_555
As9 Co13 2.260653 1_555
As9 Co9 2.323774 1_555
As9 Co17 2.366223 1_555
As9 Co3 2.366839 1_455
As9 Co3 2.366839 1_555
As9 Co4 2.582417 1_445
As9 Co4 2.582417 1_545
As9 Y3 2.882845 1_455
As9 Y3 2.882845 1_555
As10 Co14 2.260855 1_555
As10 Co10 2.324063 1_555
As10 Co18 2.366198 1_555
As10 Co0 2.366898 1_455
As10 Co0 2.366898 1_555
As10 Co7 2.582370 1_455
As10 Co7 2.582370 1_555
As10 Y0 2.882652 1_455
As10 Y0 2.882652 1_555
As11 Co15 2.260640 1_555
As11 Co11 2.323918 1_555
As11 Co19 2.366234 1_555
As11 Co1 2.366835 1_555
As11 Co1 2.366835 1_655
As11 Co6 2.582312 1_555
As11 Co6 2.582312 1_655
As11 Y1 2.882824 1_555
As11 Y1 2.882824 1_655
