# generated using pymatgen
data_Si4MoH36C12(NO)2
_symmetry_space_group_name_H-M   'P 1'
_cell_length_a   11.44045700
_cell_length_b   19.14880300
_cell_length_c   13.90705700
_cell_angle_alpha   90.00000000
_cell_angle_beta   90.00000000
_cell_angle_gamma   90.00000000
_symmetry_Int_Tables_number   1
_chemical_formula_structural   Si4MoH36C12(NO)2
_chemical_formula_sum   'Si16 Mo4 H144 C48 N8 O8'
_cell_volume   3046.63368124
_cell_formula_units_Z   4
loop_
 _symmetry_equiv_pos_site_id
 _symmetry_equiv_pos_as_xyz
  1  'x, y, z'
loop_
 _atom_site_type_symbol
 _atom_site_label
 _atom_site_symmetry_multiplicity
 _atom_site_fract_x
 _atom_site_fract_y
 _atom_site_fract_z
 _atom_site_occupancy
  Si  Si0  1  0.29907100  0.09551300  0.05094200  1
  Si  Si1  1  0.79907100  0.40448700  0.44905800  1
  Si  Si2  1  0.70092900  0.59551300  0.94905800  1
  Si  Si3  1  0.20092900  0.90448700  0.55094200  1
  Si  Si4  1  0.70092900  0.90448700  0.94905800  1
  Si  Si5  1  0.20092900  0.59551300  0.55094200  1
  Si  Si6  1  0.29907100  0.40448700  0.05094200  1
  Si  Si7  1  0.79907100  0.09551300  0.44905800  1
  Si  Si8  1  0.90016600  0.25000000  0.10287500  1
  Si  Si9  1  0.40016600  0.25000000  0.39712500  1
  Si  Si10  1  0.09983400  0.75000000  0.89712500  1
  Si  Si11  1  0.59983400  0.75000000  0.60287500  1
  Si  Si12  1  0.92869700  0.25000000  0.87876200  1
  Si  Si13  1  0.42869700  0.25000000  0.62123800  1
  Si  Si14  1  0.07130300  0.75000000  0.12123800  1
  Si  Si15  1  0.57130300  0.75000000  0.37876200  1
  Mo  Mo0  1  0.16053600  0.25000000  0.01809800  1
  Mo  Mo1  1  0.66053600  0.25000000  0.48190200  1
  Mo  Mo2  1  0.83946400  0.75000000  0.98190200  1
  Mo  Mo3  1  0.33946400  0.75000000  0.51809800  1
  H  H0  1  0.50198000  0.07458300  0.00092700  1
  H  H1  1  0.00198000  0.42541700  0.49907300  1
  H  H2  1  0.49802000  0.57458300  0.99907300  1
  H  H3  1  0.99802000  0.92541700  0.50092700  1
  H  H4  1  0.49802000  0.92541700  0.99907300  1
  H  H5  1  0.99802000  0.57458300  0.50092700  1
  H  H6  1  0.50198000  0.42541700  0.00092700  1
  H  H7  1  0.00198000  0.07458300  0.49907300  1
  H  H8  1  0.49923400  0.14673400  0.08134500  1
  H  H9  1  0.99923400  0.35326600  0.41865500  1
  H  H10  1  0.50076600  0.64673400  0.91865500  1
  H  H11  1  0.00076600  0.85326600  0.58134500  1
  H  H12  1  0.50076600  0.85326600  0.91865500  1
  H  H13  1  0.00076600  0.64673400  0.58134500  1
  H  H14  1  0.49923400  0.35326600  0.08134500  1
  H  H15  1  0.99923400  0.14673400  0.41865500  1
  H  H16  1  0.45272700  0.15693200  0.95928700  1
  H  H17  1  0.95272700  0.34306800  0.54071300  1
  H  H18  1  0.54727300  0.65693200  0.04071300  1
  H  H19  1  0.04727300  0.84306800  0.45928700  1
  H  H20  1  0.54727300  0.84306800  0.04071300  1
  H  H21  1  0.04727300  0.65693200  0.45928700  1
  H  H22  1  0.45272700  0.34306800  0.95928700  1
  H  H23  1  0.95272700  0.15693200  0.54071300  1
  H  H24  1  0.29614000  0.00707200  0.92070900  1
  H  H25  1  0.79614000  0.49292800  0.57929100  1
  H  H26  1  0.70386000  0.50707200  0.07929100  1
  H  H27  1  0.20386000  0.99292800  0.42070900  1
  H  H28  1  0.70386000  0.99292800  0.07929100  1
  H  H29  1  0.20386000  0.50707200  0.42070900  1
  H  H30  1  0.29614000  0.49292800  0.92070900  1
  H  H31  1  0.79614000  0.00707200  0.57929100  1
  H  H32  1  0.26623800  0.09246800  0.87852100  1
  H  H33  1  0.76623800  0.40753200  0.62147900  1
  H  H34  1  0.73376200  0.59246800  0.12147900  1
  H  H35  1  0.23376200  0.90753200  0.37852100  1
  H  H36  1  0.73376200  0.90753200  0.12147900  1
  H  H37  1  0.23376200  0.59246800  0.37852100  1
  H  H38  1  0.26623800  0.40753200  0.87852100  1
  H  H39  1  0.76623800  0.09246800  0.62147900  1
  H  H40  1  0.15279800  0.04241600  0.93218300  1
  H  H41  1  0.65279800  0.45758400  0.56781700  1
  H  H42  1  0.84720200  0.54241600  0.06781700  1
  H  H43  1  0.34720200  0.95758400  0.43218300  1
  H  H44  1  0.84720200  0.95758400  0.06781700  1
  H  H45  1  0.34720200  0.54241600  0.43218300  1
  H  H46  1  0.15279800  0.45758400  0.93218300  1
  H  H47  1  0.65279800  0.04241600  0.56781700  1
  H  H48  1  0.35219500  0.98771000  0.13752500  1
  H  H49  1  0.85219500  0.51229000  0.36247500  1
  H  H50  1  0.64780500  0.48771000  0.86247500  1
  H  H51  1  0.14780500  0.01229000  0.63752500  1
  H  H52  1  0.64780500  0.01229000  0.86247500  1
  H  H53  1  0.14780500  0.48771000  0.63752500  1
  H  H54  1  0.35219500  0.51229000  0.13752500  1
  H  H55  1  0.85219500  0.98771000  0.36247500  1
  H  H56  1  0.22023700  0.02067200  0.18802100  1
  H  H57  1  0.72023700  0.47932800  0.31197900  1
  H  H58  1  0.77976300  0.52067200  0.81197900  1
  H  H59  1  0.27976300  0.97932800  0.68802100  1
  H  H60  1  0.77976300  0.97932800  0.81197900  1
  H  H61  1  0.27976300  0.52067200  0.68802100  1
  H  H62  1  0.22023700  0.47932800  0.18802100  1
  H  H63  1  0.72023700  0.02067200  0.31197900  1
  H  H64  1  0.35611800  0.06110300  0.21513600  1
  H  H65  1  0.85611800  0.43889700  0.28486400  1
  H  H66  1  0.64388200  0.56110300  0.78486400  1
  H  H67  1  0.14388200  0.93889700  0.71513600  1
  H  H68  1  0.64388200  0.93889700  0.78486400  1
  H  H69  1  0.14388200  0.56110300  0.71513600  1
  H  H70  1  0.35611800  0.43889700  0.21513600  1
  H  H71  1  0.85611800  0.06110300  0.28486400  1
  H  H72  1  0.94118000  0.25000000  0.27543000  1
  H  H73  1  0.44118000  0.25000000  0.22457000  1
  H  H74  1  0.05882000  0.75000000  0.72457000  1
  H  H75  1  0.55882000  0.75000000  0.77543000  1
  H  H76  1  0.05364800  0.20331000  0.21498200  1
  H  H77  1  0.55364800  0.29669000  0.28501800  1
  H  H78  1  0.94635200  0.70331000  0.78501800  1
  H  H79  1  0.44635200  0.79669000  0.71498200  1
  H  H80  1  0.94635200  0.79669000  0.78501800  1
  H  H81  1  0.44635200  0.70331000  0.71498200  1
  H  H82  1  0.05364800  0.29669000  0.21498200  1
  H  H83  1  0.55364800  0.20331000  0.28501800  1
  H  H84  1  0.75443900  0.17337700  0.17797500  1
  H  H85  1  0.25443900  0.32662300  0.32202500  1
  H  H86  1  0.24556100  0.67337700  0.82202500  1
  H  H87  1  0.74556100  0.82662300  0.67797500  1
  H  H88  1  0.24556100  0.82662300  0.82202500  1
  H  H89  1  0.74556100  0.67337700  0.67797500  1
  H  H90  1  0.75443900  0.32662300  0.17797500  1
  H  H91  1  0.25443900  0.17337700  0.32202500  1
  H  H92  1  0.85744400  0.12230500  0.11251700  1
  H  H93  1  0.35744400  0.37769500  0.38748300  1
  H  H94  1  0.14255600  0.62230500  0.88748300  1
  H  H95  1  0.64255600  0.87769500  0.61251700  1
  H  H96  1  0.14255600  0.87769500  0.88748300  1
  H  H97  1  0.64255600  0.62230500  0.61251700  1
  H  H98  1  0.85744400  0.37769500  0.11251700  1
  H  H99  1  0.35744400  0.12230500  0.38748300  1
  H  H100  1  0.74263300  0.16645400  0.05105400  1
  H  H101  1  0.24263300  0.33354600  0.44894600  1
  H  H102  1  0.25736700  0.66645400  0.94894600  1
  H  H103  1  0.75736700  0.83354600  0.55105400  1
  H  H104  1  0.25736700  0.83354600  0.94894600  1
  H  H105  1  0.75736700  0.66645400  0.55105400  1
  H  H106  1  0.74263300  0.33354600  0.05105400  1
  H  H107  1  0.24263300  0.16645400  0.44894600  1
  H  H108  1  0.73783500  0.25000000  0.80258000  1
  H  H109  1  0.23783500  0.25000000  0.69742000  1
  H  H110  1  0.26216500  0.75000000  0.19742000  1
  H  H111  1  0.76216500  0.75000000  0.30258000  1
  H  H112  1  0.72580400  0.20350700  0.91242600  1
  H  H113  1  0.22580400  0.29649300  0.58757400  1
  H  H114  1  0.27419600  0.70350700  0.08757400  1
  H  H115  1  0.77419600  0.79649300  0.41242600  1
  H  H116  1  0.27419600  0.79649300  0.08757400  1
  H  H117  1  0.77419600  0.70350700  0.41242600  1
  H  H118  1  0.72580400  0.29649300  0.91242600  1
  H  H119  1  0.22580400  0.20350700  0.58757400  1
  H  H120  1  0.93745200  0.17394500  0.73808600  1
  H  H121  1  0.43745200  0.32605500  0.76191400  1
  H  H122  1  0.06254800  0.67394500  0.26191400  1
  H  H123  1  0.56254800  0.82605500  0.23808600  1
  H  H124  1  0.06254800  0.82605500  0.26191400  1
  H  H125  1  0.56254800  0.67394500  0.23808600  1
  H  H126  1  0.93745200  0.32605500  0.73808600  1
  H  H127  1  0.43745200  0.17394500  0.76191400  1
  H  H128  1  0.94672600  0.12211400  0.84441600  1
  H  H129  1  0.44672600  0.37788600  0.65558400  1
  H  H130  1  0.05327400  0.62211400  0.15558400  1
  H  H131  1  0.55327400  0.87788600  0.34441600  1
  H  H132  1  0.05327400  0.87788600  0.15558400  1
  H  H133  1  0.55327400  0.62211400  0.34441600  1
  H  H134  1  0.94672600  0.37788600  0.84441600  1
  H  H135  1  0.44672600  0.12211400  0.65558400  1
  H  H136  1  0.07177700  0.16924400  0.80275400  1
  H  H137  1  0.57177700  0.33075600  0.69724600  1
  H  H138  1  0.92822300  0.66924400  0.19724600  1
  H  H139  1  0.42822300  0.83075600  0.30275400  1
  H  H140  1  0.92822300  0.83075600  0.19724600  1
  H  H141  1  0.42822300  0.66924400  0.30275400  1
  H  H142  1  0.07177700  0.33075600  0.80275400  1
  H  H143  1  0.57177700  0.16924400  0.69724600  1
  C  C0  1  0.45271000  0.12170600  0.02164600  1
  C  C1  1  0.95271000  0.37829400  0.47835400  1
  C  C2  1  0.54729000  0.62170600  0.97835400  1
  C  C3  1  0.04729000  0.87829400  0.52164600  1
  C  C4  1  0.54729000  0.87829400  0.97835400  1
  C  C5  1  0.04729000  0.62170600  0.52164600  1
  C  C6  1  0.45271000  0.37829400  0.02164600  1
  C  C7  1  0.95271000  0.12170600  0.47835400  1
  C  C8  1  0.24617200  0.05493500  0.93618200  1
  C  C9  1  0.74617200  0.44506500  0.56381800  1
  C  C10  1  0.75382800  0.55493500  0.06381800  1
  C  C11  1  0.25382800  0.94506500  0.43618200  1
  C  C12  1  0.75382800  0.94506500  0.06381800  1
  C  C13  1  0.25382800  0.55493500  0.43618200  1
  C  C14  1  0.24617200  0.44506500  0.93618200  1
  C  C15  1  0.74617200  0.05493500  0.56381800  1
  C  C16  1  0.30521400  0.03574200  0.15777700  1
  C  C17  1  0.80521400  0.46425800  0.34222300  1
  C  C18  1  0.69478600  0.53574200  0.84222300  1
  C  C19  1  0.19478600  0.96425800  0.65777700  1
  C  C20  1  0.69478600  0.96425800  0.84222300  1
  C  C21  1  0.19478600  0.53574200  0.65777700  1
  C  C22  1  0.30521400  0.46425800  0.15777700  1
  C  C23  1  0.80521400  0.03574200  0.34222300  1
  C  C24  1  0.99792000  0.25000000  0.21147000  1
  C  C25  1  0.49792000  0.25000000  0.28853000  1
  C  C26  1  0.00208000  0.75000000  0.78853000  1
  C  C27  1  0.50208000  0.75000000  0.71147000  1
  C  C28  1  0.80498200  0.17033400  0.11068800  1
  C  C29  1  0.30498200  0.32966600  0.38931200  1
  C  C30  1  0.19501800  0.67033400  0.88931200  1
  C  C31  1  0.69501800  0.82966600  0.61068800  1
  C  C32  1  0.19501800  0.82966600  0.88931200  1
  C  C33  1  0.69501800  0.67033400  0.61068800  1
  C  C34  1  0.80498200  0.32966600  0.11068800  1
  C  C35  1  0.30498200  0.17033400  0.38931200  1
  C  C36  1  0.76415900  0.25000000  0.87879300  1
  C  C37  1  0.26415900  0.25000000  0.62120700  1
  C  C38  1  0.23584100  0.75000000  0.12120700  1
  C  C39  1  0.73584100  0.75000000  0.37879300  1
  C  C40  1  0.97636800  0.17075700  0.81035900  1
  C  C41  1  0.47636800  0.32924300  0.68964100  1
  C  C42  1  0.02363200  0.67075700  0.18964100  1
  C  C43  1  0.52363200  0.82924300  0.31035900  1
  C  C44  1  0.02363200  0.82924300  0.18964100  1
  C  C45  1  0.52363200  0.67075700  0.31035900  1
  C  C46  1  0.97636800  0.32924300  0.81035900  1
  C  C47  1  0.47636800  0.17075700  0.68964100  1
  N  N0  1  0.21282800  0.25000000  0.90600100  1
  N  N1  1  0.71282800  0.25000000  0.59399900  1
  N  N2  1  0.78717200  0.75000000  0.09399900  1
  N  N3  1  0.28717200  0.75000000  0.40600100  1
  N  N4  1  0.98861500  0.25000000  0.99767800  1
  N  N5  1  0.48861500  0.25000000  0.50232200  1
  N  N6  1  0.01138500  0.75000000  0.00232200  1
  N  N7  1  0.51138500  0.75000000  0.49767800  1
  O  O0  1  0.21676500  0.16564800  0.07959800  1
  O  O1  1  0.71676500  0.33435200  0.42040200  1
  O  O2  1  0.78323500  0.66564800  0.92040200  1
  O  O3  1  0.28323500  0.83435200  0.57959800  1
  O  O4  1  0.78323500  0.83435200  0.92040200  1
  O  O5  1  0.28323500  0.66564800  0.57959800  1
  O  O6  1  0.21676500  0.33435200  0.07959800  1
  O  O7  1  0.71676500  0.16564800  0.42040200  1
loop_
_geom_bond_atom_site_label_1
_geom_bond_atom_site_label_2
_geom_bond_distance
_geom_bond_site_symmetry_2
Mo0 N0 1.669787 1_554
Mo0 O6 1.937608 1_555
Mo0 O0 1.937608 1_555
Mo0 N4 1.987250 1_454
Mo1 N1 1.669787 1_555
Mo1 O1 1.937608 1_555
Mo1 O7 1.937608 1_555
Mo1 N5 1.987250 1_555
Mo2 N2 1.669787 1_556
Mo2 O4 1.937608 1_555
Mo2 O2 1.937608 1_555
Mo2 N6 1.987250 1_656
Mo3 N3 1.669787 1_555
Mo3 O3 1.937608 1_555
Mo3 O5 1.937608 1_555
Mo3 N7 1.987250 1_555
C0 H8 1.096484 1_555
C0 H16 1.098675 1_554
C0 H0 1.102263 1_555
C0 Si0 1.872717 1_555
C1 H9 1.096484 1_555
C1 H17 1.098675 1_555
C1 H1 1.102263 1_655
C1 Si1 1.872717 1_555
C2 H10 1.096484 1_555
C2 H18 1.098675 1_556
C2 H2 1.102263 1_555
C2 Si2 1.872717 1_555
C3 H11 1.096484 1_555
C3 H19 1.098675 1_555
C3 H3 1.102263 1_455
C3 Si3 1.872717 1_555
C4 H12 1.096484 1_555
C4 H20 1.098675 1_556
C4 H4 1.102263 1_555
C4 Si4 1.872717 1_555
C5 H13 1.096484 1_555
C5 H21 1.098675 1_555
C5 H5 1.102263 1_455
C5 Si5 1.872717 1_555
C6 H14 1.096484 1_555
C6 H22 1.098675 1_554
C6 H6 1.102263 1_555
C6 Si6 1.872717 1_555
C7 H15 1.096484 1_555
C7 H23 1.098675 1_555
C7 H7 1.102263 1_655
C7 Si7 1.872717 1_555
C8 H40 1.096221 1_555
C8 H32 1.101037 1_555
C8 H24 1.101410 1_555
C8 Si0 1.875406 1_556
C9 H41 1.096221 1_555
C9 H33 1.101037 1_555
C9 H25 1.101410 1_555
C9 Si1 1.875406 1_555
C10 H42 1.096221 1_555
C10 H34 1.101037 1_555
C10 H26 1.101410 1_555
C10 Si2 1.875406 1_554
C11 H43 1.096221 1_555
C11 H35 1.101037 1_555
C11 H27 1.101410 1_555
C11 Si3 1.875406 1_555
C12 H44 1.096221 1_555
C12 H36 1.101037 1_555
C12 H28 1.101410 1_555
C12 Si4 1.875406 1_554
C13 H45 1.096221 1_555
C13 H37 1.101037 1_555
C13 H29 1.101410 1_555
C13 Si5 1.875406 1_555
C14 H46 1.096221 1_555
C14 H38 1.101037 1_555
C14 H30 1.101410 1_555
C14 Si6 1.875406 1_556
C15 H47 1.096221 1_555
C15 H39 1.101037 1_555
C15 H31 1.101410 1_555
C15 Si7 1.875406 1_555
C16 H56 1.097865 1_555
C16 H64 1.100593 1_555
C16 H48 1.101891 1_545
C16 Si0 1.876806 1_555
C17 H57 1.097865 1_555
C17 H65 1.100593 1_555
C17 H49 1.101891 1_555
C17 Si1 1.876806 1_555
C18 H58 1.097865 1_555
C18 H66 1.100593 1_555
C18 H50 1.101891 1_555
C18 Si2 1.876806 1_555
C19 H59 1.097865 1_555
C19 H67 1.100593 1_555
C19 H51 1.101891 1_565
C19 Si3 1.876806 1_555
C20 H60 1.097865 1_555
C20 H68 1.100593 1_555
C20 H52 1.101891 1_565
C20 Si4 1.876806 1_555
C21 H61 1.097865 1_555
C21 H69 1.100593 1_555
C21 H53 1.101891 1_555
C21 Si5 1.876806 1_555
C22 H62 1.097865 1_555
C22 H70 1.100593 1_555
C22 H54 1.101891 1_555
C22 Si6 1.876806 1_555
C23 H63 1.097865 1_555
C23 H71 1.100593 1_555
C23 H55 1.101891 1_545
C23 Si7 1.876806 1_555
C24 H76 1.099181 1_655
C24 H82 1.099181 1_655
C24 H72 1.101169 1_555
C24 Si8 1.879235 1_555
C25 H83 1.099181 1_555
C25 H77 1.099181 1_555
C25 H73 1.101169 1_555
C25 Si9 1.879235 1_555
C26 H78 1.099181 1_455
C26 H80 1.099181 1_455
C26 H74 1.101169 1_555
C26 Si10 1.879235 1_555
C27 H81 1.099181 1_555
C27 H79 1.099181 1_555
C27 H75 1.101169 1_555
C27 Si11 1.879235 1_555
C28 H100 1.096409 1_555
C28 H92 1.098507 1_555
C28 H84 1.101547 1_555
C28 Si8 1.877443 1_555
C29 H101 1.096409 1_555
C29 H93 1.098507 1_555
C29 H85 1.101547 1_555
C29 Si9 1.877443 1_555
C30 H102 1.096409 1_555
C30 H94 1.098507 1_555
C30 H86 1.101547 1_555
C30 Si10 1.877443 1_555
C31 H103 1.096409 1_555
C31 H95 1.098507 1_555
C31 H87 1.101547 1_555
C31 Si11 1.877443 1_555
C32 H104 1.096409 1_555
C32 H96 1.098507 1_555
C32 H88 1.101547 1_555
C32 Si10 1.877443 1_555
C33 H105 1.096409 1_555
C33 H97 1.098507 1_555
C33 H89 1.101547 1_555
C33 Si11 1.877443 1_555
C34 H106 1.096409 1_555
C34 H98 1.098507 1_555
C34 H90 1.101547 1_555
C34 Si8 1.877443 1_555
C35 H107 1.096409 1_555
C35 H99 1.098507 1_555
C35 H91 1.101547 1_555
C35 Si9 1.877443 1_555
C36 H112 1.097237 1_555
C36 H118 1.097237 1_555
C36 H108 1.101854 1_555
C36 Si12 1.882390 1_555
C37 H113 1.097237 1_555
C37 H119 1.097237 1_555
C37 H109 1.101854 1_555
C37 Si13 1.882390 1_555
C38 H116 1.097237 1_555
C38 H114 1.097237 1_555
C38 H110 1.101854 1_555
C38 Si14 1.882390 1_555
C39 H115 1.097237 1_555
C39 H117 1.097237 1_555
C39 H111 1.101854 1_555
C39 Si15 1.882390 1_555
C40 H136 1.097017 1_655
C40 H128 1.098607 1_555
C40 H120 1.100991 1_555
C40 Si12 1.872140 1_555
C41 H137 1.097017 1_555
C41 H129 1.098607 1_555
C41 H121 1.100991 1_555
C41 Si13 1.872140 1_555
C42 H138 1.097017 1_455
C42 H130 1.098607 1_555
C42 H122 1.100991 1_555
C42 Si14 1.872140 1_555
C43 H139 1.097017 1_555
C43 H131 1.098607 1_555
C43 H123 1.100991 1_555
C43 Si15 1.872140 1_555
C44 H140 1.097017 1_455
C44 H132 1.098607 1_555
C44 H124 1.100991 1_555
C44 Si14 1.872140 1_555
C45 H141 1.097017 1_555
C45 H133 1.098607 1_555
C45 H125 1.100991 1_555
C45 Si15 1.872140 1_555
C46 H142 1.097017 1_655
C46 H134 1.098607 1_555
C46 H126 1.100991 1_555
C46 Si12 1.872140 1_555
C47 H143 1.097017 1_555
C47 H135 1.098607 1_555
C47 H127 1.100991 1_555
C47 Si13 1.872140 1_555
N4 Si8 1.778833 1_556
N4 Si12 1.790211 1_555
N5 Si9 1.778833 1_555
N5 Si13 1.790211 1_555
N6 Si10 1.778833 1_554
N6 Si14 1.790211 1_555
N7 Si11 1.778833 1_555
N7 Si15 1.790211 1_555
O0 Si0 1.687932 1_555
O1 Si1 1.687932 1_555
O2 Si2 1.687932 1_555
O3 Si3 1.687932 1_555
O4 Si4 1.687932 1_555
O5 Si5 1.687932 1_555
O6 Si6 1.687932 1_555
O7 Si7 1.687932 1_555
