# generated using pymatgen
data_NbInTc2
_symmetry_space_group_name_H-M   'P 1'
_cell_length_a   10.98004414
_cell_length_b   10.98004414
_cell_length_c   10.98004414
_cell_angle_alpha   126.21580719
_cell_angle_beta   117.25941330
_cell_angle_gamma   87.20008754
_symmetry_Int_Tables_number   1
_chemical_formula_structural   NbInTc2
_chemical_formula_sum   'Nb1 In1 Tc2'
_cell_volume   902.87584417
_cell_formula_units_Z   1
loop_
 _symmetry_equiv_pos_site_id
 _symmetry_equiv_pos_as_xyz
  1  'x, y, z'
loop_
 _atom_site_type_symbol
 _atom_site_label
 _atom_site_symmetry_multiplicity
 _atom_site_fract_x
 _atom_site_fract_y
 _atom_site_fract_z
 _atom_site_occupancy
  Nb  Nb0  1  -0.00000000  -0.00000000  -0.00000000  1
  In  In0  1  -0.00000000  0.50000000  0.50000000  1
  Tc  Tc0  1  -0.00000000  0.22597597  0.22597597  1
  Tc  Tc1  1  0.00000000  0.77402403  0.77402403  1
loop_
_geom_bond_atom_site_label_1
_geom_bond_atom_site_label_2
_geom_bond_distance
_geom_bond_site_symmetry_2
Nb0 Tc0 2.244575 1_555
Nb0 Tc1 2.244575 1_544
In0 Tc1 2.721827 1_555
In0 Tc0 2.721827 1_555
