# generated using pymatgen
data_TcN
_symmetry_space_group_name_H-M   'P 1'
_cell_length_a   2.68107200
_cell_length_b   2.68107200
_cell_length_c   2.68107200
_cell_angle_alpha   90.00000000
_cell_angle_beta   90.00000000
_cell_angle_gamma   90.00000000
_symmetry_Int_Tables_number   1
_chemical_formula_structural   TcN
_chemical_formula_sum   'Tc1 N1'
_cell_volume   19.27193984
_cell_formula_units_Z   1
loop_
 _symmetry_equiv_pos_site_id
 _symmetry_equiv_pos_as_xyz
  1  'x, y, z'
loop_
 _atom_site_type_symbol
 _atom_site_label
 _atom_site_symmetry_multiplicity
 _atom_site_fract_x
 _atom_site_fract_y
 _atom_site_fract_z
 _atom_site_occupancy
  Tc  Tc0  1  0.00000000  0.00000000  0.00000000  1
  N  N0  1  0.50000000  0.50000000  0.50000000  1
loop_
_geom_bond_atom_site_label_1
_geom_bond_atom_site_label_2
_geom_bond_distance
_geom_bond_site_symmetry_2
N0 Tc0 2.321876 1_665
N0 Tc0 2.321876 1_666
N0 Tc0 2.321876 1_555
N0 Tc0 2.321876 1_655
N0 Tc0 2.321876 1_556
N0 Tc0 2.321876 1_566
N0 Tc0 2.321876 1_656
N0 Tc0 2.321876 1_565
