# generated using pymatgen
data_KMg14Sn
_symmetry_space_group_name_H-M   'P 1'
_cell_length_a   6.51530974
_cell_length_b   6.58343722
_cell_length_c   10.63786800
_cell_angle_alpha   90.00000000
_cell_angle_beta   90.00000000
_cell_angle_gamma   120.34651163
_symmetry_Int_Tables_number   1
_chemical_formula_structural   KMg14Sn
_chemical_formula_sum   'K1 Mg14 Sn1'
_cell_volume   393.77302520
_cell_formula_units_Z   1
loop_
 _symmetry_equiv_pos_site_id
 _symmetry_equiv_pos_as_xyz
  1  'x, y, z'
loop_
 _atom_site_type_symbol
 _atom_site_label
 _atom_site_symmetry_multiplicity
 _atom_site_fract_x
 _atom_site_fract_y
 _atom_site_fract_z
 _atom_site_occupancy
  K  K0  1  0.16899980  0.83449940  0.12500000  1
  Mg  Mg0  1  0.16426239  0.33213070  0.62500000  1
  Mg  Mg1  1  0.16839718  0.83419809  0.62500000  1
  Mg  Mg2  1  0.66736353  0.34042337  0.12500000  1
  Mg  Mg3  1  0.66866681  0.33077196  0.62500000  1
  Mg  Mg4  1  0.66736353  0.82693916  0.12500000  1
  Mg  Mg5  1  0.66866681  0.83789385  0.62500000  1
  Mg  Mg6  1  0.33409427  0.17360522  0.38710619  1
  Mg  Mg7  1  0.33409427  0.17360522  0.86289381  1
  Mg  Mg8  1  0.33409427  0.66049005  0.38710619  1
  Mg  Mg9  1  0.33409427  0.66049005  0.86289381  1
  Mg  Mg10  1  0.83175406  0.16587753  0.37118784  1
  Mg  Mg11  1  0.83175406  0.16587753  0.87881216  1
  Mg  Mg12  1  0.82349825  0.66174963  0.38957641  1
  Mg  Mg13  1  0.82349825  0.66174963  0.86042359  1
  Sn  Sn0  1  0.17939825  0.33969862  0.12500000  1
loop_
_geom_bond_atom_site_label_1
_geom_bond_atom_site_label_2
_geom_bond_distance
_geom_bond_site_symmetry_2
K0 Mg2 3.243453 1_455
K0 Mg4 3.243454 1_455
K0 Mg2 3.272422 1_565
K0 Mg4 3.272422 1_555
K0 Sn0 3.292238 1_565
K0 Sn0 3.292238 1_555
K0 Mg9 3.389516 1_554
K0 Mg8 3.389516 1_555
K0 Mg7 3.389523 1_564
K0 Mg6 3.389523 1_565
K0 Mg12 3.419848 1_455
K0 Mg13 3.419848 1_454
Mg0 Mg6 3.144007 1_555
Mg0 Mg7 3.144007 1_555
Mg0 Mg8 3.144013 1_555
Mg0 Mg9 3.144013 1_555
Mg0 Mg5 3.224448 1_445
Mg0 Mg3 3.224449 1_455
Mg0 Mg10 3.284112 1_455
Mg0 Mg11 3.284112 1_455
Mg0 Mg5 3.290879 1_555
Mg0 Mg3 3.290879 1_555
Mg0 Mg1 3.291801 1_555
Mg0 Mg1 3.291801 1_545
Mg1 Mg12 3.167440 1_455
Mg1 Mg13 3.167440 1_455
Mg1 Mg8 3.182002 1_555
Mg1 Mg9 3.182002 1_555
Mg1 Mg6 3.182008 1_565
Mg1 Mg7 3.182008 1_565
Mg1 Mg3 3.247187 1_565
Mg1 Mg5 3.247187 1_555
Mg1 Mg3 3.268258 1_455
Mg1 Mg5 3.268258 1_455
Mg2 Sn0 3.176837 1_555
Mg2 Mg4 3.202946 1_555
Mg2 Sn0 3.338478 1_655
Mg2 Mg6 3.359411 1_555
Mg2 Mg7 3.359411 1_554
Mg2 Mg4 3.380491 1_545
Mg3 Mg7 3.153983 1_555
Mg3 Mg6 3.153983 1_555
Mg3 Mg5 3.244832 1_545
Mg3 Mg5 3.338605 1_555
Mg4 Sn0 3.176837 1_555
Mg4 Sn0 3.338478 1_665
Mg4 Mg8 3.359411 1_555
Mg4 Mg9 3.359411 1_554
Mg5 Mg8 3.153983 1_555
Mg5 Mg9 3.153983 1_555
Mg6 Mg8 3.205376 1_555
Mg6 Sn0 3.331588 1_555
Mg6 Mg8 3.378062 1_545
Mg7 Mg9 3.205376 1_555
Mg7 Sn0 3.331588 1_556
Mg7 Mg9 3.378062 1_545
Mg8 Sn0 3.331594 1_555
Mg9 Sn0 3.331594 1_556
Mg10 Mg2 3.251147 1_555
Mg10 Mg4 3.251154 1_545
Mg10 Mg8 3.251907 1_655
Mg10 Mg6 3.251907 1_655
Mg10 Sn0 3.267942 1_655
Mg10 Mg8 3.272789 1_545
Mg10 Mg6 3.272790 1_555
Mg10 Mg3 3.280727 1_555
Mg10 Mg5 3.280733 1_545
Mg10 Mg12 3.297853 1_545
Mg10 Mg12 3.297853 1_555
Mg11 Mg2 3.251147 1_556
Mg11 Mg4 3.251154 1_546
Mg11 Mg9 3.251907 1_655
Mg11 Mg7 3.251907 1_655
Mg11 Sn0 3.267942 1_656
Mg11 Mg9 3.272789 1_545
Mg11 Mg7 3.272790 1_555
Mg11 Mg3 3.280727 1_555
Mg11 Mg5 3.280733 1_545
Mg11 Mg13 3.297853 1_545
Mg11 Mg13 3.297853 1_555
Mg12 Mg5 3.133124 1_555
Mg12 Mg3 3.133131 1_555
Mg12 Mg6 3.184545 1_555
Mg12 Mg8 3.184545 1_555
Mg12 Mg6 3.330992 1_665
Mg12 Mg8 3.330992 1_655
Mg12 Mg4 3.355138 1_555
Mg12 Mg2 3.355144 1_555
Mg13 Mg5 3.133124 1_555
Mg13 Mg3 3.133131 1_555
Mg13 Mg7 3.184545 1_555
Mg13 Mg9 3.184545 1_555
Mg13 Mg7 3.330992 1_665
Mg13 Mg9 3.330992 1_655
Mg13 Mg4 3.355138 1_556
Mg13 Mg2 3.355144 1_556
