# generated using pymatgen
data_Na5ErH6WO10
_symmetry_space_group_name_H-M   'P 1'
_cell_length_a   11.14079593
_cell_length_b   11.14079593
_cell_length_c   11.55041330
_cell_angle_alpha   113.94073177
_cell_angle_beta   113.94073177
_cell_angle_gamma   95.27711466
_symmetry_Int_Tables_number   1
_chemical_formula_structural   Na5ErH6WO10
_chemical_formula_sum   'Na20 Er4 H24 W4 O40'
_cell_volume   1139.62059303
_cell_formula_units_Z   4
loop_
 _symmetry_equiv_pos_site_id
 _symmetry_equiv_pos_as_xyz
  1  'x, y, z'
loop_
 _atom_site_type_symbol
 _atom_site_label
 _atom_site_symmetry_multiplicity
 _atom_site_fract_x
 _atom_site_fract_y
 _atom_site_fract_z
 _atom_site_occupancy
  Na  Na0  1  0.68958052  0.80826464  0.50171071  1
  Na  Na1  1  0.19173536  0.31041948  0.99828929  1
  Na  Na2  1  0.31041948  0.19173536  0.49828929  1
  Na  Na3  1  0.80826464  0.68958052  0.00171071  1
  Na  Na4  1  0.90259468  0.59872719  0.50603947  1
  Na  Na5  1  0.40127281  0.09740532  0.99396053  1
  Na  Na6  1  0.09740532  0.40127281  0.49396053  1
  Na  Na7  1  0.59872719  0.90259468  0.00603947  1
  Na  Na8  1  0.67143848  0.58105909  0.62011576  1
  Na  Na9  1  0.41894091  0.32856152  0.87988424  1
  Na  Na10  1  0.32856152  0.41894091  0.37988424  1
  Na  Na11  1  0.58105909  0.67143848  0.12011576  1
  Na  Na12  1  0.07457483  0.18340619  0.62364232  1
  Na  Na13  1  0.81659381  0.92542517  0.87635768  1
  Na  Na14  1  0.92542517  0.81659381  0.37635768  1
  Na  Na15  1  0.18340619  0.07457483  0.12364232  1
  Na  Na16  1  0.74739486  0.25260514  0.25000000  1
  Na  Na17  1  0.25260514  0.74739486  0.75000000  1
  Na  Na18  1  0.80892235  0.19107765  0.75000000  1
  Na  Na19  1  0.19107765  0.80892235  0.25000000  1
  Er  Er0  1  0.54235522  0.45764478  0.25000000  1
  Er  Er1  1  0.45764478  0.54235522  0.75000000  1
  Er  Er2  1  0.95714696  0.04285304  0.25000000  1
  Er  Er3  1  0.04285304  0.95714696  0.75000000  1
  H  H0  1  0.76736034  0.57353734  0.25877589  1
  H  H1  1  0.42646266  0.23263966  0.24122411  1
  H  H2  1  0.23263966  0.42646266  0.74122411  1
  H  H3  1  0.57353734  0.76736034  0.75877589  1
  H  H4  1  0.44929459  0.66295903  0.42734175  1
  H  H5  1  0.33704097  0.55070541  0.07265825  1
  H  H6  1  0.55070541  0.33704097  0.57265825  1
  H  H7  1  0.66295903  0.44929459  0.92734175  1
  H  H8  1  0.69554002  0.35967075  0.45889956  1
  H  H9  1  0.64032925  0.30445998  0.04110044  1
  H  H10  1  0.30445998  0.64032925  0.54110044  1
  H  H11  1  0.35967075  0.69554002  0.95889956  1
  H  H12  1  0.09795181  0.26542104  0.25278873  1
  H  H13  1  0.73457896  0.90204819  0.24721127  1
  H  H14  1  0.90204819  0.73457896  0.74721127  1
  H  H15  1  0.26542104  0.09795181  0.75278873  1
  H  H16  1  0.85465405  0.20685951  0.45242826  1
  H  H17  1  0.79314049  0.14534595  0.04757174  1
  H  H18  1  0.14534595  0.79314049  0.54757174  1
  H  H19  1  0.20685951  0.85465405  0.95242826  1
  H  H20  1  0.17809549  0.98004122  0.47640665  1
  H  H21  1  0.01995878  0.82190451  0.02359335  1
  H  H22  1  0.82190451  0.01995878  0.52359335  1
  H  H23  1  0.98004122  0.17809549  0.97640665  1
  W  W0  1  0.03361855  0.53798531  0.83298218  1
  W  W1  1  0.46201469  0.96638145  0.66701782  1
  W  W2  1  0.96638145  0.46201469  0.16701782  1
  W  W3  1  0.53798531  0.03361855  0.33298218  1
  O  O0  1  0.72304610  0.62766169  0.30939121  1
  O  O1  1  0.37233831  0.27695390  0.19060879  1
  O  O2  1  0.27695390  0.37233831  0.69060879  1
  O  O3  1  0.62766169  0.72304610  0.80939121  1
  O  O4  1  0.51268267  0.60845593  0.42600855  1
  O  O5  1  0.39154407  0.48731733  0.07399145  1
  O  O6  1  0.48731733  0.39154407  0.57399145  1
  O  O7  1  0.60845593  0.51268267  0.92600855  1
  O  O8  1  0.70091755  0.42364766  0.42225288  1
  O  O9  1  0.57635234  0.29908245  0.07774712  1
  O  O10  1  0.29908245  0.57635234  0.57774712  1
  O  O11  1  0.42364766  0.70091755  0.92225288  1
  O  O12  1  0.13125408  0.21751556  0.30828735  1
  O  O13  1  0.78248444  0.86874592  0.19171265  1
  O  O14  1  0.86874592  0.78248444  0.69171265  1
  O  O15  1  0.21751556  0.13125408  0.80828735  1
  O  O16  1  0.92211193  0.20249963  0.41883711  1
  O  O17  1  0.79750037  0.07788807  0.08116289  1
  O  O18  1  0.07788807  0.79750037  0.58116289  1
  O  O19  1  0.20249963  0.92211193  0.91883711  1
  O  O20  1  0.10665070  0.00739733  0.41944868  1
  O  O21  1  0.99260267  0.89334930  0.08055132  1
  O  O22  1  0.89334930  0.99260267  0.58055132  1
  O  O23  1  0.00739733  0.10665070  0.91944868  1
  O  O24  1  0.02228617  0.36435040  0.81034746  1
  O  O25  1  0.63564960  0.97771383  0.68965254  1
  O  O26  1  0.97771383  0.63564960  0.18965254  1
  O  O27  1  0.36435040  0.02228617  0.31034746  1
  O  O28  1  0.06748708  0.55215656  0.69648828  1
  O  O29  1  0.44784344  0.93251292  0.80351172  1
  O  O30  1  0.93251292  0.44784344  0.30351172  1
  O  O31  1  0.55215656  0.06748708  0.19648828  1
  O  O32  1  0.87495785  0.57901700  0.81453191  1
  O  O33  1  0.42098300  0.12504215  0.68546809  1
  O  O34  1  0.12504215  0.42098300  0.18546809  1
  O  O35  1  0.57901700  0.87495785  0.31453191  1
  O  O36  1  0.17409234  0.66679972  0.01125996  1
  O  O37  1  0.33320028  0.82590766  0.48874004  1
  O  O38  1  0.82590766  0.33320028  0.98874004  1
  O  O39  1  0.66679972  0.17409234  0.51125996  1
loop_
_geom_bond_atom_site_label_1
_geom_bond_atom_site_label_2
_geom_bond_distance
_geom_bond_site_symmetry_2
Na0 O4 2.412166 1_555
Na0 O14 2.438198 1_555
Na0 O35 2.460549 1_555
Na0 O22 2.479366 1_555
Na0 O0 2.510901 1_555
Na0 O25 2.564851 1_555
Na1 O5 2.412166 1_556
Na1 O15 2.438198 1_555
Na1 O34 2.460549 1_556
Na1 O23 2.479366 1_555
Na1 O1 2.510901 1_556
Na1 O24 2.564851 1_555
Na2 O6 2.412166 1_555
Na2 O12 2.438198 1_555
Na2 O33 2.460549 1_555
Na2 O20 2.479366 1_555
Na2 O2 2.510901 1_555
Na2 O27 2.564851 1_555
Na3 O7 2.412166 1_554
Na3 O13 2.438198 1_555
Na3 O32 2.460549 1_554
Na3 O21 2.479366 1_555
Na3 O3 2.510901 1_554
Na3 O26 2.564851 1_555
Na4 O8 2.384652 1_555
Na4 O18 2.395930 1_655
Na4 O30 2.439977 1_555
Na4 O14 2.483490 1_555
Na4 O0 2.507934 1_555
Na4 O28 2.510934 1_655
Na5 O9 2.384652 1_556
Na5 O19 2.395930 1_545
Na5 O31 2.439977 1_556
Na5 O15 2.483490 1_555
Na5 O1 2.507934 1_556
Na5 O29 2.510934 1_545
Na6 O10 2.384652 1_555
Na6 O16 2.395930 1_455
Na6 O28 2.439977 1_555
Na6 O12 2.483490 1_555
Na6 O2 2.507934 1_555
Na6 O30 2.510934 1_455
Na7 O11 2.384652 1_554
Na7 O17 2.395930 1_565
Na7 O29 2.439977 1_554
Na7 O13 2.483490 1_555
Na7 O3 2.507934 1_554
Na7 O31 2.510934 1_565
Na8 O4 2.384204 1_555
Na8 O3 2.391695 1_555
Na8 O8 2.422539 1_555
Na8 O32 2.470395 1_555
Na8 O6 2.520479 1_555
Na8 O14 2.581227 1_555
Na9 O5 2.384204 1_556
Na9 O2 2.391695 1_555
Na9 O9 2.422539 1_556
Na9 O33 2.470395 1_555
Na9 O7 2.520479 1_555
Na9 O15 2.581227 1_555
Na10 O6 2.384204 1_555
Na10 O1 2.391695 1_555
Na10 O10 2.422539 1_555
Na10 O34 2.470395 1_555
Na10 O4 2.520479 1_555
Na10 O12 2.581227 1_555
Na11 O7 2.384204 1_554
Na11 O0 2.391695 1_555
Na11 O11 2.422539 1_554
Na11 O35 2.470395 1_555
Na11 O5 2.520479 1_555
Na11 O13 2.581227 1_555
Na12 O16 2.395867 1_455
Na12 O15 2.416931 1_555
Na12 O22 2.525672 1_445
Na12 O2 2.550011 1_555
Na12 O20 2.568052 1_555
Na12 O24 2.600201 1_555
Na13 O17 2.395867 1_566
Na13 O14 2.416931 1_555
Na13 O23 2.525672 1_665
Na13 O3 2.550011 1_555
Na13 O21 2.568052 1_556
Na13 O25 2.600201 1_555
Na14 O18 2.395867 1_655
Na14 O13 2.416931 1_555
Na14 O20 2.525672 1_665
Na14 O0 2.550011 1_555
Na14 O22 2.568052 1_555
Na14 O26 2.600201 1_555
Na15 O19 2.395867 1_544
Na15 O12 2.416931 1_555
Na15 O21 2.525672 1_445
Na15 O1 2.550011 1_555
Na15 O23 2.568052 1_554
Na15 O27 2.600201 1_555
Na16 O9 2.407980 1_555
Na16 O8 2.407980 1_555
Na16 O17 2.430249 1_555
Na16 O16 2.430249 1_555
Na16 O31 2.532921 1_555
Na16 O30 2.532921 1_555
Na17 O10 2.407980 1_555
Na17 O11 2.407980 1_555
Na17 O18 2.430249 1_555
Na17 O19 2.430249 1_555
Na17 O29 2.532921 1_555
Na17 O28 2.532921 1_555
Na18 O38 2.474827 1_555
Na18 O39 2.474827 1_555
Na18 O25 2.565507 1_545
Na18 O24 2.565507 1_655
Na19 O37 2.474827 1_555
Na19 O36 2.474827 1_555
Na19 O26 2.565507 1_455
Na19 O27 2.565507 1_565
Er0 O5 2.222755 1_555
Er0 O4 2.222755 1_555
Er0 O9 2.259365 1_555
Er0 O8 2.259365 1_555
Er0 O1 2.287787 1_555
Er0 O0 2.287787 1_555
Er1 O6 2.222755 1_555
Er1 O7 2.222755 1_555
Er1 O11 2.259365 1_555
Er1 O10 2.259365 1_555
Er1 O2 2.287787 1_555
Er1 O3 2.287787 1_555
Er2 O21 2.205367 1_545
Er2 O20 2.205367 1_655
Er2 O16 2.247054 1_555
Er2 O17 2.247054 1_555
Er2 O12 2.277010 1_655
Er2 O13 2.277010 1_545
Er3 O22 2.205367 1_455
Er3 O23 2.205367 1_565
Er3 O19 2.247054 1_555
Er3 O18 2.247054 1_555
Er3 O15 2.277010 1_565
Er3 O14 2.277010 1_455
H0 O0 0.975717 1_555
H0 Na4 2.506983 1_555
H0 Na14 2.544629 1_555
H1 O1 0.975717 1_555
H1 Na5 2.506983 1_554
H1 Na15 2.544629 1_555
H2 O2 0.975717 1_555
H2 Na6 2.506983 1_555
H2 Na12 2.544629 1_555
H3 O3 0.975717 1_555
H3 Na7 2.506983 1_556
H3 Na13 2.544629 1_555
H4 O4 0.973531 1_555
H4 Na0 2.594750 1_555
H5 O5 0.973531 1_555
H5 Na1 2.594750 1_554
H6 O6 0.973531 1_555
H6 Na2 2.594750 1_555
H7 O7 0.973531 1_555
H7 Na3 2.594750 1_556
H8 O8 0.973835 1_555
H8 Na8 2.534379 1_555
H8 Na16 2.549652 1_555
H9 O9 0.973835 1_555
H9 Na9 2.534379 1_554
H9 Na16 2.549652 1_555
H10 O10 0.973835 1_555
H10 Na10 2.534379 1_555
H10 Na17 2.549652 1_555
H11 O11 0.973835 1_555
H11 Na11 2.534379 1_556
H11 Na17 2.549652 1_555
H12 O12 0.976974 1_555
H12 Na10 2.402919 1_555
H12 Na15 2.569635 1_555
H12 Na6 2.577645 1_555
H13 O13 0.976974 1_555
H13 Na11 2.402919 1_555
H13 Na14 2.569635 1_555
H13 Na7 2.577645 1_555
H14 O14 0.976974 1_555
H14 Na8 2.402919 1_555
H14 Na13 2.569635 1_555
H14 Na4 2.577645 1_555
H15 O15 0.976974 1_555
H15 Na9 2.402919 1_555
H15 Na12 2.569635 1_555
H15 Na5 2.577645 1_555
H16 O16 0.972507 1_555
H16 Na16 2.442558 1_555
H16 Na12 2.566490 1_655
H17 O17 0.972507 1_555
H17 Na16 2.442558 1_555
H17 Na13 2.566490 1_544
H18 O18 0.972507 1_555
H18 Na17 2.442558 1_555
H18 Na14 2.566490 1_455
H19 O19 0.972507 1_555
H19 Na17 2.442558 1_555
H19 Na15 2.566490 1_566
H20 O20 0.970363 1_565
H20 Na2 2.524608 1_565
H21 O21 0.970363 1_455
H21 Na3 2.524608 1_455
H22 O22 0.970363 1_545
H22 Na0 2.524608 1_545
H23 O23 0.970363 1_655
H23 Na1 2.524608 1_655
O24 W0 1.828703 1_555
O25 W1 1.828703 1_555
O26 W2 1.828703 1_555
O27 W3 1.828703 1_555
O28 W0 1.823919 1_555
O29 W1 1.823919 1_555
O30 W2 1.823919 1_555
O31 W3 1.823919 1_555
O32 W0 1.816807 1_655
O33 W1 1.816807 1_545
O34 W2 1.816807 1_455
O35 W3 1.816807 1_565
O36 W0 1.822653 1_554
O37 W1 1.822653 1_555
O38 W2 1.822653 1_556
O39 W3 1.822653 1_555
