# generated using pymatgen
data_Li7Mn2(CoO4)3
_symmetry_space_group_name_H-M   'P 1'
_cell_length_a   14.65020161
_cell_length_b   14.65020161
_cell_length_c   5.12105487
_cell_angle_alpha   80.91210422
_cell_angle_beta   80.91210422
_cell_angle_gamma   11.45896974
_symmetry_Int_Tables_number   1
_chemical_formula_structural   Li7Mn2(CoO4)3
_chemical_formula_sum   'Li7 Mn2 Co3 O12'
_cell_volume   215.58991593
_cell_formula_units_Z   1
loop_
 _symmetry_equiv_pos_site_id
 _symmetry_equiv_pos_as_xyz
  1  'x, y, z'
loop_
 _atom_site_type_symbol
 _atom_site_label
 _atom_site_symmetry_multiplicity
 _atom_site_fract_x
 _atom_site_fract_y
 _atom_site_fract_z
 _atom_site_occupancy
  Li  Li0  1  0.41553300  0.41553300  0.91836000  1
  Li  Li1  1  0.24581200  0.24581200  0.74131200  1
  Li  Li2  1  0.08934100  0.08934100  0.58438600  1
  Li  Li3  1  0.91604200  0.91604200  0.41321900  1
  Li  Li4  1  0.74454300  0.74454300  0.25280000  1
  Li  Li5  1  0.58868800  0.58868800  0.08654600  1
  Li  Li6  1  0.66674900  0.66674900  0.66713200  1
  Mn  Mn0  1  0.00080600  0.00080600  0.00168000  1
  Mn  Mn1  1  0.83291000  0.83291000  0.83069800  1
  Co  Co0  1  0.50087300  0.50087300  0.50234200  1
  Co  Co1  1  0.33192500  0.33192500  0.33217600  1
  Co  Co2  1  0.16671200  0.16671200  0.16771700  1
  O  O0  1  0.46248700  0.46248700  0.17528400  1
  O  O1  1  0.29584300  0.29584300  0.00641600  1
  O  O2  1  0.12987600  0.12987600  0.91452500  1
  O  O3  1  0.96349200  0.96349200  0.71439700  1
  O  O4  1  0.79435700  0.79435700  0.55451700  1
  O  O5  1  0.62882100  0.62882100  0.36135800  1
  O  O6  1  0.37106600  0.37106600  0.64939200  1
  O  O7  1  0.20393400  0.20393400  0.41786900  1
  O  O8  1  0.03664600  0.03664600  0.28943200  1
  O  O9  1  0.87085800  0.87085800  0.11239700  1
  O  O10  1  0.70381300  0.70381300  0.97764300  1
  O  O11  1  0.53887100  0.53887100  0.82840300  1
loop_
_geom_bond_atom_site_label_1
_geom_bond_atom_site_label_2
_geom_bond_distance
_geom_bond_site_symmetry_2
Li0 O6 2.035873 1_555
Li0 O0 2.043728 1_556
Li0 O9 2.100466 1_456
Li0 O9 2.100466 1_546
Li0 O3 2.172868 1_455
Li0 O3 2.172868 1_545
Li1 O1 2.144605 1_556
Li1 O4 2.151123 1_545
Li1 O4 2.151123 1_455
Li1 O10 2.152344 1_545
Li1 O10 2.152344 1_455
Li1 O7 2.208219 1_555
Li2 O5 2.085902 1_545
Li2 O5 2.085902 1_455
Li2 O2 2.211154 1_555
Li2 O11 2.298238 1_545
Li2 O11 2.298238 1_455
Li2 O8 2.319136 1_555
Li3 O9 2.180085 1_555
Li3 O6 2.194923 1_565
Li3 O6 2.194923 1_655
Li3 O0 2.221130 1_655
Li3 O0 2.221130 1_565
Li3 O3 2.229331 1_555
Li4 O10 1.981613 1_554
Li4 O7 1.984330 1_565
Li4 O7 1.984330 1_655
Li4 O4 2.282299 1_555
Li4 O1 2.317063 1_565
Li4 O1 2.317063 1_655
Li5 O5 1.967826 1_555
Li5 O2 2.005287 1_654
Li5 O2 2.005287 1_564
Li5 O11 2.113415 1_554
Li5 O8 2.240556 1_655
Li5 O8 2.240556 1_565
Li6 O5 2.055337 1_555
Li6 O10 2.059538 1_555
Li6 O2 2.113614 1_565
Li6 O2 2.113614 1_655
Li6 O7 2.122359 1_655
Li6 O7 2.122359 1_565
Mn0 O8 1.937032 1_555
Mn0 O11 1.960964 1_454
Mn0 O11 1.960964 1_544
Mn0 O3 1.963657 1_444
Mn0 O0 1.965239 1_455
Mn0 O0 1.965239 1_545
Mn1 O4 1.941230 1_555
Mn1 O1 1.951383 1_566
Mn1 O1 1.951383 1_656
Mn1 O9 1.952376 1_556
Mn1 O6 1.977541 1_565
Mn1 O6 1.977541 1_655
Co0 O8 2.013592 1_565
Co0 O8 2.013592 1_655
Co0 O3 2.032312 1_545
Co0 O3 2.032312 1_455
Co0 O11 2.145375 1_555
Co0 O0 2.157015 1_555
Co1 O4 2.058929 1_545
Co1 O4 2.058929 1_455
Co1 O9 2.070889 1_455
Co1 O9 2.070889 1_545
Co1 O1 2.108725 1_555
Co1 O6 2.128290 1_555
Co2 O7 1.805552 1_555
Co2 O2 1.810133 1_554
Co2 O10 1.980461 1_454
Co2 O10 1.980461 1_544
Co2 O5 1.998738 1_545
Co2 O5 1.998738 1_455
