# generated using pymatgen
data_CsMg6BO7
_symmetry_space_group_name_H-M   'P 1'
_cell_length_a   4.93148600
_cell_length_b   4.93148600
_cell_length_c   8.23424600
_cell_angle_alpha   90.00000000
_cell_angle_beta   90.00000000
_cell_angle_gamma   90.00000000
_symmetry_Int_Tables_number   1
_chemical_formula_structural   CsMg6BO7
_chemical_formula_sum   'Cs1 Mg6 B1 O7'
_cell_volume   200.25319163
_cell_formula_units_Z   1
loop_
 _symmetry_equiv_pos_site_id
 _symmetry_equiv_pos_as_xyz
  1  'x, y, z'
loop_
 _atom_site_type_symbol
 _atom_site_label
 _atom_site_symmetry_multiplicity
 _atom_site_fract_x
 _atom_site_fract_y
 _atom_site_fract_z
 _atom_site_occupancy
  Cs  Cs0  1  0.00000000  0.00000000  0.04483800  1
  Mg  Mg0  1  0.50000000  0.50000000  0.97830500  1
  Mg  Mg1  1  0.50000000  0.50000000  0.50015700  1
  Mg  Mg2  1  0.00000000  0.50000000  0.26423100  1
  Mg  Mg3  1  0.00000000  0.50000000  0.73303300  1
  Mg  Mg4  1  0.50000000  0.00000000  0.26423100  1
  Mg  Mg5  1  0.50000000  0.00000000  0.73303300  1
  B  B0  1  0.00000000  0.00000000  0.51761800  1
  O  O0  1  0.00000000  0.00000000  0.35912000  1
  O  O1  1  0.00000000  0.00000000  0.67712200  1
  O  O2  1  0.50000000  0.50000000  0.73804100  1
  O  O3  1  0.00000000  0.50000000  0.97139300  1
  O  O4  1  0.00000000  0.50000000  0.49874300  1
  O  O5  1  0.50000000  0.00000000  0.97139300  1
  O  O6  1  0.50000000  0.00000000  0.49874300  1
loop_
_geom_bond_atom_site_label_1
_geom_bond_atom_site_label_2
_geom_bond_distance
_geom_bond_site_symmetry_2
Cs0 O5 2.538824 1_454
Cs0 O3 2.538824 1_544
Cs0 O5 2.538824 1_554
Cs0 O3 2.538824 1_554
Cs0 O0 2.587875 1_555
Cs0 O1 3.027864 1_554
Mg0 O2 1.978393 1_555
Mg0 O3 2.466400 1_655
Mg0 O5 2.466400 1_555
Mg0 O5 2.466400 1_565
Mg0 O3 2.466400 1_555
Mg1 O2 1.958795 1_555
Mg1 O6 2.465770 1_555
Mg1 O6 2.465770 1_565
Mg1 O4 2.465770 1_555
Mg1 O4 2.465770 1_655
Mg2 O4 1.931029 1_555
Mg2 O3 2.411300 1_554
Mg2 O0 2.586577 1_565
Mg2 O0 2.586577 1_555
Mg3 O4 1.929201 1_555
Mg3 O3 1.962715 1_555
Mg3 O2 2.466088 1_455
Mg3 O2 2.466088 1_555
Mg3 O1 2.508355 1_555
Mg3 O1 2.508355 1_565
Mg4 O6 1.931029 1_555
Mg4 O5 2.411300 1_554
Mg4 O0 2.586577 1_655
Mg4 O0 2.586577 1_555
Mg5 O6 1.929201 1_555
Mg5 O5 1.962715 1_555
Mg5 O2 2.466088 1_555
Mg5 O2 2.466088 1_545
Mg5 O1 2.508355 1_555
Mg5 O1 2.508355 1_655
B0 O0 1.305112 1_555
B0 O1 1.313395 1_555
