# generated using pymatgen
data_HfCrCuS4
_symmetry_space_group_name_H-M   'P 1'
_cell_length_a   6.45809458
_cell_length_b   7.43240242
_cell_length_c   12.59044320
_cell_angle_alpha   81.22319873
_cell_angle_beta   84.96233387
_cell_angle_gamma   89.97578548
_symmetry_Int_Tables_number   1
_chemical_formula_structural   HfCrCuS4
_chemical_formula_sum   'Hf4 Cr4 Cu4 S16'
_cell_volume   594.89534215
_cell_formula_units_Z   4
loop_
 _symmetry_equiv_pos_site_id
 _symmetry_equiv_pos_as_xyz
  1  'x, y, z'
loop_
 _atom_site_type_symbol
 _atom_site_label
 _atom_site_symmetry_multiplicity
 _atom_site_fract_x
 _atom_site_fract_y
 _atom_site_fract_z
 _atom_site_occupancy
  Hf  Hf0  1  0.86294300  0.29849700  0.30190700  1
  Hf  Hf1  1  0.23980100  0.86901500  0.99966100  1
  Hf  Hf2  1  0.75976900  0.12124300  0.99951800  1
  Hf  Hf3  1  0.62920200  0.44612100  0.69987900  1
  Cr  Cr0  1  0.14951000  0.70414700  0.70552600  1
  Cr  Cr1  1  0.36407800  0.55880300  0.29343400  1
  Cr  Cr2  1  0.36464800  0.04225600  0.29796700  1
  Cr  Cr3  1  0.62026200  0.94729300  0.70120600  1
  Cu  Cu0  1  0.13368300  0.19801600  0.70138300  1
  Cu  Cu1  1  0.87579300  0.80073100  0.29937700  1
  Cu  Cu2  1  0.24958600  0.38250100  0.99695000  1
  Cu  Cu3  1  0.75096400  0.63671900  0.00322700  1
  S  S0  1  0.09762400  0.64810400  0.88715300  1
  S  S1  1  0.89917500  0.35495100  0.10819200  1
  S  S2  1  0.10349300  0.15090200  0.88938100  1
  S  S3  1  0.89859400  0.84785500  0.11261100  1
  S  S4  1  0.19394800  0.78193500  0.36113600  1
  S  S5  1  0.81569900  0.20496400  0.62749800  1
  S  S6  1  0.20567100  0.28386000  0.37037300  1
  S  S7  1  0.82727700  0.72657000  0.63287400  1
  S  S8  1  0.30957800  0.96416000  0.63653600  1
  S  S9  1  0.67960000  0.01923900  0.37108300  1
  S  S10  1  0.29418900  0.46805600  0.62878000  1
  S  S11  1  0.67791000  0.54645200  0.36808200  1
  S  S12  1  0.39950900  0.09451800  0.11226200  1
  S  S13  1  0.59829200  0.90378300  0.88798800  1
  S  S14  1  0.40189400  0.59444600  0.11199900  1
  S  S15  1  0.59731000  0.40486300  0.89401700  1
loop_
_geom_bond_atom_site_label_1
_geom_bond_atom_site_label_2
_geom_bond_distance
_geom_bond_site_symmetry_2
Hf0 S9 2.395365 1_555
Hf0 S1 2.401433 1_555
Hf0 S11 2.410448 1_555
Hf0 S6 2.441346 1_655
Hf1 S3 2.506871 1_456
Hf1 S2 2.533290 1_565
Hf1 S0 2.546550 1_555
Hf1 S14 2.576466 1_556
Hf1 S13 2.592606 1_555
Hf1 S12 2.620328 1_566
Hf2 S2 2.503102 1_655
Hf2 S3 2.509923 1_546
Hf2 S13 2.573476 1_545
Hf2 S1 2.577366 1_556
Hf2 S15 2.587880 1_555
Hf2 S12 2.608026 1_556
Hf3 S15 2.407048 1_555
Hf3 S5 2.407820 1_555
Hf3 S10 2.409177 1_555
Hf3 S7 2.443130 1_555
Cr0 S8 2.211214 1_555
Cr0 S0 2.256090 1_555
Cr0 S10 2.289808 1_555
Cr0 S7 2.341492 1_455
Cr1 S4 2.224736 1_555
Cr1 S14 2.250659 1_555
Cr1 S11 2.303809 1_555
Cr1 S6 2.320429 1_555
Cr2 S4 2.229246 1_545
Cr2 S9 2.300934 1_555
Cr2 S12 2.301910 1_555
Cr2 S6 2.333091 1_555
Cr3 S8 2.227099 1_555
Cr3 S13 2.316120 1_555
Cr3 S5 2.318593 1_565
Cr3 S7 2.333589 1_555
Cu0 S10 2.283364 1_555
Cu0 S8 2.290528 1_545
Cu0 S5 2.325063 1_455
Cu0 S2 2.330083 1_555
Cu1 S4 2.256771 1_655
Cu1 S11 2.293939 1_555
Cu1 S9 2.302771 1_565
Cu1 S3 2.315523 1_555
Cu2 S15 2.484656 1_555
Cu2 S0 2.484934 1_555
Cu2 S1 2.545765 1_456
Cu2 S14 2.548535 1_556
Cu2 S2 2.573834 1_555
Cu2 S12 2.631232 1_556
Cu3 S3 2.481848 1_555
Cu3 S14 2.526520 1_555
Cu3 S13 2.527433 1_554
Cu3 S1 2.534611 1_555
Cu3 S0 2.557891 1_654
Cu3 S15 2.609417 1_554
