# generated using pymatgen
data_ZnS
_symmetry_space_group_name_H-M   'P 1'
_cell_length_a   13.64352631
_cell_length_b   14.04516078
_cell_length_c   13.21301452
_cell_angle_alpha   100.99454907
_cell_angle_beta   92.97013289
_cell_angle_gamma   92.67292618
_symmetry_Int_Tables_number   1
_chemical_formula_structural   ZnS
_chemical_formula_sum   'Zn50 S50'
_cell_volume   2478.01063485
_cell_formula_units_Z   50
loop_
 _symmetry_equiv_pos_site_id
 _symmetry_equiv_pos_as_xyz
  1  'x, y, z'
loop_
 _atom_site_type_symbol
 _atom_site_label
 _atom_site_symmetry_multiplicity
 _atom_site_fract_x
 _atom_site_fract_y
 _atom_site_fract_z
 _atom_site_occupancy
  Zn  Zn0  1  0.43927770  0.87595863  0.30200787  1
  Zn  Zn1  1  0.18436883  0.64785780  0.60664426  1
  Zn  Zn2  1  0.36028941  0.79865701  0.65896768  1
  Zn  Zn3  1  0.96859511  0.28240916  0.53079870  1
  Zn  Zn4  1  0.35017954  0.52814501  0.74561733  1
  Zn  Zn5  1  0.35795481  0.10790933  0.73779764  1
  Zn  Zn6  1  0.64424122  0.07351537  0.32372617  1
  Zn  Zn7  1  0.54722279  0.72968569  0.50669890  1
  Zn  Zn8  1  0.07928135  0.52794127  0.86852526  1
  Zn  Zn9  1  0.60903915  0.44579549  0.73432763  1
  Zn  Zn10  1  0.87798030  0.79940339  0.29606352  1
  Zn  Zn11  1  0.72660002  0.84944592  0.36713721  1
  Zn  Zn12  1  0.31318321  0.82580161  0.07663207  1
  Zn  Zn13  1  0.72920865  0.07386456  0.99441769  1
  Zn  Zn14  1  0.10624092  0.19347429  0.05883408  1
  Zn  Zn15  1  0.03870222  0.70889909  0.71130802  1
  Zn  Zn16  1  0.12278523  0.29969509  0.81164324  1
  Zn  Zn17  1  0.71306877  0.22643097  0.20550856  1
  Zn  Zn18  1  0.86020714  0.36488618  0.82385469  1
  Zn  Zn19  1  0.55580699  0.01459086  0.58058520  1
  Zn  Zn20  1  0.77230864  0.70088985  0.60868499  1
  Zn  Zn21  1  0.42341283  0.49451826  0.44201972  1
  Zn  Zn22  1  0.59772605  0.63797611  0.88391414  1
  Zn  Zn23  1  0.53241358  0.85047228  0.81563424  1
  Zn  Zn24  1  0.73321763  0.18242527  0.60352676  1
  Zn  Zn25  1  0.60931846  0.33304445  0.45120989  1
  Zn  Zn26  1  0.51377515  0.38368015  0.25679740  1
  Zn  Zn27  1  0.96097247  0.17389634  0.92036789  1
  Zn  Zn28  1  0.03021551  0.66726395  0.49472516  1
  Zn  Zn29  1  0.93260202  0.08718535  0.60821747  1
  Zn  Zn30  1  0.30128585  0.05971114  0.45446124  1
  Zn  Zn31  1  0.21607504  0.79245648  0.90347119  1
  Zn  Zn32  1  0.96052890  0.91976852  0.59724479  1
  Zn  Zn33  1  0.24336183  0.22722851  0.27644443  1
  Zn  Zn34  1  0.37520828  0.62438980  0.18740629  1
  Zn  Zn35  1  0.20732570  0.44109050  0.21970050  1
  Zn  Zn36  1  0.51190373  0.26427798  0.02580514  1
  Zn  Zn37  1  0.11614561  0.87148434  0.31271628  1
  Zn  Zn38  1  0.92755767  0.89524194  0.88952686  1
  Zn  Zn39  1  0.94170434  0.45624432  0.59252026  1
  Zn  Zn40  1  0.11880515  0.39555966  0.58958259  1
  Zn  Zn41  1  0.12512752  0.08649020  0.88977557  1
  Zn  Zn42  1  0.17633267  0.94398057  0.06375162  1
  Zn  Zn43  1  0.06120788  0.62457802  0.21835733  1
  Zn  Zn44  1  0.96229654  0.78385185  0.04069538  1
  Zn  Zn45  1  0.78746794  0.84939227  0.99536539  1
  Zn  Zn46  1  0.94069627  0.35471485  0.17400678  1
  Zn  Zn47  1  0.36204205  0.16624298  -0.00004362  1
  Zn  Zn48  1  0.88700001  0.49056382  0.36708679  1
  Zn  Zn49  1  0.79524657  0.59183357  0.80942691  1
  S  S0  1  0.06824425  0.69522780  0.89706847  1
  S  S1  1  0.66670602  0.32964717  0.60988901  1
  S  S2  1  0.23750449  0.18464692  0.83225322  1
  S  S3  1  0.01732972  0.81769347  0.43406782  1
  S  S4  1  0.92610429  0.50168423  0.76883262  1
  S  S5  1  0.24886185  0.11207698  0.11314046  1
  S  S6  1  0.36413367  0.89543077  0.83283384  1
  S  S7  1  0.58180329  0.94855489  0.39378831  1
  S  S8  1  0.90482730  0.80723941  0.70486545  1
  S  S9  1  0.85009127  0.03978413  0.88571418  1
  S  S10  1  0.56996384  0.42343193  0.11158663  1
  S  S11  1  0.17348141  0.14654642  0.40070929  1
  S  S12  1  0.29316055  0.68577997  0.75769319  1
  S  S13  1  0.66724091  0.61762930  0.70508816  1
  S  S14  1  0.58303472  0.47954740  0.40804729  1
  S  S15  1  0.10214236  0.92614235  0.88608460  1
  S  S16  1  0.80116361  0.38184865  0.24919644  1
  S  S17  1  0.70771708  0.41566002  0.88259468  1
  S  S18  1  0.08248650  0.40172565  0.97365535  1
  S  S19  1  0.87828834  0.58136004  0.52659692  1
  S  S20  1  0.13420351  0.22193097  0.54542644  1
  S  S21  1  0.68128855  0.22631073  0.03212882  1
  S  S22  1  0.34297632  0.44624878  0.57180238  1
  S  S23  1  0.95981410  0.23314017  0.75453617  1
  S  S24  1  0.18881460  0.43988385  0.76050246  1
  S  S25  1  0.73762574  0.56043719  0.96242613  1
  S  S26  1  0.70343382  0.97145833  0.11253680  1
  S  S27  1  0.57223223  0.21588714  0.30485792  1
  S  S28  1  0.05122833  0.91151418  0.16400549  1
  S  S29  1  0.78555384  0.07241229  0.23287731  1
  S  S30  1  0.69673494  0.71825621  0.45289581  1
  S  S31  1  0.92341450  0.68094334  0.15646109  1
  S  S32  1  0.41697681  0.10985367  0.58319323  1
  S  S33  1  0.48591785  0.50455133  0.83970118  1
  S  S34  1  0.21238062  0.57939678  0.15482908  1
  S  S35  1  0.28444622  0.92414961  0.33189672  1
  S  S36  1  0.51820570  0.56357637  0.13166553  1
  S  S37  1  0.28063658  0.73902710  0.49542570  1
  S  S38  1  0.05023766  0.53846094  0.34948282  1
  S  S39  1  0.21233843  0.49036755  0.50466533  1
  S  S40  1  0.61390758  0.80327707  0.94657813  1
  S  S41  1  0.51984662  0.85400804  0.64030277  1
  S  S42  1  0.85321718  0.16188351  0.48110681  1
  S  S43  1  0.44545133  0.77096451  0.15133499  1
  S  S44  1  0.43002803  0.04101665  0.87178956  1
  S  S45  1  0.34129991  0.37103230  0.28778536  1
  S  S46  1  0.93914501  0.35350820  0.99523753  1
  S  S47  1  0.69698246  0.05725031  0.67489665  1
  S  S48  1  0.39684265  0.66269831  0.42167916  1
  S  S49  1  0.09389214  0.30597699  0.20974156  1
loop_
_geom_bond_atom_site_label_1
_geom_bond_atom_site_label_2
_geom_bond_distance
_geom_bond_site_symmetry_2
Zn36 Zn47 2.383020 1_555
S0 Zn8 2.320833 1_555
S0 Zn31 2.370945 1_555
S0 Zn15 2.511601 1_555
S0 Zn44 2.606024 1_456
S1 Zn25 2.209682 1_555
S1 Zn9 2.283493 1_555
S1 Zn24 2.285336 1_555
S2 Zn41 2.269873 1_555
S2 Zn5 2.298820 1_555
S2 Zn16 2.344041 1_555
S2 Zn47 2.780859 1_556
S3 Zn37 2.355940 1_555
S3 Zn28 2.408972 1_555
S3 Zn32 2.530276 1_455
S3 Zn10 2.534188 1_455
S4 Zn49 2.264820 1_555
S4 Zn39 2.318767 1_555
S4 Zn18 2.338348 1_555
S4 Zn8 2.386681 1_655
S5 Zn47 2.400729 1_555
S5 Zn33 2.444216 1_555
S5 Zn14 2.446202 1_555
S5 Zn42 2.471158 1_545
S6 Zn23 2.419965 1_555
S6 Zn2 2.432612 1_555
S6 Zn31 2.735180 1_555
S7 Zn6 2.285829 1_565
S7 Zn0 2.321769 1_555
S7 Zn11 2.471038 1_555
S7 Zn19 2.515160 1_565
S8 Zn15 2.348448 1_655
S8 Zn20 2.429207 1_555
S8 Zn32 2.440240 1_555
S8 Zn38 2.512507 1_555
S9 Zn13 2.251452 1_555
S9 Zn27 2.319433 1_555
S9 Zn38 2.339787 1_545
S10 S36 2.096027 1_555
S10 Zn26 2.258722 1_555
S10 Zn36 2.384182 1_555
S11 S20 2.109836 1_555
S11 Zn30 2.330835 1_555
S11 Zn33 2.379109 1_555
S12 Zn4 2.360348 1_555
S12 Zn1 2.384095 1_555
S12 Zn2 2.414761 1_555
S12 Zn31 2.513406 1_555
S13 Zn49 2.254327 1_555
S13 Zn20 2.376125 1_555
S13 Zn22 2.562051 1_555
S13 Zn9 2.610206 1_555
S14 Zn21 2.257555 1_555
S14 Zn25 2.276629 1_555
S14 Zn26 2.314956 1_555
S15 Zn41 2.250195 1_565
S15 Zn38 2.405505 1_455
S15 Zn42 2.470618 1_556
S15 Zn31 2.528704 1_555
S16 Zn48 2.205976 1_555
S16 Zn46 2.208083 1_555
S16 Zn17 2.396980 1_555
S17 S25 2.115140 1_555
S17 Zn18 2.352450 1_555
S17 Zn9 2.434277 1_555
S18 S46 2.091070 1_455
S18 Zn16 2.442071 1_555
S18 Zn8 2.452386 1_555
S19 Zn48 2.257724 1_555
S19 Zn39 2.289732 1_555
S19 Zn20 2.404156 1_555
S19 Zn28 2.445540 1_655
S20 Zn40 2.418533 1_555
S20 Zn3 2.461811 1_455
S21 Zn13 2.239991 1_554
S21 Zn17 2.309027 1_555
S21 Zn36 2.396668 1_555
S22 S39 2.120502 1_555
S22 Zn21 2.274570 1_555
S22 Zn4 2.359159 1_555
S23 Zn16 2.397989 1_655
S23 Zn18 2.413873 1_555
S23 Zn27 2.487323 1_555
S23 Zn29 2.533930 1_555
S24 Zn8 2.349516 1_555
S24 Zn16 2.355879 1_555
S24 Zn40 2.363232 1_555
S24 Zn4 2.511115 1_555
S25 Zn49 2.317686 1_555
S25 Zn22 2.514958 1_555
S26 S29 2.145072 1_565
S26 Zn13 2.343961 1_564
S26 Zn45 2.450623 1_554
S27 Zn25 2.304410 1_555
S27 Zn6 2.318170 1_555
S27 Zn17 2.397148 1_555
S27 Zn26 2.699435 1_555
S28 Zn37 2.291056 1_555
S28 Zn42 2.295244 1_555
S28 Zn44 2.412407 1_455
S29 Zn6 2.322476 1_555
S29 Zn17 2.499832 1_555
S30 Zn7 2.197618 1_555
S30 Zn20 2.314056 1_555
S30 Zn11 2.370510 1_555
S31 Zn43 2.248637 1_655
S31 Zn44 2.359255 1_555
S31 Zn10 2.366214 1_555
S32 Zn5 2.238726 1_555
S32 Zn30 2.245394 1_555
S32 Zn19 2.367419 1_555
S33 Zn4 2.249597 1_555
S33 Zn9 2.318337 1_555
S33 Zn22 2.324548 1_555
S34 Zn35 2.267515 1_555
S34 Zn34 2.277299 1_555
S34 Zn43 2.336583 1_555
S35 Zn30 2.246126 1_565
S35 Zn0 2.279117 1_555
S35 Zn37 2.365110 1_555
S36 Zn34 2.267758 1_555
S37 S48 2.128999 1_555
S37 Zn2 2.352298 1_555
S37 Zn1 2.507026 1_555
S38 Zn43 2.301401 1_555
S38 Zn48 2.332473 1_455
S38 Zn28 2.409649 1_555
S39 Zn40 2.284801 1_555
S39 Zn1 2.418518 1_555
S40 Zn23 2.230680 1_555
S40 Zn22 2.307489 1_555
S40 Zn45 2.445786 1_555
S41 Zn7 2.293077 1_555
S41 Zn2 2.318428 1_555
S41 Zn23 2.324280 1_555
S41 Zn19 2.562403 1_565
S42 Zn3 2.234965 1_555
S42 Zn24 2.349603 1_555
S42 Zn29 2.384144 1_555
S43 Zn0 2.248182 1_555
S43 Zn12 2.249240 1_555
S43 Zn34 2.370927 1_555
S44 S6 2.152543 1_545
S44 Zn5 2.350382 1_555
S44 Zn47 2.449598 1_556
S45 Zn35 2.335303 1_555
S45 Zn33 2.345082 1_555
S45 Zn26 2.413548 1_555
S45 Zn21 2.578802 1_555
S46 Zn46 2.357897 1_556
S46 Zn18 2.492926 1_555
S46 Zn27 2.565136 1_555
S47 Zn24 2.196412 1_555
S47 Zn19 2.231741 1_555
S48 Zn7 2.352584 1_555
S48 Zn21 2.468837 1_555
S49 Zn46 2.283556 1_455
S49 Zn14 2.314919 1_555
S49 Zn35 2.371379 1_555
S49 Zn33 2.560222 1_555
