# generated using pymatgen
data_Ho2MgAg2(WO4)4
_symmetry_space_group_name_H-M   'P 1'
_cell_length_a   7.55838869
_cell_length_b   7.67419420
_cell_length_c   7.67419420
_cell_angle_alpha   94.06933336
_cell_angle_beta   116.39372705
_cell_angle_gamma   116.39372705
_symmetry_Int_Tables_number   1
_chemical_formula_structural   Ho2MgAg2(WO4)4
_chemical_formula_sum   'Ho2 Mg1 Ag2 W4 O16'
_cell_volume   336.57005304
_cell_formula_units_Z   1
loop_
 _symmetry_equiv_pos_site_id
 _symmetry_equiv_pos_as_xyz
  1  'x, y, z'
loop_
 _atom_site_type_symbol
 _atom_site_label
 _atom_site_symmetry_multiplicity
 _atom_site_fract_x
 _atom_site_fract_y
 _atom_site_fract_z
 _atom_site_occupancy
  Ho  Ho0  1  0.01898700  0.73787800  0.26940200  1
  Ho  Ho1  1  0.01898700  0.26940200  0.73787800  1
  Mg  Mg0  1  0.62345600  0.27486400  0.27486400  1
  Ag  Ag0  1  0.55464500  0.72514600  0.72514600  1
  Ag  Ag1  1  0.47320600  0.43741000  0.43741000  1
  W  W0  1  0.98656800  0.22509000  0.22509000  1
  W  W1  1  0.02811100  0.77318300  0.77318300  1
  W  W2  1  0.50278400  0.82678100  0.15123900  1
  W  W3  1  0.50278400  0.15123900  0.82678100  1
  O  O0  1  0.76663200  0.36026900  0.10564600  1
  O  O1  1  0.23393400  0.63588100  0.88352200  1
  O  O2  1  0.23393400  0.88352200  0.63588100  1
  O  O3  1  0.76663200  0.10564600  0.36026900  1
  O  O4  1  0.66092700  0.69670100  0.20471300  1
  O  O5  1  0.35454700  0.29062100  0.77812400  1
  O  O6  1  0.35454700  0.77812400  0.29062100  1
  O  O7  1  0.66092700  0.20471300  0.69670100  1
  O  O8  1  0.90546000  0.69561900  0.94229800  1
  O  O9  1  0.11714900  0.30499900  0.05676200  1
  O  O10  1  0.11714900  0.05676200  0.30499900  1
  O  O11  1  0.90546000  0.94229800  0.69561900  1
  O  O12  1  0.66168300  0.98516400  0.98516400  1
  O  O13  1  0.36033200  0.01951700  0.01951700  1
  O  O14  1  0.82652000  0.52102300  0.52102300  1
  O  O15  1  0.17019400  0.45975400  0.45975400  1
loop_
_geom_bond_atom_site_label_1
_geom_bond_atom_site_label_2
_geom_bond_distance
_geom_bond_site_symmetry_2
Ho0 O10 2.173577 1_565
Ho0 O8 2.205642 1_454
Ho0 O6 2.341774 1_555
Ho0 O2 2.382341 1_555
Ho0 O4 2.386118 1_455
Ho0 O0 2.460234 1_455
Ho1 O9 2.173577 1_556
Ho1 O11 2.205642 1_445
Ho1 O5 2.341774 1_555
Ho1 O1 2.382341 1_555
Ho1 O7 2.386118 1_455
Ho1 O3 2.460234 1_455
Mg0 O14 1.957252 1_555
Mg0 O3 2.006668 1_555
Mg0 O0 2.006668 1_555
Mg0 O13 2.039711 1_555
Ag0 O12 2.276467 1_555
Ag0 O15 2.372280 1_555
Ag0 O11 2.553148 1_555
Ag0 O8 2.553148 1_555
Ag1 O14 2.202173 1_555
Ag1 O15 2.449151 1_555
Ag1 Mg0 2.588411 1_555
Ag1 O9 2.639385 1_555
Ag1 O10 2.639385 1_555
O0 W3 2.001085 1_554
O0 W0 2.234564 1_555
O1 W2 1.926347 1_556
O1 W1 2.158761 1_555
O2 W3 1.926347 1_565
O2 W1 2.158761 1_555
O3 W2 2.001085 1_545
O3 W0 2.234564 1_555
O4 W2 1.810133 1_555
O5 W3 1.813611 1_555
O6 W2 1.813611 1_555
O7 W3 1.810133 1_555
O8 W1 1.893879 1_655
O9 W0 1.930478 1_455
O10 W0 1.930478 1_455
O11 W1 1.893879 1_655
O12 W0 2.071116 1_566
O12 W2 2.197047 1_556
O12 W3 2.197047 1_565
O13 W1 2.122446 1_544
O13 W3 2.242607 1_554
O13 W2 2.242607 1_545
O14 W1 2.009140 1_655
O15 W0 1.872920 1_455
