# generated using pymatgen
data_MoPbO2
_symmetry_space_group_name_H-M   'P 1'
_cell_length_a   7.68134142
_cell_length_b   7.68134142
_cell_length_c   7.68134142
_cell_angle_alpha   127.93236092
_cell_angle_beta   127.93236092
_cell_angle_gamma   76.73462634
_symmetry_Int_Tables_number   1
_chemical_formula_structural   MoPbO2
_chemical_formula_sum   'Mo4 Pb4 O8'
_cell_volume   273.80917474
_cell_formula_units_Z   4
loop_
 _symmetry_equiv_pos_site_id
 _symmetry_equiv_pos_as_xyz
  1  'x, y, z'
loop_
 _atom_site_type_symbol
 _atom_site_label
 _atom_site_symmetry_multiplicity
 _atom_site_fract_x
 _atom_site_fract_y
 _atom_site_fract_z
 _atom_site_occupancy
  Mo  Mo0  1  0.37500000  0.12500000  0.25000000  1
  Mo  Mo1  1  0.87500000  0.12500000  0.75000000  1
  Mo  Mo2  1  0.87500000  0.12500000  0.25000000  1
  Mo  Mo3  1  0.87500000  0.62500000  0.75000000  1
  Pb  Pb0  1  0.87500000  0.62500000  0.25000000  1
  Pb  Pb1  1  0.37500000  0.62500000  0.75000000  1
  Pb  Pb2  1  0.37500000  0.62500000  0.25000000  1
  Pb  Pb3  1  0.37500000  0.12500000  0.75000000  1
  O  O0  1  0.15804600  0.36595800  0.20791200  1
  O  O1  1  0.15804600  0.95013400  0.79208800  1
  O  O2  1  0.11595800  0.40804600  0.70791200  1
  O  O3  1  0.59195400  0.88404200  0.29208800  1
  O  O4  1  0.70013400  0.40804600  0.29208800  1
  O  O5  1  0.59195400  0.29986600  0.70791200  1
  O  O6  1  0.63404200  0.84195400  0.79208800  1
  O  O7  1  0.04986600  0.84195400  0.20791200  1
loop_
_geom_bond_atom_site_label_1
_geom_bond_atom_site_label_2
_geom_bond_distance
_geom_bond_site_symmetry_2
Mo0 O1 2.228281 1_544
Mo0 O3 2.228281 1_545
Mo0 O5 2.228281 1_555
Mo0 O0 2.228281 1_555
Mo1 O0 2.228281 1_656
Mo1 O5 2.228281 1_555
Mo1 O3 2.228281 1_545
Mo1 O1 2.228281 1_645
Mo2 O2 2.228281 1_655
Mo2 O4 2.228281 1_555
Mo2 O7 2.228281 1_645
Mo2 O6 2.228281 1_544
Mo3 O7 2.228281 1_656
Mo3 O4 2.228281 1_555
Mo3 O2 2.228281 1_655
Mo3 O6 2.228281 1_555
O0 Pb0 2.622733 1_455
O0 Pb1 2.622733 1_555
O0 Pb2 2.628591 1_555
O1 Pb1 2.622733 1_555
O1 Pb0 2.622733 1_455
O1 Pb3 2.628591 1_565
O2 Pb3 2.622733 1_555
O2 Pb2 2.622733 1_556
O2 Pb1 2.628591 1_555
O3 Pb1 2.622733 1_554
O3 Pb0 2.622733 1_555
O3 Pb2 2.628591 1_555
O4 Pb3 2.622733 1_554
O4 Pb2 2.622733 1_555
O4 Pb0 2.628591 1_555
O5 Pb0 2.622733 1_556
O5 Pb1 2.622733 1_555
O5 Pb3 2.628591 1_555
O6 Pb3 2.622733 1_565
O6 Pb2 2.622733 1_555
O6 Pb1 2.628591 1_555
O7 Pb2 2.622733 1_555
O7 Pb3 2.622733 1_565
O7 Pb0 2.628591 1_455
