# generated using pymatgen
data_NbVCo6
_symmetry_space_group_name_H-M   'P 1'
_cell_length_a   12.68149758
_cell_length_b   12.68149758
_cell_length_c   12.68149734
_cell_angle_alpha   23.22767244
_cell_angle_beta   23.22767244
_cell_angle_gamma   23.22767271
_symmetry_Int_Tables_number   1
_chemical_formula_structural   NbVCo6
_chemical_formula_sum   'Nb3 V3 Co18'
_cell_volume   278.47703120
_cell_formula_units_Z   3
loop_
 _symmetry_equiv_pos_site_id
 _symmetry_equiv_pos_as_xyz
  1  'x, y, z'
loop_
 _atom_site_type_symbol
 _atom_site_label
 _atom_site_symmetry_multiplicity
 _atom_site_fract_x
 _atom_site_fract_y
 _atom_site_fract_z
 _atom_site_occupancy
  Nb  Nb0  1  0.60946300  0.60946300  0.60946300  1
  Nb  Nb1  1  0.10849300  0.10849300  0.10849300  1
  Nb  Nb2  1  0.89149400  0.89149400  0.89149400  1
  V  V0  1  0.39163200  0.39163200  0.39163200  1
  V  V1  1  0.99989600  0.99989600  0.99989600  1
  V  V2  1  0.49965900  0.49965900  0.49965900  1
  Co  Co0  1  0.90033000  0.38080600  0.38080600  1
  Co  Co1  1  0.40055000  0.88099300  0.88099300  1
  Co  Co2  1  0.38080600  0.38080600  0.90033000  1
  Co  Co3  1  0.88099300  0.88099300  0.40055000  1
  Co  Co4  1  0.38080600  0.90033000  0.38080600  1
  Co  Co5  1  0.88099300  0.40055000  0.88099300  1
  Co  Co6  1  0.59882000  0.12019800  0.12019800  1
  Co  Co7  1  0.10194800  0.61554400  0.61554400  1
  Co  Co8  1  0.12019800  0.12019800  0.59882000  1
  Co  Co9  1  0.61554400  0.61554400  0.10194800  1
  Co  Co10  1  0.12019800  0.59882000  0.12019800  1
  Co  Co11  1  0.61554400  0.10194800  0.61554400  1
  Co  Co12  1  0.99818900  0.99818900  0.50177500  1
  Co  Co13  1  0.49871400  0.49871400  0.00705300  1
  Co  Co14  1  0.49871400  0.00705300  0.49871400  1
  Co  Co15  1  0.99818900  0.50177500  0.99818900  1
  Co  Co16  1  0.00705300  0.49871400  0.49871400  1
  Co  Co17  1  0.50177500  0.99818900  0.99818900  1
loop_
_geom_bond_atom_site_label_1
_geom_bond_atom_site_label_2
_geom_bond_distance
_geom_bond_site_symmetry_2
Co0 Co2 2.453281 1_654
Co0 Co4 2.453281 1_645
Co0 Co15 2.487670 1_554
Co0 Co12 2.487670 1_545
Co0 V2 2.527002 1_555
Co0 Nb2 2.558297 1_545
Co0 Nb2 2.558297 1_554
Co0 Nb0 2.561296 1_555
Co0 Co8 2.603716 1_655
Co0 Co10 2.603716 1_655
Co0 Co2 2.652657 1_555
Co0 Co4 2.652657 1_555
Co1 Co14 2.435072 1_565
Co1 Co13 2.435072 1_556
Co1 Co3 2.453112 1_555
Co1 Co5 2.453112 1_555
Co1 V1 2.525914 1_455
Co1 Nb1 2.526846 1_566
Co1 Co9 2.540389 1_556
Co1 Co11 2.540390 1_565
Co1 V0 2.558166 1_556
Co1 V0 2.558166 1_565
Co1 Co3 2.652826 1_456
Co1 Co5 2.652826 1_465
Co2 Co4 2.453281 1_546
Co2 V2 2.527002 1_555
Co2 Nb2 2.558297 1_455
Co2 Nb2 2.558297 1_545
Co2 Nb0 2.561296 1_555
Co2 Co6 2.603716 1_556
Co2 Co4 2.652657 1_555
Co3 Co5 2.453112 1_555
Co3 V1 2.525914 1_554
Co3 Nb1 2.526846 1_665
Co3 Co7 2.540389 1_655
Co3 V0 2.558166 1_565
Co3 V0 2.558166 1_655
Co3 Co5 2.652826 1_564
Co4 V2 2.527002 1_555
Co4 Nb2 2.558297 1_455
Co4 Nb2 2.558297 1_554
Co4 Nb0 2.561296 1_555
Co4 Co8 2.603716 1_565
Co4 Co6 2.603716 1_565
Co5 V1 2.525914 1_545
Co5 Nb1 2.526846 1_656
Co5 Co9 2.540389 1_556
Co5 Co7 2.540390 1_655
Co5 V0 2.558166 1_556
Co5 V0 2.558166 1_655
Co6 Co8 2.443814 1_555
Co6 V1 2.505962 1_544
Co6 Nb2 2.547686 1_544
Co6 Nb0 2.557236 1_554
Co6 Nb0 2.557236 1_545
Co6 Co8 2.662124 1_654
Co7 V0 2.469174 1_555
Co7 Co9 2.483549 1_456
Co7 V2 2.545865 1_555
Co7 Nb1 2.554984 1_565
Co7 Nb1 2.554984 1_556
Co7 Co9 2.622389 1_555
Co8 V1 2.505962 1_445
Co8 Nb2 2.547686 1_445
Co8 Nb0 2.557236 1_455
Co8 Nb0 2.557236 1_545
Co9 V0 2.469174 1_555
Co9 V2 2.545865 1_555
Co9 Nb1 2.554984 1_655
Co9 Nb1 2.554984 1_565
Co10 Co8 2.443814 1_555
Co10 Co6 2.443814 1_555
Co10 Co16 2.490283 1_555
Co10 Co13 2.490284 1_555
Co10 V1 2.505962 1_454
Co10 Nb2 2.547686 1_454
Co10 Nb0 2.557236 1_554
Co10 Nb0 2.557236 1_455
Co10 Co2 2.603716 1_554
Co10 Co8 2.662124 1_564
Co10 Co6 2.662124 1_465
Co11 V0 2.469174 1_555
Co11 Co9 2.483549 1_546
Co11 Co7 2.483549 1_645
Co11 Co17 2.499361 1_545
Co11 Co12 2.499361 1_545
Co11 Co3 2.540389 1_545
Co11 V2 2.545865 1_555
Co11 Nb1 2.554984 1_655
Co11 Nb1 2.554984 1_556
Co11 Co9 2.622389 1_555
Co11 Co7 2.622389 1_555
Co12 Co4 2.487670 1_655
Co12 Co7 2.499361 1_655
Co12 Co17 2.534659 1_555
Co12 Co15 2.534659 1_555
Co12 V2 2.553011 1_565
Co12 V2 2.553011 1_655
Co12 Co15 2.571279 1_564
Co12 Co17 2.571279 1_654
Co12 Nb1 2.596110 1_665
Co12 Nb2 2.621358 1_555
Co13 Co5 2.435072 1_554
Co13 Co6 2.490284 1_555
Co13 Co16 2.510391 1_555
Co13 Co14 2.510391 1_555
Co13 V0 2.553182 1_555
Co13 V1 2.553772 1_544
Co13 V1 2.553772 1_454
Co13 Co16 2.595547 1_654
Co13 Co14 2.595547 1_564
Co13 Nb0 2.638737 1_554
Co14 Co3 2.435072 1_545
Co14 Co6 2.490283 1_555
Co14 Co8 2.490284 1_555
Co14 Co16 2.510391 1_555
Co14 V0 2.553183 1_555
Co14 V1 2.553772 1_544
Co14 V1 2.553772 1_445
Co14 Co16 2.595547 1_645
Co14 Nb0 2.638737 1_545
Co15 Co2 2.487670 1_655
Co15 Co7 2.499361 1_655
Co15 Co9 2.499361 1_556
Co15 Co17 2.534659 1_555
Co15 V2 2.553011 1_556
Co15 V2 2.553011 1_655
Co15 Co17 2.571279 1_645
Co15 Nb1 2.596110 1_656
Co15 Nb2 2.621358 1_555
Co16 Co5 2.435072 1_455
Co16 Co3 2.435072 1_455
Co16 Co8 2.490284 1_555
Co16 V0 2.553183 1_555
Co16 V1 2.553772 1_454
Co16 V1 2.553772 1_445
Co16 Nb0 2.638737 1_455
Co17 Co4 2.487670 1_556
Co17 Co2 2.487670 1_565
Co17 Co9 2.499361 1_556
Co17 V2 2.553011 1_556
Co17 V2 2.553011 1_565
Co17 Nb1 2.596110 1_566
Co17 Nb2 2.621358 1_555
