# generated using pymatgen
data_NaSr2NdTi4O12
_symmetry_space_group_name_H-M   'P 1'
_cell_length_a   5.51865000
_cell_length_b   5.51865000
_cell_length_c   7.87539700
_cell_angle_alpha   90.00000000
_cell_angle_beta   90.00000000
_cell_angle_gamma   90.00000000
_symmetry_Int_Tables_number   1
_chemical_formula_structural   NaSr2NdTi4O12
_chemical_formula_sum   'Na1 Sr2 Nd1 Ti4 O12'
_cell_volume   239.84913618
_cell_formula_units_Z   1
loop_
 _symmetry_equiv_pos_site_id
 _symmetry_equiv_pos_as_xyz
  1  'x, y, z'
loop_
 _atom_site_type_symbol
 _atom_site_label
 _atom_site_symmetry_multiplicity
 _atom_site_fract_x
 _atom_site_fract_y
 _atom_site_fract_z
 _atom_site_occupancy
  Na  Na0  1  0.50000000  0.50000000  0.00000000  1
  Sr  Sr0  1  0.00000000  0.00000000  0.50000000  1
  Sr  Sr1  1  0.50000000  0.50000000  0.50000000  1
  Nd  Nd0  1  0.00000000  0.00000000  0.00000000  1
  Ti  Ti0  1  0.50000000  0.00000000  0.75380600  1
  Ti  Ti1  1  0.00000000  0.50000000  0.24619400  1
  Ti  Ti2  1  0.50000000  0.00000000  0.24619400  1
  Ti  Ti3  1  0.00000000  0.50000000  0.75380600  1
  O  O0  1  0.27877200  0.72122800  0.24890000  1
  O  O1  1  0.79049500  0.20950500  0.76074900  1
  O  O2  1  0.20950500  0.79049500  0.76074900  1
  O  O3  1  0.72122800  0.27877200  0.24890000  1
  O  O4  1  0.20950500  0.20950500  0.23925100  1
  O  O5  1  0.72122800  0.72122800  0.75110000  1
  O  O6  1  0.79049500  0.79049500  0.23925100  1
  O  O7  1  0.27877200  0.27877200  0.75110000  1
  O  O8  1  0.00000000  0.50000000  0.00000000  1
  O  O9  1  0.50000000  0.00000000  0.50000000  1
  O  O10  1  0.50000000  0.00000000  0.00000000  1
  O  O11  1  0.00000000  0.50000000  0.50000000  1
loop_
_geom_bond_atom_site_label_1
_geom_bond_atom_site_label_2
_geom_bond_distance
_geom_bond_site_symmetry_2
Na0 O5 2.612169 1_554
Na0 O0 2.612169 1_555
Na0 O3 2.612169 1_555
Na0 O7 2.612169 1_554
Na0 O10 2.759325 1_555
Na0 O8 2.759325 1_655
Na0 O10 2.759325 1_565
Na0 O8 2.759325 1_555
Na0 O6 2.947934 1_555
Na0 O2 2.947934 1_554
Na0 O1 2.947934 1_554
Na0 O4 2.947934 1_555
Nd0 O2 2.494739 1_544
Nd0 O4 2.494739 1_555
Nd0 O1 2.494739 1_454
Nd0 O6 2.494739 1_445
Nd0 O10 2.759325 1_555
Nd0 O10 2.759325 1_455
Nd0 O8 2.759325 1_545
Nd0 O8 2.759325 1_555
Nd0 O7 2.928473 1_554
Nd0 O0 2.928473 1_545
Nd0 O3 2.928473 1_455
Nd0 O5 2.928473 1_444
O0 Ti1 1.964132 1_555
O0 Ti2 1.964132 1_565
O0 Sr1 2.625195 1_555
O0 Sr0 2.940099 1_565
O1 Ti0 1.977324 1_555
O1 Ti3 1.977324 1_655
O1 Sr0 2.624956 1_655
O1 Sr1 3.058919 1_555
O2 Ti3 1.977324 1_555
O2 Ti0 1.977324 1_565
O2 Sr0 2.624956 1_565
O2 Sr1 3.058919 1_555
O3 Ti2 1.964132 1_555
O3 Ti1 1.964132 1_655
O3 Sr1 2.625195 1_555
O3 Sr0 2.940099 1_655
O4 Ti1 1.977324 1_555
O4 Ti2 1.977324 1_555
O4 Sr0 2.624956 1_555
O4 Sr1 3.058919 1_555
O5 Ti0 1.964132 1_565
O5 Ti3 1.964132 1_655
O5 Sr1 2.625195 1_555
O5 Sr0 2.940099 1_665
O6 Ti2 1.977324 1_565
O6 Ti1 1.977324 1_655
O6 Sr0 2.624956 1_665
O6 Sr1 3.058919 1_555
O7 Ti3 1.964132 1_555
O7 Ti0 1.964132 1_555
O7 Sr1 2.625195 1_555
O7 Sr0 2.940099 1_555
O8 Ti1 1.938875 1_555
O8 Ti3 1.938875 1_554
O9 Ti0 1.998823 1_555
O9 Ti2 1.998823 1_555
O9 Sr1 2.759325 1_545
O9 Sr0 2.759325 1_655
O9 Sr0 2.759325 1_555
O9 Sr1 2.759325 1_555
O10 Ti2 1.938875 1_555
O10 Ti0 1.938875 1_554
O11 Ti1 1.998823 1_555
O11 Ti3 1.998823 1_555
O11 Sr0 2.759325 1_555
O11 Sr1 2.759325 1_455
O11 Sr0 2.759325 1_565
O11 Sr1 2.759325 1_555
