# generated using pymatgen
data_Mg3U
_symmetry_space_group_name_H-M   'P 1'
_cell_length_a   5.17336292
_cell_length_b   5.17336292
_cell_length_c   5.17336292
_cell_angle_alpha   60.00000000
_cell_angle_beta   60.00000000
_cell_angle_gamma   60.00000000
_symmetry_Int_Tables_number   1
_chemical_formula_structural   Mg3U
_chemical_formula_sum   'Mg3 U1'
_cell_volume   97.90476723
_cell_formula_units_Z   1
loop_
 _symmetry_equiv_pos_site_id
 _symmetry_equiv_pos_as_xyz
  1  'x, y, z'
loop_
 _atom_site_type_symbol
 _atom_site_label
 _atom_site_symmetry_multiplicity
 _atom_site_fract_x
 _atom_site_fract_y
 _atom_site_fract_z
 _atom_site_occupancy
  Mg  Mg0  1  0.50000000  0.50000000  0.50000000  1
  Mg  Mg1  1  0.75000000  0.75000000  0.75000000  1
  Mg  Mg2  1  0.25000000  0.25000000  0.25000000  1
  U  U0  1  0.00000000  0.00000000  0.00000000  1
loop_
_geom_bond_atom_site_label_1
_geom_bond_atom_site_label_2
_geom_bond_distance
_geom_bond_site_symmetry_2
Mg0 Mg1 3.168025 1_545
Mg0 Mg1 3.168025 1_555
Mg0 Mg2 3.168025 1_555
Mg0 Mg2 3.168025 1_565
Mg0 Mg1 3.168025 1_554
Mg0 Mg2 3.168025 1_655
Mg0 Mg1 3.168025 1_455
Mg0 Mg2 3.168025 1_556
Mg1 U0 3.168025 1_656
Mg1 U0 3.168025 1_566
Mg1 U0 3.168025 1_666
Mg1 U0 3.168025 1_665
Mg2 U0 3.168025 1_555
Mg2 U0 3.168025 1_556
Mg2 U0 3.168025 1_565
Mg2 U0 3.168025 1_655
