# generated using pymatgen
data_DyHg2
_symmetry_space_group_name_H-M   'P 1'
_cell_length_a   6.89416800
_cell_length_b   10.71133506
_cell_length_c   10.71133506
_cell_angle_alpha   119.99999420
_cell_angle_beta   90.00000000
_cell_angle_gamma   90.00000000
_symmetry_Int_Tables_number   1
_chemical_formula_structural   DyHg2
_chemical_formula_sum   'Dy8 Hg16'
_cell_volume   685.01444354
_cell_formula_units_Z   8
loop_
 _symmetry_equiv_pos_site_id
 _symmetry_equiv_pos_as_xyz
  1  'x, y, z'
loop_
 _atom_site_type_symbol
 _atom_site_label
 _atom_site_symmetry_multiplicity
 _atom_site_fract_x
 _atom_site_fract_y
 _atom_site_fract_z
 _atom_site_occupancy
  Dy  Dy0_0  1  0.00000000  0.00000000  0.00000000  1
  Dy  Dy0_1  1  0.00000000  0.00000000  0.50000000  1
  Dy  Dy0_2  1  0.00000000  0.50000000  0.00000000  1
  Dy  Dy0_3  1  0.00000000  0.50000000  0.50000000  1
  Dy  Dy0_4  1  0.50000000  0.00000000  0.00000000  1
  Dy  Dy0_5  1  0.50000000  0.00000000  0.50000000  1
  Dy  Dy0_6  1  0.50000000  0.50000000  0.00000000  1
  Dy  Dy0_7  1  0.50000000  0.50000000  0.50000000  1
  Hg  Hg0_0  1  0.03974400  0.16666650  0.33333350  1
  Hg  Hg0_1  1  0.03974400  0.16666650  0.83333350  1
  Hg  Hg0_2  1  0.03974400  0.66666650  0.33333350  1
  Hg  Hg0_3  1  0.03974400  0.66666650  0.83333350  1
  Hg  Hg0_4  1  0.53974400  0.16666650  0.33333350  1
  Hg  Hg0_5  1  0.53974400  0.16666650  0.83333350  1
  Hg  Hg0_6  1  0.53974400  0.66666650  0.33333350  1
  Hg  Hg0_7  1  0.53974400  0.66666650  0.83333350  1
  Hg  Hg1_0  1  0.46025600  0.33333350  0.16666650  1
  Hg  Hg1_1  1  0.46025600  0.33333350  0.66666650  1
  Hg  Hg1_2  1  0.46025600  0.83333350  0.16666650  1
  Hg  Hg1_3  1  0.46025600  0.83333350  0.66666650  1
  Hg  Hg1_4  1  0.96025600  0.33333350  0.16666650  1
  Hg  Hg1_5  1  0.96025600  0.33333350  0.66666650  1
  Hg  Hg1_6  1  0.96025600  0.83333350  0.16666650  1
  Hg  Hg1_7  1  0.96025600  0.83333350  0.66666650  1
loop_
_geom_bond_atom_site_label_1
_geom_bond_atom_site_label_2
_geom_bond_distance
_geom_bond_site_symmetry_2
Dy0_0 Hg1_6 3.104209 1_445
Dy0_0 Hg0_1 3.104209 1_554
Dy0_0 Hg1_4 3.104214 1_455
Dy0_0 Hg0_0 3.104214 1_555
Dy0_0 Hg1_7 3.104214 1_444
Dy0_0 Hg0_3 3.104214 1_544
Dy0_0 Dy0_4 3.447084 1_455
Dy0_0 Dy0_4 3.447084 1_555
Dy0_1 Hg0_0 3.104209 1_555
Dy0_1 Hg1_7 3.104209 1_445
Dy0_1 Hg1_6 3.104214 1_445
Dy0_1 Hg1_5 3.104214 1_455
Dy0_1 Hg0_2 3.104214 1_545
Dy0_1 Hg0_1 3.104214 1_555
Dy0_1 Dy0_5 3.447084 1_455
Dy0_1 Dy0_5 3.447084 1_555
Dy0_2 Hg0_3 3.104209 1_554
Dy0_2 Hg1_4 3.104209 1_455
Dy0_2 Hg0_1 3.104214 1_554
Dy0_2 Hg1_5 3.104214 1_454
Dy0_2 Hg1_6 3.104214 1_455
Dy0_2 Hg0_2 3.104214 1_555
Dy0_2 Dy0_6 3.447084 1_555
Dy0_2 Dy0_6 3.447084 1_455
Dy0_3 Hg0_2 3.104209 1_555
Dy0_3 Hg1_5 3.104209 1_455
Dy0_3 Hg1_7 3.104214 1_455
Dy0_3 Hg0_3 3.104214 1_555
Dy0_3 Hg1_4 3.104214 1_455
Dy0_3 Hg0_0 3.104214 1_555
Dy0_3 Dy0_7 3.447084 1_555
Dy0_3 Dy0_7 3.447084 1_455
Dy0_4 Hg0_5 3.104209 1_554
Dy0_4 Hg1_2 3.104209 1_545
Dy0_4 Hg1_0 3.104214 1_555
Dy0_4 Hg0_4 3.104214 1_555
Dy0_4 Hg1_3 3.104214 1_544
Dy0_4 Hg0_7 3.104214 1_544
Dy0_5 Hg0_4 3.104209 1_555
Dy0_5 Hg1_3 3.104209 1_545
Dy0_5 Hg0_5 3.104214 1_555
Dy0_5 Hg1_2 3.104214 1_545
Dy0_5 Hg1_1 3.104214 1_555
Dy0_5 Hg0_6 3.104214 1_545
Dy0_6 Hg0_7 3.104209 1_554
Dy0_6 Hg1_0 3.104209 1_555
Dy0_6 Hg1_1 3.104214 1_554
Dy0_6 Hg0_5 3.104214 1_554
Dy0_6 Hg1_2 3.104214 1_555
Dy0_6 Hg0_6 3.104214 1_555
Dy0_7 Hg1_1 3.104209 1_555
Dy0_7 Hg0_6 3.104209 1_555
Dy0_7 Hg1_3 3.104214 1_555
Dy0_7 Hg0_7 3.104214 1_555
Dy0_7 Hg1_0 3.104214 1_555
Dy0_7 Hg0_4 3.104214 1_555
Hg0_0 Hg1_6 3.140278 1_445
Hg0_0 Hg1_5 3.140278 1_455
Hg0_0 Hg1_4 3.140287 1_455
Hg0_1 Hg1_4 3.140278 1_456
Hg0_1 Hg1_7 3.140278 1_445
Hg0_1 Hg1_5 3.140287 1_455
Hg0_2 Hg1_7 3.140278 1_455
Hg0_2 Hg1_4 3.140278 1_455
Hg0_2 Hg1_6 3.140287 1_455
Hg0_3 Hg1_5 3.140278 1_455
Hg0_3 Hg1_6 3.140278 1_456
Hg0_3 Hg1_7 3.140287 1_455
Hg0_4 Hg1_2 3.140278 1_545
Hg0_4 Hg1_1 3.140278 1_555
Hg0_4 Hg1_0 3.140287 1_555
Hg0_5 Hg1_0 3.140278 1_556
Hg0_5 Hg1_3 3.140278 1_545
Hg0_5 Hg1_1 3.140287 1_555
Hg0_6 Hg1_3 3.140278 1_555
Hg0_6 Hg1_0 3.140278 1_555
Hg0_6 Hg1_2 3.140287 1_555
Hg0_7 Hg1_1 3.140278 1_555
Hg0_7 Hg1_2 3.140278 1_556
Hg0_7 Hg1_3 3.140287 1_555
