# generated using pymatgen
data_SrAgTeF
_symmetry_space_group_name_H-M   'P 1'
_cell_length_a   4.39882000
_cell_length_b   4.39882000
_cell_length_c   9.73009800
_cell_angle_alpha   90.00000000
_cell_angle_beta   90.00000000
_cell_angle_gamma   90.00000000
_symmetry_Int_Tables_number   1
_chemical_formula_structural   SrAgTeF
_chemical_formula_sum   'Sr2 Ag2 Te2 F2'
_cell_volume   188.27367349
_cell_formula_units_Z   2
loop_
 _symmetry_equiv_pos_site_id
 _symmetry_equiv_pos_as_xyz
  1  'x, y, z'
loop_
 _atom_site_type_symbol
 _atom_site_label
 _atom_site_symmetry_multiplicity
 _atom_site_fract_x
 _atom_site_fract_y
 _atom_site_fract_z
 _atom_site_occupancy
  Sr  Sr0  1  0.00000000  0.50000000  0.86395500  1
  Sr  Sr1  1  0.50000000  0.00000000  0.13604500  1
  Ag  Ag0  1  0.50000000  0.50000000  0.50000000  1
  Ag  Ag1  1  0.00000000  0.00000000  0.50000000  1
  Te  Te0  1  0.00000000  0.50000000  0.30208000  1
  Te  Te1  1  0.50000000  0.00000000  0.69792000  1
  F  F0  1  0.50000000  0.50000000  0.00000000  1
  F  F1  1  0.00000000  0.00000000  0.00000000  1
loop_
_geom_bond_atom_site_label_1
_geom_bond_atom_site_label_2
_geom_bond_distance
_geom_bond_site_symmetry_2
Sr0 Te1 3.504963 1_465
Sr0 Te1 3.504963 1_455
Sr0 Te1 3.504963 1_565
Sr0 Te1 3.504963 1_555
Sr1 Te0 3.504963 1_645
Sr1 Te0 3.504963 1_555
Sr1 Te0 3.504963 1_545
Sr1 Te0 3.504963 1_655
Ag0 Te1 2.923361 1_565
Ag0 Te0 2.923361 1_555
Ag0 Te0 2.923361 1_655
Ag0 Te1 2.923361 1_555
Ag1 Te1 2.923361 1_455
Ag1 Te0 2.923361 1_555
Ag1 Te0 2.923361 1_545
Ag1 Te1 2.923361 1_555
F0 Sr0 2.567035 1_654
F0 Sr0 2.567035 1_554
F0 Sr1 2.567035 1_565
F0 Sr1 2.567035 1_555
F1 Sr0 2.567035 1_544
F1 Sr0 2.567035 1_554
F1 Sr1 2.567035 1_455
F1 Sr1 2.567035 1_555
