# generated using pymatgen
data_LuInRh
_symmetry_space_group_name_H-M   'P 1'
_cell_length_a   4.16745973
_cell_length_b   6.86978595
_cell_length_c   8.47773028
_cell_angle_alpha   90.00000000
_cell_angle_beta   90.00000000
_cell_angle_gamma   90.00000000
_symmetry_Int_Tables_number   1
_chemical_formula_structural   LuInRh
_chemical_formula_sum   'Lu4 In4 Rh4'
_cell_volume   242.71365635
_cell_formula_units_Z   4
loop_
 _symmetry_equiv_pos_site_id
 _symmetry_equiv_pos_as_xyz
  1  'x, y, z'
loop_
 _atom_site_type_symbol
 _atom_site_label
 _atom_site_symmetry_multiplicity
 _atom_site_fract_x
 _atom_site_fract_y
 _atom_site_fract_z
 _atom_site_occupancy
  Lu  Lu0  1  0.25000000  0.53813220  0.67427918  1
  Lu  Lu1  1  0.75000000  0.46186780  0.32572082  1
  Lu  Lu2  1  0.25000000  0.03813220  0.82572082  1
  Lu  Lu3  1  0.75000000  0.96186780  0.17427918  1
  In  In0  1  0.75000000  0.85794948  0.55903285  1
  In  In1  1  0.25000000  0.14205052  0.44096715  1
  In  In2  1  0.75000000  0.35794948  0.94096715  1
  In  In3  1  0.25000000  0.64205052  0.05903285  1
  Rh  Rh0  1  0.25000000  0.24248025  0.13329391  1
  Rh  Rh1  1  0.75000000  0.75751975  0.86670609  1
  Rh  Rh2  1  0.25000000  0.74248025  0.36670609  1
  Rh  Rh3  1  0.75000000  0.25751975  0.63329391  1
loop_
_geom_bond_atom_site_label_1
_geom_bond_atom_site_label_2
_geom_bond_distance
_geom_bond_site_symmetry_2
Lu0 Rh3 2.859872 1_555
Lu0 Rh3 2.859872 1_455
Lu0 Rh2 2.961402 1_555
Lu0 Rh1 3.045439 1_555
Lu0 Rh1 3.045439 1_455
Lu1 Rh2 2.859872 1_555
Lu1 Rh2 2.859872 1_655
Lu1 Rh3 2.961402 1_555
Lu1 Rh0 3.045439 1_555
Lu1 Rh0 3.045439 1_655
Lu2 Rh1 2.859872 1_445
Lu2 Rh1 2.859872 1_545
Lu2 Rh0 2.961402 1_556
Lu2 Rh3 3.045439 1_555
Lu2 Rh3 3.045439 1_455
Lu3 Rh0 2.859872 1_565
Lu3 Rh0 2.859872 1_665
Lu3 Rh1 2.961402 1_554
Lu3 Rh2 3.045439 1_555
Lu3 Rh2 3.045439 1_655
In0 Rh1 2.698074 1_555
In0 Rh2 2.762189 1_555
In0 Rh2 2.762189 1_655
In0 Rh3 2.816233 1_565
In0 In1 3.025388 1_565
In0 In1 3.025388 1_665
In0 Lu0 3.181769 1_555
In0 Lu0 3.181769 1_655
In0 Lu2 3.314488 1_565
In0 Lu2 3.314488 1_665
In0 Lu3 3.339047 1_555
In0 Lu1 3.363946 1_555
In1 Rh0 2.698074 1_555
In1 Rh3 2.762189 1_555
In1 Rh3 2.762189 1_455
In1 Rh2 2.816233 1_545
In1 Lu1 3.181769 1_555
In1 Lu1 3.181769 1_455
In1 Lu3 3.314488 1_545
In1 Lu3 3.314488 1_445
In1 Lu2 3.339047 1_555
In1 Lu0 3.363946 1_555
In2 Rh3 2.698074 1_555
In2 Rh0 2.762189 1_556
In2 Rh0 2.762189 1_656
In2 Rh1 2.816233 1_555
In2 In3 3.025388 1_556
In2 In3 3.025388 1_656
In2 Lu2 3.181769 1_555
In2 Lu2 3.181769 1_655
In2 Lu0 3.314488 1_555
In2 Lu0 3.314488 1_655
In2 Lu1 3.339047 1_556
In2 Lu3 3.363946 1_546
In3 Rh2 2.698074 1_555
In3 Rh1 2.762189 1_554
In3 Rh1 2.762189 1_454
In3 Rh0 2.816233 1_555
In3 Lu3 3.181769 1_555
In3 Lu3 3.181769 1_455
In3 Lu1 3.314488 1_555
In3 Lu1 3.314488 1_455
In3 Lu0 3.339047 1_554
In3 Lu2 3.363946 1_564
