# generated using pymatgen
data_EuZnSn
_symmetry_space_group_name_H-M   'P 1'
_cell_length_a   4.74901830
_cell_length_b   7.83307721
_cell_length_c   8.05245084
_cell_angle_alpha   89.99982768
_cell_angle_beta   90.00000000
_cell_angle_gamma   90.00000000
_symmetry_Int_Tables_number   1
_chemical_formula_structural   EuZnSn
_chemical_formula_sum   'Eu4 Zn4 Sn4'
_cell_volume   299.54655732
_cell_formula_units_Z   4
loop_
 _symmetry_equiv_pos_site_id
 _symmetry_equiv_pos_as_xyz
  1  'x, y, z'
loop_
 _atom_site_type_symbol
 _atom_site_label
 _atom_site_symmetry_multiplicity
 _atom_site_fract_x
 _atom_site_fract_y
 _atom_site_fract_z
 _atom_site_occupancy
  Eu  Eu0  1  0.25000000  0.49607485  0.78759955  1
  Eu  Eu1  1  0.75000000  0.50392515  0.21240045  1
  Eu  Eu2  1  0.25000000  0.99607629  0.71237742  1
  Eu  Eu3  1  0.75000000  0.00392371  0.28762258  1
  Zn  Zn0  1  0.75000000  0.32054514  0.58279719  1
  Zn  Zn1  1  0.25000000  0.17941162  0.08279849  1
  Zn  Zn2  1  0.75000000  0.82058838  0.91720151  1
  Zn  Zn3  1  0.25000000  0.67945486  0.41720281  1
  Sn  Sn0  1  0.25000000  0.29084589  0.40886922  1
  Sn  Sn1  1  0.75000000  0.20913452  0.90886342  1
  Sn  Sn2  1  0.25000000  0.79086548  0.09113658  1
  Sn  Sn3  1  0.75000000  0.70915411  0.59113078  1
loop_
_geom_bond_atom_site_label_1
_geom_bond_atom_site_label_2
_geom_bond_distance
_geom_bond_site_symmetry_2
Eu0 Zn0 3.201327 1_455
Eu0 Zn0 3.201327 1_555
Eu0 Sn3 3.305595 1_555
Eu0 Sn3 3.305595 1_455
Eu0 Zn3 3.310471 1_555
Eu0 Sn2 3.362478 1_556
Eu0 Sn1 3.412272 1_555
Eu0 Sn1 3.412272 1_455
Eu0 Zn1 3.435560 1_556
Eu0 Sn0 3.447469 1_555
Eu0 Zn2 3.631652 1_555
Eu0 Zn2 3.631652 1_455
Eu1 Zn3 3.201327 1_655
Eu1 Zn3 3.201327 1_555
Eu1 Sn0 3.305595 1_655
Eu1 Sn0 3.305595 1_555
Eu1 Zn0 3.310471 1_555
Eu1 Sn1 3.362478 1_554
Eu1 Sn2 3.412272 1_555
Eu1 Sn2 3.412272 1_655
Eu1 Zn2 3.435560 1_554
Eu1 Sn3 3.447469 1_555
Eu1 Zn1 3.631652 1_555
Eu1 Zn1 3.631652 1_655
Eu2 Zn2 3.201272 1_555
Eu2 Zn2 3.201272 1_455
Eu2 Sn1 3.305583 1_565
Eu2 Sn1 3.305583 1_465
Eu2 Zn1 3.310503 1_566
Eu2 Sn0 3.362186 1_565
Eu2 Sn3 3.412142 1_455
Eu2 Sn3 3.412142 1_555
Eu2 Zn3 3.435198 1_555
Eu2 Sn2 3.447599 1_556
Eu2 Zn0 3.631352 1_465
Eu2 Zn0 3.631352 1_565
Eu3 Zn1 3.201272 1_555
Eu3 Zn1 3.201272 1_655
Eu3 Sn2 3.305583 1_645
Eu3 Sn2 3.305583 1_545
Eu3 Zn2 3.310503 1_544
Eu3 Sn3 3.362186 1_545
Eu3 Sn0 3.412142 1_655
Eu3 Sn0 3.412142 1_555
Eu3 Zn0 3.435198 1_555
Eu3 Sn1 3.447599 1_554
Eu3 Zn3 3.631352 1_645
Eu3 Zn3 3.631352 1_545
Sn0 Zn0 2.766577 1_455
Sn0 Zn0 2.766577 1_555
Sn0 Zn1 2.766958 1_555
Sn0 Zn3 3.044744 1_555
Sn1 Zn1 2.766620 1_556
Sn1 Zn1 2.766620 1_656
Sn1 Zn0 2.766860 1_555
Sn1 Zn2 3.044252 1_545
Sn2 Zn2 2.766620 1_554
Sn2 Zn2 2.766620 1_454
Sn2 Zn3 2.766860 1_555
Sn2 Zn1 3.044252 1_565
Sn3 Zn3 2.766577 1_555
Sn3 Zn3 2.766577 1_655
Sn3 Zn2 2.766958 1_555
Sn3 Zn0 3.044744 1_555
