# generated using pymatgen
data_Er2Be2GeO7
_symmetry_space_group_name_H-M   'P 1'
_cell_length_a   7.40368600
_cell_length_b   7.40368600
_cell_length_c   4.79803600
_cell_angle_alpha   90.00000000
_cell_angle_beta   90.00000000
_cell_angle_gamma   90.00000000
_symmetry_Int_Tables_number   1
_chemical_formula_structural   Er2Be2GeO7
_chemical_formula_sum   'Er4 Be4 Ge2 O14'
_cell_volume   263.00226285
_cell_formula_units_Z   2
loop_
 _symmetry_equiv_pos_site_id
 _symmetry_equiv_pos_as_xyz
  1  'x, y, z'
loop_
 _atom_site_type_symbol
 _atom_site_label
 _atom_site_symmetry_multiplicity
 _atom_site_fract_x
 _atom_site_fract_y
 _atom_site_fract_z
 _atom_site_occupancy
  Er  Er0  1  0.65774600  0.84225400  0.50656500  1
  Er  Er1  1  0.15774600  0.65774600  0.49343500  1
  Er  Er2  1  0.84225400  0.34225400  0.49343500  1
  Er  Er3  1  0.34225400  0.15774600  0.50656500  1
  Be  Be0  1  0.36472800  0.86472800  0.04904900  1
  Be  Be1  1  0.86472800  0.63527200  0.95095100  1
  Be  Be2  1  0.63527200  0.13527200  0.04904900  1
  Be  Be3  1  0.13527200  0.36472800  0.95095100  1
  Ge  Ge0  1  0.50000000  0.50000000  0.00000000  1
  Ge  Ge1  1  0.00000000  0.00000000  0.00000000  1
  O  O0  1  0.91736900  0.82887700  0.78060600  1
  O  O1  1  0.17112300  0.91736900  0.21939400  1
  O  O2  1  0.58263100  0.32887700  0.21939400  1
  O  O3  1  0.41736900  0.67112300  0.21939400  1
  O  O4  1  0.32887700  0.41736900  0.78060600  1
  O  O5  1  0.67112300  0.58263100  0.78060600  1
  O  O6  1  0.00000000  0.50000000  0.80991400  1
  O  O7  1  0.50000000  0.00000000  0.19008600  1
  O  O8  1  0.14198200  0.35801800  0.28222400  1
  O  O9  1  0.64198200  0.14198200  0.71777600  1
  O  O10  1  0.35801800  0.85801800  0.71777600  1
  O  O11  1  0.85801800  0.64198200  0.28222400  1
  O  O12  1  0.08263100  0.17112300  0.78060600  1
  O  O13  1  0.82887700  0.08263100  0.21939400  1
loop_
_geom_bond_atom_site_label_1
_geom_bond_atom_site_label_2
_geom_bond_distance
_geom_bond_site_symmetry_2
Er0 O7 2.243605 1_565
Er0 O5 2.330963 1_555
Er0 O0 2.330963 1_555
Er0 O11 2.357060 1_555
Er0 O10 2.442328 1_555
Er0 O9 2.442328 1_565
Er0 O3 2.582833 1_555
Er0 O13 2.582833 1_565
Er1 O6 2.243605 1_555
Er1 O3 2.330963 1_555
Er1 O1 2.330963 1_555
Er1 O10 2.357060 1_555
Er1 O8 2.442328 1_555
Er1 O11 2.442328 1_455
Er1 O4 2.582833 1_555
Er1 O0 2.582833 1_455
Er2 O6 2.243605 1_655
Er2 O2 2.330963 1_555
Er2 O13 2.330963 1_555
Er2 O9 2.357060 1_555
Er2 O11 2.442328 1_555
Er2 O8 2.442328 1_655
Er2 O12 2.582833 1_655
Er2 O5 2.582833 1_555
Er3 O7 2.243605 1_555
Er3 O12 2.330963 1_555
Er3 O4 2.330963 1_555
Er3 O8 2.357060 1_555
Er3 O9 2.442328 1_555
Er3 O10 2.442328 1_545
Er3 O2 2.582833 1_555
Er3 O1 2.582833 1_545
Be0 O7 1.569705 1_565
Be0 O10 1.591012 1_554
Be0 O3 1.695440 1_555
Be0 O1 1.695440 1_555
Be1 O6 1.569705 1_655
Be1 O11 1.591012 1_556
Be1 O5 1.695440 1_555
Be1 O0 1.695440 1_555
Be2 O7 1.569705 1_555
Be2 O9 1.591012 1_554
Be2 O2 1.695440 1_555
Be2 O13 1.695440 1_555
Be3 O6 1.569705 1_555
Be3 O8 1.591012 1_556
Be3 O4 1.695440 1_555
Be3 O12 1.695440 1_555
Ge0 O3 1.757128 1_555
Ge0 O2 1.757128 1_555
Ge0 O5 1.757128 1_554
Ge0 O4 1.757128 1_554
Ge1 O1 1.757128 1_545
Ge1 O13 1.757128 1_455
Ge1 O12 1.757128 1_554
Ge1 O0 1.757128 1_444
