# generated using pymatgen
data_Ba4LaPr(Cu3O7)2
_symmetry_space_group_name_H-M   'P 1'
_cell_length_a   3.90543200
_cell_length_b   3.97798100
_cell_length_c   23.85401900
_cell_angle_alpha   90.00000000
_cell_angle_beta   90.00000000
_cell_angle_gamma   90.00000000
_symmetry_Int_Tables_number   1
_chemical_formula_structural   Ba4LaPr(Cu3O7)2
_chemical_formula_sum   'Ba4 La1 Pr1 Cu6 O14'
_cell_volume   370.58970100
_cell_formula_units_Z   1
loop_
 _symmetry_equiv_pos_site_id
 _symmetry_equiv_pos_as_xyz
  1  'x, y, z'
loop_
 _atom_site_type_symbol
 _atom_site_label
 _atom_site_symmetry_multiplicity
 _atom_site_fract_x
 _atom_site_fract_y
 _atom_site_fract_z
 _atom_site_occupancy
  Ba  Ba0  1  0.50000000  0.50000000  0.83950300  1
  Ba  Ba1  1  0.50000000  0.50000000  0.33931200  1
  Ba  Ba2  1  0.50000000  0.50000000  0.16049700  1
  Ba  Ba3  1  0.50000000  0.50000000  0.66068800  1
  La  La0  1  0.50000000  0.50000000  0.50000000  1
  Pr  Pr0  1  0.50000000  0.50000000  0.00000000  1
  Cu  Cu0  1  0.00000000  0.00000000  0.92258300  1
  Cu  Cu1  1  0.00000000  0.00000000  0.42189700  1
  Cu  Cu2  1  0.00000000  0.00000000  0.07741700  1
  Cu  Cu3  1  0.00000000  0.00000000  0.57810300  1
  Cu  Cu4  1  0.00000000  0.00000000  0.75003500  1
  Cu  Cu5  1  0.00000000  0.00000000  0.24996500  1
  O  O0  1  0.00000000  0.00000000  0.82890900  1
  O  O1  1  0.00000000  0.00000000  0.32877800  1
  O  O2  1  0.00000000  0.00000000  0.17109100  1
  O  O3  1  0.00000000  0.00000000  0.67122200  1
  O  O4  1  0.00000000  0.50000000  0.75010700  1
  O  O5  1  0.00000000  0.50000000  0.24989300  1
  O  O6  1  0.50000000  0.00000000  0.93548800  1
  O  O7  1  0.50000000  0.00000000  0.43458800  1
  O  O8  1  0.50000000  0.00000000  0.06451200  1
  O  O9  1  0.50000000  0.00000000  0.56541200  1
  O  O10  1  0.00000000  0.50000000  0.93450400  1
  O  O11  1  0.00000000  0.50000000  0.43354000  1
  O  O12  1  0.00000000  0.50000000  0.06549600  1
  O  O13  1  0.00000000  0.50000000  0.56646000  1
loop_
_geom_bond_atom_site_label_1
_geom_bond_atom_site_label_2
_geom_bond_distance
_geom_bond_site_symmetry_2
Ba0 O0 2.798758 1_665
Ba0 O0 2.798758 1_555
Ba0 O0 2.798758 1_565
Ba0 O0 2.798758 1_655
Ba0 O4 2.891446 1_555
Ba0 O4 2.891446 1_655
Ba0 O10 2.991415 1_655
Ba0 O10 2.991415 1_555
Ba0 O6 3.032900 1_565
Ba0 O6 3.032900 1_555
Ba1 O1 2.798629 1_555
Ba1 O1 2.798629 1_565
Ba1 O1 2.798629 1_655
Ba1 O1 2.798629 1_665
Ba1 O5 2.891851 1_655
Ba1 O5 2.891851 1_555
Ba1 O11 2.977470 1_655
Ba1 O11 2.977470 1_555
Ba1 O7 3.020152 1_565
Ba1 O7 3.020152 1_555
Ba2 O2 2.798758 1_555
Ba2 O2 2.798758 1_565
Ba2 O2 2.798758 1_665
Ba2 O2 2.798758 1_655
Ba2 O5 2.891446 1_655
Ba2 O5 2.891446 1_555
Ba2 O12 2.991415 1_655
Ba2 O12 2.991415 1_555
Ba2 O8 3.032900 1_555
Ba2 O8 3.032900 1_565
Ba3 O3 2.798629 1_655
Ba3 O3 2.798629 1_665
Ba3 O3 2.798629 1_565
Ba3 O3 2.798629 1_555
Ba3 O4 2.891851 1_555
Ba3 O4 2.891851 1_655
Ba3 O13 2.977470 1_555
Ba3 O13 2.977470 1_655
Ba3 O9 3.020152 1_555
Ba3 O9 3.020152 1_565
La0 O13 2.515233 1_555
La0 O13 2.515233 1_655
La0 O11 2.515233 1_555
La0 O11 2.515233 1_655
La0 O9 2.527992 1_565
La0 O7 2.527992 1_555
La0 O7 2.527992 1_565
La0 O9 2.527992 1_555
Cu0 O6 1.976832 1_555
Cu0 O6 1.976832 1_455
Cu0 O10 2.009215 1_545
Cu0 O10 2.009215 1_555
Cu0 O0 2.234501 1_555
Cu1 O7 1.976043 1_455
Cu1 O7 1.976043 1_555
Cu1 O11 2.008287 1_545
Cu1 O11 2.008287 1_555
Cu1 O1 2.221262 1_555
Cu2 O8 1.976832 1_455
Cu2 O8 1.976832 1_555
Cu2 O12 2.009215 1_545
Cu2 O12 2.009215 1_555
Cu2 O2 2.234501 1_555
Cu3 O9 1.976043 1_555
Cu3 O9 1.976043 1_455
Cu3 O13 2.008287 1_555
Cu3 O13 2.008287 1_545
Cu3 O3 2.221262 1_555
Cu4 O3 1.880007 1_555
Cu4 O0 1.881462 1_555
Cu4 O4 1.988991 1_555
Cu4 O4 1.988991 1_545
Cu5 O1 1.880007 1_555
Cu5 O2 1.881462 1_555
Cu5 O5 1.988991 1_555
Cu5 O5 1.988991 1_545
O6 Pr0 2.514797 1_546
O6 Pr0 2.514797 1_556
O8 Pr0 2.514797 1_545
O8 Pr0 2.514797 1_555
O10 Pr0 2.500803 1_456
O10 Pr0 2.500803 1_556
O12 Pr0 2.500803 1_555
O12 Pr0 2.500803 1_455
