# generated using pymatgen
data_BaSrMn2O6
_symmetry_space_group_name_H-M   'P 1'
_cell_length_a   5.64598600
_cell_length_b   9.27622000
_cell_length_c   5.64596738
_cell_angle_alpha   90.00010197
_cell_angle_beta   119.99988186
_cell_angle_gamma   89.99998368
_symmetry_Int_Tables_number   1
_chemical_formula_structural   BaSrMn2O6
_chemical_formula_sum   'Ba2 Sr2 Mn4 O12'
_cell_volume   256.08276494
_cell_formula_units_Z   2
loop_
 _symmetry_equiv_pos_site_id
 _symmetry_equiv_pos_as_xyz
  1  'x, y, z'
loop_
 _atom_site_type_symbol
 _atom_site_label
 _atom_site_symmetry_multiplicity
 _atom_site_fract_x
 _atom_site_fract_y
 _atom_site_fract_z
 _atom_site_occupancy
  Ba  Ba0  1  0.99999800  0.50000500  0.99999800  1
  Ba  Ba1  1  0.99999900  0.99999500  0.00000000  1
  Sr  Sr0  1  0.66668600  0.75000300  0.33337200  1
  Sr  Sr1  1  0.33331200  0.24999800  0.66662300  1
  Mn  Mn0  1  0.33333100  0.88837100  0.66667200  1
  Mn  Mn1  1  0.33333700  0.61162000  0.66665800  1
  Mn  Mn2  1  0.66667000  0.11160900  0.33333300  1
  Mn  Mn3  1  0.66666800  0.38840500  0.33333700  1
  O  O0  1  0.50000800  0.49999500  0.49999800  1
  O  O1  1  0.50000000  0.49999300  0.00001100  1
  O  O2  1  0.99998800  0.49999300  0.49999100  1
  O  O3  1  0.50000400  0.00000300  0.49999200  1
  O  O4  1  0.50000600  0.00000700  0.00001200  1
  O  O5  1  0.99999000  0.00000500  0.49999500  1
  O  O6  1  0.18507900  0.75000000  0.81490600  1
  O  O7  1  0.18508100  0.75000000  0.37016300  1
  O  O8  1  0.62982800  0.74999900  0.81490700  1
  O  O9  1  0.81492600  0.24999900  0.18508800  1
  O  O10  1  0.81492700  0.24999900  0.62985200  1
  O  O11  1  0.37016300  0.25000000  0.18509400  1
loop_
_geom_bond_atom_site_label_1
_geom_bond_atom_site_label_2
_geom_bond_distance
_geom_bond_site_symmetry_2
Ba0 O0 2.822965 1_555
Ba0 O1 2.822968 1_656
Ba0 O2 2.822972 1_556
Ba0 O2 2.822995 1_555
Ba0 O1 2.823018 1_556
Ba0 O0 2.823022 1_656
Ba0 O7 2.941713 1_656
Ba0 O8 2.941729 1_555
Ba0 O10 2.941737 1_555
Ba0 O6 2.941742 1_655
Ba0 O9 2.941789 1_556
Ba0 O11 2.941794 1_656
Ba1 O5 2.822981 1_565
Ba1 O3 2.822985 1_665
Ba1 O5 2.822987 1_564
Ba1 O4 2.822987 1_565
Ba1 O4 2.822999 1_665
Ba1 O3 2.823002 1_564
Ba1 O7 2.941713 1_655
Ba1 O10 2.941734 1_564
Ba1 O6 2.941741 1_654
Ba1 O8 2.941744 1_554
Ba1 O9 2.941768 1_565
Ba1 O11 2.941789 1_665
Mn0 O4 1.931037 1_566
Mn0 O5 1.931038 1_465
Mn0 O3 1.931073 1_565
Mn0 O6 1.936264 1_555
Mn0 O8 1.936313 1_555
Mn0 O7 1.936345 1_555
Mn1 O0 1.930945 1_555
Mn1 O2 1.931035 1_455
Mn1 O1 1.931049 1_556
Mn1 O8 1.936333 1_555
Mn1 O7 1.936353 1_555
Mn1 O6 1.936390 1_555
Mn2 O4 1.930789 1_555
Mn2 O5 1.930802 1_555
Mn2 O3 1.930828 1_555
Mn2 O9 1.936435 1_555
Mn2 O11 1.936467 1_555
Mn2 O10 1.936498 1_555
Mn3 O2 1.930721 1_555
Mn3 O0 1.930730 1_555
Mn3 O1 1.930744 1_555
Mn3 O11 1.936544 1_555
Mn3 O9 1.936553 1_555
Mn3 O10 1.936586 1_555
O0 Sr1 2.834452 1_555
O0 Sr0 2.834488 1_555
O1 Sr1 2.834621 1_554
O1 Sr0 2.834659 1_555
O2 Sr1 2.834448 1_655
O2 Sr0 2.834500 1_555
O3 Sr0 2.834418 1_545
O3 Sr1 2.834439 1_555
O4 Sr1 2.834599 1_554
O4 Sr0 2.834616 1_545
O5 Sr1 2.834425 1_655
O5 Sr0 2.834443 1_545
O6 Sr0 2.828535 1_455
O6 Sr0 2.828945 1_556
O7 Sr0 2.828717 1_455
O7 Sr0 2.828721 1_555
O8 Sr0 2.828528 1_555
O8 Sr0 2.828933 1_556
O9 Sr1 2.828516 1_655
O9 Sr1 2.828960 1_554
O10 Sr1 2.828711 1_655
O10 Sr1 2.828715 1_555
O11 Sr1 2.828472 1_555
O11 Sr1 2.828985 1_554
