# generated using pymatgen
data_Mg14TiAlO16
_symmetry_space_group_name_H-M   'P 1'
_cell_length_a   4.27672800
_cell_length_b   8.55011100
_cell_length_c   8.57467000
_cell_angle_alpha   90.00000000
_cell_angle_beta   90.00000000
_cell_angle_gamma   90.00000000
_symmetry_Int_Tables_number   1
_chemical_formula_structural   Mg14TiAlO16
_chemical_formula_sum   'Mg14 Ti1 Al1 O16'
_cell_volume   313.54566298
_cell_formula_units_Z   1
loop_
 _symmetry_equiv_pos_site_id
 _symmetry_equiv_pos_as_xyz
  1  'x, y, z'
loop_
 _atom_site_type_symbol
 _atom_site_label
 _atom_site_symmetry_multiplicity
 _atom_site_fract_x
 _atom_site_fract_y
 _atom_site_fract_z
 _atom_site_occupancy
  Mg  Mg0  1  0.00000000  0.00000000  0.50000000  1
  Mg  Mg1  1  0.00000000  0.50000000  0.50000000  1
  Mg  Mg2  1  0.50000000  0.74924000  0.00000000  1
  Mg  Mg3  1  0.50000000  0.25076000  0.00000000  1
  Mg  Mg4  1  0.50000000  0.74925500  0.50000000  1
  Mg  Mg5  1  0.50000000  0.25074500  0.50000000  1
  Mg  Mg6  1  0.50000000  0.00000000  0.74964800  1
  Mg  Mg7  1  0.50000000  0.50000000  0.74857900  1
  Mg  Mg8  1  0.50000000  0.00000000  0.25035200  1
  Mg  Mg9  1  0.50000000  0.50000000  0.25142100  1
  Mg  Mg10  1  0.00000000  0.74794600  0.74926200  1
  Mg  Mg11  1  0.00000000  0.25205400  0.74926200  1
  Mg  Mg12  1  0.00000000  0.74794600  0.25073800  1
  Mg  Mg13  1  0.00000000  0.25205400  0.25073800  1
  Ti  Ti0  1  0.00000000  0.50000000  0.00000000  1
  Al  Al0  1  0.00000000  0.00000000  0.00000000  1
  O  O0  1  0.00000000  0.00000000  0.76578400  1
  O  O1  1  0.00000000  0.50000000  0.73985600  1
  O  O2  1  0.00000000  0.00000000  0.23421600  1
  O  O3  1  0.00000000  0.50000000  0.26014400  1
  O  O4  1  0.50000000  0.75090100  0.75057200  1
  O  O5  1  0.50000000  0.24909900  0.75057200  1
  O  O6  1  0.50000000  0.75090100  0.24942800  1
  O  O7  1  0.50000000  0.24909900  0.24942800  1
  O  O8  1  0.50000000  0.00000000  0.00000000  1
  O  O9  1  0.50000000  0.50000000  0.00000000  1
  O  O10  1  0.50000000  0.00000000  0.50000000  1
  O  O11  1  0.50000000  0.50000000  0.50000000  1
  O  O12  1  0.00000000  0.77739000  0.00000000  1
  O  O13  1  0.00000000  0.22261000  0.00000000  1
  O  O14  1  0.00000000  0.75507500  0.50000000  1
  O  O15  1  0.00000000  0.24492500  0.50000000  1
loop_
_geom_bond_atom_site_label_1
_geom_bond_atom_site_label_2
_geom_bond_distance
_geom_bond_site_symmetry_2
Mg0 O14 2.094136 1_545
Mg0 O15 2.094136 1_555
Mg0 O10 2.138364 1_455
Mg0 O10 2.138364 1_555
Mg0 O2 2.279010 1_555
Mg0 O0 2.279010 1_555
Mg1 O1 2.056686 1_555
Mg1 O3 2.056686 1_555
Mg1 O11 2.138364 1_455
Mg1 O11 2.138364 1_555
Mg1 O15 2.180920 1_555
Mg1 O14 2.180920 1_555
Mg2 O9 2.131030 1_555
Mg2 O6 2.138810 1_555
Mg2 O4 2.138810 1_554
Mg2 O8 2.144026 1_565
Mg2 O12 2.151867 1_655
Mg2 O12 2.151867 1_555
Mg3 O9 2.131030 1_555
Mg3 O5 2.138810 1_554
Mg3 O7 2.138810 1_555
Mg3 O8 2.144026 1_555
Mg3 O13 2.151867 1_555
Mg3 O13 2.151867 1_655
Mg4 O11 2.131158 1_555
Mg4 O14 2.138943 1_555
Mg4 O14 2.138943 1_655
Mg4 O10 2.143898 1_565
Mg4 O4 2.148618 1_555
Mg4 O6 2.148618 1_555
Mg5 O11 2.131158 1_555
Mg5 O15 2.138943 1_655
Mg5 O15 2.138943 1_555
Mg5 O10 2.143898 1_555
Mg5 O7 2.148618 1_555
Mg5 O5 2.148618 1_555
Mg6 O4 2.129839 1_545
Mg6 O5 2.129839 1_555
Mg6 O10 2.140649 1_555
Mg6 O0 2.142836 1_655
Mg6 O0 2.142836 1_555
Mg6 O8 2.146686 1_556
Mg7 O11 2.131483 1_555
Mg7 O1 2.139672 1_655
Mg7 O1 2.139672 1_555
Mg7 O4 2.145299 1_555
Mg7 O5 2.145299 1_555
Mg7 O9 2.155852 1_556
Mg8 O6 2.129839 1_545
Mg8 O7 2.129839 1_555
Mg8 O10 2.140649 1_555
Mg8 O2 2.142836 1_655
Mg8 O2 2.142836 1_555
Mg8 O8 2.146686 1_555
Mg9 O11 2.131483 1_555
Mg9 O3 2.139672 1_555
Mg9 O3 2.139672 1_655
Mg9 O6 2.145299 1_555
Mg9 O7 2.145299 1_555
Mg9 O9 2.155852 1_555
Mg10 O1 2.121499 1_555
Mg10 O14 2.138208 1_555
Mg10 O4 2.138543 1_555
Mg10 O4 2.138543 1_455
Mg10 O0 2.159741 1_565
Mg10 O12 2.164684 1_556
Mg11 O1 2.121499 1_555
Mg11 O15 2.138208 1_555
Mg11 O5 2.138543 1_455
Mg11 O5 2.138543 1_555
Mg11 O0 2.159741 1_555
Mg11 O13 2.164684 1_556
Mg12 O3 2.121499 1_555
Mg12 O14 2.138208 1_555
Mg12 O6 2.138543 1_455
Mg12 O6 2.138543 1_555
Mg12 O2 2.159741 1_565
Mg12 O12 2.164684 1_555
Mg13 O3 2.121499 1_555
Mg13 O15 2.138208 1_555
Mg13 O7 2.138543 1_555
Mg13 O7 2.138543 1_455
Mg13 O2 2.159741 1_555
Mg13 O13 2.164684 1_555
Al0 O12 1.903340 1_545
Al0 O13 1.903340 1_555
Al0 O0 2.008325 1_554
Al0 O2 2.008325 1_555
Al0 O8 2.138364 1_555
Al0 O8 2.138364 1_455
O1 Ti0 2.230649 1_556
O3 Ti0 2.230649 1_555
O9 Ti0 2.138364 1_555
O9 Ti0 2.138364 1_655
O12 Ti0 2.371715 1_555
O13 Ti0 2.371715 1_555
