# generated using pymatgen
data_BaLaMg14
_symmetry_space_group_name_H-M   'P 1'
_cell_length_a   6.72166900
_cell_length_b   6.68583804
_cell_length_c   10.72384889
_cell_angle_alpha   90.00000000
_cell_angle_beta   90.00000000
_cell_angle_gamma   119.82382507
_symmetry_Int_Tables_number   1
_chemical_formula_structural   BaLaMg14
_chemical_formula_sum   'Ba1 La1 Mg14'
_cell_volume   418.10228513
_cell_formula_units_Z   1
loop_
 _symmetry_equiv_pos_site_id
 _symmetry_equiv_pos_as_xyz
  1  'x, y, z'
loop_
 _atom_site_type_symbol
 _atom_site_label
 _atom_site_symmetry_multiplicity
 _atom_site_fract_x
 _atom_site_fract_y
 _atom_site_fract_z
 _atom_site_occupancy
  Ba  Ba0  1  0.17148863  0.83574381  0.12500000  1
  La  La0  1  0.17784789  0.33892344  0.12500000  1
  Mg  Mg0  1  0.16184264  0.33092082  0.62500000  1
  Mg  Mg1  1  0.16377566  0.83188733  0.62500000  1
  Mg  Mg2  1  0.66842330  0.33340900  0.12500000  1
  Mg  Mg3  1  0.66916362  0.33328906  0.62500000  1
  Mg  Mg4  1  0.66842330  0.83501330  0.12500000  1
  Mg  Mg5  1  0.66916362  0.83587356  0.62500000  1
  Mg  Mg6  1  0.34068886  0.17594069  0.39605773  1
  Mg  Mg7  1  0.34068886  0.17594069  0.85394227  1
  Mg  Mg8  1  0.34068886  0.66474917  0.39605773  1
  Mg  Mg9  1  0.34068886  0.66474917  0.85394227  1
  Mg  Mg10  1  0.82649508  0.16324804  0.37918562  1
  Mg  Mg11  1  0.82649508  0.16324804  0.87081438  1
  Mg  Mg12  1  0.81706287  0.65853194  0.38631360  1
  Mg  Mg13  1  0.81706287  0.65853194  0.86368640  1
loop_
_geom_bond_atom_site_label_1
_geom_bond_atom_site_label_2
_geom_bond_distance
_geom_bond_site_symmetry_2
Ba0 Mg2 3.342662 1_565
Ba0 Mg4 3.342662 1_555
Ba0 La0 3.343125 1_565
Ba0 La0 3.343125 1_555
Ba0 Mg2 3.379012 1_455
Ba0 Mg4 3.379012 1_455
Ba0 Mg12 3.482030 1_455
Ba0 Mg13 3.482030 1_454
Ba0 Mg8 3.513281 1_555
Ba0 Mg9 3.513281 1_554
Ba0 Mg7 3.513287 1_564
Ba0 Mg6 3.513287 1_565
La0 Mg4 3.315976 1_555
La0 Mg2 3.315976 1_555
La0 Mg4 3.405997 1_445
La0 Mg2 3.405998 1_455
La0 Mg11 3.410017 1_454
La0 Mg10 3.410017 1_455
La0 Mg6 3.467161 1_555
La0 Mg7 3.467161 1_554
La0 Mg9 3.467167 1_554
La0 Mg8 3.467167 1_555
Mg0 Mg6 3.128181 1_555
Mg0 Mg7 3.128181 1_555
Mg0 Mg8 3.128188 1_555
Mg0 Mg9 3.128188 1_555
Mg0 Mg11 3.282242 1_455
Mg0 Mg10 3.282242 1_455
Mg0 Mg5 3.319528 1_445
Mg0 Mg3 3.319528 1_455
Mg0 Mg1 3.342938 1_555
Mg0 Mg1 3.342938 1_545
Mg0 Mg5 3.402197 1_555
Mg0 Mg3 3.402197 1_555
Mg1 Mg8 3.164216 1_555
Mg1 Mg9 3.164216 1_555
Mg1 Mg7 3.164223 1_565
Mg1 Mg6 3.164223 1_565
Mg1 Mg13 3.261834 1_455
Mg1 Mg12 3.261834 1_455
Mg1 Mg3 3.337953 1_455
Mg1 Mg5 3.337953 1_455
Mg1 Mg3 3.383875 1_565
Mg1 Mg5 3.383875 1_555
Mg2 Mg4 3.332193 1_545
Mg2 Mg4 3.353645 1_555
Mg2 Mg6 3.479046 1_555
Mg2 Mg7 3.479046 1_554
Mg3 Mg6 3.114308 1_555
Mg3 Mg7 3.114308 1_555
Mg3 Mg5 3.325639 1_545
Mg3 Mg5 3.360199 1_555
Mg4 Mg9 3.479046 1_554
Mg4 Mg8 3.479046 1_555
Mg5 Mg8 3.114308 1_555
Mg5 Mg9 3.114308 1_555
Mg6 Mg8 3.268094 1_555
Mg6 Mg8 3.417744 1_545
Mg7 Mg9 3.268094 1_555
Mg7 Mg9 3.417744 1_545
Mg10 Mg3 3.248938 1_555
Mg10 Mg5 3.248944 1_545
Mg10 Mg8 3.313396 1_545
Mg10 Mg6 3.313396 1_555
Mg10 Mg2 3.325025 1_555
Mg10 Mg4 3.325032 1_545
Mg10 Mg12 3.344245 1_545
Mg10 Mg12 3.344245 1_555
Mg10 Mg8 3.419619 1_655
Mg10 Mg6 3.419620 1_655
Mg11 Mg3 3.248938 1_555
Mg11 Mg5 3.248944 1_545
Mg11 Mg9 3.313396 1_545
Mg11 Mg7 3.313396 1_555
Mg11 Mg2 3.325025 1_556
Mg11 Mg4 3.325032 1_546
Mg11 Mg13 3.344245 1_545
Mg11 Mg13 3.344245 1_555
Mg11 Mg9 3.419619 1_655
Mg11 Mg7 3.419620 1_655
Mg12 Mg5 3.180928 1_555
Mg12 Mg3 3.180935 1_555
Mg12 Mg6 3.224596 1_555
Mg12 Mg8 3.224597 1_555
Mg12 Mg4 3.378734 1_555
Mg12 Mg2 3.378740 1_555
Mg12 Mg6 3.500713 1_665
Mg12 Mg8 3.500713 1_655
Mg13 Mg5 3.180928 1_555
Mg13 Mg3 3.180935 1_555
Mg13 Mg7 3.224596 1_555
Mg13 Mg9 3.224597 1_555
Mg13 Mg4 3.378734 1_556
Mg13 Mg2 3.378740 1_556
Mg13 Mg7 3.500713 1_665
Mg13 Mg9 3.500713 1_655
