# generated using pymatgen
data_MgMn8(SO3)8
_symmetry_space_group_name_H-M   'P 1'
_cell_length_a   5.40349884
_cell_length_b   8.98844875
_cell_length_c   13.02854190
_cell_angle_alpha   87.09155596
_cell_angle_beta   93.87833138
_cell_angle_gamma   99.95482148
_symmetry_Int_Tables_number   1
_chemical_formula_structural   MgMn8(SO3)8
_chemical_formula_sum   'Mg1 Mn8 S8 O24'
_cell_volume   621.33883229
_cell_formula_units_Z   1
loop_
 _symmetry_equiv_pos_site_id
 _symmetry_equiv_pos_as_xyz
  1  'x, y, z'
loop_
 _atom_site_type_symbol
 _atom_site_label
 _atom_site_symmetry_multiplicity
 _atom_site_fract_x
 _atom_site_fract_y
 _atom_site_fract_z
 _atom_site_occupancy
  Mg  Mg0  1  0.40205494  0.27706752  0.86925775  1
  Mn  Mn0  1  0.32473737  0.61498887  0.91363061  1
  Mn  Mn1  1  0.66254274  0.89823315  0.41258049  1
  Mn  Mn2  1  0.61111457  0.41104576  0.10876257  1
  Mn  Mn3  1  0.38331022  0.10368465  0.58202006  1
  Mn  Mn4  1  0.09864162  0.18356968  0.25326130  1
  Mn  Mn5  1  0.95199163  0.22890622  0.74341959  1
  Mn  Mn6  1  0.87684314  0.80583581  0.73202001  1
  Mn  Mn7  1  0.10486410  0.69194107  0.25086612  1
  S  S0  1  0.56319492  0.48499885  0.68881408  1
  S  S1  1  0.49569877  0.02511178  0.17965624  1
  S  S2  1  0.52669419  0.52509196  0.32740308  1
  S  S3  1  0.47327485  0.96247589  0.79603752  1
  S  S4  1  0.09566964  0.76324942  0.50337736  1
  S  S5  1  0.89877764  0.74909255  0.00852246  1
  S  S6  1  0.93885888  0.24906367  0.48074693  1
  S  S7  1  0.98582930  0.25816073  0.00812058  1
  O  O0  1  0.71831195  0.02686136  0.26306526  1
  O  O1  1  0.44543294  0.48441504  0.79646202  1
  O  O2  1  0.23630603  0.94418056  0.72154518  1
  O  O3  1  0.73324203  0.54045471  0.24541443  1
  O  O4  1  0.23430469  0.38214658  0.98815459  1
  O  O5  1  0.68889396  0.13354786  0.48204351  1
  O  O6  1  0.65642631  0.62313866  0.01436138  1
  O  O7  1  0.33701389  0.88815638  0.50438334  1
  O  O8  1  0.75306817  0.31531512  0.95400531  1
  O  O9  1  0.10472551  0.17428472  0.41391557  1
  O  O10  1  0.08940373  0.68866244  0.08546664  1
  O  O11  1  0.90157130  0.83611259  0.55797441  1
  O  O12  1  0.68193968  0.01755488  0.71702626  1
  O  O13  1  0.28884390  0.44880185  0.26603074  1
  O  O14  1  0.26148331  0.94681283  0.23489107  1
  O  O15  1  0.82927982  0.57380273  0.70557699  1
  O  O16  1  0.01164699  0.72959290  0.90310330  1
  O  O17  1  0.97893679  0.77077454  0.39104250  1
  O  O18  1  0.93974898  0.29363586  0.12185337  1
  O  O19  1  0.07775307  0.22696624  0.58894910  1
  O  O20  1  0.52694427  0.80027962  0.82058332  1
  O  O21  1  0.46559233  0.68842085  0.33398517  1
  O  O22  1  0.43833065  0.19159879  0.17316131  1
  O  O23  1  0.60551118  0.31670532  0.68576546  1
loop_
_geom_bond_atom_site_label_1
_geom_bond_atom_site_label_2
_geom_bond_distance
_geom_bond_site_symmetry_2
Mg0 O1 2.031650 1_555
Mg0 O8 2.112950 1_555
Mg0 O4 2.178919 1_555
Mg0 O23 2.680370 1_555
Mn0 O16 2.121057 1_555
Mn0 O6 2.141527 1_556
Mn0 O1 2.171233 1_555
Mn0 O20 2.186863 1_555
Mn0 O4 2.250794 1_555
Mn1 O7 2.179758 1_555
Mn1 O0 2.225422 1_565
Mn1 O17 2.255844 1_555
Mn1 O21 2.256618 1_555
Mn1 O11 2.319328 1_555
Mn1 O5 2.320712 1_565
Mn2 O3 2.178084 1_555
Mn2 O22 2.183495 1_555
Mn2 O6 2.201897 1_555
Mn2 O18 2.210180 1_555
Mn2 O8 2.451030 1_554
Mn2 O4 2.471443 1_554
Mn3 O5 2.144165 1_555
Mn3 O19 2.150580 1_555
Mn3 O7 2.199036 1_545
Mn3 O2 2.351168 1_545
Mn3 O23 2.486560 1_555
Mn3 O12 2.491348 1_555
Mn3 O9 2.684911 1_555
Mn4 O9 2.088777 1_555
Mn4 O18 2.137754 1_455
Mn4 O22 2.160800 1_555
Mn4 O0 2.289162 1_455
Mn4 O13 2.436703 1_555
Mn4 O14 2.467353 1_545
Mn5 O19 2.169105 1_655
Mn5 O12 2.212802 1_555
Mn5 O23 2.225450 1_555
Mn6 O15 2.100037 1_555
Mn6 O2 2.126319 1_655
Mn6 O20 2.272696 1_555
Mn6 O11 2.280249 1_555
Mn6 O12 2.322971 1_565
Mn6 O16 2.401345 1_655
Mn7 O10 2.152381 1_555
Mn7 O21 2.169189 1_555
Mn7 O17 2.183253 1_455
Mn7 O3 2.221836 1_455
Mn7 O14 2.304969 1_555
Mn7 O13 2.546427 1_555
O0 S1 1.564119 1_555
O1 S0 1.578214 1_555
O2 S3 1.543965 1_555
O3 S2 1.580747 1_555
O4 S7 1.616420 1_456
O5 S6 1.555360 1_555
O6 S5 1.579418 1_555
O7 S4 1.566627 1_555
O8 S7 1.552275 1_556
O9 S6 1.544814 1_455
O10 S5 1.536060 1_455
O11 S4 1.555826 1_655
O12 S3 1.577455 1_545
O13 S2 1.540548 1_555
O14 S1 1.542315 1_565
O15 S0 1.526595 1_555
O16 S5 1.569642 1_456
O17 S4 1.557007 1_655
O18 S7 1.576272 1_555
O19 S6 1.571631 1_455
O20 S3 1.548593 1_555
O21 S2 1.567096 1_555
O22 S1 1.576906 1_555
O23 S0 1.571315 1_555
