# generated using pymatgen
data_SrCaB11H7O22
_symmetry_space_group_name_H-M   'P 1'
_cell_length_a   20.87768600
_cell_length_b   6.68351600
_cell_length_c   6.76107467
_cell_angle_alpha   60.69434716
_cell_angle_beta   90.00000000
_cell_angle_gamma   90.00000000
_symmetry_Int_Tables_number   1
_chemical_formula_structural   SrCaB11H7O22
_chemical_formula_sum   'Sr2 Ca2 B22 H14 O44'
_cell_volume   822.67826350
_cell_formula_units_Z   2
loop_
 _symmetry_equiv_pos_site_id
 _symmetry_equiv_pos_as_xyz
  1  'x, y, z'
loop_
 _atom_site_type_symbol
 _atom_site_label
 _atom_site_symmetry_multiplicity
 _atom_site_fract_x
 _atom_site_fract_y
 _atom_site_fract_z
 _atom_site_occupancy
  Sr  Sr0  1  0.36621500  0.30576100  0.37797900  1
  Sr  Sr1  1  0.86621500  0.69423900  0.62202100  1
  Ca  Ca0  1  0.48005600  0.98339100  0.07790200  1
  Ca  Ca1  1  0.98005600  0.01660900  0.92209800  1
  B  B0  1  0.49437100  0.87888300  0.65956800  1
  B  B1  1  0.99437100  0.12111700  0.34043200  1
  B  B2  1  0.01692300  0.51462800  0.03004200  1
  B  B3  1  0.51692300  0.48537200  0.96995800  1
  B  B4  1  0.21281100  0.30878800  0.42163300  1
  B  B5  1  0.71281100  0.69121200  0.57836700  1
  B  B6  1  0.01722000  0.69381900  0.60942700  1
  B  B7  1  0.51722000  0.30618100  0.39057300  1
  B  B8  1  0.33998100  0.97679800  0.05859000  1
  B  B9  1  0.83998100  0.02320200  0.94141000  1
  B  B10  1  0.23523500  0.89592500  0.24703800  1
  B  B11  1  0.73523500  0.10407500  0.75296200  1
  B  B12  1  0.49872400  0.56274800  0.57442700  1
  B  B13  1  0.99872400  0.43725200  0.42557300  1
  B  B14  1  0.86191000  0.59679300  0.20655700  1
  B  B15  1  0.36191000  0.40320700  0.79344300  1
  B  B16  1  0.35547700  0.71868300  0.87570000  1
  B  B17  1  0.85547700  0.28131700  0.12430000  1
  B  B18  1  0.11924800  0.59977500  0.81763400  1
  B  B19  1  0.61924800  0.40022500  0.18236600  1
  B  B20  1  0.33587400  0.79502400  0.48064900  1
  B  B21  1  0.83587400  0.20497600  0.51935100  1
  H  H0  1  0.12495900  0.37243900  0.29638600  1
  H  H1  1  0.62495900  0.62756100  0.70361400  1
  H  H2  1  0.14297500  0.83369000  0.36964200  1
  H  H3  1  0.64297500  0.16631000  0.63035800  1
  H  H4  1  0.60962200  0.85552600  0.27823300  1
  H  H5  1  0.10962200  0.14447400  0.72176700  1
  H  H6  1  0.22111800  0.47893400  0.07198000  1
  H  H7  1  0.72111800  0.52106600  0.92802000  1
  H  H8  1  0.74266600  0.87624600  0.23781100  1
  H  H9  1  0.24266600  0.12375400  0.76218900  1
  H  H10  1  0.12268100  0.00525800  0.99258300  1
  H  H11  1  0.62268200  0.99474200  0.00741700  1
  H  H12  1  0.21062500  0.65631400  0.68675600  1
  H  H13  1  0.71062500  0.34368600  0.31324400  1
  O  O0  1  0.99212500  0.27489300  0.11291600  1
  O  O1  1  0.49212500  0.72510700  0.88708400  1
  O  O2  1  0.08750200  0.50362000  0.02118500  1
  O  O3  1  0.58750200  0.49638000  0.97881500  1
  O  O4  1  0.75441900  0.78549200  0.39969800  1
  O  O5  1  0.25441900  0.21450800  0.60030200  1
  O  O6  1  0.49832400  0.80058000  0.50220300  1
  O  O7  1  0.99832400  0.19942000  0.49779700  1
  O  O8  1  0.36133100  0.76821700  0.04795000  1
  O  O9  1  0.86133100  0.23178300  0.95205000  1
  O  O10  1  0.18544300  0.58618100  0.82965700  1
  O  O11  1  0.68544300  0.41381900  0.17034300  1
  O  O12  1  0.49546200  0.51552900  0.40055500  1
  O  O13  1  0.99546200  0.48447100  0.59944500  1
  O  O14  1  0.87115600  0.82464400  0.13754700  1
  O  O15  1  0.37115600  0.17535600  0.86245300  1
  O  O16  1  0.08817500  0.70248800  0.61144400  1
  O  O17  1  0.58817500  0.29751200  0.38855600  1
  O  O18  1  0.99077400  0.89345300  0.40504000  1
  O  O19  1  0.49077400  0.10654700  0.59496000  1
  O  O20  1  0.24532500  0.41265800  0.21899300  1
  O  O21  1  0.74532500  0.58734200  0.78100700  1
  O  O22  1  0.16919200  0.90518800  0.22921300  1
  O  O23  1  0.66919200  0.09481200  0.77078700  1
  O  O24  1  0.48906000  0.31887900  0.18538600  1
  O  O25  1  0.98906000  0.68112100  0.81461400  1
  O  O26  1  0.00089300  0.59244900  0.19852900  1
  O  O27  1  0.50089300  0.40755100  0.80147100  1
  O  O28  1  0.36620500  0.95842800  0.26814400  1
  O  O29  1  0.86620500  0.04157200  0.73185600  1
  O  O30  1  0.35078100  0.87109300  0.64977300  1
  O  O31  1  0.85078100  0.12890700  0.35022700  1
  O  O32  1  0.14729300  0.29866700  0.44558100  1
  O  O33  1  0.64729300  0.70133300  0.55441900  1
  O  O34  1  0.58958400  0.94833200  0.12778700  1
  O  O35  1  0.08958400  0.05166800  0.87221300  1
  O  O36  1  0.85574000  0.51806200  0.05198900  1
  O  O37  1  0.35574000  0.48193800  0.94801100  1
  O  O38  1  0.36056200  0.55697200  0.56617600  1
  O  O39  1  0.86056200  0.44302800  0.43382400  1
  O  O40  1  0.26979200  0.99478600  0.04825800  1
  O  O41  1  0.76979200  0.00521400  0.95174200  1
  O  O42  1  0.26487100  0.79196000  0.45586400  1
  O  O43  1  0.76487100  0.20804000  0.54413600  1
loop_
_geom_bond_atom_site_label_1
_geom_bond_atom_site_label_2
_geom_bond_distance
_geom_bond_site_symmetry_2
Ca0 O34 2.306567 1_555
Ca0 O6 2.537061 1_555
Ca0 O27 2.555805 1_564
Ca0 O1 2.624508 1_554
Ca0 O15 2.666007 1_564
Ca0 O28 2.668716 1_555
Ca0 O24 2.680711 1_565
Ca0 O12 2.821787 1_555
Ca0 O8 2.922030 1_555
Ca0 O19 2.959415 1_564
Ca1 O35 2.306567 1_655
Ca1 O7 2.537061 1_555
Ca1 O26 2.555805 1_646
Ca1 O0 2.624508 1_556
Ca1 O14 2.666007 1_546
Ca1 O29 2.668716 1_555
Ca1 O25 2.680711 1_545
Ca1 O13 2.821787 1_555
Ca1 O9 2.922030 1_555
Ca1 O18 2.959415 1_546
B0 O19 1.364200 1_565
B0 O1 1.370058 1_555
B0 O6 1.399207 1_555
B1 O18 1.364200 1_545
B1 O0 1.370058 1_555
B1 O7 1.399207 1_555
B2 O25 1.453088 1_454
B2 O2 1.478036 1_555
B2 O26 1.503400 1_555
B2 O0 1.506785 1_455
B3 O24 1.453088 1_556
B3 O3 1.478036 1_555
B3 O27 1.503400 1_555
B3 O1 1.506785 1_555
B4 O5 1.365927 1_555
B4 O20 1.374306 1_555
B4 O32 1.375181 1_555
B5 O4 1.365927 1_555
B5 O21 1.374306 1_555
B5 O33 1.375181 1_555
B6 O25 1.470425 1_455
B6 O18 1.479773 1_455
B6 O16 1.482832 1_555
B6 O13 1.503679 1_455
B7 O24 1.470425 1_555
B7 O19 1.479773 1_555
B7 O17 1.482832 1_555
B7 O12 1.503679 1_555
B8 O28 1.466933 1_555
B8 O40 1.469171 1_555
B8 O15 1.490136 1_564
B8 O8 1.498472 1_555
B9 O29 1.466933 1_555
B9 O41 1.469171 1_555
B9 O14 1.490136 1_546
B9 O9 1.498472 1_555
B10 O40 1.376239 1_555
B10 O42 1.377928 1_555
B10 O22 1.382827 1_555
B11 O41 1.376239 1_555
B11 O43 1.377928 1_555
B11 O23 1.382827 1_555
B12 O12 1.359912 1_555
B12 O27 1.369545 1_555
B12 O6 1.416104 1_555
B13 O13 1.359912 1_555
B13 O26 1.369545 1_655
B13 O7 1.416104 1_555
B14 O39 1.368257 1_555
B14 O14 1.370567 1_555
B14 O36 1.387055 1_555
B15 O38 1.368257 1_555
B15 O15 1.370567 1_555
B15 O37 1.387055 1_555
B16 O30 1.362833 1_555
B16 O8 1.363177 1_556
B16 O37 1.409044 1_555
B17 O31 1.362833 1_555
B17 O9 1.363177 1_554
B17 O36 1.409044 1_555
B18 O2 1.371302 1_556
B18 O16 1.377929 1_555
B18 O10 1.384757 1_555
B19 O3 1.371302 1_554
B19 O17 1.377929 1_555
B19 O11 1.384757 1_555
B20 O28 1.456686 1_555
B20 O42 1.493086 1_555
B20 O38 1.493574 1_555
B20 O30 1.493968 1_555
B21 O29 1.456686 1_555
B21 O43 1.493086 1_555
B21 O39 1.493574 1_555
B21 O31 1.493968 1_555
H0 O32 0.995569 1_555
H1 O33 0.995569 1_555
H2 O22 0.992598 1_555
H3 O23 0.992598 1_555
H4 O34 0.988313 1_555
H5 O35 0.988313 1_555
H6 O20 1.004283 1_555
H6 O10 1.613425 1_554
H7 O21 1.004283 1_555
H7 O11 1.613425 1_556
H8 O4 0.988031 1_555
H9 O5 0.988031 1_555
H10 O35 0.994424 1_555
H11 O34 0.994439 1_555
H12 O10 0.993103 1_555
H13 O11 0.993103 1_555
O4 Sr1 2.679872 1_555
O5 Sr0 2.679872 1_555
O8 Sr0 2.791255 1_555
O9 Sr1 2.791255 1_555
O12 Sr0 3.078896 1_555
O13 Sr1 3.078896 1_555
O14 Sr1 2.950400 1_555
O15 Sr0 2.950400 1_555
O18 Sr1 2.962332 1_555
O19 Sr0 2.962332 1_555
O20 Sr0 2.698921 1_555
O21 Sr1 2.698921 1_555
O24 Sr0 2.858193 1_555
O25 Sr1 2.858193 1_555
O28 Sr0 2.761875 1_565
O29 Sr1 2.761875 1_545
O30 Sr0 2.587334 1_565
O31 Sr1 2.587334 1_545
O36 Sr1 2.556230 1_554
O37 Sr0 2.556230 1_556
O38 Sr0 2.557981 1_555
O39 Sr1 2.557981 1_555
