# generated using pymatgen
data_Nd(ZnGa)2
_symmetry_space_group_name_H-M   'P 1'
_cell_length_a   4.21332390
_cell_length_b   4.21332492
_cell_length_c   6.07204108
_cell_angle_alpha   69.74148074
_cell_angle_beta   69.74147045
_cell_angle_gamma   90.11478320
_symmetry_Int_Tables_number   1
_chemical_formula_structural   Nd(ZnGa)2
_chemical_formula_sum   'Nd1 Zn2 Ga2'
_cell_volume   93.95364881
_cell_formula_units_Z   1
loop_
 _symmetry_equiv_pos_site_id
 _symmetry_equiv_pos_as_xyz
  1  'x, y, z'
loop_
 _atom_site_type_symbol
 _atom_site_label
 _atom_site_symmetry_multiplicity
 _atom_site_fract_x
 _atom_site_fract_y
 _atom_site_fract_z
 _atom_site_occupancy
  Nd  Nd0  1  0.00000000  0.00000000  0.00000000  1
  Zn  Zn0  1  0.38633398  0.38633398  0.22734888  1
  Zn  Zn1  1  0.61366602  0.61366602  0.77265112  1
  Ga  Ga0  1  0.74995435  0.25004565  0.50000000  1
  Ga  Ga1  1  0.25004565  0.74995435  0.50000000  1
loop_
_geom_bond_atom_site_label_1
_geom_bond_atom_site_label_2
_geom_bond_distance
_geom_bond_site_symmetry_2
Nd0 Zn0 3.210251 1_445
Nd0 Zn1 3.210251 1_554
Nd0 Zn0 3.210369 1_555
Nd0 Zn1 3.210369 1_444
Nd0 Zn0 3.215844 1_455
Nd0 Zn1 3.215844 1_544
Nd0 Zn0 3.215845 1_545
Nd0 Zn1 3.215845 1_454
Zn0 Zn1 2.406509 1_554
Ga0 Zn0 2.553315 1_555
Ga0 Zn1 2.553315 1_555
Ga0 Zn0 2.553672 1_655
Ga0 Zn1 2.553673 1_545
Ga0 Nd0 3.382290 1_556
Ga0 Nd0 3.382291 1_665
Ga0 Nd0 3.382557 1_655
Ga0 Nd0 3.382557 1_656
Ga1 Zn1 2.553315 1_555
Ga1 Zn0 2.553315 1_555
Ga1 Zn1 2.553672 1_455
Ga1 Zn0 2.553673 1_565
Ga1 Nd0 3.382290 1_665
Ga1 Nd0 3.382291 1_556
Ga1 Nd0 3.382557 1_566
Ga1 Nd0 3.382557 1_565
