# generated using pymatgen
data_ZrSiAs
_symmetry_space_group_name_H-M   'P 1'
_cell_length_a   3.59322500
_cell_length_b   6.52898000
_cell_length_c   9.36399200
_cell_angle_alpha   90.00000000
_cell_angle_beta   90.00000000
_cell_angle_gamma   90.00000000
_symmetry_Int_Tables_number   1
_chemical_formula_structural   ZrSiAs
_chemical_formula_sum   'Zr4 Si4 As4'
_cell_volume   219.68013404
_cell_formula_units_Z   4
loop_
 _symmetry_equiv_pos_site_id
 _symmetry_equiv_pos_as_xyz
  1  'x, y, z'
loop_
 _atom_site_type_symbol
 _atom_site_label
 _atom_site_symmetry_multiplicity
 _atom_site_fract_x
 _atom_site_fract_y
 _atom_site_fract_z
 _atom_site_occupancy
  Zr  Zr0  1  0.25000000  0.72733800  0.83701200  1
  Zr  Zr1  1  0.75000000  0.27266200  0.16298800  1
  Zr  Zr2  1  0.75000000  0.77266200  0.33701200  1
  Zr  Zr3  1  0.25000000  0.22733800  0.66298800  1
  Si  Si0  1  0.25000000  0.61661100  0.54007200  1
  Si  Si1  1  0.75000000  0.38338900  0.45992800  1
  Si  Si2  1  0.75000000  0.88338900  0.04007200  1
  Si  Si3  1  0.25000000  0.11661100  0.95992800  1
  As  As0  1  0.25000000  0.61412600  0.13921800  1
  As  As1  1  0.75000000  0.38587400  0.86078200  1
  As  As2  1  0.75000000  0.88587400  0.63921800  1
  As  As3  1  0.25000000  0.11412600  0.36078200  1
loop_
_geom_bond_atom_site_label_1
_geom_bond_atom_site_label_2
_geom_bond_distance
_geom_bond_site_symmetry_2
Si0 Si1 2.471768 1_555
Si0 Si1 2.471768 1_455
Si0 Zr3 2.790031 1_555
Si0 Zr2 2.807383 1_455
Si0 Zr2 2.807383 1_555
Si0 Zr0 2.872988 1_555
Si1 Zr2 2.790031 1_555
Si1 Zr3 2.807383 1_655
Si1 Zr3 2.807383 1_555
Si1 Zr1 2.872988 1_555
Si2 Si3 2.471768 1_564
Si2 Si3 2.471768 1_664
Si2 Zr1 2.790031 1_565
Si2 Zr0 2.807383 1_654
Si2 Zr0 2.807383 1_554
Si2 Zr2 2.872988 1_555
Si3 Zr0 2.790031 1_545
Si3 Zr1 2.807383 1_456
Si3 Zr1 2.807383 1_556
Si3 Zr3 2.872988 1_555
As0 Si2 2.679619 1_555
As0 Si2 2.679619 1_455
As0 Zr2 2.780222 1_555
As0 Zr2 2.780222 1_455
As0 Zr1 2.871870 1_555
As0 Zr1 2.871870 1_455
As0 Zr0 2.924796 1_554
As1 Si3 2.679619 1_655
As1 Si3 2.679619 1_555
As1 Zr3 2.780222 1_655
As1 Zr3 2.780222 1_555
As1 Zr0 2.871870 1_555
As1 Zr0 2.871870 1_655
As1 Zr1 2.924796 1_556
As2 Si0 2.679619 1_655
As2 Si0 2.679619 1_555
As2 Zr0 2.780222 1_655
As2 Zr0 2.780222 1_555
As2 Zr3 2.871870 1_665
As2 Zr3 2.871870 1_565
As2 Zr2 2.924796 1_555
As3 Si1 2.679619 1_455
As3 Si1 2.679619 1_555
As3 Zr1 2.780222 1_555
As3 Zr1 2.780222 1_455
As3 Zr2 2.871870 1_445
As3 Zr2 2.871870 1_545
As3 Zr3 2.924796 1_555
