# generated using pymatgen
data_GdZnPd
_symmetry_space_group_name_H-M   'P 1'
_cell_length_a   3.88089948
_cell_length_b   7.31120904
_cell_length_c   7.29429111
_cell_angle_alpha   120.07483587
_cell_angle_beta   90.00000000
_cell_angle_gamma   90.00000000
_symmetry_Int_Tables_number   1
_chemical_formula_structural   GdZnPd
_chemical_formula_sum   'Gd3 Zn3 Pd3'
_cell_volume   179.10484126
_cell_formula_units_Z   3
loop_
 _symmetry_equiv_pos_site_id
 _symmetry_equiv_pos_as_xyz
  1  'x, y, z'
loop_
 _atom_site_type_symbol
 _atom_site_label
 _atom_site_symmetry_multiplicity
 _atom_site_fract_x
 _atom_site_fract_y
 _atom_site_fract_z
 _atom_site_occupancy
  Gd  Gd0  1  0.50000000  0.59442939  1.00000013  1
  Gd  Gd1  1  0.50000000  0.40508542  0.40423231  1
  Gd  Gd2  1  0.50000000  0.00085290  0.59576602  1
  Zn  Zn0  1  -0.00000000  0.24862803  -0.00000117  1
  Zn  Zn1  1  -0.00000000  0.75185938  0.75162294  1
  Zn  Zn2  1  0.00000000  0.00023607  0.24837757  1
  Pd  Pd0  1  0.00000000  0.33301069  0.66642441  1
  Pd  Pd1  1  0.00000000  0.66658804  0.33357450  1
  Pd  Pd2  1  0.50000000  0.99921106  0.00000230  1
loop_
_geom_bond_atom_site_label_1
_geom_bond_atom_site_label_2
_geom_bond_distance
_geom_bond_site_symmetry_2
Gd0 Pd1 2.945761 1_556
Gd0 Pd1 2.945761 1_656
Gd0 Pd0 2.945804 1_655
Gd0 Pd0 2.945804 1_555
Gd0 Pd2 2.959435 1_556
Gd0 Zn0 3.187044 1_656
Gd0 Zn0 3.187044 1_556
Gd0 Zn1 3.234590 1_655
Gd0 Zn1 3.234590 1_555
Gd0 Zn2 3.234654 1_666
Gd0 Zn2 3.234654 1_566
Gd1 Pd1 2.945159 1_555
Gd1 Pd1 2.945159 1_655
Gd1 Pd0 2.951404 1_655
Gd1 Pd0 2.951404 1_555
Gd1 Pd2 2.954700 1_545
Gd1 Zn1 3.189872 1_555
Gd1 Zn1 3.189872 1_655
Gd1 Zn0 3.222973 1_555
Gd1 Zn0 3.222973 1_655
Gd1 Zn2 3.232088 1_655
Gd1 Zn2 3.232088 1_555
Gd2 Pd0 2.945166 1_555
Gd2 Pd0 2.945166 1_655
Gd2 Pd1 2.951451 1_545
Gd2 Pd1 2.951451 1_645
Gd2 Pd2 2.954651 1_546
Gd2 Zn2 3.189801 1_555
Gd2 Zn2 3.189801 1_655
Gd2 Zn0 3.222986 1_556
Gd2 Zn0 3.222986 1_656
Gd2 Zn1 3.232043 1_645
Gd2 Zn1 3.232043 1_545
Pd0 Zn2 2.789654 1_555
Pd0 Zn0 2.793841 1_556
Pd0 Zn1 2.802933 1_555
Pd1 Zn1 2.789610 1_555
Pd1 Zn0 2.793951 1_555
Pd1 Zn2 2.802875 1_565
Pd2 Zn2 2.652193 1_665
Pd2 Zn2 2.652193 1_565
Pd2 Zn1 2.652242 1_654
Pd2 Zn1 2.652242 1_554
Pd2 Zn0 2.662835 1_665
Pd2 Zn0 2.662835 1_565
