# generated using pymatgen
data_SmMg2Cr3S8
_symmetry_space_group_name_H-M   'P 1'
_cell_length_a   7.47872266
_cell_length_b   7.49320347
_cell_length_c   7.49365462
_cell_angle_alpha   58.93402922
_cell_angle_beta   58.83723436
_cell_angle_gamma   58.83750573
_symmetry_Int_Tables_number   1
_chemical_formula_structural   SmMg2Cr3S8
_chemical_formula_sum   'Sm1 Mg2 Cr3 S8'
_cell_volume   289.28025528
_cell_formula_units_Z   1
loop_
 _symmetry_equiv_pos_site_id
 _symmetry_equiv_pos_as_xyz
  1  'x, y, z'
loop_
 _atom_site_type_symbol
 _atom_site_label
 _atom_site_symmetry_multiplicity
 _atom_site_fract_x
 _atom_site_fract_y
 _atom_site_fract_z
 _atom_site_occupancy
  Sm  Sm0  1  0.49999900  0.49998400  0.50002800  1
  Mg  Mg0  1  0.87500300  0.87544700  0.87545200  1
  Mg  Mg1  1  0.12497700  0.12454400  0.12456000  1
  Cr  Cr0  1  0.49998100  0.50001600  0.00002600  1
  Cr  Cr1  1  0.99997300  0.49999200  0.50006400  1
  Cr  Cr2  1  0.49998700  0.99998400  0.49982700  1
  S  S0  1  0.73645200  0.73675500  0.73678900  1
  S  S1  1  0.24138900  0.24150600  0.72201900  1
  S  S2  1  0.24143100  0.72204000  0.24147300  1
  S  S3  1  0.72123800  0.24153900  0.24155100  1
  S  S4  1  0.75861600  0.27800700  0.75848900  1
  S  S5  1  0.27877800  0.75845200  0.75847200  1
  S  S6  1  0.26359600  0.26320400  0.26325900  1
  S  S7  1  0.75858500  0.75852800  0.27799100  1
loop_
_geom_bond_atom_site_label_1
_geom_bond_atom_site_label_2
_geom_bond_distance
_geom_bond_site_symmetry_2
Mg0 S4 2.443061 1_565
Mg0 S7 2.443090 1_556
Mg0 S5 2.443245 1_655
Mg0 S0 2.564507 1_555
Mg1 S2 2.442684 1_545
Mg1 S3 2.443005 1_455
Mg1 S1 2.443077 1_554
Mg1 S6 2.564950 1_555
Cr0 S5 2.435025 1_554
Cr0 S3 2.435158 1_555
Cr0 S2 2.436564 1_555
Cr0 S4 2.436987 1_554
Cr0 S6 2.488014 1_555
Cr0 S0 2.488078 1_554
Cr1 S4 2.437301 1_555
Cr1 S1 2.437552 1_655
Cr1 S7 2.438011 1_555
Cr1 S2 2.438200 1_655
Cr1 S0 2.487892 1_555
Cr1 S6 2.488461 1_655
Cr2 S5 2.434958 1_555
Cr2 S3 2.435115 1_565
Cr2 S7 2.435699 1_555
Cr2 S1 2.437785 1_565
Cr2 S6 2.486886 1_565
Cr2 S0 2.489244 1_555
S1 Sm0 2.735153 1_555
S2 Sm0 2.735404 1_555
S3 Sm0 2.734592 1_555
S4 Sm0 2.735220 1_555
S5 Sm0 2.734552 1_555
S7 Sm0 2.735350 1_555
