# generated using pymatgen
data_In11S16
_symmetry_space_group_name_H-M   'P 1'
_cell_length_a   7.70837831
_cell_length_b   7.70838035
_cell_length_c   10.91781188
_cell_angle_alpha   90.00000000
_cell_angle_beta   90.00000000
_cell_angle_gamma   90.00000000
_symmetry_Int_Tables_number   1
_chemical_formula_structural   In11S16
_chemical_formula_sum   'In11 S16'
_cell_volume   648.72668575
_cell_formula_units_Z   1
loop_
 _symmetry_equiv_pos_site_id
 _symmetry_equiv_pos_as_xyz
  1  'x, y, z'
loop_
 _atom_site_type_symbol
 _atom_site_label
 _atom_site_symmetry_multiplicity
 _atom_site_fract_x
 _atom_site_fract_y
 _atom_site_fract_z
 _atom_site_occupancy
  In  In0  1  0.74709640  0.50000000  0.86606409  1
  In  In1  1  0.26819924  0.00000000  0.37758411  1
  In  In2  1  0.25290360  0.50000000  0.86606409  1
  In  In3  1  0.73180076  0.00000000  0.37758411  1
  In  In4  1  0.50000000  0.25290360  0.13393591  1
  In  In5  1  -0.00000000  0.73180076  0.62241589  1
  In  In6  1  0.50000000  0.74709640  0.13393591  1
  In  In7  1  -0.00000000  0.26819924  0.62241589  1
  In  In8  1  -0.00000000  0.00000000  -0.00000000  1
  In  In9  1  0.50000000  0.00000000  0.74445895  1
  In  In10  1  -0.00000000  0.50000000  0.25554105  1
  S  S0  1  0.73646767  0.00000000  0.13008929  1
  S  S1  1  0.23905674  0.50000000  0.63423919  1
  S  S2  1  0.26353233  0.00000000  0.13008929  1
  S  S3  1  0.76094326  0.50000000  0.63423919  1
  S  S4  1  0.50000000  0.76094326  0.36576081  1
  S  S5  1  -0.00000000  0.26353233  0.86991071  1
  S  S6  1  0.50000000  0.23905674  0.36576081  1
  S  S7  1  -0.00000000  0.73646767  0.86991071  1
  S  S8  1  0.26306827  0.50000000  0.11227703  1
  S  S9  1  0.77376409  0.00000000  0.61825078  1
  S  S10  1  0.73693173  0.50000000  0.11227703  1
  S  S11  1  0.22623591  0.00000000  0.61825078  1
  S  S12  1  0.50000000  0.73693173  0.88772297  1
  S  S13  1  -0.00000000  0.22623591  0.38174922  1
  S  S14  1  0.50000000  0.26306827  0.88772297  1
  S  S15  1  -0.00000000  0.77376409  0.38174922  1
loop_
_geom_bond_atom_site_label_1
_geom_bond_atom_site_label_2
_geom_bond_distance
_geom_bond_site_symmetry_2
In0 S3 2.533270 1_555
In0 S14 2.649422 1_555
In0 S12 2.649422 1_555
In0 S7 2.669225 1_655
In0 S5 2.669225 1_655
In0 S10 2.689248 1_556
In1 S4 2.570027 1_545
In1 S6 2.570027 1_555
In1 S11 2.647389 1_555
In1 S2 2.702341 1_555
In1 S15 2.705063 1_545
In1 S13 2.705063 1_555
In2 S1 2.533270 1_555
In2 S14 2.649422 1_555
In2 S12 2.649422 1_555
In2 S7 2.669225 1_555
In2 S5 2.669225 1_555
In2 S8 2.689248 1_556
In3 S4 2.570027 1_545
In3 S6 2.570027 1_555
In3 S9 2.647389 1_555
In3 S0 2.702341 1_555
In3 S15 2.705063 1_645
In3 S13 2.705063 1_655
In4 S6 2.533270 1_555
In4 S8 2.649422 1_555
In4 S10 2.649422 1_555
In4 S0 2.669225 1_555
In4 S2 2.669225 1_555
In4 S14 2.689248 1_554
In5 S3 2.570027 1_455
In5 S1 2.570027 1_555
In5 S15 2.647389 1_555
In5 S7 2.702341 1_555
In5 S9 2.705063 1_465
In5 S11 2.705063 1_565
In6 S4 2.533270 1_555
In6 S8 2.649422 1_555
In6 S10 2.649422 1_555
In6 S2 2.669225 1_565
In6 S0 2.669225 1_565
In6 S12 2.689248 1_554
In7 S3 2.570027 1_455
In7 S1 2.570027 1_555
In7 S13 2.647389 1_555
In7 S5 2.702341 1_555
In7 S11 2.705063 1_555
In7 S9 2.705063 1_455
In8 S2 2.478677 1_555
In8 S0 2.478677 1_455
In8 S5 2.478677 1_554
In8 S7 2.478677 1_544
In9 S9 2.520303 1_555
In9 S11 2.520303 1_555
In9 S12 2.560976 1_545
In9 S14 2.560976 1_555
In10 S13 2.520303 1_555
In10 S15 2.520303 1_555
In10 S8 2.560975 1_555
In10 S10 2.560975 1_455
