# generated using pymatgen
data_CsSm(MoO4)2
_symmetry_space_group_name_H-M   'P 1'
_cell_length_a   5.08836433
_cell_length_b   8.14267111
_cell_length_c   9.58360648
_cell_angle_alpha   90.00000000
_cell_angle_beta   90.00000000
_cell_angle_gamma   90.00000000
_symmetry_Int_Tables_number   1
_chemical_formula_structural   CsSm(MoO4)2
_chemical_formula_sum   'Cs2 Sm2 Mo4 O16'
_cell_volume   397.07639068
_cell_formula_units_Z   2
loop_
 _symmetry_equiv_pos_site_id
 _symmetry_equiv_pos_as_xyz
  1  'x, y, z'
loop_
 _atom_site_type_symbol
 _atom_site_label
 _atom_site_symmetry_multiplicity
 _atom_site_fract_x
 _atom_site_fract_y
 _atom_site_fract_z
 _atom_site_occupancy
  Cs  Cs0  1  0.00000000  0.25000000  0.50000000  1
  Cs  Cs1  1  0.00000000  0.75000000  0.50000000  1
  Sm  Sm0  1  0.00000000  0.25000000  -0.00000000  1
  Sm  Sm1  1  0.00000000  0.75000000  0.00000000  1
  Mo  Mo0  1  0.52083805  0.00000000  0.19766941  1
  Mo  Mo1  1  0.47916195  -0.00000000  0.80233059  1
  Mo  Mo2  1  0.47916195  0.50000000  0.19766941  1
  Mo  Mo3  1  0.52083805  0.50000000  0.80233059  1
  O  O0  1  0.25507187  0.00000000  0.06752140  1
  O  O1  1  0.74492813  -0.00000000  0.93247860  1
  O  O2  1  0.74492813  0.50000000  0.06752140  1
  O  O3  1  0.25507187  0.50000000  0.93247860  1
  O  O4  1  0.26520633  0.32779781  0.18996243  1
  O  O5  1  0.73479367  0.67220219  0.81003757  1
  O  O6  1  0.73479367  0.32779781  0.81003757  1
  O  O7  1  0.73479367  0.17220219  0.18996243  1
  O  O8  1  0.26520633  0.67220219  0.18996243  1
  O  O9  1  0.26520633  0.82779781  0.81003757  1
  O  O10  1  0.26520633  0.17220219  0.81003757  1
  O  O11  1  0.73479367  0.82779781  0.18996243  1
  O  O12  1  0.38011645  -0.00000000  0.36042572  1
  O  O13  1  0.61988355  -0.00000000  0.63957428  1
  O  O14  1  0.61988355  0.50000000  0.36042572  1
  O  O15  1  0.38011645  0.50000000  0.63957428  1
loop_
_geom_bond_atom_site_label_1
_geom_bond_atom_site_label_2
_geom_bond_distance
_geom_bond_site_symmetry_2
Cs0 O15 3.110338 1_555
Cs0 O12 3.110338 1_555
Cs0 O13 3.110338 1_455
Cs0 O14 3.110338 1_455
Cs0 O7 3.324282 1_455
Cs0 O4 3.324282 1_555
Cs0 O10 3.324282 1_555
Cs0 O6 3.324282 1_455
Cs1 O15 3.110338 1_555
Cs1 O13 3.110338 1_465
Cs1 O14 3.110338 1_455
Cs1 O12 3.110338 1_565
Cs1 O5 3.324282 1_455
Cs1 O11 3.324282 1_455
Cs1 O8 3.324282 1_555
Cs1 O9 3.324282 1_555
Mo0 O12 1.716295 1_555
Mo0 O7 1.776742 1_555
Mo0 O11 1.776742 1_545
Mo0 O0 1.839696 1_555
Mo1 O13 1.716295 1_555
Mo1 O10 1.776742 1_555
Mo1 O9 1.776742 1_545
Mo1 O1 1.839696 1_555
Mo2 O14 1.716295 1_555
Mo2 O4 1.776742 1_555
Mo2 O8 1.776742 1_555
Mo2 O2 1.839696 1_555
Mo3 O15 1.716295 1_555
Mo3 O6 1.776742 1_555
Mo3 O5 1.776742 1_555
Mo3 O3 1.839696 1_555
O0 Sm1 2.499444 1_545
O0 Sm0 2.499444 1_555
O1 Sm0 2.499444 1_656
O1 Sm1 2.499444 1_646
O2 Sm0 2.499444 1_655
O2 Sm1 2.499444 1_655
O3 Sm0 2.499444 1_556
O3 Sm1 2.499444 1_556
O4 Sm0 2.353013 1_555
O5 Sm1 2.353013 1_656
O6 Sm0 2.353013 1_656
O7 Sm0 2.353013 1_655
O8 Sm1 2.353013 1_555
O9 Sm1 2.353013 1_556
O10 Sm0 2.353013 1_556
O11 Sm1 2.353013 1_655
