# generated using pymatgen
data_SrLa4Si3O13
_symmetry_space_group_name_H-M   'P 1'
_cell_length_a   9.76843263
_cell_length_b   9.76843263
_cell_length_c   7.27346500
_cell_angle_alpha   90.00000000
_cell_angle_beta   90.00000000
_cell_angle_gamma   120.00000430
_symmetry_Int_Tables_number   1
_chemical_formula_structural   SrLa4Si3O13
_chemical_formula_sum   'Sr2 La8 Si6 O26'
_cell_volume   601.06541270
_cell_formula_units_Z   2
loop_
 _symmetry_equiv_pos_site_id
 _symmetry_equiv_pos_as_xyz
  1  'x, y, z'
loop_
 _atom_site_type_symbol
 _atom_site_label
 _atom_site_symmetry_multiplicity
 _atom_site_fract_x
 _atom_site_fract_y
 _atom_site_fract_z
 _atom_site_occupancy
  Sr  Sr0  1  0.33333300  0.66666700  0.49985000  1
  Sr  Sr1  1  0.66666700  0.33333300  0.99985000  1
  La  La0  1  0.66666700  0.33333300  0.49997900  1
  La  La1  1  0.33333300  0.66666700  0.99997900  1
  La  La2  1  0.23228700  0.98876800  0.25046800  1
  La  La3  1  0.75648100  0.76771300  0.25046800  1
  La  La4  1  0.01123200  0.24351900  0.25046800  1
  La  La5  1  0.76771300  0.01123200  0.75046800  1
  La  La6  1  0.24351900  0.23228700  0.75046800  1
  La  La7  1  0.98876800  0.75648100  0.75046800  1
  Si  Si0  1  0.97063700  0.60038600  0.24887300  1
  Si  Si1  1  0.62974900  0.02936300  0.24887300  1
  Si  Si2  1  0.39961400  0.37025100  0.24887300  1
  Si  Si3  1  0.02936300  0.39961400  0.74887300  1
  Si  Si4  1  0.37025100  0.97063700  0.74887300  1
  Si  Si5  1  0.60038600  0.62974900  0.74887300  1
  O  O0  1  0.16264200  0.67876600  0.24472400  1
  O  O1  1  0.51612300  0.83735800  0.24472400  1
  O  O2  1  0.32123400  0.48387700  0.24472400  1
  O  O3  1  0.83735800  0.32123400  0.74472400  1
  O  O4  1  0.48387700  0.16264200  0.74472400  1
  O  O5  1  0.67876600  0.51612300  0.74472400  1
  O  O6  1  0.91040800  0.65786400  0.43114600  1
  O  O7  1  0.74745700  0.08959200  0.43114600  1
  O  O8  1  0.34213600  0.25254300  0.43114600  1
  O  O9  1  0.08959200  0.34213600  0.93114600  1
  O  O10  1  0.25254300  0.91040800  0.93114600  1
  O  O11  1  0.65786400  0.74745700  0.93114600  1
  O  O12  1  0.08807600  0.33841500  0.56967800  1
  O  O13  1  0.25033900  0.91192400  0.56967800  1
  O  O14  1  0.66158500  0.74966100  0.56967800  1
  O  O15  1  0.91192400  0.66158500  0.06967800  1
  O  O16  1  0.74966100  0.08807600  0.06967800  1
  O  O17  1  0.33841500  0.25033900  0.06967800  1
  O  O18  1  0.87703300  0.40602600  0.25493400  1
  O  O19  1  0.52899300  0.12296700  0.25493400  1
  O  O20  1  0.59397400  0.47100700  0.25493400  1
  O  O21  1  0.12296700  0.59397400  0.75493400  1
  O  O22  1  0.47100700  0.87703300  0.75493400  1
  O  O23  1  0.40602600  0.52899300  0.75493400  1
  O  O24  1  0.00000000  0.00000000  0.25068600  1
  O  O25  1  0.00000000  0.00000000  0.75068600  1
loop_
_geom_bond_atom_site_label_1
_geom_bond_atom_site_label_2
_geom_bond_distance
_geom_bond_site_symmetry_2
La0 O4 2.481958 1_555
La0 O5 2.481958 1_555
La0 O3 2.481958 1_555
La0 O18 2.538605 1_555
La0 O19 2.538607 1_555
La0 O20 2.538612 1_555
La0 O6 2.901986 1_555
La0 O8 2.901986 1_555
La0 O7 2.901986 1_555
La1 O1 2.481958 1_556
La1 O2 2.481958 1_556
La1 O0 2.481958 1_556
La1 O21 2.538605 1_555
La1 O22 2.538607 1_555
La1 O23 2.538612 1_555
La1 O9 2.901986 1_555
La1 O11 2.901986 1_555
La1 O10 2.901986 1_555
La2 O24 2.325882 1_565
La2 O13 2.473361 1_555
La2 O10 2.484129 1_554
La2 O19 2.514062 1_565
La2 O17 2.585287 1_565
La2 O8 2.598608 1_565
La2 O0 2.752200 1_555
La3 O24 2.325882 1_665
La3 O14 2.473361 1_555
La3 O11 2.484133 1_554
La3 O20 2.514062 1_555
La3 O15 2.585288 1_555
La3 O6 2.598616 1_555
La3 O1 2.752210 1_555
La4 O24 2.325882 1_555
La4 O12 2.473361 1_555
La4 O9 2.484132 1_554
La4 O18 2.514062 1_455
La4 O16 2.585287 1_455
La4 O7 2.598609 1_455
La4 O2 2.752203 1_555
La5 O25 2.325882 1_655
La5 O16 2.473361 1_556
La5 O7 2.484129 1_555
La5 O22 2.514062 1_545
La5 O14 2.585287 1_545
La5 O11 2.598608 1_545
La5 O3 2.752200 1_555
La6 O25 2.325882 1_555
La6 O17 2.473361 1_556
La6 O8 2.484133 1_555
La6 O23 2.514062 1_555
La6 O12 2.585288 1_555
La6 O9 2.598616 1_555
La6 O4 2.752210 1_555
La7 O25 2.325882 1_665
La7 O15 2.473361 1_556
La7 O6 2.484132 1_555
La7 O21 2.514062 1_655
La7 O13 2.585287 1_655
La7 O10 2.598609 1_655
La7 O5 2.752203 1_555
O0 Si0 1.633682 1_455
O0 Sr0 2.536659 1_555
O1 Si1 1.633683 1_565
O1 Sr0 2.536659 1_555
O2 Si2 1.633691 1_555
O2 Sr0 2.536659 1_555
O3 Si3 1.633682 1_655
O3 Sr1 2.536659 1_555
O4 Si4 1.633683 1_545
O4 Sr1 2.536659 1_555
O5 Si5 1.633691 1_555
O5 Sr1 2.536659 1_555
O6 Si0 1.658120 1_555
O7 Si1 1.658125 1_555
O8 Si2 1.658125 1_555
O9 Si3 1.658120 1_555
O10 Si4 1.658125 1_555
O11 Si5 1.658125 1_555
O12 Si3 1.651656 1_555
O12 Sr0 2.932117 1_555
O13 Si4 1.651656 1_555
O13 Sr0 2.932111 1_555
O14 Si5 1.651656 1_555
O14 Sr0 2.932120 1_555
O15 Si0 1.651656 1_555
O15 Sr1 2.932117 1_554
O16 Si1 1.651656 1_555
O16 Sr1 2.932111 1_554
O17 Si2 1.651656 1_555
O17 Sr1 2.932120 1_554
O18 Si0 1.645191 1_555
O18 Sr1 2.590393 1_554
O19 Si1 1.645191 1_555
O19 Sr1 2.590394 1_554
O20 Si2 1.645191 1_555
O20 Sr1 2.590399 1_554
O21 Si3 1.645191 1_555
O21 Sr0 2.590393 1_555
O22 Si4 1.645191 1_555
O22 Sr0 2.590394 1_555
O23 Si5 1.645191 1_555
O23 Sr0 2.590399 1_555
