# generated using pymatgen
data_Sr3CaTi4O12
_symmetry_space_group_name_H-M   'P 1'
_cell_length_a   5.54707843
_cell_length_b   5.54707843
_cell_length_c   9.59927718
_cell_angle_alpha   73.39391373
_cell_angle_beta   73.39391373
_cell_angle_gamma   60.25150192
_symmetry_Int_Tables_number   1
_chemical_formula_structural   Sr3CaTi4O12
_chemical_formula_sum   'Sr3 Ca1 Ti4 O12'
_cell_volume   242.04059422
_cell_formula_units_Z   1
loop_
 _symmetry_equiv_pos_site_id
 _symmetry_equiv_pos_as_xyz
  1  'x, y, z'
loop_
 _atom_site_type_symbol
 _atom_site_label
 _atom_site_symmetry_multiplicity
 _atom_site_fract_x
 _atom_site_fract_y
 _atom_site_fract_z
 _atom_site_occupancy
  Sr  Sr0  1  0.12467100  0.87532900  0.50000000  1
  Sr  Sr1  1  0.37355500  0.12582900  0.75059900  1
  Sr  Sr2  1  0.87417100  0.62644500  0.24940100  1
  Ca  Ca0  1  0.62005000  0.37995000  0.00000000  1
  Ti  Ti0  1  0.24755200  0.00347800  0.12330700  1
  Ti  Ti1  1  0.74818700  0.50120000  0.62686800  1
  Ti  Ti2  1  0.99652200  0.75244800  0.87669300  1
  Ti  Ti3  1  0.49880000  0.25181300  0.37313200  1
  O  O0  1  0.91372400  0.58511400  0.75166300  1
  O  O1  1  0.41488600  0.08627600  0.24833700  1
  O  O2  1  0.05974100  0.94025900  0.00000000  1
  O  O3  1  0.58961400  0.41038600  0.50000000  1
  O  O4  1  0.63236800  0.88201400  0.50920300  1
  O  O5  1  0.15571200  0.38410500  0.00981600  1
  O  O6  1  0.61589500  0.84428800  0.99018400  1
  O  O7  1  0.11798600  0.36763200  0.49079700  1
  O  O8  1  0.39020300  0.62998300  0.76502400  1
  O  O9  1  0.88800100  0.13165600  0.26034200  1
  O  O10  1  0.37001700  0.60979700  0.23497600  1
  O  O11  1  0.86834400  0.11199900  0.73965800  1
loop_
_geom_bond_atom_site_label_1
_geom_bond_atom_site_label_2
_geom_bond_distance
_geom_bond_site_symmetry_2
Ca0 O2 2.448266 1_645
Ca0 O6 2.539162 1_554
Ca0 O5 2.539162 1_555
Ca0 O10 2.595709 1_555
Ca0 O8 2.595709 1_554
Ca0 O0 2.775100 1_554
Ca0 O1 2.775100 1_555
Ca0 O9 2.911332 1_555
Ca0 O11 2.911332 1_554
Ca0 O5 3.011249 1_655
Ca0 O6 3.011249 1_544
Ca0 O2 3.119886 1_555
O0 Ti1 1.966353 1_555
O0 Ti2 1.971779 1_555
O0 Sr1 2.558907 1_655
O0 Sr0 2.797784 1_655
O0 Sr1 3.009279 1_565
O1 Ti3 1.966353 1_555
O1 Ti0 1.971779 1_555
O1 Sr2 2.558907 1_545
O1 Sr0 2.797784 1_545
O1 Sr2 3.009279 1_455
O2 Ti2 1.978390 1_454
O2 Ti0 1.978390 1_565
O2 Sr2 2.794456 1_455
O2 Sr1 2.794456 1_564
O3 Ti1 1.978211 1_555
O3 Ti3 1.978211 1_555
O3 Sr0 2.588873 1_555
O3 Sr2 2.788157 1_555
O3 Sr1 2.788157 1_555
O3 Sr0 2.979279 1_645
O4 Ti1 1.963410 1_555
O4 Ti3 1.994072 1_565
O4 Sr1 2.687512 1_565
O4 Sr0 2.688897 1_655
O4 Sr0 2.861481 1_555
O4 Sr2 2.872327 1_555
O5 Ti0 1.959418 1_555
O5 Ti2 1.987358 1_454
O5 Sr2 2.676956 1_455
O5 Sr1 2.881896 1_554
O6 Ti2 1.959418 1_555
O6 Ti0 1.987358 1_566
O6 Sr1 2.676956 1_565
O6 Sr2 2.881896 1_556
O7 Ti3 1.963410 1_555
O7 Ti1 1.994072 1_455
O7 Sr2 2.687512 1_455
O7 Sr0 2.688897 1_545
O7 Sr0 2.861481 1_555
O7 Sr1 2.872327 1_555
O8 Ti1 1.959812 1_555
O8 Ti2 1.996359 1_455
O8 Sr1 2.670296 1_565
O8 Sr1 2.886782 1_555
O8 Sr0 2.944035 1_555
O9 Ti0 1.959972 1_655
O9 Ti3 1.981381 1_555
O9 Sr0 2.653655 1_645
O9 Sr2 2.679705 1_555
O9 Sr2 2.873466 1_545
O10 Ti3 1.959812 1_555
O10 Ti0 1.996359 1_565
O10 Sr2 2.670296 1_455
O10 Sr2 2.886782 1_555
O10 Sr0 2.944035 1_555
O11 Ti2 1.959972 1_545
O11 Ti1 1.981381 1_555
O11 Sr0 2.653655 1_645
O11 Sr1 2.679705 1_555
O11 Sr1 2.873466 1_655
