# generated using pymatgen
data_Mg2Si3
_symmetry_space_group_name_H-M   'P 1'
_cell_length_a   3.78373600
_cell_length_b   5.88871249
_cell_length_c   17.36904040
_cell_angle_alpha   93.78127033
_cell_angle_beta   92.91799196
_cell_angle_gamma   97.95639356
_symmetry_Int_Tables_number   1
_chemical_formula_structural   Mg2Si3
_chemical_formula_sum   'Mg8 Si12'
_cell_volume   381.73919214
_cell_formula_units_Z   4
loop_
 _symmetry_equiv_pos_site_id
 _symmetry_equiv_pos_as_xyz
  1  'x, y, z'
loop_
 _atom_site_type_symbol
 _atom_site_label
 _atom_site_symmetry_multiplicity
 _atom_site_fract_x
 _atom_site_fract_y
 _atom_site_fract_z
 _atom_site_occupancy
  Mg  Mg0  1  0.29667400  0.92448200  0.21736100  1
  Mg  Mg1  1  0.81362800  0.12681800  0.79483500  1
  Mg  Mg2  1  0.34584700  0.16039200  0.06153700  1
  Mg  Mg3  1  0.77866600  0.84734900  0.94602200  1
  Mg  Mg4  1  0.67310300  0.61316600  0.72662900  1
  Mg  Mg5  1  0.42203400  0.48393800  0.28272700  1
  Mg  Mg6  1  0.00132300  0.56894200  0.55081400  1
  Mg  Mg7  1  0.38964800  0.25678600  0.43648400  1
  Si  Si0  1  0.18182400  0.65772600  0.05753500  1
  Si  Si1  1  0.91182300  0.35466300  0.95641800  1
  Si  Si2  1  0.69803400  0.60670400  0.14247900  1
  Si  Si3  1  0.39979600  0.42076300  0.87232800  1
  Si  Si4  1  0.08479400  0.95344800  0.65145200  1
  Si  Si5  1  0.85900900  0.16676300  0.31995700  1
  Si  Si6  1  0.88045800  0.07044800  0.52696800  1
  Si  Si7  1  0.51764600  0.75873600  0.44558200  1
  Si  Si8  1  0.61807300  0.20825200  0.64113000  1
  Si  Si9  1  0.00459500  0.79409000  0.35824800  1
  Si  Si10  1  0.85942100  0.23847200  0.18128900  1
  Si  Si11  1  0.26375400  0.78807900  0.83019500  1
loop_
_geom_bond_atom_site_label_1
_geom_bond_atom_site_label_2
_geom_bond_distance
_geom_bond_site_symmetry_2
Mg0 Si10 2.728126 1_465
Mg0 Si10 2.746615 1_565
Mg0 Si9 2.843826 1_555
Mg0 Si2 2.857708 1_555
Mg0 Si5 2.859459 1_565
Mg0 Si2 2.920561 1_455
Mg0 Si5 2.927901 1_465
Mg0 Si0 3.078273 1_555
Mg1 Si11 2.797808 1_545
Mg1 Si3 2.813774 1_555
Mg1 Si8 2.823254 1_555
Mg1 Si3 2.837769 1_655
Mg1 Si11 2.872722 1_645
Mg1 Si4 2.917536 1_645
Mg1 Si1 3.012322 1_555
Mg2 Si10 2.743874 1_555
Mg2 Si1 2.798143 1_454
Mg2 Si10 2.902254 1_455
Mg2 Si0 2.934591 1_545
Mg2 Si2 3.002012 1_555
Mg2 Si1 3.037063 1_554
Mg2 Si0 3.081017 1_555
Mg3 Si11 2.699089 1_555
Mg3 Si0 2.789504 1_656
Mg3 Si11 2.828200 1_655
Mg3 Si3 2.897575 1_555
Mg3 Si1 2.951960 1_565
Mg3 Si1 3.027940 1_555
Mg3 Si0 3.182881 1_556
Mg4 Si11 2.678936 1_555
Mg4 Si8 2.701517 1_555
Mg4 Si4 2.799086 1_655
Mg4 Si11 2.828505 1_655
Mg4 Si3 3.012900 1_555
Mg5 Si5 2.746951 1_555
Mg5 Si5 2.764602 1_455
Mg5 Si2 2.798117 1_555
Mg5 Si10 2.855818 1_455
Mg5 Si9 2.861856 1_655
Mg5 Si9 2.871354 1_555
Mg5 Si10 2.925019 1_555
Mg5 Si7 3.143353 1_555
Mg6 Si4 2.739672 1_555
Mg6 Si7 2.904187 1_455
Mg6 Si7 2.904323 1_555
Mg6 Si6 2.906284 1_455
Mg6 Si8 2.982186 1_455
Mg6 Si6 3.101316 1_465
Mg7 Si6 2.708590 1_455
Mg7 Si5 2.749325 1_455
Mg7 Si6 2.759941 1_555
Mg7 Si5 2.831339 1_555
Mg7 Si7 2.920755 1_555
Mg7 Si7 3.050875 1_545
Mg7 Si9 3.099073 1_545
Si0 Si2 2.408132 1_455
Si0 Si2 2.451448 1_555
Si0 Si1 2.492478 1_454
Si1 Si3 2.417517 1_655
Si1 Si3 2.456386 1_555
Si4 Si8 2.364140 1_565
Si4 Si6 2.433347 1_465
Si4 Si8 2.477685 1_465
Si5 Si9 2.460033 1_645
Si6 Si8 2.405664 1_555
Si6 Si7 2.452498 1_545
Si7 Si9 2.441132 1_655
Si7 Si9 2.442648 1_555
Si10 Si2 2.459015 1_555
Si10 Si5 2.472586 1_555
Si11 Si3 2.440865 1_555
