# generated using pymatgen
data_Li3V4(OF3)3
_symmetry_space_group_name_H-M   'P 1'
_cell_length_a   5.23505200
_cell_length_b   5.51482158
_cell_length_c   8.93586919
_cell_angle_alpha   105.18510557
_cell_angle_beta   89.62368367
_cell_angle_gamma   117.54183195
_symmetry_Int_Tables_number   1
_chemical_formula_structural   Li3V4(OF3)3
_chemical_formula_sum   'Li3 V4 O3 F9'
_cell_volume   218.77201886
_cell_formula_units_Z   1
loop_
 _symmetry_equiv_pos_site_id
 _symmetry_equiv_pos_as_xyz
  1  'x, y, z'
loop_
 _atom_site_type_symbol
 _atom_site_label
 _atom_site_symmetry_multiplicity
 _atom_site_fract_x
 _atom_site_fract_y
 _atom_site_fract_z
 _atom_site_occupancy
  Li  Li0  1  0.91411100  0.21696500  0.65158700  1
  Li  Li1  1  0.19853500  0.97734700  0.40345900  1
  Li  Li2  1  0.41346600  0.70505700  0.14208100  1
  V  V0  1  0.00717000  0.03399400  0.99311400  1
  V  V1  1  0.73360200  0.26652400  0.25333400  1
  V  V2  1  0.50014000  0.46831200  0.50249800  1
  V  V3  1  0.25504800  0.75098300  0.75353400  1
  O  O0  1  0.54216200  0.43013200  0.30756800  1
  O  O1  1  0.49313100  0.11369100  0.62056100  1
  O  O2  1  0.04698200  0.38554900  0.87246000  1
  F  F0  1  0.94693300  0.67301700  0.55511100  1
  F  F1  1  0.93987100  0.06650100  0.19818700  1
  F  F2  1  0.00759400  0.63633400  0.12833400  1
  F  F3  1  0.47848800  0.86258100  0.36594000  1
  F  F4  1  0.43983600  0.15029100  0.06967800  1
  F  F5  1  0.43237500  0.57185200  0.67268600  1
  F  F6  1  0.57029500  0.82225600  0.95031900  1
  F  F7  1  0.04312500  0.28057100  0.44737900  1
  F  F8  1  0.04826300  0.93727100  0.80619800  1
loop_
_geom_bond_atom_site_label_1
_geom_bond_atom_site_label_2
_geom_bond_distance
_geom_bond_site_symmetry_2
Li0 O2 1.924148 1_655
Li0 O1 2.005674 1_555
Li1 O1 2.215880 1_565
O0 V1 1.629156 1_555
O0 V2 1.724094 1_555
O1 V3 2.426215 1_545
O1 V2 2.439881 1_555
O2 V3 2.335369 1_555
O2 V0 2.383916 1_555
F0 V2 2.064171 1_555
F0 V3 2.219743 1_655
F0 Li1 2.347714 1_655
F1 V0 1.841784 1_654
F1 V1 1.853505 1_555
F2 Li2 1.976781 1_555
F2 V1 2.435450 1_455
F3 Li1 1.844200 1_555
F3 Li2 1.922795 1_555
F3 V1 2.482731 1_565
F4 V1 2.009890 1_555
F4 V0 2.111118 1_554
F5 V2 1.577969 1_555
F5 V3 1.680772 1_555
F6 V0 2.012019 1_665
F6 Li2 2.024618 1_556
F6 V3 2.246412 1_555
F7 Li0 2.002262 1_455
F7 V2 2.120409 1_555
F7 Li1 2.126603 1_545
F7 V1 2.342791 1_455
F8 V0 1.659887 1_565
F8 V3 1.793682 1_555
