# generated using pymatgen
data_CaHo2(GeO3)4
_symmetry_space_group_name_H-M   'P 1'
_cell_length_a   10.09423266
_cell_length_b   10.09423266
_cell_length_c   5.09553000
_cell_angle_alpha   90.00000000
_cell_angle_beta   90.00000000
_cell_angle_gamma   90.13380550
_symmetry_Int_Tables_number   1
_chemical_formula_structural   CaHo2(GeO3)4
_chemical_formula_sum   'Ca2 Ho4 Ge8 O24'
_cell_volume   519.20013854
_cell_formula_units_Z   2
loop_
 _symmetry_equiv_pos_site_id
 _symmetry_equiv_pos_as_xyz
  1  'x, y, z'
loop_
 _atom_site_type_symbol
 _atom_site_label
 _atom_site_symmetry_multiplicity
 _atom_site_fract_x
 _atom_site_fract_y
 _atom_site_fract_z
 _atom_site_occupancy
  Ca  Ca0  1  0.50000000  0.50000000  0.50000000  1
  Ca  Ca1  1  0.00000000  0.00000000  0.50000000  1
  Ho  Ho0  1  0.00000000  0.50000000  0.50000000  1
  Ho  Ho1  1  0.50000000  0.00000000  0.50000000  1
  Ho  Ho2  1  0.75000000  0.75000000  0.50000000  1
  Ho  Ho3  1  0.25000000  0.25000000  0.50000000  1
  Ge  Ge0  1  0.75032800  0.02061400  0.99716100  1
  Ge  Ge1  1  0.24967200  0.97938600  0.00283900  1
  Ge  Ge2  1  0.25032800  0.52061400  0.00283900  1
  Ge  Ge3  1  0.74967200  0.47938600  0.99716100  1
  Ge  Ge4  1  0.02061400  0.75032800  0.00283900  1
  Ge  Ge5  1  0.97938600  0.24967200  0.99716100  1
  Ge  Ge6  1  0.52061400  0.25032800  0.99716100  1
  Ge  Ge7  1  0.47938600  0.74967200  0.00283900  1
  O  O0  1  0.87029200  0.12970800  0.15196100  1
  O  O1  1  0.37627100  0.87627100  0.16579400  1
  O  O2  1  0.12372900  0.62372900  0.16579400  1
  O  O3  1  0.62970800  0.37029200  0.15196100  1
  O  O4  1  0.12970800  0.87029200  0.84803900  1
  O  O5  1  0.62372900  0.12372900  0.83420600  1
  O  O6  1  0.87627100  0.37627100  0.83420600  1
  O  O7  1  0.37029200  0.62970800  0.84803900  1
  O  O8  1  0.56870200  0.67704300  0.25360000  1
  O  O9  1  0.05853700  0.32777400  0.26012500  1
  O  O10  1  0.44146300  0.17222600  0.26012500  1
  O  O11  1  0.93129800  0.82295700  0.25360000  1
  O  O12  1  0.43129800  0.32295700  0.74640000  1
  O  O13  1  0.94146300  0.67222600  0.73987500  1
  O  O14  1  0.55853700  0.82777400  0.73987500  1
  O  O15  1  0.06870200  0.17704300  0.74640000  1
  O  O16  1  0.67704300  0.56870200  0.74640000  1
  O  O17  1  0.32777400  0.05853700  0.73987500  1
  O  O18  1  0.17222600  0.44146300  0.73987500  1
  O  O19  1  0.82295700  0.93129800  0.74640000  1
  O  O20  1  0.32295700  0.43129800  0.25360000  1
  O  O21  1  0.67222600  0.94146300  0.26012500  1
  O  O22  1  0.82777400  0.55853700  0.26012500  1
  O  O23  1  0.17704300  0.06870200  0.25360000  1
loop_
_geom_bond_atom_site_label_1
_geom_bond_atom_site_label_2
_geom_bond_distance
_geom_bond_site_symmetry_2
Ca0 O16 2.290261 1_555
Ca0 O8 2.290261 1_555
Ca0 O20 2.290261 1_555
Ca0 O12 2.290261 1_555
Ca0 O7 2.565474 1_555
Ca0 O3 2.565474 1_555
Ca1 O15 2.290261 1_555
Ca1 O23 2.290261 1_555
Ca1 O11 2.290261 1_445
Ca1 O19 2.290261 1_445
Ca1 O4 2.565474 1_545
Ca1 O0 2.565474 1_455
Ho0 O9 2.206872 1_555
Ho0 O18 2.206872 1_555
Ho0 O22 2.206872 1_455
Ho0 O13 2.206872 1_455
Ho0 O2 2.452045 1_555
Ho0 O6 2.452045 1_455
Ho1 O17 2.206872 1_555
Ho1 O10 2.206872 1_555
Ho1 O14 2.206872 1_545
Ho1 O21 2.206872 1_545
Ho1 O5 2.452045 1_555
Ho1 O1 2.452045 1_545
Ho2 O11 2.337000 1_555
Ho2 O19 2.337000 1_555
Ho2 O8 2.337000 1_555
Ho2 O16 2.337000 1_555
Ho2 O21 2.419222 1_555
Ho2 O13 2.419222 1_555
Ho2 O14 2.419222 1_555
Ho2 O22 2.419222 1_555
Ho3 O20 2.337000 1_555
Ho3 O12 2.337000 1_555
Ho3 O23 2.337000 1_555
Ho3 O15 2.337000 1_555
Ho3 O17 2.419222 1_555
Ho3 O10 2.419222 1_555
Ho3 O9 2.419222 1_555
Ho3 O18 2.419222 1_555
Ge0 O19 1.728029 1_545
Ge0 O21 1.747110 1_546
Ge0 O0 1.815222 1_556
Ge0 O5 1.847204 1_555
Ge1 O23 1.728029 1_565
Ge1 O17 1.747110 1_564
Ge1 O4 1.815222 1_554
Ge1 O1 1.847204 1_555
Ge2 O20 1.728029 1_555
Ge2 O18 1.747110 1_554
Ge2 O7 1.815222 1_554
Ge2 O2 1.847204 1_555
Ge3 O16 1.728029 1_555
Ge3 O22 1.747110 1_556
Ge3 O3 1.815222 1_556
Ge3 O6 1.847204 1_555
Ge4 O11 1.728029 1_455
Ge4 O13 1.747110 1_454
Ge4 O4 1.815222 1_554
Ge4 O2 1.847204 1_555
Ge5 O15 1.728029 1_655
Ge5 O9 1.747110 1_656
Ge5 O0 1.815222 1_556
Ge5 O6 1.847204 1_555
Ge6 O12 1.728029 1_555
Ge6 O10 1.747110 1_556
Ge6 O3 1.815222 1_556
Ge6 O5 1.847204 1_555
Ge7 O8 1.728029 1_555
Ge7 O14 1.747110 1_554
Ge7 O7 1.815222 1_554
Ge7 O1 1.847204 1_555
