# generated using pymatgen
data_YClO2
_symmetry_space_group_name_H-M   'P 1'
_cell_length_a   3.60004400
_cell_length_b   6.34357400
_cell_length_c   6.36749091
_cell_angle_alpha   109.94763798
_cell_angle_beta   90.00000000
_cell_angle_gamma   90.00000000
_symmetry_Int_Tables_number   1
_chemical_formula_structural   YClO2
_chemical_formula_sum   'Y2 Cl2 O4'
_cell_volume   136.69109505
_cell_formula_units_Z   2
loop_
 _symmetry_equiv_pos_site_id
 _symmetry_equiv_pos_as_xyz
  1  'x, y, z'
loop_
 _atom_site_type_symbol
 _atom_site_label
 _atom_site_symmetry_multiplicity
 _atom_site_fract_x
 _atom_site_fract_y
 _atom_site_fract_z
 _atom_site_occupancy
  Y  Y0  1  0.75000000  0.30715500  0.15814400  1
  Y  Y1  1  0.25000000  0.69284500  0.84185600  1
  Cl  Cl0  1  0.25000000  0.26196000  0.47563200  1
  Cl  Cl1  1  0.75000000  0.73804000  0.52436800  1
  O  O0  1  0.25000000  0.07642100  0.93929600  1
  O  O1  1  0.75000000  0.92357900  0.06070400  1
  O  O2  1  0.25000000  0.54851700  0.12648000  1
  O  O3  1  0.75000000  0.45148300  0.87352000  1
loop_
_geom_bond_atom_site_label_1
_geom_bond_atom_site_label_2
_geom_bond_distance
_geom_bond_site_symmetry_2
Cl0 Y0 2.793674 1_455
Cl0 Y0 2.793674 1_555
Cl0 Y1 2.925746 1_555
Cl1 Y1 2.793674 1_555
Cl1 Y1 2.793674 1_655
Cl1 Y0 2.925746 1_555
O0 Y1 2.296851 1_545
O0 Y0 2.435695 1_556
O0 Y0 2.435695 1_456
O1 Y0 2.296851 1_565
O1 Y1 2.435695 1_654
O1 Y1 2.435695 1_554
O2 Y1 2.292378 1_554
O2 Y0 2.415703 1_455
O2 Y0 2.415703 1_555
O3 Y0 2.292378 1_556
O3 Y1 2.415703 1_555
O3 Y1 2.415703 1_655
