# generated using pymatgen
data_ZnSn2H12(OF)6
_symmetry_space_group_name_H-M   'P 1'
_cell_length_a   6.52880500
_cell_length_b   6.80621281
_cell_length_c   7.55887443
_cell_angle_alpha   78.32319074
_cell_angle_beta   85.06253689
_cell_angle_gamma   87.46116176
_symmetry_Int_Tables_number   1
_chemical_formula_structural   ZnSn2H12(OF)6
_chemical_formula_sum   'Zn1 Sn2 H12 O6 F6'
_cell_volume   327.59316405
_cell_formula_units_Z   1
loop_
 _symmetry_equiv_pos_site_id
 _symmetry_equiv_pos_as_xyz
  1  'x, y, z'
loop_
 _atom_site_type_symbol
 _atom_site_label
 _atom_site_symmetry_multiplicity
 _atom_site_fract_x
 _atom_site_fract_y
 _atom_site_fract_z
 _atom_site_occupancy
  Zn  Zn0  1  0.00000000  0.00000000  0.00000000  1
  Sn  Sn0  1  0.64349000  0.64963500  0.62497100  1
  Sn  Sn1  1  0.35651000  0.35036500  0.37502900  1
  H  H0  1  0.72212500  0.64731000  0.96170800  1
  H  H1  1  0.27787500  0.35269000  0.03829200  1
  H  H2  1  0.71029700  0.04087100  0.25607300  1
  H  H3  1  0.28970300  0.95912900  0.74392700  1
  H  H4  1  0.65818700  0.05167000  0.80768000  1
  H  H5  1  0.34181300  0.94833000  0.19232000  1
  H  H6  1  0.94030200  0.21894800  0.63604400  1
  H  H7  1  0.05969800  0.78105200  0.36395600  1
  H  H8  1  0.07479900  0.86661400  0.70438200  1
  H  H9  1  0.92520100  0.13338600  0.29561800  1
  H  H10  1  0.63633600  0.56166100  0.87834500  1
  H  H11  1  0.36366400  0.43833900  0.12165500  1
  O  O0  1  0.86410400  0.02657200  0.24290800  1
  O  O1  1  0.13589600  0.97342800  0.75709200  1
  O  O2  1  0.81187100  0.28065800  0.68280000  1
  O  O3  1  0.18812900  0.71934200  0.31720000  1
  O  O4  1  0.75052500  0.14551200  0.85332000  1
  O  O5  1  0.24947500  0.85448800  0.14668000  1
  F  F0  1  0.95164400  0.72791500  0.61911000  1
  F  F1  1  0.04835600  0.27208500  0.38089000  1
  F  F2  1  0.53291500  0.93281500  0.71071300  1
  F  F3  1  0.46708500  0.06718500  0.28928700  1
  F  F4  1  0.79870000  0.72612100  0.04428200  1
  F  F5  1  0.20130000  0.27387900  0.95571800  1
loop_
_geom_bond_atom_site_label_1
_geom_bond_atom_site_label_2
_geom_bond_distance
_geom_bond_site_symmetry_2
H0 H10 1.135328 1_555
H1 H11 1.135328 1_555
H2 O0 1.002898 1_555
H3 O1 1.002898 1_555
H4 O4 1.024454 1_555
H5 O5 1.024454 1_555
H6 O2 0.991098 1_555
H7 O3 0.991098 1_555
H8 O1 1.008307 1_555
H9 O0 1.008307 1_555
H10 Sn0 1.884587 1_555
H11 Sn1 1.884587 1_555
O0 Zn0 2.007730 1_655
O1 Zn0 2.007730 1_566
O2 Sn0 2.664617 1_555
O3 Sn1 2.664617 1_555
O4 Zn0 2.141618 1_656
O5 Zn0 2.141618 1_565
F0 H8 1.534889 1_655
F0 Sn0 2.098463 1_555
F1 H9 1.534889 1_455
F1 Sn1 2.098463 1_555
F2 H4 1.504118 1_565
F2 H3 1.594009 1_555
F2 Sn0 2.226624 1_555
F3 H5 1.504118 1_545
F3 H2 1.594009 1_555
F3 Sn1 2.226624 1_555
F4 H0 1.067826 1_554
F4 Zn0 2.280972 1_665
F5 H1 1.067826 1_556
F5 Zn0 2.280972 1_556
