# generated using pymatgen
data_LiMg14Cr
_symmetry_space_group_name_H-M   'P 1'
_cell_length_a   6.35573827
_cell_length_b   6.35573776
_cell_length_c   10.06497813
_cell_angle_alpha   90.00000000
_cell_angle_beta   90.00000000
_cell_angle_gamma   120.00000271
_symmetry_Int_Tables_number   1
_chemical_formula_structural   LiMg14Cr
_chemical_formula_sum   'Li1 Mg14 Cr1'
_cell_volume   352.10762487
_cell_formula_units_Z   1
loop_
 _symmetry_equiv_pos_site_id
 _symmetry_equiv_pos_as_xyz
  1  'x, y, z'
loop_
 _atom_site_type_symbol
 _atom_site_label
 _atom_site_symmetry_multiplicity
 _atom_site_fract_x
 _atom_site_fract_y
 _atom_site_fract_z
 _atom_site_occupancy
  Li  Li0  1  0.16666700  0.33333300  0.12500000  1
  Mg  Mg0  1  0.16764842  0.83382371  0.12500000  1
  Mg  Mg1  1  0.16788774  0.83394337  0.62500000  1
  Mg  Mg2  1  0.66617629  0.33235158  0.12500000  1
  Mg  Mg3  1  0.66605663  0.33211226  0.62500000  1
  Mg  Mg4  1  0.66617629  0.83382371  0.12500000  1
  Mg  Mg5  1  0.66605663  0.83394337  0.62500000  1
  Mg  Mg6  1  0.33099939  0.16900061  0.37653496  1
  Mg  Mg7  1  0.33099939  0.16900061  0.87346504  1
  Mg  Mg8  1  0.33099939  0.66199978  0.37653496  1
  Mg  Mg9  1  0.33099939  0.66199978  0.87346504  1
  Mg  Mg10  1  0.83800022  0.16900061  0.37653496  1
  Mg  Mg11  1  0.83800022  0.16900061  0.87346504  1
  Mg  Mg12  1  0.83333300  0.66666700  0.37399373  1
  Mg  Mg13  1  0.83333300  0.66666700  0.87600627  1
  Cr  Cr0  1  0.16666700  0.33333300  0.62500000  1
loop_
_geom_bond_atom_site_label_1
_geom_bond_atom_site_label_2
_geom_bond_distance
_geom_bond_site_symmetry_2
Li0 Mg7 3.111611 1_554
Li0 Mg6 3.111611 1_555
Li0 Mg9 3.111617 1_554
Li0 Mg8 3.111617 1_555
Li0 Mg11 3.111618 1_454
Li0 Mg10 3.111618 1_455
Li0 Mg4 3.177873 1_555
Li0 Mg4 3.177873 1_445
Li0 Mg0 3.177873 1_555
Li0 Mg0 3.177873 1_545
Li0 Mg2 3.177874 1_455
Li0 Mg2 3.177874 1_555
Mg0 Mg13 3.109143 1_454
Mg0 Mg12 3.109143 1_455
Mg0 Mg9 3.132695 1_554
Mg0 Mg8 3.132695 1_555
Mg0 Mg6 3.132702 1_565
Mg0 Mg7 3.132702 1_564
Mg0 Mg2 3.168512 1_565
Mg0 Mg4 3.168513 1_555
Mg0 Mg2 3.187225 1_455
Mg0 Mg4 3.187226 1_455
Mg1 Mg8 3.107397 1_555
Mg1 Mg9 3.107397 1_555
Mg1 Mg6 3.107404 1_565
Mg1 Mg7 3.107404 1_565
Mg1 Mg12 3.126269 1_455
Mg1 Mg13 3.126269 1_455
Mg1 Mg3 3.166231 1_565
Mg1 Mg5 3.166231 1_555
Mg1 Mg3 3.189507 1_455
Mg1 Mg5 3.189507 1_455
Mg2 Mg7 3.132702 1_554
Mg2 Mg6 3.132702 1_555
Mg2 Mg4 3.168512 1_545
Mg2 Mg4 3.187225 1_555
Mg3 Mg6 3.107404 1_555
Mg3 Mg7 3.107404 1_555
Mg3 Mg5 3.166231 1_545
Mg3 Mg5 3.189507 1_555
Mg4 Mg8 3.132702 1_555
Mg4 Mg9 3.132702 1_554
Mg5 Mg8 3.107404 1_555
Mg5 Mg9 3.107404 1_555
Mg6 Mg8 3.133373 1_555
Mg6 Mg8 3.222364 1_545
Mg7 Mg9 3.133373 1_555
Mg7 Mg9 3.222364 1_545
Mg10 Mg3 3.107397 1_555
Mg10 Mg5 3.107403 1_545
Mg10 Mg2 3.132695 1_555
Mg10 Mg4 3.132702 1_545
Mg10 Mg8 3.133373 1_655
Mg10 Mg6 3.133374 1_655
Mg10 Mg12 3.178076 1_545
Mg10 Mg12 3.178076 1_555
Mg10 Mg8 3.222364 1_545
Mg10 Mg6 3.222365 1_555
Mg11 Mg3 3.107397 1_555
Mg11 Mg5 3.107403 1_545
Mg11 Mg2 3.132695 1_556
Mg11 Mg4 3.132702 1_546
Mg11 Mg9 3.133373 1_655
Mg11 Mg7 3.133374 1_655
Mg11 Mg13 3.178076 1_545
Mg11 Mg13 3.178076 1_555
Mg11 Mg9 3.222364 1_545
Mg11 Mg7 3.222365 1_555
Mg12 Mg4 3.109136 1_555
Mg12 Mg2 3.109143 1_555
Mg12 Mg5 3.126262 1_555
Mg12 Mg3 3.126269 1_555
Mg12 Mg6 3.178076 1_665
Mg12 Mg6 3.178076 1_555
Mg12 Mg8 3.178076 1_555
Mg12 Mg8 3.178076 1_655
Mg13 Mg4 3.109136 1_556
Mg13 Mg2 3.109143 1_556
Mg13 Mg5 3.126262 1_555
Mg13 Mg3 3.126269 1_555
Mg13 Mg7 3.178076 1_665
Mg13 Mg7 3.178076 1_555
Mg13 Mg9 3.178076 1_555
Mg13 Mg9 3.178076 1_655
Cr0 Mg6 3.086523 1_555
Cr0 Mg7 3.086523 1_555
Cr0 Mg8 3.086530 1_555
Cr0 Mg9 3.086530 1_555
Cr0 Mg10 3.086530 1_455
Cr0 Mg11 3.086530 1_455
Cr0 Mg5 3.177876 1_555
Cr0 Mg5 3.177876 1_445
Cr0 Mg1 3.177876 1_555
Cr0 Mg1 3.177876 1_545
Cr0 Mg3 3.177876 1_455
Cr0 Mg3 3.177876 1_555
