# generated using pymatgen
data_Nb6Zn7
_symmetry_space_group_name_H-M   'P 1'
_cell_length_a   5.09842339
_cell_length_b   5.09842400
_cell_length_c   9.63255029
_cell_angle_alpha   74.65410495
_cell_angle_beta   74.65410557
_cell_angle_gamma   59.99999605
_symmetry_Int_Tables_number   1
_chemical_formula_structural   Nb6Zn7
_chemical_formula_sum   'Nb6 Zn7'
_cell_volume   206.46938539
_cell_formula_units_Z   1
loop_
 _symmetry_equiv_pos_site_id
 _symmetry_equiv_pos_as_xyz
  1  'x, y, z'
loop_
 _atom_site_type_symbol
 _atom_site_label
 _atom_site_symmetry_multiplicity
 _atom_site_fract_x
 _atom_site_fract_y
 _atom_site_fract_z
 _atom_site_occupancy
  Nb  Nb0  1  0.83551200  0.83551200  0.49346500  1
  Nb  Nb1  1  0.16448800  0.16448800  0.50653500  1
  Nb  Nb2  1  0.64999200  0.64999200  0.05002300  1
  Nb  Nb3  1  0.35000800  0.35000800  0.94997700  1
  Nb  Nb4  1  0.54487100  0.54487100  0.36538700  1
  Nb  Nb5  1  0.45512900  0.45512900  0.63461300  1
  Zn  Zn0  1  0.00000000  0.00000000  0.00000000  1
  Zn  Zn1  1  0.90658700  0.90658700  0.77263800  1
  Zn  Zn2  1  0.41418700  0.90658700  0.77263800  1
  Zn  Zn3  1  0.90658700  0.41418700  0.77263800  1
  Zn  Zn4  1  0.09341300  0.09341300  0.22736200  1
  Zn  Zn5  1  0.58581300  0.09341300  0.22736200  1
  Zn  Zn6  1  0.09341300  0.58581300  0.22736200  1
loop_
_geom_bond_atom_site_label_1
_geom_bond_atom_site_label_2
_geom_bond_distance
_geom_bond_site_symmetry_2
Nb0 Zn5 2.861680 1_565
Nb0 Zn6 2.861680 1_655
Nb0 Zn4 2.861680 1_665
Nb0 Zn1 2.942279 1_555
Nb0 Zn2 2.942284 1_555
Nb0 Zn3 2.942284 1_555
Nb0 Nb1 2.946010 1_665
Nb0 Nb1 2.946019 1_565
Nb0 Nb1 2.946019 1_655
Nb0 Nb4 3.169315 1_655
Nb0 Nb4 3.169315 1_565
Nb0 Nb4 3.169319 1_555
Nb0 Nb5 3.215674 1_655
Nb0 Nb5 3.215675 1_565
Nb0 Nb5 3.215679 1_555
Nb1 Zn2 2.861680 1_545
Nb1 Zn3 2.861680 1_455
Nb1 Zn1 2.861680 1_445
Nb1 Zn4 2.942279 1_555
Nb1 Zn5 2.942284 1_555
Nb1 Zn6 2.942284 1_555
Nb1 Nb5 3.169315 1_455
Nb1 Nb5 3.169315 1_545
Nb1 Nb5 3.169319 1_555
Nb1 Nb4 3.215674 1_455
Nb1 Nb4 3.215675 1_545
Nb1 Nb4 3.215679 1_555
Nb2 Nb4 2.892446 1_555
Nb2 Zn2 2.928022 1_554
Nb2 Zn1 2.928022 1_554
Nb2 Zn3 2.928022 1_554
Nb2 Zn0 2.979115 1_565
Nb2 Zn0 2.979116 1_655
Nb2 Zn0 2.979120 1_665
Nb2 Zn6 3.023987 1_555
Nb2 Zn5 3.023987 1_555
Nb2 Zn4 3.023991 1_655
Nb2 Zn4 3.023991 1_565
Nb2 Zn6 3.023996 1_655
Nb2 Zn5 3.023996 1_565
Nb2 Nb3 3.083277 1_554
Nb2 Nb3 3.083285 1_654
Nb2 Nb3 3.083285 1_564
Nb3 Nb5 2.892446 1_555
Nb3 Zn5 2.928022 1_556
Nb3 Zn6 2.928022 1_556
Nb3 Zn4 2.928022 1_556
Nb3 Zn0 2.979115 1_656
Nb3 Zn0 2.979116 1_566
Nb3 Zn0 2.979120 1_556
Nb3 Zn3 3.023987 1_555
Nb3 Zn2 3.023987 1_555
Nb3 Zn1 3.023991 1_455
Nb3 Zn1 3.023991 1_545
Nb3 Zn3 3.023996 1_455
Nb3 Zn2 3.023996 1_545
Nb4 Nb5 2.469279 1_555
Nb4 Zn6 2.846323 1_555
Nb4 Zn5 2.846323 1_555
Nb4 Zn4 2.846326 1_655
Nb4 Zn4 2.846326 1_565
Nb4 Zn6 2.846328 1_655
Nb4 Zn5 2.846328 1_565
Nb5 Zn3 2.846323 1_555
Nb5 Zn2 2.846323 1_555
Nb5 Zn1 2.846326 1_455
Nb5 Zn1 2.846326 1_545
Nb5 Zn3 2.846328 1_455
Nb5 Zn2 2.846328 1_545
Zn0 Zn5 2.565353 1_455
Zn0 Zn2 2.565353 1_544
Zn0 Zn6 2.565353 1_545
Zn0 Zn3 2.565353 1_454
Zn0 Zn4 2.565355 1_555
Zn0 Zn1 2.565355 1_444
Zn1 Zn2 2.510464 1_555
Zn1 Zn3 2.510464 1_555
Zn1 Zn2 2.587960 1_655
Zn1 Zn3 2.587960 1_565
Zn2 Zn3 2.510464 1_555
Zn2 Zn3 2.587960 1_465
Zn4 Zn5 2.510464 1_555
Zn4 Zn6 2.510464 1_555
Zn4 Zn5 2.587960 1_455
Zn4 Zn6 2.587960 1_545
Zn5 Zn6 2.510464 1_555
Zn5 Zn6 2.587960 1_645
