# generated using pymatgen
data_Gd2(Zn2Ge)3
_symmetry_space_group_name_H-M   'P 1'
_cell_length_a   8.74728800
_cell_length_b   8.74751324
_cell_length_c   3.32197400
_cell_angle_alpha   89.99703375
_cell_angle_beta   89.99865272
_cell_angle_gamma   120.00095214
_symmetry_Int_Tables_number   1
_chemical_formula_structural   Gd2(Zn2Ge)3
_chemical_formula_sum   'Gd2 Zn6 Ge3'
_cell_volume   220.13075706
_cell_formula_units_Z   1
loop_
 _symmetry_equiv_pos_site_id
 _symmetry_equiv_pos_as_xyz
  1  'x, y, z'
loop_
 _atom_site_type_symbol
 _atom_site_label
 _atom_site_symmetry_multiplicity
 _atom_site_fract_x
 _atom_site_fract_y
 _atom_site_fract_z
 _atom_site_occupancy
  Gd  Gd0  1  0.66666400  0.33332300  0.00001100  1
  Gd  Gd1  1  0.33332300  0.66667000  0.99999200  1
  Zn  Zn0  1  0.75017500  0.99999800  0.50000000  1
  Zn  Zn1  1  0.00000200  0.75017300  0.50000100  1
  Zn  Zn2  1  0.21740700  0.99999700  0.00000200  1
  Zn  Zn3  1  0.78259000  0.78259300  0.99999900  1
  Zn  Zn4  1  0.24982200  0.24982800  0.49999900  1
  Zn  Zn5  1  0.00000100  0.21741400  0.00000100  1
  Ge  Ge0  1  0.45694100  0.99996600  0.49999100  1
  Ge  Ge1  1  0.54303700  0.54306100  0.50000400  1
  Ge  Ge2  1  0.00003800  0.45697700  0.49999900  1
loop_
_geom_bond_atom_site_label_1
_geom_bond_atom_site_label_2
_geom_bond_distance
_geom_bond_site_symmetry_2
Gd0 Ge0 3.045831 1_545
Gd0 Ge2 3.045979 1_654
Gd0 Ge1 3.046032 1_554
Gd0 Ge2 3.046071 1_655
Gd0 Ge1 3.046083 1_555
Gd0 Ge0 3.046115 1_544
Gd1 Ge2 3.045408 1_556
Gd1 Ge0 3.045500 1_555
Gd1 Ge2 3.045561 1_555
Gd1 Ge0 3.045688 1_556
Gd1 Ge1 3.045757 1_555
Gd1 Ge1 3.045787 1_556
Ge0 Zn0 2.564862 1_555
Ge0 Zn2 2.673868 1_556
Ge0 Zn2 2.673884 1_555
Ge1 Zn4 2.564911 1_555
Ge1 Zn3 2.673738 1_554
Ge1 Zn3 2.673913 1_555
Ge2 Zn1 2.564893 1_555
Ge2 Zn5 2.673821 1_556
Ge2 Zn5 2.673948 1_555
