# generated using pymatgen
data_Pr3TiSb5
_symmetry_space_group_name_H-M   'P 1'
_cell_length_a   9.58748525
_cell_length_b   9.58724819
_cell_length_c   6.20903410
_cell_angle_alpha   90.00065491
_cell_angle_beta   90.00065110
_cell_angle_gamma   119.99767923
_symmetry_Int_Tables_number   1
_chemical_formula_structural   Pr3TiSb5
_chemical_formula_sum   'Pr6 Ti2 Sb10'
_cell_volume   494.26915799
_cell_formula_units_Z   2
loop_
 _symmetry_equiv_pos_site_id
 _symmetry_equiv_pos_as_xyz
  1  'x, y, z'
loop_
 _atom_site_type_symbol
 _atom_site_label
 _atom_site_symmetry_multiplicity
 _atom_site_fract_x
 _atom_site_fract_y
 _atom_site_fract_z
 _atom_site_occupancy
  Pr  Pr0  1  0.62017813  -0.00000829  0.25000757  1
  Pr  Pr1  1  0.37981677  0.00000038  0.74998605  1
  Pr  Pr2  1  0.00000590  0.62016524  0.25000170  1
  Pr  Pr3  1  -0.00000059  0.37983390  0.74999919  1
  Pr  Pr4  1  0.37982021  0.37982153  0.25000877  1
  Pr  Pr5  1  0.62018421  0.62018227  0.74999268  1
  Ti  Ti0  1  -0.00000425  -0.00000088  -0.00000277  1
  Ti  Ti1  1  -0.00000303  -0.00000099  0.50000147  1
  Sb  Sb0  1  0.25025361  0.00002484  0.25002302  1
  Sb  Sb1  1  0.74973798  -0.00003500  0.75000096  1
  Sb  Sb2  1  0.00000048  0.25025500  0.25000792  1
  Sb  Sb3  1  0.00000421  0.74974499  0.74999391  1
  Sb  Sb4  1  0.74973883  0.74976931  0.25000353  1
  Sb  Sb5  1  0.25026427  0.25022979  0.74999732  1
  Sb  Sb6  1  0.33333695  0.66666635  -0.00000093  1
  Sb  Sb7  1  0.66666306  0.33333506  -0.00002499  1
  Sb  Sb8  1  0.66666652  0.33335223  0.50000043  1
  Sb  Sb9  1  0.33333674  0.66666627  0.50000517  1
loop_
_geom_bond_atom_site_label_1
_geom_bond_atom_site_label_2
_geom_bond_distance
_geom_bond_site_symmetry_2
Pr0 Sb4 3.205864 1_545
Pr0 Sb2 3.206395 1_655
Pr0 Sb1 3.343792 1_555
Pr0 Sb1 3.343895 1_554
Pr0 Sb6 3.375944 1_545
Pr0 Sb9 3.375976 1_545
Pr0 Sb8 3.376091 1_555
Pr0 Sb7 3.376109 1_555
Pr0 Sb0 3.546805 1_555
Pr1 Sb5 3.205868 1_555
Pr1 Sb3 3.206310 1_545
Pr1 Sb0 3.343625 1_555
Pr1 Sb0 3.344077 1_556
Pr1 Sb9 3.375861 1_545
Pr1 Sb7 3.375953 1_556
Pr1 Sb6 3.375991 1_546
Pr1 Sb8 3.376106 1_555
Pr1 Sb1 3.546784 1_555
Pr2 Sb0 3.206582 1_565
Pr2 Sb4 3.206617 1_455
Pr2 Sb3 3.343800 1_555
Pr2 Sb3 3.343916 1_554
Pr2 Sb9 3.375903 1_555
Pr2 Sb6 3.375940 1_555
Pr2 Sb8 3.375978 1_455
Pr2 Sb7 3.376070 1_455
Pr2 Sb2 3.546395 1_555
Pr3 Sb5 3.206597 1_555
Pr3 Sb1 3.206674 1_455
Pr3 Sb2 3.343791 1_555
Pr3 Sb2 3.343918 1_556
Pr3 Sb7 3.375916 1_456
Pr3 Sb8 3.375970 1_455
Pr3 Sb6 3.375973 1_556
Pr3 Sb9 3.376018 1_555
Pr3 Sb3 3.546406 1_555
Pr4 Sb0 3.206030 1_555
Pr4 Sb2 3.206328 1_555
Pr4 Sb5 3.343816 1_555
Pr4 Sb5 3.343896 1_554
Pr4 Sb8 3.375814 1_555
Pr4 Sb9 3.375834 1_555
Pr4 Sb6 3.375895 1_555
Pr4 Sb7 3.376018 1_555
Pr4 Sb4 3.546810 1_555
Pr5 Sb1 3.205926 1_565
Pr5 Sb3 3.206337 1_655
Pr5 Sb4 3.343809 1_555
Pr5 Sb4 3.343882 1_556
Pr5 Sb8 3.375692 1_555
Pr5 Sb7 3.375815 1_556
Pr5 Sb9 3.375888 1_555
Pr5 Sb6 3.375965 1_556
Pr5 Sb5 3.546839 1_555
Sb0 Ti1 2.857512 1_555
Sb0 Ti0 2.857652 1_555
Sb1 Ti0 2.857518 1_656
Sb1 Ti1 2.857569 1_655
Sb2 Ti1 2.857598 1_555
Sb2 Ti0 2.857620 1_555
Sb3 Ti1 2.857621 1_565
Sb3 Ti0 2.857634 1_566
Sb4 Ti1 2.857581 1_665
Sb4 Ti0 2.857664 1_665
Sb5 Ti1 2.857615 1_555
Sb5 Ti0 2.857692 1_556
Sb6 Sb9 3.104479 1_554
Sb6 Sb9 3.104555 1_555
Sb7 Sb8 3.104359 1_554
Sb7 Sb8 3.104675 1_555
