# generated using pymatgen
data_NaPrMgNbO6
_symmetry_space_group_name_H-M   'P 1'
_cell_length_a   5.65188743
_cell_length_b   5.65188743
_cell_length_c   5.65188743
_cell_angle_alpha   60.00000000
_cell_angle_beta   60.00000000
_cell_angle_gamma   60.00000000
_symmetry_Int_Tables_number   1
_chemical_formula_structural   NaPrMgNbO6
_chemical_formula_sum   'Na1 Pr1 Mg1 Nb1 O6'
_cell_volume   127.66313722
_cell_formula_units_Z   1
loop_
 _symmetry_equiv_pos_site_id
 _symmetry_equiv_pos_as_xyz
  1  'x, y, z'
loop_
 _atom_site_type_symbol
 _atom_site_label
 _atom_site_symmetry_multiplicity
 _atom_site_fract_x
 _atom_site_fract_y
 _atom_site_fract_z
 _atom_site_occupancy
  Na  Na0  1  0.75000000  0.75000000  0.75000000  1
  Pr  Pr0  1  0.25000000  0.25000000  0.25000000  1
  Mg  Mg0  1  -0.00000000  0.00000000  0.00000000  1
  Nb  Nb0  1  0.50000000  0.50000000  0.50000000  1
  O  O0  1  0.74868934  0.25131066  0.25131066  1
  O  O1  1  0.25131066  0.74868934  0.74868934  1
  O  O2  1  0.74868934  0.25131066  0.74868934  1
  O  O3  1  0.25131066  0.74868934  0.25131066  1
  O  O4  1  0.74868934  0.74868934  0.25131066  1
  O  O5  1  0.25131066  0.25131066  0.74868934  1
loop_
_geom_bond_atom_site_label_1
_geom_bond_atom_site_label_2
_geom_bond_distance
_geom_bond_site_symmetry_2
Na0 O4 2.825963 1_555
Na0 O0 2.825963 1_565
Na0 O3 2.825963 1_655
Na0 O5 2.825963 1_565
Na0 O1 2.825963 1_655
Na0 O5 2.825963 1_655
Na0 O0 2.825963 1_556
Na0 O2 2.825963 1_555
Na0 O3 2.825963 1_556
Na0 O1 2.825963 1_555
Na0 O2 2.825963 1_565
Na0 O4 2.825963 1_556
Mg0 O1 2.008720 1_544
Mg0 O0 2.008720 1_455
Mg0 O4 2.008720 1_445
Mg0 O3 2.008720 1_545
Mg0 O5 2.008720 1_554
Mg0 O2 2.008720 1_454
Nb0 O5 1.987768 1_555
Nb0 O3 1.987768 1_555
Nb0 O0 1.987768 1_555
Nb0 O2 1.987768 1_555
Nb0 O4 1.987768 1_555
Nb0 O1 1.987768 1_555
O0 Pr0 2.825963 1_655
O0 Pr0 2.825963 1_555
O1 Pr0 2.825963 1_556
O1 Pr0 2.825963 1_565
O2 Pr0 2.825963 1_655
O2 Pr0 2.825963 1_556
O3 Pr0 2.825963 1_565
O3 Pr0 2.825963 1_555
O4 Pr0 2.825963 1_655
O4 Pr0 2.825963 1_565
O5 Pr0 2.825963 1_555
O5 Pr0 2.825963 1_556
