# generated using pymatgen
data_Al2FeS4
_symmetry_space_group_name_H-M   'P 1'
_cell_length_a   12.11601349
_cell_length_b   12.11601349
_cell_length_c   12.11601355
_cell_angle_alpha   16.89026504
_cell_angle_beta   16.89026504
_cell_angle_gamma   16.89026572
_symmetry_Int_Tables_number   1
_chemical_formula_structural   Al2FeS4
_chemical_formula_sum   'Al2 Fe1 S4'
_cell_volume   130.96460038
_cell_formula_units_Z   1
loop_
 _symmetry_equiv_pos_site_id
 _symmetry_equiv_pos_as_xyz
  1  'x, y, z'
loop_
 _atom_site_type_symbol
 _atom_site_label
 _atom_site_symmetry_multiplicity
 _atom_site_fract_x
 _atom_site_fract_y
 _atom_site_fract_z
 _atom_site_occupancy
  Al  Al0  1  0.75911800  0.75911800  0.75911800  1
  Al  Al1  1  0.24088200  0.24088200  0.24088200  1
  Fe  Fe0  1  0.00000000  0.00000000  0.00000000  1
  S  S0  1  0.87950300  0.87950300  0.87950300  1
  S  S1  1  0.12049700  0.12049700  0.12049700  1
  S  S2  1  0.30421600  0.30421600  0.30421600  1
  S  S3  1  0.69578400  0.69578400  0.69578400  1
loop_
_geom_bond_atom_site_label_1
_geom_bond_atom_site_label_2
_geom_bond_distance
_geom_bond_site_symmetry_2
Al0 S3 2.268724 1_555
Al0 S1 2.287120 1_665
Al0 S1 2.287120 1_656
Al0 S1 2.287120 1_566
Al1 S2 2.268724 1_555
Al1 S0 2.287120 1_445
Al1 S0 2.287120 1_454
Al1 S0 2.287120 1_544
Fe0 S3 2.304240 1_445
Fe0 S2 2.304240 1_554
Fe0 S3 2.304240 1_544
Fe0 S2 2.304240 1_455
Fe0 S2 2.304240 1_545
Fe0 S3 2.304240 1_454
