# generated using pymatgen
data_SrNdEuSbO6
_symmetry_space_group_name_H-M   'P 1'
_cell_length_a   8.51023084
_cell_length_b   8.50355328
_cell_length_c   8.50926573
_cell_angle_alpha   90.00000000
_cell_angle_beta   90.00000000
_cell_angle_gamma   90.00000000
_symmetry_Int_Tables_number   1
_chemical_formula_structural   SrNdEuSbO6
_chemical_formula_sum   'Sr4 Nd4 Eu4 Sb4 O24'
_cell_volume   615.79174662
_cell_formula_units_Z   4
loop_
 _symmetry_equiv_pos_site_id
 _symmetry_equiv_pos_as_xyz
  1  'x, y, z'
loop_
 _atom_site_type_symbol
 _atom_site_label
 _atom_site_symmetry_multiplicity
 _atom_site_fract_x
 _atom_site_fract_y
 _atom_site_fract_z
 _atom_site_occupancy
  Sr  Sr0  1  -0.00000000  0.50000000  0.50000000  1
  Sr  Sr1  1  0.50000000  0.00000000  0.50000000  1
  Sr  Sr2  1  0.50000000  0.00000000  -0.00000000  1
  Sr  Sr3  1  0.00000000  0.50000000  -0.00000000  1
  Nd  Nd0  1  0.75000000  0.75000000  0.75000000  1
  Nd  Nd1  1  0.25000000  0.25000000  0.75000000  1
  Nd  Nd2  1  0.25000000  0.75000000  0.25000000  1
  Nd  Nd3  1  0.75000000  0.25000000  0.25000000  1
  Eu  Eu0  1  0.50000000  0.50000000  -0.00000000  1
  Eu  Eu1  1  0.00000000  0.00000000  0.50000000  1
  Eu  Eu2  1  0.00000000  0.00000000  -0.00000000  1
  Eu  Eu3  1  0.50000000  0.50000000  0.50000000  1
  Sb  Sb0  1  0.25000000  0.25000000  0.25000000  1
  Sb  Sb1  1  0.75000000  0.75000000  0.25000000  1
  Sb  Sb2  1  0.75000000  0.25000000  0.75000000  1
  Sb  Sb3  1  0.25000000  0.75000000  0.75000000  1
  O  O0  1  0.01940358  0.20554144  0.28569291  1
  O  O1  1  0.98059642  0.79445856  0.28569291  1
  O  O2  1  0.98059642  0.20554144  0.71430709  1
  O  O3  1  0.01940358  0.79445856  0.71430709  1
  O  O4  1  0.28472423  0.01908396  0.20733826  1
  O  O5  1  0.28472423  0.98091604  0.79266174  1
  O  O6  1  0.71527577  0.98091604  0.20733826  1
  O  O7  1  0.71527577  0.01908396  0.79266174  1
  O  O8  1  0.20733194  0.28439916  0.01912355  1
  O  O9  1  0.79266806  0.28439916  0.98087645  1
  O  O10  1  0.20733194  0.71560084  0.98087645  1
  O  O11  1  0.79266806  0.71560084  0.01912355  1
  O  O12  1  0.48059642  0.29445856  0.21430709  1
  O  O13  1  0.51940358  0.70554144  0.21430709  1
  O  O14  1  0.51940358  0.29445856  0.78569291  1
  O  O15  1  0.48059642  0.70554144  0.78569291  1
  O  O16  1  0.21527577  0.48091604  0.29266174  1
  O  O17  1  0.21527577  0.51908396  0.70733826  1
  O  O18  1  0.78472423  0.51908396  0.29266174  1
  O  O19  1  0.78472423  0.48091604  0.70733826  1
  O  O20  1  0.29266806  0.21560084  0.48087645  1
  O  O21  1  0.70733194  0.21560084  0.51912355  1
  O  O22  1  0.29266806  0.78439916  0.51912355  1
  O  O23  1  0.70733194  0.78439916  0.48087645  1
loop_
_geom_bond_atom_site_label_1
_geom_bond_atom_site_label_2
_geom_bond_distance
_geom_bond_site_symmetry_2
Nd0 O7 2.335558 1_565
Nd0 O19 2.335558 1_555
Nd0 O11 2.337032 1_556
Nd0 O23 2.337032 1_555
Nd0 O15 2.343413 1_555
Nd0 O3 2.343413 1_655
Nd1 O5 2.335558 1_545
Nd1 O17 2.335558 1_555
Nd1 O20 2.337032 1_555
Nd1 O8 2.337032 1_556
Nd1 O14 2.343413 1_555
Nd1 O2 2.343413 1_455
Nd2 O4 2.335558 1_565
Nd2 O16 2.335558 1_555
Nd2 O22 2.337032 1_555
Nd2 O10 2.337032 1_554
Nd2 O1 2.343413 1_455
Nd2 O13 2.343413 1_555
Nd3 O6 2.335558 1_545
Nd3 O18 2.335558 1_555
Nd3 O21 2.337032 1_555
Nd3 O9 2.337032 1_554
Nd3 O12 2.343413 1_555
Nd3 O0 2.343413 1_655
Eu0 O15 2.531341 1_554
Eu0 O13 2.531341 1_555
Eu0 O12 2.531341 1_555
Eu0 O14 2.531341 1_554
Eu0 O8 3.096964 1_555
Eu0 O9 3.096964 1_554
Eu0 O10 3.096964 1_554
Eu0 O11 3.096964 1_555
Eu1 O3 2.531341 1_545
Eu1 O1 2.531341 1_445
Eu1 O0 2.531341 1_555
Eu1 O2 2.531341 1_455
Eu1 O20 3.096964 1_555
Eu1 O21 3.096964 1_455
Eu1 O22 3.096964 1_545
Eu1 O23 3.096964 1_445
Eu2 O10 2.998068 1_544
Eu2 O9 2.998068 1_454
Eu2 O8 2.998068 1_555
Eu2 O11 2.998068 1_445
Eu2 O3 2.998687 1_544
Eu2 O2 2.998687 1_454
Eu2 O0 2.998687 1_555
Eu2 O1 2.998687 1_445
Eu2 O7 3.001723 1_454
Eu2 O6 3.001723 1_445
Eu2 O4 3.001723 1_555
Eu2 O5 3.001723 1_544
Eu3 O20 2.998068 1_555
Eu3 O23 2.998068 1_555
Eu3 O21 2.998068 1_555
Eu3 O22 2.998068 1_555
Eu3 O14 2.998687 1_555
Eu3 O15 2.998687 1_555
Eu3 O12 2.998687 1_555
Eu3 O13 2.998687 1_555
Eu3 O17 3.001723 1_555
Eu3 O18 3.001723 1_555
Eu3 O19 3.001723 1_555
Eu3 O16 3.001723 1_555
O0 Sb0 2.021460 1_555
O0 Sr0 3.102016 1_555
O1 Sb1 2.021460 1_555
O1 Sr0 3.102016 1_655
O2 Sb2 2.021460 1_555
O2 Sr0 3.102016 1_655
O3 Sb3 2.021460 1_555
O3 Sr0 3.102016 1_555
O4 Sb0 2.018629 1_555
O4 Sr2 2.548621 1_555
O4 Sr1 3.095885 1_555
O5 Sb3 2.018629 1_555
O5 Sr2 2.548621 1_566
O5 Sr1 3.095885 1_565
O6 Sb1 2.018629 1_555
O6 Sr2 2.548621 1_565
O6 Sr1 3.095885 1_565
O7 Sb2 2.018629 1_555
O7 Sr2 2.548621 1_556
O7 Sr1 3.095885 1_555
O8 Sb0 2.019165 1_555
O8 Sr3 2.549705 1_555
O9 Sb2 2.019165 1_555
O9 Sr3 2.549705 1_656
O10 Sb3 2.019165 1_555
O10 Sr3 2.549705 1_556
O11 Sb1 2.019165 1_555
O11 Sr3 2.549705 1_655
O12 Sb0 2.021460 1_555
O12 Sr2 3.102016 1_555
O13 Sb1 2.021460 1_555
O13 Sr2 3.102016 1_565
O14 Sb2 2.021460 1_555
O14 Sr2 3.102016 1_556
O15 Sb3 2.021460 1_555
O15 Sr2 3.102016 1_566
O16 Sb0 2.018629 1_555
O16 Sr0 2.548621 1_555
O16 Sr3 3.095885 1_555
O17 Sb3 2.018629 1_555
O17 Sr0 2.548621 1_555
O17 Sr3 3.095885 1_556
O18 Sb1 2.018629 1_555
O18 Sr0 2.548621 1_655
O18 Sr3 3.095885 1_655
O19 Sb2 2.018629 1_555
O19 Sr0 2.548621 1_655
O19 Sr3 3.095885 1_656
O20 Sb0 2.019165 1_555
O20 Sr1 2.549705 1_555
O21 Sb2 2.019165 1_555
O21 Sr1 2.549705 1_555
O22 Sb3 2.019165 1_555
O22 Sr1 2.549705 1_565
O23 Sb1 2.019165 1_555
O23 Sr1 2.549705 1_565
