# generated using pymatgen
data_Te4MoW3S4
_symmetry_space_group_name_H-M   'P 1'
_cell_length_a   3.36006642
_cell_length_b   3.36006642
_cell_length_c   40.55786800
_cell_angle_alpha   90.00000000
_cell_angle_beta   90.00000000
_cell_angle_gamma   120.00000828
_symmetry_Int_Tables_number   1
_chemical_formula_structural   Te4MoW3S4
_chemical_formula_sum   'Te4 Mo1 W3 S4'
_cell_volume   396.55318082
_cell_formula_units_Z   1
loop_
 _symmetry_equiv_pos_site_id
 _symmetry_equiv_pos_as_xyz
  1  'x, y, z'
loop_
 _atom_site_type_symbol
 _atom_site_label
 _atom_site_symmetry_multiplicity
 _atom_site_fract_x
 _atom_site_fract_y
 _atom_site_fract_z
 _atom_site_occupancy
  Te  Te0  1  0.33333300  0.66666700  0.70756100  1
  Te  Te1  1  0.66666700  0.33333300  0.41998100  1
  Te  Te2  1  0.66666700  0.33333300  0.51362800  1
  Te  Te3  1  0.33333300  0.66666700  0.61392300  1
  Mo  Mo0  1  0.33333300  0.66666700  0.09390300  1
  W  W0  1  0.33333300  0.66666700  0.46683200  1
  W  W1  1  0.66666700  0.33333300  0.28142800  1
  W  W2  1  0.66666700  0.33333300  0.66074900  1
  S  S0  1  0.33333300  0.66666700  0.31885800  1
  S  S1  1  0.66666700  0.33333300  0.05665700  1
  S  S2  1  0.66666700  0.33333300  0.13118400  1
  S  S3  1  0.33333300  0.66666700  0.24404400  1
loop_
_geom_bond_atom_site_label_1
_geom_bond_atom_site_label_2
_geom_bond_distance
_geom_bond_site_symmetry_2
Te0 W2 2.714407 1_455
Te0 W2 2.714407 1_565
Te0 W2 2.714411 1_555
Te1 W0 2.715513 1_545
Te1 W0 2.715513 1_655
Te1 W0 2.715518 1_555
Te2 W0 2.713953 1_655
Te2 W0 2.713953 1_545
Te2 W0 2.713957 1_555
Te3 W2 2.714804 1_455
Te3 W2 2.714804 1_565
Te3 W2 2.714808 1_555
Mo0 S1 2.458721 1_455
Mo0 S1 2.458721 1_565
Mo0 S1 2.458726 1_555
Mo0 S2 2.459593 1_455
Mo0 S2 2.459593 1_565
Mo0 S2 2.459598 1_555
S0 W1 2.463313 1_455
S0 W1 2.463313 1_565
S0 W1 2.463318 1_555
S3 W1 2.462164 1_565
S3 W1 2.462164 1_455
S3 W1 2.462168 1_555
