# generated using pymatgen
data_Mg14NbFe
_symmetry_space_group_name_H-M   'P 1'
_cell_length_a   6.28189314
_cell_length_b   6.05578529
_cell_length_c   9.95501362
_cell_angle_alpha   90.00000000
_cell_angle_beta   90.00000000
_cell_angle_gamma   118.81632168
_symmetry_Int_Tables_number   1
_chemical_formula_structural   Mg14NbFe
_chemical_formula_sum   'Mg14 Nb1 Fe1'
_cell_volume   331.81113595
_cell_formula_units_Z   1
loop_
 _symmetry_equiv_pos_site_id
 _symmetry_equiv_pos_as_xyz
  1  'x, y, z'
loop_
 _atom_site_type_symbol
 _atom_site_label
 _atom_site_symmetry_multiplicity
 _atom_site_fract_x
 _atom_site_fract_y
 _atom_site_fract_z
 _atom_site_occupancy
  Mg  Mg0  1  0.16535329  0.33267615  0.62500000  1
  Mg  Mg1  1  0.16878792  0.83439346  0.62500000  1
  Mg  Mg2  1  0.65776204  0.33438151  0.12500000  1
  Mg  Mg3  1  0.66174321  0.32885473  0.62500000  1
  Mg  Mg4  1  0.65776204  0.82337953  0.12500000  1
  Mg  Mg5  1  0.66174321  0.83288748  0.62500000  1
  Mg  Mg6  1  0.32878043  0.16650894  0.35793029  1
  Mg  Mg7  1  0.32878043  0.16650894  0.89206971  1
  Mg  Mg8  1  0.32878043  0.66227249  0.35793029  1
  Mg  Mg9  1  0.32878043  0.66227249  0.89206971  1
  Mg  Mg10  1  0.85679093  0.17839597  0.35676357  1
  Mg  Mg11  1  0.85679093  0.17839597  0.89323643  1
  Mg  Mg12  1  0.84498702  0.67249401  0.37455914  1
  Mg  Mg13  1  0.84498702  0.67249401  0.87544086  1
  Nb  Nb0  1  0.14580493  0.82290196  0.12500000  1
  Fe  Fe0  1  0.16236572  0.33118236  0.12500000  1
loop_
_geom_bond_atom_site_label_1
_geom_bond_atom_site_label_2
_geom_bond_distance
_geom_bond_site_symmetry_2
Mg0 Mg1 3.027952 1_555
Mg0 Mg1 3.027952 1_545
Mg0 Mg5 3.129488 1_555
Mg0 Mg3 3.129488 1_555
Mg0 Mg5 3.152535 1_445
Mg0 Mg3 3.152536 1_455
Mg0 Mg10 3.164618 1_455
Mg0 Mg11 3.164618 1_455
Mg0 Mg7 3.182929 1_555
Mg0 Mg6 3.182929 1_555
Mg0 Mg9 3.182935 1_555
Mg0 Mg8 3.182935 1_555
Mg1 Mg12 3.064637 1_455
Mg1 Mg13 3.064637 1_455
Mg1 Mg3 3.101098 1_565
Mg1 Mg5 3.101099 1_555
Mg1 Mg3 3.180815 1_455
Mg1 Mg5 3.180815 1_455
Mg1 Mg9 3.189838 1_555
Mg1 Mg8 3.189838 1_555
Mg1 Mg7 3.189844 1_565
Mg1 Mg6 3.189844 1_565
Mg2 Mg7 2.942118 1_554
Mg2 Mg6 2.942118 1_555
Mg2 Mg4 2.961267 1_555
Mg2 Nb0 3.067228 1_655
Mg2 Mg4 3.094518 1_545
Mg2 Nb0 3.214667 1_545
Mg3 Mg5 3.003471 1_545
Mg3 Mg5 3.052314 1_555
Mg3 Mg7 3.229202 1_555
Mg3 Mg6 3.229202 1_555
Mg4 Mg8 2.942118 1_555
Mg4 Mg9 2.942118 1_554
Mg4 Nb0 3.067228 1_655
Mg4 Nb0 3.214667 1_555
Mg5 Mg8 3.229202 1_555
Mg5 Mg9 3.229202 1_555
Mg6 Nb0 2.953345 1_545
Mg6 Mg8 3.002238 1_555
Mg6 Mg8 3.053548 1_545
Mg7 Nb0 2.953345 1_546
Mg7 Mg9 3.002238 1_555
Mg7 Mg9 3.053548 1_545
Mg8 Nb0 2.953339 1_555
Mg9 Nb0 2.953339 1_556
Mg10 Mg2 2.986173 1_555
Mg10 Mg4 2.986179 1_545
Mg10 Mg8 3.000370 1_655
Mg10 Mg6 3.000370 1_655
Mg10 Mg12 3.033766 1_555
Mg10 Mg12 3.033766 1_545
Mg10 Mg3 3.246255 1_555
Mg10 Mg5 3.246261 1_545
Mg10 Mg8 3.282835 1_545
Mg10 Mg6 3.282835 1_555
Mg11 Mg2 2.986173 1_556
Mg11 Mg4 2.986179 1_546
Mg11 Mg9 3.000370 1_655
Mg11 Mg7 3.000370 1_655
Mg11 Mg13 3.033766 1_555
Mg11 Mg13 3.033766 1_545
Mg11 Mg3 3.246255 1_555
Mg11 Mg5 3.246261 1_545
Mg11 Mg9 3.282835 1_545
Mg11 Mg7 3.282835 1_555
Mg12 Nb0 2.985535 1_655
Mg12 Mg4 3.070216 1_555
Mg12 Mg2 3.070222 1_555
Mg12 Mg6 3.073914 1_665
Mg12 Mg8 3.073914 1_655
Mg12 Mg5 3.092267 1_555
Mg12 Mg3 3.092273 1_555
Mg12 Mg6 3.217638 1_555
Mg12 Mg8 3.217638 1_555
Mg13 Nb0 2.985535 1_656
Mg13 Mg4 3.070216 1_556
Mg13 Mg2 3.070222 1_556
Mg13 Mg7 3.073914 1_665
Mg13 Mg9 3.073914 1_655
Mg13 Mg5 3.092267 1_555
Mg13 Mg3 3.092273 1_555
Mg13 Mg7 3.217638 1_555
Mg13 Mg9 3.217638 1_555
Fe0 Mg10 2.855162 1_455
Fe0 Mg11 2.855162 1_454
Fe0 Mg6 2.910197 1_555
Fe0 Mg7 2.910197 1_554
Fe0 Mg8 2.910203 1_555
Fe0 Mg9 2.910203 1_554
Fe0 Nb0 3.029264 1_555
Fe0 Nb0 3.029264 1_545
Fe0 Mg4 3.102735 1_555
Fe0 Mg2 3.102735 1_555
Fe0 Mg4 3.179249 1_445
Fe0 Mg2 3.179250 1_455
