# generated using pymatgen
data_CuC2(SN3)2
_symmetry_space_group_name_H-M   'P 1'
_cell_length_a   6.72398022
_cell_length_b   6.50409895
_cell_length_c   6.50409895
_cell_angle_alpha   73.52167329
_cell_angle_beta   61.39142606
_cell_angle_gamma   61.39142606
_symmetry_Int_Tables_number   1
_chemical_formula_structural   CuC2(SN3)2
_chemical_formula_sum   'Cu1 C2 S2 N6'
_cell_volume   218.68463425
_cell_formula_units_Z   1
loop_
 _symmetry_equiv_pos_site_id
 _symmetry_equiv_pos_as_xyz
  1  'x, y, z'
loop_
 _atom_site_type_symbol
 _atom_site_label
 _atom_site_symmetry_multiplicity
 _atom_site_fract_x
 _atom_site_fract_y
 _atom_site_fract_z
 _atom_site_occupancy
  Cu  Cu0  1  0.00000000  0.00000000  0.00000000  1
  C  C0  1  0.07656700  0.26285900  0.26285900  1
  C  C1  1  0.92343300  0.73714100  0.73714100  1
  S  S0  1  0.82757200  0.26612400  0.26612400  1
  S  S1  1  0.17242800  0.73387600  0.73387600  1
  N  N0  1  0.24263800  0.78656900  0.12727900  1
  N  N1  1  0.75736200  0.87272100  0.21343100  1
  N  N2  1  0.75736200  0.21343100  0.87272100  1
  N  N3  1  0.24263800  0.12727900  0.78656900  1
  N  N4  1  0.24936800  0.26603300  0.26603300  1
  N  N5  1  0.75063200  0.73396700  0.73396700  1
loop_
_geom_bond_atom_site_label_1
_geom_bond_atom_site_label_2
_geom_bond_distance
_geom_bond_site_symmetry_2
Cu0 N3 1.935641 1_554
Cu0 N0 1.935641 1_545
Cu0 N2 1.935641 1_454
Cu0 N1 1.935641 1_445
Cu0 S0 2.278651 1_455
Cu0 S1 2.278651 1_544
C0 N4 1.181978 1_555
C0 S0 1.654126 1_455
C1 N5 1.181978 1_555
C1 S1 1.654126 1_655
