# generated using pymatgen
data_K2HfO2F5
_symmetry_space_group_name_H-M   'P 1'
_cell_length_a   8.64673700
_cell_length_b   11.68171400
_cell_length_c   13.87606900
_cell_angle_alpha   90.00000000
_cell_angle_beta   90.00000000
_cell_angle_gamma   90.00000000
_symmetry_Int_Tables_number   1
_chemical_formula_structural   K2HfO2F5
_chemical_formula_sum   'K16 Hf8 O16 F40'
_cell_volume   1401.60381107
_cell_formula_units_Z   8
loop_
 _symmetry_equiv_pos_site_id
 _symmetry_equiv_pos_as_xyz
  1  'x, y, z'
loop_
 _atom_site_type_symbol
 _atom_site_label
 _atom_site_symmetry_multiplicity
 _atom_site_fract_x
 _atom_site_fract_y
 _atom_site_fract_z
 _atom_site_occupancy
  K  K0  1  0.59701900  0.58549100  0.59762900  1
  K  K1  1  0.40298100  0.91450900  0.09762900  1
  K  K2  1  0.90298100  0.08549100  0.40237100  1
  K  K3  1  0.09701900  0.41450900  0.90237100  1
  K  K4  1  0.40298100  0.41450900  0.40237100  1
  K  K5  1  0.59701900  0.08549100  0.90237100  1
  K  K6  1  0.09701900  0.91450900  0.59762900  1
  K  K7  1  0.90298100  0.58549100  0.09762900  1
  K  K8  1  0.83393600  0.73404800  0.82070800  1
  K  K9  1  0.16606400  0.76595200  0.32070800  1
  K  K10  1  0.66606400  0.23404800  0.17929200  1
  K  K11  1  0.33393600  0.26595200  0.67929200  1
  K  K12  1  0.16606400  0.26595200  0.17929200  1
  K  K13  1  0.83393600  0.23404800  0.67929200  1
  K  K14  1  0.33393600  0.76595200  0.82070800  1
  K  K15  1  0.66606400  0.73404800  0.32070800  1
  Hf  Hf0  1  0.59553600  0.95672400  0.63713400  1
  Hf  Hf1  1  0.40446400  0.54327600  0.13713400  1
  Hf  Hf2  1  0.90446400  0.45672400  0.36286600  1
  Hf  Hf3  1  0.09553600  0.04327600  0.86286600  1
  Hf  Hf4  1  0.40446400  0.04327600  0.36286600  1
  Hf  Hf5  1  0.59553600  0.45672400  0.86286600  1
  Hf  Hf6  1  0.09553600  0.54327600  0.63713400  1
  Hf  Hf7  1  0.90446400  0.95672400  0.13713400  1
  O  O0  1  0.52647700  0.94662500  0.48149400  1
  O  O1  1  0.47352300  0.55337500  0.98149400  1
  O  O2  1  0.97352300  0.44662500  0.51850600  1
  O  O3  1  0.02647700  0.05337500  0.01850600  1
  O  O4  1  0.47352300  0.05337500  0.51850600  1
  O  O5  1  0.52647700  0.44662500  0.01850600  1
  O  O6  1  0.02647700  0.55337500  0.48149400  1
  O  O7  1  0.97352300  0.94662500  0.98149400  1
  O  O8  1  0.88700600  0.79032300  0.46413700  1
  O  O9  1  0.11299400  0.70967700  0.96413700  1
  O  O10  1  0.61299400  0.29032300  0.53586300  1
  O  O11  1  0.38700600  0.20967700  0.03586300  1
  O  O12  1  0.11299400  0.20967700  0.53586300  1
  O  O13  1  0.88700600  0.29032300  0.03586300  1
  O  O14  1  0.38700600  0.70967700  0.46413700  1
  O  O15  1  0.61299400  0.79032300  0.96413700  1
  F  F0  1  0.68208500  0.80155100  0.60815800  1
  F  F1  1  0.31791500  0.69844900  0.10815800  1
  F  F2  1  0.81791500  0.30155100  0.39184200  1
  F  F3  1  0.18208500  0.19844900  0.89184200  1
  F  F4  1  0.31791500  0.19844900  0.39184200  1
  F  F5  1  0.68208500  0.30155100  0.89184200  1
  F  F6  1  0.18208500  0.69844900  0.60815800  1
  F  F7  1  0.81791500  0.80155100  0.10815800  1
  F  F8  1  0.06063800  0.39006300  0.70579000  1
  F  F9  1  0.93936200  0.10993700  0.20579000  1
  F  F10  1  0.43936200  0.89006300  0.29421000  1
  F  F11  1  0.56063800  0.60993700  0.79421000  1
  F  F12  1  0.93936200  0.60993700  0.29421000  1
  F  F13  1  0.06063800  0.89006300  0.79421000  1
  F  F14  1  0.56063800  0.10993700  0.70579000  1
  F  F15  1  0.43936200  0.39006300  0.20579000  1
  F  F16  1  0.65155200  0.40987300  0.72763300  1
  F  F17  1  0.34844800  0.09012700  0.22763300  1
  F  F18  1  0.84844800  0.90987300  0.27236700  1
  F  F19  1  0.15155200  0.59012700  0.77236700  1
  F  F20  1  0.34844800  0.59012700  0.27236700  1
  F  F21  1  0.65155200  0.90987300  0.77236700  1
  F  F22  1  0.15155200  0.09012700  0.72763300  1
  F  F23  1  0.84844800  0.40987300  0.22763300  1
  F  F24  1  0.29910900  0.47625100  0.59153400  1
  F  F25  1  0.70089100  0.02374900  0.09153400  1
  F  F26  1  0.20089100  0.97625100  0.40846600  1
  F  F27  1  0.79910900  0.52374900  0.90846600  1
  F  F28  1  0.70089100  0.52374900  0.40846600  1
  F  F29  1  0.29910900  0.97625100  0.90846600  1
  F  F30  1  0.79910900  0.02374900  0.59153400  1
  F  F31  1  0.20089100  0.47625100  0.09153400  1
  F  F32  1  0.88407700  0.59987600  0.66458400  1
  F  F33  1  0.11592300  0.90012400  0.16458400  1
  F  F34  1  0.61592300  0.09987600  0.33541600  1
  F  F35  1  0.38407700  0.40012400  0.83541600  1
  F  F36  1  0.11592300  0.40012400  0.33541600  1
  F  F37  1  0.88407700  0.09987600  0.83541600  1
  F  F38  1  0.38407700  0.90012400  0.66458400  1
  F  F39  1  0.61592300  0.59987600  0.16458400  1
loop_
_geom_bond_atom_site_label_1
_geom_bond_atom_site_label_2
_geom_bond_distance
_geom_bond_site_symmetry_2
K0 O14 2.972090 1_555
K1 O15 2.972090 1_554
K2 O12 2.972090 1_655
K3 O13 2.972090 1_456
K4 O10 2.972090 1_555
K5 O11 2.972090 1_556
K6 O8 2.972090 1_455
K7 O9 2.972090 1_654
K8 O15 2.836003 1_555
K8 O9 3.140757 1_655
K9 O14 2.836003 1_555
K9 O8 3.140757 1_455
K10 O13 2.836003 1_555
K10 O11 3.140757 1_555
K11 O12 2.836003 1_555
K11 O10 3.140757 1_555
K12 O11 2.836003 1_555
K12 O13 3.140757 1_455
K13 O10 2.836003 1_555
K13 O12 3.140757 1_655
K14 O9 2.836003 1_555
K14 O15 3.140757 1_555
K15 O8 2.836003 1_555
K15 O14 3.140757 1_555
Hf0 O0 2.243807 1_555
Hf0 O4 2.257747 1_565
Hf1 O1 2.243807 1_554
Hf1 O5 2.257747 1_555
Hf2 O2 2.243807 1_555
Hf2 O6 2.257747 1_655
Hf3 O3 2.243807 1_556
Hf3 O7 2.257747 1_445
Hf4 O4 2.243807 1_555
Hf4 O0 2.257747 1_545
Hf5 O5 2.243807 1_556
Hf5 O1 2.257747 1_555
Hf6 O6 2.243807 1_555
Hf6 O2 2.257747 1_455
Hf7 O7 2.243807 1_554
Hf7 O3 2.257747 1_665
O0 O4 1.424249 1_565
O1 O5 1.424249 1_556
O2 O6 1.424249 1_655
O3 O7 1.424249 1_444
F0 Hf0 2.001886 1_555
F0 K0 2.633002 1_555
F1 Hf1 2.001886 1_555
F1 K1 2.633002 1_555
F2 Hf2 2.001886 1_555
F2 K2 2.633002 1_555
F3 Hf3 2.001886 1_555
F3 K3 2.633002 1_555
F4 Hf4 2.001886 1_555
F4 K4 2.633002 1_555
F5 Hf5 2.001886 1_555
F5 K5 2.633002 1_555
F6 Hf6 2.001886 1_555
F6 K6 2.633002 1_555
F7 Hf7 2.001886 1_555
F7 K7 2.633002 1_555
F8 Hf6 2.049877 1_555
F8 K13 2.701721 1_455
F8 K3 2.760661 1_555
F8 K11 2.796714 1_555
F9 Hf7 2.049877 1_545
F9 K12 2.701721 1_655
F9 K2 2.760661 1_555
F9 K10 2.796714 1_555
F10 Hf4 2.049877 1_565
F10 K15 2.701721 1_555
F10 K1 2.760661 1_555
F10 K9 2.796714 1_555
F11 Hf5 2.049877 1_555
F11 K14 2.701721 1_555
F11 K0 2.760661 1_555
F11 K8 2.796714 1_555
F12 Hf2 2.049877 1_555
F12 K9 2.701721 1_655
F12 K7 2.760661 1_555
F12 K15 2.796714 1_555
F13 Hf3 2.049877 1_565
F13 K8 2.701721 1_455
F13 K6 2.760661 1_555
F13 K14 2.796714 1_555
F14 Hf0 2.049877 1_545
F14 K11 2.701721 1_555
F14 K5 2.760661 1_555
F14 K13 2.796714 1_555
F15 Hf1 2.049877 1_555
F15 K10 2.701721 1_555
F15 K4 2.760661 1_555
F15 K12 2.796714 1_555
F16 Hf5 2.013802 1_555
F16 K13 2.674999 1_555
F16 K0 2.772236 1_555
F17 Hf4 2.013802 1_555
F17 K12 2.674999 1_555
F17 K1 2.772236 1_545
F18 Hf7 2.013802 1_555
F18 K15 2.674999 1_555
F18 K2 2.772236 1_565
F19 Hf6 2.013802 1_555
F19 K14 2.674999 1_555
F19 K3 2.772236 1_555
F20 Hf1 2.013802 1_555
F20 K9 2.674999 1_555
F20 K4 2.772236 1_555
F21 Hf0 2.013802 1_555
F21 K8 2.674999 1_555
F21 K5 2.772236 1_565
F22 Hf3 2.013802 1_555
F22 K11 2.674999 1_555
F22 K6 2.772236 1_545
F23 Hf2 2.013802 1_555
F23 K10 2.674999 1_555
F23 K7 2.772236 1_555
F24 Hf6 2.027772 1_555
F24 K11 2.758389 1_555
F24 K4 2.866472 1_555
F24 K0 2.875957 1_555
F25 Hf7 2.027772 1_545
F25 K10 2.758389 1_555
F25 K5 2.866472 1_554
F25 K1 2.875957 1_545
F26 Hf4 2.027772 1_565
F26 K9 2.758389 1_555
F26 K6 2.866472 1_555
F26 K2 2.875957 1_465
F27 Hf5 2.027772 1_555
F27 K8 2.758389 1_555
F27 K7 2.866472 1_556
F27 K3 2.875957 1_655
F28 Hf2 2.027772 1_555
F28 K15 2.758389 1_555
F28 K0 2.866472 1_555
F28 K4 2.875957 1_555
F29 Hf3 2.027772 1_565
F29 K14 2.758389 1_555
F29 K1 2.866472 1_556
F29 K5 2.875957 1_565
F30 Hf0 2.027772 1_545
F30 K13 2.758389 1_555
F30 K2 2.866472 1_555
F30 K6 2.875957 1_645
F31 Hf1 2.027772 1_555
F31 K12 2.758389 1_555
F31 K3 2.866472 1_554
F31 K7 2.875957 1_455
F32 Hf6 1.981264 1_655
F32 K0 2.655618 1_555
F32 K8 2.708841 1_555
F33 Hf7 1.981264 1_455
F33 K1 2.655618 1_555
F33 K9 2.708841 1_555
F34 Hf4 1.981264 1_555
F34 K2 2.655618 1_555
F34 K10 2.708841 1_555
F35 Hf5 1.981264 1_555
F35 K3 2.655618 1_555
F35 K11 2.708841 1_555
F36 Hf2 1.981264 1_455
F36 K4 2.655618 1_555
F36 K12 2.708841 1_555
F37 Hf3 1.981264 1_655
F37 K5 2.655618 1_555
F37 K13 2.708841 1_555
F38 Hf0 1.981264 1_555
F38 K6 2.655618 1_555
F38 K14 2.708841 1_555
F39 Hf1 1.981264 1_555
F39 K7 2.655618 1_555
F39 K15 2.708841 1_555
