# generated using pymatgen
data_Na3ThB24
_symmetry_space_group_name_H-M   'P 1'
_cell_length_a   4.14114618
_cell_length_b   4.14114618
_cell_length_c   16.57553016
_cell_angle_alpha   90.00000000
_cell_angle_beta   90.00000000
_cell_angle_gamma   90.00000000
_symmetry_Int_Tables_number   1
_chemical_formula_structural   Na3ThB24
_chemical_formula_sum   'Na3 Th1 B24'
_cell_volume   284.25528643
_cell_formula_units_Z   1
loop_
 _symmetry_equiv_pos_site_id
 _symmetry_equiv_pos_as_xyz
  1  'x, y, z'
loop_
 _atom_site_type_symbol
 _atom_site_label
 _atom_site_symmetry_multiplicity
 _atom_site_fract_x
 _atom_site_fract_y
 _atom_site_fract_z
 _atom_site_occupancy
  Na  Na0  1  0.50000000  0.50000000  0.26800025  1
  Na  Na1  1  0.50000000  0.50000000  0.50000000  1
  Na  Na2  1  0.50000000  0.50000000  0.73199975  1
  Th  Th0  1  0.50000000  0.50000000  0.00000000  1
  B  B0  1  0.00000000  -0.00000000  0.04934006  1
  B  B1  1  0.00000000  -0.00000000  0.30006994  1
  B  B2  1  0.00000000  -0.00000000  0.54939252  1
  B  B3  1  0.00000000  -0.00000000  0.80029495  1
  B  B4  1  0.00000000  0.29884722  0.87625998  1
  B  B5  1  0.00000000  0.29884722  0.12374002  1
  B  B6  1  0.00000000  0.30139689  0.37506177  1
  B  B7  1  0.00000000  0.30139689  0.62493823  1
  B  B8  1  0.29884722  -0.00000000  0.87625998  1
  B  B9  1  0.29884722  -0.00000000  0.12374002  1
  B  B10  1  0.30139689  -0.00000000  0.37506177  1
  B  B11  1  0.30139689  -0.00000000  0.62493823  1
  B  B12  1  0.00000000  -0.00000000  0.95065994  1
  B  B13  1  0.00000000  -0.00000000  0.19970505  1
  B  B14  1  0.00000000  -0.00000000  0.45060748  1
  B  B15  1  0.00000000  -0.00000000  0.69993006  1
  B  B16  1  0.00000000  0.70115278  0.87625998  1
  B  B17  1  0.00000000  0.70115278  0.12374002  1
  B  B18  1  0.00000000  0.69860311  0.37506177  1
  B  B19  1  0.00000000  0.69860311  0.62493823  1
  B  B20  1  0.70115278  -0.00000000  0.87625998  1
  B  B21  1  0.70115278  -0.00000000  0.12374002  1
  B  B22  1  0.69860311  -0.00000000  0.37506177  1
  B  B23  1  0.69860311  -0.00000000  0.62493823  1
loop_
_geom_bond_atom_site_label_1
_geom_bond_atom_site_label_2
_geom_bond_distance
_geom_bond_site_symmetry_2
B0 B12 1.635675 1_554
B0 B17 1.747114 1_545
B0 B21 1.747114 1_455
B0 B9 1.747114 1_555
B0 B5 1.747114 1_555
B0 Th0 3.040297 1_445
B0 Th0 3.040297 1_545
B0 Th0 3.040297 1_555
B0 Th0 3.040297 1_455
B1 B13 1.663601 1_555
B1 B6 1.761518 1_555
B1 B10 1.761518 1_555
B1 B18 1.761518 1_545
B1 B22 1.761518 1_455
B1 Na0 2.976091 1_445
B1 Na0 2.976091 1_545
B1 Na0 2.976091 1_455
B1 Na0 2.976091 1_555
B2 B7 1.768009 1_555
B2 B23 1.768009 1_455
B2 Na1 3.040531 1_545
B2 Na1 3.040531 1_555
B2 Na1 3.040531 1_445
B2 Na1 3.040531 1_455
B3 B4 1.765521 1_555
B3 B8 1.765521 1_555
B3 Na2 3.139432 1_455
B3 Na2 3.139432 1_555
B3 Na2 3.139432 1_445
B3 Na2 3.139432 1_545
B4 B8 1.750188 1_555
B4 Th0 3.031171 1_456
B4 Th0 3.031171 1_556
B5 B9 1.750188 1_555
B5 Th0 3.031171 1_555
B5 Th0 3.031171 1_455
B6 Na0 2.848315 1_455
B6 Na0 2.848315 1_555
B6 Na1 3.041774 1_455
B6 Na1 3.041774 1_555
B7 Na2 2.848315 1_455
B7 Na2 2.848315 1_555
B7 Na1 3.041774 1_455
B7 Na1 3.041774 1_555
B8 Th0 3.031171 1_546
B8 Th0 3.031171 1_556
B9 Th0 3.031171 1_545
B9 Th0 3.031171 1_555
B10 B22 1.644889 1_555
B10 B18 1.765120 1_545
B10 B6 1.765120 1_555
B10 B14 1.768009 1_555
B10 Na0 2.848315 1_545
B10 Na0 2.848315 1_555
B10 Na1 3.041774 1_545
B10 Na1 3.041774 1_555
B11 B23 1.644889 1_555
B11 B15 1.761518 1_555
B11 B7 1.765120 1_555
B11 B19 1.765120 1_545
B11 B2 1.768009 1_555
B11 Na2 2.848315 1_555
B11 Na2 2.848315 1_545
B11 Na1 3.041774 1_545
B11 Na1 3.041774 1_555
B12 B8 1.747114 1_555
B12 B20 1.747114 1_455
B12 B16 1.747114 1_545
B12 B4 1.747114 1_555
B12 Th0 3.040297 1_446
B12 Th0 3.040297 1_546
B12 Th0 3.040297 1_456
B12 Th0 3.040297 1_556
B13 B5 1.765521 1_555
B13 B9 1.765521 1_555
B13 B21 1.765521 1_455
B13 B17 1.765521 1_545
B13 Na0 3.139432 1_455
B13 Na0 3.139432 1_555
B13 Na0 3.139432 1_445
B13 Na0 3.139432 1_545
B14 B2 1.637414 1_555
B14 B6 1.768009 1_555
B14 B18 1.768009 1_545
B14 B22 1.768009 1_455
B14 Na1 3.040531 1_545
B14 Na1 3.040531 1_555
B14 Na1 3.040531 1_445
B14 Na1 3.040531 1_455
B15 B3 1.663601 1_555
B15 B7 1.761518 1_555
B15 B19 1.761518 1_545
B15 B23 1.761518 1_455
B15 Na2 2.976091 1_455
B15 Na2 2.976091 1_555
B15 Na2 2.976091 1_445
B15 Na2 2.976091 1_545
B16 B4 1.666006 1_555
B16 B20 1.750188 1_465
B16 B8 1.750188 1_565
B16 B3 1.765521 1_565
B16 Th0 3.031171 1_456
B16 Th0 3.031171 1_556
B17 B5 1.666006 1_555
B17 B21 1.750188 1_465
B17 B9 1.750188 1_565
B17 Th0 3.031171 1_555
B17 Th0 3.031171 1_455
B18 B6 1.644889 1_555
B18 B22 1.765120 1_465
B18 Na0 2.848315 1_455
B18 Na0 2.848315 1_555
B18 Na1 3.041774 1_455
B18 Na1 3.041774 1_555
B19 B7 1.644889 1_555
B19 B23 1.765120 1_465
B19 B2 1.768009 1_565
B19 Na2 2.848315 1_455
B19 Na2 2.848315 1_555
B19 Na1 3.041774 1_455
B19 Na1 3.041774 1_555
B20 B8 1.666006 1_555
B20 B4 1.750188 1_655
B20 B3 1.765521 1_655
B20 Th0 3.031171 1_546
B20 Th0 3.031171 1_556
B21 B9 1.666006 1_555
B21 B5 1.750188 1_655
B21 Th0 3.031171 1_545
B21 Th0 3.031171 1_555
B22 B6 1.765120 1_655
B22 Na0 2.848315 1_545
B22 Na0 2.848315 1_555
B22 Na1 3.041774 1_555
B22 Na1 3.041774 1_545
B23 B7 1.765120 1_655
B23 Na2 2.848315 1_555
B23 Na2 2.848315 1_545
B23 Na1 3.041774 1_545
B23 Na1 3.041774 1_555
