# generated using pymatgen
data_AlCdInS4
_symmetry_space_group_name_H-M   'P 1'
_cell_length_a   3.89825127
_cell_length_b   3.89963974
_cell_length_c   12.88165267
_cell_angle_alpha   81.29401717
_cell_angle_beta   81.29612424
_cell_angle_gamma   59.98823091
_symmetry_Int_Tables_number   1
_chemical_formula_structural   AlCdInS4
_chemical_formula_sum   'Al1 Cd1 In1 S4'
_cell_volume   166.95929548
_cell_formula_units_Z   1
loop_
 _symmetry_equiv_pos_site_id
 _symmetry_equiv_pos_as_xyz
  1  'x, y, z'
loop_
 _atom_site_type_symbol
 _atom_site_label
 _atom_site_symmetry_multiplicity
 _atom_site_fract_x
 _atom_site_fract_y
 _atom_site_fract_z
 _atom_site_occupancy
  Al  Al0  1  0.59732800  0.59737700  0.20791900  1
  Cd  Cd0  1  0.83506000  0.83499700  0.49494700  1
  In  In0  1  0.06714100  0.06726900  0.79832200  1
  S  S0  1  0.54084900  0.53948600  0.38017900  1
  S  S1  1  0.70340500  0.70328600  0.89002300  1
  S  S2  1  0.95346500  0.95386400  0.13880700  1
  S  S3  1  0.12965300  0.13062200  0.60910300  1
loop_
_geom_bond_atom_site_label_1
_geom_bond_atom_site_label_2
_geom_bond_distance
_geom_bond_site_symmetry_2
Al0 S0 2.184852 1_555
Al0 S2 2.415473 1_555
Al0 S2 2.415476 1_545
Al0 S2 2.415804 1_455
Cd0 S3 2.675621 1_665
Cd0 S3 2.675624 1_655
Cd0 S3 2.677918 1_565
Cd0 S0 2.679578 1_565
Cd0 S0 2.679580 1_555
Cd0 S0 2.682628 1_655
In0 S3 2.399949 1_555
In0 S1 2.533654 1_545
In0 S1 2.533659 1_455
In0 S1 2.533662 1_445
