# generated using pymatgen
data_Li3MnCoO5
_symmetry_space_group_name_H-M   'P 1'
_cell_length_a   5.09274100
_cell_length_b   5.13884474
_cell_length_c   7.63720171
_cell_angle_alpha   103.13167417
_cell_angle_beta   108.50098361
_cell_angle_gamma   99.86972608
_symmetry_Int_Tables_number   1
_chemical_formula_structural   Li3MnCoO5
_chemical_formula_sum   'Li6 Mn2 Co2 O10'
_cell_volume   178.05384210
_cell_formula_units_Z   2
loop_
 _symmetry_equiv_pos_site_id
 _symmetry_equiv_pos_as_xyz
  1  'x, y, z'
loop_
 _atom_site_type_symbol
 _atom_site_label
 _atom_site_symmetry_multiplicity
 _atom_site_fract_x
 _atom_site_fract_y
 _atom_site_fract_z
 _atom_site_occupancy
  Li  Li0  1  0.80718800  0.49466800  0.59907400  1
  Li  Li1  1  0.39050300  0.49530900  0.79712600  1
  Li  Li2  1  0.00000000  0.50000000  0.00000000  1
  Li  Li3  1  0.60949700  0.50469100  0.20287400  1
  Li  Li4  1  0.19281200  0.50533200  0.40092600  1
  Li  Li5  1  0.00000000  0.00000000  0.50000000  1
  Mn  Mn0  1  0.60090800  0.00616600  0.69866500  1
  Mn  Mn1  1  0.39909200  0.99383400  0.30133500  1
  Co  Co0  1  0.19523700  0.99993900  0.89031800  1
  Co  Co1  1  0.80476300  0.00006100  0.10968200  1
  O  O0  1  0.58403400  0.77668500  0.45472700  1
  O  O1  1  0.22422300  0.77253600  0.66741800  1
  O  O2  1  0.79010900  0.78255000  0.84781700  1
  O  O3  1  0.40674700  0.76788600  0.06331700  1
  O  O4  1  0.02242700  0.76772500  0.24605600  1
  O  O5  1  0.97757300  0.23227500  0.75394400  1
  O  O6  1  0.59325300  0.23211400  0.93668300  1
  O  O7  1  0.20989100  0.21745000  0.15218300  1
  O  O8  1  0.77577700  0.22746400  0.33258200  1
  O  O9  1  0.41596600  0.22331500  0.54527300  1
loop_
_geom_bond_atom_site_label_1
_geom_bond_atom_site_label_2
_geom_bond_distance
_geom_bond_site_symmetry_2
Li0 O9 2.085807 1_555
Li0 O5 2.108199 1_555
Li0 O8 2.121685 1_555
Li0 O2 2.162635 1_555
Li0 O1 2.177220 1_655
Li0 O0 2.258896 1_555
Li1 O1 2.061651 1_555
Li1 O6 2.113478 1_555
Li1 O3 2.159036 1_556
Li1 O9 2.160785 1_555
Li1 O2 2.163521 1_555
Li1 O5 2.177395 1_455
Li2 O4 2.018008 1_555
Li2 O5 2.018008 1_454
Li2 O3 2.122286 1_555
Li2 O6 2.122286 1_454
Li2 O7 2.260992 1_555
Li2 O2 2.260992 1_454
Li3 O8 2.061651 1_555
Li3 O3 2.113478 1_555
Li3 O6 2.159036 1_554
Li3 O0 2.160785 1_555
Li3 O7 2.163521 1_555
Li3 O4 2.177395 1_655
Li4 O0 2.085807 1_555
Li4 O4 2.108199 1_555
Li4 O1 2.121685 1_555
Li4 O7 2.162635 1_555
Li4 O8 2.177220 1_455
Li4 O9 2.258896 1_555
Li5 O5 2.081969 1_455
Li5 O4 2.081969 1_545
Li5 O9 2.108458 1_555
Li5 O0 2.108458 1_445
Li5 O1 2.124899 1_545
Li5 O8 2.124899 1_455
Mn0 O5 1.925380 1_555
Mn0 O0 1.932416 1_545
Mn0 O6 1.937916 1_555
Mn0 O9 1.938750 1_555
Mn0 O2 1.955573 1_545
Mn0 O1 1.992029 1_545
Mn1 O4 1.925380 1_555
Mn1 O9 1.932416 1_565
Mn1 O3 1.937916 1_555
Mn1 O0 1.938750 1_555
Mn1 O7 1.955573 1_565
Mn1 O8 1.992029 1_565
Co0 O1 1.897376 1_555
Co0 O5 2.006255 1_465
Co0 O7 2.028685 1_566
Co0 O6 2.044758 1_565
Co0 O2 2.056757 1_455
Co0 O3 2.140323 1_556
Co1 O8 1.897376 1_555
Co1 O4 2.006255 1_645
Co1 O2 2.028685 1_544
Co1 O3 2.044758 1_545
Co1 O7 2.056757 1_655
Co1 O6 2.140323 1_554
