# generated using pymatgen
data_Sr3LiNbO6
_symmetry_space_group_name_H-M   'P 1'
_cell_length_a   6.85444359
_cell_length_b   6.85444359
_cell_length_c   6.85444360
_cell_angle_alpha   92.66129522
_cell_angle_beta   92.66129522
_cell_angle_gamma   92.66129774
_symmetry_Int_Tables_number   1
_chemical_formula_structural   Sr3LiNbO6
_chemical_formula_sum   'Sr6 Li2 Nb2 O12'
_cell_volume   320.96956532
_cell_formula_units_Z   2
loop_
 _symmetry_equiv_pos_site_id
 _symmetry_equiv_pos_as_xyz
  1  'x, y, z'
loop_
 _atom_site_type_symbol
 _atom_site_label
 _atom_site_symmetry_multiplicity
 _atom_site_fract_x
 _atom_site_fract_y
 _atom_site_fract_z
 _atom_site_occupancy
  Sr  Sr0  1  0.10361200  0.39638800  0.75000000  1
  Sr  Sr1  1  0.75000000  0.10361200  0.39638800  1
  Sr  Sr2  1  0.39638800  0.75000000  0.10361200  1
  Sr  Sr3  1  0.25000000  0.89638800  0.60361200  1
  Sr  Sr4  1  0.60361200  0.25000000  0.89638800  1
  Sr  Sr5  1  0.89638800  0.60361200  0.25000000  1
  Li  Li0  1  0.25000000  0.25000000  0.25000000  1
  Li  Li1  1  0.75000000  0.75000000  0.75000000  1
  Nb  Nb0  1  0.50000000  0.50000000  0.50000000  1
  Nb  Nb1  1  0.00000000  0.00000000  0.00000000  1
  O  O0  1  0.45214500  0.58083000  0.78232600  1
  O  O1  1  0.78232600  0.45214500  0.58083000  1
  O  O2  1  0.58083000  0.78232600  0.45214500  1
  O  O3  1  0.28232600  0.08083000  0.95214500  1
  O  O4  1  0.95214500  0.28232600  0.08083000  1
  O  O5  1  0.08083000  0.95214500  0.28232600  1
  O  O6  1  0.54785500  0.41917000  0.21767400  1
  O  O7  1  0.21767400  0.54785500  0.41917000  1
  O  O8  1  0.41917000  0.21767400  0.54785500  1
  O  O9  1  0.71767400  0.91917000  0.04785500  1
  O  O10  1  0.04785500  0.71767400  0.91917000  1
  O  O11  1  0.91917000  0.04785500  0.71767400  1
loop_
_geom_bond_atom_site_label_1
_geom_bond_atom_site_label_2
_geom_bond_distance
_geom_bond_site_symmetry_2
Li0 O6 2.325504 1_555
Li0 O5 2.325504 1_545
Li0 O8 2.325504 1_555
Li0 O3 2.325504 1_554
Li0 O7 2.325504 1_555
Li0 O4 2.325504 1_455
Li1 O11 2.325504 1_565
Li1 O0 2.325504 1_555
Li1 O9 2.325504 1_556
Li1 O2 2.325504 1_555
Li1 O10 2.325504 1_655
Li1 O1 2.325504 1_555
Nb0 O2 2.033660 1_555
Nb0 O8 2.033660 1_555
Nb0 O0 2.033660 1_555
Nb0 O6 2.033660 1_555
Nb0 O1 2.033660 1_555
Nb0 O7 2.033660 1_555
Nb1 O3 2.033660 1_554
Nb1 O9 2.033660 1_445
Nb1 O5 2.033660 1_545
Nb1 O11 2.033660 1_454
Nb1 O4 2.033660 1_455
Nb1 O10 2.033660 1_544
O0 Sr2 2.494530 1_556
O0 Sr0 2.645580 1_555
O0 Sr4 2.671951 1_555
O0 Sr3 2.909580 1_555
O1 Sr0 2.494530 1_655
O1 Sr1 2.645580 1_555
O1 Sr5 2.671950 1_555
O1 Sr4 2.909580 1_555
O2 Sr1 2.494530 1_565
O2 Sr2 2.645580 1_555
O2 Sr3 2.671951 1_555
O2 Sr5 2.909580 1_555
O3 Sr4 2.494530 1_555
O3 Sr3 2.645580 1_545
O3 Sr2 2.671951 1_546
O3 Sr0 2.909580 1_555
O4 Sr5 2.494530 1_555
O4 Sr4 2.645580 1_554
O4 Sr0 2.671950 1_654
O4 Sr1 2.909580 1_555
O5 Sr3 2.494530 1_555
O5 Sr5 2.645580 1_455
O5 Sr1 2.671951 1_465
O5 Sr2 2.909580 1_555
O6 Sr4 2.494530 1_554
O6 Sr5 2.645580 1_555
O6 Sr2 2.671951 1_555
O6 Sr1 2.909580 1_555
O7 Sr5 2.494530 1_455
O7 Sr3 2.645580 1_555
O7 Sr0 2.671950 1_555
O7 Sr2 2.909580 1_555
O8 Sr3 2.494530 1_545
O8 Sr4 2.645580 1_555
O8 Sr1 2.671951 1_555
O8 Sr0 2.909580 1_555
O9 Sr2 2.494530 1_555
O9 Sr1 2.645580 1_565
O9 Sr4 2.671951 1_564
O9 Sr5 2.909580 1_555
O10 Sr0 2.494530 1_555
O10 Sr2 2.645580 1_556
O10 Sr5 2.671950 1_456
O10 Sr3 2.909580 1_555
O11 Sr1 2.494530 1_555
O11 Sr0 2.645580 1_655
O11 Sr3 2.671951 1_645
O11 Sr4 2.909580 1_555
