# generated using pymatgen
data_ThN3F7
_symmetry_space_group_name_H-M   'P 1'
_cell_length_a   16.93872800
_cell_length_b   5.52353700
_cell_length_c   8.89214000
_cell_angle_alpha   90.00000000
_cell_angle_beta   90.00000000
_cell_angle_gamma   90.00000000
_symmetry_Int_Tables_number   1
_chemical_formula_structural   ThN3F7
_chemical_formula_sum   'Th4 N12 F28'
_cell_volume   831.96365359
_cell_formula_units_Z   4
loop_
 _symmetry_equiv_pos_site_id
 _symmetry_equiv_pos_as_xyz
  1  'x, y, z'
loop_
 _atom_site_type_symbol
 _atom_site_label
 _atom_site_symmetry_multiplicity
 _atom_site_fract_x
 _atom_site_fract_y
 _atom_site_fract_z
 _atom_site_occupancy
  Th  Th0  1  0.57411100  0.25000000  0.43145400  1
  Th  Th1  1  0.07411100  0.25000000  0.06854600  1
  Th  Th2  1  0.42588900  0.75000000  0.56854600  1
  Th  Th3  1  0.92588900  0.75000000  0.93145400  1
  N  N0  1  0.65232500  0.25000000  0.96025100  1
  N  N1  1  0.15232500  0.25000000  0.53974900  1
  N  N2  1  0.34767500  0.75000000  0.03974900  1
  N  N3  1  0.84767500  0.75000000  0.46025100  1
  N  N4  1  0.87423900  0.95309100  0.50716500  1
  N  N5  1  0.37423900  0.54690900  0.99283500  1
  N  N6  1  0.12576100  0.45309100  0.49283500  1
  N  N7  1  0.62576100  0.04690900  0.00716500  1
  N  N8  1  0.12576100  0.04690900  0.49283500  1
  N  N9  1  0.62576100  0.45309100  0.00716500  1
  N  N10  1  0.87423900  0.54690900  0.50716500  1
  N  N11  1  0.37423900  0.95309100  0.99283500  1
  F  F0  1  0.31044700  0.25000000  0.02693200  1
  F  F1  1  0.81044700  0.25000000  0.47306800  1
  F  F2  1  0.68955300  0.75000000  0.97306800  1
  F  F3  1  0.18955300  0.75000000  0.52693200  1
  F  F4  1  0.20190600  0.25000000  0.67096700  1
  F  F5  1  0.70190600  0.25000000  0.82903300  1
  F  F6  1  0.79809400  0.75000000  0.32903300  1
  F  F7  1  0.29809400  0.75000000  0.17096700  1
  F  F8  1  0.05252600  0.25000000  0.33670000  1
  F  F9  1  0.55252700  0.25000000  0.16330000  1
  F  F10  1  0.94747300  0.75000000  0.66330000  1
  F  F11  1  0.44747400  0.75000000  0.83670000  1
  F  F12  1  0.66650700  0.99112200  0.41632900  1
  F  F13  1  0.16650700  0.50887800  0.08367100  1
  F  F14  1  0.33349300  0.49112200  0.58367100  1
  F  F15  1  0.83349300  0.00887800  0.91632900  1
  F  F16  1  0.33349300  0.00887800  0.58367100  1
  F  F17  1  0.83349300  0.49112200  0.91632900  1
  F  F18  1  0.66650700  0.50887800  0.41632900  1
  F  F19  1  0.16650700  0.99112200  0.08367100  1
  F  F20  1  0.46699700  0.99146100  0.36652700  1
  F  F21  1  0.96699700  0.50853900  0.13347300  1
  F  F22  1  0.53300300  0.49146100  0.63347300  1
  F  F23  1  0.03300300  0.00853900  0.86652700  1
  F  F24  1  0.53300300  0.00853900  0.63347300  1
  F  F25  1  0.03300300  0.49146100  0.86652700  1
  F  F26  1  0.46699700  0.50853900  0.36652700  1
  F  F27  1  0.96699700  0.99146100  0.13347300  1
loop_
_geom_bond_atom_site_label_1
_geom_bond_atom_site_label_2
_geom_bond_distance
_geom_bond_site_symmetry_2
N0 N7 1.278626 1_556
N0 N9 1.278626 1_556
N1 N8 1.278626 1_555
N1 N6 1.278626 1_555
N2 N5 1.278626 1_554
N3 N4 1.278626 1_555
N10 N3 1.278626 1_555
N11 N2 1.278626 1_556
F0 N11 1.987231 1_544
F0 N5 1.987231 1_554
F1 N4 1.987231 1_545
F1 N10 1.987231 1_555
F2 N9 1.987231 1_556
F2 N7 1.987231 1_566
F3 N6 1.987231 1_555
F3 N8 1.987231 1_565
F4 N1 1.437627 1_555
F5 N0 1.437627 1_555
F6 N3 1.437627 1_555
F7 N2 1.437627 1_555
F8 Th1 2.412331 1_555
F9 Th0 2.412329 1_555
F10 Th3 2.412329 1_555
F11 Th2 2.412331 1_555
F12 Th0 2.124197 1_565
F13 Th1 2.124197 1_555
F14 Th2 2.124197 1_555
F15 Th3 2.124197 1_545
F16 Th2 2.124197 1_545
F17 Th3 2.124197 1_555
F18 Th0 2.124197 1_555
F19 Th1 2.124197 1_565
F20 Th2 2.343213 1_555
F20 Th0 2.380043 1_565
F21 Th3 2.343213 1_554
F21 Th1 2.380043 1_655
F22 Th0 2.343213 1_555
F22 Th2 2.380043 1_555
F23 Th1 2.343213 1_556
F23 Th3 2.380043 1_445
F24 Th0 2.343213 1_555
F24 Th2 2.380043 1_545
F25 Th1 2.343213 1_556
F25 Th3 2.380043 1_455
F26 Th2 2.343213 1_555
F26 Th0 2.380043 1_555
F27 Th3 2.343213 1_554
F27 Th1 2.380043 1_665
