# generated using pymatgen
data_Ba3CoSb2O9
_symmetry_space_group_name_H-M   'P 1'
_cell_length_a   5.94471319
_cell_length_b   15.86415804
_cell_length_c   10.28997703
_cell_angle_alpha   70.94222000
_cell_angle_beta   90.02243550
_cell_angle_gamma   79.19111302
_symmetry_Int_Tables_number   1
_chemical_formula_structural   Ba3CoSb2O9
_chemical_formula_sum   'Ba12 Co4 Sb8 O36'
_cell_volume   898.97615963
_cell_formula_units_Z   4
loop_
 _symmetry_equiv_pos_site_id
 _symmetry_equiv_pos_as_xyz
  1  'x, y, z'
loop_
 _atom_site_type_symbol
 _atom_site_label
 _atom_site_symmetry_multiplicity
 _atom_site_fract_x
 _atom_site_fract_y
 _atom_site_fract_z
 _atom_site_occupancy
  Ba  Ba0  1  0.37472000  0.25043600  0.37479200  1
  Ba  Ba1  1  0.87465600  0.25066200  0.87455100  1
  Ba  Ba2  1  0.12495900  0.75008100  0.12501100  1
  Ba  Ba3  1  0.62567300  0.74881500  0.62564900  1
  Ba  Ba4  1  0.95630000  0.08733600  0.28910000  1
  Ba  Ba5  1  0.45650600  0.08698300  0.79027200  1
  Ba  Ba6  1  0.79325200  0.41329400  0.12606200  1
  Ba  Ba7  1  0.29365100  0.41356600  0.62680700  1
  Ba  Ba8  1  0.20635300  0.58643000  0.87321800  1
  Ba  Ba9  1  0.70674700  0.58670400  0.37391200  1
  Ba  Ba10  1  0.04370200  0.91266100  0.71083200  1
  Ba  Ba11  1  0.54349000  0.91302500  0.20978800  1
  Co  Co0  1  0.24997200  0.50006400  0.24998800  1
  Co  Co1  1  0.50003800  0.99992200  0.50004700  1
  Co  Co2  1  0.75002700  0.49994500  0.75000100  1
  Co  Co3  1  0.99996500  0.00006900  0.99994100  1
  Sb  Sb0  1  0.32603600  0.34785500  0.99270000  1
  Sb  Sb1  1  0.82590000  0.34813200  0.49247900  1
  Sb  Sb2  1  0.67410700  0.65185900  0.00759100  1
  Sb  Sb3  1  0.17395900  0.65215100  0.50723100  1
  Sb  Sb4  1  0.57594800  0.84802400  0.90944200  1
  Sb  Sb5  1  0.07590400  0.84819100  0.40941400  1
  Sb  Sb6  1  0.42412400  0.15186800  0.09054900  1
  Sb  Sb7  1  0.92401900  0.15191700  0.59058800  1
  O  O0  1  0.62516500  0.74967300  0.10691300  1
  O  O1  1  0.12529200  0.74968500  0.60687200  1
  O  O2  1  0.37479300  0.25023900  0.89311000  1
  O  O3  1  0.87474300  0.25040500  0.39308600  1
  O  O4  1  0.84720800  0.74993000  0.88436500  1
  O  O5  1  0.34713400  0.75007600  0.38419100  1
  O  O6  1  0.15279600  0.24995900  0.11572100  1
  O  O7  1  0.65285100  0.25003800  0.61573000  1
  O  O8  1  0.59734300  0.24986900  0.11578500  1
  O  O9  1  0.09705400  0.25004400  0.61577600  1
  O  O10  1  0.40286100  0.74994500  0.88431400  1
  O  O11  1  0.90274300  0.75014400  0.38413200  1
  O  O12  1  0.70790100  0.58404200  0.87723100  1
  O  O13  1  0.20792500  0.58427600  0.37732300  1
  O  O14  1  0.45793200  0.08414000  0.28889700  1
  O  O15  1  0.95799600  0.08393100  0.78925800  1
  O  O16  1  0.78836800  0.91569000  0.95759600  1
  O  O17  1  0.28835700  0.91590700  0.45745600  1
  O  O18  1  0.70420900  0.08424700  0.04240100  1
  O  O19  1  0.20403800  0.08422800  0.54249400  1
  O  O20  1  0.46171600  0.58387800  0.12353500  1
  O  O21  1  0.96218700  0.58403900  0.62353500  1
  O  O22  1  0.29586100  0.91570400  0.95763400  1
  O  O23  1  0.79589000  0.91582500  0.45748600  1
  O  O24  1  0.21161200  0.08426000  0.04245000  1
  O  O25  1  0.71167000  0.08414500  0.54250600  1
  O  O26  1  0.29210400  0.41568900  0.12269700  1
  O  O27  1  0.79208800  0.41599100  0.62275100  1
  O  O28  1  0.53780000  0.41595700  0.87647000  1
  O  O29  1  0.03828700  0.41612700  0.37646900  1
  O  O30  1  0.95451100  0.58385000  0.12357700  1
  O  O31  1  0.45448700  0.58395500  0.62371800  1
  O  O32  1  0.04552100  0.41604300  0.87627700  1
  O  O33  1  0.54548200  0.41615200  0.37643500  1
  O  O34  1  0.54205800  0.91586200  0.71111000  1
  O  O35  1  0.04201300  0.91606800  0.21073500  1
loop_
_geom_bond_atom_site_label_1
_geom_bond_atom_site_label_2
_geom_bond_distance
_geom_bond_site_symmetry_2
Ba0 O6 2.976807 1_555
Ba0 O7 2.977099 1_555
Ba0 O8 2.978030 1_555
Ba0 O3 2.978272 1_555
Ba0 O3 2.978331 1_455
Ba0 O9 2.978366 1_555
Ba0 O26 2.986323 1_555
Ba0 O29 2.994568 1_555
Ba0 O33 2.995345 1_555
Ba0 O25 2.998703 1_555
Ba0 O19 2.998875 1_555
Ba0 O14 3.003219 1_555
Ba1 O7 2.975071 1_555
Ba1 O9 2.975468 1_655
Ba1 O6 2.977308 1_656
Ba1 O2 2.977834 1_655
Ba1 O8 2.978293 1_556
Ba1 O2 2.978870 1_555
Ba1 O27 2.985238 1_555
Ba1 O32 2.990892 1_655
Ba1 O28 2.991830 1_555
Ba1 O24 3.000267 1_656
Ba1 O18 3.001091 1_556
Ba1 O15 3.006138 1_555
Ba2 O5 2.975591 1_555
Ba2 O11 2.976322 1_455
Ba2 O4 2.976614 1_454
Ba2 O10 2.978086 1_554
Ba2 O0 2.978240 1_455
Ba2 O0 2.978407 1_555
Ba2 O16 2.990620 1_454
Ba2 O22 2.991567 1_554
Ba2 O13 2.992559 1_555
Ba2 O35 2.997570 1_555
Ba2 O20 3.001063 1_555
Ba2 O30 3.001485 1_455
Ba3 O4 2.976350 1_555
Ba3 O10 2.977280 1_555
Ba3 O5 2.977802 1_555
Ba3 O1 2.977970 1_555
Ba3 O11 2.978530 1_555
Ba3 O1 2.978767 1_655
Ba3 O12 2.978962 1_555
Ba3 O31 2.984681 1_555
Ba3 O21 2.985193 1_555
Ba3 O17 3.008423 1_555
Ba3 O23 3.008463 1_555
Ba3 O34 3.011874 1_555
Ba4 O18 2.966168 1_555
Ba4 O24 2.967094 1_655
Ba4 O14 2.972592 1_555
Ba4 O14 2.972980 1_655
Ba4 O19 2.975870 1_655
Ba4 O25 2.976756 1_555
Ba4 O17 3.033307 1_645
Ba4 O35 3.033797 1_645
Ba4 O23 3.034870 1_545
Ba4 O8 3.051693 1_555
Ba4 O6 3.054395 1_655
Ba4 O3 3.067567 1_555
Ba5 O18 2.966585 1_556
Ba5 O24 2.967856 1_556
Ba5 O15 2.972593 1_555
Ba5 O15 2.973029 1_455
Ba5 O19 2.974803 1_555
Ba5 O25 2.975785 1_555
Ba5 O16 3.028539 1_545
Ba5 O22 3.029794 1_545
Ba5 O34 3.036167 1_545
Ba5 O9 3.061420 1_555
Ba5 O7 3.062585 1_555
Ba5 O2 3.062962 1_555
Ba6 O28 2.967502 1_554
Ba6 O32 2.968434 1_654
Ba6 O26 2.972334 1_555
Ba6 O26 2.972962 1_655
Ba6 O29 2.976645 1_655
Ba6 O33 2.977121 1_555
Ba6 O12 3.017457 1_554
Ba6 O20 3.026879 1_555
Ba6 O30 3.027919 1_555
Ba6 O3 3.058529 1_555
Ba6 O6 3.065437 1_655
Ba6 O8 3.066028 1_555
Ba7 O28 2.964667 1_555
Ba7 O32 2.968863 1_555
Ba7 O27 2.970653 1_555
Ba7 O33 2.972768 1_555
Ba7 O29 2.974436 1_555
Ba7 O27 2.974774 1_455
Ba7 O13 3.020839 1_555
Ba7 O31 3.022430 1_555
Ba7 O21 3.023153 1_455
Ba7 O2 3.057562 1_555
Ba7 O7 3.068925 1_555
Ba7 O9 3.072076 1_555
Ba8 O21 2.964896 1_455
Ba8 O31 2.969137 1_555
Ba8 O12 2.970623 1_455
Ba8 O30 2.972703 1_456
Ba8 O20 2.974298 1_556
Ba8 O12 2.974786 1_555
Ba8 O26 3.021099 1_556
Ba8 O32 3.022475 1_555
Ba8 O28 3.023162 1_555
Ba8 O1 3.057237 1_555
Ba8 O4 3.068653 1_455
Ba8 O10 3.071897 1_555
Ba9 O21 2.967729 1_555
Ba9 O31 2.968593 1_555
Ba9 O13 2.972422 1_655
Ba9 O13 2.972890 1_555
Ba9 O20 2.976322 1_555
Ba9 O30 2.976750 1_555
Ba9 O27 3.017175 1_555
Ba9 O29 3.026718 1_655
Ba9 O33 3.027765 1_555
Ba9 O0 3.059031 1_555
Ba9 O5 3.065886 1_555
Ba9 O11 3.066346 1_555
Ba10 O22 2.967001 1_555
Ba10 O16 2.968021 1_455
Ba10 O34 2.972541 1_555
Ba10 O34 2.973043 1_455
Ba10 O23 2.975334 1_455
Ba10 O17 2.976406 1_555
Ba10 O25 3.033663 1_465
Ba10 O15 3.034178 1_465
Ba10 O19 3.035204 1_565
Ba10 O10 3.054391 1_555
Ba10 O4 3.056121 1_455
Ba10 O1 3.066032 1_555
Ba11 O22 2.966921 1_554
Ba11 O16 2.968099 1_554
Ba11 O35 2.972534 1_555
Ba11 O35 2.973071 1_655
Ba11 O23 2.974166 1_555
Ba11 O17 2.974962 1_555
Ba11 O24 3.028082 1_565
Ba11 O18 3.029381 1_565
Ba11 O14 3.035771 1_565
Ba11 O11 3.058804 1_555
Ba11 O5 3.060958 1_555
Ba11 O0 3.064613 1_555
Co0 O30 2.130087 1_455
Co0 O33 2.130984 1_555
Co0 O20 2.131833 1_555
Co0 O29 2.132747 1_555
Co0 O13 2.140608 1_555
Co0 O26 2.142314 1_555
Co1 O34 2.130930 1_555
Co1 O14 2.132339 1_565
Co1 O17 2.135912 1_555
Co1 O23 2.137060 1_555
Co1 O25 2.137797 1_565
Co1 O19 2.138983 1_565
Co2 O32 2.130160 1_655
Co2 O31 2.130847 1_555
Co2 O28 2.135410 1_555
Co2 O21 2.136017 1_555
Co2 O27 2.136613 1_555
Co2 O12 2.138264 1_555
Co3 O15 2.126893 1_555
Co3 O35 2.128421 1_646
Co3 O18 2.136922 1_556
Co3 O24 2.137663 1_656
Co3 O22 2.138462 1_645
Co3 O16 2.139158 1_545
O0 Sb2 2.098483 1_555
O0 Sb4 2.099243 1_554
O1 Sb3 2.097003 1_555
O1 Sb5 2.100134 1_555
O2 Sb0 2.097754 1_555
O2 Sb6 2.099132 1_556
O3 Sb1 2.097811 1_555
O3 Sb7 2.100347 1_555
O4 Sb2 2.097732 1_556
O4 Sb4 2.099998 1_555
O5 Sb3 2.095842 1_555
O5 Sb5 2.100647 1_555
O6 Sb0 2.095722 1_554
O6 Sb6 2.100579 1_555
O7 Sb1 2.097863 1_555
O7 Sb7 2.100171 1_555
O8 Sb0 2.096213 1_554
O8 Sb6 2.099712 1_555
O9 Sb1 2.097078 1_455
O9 Sb7 2.100589 1_455
O10 Sb2 2.097335 1_556
O10 Sb4 2.099893 1_555
O11 Sb3 2.095969 1_655
O11 Sb5 2.100305 1_655
O12 Sb2 1.964378 1_556
O13 Sb3 1.961064 1_555
O14 Sb6 1.961402 1_555
O15 Sb7 1.965030 1_555
O16 Sb4 1.961566 1_555
O17 Sb5 1.961811 1_555
O18 Sb6 1.961215 1_555
O19 Sb7 1.961190 1_455
O20 Sb2 1.962725 1_555
O21 Sb3 1.962552 1_655
O22 Sb4 1.961860 1_555
O23 Sb5 1.960659 1_655
O24 Sb6 1.961040 1_555
O25 Sb7 1.962194 1_555
O26 Sb0 1.961363 1_554
O27 Sb1 1.964099 1_555
O28 Sb0 1.962114 1_555
O29 Sb1 1.963103 1_455
O30 Sb2 1.962165 1_555
O31 Sb3 1.965496 1_555
O32 Sb0 1.965131 1_555
O33 Sb1 1.962516 1_555
O34 Sb4 1.961590 1_555
O35 Sb5 1.964782 1_555
