# generated using pymatgen
data_Mg3Al(SiO4)3
_symmetry_space_group_name_H-M   'P 1'
_cell_length_a   5.41281461
_cell_length_b   5.41281461
_cell_length_c   29.20976978
_cell_angle_alpha   88.71836366
_cell_angle_beta   88.71836366
_cell_angle_gamma   118.84089343
_symmetry_Int_Tables_number   1
_chemical_formula_structural   Mg3Al(SiO4)3
_chemical_formula_sum   'Mg6 Al2 Si6 O24'
_cell_volume   748.92764418
_cell_formula_units_Z   2
loop_
 _symmetry_equiv_pos_site_id
 _symmetry_equiv_pos_as_xyz
  1  'x, y, z'
loop_
 _atom_site_type_symbol
 _atom_site_label
 _atom_site_symmetry_multiplicity
 _atom_site_fract_x
 _atom_site_fract_y
 _atom_site_fract_z
 _atom_site_occupancy
  Mg  Mg0  1  0.49179800  0.99914200  0.49954300  1
  Mg  Mg1  1  0.99914200  0.49179800  0.99954300  1
  Mg  Mg2  1  0.18423800  0.35871900  0.49954100  1
  Mg  Mg3  1  0.35871900  0.18423800  0.99954100  1
  Mg  Mg4  1  0.82114800  0.64682500  0.50037900  1
  Mg  Mg5  1  0.64682500  0.82114800  0.00037900  1
  Al  Al0  1  0.29269600  0.80667700  0.09573400  1
  Al  Al1  1  0.80667700  0.29269600  0.59573400  1
  Si  Si0  1  0.19648500  0.69952700  0.40392900  1
  Si  Si1  1  0.69952700  0.19648500  0.90392900  1
  Si  Si2  1  0.53108900  0.36396400  0.40407700  1
  Si  Si3  1  0.36396400  0.53108900  0.90407700  1
  Si  Si4  1  0.63574300  0.46784600  0.09559200  1
  Si  Si5  1  0.46784600  0.63574300  0.59559200  1
  O  O0  1  0.86788900  0.53734600  0.38676200  1
  O  O1  1  0.53734600  0.86788900  0.88676200  1
  O  O2  1  0.46836200  0.14623800  0.11560500  1
  O  O3  1  0.14623800  0.46836200  0.61560500  1
  O  O4  1  0.86438300  0.02117400  0.47217100  1
  O  O5  1  0.02117400  0.86438300  0.97217100  1
  O  O6  1  0.98767200  0.13571700  0.03004200  1
  O  O7  1  0.13571700  0.98767200  0.53004200  1
  O  O8  1  0.94705200  0.62184600  0.11632300  1
  O  O9  1  0.62184600  0.94705200  0.61632300  1
  O  O10  1  0.36950100  0.03568900  0.38646500  1
  O  O11  1  0.03568900  0.36950100  0.88646500  1
  O  O12  1  0.31227700  0.81713000  0.03413300  1
  O  O13  1  0.81713000  0.31227700  0.53413300  1
  O  O14  1  0.18537400  0.68536300  0.46065600  1
  O  O15  1  0.68536300  0.18537400  0.96065600  1
  O  O16  1  0.46822200  0.62776500  0.11430600  1
  O  O17  1  0.62776500  0.46822200  0.61430600  1
  O  O18  1  0.36773400  0.53565600  0.38578400  1
  O  O19  1  0.53565600  0.36773400  0.88578400  1
  O  O20  1  0.51592300  0.35050100  0.46056500  1
  O  O21  1  0.35050100  0.51592300  0.96056500  1
  O  O22  1  0.65417100  0.48071800  0.03859200  1
  O  O23  1  0.48071900  0.65417100  0.53859200  1
loop_
_geom_bond_atom_site_label_1
_geom_bond_atom_site_label_2
_geom_bond_distance
_geom_bond_site_symmetry_2
Mg0 O13 2.066715 1_565
Mg0 O7 2.077894 1_555
Mg0 O14 2.092536 1_555
Mg0 O4 2.100538 1_565
Mg0 O23 2.141238 1_555
Mg0 O20 2.141777 1_565
Mg1 O12 2.066715 1_656
Mg1 O6 2.077894 1_556
Mg1 O15 2.092536 1_555
Mg1 O5 2.100538 1_655
Mg1 O22 2.141236 1_556
Mg1 O21 2.141777 1_655
Mg2 O4 2.012534 1_455
Mg2 O23 2.030155 1_555
Mg2 O7 2.072929 1_545
Mg2 O14 2.077388 1_555
Mg2 O13 2.109401 1_455
Mg2 O20 2.123505 1_555
Mg3 O5 2.012534 1_545
Mg3 O22 2.030153 1_556
Mg3 O6 2.072929 1_456
Mg3 O15 2.077388 1_555
Mg3 O12 2.109401 1_546
Mg3 O21 2.123505 1_555
Mg4 O13 2.032955 1_555
Mg4 O7 2.039747 1_655
Mg4 O20 2.065792 1_555
Mg4 O4 2.073326 1_565
Mg4 O23 2.150256 1_555
Mg4 O14 2.183268 1_655
Mg5 O12 2.032955 1_555
Mg5 O6 2.039747 1_565
Mg5 O21 2.065792 1_554
Mg5 O5 2.073326 1_654
Mg5 O22 2.150260 1_555
Mg5 O15 2.183268 1_564
Al0 O8 1.726222 1_455
Al0 O2 1.733650 1_565
Al0 O16 1.738391 1_555
Al0 O12 1.798118 1_555
Al1 O9 1.726222 1_545
Al1 O3 1.733650 1_655
Al1 O17 1.738391 1_555
Al1 O13 1.798118 1_555
O0 Si0 1.654942 1_655
O0 Si2 1.657389 1_555
O1 Si1 1.654942 1_565
O1 Si3 1.657389 1_555
O2 Si4 1.613122 1_555
O3 Si5 1.613122 1_555
O8 Si4 1.616806 1_555
O9 Si5 1.616806 1_555
O10 Si0 1.655674 1_545
O10 Si2 1.657903 1_555
O11 Si1 1.655674 1_455
O11 Si3 1.657903 1_555
O14 Si0 1.655445 1_555
O15 Si1 1.655445 1_555
O16 Si4 1.620660 1_555
O17 Si5 1.620660 1_555
O18 Si0 1.648993 1_555
O18 Si2 1.650060 1_555
O19 Si1 1.648993 1_555
O19 Si3 1.650060 1_555
O20 Si2 1.648437 1_555
O21 Si3 1.648437 1_555
O22 Si4 1.663599 1_555
O23 Si5 1.663599 1_555
