# generated using pymatgen
data_ZnNi2(PO5)2
_symmetry_space_group_name_H-M   'P 1'
_cell_length_a   9.97840794
_cell_length_b   9.03269116
_cell_length_c   6.47860569
_cell_angle_alpha   78.17033789
_cell_angle_beta   62.37458523
_cell_angle_gamma   39.45507687
_symmetry_Int_Tables_number   1
_chemical_formula_structural   ZnNi2(PO5)2
_chemical_formula_sum   'Zn2 Ni4 P4 O20'
_cell_volume   316.39276254
_cell_formula_units_Z   2
loop_
 _symmetry_equiv_pos_site_id
 _symmetry_equiv_pos_as_xyz
  1  'x, y, z'
loop_
 _atom_site_type_symbol
 _atom_site_label
 _atom_site_symmetry_multiplicity
 _atom_site_fract_x
 _atom_site_fract_y
 _atom_site_fract_z
 _atom_site_occupancy
  Zn  Zn0  1  0.75000000  0.75000000  0.75000000  1
  Zn  Zn1  1  0.50000000  0.50000000  0.50000000  1
  Ni  Ni0  1  0.12500000  0.12500000  0.62500000  1
  Ni  Ni1  1  0.12500000  0.62500000  0.12500000  1
  Ni  Ni2  1  0.12500000  0.12500000  0.12500000  1
  Ni  Ni3  1  0.62500000  0.12500000  0.12500000  1
  P  P0  1  0.29369600  0.29369600  0.70630400  1
  P  P1  1  0.95630400  0.95630400  0.54369600  1
  P  P2  1  0.70630400  0.70630400  0.29369600  1
  P  P3  1  0.54369600  0.54369600  0.95630400  1
  O  O0  1  0.46099100  0.83800900  0.51288700  1
  O  O1  1  0.92340500  0.92340500  0.07659500  1
  O  O2  1  0.40826600  0.56878700  0.86471600  1
  O  O3  1  0.73711300  0.06188700  0.78900900  1
  O  O4  1  0.83800900  0.46099100  0.18811300  1
  O  O5  1  0.84173400  0.68121300  0.38528400  1
  O  O6  1  0.32659500  0.32659500  0.17340500  1
  O  O7  1  0.07659500  0.07659500  0.92340500  1
  O  O8  1  0.17340500  0.17340500  0.32659500  1
  O  O9  1  0.78900900  0.41199100  0.73711300  1
  O  O10  1  0.18811300  0.51288700  0.83800900  1
  O  O11  1  0.06188700  0.73711300  0.41199100  1
  O  O12  1  0.51288700  0.18811300  0.46099100  1
  O  O13  1  0.56878700  0.40826600  0.15823000  1
  O  O14  1  0.09177000  0.38528400  0.68121300  1
  O  O15  1  0.86471600  0.15823000  0.40826600  1
  O  O16  1  0.38528400  0.09177000  0.84173400  1
  O  O17  1  0.15823000  0.86471600  0.56878700  1
  O  O18  1  0.41199100  0.78900900  0.06188700  1
  O  O19  1  0.68121300  0.84173400  0.09177000  1
loop_
_geom_bond_atom_site_label_1
_geom_bond_atom_site_label_2
_geom_bond_distance
_geom_bond_site_symmetry_2
Ni0 O8 1.809836 1_555
Ni0 O7 1.809836 1_555
Ni0 O9 1.892190 1_455
Ni0 O0 1.892190 1_545
Ni0 O17 2.192099 1_545
Ni0 O14 2.192099 1_555
Ni1 O6 1.809836 1_555
Ni1 O1 1.809836 1_455
Ni1 O10 1.892190 1_554
Ni1 O11 1.892190 1_555
Ni1 O5 2.192091 1_455
Ni1 O2 2.192091 1_554
Ni2 O7 1.809836 1_554
Ni2 O8 1.809836 1_555
Ni2 O4 1.892190 1_455
Ni2 O18 1.892190 1_545
Ni2 O15 2.192097 1_455
Ni2 O16 2.192097 1_554
Ni3 O6 1.809836 1_555
Ni3 O1 1.809836 1_545
Ni3 O12 1.892190 1_555
Ni3 O3 1.892190 1_554
Ni3 O13 2.192090 1_555
Ni3 O19 2.192090 1_545
O0 P2 1.547835 1_555
O2 P3 1.563708 1_555
O2 Zn1 2.127175 1_555
O3 P1 1.547835 1_545
O4 P2 1.547835 1_555
O5 P2 1.563708 1_555
O5 Zn0 2.127175 1_555
O9 P3 1.547835 1_555
O10 P0 1.547835 1_555
O11 P1 1.547835 1_455
O12 P0 1.547835 1_555
O13 P3 1.563703 1_554
O13 Zn1 2.127181 1_555
O14 P0 1.563699 1_555
O14 Zn0 2.127178 1_455
O15 P1 1.563703 1_545
O15 Zn1 2.127176 1_555
O16 P0 1.563703 1_555
O16 Zn0 2.127176 1_545
O17 P1 1.563699 1_455
O17 Zn1 2.127178 1_555
O18 P3 1.547835 1_554
O19 P2 1.563703 1_555
O19 Zn0 2.127181 1_554
