# generated using pymatgen
data_Ce(Al2Cr)4
_symmetry_space_group_name_H-M   'P 1'
_cell_length_a   5.02367000
_cell_length_b   6.84941496
_cell_length_c   6.84941496
_cell_angle_alpha   82.27113371
_cell_angle_beta   68.48636939
_cell_angle_gamma   68.48636939
_symmetry_Int_Tables_number   1
_chemical_formula_structural   Ce(Al2Cr)4
_chemical_formula_sum   'Ce1 Al8 Cr4'
_cell_volume   203.98697532
_cell_formula_units_Z   1
loop_
 _symmetry_equiv_pos_site_id
 _symmetry_equiv_pos_as_xyz
  1  'x, y, z'
loop_
 _atom_site_type_symbol
 _atom_site_label
 _atom_site_symmetry_multiplicity
 _atom_site_fract_x
 _atom_site_fract_y
 _atom_site_fract_z
 _atom_site_occupancy
  Ce  Ce0  1  0.00000000  0.00000000  0.00000000  1
  Al  Al0  1  0.00000000  0.34264300  0.65735700  1
  Al  Al1  1  0.00000000  0.65735700  0.34264300  1
  Al  Al2  1  0.65735700  0.34264300  0.34264300  1
  Al  Al3  1  0.34264300  0.65735700  0.65735700  1
  Al  Al4  1  0.50000000  0.77611100  0.22388900  1
  Al  Al5  1  0.50000000  0.22388900  0.77611100  1
  Al  Al6  1  0.72388900  0.77611100  0.77611100  1
  Al  Al7  1  0.27611100  0.22388900  0.22388900  1
  Cr  Cr0  1  0.00000000  0.00000000  0.50000000  1
  Cr  Cr1  1  0.50000000  0.00000000  0.50000000  1
  Cr  Cr2  1  0.50000000  0.50000000  0.00000000  1
  Cr  Cr3  1  0.00000000  0.50000000  0.00000000  1
loop_
_geom_bond_atom_site_label_1
_geom_bond_atom_site_label_2
_geom_bond_distance
_geom_bond_site_symmetry_2
Ce0 Cr2 3.424707 1_455
Ce0 Cr0 3.424707 1_555
Ce0 Cr1 3.424707 1_554
Ce0 Cr3 3.424707 1_555
Ce0 Cr1 3.424707 1_455
Ce0 Cr3 3.424707 1_545
Ce0 Cr0 3.424707 1_554
Ce0 Cr2 3.424707 1_545
Al0 Cr1 2.711085 1_555
Al0 Cr0 2.711085 1_555
Al0 Cr2 2.711085 1_456
Al0 Cr3 2.711085 1_556
Al0 Al5 2.730309 1_555
Al0 Al5 2.730309 1_455
Al0 Al1 2.836101 1_555
Al0 Al7 2.863935 1_555
Al0 Al6 2.863935 1_455
Al0 Ce0 3.087788 1_556
Al1 Cr3 2.711085 1_555
Al1 Cr2 2.711085 1_555
Al1 Cr1 2.711085 1_465
Al1 Cr0 2.711085 1_565
Al1 Al4 2.730309 1_455
Al1 Al4 2.730309 1_555
Al1 Al7 2.863935 1_555
Al1 Al6 2.863935 1_455
Al1 Ce0 3.087788 1_565
Al2 Cr2 2.711085 1_555
Al2 Cr1 2.711085 1_555
Al2 Cr0 2.711085 1_655
Al2 Cr3 2.711085 1_655
Al2 Al7 2.730309 1_555
Al2 Al7 2.730309 1_655
Al2 Al3 2.836101 1_555
Al2 Al5 2.863935 1_555
Al2 Al4 2.863935 1_555
Al2 Ce0 3.087788 1_655
Al3 Cr1 2.711085 1_565
Al3 Cr2 2.711085 1_556
Al3 Cr3 2.711085 1_556
Al3 Cr0 2.711085 1_565
Al3 Al6 2.730309 1_555
Al3 Al6 2.730309 1_455
Al3 Al4 2.863935 1_555
Al3 Al5 2.863935 1_555
Al3 Ce0 3.087788 1_566
Al4 Cr2 2.590047 1_555
Al4 Cr0 2.590047 1_565
Al4 Cr3 2.590047 1_655
Al4 Cr1 2.590047 1_565
Al4 Al7 2.853339 1_565
Al4 Al6 2.853339 1_554
Al4 Ce0 3.221814 1_665
Al4 Ce0 3.221814 1_565
Al5 Cr1 2.590047 1_555
Al5 Cr3 2.590047 1_556
Al5 Cr0 2.590047 1_655
Al5 Cr2 2.590047 1_556
Al5 Al6 2.853339 1_545
Al5 Al7 2.853339 1_556
Al5 Ce0 3.221814 1_656
Al5 Ce0 3.221814 1_556
Al6 Cr3 2.590047 1_656
Al6 Cr1 2.590047 1_565
Al6 Cr0 2.590047 1_665
Al6 Cr2 2.590047 1_556
Al6 Ce0 3.221814 1_666
Al6 Ce0 3.221814 1_566
Al7 Cr2 2.590047 1_555
Al7 Cr1 2.590047 1_555
Al7 Cr3 2.590047 1_555
Al7 Cr0 2.590047 1_555
Al7 Ce0 3.221814 1_555
Al7 Ce0 3.221814 1_655
Cr0 Cr1 2.511835 1_555
Cr0 Cr1 2.511835 1_455
Cr2 Cr3 2.511835 1_555
Cr2 Cr3 2.511835 1_655
