# generated using pymatgen
data_Nd5Si10NiRu3
_symmetry_space_group_name_H-M   'P 1'
_cell_length_a   4.08726000
_cell_length_b   4.29555282
_cell_length_c   41.28700290
_cell_angle_alpha   93.74810482
_cell_angle_beta   90.00000000
_cell_angle_gamma   90.00000000
_symmetry_Int_Tables_number   1
_chemical_formula_structural   Nd5Si10NiRu3
_chemical_formula_sum   'Nd10 Si20 Ni2 Ru6'
_cell_volume   723.32716102
_cell_formula_units_Z   2
loop_
 _symmetry_equiv_pos_site_id
 _symmetry_equiv_pos_as_xyz
  1  'x, y, z'
loop_
 _atom_site_type_symbol
 _atom_site_label
 _atom_site_symmetry_multiplicity
 _atom_site_fract_x
 _atom_site_fract_y
 _atom_site_fract_z
 _atom_site_occupancy
  Nd  Nd0  1  0.75000000  0.51442400  0.04333300  1
  Nd  Nd1  1  0.75000000  0.12202900  0.24187200  1
  Nd  Nd2  1  0.75000000  0.72161600  0.43984000  1
  Nd  Nd3  1  0.75000000  0.32216900  0.63829100  1
  Nd  Nd4  1  0.75000000  0.93734800  0.83727900  1
  Nd  Nd5  1  0.25000000  0.08087100  0.15837200  1
  Nd  Nd6  1  0.25000000  0.68054500  0.35803700  1
  Nd  Nd7  1  0.25000000  0.28029900  0.55709200  1
  Nd  Nd8  1  0.25000000  0.88594400  0.75648000  1
  Nd  Nd9  1  0.25000000  0.46464300  0.95960900  1
  Si  Si0  1  0.75000000  0.04252200  0.10311000  1
  Si  Si1  1  0.75000000  0.64555700  0.30227000  1
  Si  Si2  1  0.75000000  0.25301900  0.50235000  1
  Si  Si3  1  0.75000000  0.84801600  0.70198000  1
  Si  Si4  1  0.75000000  0.37433100  0.89957900  1
  Si  Si5  1  0.25000000  0.55811600  0.10222700  1
  Si  Si6  1  0.25000000  0.15466300  0.30147300  1
  Si  Si7  1  0.25000000  0.75242700  0.50148500  1
  Si  Si8  1  0.25000000  0.35561400  0.70104000  1
  Si  Si9  1  0.25000000  0.02468800  0.89845700  1
  Si  Si10  1  0.75000000  0.59585600  0.18326300  1
  Si  Si11  1  0.75000000  0.19364600  0.38338000  1
  Si  Si12  1  0.75000000  0.79298100  0.58175300  1
  Si  Si13  1  0.75000000  0.39825000  0.77949000  1
  Si  Si14  1  0.75000000  0.97981500  0.98210500  1
  Si  Si15  1  0.25000000  0.99436400  0.01635200  1
  Si  Si16  1  0.25000000  0.60539800  0.21586800  1
  Si  Si17  1  0.25000000  0.20767200  0.41716900  1
  Si  Si18  1  0.25000000  0.80894600  0.61645000  1
  Si  Si19  1  0.25000000  0.42194600  0.81569100  1
  Ni  Ni0  1  0.75000000  0.55943400  0.12863600  1
  Ni  Ni1  1  0.75000000  0.16182700  0.32848000  1
  Ru  Ru0  1  0.75000000  0.88419100  0.92309500  1
  Ru  Ru1  1  0.25000000  0.04061500  0.07365900  1
  Ru  Ru2  1  0.25000000  0.63854500  0.27299500  1
  Ru  Ru3  1  0.25000000  0.23745800  0.47511700  1
  Ru  Ru4  1  0.25000000  0.84139500  0.67470500  1
  Ru  Ru5  1  0.25000000  0.51577900  0.87513600  1
loop_
_geom_bond_atom_site_label_1
_geom_bond_atom_site_label_2
_geom_bond_distance
_geom_bond_site_symmetry_2
Nd0 Si15 3.157185 1_655
Nd0 Si15 3.157185 1_555
Nd0 Si5 3.172452 1_555
Nd0 Si5 3.172452 1_655
Nd0 Si15 3.175295 1_545
Nd0 Si15 3.175295 1_645
Nd0 Ru1 3.196811 1_555
Nd0 Ru1 3.196811 1_655
Nd0 Ru1 3.237742 1_565
Nd0 Ru1 3.237742 1_665
Nd0 Si0 3.241156 1_565
Nd0 Si0 3.294574 1_555
Nd0 Si14 3.302279 1_544
Nd0 Si14 3.323784 1_554
Nd1 Si16 3.151464 1_555
Nd1 Si16 3.151464 1_655
Nd1 Si16 3.153175 1_545
Nd1 Si16 3.153175 1_645
Nd1 Si6 3.194722 1_655
Nd1 Si6 3.194722 1_555
Nd1 Si10 3.201384 1_545
Nd1 Ru2 3.221424 1_555
Nd1 Ru2 3.221424 1_655
Nd1 Ru2 3.238783 1_545
Nd1 Ru2 3.238783 1_645
Nd1 Si1 3.246910 1_555
Nd1 Si10 3.262199 1_555
Nd1 Si1 3.327852 1_545
Nd2 Si17 3.107444 1_655
Nd2 Si17 3.107444 1_555
Nd2 Si17 3.109228 1_665
Nd2 Si17 3.109228 1_565
Nd2 Si11 3.144225 1_555
Nd2 Si11 3.187960 1_565
Nd2 Si7 3.260004 1_555
Nd2 Si7 3.260004 1_655
Nd2 Ru3 3.284160 1_565
Nd2 Ru3 3.284160 1_665
Nd2 Ru3 3.319495 1_555
Nd2 Ru3 3.319495 1_655
Nd2 Si2 3.331839 1_565
Nd2 Si2 3.375156 1_555
Nd3 Si18 3.096744 1_645
Nd3 Si18 3.096744 1_545
Nd3 Si18 3.099721 1_555
Nd3 Si18 3.099721 1_655
Nd3 Si12 3.149982 1_545
Nd3 Si12 3.186877 1_555
Nd3 Si8 3.295485 1_655
Nd3 Si8 3.295485 1_555
Nd3 Ru4 3.312527 1_655
Nd3 Ru4 3.312527 1_555
Nd3 Ru4 3.332814 1_545
Nd3 Ru4 3.332814 1_645
Nd3 Si3 3.352621 1_555
Nd3 Si3 3.429718 1_545
Nd4 Si4 3.083555 1_565
Nd4 Si19 3.089748 1_565
Nd4 Si19 3.089748 1_665
Nd4 Si19 3.100705 1_555
Nd4 Si19 3.100705 1_655
Nd4 Si13 3.198435 1_565
Nd4 Ru5 3.204482 1_555
Nd4 Ru5 3.204482 1_655
Nd4 Si13 3.214483 1_555
Nd4 Si9 3.251651 1_565
Nd4 Si9 3.251651 1_665
Nd5 Si0 3.059433 1_555
Nd5 Si0 3.059433 1_455
Nd5 Si5 3.120133 1_545
Nd5 Si10 3.135109 1_455
Nd5 Si10 3.135109 1_555
Nd5 Si10 3.138957 1_445
Nd5 Si10 3.138957 1_545
Nd5 Si16 3.164244 1_555
Nd5 Si5 3.193323 1_555
Nd5 Ni0 3.199927 1_555
Nd5 Ni0 3.199927 1_455
Nd5 Ni0 3.215765 1_545
Nd5 Ni0 3.215765 1_445
Nd5 Si16 3.231170 1_545
Nd6 Si1 3.074908 1_555
Nd6 Si1 3.074908 1_455
Nd6 Si11 3.134897 1_565
Nd6 Si11 3.134897 1_465
Nd6 Si6 3.141187 1_555
Nd6 Si11 3.151465 1_455
Nd6 Si11 3.151465 1_555
Nd6 Si6 3.197414 1_565
Nd6 Ni1 3.204602 1_565
Nd6 Ni1 3.204602 1_465
Nd6 Ni1 3.205448 1_555
Nd6 Ni1 3.205448 1_455
Nd6 Si17 3.219422 1_565
Nd6 Si17 3.276382 1_555
Nd7 Si2 3.043638 1_455
Nd7 Si2 3.043638 1_555
Nd7 Si7 3.119594 1_545
Nd7 Si12 3.125679 1_555
Nd7 Si12 3.125679 1_455
Nd7 Si12 3.142240 1_445
Nd7 Si12 3.142240 1_545
Nd7 Si7 3.161114 1_555
Nd7 Si18 3.230338 1_555
Nd7 Si18 3.279365 1_545
Nd8 Si3 3.036145 1_455
Nd8 Si3 3.036145 1_555
Nd8 Si13 3.106191 1_465
Nd8 Si13 3.106191 1_565
Nd8 Si13 3.118945 1_555
Nd8 Si13 3.118945 1_455
Nd8 Si8 3.122039 1_555
Nd8 Si8 3.148543 1_565
Nd8 Si19 3.246777 1_565
Nd8 Si19 3.253595 1_555
Nd9 Si9 3.053234 1_555
Nd9 Si14 3.103097 1_445
Nd9 Si14 3.103097 1_545
Nd9 Si14 3.109260 1_455
Nd9 Si14 3.109260 1_555
Nd9 Si15 3.157399 1_556
Nd9 Ru0 3.170527 1_455
Nd9 Ru0 3.170527 1_555
Nd9 Si15 3.191872 1_546
Nd9 Si4 3.216205 1_555
Nd9 Si4 3.216205 1_455
Si10 Si16 2.446026 1_555
Si10 Si16 2.446026 1_655
Si11 Si17 2.472897 1_655
Si11 Si17 2.472897 1_555
Si12 Si18 2.494081 1_655
Si12 Si18 2.494081 1_555
Si13 Si19 2.529983 1_555
Si13 Si19 2.529983 1_655
Si14 Si15 2.483555 1_556
Si14 Si15 2.483555 1_656
Ni0 Si10 2.250579 1_555
Ni0 Si5 2.316141 1_555
Ni0 Si5 2.316141 1_655
Ni0 Si0 2.388049 1_565
Ni0 Si0 2.394791 1_555
Ni1 Si11 2.261837 1_555
Ni1 Si6 2.327272 1_655
Ni1 Si6 2.327272 1_555
Ni1 Si1 2.403185 1_545
Ni1 Si1 2.404705 1_555
Ru0 Si4 2.336947 1_555
Ru0 Si4 2.375440 1_565
Ru0 Si9 2.378165 1_565
Ru0 Si9 2.378165 1_665
Ru0 Si14 2.444108 1_555
Ru1 Si15 2.361384 1_545
Ru1 Si0 2.377753 1_455
Ru1 Si0 2.377753 1_555
Ru1 Si5 2.447430 1_555
Ru1 Si5 2.450810 1_545
Ru2 Si16 2.353587 1_555
Ru2 Si1 2.373493 1_555
Ru2 Si1 2.373493 1_455
Ru2 Si6 2.440652 1_565
Ru2 Si6 2.454034 1_555
Ru3 Si2 2.331367 1_555
Ru3 Si2 2.331367 1_455
Ru3 Si17 2.387551 1_555
Ru3 Si7 2.400751 1_555
Ru3 Si7 2.413004 1_545
Ru4 Si3 2.332628 1_455
Ru4 Si3 2.332628 1_555
Ru4 Si8 2.397343 1_565
Ru4 Si18 2.400096 1_555
Ru4 Si8 2.415191 1_555
Ru5 Si9 2.330385 1_565
Ru5 Si9 2.375429 1_555
Ru5 Si4 2.375754 1_555
Ru5 Si4 2.375754 1_455
Ru5 Si19 2.461045 1_555
