# generated using pymatgen
data_Ba3(GeN2)2
_symmetry_space_group_name_H-M   'P 1'
_cell_length_a   6.18591839
_cell_length_b   10.83304312
_cell_length_c   10.32349548
_cell_angle_alpha   90.00000000
_cell_angle_beta   90.00000000
_cell_angle_gamma   90.00000000
_symmetry_Int_Tables_number   1
_chemical_formula_structural   Ba3(GeN2)2
_chemical_formula_sum   'Ba12 Ge8 N16'
_cell_volume   691.80138939
_cell_formula_units_Z   4
loop_
 _symmetry_equiv_pos_site_id
 _symmetry_equiv_pos_as_xyz
  1  'x, y, z'
loop_
 _atom_site_type_symbol
 _atom_site_label
 _atom_site_symmetry_multiplicity
 _atom_site_fract_x
 _atom_site_fract_y
 _atom_site_fract_z
 _atom_site_occupancy
  Ba  Ba0  1  0.12198390  0.34026163  0.58147786  1
  Ba  Ba1  1  0.37801610  0.65973837  0.58147786  1
  Ba  Ba2  1  0.12198390  0.15973837  0.91852214  1
  Ba  Ba3  1  0.37801610  0.84026163  0.91852214  1
  Ba  Ba4  1  0.87801610  0.65973837  0.41852214  1
  Ba  Ba5  1  0.62198390  0.34026163  0.41852214  1
  Ba  Ba6  1  0.87801610  0.84026163  0.08147786  1
  Ba  Ba7  1  0.62198390  0.15973837  0.08147786  1
  Ba  Ba8  1  0.75000000  0.50000000  0.10204265  1
  Ba  Ba9  1  0.75000000  0.00000000  0.39795735  1
  Ba  Ba10  1  0.25000000  0.50000000  0.89795735  1
  Ba  Ba11  1  0.25000000  0.00000000  0.60204265  1
  Ge  Ge0  1  0.58445007  0.25000000  0.75000000  1
  Ge  Ge1  1  0.91554993  0.75000000  0.75000000  1
  Ge  Ge2  1  0.41554993  0.75000000  0.25000000  1
  Ge  Ge3  1  0.08445007  0.25000000  0.25000000  1
  Ge  Ge4  1  0.75000000  0.50000000  0.75688838  1
  Ge  Ge5  1  0.75000000  0.00000000  0.74311162  1
  Ge  Ge6  1  0.25000000  0.50000000  0.24311162  1
  Ge  Ge7  1  0.25000000  0.00000000  0.25688838  1
  N  N0  1  0.51707442  0.44753711  0.65595334  1
  N  N1  1  0.98292558  0.55246289  0.65595334  1
  N  N2  1  0.51707442  0.05246289  0.84404666  1
  N  N3  1  0.98292558  0.94753711  0.84404666  1
  N  N4  1  0.48292558  0.55246289  0.34404666  1
  N  N5  1  0.01707442  0.44753711  0.34404666  1
  N  N6  1  0.48292558  0.94753711  0.15595334  1
  N  N7  1  0.01707442  0.05246289  0.15595334  1
  N  N8  1  0.78991654  0.14752823  0.63584262  1
  N  N9  1  0.71008346  0.85247177  0.63584262  1
  N  N10  1  0.78991654  0.35247177  0.86415738  1
  N  N11  1  0.71008346  0.64752823  0.86415738  1
  N  N12  1  0.21008346  0.85247177  0.36415738  1
  N  N13  1  0.28991654  0.14752823  0.36415738  1
  N  N14  1  0.21008346  0.64752823  0.13584262  1
  N  N15  1  0.28991654  0.35247177  0.13584262  1
loop_
_geom_bond_atom_site_label_1
_geom_bond_atom_site_label_2
_geom_bond_distance
_geom_bond_site_symmetry_2
Ba0 N1 2.572060 1_455
Ba0 N5 2.789205 1_555
Ba0 N0 2.813321 1_555
Ba0 N8 2.982241 1_455
Ba0 N13 3.236008 1_555
Ba1 N0 2.572060 1_555
Ba1 N4 2.789205 1_555
Ba1 N1 2.813321 1_455
Ba1 N9 2.982241 1_555
Ba1 N12 3.236008 1_555
Ba2 N3 2.572060 1_445
Ba2 N7 2.789205 1_556
Ba2 N2 2.813321 1_555
Ba2 N10 2.982241 1_455
Ba2 N15 3.236008 1_556
Ba3 N2 2.572060 1_565
Ba3 N6 2.789205 1_556
Ba3 N3 2.813321 1_455
Ba3 N11 2.982241 1_555
Ba3 N14 3.236008 1_556
Ba4 N5 2.572060 1_655
Ba4 N1 2.789205 1_555
Ba4 N4 2.813321 1_555
Ba4 N12 2.982241 1_655
Ba4 N9 3.236008 1_555
Ba5 N4 2.572060 1_555
Ba5 N0 2.789205 1_555
Ba5 N5 2.813321 1_655
Ba5 N13 2.982241 1_555
Ba5 N8 3.236008 1_555
Ba6 N7 2.572060 1_665
Ba6 N3 2.789205 1_554
Ba6 N6 2.813321 1_555
Ba6 N14 2.982241 1_655
Ba6 N11 3.236008 1_554
Ba7 N6 2.572060 1_545
Ba7 N2 2.789205 1_554
Ba7 N7 2.813321 1_655
Ba7 N15 2.982241 1_555
Ba7 N10 3.236008 1_554
Ba8 N10 2.940432 1_554
Ba8 N11 2.940432 1_554
Ba8 N5 3.048619 1_655
Ba8 N4 3.048619 1_555
Ba8 N14 3.282662 1_655
Ba8 N15 3.282662 1_555
Ba9 N9 2.940432 1_545
Ba9 N8 2.940432 1_555
Ba9 N6 3.048619 1_545
Ba9 N7 3.048619 1_655
Ba9 N12 3.282662 1_645
Ba9 N13 3.282662 1_555
Ba10 N15 2.940432 1_556
Ba10 N14 2.940432 1_556
Ba10 N0 3.048619 1_555
Ba10 N1 3.048619 1_455
Ba10 N10 3.282662 1_455
Ba10 N11 3.282662 1_555
Ba11 N12 2.940432 1_545
Ba11 N13 2.940432 1_555
Ba11 N2 3.048619 1_555
Ba11 N3 3.048619 1_445
Ba11 N9 3.282662 1_545
Ba11 N8 3.282662 1_455
Ge0 N8 2.058297 1_555
Ge0 N10 2.058297 1_555
Ge0 N0 2.386551 1_555
Ge0 N2 2.386551 1_555
Ge1 N11 2.058297 1_555
Ge1 N9 2.058297 1_555
Ge1 N1 2.386551 1_555
Ge1 N3 2.386551 1_555
Ge2 N14 2.058297 1_555
Ge2 N12 2.058297 1_555
Ge2 N4 2.386551 1_555
Ge2 N6 2.386551 1_555
Ge3 N13 2.058297 1_555
Ge3 N15 2.058297 1_555
Ge3 N5 2.386551 1_555
Ge3 N7 2.386551 1_555
Ge4 N0 1.866774 1_555
Ge4 N1 1.866774 1_555
Ge4 N10 1.959965 1_555
Ge4 N11 1.959965 1_555
Ge5 N3 1.866774 1_545
Ge5 N2 1.866774 1_555
Ge5 N9 1.959965 1_545
Ge5 N8 1.959965 1_555
Ge6 N5 1.866774 1_555
Ge6 N4 1.866774 1_555
Ge6 N15 1.959965 1_555
Ge6 N14 1.959965 1_555
Ge7 N6 1.866774 1_545
Ge7 N7 1.866774 1_555
Ge7 N12 1.959965 1_545
Ge7 N13 1.959965 1_555
