# generated using pymatgen
data_NaLi9Fe10(SiO3)20
_symmetry_space_group_name_H-M   'P 1'
_cell_length_a   9.49639061
_cell_length_b   9.49639061
_cell_length_c   15.72150392
_cell_angle_alpha   71.62624402
_cell_angle_beta   71.62624402
_cell_angle_gamma   55.06976946
_symmetry_Int_Tables_number   1
_chemical_formula_structural   NaLi9Fe10(SiO3)20
_chemical_formula_sum   'Na1 Li9 Fe10 Si20 O60'
_cell_volume   1086.45157000
_cell_formula_units_Z   1
loop_
 _symmetry_equiv_pos_site_id
 _symmetry_equiv_pos_as_xyz
  1  'x, y, z'
loop_
 _atom_site_type_symbol
 _atom_site_label
 _atom_site_symmetry_multiplicity
 _atom_site_fract_x
 _atom_site_fract_y
 _atom_site_fract_z
 _atom_site_occupancy
  Na  Na0  1  0.13896800  0.86103200  0.50000000  1
  Li  Li0  1  0.68632500  0.51354000  0.60004800  1
  Li  Li1  1  0.48646000  0.31367500  0.39995200  1
  Li  Li2  1  0.08624600  0.91375400  0.00000000  1
  Li  Li3  1  0.51376900  0.28625500  0.89999900  1
  Li  Li4  1  0.88622300  0.71387000  0.80004500  1
  Li  Li5  1  0.31360100  0.08608500  0.70006300  1
  Li  Li6  1  0.91391500  0.68639900  0.29993700  1
  Li  Li7  1  0.28613000  0.11377700  0.19995500  1
  Li  Li8  1  0.71374500  0.48623100  0.10000100  1
  Fe  Fe0  1  0.05007400  0.15018500  0.60052400  1
  Fe  Fe1  1  0.74882900  0.25117100  0.50000000  1
  Fe  Fe2  1  0.84981500  0.94992600  0.39947600  1
  Fe  Fe3  1  0.45133400  0.54866600  0.00000000  1
  Fe  Fe4  1  0.14859700  0.65118700  0.90039100  1
  Fe  Fe5  1  0.25126800  0.34845300  0.80031000  1
  Fe  Fe6  1  0.94877000  0.45153300  0.70010800  1
  Fe  Fe7  1  0.54846700  0.05123000  0.29989200  1
  Fe  Fe8  1  0.65154700  0.74873200  0.19969000  1
  Fe  Fe9  1  0.34881300  0.85140300  0.09960900  1
  Si  Si0  1  0.03454500  0.51525800  0.47923800  1
  Si  Si1  1  0.48474200  0.96545500  0.52076200  1
  Si  Si2  1  0.11355500  0.23741800  0.37901900  1
  Si  Si3  1  0.56590100  0.68539400  0.42006000  1
  Si  Si4  1  0.51534200  0.63418200  0.77956800  1
  Si  Si5  1  0.96550300  0.08541100  0.82065500  1
  Si  Si6  1  0.23467500  0.71406200  0.68155900  1
  Si  Si7  1  0.68535100  0.16523600  0.72093700  1
  Si  Si8  1  0.31460600  0.43409900  0.57994000  1
  Si  Si9  1  0.76258200  0.88644500  0.62098100  1
  Si  Si10  1  0.63465600  0.11460300  0.07928100  1
  Si  Si11  1  0.08539600  0.56540800  0.12070100  1
  Si  Si12  1  0.71456800  0.83464600  0.97925800  1
  Si  Si13  1  0.16535400  0.28543200  0.02074200  1
  Si  Si14  1  0.43459200  0.91460400  0.87929900  1
  Si  Si15  1  0.88539700  0.36534400  0.92071900  1
  Si  Si16  1  0.83476400  0.31464900  0.27906300  1
  Si  Si17  1  0.28593800  0.76532500  0.31844100  1
  Si  Si18  1  0.91458900  0.03449700  0.17934500  1
  Si  Si19  1  0.36581800  0.48465800  0.22043200  1
  O  O0  1  0.57313400  0.04649000  0.42618500  1
  O  O1  1  0.89761000  0.71312500  0.43807400  1
  O  O2  1  0.10257800  0.40568100  0.39695600  1
  O  O3  1  0.28687500  0.10239000  0.56192600  1
  O  O4  1  0.95351000  0.42686600  0.57381500  1
  O  O5  1  0.49690000  0.79725200  0.50156300  1
  O  O6  1  0.70114500  0.48831900  0.46228400  1
  O  O7  1  0.02105700  0.16296300  0.47425200  1
  O  O8  1  0.39754300  0.69854300  0.40005600  1
  O  O9  1  0.08618600  0.90303500  0.35605700  1
  O  O10  1  0.04627900  0.17496800  0.72647300  1
  O  O11  1  0.75321900  0.22680100  0.37358000  1
  O  O12  1  0.71306000  0.49778900  0.73795100  1
  O  O13  1  0.40524600  0.69969300  0.69817300  1
  O  O14  1  0.77319900  0.24678100  0.62642000  1
  O  O15  1  0.09696500  0.91381400  0.64394300  1
  O  O16  1  0.30145700  0.60245700  0.59994400  1
  O  O17  1  0.89884300  0.19644000  0.90206100  1
  O  O18  1  0.83703700  0.97894300  0.52574800  1
  O  O19  1  0.51168100  0.29885500  0.53771600  1
  O  O20  1  0.10215300  0.88744500  0.86220600  1
  O  O21  1  0.42648800  0.55322100  0.87391500  1
  O  O22  1  0.20274800  0.50310000  0.49843700  1
  O  O23  1  0.79619800  0.09910600  0.80225300  1
  O  O24  1  0.48732700  0.30206300  0.76221600  1
  O  O25  1  0.15351900  0.62454800  0.77497300  1
  O  O26  1  0.69822900  0.99634900  0.70250100  1
  O  O27  1  0.80356000  0.10115700  0.09793900  1
  O  O28  1  0.90205700  0.68861000  0.66150600  1
  O  O29  1  0.17373200  0.64666500  0.02619600  1
  O  O30  1  0.22599600  0.35302100  0.67410900  1
  O  O31  1  0.49788800  0.31251200  0.03785200  1
  O  O32  1  0.59431900  0.89742200  0.60304400  1
  O  O33  1  0.70113400  0.00348500  0.99801900  1
  O  O34  1  0.24685800  0.37347000  0.92628700  1
  O  O35  1  0.91244600  0.69801000  0.93787900  1
  O  O36  1  0.60346300  0.90116400  0.89799900  1
  O  O37  1  0.19644000  0.49876900  0.20197400  1
  O  O38  1  0.97348400  0.44690600  0.82617800  1
  O  O39  1  0.29789500  0.11242700  0.83788700  1
  O  O40  1  0.88757300  0.70210500  0.16211300  1
  O  O41  1  0.55309400  0.02651600  0.17382200  1
  O  O42  1  0.50123100  0.80356000  0.79802600  1
  O  O43  1  0.09883600  0.39653700  0.10200100  1
  O  O44  1  0.30199000  0.08755400  0.06212100  1
  O  O45  1  0.62653000  0.75314200  0.07371300  1
  O  O46  1  0.99651500  0.29886600  0.00198100  1
  O  O47  1  0.68748800  0.50211200  0.96214700  1
  O  O48  1  0.64697900  0.77400400  0.32589100  1
  O  O49  1  0.35333500  0.82626800  0.97380400  1
  O  O50  1  0.31139000  0.09794300  0.33849400  1
  O  O51  1  0.00365100  0.30177100  0.29749900  1
  O  O52  1  0.37545200  0.84648100  0.22502700  1
  O  O53  1  0.69793700  0.51267300  0.23778400  1
  O  O54  1  0.90089400  0.20380200  0.19774700  1
  O  O55  1  0.44677900  0.57351200  0.12608500  1
  O  O56  1  0.11255500  0.89784700  0.13779400  1
  O  O57  1  0.30030700  0.59475400  0.30182700  1
  O  O58  1  0.50221100  0.28694000  0.26204900  1
  O  O59  1  0.82503200  0.95372100  0.27352700  1
loop_
_geom_bond_atom_site_label_1
_geom_bond_atom_site_label_2
_geom_bond_distance
_geom_bond_site_symmetry_2
Na0 O15 2.334223 1_555
Na0 O9 2.334223 1_555
Na0 O18 2.348672 1_455
Na0 O7 2.348672 1_565
Na0 O16 2.374162 1_555
Na0 O8 2.374162 1_555
Li0 O14 2.104775 1_555
Li0 O4 2.109066 1_555
Li0 O6 2.205532 1_555
Li0 O12 2.210502 1_555
Li0 O13 2.519809 1_555
Li0 O5 2.543243 1_555
Li1 O11 2.104775 1_555
Li1 O0 2.109066 1_555
Li1 O19 2.205532 1_555
Li1 O58 2.210502 1_555
Li1 O57 2.519809 1_555
Li1 O22 2.543243 1_555
Li2 O29 2.106451 1_555
Li2 O49 2.106451 1_554
Li2 O56 2.206787 1_555
Li2 O20 2.206787 1_554
Li2 O27 2.528877 1_465
Li2 O17 2.528877 1_464
Li3 O34 2.105417 1_555
Li3 O21 2.105941 1_555
Li3 O24 2.207387 1_555
Li3 O31 2.207597 1_556
Li3 O23 2.525540 1_555
Li3 O33 2.529778 1_555
Li4 O25 2.105335 1_655
Li4 O38 2.105922 1_555
Li4 O35 2.207237 1_555
Li4 O28 2.214864 1_555
Li4 O26 2.526505 1_555
Li4 O36 2.529025 1_555
Li5 O30 2.105085 1_555
Li5 O10 2.105225 1_555
Li5 O39 2.207961 1_555
Li5 O3 2.212521 1_555
Li5 O32 2.516529 1_545
Li5 O42 2.528974 1_545
Li6 O48 2.105085 1_555
Li6 O59 2.105225 1_555
Li6 O40 2.207961 1_555
Li6 O1 2.212521 1_555
Li6 O2 2.516529 1_655
Li6 O37 2.528974 1_655
Li7 O52 2.105335 1_545
Li7 O41 2.105922 1_555
Li7 O44 2.207237 1_555
Li7 O50 2.214864 1_555
Li7 O51 2.526505 1_555
Li7 O43 2.529025 1_555
Li8 O45 2.105417 1_555
Li8 O55 2.105941 1_555
Li8 O53 2.207387 1_555
Li8 O47 2.207612 1_554
Li8 O54 2.525540 1_555
Li8 O46 2.529778 1_555
Fe0 O3 1.943109 1_555
Fe0 O15 1.945205 1_545
Fe0 O7 2.046051 1_555
Fe0 O10 2.053437 1_555
Fe0 O4 2.169995 1_455
Fe0 O14 2.172346 1_455
Fe1 O6 1.946274 1_555
Fe1 O19 1.946274 1_555
Fe1 O11 2.057229 1_555
Fe1 O14 2.057229 1_555
Fe1 O7 2.150095 1_655
Fe1 O18 2.150095 1_545
Fe2 O1 1.943109 1_555
Fe2 O9 1.945205 1_655
Fe2 O18 2.046051 1_555
Fe2 O59 2.053437 1_555
Fe2 O0 2.169995 1_565
Fe2 O11 2.172346 1_565
Fe3 O31 1.941143 1_555
Fe3 O47 1.941143 1_554
Fe3 O21 2.053278 1_554
Fe3 O55 2.053278 1_555
Fe3 O29 2.175552 1_555
Fe3 O49 2.175552 1_554
Fe4 O35 1.940181 1_455
Fe4 O20 1.942492 1_555
Fe4 O25 2.048618 1_555
Fe4 O29 2.050128 1_556
Fe4 O34 2.176306 1_555
Fe4 O21 2.177855 1_555
Fe5 O39 1.939723 1_555
Fe5 O24 1.940888 1_555
Fe5 O34 2.052732 1_555
Fe5 O30 2.056700 1_555
Fe5 O25 2.163867 1_555
Fe5 O38 2.176535 1_455
Fe6 O12 1.938182 1_555
Fe6 O28 1.948960 1_555
Fe6 O38 2.052295 1_555
Fe6 O4 2.055229 1_555
Fe6 O10 2.167429 1_655
Fe6 O30 2.171494 1_655
Fe7 O58 1.938182 1_555
Fe7 O50 1.948960 1_555
Fe7 O41 2.052295 1_555
Fe7 O0 2.055229 1_555
Fe7 O59 2.167429 1_545
Fe7 O48 2.171494 1_545
Fe8 O40 1.939723 1_555
Fe8 O53 1.940888 1_555
Fe8 O45 2.052732 1_555
Fe8 O48 2.056700 1_555
Fe8 O52 2.163867 1_555
Fe8 O41 2.176535 1_565
Fe9 O44 1.940181 1_565
Fe9 O56 1.942492 1_555
Fe9 O52 2.048618 1_555
Fe9 O49 2.050128 1_554
Fe9 O45 2.176306 1_555
Fe9 O55 2.177855 1_555
O0 Si1 1.655044 1_545
O1 Si0 1.614413 1_655
O2 Si2 1.648769 1_555
O2 Si0 1.650902 1_555
O3 Si1 1.614413 1_545
O4 Si0 1.655044 1_655
O5 Si1 1.651260 1_555
O5 Si3 1.652656 1_555
O6 Si3 1.610723 1_555
O7 Si2 1.651630 1_555
O8 Si3 1.653557 1_555
O8 Si17 1.657241 1_555
O9 Si17 1.611771 1_555
O10 Si5 1.655681 1_455
O11 Si16 1.654246 1_555
O12 Si4 1.614299 1_555
O13 Si6 1.643706 1_555
O13 Si4 1.647531 1_555
O14 Si7 1.654246 1_555
O15 Si6 1.611771 1_555
O16 Si8 1.653557 1_555
O16 Si6 1.657241 1_555
O17 Si15 1.647288 1_555
O17 Si5 1.651062 1_555
O18 Si9 1.651630 1_555
O19 Si8 1.610723 1_555
O20 Si5 1.615998 1_465
O21 Si4 1.654734 1_555
O22 Si0 1.651260 1_555
O22 Si8 1.652656 1_555
O23 Si5 1.647926 1_555
O23 Si7 1.649850 1_555
O24 Si7 1.615522 1_555
O25 Si6 1.650160 1_555
O26 Si7 1.648422 1_565
O26 Si9 1.650575 1_555
O27 Si10 1.647288 1_555
O27 Si18 1.651062 1_555
O28 Si9 1.617911 1_555
O29 Si11 1.655110 1_555
O30 Si8 1.652470 1_555
O31 Si10 1.615426 1_555
O32 Si9 1.648769 1_555
O32 Si1 1.650902 1_555
O33 Si12 1.647487 1_545
O33 Si10 1.650079 1_556
O34 Si13 1.654369 1_556
O35 Si12 1.614697 1_555
O36 Si14 1.647314 1_555
O36 Si12 1.649870 1_555
O37 Si19 1.646902 1_555
O37 Si11 1.649413 1_555
O38 Si15 1.655657 1_555
O39 Si14 1.614700 1_545
O40 Si11 1.614700 1_655
O41 Si10 1.655657 1_555
O42 Si4 1.646902 1_555
O42 Si14 1.649413 1_555
O43 Si11 1.647314 1_555
O43 Si13 1.649870 1_555
O44 Si13 1.614697 1_555
O45 Si12 1.654369 1_554
O46 Si13 1.647487 1_655
O46 Si15 1.650079 1_554
O47 Si15 1.615422 1_555
O48 Si3 1.652470 1_555
O49 Si14 1.655110 1_555
O50 Si2 1.617911 1_555
O51 Si16 1.648422 1_455
O51 Si2 1.650575 1_555
O52 Si17 1.650160 1_555
O53 Si16 1.615522 1_555
O54 Si18 1.647926 1_555
O54 Si16 1.649850 1_555
O55 Si19 1.654734 1_555
O56 Si18 1.615998 1_465
O57 Si17 1.643706 1_555
O57 Si19 1.647531 1_555
O58 Si19 1.614299 1_555
O59 Si18 1.655681 1_565
