# generated using pymatgen
data_Li9Mn2Co5O16
_symmetry_space_group_name_H-M   'P 1'
_cell_length_a   2.97046300
_cell_length_b   9.98771053
_cell_length_c   10.01207601
_cell_angle_alpha   101.99656827
_cell_angle_beta   89.94815263
_cell_angle_gamma   90.58944318
_symmetry_Int_Tables_number   1
_chemical_formula_structural   Li9Mn2Co5O16
_chemical_formula_sum   'Li9 Mn2 Co5 O16'
_cell_volume   290.53658420
_cell_formula_units_Z   1
loop_
 _symmetry_equiv_pos_site_id
 _symmetry_equiv_pos_as_xyz
  1  'x, y, z'
loop_
 _atom_site_type_symbol
 _atom_site_label
 _atom_site_symmetry_multiplicity
 _atom_site_fract_x
 _atom_site_fract_y
 _atom_site_fract_z
 _atom_site_occupancy
  Li  Li0  1  0.99843200  0.26811700  0.87080700  1
  Li  Li1  1  0.49506200  0.74143900  0.86651300  1
  Li  Li2  1  0.50376200  0.25557700  0.63095800  1
  Li  Li3  1  0.99318900  0.73963400  0.61840400  1
  Li  Li4  1  0.00282700  0.26155300  0.38742600  1
  Li  Li5  1  0.50098400  0.72897600  0.37382200  1
  Li  Li6  1  0.49748200  0.27632600  0.12923200  1
  Li  Li7  1  0.00590900  0.72763000  0.12258300  1
  Li  Li8  1  0.99665000  0.50295600  0.24946100  1
  Mn  Mn0  1  0.99007000  0.00144400  0.99633000  1
  Mn  Mn1  1  0.50858000  0.99974500  0.25288100  1
  Co  Co0  1  0.50410100  0.49713200  0.01299700  1
  Co  Co1  1  0.47249500  0.00105800  0.73889100  1
  Co  Co2  1  0.00261700  0.50018100  0.75418500  1
  Co  Co3  1  0.02792600  0.99753000  0.50879800  1
  Co  Co4  1  0.49543200  0.49995700  0.49250100  1
  O  O0  1  0.49254400  0.10778100  0.94878700  1
  O  O1  1  0.00770400  0.62056900  0.92399100  1
  O  O2  1  0.99199000  0.12212500  0.69323400  1
  O  O3  1  0.49412300  0.61048900  0.67267600  1
  O  O4  1  0.52382200  0.10875100  0.42865800  1
  O  O5  1  0.96741200  0.61257900  0.44086000  1
  O  O6  1  0.00541900  0.10534200  0.18978800  1
  O  O7  1  0.49913100  0.62171000  0.17328200  1
  O  O8  1  0.50736300  0.38707700  0.81693200  1
  O  O9  1  0.97835500  0.89005100  0.82096500  1
  O  O10  1  0.03177600  0.38767800  0.57075700  1
  O  O11  1  0.50984800  0.87805600  0.56120400  1
  O  O12  1  0.49962700  0.38220100  0.33580700  1
  O  O13  1  0.00693900  0.89025000  0.29751300  1
  O  O14  1  0.99825400  0.37842300  0.06024500  1
  O  O15  1  0.49017700  0.89766400  0.05951200  1
loop_
_geom_bond_atom_site_label_1
_geom_bond_atom_site_label_2
_geom_bond_distance
_geom_bond_site_symmetry_2
Li0 O14 1.985564 1_556
Li0 O8 2.033209 1_555
Li0 O2 2.051624 1_555
Li0 O8 2.053298 1_655
Li0 O0 2.428673 1_655
Li0 O0 2.429051 1_555
Li1 O1 2.033629 1_555
Li1 O3 2.102788 1_555
Li1 O1 2.106091 1_655
Li1 O9 2.169886 1_555
Li1 O15 2.217147 1_556
Li1 O9 2.257523 1_455
Li2 O8 2.043335 1_555
Li2 O10 2.107107 1_555
Li2 O2 2.157658 1_555
Li2 O2 2.185959 1_455
Li2 O10 2.202361 1_655
Li2 O4 2.241272 1_555
Li3 O5 1.958705 1_555
Li3 O3 2.099343 1_555
Li3 O3 2.122611 1_655
Li3 O11 2.161520 1_555
Li3 O11 2.208751 1_655
Li3 O9 2.259768 1_555
Li4 O10 2.000061 1_555
Li4 O12 2.029236 1_555
Li4 O12 2.061721 1_455
Li4 O4 2.177209 1_455
Li4 O6 2.250911 1_555
Li4 O4 2.281718 1_555
Li5 O5 2.020103 1_555
Li5 O7 2.069985 1_555
Li5 O11 2.139029 1_555
Li5 O5 2.144437 1_455
Li5 O13 2.427794 1_555
Li5 O13 2.428317 1_655
Li6 O14 1.997334 1_555
Li6 O14 2.010411 1_455
Li6 O12 2.118156 1_555
Li6 O0 2.198446 1_554
Li6 O6 2.407873 1_555
Li6 O6 2.458770 1_655
Li7 O7 1.944167 1_555
Li7 O7 1.957553 1_455
Li7 O1 2.052582 1_554
Li7 O13 2.126701 1_555
Li7 O15 2.397079 1_555
Li7 O15 2.476046 1_455
Li8 O5 2.001992 1_555
Li8 O14 2.038763 1_555
Li8 O7 2.133998 1_655
Li8 O7 2.141672 1_555
Li8 O12 2.185445 1_555
Li8 O12 2.215190 1_655
Mn0 O9 1.873232 1_545
Mn0 O0 1.938714 1_655
Mn0 O0 1.944845 1_555
Mn0 O15 1.979575 1_546
Mn0 O15 1.996837 1_646
Mn0 O6 1.998547 1_656
Mn1 O4 1.867407 1_565
Mn1 O13 1.945375 1_555
Mn1 O13 1.955701 1_655
Mn1 O6 1.983109 1_665
Mn1 O15 1.992276 1_555
Mn1 O6 2.014040 1_565
Co0 O7 1.814933 1_555
Co0 O14 2.013539 1_555
Co0 O14 2.020524 1_455
Co0 O8 2.040824 1_554
Co0 O1 2.228950 1_654
Co0 O1 2.232661 1_554
Co1 O11 1.944312 1_545
Co1 O2 1.993690 1_455
Co1 O2 2.059727 1_555
Co1 O9 2.098105 1_445
Co1 O9 2.139541 1_545
Co1 O0 2.150288 1_555
Co2 O1 1.867151 1_555
Co2 O10 1.945938 1_555
Co2 O8 2.023404 1_455
Co2 O8 2.061635 1_555
Co2 O3 2.085637 1_555
Co2 O3 2.138106 1_455
Co3 O2 2.004238 1_465
Co3 O11 2.011284 1_555
Co3 O11 2.070879 1_455
Co3 O4 2.093402 1_565
Co3 O4 2.127665 1_465
Co3 O13 2.164140 1_555
Co4 O12 1.754385 1_555
Co4 O3 1.909216 1_555
Co4 O5 1.925146 1_555
Co4 O10 2.024807 1_555
Co4 O5 2.066928 1_455
Co4 O10 2.194075 1_655
