# generated using pymatgen
data_Nb9As2O25
_symmetry_space_group_name_H-M   'P 1'
_cell_length_a   11.57124832
_cell_length_b   11.57124832
_cell_length_c   11.57124832
_cell_angle_alpha   91.75052099
_cell_angle_beta   91.75052099
_cell_angle_gamma   159.86843721
_symmetry_Int_Tables_number   1
_chemical_formula_structural   Nb9As2O25
_chemical_formula_sum   'Nb9 As2 O25'
_cell_volume   525.03189439
_cell_formula_units_Z   1
loop_
 _symmetry_equiv_pos_site_id
 _symmetry_equiv_pos_as_xyz
  1  'x, y, z'
loop_
 _atom_site_type_symbol
 _atom_site_label
 _atom_site_symmetry_multiplicity
 _atom_site_fract_x
 _atom_site_fract_y
 _atom_site_fract_z
 _atom_site_occupancy
  Nb  Nb0  1  0.00000000  0.00000000  0.00000000  1
  Nb  Nb1  1  0.22132800  0.89926700  0.12059500  1
  Nb  Nb2  1  0.77867200  0.10073300  0.87940500  1
  Nb  Nb3  1  0.89926700  0.77867200  0.67794000  1
  Nb  Nb4  1  0.10073300  0.22132800  0.32206000  1
  Nb  Nb5  1  0.12467700  0.68120400  0.80588100  1
  Nb  Nb6  1  0.87532300  0.31879600  0.19411900  1
  Nb  Nb7  1  0.68120400  0.87532300  0.55652700  1
  Nb  Nb8  1  0.31879600  0.12467700  0.44347300  1
  As  As0  1  0.75000000  0.25000000  0.50000000  1
  As  As1  1  0.25000000  0.75000000  0.50000000  1
  O  O0  1  0.35026700  0.83718200  0.18744900  1
  O  O1  1  0.64973300  0.16281800  0.81255100  1
  O  O2  1  0.83718200  0.64973300  0.48691600  1
  O  O3  1  0.16281800  0.35026700  0.51308400  1
  O  O4  1  0.25399200  0.61153100  0.86552300  1
  O  O5  1  0.74600800  0.38846900  0.13447700  1
  O  O6  1  0.61153100  0.74600800  0.35753900  1
  O  O7  1  0.38846900  0.25399200  0.64246100  1
  O  O8  1  0.18082200  0.78724100  0.96806400  1
  O  O9  1  0.81917800  0.21275900  0.03193600  1
  O  O10  1  0.78724100  0.81917800  0.60641900  1
  O  O11  1  0.21275900  0.18082200  0.39358100  1
  O  O12  1  0.09447100  0.55872100  0.65319200  1
  O  O13  1  0.90552900  0.44127900  0.34680800  1
  O  O14  1  0.55872100  0.90552900  0.46425000  1
  O  O15  1  0.44127900  0.09447100  0.53575000  1
  O  O16  1  0.50000000  0.50000000  0.00000000  1
  O  O17  1  0.11675800  0.94979300  0.06655100  1
  O  O18  1  0.88324200  0.05020700  0.93344900  1
  O  O19  1  0.94979300  0.88324200  0.83303500  1
  O  O20  1  0.05020700  0.11675800  0.16696500  1
  O  O21  1  0.01620500  0.71852200  0.73472800  1
  O  O22  1  0.98379500  0.28147800  0.26527200  1
  O  O23  1  0.71852200  0.98379500  0.70231700  1
  O  O24  1  0.28147800  0.01620500  0.29768300  1
loop_
_geom_bond_atom_site_label_1
_geom_bond_atom_site_label_2
_geom_bond_distance
_geom_bond_site_symmetry_2
Nb0 O16 2.022408 1_445
Nb0 O16 2.022408 1_555
Nb0 O18 2.047799 1_454
Nb0 O17 2.047799 1_545
Nb0 O19 2.047799 1_444
Nb0 O20 2.047799 1_555
Nb1 O17 1.871235 1_555
Nb1 O8 1.919358 1_554
Nb1 O5 2.068461 1_455
Nb1 O5 2.068461 1_565
Nb1 O24 2.118788 1_565
Nb1 O0 2.305799 1_555
Nb2 O18 1.871235 1_555
Nb2 O9 1.919358 1_556
Nb2 O4 2.068461 1_545
Nb2 O4 2.068461 1_655
Nb2 O23 2.118788 1_545
Nb2 O1 2.305799 1_555
Nb3 O19 1.871225 1_555
Nb3 O10 1.919373 1_555
Nb3 O7 2.068461 1_555
Nb3 O7 2.068465 1_665
Nb3 O21 2.118788 1_655
Nb3 O2 2.305799 1_555
Nb4 O20 1.871225 1_555
Nb4 O11 1.919373 1_555
Nb4 O6 2.068461 1_555
Nb4 O6 2.068465 1_445
Nb4 O22 2.118788 1_455
Nb4 O3 2.305799 1_555
Nb5 O21 1.848271 1_555
Nb5 O8 1.933230 1_555
Nb5 O12 2.032613 1_555
Nb5 O1 2.083477 1_455
Nb5 O1 2.083477 1_565
Nb5 O4 2.366742 1_555
Nb6 O22 1.848271 1_555
Nb6 O9 1.933230 1_555
Nb6 O13 2.032613 1_555
Nb6 O0 2.083477 1_655
Nb6 O0 2.083477 1_545
Nb6 O5 2.366742 1_555
Nb7 O23 1.848276 1_555
Nb7 O10 1.933219 1_555
Nb7 O14 2.032613 1_555
Nb7 O3 2.083477 1_555
Nb7 O3 2.083481 1_665
Nb7 O6 2.366742 1_555
Nb8 O24 1.848276 1_555
Nb8 O11 1.933219 1_555
Nb8 O15 2.032613 1_555
Nb8 O2 2.083477 1_555
Nb8 O2 2.083481 1_445
Nb8 O7 2.366742 1_555
As0 O12 2.057823 1_655
As0 O15 2.057823 1_555
As0 O13 2.057823 1_555
As0 O14 2.057823 1_545
As1 O12 2.057823 1_555
As1 O15 2.057823 1_565
As1 O13 2.057823 1_455
As1 O14 2.057823 1_555
