# generated using pymatgen
data_ReBMo
_symmetry_space_group_name_H-M   'P 1'
_cell_length_a   4.59631779
_cell_length_b   4.53854302
_cell_length_c   4.53854302
_cell_angle_alpha   62.30188234
_cell_angle_beta   74.67880009
_cell_angle_gamma   105.32119991
_symmetry_Int_Tables_number   1
_chemical_formula_structural   ReBMo
_chemical_formula_sum   'Re2 B2 Mo2'
_cell_volume   72.06691218
_cell_formula_units_Z   2
loop_
 _symmetry_equiv_pos_site_id
 _symmetry_equiv_pos_as_xyz
  1  'x, y, z'
loop_
 _atom_site_type_symbol
 _atom_site_label
 _atom_site_symmetry_multiplicity
 _atom_site_fract_x
 _atom_site_fract_y
 _atom_site_fract_z
 _atom_site_occupancy
  Re  Re0  1  0.16217800  0.83108900  0.66891100  1
  Re  Re1  1  0.83782200  0.16891100  0.33108900  1
  B  B0  1  0.00000000  0.25000000  0.75000000  1
  B  B1  1  0.00000000  0.75000000  0.25000000  1
  Mo  Mo0  1  0.50000000  0.33242400  0.83242400  1
  Mo  Mo1  1  0.50000000  0.66757600  0.16757600  1
loop_
_geom_bond_atom_site_label_1
_geom_bond_atom_site_label_2
_geom_bond_distance
_geom_bond_site_symmetry_2
Re0 Re1 2.669790 1_565
Re0 Re1 2.674828 1_465
Re0 Re1 2.674828 1_456
B0 B1 2.347763 1_555
B0 B1 2.347763 1_546
B0 Re1 2.358023 1_456
B0 Re0 2.358023 1_555
B0 Re0 2.358023 1_545
B0 Re1 2.358023 1_455
B0 Mo0 2.385687 1_555
B0 Mo1 2.385687 1_446
B0 Mo1 2.385687 1_555
B0 Mo0 2.385687 1_455
B1 Re0 2.358023 1_555
B1 Re1 2.358023 1_465
B1 Re1 2.358023 1_455
B1 Re0 2.358023 1_554
B1 Mo0 2.385687 1_455
B1 Mo1 2.385687 1_555
B1 Mo1 2.385687 1_455
B1 Mo0 2.385687 1_564
Mo0 Mo1 2.603541 1_556
Mo0 Mo1 2.674299 1_555
Mo0 Mo1 2.674299 1_546
Mo0 Re1 2.906969 1_555
Mo0 Re0 2.906969 1_545
Mo0 Re0 2.922515 1_655
Mo0 Re1 2.922515 1_456
Mo0 Re0 2.998090 1_555
Mo0 Re1 2.998090 1_556
Mo0 Re1 2.998090 1_565
Mo0 Re0 2.998090 1_546
Mo1 Re0 2.906969 1_555
Mo1 Re1 2.906969 1_565
Mo1 Re0 2.922515 1_654
Mo1 Re1 2.922515 1_455
Mo1 Re1 2.998090 1_555
Mo1 Re0 2.998090 1_545
Mo1 Re1 2.998090 1_564
Mo1 Re0 2.998090 1_554
