# generated using pymatgen
data_CaEuGdSbO6
_symmetry_space_group_name_H-M   'P 1'
_cell_length_a   5.95290443
_cell_length_b   5.95290443
_cell_length_c   5.95290443
_cell_angle_alpha   60.00000000
_cell_angle_beta   60.00000000
_cell_angle_gamma   60.00000000
_symmetry_Int_Tables_number   1
_chemical_formula_structural   CaEuGdSbO6
_chemical_formula_sum   'Ca1 Eu1 Gd1 Sb1 O6'
_cell_volume   149.16664882
_cell_formula_units_Z   1
loop_
 _symmetry_equiv_pos_site_id
 _symmetry_equiv_pos_as_xyz
  1  'x, y, z'
loop_
 _atom_site_type_symbol
 _atom_site_label
 _atom_site_symmetry_multiplicity
 _atom_site_fract_x
 _atom_site_fract_y
 _atom_site_fract_z
 _atom_site_occupancy
  Ca  Ca0  1  0.75000000  0.75000000  0.75000000  1
  Eu  Eu0  1  0.25000000  0.25000000  0.25000000  1
  Gd  Gd0  1  0.00000000  0.00000000  0.00000000  1
  Sb  Sb0  1  0.50000000  0.50000000  0.50000000  1
  O  O0  1  0.73592319  0.26407681  0.26407681  1
  O  O1  1  0.26407681  0.73592319  0.73592319  1
  O  O2  1  0.73592319  0.26407681  0.73592319  1
  O  O3  1  0.26407681  0.73592319  0.26407681  1
  O  O4  1  0.73592319  0.73592319  0.26407681  1
  O  O5  1  0.26407681  0.26407681  0.73592319  1
loop_
_geom_bond_atom_site_label_1
_geom_bond_atom_site_label_2
_geom_bond_distance
_geom_bond_site_symmetry_2
Ca0 O4 2.978810 1_556
Ca0 O1 2.978810 1_655
Ca0 O2 2.978810 1_565
Ca0 O5 2.978810 1_565
Ca0 O3 2.978810 1_556
Ca0 O5 2.978810 1_655
Ca0 O1 2.978810 1_555
Ca0 O0 2.978810 1_565
Ca0 O3 2.978810 1_655
Ca0 O0 2.978810 1_556
Ca0 O2 2.978810 1_555
Ca0 O4 2.978810 1_555
Eu0 O5 2.978810 1_555
Eu0 O3 2.978810 1_555
Eu0 O2 2.978810 1_455
Eu0 O3 2.978810 1_545
Eu0 O2 2.978810 1_554
Eu0 O4 2.978810 1_545
Eu0 O1 2.978810 1_545
Eu0 O0 2.978810 1_555
Eu0 O0 2.978810 1_455
Eu0 O4 2.978810 1_455
Eu0 O1 2.978810 1_554
Eu0 O5 2.978810 1_554
Gd0 O5 2.223178 1_554
Gd0 O0 2.223178 1_455
Gd0 O3 2.223178 1_545
Gd0 O4 2.223178 1_445
Gd0 O2 2.223178 1_454
Gd0 O1 2.223178 1_544
O0 Sb0 1.986161 1_555
O1 Sb0 1.986161 1_555
O2 Sb0 1.986161 1_555
O3 Sb0 1.986161 1_555
O4 Sb0 1.986161 1_555
O5 Sb0 1.986161 1_555
