# generated using pymatgen
data_ZnS
_symmetry_space_group_name_H-M   'P 1'
_cell_length_a   3.87397992
_cell_length_b   3.87397992
_cell_length_c   56.36911482
_cell_angle_alpha   88.03078007
_cell_angle_beta   88.03078007
_cell_angle_gamma   60.00000139
_symmetry_Int_Tables_number   1
_chemical_formula_structural   ZnS
_chemical_formula_sum   'Zn18 S18'
_cell_volume   732.05622908
_cell_formula_units_Z   18
loop_
 _symmetry_equiv_pos_site_id
 _symmetry_equiv_pos_as_xyz
  1  'x, y, z'
loop_
 _atom_site_type_symbol
 _atom_site_label
 _atom_site_symmetry_multiplicity
 _atom_site_fract_x
 _atom_site_fract_y
 _atom_site_fract_z
 _atom_site_occupancy
  Zn  Zn0  1  0.99999400  0.99999400  0.00001800  1
  Zn  Zn1  1  0.94444100  0.94444100  0.16667700  1
  Zn  Zn2  1  0.88888500  0.88888500  0.33334400  1
  Zn  Zn3  1  0.83332800  0.83332800  0.50001600  1
  Zn  Zn4  1  0.77777800  0.77777800  0.66666700  1
  Zn  Zn5  1  0.72221700  0.72221700  0.83334900  1
  Zn  Zn6  1  0.64815100  0.64815100  0.05554700  1
  Zn  Zn7  1  0.59258700  0.59258700  0.22223800  1
  Zn  Zn8  1  0.53703600  0.53703600  0.38889200  1
  Zn  Zn9  1  0.48147300  0.48147300  0.55558100  1
  Zn  Zn10  1  0.40740800  0.40740800  0.77777600  1
  Zn  Zn11  1  0.35184900  0.35184900  0.94445400  1
  Zn  Zn12  1  0.29629900  0.29629900  0.11110200  1
  Zn  Zn13  1  0.24073800  0.24073800  0.27778700  1
  Zn  Zn14  1  0.18518700  0.18518700  0.44443900  1
  Zn  Zn15  1  0.12962600  0.12962600  0.61112200  1
  Zn  Zn16  1  0.09258500  0.09258500  0.72224400  1
  Zn  Zn17  1  0.03703500  0.03703500  0.88889500  1
  S  S0  1  0.98611800  0.98611800  0.04164500  1
  S  S1  1  0.93056200  0.93056200  0.20831400  1
  S  S2  1  0.87500900  0.87500900  0.37497200  1
  S  S3  1  0.81945700  0.81945700  0.54162900  1
  S  S4  1  0.76388500  0.76388500  0.70834400  1
  S  S5  1  0.70834900  0.70834900  0.87495400  1
  S  S6  1  0.63427000  0.63427000  0.09719100  1
  S  S7  1  0.57871200  0.57871200  0.26386500  1
  S  S8  1  0.52316100  0.52316100  0.43051700  1
  S  S9  1  0.46760700  0.46760700  0.59717800  1
  S  S10  1  0.39353000  0.39353000  0.81940900  1
  S  S11  1  0.33796100  0.33796100  0.98611700  1
  S  S12  1  0.28241800  0.28241800  0.15274500  1
  S  S13  1  0.22686100  0.22686100  0.31941800  1
  S  S14  1  0.17131200  0.17131200  0.48606400  1
  S  S15  1  0.11577000  0.11577000  0.65268900  1
  S  S16  1  0.07871000  0.07871000  0.76386900  1
  S  S17  1  0.02317900  0.02317900  0.93046300  1
loop_
_geom_bond_atom_site_label_1
_geom_bond_atom_site_label_2
_geom_bond_distance
_geom_bond_site_symmetry_2
S0 Zn0 2.344629 1_555
S0 Zn6 2.369745 1_555
S0 Zn6 2.369749 1_565
S0 Zn6 2.369749 1_655
S1 Zn1 2.345193 1_555
S1 Zn7 2.370156 1_565
S1 Zn7 2.370156 1_655
S1 Zn7 2.370159 1_555
S2 Zn2 2.344686 1_555
S2 Zn8 2.370081 1_555
S2 Zn8 2.370084 1_655
S2 Zn8 2.370084 1_565
S3 Zn3 2.343841 1_555
S3 Zn9 2.370680 1_555
S3 Zn9 2.370680 1_655
S3 Zn9 2.370680 1_565
S4 Zn4 2.347446 1_555
S4 Zn16 2.369710 1_665
S4 Zn16 2.369710 1_655
S4 Zn16 2.369710 1_565
S5 Zn5 2.343390 1_555
S5 Zn17 2.370472 1_665
S5 Zn17 2.370475 1_655
S5 Zn17 2.370475 1_565
S6 Zn6 2.345587 1_555
S6 Zn12 2.369913 1_565
S6 Zn12 2.369913 1_655
S6 Zn12 2.369919 1_555
S7 Zn7 2.344629 1_555
S7 Zn13 2.370120 1_555
S7 Zn13 2.370120 1_655
S7 Zn13 2.370120 1_565
S8 Zn8 2.344517 1_555
S8 Zn14 2.370120 1_555
S8 Zn14 2.370120 1_565
S8 Zn14 2.370120 1_655
S9 Zn9 2.342940 1_555
S9 Zn15 2.370528 1_555
S9 Zn15 2.370531 1_655
S9 Zn15 2.370531 1_565
S10 Zn10 2.344967 1_555
S10 Zn5 2.370455 1_545
S10 Zn5 2.370455 1_455
S10 Zn5 2.370458 1_555
S11 Zn11 2.346657 1_555
S11 Zn0 2.369729 1_446
S11 Zn0 2.369729 1_546
S11 Zn0 2.369729 1_456
S12 Zn12 2.345530 1_555
S12 Zn1 2.370304 1_445
S12 Zn1 2.370308 1_455
S12 Zn1 2.370308 1_545
S13 Zn13 2.344855 1_555
S13 Zn2 2.370193 1_545
S13 Zn2 2.370193 1_455
S13 Zn2 2.370199 1_445
S14 Zn14 2.344517 1_555
S14 Zn3 2.370680 1_445
S14 Zn3 2.370680 1_455
S14 Zn3 2.370680 1_545
S15 Zn15 2.341250 1_555
S15 Zn4 2.371161 1_445
S15 Zn4 2.371168 1_545
S15 Zn4 2.371168 1_455
S16 Zn16 2.344517 1_555
S16 Zn10 2.369840 1_455
S16 Zn10 2.369840 1_545
S16 Zn10 2.369843 1_555
S17 Zn17 2.341306 1_555
S17 Zn11 2.371408 1_545
S17 Zn11 2.371408 1_455
S17 Zn11 2.371411 1_555
