# generated using pymatgen
data_Ca3Mn4O8
_symmetry_space_group_name_H-M   'P 1'
_cell_length_a   6.09520900
_cell_length_b   11.27571600
_cell_length_c   11.72691295
_cell_angle_alpha   89.04061140
_cell_angle_beta   90.00000000
_cell_angle_gamma   90.00000000
_symmetry_Int_Tables_number   1
_chemical_formula_structural   Ca3Mn4O8
_chemical_formula_sum   'Ca12 Mn16 O32'
_cell_volume   805.85247797
_cell_formula_units_Z   4
loop_
 _symmetry_equiv_pos_site_id
 _symmetry_equiv_pos_as_xyz
  1  'x, y, z'
loop_
 _atom_site_type_symbol
 _atom_site_label
 _atom_site_symmetry_multiplicity
 _atom_site_fract_x
 _atom_site_fract_y
 _atom_site_fract_z
 _atom_site_occupancy
  Ca  Ca0  1  0.00051000  0.01750600  0.23737800  1
  Ca  Ca1  1  0.98920300  0.50894500  0.23868900  1
  Ca  Ca2  1  0.99949000  0.01750600  0.73737800  1
  Ca  Ca3  1  0.01079700  0.50894500  0.73868900  1
  Ca  Ca4  1  0.49009600  0.00553400  0.23737800  1
  Ca  Ca5  1  0.50443400  0.52094700  0.23804000  1
  Ca  Ca6  1  0.50990400  0.00553400  0.73737800  1
  Ca  Ca7  1  0.49556600  0.52094700  0.73804000  1
  Ca  Ca8  1  0.25607900  0.24090200  0.51795900  1
  Ca  Ca9  1  0.23756400  0.73843100  0.01628500  1
  Ca  Ca10  1  0.76243600  0.73843100  0.51628500  1
  Ca  Ca11  1  0.74392100  0.24090200  0.01795900  1
  Mn  Mn0  1  0.99007900  0.76683300  0.26892900  1
  Mn  Mn1  1  0.98451300  0.26895100  0.29268800  1
  Mn  Mn2  1  0.00992100  0.76683300  0.76892900  1
  Mn  Mn3  1  0.01548700  0.26895100  0.79268800  1
  Mn  Mn4  1  0.48086000  0.76778900  0.29475200  1
  Mn  Mn5  1  0.48635000  0.26759200  0.26852700  1
  Mn  Mn6  1  0.51914000  0.76778900  0.79475200  1
  Mn  Mn7  1  0.51365000  0.26759200  0.76852700  1
  Mn  Mn8  1  0.75862000  0.96234800  0.00266100  1
  Mn  Mn9  1  0.75369400  0.51514000  0.97570800  1
  Mn  Mn10  1  0.74076300  0.02948900  0.47104400  1
  Mn  Mn11  1  0.74086500  0.44779500  0.51306000  1
  Mn  Mn12  1  0.25923700  0.02948900  0.97104400  1
  Mn  Mn13  1  0.25913500  0.44779500  0.01306000  1
  Mn  Mn14  1  0.24138000  0.96234800  0.50266100  1
  Mn  Mn15  1  0.24630600  0.51514000  0.47570800  1
  O  O0  1  0.22495900  0.64091700  0.30995600  1
  O  O1  1  0.25586500  0.15564600  0.31340100  1
  O  O2  1  0.24084600  0.65744200  0.81794200  1
  O  O3  1  0.27912300  0.14494600  0.81622100  1
  O  O4  1  0.75915400  0.65744200  0.31794200  1
  O  O5  1  0.72087700  0.14494600  0.31622100  1
  O  O6  1  0.77504100  0.64091700  0.80995600  1
  O  O7  1  0.74413500  0.15564600  0.81340100  1
  O  O8  1  0.99741200  0.58202300  0.06009300  1
  O  O9  1  0.97669000  0.08102400  0.05389900  1
  O  O10  1  0.00258800  0.58202300  0.56009300  1
  O  O11  1  0.02331000  0.08102400  0.55389900  1
  O  O12  1  0.50241800  0.58457800  0.05319800  1
  O  O13  1  0.53637700  0.07684100  0.06119500  1
  O  O14  1  0.49758200  0.58457800  0.55319800  1
  O  O15  1  0.46362300  0.07684100  0.56119500  1
  O  O16  1  0.76234900  0.86898000  0.19617100  1
  O  O17  1  0.73002600  0.35486700  0.19468500  1
  O  O18  1  0.77120200  0.85483500  0.69148500  1
  O  O19  1  0.73651700  0.36807200  0.68676100  1
  O  O20  1  0.22879800  0.85483500  0.19148500  1
  O  O21  1  0.26348300  0.36807200  0.18676100  1
  O  O22  1  0.23765100  0.86898000  0.69617100  1
  O  O23  1  0.26997400  0.35486700  0.69468500  1
  O  O24  1  0.99969400  0.88998500  0.41552900  1
  O  O25  1  0.02083900  0.39409000  0.42110300  1
  O  O26  1  0.00030600  0.88998500  0.91552900  1
  O  O27  1  0.97916100  0.39409000  0.92110300  1
  O  O28  1  0.49435300  0.89146200  0.42293000  1
  O  O29  1  0.46707400  0.39571700  0.41243500  1
  O  O30  1  0.50564700  0.89146200  0.92293000  1
  O  O31  1  0.53292600  0.39571700  0.91243500  1
loop_
_geom_bond_atom_site_label_1
_geom_bond_atom_site_label_2
_geom_bond_distance
_geom_bond_site_symmetry_2
Ca0 O9 2.260973 1_455
Ca0 O16 2.274339 1_445
Ca0 O20 2.371345 1_545
Ca0 O1 2.385376 1_555
Ca0 O5 2.422665 1_455
Ca0 O24 2.516258 1_445
Ca1 O8 2.238331 1_555
Ca1 O0 2.240403 1_655
Ca1 O4 2.384468 1_555
Ca1 O21 2.391917 1_655
Ca1 O17 2.410442 1_555
Ca1 O25 2.489498 1_655
Ca2 O11 2.260973 1_655
Ca2 O22 2.274339 1_645
Ca2 O18 2.371345 1_545
Ca2 O7 2.385376 1_555
Ca2 O3 2.422665 1_655
Ca2 O26 2.516258 1_645
Ca3 O10 2.238331 1_555
Ca3 O6 2.240403 1_455
Ca3 O2 2.384468 1_555
Ca3 O19 2.391917 1_455
Ca3 O23 2.410442 1_555
Ca3 O27 2.489498 1_455
Ca4 O13 2.222413 1_555
Ca4 O5 2.313721 1_555
Ca4 O16 2.320125 1_545
Ca4 O20 2.396719 1_545
Ca4 O1 2.397621 1_555
Ca4 O28 2.509211 1_545
Ca5 O12 2.271884 1_555
Ca5 O0 2.341184 1_555
Ca5 O21 2.350458 1_555
Ca5 O17 2.384949 1_555
Ca5 O4 2.388621 1_555
Ca5 O29 2.476197 1_555
Ca6 O15 2.222413 1_555
Ca6 O3 2.313721 1_555
Ca6 O22 2.320125 1_545
Ca6 O18 2.396719 1_545
Ca6 O7 2.397621 1_555
Ca6 O30 2.509211 1_545
Ca7 O14 2.271884 1_555
Ca7 O6 2.341184 1_555
Ca7 O19 2.350458 1_555
Ca7 O23 2.384949 1_555
Ca7 O2 2.388621 1_555
Ca7 O31 2.476197 1_555
Ca8 O15 2.290873 1_555
Ca8 O11 2.327011 1_555
Ca8 O23 2.458196 1_555
Ca8 O29 2.481982 1_555
Ca8 O25 2.502771 1_555
Ca8 O1 2.599186 1_555
Ca9 O8 2.342339 1_455
Ca9 O12 2.403720 1_555
Ca9 O20 2.457054 1_555
Ca9 O2 2.513072 1_554
Ca9 O26 2.517944 1_554
Ca9 O30 2.604371 1_554
Ca10 O10 2.342339 1_655
Ca10 O14 2.403720 1_555
Ca10 O18 2.457054 1_555
Ca10 O4 2.513072 1_555
Ca10 O24 2.517944 1_555
Ca10 O28 2.604371 1_555
Ca11 O13 2.290873 1_555
Ca11 O9 2.327011 1_555
Ca11 O17 2.458196 1_555
Ca11 O31 2.481982 1_554
Ca11 O27 2.502771 1_554
Ca11 O7 2.599186 1_554
Mn0 O4 1.951719 1_555
Mn0 O20 1.973927 1_655
Mn0 O16 1.987058 1_555
Mn0 O0 2.067369 1_655
Mn0 O24 2.228720 1_555
Mn1 O25 2.092597 1_655
Mn1 O1 2.101523 1_655
Mn1 O5 2.144879 1_555
Mn1 O17 2.151306 1_555
Mn1 O21 2.374241 1_655
Mn2 O2 1.951719 1_555
Mn2 O18 1.973927 1_455
Mn2 O22 1.987058 1_555
Mn2 O6 2.067369 1_455
Mn2 O26 2.228720 1_555
Mn3 O27 2.092597 1_455
Mn3 O7 2.101523 1_455
Mn3 O3 2.144879 1_555
Mn3 O23 2.151306 1_555
Mn3 O19 2.374241 1_455
Mn4 O28 2.069057 1_555
Mn4 O4 2.118504 1_555
Mn4 O0 2.121949 1_555
Mn4 O20 2.179567 1_555
Mn4 O16 2.353276 1_555
Mn5 O1 1.954897 1_555
Mn5 O17 1.973760 1_555
Mn5 O21 2.002997 1_555
Mn5 O5 2.059814 1_555
Mn5 O29 2.242898 1_555
Mn6 O30 2.069057 1_555
Mn6 O2 2.118504 1_555
Mn6 O6 2.121949 1_555
Mn6 O18 2.179567 1_555
Mn6 O22 2.353276 1_555
Mn7 O7 1.954897 1_555
Mn7 O23 1.973760 1_555
Mn7 O19 2.002997 1_555
Mn7 O3 2.059814 1_555
Mn7 O31 2.242898 1_555
Mn8 O26 1.976826 1_654
Mn8 O30 1.978798 1_554
Mn8 O9 1.986291 1_565
Mn8 O13 2.000624 1_565
Mn8 O16 2.485657 1_555
Mn9 O8 1.944157 1_556
Mn9 O12 1.951503 1_556
Mn9 O27 2.047181 1_555
Mn9 O31 2.051343 1_555
Mn9 O6 2.390435 1_555
Mn10 O11 2.065566 1_655
Mn10 O15 2.067637 1_555
Mn10 O5 2.219632 1_555
Mn10 O28 2.241821 1_545
Mn10 O24 2.328800 1_545
Mn11 O25 2.112724 1_655
Mn11 O29 2.131998 1_555
Mn11 O14 2.196249 1_555
Mn11 O19 2.212858 1_555
Mn11 O10 2.273266 1_655
Mn12 O9 2.065566 1_456
Mn12 O13 2.067637 1_556
Mn12 O3 2.219632 1_555
Mn12 O30 2.241821 1_545
Mn12 O26 2.328800 1_545
Mn13 O27 2.112724 1_454
Mn13 O31 2.131998 1_554
Mn13 O12 2.196249 1_555
Mn13 O21 2.212858 1_555
Mn13 O8 2.273266 1_455
Mn14 O24 1.976826 1_455
Mn14 O28 1.978798 1_555
Mn14 O11 1.986291 1_565
Mn14 O15 2.000624 1_565
Mn14 O22 2.485657 1_555
Mn15 O10 1.944157 1_555
Mn15 O14 1.951503 1_555
Mn15 O25 2.047181 1_555
Mn15 O29 2.051343 1_555
Mn15 O0 2.390435 1_555
