# generated using pymatgen
data_CaMg30CuO32
_symmetry_space_group_name_H-M   'P 1'
_cell_length_a   8.58224600
_cell_length_b   8.58224600
_cell_length_c   8.50996800
_cell_angle_alpha   90.00000000
_cell_angle_beta   90.00000000
_cell_angle_gamma   90.00000000
_symmetry_Int_Tables_number   1
_chemical_formula_structural   CaMg30CuO32
_chemical_formula_sum   'Ca1 Mg30 Cu1 O32'
_cell_volume   626.80123694
_cell_formula_units_Z   1
loop_
 _symmetry_equiv_pos_site_id
 _symmetry_equiv_pos_as_xyz
  1  'x, y, z'
loop_
 _atom_site_type_symbol
 _atom_site_label
 _atom_site_symmetry_multiplicity
 _atom_site_fract_x
 _atom_site_fract_y
 _atom_site_fract_z
 _atom_site_occupancy
  Ca  Ca0  1  0.00000000  0.00000000  0.00000000  1
  Mg  Mg0  1  0.50000000  0.00000000  0.00000000  1
  Mg  Mg1  1  0.50000000  0.00000000  0.50000000  1
  Mg  Mg2  1  0.00000000  0.50000000  0.00000000  1
  Mg  Mg3  1  0.00000000  0.50000000  0.50000000  1
  Mg  Mg4  1  0.50000000  0.50000000  0.00000000  1
  Mg  Mg5  1  0.50000000  0.50000000  0.50000000  1
  Mg  Mg6  1  0.25405600  0.00000000  0.25436200  1
  Mg  Mg7  1  0.25405600  0.00000000  0.74563800  1
  Mg  Mg8  1  0.74594400  0.00000000  0.25436200  1
  Mg  Mg9  1  0.74594400  0.00000000  0.74563800  1
  Mg  Mg10  1  0.25026300  0.50000000  0.25079000  1
  Mg  Mg11  1  0.25026300  0.50000000  0.74921000  1
  Mg  Mg12  1  0.74973700  0.50000000  0.25079000  1
  Mg  Mg13  1  0.74973700  0.50000000  0.74921000  1
  Mg  Mg14  1  0.00000000  0.25405600  0.25436200  1
  Mg  Mg15  1  0.00000000  0.25405600  0.74563800  1
  Mg  Mg16  1  0.50000000  0.25026300  0.25079000  1
  Mg  Mg17  1  0.50000000  0.25026300  0.74921000  1
  Mg  Mg18  1  0.00000000  0.74594400  0.25436200  1
  Mg  Mg19  1  0.00000000  0.74594400  0.74563800  1
  Mg  Mg20  1  0.50000000  0.74973700  0.25079000  1
  Mg  Mg21  1  0.50000000  0.74973700  0.74921000  1
  Mg  Mg22  1  0.25298900  0.25298900  0.00000000  1
  Mg  Mg23  1  0.24930300  0.24930300  0.50000000  1
  Mg  Mg24  1  0.74701100  0.25298900  0.00000000  1
  Mg  Mg25  1  0.75069700  0.24930300  0.50000000  1
  Mg  Mg26  1  0.25298900  0.74701100  0.00000000  1
  Mg  Mg27  1  0.24930300  0.75069700  0.50000000  1
  Mg  Mg28  1  0.74701100  0.74701100  0.00000000  1
  Mg  Mg29  1  0.75069700  0.75069700  0.50000000  1
  Cu  Cu0  1  0.00000000  0.00000000  0.50000000  1
  O  O0  1  0.00000000  0.26139700  0.00000000  1
  O  O1  1  0.00000000  0.25925500  0.50000000  1
  O  O2  1  0.50000000  0.25224600  0.00000000  1
  O  O3  1  0.50000000  0.25107100  0.50000000  1
  O  O4  1  0.00000000  0.73860300  0.00000000  1
  O  O5  1  0.00000000  0.74074500  0.50000000  1
  O  O6  1  0.50000000  0.74775400  0.00000000  1
  O  O7  1  0.50000000  0.74892900  0.50000000  1
  O  O8  1  0.24933700  0.24933700  0.24982000  1
  O  O9  1  0.24933700  0.24933700  0.75018000  1
  O  O10  1  0.75066300  0.24933700  0.24982000  1
  O  O11  1  0.75066300  0.24933700  0.75018000  1
  O  O12  1  0.24933700  0.75066300  0.24982000  1
  O  O13  1  0.24933700  0.75066300  0.75018000  1
  O  O14  1  0.75066300  0.75066300  0.24982000  1
  O  O15  1  0.75066300  0.75066300  0.75018000  1
  O  O16  1  0.00000000  0.00000000  0.26661500  1
  O  O17  1  0.00000000  0.00000000  0.73338500  1
  O  O18  1  0.50000000  0.00000000  0.25115800  1
  O  O19  1  0.50000000  0.00000000  0.74884200  1
  O  O20  1  0.00000000  0.50000000  0.25115800  1
  O  O21  1  0.00000000  0.50000000  0.74884200  1
  O  O22  1  0.50000000  0.50000000  0.25013900  1
  O  O23  1  0.50000000  0.50000000  0.74986100  1
  O  O24  1  0.26139700  0.00000000  0.00000000  1
  O  O25  1  0.25925500  0.00000000  0.50000000  1
  O  O26  1  0.73860300  0.00000000  0.00000000  1
  O  O27  1  0.74074500  0.00000000  0.50000000  1
  O  O28  1  0.25224600  0.50000000  0.00000000  1
  O  O29  1  0.25107100  0.50000000  0.50000000  1
  O  O30  1  0.74775400  0.50000000  0.00000000  1
  O  O31  1  0.74892900  0.50000000  0.50000000  1
loop_
_geom_bond_atom_site_label_1
_geom_bond_atom_site_label_2
_geom_bond_distance
_geom_bond_site_symmetry_2
Ca0 O24 2.243373 1_555
Ca0 O4 2.243373 1_545
Ca0 O0 2.243373 1_555
Ca0 O26 2.243373 1_455
Ca0 O16 2.268885 1_555
Ca0 O17 2.268885 1_554
Mg0 O26 2.047750 1_555
Mg0 O24 2.047750 1_555
Mg0 O18 2.137347 1_555
Mg0 O19 2.137347 1_554
Mg0 O6 2.164837 1_545
Mg0 O2 2.164837 1_555
Mg1 O25 2.066133 1_555
Mg1 O27 2.066133 1_555
Mg1 O18 2.117637 1_555
Mg1 O19 2.117637 1_555
Mg1 O3 2.154753 1_555
Mg1 O7 2.154753 1_545
Mg2 O4 2.047750 1_555
Mg2 O0 2.047750 1_555
Mg2 O21 2.137347 1_554
Mg2 O20 2.137347 1_555
Mg2 O30 2.164837 1_455
Mg2 O28 2.164837 1_555
Mg3 O1 2.066133 1_555
Mg3 O5 2.066133 1_555
Mg3 O20 2.117637 1_555
Mg3 O21 2.117637 1_555
Mg3 O29 2.154753 1_555
Mg3 O31 2.154753 1_455
Mg4 O2 2.126286 1_555
Mg4 O28 2.126286 1_555
Mg4 O30 2.126286 1_555
Mg4 O6 2.126286 1_555
Mg4 O22 2.128675 1_555
Mg4 O23 2.128675 1_554
Mg5 O22 2.126309 1_555
Mg5 O23 2.126309 1_555
Mg5 O31 2.136370 1_555
Mg5 O7 2.136370 1_555
Mg5 O29 2.136370 1_555
Mg5 O3 2.136370 1_555
Mg6 O25 2.090848 1_555
Mg6 O18 2.110928 1_555
Mg6 O8 2.140604 1_555
Mg6 O12 2.140604 1_545
Mg6 O24 2.165529 1_555
Mg6 O16 2.182863 1_555
Mg7 O25 2.090848 1_555
Mg7 O19 2.110928 1_555
Mg7 O9 2.140604 1_555
Mg7 O13 2.140604 1_545
Mg7 O24 2.165529 1_556
Mg7 O17 2.182863 1_555
Mg8 O27 2.090848 1_555
Mg8 O18 2.110928 1_555
Mg8 O10 2.140604 1_555
Mg8 O14 2.140604 1_545
Mg8 O26 2.165529 1_555
Mg8 O16 2.182863 1_655
Mg9 O27 2.090848 1_555
Mg9 O19 2.110928 1_555
Mg9 O11 2.140604 1_555
Mg9 O15 2.140604 1_545
Mg9 O26 2.165529 1_556
Mg9 O17 2.182863 1_655
Mg10 O29 2.120780 1_555
Mg10 O28 2.134283 1_555
Mg10 O22 2.143312 1_555
Mg10 O20 2.147821 1_555
Mg10 O12 2.151282 1_555
Mg10 O8 2.151282 1_555
Mg11 O29 2.120780 1_555
Mg11 O28 2.134283 1_556
Mg11 O23 2.143312 1_555
Mg11 O21 2.147821 1_555
Mg11 O13 2.151282 1_555
Mg11 O9 2.151282 1_555
Mg12 O31 2.120780 1_555
Mg12 O30 2.134283 1_555
Mg12 O22 2.143312 1_555
Mg12 O20 2.147821 1_655
Mg12 O10 2.151282 1_555
Mg12 O14 2.151282 1_555
Mg13 O31 2.120780 1_555
Mg13 O30 2.134283 1_556
Mg13 O23 2.143312 1_555
Mg13 O21 2.147821 1_655
Mg13 O11 2.151282 1_555
Mg13 O15 2.151282 1_555
Mg14 O1 2.090848 1_555
Mg14 O20 2.110928 1_555
Mg14 O8 2.140604 1_555
Mg14 O10 2.140604 1_455
Mg14 O0 2.165529 1_555
Mg14 O16 2.182863 1_555
Mg15 O1 2.090848 1_555
Mg15 O21 2.110928 1_555
Mg15 O9 2.140604 1_555
Mg15 O11 2.140604 1_455
Mg15 O0 2.165529 1_556
Mg15 O17 2.182863 1_555
Mg16 O3 2.120780 1_555
Mg16 O2 2.134283 1_555
Mg16 O22 2.143312 1_555
Mg16 O18 2.147821 1_555
Mg16 O10 2.151282 1_555
Mg16 O8 2.151282 1_555
Mg17 O3 2.120780 1_555
Mg17 O2 2.134283 1_556
Mg17 O23 2.143312 1_555
Mg17 O19 2.147821 1_555
Mg17 O9 2.151282 1_555
Mg17 O11 2.151282 1_555
Mg18 O5 2.090848 1_555
Mg18 O20 2.110928 1_555
Mg18 O12 2.140604 1_555
Mg18 O14 2.140604 1_455
Mg18 O4 2.165529 1_555
Mg18 O16 2.182863 1_565
Mg19 O5 2.090848 1_555
Mg19 O21 2.110928 1_555
Mg19 O13 2.140604 1_555
Mg19 O15 2.140604 1_455
Mg19 O4 2.165529 1_556
Mg19 O17 2.182863 1_565
Mg20 O7 2.120780 1_555
Mg20 O6 2.134283 1_555
Mg20 O22 2.143312 1_555
Mg20 O18 2.147821 1_565
Mg20 O12 2.151282 1_555
Mg20 O14 2.151282 1_555
Mg21 O7 2.120780 1_555
Mg21 O6 2.134283 1_556
Mg21 O23 2.143312 1_555
Mg21 O19 2.147821 1_565
Mg21 O13 2.151282 1_555
Mg21 O15 2.151282 1_555
Mg22 O28 2.119919 1_555
Mg22 O2 2.119919 1_555
Mg22 O8 2.126422 1_555
Mg22 O9 2.126422 1_554
Mg22 O0 2.172413 1_555
Mg22 O24 2.172413 1_555
Mg23 O9 2.129024 1_555
Mg23 O8 2.129024 1_555
Mg23 O25 2.141284 1_555
Mg23 O1 2.141284 1_555
Mg23 O29 2.151597 1_555
Mg23 O3 2.151597 1_555
Mg24 O30 2.119919 1_555
Mg24 O2 2.119919 1_555
Mg24 O10 2.126422 1_555
Mg24 O11 2.126422 1_554
Mg24 O0 2.172413 1_655
Mg24 O26 2.172413 1_555
Mg25 O11 2.129024 1_555
Mg25 O10 2.129024 1_555
Mg25 O27 2.141284 1_555
Mg25 O1 2.141284 1_655
Mg25 O3 2.151597 1_555
Mg25 O31 2.151597 1_555
Mg26 O28 2.119919 1_555
Mg26 O6 2.119919 1_555
Mg26 O12 2.126422 1_555
Mg26 O13 2.126422 1_554
Mg26 O24 2.172413 1_565
Mg26 O4 2.172413 1_555
Mg27 O13 2.129024 1_555
Mg27 O12 2.129024 1_555
Mg27 O5 2.141284 1_555
Mg27 O25 2.141284 1_565
Mg27 O29 2.151597 1_555
Mg27 O7 2.151597 1_555
Mg28 O6 2.119919 1_555
Mg28 O30 2.119919 1_555
Mg28 O14 2.126422 1_555
Mg28 O15 2.126422 1_554
Mg28 O26 2.172413 1_565
Mg28 O4 2.172413 1_655
Mg29 O15 2.129024 1_555
Mg29 O14 2.129024 1_555
Mg29 O27 2.141284 1_565
Mg29 O5 2.141284 1_655
Mg29 O31 2.151597 1_555
Mg29 O7 2.151597 1_555
Cu0 O17 1.986099 1_555
Cu0 O16 1.986099 1_555
Cu0 O25 2.224990 1_555
Cu0 O5 2.224990 1_545
Cu0 O1 2.224990 1_555
Cu0 O27 2.224990 1_455
