# generated using pymatgen
data_Tb3SmFe34
_symmetry_space_group_name_H-M   'P 1'
_cell_length_a   6.42464728
_cell_length_b   6.42464728
_cell_length_c   12.85035392
_cell_angle_alpha   83.03394130
_cell_angle_beta   83.03394130
_cell_angle_gamma   83.00535621
_symmetry_Int_Tables_number   1
_chemical_formula_structural   Tb3SmFe34
_chemical_formula_sum   'Tb3 Sm1 Fe34'
_cell_volume   519.51575562
_cell_formula_units_Z   1
loop_
 _symmetry_equiv_pos_site_id
 _symmetry_equiv_pos_as_xyz
  1  'x, y, z'
loop_
 _atom_site_type_symbol
 _atom_site_label
 _atom_site_symmetry_multiplicity
 _atom_site_fract_x
 _atom_site_fract_y
 _atom_site_fract_z
 _atom_site_occupancy
  Tb  Tb0  1  0.65865600  0.65865600  0.82931200  1
  Tb  Tb1  1  0.34086400  0.34086400  0.17052000  1
  Tb  Tb2  1  0.34136200  0.34136200  0.67069000  1
  Sm  Sm0  1  0.65823800  0.65823800  0.32912300  1
  Fe  Fe0  1  0.00036300  0.00036300  0.24983600  1
  Fe  Fe1  1  0.00005000  0.00005000  0.75006100  1
  Fe  Fe2  1  0.00031600  0.49968000  0.50035500  1
  Fe  Fe3  1  0.00004600  0.50002300  0.99983200  1
  Fe  Fe4  1  0.50002300  0.00004600  0.99983200  1
  Fe  Fe5  1  0.49968000  0.00031600  0.50035500  1
  Fe  Fe6  1  0.29292500  0.70718300  0.99977100  1
  Fe  Fe7  1  0.29169500  0.70783600  0.50047000  1
  Fe  Fe8  1  0.70788100  0.00074800  0.14568800  1
  Fe  Fe9  1  0.70730800  0.99995000  0.64655000  1
  Fe  Fe10  1  0.00044700  0.29163800  0.35395900  1
  Fe  Fe11  1  0.00003100  0.29270500  0.85361200  1
  Fe  Fe12  1  0.29163800  0.00044700  0.35395900  1
  Fe  Fe13  1  0.29270500  0.00003100  0.85361200  1
  Fe  Fe14  1  0.00074800  0.70788100  0.14568800  1
  Fe  Fe15  1  0.99995000  0.70730800  0.64655000  1
  Fe  Fe16  1  0.70718300  0.29292500  0.99977100  1
  Fe  Fe17  1  0.70783600  0.29169500  0.50047000  1
  Fe  Fe18  1  0.90296300  0.90296300  0.45163100  1
  Fe  Fe19  1  0.90258100  0.90258100  0.95116500  1
  Fe  Fe20  1  0.09759700  0.09759700  0.04849200  1
  Fe  Fe21  1  0.09751300  0.09751300  0.54897300  1
  Fe  Fe22  1  0.34326200  0.34326200  0.42278000  1
  Fe  Fe23  1  0.34404600  0.34404600  0.92251900  1
  Fe  Fe24  1  0.34333500  0.84549600  0.17151700  1
  Fe  Fe25  1  0.34389500  0.84506300  0.67215900  1
  Fe  Fe26  1  0.84549600  0.34333500  0.17151700  1
  Fe  Fe27  1  0.84506300  0.34389500  0.67215900  1
  Fe  Fe28  1  0.65593300  0.65593300  0.07685600  1
  Fe  Fe29  1  0.65616100  0.65616100  0.57813400  1
  Fe  Fe30  1  0.65607500  0.15511500  0.32808300  1
  Fe  Fe31  1  0.65601200  0.15500800  0.82795800  1
  Fe  Fe32  1  0.15511500  0.65607500  0.32808300  1
  Fe  Fe33  1  0.15500800  0.65601200  0.82795800  1
loop_
_geom_bond_atom_site_label_1
_geom_bond_atom_site_label_2
_geom_bond_distance
_geom_bond_site_symmetry_2
Fe0 Fe12 2.428986 1_555
Fe0 Fe10 2.428986 1_555
Fe0 Fe14 2.435206 1_545
Fe0 Fe8 2.435206 1_455
Fe0 Fe24 2.455436 1_545
Fe0 Fe26 2.455436 1_455
Fe0 Fe32 2.461614 1_545
Fe0 Fe30 2.461614 1_455
Fe0 Fe20 2.604949 1_555
Fe0 Fe18 2.610685 1_445
Fe0 Tb1 3.270152 1_555
Fe0 Sm0 3.284971 1_445
Fe1 Fe13 2.431589 1_555
Fe1 Fe11 2.431589 1_555
Fe1 Fe15 2.431852 1_445
Fe1 Fe9 2.431852 1_445
Fe1 Fe25 2.458315 1_545
Fe1 Fe27 2.458315 1_455
Fe1 Fe33 2.459221 1_545
Fe1 Fe31 2.459221 1_455
Fe1 Fe21 2.602312 1_555
Fe1 Fe19 2.602516 1_445
Fe1 Tb2 3.277684 1_555
Fe1 Tb0 3.278206 1_445
Fe2 Fe7 2.429762 1_555
Fe2 Fe22 2.455433 1_555
Fe2 Fe27 2.458407 1_455
Fe2 Fe29 2.462686 1_455
Fe2 Fe32 2.463573 1_555
Fe2 Fe21 2.601213 1_555
Fe2 Tb2 3.272174 1_555
Fe2 Sm0 3.285344 1_455
Fe3 Fe6 2.433370 1_555
Fe3 Fe33 2.458935 1_555
Fe3 Tb1 3.275168 1_556
Fe3 Tb0 3.275744 1_455
Fe4 Fe8 2.430432 1_556
Fe4 Fe6 2.433279 1_545
Fe4 Tb1 3.275168 1_556
Fe4 Tb0 3.275744 1_545
Fe5 Fe9 2.432031 1_545
Fe5 Fe7 2.434510 1_545
Fe5 Tb2 3.272174 1_555
Fe5 Sm0 3.285344 1_545
Fe6 Tb0 3.025748 1_555
Fe6 Tb1 3.030335 1_556
Fe7 Tb2 3.027720 1_555
Fe7 Sm0 3.037278 1_555
Fe8 Tb1 3.027917 1_555
Fe8 Sm0 3.038215 1_545
Fe9 Tb0 3.026726 1_555
Fe9 Tb2 3.027731 1_565
Fe10 Fe2 2.436147 1_555
Fe10 Fe12 2.479389 1_555
Fe10 Fe17 2.494037 1_455
Fe10 Fe22 2.542538 1_555
Fe10 Fe30 2.548870 1_455
Fe10 Fe32 2.622536 1_555
Fe10 Fe26 2.625734 1_455
Fe10 Fe18 2.762803 1_445
Fe10 Fe21 2.766934 1_555
Fe10 Tb1 3.029358 1_555
Fe10 Sm0 3.034731 1_455
Fe11 Fe3 2.431414 1_555
Fe11 Fe13 2.492017 1_555
Fe11 Fe16 2.492048 1_455
Fe11 Fe31 2.549503 1_455
Fe11 Fe23 2.549678 1_555
Fe11 Fe27 2.614145 1_455
Fe11 Fe33 2.616852 1_555
Fe11 Fe20 2.768310 1_556
Fe11 Fe19 2.770421 1_445
Fe11 Tb0 3.027798 1_455
Fe11 Tb2 3.028271 1_555
Fe12 Fe5 2.436147 1_555
Fe12 Fe7 2.494037 1_545
Fe12 Fe22 2.542538 1_555
Fe12 Fe32 2.548870 1_545
Fe12 Fe30 2.622536 1_555
Fe12 Fe24 2.625734 1_545
Fe12 Fe18 2.762803 1_445
Fe12 Fe21 2.766934 1_555
Fe12 Tb1 3.029358 1_555
Fe12 Sm0 3.034731 1_545
Fe13 Fe4 2.431414 1_555
Fe13 Fe6 2.492048 1_545
Fe13 Fe33 2.549503 1_545
Fe13 Fe23 2.549678 1_555
Fe13 Fe25 2.614145 1_545
Fe13 Fe31 2.616852 1_555
Fe13 Fe20 2.768310 1_556
Fe13 Fe19 2.770421 1_445
Fe13 Tb0 3.027798 1_545
Fe13 Tb2 3.028271 1_555
Fe14 Fe3 2.430432 1_554
Fe14 Fe6 2.487130 1_554
Fe14 Fe8 2.493660 1_465
Fe14 Fe24 2.541373 1_555
Fe14 Fe28 2.555064 1_455
Fe14 Fe32 2.623387 1_555
Fe14 Fe26 2.624973 1_455
Fe14 Fe19 2.764549 1_454
Fe14 Fe20 2.765591 1_565
Fe14 Tb1 3.027917 1_555
Fe14 Sm0 3.038215 1_455
Fe15 Fe2 2.432031 1_655
Fe15 Fe7 2.486681 1_655
Fe15 Fe9 2.491744 1_555
Fe15 Fe29 2.545042 1_555
Fe15 Fe25 2.549078 1_655
Fe15 Fe33 2.613865 1_655
Fe15 Fe27 2.617223 1_555
Fe15 Fe18 2.768819 1_555
Fe15 Fe21 2.771179 1_665
Fe15 Tb0 3.026726 1_555
Fe15 Tb2 3.027731 1_655
Fe16 Fe3 2.433279 1_655
Fe16 Fe4 2.433370 1_555
Fe16 Fe8 2.487130 1_556
Fe16 Fe26 2.546474 1_556
Fe16 Fe31 2.547425 1_555
Fe16 Fe28 2.612091 1_556
Fe16 Fe23 2.613895 1_555
Fe16 Fe19 2.770963 1_545
Fe16 Fe20 2.771630 1_656
Fe16 Tb0 3.025748 1_555
Fe16 Tb1 3.030335 1_556
Fe17 Fe5 2.429762 1_555
Fe17 Fe2 2.434510 1_655
Fe17 Fe9 2.486681 1_545
Fe17 Fe27 2.545713 1_555
Fe17 Fe30 2.551288 1_555
Fe17 Fe29 2.624179 1_555
Fe17 Fe22 2.624997 1_555
Fe17 Fe18 2.762173 1_545
Fe17 Fe21 2.764373 1_655
Fe17 Tb2 3.027720 1_555
Fe17 Sm0 3.037278 1_555
Fe18 Fe21 2.414180 1_665
Fe18 Fe2 2.608268 1_655
Fe18 Fe5 2.608268 1_565
Fe18 Fe32 2.649910 1_655
Fe18 Fe30 2.649910 1_565
Fe18 Fe29 2.651950 1_555
Fe18 Fe7 2.762173 1_655
Fe18 Fe9 2.768819 1_555
Fe18 Sm0 3.037310 1_555
Fe19 Fe20 2.417911 1_666
Fe19 Fe3 2.603911 1_655
Fe19 Fe4 2.603911 1_565
Fe19 Fe28 2.645900 1_556
Fe19 Fe31 2.646896 1_565
Fe19 Fe33 2.646896 1_655
Fe19 Fe8 2.764549 1_566
Fe19 Fe6 2.770963 1_655
Fe19 Tb0 3.025276 1_555
Fe20 Fe4 2.603187 1_554
Fe20 Fe3 2.603187 1_554
Fe20 Fe26 2.641339 1_455
Fe20 Fe24 2.641339 1_545
Fe20 Fe23 2.646061 1_554
Fe20 Fe8 2.765591 1_455
Fe20 Fe6 2.771630 1_544
Fe20 Tb1 3.021283 1_555
Fe21 Fe5 2.601213 1_555
Fe21 Fe22 2.642018 1_555
Fe21 Fe27 2.646088 1_455
Fe21 Fe25 2.646088 1_545
Fe21 Fe7 2.764373 1_545
Fe21 Fe9 2.771179 1_445
Fe21 Tb2 3.023524 1_555
Fe22 Fe5 2.455433 1_555
Fe22 Fe30 2.480491 1_555
Fe22 Fe32 2.480491 1_555
Fe22 Fe7 2.624997 1_555
Fe22 Sm0 3.074786 1_555
Fe22 Tb2 3.182821 1_555
Fe22 Tb1 3.245447 1_555
Fe23 Fe3 2.458695 1_555
Fe23 Fe4 2.458695 1_555
Fe23 Fe33 2.478518 1_555
Fe23 Fe31 2.478518 1_555
Fe23 Fe6 2.613895 1_555
Fe23 Tb0 3.070200 1_555
Fe23 Tb1 3.182085 1_556
Fe23 Tb2 3.240375 1_555
Fe24 Fe4 2.457647 1_564
Fe24 Fe32 2.483045 1_555
Fe24 Fe28 2.483420 1_555
Fe24 Fe6 2.546474 1_554
Fe24 Fe8 2.624973 1_565
Fe24 Sm0 3.074467 1_555
Fe24 Tb1 3.179149 1_565
Fe24 Tb1 3.245640 1_555
Fe25 Fe5 2.458407 1_565
Fe25 Fe29 2.476353 1_555
Fe25 Fe33 2.477094 1_555
Fe25 Fe7 2.545713 1_555
Fe25 Fe9 2.617223 1_555
Fe25 Tb0 3.068553 1_555
Fe25 Tb2 3.184381 1_565
Fe25 Tb2 3.240477 1_555
Fe26 Fe3 2.457647 1_654
Fe26 Fe30 2.483045 1_555
Fe26 Fe28 2.483420 1_555
Fe26 Fe8 2.541373 1_555
Fe26 Sm0 3.074467 1_555
Fe26 Tb1 3.179149 1_655
Fe26 Tb1 3.245640 1_555
Fe27 Fe29 2.476353 1_555
Fe27 Fe31 2.477094 1_555
Fe27 Fe9 2.549078 1_545
Fe27 Tb0 3.068553 1_555
Fe27 Tb2 3.184381 1_655
Fe27 Tb2 3.240477 1_555
Fe28 Fe3 2.457850 1_654
Fe28 Fe4 2.457850 1_564
Fe28 Fe8 2.555064 1_565
Fe28 Fe6 2.612091 1_554
Fe28 Tb1 3.075632 1_555
Fe28 Tb0 3.176890 1_554
Fe28 Sm0 3.245386 1_555
Fe29 Fe5 2.462686 1_565
Fe29 Fe9 2.545042 1_555
Fe29 Fe7 2.624179 1_555
Fe29 Tb2 3.069964 1_555
Fe29 Sm0 3.196704 1_555
Fe29 Tb0 3.231701 1_555
Fe30 Fe5 2.463573 1_555
Fe30 Fe8 2.623387 1_555
Fe30 Tb1 3.073225 1_555
Fe30 Sm0 3.189010 1_545
Fe30 Sm0 3.235764 1_555
Fe31 Fe4 2.458935 1_555
Fe31 Fe9 2.613865 1_545
Fe31 Tb2 3.069003 1_555
Fe31 Tb0 3.184809 1_545
Fe31 Tb0 3.240039 1_555
Fe32 Fe7 2.551288 1_555
Fe32 Tb1 3.073225 1_555
Fe32 Sm0 3.189010 1_455
Fe32 Sm0 3.235764 1_555
Fe33 Fe6 2.547425 1_555
Fe33 Tb2 3.069003 1_555
Fe33 Tb0 3.184809 1_455
Fe33 Tb0 3.240039 1_555
