# generated using pymatgen
data_Mg14MnZn
_symmetry_space_group_name_H-M   'P 1'
_cell_length_a   6.26421871
_cell_length_b   6.26121850
_cell_length_c   10.15058948
_cell_angle_alpha   90.00000000
_cell_angle_beta   90.00000000
_cell_angle_gamma   119.98416314
_symmetry_Int_Tables_number   1
_chemical_formula_structural   Mg14MnZn
_chemical_formula_sum   'Mg14 Mn1 Zn1'
_cell_volume   344.83945640
_cell_formula_units_Z   1
loop_
 _symmetry_equiv_pos_site_id
 _symmetry_equiv_pos_as_xyz
  1  'x, y, z'
loop_
 _atom_site_type_symbol
 _atom_site_label
 _atom_site_symmetry_multiplicity
 _atom_site_fract_x
 _atom_site_fract_y
 _atom_site_fract_z
 _atom_site_occupancy
  Mg  Mg0  1  0.16820655  0.33410278  0.62500000  1
  Mg  Mg1  1  0.16783975  0.83391937  0.62500000  1
  Mg  Mg2  1  0.66921334  0.33264895  0.12500000  1
  Mg  Mg3  1  0.66565963  0.33311721  0.62500000  1
  Mg  Mg4  1  0.66921334  0.83656339  0.12500000  1
  Mg  Mg5  1  0.66565963  0.83254142  0.62500000  1
  Mg  Mg6  1  0.32831335  0.16492822  0.36464658  1
  Mg  Mg7  1  0.32831335  0.16492822  0.88535342  1
  Mg  Mg8  1  0.32831335  0.66338613  0.36464658  1
  Mg  Mg9  1  0.32831335  0.66338613  0.88535342  1
  Mg  Mg10  1  0.83830685  0.16915393  0.37098808  1
  Mg  Mg11  1  0.83830685  0.16915393  0.87901192  1
  Mg  Mg12  1  0.83699557  0.66849829  0.37115888  1
  Mg  Mg13  1  0.83699557  0.66849829  0.87884112  1
  Mn  Mn0  1  0.16274321  0.33137110  0.12500000  1
  Zn  Zn0  1  0.16760630  0.83380265  0.12500000  1
loop_
_geom_bond_atom_site_label_1
_geom_bond_atom_site_label_2
_geom_bond_distance
_geom_bond_site_symmetry_2
Mg0 Mg5 3.119243 1_555
Mg0 Mg3 3.119243 1_555
Mg0 Mg1 3.130610 1_555
Mg0 Mg1 3.130610 1_545
Mg0 Mg10 3.138795 1_455
Mg0 Mg11 3.138795 1_455
Mg0 Mg5 3.144984 1_445
Mg0 Mg3 3.144984 1_455
Mg0 Mg6 3.189641 1_555
Mg0 Mg7 3.189641 1_555
Mg0 Mg8 3.189647 1_555
Mg0 Mg9 3.189647 1_555
Mg1 Mg3 3.122773 1_565
Mg1 Mg5 3.122773 1_555
Mg1 Mg12 3.140297 1_455
Mg1 Mg13 3.140297 1_455
Mg1 Mg3 3.141463 1_455
Mg1 Mg5 3.141463 1_455
Mg1 Mg8 3.194918 1_555
Mg1 Mg9 3.194918 1_555
Mg1 Mg6 3.194924 1_565
Mg1 Mg7 3.194924 1_565
Mg2 Mg7 3.055959 1_554
Mg2 Mg6 3.055959 1_555
Mg2 Mn0 3.095585 1_655
Mg2 Mg4 3.106100 1_545
Mg2 Zn0 3.130717 1_655
Mg2 Zn0 3.133573 1_545
Mg2 Mg4 3.155118 1_555
Mg2 Mn0 3.168649 1_555
Mg3 Mg5 3.127004 1_555
Mg3 Mg5 3.134214 1_545
Mg3 Mg6 3.214716 1_555
Mg3 Mg7 3.214716 1_555
Mg4 Mg8 3.055959 1_555
Mg4 Mg9 3.055959 1_554
Mg4 Mn0 3.095585 1_665
Mg4 Zn0 3.130717 1_655
Mg4 Zn0 3.133573 1_555
Mg4 Mn0 3.168648 1_555
Mg5 Mg9 3.214716 1_555
Mg5 Mg8 3.214716 1_555
Mg6 Zn0 3.023737 1_545
Mg6 Mn0 3.026456 1_555
Mg6 Mg8 3.120954 1_555
Mg6 Mg8 3.140265 1_545
Mg7 Zn0 3.023737 1_546
Mg7 Mn0 3.026456 1_556
Mg7 Mg9 3.120954 1_555
Mg7 Mg9 3.140265 1_545
Mg8 Zn0 3.023731 1_555
Mg8 Mn0 3.026462 1_555
Mg9 Zn0 3.023731 1_556
Mg9 Mn0 3.026462 1_556
Mg10 Mn0 3.055065 1_655
Mg10 Mg2 3.080314 1_555
Mg10 Mg4 3.080320 1_545
Mg10 Mg8 3.083487 1_655
Mg10 Mg6 3.083488 1_655
Mg10 Mg12 3.130618 1_545
Mg10 Mg12 3.130618 1_555
Mg10 Mg3 3.159322 1_555
Mg10 Mg5 3.159328 1_545
Mg10 Mg8 3.182222 1_545
Mg10 Mg6 3.182222 1_555
Mg11 Mn0 3.055065 1_656
Mg11 Mg2 3.080314 1_556
Mg11 Mg4 3.080320 1_546
Mg11 Mg9 3.083487 1_655
Mg11 Mg7 3.083488 1_655
Mg11 Mg13 3.130618 1_545
Mg11 Mg13 3.130618 1_555
Mg11 Mg3 3.159322 1_555
Mg11 Mg5 3.159328 1_545
Mg11 Mg9 3.182222 1_545
Mg11 Mg7 3.182222 1_555
Mg12 Zn0 3.075899 1_655
Mg12 Mg4 3.092041 1_555
Mg12 Mg2 3.092047 1_555
Mg12 Mg6 3.094549 1_665
Mg12 Mg8 3.094549 1_655
Mg12 Mg5 3.154015 1_555
Mg12 Mg3 3.154021 1_555
Mg12 Mg6 3.171310 1_555
Mg12 Mg8 3.171310 1_555
Mg13 Zn0 3.075899 1_656
Mg13 Mg4 3.092041 1_556
Mg13 Mg2 3.092047 1_556
Mg13 Mg7 3.094549 1_665
Mg13 Mg9 3.094549 1_655
Mg13 Mg5 3.154015 1_555
Mg13 Mg3 3.154021 1_555
Mg13 Mg7 3.171310 1_555
Mg13 Mg9 3.171310 1_555
Mn0 Zn0 3.130720 1_545
Mn0 Zn0 3.130720 1_555
