# generated using pymatgen
data_TiN2F5
_symmetry_space_group_name_H-M   'P 1'
_cell_length_a   5.85073800
_cell_length_b   7.64009200
_cell_length_c   10.68426600
_cell_angle_alpha   90.00000000
_cell_angle_beta   90.00000000
_cell_angle_gamma   90.00000000
_symmetry_Int_Tables_number   1
_chemical_formula_structural   TiN2F5
_chemical_formula_sum   'Ti4 N8 F20'
_cell_volume   477.58857691
_cell_formula_units_Z   4
loop_
 _symmetry_equiv_pos_site_id
 _symmetry_equiv_pos_as_xyz
  1  'x, y, z'
loop_
 _atom_site_type_symbol
 _atom_site_label
 _atom_site_symmetry_multiplicity
 _atom_site_fract_x
 _atom_site_fract_y
 _atom_site_fract_z
 _atom_site_occupancy
  Ti  Ti0  1  0.00000000  0.00000000  0.00000000  1
  Ti  Ti1  1  0.50000000  0.00000000  0.50000000  1
  Ti  Ti2  1  0.00000000  0.50000000  0.00000000  1
  Ti  Ti3  1  0.50000000  0.50000000  0.50000000  1
  N  N0  1  0.98008500  0.25000000  0.64540200  1
  N  N1  1  0.01991500  0.75000000  0.35459800  1
  N  N2  1  0.51991500  0.75000000  0.14540200  1
  N  N3  1  0.48008500  0.25000000  0.85459800  1
  N  N4  1  0.06697700  0.25000000  0.30054900  1
  N  N5  1  0.93302300  0.75000000  0.69945100  1
  N  N6  1  0.43302300  0.75000000  0.80054900  1
  N  N7  1  0.56697700  0.25000000  0.19945100  1
  F  F0  1  0.38341600  0.53306100  0.33690000  1
  F  F1  1  0.61658400  0.46693900  0.66310000  1
  F  F2  1  0.11658400  0.46693900  0.83690000  1
  F  F3  1  0.61658400  0.03306100  0.66310000  1
  F  F4  1  0.88341600  0.53306100  0.16310000  1
  F  F5  1  0.38341600  0.96693900  0.33690000  1
  F  F6  1  0.88341600  0.96693900  0.16310000  1
  F  F7  1  0.11658400  0.03306100  0.83690000  1
  F  F8  1  0.41947600  0.25000000  0.49066800  1
  F  F9  1  0.58052400  0.75000000  0.50933200  1
  F  F10  1  0.08052400  0.75000000  0.99066800  1
  F  F11  1  0.91947600  0.25000000  0.00933200  1
  F  F12  1  0.28666200  0.04651800  0.06569000  1
  F  F13  1  0.71333800  0.95348200  0.93431000  1
  F  F14  1  0.21333800  0.95348200  0.56569000  1
  F  F15  1  0.71333800  0.54651800  0.93431000  1
  F  F16  1  0.78666200  0.04651800  0.43431000  1
  F  F17  1  0.28666200  0.45348200  0.06569000  1
  F  F18  1  0.78666200  0.45348200  0.43431000  1
  F  F19  1  0.21333800  0.54651800  0.56569000  1
loop_
_geom_bond_atom_site_label_1
_geom_bond_atom_site_label_2
_geom_bond_distance
_geom_bond_site_symmetry_2
F0 Ti3 1.888315 1_555
F1 Ti3 1.888315 1_555
F2 Ti2 1.888315 1_556
F3 Ti1 1.888315 1_555
F4 Ti2 1.888315 1_655
F5 Ti1 1.888315 1_565
F6 Ti0 1.888315 1_665
F7 Ti0 1.888315 1_556
F8 Ti3 1.969794 1_555
F8 Ti1 1.969794 1_555
F9 Ti1 1.969794 1_565
F9 Ti3 1.969794 1_555
F10 Ti2 1.969794 1_556
F10 Ti0 1.969794 1_566
F11 Ti0 1.969794 1_655
F11 Ti2 1.969794 1_655
F12 Ti0 1.852525 1_555
F13 Ti0 1.852525 1_666
F14 Ti1 1.852525 1_565
F15 Ti2 1.852525 1_656
F16 Ti1 1.852525 1_555
F17 Ti2 1.852525 1_555
F18 Ti3 1.852525 1_555
F19 Ti3 1.852525 1_555
