# generated using pymatgen
data_MgNi2
_symmetry_space_group_name_H-M   'P 1'
_cell_length_a   10.41065040
_cell_length_b   10.41065040
_cell_length_c   10.41065040
_cell_angle_alpha   148.46271096
_cell_angle_beta   148.46271096
_cell_angle_gamma   45.20277309
_symmetry_Int_Tables_number   1
_chemical_formula_structural   MgNi2
_chemical_formula_sum   'Mg8 Ni16'
_cell_volume   307.70921575
_cell_formula_units_Z   8
loop_
 _symmetry_equiv_pos_site_id
 _symmetry_equiv_pos_as_xyz
  1  'x, y, z'
loop_
 _atom_site_type_symbol
 _atom_site_label
 _atom_site_symmetry_multiplicity
 _atom_site_fract_x
 _atom_site_fract_y
 _atom_site_fract_z
 _atom_site_occupancy
  Mg  Mg0_0  1  0.00000000  0.00000000  0.00000000  1
  Mg  Mg0_1  1  0.00000000  0.00000000  0.50000000  1
  Mg  Mg0_2  1  0.00000000  0.50000000  0.00000000  1
  Mg  Mg0_3  1  0.00000000  0.50000000  0.50000000  1
  Mg  Mg0_4  1  0.50000000  0.00000000  0.00000000  1
  Mg  Mg0_5  1  0.50000000  0.00000000  0.50000000  1
  Mg  Mg0_6  1  0.50000000  0.50000000  0.00000000  1
  Mg  Mg0_7  1  0.50000000  0.50000000  0.50000000  1
  Ni  Ni0_0  1  0.16101600  0.16101600  0.00000000  1
  Ni  Ni0_1  1  0.16101600  0.16101600  0.50000000  1
  Ni  Ni0_2  1  0.16101600  0.66101600  0.00000000  1
  Ni  Ni0_3  1  0.16101600  0.66101600  0.50000000  1
  Ni  Ni0_4  1  0.66101600  0.16101600  0.00000000  1
  Ni  Ni0_5  1  0.66101600  0.16101600  0.50000000  1
  Ni  Ni0_6  1  0.66101600  0.66101600  0.00000000  1
  Ni  Ni0_7  1  0.66101600  0.66101600  0.50000000  1
  Ni  Ni1_0  1  0.33898400  0.33898400  0.00000000  1
  Ni  Ni1_1  1  0.33898400  0.33898400  0.50000000  1
  Ni  Ni1_2  1  0.33898400  0.83898400  0.00000000  1
  Ni  Ni1_3  1  0.33898400  0.83898400  0.50000000  1
  Ni  Ni1_4  1  0.83898400  0.33898400  0.00000000  1
  Ni  Ni1_5  1  0.83898400  0.33898400  0.50000000  1
  Ni  Ni1_6  1  0.83898400  0.83898400  0.00000000  1
  Ni  Ni1_7  1  0.83898400  0.83898400  0.50000000  1
loop_
_geom_bond_atom_site_label_1
_geom_bond_atom_site_label_2
_geom_bond_distance
_geom_bond_site_symmetry_2
Mg0_0 Ni1_2 2.632054 1_545
Mg0_0 Ni1_7 2.632054 1_444
Mg0_0 Ni1_1 2.632054 1_555
Mg0_0 Ni1_4 2.632054 1_455
Mg0_0 Ni0_1 2.632054 1_555
Mg0_0 Ni0_4 2.632054 1_455
Mg0_0 Ni0_2 2.632054 1_545
Mg0_0 Ni0_7 2.632054 1_444
Mg0_0 Mg0_3 2.829132 1_555
Mg0_0 Mg0_3 2.829132 1_544
Mg0_0 Mg0_5 2.829132 1_454
Mg0_0 Mg0_5 2.829132 1_555
Mg0_1 Ni1_6 2.632054 1_445
Mg0_1 Ni1_5 2.632054 1_455
Mg0_1 Ni1_0 2.632054 1_556
Mg0_1 Ni1_3 2.632054 1_545
Mg0_1 Ni0_0 2.632054 1_556
Mg0_1 Ni0_3 2.632054 1_545
Mg0_1 Ni0_6 2.632054 1_445
Mg0_1 Ni0_5 2.632054 1_455
Mg0_1 Mg0_2 2.829132 1_556
Mg0_1 Mg0_4 2.829132 1_556
Mg0_1 Mg0_2 2.829132 1_545
Mg0_1 Mg0_4 2.829132 1_455
Mg0_2 Ni0_0 2.632054 1_555
Mg0_2 Ni1_0 2.632054 1_555
Mg0_2 Ni1_5 2.632054 1_454
Mg0_2 Ni1_3 2.632054 1_555
Mg0_2 Ni1_6 2.632054 1_455
Mg0_2 Ni0_5 2.632054 1_454
Mg0_2 Ni0_3 2.632054 1_555
Mg0_2 Ni0_6 2.632054 1_455
Mg0_2 Mg0_7 2.829132 1_454
Mg0_2 Mg0_7 2.829132 1_555
Mg0_3 Ni0_1 2.632054 1_555
Mg0_3 Ni1_7 2.632054 1_455
Mg0_3 Ni1_2 2.632054 1_556
Mg0_3 Ni0_4 2.632054 1_455
Mg0_3 Ni0_2 2.632054 1_556
Mg0_3 Ni1_1 2.632054 1_555
Mg0_3 Ni1_4 2.632054 1_455
Mg0_3 Ni0_7 2.632054 1_455
Mg0_3 Mg0_6 2.829132 1_556
Mg0_3 Mg0_6 2.829132 1_455
Mg0_4 Ni1_6 2.632054 1_545
Mg0_4 Ni1_5 2.632054 1_555
Mg0_4 Ni1_0 2.632054 1_555
Mg0_4 Ni1_3 2.632054 1_544
Mg0_4 Ni0_0 2.632054 1_555
Mg0_4 Ni0_5 2.632054 1_555
Mg0_4 Ni0_6 2.632054 1_545
Mg0_4 Ni0_3 2.632054 1_544
Mg0_4 Mg0_7 2.829132 1_555
Mg0_4 Mg0_7 2.829132 1_544
Mg0_5 Ni1_7 2.632054 1_545
Mg0_5 Ni1_2 2.632054 1_545
Mg0_5 Ni1_1 2.632054 1_555
Mg0_5 Ni1_4 2.632054 1_556
Mg0_5 Ni0_1 2.632054 1_555
Mg0_5 Ni0_2 2.632054 1_545
Mg0_5 Ni0_4 2.632054 1_556
Mg0_5 Ni0_7 2.632054 1_545
Mg0_5 Mg0_6 2.829132 1_545
Mg0_5 Mg0_6 2.829132 1_556
Mg0_6 Ni0_4 2.632054 1_555
Mg0_6 Ni0_2 2.632054 1_555
Mg0_6 Ni0_1 2.632054 1_554
Mg0_6 Ni1_7 2.632054 1_555
Mg0_6 Ni1_4 2.632054 1_555
Mg0_6 Ni1_1 2.632054 1_554
Mg0_6 Ni1_2 2.632054 1_555
Mg0_6 Ni0_7 2.632054 1_555
Mg0_7 Ni1_5 2.632054 1_555
Mg0_7 Ni1_0 2.632054 1_555
Mg0_7 Ni1_6 2.632054 1_556
Mg0_7 Ni0_0 2.632054 1_555
Mg0_7 Ni1_3 2.632054 1_555
Mg0_7 Ni0_5 2.632054 1_555
Mg0_7 Ni0_6 2.632054 1_556
Mg0_7 Ni0_3 2.632054 1_555
Ni0_0 Ni1_4 2.432932 1_455
Ni0_0 Ni1_2 2.432932 1_545
Ni0_0 Ni1_1 2.432932 1_555
Ni0_0 Ni1_7 2.432932 1_444
Ni0_1 Ni1_3 2.432932 1_545
Ni0_1 Ni1_0 2.432932 1_556
Ni0_1 Ni1_5 2.432932 1_455
Ni0_1 Ni1_6 2.432932 1_445
Ni0_2 Ni1_0 2.432932 1_555
Ni0_2 Ni1_5 2.432932 1_454
Ni0_2 Ni1_3 2.432932 1_555
Ni0_2 Ni1_6 2.432932 1_455
Ni0_3 Ni1_1 2.432932 1_555
Ni0_3 Ni1_4 2.432932 1_455
Ni0_3 Ni1_2 2.432932 1_556
Ni0_3 Ni1_7 2.432932 1_455
Ni0_4 Ni1_0 2.432932 1_555
Ni0_4 Ni1_5 2.432932 1_555
Ni0_4 Ni1_3 2.432932 1_544
Ni0_4 Ni1_6 2.432932 1_545
Ni0_5 Ni1_1 2.432932 1_555
Ni0_5 Ni1_7 2.432932 1_545
Ni0_5 Ni1_2 2.432932 1_545
Ni0_5 Ni1_4 2.432932 1_556
Ni0_6 Ni1_4 2.432932 1_555
Ni0_6 Ni1_2 2.432932 1_555
Ni0_6 Ni1_1 2.432932 1_554
Ni0_6 Ni1_7 2.432932 1_555
Ni0_7 Ni1_5 2.432932 1_555
Ni0_7 Ni1_0 2.432932 1_555
Ni0_7 Ni1_3 2.432932 1_555
Ni0_7 Ni1_6 2.432932 1_556
