# generated using pymatgen
data_CeAgSn
_symmetry_space_group_name_H-M   'P 1'
_cell_length_a   5.12401244
_cell_length_b   5.12390800
_cell_length_c   6.48480203
_cell_angle_alpha   90.00000000
_cell_angle_beta   90.01489367
_cell_angle_gamma   60.00067422
_symmetry_Int_Tables_number   1
_chemical_formula_structural   CeAgSn
_chemical_formula_sum   'Ce2 Ag2 Sn2'
_cell_volume   147.44898379
_cell_formula_units_Z   2
loop_
 _symmetry_equiv_pos_site_id
 _symmetry_equiv_pos_as_xyz
  1  'x, y, z'
loop_
 _atom_site_type_symbol
 _atom_site_label
 _atom_site_symmetry_multiplicity
 _atom_site_fract_x
 _atom_site_fract_y
 _atom_site_fract_z
 _atom_site_occupancy
  Ce  Ce0  1  0.00034900  0.99982500  0.71576000  1
  Ce  Ce1  1  0.99965100  0.00017500  0.28424000  1
  Ag  Ag0  1  0.33336000  0.33332000  0.50490400  1
  Ag  Ag1  1  0.66664000  0.66668000  0.49509600  1
  Sn  Sn0  1  0.66654400  0.66672800  0.01914000  1
  Sn  Sn1  1  0.33345600  0.33327200  0.98086000  1
loop_
_geom_bond_atom_site_label_1
_geom_bond_atom_site_label_2
_geom_bond_distance
_geom_bond_site_symmetry_2
Ce0 Ce1 2.798323 1_465
Ce0 Sn1 3.420887 1_555
Ce0 Sn1 3.420890 1_565
Ce0 Sn1 3.422912 1_465
Ce0 Sn0 3.550575 1_556
Ce0 Sn0 3.553876 1_456
Ce0 Sn0 3.553879 1_466
Ce1 Sn0 3.420887 1_555
Ce1 Sn0 3.420890 1_545
Ce1 Sn0 3.422912 1_645
Ce1 Sn1 3.550575 1_554
Ce1 Sn1 3.553876 1_654
Ce1 Sn1 3.553879 1_644
Ag0 Ag1 2.958885 1_545
Ag0 Ag1 2.958885 1_555
Ag0 Ag1 2.959271 1_455
Ag0 Sn1 3.086480 1_555
Ag0 Ce0 3.258564 1_555
Ag0 Ce0 3.258568 1_545
Ag0 Ce0 3.260009 1_645
Ag0 Ce1 3.285161 1_555
Ag0 Ce1 3.286776 1_455
Ag0 Ce1 3.286780 1_465
Ag0 Sn1 3.398322 1_554
Ag1 Sn0 3.086480 1_555
Ag1 Ce1 3.258564 1_555
Ag1 Ce1 3.258568 1_565
Ag1 Ce1 3.260009 1_465
Ag1 Ce0 3.285161 1_555
Ag1 Ce0 3.286776 1_655
Ag1 Ce0 3.286780 1_645
Ag1 Sn0 3.398322 1_556
Sn0 Sn1 2.968127 1_564
Sn0 Sn1 2.968127 1_554
Sn0 Sn1 2.969926 1_654
