# generated using pymatgen
data_Sr2LiPr2Fe2(RuO6)2
_symmetry_space_group_name_H-M   'P 1'
_cell_length_a   5.73811841
_cell_length_b   5.63079033
_cell_length_c   8.12762972
_cell_angle_alpha   91.29888974
_cell_angle_beta   87.77339271
_cell_angle_gamma   91.18274277
_symmetry_Int_Tables_number   1
_chemical_formula_structural   Sr2LiPr2Fe2(RuO6)2
_chemical_formula_sum   'Sr2 Li1 Pr2 Fe2 Ru2 O12'
_cell_volume   262.28784238
_cell_formula_units_Z   1
loop_
 _symmetry_equiv_pos_site_id
 _symmetry_equiv_pos_as_xyz
  1  'x, y, z'
loop_
 _atom_site_type_symbol
 _atom_site_label
 _atom_site_symmetry_multiplicity
 _atom_site_fract_x
 _atom_site_fract_y
 _atom_site_fract_z
 _atom_site_occupancy
  Sr  Sr0  1  0.44212100  0.50177500  0.68903900  1
  Sr  Sr1  1  0.97712400  0.01105700  0.26170100  1
  Li  Li0  1  0.72978600  0.46482800  0.88818100  1
  Pr  Pr0  1  0.02684800  0.98467200  0.75965600  1
  Pr  Pr1  1  0.47500300  0.47729900  0.24765800  1
  Fe  Fe0  1  0.04927500  0.49991200  0.02380400  1
  Fe  Fe1  1  0.49980700  0.00313100  0.49709700  1
  Ru  Ru0  1  0.98412900  0.51061300  0.50063900  1
  Ru  Ru1  1  0.51411700  0.99287300  0.00038000  1
  O  O0  1  0.98464900  0.40874800  0.74395700  1
  O  O1  1  0.48427600  0.08171000  0.75680700  1
  O  O2  1  0.02769400  0.57507500  0.26489200  1
  O  O3  1  0.51694300  0.90304300  0.24763400  1
  O  O4  1  0.24196500  0.25762300  0.46025200  1
  O  O5  1  0.73937200  0.26766300  0.05976800  1
  O  O6  1  0.79084300  0.78009500  0.95793100  1
  O  O7  1  0.23467500  0.77062300  0.53708000  1
  O  O8  1  0.75920100  0.78075700  0.54783800  1
  O  O9  1  0.29465000  0.72767000  0.94203500  1
  O  O10  1  0.25381900  0.21408200  0.05329100  1
  O  O11  1  0.71179700  0.28675100  0.45203000  1
loop_
_geom_bond_atom_site_label_1
_geom_bond_atom_site_label_2
_geom_bond_distance
_geom_bond_site_symmetry_2
Li0 O5 1.805306 1_556
Li0 O0 1.865893 1_555
Li0 O6 1.881383 1_555
Li0 Sr0 2.371645 1_555
Fe0 O9 1.990025 1_554
Fe0 O2 1.994920 1_555
Fe0 O10 2.035351 1_555
Fe0 Li0 2.178793 1_454
Fe0 O5 2.199724 1_455
Fe0 O6 2.274033 1_454
Fe0 O0 2.362009 1_454
Fe1 O7 2.008183 1_545
Fe1 O11 2.018905 1_555
Fe1 O8 2.025196 1_545
Fe1 O3 2.091221 1_545
Fe1 O4 2.115077 1_555
Fe1 O1 2.145687 1_555
O0 Ru0 2.071679 1_555
O0 Pr0 2.411842 1_645
O0 Sr0 2.688341 1_655
O1 Ru1 2.067223 1_546
O1 Sr0 2.459584 1_555
O1 Pr0 2.669304 1_545
O2 Ru0 1.963697 1_455
O2 Sr1 2.478791 1_465
O2 Pr1 2.633941 1_555
O2 Sr1 3.182737 1_455
O3 Ru1 2.084109 1_555
O3 Pr1 2.404380 1_555
O3 Sr1 2.703630 1_565
O3 Sr1 3.166208 1_465
O4 Ru0 2.086628 1_455
O4 Pr1 2.480486 1_555
O4 Sr0 2.579085 1_555
O4 Sr1 2.615927 1_455
O5 Ru1 2.056645 1_545
O5 Pr1 2.416370 1_555
O5 Sr1 2.646776 1_555
O6 Ru1 2.023143 1_556
O6 Pr0 2.368122 1_655
O6 Sr1 2.988574 1_566
O7 Ru0 2.055385 1_455
O7 Sr0 2.346782 1_555
O7 Pr0 2.437252 1_555
O7 Sr1 3.082753 1_465
O8 Ru0 2.035415 1_555
O8 Pr0 2.585321 1_655
O8 Sr0 2.626139 1_555
O8 Sr1 2.915061 1_565
O9 Ru1 1.994341 1_556
O9 Sr0 2.520479 1_555
O9 Pr0 2.649310 1_555
O10 Ru1 1.992466 1_545
O10 Pr1 2.505010 1_555
O10 Sr1 2.549670 1_455
O11 Ru0 2.032491 1_555
O11 Pr1 2.464320 1_555
O11 Sr1 2.631820 1_555
O11 Sr0 2.703919 1_555
