# generated using pymatgen
data_TaB4W3
_symmetry_space_group_name_H-M   'P 1'
_cell_length_a   3.09928222
_cell_length_b   3.19736444
_cell_length_c   8.53851325
_cell_angle_alpha   90.00000000
_cell_angle_beta   90.00000000
_cell_angle_gamma   90.00000000
_symmetry_Int_Tables_number   1
_chemical_formula_structural   TaB4W3
_chemical_formula_sum   'Ta1 B4 W3'
_cell_volume   84.61269385
_cell_formula_units_Z   1
loop_
 _symmetry_equiv_pos_site_id
 _symmetry_equiv_pos_as_xyz
  1  'x, y, z'
loop_
 _atom_site_type_symbol
 _atom_site_label
 _atom_site_symmetry_multiplicity
 _atom_site_fract_x
 _atom_site_fract_y
 _atom_site_fract_z
 _atom_site_occupancy
  Ta  Ta0  1  -0.00000000  -0.00000000  0.14529716  1
  B  B0  1  -0.00000000  -0.00000000  0.44034933  1
  B  B1  1  -0.00000000  0.50000000  0.93791825  1
  B  B2  1  0.50000000  0.50000000  0.05597672  1
  B  B3  1  0.50000000  -0.00000000  0.56329511  1
  W  W0  1  0.00000000  0.50000000  0.64516349  1
  W  W1  1  0.50000000  0.50000000  0.35926594  1
  W  W2  1  0.50000000  -0.00000000  0.85273600  1
loop_
_geom_bond_atom_site_label_1
_geom_bond_atom_site_label_2
_geom_bond_distance
_geom_bond_site_symmetry_2
Ta0 W1 2.880106 1_455
Ta0 W1 2.880106 1_545
Ta0 W1 2.880106 1_445
Ta0 W1 2.880106 1_555
B0 B3 1.871741 1_455
B0 B3 1.871741 1_555
B0 W1 2.331629 1_445
B0 W1 2.331629 1_555
B0 W1 2.331629 1_455
B0 W1 2.331629 1_545
B0 W0 2.369413 1_545
B0 W0 2.369413 1_555
B0 Ta0 2.519307 1_555
B1 B2 1.848659 1_556
B1 B2 1.848659 1_456
B1 W2 2.342260 1_465
B1 W2 2.342260 1_565
B1 W2 2.342260 1_455
B1 W2 2.342260 1_555
B1 Ta0 2.385622 1_556
B1 Ta0 2.385622 1_566
B1 W0 2.499690 1_555
B2 Ta0 2.353472 1_665
B2 Ta0 2.353472 1_655
B2 Ta0 2.353472 1_565
B2 Ta0 2.353472 1_555
B2 W2 2.359514 1_554
B2 W2 2.359514 1_564
B2 W1 2.589639 1_555
B3 W0 2.333628 1_555
B3 W0 2.333628 1_645
B3 W0 2.333628 1_545
B3 W0 2.333628 1_655
B3 W1 2.364470 1_545
B3 W1 2.364470 1_555
B3 W2 2.471395 1_555
