# generated using pymatgen
data_Pr2MgS4
_symmetry_space_group_name_H-M   'P 1'
_cell_length_a   8.17523344
_cell_length_b   8.17523344
_cell_length_c   8.17523344
_cell_angle_alpha   60.00000000
_cell_angle_beta   60.00000000
_cell_angle_gamma   60.00000000
_symmetry_Int_Tables_number   1
_chemical_formula_structural   Pr2MgS4
_chemical_formula_sum   'Pr4 Mg2 S8'
_cell_volume   386.35406785
_cell_formula_units_Z   2
loop_
 _symmetry_equiv_pos_site_id
 _symmetry_equiv_pos_as_xyz
  1  'x, y, z'
loop_
 _atom_site_type_symbol
 _atom_site_label
 _atom_site_symmetry_multiplicity
 _atom_site_fract_x
 _atom_site_fract_y
 _atom_site_fract_z
 _atom_site_occupancy
  Pr  Pr0  1  0.62500000  0.12500000  0.62500000  1
  Pr  Pr1  1  0.62500000  0.62500000  0.12500000  1
  Pr  Pr2  1  0.12500000  0.62500000  0.62500000  1
  Pr  Pr3  1  0.62500000  0.62500000  0.62500000  1
  Mg  Mg0  1  0.00000000  0.00000000  0.00000000  1
  Mg  Mg1  1  0.25000000  0.25000000  0.25000000  1
  S  S0  1  0.37720200  0.37720200  0.37720200  1
  S  S1  1  0.86839300  0.37720200  0.37720200  1
  S  S2  1  0.37720200  0.86839300  0.37720200  1
  S  S3  1  0.37720200  0.37720200  0.86839300  1
  S  S4  1  0.87279800  0.87279800  0.38160700  1
  S  S5  1  0.87279800  0.38160700  0.87279800  1
  S  S6  1  0.38160700  0.87279800  0.87279800  1
  S  S7  1  0.87279800  0.87279800  0.87279800  1
loop_
_geom_bond_atom_site_label_1
_geom_bond_atom_site_label_2
_geom_bond_distance
_geom_bond_site_symmetry_2
Pr0 S3 2.865144 1_555
Pr0 S6 2.865144 1_545
Pr0 S1 2.865144 1_555
Pr0 S4 2.865144 1_545
Pr0 S7 2.865149 1_545
Pr0 S0 2.865149 1_555
Pr1 S2 2.865144 1_555
Pr1 S6 2.865144 1_554
Pr1 S1 2.865144 1_555
Pr1 S5 2.865144 1_554
Pr1 S0 2.865149 1_555
Pr1 S7 2.865149 1_554
Pr2 S3 2.865144 1_555
Pr2 S4 2.865144 1_455
Pr2 S5 2.865144 1_455
Pr2 S2 2.865144 1_555
Pr2 S7 2.865149 1_455
Pr2 S0 2.865149 1_555
Pr3 S6 2.865149 1_555
Pr3 S4 2.865149 1_555
Pr3 S1 2.865149 1_555
Pr3 S5 2.865149 1_555
Pr3 S2 2.865149 1_555
Pr3 S3 2.865149 1_555
Mg0 S7 2.547239 1_444
Mg0 S4 2.547246 1_445
Mg0 S6 2.547246 1_544
Mg0 S5 2.547246 1_454
Mg1 S0 2.547239 1_555
Mg1 S1 2.547246 1_455
Mg1 S2 2.547246 1_545
Mg1 S3 2.547246 1_554
