# generated using pymatgen
data_KRbMg6O7
_symmetry_space_group_name_H-M   'P 1'
_cell_length_a   8.02217507
_cell_length_b   4.92904447
_cell_length_c   4.92904447
_cell_angle_alpha   90.00000000
_cell_angle_beta   90.00000000
_cell_angle_gamma   90.00000000
_symmetry_Int_Tables_number   1
_chemical_formula_structural   KRbMg6O7
_chemical_formula_sum   'K1 Rb1 Mg6 O7'
_cell_volume   194.90258905
_cell_formula_units_Z   1
loop_
 _symmetry_equiv_pos_site_id
 _symmetry_equiv_pos_as_xyz
  1  'x, y, z'
loop_
 _atom_site_type_symbol
 _atom_site_label
 _atom_site_symmetry_multiplicity
 _atom_site_fract_x
 _atom_site_fract_y
 _atom_site_fract_z
 _atom_site_occupancy
  K  K0  1  0.02150400  -0.00000000  0.00000000  1
  Rb  Rb0  1  0.44224565  -0.00000000  0.00000000  1
  Mg  Mg0  1  0.00191285  0.50000000  0.50000000  1
  Mg  Mg1  1  0.50833083  0.50000000  0.50000000  1
  Mg  Mg2  1  0.25355102  0.00000000  0.50000000  1
  Mg  Mg3  1  0.75021839  -0.00000000  0.50000000  1
  Mg  Mg4  1  0.25355102  0.50000000  -0.00000000  1
  Mg  Mg5  1  0.75021839  0.50000000  0.00000000  1
  O  O0  1  0.73823078  -0.00000000  0.00000000  1
  O  O1  1  0.25534910  0.50000000  0.50000000  1
  O  O2  1  0.75511802  0.50000000  0.50000000  1
  O  O3  1  0.01469611  0.00000000  0.50000000  1
  O  O4  1  0.49518886  0.00000000  0.50000000  1
  O  O5  1  0.01469611  0.50000000  0.00000000  1
  O  O6  1  0.49518886  0.50000000  0.00000000  1
loop_
_geom_bond_atom_site_label_1
_geom_bond_atom_site_label_2
_geom_bond_distance
_geom_bond_site_symmetry_2
K0 O0 2.272467 1_455
K0 O5 2.465127 1_555
K0 O3 2.465127 1_555
K0 O3 2.465127 1_554
K0 O5 2.465127 1_545
Mg0 O2 1.979831 1_455
Mg0 O1 2.033110 1_555
Mg0 O5 2.466655 1_556
Mg0 O5 2.466655 1_555
Mg0 O3 2.466655 1_565
Mg0 O3 2.466655 1_555
Mg1 O2 1.979770 1_555
Mg1 O1 2.029464 1_555
Mg1 O6 2.466776 1_556
Mg1 O6 2.466776 1_555
Mg1 O4 2.466776 1_555
Mg1 O4 2.466776 1_565
Mg2 O3 1.916136 1_555
Mg2 O4 1.938461 1_555
Mg2 O1 2.464564 1_555
Mg2 O1 2.464564 1_545
Mg3 O4 2.045892 1_555
Mg3 O3 2.121687 1_655
Mg3 O2 2.464836 1_555
Mg3 O2 2.464836 1_545
Mg3 O0 2.466398 1_555
Mg3 O0 2.466398 1_556
Mg4 O5 1.916136 1_555
Mg4 O6 1.938461 1_555
Mg4 O1 2.464564 1_555
Mg4 O1 2.464564 1_554
Mg5 O6 2.045892 1_555
Mg5 O5 2.121687 1_655
Mg5 O2 2.464836 1_555
Mg5 O2 2.464836 1_554
Mg5 O0 2.466398 1_565
Mg5 O0 2.466398 1_555
O0 Rb0 2.374445 1_555
O4 Rb0 2.500851 1_555
O4 Rb0 2.500851 1_556
O6 Rb0 2.500851 1_555
O6 Rb0 2.500851 1_565
