# generated using pymatgen
data_Ca13Si10(O17F5)2
_symmetry_space_group_name_H-M   'P 1'
_cell_length_a   9.40278800
_cell_length_b   9.40433097
_cell_length_c   13.87557103
_cell_angle_alpha   70.93384341
_cell_angle_beta   70.95658474
_cell_angle_gamma   60.08963811
_symmetry_Int_Tables_number   1
_chemical_formula_structural   Ca13Si10(O17F5)2
_chemical_formula_sum   'Ca13 Si10 O34 F10'
_cell_volume   985.00929469
_cell_formula_units_Z   1
loop_
 _symmetry_equiv_pos_site_id
 _symmetry_equiv_pos_as_xyz
  1  'x, y, z'
loop_
 _atom_site_type_symbol
 _atom_site_label
 _atom_site_symmetry_multiplicity
 _atom_site_fract_x
 _atom_site_fract_y
 _atom_site_fract_z
 _atom_site_occupancy
  Ca  Ca0  1  0.00000000  0.00000000  0.00000000  1
  Ca  Ca1  1  0.27174000  0.55324400  0.03742400  1
  Ca  Ca2  1  0.13779400  0.27200600  0.03697600  1
  Ca  Ca3  1  0.55351100  0.13675800  0.03836100  1
  Ca  Ca4  1  0.72826000  0.44675600  0.96257600  1
  Ca  Ca5  1  0.86220600  0.72799400  0.96302400  1
  Ca  Ca6  1  0.44648900  0.86324200  0.96163900  1
  Ca  Ca7  1  0.01036800  0.44906200  0.27802600  1
  Ca  Ca8  1  0.26628800  0.01282200  0.27862100  1
  Ca  Ca9  1  0.44876800  0.27070100  0.27604500  1
  Ca  Ca10  1  0.98963200  0.55093800  0.72197400  1
  Ca  Ca11  1  0.73371200  0.98717800  0.72137900  1
  Ca  Ca12  1  0.55123200  0.72929900  0.72395500  1
  Si  Si0  1  0.89182900  0.89299600  0.33530300  1
  Si  Si1  1  0.10817100  0.10700400  0.66469700  1
  Si  Si2  1  0.71458600  0.84441500  0.21260000  1
  Si  Si3  1  0.23356200  0.71689900  0.20982000  1
  Si  Si4  1  0.84310800  0.23401600  0.21090400  1
  Si  Si5  1  0.28541400  0.15558500  0.78740000  1
  Si  Si6  1  0.76643800  0.28310100  0.79018000  1
  Si  Si7  1  0.15689200  0.76598400  0.78909600  1
  Si  Si8  1  0.60406100  0.60505900  0.19009000  1
  Si  Si9  1  0.39593900  0.39494100  0.80991000  1
  O  O0  1  0.86957300  0.85272800  0.45871700  1
  O  O1  1  0.13042700  0.14727200  0.54128300  1
  O  O2  1  0.84960000  0.77851700  0.28927800  1
  O  O3  1  0.08939200  0.85831300  0.28118200  1
  O  O4  1  0.77592700  0.09028500  0.28309200  1
  O  O5  1  0.15040000  0.22148300  0.71072200  1
  O  O6  1  0.91060800  0.14168700  0.71881800  1
  O  O7  1  0.22407300  0.90971500  0.71690800  1
  O  O8  1  0.70223000  0.66339300  0.23729300  1
  O  O9  1  0.40215300  0.70225900  0.23676400  1
  O  O10  1  0.66271100  0.40297800  0.23609500  1
  O  O11  1  0.29777000  0.33660700  0.76270700  1
  O  O12  1  0.59784700  0.29774100  0.76323600  1
  O  O13  1  0.33728900  0.59702200  0.76390500  1
  O  O14  1  0.22593700  0.53914600  0.24067000  1
  O  O15  1  0.99658600  0.22855300  0.24313600  1
  O  O16  1  0.53514600  0.99832300  0.24200200  1
  O  O17  1  0.77406300  0.46085400  0.75933000  1
  O  O18  1  0.00341400  0.77144700  0.75686400  1
  O  O19  1  0.46485400  0.00167700  0.75799800  1
  O  O20  1  0.64473600  0.64651500  0.06461800  1
  O  O21  1  0.35526400  0.35348500  0.93538200  1
  O  O22  1  0.79566800  0.89425600  0.09051000  1
  O  O23  1  0.22449100  0.79519000  0.08718500  1
  O  O24  1  0.89512600  0.22439700  0.08811300  1
  O  O25  1  0.20433200  0.10574400  0.90949000  1
  O  O26  1  0.77550900  0.20481000  0.91281500  1
  O  O27  1  0.10487400  0.77560300  0.91188700  1
  O  O28  1  0.73252600  0.43844000  0.46640900  1
  O  O29  1  0.36636200  0.73629600  0.46591800  1
  O  O30  1  0.43379100  0.35865600  0.46318000  1
  O  O31  1  0.26747400  0.56156000  0.53359100  1
  O  O32  1  0.63363800  0.26370400  0.53408200  1
  O  O33  1  0.56620900  0.64134400  0.53682000  1
  F  F0  1  0.01690400  0.53403500  0.08984600  1
  F  F1  1  0.35934100  0.01758900  0.08911600  1
  F  F2  1  0.53419800  0.36096200  0.08938600  1
  F  F3  1  0.98309600  0.46596500  0.91015400  1
  F  F4  1  0.64065900  0.98241100  0.91088400  1
  F  F5  1  0.46580200  0.63903800  0.91061400  1
  F  F6  1  0.28582700  0.28595700  0.14455800  1
  F  F7  1  0.71417300  0.71404300  0.85544200  1
  F  F8  1  0.22273400  0.22356900  0.34387900  1
  F  F9  1  0.77726600  0.77643100  0.65612100  1
loop_
_geom_bond_atom_site_label_1
_geom_bond_atom_site_label_2
_geom_bond_distance
_geom_bond_site_symmetry_2
Ca0 O23 2.391320 1_545
Ca0 O26 2.391320 1_454
Ca0 O24 2.396687 1_455
Ca0 O27 2.396687 1_544
Ca0 O25 2.402592 1_554
Ca0 O22 2.402592 1_445
Ca1 F0 2.347723 1_555
Ca1 F5 2.349937 1_554
Ca1 O23 2.381044 1_555
Ca1 O21 2.385668 1_554
Ca1 F2 2.395589 1_555
Ca1 F6 2.429205 1_555
Ca1 O27 2.449589 1_554
Ca1 O14 2.678881 1_555
Ca2 F3 2.338143 1_454
Ca2 F1 2.338697 1_555
Ca2 O24 2.380147 1_455
Ca2 O21 2.394054 1_554
Ca2 F0 2.397076 1_555
Ca2 F6 2.418469 1_555
Ca2 O25 2.464665 1_554
Ca2 O15 2.722447 1_455
Ca3 F4 2.335049 1_544
Ca3 F2 2.342967 1_555
Ca3 O21 2.391051 1_554
Ca3 O22 2.393216 1_545
Ca3 F1 2.402320 1_555
Ca3 F6 2.425629 1_555
Ca3 O26 2.456103 1_554
Ca3 O16 2.685404 1_545
Ca4 F3 2.347723 1_555
Ca4 F2 2.349937 1_556
Ca4 O26 2.381044 1_555
Ca4 O20 2.385668 1_556
Ca4 F5 2.395589 1_555
Ca4 F7 2.429205 1_555
Ca4 O24 2.449589 1_556
Ca4 O17 2.678881 1_555
Ca5 F0 2.338143 1_656
Ca5 F4 2.338697 1_555
Ca5 O27 2.380147 1_655
Ca5 O20 2.394054 1_556
Ca5 F3 2.397076 1_555
Ca5 F7 2.418469 1_555
Ca5 O22 2.464665 1_556
Ca5 O18 2.722447 1_655
Ca6 F1 2.335049 1_566
Ca6 F5 2.342967 1_555
Ca6 O20 2.391051 1_556
Ca6 O25 2.393216 1_565
Ca6 F4 2.402320 1_555
Ca6 F7 2.425629 1_555
Ca6 O23 2.456103 1_556
Ca6 O19 2.685404 1_565
Ca7 F8 2.240754 1_555
Ca7 O15 2.348701 1_455
Ca7 O14 2.415562 1_555
Ca7 F0 2.457904 1_555
Ca7 F6 2.693440 1_555
Ca7 O8 2.697605 1_455
Ca7 O2 2.720314 1_455
Ca7 O28 3.049762 1_455
Ca8 F8 2.244262 1_555
Ca8 O16 2.351785 1_545
Ca8 O15 2.412619 1_455
Ca8 F1 2.478411 1_555
Ca8 O3 2.686499 1_545
Ca8 F6 2.686632 1_555
Ca8 O9 2.720748 1_545
Ca8 O29 3.023623 1_545
Ca9 F8 2.227330 1_555
Ca9 O14 2.364455 1_555
Ca9 O16 2.430959 1_545
Ca9 F2 2.441293 1_555
Ca9 F6 2.670285 1_555
Ca9 O10 2.686821 1_555
Ca9 O4 2.689619 1_555
Ca9 O30 2.914582 1_555
Ca10 F9 2.240754 1_555
Ca10 O18 2.348701 1_655
Ca10 O17 2.415562 1_555
Ca10 F3 2.457904 1_555
Ca10 F7 2.693440 1_555
Ca10 O11 2.697605 1_655
Ca10 O5 2.720314 1_655
Ca10 O31 3.049762 1_655
Ca11 F9 2.244262 1_555
Ca11 O19 2.351785 1_565
Ca11 O18 2.412619 1_655
Ca11 F4 2.478411 1_555
Ca11 O6 2.686499 1_565
Ca11 F7 2.686632 1_555
Ca11 O12 2.720748 1_565
Ca11 O32 3.023623 1_565
Ca12 F9 2.227330 1_555
Ca12 O17 2.364455 1_555
Ca12 O19 2.430959 1_565
Ca12 F5 2.441293 1_555
Ca12 F7 2.670285 1_555
Ca12 O13 2.686821 1_555
Ca12 O7 2.689619 1_555
Ca12 O33 2.914582 1_555
O0 Si0 1.594102 1_555
O1 Si1 1.594102 1_555
O2 Si0 1.662996 1_555
O2 Si2 1.671448 1_555
O3 Si0 1.663304 1_455
O3 Si3 1.665300 1_555
O4 Si0 1.665973 1_545
O4 Si4 1.668382 1_555
O5 Si1 1.662996 1_555
O5 Si5 1.671448 1_555
O6 Si1 1.663304 1_655
O6 Si6 1.665300 1_555
O7 Si1 1.665973 1_565
O7 Si7 1.668382 1_555
O8 Si8 1.648110 1_555
O8 Si2 1.679055 1_555
O9 Si8 1.647119 1_555
O9 Si3 1.675449 1_555
O10 Si8 1.647795 1_555
O10 Si4 1.676966 1_555
O11 Si9 1.648110 1_555
O11 Si5 1.679055 1_555
O12 Si9 1.647119 1_555
O12 Si6 1.675449 1_555
O13 Si9 1.647795 1_555
O13 Si7 1.676966 1_555
O14 Si3 1.617031 1_555
O15 Si4 1.617865 1_555
O16 Si2 1.615327 1_555
O17 Si6 1.617031 1_555
O18 Si7 1.617865 1_555
O19 Si5 1.615327 1_555
O20 Si8 1.612475 1_555
O21 Si9 1.612475 1_555
O22 Si2 1.632669 1_555
O23 Si3 1.630485 1_555
O24 Si4 1.631896 1_555
O25 Si5 1.632669 1_555
O26 Si6 1.630485 1_555
O27 Si7 1.631896 1_555
