# generated using pymatgen
data_RbAuC4S4(OF)12
_symmetry_space_group_name_H-M   'P 1'
_cell_length_a   21.92170000
_cell_length_b   9.62812500
_cell_length_c   14.76235318
_cell_angle_alpha   49.51438423
_cell_angle_beta   90.00000000
_cell_angle_gamma   90.00000000
_symmetry_Int_Tables_number   1
_chemical_formula_structural   RbAuC4S4(OF)12
_chemical_formula_sum   'Rb4 Au4 C16 S16 O48 F48'
_cell_volume   2369.79159005
_cell_formula_units_Z   4
loop_
 _symmetry_equiv_pos_site_id
 _symmetry_equiv_pos_as_xyz
  1  'x, y, z'
loop_
 _atom_site_type_symbol
 _atom_site_label
 _atom_site_symmetry_multiplicity
 _atom_site_fract_x
 _atom_site_fract_y
 _atom_site_fract_z
 _atom_site_occupancy
  Rb  Rb0  1  0.75135600  0.09741300  0.88844500  1
  Rb  Rb1  1  0.74864400  0.09741300  0.38844500  1
  Rb  Rb2  1  0.24864400  0.90258700  0.11155500  1
  Rb  Rb3  1  0.25135600  0.90258700  0.61155500  1
  Au  Au0  1  0.75013000  0.59858700  0.38714500  1
  Au  Au1  1  0.74987000  0.59858700  0.88714500  1
  Au  Au2  1  0.24987000  0.40141300  0.61285500  1
  Au  Au3  1  0.25013000  0.40141300  0.11285500  1
  C  C0  1  0.58326900  0.58070000  0.24870000  1
  C  C1  1  0.91673100  0.58070000  0.74870000  1
  C  C2  1  0.41673100  0.41930000  0.75130000  1
  C  C3  1  0.08326900  0.41930000  0.25130000  1
  C  C4  1  0.91606600  0.89178100  0.25310600  1
  C  C5  1  0.58393400  0.89178100  0.75310600  1
  C  C6  1  0.08393400  0.10821900  0.74689400  1
  C  C7  1  0.41606600  0.10821900  0.24689400  1
  C  C8  1  0.91498300  0.29683500  0.52635200  1
  C  C9  1  0.58501700  0.29683500  0.02635200  1
  C  C10  1  0.08501700  0.70316500  0.47364800  1
  C  C11  1  0.41498300  0.70316500  0.97364800  1
  C  C12  1  0.58524500  0.61045100  0.53432800  1
  C  C13  1  0.91475500  0.61045100  0.03432800  1
  C  C14  1  0.41475500  0.38954900  0.46567200  1
  C  C15  1  0.08524500  0.38954900  0.96567200  1
  S  S0  1  0.66737000  0.54730200  0.57763500  1
  S  S1  1  0.83263000  0.54730200  0.07763500  1
  S  S2  1  0.33263000  0.45269800  0.42236500  1
  S  S3  1  0.16737000  0.45269800  0.92236500  1
  S  S4  1  0.83527000  0.92367800  0.20033500  1
  S  S5  1  0.66473000  0.92367800  0.70033500  1
  S  S6  1  0.16473000  0.07632200  0.79966500  1
  S  S7  1  0.33527000  0.07632200  0.29966500  1
  S  S8  1  0.66468200  0.64935000  0.19929200  1
  S  S9  1  0.83531800  0.64935000  0.69929200  1
  S  S10  1  0.33531800  0.35065000  0.80070800  1
  S  S11  1  0.16468200  0.35065000  0.30070800  1
  S  S12  1  0.83376300  0.27043800  0.57526100  1
  S  S13  1  0.66623700  0.27043800  0.07526100  1
  S  S14  1  0.16623700  0.72956200  0.42473900  1
  S  S15  1  0.33376300  0.72956200  0.92473900  1
  O  O0  1  0.81583800  0.72713300  0.25678200  1
  O  O1  1  0.68416200  0.72713300  0.75678200  1
  O  O2  1  0.18416200  0.27286700  0.74321800  1
  O  O3  1  0.31583800  0.27286700  0.24321800  1
  O  O4  1  0.81592200  0.46860000  0.51729300  1
  O  O5  1  0.68407800  0.46860000  0.01729300  1
  O  O6  1  0.18407800  0.53140000  0.48270700  1
  O  O7  1  0.31592200  0.53140000  0.98270700  1
  O  O8  1  0.68405200  0.73072400  0.25752400  1
  O  O9  1  0.81594800  0.73072400  0.75752400  1
  O  O10  1  0.31594800  0.26927600  0.74247600  1
  O  O11  1  0.18405200  0.26927600  0.24247600  1
  O  O12  1  0.68473800  0.46678500  0.51805400  1
  O  O13  1  0.81526200  0.46678500  0.01805400  1
  O  O14  1  0.31526200  0.53321500  0.48194600  1
  O  O15  1  0.18473800  0.53321500  0.98194600  1
  O  O16  1  0.83979700  0.03261800  0.07328200  1
  O  O17  1  0.66020300  0.03261800  0.57328200  1
  O  O18  1  0.16020300  0.96738200  0.92671800  1
  O  O19  1  0.33979700  0.96738200  0.42671800  1
  O  O20  1  0.66146100  0.79476900  0.07216500  1
  O  O21  1  0.83853900  0.79476900  0.57216500  1
  O  O22  1  0.33853900  0.20523100  0.92783500  1
  O  O23  1  0.16146100  0.20523100  0.42783500  1
  O  O24  1  0.83714000  0.16185900  0.70249300  1
  O  O25  1  0.66286000  0.16185900  0.20249300  1
  O  O26  1  0.16286000  0.83814100  0.29750700  1
  O  O27  1  0.33714000  0.83814100  0.79750700  1
  O  O28  1  0.66616800  0.40243000  0.70496500  1
  O  O29  1  0.83383200  0.40243000  0.20496500  1
  O  O30  1  0.33383200  0.59757000  0.29503500  1
  O  O31  1  0.16616800  0.59757000  0.79503500  1
  O  O32  1  0.80068900  0.20665400  0.52412900  1
  O  O33  1  0.69931100  0.20665400  0.02412900  1
  O  O34  1  0.19931100  0.79334600  0.47587100  1
  O  O35  1  0.30068900  0.79334600  0.97587100  1
  O  O36  1  0.69910200  0.71564600  0.52457300  1
  O  O37  1  0.80089800  0.71564600  0.02457300  1
  O  O38  1  0.30089800  0.28435400  0.47542700  1
  O  O39  1  0.19910200  0.28435400  0.97542700  1
  O  O40  1  0.80227800  0.98907800  0.25063000  1
  O  O41  1  0.69772200  0.98907800  0.75063000  1
  O  O42  1  0.19772200  0.01092200  0.74937000  1
  O  O43  1  0.30227800  0.01092200  0.24937000  1
  O  O44  1  0.69666900  0.48220400  0.25014900  1
  O  O45  1  0.80333100  0.48220400  0.75014900  1
  O  O46  1  0.30333100  0.51779600  0.74985100  1
  O  O47  1  0.19666900  0.51779600  0.24985100  1
  F  F0  1  0.58079500  0.45126900  0.36837400  1
  F  F1  1  0.91920500  0.45126900  0.86837400  1
  F  F2  1  0.41920500  0.54873100  0.63162600  1
  F  F3  1  0.08079500  0.54873100  0.13162600  1
  F  F4  1  0.91798000  0.40686800  0.40672200  1
  F  F5  1  0.58202000  0.40686800  0.90672200  1
  F  F6  1  0.08202000  0.59313200  0.59327800  1
  F  F7  1  0.41798000  0.59313200  0.09327800  1
  F  F8  1  0.91704300  0.78256400  0.37284400  1
  F  F9  1  0.58295700  0.78256400  0.87284400  1
  F  F10  1  0.08295700  0.21743600  0.62715600  1
  F  F11  1  0.41704300  0.21743600  0.12715600  1
  F  F12  1  0.57983700  0.73690800  0.41498500  1
  F  F13  1  0.92016300  0.73690800  0.91498500  1
  F  F14  1  0.42016300  0.26309200  0.58501500  1
  F  F15  1  0.07983700  0.26309200  0.08501500  1
  F  F16  1  0.56086800  0.51138700  0.20009700  1
  F  F17  1  0.93913200  0.51138700  0.70009700  1
  F  F18  1  0.43913200  0.48861300  0.79990300  1
  F  F19  1  0.06086800  0.48861300  0.29990300  1
  F  F20  1  0.93877800  0.05702700  0.20568300  1
  F  F21  1  0.56122200  0.05702700  0.70568300  1
  F  F22  1  0.06122200  0.94297300  0.79431700  1
  F  F23  1  0.43877800  0.94297300  0.29431700  1
  F  F24  1  0.93663400  0.13020200  0.57457900  1
  F  F25  1  0.56336600  0.13020200  0.07457900  1
  F  F26  1  0.06336600  0.86979800  0.42542100  1
  F  F27  1  0.43663400  0.86979800  0.92542100  1
  F  F28  1  0.56397600  0.68037200  0.58324800  1
  F  F29  1  0.93602400  0.68037200  0.08324800  1
  F  F30  1  0.43602400  0.31962800  0.41675200  1
  F  F31  1  0.06397600  0.31962800  0.91675200  1
  F  F32  1  0.95041300  0.81835100  0.21799300  1
  F  F33  1  0.54958700  0.81835100  0.71799300  1
  F  F34  1  0.04958700  0.18164900  0.78200700  1
  F  F35  1  0.45041300  0.18164900  0.28200700  1
  F  F36  1  0.54959700  0.72594400  0.21210500  1
  F  F37  1  0.95040300  0.72594400  0.71210500  1
  F  F38  1  0.45040300  0.27405600  0.78789500  1
  F  F39  1  0.04959700  0.27405600  0.28789500  1
  F  F40  1  0.55267200  0.46092700  0.57583300  1
  F  F41  1  0.94732800  0.46092700  0.07583300  1
  F  F42  1  0.44732800  0.53907300  0.42416700  1
  F  F43  1  0.05267200  0.53907300  0.92416700  1
  F  F44  1  0.94893300  0.36689500  0.56425500  1
  F  F45  1  0.55106700  0.36689500  0.06425500  1
  F  F46  1  0.05106700  0.63310500  0.43574500  1
  F  F47  1  0.44893300  0.63310500  0.93574500  1
loop_
_geom_bond_atom_site_label_1
_geom_bond_atom_site_label_2
_geom_bond_distance
_geom_bond_site_symmetry_2
Au0 O4 2.053166 1_555
Au0 O12 2.053169 1_555
Au0 O8 2.053590 1_555
Au0 O0 2.053622 1_555
Au1 O5 2.053166 1_556
Au1 O13 2.053169 1_556
Au1 O9 2.053590 1_555
Au1 O1 2.053622 1_555
Au2 O6 2.053166 1_555
Au2 O14 2.053169 1_555
Au2 O10 2.053590 1_555
Au2 O2 2.053622 1_555
Au3 O7 2.053166 1_554
Au3 O15 2.053169 1_554
Au3 O11 2.053590 1_555
Au3 O3 2.053622 1_555
C0 F36 1.345852 1_555
C0 F0 1.348419 1_555
C0 F16 1.350210 1_555
C1 F37 1.345852 1_555
C1 F1 1.348419 1_555
C1 F17 1.350210 1_555
C2 F38 1.345852 1_555
C2 F2 1.348419 1_555
C2 F18 1.350210 1_555
C3 F39 1.345852 1_555
C3 F3 1.348419 1_555
C3 F19 1.350210 1_555
C4 F32 1.345853 1_555
C4 F8 1.347992 1_555
C4 F20 1.350180 1_565
C5 F33 1.345853 1_555
C5 F9 1.347992 1_555
C5 F21 1.350180 1_565
C6 F34 1.345853 1_555
C6 F10 1.347992 1_555
C6 F22 1.350180 1_545
C7 F35 1.345853 1_555
C7 F11 1.347992 1_555
C7 F23 1.350180 1_545
C8 F44 1.346141 1_555
C8 F4 1.347610 1_555
C8 F24 1.350160 1_555
C9 F45 1.346141 1_555
C9 F5 1.347610 1_554
C9 F25 1.350160 1_555
C10 F46 1.346141 1_555
C10 F6 1.347610 1_555
C10 F26 1.350160 1_555
C11 F47 1.346141 1_555
C11 F7 1.347610 1_556
C11 F27 1.350160 1_555
C12 F40 1.346271 1_555
C12 F12 1.347209 1_555
C12 F28 1.350348 1_555
C13 F41 1.346271 1_555
C13 F13 1.347209 1_554
C13 F29 1.350348 1_555
C14 F42 1.346271 1_555
C14 F14 1.347209 1_555
C14 F30 1.350348 1_555
C15 F43 1.346271 1_555
C15 F15 1.347209 1_556
C15 F31 1.350348 1_555
O0 S4 1.552176 1_555
O1 S5 1.552176 1_555
O2 S6 1.552176 1_555
O3 S7 1.552176 1_555
O4 S12 1.550926 1_555
O5 S13 1.550926 1_555
O6 S14 1.550926 1_555
O7 S15 1.550926 1_555
O8 S8 1.551674 1_555
O9 S9 1.551674 1_555
O10 S10 1.551674 1_555
O11 S11 1.551674 1_555
O12 S0 1.550792 1_555
O13 S1 1.550792 1_555
O14 S2 1.550792 1_555
O15 S3 1.550792 1_555
O16 S4 1.439907 1_545
O16 Rb0 3.063176 1_554
O17 S5 1.439907 1_545
O17 Rb1 3.063176 1_555
O18 S6 1.439907 1_565
O18 Rb2 3.063176 1_556
O19 S7 1.439907 1_565
O19 Rb3 3.063176 1_555
O20 S8 1.440599 1_555
O20 Rb0 3.077001 1_564
O21 S9 1.440599 1_555
O21 Rb1 3.077001 1_565
O22 S10 1.440599 1_555
O22 Rb2 3.077001 1_546
O23 S11 1.440599 1_555
O23 Rb3 3.077001 1_545
O24 S12 1.441001 1_555
O24 Rb0 3.040584 1_555
O25 S13 1.441001 1_555
O25 Rb1 3.040584 1_555
O26 S14 1.441001 1_555
O26 Rb2 3.040584 1_555
O27 S15 1.441001 1_555
O27 Rb3 3.040584 1_555
O28 S0 1.440479 1_555
O28 Rb0 3.019836 1_555
O29 S1 1.440479 1_555
O29 Rb1 3.019836 1_555
O30 S2 1.440479 1_555
O30 Rb2 3.019836 1_555
O31 S3 1.440479 1_555
O31 Rb3 3.019836 1_555
O32 S12 1.440321 1_555
O32 Rb1 3.025830 1_555
O33 S13 1.440321 1_555
O33 Rb0 3.025830 1_554
O34 S14 1.440321 1_555
O34 Rb3 3.025830 1_555
O35 S15 1.440321 1_555
O35 Rb2 3.025830 1_556
O36 S0 1.440816 1_555
O36 Rb1 3.022757 1_565
O37 S1 1.440816 1_555
O37 Rb0 3.022757 1_564
O38 S2 1.440816 1_555
O38 Rb3 3.022757 1_545
O39 S3 1.440816 1_555
O39 Rb2 3.022757 1_546
O40 S4 1.441499 1_555
O40 Rb1 3.060229 1_565
O41 S5 1.441499 1_555
O41 Rb0 3.060229 1_565
O42 S6 1.441499 1_555
O42 Rb3 3.060229 1_545
O43 S7 1.441499 1_555
O43 Rb2 3.060229 1_545
O44 S8 1.440944 1_555
O44 Rb1 3.061104 1_555
O45 S9 1.440944 1_555
O45 Rb0 3.061104 1_555
O46 S10 1.440944 1_555
O46 Rb3 3.061104 1_555
O47 S11 1.440944 1_555
O47 Rb2 3.061104 1_555
