# generated using pymatgen
data_Ba3CuSb2O9
_symmetry_space_group_name_H-M   'P 1'
_cell_length_a   5.88675802
_cell_length_b   5.88675802
_cell_length_c   14.57603800
_cell_angle_alpha   90.00000000
_cell_angle_beta   90.00000000
_cell_angle_gamma   120.00000025
_symmetry_Int_Tables_number   1
_chemical_formula_structural   Ba3CuSb2O9
_chemical_formula_sum   'Ba6 Cu2 Sb4 O18'
_cell_volume   437.44402720
_cell_formula_units_Z   2
loop_
 _symmetry_equiv_pos_site_id
 _symmetry_equiv_pos_as_xyz
  1  'x, y, z'
loop_
 _atom_site_type_symbol
 _atom_site_label
 _atom_site_symmetry_multiplicity
 _atom_site_fract_x
 _atom_site_fract_y
 _atom_site_fract_z
 _atom_site_occupancy
  Ba  Ba0  1  0.66666700  0.33333300  0.90880500  1
  Ba  Ba1  1  0.33333300  0.66666700  0.40880500  1
  Ba  Ba2  1  0.66666700  0.33333300  0.60395300  1
  Ba  Ba3  1  0.33333300  0.66666700  0.10395300  1
  Ba  Ba4  1  0.00000000  0.00000000  0.74125200  1
  Ba  Ba5  1  0.00000000  0.00000000  0.24125200  1
  Cu  Cu0  1  0.33333300  0.66666700  0.64549400  1
  Cu  Cu1  1  0.66666700  0.33333300  0.14549400  1
  Sb  Sb0  1  0.00000000  0.00000000  0.99827200  1
  Sb  Sb1  1  0.00000000  0.00000000  0.49827200  1
  Sb  Sb2  1  0.33333300  0.66666700  0.83344800  1
  Sb  Sb3  1  0.66666700  0.33333300  0.33344800  1
  O  O0  1  0.83435300  0.16564700  0.41285600  1
  O  O1  1  0.66870600  0.83435300  0.91285600  1
  O  O2  1  0.16564700  0.33129400  0.91285600  1
  O  O3  1  0.83435300  0.66870600  0.41285600  1
  O  O4  1  0.33129400  0.16564700  0.41285600  1
  O  O5  1  0.16564700  0.83435300  0.91285600  1
  O  O6  1  0.51039600  0.48960400  0.25165600  1
  O  O7  1  0.02079200  0.51039600  0.75165600  1
  O  O8  1  0.48960400  0.97920800  0.75165600  1
  O  O9  1  0.51039600  0.02079200  0.25165600  1
  O  O10  1  0.97920800  0.48960400  0.25165600  1
  O  O11  1  0.48960400  0.51039600  0.75165600  1
  O  O12  1  0.16155600  0.83844400  0.57418100  1
  O  O13  1  0.32311200  0.16155600  0.07418100  1
  O  O14  1  0.83844400  0.67688800  0.07418100  1
  O  O15  1  0.16155600  0.32311200  0.57418100  1
  O  O16  1  0.67688800  0.83844400  0.57418100  1
  O  O17  1  0.83844400  0.16155600  0.07418100  1
loop_
_geom_bond_atom_site_label_1
_geom_bond_atom_site_label_2
_geom_bond_distance
_geom_bond_site_symmetry_2
Ba0 O7 2.916541 1_655
Ba0 O8 2.916541 1_545
Ba0 O11 2.916544 1_555
Ba0 O2 2.943987 1_655
Ba0 O1 2.943987 1_545
Ba0 O5 2.943990 1_655
Ba0 O5 2.943990 1_545
Ba0 O2 2.943993 1_555
Ba0 O1 2.943993 1_555
Ba0 O17 2.979643 1_556
Ba0 O14 2.979646 1_556
Ba0 O13 2.979646 1_556
Ba1 O9 2.916541 1_565
Ba1 O10 2.916541 1_455
Ba1 O6 2.916544 1_555
Ba1 O4 2.943987 1_565
Ba1 O3 2.943987 1_455
Ba1 O0 2.943990 1_565
Ba1 O0 2.943990 1_455
Ba1 O3 2.943993 1_555
Ba1 O4 2.943993 1_555
Ba1 O12 2.979643 1_555
Ba1 O15 2.979646 1_555
Ba1 O16 2.979646 1_555
Ba2 O7 2.809698 1_655
Ba2 O8 2.809698 1_545
Ba2 O11 2.809701 1_555
Ba2 O15 2.975651 1_655
Ba2 O16 2.975651 1_545
Ba2 O12 2.975654 1_655
Ba2 O12 2.975654 1_545
Ba2 O16 2.975657 1_555
Ba2 O15 2.975657 1_555
Ba2 O0 3.268320 1_555
Ba2 O4 3.268323 1_555
Ba2 O3 3.268323 1_555
Ba3 O9 2.809698 1_565
Ba3 O10 2.809698 1_455
Ba3 O6 2.809701 1_555
Ba3 O13 2.975651 1_565
Ba3 O14 2.975651 1_455
Ba3 O17 2.975654 1_565
Ba3 O17 2.975654 1_455
Ba3 O14 2.975657 1_555
Ba3 O13 2.975657 1_555
Ba3 O5 3.268320 1_554
Ba3 O1 3.268323 1_554
Ba3 O2 3.268323 1_554
Ba4 O16 2.940034 1_445
Ba4 O15 2.940034 1_555
Ba4 O12 2.940034 1_545
Ba4 O11 2.949189 1_445
Ba4 O11 2.949189 1_555
Ba4 O7 2.949189 1_555
Ba4 O8 2.949189 1_445
Ba4 O7 2.949189 1_545
Ba4 O8 2.949189 1_545
Ba4 O1 3.018134 1_445
Ba4 O2 3.018134 1_555
Ba4 O5 3.018134 1_545
Ba5 O13 2.940034 1_555
Ba5 O14 2.940034 1_445
Ba5 O17 2.940034 1_455
Ba5 O6 2.949189 1_555
Ba5 O6 2.949189 1_445
Ba5 O10 2.949189 1_445
Ba5 O9 2.949189 1_555
Ba5 O10 2.949189 1_455
Ba5 O9 2.949189 1_455
Ba5 O3 3.018134 1_445
Ba5 O4 3.018134 1_555
Ba5 O0 3.018134 1_455
Cu0 O12 2.036692 1_555
Cu0 O15 2.036696 1_555
Cu0 O16 2.036696 1_555
Cu0 O7 2.221105 1_555
Cu0 O8 2.221105 1_555
Cu0 O11 2.221109 1_555
Cu1 O17 2.036692 1_555
Cu1 O13 2.036696 1_555
Cu1 O14 2.036696 1_555
Cu1 O10 2.221105 1_555
Cu1 O9 2.221105 1_555
Cu1 O6 2.221109 1_555
O0 Sb3 2.064693 1_555
O0 Sb1 2.098259 1_655
O1 Sb2 2.064698 1_555
O1 Sb0 2.098259 1_665
O2 Sb2 2.064698 1_555
O2 Sb0 2.098259 1_555
O3 Sb3 2.064698 1_555
O3 Sb1 2.098259 1_665
O4 Sb3 2.064698 1_555
O4 Sb1 2.098259 1_555
O5 Sb2 2.064693 1_555
O5 Sb0 2.098259 1_565
O6 Sb3 1.990015 1_555
O7 Sb2 1.990011 1_555
O8 Sb2 1.990011 1_555
O9 Sb3 1.990011 1_555
O10 Sb3 1.990011 1_555
O11 Sb2 1.990015 1_555
O12 Sb1 1.984357 1_565
O13 Sb0 1.984357 1_554
O14 Sb0 1.984357 1_664
O15 Sb1 1.984357 1_555
O16 Sb1 1.984357 1_665
O17 Sb0 1.984357 1_654
