# generated using pymatgen
data_BaGe3O8
_symmetry_space_group_name_H-M   'P 1'
_cell_length_a   7.06854370
_cell_length_b   7.06854370
_cell_length_c   9.46346755
_cell_angle_alpha   76.02959872
_cell_angle_beta   76.02959872
_cell_angle_gamma   41.26936872
_symmetry_Int_Tables_number   1
_chemical_formula_structural   BaGe3O8
_chemical_formula_sum   'Ba2 Ge6 O16'
_cell_volume   301.32601580
_cell_formula_units_Z   2
loop_
 _symmetry_equiv_pos_site_id
 _symmetry_equiv_pos_as_xyz
  1  'x, y, z'
loop_
 _atom_site_type_symbol
 _atom_site_label
 _atom_site_symmetry_multiplicity
 _atom_site_fract_x
 _atom_site_fract_y
 _atom_site_fract_z
 _atom_site_occupancy
  Ba  Ba0  1  0.14403000  0.85597000  0.25000000  1
  Ba  Ba1  1  0.85597000  0.14403000  0.75000000  1
  Ge  Ge0  1  0.50000000  0.00000000  0.50000000  1
  Ge  Ge1  1  0.00000000  0.50000000  0.00000000  1
  Ge  Ge2  1  0.04077800  0.57199400  0.62178900  1
  Ge  Ge3  1  0.57199400  0.04077800  0.12178900  1
  Ge  Ge4  1  0.95922200  0.42800600  0.37821100  1
  Ge  Ge5  1  0.42800600  0.95922200  0.87821100  1
  O  O0  1  0.70422400  0.83462300  0.31064700  1
  O  O1  1  0.83462300  0.70422400  0.81064700  1
  O  O2  1  0.79618200  0.94299800  0.52738700  1
  O  O3  1  0.94299800  0.79618200  0.02738700  1
  O  O4  1  0.76158300  0.59896800  0.57297900  1
  O  O5  1  0.59896800  0.76158300  0.07297900  1
  O  O6  1  0.23841700  0.40103200  0.42702100  1
  O  O7  1  0.40103200  0.23841700  0.92702100  1
  O  O8  1  0.29577600  0.16537700  0.68935300  1
  O  O9  1  0.16537700  0.29577600  0.18935300  1
  O  O10  1  0.20381800  0.05700200  0.47261300  1
  O  O11  1  0.05700200  0.20381800  0.97261300  1
  O  O12  1  0.70759500  0.42801100  0.35311400  1
  O  O13  1  0.42801100  0.70759500  0.85311400  1
  O  O14  1  0.29240500  0.57198900  0.64688600  1
  O  O15  1  0.57198900  0.29240500  0.14688600  1
loop_
_geom_bond_atom_site_label_1
_geom_bond_atom_site_label_2
_geom_bond_distance
_geom_bond_site_symmetry_2
Ba0 O5 2.882005 1_555
Ba0 O6 2.882005 1_555
Ba0 O12 2.882522 1_555
Ba0 O15 2.882522 1_555
Ba0 O12 2.918786 1_465
Ba0 O15 2.918786 1_465
Ba0 O2 2.950324 1_455
Ba0 O11 2.950324 1_564
Ba0 O10 3.068235 1_565
Ba0 O3 3.068235 1_455
Ba0 O9 3.133459 1_565
Ba0 O0 3.133459 1_455
Ba1 O4 2.882005 1_555
Ba1 O7 2.882005 1_555
Ba1 O13 2.882522 1_555
Ba1 O14 2.882522 1_555
Ba1 O13 2.918786 1_645
Ba1 O14 2.918786 1_645
Ba1 O3 2.950324 1_546
Ba1 O10 2.950324 1_655
Ba1 O11 3.068235 1_655
Ba1 O2 3.068235 1_545
Ba1 O8 3.133459 1_655
Ba1 O1 3.133459 1_545
Ge0 O2 1.885762 1_545
Ge0 O10 1.885762 1_555
Ge0 O6 1.929674 1_555
Ge0 O4 1.929674 1_545
Ge0 O0 1.971584 1_545
Ge0 O8 1.971584 1_555
Ge1 O3 1.885762 1_455
Ge1 O11 1.885762 1_554
Ge1 O7 1.929674 1_554
Ge1 O5 1.929674 1_455
Ge1 O1 1.971584 1_454
Ge1 O9 1.971584 1_555
Ge2 O14 1.850358 1_555
Ge2 O2 1.861031 1_455
Ge2 O1 1.921716 1_455
Ge2 O8 1.949386 1_555
Ge2 O4 1.994095 1_455
Ge2 O6 2.025762 1_555
Ge3 O15 1.850358 1_555
Ge3 O3 1.861031 1_545
Ge3 O0 1.921716 1_545
Ge3 O9 1.949386 1_555
Ge3 O5 1.994095 1_545
Ge3 O7 2.025762 1_554
Ge4 O12 1.850358 1_555
Ge4 O10 1.861031 1_655
Ge4 O9 1.921716 1_655
Ge4 O0 1.949386 1_555
Ge4 O6 1.994095 1_655
Ge4 O4 2.025762 1_555
Ge5 O13 1.850358 1_555
Ge5 O11 1.861031 1_565
Ge5 O8 1.921716 1_565
Ge5 O1 1.949386 1_555
Ge5 O7 1.994095 1_565
Ge5 O5 2.025762 1_556
