# generated using pymatgen
data_CsMg30BO31
_symmetry_space_group_name_H-M   'P 1'
_cell_length_a   8.34126400
_cell_length_b   8.77589000
_cell_length_c   8.88971500
_cell_angle_alpha   90.00000000
_cell_angle_beta   90.00000000
_cell_angle_gamma   90.00000000
_symmetry_Int_Tables_number   1
_chemical_formula_structural   CsMg30BO31
_chemical_formula_sum   'Cs1 Mg30 B1 O31'
_cell_volume   650.74505366
_cell_formula_units_Z   1
loop_
 _symmetry_equiv_pos_site_id
 _symmetry_equiv_pos_as_xyz
  1  'x, y, z'
loop_
 _atom_site_type_symbol
 _atom_site_label
 _atom_site_symmetry_multiplicity
 _atom_site_fract_x
 _atom_site_fract_y
 _atom_site_fract_z
 _atom_site_occupancy
  Cs  Cs0  1  0.00000000  0.01003600  0.00000000  1
  Mg  Mg0  1  0.00000000  0.00329400  0.50000000  1
  Mg  Mg1  1  0.50000000  0.00791500  0.50000000  1
  Mg  Mg2  1  0.00000000  0.50761500  0.00000000  1
  Mg  Mg3  1  0.50000000  0.50241900  0.00000000  1
  Mg  Mg4  1  0.00000000  0.50046900  0.50000000  1
  Mg  Mg5  1  0.50000000  0.49674500  0.50000000  1
  Mg  Mg6  1  0.25697300  0.99885100  0.26695400  1
  Mg  Mg7  1  0.74302700  0.99885100  0.26695400  1
  Mg  Mg8  1  0.25697300  0.99885100  0.73304600  1
  Mg  Mg9  1  0.74302700  0.99885100  0.73304600  1
  Mg  Mg10  1  0.25179500  0.50386100  0.25278700  1
  Mg  Mg11  1  0.74820500  0.50386100  0.25278700  1
  Mg  Mg12  1  0.25179500  0.50386100  0.74721300  1
  Mg  Mg13  1  0.74820500  0.50386100  0.74721300  1
  Mg  Mg14  1  0.25091800  0.74258800  0.00000000  1
  Mg  Mg15  1  0.74908200  0.74258800  0.00000000  1
  Mg  Mg16  1  0.24883300  0.74854200  0.50000000  1
  Mg  Mg17  1  0.75116700  0.74854200  0.50000000  1
  Mg  Mg18  1  0.25667800  0.27364200  0.00000000  1
  Mg  Mg19  1  0.74332200  0.27364200  0.00000000  1
  Mg  Mg20  1  0.25198100  0.25287400  0.50000000  1
  Mg  Mg21  1  0.74801900  0.25287400  0.50000000  1
  Mg  Mg22  1  0.00000000  0.74778000  0.25860100  1
  Mg  Mg23  1  0.50000000  0.75412600  0.26542000  1
  Mg  Mg24  1  0.00000000  0.74778000  0.74139900  1
  Mg  Mg25  1  0.50000000  0.75412600  0.73458000  1
  Mg  Mg26  1  0.00000000  0.25870900  0.25544900  1
  Mg  Mg27  1  0.50000000  0.24152100  0.23866800  1
  Mg  Mg28  1  0.00000000  0.25870900  0.74455100  1
  Mg  Mg29  1  0.50000000  0.24152100  0.76133200  1
  B  B0  1  0.50000000  0.91087100  0.00000000  1
  O  O0  1  0.00000000  0.72435700  0.00000000  1
  O  O1  1  0.00000000  0.74224800  0.50000000  1
  O  O2  1  0.50000000  0.74362900  0.50000000  1
  O  O3  1  0.00000000  0.29207500  0.00000000  1
  O  O4  1  0.50000000  0.27545000  0.00000000  1
  O  O5  1  0.00000000  0.25814800  0.50000000  1
  O  O6  1  0.50000000  0.25625300  0.50000000  1
  O  O7  1  0.24990500  0.75192800  0.25116900  1
  O  O8  1  0.75009500  0.75192800  0.25116900  1
  O  O9  1  0.24990500  0.75192800  0.74883100  1
  O  O10  1  0.75009500  0.75192800  0.74883100  1
  O  O11  1  0.24897500  0.24717300  0.24276400  1
  O  O12  1  0.75102500  0.24717300  0.24276400  1
  O  O13  1  0.24897500  0.24717300  0.75723600  1
  O  O14  1  0.75102500  0.24717300  0.75723600  1
  O  O15  1  0.34409500  0.96897300  0.00000000  1
  O  O16  1  0.65590500  0.96897300  0.00000000  1
  O  O17  1  0.25134200  0.00244500  0.50000000  1
  O  O18  1  0.74865800  0.00244500  0.50000000  1
  O  O19  1  0.25652100  0.51052800  0.00000000  1
  O  O20  1  0.74347900  0.51052800  0.00000000  1
  O  O21  1  0.25129700  0.49912600  0.50000000  1
  O  O22  1  0.74870300  0.49912600  0.50000000  1
  O  O23  1  0.00000000  0.99708500  0.28302900  1
  O  O24  1  0.50000000  0.99940600  0.27695200  1
  O  O25  1  0.00000000  0.99708500  0.71697100  1
  O  O26  1  0.50000000  0.99940600  0.72304800  1
  O  O27  1  0.00000000  0.50231000  0.25757600  1
  O  O28  1  0.50000000  0.50595500  0.25118500  1
  O  O29  1  0.00000000  0.50231000  0.74242400  1
  O  O30  1  0.50000000  0.50595500  0.74881500  1
loop_
_geom_bond_atom_site_label_1
_geom_bond_atom_site_label_2
_geom_bond_distance
_geom_bond_site_symmetry_2
Cs0 O3 2.475143 1_555
Cs0 O0 2.507087 1_545
Cs0 O23 2.518613 1_545
Cs0 O25 2.518613 1_544
Cs0 O15 2.892721 1_545
Cs0 O16 2.892721 1_445
Mg0 O25 1.929580 1_545
Mg0 O23 1.929580 1_545
Mg0 O17 2.096523 1_555
Mg0 O18 2.096523 1_455
Mg0 O5 2.236571 1_555
Mg0 O1 2.290911 1_545
Mg1 O26 1.984239 1_545
Mg1 O24 1.984239 1_545
Mg1 O18 2.074677 1_555
Mg1 O17 2.074677 1_555
Mg1 O6 2.179387 1_555
Mg1 O2 2.319345 1_545
Mg2 O3 1.891555 1_555
Mg2 O0 1.902104 1_555
Mg2 O19 2.139862 1_555
Mg2 O20 2.139862 1_455
Mg2 O27 2.290250 1_555
Mg2 O29 2.290250 1_554
Mg3 O4 1.991855 1_555
Mg3 O19 2.032169 1_555
Mg3 O20 2.032169 1_555
Mg3 O28 2.233179 1_555
Mg3 O30 2.233179 1_554
Mg4 O21 2.096168 1_555
Mg4 O22 2.096168 1_455
Mg4 O1 2.121826 1_555
Mg4 O5 2.126582 1_555
Mg4 O29 2.155141 1_555
Mg4 O27 2.155141 1_555
Mg5 O22 2.074603 1_555
Mg5 O21 2.074603 1_555
Mg5 O6 2.110531 1_555
Mg5 O2 2.166627 1_555
Mg5 O28 2.213371 1_555
Mg5 O30 2.213371 1_555
Mg6 O24 2.029106 1_555
Mg6 O17 2.072485 1_565
Mg6 O23 2.148294 1_555
Mg6 O7 2.172308 1_555
Mg6 O11 2.190847 1_565
Mg6 O15 2.495731 1_555
Mg7 O24 2.029106 1_555
Mg7 O18 2.072485 1_565
Mg7 O23 2.148294 1_655
Mg7 O8 2.172308 1_555
Mg7 O12 2.190847 1_565
Mg7 O16 2.495731 1_555
Mg8 O26 2.029106 1_555
Mg8 O17 2.072485 1_565
Mg8 O25 2.148294 1_555
Mg8 O9 2.172308 1_555
Mg8 O13 2.190847 1_565
Mg8 O15 2.495731 1_556
Mg9 O26 2.029106 1_555
Mg9 O18 2.072485 1_565
Mg9 O25 2.148294 1_655
Mg9 O10 2.172308 1_555
Mg9 O14 2.190847 1_565
Mg9 O16 2.495731 1_556
Mg10 O28 2.070474 1_555
Mg10 O27 2.100764 1_555
Mg10 O7 2.177113 1_555
Mg10 O21 2.198050 1_555
Mg10 O19 2.248312 1_555
Mg10 O11 2.254550 1_555
Mg11 O28 2.070474 1_555
Mg11 O27 2.100764 1_655
Mg11 O8 2.177113 1_555
Mg11 O22 2.198050 1_555
Mg11 O20 2.248312 1_555
Mg11 O12 2.254550 1_555
Mg12 O30 2.070474 1_555
Mg12 O29 2.100764 1_555
Mg12 O9 2.177113 1_555
Mg12 O21 2.198050 1_555
Mg12 O19 2.248312 1_556
Mg12 O13 2.254550 1_555
Mg13 O30 2.070474 1_555
Mg13 O29 2.100764 1_655
Mg13 O10 2.177113 1_555
Mg13 O22 2.198050 1_555
Mg13 O20 2.248312 1_556
Mg13 O14 2.254550 1_555
Mg14 O19 2.037069 1_555
Mg14 O0 2.099080 1_555
Mg14 O15 2.133344 1_555
Mg14 O7 2.234341 1_555
Mg14 O9 2.234341 1_554
Mg15 O20 2.037069 1_555
Mg15 O0 2.099080 1_655
Mg15 O16 2.133344 1_555
Mg15 O8 2.234341 1_555
Mg15 O10 2.234341 1_554
Mg16 O1 2.076317 1_555
Mg16 O2 2.095494 1_555
Mg16 O21 2.188944 1_555
Mg16 O9 2.212254 1_555
Mg16 O7 2.212254 1_555
Mg16 O17 2.228323 1_565
Mg17 O1 2.076317 1_655
Mg17 O2 2.095494 1_555
Mg17 O22 2.188944 1_555
Mg17 O10 2.212254 1_555
Mg17 O8 2.212254 1_555
Mg17 O18 2.228323 1_565
Mg18 O4 2.029675 1_555
Mg18 O19 2.078886 1_555
Mg18 O3 2.147121 1_555
Mg18 O11 2.171519 1_555
Mg18 O13 2.171519 1_554
Mg19 O4 2.029675 1_555
Mg19 O20 2.078886 1_555
Mg19 O3 2.147121 1_655
Mg19 O12 2.171519 1_555
Mg19 O14 2.171519 1_554
Mg20 O6 2.069004 1_555
Mg20 O5 2.102350 1_555
Mg20 O21 2.161088 1_555
Mg20 O17 2.197744 1_555
Mg20 O13 2.287439 1_555
Mg20 O11 2.287439 1_555
Mg21 O6 2.069004 1_555
Mg21 O5 2.102350 1_655
Mg21 O22 2.161088 1_555
Mg21 O18 2.197744 1_555
Mg21 O14 2.287439 1_555
Mg21 O12 2.287439 1_555
Mg22 O7 2.085888 1_555
Mg22 O8 2.085888 1_455
Mg22 O1 2.146517 1_555
Mg22 O27 2.154237 1_555
Mg22 O23 2.198624 1_555
Mg22 O0 2.308061 1_555
Mg23 O2 2.087383 1_555
Mg23 O8 2.090041 1_555
Mg23 O7 2.090041 1_555
Mg23 O24 2.154990 1_555
Mg23 O28 2.181595 1_555
Mg24 O9 2.085888 1_555
Mg24 O10 2.085888 1_455
Mg24 O1 2.146517 1_555
Mg24 O29 2.154237 1_555
Mg24 O25 2.198624 1_555
Mg24 O0 2.308061 1_556
Mg25 O2 2.087383 1_555
Mg25 O10 2.090041 1_555
Mg25 O9 2.090041 1_555
Mg25 O26 2.154990 1_555
Mg25 O30 2.181595 1_555
Mg26 O11 2.082288 1_555
Mg26 O12 2.082288 1_455
Mg26 O27 2.137899 1_555
Mg26 O5 2.173994 1_555
Mg26 O3 2.289670 1_555
Mg26 O23 2.309037 1_545
Mg27 O12 2.094770 1_555
Mg27 O11 2.094770 1_555
Mg27 O4 2.142482 1_555
Mg27 O24 2.151858 1_545
Mg27 O28 2.323310 1_555
Mg27 O6 2.326762 1_555
Mg28 O13 2.082288 1_555
Mg28 O14 2.082288 1_455
Mg28 O29 2.137899 1_555
Mg28 O5 2.173994 1_555
Mg28 O3 2.289670 1_556
Mg28 O25 2.309037 1_545
Mg29 O14 2.094770 1_555
Mg29 O13 2.094770 1_555
Mg29 O4 2.142482 1_556
Mg29 O26 2.151858 1_545
Mg29 O30 2.323310 1_555
Mg29 O6 2.326762 1_555
B0 O16 1.396836 1_555
B0 O15 1.396836 1_555
