# generated using pymatgen
data_MgFe10(O4F)4
_symmetry_space_group_name_H-M   'P 1'
_cell_length_a   4.90682685
_cell_length_b   12.90064233
_cell_length_c   5.58900904
_cell_angle_alpha   103.86711355
_cell_angle_beta   88.83342641
_cell_angle_gamma   90.62096263
_symmetry_Int_Tables_number   1
_chemical_formula_structural   MgFe10(O4F)4
_chemical_formula_sum   'Mg1 Fe10 O16 F4'
_cell_volume   343.40189738
_cell_formula_units_Z   1
loop_
 _symmetry_equiv_pos_site_id
 _symmetry_equiv_pos_as_xyz
  1  'x, y, z'
loop_
 _atom_site_type_symbol
 _atom_site_label
 _atom_site_symmetry_multiplicity
 _atom_site_fract_x
 _atom_site_fract_y
 _atom_site_fract_z
 _atom_site_occupancy
  Mg  Mg0  1  0.98826830  0.29747025  0.10229510  1
  Fe  Fe0  1  0.51423715  0.98792681  0.49076585  1
  Fe  Fe1  1  0.46880088  0.41466574  0.28651421  1
  Fe  Fe2  1  0.48476516  0.19753520  0.88910687  1
  Fe  Fe3  1  0.50516616  0.61026445  0.68232707  1
  Fe  Fe4  1  0.52806601  0.80052829  0.08464464  1
  Fe  Fe5  1  0.94681493  0.40547524  0.74268755  1
  Fe  Fe6  1  0.00492751  0.80334919  0.60389569  1
  Fe  Fe7  1  0.03591147  0.18058571  0.45233183  1
  Fe  Fe8  1  0.97168503  0.59378996  0.20564602  1
  Fe  Fe9  1  0.03295836  0.99545053  0.01568646  1
  O  O0  1  0.83309890  0.25380617  0.75365893  1
  O  O1  1  0.83609489  0.86389392  0.92427572  1
  O  O2  1  0.81443414  0.66744714  0.51526752  1
  O  O3  1  0.83954845  0.04741167  0.32982012  1
  O  O4  1  0.82293067  0.44705479  0.10639333  1
  O  O5  1  0.65613934  0.46884405  0.60584504  1
  O  O6  1  0.67449156  0.65867303  0.00757243  1
  O  O7  1  0.68684543  0.85165354  0.41232425  1
  O  O8  1  0.32813445  0.33917418  0.96538869  1
  O  O9  1  0.32670680  0.74348751  0.77835416  1
  O  O10  1  0.35017963  0.12751197  0.57362814  1
  O  O11  1  0.33796845  0.93172849  0.17264754  1
  O  O12  1  0.29632597  0.55201112  0.38188193  1
  O  O13  1  0.16528463  0.14350854  0.08628976  1
  O  O14  1  0.19652450  0.94135732  0.68783834  1
  O  O15  1  0.14603232  0.33349980  0.44457419  1
  F  F0  1  0.69158009  0.05561836  0.83598279  1
  F  F1  1  0.65344466  0.25313070  0.23890183  1
  F  F2  1  0.16592391  0.54300133  0.86881618  1
  F  F3  1  0.18282627  0.74014601  0.26654281  1
loop_
_geom_bond_atom_site_label_1
_geom_bond_atom_site_label_2
_geom_bond_distance
_geom_bond_site_symmetry_2
Mg0 O8 1.944728 1_654
Mg0 O15 2.025133 1_655
Mg0 O0 2.053966 1_554
Mg0 O4 2.096325 1_555
Mg0 O13 2.157898 1_655
Fe0 O7 1.909938 1_555
Fe0 O10 1.929159 1_565
Fe0 O11 1.966218 1_555
Fe0 O3 2.047416 1_565
Fe0 O14 2.057045 1_555
Fe1 O12 1.923850 1_555
Fe1 O8 1.960640 1_554
Fe1 O5 1.993427 1_555
Fe1 O4 2.078974 1_555
Fe1 O15 2.176143 1_555
Fe2 O10 1.905796 1_555
Fe2 O8 1.937760 1_555
Fe2 O0 2.050684 1_555
Fe2 O13 2.105219 1_556
Fe3 O9 1.892084 1_555
Fe3 O5 1.924207 1_555
Fe3 O12 1.970538 1_555
Fe3 O6 1.972512 1_556
Fe3 O2 1.991749 1_555
Fe4 O11 1.895590 1_555
Fe4 O6 1.920623 1_555
Fe4 O7 1.965709 1_555
Fe4 O9 1.974198 1_554
Fe4 O1 2.006322 1_554
Fe5 O5 1.912316 1_555
Fe5 O15 1.950790 1_655
Fe5 O0 2.043515 1_555
Fe5 O4 2.055098 1_556
Fe5 O8 2.534074 1_655
Fe6 O2 1.939047 1_455
Fe6 O1 1.945729 1_455
Fe6 O14 1.963429 1_555
Fe6 O7 2.092767 1_455
Fe6 O9 2.118992 1_555
Fe7 O10 1.895856 1_555
Fe7 O3 1.943178 1_455
Fe7 O0 1.976983 1_455
Fe7 O15 2.049951 1_555
Fe7 O13 2.074069 1_555
Fe8 O2 1.914725 1_555
Fe8 O4 1.976625 1_555
Fe8 O12 2.033512 1_655
Fe8 O6 2.142215 1_555
Fe9 O1 1.908776 1_454
Fe9 O3 1.953017 1_465
Fe9 O14 1.956516 1_554
Fe9 O13 1.961591 1_565
Fe9 O11 2.027577 1_555
F0 Fe2 2.058475 1_555
F0 Fe0 2.118193 1_545
F0 Fe9 2.210775 1_646
F1 Mg0 1.935771 1_555
F1 Fe2 2.098193 1_554
F1 Fe1 2.235986 1_555
F1 Fe7 2.546592 1_655
F2 Fe5 2.047083 1_455
F2 Fe8 2.056914 1_456
F2 Fe3 2.223020 1_555
F3 Fe6 2.047753 1_555
F3 Fe8 2.101905 1_455
F3 Fe4 2.188824 1_555
