# generated using pymatgen
data_Sc6Al16Os7
_symmetry_space_group_name_H-M   'P 1'
_cell_length_a   8.72361391
_cell_length_b   8.72361197
_cell_length_c   8.72361408
_cell_angle_alpha   59.99993744
_cell_angle_beta   59.99991854
_cell_angle_gamma   59.99994173
_symmetry_Int_Tables_number   1
_chemical_formula_structural   Sc6Al16Os7
_chemical_formula_sum   'Sc6 Al16 Os7'
_cell_volume   469.43293864
_cell_formula_units_Z   1
loop_
 _symmetry_equiv_pos_site_id
 _symmetry_equiv_pos_as_xyz
  1  'x, y, z'
loop_
 _atom_site_type_symbol
 _atom_site_label
 _atom_site_symmetry_multiplicity
 _atom_site_fract_x
 _atom_site_fract_y
 _atom_site_fract_z
 _atom_site_occupancy
  Sc  Sc0  1  0.71417886  0.71417837  0.28582146  1
  Sc  Sc1  1  0.28582081  0.71417941  0.28582074  1
  Sc  Sc2  1  0.71417865  0.28582205  0.28582142  1
  Sc  Sc3  1  0.28582084  0.28582164  0.71417902  1
  Sc  Sc4  1  0.71417870  0.28582111  0.71417876  1
  Sc  Sc5  1  0.28582150  0.71417825  0.71417832  1
  Al  Al0  1  0.87878745  0.87878788  0.36363737  1
  Al  Al1  1  0.87878776  0.36363777  0.87878741  1
  Al  Al2  1  0.36363754  0.87878772  0.87878724  1
  Al  Al3  1  0.87878778  0.87878717  0.87878777  1
  Al  Al4  1  0.12121248  0.12121247  0.63636217  1
  Al  Al5  1  0.12121239  0.63636265  0.12121194  1
  Al  Al6  1  0.63636271  0.12121215  0.12121249  1
  Al  Al7  1  0.12121235  0.12121276  0.12121265  1
  Al  Al8  1  0.66337198  0.66337201  0.00988357  1
  Al  Al9  1  0.66337211  0.00988383  0.66337160  1
  Al  Al10  1  0.00988435  0.66337199  0.66337140  1
  Al  Al11  1  0.66337249  0.66337238  0.66337278  1
  Al  Al12  1  0.33662835  0.33662805  0.99011617  1
  Al  Al13  1  0.33662864  0.99011590  0.33662789  1
  Al  Al14  1  0.99011617  0.33662825  0.33662804  1
  Al  Al15  1  0.33662741  0.33662776  0.33662779  1
  Os  Os0  1  0.00000010  0.00000029  -0.00000023  1
  Os  Os1  1  0.00000034  -0.00000010  0.49999987  1
  Os  Os2  1  0.50000005  -0.00000020  0.49999997  1
  Os  Os3  1  -0.00000016  0.50000032  0.49999978  1
  Os  Os4  1  0.49999991  0.50000002  0.00000012  1
  Os  Os5  1  0.00000037  0.50000003  -0.00000037  1
  Os  Os6  1  0.50000009  0.00000005  -0.00000016  1
loop_
_geom_bond_atom_site_label_1
_geom_bond_atom_site_label_2
_geom_bond_distance
_geom_bond_site_symmetry_2
Al0 Os0 2.590116 1_665
Al0 Os2 2.699104 1_565
Al0 Os3 2.699105 1_655
Al0 Os1 2.699107 1_665
Al0 Sc1 2.931985 1_655
Al0 Sc2 2.931991 1_565
Al0 Sc0 2.931994 1_555
Al1 Os0 2.590115 1_656
Al1 Os5 2.699105 1_656
Al1 Os3 2.699105 1_655
Al1 Os4 2.699107 1_556
Al1 Sc3 2.931983 1_655
Al1 Sc2 2.931990 1_556
Al1 Sc4 2.931996 1_555
Al2 Os0 2.590115 1_566
Al2 Os2 2.699103 1_565
Al2 Os4 2.699106 1_556
Al2 Os6 2.699108 1_566
Al2 Sc1 2.931986 1_556
Al2 Sc3 2.931989 1_565
Al2 Sc5 2.931997 1_555
Al3 Os0 2.590118 1_666
Al3 Os5 2.699102 1_656
Al3 Os6 2.699106 1_566
Al3 Os1 2.699107 1_665
Al3 Sc0 2.931987 1_556
Al3 Sc5 2.931988 1_655
Al3 Sc4 2.931989 1_565
Al4 Os0 2.590116 1_556
Al4 Os1 2.699104 1_555
Al4 Os2 2.699105 1_555
Al4 Os3 2.699107 1_555
Al4 Sc4 2.931988 1_455
Al4 Sc5 2.931991 1_545
Al4 Sc3 2.931996 1_555
Al5 Os0 2.590116 1_565
Al5 Os5 2.699104 1_555
Al5 Os4 2.699104 1_555
Al5 Os3 2.699107 1_555
Al5 Sc0 2.931987 1_455
Al5 Sc5 2.931988 1_554
Al5 Sc1 2.931993 1_555
Al6 Os0 2.590114 1_655
Al6 Os2 2.699104 1_555
Al6 Os4 2.699107 1_555
Al6 Os6 2.699107 1_555
Al6 Sc0 2.931988 1_545
Al6 Sc4 2.931988 1_554
Al6 Sc2 2.931999 1_555
Al7 Os0 2.590119 1_555
Al7 Os1 2.699102 1_555
Al7 Os5 2.699103 1_555
Al7 Os6 2.699106 1_555
Al7 Sc1 2.931984 1_545
Al7 Sc3 2.931986 1_554
Al7 Sc2 2.931988 1_455
Al8 Os4 2.519272 1_555
Al8 Os6 2.519273 1_565
Al8 Os5 2.519276 1_655
Al8 Sc2 2.918487 1_555
Al8 Sc1 2.918491 1_555
Al8 Sc0 2.918498 1_555
Al9 Os2 2.519273 1_555
Al9 Os1 2.519274 1_655
Al9 Os6 2.519275 1_556
Al9 Sc2 2.918489 1_555
Al9 Sc3 2.918494 1_555
Al9 Sc4 2.918495 1_555
Al10 Os1 2.519271 1_565
Al10 Os3 2.519272 1_555
Al10 Os5 2.519274 1_556
Al10 Sc3 2.918485 1_555
Al10 Sc1 2.918486 1_555
Al10 Sc5 2.918491 1_555
Al11 Os4 2.519270 1_556
Al11 Os3 2.519271 1_655
Al11 Os2 2.519272 1_565
Al11 Sc4 2.918499 1_555
Al11 Sc5 2.918500 1_555
Al11 Sc0 2.918500 1_555
Al12 Os4 2.519271 1_556
Al12 Os6 2.519273 1_556
Al12 Os5 2.519274 1_556
Al12 Sc4 2.918488 1_555
Al12 Sc5 2.918488 1_555
Al12 Sc3 2.918495 1_555
Al13 Os2 2.519271 1_565
Al13 Os6 2.519272 1_565
Al13 Os1 2.519274 1_565
Al13 Sc0 2.918488 1_555
Al13 Sc5 2.918489 1_555
Al13 Sc1 2.918495 1_555
Al14 Os3 2.519272 1_655
Al14 Os1 2.519274 1_655
Al14 Os5 2.519275 1_655
Al14 Sc0 2.918487 1_555
Al14 Sc4 2.918490 1_555
Al14 Sc2 2.918492 1_555
Al15 Os3 2.519271 1_555
Al15 Os4 2.519271 1_555
Al15 Os2 2.519274 1_555
Al15 Sc3 2.918498 1_555
Al15 Sc1 2.918498 1_555
Al15 Sc2 2.918500 1_555
Os1 Sc1 3.115757 1_545
Os1 Sc5 3.115760 1_545
Os1 Sc4 3.115762 1_455
Os1 Sc2 3.115764 1_455
Os2 Sc0 3.115761 1_545
Os2 Sc5 3.115763 1_545
Os2 Sc3 3.115767 1_555
Os2 Sc2 3.115768 1_555
Os3 Sc0 3.115759 1_455
Os3 Sc1 3.115761 1_555
Os3 Sc4 3.115763 1_455
Os3 Sc3 3.115764 1_555
Os4 Sc1 3.115761 1_555
Os4 Sc4 3.115763 1_554
Os4 Sc2 3.115764 1_555
Os4 Sc5 3.115765 1_554
Os5 Sc3 3.115754 1_554
Os5 Sc5 3.115757 1_554
Os5 Sc2 3.115760 1_455
Os5 Sc0 3.115762 1_455
Os6 Sc4 3.115758 1_554
Os6 Sc1 3.115759 1_545
Os6 Sc3 3.115762 1_554
Os6 Sc0 3.115765 1_545
