# generated using pymatgen
data_HoBeCu4
_symmetry_space_group_name_H-M   'P 1'
_cell_length_a   5.02423239
_cell_length_b   5.02423239
_cell_length_c   3.89197700
_cell_angle_alpha   90.00000000
_cell_angle_beta   90.00000000
_cell_angle_gamma   120.00000517
_symmetry_Int_Tables_number   1
_chemical_formula_structural   HoBeCu4
_chemical_formula_sum   'Ho1 Be1 Cu4'
_cell_volume   85.08251375
_cell_formula_units_Z   1
loop_
 _symmetry_equiv_pos_site_id
 _symmetry_equiv_pos_as_xyz
  1  'x, y, z'
loop_
 _atom_site_type_symbol
 _atom_site_label
 _atom_site_symmetry_multiplicity
 _atom_site_fract_x
 _atom_site_fract_y
 _atom_site_fract_z
 _atom_site_occupancy
  Ho  Ho0  1  0.66666700  0.33333300  0.00000000  1
  Be  Be0  1  0.00000000  0.00000000  0.00000000  1
  Cu  Cu0  1  0.33333300  0.66666700  0.00000000  1
  Cu  Cu1  1  0.67432900  0.83716400  0.50000000  1
  Cu  Cu2  1  0.16283600  0.83716400  0.50000000  1
  Cu  Cu3  1  0.16283600  0.32567100  0.50000000  1
loop_
_geom_bond_atom_site_label_1
_geom_bond_atom_site_label_2
_geom_bond_distance
_geom_bond_site_symmetry_2
Be0 Cu3 2.407249 1_554
Be0 Cu3 2.407249 1_555
Be0 Cu1 2.407249 1_444
Be0 Cu1 2.407249 1_445
Be0 Cu2 2.407252 1_544
Be0 Cu2 2.407252 1_545
Be0 Ho0 2.900739 1_455
Be0 Cu0 2.900739 1_545
Be0 Cu0 2.900743 1_445
Be0 Ho0 2.900743 1_445
Be0 Ho0 2.900743 1_555
Be0 Cu0 2.900743 1_555
Cu0 Cu2 2.447090 1_555
Cu0 Cu2 2.447090 1_554
Cu0 Cu1 2.447095 1_554
Cu0 Cu3 2.447095 1_555
Cu0 Cu1 2.447095 1_555
Cu0 Cu3 2.447095 1_554
Cu0 Ho0 2.900739 1_455
Cu0 Ho0 2.900739 1_565
Cu0 Ho0 2.900748 1_555
Cu1 Cu3 2.454373 1_665
Cu1 Cu2 2.454373 1_655
Cu1 Cu3 2.569859 1_555
Cu1 Cu2 2.569860 1_555
Cu1 Ho0 3.177847 1_555
Cu1 Ho0 3.177847 1_556
Cu1 Ho0 3.177847 1_566
Cu1 Ho0 3.177847 1_565
Cu2 Cu3 2.454373 1_565
Cu2 Cu3 2.569860 1_555
Cu2 Ho0 3.177847 1_456
Cu2 Ho0 3.177847 1_455
Cu2 Ho0 3.177847 1_565
Cu2 Ho0 3.177847 1_566
Cu3 Ho0 3.177847 1_556
Cu3 Ho0 3.177847 1_555
Cu3 Ho0 3.177847 1_456
Cu3 Ho0 3.177847 1_455
