# generated using pymatgen
data_CaGa2Ni
_symmetry_space_group_name_H-M   'P 1'
_cell_length_a   5.58511366
_cell_length_b   5.58511366
_cell_length_c   6.90954114
_cell_angle_alpha   90.00000000
_cell_angle_beta   90.00000000
_cell_angle_gamma   138.12606508
_symmetry_Int_Tables_number   1
_chemical_formula_structural   CaGa2Ni
_chemical_formula_sum   'Ca2 Ga4 Ni2'
_cell_volume   143.86678189
_cell_formula_units_Z   2
loop_
 _symmetry_equiv_pos_site_id
 _symmetry_equiv_pos_as_xyz
  1  'x, y, z'
loop_
 _atom_site_type_symbol
 _atom_site_label
 _atom_site_symmetry_multiplicity
 _atom_site_fract_x
 _atom_site_fract_y
 _atom_site_fract_z
 _atom_site_occupancy
  Ca  Ca0  1  0.55477006  0.44522994  0.75000000  1
  Ca  Ca1  1  0.44522994  0.55477006  0.25000000  1
  Ga  Ga0  1  0.83475514  0.16524486  0.94287059  1
  Ga  Ga1  1  0.16524486  0.83475514  0.05712941  1
  Ga  Ga2  1  0.83475514  0.16524486  0.55712941  1
  Ga  Ga3  1  0.16524486  0.83475514  0.44287059  1
  Ni  Ni0  1  0.71908855  0.28091145  0.25000000  1
  Ni  Ni1  1  0.28091145  0.71908855  0.75000000  1
loop_
_geom_bond_atom_site_label_1
_geom_bond_atom_site_label_2
_geom_bond_distance
_geom_bond_site_symmetry_2
Ca0 Ni1 2.857086 1_555
Ca0 Ni1 3.090195 1_545
Ca0 Ni1 3.090195 1_655
Ca0 Ga3 3.132882 1_655
Ca0 Ga3 3.132882 1_545
Ca0 Ga1 3.132882 1_656
Ca0 Ga1 3.132882 1_546
Ca0 Ga2 3.210638 1_555
Ca0 Ga0 3.210638 1_555
Ca0 Ga0 3.320806 1_455
Ca0 Ga2 3.320806 1_455
Ca0 Ga0 3.320806 1_565
Ca0 Ga2 3.320806 1_565
Ca1 Ni0 2.857086 1_555
Ca1 Ni0 3.090195 1_455
Ca1 Ni0 3.090195 1_565
Ca1 Ga2 3.132882 1_455
Ca1 Ga0 3.132882 1_564
Ca1 Ga2 3.132882 1_565
Ca1 Ga0 3.132882 1_454
Ca1 Ga3 3.210638 1_555
Ca1 Ga1 3.210638 1_555
Ca1 Ga1 3.320806 1_545
Ca1 Ga3 3.320806 1_545
Ca1 Ga1 3.320806 1_655
Ca1 Ga3 3.320806 1_655
Ga0 Ni0 2.441223 1_556
Ga0 Ni1 2.464684 1_545
Ga0 Ni1 2.464684 1_655
Ga0 Ga2 2.665295 1_555
Ga0 Ga1 2.780982 1_656
Ga0 Ga1 2.780982 1_546
Ga1 Ni1 2.441223 1_554
Ga1 Ni0 2.464684 1_455
Ga1 Ni0 2.464684 1_565
Ga1 Ga3 2.665295 1_555
Ga2 Ni0 2.441223 1_555
Ga2 Ni1 2.464684 1_545
Ga2 Ni1 2.464684 1_655
Ga2 Ga3 2.780982 1_655
Ga2 Ga3 2.780982 1_545
Ga3 Ni1 2.441223 1_555
Ga3 Ni0 2.464684 1_455
Ga3 Ni0 2.464684 1_565
