# generated using pymatgen
data_HoZr
_symmetry_space_group_name_H-M   'P 1'
_cell_length_a   6.81102416
_cell_length_b   6.81102416
_cell_length_c   10.72149200
_cell_angle_alpha   90.00000000
_cell_angle_beta   90.00000000
_cell_angle_gamma   120.00000160
_symmetry_Int_Tables_number   1
_chemical_formula_structural   HoZr
_chemical_formula_sum   'Ho8 Zr8'
_cell_volume   430.73552601
_cell_formula_units_Z   8
loop_
 _symmetry_equiv_pos_site_id
 _symmetry_equiv_pos_as_xyz
  1  'x, y, z'
loop_
 _atom_site_type_symbol
 _atom_site_label
 _atom_site_symmetry_multiplicity
 _atom_site_fract_x
 _atom_site_fract_y
 _atom_site_fract_z
 _atom_site_occupancy
  Ho  Ho0_0  1  0.16666650  0.33333350  0.25000000  1
  Ho  Ho0_1  1  0.16666650  0.33333350  0.75000000  1
  Ho  Ho0_2  1  0.16666650  0.83333350  0.25000000  1
  Ho  Ho0_3  1  0.16666650  0.83333350  0.75000000  1
  Ho  Ho0_4  1  0.66666650  0.33333350  0.25000000  1
  Ho  Ho0_5  1  0.66666650  0.33333350  0.75000000  1
  Ho  Ho0_6  1  0.66666650  0.83333350  0.25000000  1
  Ho  Ho0_7  1  0.66666650  0.83333350  0.75000000  1
  Zr  Zr0_0  1  0.00000000  0.00000000  0.00000000  1
  Zr  Zr0_1  1  0.00000000  0.00000000  0.50000000  1
  Zr  Zr0_2  1  0.00000000  0.50000000  0.00000000  1
  Zr  Zr0_3  1  0.00000000  0.50000000  0.50000000  1
  Zr  Zr0_4  1  0.50000000  0.00000000  0.00000000  1
  Zr  Zr0_5  1  0.50000000  0.00000000  0.50000000  1
  Zr  Zr0_6  1  0.50000000  0.50000000  0.00000000  1
  Zr  Zr0_7  1  0.50000000  0.50000000  0.50000000  1
loop_
_geom_bond_atom_site_label_1
_geom_bond_atom_site_label_2
_geom_bond_distance
_geom_bond_site_symmetry_2
Ho0_0 Zr0_2 3.324189 1_555
Ho0_0 Zr0_3 3.324189 1_555
Ho0_0 Zr0_6 3.324190 1_555
Ho0_0 Zr0_7 3.324190 1_555
Ho0_0 Zr0_0 3.324190 1_555
Ho0_0 Zr0_1 3.324190 1_555
Ho0_0 Ho0_6 3.405512 1_445
Ho0_0 Ho0_6 3.405512 1_555
Ho0_0 Ho0_4 3.405512 1_455
Ho0_0 Ho0_2 3.405512 1_555
Ho0_0 Ho0_4 3.405512 1_555
Ho0_0 Ho0_2 3.405512 1_545
Ho0_1 Zr0_2 3.324189 1_556
Ho0_1 Zr0_3 3.324189 1_555
Ho0_1 Zr0_0 3.324190 1_556
Ho0_1 Zr0_6 3.324190 1_556
Ho0_1 Zr0_7 3.324190 1_555
Ho0_1 Zr0_1 3.324190 1_555
Ho0_1 Ho0_7 3.405512 1_445
Ho0_1 Ho0_7 3.405512 1_555
Ho0_1 Ho0_5 3.405512 1_455
Ho0_1 Ho0_3 3.405512 1_555
Ho0_1 Ho0_5 3.405512 1_555
Ho0_1 Ho0_3 3.405512 1_545
Ho0_2 Zr0_1 3.324189 1_565
Ho0_2 Zr0_0 3.324189 1_565
Ho0_2 Zr0_4 3.324190 1_565
Ho0_2 Zr0_5 3.324190 1_565
Ho0_2 Zr0_2 3.324190 1_555
Ho0_2 Zr0_3 3.324190 1_555
Ho0_2 Ho0_4 3.405512 1_455
Ho0_2 Ho0_4 3.405512 1_565
Ho0_2 Ho0_6 3.405512 1_555
Ho0_2 Ho0_6 3.405512 1_455
Ho0_3 Zr0_0 3.324189 1_566
Ho0_3 Zr0_1 3.324189 1_565
Ho0_3 Zr0_2 3.324190 1_556
Ho0_3 Zr0_4 3.324190 1_566
Ho0_3 Zr0_5 3.324190 1_565
Ho0_3 Zr0_3 3.324190 1_555
Ho0_3 Ho0_5 3.405512 1_455
Ho0_3 Ho0_5 3.405512 1_565
Ho0_3 Ho0_7 3.405512 1_555
Ho0_3 Ho0_7 3.405512 1_455
Ho0_4 Zr0_6 3.324189 1_555
Ho0_4 Zr0_7 3.324189 1_555
Ho0_4 Zr0_2 3.324190 1_655
Ho0_4 Zr0_3 3.324190 1_655
Ho0_4 Zr0_4 3.324190 1_555
Ho0_4 Zr0_5 3.324190 1_555
Ho0_4 Ho0_6 3.405512 1_545
Ho0_4 Ho0_6 3.405512 1_555
Ho0_5 Zr0_6 3.324189 1_556
Ho0_5 Zr0_7 3.324189 1_555
Ho0_5 Zr0_2 3.324190 1_656
Ho0_5 Zr0_4 3.324190 1_556
Ho0_5 Zr0_3 3.324190 1_655
Ho0_5 Zr0_5 3.324190 1_555
Ho0_5 Ho0_7 3.405512 1_545
Ho0_5 Ho0_7 3.405512 1_555
Ho0_6 Zr0_4 3.324189 1_565
Ho0_6 Zr0_5 3.324189 1_565
Ho0_6 Zr0_6 3.324190 1_555
Ho0_6 Zr0_0 3.324190 1_665
Ho0_6 Zr0_7 3.324190 1_555
Ho0_6 Zr0_1 3.324190 1_665
Ho0_7 Zr0_4 3.324189 1_566
Ho0_7 Zr0_5 3.324189 1_565
Ho0_7 Zr0_6 3.324190 1_556
Ho0_7 Zr0_0 3.324190 1_666
Ho0_7 Zr0_1 3.324190 1_665
Ho0_7 Zr0_7 3.324190 1_555
Zr0_0 Zr0_6 3.405512 1_555
Zr0_0 Zr0_6 3.405512 1_445
Zr0_0 Zr0_2 3.405512 1_545
Zr0_0 Zr0_4 3.405512 1_555
Zr0_0 Zr0_4 3.405512 1_455
Zr0_0 Zr0_2 3.405512 1_555
Zr0_1 Zr0_7 3.405512 1_555
Zr0_1 Zr0_7 3.405512 1_445
Zr0_1 Zr0_3 3.405512 1_555
Zr0_1 Zr0_3 3.405512 1_545
Zr0_1 Zr0_5 3.405512 1_455
Zr0_1 Zr0_5 3.405512 1_555
Zr0_2 Zr0_4 3.405512 1_565
Zr0_2 Zr0_4 3.405512 1_455
Zr0_2 Zr0_6 3.405512 1_555
Zr0_2 Zr0_6 3.405512 1_455
Zr0_3 Zr0_5 3.405512 1_455
Zr0_3 Zr0_5 3.405512 1_565
Zr0_3 Zr0_7 3.405512 1_455
Zr0_3 Zr0_7 3.405512 1_555
Zr0_4 Zr0_6 3.405512 1_555
Zr0_4 Zr0_6 3.405512 1_545
Zr0_5 Zr0_7 3.405512 1_555
Zr0_5 Zr0_7 3.405512 1_545
