# generated using pymatgen
data_K2ZrSi2O7
_symmetry_space_group_name_H-M   'P 1'
_cell_length_a   11.44391996
_cell_length_b   11.44391996
_cell_length_c   14.55737998
_cell_angle_alpha   67.02485077
_cell_angle_beta   67.02485077
_cell_angle_gamma   59.45449480
_symmetry_Int_Tables_number   1
_chemical_formula_structural   K2ZrSi2O7
_chemical_formula_sum   'K16 Zr8 Si16 O56'
_cell_volume   1466.69915265
_cell_formula_units_Z   8
loop_
 _symmetry_equiv_pos_site_id
 _symmetry_equiv_pos_as_xyz
  1  'x, y, z'
loop_
 _atom_site_type_symbol
 _atom_site_label
 _atom_site_symmetry_multiplicity
 _atom_site_fract_x
 _atom_site_fract_y
 _atom_site_fract_z
 _atom_site_occupancy
  K  K0  1  0.37872400  0.88580200  0.60409400  1
  K  K1  1  0.88580200  0.37872400  0.60409400  1
  K  K2  1  0.62127600  0.11419800  0.39590600  1
  K  K3  1  0.11419800  0.62127600  0.39590600  1
  K  K4  1  0.58471600  0.10736500  0.93678500  1
  K  K5  1  0.10736500  0.58471600  0.93678500  1
  K  K6  1  0.41528400  0.89263500  0.06321500  1
  K  K7  1  0.89263500  0.41528400  0.06321500  1
  K  K8  1  0.39028200  0.39028200  0.57243300  1
  K  K9  1  0.60971800  0.60971800  0.42756700  1
  K  K10  1  0.12055500  0.12055500  0.93248800  1
  K  K11  1  0.87944500  0.87944500  0.06751200  1
  K  K12  1  0.62137800  0.62137800  0.90097600  1
  K  K13  1  0.37862200  0.37862200  0.09902400  1
  K  K14  1  0.89133800  0.89133800  0.57822900  1
  K  K15  1  0.10866200  0.10866200  0.42177100  1
  Zr  Zr0  1  0.98709500  0.98709500  0.76967900  1
  Zr  Zr1  1  0.01290500  0.01290500  0.23032100  1
  Zr  Zr2  1  0.50821200  0.50821200  0.72964500  1
  Zr  Zr3  1  0.49178800  0.49178800  0.27035500  1
  Zr  Zr4  1  0.50432900  0.00381800  0.74930200  1
  Zr  Zr5  1  0.00381800  0.50432900  0.74930200  1
  Zr  Zr6  1  0.49567100  0.99618200  0.25069800  1
  Zr  Zr7  1  0.99618200  0.49567100  0.25069800  1
  Si  Si0  1  0.20547600  0.71707000  0.62349500  1
  Si  Si1  1  0.71707000  0.20547600  0.62349500  1
  Si  Si2  1  0.79452400  0.28293000  0.37650500  1
  Si  Si3  1  0.28293000  0.79452400  0.37650500  1
  Si  Si4  1  0.32653500  0.77693600  0.88149200  1
  Si  Si5  1  0.77693600  0.32653500  0.88149200  1
  Si  Si6  1  0.67346500  0.22306400  0.11850800  1
  Si  Si7  1  0.22306400  0.67346500  0.11850800  1
  Si  Si8  1  0.19967000  0.19967000  0.63354800  1
  Si  Si9  1  0.80033000  0.80033000  0.36645200  1
  Si  Si10  1  0.29845100  0.29845100  0.87580600  1
  Si  Si11  1  0.70154900  0.70154900  0.12419400  1
  Si  Si12  1  0.71498600  0.71498600  0.61534000  1
  Si  Si13  1  0.28501400  0.28501400  0.38466000  1
  Si  Si14  1  0.78041200  0.78041200  0.85973500  1
  Si  Si15  1  0.21958800  0.21958800  0.14026500  1
  O  O0  1  0.87040600  0.87040600  0.83441300  1
  O  O1  1  0.12959400  0.12959400  0.16558700  1
  O  O2  1  0.16654700  0.90073400  0.87299800  1
  O  O3  1  0.90073400  0.16654700  0.87299800  1
  O  O4  1  0.83345300  0.09926600  0.12700200  1
  O  O5  1  0.09926600  0.83345300  0.12700200  1
  O  O6  1  0.66910000  0.39775400  0.80925900  1
  O  O7  1  0.39775400  0.66910000  0.80925900  1
  O  O8  1  0.33090000  0.60224600  0.19074100  1
  O  O9  1  0.60224600  0.33090000  0.19074100  1
  O  O10  1  0.62517500  0.36778700  0.63321200  1
  O  O11  1  0.36778700  0.62517500  0.63321200  1
  O  O12  1  0.37482500  0.63221300  0.36678800  1
  O  O13  1  0.63221300  0.37482500  0.36678800  1
  O  O14  1  0.20775100  0.79224900  0.50000000  1
  O  O15  1  0.79224900  0.20775100  0.50000000  1
  O  O16  1  0.32340700  0.67659300  0.00000000  1
  O  O17  1  0.67659300  0.32340700  0.00000000  1
  O  O18  1  0.39157800  0.39157800  0.82362400  1
  O  O19  1  0.60842200  0.60842200  0.17637600  1
  O  O20  1  0.62957700  0.62957700  0.62493600  1
  O  O21  1  0.37042300  0.37042300  0.37506400  1
  O  O22  1  0.40656400  0.87138200  0.86034900  1
  O  O23  1  0.87138200  0.40656400  0.86034900  1
  O  O24  1  0.59343600  0.12861800  0.13965100  1
  O  O25  1  0.12861800  0.59343600  0.13965100  1
  O  O26  1  0.62117100  0.11925600  0.66123000  1
  O  O27  1  0.11925600  0.62117100  0.66123000  1
  O  O28  1  0.37882900  0.88074400  0.33877000  1
  O  O29  1  0.88074400  0.37882900  0.33877000  1
  O  O30  1  0.82882700  0.07627300  0.89465100  1
  O  O31  1  0.07627300  0.82882700  0.89465100  1
  O  O32  1  0.17117300  0.92372700  0.10534900  1
  O  O33  1  0.92372700  0.17117300  0.10534900  1
  O  O34  1  0.85377200  0.61557000  0.66245300  1
  O  O35  1  0.61557000  0.85377200  0.66245300  1
  O  O36  1  0.14622800  0.38443000  0.33754700  1
  O  O37  1  0.38443000  0.14622800  0.33754700  1
  O  O38  1  0.38555200  0.14571700  0.84616800  1
  O  O39  1  0.14571700  0.38555200  0.84616800  1
  O  O40  1  0.61444800  0.85428300  0.15383200  1
  O  O41  1  0.85428300  0.61444800  0.15383200  1
  O  O42  1  0.11568800  0.35472600  0.65915900  1
  O  O43  1  0.35472600  0.11568800  0.65915900  1
  O  O44  1  0.88431200  0.64527400  0.34084100  1
  O  O45  1  0.64527400  0.88431200  0.34084100  1
  O  O46  1  0.22314900  0.22314900  0.50788900  1
  O  O47  1  0.77685100  0.77685100  0.49211100  1
  O  O48  1  0.26986600  0.26986600  0.00162400  1
  O  O49  1  0.73013400  0.73013400  0.99837600  1
  O  O50  1  0.84969000  0.12485900  0.67396300  1
  O  O51  1  0.12485900  0.84969000  0.67396300  1
  O  O52  1  0.15031000  0.87514100  0.32603700  1
  O  O53  1  0.87514100  0.15031000  0.32603700  1
  O  O54  1  0.10880000  0.10880000  0.68426000  1
  O  O55  1  0.89120000  0.89120000  0.31574000  1
loop_
_geom_bond_atom_site_label_1
_geom_bond_atom_site_label_2
_geom_bond_distance
_geom_bond_site_symmetry_2
K0 O51 2.868967 1_555
K0 O20 2.891450 1_555
K0 O43 2.894675 1_565
K0 O11 2.905559 1_555
K0 O35 2.957581 1_555
K0 O54 2.985703 1_565
K0 O7 3.048652 1_555
K0 O46 3.282459 1_565
K1 O50 2.868967 1_555
K1 O20 2.891450 1_555
K1 O42 2.894675 1_655
K1 O10 2.905559 1_555
K1 O34 2.957581 1_555
K1 O54 2.985703 1_655
K1 O6 3.048652 1_555
K1 O46 3.282459 1_655
K2 O53 2.868967 1_555
K2 O21 2.891450 1_555
K2 O45 2.894675 1_545
K2 O13 2.905559 1_555
K2 O37 2.957581 1_555
K2 O55 2.985703 1_545
K2 O9 3.048652 1_555
K2 O47 3.282459 1_545
K3 O52 2.868967 1_555
K3 O21 2.891450 1_555
K3 O44 2.894675 1_455
K3 O12 2.905559 1_555
K3 O36 2.957581 1_555
K3 O55 2.985703 1_455
K3 O8 3.048652 1_555
K3 O47 3.282459 1_455
K4 O30 2.475747 1_555
K5 O31 2.475747 1_555
K6 O32 2.475747 1_555
K7 O33 2.475747 1_555
K8 O10 3.008405 1_555
K8 O11 3.008405 1_555
K8 O21 3.070902 1_555
K8 O43 3.071784 1_555
K8 O42 3.071784 1_555
K8 O27 3.078785 1_555
K8 O26 3.078785 1_555
K8 O13 3.178647 1_555
K8 O12 3.178647 1_555
K9 O13 3.008405 1_555
K9 O12 3.008405 1_555
K9 O20 3.070902 1_555
K9 O44 3.071784 1_555
K9 O45 3.071784 1_555
K9 O28 3.078785 1_555
K9 O29 3.078785 1_555
K9 O11 3.178647 1_555
K9 O10 3.178647 1_555
K10 O33 2.669887 1_456
K10 O32 2.669887 1_546
K10 O3 2.711900 1_455
K10 O2 2.711900 1_545
K10 O38 2.913563 1_555
K10 O39 2.913563 1_555
K10 O23 3.180353 1_455
K10 O22 3.180353 1_545
K11 O31 2.669887 1_654
K11 O30 2.669887 1_564
K11 O4 2.711900 1_565
K11 O5 2.711900 1_655
K11 O41 2.913563 1_555
K11 O40 2.913563 1_555
K11 O24 3.180353 1_565
K11 O25 3.180353 1_655
K12 O23 2.691405 1_555
K12 O22 2.691405 1_555
K12 Si14 2.940380 1_555
K12 O17 2.964568 1_556
K12 O16 2.964568 1_556
K12 O7 3.050846 1_555
K12 O6 3.050846 1_555
K12 O49 3.072166 1_555
K13 O24 2.691405 1_555
K13 O25 2.691405 1_555
K13 Si15 2.940380 1_555
K13 O17 2.964568 1_555
K13 O16 2.964568 1_555
K13 O9 3.050846 1_555
K13 O8 3.050846 1_555
K13 O48 3.072166 1_555
K14 O27 3.028070 1_655
K14 O26 3.028070 1_565
K14 O14 3.051193 1_655
K14 O15 3.051193 1_565
K14 O47 3.051899 1_555
K14 O35 3.097494 1_555
K14 O34 3.097494 1_555
K14 O50 3.225733 1_565
K14 O51 3.225733 1_655
K15 O28 3.028070 1_545
K15 O29 3.028070 1_455
K15 O14 3.051193 1_545
K15 O15 3.051193 1_455
K15 O46 3.051899 1_555
K15 O36 3.097494 1_555
K15 O37 3.097494 1_555
K15 O52 3.225733 1_545
K15 O53 3.225733 1_455
O0 Si14 1.656071 1_555
O0 Zr0 2.074198 1_555
O1 Si15 1.656071 1_555
O1 Zr1 2.074198 1_555
O2 O31 1.500396 1_555
O2 Si4 1.666739 1_555
O3 O30 1.500396 1_555
O3 Si5 1.666739 1_555
O4 Si6 1.666739 1_555
O5 Si7 1.666739 1_555
O6 Si5 1.616953 1_555
O6 Zr2 2.118386 1_555
O7 Si4 1.616953 1_555
O7 Zr2 2.118386 1_555
O8 Si7 1.616953 1_555
O8 Zr3 2.118386 1_555
O9 Si6 1.616953 1_555
O9 Zr3 2.118386 1_555
O10 Si1 1.636959 1_555
O10 Zr2 2.110133 1_555
O11 Si0 1.636959 1_555
O11 Zr2 2.110133 1_555
O12 Si3 1.636959 1_555
O12 Zr3 2.110133 1_555
O13 Si2 1.636959 1_555
O13 Zr3 2.110133 1_555
O14 Si3 1.658796 1_555
O14 Si0 1.658796 1_555
O15 Si1 1.658796 1_555
O15 Si2 1.658796 1_555
O16 Si7 1.656249 1_555
O16 Si4 1.656249 1_554
O17 Si6 1.656249 1_555
O17 Si5 1.656249 1_554
O18 Si10 1.655025 1_555
O18 Zr2 2.096322 1_555
O19 Si11 1.655025 1_555
O19 Zr3 2.096322 1_555
O20 Si12 1.639530 1_555
O20 Zr2 2.199271 1_555
O21 Si13 1.639530 1_555
O21 Zr3 2.199271 1_555
O22 Si4 1.621142 1_555
O22 Zr4 2.135642 1_565
O23 Si5 1.621142 1_555
O23 Zr5 2.135642 1_655
O24 Si6 1.621142 1_555
O24 Zr6 2.135642 1_545
O25 Si7 1.621142 1_555
O25 Zr7 2.135642 1_455
O26 Si1 1.639099 1_555
O26 Zr4 2.076495 1_555
O27 Si0 1.639099 1_555
O27 Zr5 2.076495 1_555
O28 Si3 1.639099 1_555
O28 Zr6 2.076495 1_555
O29 Si2 1.639099 1_555
O29 Zr7 2.076495 1_555
O30 Zr0 2.151736 1_545
O31 Zr0 2.151736 1_455
O32 O5 1.500396 1_555
O32 Zr1 2.151736 1_565
O33 O4 1.500396 1_555
O33 Zr1 2.151736 1_655
O34 Si12 1.640688 1_555
O34 Zr5 2.093787 1_655
O35 Si12 1.640688 1_555
O35 Zr4 2.093787 1_565
O36 Si13 1.640688 1_555
O36 Zr7 2.093787 1_455
O37 Si13 1.640688 1_555
O37 Zr6 2.093787 1_545
O38 Si10 1.648295 1_555
O38 Zr4 2.126200 1_555
O39 Si10 1.648295 1_555
O39 Zr5 2.126200 1_555
O40 Si11 1.648295 1_555
O40 Zr6 2.126200 1_555
O41 Si11 1.648295 1_555
O41 Zr7 2.126200 1_555
O42 Si8 1.647618 1_555
O42 Zr5 2.122871 1_555
O43 Si8 1.647618 1_555
O43 Zr4 2.122871 1_555
O44 Si9 1.647618 1_555
O44 Zr7 2.122871 1_555
O45 Si9 1.647618 1_555
O45 Zr6 2.122871 1_555
O46 Si13 1.657422 1_555
O46 Si8 1.672298 1_555
O47 Si12 1.657422 1_555
O47 Si9 1.672298 1_555
O48 Si10 1.655899 1_554
O48 Si15 1.805230 1_555
O49 Si11 1.655899 1_556
O49 Si14 1.805230 1_555
O50 Si1 1.616294 1_555
O50 Zr0 2.091730 1_545
O51 Si0 1.616294 1_555
O51 Zr0 2.091730 1_455
O52 Si3 1.616294 1_555
O52 Zr1 2.091730 1_565
O53 Si2 1.616294 1_555
O53 Zr1 2.091730 1_655
O54 Si8 1.615048 1_555
O54 Zr0 2.166474 1_445
O55 Si9 1.615048 1_555
O55 Zr1 2.166474 1_665
