# generated using pymatgen
data_Er5(In2Ni)2
_symmetry_space_group_name_H-M   'P 1'
_cell_length_a   3.55218400
_cell_length_b   7.92926500
_cell_length_c   17.88393800
_cell_angle_alpha   90.00000000
_cell_angle_beta   90.00000000
_cell_angle_gamma   90.00000000
_symmetry_Int_Tables_number   1
_chemical_formula_structural   Er5(In2Ni)2
_chemical_formula_sum   'Er10 In8 Ni4'
_cell_volume   503.72272230
_cell_formula_units_Z   2
loop_
 _symmetry_equiv_pos_site_id
 _symmetry_equiv_pos_as_xyz
  1  'x, y, z'
loop_
 _atom_site_type_symbol
 _atom_site_label
 _atom_site_symmetry_multiplicity
 _atom_site_fract_x
 _atom_site_fract_y
 _atom_site_fract_z
 _atom_site_occupancy
  Er  Er0  1  0.00000000  0.50000000  0.50000000  1
  Er  Er1  1  0.00000000  0.00000000  0.00000000  1
  Er  Er2  1  0.00000000  0.75695300  0.28105000  1
  Er  Er3  1  0.00000000  0.24304700  0.71895000  1
  Er  Er4  1  0.00000000  0.74304700  0.78105000  1
  Er  Er5  1  0.00000000  0.25695300  0.21895000  1
  Er  Er6  1  0.00000000  0.62284000  0.08861800  1
  Er  Er7  1  0.00000000  0.37716000  0.91138200  1
  Er  Er8  1  0.00000000  0.87716000  0.58861800  1
  Er  Er9  1  0.00000000  0.12284000  0.41138200  1
  In  In0  1  0.50000000  0.70061200  0.93286400  1
  In  In1  1  0.50000000  0.29938800  0.06713600  1
  In  In2  1  0.50000000  0.79938800  0.43286400  1
  In  In3  1  0.50000000  0.20061200  0.56713600  1
  In  In4  1  0.50000000  0.56722600  0.65331200  1
  In  In5  1  0.50000000  0.43277400  0.34668800  1
  In  In6  1  0.50000000  0.93277400  0.15331200  1
  In  In7  1  0.50000000  0.06722600  0.84668800  1
  Ni  Ni0  1  0.50000000  0.54122000  0.19682600  1
  Ni  Ni1  1  0.50000000  0.45878000  0.80317400  1
  Ni  Ni2  1  0.50000000  0.95878000  0.69682600  1
  Ni  Ni3  1  0.50000000  0.04122000  0.30317400  1
loop_
_geom_bond_atom_site_label_1
_geom_bond_atom_site_label_2
_geom_bond_distance
_geom_bond_site_symmetry_2
Er0 In3 3.198688 1_555
Er0 In3 3.198688 1_455
Er0 In2 3.198688 1_555
Er0 In2 3.198688 1_455
Er0 In4 3.310021 1_555
Er0 In5 3.310021 1_555
Er0 In5 3.310021 1_455
Er0 In4 3.310021 1_455
Er1 In1 3.198688 1_455
Er1 In1 3.198688 1_555
Er1 In0 3.198688 1_444
Er1 In0 3.198688 1_544
Er1 In6 3.310021 1_545
Er1 In6 3.310021 1_445
Er1 In7 3.310021 1_454
Er1 In7 3.310021 1_554
Er2 Ni0 2.889546 1_555
Er2 Ni0 2.889546 1_455
Er2 Ni3 2.896843 1_465
Er2 Ni3 2.896843 1_565
Er2 In6 3.211986 1_555
Er2 In6 3.211986 1_455
Er2 In2 3.261766 1_455
Er2 In2 3.261766 1_555
Er2 In5 3.337655 1_455
Er2 In5 3.337655 1_555
Er3 Ni1 2.889546 1_555
Er3 Ni1 2.889546 1_455
Er3 Ni2 2.896843 1_445
Er3 Ni2 2.896843 1_545
Er3 In7 3.211986 1_555
Er3 In7 3.211986 1_455
Er3 In3 3.261766 1_455
Er3 In3 3.261766 1_555
Er3 In4 3.337655 1_555
Er3 In4 3.337655 1_455
Er4 Ni2 2.889546 1_555
Er4 Ni2 2.889546 1_455
Er4 Ni1 2.896843 1_455
Er4 Ni1 2.896843 1_555
Er4 In4 3.211986 1_455
Er4 In4 3.211986 1_555
Er4 In0 3.261766 1_455
Er4 In0 3.261766 1_555
Er4 In7 3.337655 1_465
Er4 In7 3.337655 1_565
Er5 Ni3 2.889546 1_455
Er5 Ni3 2.889546 1_555
Er5 Ni0 2.896843 1_555
Er5 Ni0 2.896843 1_455
Er5 In5 3.211986 1_555
Er5 In5 3.211986 1_455
Er5 In1 3.261766 1_455
Er5 In1 3.261766 1_555
Er5 In6 3.337655 1_545
Er5 In6 3.337655 1_445
Er6 Ni0 2.705235 1_455
Er6 Ni0 2.705235 1_555
Er6 In1 3.143242 1_455
Er6 In1 3.143242 1_555
Er6 In6 3.245406 1_455
Er6 In6 3.245406 1_555
Er6 In0 3.360621 1_554
Er6 In0 3.360621 1_454
Er7 Ni1 2.705235 1_455
Er7 Ni1 2.705235 1_555
Er7 In0 3.143242 1_455
Er7 In0 3.143242 1_555
Er7 In7 3.245406 1_455
Er7 In7 3.245406 1_555
Er7 In1 3.360621 1_556
Er7 In1 3.360621 1_456
Er8 Ni2 2.705235 1_555
Er8 Ni2 2.705235 1_455
Er8 In3 3.143242 1_465
Er8 In3 3.143242 1_565
Er8 In4 3.245406 1_455
Er8 In4 3.245406 1_555
Er8 In2 3.360621 1_455
Er8 In2 3.360621 1_555
Er9 Ni3 2.705235 1_555
Er9 Ni3 2.705235 1_455
Er9 In2 3.143242 1_445
Er9 In2 3.143242 1_545
Er9 In5 3.245406 1_555
Er9 In5 3.245406 1_455
Er9 In3 3.360621 1_455
Er9 In3 3.360621 1_555
In0 Ni1 3.009396 1_555
In0 In7 3.290247 1_565
In1 Ni0 3.009396 1_555
In1 In6 3.290247 1_545
In2 Ni3 3.009396 1_565
In2 In5 3.290247 1_555
In3 Ni2 3.009396 1_545
In3 In4 3.290247 1_555
In4 Ni1 2.814690 1_555
In4 Ni2 3.200778 1_555
In5 Ni0 2.814690 1_555
In5 Ni3 3.200778 1_555
In6 Ni3 2.814690 1_565
In6 Ni0 3.200778 1_555
In7 Ni2 2.814690 1_545
In7 Ni1 3.200778 1_555
