# generated using pymatgen
data_FeCuNi
_symmetry_space_group_name_H-M   'P 1'
_cell_length_a   4.94583633
_cell_length_b   4.94583633
_cell_length_c   12.35123600
_cell_angle_alpha   90.00000000
_cell_angle_beta   90.00000000
_cell_angle_gamma   120.00000441
_symmetry_Int_Tables_number   1
_chemical_formula_structural   FeCuNi
_chemical_formula_sum   'Fe8 Cu8 Ni8'
_cell_volume   261.64986390
_cell_formula_units_Z   8
loop_
 _symmetry_equiv_pos_site_id
 _symmetry_equiv_pos_as_xyz
  1  'x, y, z'
loop_
 _atom_site_type_symbol
 _atom_site_label
 _atom_site_symmetry_multiplicity
 _atom_site_fract_x
 _atom_site_fract_y
 _atom_site_fract_z
 _atom_site_occupancy
  Fe  Fe0_0  1  0.00000000  0.00000000  0.17118800  1
  Fe  Fe0_1  1  0.00000000  0.00000000  0.67118800  1
  Fe  Fe0_2  1  0.00000000  0.50000000  0.17118800  1
  Fe  Fe0_3  1  0.00000000  0.50000000  0.67118800  1
  Fe  Fe0_4  1  0.50000000  0.00000000  0.17118800  1
  Fe  Fe0_5  1  0.50000000  0.00000000  0.67118800  1
  Fe  Fe0_6  1  0.50000000  0.50000000  0.17118800  1
  Fe  Fe0_7  1  0.50000000  0.50000000  0.67118800  1
  Cu  Cu0_0  1  0.16666650  0.33333350  0.49992950  1
  Cu  Cu0_1  1  0.16666650  0.33333350  0.99992950  1
  Cu  Cu0_2  1  0.16666650  0.83333350  0.49992950  1
  Cu  Cu0_3  1  0.16666650  0.83333350  0.99992950  1
  Cu  Cu0_4  1  0.66666650  0.33333350  0.49992950  1
  Cu  Cu0_5  1  0.66666650  0.33333350  0.99992950  1
  Cu  Cu0_6  1  0.66666650  0.83333350  0.49992950  1
  Cu  Cu0_7  1  0.66666650  0.83333350  0.99992950  1
  Ni  Ni0_0  1  0.33333350  0.16666650  0.32888250  1
  Ni  Ni0_1  1  0.33333350  0.16666650  0.82888250  1
  Ni  Ni0_2  1  0.33333350  0.66666650  0.32888250  1
  Ni  Ni0_3  1  0.33333350  0.66666650  0.82888250  1
  Ni  Ni0_4  1  0.83333350  0.16666650  0.32888250  1
  Ni  Ni0_5  1  0.83333350  0.16666650  0.82888250  1
  Ni  Ni0_6  1  0.83333350  0.66666650  0.32888250  1
  Ni  Ni0_7  1  0.83333350  0.66666650  0.82888250  1
loop_
_geom_bond_atom_site_label_1
_geom_bond_atom_site_label_2
_geom_bond_distance
_geom_bond_site_symmetry_2
Fe0_0 Ni0_4 2.414965 1_455
Fe0_0 Ni0_6 2.414967 1_445
Fe0_0 Ni0_0 2.414967 1_555
Fe0_0 Fe0_6 2.472918 1_555
Fe0_0 Fe0_6 2.472918 1_445
Fe0_0 Fe0_4 2.472918 1_455
Fe0_0 Fe0_2 2.472918 1_545
Fe0_0 Fe0_4 2.472918 1_555
Fe0_0 Fe0_2 2.472918 1_555
Fe0_1 Ni0_5 2.414965 1_455
Fe0_1 Ni0_7 2.414967 1_445
Fe0_1 Ni0_1 2.414967 1_555
Fe0_1 Fe0_7 2.472918 1_555
Fe0_1 Fe0_7 2.472918 1_445
Fe0_1 Fe0_3 2.472918 1_555
Fe0_1 Fe0_5 2.472918 1_455
Fe0_1 Fe0_3 2.472918 1_545
Fe0_1 Fe0_5 2.472918 1_555
Fe0_2 Ni0_6 2.414965 1_455
Fe0_2 Ni0_4 2.414967 1_455
Fe0_2 Ni0_2 2.414967 1_555
Fe0_2 Fe0_4 2.472918 1_455
Fe0_2 Fe0_4 2.472918 1_565
Fe0_2 Fe0_6 2.472918 1_455
Fe0_2 Fe0_6 2.472918 1_555
Fe0_3 Ni0_7 2.414965 1_455
Fe0_3 Ni0_3 2.414967 1_555
Fe0_3 Ni0_5 2.414967 1_455
Fe0_3 Fe0_5 2.472918 1_565
Fe0_3 Fe0_5 2.472918 1_455
Fe0_3 Fe0_7 2.472918 1_555
Fe0_3 Fe0_7 2.472918 1_455
Fe0_4 Ni0_0 2.414965 1_555
Fe0_4 Ni0_2 2.414967 1_545
Fe0_4 Ni0_4 2.414967 1_555
Fe0_4 Fe0_6 2.472918 1_545
Fe0_4 Fe0_6 2.472918 1_555
Fe0_5 Ni0_1 2.414965 1_555
Fe0_5 Ni0_5 2.414967 1_555
Fe0_5 Ni0_3 2.414967 1_545
Fe0_5 Fe0_7 2.472918 1_555
Fe0_5 Fe0_7 2.472918 1_545
Fe0_6 Ni0_2 2.414965 1_555
Fe0_6 Ni0_6 2.414967 1_555
Fe0_6 Ni0_0 2.414967 1_555
Fe0_7 Ni0_3 2.414965 1_555
Fe0_7 Ni0_7 2.414967 1_555
Fe0_7 Ni0_1 2.414967 1_555
Cu0_0 Cu0_6 2.472918 1_445
Cu0_0 Cu0_6 2.472918 1_555
Cu0_0 Cu0_4 2.472918 1_555
Cu0_0 Cu0_4 2.472918 1_455
Cu0_0 Cu0_2 2.472918 1_555
Cu0_0 Cu0_2 2.472918 1_545
Cu0_0 Ni0_2 2.549842 1_555
Cu0_0 Ni0_4 2.549842 1_455
Cu0_0 Ni0_0 2.549844 1_555
Cu0_0 Fe0_3 2.552007 1_555
Cu0_0 Fe0_7 2.552008 1_555
Cu0_0 Fe0_1 2.552008 1_555
Cu0_1 Cu0_7 2.472918 1_555
Cu0_1 Cu0_7 2.472918 1_445
Cu0_1 Cu0_5 2.472918 1_555
Cu0_1 Cu0_3 2.472918 1_555
Cu0_1 Cu0_5 2.472918 1_455
Cu0_1 Cu0_3 2.472918 1_545
Cu0_1 Ni0_5 2.549842 1_455
Cu0_1 Ni0_3 2.549842 1_555
Cu0_1 Ni0_1 2.549844 1_555
Cu0_1 Fe0_2 2.552007 1_556
Cu0_1 Fe0_0 2.552008 1_556
Cu0_1 Fe0_6 2.552008 1_556
Cu0_2 Cu0_4 2.472918 1_565
Cu0_2 Cu0_4 2.472918 1_455
Cu0_2 Cu0_6 2.472918 1_555
Cu0_2 Cu0_6 2.472918 1_455
Cu0_2 Ni0_6 2.549842 1_455
Cu0_2 Ni0_0 2.549842 1_565
Cu0_2 Ni0_2 2.549844 1_555
Cu0_2 Fe0_1 2.552007 1_565
Cu0_2 Fe0_5 2.552008 1_565
Cu0_2 Fe0_3 2.552008 1_555
Cu0_3 Cu0_5 2.472918 1_565
Cu0_3 Cu0_5 2.472918 1_455
Cu0_3 Cu0_7 2.472918 1_555
Cu0_3 Cu0_7 2.472918 1_455
Cu0_3 Ni0_1 2.549842 1_565
Cu0_3 Ni0_7 2.549842 1_455
Cu0_3 Ni0_3 2.549844 1_555
Cu0_3 Fe0_0 2.552007 1_566
Cu0_3 Fe0_2 2.552008 1_556
Cu0_3 Fe0_4 2.552008 1_566
Cu0_4 Cu0_6 2.472918 1_555
Cu0_4 Cu0_6 2.472918 1_545
Cu0_4 Ni0_0 2.549842 1_555
Cu0_4 Ni0_6 2.549842 1_555
Cu0_4 Ni0_4 2.549844 1_555
Cu0_4 Fe0_7 2.552007 1_555
Cu0_4 Fe0_3 2.552008 1_655
Cu0_4 Fe0_5 2.552008 1_555
Cu0_5 Cu0_7 2.472918 1_555
Cu0_5 Cu0_7 2.472918 1_545
Cu0_5 Ni0_1 2.549842 1_555
Cu0_5 Ni0_7 2.549842 1_555
Cu0_5 Ni0_5 2.549844 1_555
Cu0_5 Fe0_6 2.552007 1_556
Cu0_5 Fe0_4 2.552008 1_556
Cu0_5 Fe0_2 2.552008 1_656
Cu0_6 Ni0_4 2.549842 1_565
Cu0_6 Ni0_2 2.549842 1_555
Cu0_6 Ni0_6 2.549844 1_555
Cu0_6 Fe0_5 2.552007 1_565
Cu0_6 Fe0_1 2.552008 1_665
Cu0_6 Fe0_7 2.552008 1_555
Cu0_7 Ni0_3 2.549842 1_555
Cu0_7 Ni0_5 2.549842 1_565
Cu0_7 Ni0_7 2.549844 1_555
Cu0_7 Fe0_4 2.552007 1_566
Cu0_7 Fe0_0 2.552008 1_666
Cu0_7 Fe0_6 2.552008 1_556
Ni0_0 Ni0_6 2.472918 1_555
Ni0_0 Ni0_6 2.472918 1_445
Ni0_0 Ni0_4 2.472918 1_555
Ni0_0 Ni0_2 2.472918 1_555
Ni0_0 Ni0_4 2.472918 1_455
Ni0_0 Ni0_2 2.472918 1_545
Ni0_1 Ni0_7 2.472918 1_445
Ni0_1 Ni0_7 2.472918 1_555
Ni0_1 Ni0_5 2.472918 1_555
Ni0_1 Ni0_3 2.472918 1_555
Ni0_1 Ni0_3 2.472918 1_545
Ni0_1 Ni0_5 2.472918 1_455
Ni0_2 Ni0_4 2.472918 1_455
Ni0_2 Ni0_4 2.472918 1_565
Ni0_2 Ni0_6 2.472918 1_555
Ni0_2 Ni0_6 2.472918 1_455
Ni0_3 Ni0_5 2.472918 1_455
Ni0_3 Ni0_5 2.472918 1_565
Ni0_3 Ni0_7 2.472918 1_555
Ni0_3 Ni0_7 2.472918 1_455
Ni0_4 Ni0_6 2.472918 1_555
Ni0_4 Ni0_6 2.472918 1_545
Ni0_5 Ni0_7 2.472918 1_555
Ni0_5 Ni0_7 2.472918 1_545
