# generated using pymatgen
data_Li9Mn2Co5O16
_symmetry_space_group_name_H-M   'P 1'
_cell_length_a   2.96171952
_cell_length_b   2.96171952
_cell_length_c   38.84175265
_cell_angle_alpha   88.72849617
_cell_angle_beta   88.72849617
_cell_angle_gamma   58.35774315
_symmetry_Int_Tables_number   1
_chemical_formula_structural   Li9Mn2Co5O16
_chemical_formula_sum   'Li9 Mn2 Co5 O16'
_cell_volume   289.96763854
_cell_formula_units_Z   1
loop_
 _symmetry_equiv_pos_site_id
 _symmetry_equiv_pos_as_xyz
  1  'x, y, z'
loop_
 _atom_site_type_symbol
 _atom_site_label
 _atom_site_symmetry_multiplicity
 _atom_site_fract_x
 _atom_site_fract_y
 _atom_site_fract_z
 _atom_site_occupancy
  Li  Li0  1  0.81954400  0.81954400  0.55807700  1
  Li  Li1  1  0.18045600  0.18045600  0.44192300  1
  Li  Li2  1  0.56383600  0.56383600  0.31098300  1
  Li  Li3  1  0.93837300  0.93837300  0.18678500  1
  Li  Li4  1  0.31251900  0.31251900  0.06236300  1
  Li  Li5  1  0.68748100  0.68748100  0.93763700  1
  Li  Li6  1  0.06162700  0.06162700  0.81321500  1
  Li  Li7  1  0.43616400  0.43616400  0.68901700  1
  Li  Li8  1  0.50000000  0.50000000  0.50000000  1
  Mn  Mn0  1  0.12704700  0.12704700  0.62522200  1
  Mn  Mn1  1  0.87295300  0.87295300  0.37477800  1
  Co  Co0  1  0.24990000  0.24990000  0.24977400  1
  Co  Co1  1  0.62571300  0.62571300  0.12503900  1
  Co  Co2  1  0.00000000  0.00000000  0.00000000  1
  Co  Co3  1  0.37428700  0.37428700  0.87496100  1
  Co  Co4  1  0.75010000  0.75010000  0.75022600  1
  O  O0  1  0.48636700  0.48636700  0.59769700  1
  O  O1  1  0.84375600  0.84375600  0.46803700  1
  O  O2  1  0.23621000  0.23621000  0.34527200  1
  O  O3  1  0.59565800  0.59565800  0.22175100  1
  O  O4  1  0.96756900  0.96756900  0.09648200  1
  O  O5  1  0.34151100  0.34151100  0.97089100  1
  O  O6  1  0.71710300  0.71710300  0.84558100  1
  O  O7  1  0.09535500  0.09535500  0.72137100  1
  O  O8  1  0.15624400  0.15624400  0.53196300  1
  O  O9  1  0.51363300  0.51363300  0.40230300  1
  O  O10  1  0.90464500  0.90464500  0.27862900  1
  O  O11  1  0.28289700  0.28289700  0.15441900  1
  O  O12  1  0.65848900  0.65848900  0.02910900  1
  O  O13  1  0.03243100  0.03243100  0.90351800  1
  O  O14  1  0.40434200  0.40434200  0.77824900  1
  O  O15  1  0.76379000  0.76379000  0.65472800  1
loop_
_geom_bond_atom_site_label_1
_geom_bond_atom_site_label_2
_geom_bond_distance
_geom_bond_site_symmetry_2
Li0 O8 1.967392 1_565
Li0 O8 1.967392 1_655
Li0 O8 1.992811 1_665
Li0 O0 2.280916 1_555
Li0 O0 2.294580 1_655
Li0 O0 2.294580 1_565
Li1 O1 1.967392 1_455
Li1 O1 1.967392 1_545
Li1 O1 1.992811 1_445
Li1 O9 2.280916 1_555
Li1 O9 2.294580 1_455
Li1 O9 2.294580 1_545
Li2 O10 2.096345 1_455
Li2 O10 2.096345 1_545
Li2 O2 2.128406 1_555
Li2 O10 2.138545 1_555
Li2 O2 2.171149 1_565
Li2 O2 2.171149 1_655
Li3 O11 2.088865 1_655
Li3 O11 2.088865 1_565
Li3 O11 2.154385 1_665
Li3 O3 2.155778 1_565
Li3 O3 2.155778 1_655
Li3 O3 2.205388 1_555
Li4 O12 2.107183 1_545
Li4 O12 2.107183 1_455
Li4 O4 2.130326 1_545
Li4 O4 2.130326 1_455
Li4 O12 2.179995 1_555
Li4 O4 2.195165 1_445
Li5 O5 2.107183 1_655
Li5 O5 2.107183 1_565
Li5 O13 2.130326 1_565
Li5 O13 2.130326 1_655
Li5 O5 2.179995 1_555
Li5 O13 2.195165 1_665
Li6 O6 2.088865 1_545
Li6 O6 2.088865 1_455
Li6 O6 2.154385 1_445
Li6 O14 2.155778 1_545
Li6 O14 2.155778 1_455
Li6 O14 2.205388 1_555
Li7 O7 2.096345 1_655
Li7 O7 2.096345 1_565
Li7 O15 2.128406 1_555
Li7 O7 2.138545 1_555
Li7 O15 2.171149 1_455
Li7 O15 2.171149 1_545
Li8 O8 2.080928 1_655
Li8 O8 2.080928 1_565
Li8 O1 2.080928 1_545
Li8 O1 2.080928 1_455
Li8 O8 2.142380 1_555
Li8 O1 2.142380 1_555
Mn0 O0 1.948562 1_455
Mn0 O0 1.948562 1_545
Mn0 O15 1.984890 1_455
Mn0 O15 1.984890 1_545
Mn0 O0 2.120230 1_555
Mn0 O15 2.175652 1_445
Mn1 O9 1.948562 1_655
Mn1 O9 1.948562 1_565
Mn1 O2 1.984890 1_565
Mn1 O2 1.984890 1_655
Mn1 O9 2.120230 1_555
Mn1 O2 2.175652 1_665
Co0 O3 1.987513 1_455
Co0 O3 1.987513 1_545
Co0 O10 2.006793 1_545
Co0 O10 2.006793 1_455
Co0 O3 2.069638 1_555
Co0 O10 2.083917 1_445
Co1 O4 2.007579 1_545
Co1 O4 2.007579 1_455
Co1 O11 2.023673 1_565
Co1 O11 2.023673 1_655
Co1 O4 2.063122 1_555
Co1 O11 2.083946 1_555
Co2 O12 2.020473 1_455
Co2 O12 2.020473 1_545
Co2 O5 2.020473 1_454
Co2 O5 2.020473 1_544
Co2 O12 2.072768 1_445
Co2 O5 2.072768 1_554
Co3 O13 2.007579 1_655
Co3 O13 2.007579 1_565
Co3 O6 2.023673 1_545
Co3 O6 2.023673 1_455
Co3 O13 2.063122 1_555
Co3 O6 2.083946 1_555
Co4 O14 1.987513 1_565
Co4 O14 1.987513 1_655
Co4 O7 2.006793 1_655
Co4 O7 2.006793 1_565
Co4 O14 2.069638 1_555
Co4 O7 2.083917 1_665
