# generated using pymatgen
data_Lu5(Co2Ge5)2
_symmetry_space_group_name_H-M   'P 1'
_cell_length_a   4.09785900
_cell_length_b   12.65521600
_cell_length_c   12.65521600
_cell_angle_alpha   90.00000000
_cell_angle_beta   90.00000000
_cell_angle_gamma   90.00000000
_symmetry_Int_Tables_number   1
_chemical_formula_structural   Lu5(Co2Ge5)2
_chemical_formula_sum   'Lu10 Co8 Ge20'
_cell_volume   656.29052646
_cell_formula_units_Z   2
loop_
 _symmetry_equiv_pos_site_id
 _symmetry_equiv_pos_as_xyz
  1  'x, y, z'
loop_
 _atom_site_type_symbol
 _atom_site_label
 _atom_site_symmetry_multiplicity
 _atom_site_fract_x
 _atom_site_fract_y
 _atom_site_fract_z
 _atom_site_occupancy
  Lu  Lu0  1  0.00000000  0.50000000  0.50000000  1
  Lu  Lu1  1  0.00000000  0.00000000  0.00000000  1
  Lu  Lu2  1  0.50000000  0.17469400  0.67469400  1
  Lu  Lu3  1  0.50000000  0.82530600  0.32530600  1
  Lu  Lu4  1  0.50000000  0.32530600  0.17469400  1
  Lu  Lu5  1  0.50000000  0.67469400  0.82530600  1
  Lu  Lu6  1  0.50000000  0.38598800  0.88598800  1
  Lu  Lu7  1  0.50000000  0.61401200  0.11401200  1
  Lu  Lu8  1  0.50000000  0.11401200  0.38598800  1
  Lu  Lu9  1  0.50000000  0.88598800  0.61401200  1
  Co  Co0  1  0.00000000  0.52198100  0.74662400  1
  Co  Co1  1  0.00000000  0.47801900  0.25337600  1
  Co  Co2  1  0.00000000  0.97801900  0.24662400  1
  Co  Co3  1  0.00000000  0.02198100  0.75337600  1
  Co  Co4  1  0.00000000  0.74662400  0.47801900  1
  Co  Co5  1  0.00000000  0.25337600  0.52198100  1
  Co  Co6  1  0.00000000  0.24662400  0.02198100  1
  Co  Co7  1  0.00000000  0.75337600  0.97801900  1
  Ge  Ge0  1  0.00000000  0.06818300  0.56818300  1
  Ge  Ge1  1  0.00000000  0.93181700  0.43181700  1
  Ge  Ge2  1  0.00000000  0.43181700  0.06818300  1
  Ge  Ge3  1  0.00000000  0.56818300  0.93181700  1
  Ge  Ge4  1  0.00000000  0.69648600  0.65778400  1
  Ge  Ge5  1  0.00000000  0.30351400  0.34221600  1
  Ge  Ge6  1  0.00000000  0.80351400  0.15778400  1
  Ge  Ge7  1  0.00000000  0.19648600  0.84221600  1
  Ge  Ge8  1  0.00000000  0.65778400  0.30351400  1
  Ge  Ge9  1  0.00000000  0.34221600  0.69648600  1
  Ge  Ge10  1  0.00000000  0.15778400  0.19648600  1
  Ge  Ge11  1  0.00000000  0.84221600  0.80351400  1
  Ge  Ge12  1  0.50000000  0.50734000  0.66321400  1
  Ge  Ge13  1  0.50000000  0.49266000  0.33678600  1
  Ge  Ge14  1  0.50000000  0.99266000  0.16321400  1
  Ge  Ge15  1  0.50000000  0.00734000  0.83678600  1
  Ge  Ge16  1  0.50000000  0.66321400  0.49266000  1
  Ge  Ge17  1  0.50000000  0.33678600  0.50734000  1
  Ge  Ge18  1  0.50000000  0.16321400  0.00734000  1
  Ge  Ge19  1  0.50000000  0.83678600  0.99266000  1
loop_
_geom_bond_atom_site_label_1
_geom_bond_atom_site_label_2
_geom_bond_distance
_geom_bond_site_symmetry_2
Co0 Ge12 2.312288 1_555
Co0 Ge12 2.312288 1_455
Co0 Ge9 2.361793 1_555
Co0 Ge3 2.415492 1_555
Co0 Ge4 2.478114 1_555
Co0 Lu5 2.987409 1_455
Co0 Lu5 2.987409 1_555
Co0 Lu0 3.133452 1_555
Co0 Lu6 3.204777 1_455
Co0 Lu6 3.204777 1_555
Co1 Ge13 2.312288 1_555
Co1 Ge13 2.312288 1_455
Co1 Ge8 2.361793 1_555
Co1 Ge2 2.415492 1_555
Co1 Ge5 2.478114 1_555
Co1 Lu4 2.987409 1_455
Co1 Lu4 2.987409 1_555
Co1 Lu0 3.133452 1_555
Co1 Lu7 3.204777 1_455
Co1 Lu7 3.204777 1_555
Co2 Ge14 2.312288 1_455
Co2 Ge14 2.312288 1_555
Co2 Ge10 2.361793 1_565
Co2 Ge1 2.415492 1_555
Co2 Ge6 2.478114 1_555
Co2 Lu3 2.987409 1_455
Co2 Lu3 2.987409 1_555
Co2 Lu1 3.133452 1_565
Co2 Lu8 3.204777 1_465
Co2 Lu8 3.204777 1_565
Co3 Ge15 2.312288 1_455
Co3 Ge15 2.312288 1_555
Co3 Ge11 2.361793 1_545
Co3 Ge0 2.415492 1_555
Co3 Ge7 2.478114 1_555
Co3 Lu2 2.987409 1_455
Co3 Lu2 2.987409 1_555
Co3 Lu1 3.133452 1_556
Co3 Lu9 3.204777 1_445
Co3 Lu9 3.204777 1_545
Co4 Ge16 2.312288 1_555
Co4 Ge16 2.312288 1_455
Co4 Ge4 2.361793 1_555
Co4 Ge1 2.415492 1_555
Co4 Ge8 2.478114 1_555
Co4 Lu3 2.987409 1_455
Co4 Lu3 2.987409 1_555
Co4 Lu0 3.133452 1_555
Co4 Lu9 3.204777 1_455
Co4 Lu9 3.204777 1_555
Co5 Ge17 2.312288 1_455
Co5 Ge17 2.312288 1_555
Co5 Ge5 2.361793 1_555
Co5 Ge0 2.415492 1_555
Co5 Ge9 2.478114 1_555
Co5 Lu2 2.987409 1_455
Co5 Lu2 2.987409 1_555
Co5 Lu0 3.133452 1_555
Co5 Lu8 3.204777 1_455
Co5 Lu8 3.204777 1_555
Co6 Ge18 2.312288 1_455
Co6 Ge18 2.312288 1_555
Co6 Ge7 2.361793 1_554
Co6 Ge2 2.415492 1_555
Co6 Ge10 2.478114 1_555
Co6 Lu4 2.987409 1_455
Co6 Lu4 2.987409 1_555
Co6 Lu1 3.133452 1_555
Co6 Lu6 3.204777 1_454
Co6 Lu6 3.204777 1_554
Co7 Ge19 2.312288 1_455
Co7 Ge19 2.312288 1_555
Co7 Ge6 2.361793 1_556
Co7 Ge3 2.415492 1_555
Co7 Ge11 2.478114 1_555
Co7 Lu5 2.987409 1_455
Co7 Lu5 2.987409 1_555
Co7 Lu1 3.133452 1_566
Co7 Lu7 3.204777 1_556
Co7 Lu7 3.204777 1_456
Ge0 Ge1 2.440567 1_545
Ge0 Lu2 2.798551 1_555
Ge0 Lu2 2.798551 1_455
Ge0 Lu8 3.138601 1_555
Ge0 Lu8 3.138601 1_455
Ge0 Lu9 3.138601 1_445
Ge0 Lu9 3.138601 1_545
Ge1 Lu3 2.798551 1_555
Ge1 Lu3 2.798551 1_455
Ge1 Lu8 3.138601 1_465
Ge1 Lu8 3.138601 1_565
Ge1 Lu9 3.138601 1_455
Ge1 Lu9 3.138601 1_555
Ge2 Ge3 2.440567 1_554
Ge2 Lu4 2.798551 1_455
Ge2 Lu4 2.798551 1_555
Ge2 Lu7 3.138601 1_455
Ge2 Lu7 3.138601 1_555
Ge2 Lu6 3.138601 1_554
Ge2 Lu6 3.138601 1_454
Ge3 Lu5 2.798551 1_555
Ge3 Lu5 2.798551 1_455
Ge3 Lu7 3.138601 1_556
Ge3 Lu7 3.138601 1_456
Ge3 Lu6 3.138601 1_455
Ge3 Lu6 3.138601 1_555
Ge4 Lu5 2.961196 1_455
Ge4 Lu5 2.961196 1_555
Ge4 Lu0 3.189078 1_555
Ge4 Lu9 3.202542 1_455
Ge4 Lu9 3.202542 1_555
Ge5 Lu4 2.961196 1_555
Ge5 Lu4 2.961196 1_455
Ge5 Lu0 3.189078 1_555
Ge5 Lu8 3.202542 1_555
Ge5 Lu8 3.202542 1_455
Ge6 Ge8 2.608156 1_555
Ge6 Lu3 2.961196 1_455
Ge6 Lu3 2.961196 1_555
Ge6 Lu1 3.189078 1_565
Ge6 Lu7 3.202542 1_455
Ge6 Lu7 3.202542 1_555
Ge7 Ge9 2.608156 1_555
Ge7 Lu2 2.961196 1_555
Ge7 Lu2 2.961196 1_455
Ge7 Lu1 3.189078 1_556
Ge7 Lu6 3.202542 1_455
Ge7 Lu6 3.202542 1_555
Ge8 Lu3 2.961196 1_455
Ge8 Lu3 2.961196 1_555
Ge8 Lu0 3.189078 1_555
Ge8 Lu7 3.202542 1_455
Ge8 Lu7 3.202542 1_555
Ge9 Lu2 2.961196 1_555
Ge9 Lu2 2.961196 1_455
Ge9 Lu0 3.189078 1_555
Ge9 Lu6 3.202542 1_555
Ge9 Lu6 3.202542 1_455
Ge10 Ge5 2.608156 1_555
Ge10 Lu4 2.961196 1_455
Ge10 Lu4 2.961196 1_555
Ge10 Lu1 3.189078 1_555
Ge10 Lu8 3.202542 1_555
Ge10 Lu8 3.202542 1_455
Ge11 Ge4 2.608156 1_555
Ge11 Lu5 2.961196 1_555
Ge11 Lu5 2.961196 1_455
Ge11 Lu1 3.189078 1_566
Ge11 Lu9 3.202542 1_455
Ge11 Lu9 3.202542 1_555
Ge12 Lu0 2.910853 1_555
Ge12 Lu0 2.910853 1_655
Ge12 Lu5 2.948453 1_555
Ge12 Lu6 3.210401 1_555
Ge13 Lu0 2.910853 1_555
Ge13 Lu0 2.910853 1_655
Ge13 Lu4 2.948453 1_555
Ge13 Lu7 3.210401 1_555
Ge14 Lu1 2.910853 1_565
Ge14 Lu1 2.910853 1_665
Ge14 Lu3 2.948453 1_555
Ge14 Lu8 3.210401 1_565
Ge15 Lu1 2.910853 1_556
Ge15 Lu1 2.910853 1_656
Ge15 Lu2 2.948453 1_555
Ge15 Lu9 3.210401 1_545
Ge16 Lu0 2.910853 1_555
Ge16 Lu0 2.910853 1_655
Ge16 Lu3 2.948453 1_555
Ge16 Lu9 3.210401 1_555
Ge17 Lu0 2.910853 1_555
Ge17 Lu0 2.910853 1_655
Ge17 Lu2 2.948453 1_555
Ge17 Lu8 3.210401 1_555
Ge18 Lu1 2.910853 1_655
Ge18 Lu1 2.910853 1_555
Ge18 Lu4 2.948453 1_555
Ge18 Lu6 3.210401 1_554
Ge19 Lu1 2.910853 1_666
Ge19 Lu1 2.910853 1_566
Ge19 Lu5 2.948453 1_555
Ge19 Lu7 3.210401 1_556
