# generated using pymatgen
data_Li9Mn7O16
_symmetry_space_group_name_H-M   'P 1'
_cell_length_a   2.87089500
_cell_length_b   5.84511600
_cell_length_c   17.74477654
_cell_angle_alpha   89.25736231
_cell_angle_beta   90.00000000
_cell_angle_gamma   90.00000000
_symmetry_Int_Tables_number   1
_chemical_formula_structural   Li9Mn7O16
_chemical_formula_sum   'Li9 Mn7 O16'
_cell_volume   297.74501309
_cell_formula_units_Z   1
loop_
 _symmetry_equiv_pos_site_id
 _symmetry_equiv_pos_as_xyz
  1  'x, y, z'
loop_
 _atom_site_type_symbol
 _atom_site_label
 _atom_site_symmetry_multiplicity
 _atom_site_fract_x
 _atom_site_fract_y
 _atom_site_fract_z
 _atom_site_occupancy
  Li  Li0  1  0.50000000  0.50066900  0.75672700  1
  Li  Li1  1  0.50000000  0.00000000  0.50000000  1
  Li  Li2  1  0.50000000  0.49933100  0.24327300  1
  Li  Li3  1  0.00000000  0.24981500  0.62407300  1
  Li  Li4  1  0.00000000  0.75018500  0.37592700  1
  Li  Li5  1  0.00000000  0.25557400  0.11434200  1
  Li  Li6  1  0.50000000  0.00000000  0.00000000  1
  Li  Li7  1  0.00000000  0.74442600  0.88565800  1
  Li  Li8  1  0.50000000  0.50000000  0.00000000  1
  Mn  Mn0  1  0.00000000  0.25474100  0.88611600  1
  Mn  Mn1  1  0.00000000  0.74525900  0.11388400  1
  Mn  Mn2  1  0.00000000  0.75180100  0.62816000  1
  Mn  Mn3  1  0.00000000  0.24819900  0.37184000  1
  Mn  Mn4  1  0.50000000  0.50000000  0.50000000  1
  Mn  Mn5  1  0.50000000  0.99758400  0.24294900  1
  Mn  Mn6  1  0.50000000  0.00241600  0.75705100  1
  O  O0  1  0.50000000  0.47524000  0.87589400  1
  O  O1  1  0.50000000  0.98120900  0.62521200  1
  O  O2  1  0.50000000  0.47771900  0.37066900  1
  O  O3  1  0.00000000  0.23137800  0.76112600  1
  O  O4  1  0.00000000  0.72819400  0.49764000  1
  O  O5  1  0.00000000  0.22527800  0.24517500  1
  O  O6  1  0.50000000  0.97359000  0.11979400  1
  O  O7  1  0.00000000  0.74725100  0.01240400  1
  O  O8  1  0.50000000  0.52228100  0.62933100  1
  O  O9  1  0.50000000  0.01879100  0.37478800  1
  O  O10  1  0.50000000  0.52476000  0.12410600  1
  O  O11  1  0.00000000  0.27180600  0.50236000  1
  O  O12  1  0.00000000  0.76862200  0.23887400  1
  O  O13  1  0.00000000  0.25274900  0.98759600  1
  O  O14  1  0.50000000  0.02641000  0.88020600  1
  O  O15  1  0.00000000  0.77472200  0.75482500  1
loop_
_geom_bond_atom_site_label_1
_geom_bond_atom_site_label_2
_geom_bond_distance
_geom_bond_site_symmetry_2
Li0 O0 2.117887 1_555
Li0 O3 2.130965 1_655
Li0 O3 2.130965 1_555
Li0 O15 2.150870 1_655
Li0 O15 2.150870 1_555
Li0 O8 2.262505 1_555
Li1 O11 2.141979 1_555
Li1 O4 2.141979 1_645
Li1 O11 2.141979 1_655
Li1 O4 2.141979 1_545
Li1 O1 2.223150 1_545
Li1 O9 2.223150 1_555
Li2 O10 2.117887 1_555
Li2 O12 2.130965 1_655
Li2 O12 2.130965 1_555
Li2 O5 2.150870 1_655
Li2 O5 2.150870 1_555
Li2 O2 2.262505 1_555
Li3 O1 2.127228 1_545
Li3 O1 2.127228 1_445
Li3 O8 2.146958 1_555
Li3 O8 2.146958 1_455
Li3 O11 2.161928 1_555
Li3 O3 2.432966 1_555
Li4 O9 2.127228 1_565
Li4 O9 2.127228 1_465
Li4 O2 2.146958 1_555
Li4 O2 2.146958 1_455
Li4 O4 2.161928 1_555
Li4 O12 2.432966 1_555
Li5 O10 2.138517 1_555
Li5 O10 2.138517 1_455
Li5 O6 2.186869 1_445
Li5 O6 2.186869 1_545
Li5 O13 2.249354 1_554
Li5 O5 2.326057 1_555
Li6 O13 2.069561 1_654
Li6 O13 2.069561 1_554
Li6 O7 2.069561 1_645
Li6 O7 2.069561 1_545
Li6 O14 2.129319 1_554
Li6 O6 2.129319 1_545
Li7 O0 2.138517 1_555
Li7 O0 2.138517 1_455
Li7 O14 2.186869 1_565
Li7 O14 2.186869 1_465
Li7 O7 2.249354 1_556
Li7 O15 2.326057 1_555
Li8 O13 2.050814 1_554
Li8 O13 2.050814 1_654
Li8 O7 2.050814 1_655
Li8 O7 2.050814 1_555
Li8 O10 2.208855 1_555
Li8 O0 2.208855 1_554
Mn0 O13 1.800627 1_555
Mn0 O0 1.936095 1_455
Mn0 O0 1.936095 1_555
Mn0 O14 1.963759 1_455
Mn0 O14 1.963759 1_555
Mn0 O3 2.223886 1_555
Mn1 O7 1.800627 1_555
Mn1 O10 1.936095 1_455
Mn1 O10 1.936095 1_555
Mn1 O6 1.963759 1_555
Mn1 O6 1.963759 1_455
Mn1 O12 2.223886 1_555
Mn2 O1 1.964557 1_555
Mn2 O1 1.964557 1_455
Mn2 O8 1.964696 1_455
Mn2 O8 1.964696 1_555
Mn2 O15 2.253364 1_555
Mn2 O4 2.321940 1_555
Mn3 O9 1.964557 1_455
Mn3 O9 1.964557 1_555
Mn3 O2 1.964696 1_555
Mn3 O2 1.964696 1_455
Mn3 O5 2.253364 1_555
Mn3 O11 2.321940 1_555
Mn4 O4 1.959564 1_655
Mn4 O4 1.959564 1_555
Mn4 O11 1.959564 1_655
Mn4 O11 1.959564 1_555
Mn4 O2 2.300327 1_555
Mn4 O8 2.300327 1_555
Mn5 O5 1.958245 1_565
Mn5 O5 1.958245 1_665
Mn5 O12 1.964515 1_655
Mn5 O12 1.964515 1_555
Mn5 O6 2.191667 1_555
Mn5 O9 2.344339 1_565
Mn6 O15 1.958245 1_545
Mn6 O15 1.958245 1_645
Mn6 O3 1.964515 1_655
Mn6 O3 1.964515 1_555
Mn6 O14 2.191667 1_555
Mn6 O1 2.344339 1_545
