# generated using pymatgen
data_Na4P6PbO18
_symmetry_space_group_name_H-M   'P 1'
_cell_length_a   7.39032898
_cell_length_b   7.95627915
_cell_length_c   7.94610407
_cell_angle_alpha   117.71126728
_cell_angle_beta   101.61227341
_cell_angle_gamma   95.45001424
_symmetry_Int_Tables_number   1
_chemical_formula_structural   Na4P6PbO18
_chemical_formula_sum   'Na4 P6 Pb1 O18'
_cell_volume   395.47466555
_cell_formula_units_Z   1
loop_
 _symmetry_equiv_pos_site_id
 _symmetry_equiv_pos_as_xyz
  1  'x, y, z'
loop_
 _atom_site_type_symbol
 _atom_site_label
 _atom_site_symmetry_multiplicity
 _atom_site_fract_x
 _atom_site_fract_y
 _atom_site_fract_z
 _atom_site_occupancy
  Na  Na0  1  0.18028600  0.34616200  0.52801400  1
  Na  Na1  1  0.82620100  0.65979700  0.48887900  1
  Na  Na2  1  0.49512800  0.50810400  0.99815600  1
  Na  Na3  1  0.11903900  0.76221700  0.95331800  1
  P  P0  1  0.76493400  0.33656800  0.65377700  1
  P  P1  1  0.23056600  0.66905400  0.34556700  1
  P  P2  1  0.50874800  0.22127300  0.26684200  1
  P  P3  1  0.49202200  0.77911200  0.72723500  1
  P  P4  1  0.22568800  0.02146400  0.70535800  1
  P  P5  1  0.76798200  0.97865500  0.30123000  1
  Pb  Pb0  1  0.90975200  0.19860900  0.02388400  1
  O  O0  1  0.25337200  0.22821100  0.75340900  1
  O  O1  1  0.74246100  0.77278900  0.25529500  1
  O  O2  1  0.29818300  0.18626400  0.20070200  1
  O  O3  1  0.70436400  0.82909200  0.79475600  1
  O  O4  1  0.19665000  0.88732900  0.46791900  1
  O  O5  1  0.79399700  0.11423500  0.53748700  1
  O  O6  1  0.07092800  0.93757000  0.76131500  1
  O  O7  1  0.92523700  0.06507100  0.24916800  1
  O  O8  1  0.37935400  0.65408800  0.78109500  1
  O  O9  1  0.63523300  0.33483800  0.21004100  1
  O  O10  1  0.25513000  0.63897600  0.15258100  1
  O  O11  1  0.73093800  0.36637500  0.84429400  1
  O  O12  1  0.07983700  0.52586200  0.34530000  1
  O  O13  1  0.92149700  0.47481300  0.65787600  1
  O  O14  1  0.43348500  0.68403500  0.48527000  1
  O  O15  1  0.56586400  0.32258700  0.50958600  1
  O  O16  1  0.42645100  0.98482300  0.79446800  1
  O  O17  1  0.56667300  0.01202700  0.20717600  1
loop_
_geom_bond_atom_site_label_1
_geom_bond_atom_site_label_2
_geom_bond_distance
_geom_bond_site_symmetry_2
Na0 O0 2.377010 1_555
Na0 O8 2.398524 1_555
Na0 O13 2.440155 1_455
Na0 O7 2.524533 1_455
Na0 O12 2.530106 1_555
Na0 O2 2.680978 1_555
Na0 O15 2.901812 1_555
Na1 O1 2.414819 1_555
Na1 O6 2.461038 1_655
Na1 O12 2.461793 1_655
Na1 O13 2.473808 1_555
Na1 O9 2.511162 1_555
Na1 O3 2.568886 1_555
Na1 O14 2.922210 1_555
Na2 O1 2.390454 1_556
Na2 O0 2.398128 1_555
Na2 O11 2.398378 1_555
Na2 O10 2.403019 1_556
Na2 O8 2.552225 1_555
Na2 O9 2.745026 1_556
Na3 O10 2.338848 1_556
Na3 O13 2.421769 1_455
Na3 O6 2.501209 1_555
Na3 O8 2.567740 1_555
O0 P4 1.487939 1_555
O1 P5 1.486335 1_555
O2 P2 1.492533 1_555
O3 P3 1.500902 1_555
O3 Pb0 2.706263 1_566
O4 P1 1.623122 1_555
O4 P4 1.632649 1_565
O5 P5 1.629977 1_545
O5 P0 1.631261 1_555
O6 P4 1.512313 1_565
O6 Pb0 2.743310 1_466
O7 P5 1.516836 1_545
O7 Pb0 2.460893 1_555
O8 P3 1.499339 1_555
O9 P2 1.510829 1_555
O9 Pb0 2.759272 1_555
O10 P1 1.490244 1_555
O11 P0 1.497230 1_555
O11 Pb0 2.629044 1_556
O12 P1 1.514774 1_555
O12 Pb0 2.604528 1_455
O13 P0 1.503132 1_555
O14 P1 1.633474 1_555
O14 P3 1.645113 1_555
O15 P0 1.631358 1_555
O15 P2 1.646218 1_555
O16 P4 1.624483 1_565
O16 P3 1.625017 1_555
O17 P5 1.629231 1_545
O17 P2 1.631767 1_555
