# generated using pymatgen
data_CaMg6Nb
_symmetry_space_group_name_H-M   'P 1'
_cell_length_a   5.16438900
_cell_length_b   6.48460500
_cell_length_c   11.21556500
_cell_angle_alpha   90.00000000
_cell_angle_beta   90.00000000
_cell_angle_gamma   90.00000000
_symmetry_Int_Tables_number   1
_chemical_formula_structural   CaMg6Nb
_chemical_formula_sum   'Ca2 Mg12 Nb2'
_cell_volume   375.59831123
_cell_formula_units_Z   2
loop_
 _symmetry_equiv_pos_site_id
 _symmetry_equiv_pos_as_xyz
  1  'x, y, z'
loop_
 _atom_site_type_symbol
 _atom_site_label
 _atom_site_symmetry_multiplicity
 _atom_site_fract_x
 _atom_site_fract_y
 _atom_site_fract_z
 _atom_site_occupancy
  Ca  Ca0  1  0.00000000  0.50000000  0.33096100  1
  Ca  Ca1  1  0.00000000  0.00000000  0.83096100  1
  Mg  Mg0  1  0.00000000  0.26553600  0.08689300  1
  Mg  Mg1  1  0.00000000  0.73446400  0.08689300  1
  Mg  Mg2  1  0.00000000  0.50000000  0.83355200  1
  Mg  Mg3  1  0.50000000  0.25462600  0.91883200  1
  Mg  Mg4  1  0.50000000  0.74537400  0.91883200  1
  Mg  Mg5  1  0.50000000  0.50000000  0.66462700  1
  Mg  Mg6  1  0.00000000  0.76553600  0.58689300  1
  Mg  Mg7  1  0.00000000  0.23446400  0.58689300  1
  Mg  Mg8  1  0.00000000  0.00000000  0.33355200  1
  Mg  Mg9  1  0.50000000  0.75462600  0.41883200  1
  Mg  Mg10  1  0.50000000  0.24537400  0.41883200  1
  Mg  Mg11  1  0.50000000  0.00000000  0.16462700  1
  Nb  Nb0  1  0.50000000  0.50000000  0.15941000  1
  Nb  Nb1  1  0.50000000  0.00000000  0.65941000  1
loop_
_geom_bond_atom_site_label_1
_geom_bond_atom_site_label_2
_geom_bond_distance
_geom_bond_site_symmetry_2
Ca0 Mg1 3.131258 1_555
Ca0 Mg0 3.131258 1_555
Ca0 Mg10 3.219515 1_455
Ca0 Mg10 3.219515 1_555
Ca0 Mg9 3.219515 1_455
Ca0 Mg9 3.219515 1_555
Ca0 Nb0 3.220196 1_455
Ca0 Nb0 3.220196 1_555
Ca0 Mg8 3.242433 1_565
Ca0 Mg8 3.242433 1_555
Ca0 Mg7 3.347275 1_555
Ca0 Mg6 3.347275 1_555
Ca1 Mg7 3.131258 1_555
Ca1 Mg6 3.131258 1_545
Ca1 Mg4 3.219515 1_445
Ca1 Mg3 3.219515 1_555
Ca1 Mg4 3.219515 1_545
Ca1 Mg3 3.219515 1_455
Ca1 Nb1 3.220196 1_555
Ca1 Nb1 3.220196 1_455
Ca1 Mg2 3.242433 1_555
Ca1 Mg2 3.242433 1_545
Ca1 Mg1 3.347275 1_546
Ca1 Mg0 3.347275 1_556
Mg0 Mg1 3.040813 1_555
Mg0 Nb0 3.104972 1_455
Mg0 Nb0 3.104972 1_555
Mg0 Mg3 3.197746 1_454
Mg0 Mg3 3.197746 1_554
Mg0 Mg2 3.222573 1_554
Mg0 Mg11 3.223778 1_555
Mg0 Mg11 3.223778 1_455
Mg0 Mg8 3.258528 1_555
Mg0 Mg1 3.443792 1_545
Mg1 Nb0 3.104972 1_455
Mg1 Nb0 3.104972 1_555
Mg1 Mg4 3.197746 1_554
Mg1 Mg4 3.197746 1_454
Mg1 Mg2 3.222573 1_554
Mg1 Mg11 3.223778 1_465
Mg1 Mg11 3.223778 1_565
Mg1 Mg8 3.258528 1_565
Mg2 Mg3 3.180302 1_555
Mg2 Mg4 3.180302 1_555
Mg2 Mg3 3.180302 1_455
Mg2 Mg4 3.180302 1_455
Mg2 Mg5 3.202686 1_555
Mg2 Mg5 3.202686 1_455
Mg2 Mg6 3.258528 1_555
Mg2 Mg7 3.258528 1_555
Mg3 Nb0 3.132435 1_556
Mg3 Mg4 3.182307 1_555
Mg3 Mg5 3.265007 1_555
Mg3 Mg4 3.302298 1_545
Mg3 Nb1 3.345423 1_555
Mg4 Nb0 3.132435 1_556
Mg4 Mg5 3.265007 1_555
Mg4 Nb1 3.345423 1_565
Mg5 Mg9 3.213386 1_555
Mg5 Mg7 3.223778 1_655
Mg5 Mg6 3.223778 1_555
Mg5 Mg6 3.223778 1_655
Mg5 Mg7 3.223778 1_555
Mg5 Nb1 3.242830 1_555
Mg5 Nb1 3.242830 1_565
Mg6 Mg7 3.040813 1_565
Mg6 Nb1 3.104972 1_565
Mg6 Nb1 3.104972 1_465
Mg6 Mg9 3.197746 1_455
Mg6 Mg9 3.197746 1_555
Mg6 Mg8 3.222573 1_565
Mg6 Mg7 3.443792 1_555
Mg7 Nb1 3.104972 1_455
Mg7 Nb1 3.104972 1_555
Mg7 Mg8 3.222573 1_555
Mg8 Mg9 3.180302 1_545
Mg8 Mg9 3.180302 1_445
Mg9 Nb1 3.132435 1_565
Mg9 Nb0 3.345423 1_555
Mg10 Nb1 3.132435 1_555
Mg10 Mg8 3.180302 1_655
Mg10 Mg8 3.180302 1_555
Mg10 Mg9 3.182307 1_545
Mg10 Mg7 3.197746 1_555
Mg10 Mg7 3.197746 1_655
Mg10 Mg5 3.213386 1_555
Mg10 Mg11 3.265007 1_555
Mg10 Mg9 3.302298 1_555
Mg10 Nb0 3.345423 1_555
Mg11 Mg8 3.202686 1_655
Mg11 Mg8 3.202686 1_555
Mg11 Mg4 3.213386 1_544
Mg11 Mg3 3.213386 1_554
Mg11 Nb0 3.242830 1_555
Mg11 Nb0 3.242830 1_545
Mg11 Mg9 3.265007 1_545
