# generated using pymatgen
data_U2Co3Si
_symmetry_space_group_name_H-M   'P 1'
_cell_length_a   5.12914200
_cell_length_b   5.12914176
_cell_length_c   7.50793500
_cell_angle_alpha   90.00000000
_cell_angle_beta   90.00000000
_cell_angle_gamma   120.00000152
_symmetry_Int_Tables_number   1
_chemical_formula_structural   U2Co3Si
_chemical_formula_sum   'U4 Co6 Si2'
_cell_volume   171.05688318
_cell_formula_units_Z   2
loop_
 _symmetry_equiv_pos_site_id
 _symmetry_equiv_pos_as_xyz
  1  'x, y, z'
loop_
 _atom_site_type_symbol
 _atom_site_label
 _atom_site_symmetry_multiplicity
 _atom_site_fract_x
 _atom_site_fract_y
 _atom_site_fract_z
 _atom_site_occupancy
  U  U0  1  0.33333300  0.66666700  0.42915100  1
  U  U1  1  0.66666700  0.33333300  0.57084900  1
  U  U2  1  0.66666700  0.33333300  0.92915100  1
  U  U3  1  0.33333300  0.66666700  0.07084900  1
  Co  Co0  1  0.83310000  0.16690000  0.25000000  1
  Co  Co1  1  0.83310000  0.66620000  0.25000000  1
  Co  Co2  1  0.33380000  0.16690000  0.25000000  1
  Co  Co3  1  0.16690000  0.83310000  0.75000000  1
  Co  Co4  1  0.16690000  0.33380000  0.75000000  1
  Co  Co5  1  0.66620000  0.83310000  0.75000000  1
  Si  Si0  1  0.00000000  0.00000000  0.50000000  1
  Si  Si1  1  0.00000000  0.00000000  0.00000000  1
loop_
_geom_bond_atom_site_label_1
_geom_bond_atom_site_label_2
_geom_bond_distance
_geom_bond_site_symmetry_2
U0 U3 2.690108 1_555
U1 U2 2.690108 1_555
Co0 Si0 2.391977 1_655
Co0 Si1 2.391977 1_655
Co0 Co1 2.560980 1_555
Co0 Co2 2.560981 1_555
Co0 Co1 2.568161 1_545
Co0 Co2 2.568161 1_655
Co0 U1 2.826493 1_555
Co0 U2 2.826493 1_554
Co0 U0 2.895893 1_545
Co0 U3 2.895893 1_545
Co0 U0 2.895893 1_655
Co0 U3 2.895893 1_655
Co1 Si0 2.391977 1_665
Co1 Si1 2.391977 1_665
Co1 Co2 2.560980 1_555
Co1 Co2 2.568161 1_665
Co1 U2 2.826495 1_554
Co1 U1 2.826495 1_555
Co1 U0 2.895891 1_655
Co1 U3 2.895891 1_655
Co1 U0 2.895896 1_555
Co1 U3 2.895896 1_555
Co2 Si1 2.391977 1_555
Co2 Si0 2.391977 1_555
Co2 U2 2.826495 1_554
Co2 U1 2.826495 1_555
Co2 U0 2.895891 1_545
Co2 U3 2.895891 1_545
Co2 U3 2.895896 1_555
Co2 U0 2.895896 1_555
Co3 Si0 2.391977 1_565
Co3 Si1 2.391977 1_566
Co3 Co4 2.560980 1_555
Co3 Co5 2.560981 1_555
Co3 Co4 2.568161 1_565
Co3 Co5 2.568161 1_455
Co3 U3 2.826493 1_556
Co3 U0 2.826493 1_555
Co3 U1 2.895893 1_565
Co3 U2 2.895893 1_565
Co3 U1 2.895893 1_455
Co3 U2 2.895893 1_455
Co4 Si1 2.391977 1_556
Co4 Si0 2.391977 1_555
Co4 Co5 2.560980 1_555
Co4 Co5 2.568161 1_445
Co4 U3 2.826495 1_556
Co4 U0 2.826495 1_555
Co4 U2 2.895891 1_455
Co4 U1 2.895891 1_455
Co4 U2 2.895896 1_555
Co4 U1 2.895896 1_555
Co5 Si1 2.391977 1_666
Co5 Si0 2.391977 1_665
Co5 U3 2.826495 1_556
Co5 U0 2.826495 1_555
Co5 U1 2.895891 1_565
Co5 U2 2.895891 1_565
Co5 U1 2.895896 1_555
Co5 U2 2.895896 1_555
Si0 U0 3.008704 1_545
Si0 U1 3.008704 1_455
Si0 U0 3.008708 1_555
Si0 U1 3.008708 1_445
Si0 U0 3.008708 1_445
Si0 U1 3.008708 1_555
Si1 U3 3.008704 1_545
Si1 U2 3.008704 1_454
Si1 U3 3.008708 1_555
Si1 U2 3.008708 1_444
Si1 U3 3.008708 1_445
Si1 U2 3.008708 1_554
