# generated using pymatgen
data_Al2NiO4
_symmetry_space_group_name_H-M   'P 1'
_cell_length_a   5.81625181
_cell_length_b   5.75205481
_cell_length_c   5.75279046
_cell_angle_alpha   91.21316114
_cell_angle_beta   120.33612554
_cell_angle_gamma   59.65383446
_symmetry_Int_Tables_number   1
_chemical_formula_structural   Al2NiO4
_chemical_formula_sum   'Al4 Ni2 O8'
_cell_volume   136.09231711
_cell_formula_units_Z   2
loop_
 _symmetry_equiv_pos_site_id
 _symmetry_equiv_pos_as_xyz
  1  'x, y, z'
loop_
 _atom_site_type_symbol
 _atom_site_label
 _atom_site_symmetry_multiplicity
 _atom_site_fract_x
 _atom_site_fract_y
 _atom_site_fract_z
 _atom_site_occupancy
  Al  Al0  1  0.50168200  0.49975900  0.49972100  1
  Al  Al1  1  0.99832600  0.49974000  0.49977400  1
  Al  Al2  1  0.49845300  0.50127500  0.99815700  1
  Al  Al3  1  0.00159300  0.99808300  0.50130700  1
  Ni  Ni0  1  0.24980500  0.13051800  0.13014200  1
  Ni  Ni1  1  0.75005800  0.88025200  0.88042700  1
  O  O0  1  0.03510000  0.72548200  0.29546000  1
  O  O1  1  0.97195900  0.26510300  0.70925500  1
  O  O2  1  0.46502600  0.29531700  0.72555800  1
  O  O3  1  0.52791000  0.70941400  0.26499300  1
  O  O4  1  0.02797000  0.73720300  0.73768400  1
  O  O5  1  0.96498000  0.26027700  0.25999200  1
  O  O6  1  0.47204800  0.73764400  0.73718400  1
  O  O7  1  0.53509100  0.25993100  0.26034500  1
loop_
_geom_bond_atom_site_label_1
_geom_bond_atom_site_label_2
_geom_bond_distance
_geom_bond_site_symmetry_2
Al0 O6 1.920566 1_555
Al0 O2 1.927192 1_555
Al0 O0 1.927218 1_555
Al0 O7 1.938077 1_555
Al0 O3 1.940084 1_555
Al0 O1 1.940183 1_555
Al1 O4 1.920687 1_655
Al1 O0 1.926787 1_655
Al1 O2 1.927685 1_655
Al1 O5 1.938267 1_555
Al1 O1 1.939593 1_555
Al1 O3 1.940764 1_555
Al2 O3 1.919079 1_556
Al2 O5 1.926727 1_556
Al2 O7 1.926825 1_556
Al2 O2 1.935618 1_555
Al2 O4 1.940844 1_555
Al2 O6 1.941295 1_555
Al3 O1 1.919065 1_465
Al3 O7 1.926596 1_465
Al3 O5 1.926807 1_465
Al3 O0 1.935121 1_555
Al3 O6 1.940676 1_555
Al3 O4 1.941007 1_555
Ni0 O5 1.958703 1_455
Ni0 O7 1.958931 1_555
Ni0 O1 1.983971 1_454
Ni0 O3 1.984544 1_545
Ni1 O2 1.959821 1_565
Ni1 O0 1.960074 1_656
Ni1 O6 1.982972 1_555
Ni1 O4 1.983032 1_655
