# generated using pymatgen
data_AcVO3
_symmetry_space_group_name_H-M   'P 1'
_cell_length_a   3.96789433
_cell_length_b   3.96789746
_cell_length_c   3.96789433
_cell_angle_alpha   90.00000000
_cell_angle_beta   90.00000000
_cell_angle_gamma   90.00000000
_symmetry_Int_Tables_number   1
_chemical_formula_structural   AcVO3
_chemical_formula_sum   'Ac1 V1 O3'
_cell_volume   62.47131331
_cell_formula_units_Z   1
loop_
 _symmetry_equiv_pos_site_id
 _symmetry_equiv_pos_as_xyz
  1  'x, y, z'
loop_
 _atom_site_type_symbol
 _atom_site_label
 _atom_site_symmetry_multiplicity
 _atom_site_fract_x
 _atom_site_fract_y
 _atom_site_fract_z
 _atom_site_occupancy
  Ac  Ac0  1  -0.00000000  -0.00000000  -0.00000000  1
  V  V0  1  0.50000000  0.50000000  0.50000000  1
  O  O0  1  0.50000000  0.50000000  -0.00000000  1
  O  O1  1  0.50000000  0.00000000  0.50000000  1
  O  O2  1  -0.00000000  0.50000000  0.50000000  1
loop_
_geom_bond_atom_site_label_1
_geom_bond_atom_site_label_2
_geom_bond_distance
_geom_bond_site_symmetry_2
Ac0 O1 2.805725 1_554
Ac0 O1 2.805725 1_455
Ac0 O1 2.805725 1_555
Ac0 O1 2.805725 1_454
Ac0 O2 2.805726 1_545
Ac0 O0 2.805726 1_555
Ac0 O2 2.805726 1_555
Ac0 O2 2.805726 1_554
Ac0 O0 2.805726 1_545
Ac0 O0 2.805726 1_445
Ac0 O0 2.805726 1_455
Ac0 O2 2.805726 1_544
O0 V0 1.983947 1_554
O0 V0 1.983947 1_555
O1 V0 1.983949 1_555
O1 V0 1.983949 1_545
O2 V0 1.983947 1_555
O2 V0 1.983947 1_455
