# generated using pymatgen
data_Ba2LiGe3
_symmetry_space_group_name_H-M   'P 1'
_cell_length_a   12.51585576
_cell_length_b   10.80289132
_cell_length_c   8.91630848
_cell_angle_alpha   78.15093431
_cell_angle_beta   57.64458865
_cell_angle_gamma   44.20447703
_symmetry_Int_Tables_number   1
_chemical_formula_structural   Ba2LiGe3
_chemical_formula_sum   'Ba8 Li4 Ge12'
_cell_volume   676.71846403
_cell_formula_units_Z   4
loop_
 _symmetry_equiv_pos_site_id
 _symmetry_equiv_pos_as_xyz
  1  'x, y, z'
loop_
 _atom_site_type_symbol
 _atom_site_label
 _atom_site_symmetry_multiplicity
 _atom_site_fract_x
 _atom_site_fract_y
 _atom_site_fract_z
 _atom_site_occupancy
  Ba  Ba0  1  0.37590316  0.37590316  0.62409684  1
  Ba  Ba1  1  0.62409684  0.62409684  0.37590316  1
  Ba  Ba2  1  0.87409684  0.87409684  0.62590316  1
  Ba  Ba3  1  0.62590316  0.62590316  0.87409684  1
  Ba  Ba4  1  0.12284035  0.12284035  0.87715965  1
  Ba  Ba5  1  0.87715965  0.87715965  0.12284035  1
  Ba  Ba6  1  0.12715965  0.12715965  0.37284035  1
  Ba  Ba7  1  0.37284035  0.37284035  0.12715965  1
  Li  Li0  1  0.66788499  0.33211501  0.66788499  1
  Li  Li1  1  0.33211501  0.66788499  0.33211501  1
  Li  Li2  1  0.58211501  0.91788499  0.58211501  1
  Li  Li3  1  0.91788499  0.58211501  0.91788499  1
  Ge  Ge0  1  0.15896527  0.83322547  0.67819605  1
  Ge  Ge1  1  0.32961321  0.67819605  0.83322547  1
  Ge  Ge2  1  0.67819605  0.32961321  0.15896527  1
  Ge  Ge3  1  0.83322547  0.15896527  0.32961321  1
  Ge  Ge4  1  0.08701409  0.41298591  0.08701409  1
  Ge  Ge5  1  0.41298591  0.08701409  0.41298591  1
  Ge  Ge6  1  0.16298591  0.83701409  0.16298591  1
  Ge  Ge7  1  0.83701409  0.16298591  0.83701409  1
  Ge  Ge8  1  0.41677453  0.09103473  0.92038679  1
  Ge  Ge9  1  0.57180395  0.92038679  0.09103473  1
  Ge  Ge10  1  0.92038679  0.57180395  0.41677453  1
  Ge  Ge11  1  0.09103473  0.41677453  0.57180395  1
loop_
_geom_bond_atom_site_label_1
_geom_bond_atom_site_label_2
_geom_bond_distance
_geom_bond_site_symmetry_2
Ba0 Ge0 3.515307 1_555
Ba0 Ge3 3.515307 1_555
Ba0 Ge8 3.544295 1_555
Ba0 Ge11 3.544295 1_555
Ba0 Li2 3.563842 1_545
Ba0 Li3 3.563842 1_455
Ba0 Li0 3.564230 1_555
Ba0 Li1 3.564230 1_555
Ba0 Ge5 3.591505 1_555
Ba0 Ge4 3.591505 1_556
Ba0 Ge2 3.620611 1_555
Ba0 Ge1 3.620611 1_555
Ba1 Ge2 3.515307 1_555
Ba1 Ge1 3.515307 1_555
Ba1 Ge9 3.544295 1_555
Ba1 Ge10 3.544295 1_555
Ba1 Li3 3.563842 1_554
Ba1 Li2 3.563842 1_555
Ba1 Li0 3.564230 1_555
Ba1 Li1 3.564230 1_555
Ba1 Ge4 3.591505 1_655
Ba1 Ge5 3.591505 1_565
Ba1 Ge0 3.620611 1_555
Ba1 Ge3 3.620611 1_555
Ba2 Ge8 3.515307 1_565
Ba2 Ge11 3.515307 1_655
Ba2 Ge0 3.544295 1_655
Ba2 Ge3 3.544295 1_565
Ba2 Li1 3.563842 1_655
Ba2 Li0 3.563842 1_565
Ba2 Li2 3.564230 1_555
Ba2 Li3 3.564230 1_555
Ba2 Ge6 3.591505 1_655
Ba2 Ge7 3.591505 1_565
Ba2 Ge9 3.620611 1_556
Ba2 Ge10 3.620611 1_555
Ba3 Ge10 3.515307 1_555
Ba3 Ge9 3.515307 1_556
Ba3 Ge1 3.544295 1_555
Ba3 Ge2 3.544295 1_556
Ba3 Li1 3.563842 1_556
Ba3 Li0 3.563842 1_555
Ba3 Li2 3.564230 1_555
Ba3 Li3 3.564230 1_555
Ba3 Ge7 3.591505 1_555
Ba3 Ge6 3.591505 1_556
Ba3 Ge8 3.620611 1_565
Ba3 Ge11 3.620611 1_655
Ba4 Ge1 3.433526 1_545
Ba4 Ge2 3.433526 1_456
Ba4 Ge7 3.492307 1_455
Ba4 Ge6 3.492307 1_546
Ba4 Ge0 3.540188 1_545
Ba4 Ge3 3.540188 1_456
Ba4 Li2 3.581096 1_545
Ba4 Li3 3.581096 1_455
Ba4 Ge5 3.608626 1_555
Ba4 Ge4 3.608626 1_556
Ba4 Ge8 3.667627 1_555
Ba4 Ge11 3.667627 1_555
Ba5 Ge0 3.433526 1_654
Ba5 Ge3 3.433526 1_565
Ba5 Ge7 3.492307 1_564
Ba5 Ge6 3.492307 1_655
Ba5 Ge1 3.540188 1_654
Ba5 Ge2 3.540188 1_565
Ba5 Li3 3.581096 1_554
Ba5 Li2 3.581096 1_555
Ba5 Ge5 3.608626 1_565
Ba5 Ge4 3.608626 1_655
Ba5 Ge9 3.667627 1_555
Ba5 Ge10 3.667627 1_555
Ba6 Ge10 3.433526 1_455
Ba6 Ge9 3.433526 1_545
Ba6 Ge4 3.492307 1_555
Ba6 Ge5 3.492307 1_555
Ba6 Ge8 3.540188 1_554
Ba6 Ge11 3.540188 1_555
Ba6 Li0 3.581096 1_455
Ba6 Li1 3.581096 1_545
Ba6 Ge6 3.608626 1_545
Ba6 Ge7 3.608626 1_455
Ba6 Ge3 3.667627 1_455
Ba6 Ge0 3.667627 1_545
Ba7 Ge11 3.433526 1_555
Ba7 Ge8 3.433526 1_554
Ba7 Ge4 3.492307 1_555
Ba7 Ge5 3.492307 1_555
Ba7 Ge10 3.540188 1_455
Ba7 Ge9 3.540188 1_545
Ba7 Li0 3.581096 1_554
Ba7 Li1 3.581096 1_555
Ba7 Ge7 3.608626 1_554
Ba7 Ge6 3.608626 1_555
Ba7 Ge2 3.667627 1_555
Ba7 Ge1 3.667627 1_554
Ge0 Li1 2.639118 1_555
Ge1 Li0 2.639118 1_555
Ge2 Li1 2.639118 1_555
Ge3 Li0 2.639118 1_555
Ge4 Li3 2.614068 1_454
Ge5 Li2 2.614068 1_545
Ge6 Li1 2.614068 1_555
Ge7 Li0 2.614068 1_555
Ge8 Li2 2.639118 1_545
Ge9 Li3 2.639118 1_554
Ge10 Li2 2.639118 1_555
Ge11 Li3 2.639118 1_455
