# generated using pymatgen
data_YCrGeO5
_symmetry_space_group_name_H-M   'P 1'
_cell_length_a   5.80855100
_cell_length_b   7.44321800
_cell_length_c   8.48639500
_cell_angle_alpha   90.00000000
_cell_angle_beta   90.00000000
_cell_angle_gamma   90.00000000
_symmetry_Int_Tables_number   1
_chemical_formula_structural   YCrGeO5
_chemical_formula_sum   'Y4 Cr4 Ge4 O20'
_cell_volume   366.90344373
_cell_formula_units_Z   4
loop_
 _symmetry_equiv_pos_site_id
 _symmetry_equiv_pos_as_xyz
  1  'x, y, z'
loop_
 _atom_site_type_symbol
 _atom_site_label
 _atom_site_symmetry_multiplicity
 _atom_site_fract_x
 _atom_site_fract_y
 _atom_site_fract_z
 _atom_site_occupancy
  Y  Y0  1  0.50000000  0.35662100  0.32645500  1
  Y  Y1  1  0.50000000  0.64337900  0.67354500  1
  Y  Y2  1  0.50000000  0.14337900  0.82645500  1
  Y  Y3  1  0.50000000  0.85662100  0.17354500  1
  Cr  Cr0  1  0.24946900  0.00000000  0.50000000  1
  Cr  Cr1  1  0.75053100  0.00000000  0.50000000  1
  Cr  Cr2  1  0.75053100  0.50000000  0.00000000  1
  Cr  Cr3  1  0.24946900  0.50000000  0.00000000  1
  Ge  Ge0  1  0.00000000  0.11735000  0.14436900  1
  Ge  Ge1  1  0.00000000  0.88265000  0.85563100  1
  Ge  Ge2  1  0.00000000  0.38265000  0.64436900  1
  Ge  Ge3  1  0.00000000  0.61735000  0.35563100  1
  O  O0  1  0.24944000  0.11080400  0.28213300  1
  O  O1  1  0.75056000  0.88919600  0.71786700  1
  O  O2  1  0.24944000  0.88919600  0.71786700  1
  O  O3  1  0.75056000  0.38919600  0.78213300  1
  O  O4  1  0.75056000  0.11080400  0.28213300  1
  O  O5  1  0.24944000  0.61080400  0.21786700  1
  O  O6  1  0.75056000  0.61080400  0.21786700  1
  O  O7  1  0.24944000  0.38919600  0.78213300  1
  O  O8  1  0.00000000  0.34264800  0.08150800  1
  O  O9  1  0.00000000  0.65735200  0.91849200  1
  O  O10  1  0.00000000  0.15735200  0.58150800  1
  O  O11  1  0.00000000  0.84264800  0.41849200  1
  O  O12  1  0.50000000  0.33162600  0.05727000  1
  O  O13  1  0.50000000  0.66837400  0.94273000  1
  O  O14  1  0.50000000  0.16837400  0.55727000  1
  O  O15  1  0.50000000  0.83162600  0.44273000  1
  O  O16  1  0.21140300  0.00000000  0.00000000  1
  O  O17  1  0.78859700  0.00000000  0.00000000  1
  O  O18  1  0.78859700  0.50000000  0.50000000  1
  O  O19  1  0.21140300  0.50000000  0.50000000  1
loop_
_geom_bond_atom_site_label_1
_geom_bond_atom_site_label_2
_geom_bond_distance
_geom_bond_site_symmetry_2
Cr0 O14 1.981036 1_555
Cr0 O15 1.981036 1_545
Cr0 O10 1.987445 1_555
Cr0 O11 1.987445 1_545
Cr0 O2 2.024511 1_545
Cr0 O0 2.024511 1_555
Cr1 O14 1.981036 1_555
Cr1 O15 1.981036 1_545
Cr1 O10 1.987445 1_655
Cr1 O11 1.987445 1_645
Cr1 O1 2.024511 1_545
Cr1 O4 2.024511 1_555
Cr2 O13 1.981036 1_554
Cr2 O12 1.981036 1_555
Cr2 O9 1.987445 1_654
Cr2 O8 1.987445 1_655
Cr2 O6 2.024511 1_555
Cr2 O3 2.024511 1_554
Cr3 O13 1.981036 1_554
Cr3 O12 1.981036 1_555
Cr3 O9 1.987445 1_554
Cr3 O8 1.987445 1_555
Cr3 O5 2.024511 1_555
Cr3 O7 2.024511 1_554
Ge0 O8 1.759749 1_555
Ge0 O4 1.862386 1_455
Ge0 O0 1.862386 1_555
Ge0 O16 1.942120 1_555
Ge0 O17 1.942120 1_455
Ge1 O9 1.759749 1_555
Ge1 O1 1.862386 1_455
Ge1 O2 1.862386 1_555
Ge1 O16 1.942120 1_566
Ge1 O17 1.942120 1_466
Ge2 O10 1.759749 1_555
Ge2 O3 1.862386 1_455
Ge2 O7 1.862386 1_555
Ge2 O19 1.942120 1_555
Ge2 O18 1.942120 1_455
Ge3 O11 1.759749 1_555
Ge3 O6 1.862386 1_455
Ge3 O5 1.862386 1_555
Ge3 O19 1.942120 1_555
Ge3 O18 1.942120 1_455
O0 Y0 2.367980 1_555
O0 Y3 2.558671 1_545
O1 Y1 2.367980 1_555
O1 Y2 2.558671 1_565
O2 Y1 2.367980 1_555
O2 Y2 2.558671 1_565
O3 Y2 2.367980 1_555
O3 Y1 2.558671 1_555
O4 Y0 2.367980 1_555
O4 Y3 2.558671 1_545
O5 Y3 2.367980 1_555
O5 Y0 2.558671 1_555
O6 Y3 2.367980 1_555
O6 Y0 2.558671 1_555
O7 Y2 2.367980 1_555
O7 Y1 2.558671 1_555
O12 Y0 2.291973 1_555
O12 Y2 2.408341 1_554
O13 Y1 2.291973 1_555
O13 Y3 2.408341 1_556
O14 Y2 2.291973 1_555
O14 Y0 2.408341 1_555
O15 Y3 2.291973 1_555
O15 Y1 2.408341 1_555
O16 Y3 2.473471 1_545
O16 Y2 2.473471 1_554
O17 Y3 2.473471 1_545
O17 Y2 2.473471 1_554
O18 Y1 2.473471 1_555
O18 Y0 2.473471 1_555
O19 Y1 2.473471 1_555
O19 Y0 2.473471 1_555
