# generated using pymatgen
data_TmSnRh
_symmetry_space_group_name_H-M   'P 1'
_cell_length_a   7.53799031
_cell_length_b   7.53799075
_cell_length_c   3.71093128
_cell_angle_alpha   90.00000000
_cell_angle_beta   90.00000000
_cell_angle_gamma   120.00000250
_symmetry_Int_Tables_number   1
_chemical_formula_structural   TmSnRh
_chemical_formula_sum   'Tm3 Sn3 Rh3'
_cell_volume   182.61006368
_cell_formula_units_Z   3
loop_
 _symmetry_equiv_pos_site_id
 _symmetry_equiv_pos_as_xyz
  1  'x, y, z'
loop_
 _atom_site_type_symbol
 _atom_site_label
 _atom_site_symmetry_multiplicity
 _atom_site_fract_x
 _atom_site_fract_y
 _atom_site_fract_z
 _atom_site_occupancy
  Tm  Tm0  1  -0.00000000  0.40303040  0.00000000  1
  Tm  Tm1  1  0.59696960  0.59696960  -0.00000000  1
  Tm  Tm2  1  0.40303040  -0.00000000  0.00000000  1
  Sn  Sn0  1  0.26594874  0.26594874  0.50000000  1
  Sn  Sn1  1  -0.00000000  0.73405126  0.50000000  1
  Sn  Sn2  1  0.73405126  -0.00000000  0.50000000  1
  Rh  Rh0  1  0.66666700  0.33333300  0.50000000  1
  Rh  Rh1  1  0.33333300  0.66666700  0.50000000  1
  Rh  Rh2  1  -0.00000000  -0.00000000  -0.00000000  1
loop_
_geom_bond_atom_site_label_1
_geom_bond_atom_site_label_2
_geom_bond_distance
_geom_bond_site_symmetry_2
Sn0 Tm1 3.109491 1_556
Sn0 Tm1 3.109491 1_555
Sn0 Tm0 3.255905 1_556
Sn0 Tm0 3.255905 1_555
Sn0 Tm2 3.255905 1_556
Sn0 Tm2 3.255905 1_555
Sn1 Tm0 3.109491 1_555
Sn1 Tm0 3.109491 1_556
Sn1 Tm2 3.255905 1_565
Sn1 Tm2 3.255905 1_566
Sn1 Tm1 3.255905 1_455
Sn1 Tm1 3.255905 1_456
Sn2 Tm2 3.109491 1_555
Sn2 Tm2 3.109491 1_556
Sn2 Tm0 3.255905 1_655
Sn2 Tm0 3.255905 1_656
Sn2 Tm1 3.255905 1_545
Sn2 Tm1 3.255905 1_546
Rh0 Sn2 2.801385 1_555
Rh0 Sn1 2.801389 1_655
Rh0 Sn0 2.801392 1_555
Rh0 Tm0 2.951634 1_655
Rh0 Tm0 2.951634 1_656
Rh0 Tm2 2.951636 1_555
Rh0 Tm2 2.951636 1_556
Rh0 Tm1 2.951640 1_556
Rh0 Tm1 2.951640 1_555
Rh1 Sn1 2.801385 1_555
Rh1 Sn2 2.801389 1_565
Rh1 Sn0 2.801392 1_555
Rh1 Tm2 2.951634 1_566
Rh1 Tm2 2.951634 1_565
Rh1 Tm0 2.951636 1_556
Rh1 Tm0 2.951636 1_555
Rh1 Tm1 2.951640 1_556
Rh1 Tm1 2.951640 1_555
Rh2 Sn0 2.731602 1_554
Rh2 Sn0 2.731602 1_555
Rh2 Sn2 2.731602 1_455
Rh2 Sn2 2.731602 1_454
Rh2 Sn1 2.731602 1_545
Rh2 Sn1 2.731602 1_544
Rh2 Tm1 3.038039 1_445
Rh2 Tm2 3.038039 1_555
Rh2 Tm0 3.038039 1_555
