# generated using pymatgen
data_Sr3NbCoO7
_symmetry_space_group_name_H-M   'P 1'
_cell_length_a   10.79749481
_cell_length_b   10.79749481
_cell_length_c   10.79749481
_cell_angle_alpha   158.71431682
_cell_angle_beta   158.71431682
_cell_angle_gamma   30.28087257
_symmetry_Int_Tables_number   1
_chemical_formula_structural   Sr3NbCoO7
_chemical_formula_sum   'Sr3 Nb1 Co1 O7'
_cell_volume   165.78886395
_cell_formula_units_Z   1
loop_
 _symmetry_equiv_pos_site_id
 _symmetry_equiv_pos_as_xyz
  1  'x, y, z'
loop_
 _atom_site_type_symbol
 _atom_site_label
 _atom_site_symmetry_multiplicity
 _atom_site_fract_x
 _atom_site_fract_y
 _atom_site_fract_z
 _atom_site_occupancy
  Sr  Sr0  1  0.69289500  0.69289500  0.00000000  1
  Sr  Sr1  1  0.32123400  0.32123400  0.00000000  1
  Sr  Sr2  1  0.48293400  0.48293400  0.00000000  1
  Nb  Nb0  1  0.09489500  0.09489500  0.00000000  1
  Co  Co0  1  0.89998800  0.89998800  0.00000000  1
  O  O0  1  0.90471700  0.40471700  0.50000000  1
  O  O1  1  0.40471700  0.90471700  0.50000000  1
  O  O2  1  0.09876200  0.59876200  0.50000000  1
  O  O3  1  0.59876200  0.09876200  0.50000000  1
  O  O4  1  0.00237000  0.00237000  0.00000000  1
  O  O5  1  0.80454000  0.80454000  0.00000000  1
  O  O6  1  0.19418600  0.19418600  0.00000000  1
loop_
_geom_bond_atom_site_label_1
_geom_bond_atom_site_label_2
_geom_bond_distance
_geom_bond_site_symmetry_2
Nb0 O4 1.928720 1_555
Nb0 O3 1.995778 1_454
Nb0 O2 1.995778 1_544
Nb0 O3 1.995778 1_555
Nb0 O2 1.995778 1_555
Nb0 O6 2.069760 1_555
Co0 O5 1.989651 1_555
Co0 O1 1.996584 1_554
Co0 O0 1.996584 1_565
Co0 O0 1.996584 1_554
Co0 O1 1.996584 1_655
Co0 O4 2.134193 1_665
O0 Sr2 2.575858 1_656
O0 Sr2 2.575858 1_555
O0 Sr1 2.646706 1_656
O0 Sr1 2.646706 1_555
O1 Sr2 2.575858 1_555
O1 Sr2 2.575858 1_566
O1 Sr1 2.646706 1_566
O1 Sr1 2.646706 1_555
O2 Sr0 2.797680 1_455
O2 Sr0 2.797680 1_556
O2 Sr2 3.131509 1_455
O2 Sr2 3.131509 1_556
O3 Sr0 2.797680 1_545
O3 Sr0 2.797680 1_556
O3 Sr2 3.131509 1_545
O3 Sr2 3.131509 1_556
O4 Sr2 2.849107 1_455
O4 Sr2 2.849107 1_556
O4 Sr2 2.849107 1_444
O4 Sr2 2.849107 1_545
O5 Sr0 2.327284 1_555
O5 Sr1 2.841542 1_554
O5 Sr1 2.841542 1_666
O5 Sr1 2.841542 1_655
O5 Sr1 2.841542 1_565
O6 Sr1 2.648366 1_555
O6 Sr0 2.820281 1_444
O6 Sr0 2.820281 1_545
O6 Sr0 2.820281 1_455
O6 Sr0 2.820281 1_556
