# generated using pymatgen
data_Rb2U(BrO)4
_symmetry_space_group_name_H-M   'P 1'
_cell_length_a   7.03767200
_cell_length_b   7.05912750
_cell_length_c   8.15854546
_cell_angle_alpha   73.37235123
_cell_angle_beta   81.39259113
_cell_angle_gamma   63.21157561
_symmetry_Int_Tables_number   1
_chemical_formula_structural   Rb2U(BrO)4
_chemical_formula_sum   'Rb2 U1 Br4 O4'
_cell_volume   346.58447338
_cell_formula_units_Z   1
loop_
 _symmetry_equiv_pos_site_id
 _symmetry_equiv_pos_as_xyz
  1  'x, y, z'
loop_
 _atom_site_type_symbol
 _atom_site_label
 _atom_site_symmetry_multiplicity
 _atom_site_fract_x
 _atom_site_fract_y
 _atom_site_fract_z
 _atom_site_occupancy
  Rb  Rb0  1  0.74834500  0.55337600  0.74188500  1
  Rb  Rb1  1  0.25165500  0.44662400  0.25811500  1
  U  U0  1  0.00000000  0.00000000  0.50000000  1
  Br  Br0  1  0.59120700  0.15573000  0.65025100  1
  Br  Br1  1  0.40879300  0.84427000  0.34974900  1
  Br  Br2  1  0.84962400  0.26578700  0.16449400  1
  Br  Br3  1  0.15037600  0.73421300  0.83550600  1
  O  O0  1  0.96792600  0.77200400  0.46739500  1
  O  O1  1  0.03207400  0.22799600  0.53260500  1
  O  O2  1  0.17020700  0.35175500  0.93141800  1
  O  O3  1  0.82979300  0.64824500  0.06858200  1
loop_
_geom_bond_atom_site_label_1
_geom_bond_atom_site_label_2
_geom_bond_distance
_geom_bond_site_symmetry_2
Br0 U0 2.802281 1_655
Br0 Rb0 3.729337 1_555
Br0 Rb0 3.748565 1_545
Br0 Rb1 3.777279 1_555
Br1 U0 2.802281 1_565
Br1 Rb1 3.729337 1_555
Br1 Rb1 3.748565 1_565
Br1 Rb0 3.777279 1_555
Br2 O3 2.530772 1_555
Br2 U0 2.875904 1_655
Br2 Rb0 3.455818 1_554
Br2 Rb1 3.830971 1_555
Br3 O2 2.530772 1_555
Br3 U0 2.875904 1_565
Br3 Rb1 3.455818 1_556
Br3 Rb0 3.830971 1_555
O0 U0 1.817283 1_665
O0 Rb0 2.986794 1_555
O0 Rb1 3.044331 1_655
O1 U0 1.817283 1_555
O1 Rb1 2.986794 1_555
O1 Rb0 3.044331 1_455
O2 Rb0 3.088209 1_455
O2 Rb1 3.115468 1_556
O3 Rb1 3.088209 1_655
O3 Rb0 3.115468 1_554
