# generated using pymatgen
data_HfCrAgS4
_symmetry_space_group_name_H-M   'P 1'
_cell_length_a   6.63226900
_cell_length_b   7.75770414
_cell_length_c   12.70939956
_cell_angle_alpha   98.12088520
_cell_angle_beta   95.05523820
_cell_angle_gamma   89.96890636
_symmetry_Int_Tables_number   1
_chemical_formula_structural   HfCrAgS4
_chemical_formula_sum   'Hf4 Cr4 Ag4 S16'
_cell_volume   644.79124663
_cell_formula_units_Z   4
loop_
 _symmetry_equiv_pos_site_id
 _symmetry_equiv_pos_as_xyz
  1  'x, y, z'
loop_
 _atom_site_type_symbol
 _atom_site_label
 _atom_site_symmetry_multiplicity
 _atom_site_fract_x
 _atom_site_fract_y
 _atom_site_fract_z
 _atom_site_occupancy
  Hf  Hf0  1  0.85387000  0.29534700  0.69991900  1
  Hf  Hf1  1  0.14636000  0.71327400  0.30309600  1
  Hf  Hf2  1  0.23793500  0.89069600  0.99764300  1
  Hf  Hf3  1  0.63584800  0.43732800  0.29536300  1
  Cr  Cr0  1  0.75564200  0.11316200  0.99814600  1
  Cr  Cr1  1  0.36041400  0.55567800  0.70507300  1
  Cr  Cr2  1  0.62352300  0.95216800  0.29064800  1
  Cr  Cr3  1  0.36621500  0.04592400  0.70440600  1
  Ag  Ag0  1  0.88271000  0.80018000  0.69812400  1
  Ag  Ag1  1  0.12414500  0.19453400  0.29628400  1
  Ag  Ag2  1  0.73682400  0.62688800  0.99419900  1
  Ag  Ag3  1  0.25469900  0.36803800  0.99590800  1
  S  S0  1  0.87645200  0.32590100  0.88750600  1
  S  S1  1  0.13651000  0.66530800  0.11528000  1
  S  S2  1  0.89900300  0.86715800  0.89924500  1
  S  S3  1  0.07897600  0.14335100  0.09757500  1
  S  S4  1  0.79016600  0.20799900  0.37670400  1
  S  S5  1  0.23242500  0.78396200  0.63779400  1
  S  S6  1  0.80224500  0.72160200  0.36316000  1
  S  S7  1  0.20392200  0.28788400  0.64581200  1
  S  S8  1  0.66516700  0.03500400  0.62850200  1
  S  S9  1  0.33369200  0.96742600  0.38018700  1
  S  S10  1  0.66519300  0.53192200  0.63491600  1
  S  S11  1  0.31525800  0.47391600  0.37462800  1
  S  S12  1  0.59818900  0.93005200  0.10851600  1
  S  S13  1  0.42827200  0.07970200  0.88535400  1
  S  S14  1  0.62494700  0.37757300  0.10673500  1
  S  S15  1  0.37139800  0.60802200  0.87927800  1
loop_
_geom_bond_atom_site_label_1
_geom_bond_atom_site_label_2
_geom_bond_distance
_geom_bond_site_symmetry_2
Hf0 S0 2.353739 1_555
Hf0 S8 2.398720 1_555
Hf0 S10 2.420816 1_555
Hf0 S7 2.477137 1_655
Hf1 S1 2.358439 1_555
Hf1 S9 2.373462 1_555
Hf1 S11 2.413396 1_555
Hf1 S6 2.467506 1_455
Hf2 S2 2.467956 1_455
Hf2 S3 2.469142 1_566
Hf2 S1 2.581108 1_556
Hf2 S13 2.586667 1_565
Hf2 S12 2.659609 1_556
Hf2 S15 2.675059 1_555
Hf3 S4 2.369070 1_555
Hf3 S14 2.371268 1_555
Hf3 S11 2.431539 1_555
Hf3 S6 2.474262 1_555
Cr0 S2 2.378451 1_545
Cr0 S3 2.385313 1_656
Cr0 S12 2.428734 1_546
Cr0 S13 2.486656 1_555
Cr0 S0 2.489710 1_555
Cr0 S14 2.504524 1_556
Cr1 S15 2.188557 1_555
Cr1 S5 2.210496 1_555
Cr1 S10 2.277230 1_555
Cr1 S7 2.320103 1_555
Cr2 S12 2.288055 1_555
Cr2 S9 2.313271 1_555
Cr2 S4 2.352170 1_565
Cr2 S6 2.392602 1_555
Cr3 S5 2.239980 1_545
Cr3 S8 2.276586 1_555
Cr3 S13 2.278140 1_555
Cr3 S7 2.342636 1_555
Ag0 S5 2.503842 1_655
Ag0 S10 2.526671 1_555
Ag0 S2 2.528159 1_555
Ag0 S8 2.531954 1_565
Ag1 S3 2.491767 1_555
Ag1 S4 2.516057 1_455
Ag1 S9 2.537639 1_545
Ag1 S11 2.542900 1_555
Ag2 S2 2.637057 1_555
Ag2 S14 2.703172 1_556
Ag2 S15 2.710113 1_555
Ag2 S0 2.733644 1_555
Ag2 S12 2.784826 1_556
Ag2 S1 2.938740 1_656
Ag3 S3 2.640075 1_556
Ag3 S15 2.691780 1_555
Ag3 S14 2.716721 1_556
Ag3 S1 2.730121 1_556
Ag3 S0 2.750053 1_455
Ag3 S13 2.774375 1_555
