# generated using pymatgen
data_Ni3P2(HO)16
_symmetry_space_group_name_H-M   'P 1'
_cell_length_a   8.27239866
_cell_length_b   8.27239866
_cell_length_c   4.65207314
_cell_angle_alpha   81.04359904
_cell_angle_beta   81.04359904
_cell_angle_gamma   105.49164968
_symmetry_Int_Tables_number   1
_chemical_formula_structural   Ni3P2(HO)16
_chemical_formula_sum   'Ni3 P2 H16 O16'
_cell_volume   296.46835800
_cell_formula_units_Z   1
loop_
 _symmetry_equiv_pos_site_id
 _symmetry_equiv_pos_as_xyz
  1  'x, y, z'
loop_
 _atom_site_type_symbol
 _atom_site_label
 _atom_site_symmetry_multiplicity
 _atom_site_fract_x
 _atom_site_fract_y
 _atom_site_fract_z
 _atom_site_occupancy
  Ni  Ni0  1  0.00000000  0.00000000  0.50000000  1
  Ni  Ni1  1  0.38876800  0.61123200  0.50000000  1
  Ni  Ni2  1  0.61123200  0.38876800  0.50000000  1
  P  P0  1  0.68685400  0.68685400  0.88610600  1
  P  P1  1  0.31314600  0.31314600  0.11389400  1
  H  H0  1  0.03950300  0.20426200  0.86262000  1
  H  H1  1  0.20426200  0.03950300  0.86262000  1
  H  H2  1  0.96049700  0.79573800  0.13738000  1
  H  H3  1  0.79573800  0.96049700  0.13738000  1
  H  H4  1  0.05508800  0.31510300  0.54266400  1
  H  H5  1  0.31510300  0.05508800  0.54266400  1
  H  H6  1  0.94491200  0.68489700  0.45733600  1
  H  H7  1  0.68489700  0.94491200  0.45733600  1
  H  H8  1  0.17615800  0.56490200  0.97984600  1
  H  H9  1  0.56490200  0.17615800  0.97984600  1
  H  H10  1  0.82384200  0.43509800  0.02015400  1
  H  H11  1  0.43509800  0.82384200  0.02015400  1
  H  H12  1  0.17421200  0.73790400  0.77045700  1
  H  H13  1  0.73790400  0.17421200  0.77045700  1
  H  H14  1  0.82578800  0.26209600  0.22954300  1
  H  H15  1  0.26209600  0.82578800  0.22954300  1
  O  O0  1  0.84429000  0.84429000  0.88703500  1
  O  O1  1  0.15571000  0.15571000  0.11296500  1
  O  O2  1  0.60295500  0.60295500  0.21679600  1
  O  O3  1  0.39704500  0.39704500  0.78320400  1
  O  O4  1  0.75922500  0.56021700  0.72954100  1
  O  O5  1  0.56021700  0.75922500  0.72954100  1
  O  O6  1  0.24077500  0.43978300  0.27045900  1
  O  O7  1  0.43978300  0.24077500  0.27045900  1
  O  O8  1  0.97833700  0.21186000  0.69228900  1
  O  O9  1  0.21186000  0.97833700  0.69228900  1
  O  O10  1  0.02166300  0.78814000  0.30771100  1
  O  O11  1  0.78814000  0.02166300  0.30771100  1
  O  O12  1  0.17071100  0.61764000  0.77478000  1
  O  O13  1  0.61764000  0.17071100  0.77478000  1
  O  O14  1  0.82928900  0.38236000  0.22522000  1
  O  O15  1  0.38236000  0.82928900  0.22522000  1
loop_
_geom_bond_atom_site_label_1
_geom_bond_atom_site_label_2
_geom_bond_distance
_geom_bond_site_symmetry_2
Ni0 O0 2.056609 1_445
Ni0 O1 2.056609 1_555
Ni0 O8 2.123654 1_455
Ni0 O10 2.123654 1_545
Ni0 O11 2.123654 1_455
Ni0 O9 2.123654 1_545
Ni1 O12 2.060329 1_555
Ni1 O15 2.060329 1_555
Ni1 O3 2.060565 1_555
Ni1 O2 2.060565 1_555
Ni1 O6 2.145161 1_555
Ni1 O5 2.145161 1_555
Ni2 O13 2.060329 1_555
Ni2 O14 2.060329 1_555
Ni2 O3 2.060565 1_555
Ni2 O2 2.060565 1_555
Ni2 O7 2.145161 1_555
Ni2 O4 2.145161 1_555
H0 O8 1.007066 1_455
H0 O1 1.688486 1_556
H1 O9 1.007066 1_545
H1 O1 1.688486 1_556
H2 O10 1.007066 1_655
H2 O0 1.688486 1_554
H3 O11 1.007066 1_565
H3 O0 1.688486 1_554
H4 O8 1.002334 1_455
H5 O9 1.002334 1_545
H6 O10 1.002334 1_655
H7 O11 1.002334 1_565
H8 O12 0.998369 1_555
H9 O13 0.998369 1_555
H10 O14 0.998369 1_555
H11 O15 0.998369 1_555
H12 O12 0.984485 1_555
H13 O13 0.984485 1_555
H14 O14 0.984485 1_555
H15 O15 0.984485 1_555
O0 P0 1.577906 1_555
O1 P1 1.577906 1_555
O2 P0 1.551720 1_554
O3 P1 1.551720 1_556
O4 P0 1.556664 1_555
O5 P0 1.556664 1_555
O6 P1 1.556664 1_555
O7 P1 1.556664 1_555
