# generated using pymatgen
data_Li5V3P8O29
_symmetry_space_group_name_H-M   'P 1'
_cell_length_a   9.78460700
_cell_length_b   9.79716897
_cell_length_c   14.14806735
_cell_angle_alpha   89.17650227
_cell_angle_beta   89.39340064
_cell_angle_gamma   60.16558869
_symmetry_Int_Tables_number   1
_chemical_formula_structural   Li5V3P8O29
_chemical_formula_sum   'Li10 V6 P16 O58'
_cell_volume   1176.37478570
_cell_formula_units_Z   2
loop_
 _symmetry_equiv_pos_site_id
 _symmetry_equiv_pos_as_xyz
  1  'x, y, z'
loop_
 _atom_site_type_symbol
 _atom_site_label
 _atom_site_symmetry_multiplicity
 _atom_site_fract_x
 _atom_site_fract_y
 _atom_site_fract_z
 _atom_site_occupancy
  Li  Li0  1  0.77933300  0.92390700  0.94689800  1
  Li  Li1  1  0.32012300  0.77064900  0.94133500  1
  Li  Li2  1  0.90694400  0.31487200  0.93707000  1
  Li  Li3  1  0.23717400  0.67947800  0.56136200  1
  Li  Li4  1  0.76746100  0.34536900  0.44329000  1
  Li  Li5  1  0.08819900  0.67674700  0.06564000  1
  Li  Li6  1  0.32244000  0.32703600  0.39064200  1
  Li  Li7  1  0.69355700  0.08784400  0.55701000  1
  Li  Li8  1  0.22645900  0.09469800  0.06233300  1
  Li  Li9  1  0.06034000  0.99038100  0.48662300  1
  V  V0  1  0.43185600  0.56465600  0.75294100  1
  V  V1  1  0.57182600  0.42861100  0.24435100  1
  V  V2  1  0.99265300  0.56826500  0.25731800  1
  V  V3  1  0.00318600  0.43106900  0.74405000  1
  V  V4  1  0.56348000  0.99996500  0.74313200  1
  V  V5  1  0.43323900  0.99565400  0.25206800  1
  P  P0  1  0.77065300  0.91611800  0.16088900  1
  P  P1  1  0.91956600  0.77920500  0.66134800  1
  P  P2  1  0.30272900  0.91777400  0.65993600  1
  P  P3  1  0.66495800  0.66871700  0.86646500  1
  P  P4  1  0.66331200  0.65753900  0.36969400  1
  P  P5  1  0.31464200  0.77016400  0.16088500  1
  P  P6  1  0.22848000  0.68101600  0.34505600  1
  P  P7  1  0.91284700  0.32159500  0.15447100  1
  P  P8  1  0.08362700  0.67804700  0.84586900  1
  P  P9  1  0.76774000  0.32102000  0.65626100  1
  P  P10  1  0.68378500  0.22394600  0.83666100  1
  P  P11  1  0.33556800  0.33386600  0.62769000  1
  P  P12  1  0.32693300  0.33842400  0.13144800  1
  P  P13  1  0.68182600  0.09169000  0.34277700  1
  P  P14  1  0.08639000  0.21681100  0.33703400  1
  P  P15  1  0.23093500  0.08757500  0.84254900  1
  O  O0  1  0.76736700  0.01268600  0.43145000  1
  O  O1  1  0.74477000  0.92089900  0.65964500  1
  O  O2  1  0.99938800  0.74741200  0.93742500  1
  O  O3  1  0.91729700  0.75102900  0.16598700  1
  O  O4  1  0.61845000  0.90716700  0.18325100  1
  O  O5  1  0.66238800  0.81563300  0.81200900  1
  O  O6  1  0.45902100  0.92420000  0.66834800  1
  O  O7  1  0.24803000  0.00110100  0.93433300  1
  O  O8  1  0.33405900  0.91708800  0.15982600  1
  O  O9  1  0.81294500  0.66242100  0.32904100  1
  O  O10  1  0.92060600  0.62281800  0.66592200  1
  O  O11  1  0.51765200  0.80533300  0.33194300  1
  O  O12  1  0.66336600  0.69458500  0.97020000  1
  O  O13  1  0.67529800  0.62208600  0.47307800  1
  O  O14  1  0.50950500  0.67167700  0.83474700  1
  O  O15  1  0.90020400  0.48051900  0.17247700  1
  O  O16  1  0.81208700  0.51758700  0.83000000  1
  O  O17  1  0.34141500  0.74353100  0.66601200  1
  O  O18  1  0.20808400  0.78859000  0.25167600  1
  O  O19  1  0.22350400  0.76921100  0.43204000  1
  O  O20  1  0.23848000  0.75830500  0.07182300  1
  O  O21  1  0.47589900  0.61922300  0.17771700  1
  O  O22  1  0.67368400  0.50754900  0.31907600  1
  O  O23  1  0.24874400  0.66356400  0.84267400  1
  O  O24  1  0.61777600  0.47735700  0.67357800  1
  O  O25  1  0.91317700  0.34291500  0.66687800  1
  O  O26  1  0.98354500  0.80031200  0.76276800  1
  O  O27  1  0.01169500  0.80239700  0.58423800  1
  O  O28  1  0.99219900  0.20132200  0.41627400  1
  O  O29  1  0.09230500  0.64675400  0.34239800  1
  O  O30  1  0.38514300  0.52278900  0.33130700  1
  O  O31  1  0.74600400  0.33682000  0.16255800  1
  O  O32  1  0.32659100  0.48790600  0.66411400  1
  O  O33  1  0.52153300  0.37677200  0.82231400  1
  O  O34  1  0.77377600  0.22653200  0.91950400  1
  O  O35  1  0.77061400  0.24155200  0.56533700  1
  O  O36  1  0.78344700  0.20165100  0.74054300  1
  O  O37  1  0.66026100  0.26166100  0.33713300  1
  O  O38  1  0.17961600  0.48473100  0.17609700  1
  O  O39  1  0.09595100  0.51932400  0.82187100  1
  O  O40  1  0.47455300  0.33937200  0.17962100  1
  O  O41  1  0.32863000  0.35306300  0.02674500  1
  O  O42  1  0.34805800  0.32614600  0.52167300  1
  O  O43  1  0.49356300  0.18610300  0.66844300  1
  O  O44  1  0.09734600  0.36934100  0.33471300  1
  O  O45  1  0.19715800  0.32019500  0.67075100  1
  O  O46  1  0.65984600  0.07803500  0.83645700  1
  O  O47  1  0.78669400  0.00709300  0.25107500  1
  O  O48  1  0.75948100  0.00018400  0.07070800  1
  O  O49  1  0.51672900  0.10892400  0.33063800  1
  O  O50  1  0.32826400  0.18559600  0.16681000  1
  O  O51  1  0.38164600  0.09705100  0.81838000  1
  O  O52  1  0.08350300  0.25171600  0.84006000  1
  O  O53  1  0.99480900  0.24569600  0.06363600  1
  O  O54  1  0.01223600  0.20214200  0.23882500  1
  O  O55  1  0.25771800  0.07777500  0.33488600  1
  O  O56  1  0.20405600  0.00075000  0.57727000  1
  O  O57  1  0.21088400  0.99073600  0.75844000  1
loop_
_geom_bond_atom_site_label_1
_geom_bond_atom_site_label_2
_geom_bond_distance
_geom_bond_site_symmetry_2
Li0 O48 1.884286 1_566
Li0 O2 1.984960 1_555
Li0 O46 2.074321 1_565
Li1 O7 2.003835 1_565
Li1 O20 2.029665 1_556
Li1 O23 2.080549 1_555
Li1 O14 2.200708 1_555
Li2 O34 1.908857 1_555
Li2 O53 1.955222 1_556
Li2 O52 2.040029 1_655
Li2 O16 2.282477 1_555
Li3 O27 1.942921 1_555
Li3 O19 1.995081 1_555
Li3 O17 2.078898 1_555
Li3 O32 2.171657 1_555
Li4 O28 1.970574 1_555
Li4 O35 1.984058 1_555
Li4 O37 2.225578 1_555
Li4 O22 2.226706 1_555
Li4 O13 2.435745 1_555
Li5 O2 1.980830 1_454
Li5 O20 1.995518 1_555
Li5 O3 2.027332 1_455
Li5 O38 2.247681 1_555
Li6 O42 1.872649 1_555
Li6 O44 2.183559 1_555
Li6 O49 2.208380 1_555
Li6 O30 2.423373 1_555
Li7 O0 1.923744 1_555
Li7 O35 1.996697 1_555
Li7 O1 2.041190 1_545
Li7 O43 2.312038 1_555
Li8 O53 1.997476 1_455
Li8 O7 2.003005 1_554
Li8 O8 2.043970 1_545
Li8 O50 2.218537 1_555
Li9 O56 1.953600 1_565
Li9 O28 2.071241 1_465
Li9 O19 2.102458 1_555
Li9 O27 2.512164 1_555
O0 P13 1.491064 1_555
O1 P1 1.578098 1_555
O1 V4 1.938177 1_555
O2 P8 1.504819 1_655
O3 P0 1.539393 1_555
O3 V2 2.014822 1_555
O4 P0 1.563589 1_555
O4 V5 1.845903 1_555
O5 P3 1.611987 1_555
O5 V4 1.837930 1_555
O6 P2 1.567359 1_555
O6 V4 1.874959 1_555
O7 P15 1.504652 1_555
O8 P5 1.542638 1_555
O8 V5 2.009051 1_555
O9 P4 1.589888 1_555
O9 V2 1.829680 1_555
O10 P1 1.527555 1_555
O10 V3 1.962837 1_655
O11 P4 1.534172 1_555
O11 V5 1.965417 1_555
O12 P3 1.491558 1_555
O13 P4 1.490751 1_555
O14 P3 1.576702 1_555
O14 V0 1.965272 1_555
O15 P7 1.524321 1_555
O15 V2 1.955626 1_555
O16 P3 1.554444 1_555
O16 V3 2.024341 1_655
O17 P2 1.555105 1_555
O17 V0 1.945480 1_555
O18 P5 1.600212 1_555
O18 P6 1.628585 1_555
O19 P6 1.500308 1_555
O20 P5 1.505597 1_555
O21 P5 1.552204 1_555
O21 V1 1.865810 1_555
O22 P4 1.600892 1_555
O22 V1 1.876650 1_555
O23 P8 1.550129 1_555
O23 V0 2.005141 1_555
O24 P9 1.525143 1_555
O24 V0 1.933350 1_555
O25 P9 1.550100 1_555
O25 V3 1.875615 1_655
O26 P8 1.610242 1_655
O26 P1 1.627861 1_555
O27 P1 1.493408 1_455
O28 P14 1.497214 1_655
O29 P6 1.528354 1_555
O29 V2 1.946400 1_455
O30 P6 1.558410 1_555
O30 V1 2.002379 1_555
O31 P7 1.566724 1_555
O31 V1 1.874989 1_555
O32 P11 1.562156 1_555
O32 V0 2.007683 1_555
O33 P10 1.560886 1_555
O33 V0 1.865686 1_555
O34 P10 1.481424 1_555
O35 P9 1.505991 1_555
O36 P9 1.611876 1_555
O36 P10 1.617543 1_555
O37 P13 1.571887 1_555
O37 V1 1.923878 1_555
O38 P12 1.575549 1_555
O38 V2 1.956959 1_455
O39 P8 1.541327 1_555
O39 V3 1.900823 1_555
O40 P12 1.607880 1_555
O40 V1 1.838041 1_555
O41 P12 1.486933 1_555
O42 P11 1.503544 1_555
O43 P11 1.608152 1_555
O43 V4 1.904953 1_545
O44 P14 1.550354 1_555
O44 V2 2.005628 1_455
O45 P11 1.543975 1_555
O45 V3 1.948579 1_555
O46 P10 1.559385 1_555
O46 V4 1.997606 1_545
O47 P13 1.606114 1_555
O47 P0 1.619641 1_545
O48 P0 1.483690 1_545
O49 P13 1.549582 1_555
O49 V5 2.022678 1_545
O50 P12 1.565736 1_555
O50 V5 2.008192 1_545
O51 P15 1.557164 1_555
O51 V4 1.873171 1_545
O52 P15 1.536076 1_555
O52 V3 2.032320 1_555
O53 P7 1.503317 1_555
O54 P7 1.609867 1_455
O54 P14 1.615104 1_555
O55 P14 1.547482 1_555
O55 V5 1.891921 1_545
O56 P2 1.475306 1_545
O57 P15 1.605386 1_565
O57 P2 1.619801 1_555
