# generated using pymatgen
data_NaSbO6
_symmetry_space_group_name_H-M   'P 1'
_cell_length_a   8.55982544
_cell_length_b   8.55982544
_cell_length_c   6.77264994
_cell_angle_alpha   90.00000000
_cell_angle_beta   90.00000000
_cell_angle_gamma   90.00000000
_symmetry_Int_Tables_number   1
_chemical_formula_structural   NaSbO6
_chemical_formula_sum   'Na4 Sb4 O24'
_cell_volume   496.23620301
_cell_formula_units_Z   4
loop_
 _symmetry_equiv_pos_site_id
 _symmetry_equiv_pos_as_xyz
  1  'x, y, z'
loop_
 _atom_site_type_symbol
 _atom_site_label
 _atom_site_symmetry_multiplicity
 _atom_site_fract_x
 _atom_site_fract_y
 _atom_site_fract_z
 _atom_site_occupancy
  Na  Na0  1  0.25000000  0.75000000  0.25000000  1
  Na  Na1  1  0.75000000  0.25000000  0.25000000  1
  Na  Na2  1  0.25000000  0.25000000  0.75000000  1
  Na  Na3  1  0.75000000  0.75000000  0.75000000  1
  Sb  Sb0  1  0.25000000  0.75000000  0.75000000  1
  Sb  Sb1  1  0.75000000  0.25000000  0.75000000  1
  Sb  Sb2  1  0.25000000  0.25000000  0.25000000  1
  Sb  Sb3  1  0.75000000  0.75000000  0.25000000  1
  O  O0  1  0.24002038  0.50104432  0.90217341  1
  O  O1  1  0.75997962  0.49895568  0.90217341  1
  O  O2  1  0.74002038  0.00104432  0.59782659  1
  O  O3  1  0.25997962  0.99895568  0.59782659  1
  O  O4  1  0.49895568  0.24002038  0.09782659  1
  O  O5  1  0.50104432  0.75997962  0.09782659  1
  O  O6  1  0.99895568  0.74002038  0.40217341  1
  O  O7  1  0.00104432  0.25997962  0.40217341  1
  O  O8  1  0.49895568  0.75997962  0.90217341  1
  O  O9  1  0.50104432  0.24002038  0.90217341  1
  O  O10  1  0.99895568  0.25997962  0.59782659  1
  O  O11  1  0.00104432  0.74002038  0.59782659  1
  O  O12  1  0.24002038  0.49895568  0.09782659  1
  O  O13  1  0.75997962  0.50104432  0.09782659  1
  O  O14  1  0.74002038  0.99895568  0.40217341  1
  O  O15  1  0.25997962  0.00104432  0.40217341  1
  O  O16  1  0.33899323  0.66100677  0.53581646  1
  O  O17  1  0.66100677  0.33899323  0.53581646  1
  O  O18  1  0.83899323  0.16100677  0.96418354  1
  O  O19  1  0.16100677  0.83899323  0.96418354  1
  O  O20  1  0.33899323  0.33899323  0.46418354  1
  O  O21  1  0.66100677  0.66100677  0.46418354  1
  O  O22  1  0.83899323  0.83899323  0.03581646  1
  O  O23  1  0.16100677  0.16100677  0.03581646  1
loop_
_geom_bond_atom_site_label_1
_geom_bond_atom_site_label_2
_geom_bond_distance
_geom_bond_site_symmetry_2
Na0 O19 2.215321 1_554
Na0 O16 2.215321 1_555
Na0 O6 2.384790 1_455
Na0 O5 2.384790 1_555
Na0 O12 2.384790 1_555
Na0 O15 2.384790 1_565
Na1 O18 2.215321 1_554
Na1 O17 2.215321 1_555
Na1 O14 2.384790 1_545
Na1 O4 2.384790 1_555
Na1 O13 2.384790 1_555
Na1 O7 2.384790 1_655
Na2 O23 2.215321 1_556
Na2 O20 2.215321 1_555
Na2 O9 2.384790 1_555
Na2 O0 2.384790 1_555
Na2 O3 2.384790 1_545
Na2 O10 2.384790 1_455
Na3 O22 2.215321 1_556
Na3 O21 2.215321 1_555
Na3 O1 2.384790 1_555
Na3 O8 2.384790 1_555
Na3 O2 2.384790 1_565
Na3 O11 2.384790 1_655
O0 O12 1.325211 1_556
O0 Sb0 2.368692 1_555
O1 O13 1.325211 1_556
O1 Sb1 2.368692 1_555
O2 Sb1 2.368692 1_555
O3 Sb0 2.368692 1_555
O4 O9 1.325211 1_554
O4 Sb2 2.368692 1_555
O5 O8 1.325211 1_554
O5 Sb3 2.368692 1_555
O6 Sb3 2.368692 1_555
O7 Sb2 2.368692 1_555
O8 Sb0 2.368692 1_555
O9 Sb1 2.368692 1_555
O10 O7 1.325211 1_655
O10 Sb1 2.368692 1_555
O11 O6 1.325211 1_455
O11 Sb0 2.368692 1_555
O12 Sb2 2.368692 1_555
O13 Sb3 2.368692 1_555
O14 O2 1.325211 1_565
O14 Sb3 2.368692 1_555
O15 O3 1.325211 1_545
O15 Sb2 2.368692 1_555
O16 Sb0 1.806872 1_555
O17 Sb1 1.806872 1_555
O18 Sb1 1.806872 1_555
O19 Sb0 1.806872 1_555
O20 Sb2 1.806872 1_555
O21 Sb3 1.806872 1_555
O22 Sb3 1.806872 1_555
O23 Sb2 1.806872 1_555
