# generated using pymatgen
data_SmY(MnGe)4
_symmetry_space_group_name_H-M   'P 1'
_cell_length_a   3.96785300
_cell_length_b   3.96785300
_cell_length_c   10.87382100
_cell_angle_alpha   90.00000000
_cell_angle_beta   90.00000000
_cell_angle_gamma   90.00000000
_symmetry_Int_Tables_number   1
_chemical_formula_structural   SmY(MnGe)4
_chemical_formula_sum   'Sm1 Y1 Mn4 Ge4'
_cell_volume   171.19588754
_cell_formula_units_Z   1
loop_
 _symmetry_equiv_pos_site_id
 _symmetry_equiv_pos_as_xyz
  1  'x, y, z'
loop_
 _atom_site_type_symbol
 _atom_site_label
 _atom_site_symmetry_multiplicity
 _atom_site_fract_x
 _atom_site_fract_y
 _atom_site_fract_z
 _atom_site_occupancy
  Sm  Sm0  1  0.00000000  0.00000000  0.00000000  1
  Y  Y0  1  0.50000000  0.50000000  0.50000000  1
  Mn  Mn0  1  0.00000000  0.50000000  0.25103500  1
  Mn  Mn1  1  0.50000000  0.00000000  0.74896500  1
  Mn  Mn2  1  0.50000000  0.00000000  0.25103500  1
  Mn  Mn3  1  0.00000000  0.50000000  0.74896500  1
  Ge  Ge0  1  0.50000000  0.50000000  0.12190700  1
  Ge  Ge1  1  0.00000000  0.00000000  0.62009300  1
  Ge  Ge2  1  0.00000000  0.00000000  0.37990700  1
  Ge  Ge3  1  0.50000000  0.50000000  0.87809300  1
loop_
_geom_bond_atom_site_label_1
_geom_bond_atom_site_label_2
_geom_bond_distance
_geom_bond_site_symmetry_2
Ge0 Mn0 2.430535 1_555
Ge0 Mn2 2.430535 1_565
Ge0 Mn0 2.430535 1_655
Ge0 Mn2 2.430535 1_555
Ge0 Ge3 2.651190 1_554
Ge0 Sm0 3.103084 1_655
Ge0 Sm0 3.103084 1_565
Ge0 Sm0 3.103084 1_555
Ge0 Sm0 3.103084 1_665
Ge1 Mn3 2.428928 1_555
Ge1 Mn3 2.428928 1_545
Ge1 Mn1 2.428928 1_455
Ge1 Mn1 2.428928 1_555
Ge1 Ge2 2.611740 1_555
Ge1 Y0 3.094709 1_445
Ge1 Y0 3.094709 1_545
Ge1 Y0 3.094709 1_555
Ge1 Y0 3.094709 1_455
Ge2 Mn2 2.428928 1_555
Ge2 Mn0 2.428928 1_555
Ge2 Mn2 2.428928 1_455
Ge2 Mn0 2.428928 1_545
Ge2 Y0 3.094709 1_445
Ge2 Y0 3.094709 1_545
Ge2 Y0 3.094709 1_555
Ge2 Y0 3.094709 1_455
Ge3 Mn1 2.430535 1_565
Ge3 Mn3 2.430535 1_555
Ge3 Mn3 2.430535 1_655
Ge3 Mn1 2.430535 1_555
Ge3 Sm0 3.103084 1_556
Ge3 Sm0 3.103084 1_656
Ge3 Sm0 3.103084 1_566
Ge3 Sm0 3.103084 1_666
