# generated using pymatgen
data_TlCu(PO3)3
_symmetry_space_group_name_H-M   'P 1'
_cell_length_a   11.55680000
_cell_length_b   5.38922500
_cell_length_c   13.26355007
_cell_angle_alpha   80.58981560
_cell_angle_beta   90.00000000
_cell_angle_gamma   90.00000000
_symmetry_Int_Tables_number   1
_chemical_formula_structural   TlCu(PO3)3
_chemical_formula_sum   'Tl4 Cu4 P12 O36'
_cell_volume   814.96651392
_cell_formula_units_Z   4
loop_
 _symmetry_equiv_pos_site_id
 _symmetry_equiv_pos_as_xyz
  1  'x, y, z'
loop_
 _atom_site_type_symbol
 _atom_site_label
 _atom_site_symmetry_multiplicity
 _atom_site_fract_x
 _atom_site_fract_y
 _atom_site_fract_z
 _atom_site_occupancy
  Tl  Tl0  1  0.17233000  0.93267000  0.25556500  1
  Tl  Tl1  1  0.82767000  0.06733000  0.74443500  1
  Tl  Tl2  1  0.67233000  0.06733000  0.24443500  1
  Tl  Tl3  1  0.32767000  0.93267000  0.75556500  1
  Cu  Cu0  1  0.00000000  0.00000000  0.50000000  1
  Cu  Cu1  1  0.50000000  0.00000000  0.00000000  1
  Cu  Cu2  1  0.00000000  0.00000000  0.00000000  1
  Cu  Cu3  1  0.50000000  0.00000000  0.50000000  1
  P  P0  1  0.91202800  0.51486800  0.37020900  1
  P  P1  1  0.08797200  0.48513200  0.62979100  1
  P  P2  1  0.41202800  0.48513200  0.12979100  1
  P  P3  1  0.58797200  0.51486800  0.87020900  1
  P  P4  1  0.92457500  0.48867100  0.14738100  1
  P  P5  1  0.07542500  0.51132900  0.85261900  1
  P  P6  1  0.42457500  0.51132900  0.35261900  1
  P  P7  1  0.57542500  0.48867100  0.64738100  1
  P  P8  1  0.75266000  0.75071100  0.50809500  1
  P  P9  1  0.24734000  0.24928900  0.49190500  1
  P  P10  1  0.25266000  0.24928900  0.99190500  1
  P  P11  1  0.74734000  0.75071100  0.00809500  1
  O  O0  1  0.01350000  0.67198700  0.38955500  1
  O  O1  1  0.98650000  0.32801300  0.61044500  1
  O  O2  1  0.51350000  0.32801300  0.11044500  1
  O  O3  1  0.48650000  0.67198700  0.88955500  1
  O  O4  1  0.41069400  0.76772700  0.09957800  1
  O  O5  1  0.58930600  0.23227300  0.90042200  1
  O  O6  1  0.91069400  0.23227300  0.40042200  1
  O  O7  1  0.08930600  0.76772700  0.59957800  1
  O  O8  1  0.45817800  0.78143300  0.33491600  1
  O  O9  1  0.54182200  0.21856700  0.66508400  1
  O  O10  1  0.95817800  0.21856700  0.16508400  1
  O  O11  1  0.04182200  0.78143300  0.83491600  1
  O  O12  1  0.66108500  0.94084100  0.46818900  1
  O  O13  1  0.33891500  0.05915900  0.53181100  1
  O  O14  1  0.16108500  0.05915900  0.03181100  1
  O  O15  1  0.83891500  0.94084100  0.96818900  1
  O  O16  1  0.80382900  0.51757800  0.08286700  1
  O  O17  1  0.19617100  0.48242200  0.91713300  1
  O  O18  1  0.30382900  0.48242200  0.41713300  1
  O  O19  1  0.69617100  0.51757800  0.58286700  1
  O  O20  1  0.64536000  0.84270600  0.06303400  1
  O  O21  1  0.35464000  0.15729400  0.93696600  1
  O  O22  1  0.14536000  0.15729400  0.43696600  1
  O  O23  1  0.85464000  0.84270600  0.56303400  1
  O  O24  1  0.87401100  0.57556100  0.25093300  1
  O  O25  1  0.12598900  0.42443900  0.74906700  1
  O  O26  1  0.37401100  0.42443900  0.24906700  1
  O  O27  1  0.62598900  0.57556100  0.75093300  1
  O  O28  1  0.79280900  0.62367000  0.41321700  1
  O  O29  1  0.20719100  0.37633000  0.58678300  1
  O  O30  1  0.29280900  0.37633000  0.08678300  1
  O  O31  1  0.70719100  0.62367000  0.91321700  1
  O  O32  1  0.48835400  0.68311900  0.59958500  1
  O  O33  1  0.51164600  0.31688100  0.40041500  1
  O  O34  1  0.98835400  0.31688100  0.90041500  1
  O  O35  1  0.01164600  0.68311900  0.09958500  1
loop_
_geom_bond_atom_site_label_1
_geom_bond_atom_site_label_2
_geom_bond_distance
_geom_bond_site_symmetry_2
Cu0 O7 1.958550 1_545
Cu0 O6 1.958550 1_455
Cu0 O23 2.001967 1_445
Cu0 O22 2.001967 1_555
Cu0 O0 2.478292 1_545
Cu0 O1 2.478292 1_455
Cu1 O5 1.958550 1_554
Cu1 O4 1.958550 1_545
Cu1 O20 2.001967 1_545
Cu1 O21 2.001967 1_554
Cu1 O3 2.478292 1_544
Cu1 O2 2.478292 1_555
Cu2 O14 1.946616 1_555
Cu2 O15 1.946616 1_444
Cu2 O34 1.985330 1_454
Cu2 O35 1.985330 1_545
Cu3 O12 1.946616 1_545
Cu3 O13 1.946616 1_555
Cu3 O32 1.985330 1_545
Cu3 O33 1.985330 1_555
O0 P0 1.493011 1_455
O0 Tl0 2.772171 1_555
O1 P1 1.493011 1_655
O1 Tl1 2.772171 1_555
O2 P2 1.493011 1_555
O2 Tl2 2.772171 1_555
O3 P3 1.493011 1_555
O3 Tl3 2.772171 1_555
O4 P2 1.510194 1_555
O5 P3 1.510194 1_555
O6 P0 1.510194 1_555
O7 P1 1.510194 1_555
O8 P6 1.487648 1_555
O9 P7 1.487648 1_555
O10 P4 1.487648 1_555
O11 P5 1.487648 1_555
O12 P8 1.507564 1_555
O13 P9 1.507564 1_555
O14 P10 1.507564 1_554
O15 P11 1.507564 1_556
O16 P11 1.606500 1_555
O16 P4 1.630988 1_555
O17 P10 1.606500 1_555
O17 P5 1.630988 1_555
O18 P9 1.606500 1_555
O18 P6 1.630988 1_555
O19 P8 1.606500 1_555
O19 P7 1.630988 1_555
O20 P11 1.511267 1_555
O21 P10 1.511267 1_555
O22 P9 1.511267 1_555
O23 P8 1.511267 1_555
O24 P0 1.622839 1_555
O24 P4 1.630177 1_555
O25 P1 1.622839 1_555
O25 P5 1.630177 1_555
O26 P2 1.622839 1_555
O26 P6 1.630177 1_555
O27 P3 1.622839 1_555
O27 P7 1.630177 1_555
O28 P8 1.596683 1_555
O28 P0 1.636123 1_555
O29 P9 1.596683 1_555
O29 P1 1.636123 1_555
O30 P10 1.596683 1_554
O30 P2 1.636123 1_555
O31 P11 1.596683 1_556
O31 P3 1.636123 1_555
O32 P7 1.515044 1_555
O33 P6 1.515044 1_555
O34 P5 1.515044 1_655
O35 P4 1.515044 1_455
