# generated using pymatgen
data_Rb2EuF5
_symmetry_space_group_name_H-M   'P 1'
_cell_length_a   7.01999300
_cell_length_b   7.75779000
_cell_length_c   11.71826300
_cell_angle_alpha   90.00000000
_cell_angle_beta   90.00000000
_cell_angle_gamma   90.00000000
_symmetry_Int_Tables_number   1
_chemical_formula_structural   Rb2EuF5
_chemical_formula_sum   'Rb8 Eu4 F20'
_cell_volume   638.17228475
_cell_formula_units_Z   4
loop_
 _symmetry_equiv_pos_site_id
 _symmetry_equiv_pos_as_xyz
  1  'x, y, z'
loop_
 _atom_site_type_symbol
 _atom_site_label
 _atom_site_symmetry_multiplicity
 _atom_site_fract_x
 _atom_site_fract_y
 _atom_site_fract_z
 _atom_site_occupancy
  Rb  Rb0  1  0.53659800  0.02423400  0.16909800  1
  Rb  Rb1  1  0.46340200  0.52423400  0.83090200  1
  Rb  Rb2  1  0.96340200  0.02423400  0.66909800  1
  Rb  Rb3  1  0.03659800  0.52423400  0.33090200  1
  Rb  Rb4  1  0.02635300  0.01867200  0.32967500  1
  Rb  Rb5  1  0.97364700  0.51867200  0.67032500  1
  Rb  Rb6  1  0.47364700  0.01867200  0.82967500  1
  Rb  Rb7  1  0.52635300  0.51867200  0.17032500  1
  Eu  Eu0  1  0.44260500  0.27187200  0.49914400  1
  Eu  Eu1  1  0.55739500  0.77187200  0.50085600  1
  Eu  Eu2  1  0.05739500  0.27187200  0.99914400  1
  Eu  Eu3  1  0.94260500  0.77187200  0.00085600  1
  F  F0  1  0.14346600  0.98712500  0.07447500  1
  F  F1  1  0.85653400  0.48712500  0.92552500  1
  F  F2  1  0.35653400  0.98712500  0.57447500  1
  F  F3  1  0.64346600  0.48712500  0.42552500  1
  F  F4  1  0.38740700  0.26775000  0.01156100  1
  F  F5  1  0.61259300  0.76775000  0.98843900  1
  F  F6  1  0.11259300  0.26775000  0.51156100  1
  F  F7  1  0.88740700  0.76775000  0.48843900  1
  F  F8  1  0.14267900  0.55064300  0.07402100  1
  F  F9  1  0.85732100  0.05064300  0.92597900  1
  F  F10  1  0.35732100  0.55064300  0.57402100  1
  F  F11  1  0.64267900  0.05064300  0.42597900  1
  F  F12  1  0.33931100  0.26886000  0.31442200  1
  F  F13  1  0.66068900  0.76886000  0.68557800  1
  F  F14  1  0.16068900  0.26886000  0.81442200  1
  F  F15  1  0.83931100  0.76886000  0.18557800  1
  F  F16  1  0.37908300  0.75784300  0.34055900  1
  F  F17  1  0.62091700  0.25784300  0.65944100  1
  F  F18  1  0.12091700  0.75784300  0.84055900  1
  F  F19  1  0.87908300  0.25784300  0.15944100  1
loop_
_geom_bond_atom_site_label_1
_geom_bond_atom_site_label_2
_geom_bond_distance
_geom_bond_site_symmetry_2
Eu0 F17 2.259893 1_555
Eu0 F12 2.282966 1_555
Eu0 F6 2.321467 1_555
Eu0 F3 2.349675 1_555
Eu0 F11 2.377658 1_555
Eu0 F10 2.409431 1_555
Eu0 F2 2.454392 1_545
Eu1 F16 2.259893 1_555
Eu1 F13 2.282966 1_555
Eu1 F7 2.321467 1_555
Eu1 F2 2.349675 1_555
Eu1 F10 2.377658 1_555
Eu1 F11 2.409431 1_565
Eu1 F3 2.454392 1_555
Eu2 F19 2.259893 1_456
Eu2 F14 2.282966 1_555
Eu2 F4 2.321467 1_556
Eu2 F1 2.349675 1_455
Eu2 F9 2.377658 1_455
Eu2 F8 2.409431 1_556
Eu2 F0 2.454392 1_546
Eu3 F18 2.259893 1_654
Eu3 F15 2.282966 1_555
Eu3 F5 2.321467 1_554
Eu3 F0 2.349675 1_655
Eu3 F8 2.377658 1_655
Eu3 F9 2.409431 1_564
Eu3 F1 2.454392 1_554
F0 Rb0 2.988103 1_565
F0 Rb4 3.111092 1_565
F1 Rb1 2.988103 1_555
F1 Rb5 3.111092 1_555
F2 Rb2 2.988103 1_465
F2 Rb6 3.111092 1_565
F3 Rb3 2.988103 1_655
F3 Rb7 3.111092 1_555
F4 Rb0 2.841424 1_555
F4 Rb7 2.863894 1_555
F4 Rb6 2.939914 1_554
F4 Rb1 2.953885 1_554
F5 Rb1 2.841424 1_555
F5 Rb6 2.863894 1_565
F5 Rb7 2.939914 1_556
F5 Rb0 2.953885 1_566
F6 Rb2 2.841424 1_455
F6 Rb5 2.863894 1_455
F6 Rb4 2.939914 1_555
F6 Rb3 2.953885 1_555
F7 Rb3 2.841424 1_655
F7 Rb4 2.863894 1_665
F7 Rb5 2.939914 1_555
F7 Rb2 2.953885 1_565
F8 Rb7 2.930769 1_555
F8 Rb3 3.107705 1_555
F9 Rb6 2.930769 1_555
F9 Rb2 3.107705 1_555
F10 Rb5 2.930769 1_455
F10 Rb1 3.107705 1_555
F11 Rb4 2.930769 1_655
F11 Rb0 3.107705 1_555
F12 Rb7 2.886367 1_555
F12 Rb0 2.901655 1_555
F12 Rb3 2.911702 1_555
F12 Rb4 2.936956 1_555
F13 Rb6 2.886367 1_565
F13 Rb1 2.901655 1_555
F13 Rb2 2.911702 1_565
F13 Rb5 2.936956 1_555
F14 Rb5 2.886367 1_455
F14 Rb2 2.901655 1_455
F14 Rb1 2.911702 1_555
F14 Rb6 2.936956 1_555
F15 Rb4 2.886367 1_665
F15 Rb3 2.901655 1_655
F15 Rb0 2.911702 1_565
F15 Rb7 2.936956 1_555
F16 Rb7 2.913911 1_555
F16 Rb3 3.012902 1_555
F16 Rb0 3.087157 1_565
F16 Rb4 3.200316 1_565
F17 Rb6 2.913911 1_555
F17 Rb2 3.012902 1_555
F17 Rb1 3.087157 1_555
F17 Rb5 3.200316 1_555
F18 Rb5 2.913911 1_455
F18 Rb1 3.012902 1_555
F18 Rb2 3.087157 1_465
F18 Rb6 3.200316 1_565
F19 Rb4 2.913911 1_655
F19 Rb0 3.012902 1_555
F19 Rb3 3.087157 1_655
F19 Rb7 3.200316 1_555
