# generated using pymatgen
data_Na2V2F7
_symmetry_space_group_name_H-M   'P 1'
_cell_length_a   7.49885208
_cell_length_b   7.49885208
_cell_length_c   25.07972586
_cell_angle_alpha   81.75733579
_cell_angle_beta   81.75733579
_cell_angle_gamma   60.38337752
_symmetry_Int_Tables_number   1
_chemical_formula_structural   Na2V2F7
_chemical_formula_sum   'Na16 V16 F56'
_cell_volume   1209.06609516
_cell_formula_units_Z   8
loop_
 _symmetry_equiv_pos_site_id
 _symmetry_equiv_pos_as_xyz
  1  'x, y, z'
loop_
 _atom_site_type_symbol
 _atom_site_label
 _atom_site_symmetry_multiplicity
 _atom_site_fract_x
 _atom_site_fract_y
 _atom_site_fract_z
 _atom_site_occupancy
  Na  Na0  1  0.00000000  0.00000000  0.50000000  1
  Na  Na1  1  0.00000000  0.00000000  0.00000000  1
  Na  Na2  1  0.50000000  0.50000000  0.50000000  1
  Na  Na3  1  0.50000000  0.50000000  0.00000000  1
  Na  Na4  1  0.50000000  0.00000000  0.00000000  1
  Na  Na5  1  0.00000000  0.50000000  0.50000000  1
  Na  Na6  1  0.21395100  0.78604900  0.75000000  1
  Na  Na7  1  0.78604900  0.21395100  0.25000000  1
  Na  Na8  1  0.70458000  0.78985900  0.75280500  1
  Na  Na9  1  0.29542000  0.21014100  0.24719500  1
  Na  Na10  1  0.21014100  0.29542000  0.74719500  1
  Na  Na11  1  0.78985900  0.70458000  0.25280500  1
  Na  Na12  1  0.11780400  0.13459500  0.62171600  1
  Na  Na13  1  0.88219600  0.86540500  0.37828400  1
  Na  Na14  1  0.86540500  0.88219600  0.87828400  1
  Na  Na15  1  0.13459500  0.11780400  0.12171600  1
  V  V0  1  0.50000000  0.00000000  0.50000000  1
  V  V1  1  0.00000000  0.50000000  0.00000000  1
  V  V2  1  0.75336900  0.24663100  0.75000000  1
  V  V3  1  0.24663100  0.75336900  0.25000000  1
  V  V4  1  0.11164700  0.63552400  0.62568800  1
  V  V5  1  0.88835300  0.36447600  0.37431200  1
  V  V6  1  0.36447600  0.88835300  0.87431200  1
  V  V7  1  0.63552400  0.11164700  0.12568800  1
  V  V8  1  0.61462900  0.63100000  0.62782600  1
  V  V9  1  0.38537100  0.36900000  0.37217400  1
  V  V10  1  0.36900000  0.38537100  0.87217400  1
  V  V11  1  0.63100000  0.61462900  0.12782600  1
  V  V12  1  0.61289300  0.13369600  0.62601100  1
  V  V13  1  0.38710700  0.86630400  0.37398900  1
  V  V14  1  0.86630400  0.38710700  0.87398900  1
  V  V15  1  0.13369600  0.61289300  0.12601100  1
  F  F0  1  0.58397700  0.73971900  0.54683000  1
  F  F1  1  0.41602300  0.26028100  0.45317000  1
  F  F2  1  0.26028100  0.41602300  0.95317000  1
  F  F3  1  0.73971900  0.58397700  0.04683000  1
  F  F4  1  0.63393200  0.52644100  0.70964000  1
  F  F5  1  0.36606800  0.47355900  0.29036000  1
  F  F6  1  0.47355900  0.36606800  0.79036000  1
  F  F7  1  0.52644100  0.63393200  0.20964000  1
  F  F8  1  0.30024300  0.72827200  0.64325700  1
  F  F9  1  0.69975700  0.27172800  0.35674300  1
  F  F10  1  0.27172800  0.69975700  0.85674300  1
  F  F11  1  0.72827200  0.30024300  0.14325700  1
  F  F12  1  0.92698400  0.53586200  0.60936100  1
  F  F13  1  0.07301600  0.46413800  0.39063900  1
  F  F14  1  0.46413800  0.07301600  0.89063900  1
  F  F15  1  0.53586200  0.92698400  0.10936100  1
  F  F16  1  0.58034400  0.13975900  0.54516800  1
  F  F17  1  0.41965600  0.86024100  0.45483200  1
  F  F18  1  0.86024100  0.41965600  0.95483200  1
  F  F19  1  0.13975900  0.58034400  0.04516800  1
  F  F20  1  0.63738900  0.13613200  0.70703000  1
  F  F21  1  0.36261100  0.86386800  0.29297000  1
  F  F22  1  0.86386800  0.36261100  0.79297000  1
  F  F23  1  0.13613200  0.63738900  0.20703000  1
  F  F24  1  0.92441500  0.93357800  0.60777200  1
  F  F25  1  0.07558500  0.06642200  0.39222800  1
  F  F26  1  0.06642200  0.07558500  0.89222800  1
  F  F27  1  0.93357800  0.92441500  0.10777200  1
  F  F28  1  0.30040400  0.33725500  0.64307300  1
  F  F29  1  0.69959600  0.66274500  0.35692700  1
  F  F30  1  0.66274500  0.69959600  0.85692700  1
  F  F31  1  0.33725500  0.30040400  0.14307300  1
  F  F32  1  0.52964400  0.91060200  0.65610800  1
  F  F33  1  0.47035600  0.08939800  0.34389200  1
  F  F34  1  0.08939800  0.47035600  0.84389200  1
  F  F35  1  0.91060200  0.52964400  0.15610800  1
  F  F36  1  0.69945800  0.35451400  0.59761300  1
  F  F37  1  0.30054200  0.64548600  0.40238700  1
  F  F38  1  0.64548600  0.30054200  0.90238700  1
  F  F39  1  0.35451400  0.69945800  0.09761300  1
  F  F40  1  0.20727300  0.12997000  0.53193700  1
  F  F41  1  0.79272700  0.87003000  0.46806300  1
  F  F42  1  0.87003000  0.79272700  0.96806300  1
  F  F43  1  0.12997000  0.20727300  0.03193700  1
  F  F44  1  0.86515400  0.97258400  0.79120900  1
  F  F45  1  0.13484600  0.02741600  0.20879100  1
  F  F46  1  0.02741600  0.13484600  0.70879100  1
  F  F47  1  0.97258400  0.86515400  0.29120900  1
  F  F48  1  0.02616700  0.64006500  0.70511600  1
  F  F49  1  0.97383300  0.35993500  0.29488400  1
  F  F50  1  0.35993500  0.97383300  0.79488400  1
  F  F51  1  0.64006500  0.02616700  0.20511600  1
  F  F52  1  0.18928900  0.63472500  0.54564700  1
  F  F53  1  0.81071100  0.36527500  0.45435300  1
  F  F54  1  0.36527500  0.81071100  0.95435300  1
  F  F55  1  0.63472500  0.18928900  0.04564700  1
loop_
_geom_bond_atom_site_label_1
_geom_bond_atom_site_label_2
_geom_bond_distance
_geom_bond_site_symmetry_2
F0 V0 1.981278 1_565
F0 V8 2.077911 1_555
F0 Na2 2.635092 1_555
F0 Na5 2.890538 1_655
F1 V0 1.981278 1_555
F1 V9 2.077911 1_555
F1 Na2 2.635092 1_555
F1 Na5 2.890538 1_555
F2 V1 1.981278 1_556
F2 V10 2.077911 1_555
F2 Na3 2.635092 1_556
F2 Na4 2.890538 1_556
F3 V1 1.981278 1_655
F3 V11 2.077911 1_555
F3 Na3 2.635092 1_555
F3 Na4 2.890538 1_565
F4 V2 2.005723 1_555
F4 V8 2.087484 1_555
F4 Na8 2.677031 1_555
F4 Na6 2.885152 1_555
F5 V3 2.005723 1_555
F5 V9 2.087484 1_555
F5 Na9 2.677031 1_555
F5 Na7 2.885152 1_555
F6 V2 2.005723 1_555
F6 V10 2.087484 1_555
F6 Na10 2.677031 1_555
F6 Na6 2.885152 1_555
F7 V3 2.005723 1_555
F7 V11 2.087484 1_555
F7 Na11 2.677031 1_555
F7 Na7 2.885152 1_555
F8 V4 1.979074 1_555
F8 V8 2.087931 1_555
F8 Na12 2.658440 1_565
F8 Na6 2.707764 1_555
F9 V5 1.979074 1_555
F9 V9 2.087931 1_555
F9 Na13 2.658440 1_545
F9 Na7 2.707764 1_555
F10 V6 1.979074 1_555
F10 V10 2.087931 1_555
F10 Na14 2.658440 1_455
F10 Na6 2.707764 1_555
F11 V7 1.979074 1_555
F11 V11 2.087931 1_555
F11 Na15 2.658440 1_655
F11 Na7 2.707764 1_555
F12 V4 1.979137 1_655
F12 V8 2.083717 1_555
F12 Na12 2.608058 1_655
F12 Na5 2.744105 1_655
F13 V5 1.979137 1_455
F13 V9 2.083717 1_555
F13 Na13 2.608058 1_455
F13 Na5 2.744105 1_555
F14 V6 1.979137 1_545
F14 V10 2.083717 1_555
F14 Na14 2.608058 1_545
F14 Na4 2.744105 1_556
F15 V7 1.979137 1_565
F15 V11 2.083717 1_555
F15 Na15 2.608058 1_565
F15 Na4 2.744105 1_565
F16 V0 1.976057 1_555
F16 V12 2.068086 1_555
F16 Na2 2.579410 1_555
F16 Na0 2.888475 1_655
F17 V0 1.976057 1_565
F17 V13 2.068086 1_555
F17 Na2 2.579410 1_555
F17 Na0 2.888475 1_565
F18 V1 1.976057 1_656
F18 V14 2.068086 1_555
F18 Na3 2.579410 1_556
F18 Na1 2.888475 1_656
F19 V1 1.976057 1_555
F19 V15 2.068086 1_555
F19 Na3 2.579410 1_555
F19 Na1 2.888475 1_565
F20 V2 1.959970 1_555
F20 V12 2.069738 1_555
F20 Na8 2.516422 1_545
F20 Na10 2.888490 1_555
F21 V3 1.959970 1_555
F21 V13 2.069738 1_555
F21 Na9 2.516422 1_565
F21 Na11 2.888490 1_555
F22 V2 1.959970 1_555
F22 V14 2.069738 1_555
F22 Na10 2.516422 1_655
F22 Na8 2.888490 1_555
F23 V3 1.959970 1_555
F23 V15 2.069738 1_555
F23 Na11 2.516422 1_455
F23 Na9 2.888490 1_555
F24 V4 1.989969 1_655
F24 V12 2.084200 1_565
F24 Na12 2.637198 1_665
F24 Na0 2.707162 1_665
F25 V5 1.989969 1_455
F25 V13 2.084200 1_545
F25 Na13 2.637198 1_445
F25 Na0 2.707162 1_555
F26 V6 1.989969 1_545
F26 V14 2.084200 1_455
F26 Na14 2.637198 1_445
F26 Na1 2.707162 1_556
F27 V7 1.989969 1_565
F27 V15 2.084200 1_655
F27 Na15 2.637198 1_665
F27 Na1 2.707162 1_665
F28 V4 1.991110 1_555
F28 V12 2.090126 1_555
F28 Na10 2.616084 1_555
F28 Na12 2.640429 1_555
F29 V5 1.991110 1_555
F29 V13 2.090126 1_555
F29 Na11 2.616084 1_555
F29 Na13 2.640429 1_555
F30 V6 1.991110 1_555
F30 V14 2.090126 1_555
F30 Na8 2.616084 1_555
F30 Na14 2.640429 1_555
F31 V7 1.991110 1_555
F31 V15 2.090126 1_555
F31 Na9 2.616084 1_555
F31 Na15 2.640429 1_555
F32 V8 2.069180 1_555
F32 V12 2.072025 1_565
F32 Na8 2.744188 1_555
F32 Na12 2.885184 1_565
F33 V9 2.069180 1_555
F33 V13 2.072025 1_545
F33 Na9 2.744188 1_555
F33 Na13 2.885184 1_545
F34 V10 2.069180 1_555
F34 V14 2.072025 1_455
F34 Na10 2.744188 1_555
F34 Na14 2.885184 1_455
F35 V11 2.069180 1_555
F35 V15 2.072025 1_655
F35 Na11 2.744188 1_555
F35 Na15 2.885184 1_655
F36 V12 2.064526 1_555
F36 V8 2.070310 1_555
F36 Na12 2.840952 1_655
F36 Na2 2.844620 1_555
F37 V13 2.064526 1_555
F37 V9 2.070310 1_555
F37 Na13 2.840952 1_455
F37 Na2 2.844620 1_555
F38 V14 2.064526 1_555
F38 V10 2.070310 1_555
F38 Na14 2.840952 1_545
F38 Na3 2.844620 1_556
F39 V15 2.064526 1_555
F39 V11 2.070310 1_555
F39 Na15 2.840952 1_565
F39 Na3 2.844620 1_555
F40 V0 2.003774 1_555
F40 Na12 2.255531 1_555
F40 Na0 2.466863 1_555
F40 Na5 2.492755 1_555
F41 V0 2.003774 1_565
F41 Na13 2.255531 1_555
F41 Na0 2.466863 1_665
F41 Na5 2.492755 1_655
F42 V1 2.003774 1_656
F42 Na14 2.255531 1_555
F42 Na1 2.466863 1_666
F42 Na4 2.492755 1_566
F43 V1 2.003774 1_555
F43 Na15 2.255531 1_555
F43 Na1 2.466863 1_555
F43 Na4 2.492755 1_555
F44 V2 1.982617 1_565
F44 Na14 2.191798 1_555
F44 Na6 2.426780 1_655
F44 Na8 2.568429 1_555
F45 V3 1.982617 1_545
F45 Na15 2.191798 1_555
F45 Na7 2.426780 1_455
F45 Na9 2.568429 1_555
F46 V2 1.982617 1_455
F46 Na12 2.191798 1_555
F46 Na6 2.426780 1_545
F46 Na10 2.568429 1_555
F47 V3 1.982617 1_655
F47 Na13 2.191798 1_555
F47 Na7 2.426780 1_565
F47 Na11 2.568429 1_555
F48 V4 2.002994 1_555
F48 Na8 2.321329 1_455
F48 Na10 2.409913 1_555
F48 Na6 2.603835 1_555
F49 V5 2.002994 1_555
F49 Na9 2.321329 1_655
F49 Na11 2.409913 1_555
F49 Na7 2.603835 1_555
F50 V6 2.002994 1_555
F50 Na10 2.321329 1_565
F50 Na8 2.409913 1_555
F50 Na6 2.603835 1_555
F51 V7 2.002994 1_555
F51 Na11 2.321329 1_545
F51 Na9 2.409913 1_555
F51 Na7 2.603835 1_555
F52 V4 2.008378 1_555
F52 Na2 2.236127 1_555
F52 Na0 2.559730 1_565
F52 Na5 2.561460 1_555
F53 V5 2.008378 1_555
F53 Na2 2.236127 1_555
F53 Na0 2.559730 1_655
F53 Na5 2.561460 1_655
F54 V6 2.008378 1_555
F54 Na3 2.236127 1_556
F54 Na1 2.559730 1_566
F54 Na4 2.561460 1_566
F55 V7 2.008378 1_555
F55 Na3 2.236127 1_555
F55 Na1 2.559730 1_655
F55 Na4 2.561460 1_555
