# generated using pymatgen
data_KNdInSbO6
_symmetry_space_group_name_H-M   'P 1'
_cell_length_a   5.79324258
_cell_length_b   5.79324258
_cell_length_c   5.79324258
_cell_angle_alpha   60.00000000
_cell_angle_beta   60.00000000
_cell_angle_gamma   60.00000000
_symmetry_Int_Tables_number   1
_chemical_formula_structural   KNdInSbO6
_chemical_formula_sum   'K1 Nd1 In1 Sb1 O6'
_cell_volume   137.48336184
_cell_formula_units_Z   1
loop_
 _symmetry_equiv_pos_site_id
 _symmetry_equiv_pos_as_xyz
  1  'x, y, z'
loop_
 _atom_site_type_symbol
 _atom_site_label
 _atom_site_symmetry_multiplicity
 _atom_site_fract_x
 _atom_site_fract_y
 _atom_site_fract_z
 _atom_site_occupancy
  K  K0  1  0.75000000  0.75000000  0.75000000  1
  Nd  Nd0  1  0.25000000  0.25000000  0.25000000  1
  In  In0  1  0.00000000  0.00000000  0.00000000  1
  Sb  Sb0  1  0.50000000  0.50000000  0.50000000  1
  O  O0  1  0.74145802  0.25854198  0.25854198  1
  O  O1  1  0.25854198  0.74145802  0.74145802  1
  O  O2  1  0.74145802  0.25854198  0.74145802  1
  O  O3  1  0.25854198  0.74145802  0.25854198  1
  O  O4  1  0.74145802  0.74145802  0.25854198  1
  O  O5  1  0.25854198  0.25854198  0.74145802  1
loop_
_geom_bond_atom_site_label_1
_geom_bond_atom_site_label_2
_geom_bond_distance
_geom_bond_site_symmetry_2
K0 O2 2.897467 1_555
K0 O4 2.897467 1_555
K0 O1 2.897467 1_555
K0 O4 2.897467 1_556
K0 O0 2.897467 1_565
K0 O3 2.897467 1_655
K0 O5 2.897467 1_565
K0 O5 2.897467 1_655
K0 O3 2.897467 1_556
K0 O0 2.897467 1_556
K0 O1 2.897467 1_655
K0 O2 2.897467 1_565
Nd0 O0 2.897467 1_455
Nd0 O3 2.897467 1_545
Nd0 O5 2.897467 1_554
Nd0 O4 2.897467 1_545
Nd0 O1 2.897467 1_545
Nd0 O4 2.897467 1_455
Nd0 O2 2.897467 1_455
Nd0 O1 2.897467 1_554
Nd0 O2 2.897467 1_554
Nd0 O0 2.897467 1_555
Nd0 O3 2.897467 1_555
Nd0 O5 2.897467 1_555
In0 O4 2.118204 1_445
In0 O2 2.118204 1_454
In0 O1 2.118204 1_544
In0 O5 2.118204 1_554
In0 O0 2.118204 1_455
In0 O3 2.118204 1_545
O0 Sb0 1.978237 1_555
O1 Sb0 1.978237 1_555
O2 Sb0 1.978237 1_555
O3 Sb0 1.978237 1_555
O4 Sb0 1.978237 1_555
O5 Sb0 1.978237 1_555
