# generated using pymatgen
data_Ca2TiWO6
_symmetry_space_group_name_H-M   'P 1'
_cell_length_a   5.60444800
_cell_length_b   5.48927400
_cell_length_c   9.56183359
_cell_angle_alpha   55.16049899
_cell_angle_beta   90.00000000
_cell_angle_gamma   90.00000000
_symmetry_Int_Tables_number   1
_chemical_formula_structural   Ca2TiWO6
_chemical_formula_sum   'Ca4 Ti2 W2 O12'
_cell_volume   241.43640919
_cell_formula_units_Z   2
loop_
 _symmetry_equiv_pos_site_id
 _symmetry_equiv_pos_as_xyz
  1  'x, y, z'
loop_
 _atom_site_type_symbol
 _atom_site_label
 _atom_site_symmetry_multiplicity
 _atom_site_fract_x
 _atom_site_fract_y
 _atom_site_fract_z
 _atom_site_occupancy
  Ca  Ca0  1  0.44970500  0.26090200  0.75050900  1
  Ca  Ca1  1  0.94970500  0.73909800  0.74949100  1
  Ca  Ca2  1  0.55029500  0.73909800  0.24949100  1
  Ca  Ca3  1  0.05029500  0.26090200  0.25050900  1
  Ti  Ti0  1  0.50000000  0.00000000  0.50000000  1
  Ti  Ti1  1  0.00000000  0.00000000  0.00000000  1
  W  W0  1  0.50000000  0.50000000  0.00000000  1
  W  W1  1  0.00000000  0.50000000  0.50000000  1
  O  O0  1  0.20268700  0.34054700  0.95374300  1
  O  O1  1  0.70268700  0.65945300  0.54625700  1
  O  O2  1  0.79731300  0.65945300  0.04625700  1
  O  O3  1  0.29731300  0.34054700  0.45374300  1
  O  O4  1  0.28832700  0.76052900  0.04545000  1
  O  O5  1  0.78832700  0.23947100  0.45455000  1
  O  O6  1  0.71167300  0.23947100  0.95455000  1
  O  O7  1  0.21167300  0.76052900  0.54545000  1
  O  O8  1  0.02359800  0.15480800  0.75530400  1
  O  O9  1  0.52359800  0.84519200  0.74469600  1
  O  O10  1  0.47640200  0.15480800  0.25530400  1
  O  O11  1  0.97640200  0.84519200  0.24469600  1
loop_
_geom_bond_atom_site_label_1
_geom_bond_atom_site_label_2
_geom_bond_distance
_geom_bond_site_symmetry_2
Ca0 O9 2.350913 1_545
Ca0 O6 2.390313 1_555
Ca0 O1 2.393522 1_555
Ca0 O8 2.452296 1_555
Ca0 O0 2.618164 1_555
Ca0 O7 2.646099 1_555
Ca0 O4 2.732262 1_546
Ca0 O3 2.748683 1_555
Ca1 O8 2.350913 1_665
Ca1 O7 2.390313 1_655
Ca1 O0 2.393522 1_655
Ca1 O9 2.452296 1_555
Ca1 O1 2.618164 1_555
Ca1 O6 2.646099 1_555
Ca1 O5 2.732262 1_565
Ca1 O2 2.748683 1_556
Ca2 O10 2.350913 1_565
Ca2 O4 2.390313 1_555
Ca2 O3 2.393522 1_555
Ca2 O11 2.452296 1_555
Ca2 O2 2.618164 1_555
Ca2 O5 2.646099 1_555
Ca2 O6 2.732262 1_564
Ca2 O1 2.748683 1_555
Ca3 O11 2.350913 1_445
Ca3 O5 2.390313 1_455
Ca3 O2 2.393522 1_455
Ca3 O10 2.452296 1_555
Ca3 O3 2.618164 1_555
Ca3 O4 2.646099 1_555
Ca3 O7 2.732262 1_545
Ca3 O0 2.748683 1_554
O0 Ti1 2.008933 1_556
O0 W0 2.044639 1_556
O1 Ti0 2.008933 1_565
O1 W1 2.044639 1_655
O2 Ti1 2.008933 1_665
O2 W0 2.044639 1_555
O3 Ti0 2.008933 1_555
O3 W1 2.044639 1_555
O4 Ti1 1.968577 1_565
O4 W0 2.086033 1_555
O5 Ti0 1.968577 1_555
O5 W1 2.086033 1_655
O6 Ti1 1.968577 1_656
O6 W0 2.086033 1_556
O7 Ti0 1.968577 1_565
O7 W1 2.086033 1_555
O8 Ti1 1.985522 1_556
O8 W1 2.069346 1_555
O9 Ti0 1.985522 1_565
O9 W0 2.069346 1_556
O10 Ti0 1.985522 1_555
O10 W0 2.069346 1_555
O11 Ti1 1.985522 1_665
O11 W1 2.069346 1_655
