# generated using pymatgen
data_MgV12Zn6O24
_symmetry_space_group_name_H-M   'P 1'
_cell_length_a   6.05595883
_cell_length_b   6.11417650
_cell_length_c   18.36067325
_cell_angle_alpha   61.66920912
_cell_angle_beta   59.89602789
_cell_angle_gamma   59.70062662
_symmetry_Int_Tables_number   1
_chemical_formula_structural   MgV12Zn6O24
_chemical_formula_sum   'Mg1 V12 Zn6 O24'
_cell_volume   484.96148585
_cell_formula_units_Z   1
loop_
 _symmetry_equiv_pos_site_id
 _symmetry_equiv_pos_as_xyz
  1  'x, y, z'
loop_
 _atom_site_type_symbol
 _atom_site_label
 _atom_site_symmetry_multiplicity
 _atom_site_fract_x
 _atom_site_fract_y
 _atom_site_fract_z
 _atom_site_occupancy
  Mg  Mg0  1  0.05857527  0.93028933  0.14988116  1
  V  V0  1  0.02606625  0.43389612  0.17015673  1
  V  V1  1  0.51732486  0.42609690  0.17195572  1
  V  V2  1  0.00550353  0.49062048  0.50161853  1
  V  V3  1  0.52143418  0.93583037  0.17118787  1
  V  V4  1  0.51658340  0.48288135  0.32914727  1
  V  V5  1  0.49890226  0.49047677  0.50094823  1
  V  V6  1  0.97766572  0.54905926  0.82606372  1
  V  V7  1  0.49432158  0.99761279  0.50245192  1
  V  V8  1  0.47227979  0.03888221  0.83192455  1
  V  V9  1  0.48753911  0.51849093  0.66375072  1
  V  V10  1  0.47797501  0.54873673  0.82567171  1
  V  V11  1  0.82977450  0.92750880  0.96058097  1
  Zn  Zn0  1  0.04320477  0.35249749  0.01464201  1
  Zn  Zn1  1  0.13283197  0.10439515  0.37744616  1
  Zn  Zn2  1  0.47498509  0.51355072  0.99718412  1
  Zn  Zn3  1  0.10752278  0.15112852  0.70609159  1
  Zn  Zn4  1  0.85222783  0.83298233  0.31341185  1
  Zn  Zn5  1  0.86574695  0.88915456  0.62193681  1
  O  O0  1  0.28657507  0.17533124  0.08540881  1
  O  O1  1  0.28741955  0.19764522  0.24568908  1
  O  O2  1  0.29313824  0.64973849  0.09389352  1
  O  O3  1  0.76755249  0.17503699  0.09096324  1
  O  O4  1  0.27962508  0.70695664  0.24136308  1
  O  O5  1  0.27005200  0.24322186  0.42193650  1
  O  O6  1  0.76040700  0.21631815  0.24508046  1
  O  O7  1  0.78888870  0.66522830  0.07852027  1
  O  O8  1  0.25787410  0.70273954  0.42499775  1
  O  O9  1  0.25816799  0.25500618  0.57457254  1
  O  O10  1  0.77702568  0.71547735  0.24385796  1
  O  O11  1  0.72202955  0.25003448  0.42258488  1
  O  O12  1  0.27274248  0.73394939  0.58130878  1
  O  O13  1  0.23404657  0.29590880  0.75203580  1
  O  O14  1  0.73964925  0.28431671  0.57848047  1
  O  O15  1  0.73490932  0.72434989  0.43637606  1
  O  O16  1  0.23667124  0.32504439  0.89656588  1
  O  O17  1  0.24637963  0.75200723  0.74915384  1
  O  O18  1  0.73035105  0.73935622  0.58244920  1
  O  O19  1  0.69700002  0.28323179  0.75085369  1
  O  O20  1  0.23592490  0.80238311  0.90809777  1
  O  O21  1  0.71402610  0.77579394  0.75807079  1
  O  O22  1  0.71451736  0.32238220  0.90603449  1
  O  O23  1  0.73038675  0.79028608  0.90636450  1
loop_
_geom_bond_atom_site_label_1
_geom_bond_atom_site_label_2
_geom_bond_distance
_geom_bond_site_symmetry_2
Mg0 O2 1.940890 1_555
Mg0 O3 2.056839 1_465
Mg0 O0 2.077721 1_565
Mg0 O4 2.170745 1_555
Mg0 O10 2.183330 1_455
Mg0 O6 2.433712 1_465
O0 Zn0 2.002015 1_555
O0 V3 2.145772 1_545
O0 V0 2.182895 1_555
O0 Zn2 2.355763 1_554
O1 V1 1.999760 1_555
O1 Zn1 2.002847 1_555
O1 V3 2.070408 1_545
O1 V0 2.123334 1_555
O2 Zn2 1.890899 1_554
O2 V1 1.996481 1_555
O2 V0 2.108604 1_555
O3 Zn0 1.991375 1_655
O3 V1 2.103070 1_555
O3 V3 2.117267 1_545
O3 Zn2 2.522968 1_554
O4 V3 2.055848 1_555
O4 V1 2.094653 1_555
O4 Zn4 2.136193 1_455
O4 V4 2.185093 1_555
O5 Zn1 2.032019 1_555
O5 V7 2.033278 1_545
O5 V2 2.073422 1_555
O5 V4 2.136627 1_555
O6 Zn4 1.992589 1_545
O6 V1 2.014403 1_555
O6 V0 2.110203 1_655
O6 V4 2.211814 1_555
O7 V11 1.972051 1_554
O7 Zn0 2.179144 1_655
O7 V1 2.236251 1_555
O7 V0 2.238322 1_655
O7 V3 2.336460 1_555
O8 V2 2.026945 1_555
O8 Zn1 2.029375 1_565
O8 V5 2.042605 1_555
O8 V4 2.170982 1_555
O9 Zn3 1.996475 1_555
O9 V7 2.020549 1_545
O9 V2 2.052108 1_555
O9 V5 2.078289 1_555
O10 Zn4 2.034414 1_555
O10 V3 2.062188 1_555
O10 V0 2.147955 1_655
O10 V4 2.152744 1_555
O11 Zn1 2.016378 1_655
O11 V5 2.027339 1_555
O11 V7 2.098772 1_545
O11 V4 2.133949 1_555
O12 Zn5 1.999843 1_455
O12 V9 2.017979 1_555
O12 V5 2.066188 1_555
O12 V7 2.124672 1_555
O13 V6 2.026990 1_455
O13 Zn3 2.030723 1_555
O13 V8 2.085648 1_555
O13 V9 2.086706 1_555
O14 Zn5 1.994265 1_545
O14 V2 2.062808 1_655
O14 V5 2.065311 1_555
O14 V9 2.087142 1_555
O15 Zn4 1.867345 1_555
O15 V7 2.020037 1_555
O15 V2 2.035670 1_655
O15 V5 2.060685 1_555
O16 Zn0 1.923500 1_556
O16 V10 2.029597 1_555
O16 V6 2.048936 1_455
O16 V8 2.063710 1_555
O17 V10 2.011481 1_555
O17 Zn3 2.013056 1_565
O17 V6 2.061850 1_455
O17 V9 2.086587 1_555
O18 Zn5 2.005296 1_555
O18 V9 2.025497 1_555
O18 V7 2.078754 1_555
O18 V2 2.096772 1_655
O19 Zn3 2.015635 1_655
O19 V8 2.051467 1_555
O19 V9 2.060658 1_555
O19 V10 2.097077 1_555
O20 V11 1.996752 1_455
O20 V8 2.063140 1_565
O20 V10 2.133681 1_555
O20 Zn2 2.223550 1_555
O21 V10 2.024481 1_555
O21 V6 2.037868 1_555
O21 Zn5 2.065594 1_555
O21 V8 2.066915 1_565
O22 Zn2 1.995425 1_555
O22 V11 2.006257 1_545
O22 V10 2.079960 1_555
O22 V6 2.136884 1_555
O23 V11 1.990074 1_555
O23 V6 2.052345 1_555
O23 V8 2.096573 1_565
O23 Zn2 2.326223 1_555
