# generated using pymatgen
data_Cu2SnSe4
_symmetry_space_group_name_H-M   'P 1'
_cell_length_a   6.66554255
_cell_length_b   6.66554255
_cell_length_c   6.66554255
_cell_angle_alpha   130.07008009
_cell_angle_beta   130.07008009
_cell_angle_gamma   73.29475509
_symmetry_Int_Tables_number   1
_chemical_formula_structural   Cu2SnSe4
_chemical_formula_sum   'Cu2 Sn1 Se4'
_cell_volume   169.30619202
_cell_formula_units_Z   1
loop_
 _symmetry_equiv_pos_site_id
 _symmetry_equiv_pos_as_xyz
  1  'x, y, z'
loop_
 _atom_site_type_symbol
 _atom_site_label
 _atom_site_symmetry_multiplicity
 _atom_site_fract_x
 _atom_site_fract_y
 _atom_site_fract_z
 _atom_site_occupancy
  Cu  Cu0  1  0.25000000  0.75000000  0.50000000  1
  Cu  Cu1  1  0.75000000  0.25000000  0.50000000  1
  Sn  Sn0  1  0.50000000  0.50000000  0.00000000  1
  Se  Se0  1  0.65082700  0.09275100  0.00000000  1
  Se  Se1  1  0.34917300  0.34917300  0.44192400  1
  Se  Se2  1  0.90724900  0.90724900  0.55807600  1
  Se  Se3  1  0.09275100  0.65082700  0.00000000  1
loop_
_geom_bond_atom_site_label_1
_geom_bond_atom_site_label_2
_geom_bond_distance
_geom_bond_site_symmetry_2
Cu0 Se3 2.389046 1_555
Cu0 Se1 2.389046 1_555
Cu0 Se2 2.389046 1_455
Cu0 Se0 2.389046 1_566
Cu1 Se3 2.389046 1_656
Cu1 Se1 2.389046 1_555
Cu1 Se0 2.389046 1_555
Cu1 Se2 2.389046 1_545
Se0 Sn0 2.609694 1_555
Se1 Sn0 2.609694 1_556
Se2 Sn0 2.609694 1_555
Se3 Sn0 2.609694 1_555
