# generated using pymatgen
data_YbGaO3
_symmetry_space_group_name_H-M   'P 1'
_cell_length_a   5.36564800
_cell_length_b   5.61934700
_cell_length_c   7.42521600
_cell_angle_alpha   90.00000000
_cell_angle_beta   90.00000000
_cell_angle_gamma   90.00000000
_symmetry_Int_Tables_number   1
_chemical_formula_structural   YbGaO3
_chemical_formula_sum   'Yb4 Ga4 O12'
_cell_volume   223.88093980
_cell_formula_units_Z   4
loop_
 _symmetry_equiv_pos_site_id
 _symmetry_equiv_pos_as_xyz
  1  'x, y, z'
loop_
 _atom_site_type_symbol
 _atom_site_label
 _atom_site_symmetry_multiplicity
 _atom_site_fract_x
 _atom_site_fract_y
 _atom_site_fract_z
 _atom_site_occupancy
  Yb  Yb0  1  0.01938800  0.43225000  0.25000000  1
  Yb  Yb1  1  0.98061200  0.56775000  0.75000000  1
  Yb  Yb2  1  0.51938800  0.06775000  0.75000000  1
  Yb  Yb3  1  0.48061200  0.93225000  0.25000000  1
  Ga  Ga0  1  0.00000000  0.00000000  0.00000000  1
  Ga  Ga1  1  0.50000000  0.50000000  0.00000000  1
  Ga  Ga2  1  0.00000000  0.00000000  0.50000000  1
  Ga  Ga3  1  0.50000000  0.50000000  0.50000000  1
  O  O0  1  0.30275500  0.20484900  0.04860400  1
  O  O1  1  0.69724500  0.79515100  0.95139600  1
  O  O2  1  0.80275500  0.29515100  0.95139600  1
  O  O3  1  0.69724500  0.79515100  0.54860400  1
  O  O4  1  0.19724500  0.70484900  0.04860400  1
  O  O5  1  0.30275500  0.20484900  0.45139600  1
  O  O6  1  0.19724500  0.70484900  0.45139600  1
  O  O7  1  0.80275500  0.29515100  0.54860400  1
  O  O8  1  0.60156000  0.53057500  0.25000000  1
  O  O9  1  0.39844000  0.46942500  0.75000000  1
  O  O10  1  0.10156000  0.96942500  0.75000000  1
  O  O11  1  0.89844000  0.03057500  0.25000000  1
loop_
_geom_bond_atom_site_label_1
_geom_bond_atom_site_label_2
_geom_bond_distance
_geom_bond_site_symmetry_2
Ga0 O10 1.942251 1_544
Ga0 O11 1.942251 1_455
Ga0 O2 2.000288 1_454
Ga0 O4 2.000288 1_545
Ga0 O1 2.023423 1_444
Ga0 O0 2.023423 1_555
Ga1 O8 1.942251 1_555
Ga1 O9 1.942251 1_554
Ga1 O0 2.000288 1_555
Ga1 O1 2.000288 1_554
Ga1 O4 2.023423 1_555
Ga1 O2 2.023423 1_554
Ga2 O10 1.942251 1_545
Ga2 O11 1.942251 1_455
Ga2 O7 2.000288 1_455
Ga2 O6 2.000288 1_545
Ga2 O3 2.023423 1_445
Ga2 O5 2.023423 1_555
Ga3 O8 1.942251 1_555
Ga3 O9 1.942251 1_555
Ga3 O5 2.000288 1_555
Ga3 O3 2.000288 1_555
Ga3 O6 2.023423 1_555
Ga3 O7 2.023423 1_555
O0 Yb3 2.343815 1_545
O0 Yb0 2.486141 1_555
O0 Yb2 2.619278 1_554
O1 Yb2 2.343815 1_565
O1 Yb1 2.486141 1_555
O1 Yb3 2.619278 1_556
O2 Yb1 2.343815 1_555
O2 Yb2 2.486141 1_555
O2 Yb0 2.619278 1_656
O3 Yb2 2.343815 1_565
O3 Yb1 2.486141 1_555
O3 Yb3 2.619278 1_555
O4 Yb0 2.343815 1_555
O4 Yb3 2.486141 1_555
O4 Yb1 2.619278 1_454
O5 Yb3 2.343815 1_545
O5 Yb0 2.486141 1_555
O5 Yb2 2.619278 1_555
O6 Yb0 2.343815 1_555
O6 Yb3 2.486141 1_555
O6 Yb1 2.619278 1_455
O7 Yb1 2.343815 1_555
O7 Yb2 2.486141 1_555
O7 Yb0 2.619278 1_655
O8 Yb0 2.308999 1_655
O8 Yb3 2.348592 1_555
O9 Yb1 2.308999 1_455
O9 Yb2 2.348592 1_555
O10 Yb2 2.308999 1_565
O10 Yb1 2.348592 1_455
O11 Yb3 2.308999 1_545
O11 Yb0 2.348592 1_655
