# generated using pymatgen
data_SiNi
_symmetry_space_group_name_H-M   'P 1'
_cell_length_a   4.50369400
_cell_length_b   4.50369400
_cell_length_c   4.50369400
_cell_angle_alpha   90.00000000
_cell_angle_beta   90.00000000
_cell_angle_gamma   90.00000000
_symmetry_Int_Tables_number   1
_chemical_formula_structural   SiNi
_chemical_formula_sum   'Si4 Ni4'
_cell_volume   91.34959477
_cell_formula_units_Z   4
loop_
 _symmetry_equiv_pos_site_id
 _symmetry_equiv_pos_as_xyz
  1  'x, y, z'
loop_
 _atom_site_type_symbol
 _atom_site_label
 _atom_site_symmetry_multiplicity
 _atom_site_fract_x
 _atom_site_fract_y
 _atom_site_fract_z
 _atom_site_occupancy
  Si  Si0  1  0.65317000  0.15317000  0.34683000  1
  Si  Si1  1  0.15317000  0.34683000  0.65317000  1
  Si  Si2  1  0.34683000  0.65317000  0.15317000  1
  Si  Si3  1  0.84683000  0.84683000  0.84683000  1
  Ni  Ni0  1  0.35049600  0.85049600  0.64950400  1
  Ni  Ni1  1  0.85049600  0.64950400  0.35049600  1
  Ni  Ni2  1  0.64950400  0.35049600  0.85049600  1
  Ni  Ni3  1  0.14950400  0.14950400  0.14950400  1
loop_
_geom_bond_atom_site_label_1
_geom_bond_atom_site_label_2
_geom_bond_distance
_geom_bond_site_symmetry_2
Ni0 Si0 2.361047 1_565
Ni0 Si1 2.405573 1_565
Ni0 Si3 2.405573 1_555
Ni0 Si2 2.405573 1_555
Ni0 Si3 2.436288 1_455
Ni0 Si1 2.436288 1_555
Ni0 Si2 2.436288 1_556
Ni1 Si1 2.361047 1_655
Ni1 Si0 2.405573 1_555
Ni1 Si2 2.405573 1_655
Ni1 Si3 2.405573 1_555
Ni1 Si3 2.436288 1_554
Ni1 Si2 2.436288 1_555
Ni1 Si0 2.436288 1_565
Ni2 Si2 2.361047 1_556
Ni2 Si0 2.405573 1_556
Ni2 Si3 2.405573 1_555
Ni2 Si1 2.405573 1_555
Ni2 Si0 2.436288 1_555
Ni2 Si3 2.436288 1_545
Ni2 Si1 2.436288 1_655
Ni3 Si3 2.361047 1_444
Ni3 Si0 2.405573 1_455
Ni3 Si1 2.405573 1_554
Ni3 Si2 2.405573 1_545
Ni3 Si0 2.436288 1_555
Ni3 Si1 2.436288 1_555
Ni3 Si2 2.436288 1_555
