# generated using pymatgen
data_Rb2Pd3S4
_symmetry_space_group_name_H-M   'P 1'
_cell_length_a   6.16261147
_cell_length_b   6.22482093
_cell_length_c   13.81033729
_cell_angle_alpha   83.65914328
_cell_angle_beta   77.10788944
_cell_angle_gamma   60.33004450
_symmetry_Int_Tables_number   1
_chemical_formula_structural   Rb2Pd3S4
_chemical_formula_sum   'Rb4 Pd6 S8'
_cell_volume   448.71775990
_cell_formula_units_Z   2
loop_
 _symmetry_equiv_pos_site_id
 _symmetry_equiv_pos_as_xyz
  1  'x, y, z'
loop_
 _atom_site_type_symbol
 _atom_site_label
 _atom_site_symmetry_multiplicity
 _atom_site_fract_x
 _atom_site_fract_y
 _atom_site_fract_z
 _atom_site_occupancy
  Rb  Rb0  1  0.54598290  0.25000000  0.90803420  1
  Rb  Rb1  1  0.70401710  0.25000000  0.59196580  1
  Rb  Rb2  1  0.45401710  0.75000000  0.09196580  1
  Rb  Rb3  1  0.29598290  0.75000000  0.40803420  1
  Pd  Pd0  1  0.12500000  0.25000000  0.75000000  1
  Pd  Pd1  1  0.87500000  0.75000000  0.25000000  1
  Pd  Pd2  1  0.87543432  0.25000000  0.24912936  1
  Pd  Pd3  1  0.37456568  0.25000000  0.25087064  1
  Pd  Pd4  1  0.12456568  0.75000000  0.75087064  1
  Pd  Pd5  1  0.62543432  0.75000000  0.74912936  1
  S  S0  1  0.34441924  0.91825411  0.63604117  1
  S  S1  1  0.23732665  0.91825411  0.86395883  1
  S  S2  1  0.01953960  0.58174589  0.63604117  1
  S  S3  1  0.89871352  0.58174589  0.86395883  1
  S  S4  1  0.65558076  0.08174589  0.36395883  1
  S  S5  1  0.76267335  0.08174589  0.13604117  1
  S  S6  1  0.98046040  0.41825411  0.36395883  1
  S  S7  1  0.10128648  0.41825411  0.13604117  1
loop_
_geom_bond_atom_site_label_1
_geom_bond_atom_site_label_2
_geom_bond_distance
_geom_bond_site_symmetry_2
Rb0 S7 3.543825 1_556
Rb0 S5 3.543828 1_556
Rb0 S3 3.596678 1_555
Rb0 S1 3.596683 1_545
Rb0 S1 3.632753 1_645
Rb0 S3 3.632758 1_455
Rb0 S1 3.662822 1_555
Rb0 S3 3.662822 1_545
Rb1 S6 3.543828 1_555
Rb1 S4 3.543828 1_555
Rb1 S2 3.596683 1_555
Rb1 S0 3.596683 1_645
Rb1 S0 3.632753 1_545
Rb1 S2 3.632753 1_655
Rb1 S0 3.662822 1_555
Rb1 S2 3.662822 1_645
Rb2 S3 3.543825 1_554
Rb2 S1 3.543828 1_554
Rb2 S7 3.596678 1_555
Rb2 S5 3.596683 1_565
Rb2 S5 3.632753 1_465
Rb2 S7 3.632758 1_655
Rb2 S5 3.662822 1_555
Rb2 S7 3.662822 1_565
Rb3 S2 3.543828 1_555
Rb3 S0 3.543828 1_555
Rb3 S6 3.596683 1_555
Rb3 S4 3.596683 1_465
Rb3 S4 3.632753 1_565
Rb3 S6 3.632753 1_455
Rb3 S4 3.662822 1_555
Rb3 S6 3.662822 1_465
Pd0 S0 2.360843 1_545
Pd0 S1 2.360843 1_545
Pd0 S2 2.360843 1_555
Pd0 S3 2.360843 1_455
Pd0 Rb0 3.744416 1_555
Pd0 Rb1 3.744416 1_455
Pd0 Rb0 3.744416 1_455
Pd0 Rb1 3.744416 1_555
Pd1 S4 2.360843 1_565
Pd1 S5 2.360843 1_565
Pd1 S6 2.360843 1_555
Pd1 S7 2.360843 1_655
Pd1 Rb2 3.744416 1_555
Pd1 Rb3 3.744416 1_655
Pd1 Rb2 3.744416 1_655
Pd1 Rb3 3.744416 1_555
Pd2 S4 2.350891 1_555
Pd2 S6 2.350899 1_555
Pd2 S5 2.363291 1_555
Pd2 S7 2.363303 1_655
Pd2 Rb2 3.763450 1_555
Pd2 Rb2 3.763455 1_645
Pd2 Rb3 3.776678 1_555
Pd2 Rb3 3.776683 1_645
Pd3 S5 2.350891 1_555
Pd3 S7 2.350895 1_555
Pd3 S4 2.363291 1_555
Pd3 S6 2.363299 1_455
Pd3 Rb3 3.763450 1_555
Pd3 Rb3 3.763455 1_545
Pd3 Rb2 3.776678 1_555
Pd3 Rb2 3.776683 1_545
Pd4 S0 2.350891 1_555
Pd4 S2 2.350899 1_555
Pd4 S1 2.363291 1_555
Pd4 S3 2.363303 1_455
Pd4 Rb0 3.763450 1_555
Pd4 Rb0 3.763455 1_465
Pd4 Rb1 3.776678 1_555
Pd4 Rb1 3.776683 1_465
Pd5 S1 2.350891 1_555
Pd5 S3 2.350895 1_555
Pd5 S0 2.363291 1_555
Pd5 S2 2.363299 1_655
Pd5 Rb1 3.763450 1_555
Pd5 Rb1 3.763455 1_565
Pd5 Rb0 3.776678 1_555
Pd5 Rb0 3.776683 1_565
