# generated using pymatgen
data_Nb(Br3N)2
_symmetry_space_group_name_H-M   'P 1'
_cell_length_a   7.47695983
_cell_length_b   7.47695983
_cell_length_c   7.47695983
_cell_angle_alpha   60.00000000
_cell_angle_beta   60.00000000
_cell_angle_gamma   60.00000000
_symmetry_Int_Tables_number   1
_chemical_formula_structural   Nb(Br3N)2
_chemical_formula_sum   'Nb1 Br6 N2'
_cell_volume   295.56985924
_cell_formula_units_Z   1
loop_
 _symmetry_equiv_pos_site_id
 _symmetry_equiv_pos_as_xyz
  1  'x, y, z'
loop_
 _atom_site_type_symbol
 _atom_site_label
 _atom_site_symmetry_multiplicity
 _atom_site_fract_x
 _atom_site_fract_y
 _atom_site_fract_z
 _atom_site_occupancy
  Nb  Nb0  1  0.00000000  0.00000000  0.00000000  1
  Br  Br0  1  0.76011100  0.23988900  0.23988900  1
  Br  Br1  1  0.76011100  0.23988900  0.76011100  1
  Br  Br2  1  0.76011100  0.76011100  0.23988900  1
  Br  Br3  1  0.23988900  0.76011100  0.76011100  1
  Br  Br4  1  0.23988900  0.76011100  0.23988900  1
  Br  Br5  1  0.23988900  0.23988900  0.76011100  1
  N  N0  1  0.25000000  0.25000000  0.25000000  1
  N  N1  1  0.75000000  0.75000000  0.75000000  1
loop_
_geom_bond_atom_site_label_1
_geom_bond_atom_site_label_2
_geom_bond_distance
_geom_bond_site_symmetry_2
Br0 Nb0 2.536591 1_655
Br1 Nb0 2.536591 1_656
Br2 Nb0 2.536591 1_665
Br3 Nb0 2.536591 1_566
Br4 Nb0 2.536591 1_565
Br5 Nb0 2.536591 1_556
