# generated using pymatgen
data_Li3RhF6
_symmetry_space_group_name_H-M   'P 1'
_cell_length_a   5.28289155
_cell_length_b   6.73992657
_cell_length_c   5.76395926
_cell_angle_alpha   75.93131685
_cell_angle_beta   118.63348762
_cell_angle_gamma   130.64536899
_symmetry_Int_Tables_number   1
_chemical_formula_structural   Li3RhF6
_chemical_formula_sum   'Li3 Rh1 F6'
_cell_volume   135.94078983
_cell_formula_units_Z   1
loop_
 _symmetry_equiv_pos_site_id
 _symmetry_equiv_pos_as_xyz
  1  'x, y, z'
loop_
 _atom_site_type_symbol
 _atom_site_label
 _atom_site_symmetry_multiplicity
 _atom_site_fract_x
 _atom_site_fract_y
 _atom_site_fract_z
 _atom_site_occupancy
  Li  Li0  1  0.00000000  0.00000000  0.50000000  1
  Li  Li1  1  0.50000000  0.50000000  0.00000000  1
  Li  Li2  1  0.00000000  0.50000000  0.00000000  1
  Rh  Rh0  1  0.00000000  0.00000000  0.00000000  1
  F  F0  1  0.95837500  0.27361000  0.78951100  1
  F  F1  1  0.04162500  0.72639000  0.21048900  1
  F  F2  1  0.75263300  0.74290100  0.69895300  1
  F  F3  1  0.24736700  0.25709900  0.30104700  1
  F  F4  1  0.54820900  0.79134900  0.07141200  1
  F  F5  1  0.45179100  0.20865100  0.92858800  1
loop_
_geom_bond_atom_site_label_1
_geom_bond_atom_site_label_2
_geom_bond_distance
_geom_bond_site_symmetry_2
F0 Li1 1.967886 1_656
F0 Li2 2.013891 1_656
F0 Rh0 2.026310 1_656
F1 Li1 1.967886 1_455
F1 Li2 2.013891 1_555
F1 Rh0 2.026310 1_565
F2 Li0 1.882986 1_665
F2 Rh0 2.014927 1_666
F2 Li1 2.337613 1_556
F3 Li0 1.882986 1_555
F3 Rh0 2.014927 1_555
F3 Li1 2.337613 1_555
F4 Li1 1.931647 1_555
F4 Rh0 2.032537 1_665
F4 Li2 2.062678 1_555
F4 Li0 2.332886 1_665
F5 Li1 1.931647 1_556
F5 Rh0 2.032537 1_556
F5 Li2 2.062678 1_656
F5 Li0 2.332886 1_555
