# generated using pymatgen
data_Al(CoO2)2
_symmetry_space_group_name_H-M   'P 1'
_cell_length_a   6.14086606
_cell_length_b   6.14086606
_cell_length_c   5.15585630
_cell_angle_alpha   65.30611057
_cell_angle_beta   65.30611057
_cell_angle_gamma   107.32449110
_symmetry_Int_Tables_number   1
_chemical_formula_structural   Al(CoO2)2
_chemical_formula_sum   'Al2 Co4 O8'
_cell_volume   131.62629512
_cell_formula_units_Z   2
loop_
 _symmetry_equiv_pos_site_id
 _symmetry_equiv_pos_as_xyz
  1  'x, y, z'
loop_
 _atom_site_type_symbol
 _atom_site_label
 _atom_site_symmetry_multiplicity
 _atom_site_fract_x
 _atom_site_fract_y
 _atom_site_fract_z
 _atom_site_occupancy
  Al  Al0  1  0.12235400  0.87764600  0.25000000  1
  Al  Al1  1  0.87764600  0.12235400  0.75000000  1
  Co  Co0  1  0.50000000  0.50000000  0.50000000  1
  Co  Co1  1  0.50000000  0.50000000  0.00000000  1
  Co  Co2  1  0.50000000  0.00000000  0.50000000  1
  Co  Co3  1  0.00000000  0.50000000  0.00000000  1
  O  O0  1  0.89895900  0.72050200  0.74433200  1
  O  O1  1  0.27949800  0.10104100  0.75566800  1
  O  O2  1  0.10104100  0.27949800  0.25566800  1
  O  O3  1  0.72050200  0.89895900  0.24433200  1
  O  O4  1  0.14252600  0.46291500  0.63837800  1
  O  O5  1  0.53708500  0.85747400  0.86162200  1
  O  O6  1  0.46291500  0.14252600  0.13837800  1
  O  O7  1  0.85747400  0.53708500  0.36162200  1
loop_
_geom_bond_atom_site_label_1
_geom_bond_atom_site_label_2
_geom_bond_distance
_geom_bond_site_symmetry_2
Al0 O7 1.880675 1_455
Al0 O6 1.880675 1_565
Al0 O1 1.882613 1_564
Al0 O0 1.882613 1_455
Al1 O5 1.880675 1_545
Al1 O4 1.880675 1_655
Al1 O2 1.882613 1_655
Al1 O3 1.882613 1_546
Co0 O3 1.846054 1_555
Co0 O1 1.846054 1_555
Co0 O7 1.907272 1_555
Co0 O4 1.907272 1_555
Co1 O0 1.846054 1_554
Co1 O2 1.846054 1_555
Co1 O5 1.907272 1_554
Co1 O6 1.907272 1_555
Co2 O5 1.845036 1_545
Co2 O6 1.845036 1_555
Co2 O1 1.910112 1_555
Co2 O3 1.910112 1_545
Co3 O7 1.845036 1_455
Co3 O4 1.845036 1_554
Co3 O2 1.910112 1_555
Co3 O0 1.910112 1_454
