# generated using pymatgen
data_La4FeAs4Ru3O4
_symmetry_space_group_name_H-M   'P 1'
_cell_length_a   5.85847657
_cell_length_b   5.85840586
_cell_length_c   17.82855708
_cell_angle_alpha   80.54625762
_cell_angle_beta   80.54715614
_cell_angle_gamma   89.99235134
_symmetry_Int_Tables_number   1
_chemical_formula_structural   La4FeAs4Ru3O4
_chemical_formula_sum   'La8 Fe2 As8 Ru6 O8'
_cell_volume   595.16668231
_cell_formula_units_Z   2
loop_
 _symmetry_equiv_pos_site_id
 _symmetry_equiv_pos_as_xyz
  1  'x, y, z'
loop_
 _atom_site_type_symbol
 _atom_site_label
 _atom_site_symmetry_multiplicity
 _atom_site_fract_x
 _atom_site_fract_y
 _atom_site_fract_z
 _atom_site_occupancy
  La  La0  1  0.28338700  0.53334800  0.43329200  1
  La  La1  1  0.78334400  0.03340200  0.43328200  1
  La  La2  1  0.46663400  0.21665600  0.06668900  1
  La  La3  1  0.96662100  0.71659700  0.06668700  1
  La  La4  1  0.03567900  0.28562100  0.92870500  1
  La  La5  1  0.53564400  0.78567300  0.92869400  1
  La  La6  1  0.21431100  0.96433600  0.57129600  1
  La  La7  1  0.71439800  0.46435100  0.57129200  1
  Fe  Fe0  1  0.12494600  0.87497600  0.25001700  1
  Fe  Fe1  1  0.62496400  0.37494900  0.25002100  1
  As  As0  1  0.41525100  0.66528100  0.16951100  1
  As  As1  1  0.91526100  0.16524600  0.16950700  1
  As  As2  1  0.33472300  0.08470800  0.33051300  1
  As  As3  1  0.83475400  0.58475900  0.33050800  1
  As  As4  1  0.16228900  0.41228600  0.67536300  1
  As  As5  1  0.66228200  0.91228900  0.67536500  1
  As  As6  1  0.08770800  0.83771100  0.82464100  1
  As  As7  1  0.58771000  0.33771100  0.82463900  1
  Ru  Ru0  1  0.87501300  0.62501700  0.74999400  1
  Ru  Ru1  1  0.37502200  0.12502600  0.74999500  1
  Ru  Ru2  1  0.62502000  0.87502000  0.24999900  1
  Ru  Ru3  1  0.12502500  0.37502700  0.24999800  1
  Ru  Ru4  1  0.37498600  0.62498000  0.75000900  1
  Ru  Ru5  1  0.87497500  0.12498100  0.75000900  1
  O  O0  1  0.75128400  0.50128500  0.99745400  1
  O  O1  1  0.25128600  0.00128500  0.99746300  1
  O  O2  1  0.99877500  0.74877800  0.50253400  1
  O  O3  1  0.49878200  0.24877200  0.50253100  1
  O  O4  1  0.25075800  0.50075900  0.99844300  1
  O  O5  1  0.75076100  0.00076100  0.99844300  1
  O  O6  1  0.49920700  0.74920900  0.50155400  1
  O  O7  1  0.99919900  0.24920100  0.50155100  1
loop_
_geom_bond_atom_site_label_1
_geom_bond_atom_site_label_2
_geom_bond_distance
_geom_bond_site_symmetry_2
La0 O6 2.385462 1_555
La0 O7 2.386147 1_455
La0 O3 2.393878 1_555
La0 O2 2.394185 1_455
La1 O7 2.385450 1_555
La1 O6 2.386194 1_545
La1 O3 2.393852 1_555
La1 O2 2.394292 1_545
La2 O4 2.385317 1_554
La2 O5 2.385498 1_554
La2 O1 2.393807 1_554
La2 O0 2.394475 1_554
La3 O4 2.385311 1_654
La3 O5 2.385462 1_564
La3 O0 2.393642 1_554
La3 O1 2.394684 1_664
La4 O1 2.389605 1_555
La4 O0 2.389970 1_455
La4 O4 2.398306 1_555
La4 O5 2.398847 1_455
La5 O1 2.389823 1_565
La5 O0 2.389927 1_555
La5 O5 2.398399 1_565
La5 O4 2.398982 1_555
La6 O2 2.389463 1_455
La6 O3 2.390750 1_565
La6 O7 2.398312 1_465
La6 O6 2.398477 1_555
La7 O3 2.389814 1_555
La7 O2 2.390344 1_555
La7 O7 2.398211 1_555
La7 O6 2.398509 1_555
Fe0 Ru2 2.928857 1_455
Fe0 Ru3 2.928960 1_555
Fe0 Ru3 2.929446 1_565
Fe0 Ru2 2.929619 1_555
Fe1 Ru2 2.928851 1_545
Fe1 Ru3 2.928948 1_555
Fe1 Ru3 2.929528 1_655
Fe1 Ru2 2.929555 1_555
As0 Ru2 2.497622 1_555
As0 Fe0 2.497727 1_555
As0 Ru3 2.497864 1_555
As0 Fe1 2.497891 1_555
As0 La2 3.429134 1_565
As0 La3 3.429179 1_555
As0 La2 3.429278 1_555
As0 La3 3.429329 1_455
As1 Fe0 2.497582 1_645
As1 Ru3 2.497789 1_655
As1 Fe1 2.497804 1_555
As1 Ru2 2.497851 1_545
As1 La3 3.429001 1_555
As1 La2 3.429155 1_655
As1 La2 3.429245 1_555
As1 La3 3.429375 1_545
As2 Fe0 2.497731 1_545
As2 Ru2 2.497753 1_545
As2 Ru3 2.497843 1_555
As2 Fe1 2.497902 1_555
As2 La1 3.428651 1_555
As2 La0 3.428779 1_545
As2 La0 3.428858 1_555
As2 La1 3.428866 1_455
As3 Fe0 2.497645 1_655
As3 Ru2 2.497709 1_555
As3 Ru3 2.497776 1_655
As3 Fe1 2.497925 1_555
As3 La1 3.428731 1_555
As3 La1 3.428815 1_565
As3 La0 3.428883 1_655
As3 La0 3.428904 1_555
As4 Ru1 2.442201 1_555
As4 Ru0 2.442269 1_455
As4 Ru4 2.442608 1_555
As4 Ru5 2.442632 1_455
As4 La7 3.440044 1_455
As4 La6 3.440290 1_545
As4 La6 3.440672 1_555
As4 La7 3.441051 1_555
As5 Ru0 2.442208 1_555
As5 Ru1 2.442224 1_565
As5 Ru5 2.442562 1_565
As5 Ru4 2.442571 1_555
As5 La7 3.440299 1_555
As5 La6 3.440420 1_555
As5 La6 3.440638 1_655
As5 La7 3.440772 1_565
As6 Ru5 2.442236 1_465
As6 Ru4 2.442285 1_555
As6 Ru0 2.442614 1_455
As6 Ru1 2.442667 1_565
As6 La4 3.440055 1_565
As6 La5 3.440060 1_555
As6 La5 3.440707 1_455
As6 La4 3.440852 1_555
As7 Ru4 2.442183 1_555
As7 Ru5 2.442217 1_555
As7 Ru1 2.442520 1_555
As7 Ru0 2.442591 1_555
As7 La5 3.440210 1_555
As7 La4 3.440375 1_655
As7 La5 3.440533 1_545
As7 La4 3.440629 1_555
