# generated using pymatgen
data_Mg6ZrBi
_symmetry_space_group_name_H-M   'P 1'
_cell_length_a   5.13112400
_cell_length_b   6.58837100
_cell_length_c   11.06193000
_cell_angle_alpha   90.00000000
_cell_angle_beta   90.00000000
_cell_angle_gamma   90.00000000
_symmetry_Int_Tables_number   1
_chemical_formula_structural   Mg6ZrBi
_chemical_formula_sum   'Mg12 Zr2 Bi2'
_cell_volume   373.95682416
_cell_formula_units_Z   2
loop_
 _symmetry_equiv_pos_site_id
 _symmetry_equiv_pos_as_xyz
  1  'x, y, z'
loop_
 _atom_site_type_symbol
 _atom_site_label
 _atom_site_symmetry_multiplicity
 _atom_site_fract_x
 _atom_site_fract_y
 _atom_site_fract_z
 _atom_site_occupancy
  Mg  Mg0  1  0.00000000  0.23973300  0.07985200  1
  Mg  Mg1  1  0.00000000  0.76026700  0.07985200  1
  Mg  Mg2  1  0.00000000  0.50000000  0.83618600  1
  Mg  Mg3  1  0.50000000  0.25184200  0.91684300  1
  Mg  Mg4  1  0.50000000  0.74815800  0.91684300  1
  Mg  Mg5  1  0.50000000  0.50000000  0.66642700  1
  Mg  Mg6  1  0.00000000  0.73973300  0.57985200  1
  Mg  Mg7  1  0.00000000  0.26026700  0.57985200  1
  Mg  Mg8  1  0.00000000  0.00000000  0.33618600  1
  Mg  Mg9  1  0.50000000  0.75184200  0.41684300  1
  Mg  Mg10  1  0.50000000  0.24815800  0.41684300  1
  Mg  Mg11  1  0.50000000  0.00000000  0.16642700  1
  Zr  Zr0  1  0.00000000  0.50000000  0.33586000  1
  Zr  Zr1  1  0.00000000  0.00000000  0.83586000  1
  Bi  Bi0  1  0.50000000  0.50000000  0.16813600  1
  Bi  Bi1  1  0.50000000  0.00000000  0.66813600  1
loop_
_geom_bond_atom_site_label_1
_geom_bond_atom_site_label_2
_geom_bond_distance
_geom_bond_site_symmetry_2
Mg0 Zr1 3.127201 1_554
Mg0 Mg3 3.136875 1_554
Mg0 Mg3 3.136875 1_454
Mg0 Mg1 3.158900 1_545
Mg0 Mg11 3.161318 1_555
Mg0 Mg11 3.161318 1_455
Mg0 Mg2 3.194618 1_554
Mg0 Mg8 3.245766 1_555
Mg0 Zr0 3.310622 1_555
Mg0 Mg1 3.429471 1_555
Mg1 Zr1 3.127201 1_564
Mg1 Mg4 3.136875 1_554
Mg1 Mg4 3.136875 1_454
Mg1 Mg11 3.161318 1_465
Mg1 Mg11 3.161318 1_565
Mg1 Mg2 3.194618 1_554
Mg1 Mg8 3.245766 1_565
Mg1 Zr0 3.310622 1_555
Mg2 Mg4 3.170371 1_555
Mg2 Mg4 3.170371 1_455
Mg2 Mg3 3.170371 1_555
Mg2 Mg3 3.170371 1_455
Mg2 Mg5 3.179383 1_455
Mg2 Mg5 3.179383 1_555
Mg2 Mg7 3.245766 1_555
Mg2 Mg6 3.245766 1_555
Mg2 Zr1 3.294187 1_555
Mg2 Zr1 3.294187 1_565
Mg3 Zr1 3.183969 1_555
Mg3 Zr1 3.183969 1_655
Mg3 Mg5 3.216590 1_555
Mg3 Mg4 3.269914 1_555
Mg3 Mg4 3.318457 1_545
Mg4 Zr1 3.183969 1_565
Mg4 Zr1 3.183969 1_665
Mg4 Mg5 3.216590 1_555
Mg5 Mg6 3.161318 1_655
Mg5 Mg7 3.161318 1_555
Mg5 Mg7 3.161318 1_655
Mg5 Mg6 3.161318 1_555
Mg5 Mg9 3.221103 1_555
Mg6 Zr0 3.127201 1_555
Mg6 Mg9 3.136875 1_555
Mg6 Mg9 3.136875 1_455
Mg6 Mg7 3.158900 1_555
Mg6 Mg8 3.194618 1_565
Mg6 Zr1 3.310622 1_565
Mg6 Mg7 3.429471 1_565
Mg7 Zr0 3.127201 1_555
Mg7 Mg8 3.194618 1_555
Mg7 Zr1 3.310622 1_555
Mg8 Mg9 3.170371 1_545
Mg8 Mg9 3.170371 1_445
Mg8 Zr0 3.294187 1_545
Mg8 Zr0 3.294187 1_555
Mg9 Zr0 3.183969 1_555
Mg9 Zr0 3.183969 1_655
Mg10 Mg7 3.136875 1_555
Mg10 Mg7 3.136875 1_655
Mg10 Mg8 3.170371 1_655
Mg10 Mg8 3.170371 1_555
Mg10 Zr0 3.183969 1_555
Mg10 Zr0 3.183969 1_655
Mg10 Mg11 3.216590 1_555
Mg10 Mg5 3.221103 1_555
Mg10 Mg9 3.269914 1_545
Mg10 Mg9 3.318457 1_555
Mg11 Mg8 3.179383 1_555
Mg11 Mg8 3.179383 1_655
Mg11 Mg9 3.216590 1_545
Mg11 Mg4 3.221103 1_544
Mg11 Mg3 3.221103 1_554
Bi0 Zr0 3.166139 1_655
Bi0 Zr0 3.166139 1_555
Bi0 Mg10 3.212791 1_555
Bi0 Mg9 3.212791 1_555
Bi0 Mg4 3.224948 1_554
Bi0 Mg3 3.224948 1_554
Bi0 Mg0 3.236689 1_555
Bi0 Mg1 3.236689 1_555
Bi0 Mg0 3.236689 1_655
Bi0 Mg1 3.236689 1_655
Bi0 Mg11 3.294240 1_565
Bi0 Mg11 3.294240 1_555
Bi1 Zr1 3.166139 1_555
Bi1 Zr1 3.166139 1_655
Bi1 Mg3 3.212791 1_555
Bi1 Mg4 3.212791 1_545
Bi1 Mg10 3.224948 1_555
Bi1 Mg9 3.224948 1_545
Bi1 Mg7 3.236689 1_555
Bi1 Mg7 3.236689 1_655
Bi1 Mg6 3.236689 1_645
Bi1 Mg6 3.236689 1_545
Bi1 Mg5 3.294240 1_545
Bi1 Mg5 3.294240 1_555
