# generated using pymatgen
data_Cd2GaAgSe4
_symmetry_space_group_name_H-M   'P 1'
_cell_length_a   8.14345269
_cell_length_b   8.14345269
_cell_length_c   7.50982630
_cell_angle_alpha   64.28181078
_cell_angle_beta   64.28181078
_cell_angle_gamma   30.23734035
_symmetry_Int_Tables_number   1
_chemical_formula_structural   Cd2GaAgSe4
_chemical_formula_sum   'Cd2 Ga1 Ag1 Se4'
_cell_volume   224.02945081
_cell_formula_units_Z   1
loop_
 _symmetry_equiv_pos_site_id
 _symmetry_equiv_pos_as_xyz
  1  'x, y, z'
loop_
 _atom_site_type_symbol
 _atom_site_label
 _atom_site_symmetry_multiplicity
 _atom_site_fract_x
 _atom_site_fract_y
 _atom_site_fract_z
 _atom_site_occupancy
  Cd  Cd0  1  0.00069400  0.00069400  0.65249400  1
  Cd  Cd1  1  0.49666900  0.49666900  0.17412600  1
  Ga  Ga0  1  0.75128400  0.75128400  0.59557200  1
  Ag  Ag0  1  0.25250700  0.25250700  0.07540600  1
  Se  Se0  1  0.06454500  0.06454500  0.26644100  1
  Se  Se1  1  0.57295000  0.57295000  0.76534400  1
  Se  Se2  1  0.81148400  0.81148400  0.84140000  1
  Se  Se3  1  0.30102200  0.30102200  0.37921600  1
loop_
_geom_bond_atom_site_label_1
_geom_bond_atom_site_label_2
_geom_bond_distance
_geom_bond_site_symmetry_2
Cd0 Se0 2.607018 1_555
Cd0 Se2 2.658734 1_445
Cd0 Se1 2.717676 1_545
Cd0 Se1 2.717676 1_455
Cd1 Se0 2.606912 1_565
Cd1 Se0 2.606912 1_655
Cd1 Se1 2.748196 1_554
Cd1 Se3 2.752403 1_555
Ga0 Se2 2.423851 1_555
Ga0 Se1 2.504775 1_555
Ga0 Se3 2.573026 1_655
Ga0 Se3 2.573026 1_565
Ag0 Se0 2.642095 1_555
Ag0 Se2 2.644689 1_454
Ag0 Se2 2.644689 1_544
Ag0 Se3 2.711462 1_555
