# generated using pymatgen
data_TeW2SeS2
_symmetry_space_group_name_H-M   'P 1'
_cell_length_a   3.30635128
_cell_length_b   3.30635128
_cell_length_c   37.66752300
_cell_angle_alpha   90.00000000
_cell_angle_beta   90.00000000
_cell_angle_gamma   119.99998569
_symmetry_Int_Tables_number   1
_chemical_formula_structural   TeW2SeS2
_chemical_formula_sum   'Te2 W4 Se2 S4'
_cell_volume   356.61182785
_cell_formula_units_Z   2
loop_
 _symmetry_equiv_pos_site_id
 _symmetry_equiv_pos_as_xyz
  1  'x, y, z'
loop_
 _atom_site_type_symbol
 _atom_site_label
 _atom_site_symmetry_multiplicity
 _atom_site_fract_x
 _atom_site_fract_y
 _atom_site_fract_z
 _atom_site_occupancy
  Te  Te0  1  0.33333300  0.66666700  0.70857100  1
  Te  Te1  1  0.33333300  0.66666700  0.60652000  1
  W  W0  1  0.33333300  0.66666700  0.09392200  1
  W  W1  1  0.33333300  0.66666700  0.46964600  1
  W  W2  1  0.66666700  0.33333300  0.28180500  1
  W  W3  1  0.66666700  0.33333300  0.65756400  1
  Se  Se0  1  0.33333300  0.66666700  0.32655100  1
  Se  Se1  1  0.33333300  0.66666700  0.23703500  1
  S  S0  1  0.66666700  0.33333300  0.05321600  1
  S  S1  1  0.66666700  0.33333300  0.42894700  1
  S  S2  1  0.66666700  0.33333300  0.13462500  1
  S  S3  1  0.66666700  0.33333300  0.51034700  1
loop_
_geom_bond_atom_site_label_1
_geom_bond_atom_site_label_2
_geom_bond_distance
_geom_bond_site_symmetry_2
Te0 W3 2.708395 1_565
Te0 W3 2.708395 1_455
Te0 W3 2.708398 1_555
Te1 W3 2.709384 1_455
Te1 W3 2.709384 1_565
Te1 W3 2.709387 1_555
Se0 W2 2.546526 1_455
Se0 W2 2.546526 1_565
Se0 W2 2.546530 1_555
Se1 W2 2.547124 1_455
Se1 W2 2.547124 1_565
Se1 W2 2.547128 1_555
S0 W0 2.448463 1_545
S0 W0 2.448463 1_655
S0 W0 2.448467 1_555
S1 W1 2.448298 1_545
S1 W1 2.448298 1_655
S1 W1 2.448302 1_555
S2 W0 2.448392 1_655
S2 W0 2.448392 1_545
S2 W0 2.448396 1_555
S3 W1 2.448345 1_545
S3 W1 2.448345 1_655
S3 W1 2.448349 1_555
