# generated using pymatgen
data_KMg14CO16
_symmetry_space_group_name_H-M   'P 1'
_cell_length_a   4.45597400
_cell_length_b   8.17342500
_cell_length_c   9.07720600
_cell_angle_alpha   90.00000000
_cell_angle_beta   90.00000000
_cell_angle_gamma   90.00000000
_symmetry_Int_Tables_number   1
_chemical_formula_structural   KMg14CO16
_chemical_formula_sum   'K1 Mg14 C1 O16'
_cell_volume   330.59701009
_cell_formula_units_Z   1
loop_
 _symmetry_equiv_pos_site_id
 _symmetry_equiv_pos_as_xyz
  1  'x, y, z'
loop_
 _atom_site_type_symbol
 _atom_site_label
 _atom_site_symmetry_multiplicity
 _atom_site_fract_x
 _atom_site_fract_y
 _atom_site_fract_z
 _atom_site_occupancy
  K  K0  1  0.00000000  0.00000000  0.00000000  1
  Mg  Mg0  1  0.00000000  0.00000000  0.50000000  1
  Mg  Mg1  1  0.00000000  0.50000000  0.50000000  1
  Mg  Mg2  1  0.50000000  0.74136600  0.00000000  1
  Mg  Mg3  1  0.50000000  0.25863400  0.00000000  1
  Mg  Mg4  1  0.50000000  0.74913300  0.50000000  1
  Mg  Mg5  1  0.50000000  0.25086700  0.50000000  1
  Mg  Mg6  1  0.50000000  0.00000000  0.74686100  1
  Mg  Mg7  1  0.50000000  0.50000000  0.75102000  1
  Mg  Mg8  1  0.50000000  0.00000000  0.25313900  1
  Mg  Mg9  1  0.50000000  0.50000000  0.24898000  1
  Mg  Mg10  1  0.00000000  0.74517500  0.72887100  1
  Mg  Mg11  1  0.00000000  0.25482500  0.72887100  1
  Mg  Mg12  1  0.00000000  0.74517500  0.27112900  1
  Mg  Mg13  1  0.00000000  0.25482500  0.27112900  1
  C  C0  1  0.00000000  0.50000000  0.00000000  1
  O  O0  1  0.00000000  0.00000000  0.72712200  1
  O  O1  1  0.00000000  0.50000000  0.72164600  1
  O  O2  1  0.00000000  0.00000000  0.27287800  1
  O  O3  1  0.00000000  0.50000000  0.27835400  1
  O  O4  1  0.50000000  0.75028800  0.75554300  1
  O  O5  1  0.50000000  0.24971200  0.75554300  1
  O  O6  1  0.50000000  0.75028800  0.24445700  1
  O  O7  1  0.50000000  0.24971200  0.24445700  1
  O  O8  1  0.50000000  0.00000000  0.00000000  1
  O  O9  1  0.50000000  0.50000000  0.00000000  1
  O  O10  1  0.50000000  0.00000000  0.50000000  1
  O  O11  1  0.50000000  0.50000000  0.50000000  1
  O  O12  1  0.00000000  0.66104800  0.00000000  1
  O  O13  1  0.00000000  0.33895200  0.00000000  1
  O  O14  1  0.00000000  0.75120000  0.50000000  1
  O  O15  1  0.00000000  0.24880000  0.50000000  1
loop_
_geom_bond_atom_site_label_1
_geom_bond_atom_site_label_2
_geom_bond_distance
_geom_bond_site_symmetry_2
K0 O8 2.227987 1_555
K0 O8 2.227987 1_455
K0 O2 2.476970 1_555
K0 O0 2.476970 1_554
K0 O13 2.770399 1_555
K0 O12 2.770399 1_545
Mg0 O14 2.033548 1_545
Mg0 O15 2.033548 1_555
Mg0 O0 2.061633 1_555
Mg0 O2 2.061633 1_555
Mg0 O10 2.227987 1_455
Mg0 O10 2.227987 1_555
Mg1 O3 2.011926 1_555
Mg1 O1 2.011926 1_555
Mg1 O15 2.053164 1_555
Mg1 O14 2.053164 1_555
Mg1 O11 2.227987 1_455
Mg1 O11 2.227987 1_555
Mg2 O9 1.972787 1_555
Mg2 O8 2.113926 1_565
Mg2 O6 2.220184 1_555
Mg2 O4 2.220184 1_554
Mg2 O12 2.322689 1_655
Mg2 O12 2.322689 1_555
Mg3 O9 1.972787 1_555
Mg3 O8 2.113926 1_555
Mg3 O7 2.220184 1_555
Mg3 O5 2.220184 1_554
Mg3 O13 2.322689 1_555
Mg3 O13 2.322689 1_655
Mg4 O11 2.036270 1_555
Mg4 O10 2.050443 1_565
Mg4 O14 2.228051 1_555
Mg4 O14 2.228051 1_655
Mg4 O4 2.319636 1_555
Mg4 O6 2.319636 1_555
Mg5 O11 2.036270 1_555
Mg5 O10 2.050443 1_555
Mg5 O15 2.228051 1_555
Mg5 O15 2.228051 1_655
Mg5 O5 2.319636 1_555
Mg5 O7 2.319636 1_555
Mg6 O5 2.042523 1_555
Mg6 O4 2.042523 1_545
Mg6 O0 2.235180 1_555
Mg6 O0 2.235180 1_655
Mg6 O10 2.240808 1_555
Mg6 O8 2.297795 1_556
Mg7 O4 2.046122 1_555
Mg7 O5 2.046122 1_555
Mg7 O1 2.243885 1_655
Mg7 O1 2.243885 1_555
Mg7 O9 2.260043 1_556
Mg7 O11 2.278560 1_555
Mg8 O7 2.042523 1_555
Mg8 O6 2.042523 1_545
Mg8 O2 2.235180 1_555
Mg8 O2 2.235180 1_655
Mg8 O10 2.240808 1_555
Mg8 O8 2.297795 1_555
Mg9 O6 2.046122 1_555
Mg9 O7 2.046122 1_555
Mg9 O3 2.243885 1_655
Mg9 O3 2.243885 1_555
Mg9 O9 2.260043 1_555
Mg9 O11 2.278560 1_555
Mg10 O1 2.004992 1_555
Mg10 O14 2.078093 1_555
Mg10 O0 2.082854 1_565
Mg10 O4 2.241492 1_555
Mg10 O4 2.241492 1_455
Mg10 O12 2.555344 1_556
Mg11 O1 2.004992 1_555
Mg11 O15 2.078093 1_555
Mg11 O0 2.082854 1_555
Mg11 O5 2.241492 1_555
Mg11 O5 2.241492 1_455
Mg11 O13 2.555344 1_556
Mg12 O3 2.004992 1_555
Mg12 O14 2.078093 1_555
Mg12 O2 2.082854 1_565
Mg12 O6 2.241492 1_455
Mg12 O6 2.241492 1_555
Mg12 O12 2.555344 1_555
Mg13 O3 2.004992 1_555
Mg13 O15 2.078093 1_555
Mg13 O2 2.082854 1_555
Mg13 O7 2.241492 1_455
Mg13 O7 2.241492 1_555
Mg13 O13 2.555344 1_555
C0 O12 1.316314 1_555
C0 O13 1.316314 1_555
