# generated using pymatgen
data_Na3Fe
_symmetry_space_group_name_H-M   'P 1'
_cell_length_a   6.93283145
_cell_length_b   6.93283145
_cell_length_c   5.39595200
_cell_angle_alpha   90.00000000
_cell_angle_beta   90.00000000
_cell_angle_gamma   119.99999478
_symmetry_Int_Tables_number   1
_chemical_formula_structural   Na3Fe
_chemical_formula_sum   'Na6 Fe2'
_cell_volume   224.60530836
_cell_formula_units_Z   2
loop_
 _symmetry_equiv_pos_site_id
 _symmetry_equiv_pos_as_xyz
  1  'x, y, z'
loop_
 _atom_site_type_symbol
 _atom_site_label
 _atom_site_symmetry_multiplicity
 _atom_site_fract_x
 _atom_site_fract_y
 _atom_site_fract_z
 _atom_site_occupancy
  Na  Na0  1  0.17469100  0.34938300  0.25000000  1
  Na  Na1  1  0.65061700  0.82530900  0.25000000  1
  Na  Na2  1  0.17469100  0.82530900  0.25000000  1
  Na  Na3  1  0.82530900  0.65061700  0.75000000  1
  Na  Na4  1  0.34938300  0.17469100  0.75000000  1
  Na  Na5  1  0.82530900  0.17469100  0.75000000  1
  Fe  Fe0  1  0.33333300  0.66666700  0.75000000  1
  Fe  Fe1  1  0.66666700  0.33333300  0.25000000  1
loop_
_geom_bond_atom_site_label_1
_geom_bond_atom_site_label_2
_geom_bond_distance
_geom_bond_site_symmetry_2
Na0 Na2 3.299515 1_555
Na0 Na1 3.299515 1_555
Na0 Na5 3.417512 1_455
Na0 Na5 3.417512 1_454
Na0 Na4 3.417519 1_555
Na0 Na4 3.417519 1_554
Na0 Na2 3.633317 1_545
Na0 Na1 3.633317 1_445
Na1 Na2 3.299515 1_555
Na1 Na5 3.417512 1_564
Na1 Na5 3.417512 1_565
Na1 Na3 3.417519 1_554
Na1 Na3 3.417519 1_555
Na1 Na2 3.633317 1_655
Na2 Na4 3.417512 1_564
Na2 Na3 3.417512 1_454
Na2 Na4 3.417512 1_565
Na2 Na3 3.417512 1_455
Na3 Na5 3.299515 1_555
Na3 Na4 3.299515 1_555
Na3 Na5 3.633317 1_565
Na3 Na4 3.633317 1_665
Na4 Na5 3.299515 1_555
Na4 Na5 3.633317 1_455
Fe0 Na2 3.302727 1_555
Fe0 Na2 3.302727 1_556
Fe0 Na0 3.302727 1_555
Fe0 Na0 3.302727 1_556
Fe0 Na1 3.302727 1_556
Fe0 Na1 3.302727 1_555
Fe0 Na4 3.467748 1_565
Fe0 Na3 3.467748 1_455
Fe0 Na5 3.467755 1_565
Fe0 Na5 3.467755 1_455
Fe0 Na3 3.467762 1_555
Fe0 Na4 3.467762 1_555
Fe1 Na5 3.302727 1_554
Fe1 Na5 3.302727 1_555
Fe1 Na3 3.302727 1_555
Fe1 Na3 3.302727 1_554
Fe1 Na4 3.302727 1_555
Fe1 Na4 3.302727 1_554
Fe1 Na0 3.467748 1_655
Fe1 Na1 3.467748 1_545
Fe1 Na2 3.467755 1_655
Fe1 Na2 3.467755 1_545
Fe1 Na1 3.467762 1_555
Fe1 Na0 3.467762 1_555
