# generated using pymatgen
data_Sr3(GaO6)2
_symmetry_space_group_name_H-M   'P 1'
_cell_length_a   11.92890065
_cell_length_b   11.92890065
_cell_length_c   11.92890065
_cell_angle_alpha   109.47122063
_cell_angle_beta   109.47122063
_cell_angle_gamma   109.47122063
_symmetry_Int_Tables_number   1
_chemical_formula_structural   Sr3(GaO6)2
_chemical_formula_sum   'Sr12 Ga8 O48'
_cell_volume   1306.71047843
_cell_formula_units_Z   4
loop_
 _symmetry_equiv_pos_site_id
 _symmetry_equiv_pos_as_xyz
  1  'x, y, z'
loop_
 _atom_site_type_symbol
 _atom_site_label
 _atom_site_symmetry_multiplicity
 _atom_site_fract_x
 _atom_site_fract_y
 _atom_site_fract_z
 _atom_site_occupancy
  Sr  Sr0  1  0.25000000  0.37500000  0.12500000  1
  Sr  Sr1  1  0.75000000  0.12500000  0.37500000  1
  Sr  Sr2  1  0.37500000  0.12500000  0.25000000  1
  Sr  Sr3  1  0.12500000  0.37500000  0.75000000  1
  Sr  Sr4  1  0.12500000  0.25000000  0.37500000  1
  Sr  Sr5  1  0.37500000  0.75000000  0.12500000  1
  Sr  Sr6  1  0.75000000  0.62500000  0.87500000  1
  Sr  Sr7  1  0.25000000  0.87500000  0.62500000  1
  Sr  Sr8  1  0.62500000  0.87500000  0.75000000  1
  Sr  Sr9  1  0.87500000  0.62500000  0.25000000  1
  Sr  Sr10  1  0.87500000  0.75000000  0.62500000  1
  Sr  Sr11  1  0.62500000  0.25000000  0.87500000  1
  Ga  Ga0  1  0.00000000  0.50000000  0.00000000  1
  Ga  Ga1  1  0.00000000  0.00000000  0.50000000  1
  Ga  Ga2  1  0.50000000  0.00000000  0.00000000  1
  Ga  Ga3  1  0.50000000  0.50000000  0.50000000  1
  Ga  Ga4  1  0.50000000  0.50000000  0.00000000  1
  Ga  Ga5  1  0.50000000  0.00000000  0.50000000  1
  Ga  Ga6  1  0.00000000  0.50000000  0.50000000  1
  Ga  Ga7  1  0.00000000  0.00000000  0.00000000  1
  O  O0  1  0.31210900  0.44819000  0.38068200  1
  O  O1  1  0.56750700  0.93142700  0.11931800  1
  O  O2  1  0.93249300  0.05181000  0.36391900  1
  O  O3  1  0.18789100  0.56857300  0.13608100  1
  O  O4  1  0.44819000  0.38068200  0.31210900  1
  O  O5  1  0.93142700  0.11931800  0.56750700  1
  O  O6  1  0.05181000  0.36391900  0.93249300  1
  O  O7  1  0.56857300  0.13608100  0.18789100  1
  O  O8  1  0.38068200  0.31210900  0.44819000  1
  O  O9  1  0.11931800  0.56750700  0.93142700  1
  O  O10  1  0.36391900  0.93249300  0.05181000  1
  O  O11  1  0.13608100  0.18789100  0.56857300  1
  O  O12  1  0.68789100  0.55181000  0.61931800  1
  O  O13  1  0.43249300  0.06857300  0.88068200  1
  O  O14  1  0.06750700  0.94819000  0.63608100  1
  O  O15  1  0.81210900  0.43142700  0.86391900  1
  O  O16  1  0.55181000  0.61931800  0.68789100  1
  O  O17  1  0.06857300  0.88068200  0.43249300  1
  O  O18  1  0.94819000  0.63608100  0.06750700  1
  O  O19  1  0.43142700  0.86391900  0.81210900  1
  O  O20  1  0.61931800  0.68789100  0.55181000  1
  O  O21  1  0.88068200  0.43249300  0.06857300  1
  O  O22  1  0.63608100  0.06750700  0.94819000  1
  O  O23  1  0.86391900  0.81210900  0.43142700  1
  O  O24  1  0.81210900  0.88068200  0.94819000  1
  O  O25  1  0.06750700  0.61931800  0.43142700  1
  O  O26  1  0.43249300  0.86391900  0.55181000  1
  O  O27  1  0.68789100  0.63608100  0.06857300  1
  O  O28  1  0.94819000  0.81210900  0.88068200  1
  O  O29  1  0.43142700  0.06750700  0.61931800  1
  O  O30  1  0.55181000  0.43249300  0.86391900  1
  O  O31  1  0.06857300  0.68789100  0.63608100  1
  O  O32  1  0.88068200  0.94819000  0.81210900  1
  O  O33  1  0.61931800  0.43142700  0.06750700  1
  O  O34  1  0.86391900  0.55181000  0.43249300  1
  O  O35  1  0.63608100  0.06857300  0.68789100  1
  O  O36  1  0.18789100  0.11931800  0.05181000  1
  O  O37  1  0.93249300  0.38068200  0.56857300  1
  O  O38  1  0.56750700  0.13608100  0.44819000  1
  O  O39  1  0.31210900  0.36391900  0.93142700  1
  O  O40  1  0.05181000  0.18789100  0.11931800  1
  O  O41  1  0.56857300  0.93249300  0.38068200  1
  O  O42  1  0.44819000  0.56750700  0.13608100  1
  O  O43  1  0.93142700  0.31210900  0.36391900  1
  O  O44  1  0.11931800  0.05181000  0.18789100  1
  O  O45  1  0.38068200  0.56857300  0.93249300  1
  O  O46  1  0.13608100  0.44819000  0.56750700  1
  O  O47  1  0.36391900  0.93142700  0.31210900  1
loop_
_geom_bond_atom_site_label_1
_geom_bond_atom_site_label_2
_geom_bond_distance
_geom_bond_site_symmetry_2
Ga0 O9 1.947998 1_554
Ga0 O21 1.947998 1_455
Ga0 O18 1.947999 1_455
Ga0 O6 1.947999 1_554
Ga0 O3 1.948002 1_555
Ga0 O15 1.948002 1_454
Ga1 O5 1.947998 1_455
Ga1 O17 1.947998 1_545
Ga1 O14 1.947999 1_545
Ga1 O2 1.947999 1_455
Ga1 O11 1.948002 1_555
Ga1 O23 1.948002 1_445
Ga2 O1 1.947998 1_545
Ga2 O13 1.947998 1_554
Ga2 O22 1.947999 1_554
Ga2 O10 1.947999 1_545
Ga2 O7 1.948002 1_555
Ga2 O19 1.948002 1_544
Ga3 O20 1.948002 1_555
Ga3 O12 1.948002 1_555
Ga3 O16 1.948002 1_555
Ga3 O4 1.948002 1_555
Ga3 O8 1.948002 1_555
Ga3 O0 1.948002 1_555
Ga4 O33 1.947998 1_555
Ga4 O45 1.947998 1_554
Ga4 O42 1.947999 1_555
Ga4 O30 1.947999 1_554
Ga4 O27 1.948002 1_555
Ga4 O39 1.948002 1_554
Ga5 O29 1.947998 1_555
Ga5 O41 1.947998 1_545
Ga5 O38 1.947999 1_555
Ga5 O26 1.947999 1_545
Ga5 O35 1.948002 1_555
Ga5 O47 1.948002 1_545
Ga6 O25 1.947998 1_555
Ga6 O37 1.947998 1_455
Ga6 O46 1.947999 1_555
Ga6 O34 1.947999 1_455
Ga6 O31 1.948002 1_555
Ga6 O43 1.948002 1_455
Ga7 O40 1.948002 1_555
Ga7 O44 1.948002 1_555
Ga7 O36 1.948002 1_555
Ga7 O24 1.948002 1_444
Ga7 O28 1.948002 1_444
Ga7 O32 1.948002 1_444
O0 Sr4 2.617293 1_555
O0 Sr0 2.626925 1_555
O1 Sr5 2.617285 1_555
O1 Sr1 2.626927 1_565
O2 Sr4 2.617286 1_655
O2 Sr1 2.626937 1_555
O3 Sr5 2.617293 1_555
O3 Sr0 2.626925 1_555
O4 Sr0 2.617293 1_555
O4 Sr2 2.626925 1_555
O5 Sr1 2.617285 1_555
O5 Sr3 2.626927 1_655
O6 Sr0 2.617286 1_556
O6 Sr3 2.626937 1_555
O7 Sr1 2.617293 1_555
O7 Sr2 2.626925 1_555
O8 Sr2 2.617293 1_555
O8 Sr4 2.626925 1_555
O9 Sr3 2.617285 1_555
O9 Sr5 2.626927 1_556
O10 Sr2 2.617286 1_565
O10 Sr5 2.626937 1_555
O11 Sr3 2.617293 1_555
O11 Sr4 2.626925 1_555
O12 Sr10 2.617293 1_555
O12 Sr6 2.626925 1_555
O13 Sr11 2.617285 1_555
O13 Sr7 2.626927 1_545
O14 Sr10 2.617286 1_455
O14 Sr7 2.626937 1_555
O15 Sr11 2.617293 1_555
O15 Sr6 2.626925 1_555
O16 Sr6 2.617293 1_555
O16 Sr8 2.626925 1_555
O17 Sr7 2.617285 1_555
O17 Sr9 2.626927 1_455
O18 Sr6 2.617286 1_554
O18 Sr9 2.626937 1_555
O19 Sr7 2.617293 1_555
O19 Sr8 2.626925 1_555
O20 Sr8 2.617293 1_555
O20 Sr10 2.626925 1_555
O21 Sr9 2.617285 1_555
O21 Sr11 2.626927 1_554
O22 Sr8 2.617286 1_545
O22 Sr11 2.626937 1_555
O23 Sr9 2.617293 1_555
O23 Sr10 2.626925 1_555
O24 Sr8 2.617293 1_555
O24 Sr6 2.626925 1_555
O25 Sr9 2.617285 1_455
O25 Sr7 2.626927 1_555
O26 Sr8 2.617286 1_555
O26 Sr7 2.626937 1_555
O27 Sr9 2.617293 1_555
O27 Sr6 2.626925 1_554
O28 Sr6 2.617293 1_555
O28 Sr10 2.626925 1_555
O29 Sr7 2.617285 1_545
O29 Sr11 2.626927 1_555
O30 Sr6 2.617286 1_555
O30 Sr11 2.626937 1_555
O31 Sr7 2.617293 1_555
O31 Sr10 2.626925 1_455
O32 Sr10 2.617293 1_555
O32 Sr8 2.626925 1_555
O33 Sr11 2.617285 1_554
O33 Sr9 2.626927 1_555
O34 Sr10 2.617286 1_555
O34 Sr9 2.626937 1_555
O35 Sr11 2.617293 1_555
O35 Sr8 2.626925 1_545
O36 Sr2 2.617293 1_555
O36 Sr0 2.626925 1_555
O37 Sr3 2.617285 1_655
O37 Sr1 2.626927 1_555
O38 Sr2 2.617286 1_555
O38 Sr1 2.626937 1_555
O39 Sr3 2.617293 1_555
O39 Sr0 2.626925 1_556
O40 Sr0 2.617293 1_555
O40 Sr4 2.626925 1_555
O41 Sr1 2.617285 1_565
O41 Sr5 2.626927 1_555
O42 Sr0 2.617286 1_555
O42 Sr5 2.626937 1_555
O43 Sr1 2.617293 1_555
O43 Sr4 2.626925 1_655
O44 Sr4 2.617293 1_555
O44 Sr2 2.626925 1_555
O45 Sr5 2.617285 1_556
O45 Sr3 2.626927 1_555
O46 Sr4 2.617286 1_555
O46 Sr3 2.626937 1_555
O47 Sr5 2.617293 1_555
O47 Sr2 2.626925 1_565
