# generated using pymatgen
data_MgSi2
_symmetry_space_group_name_H-M   'P 1'
_cell_length_a   5.80838028
_cell_length_b   5.80838028
_cell_length_c   5.34582300
_cell_angle_alpha   90.00000000
_cell_angle_beta   90.00000000
_cell_angle_gamma   144.94167375
_symmetry_Int_Tables_number   1
_chemical_formula_structural   MgSi2
_chemical_formula_sum   'Mg2 Si4'
_cell_volume   103.59687850
_cell_formula_units_Z   2
loop_
 _symmetry_equiv_pos_site_id
 _symmetry_equiv_pos_as_xyz
  1  'x, y, z'
loop_
 _atom_site_type_symbol
 _atom_site_label
 _atom_site_symmetry_multiplicity
 _atom_site_fract_x
 _atom_site_fract_y
 _atom_site_fract_z
 _atom_site_occupancy
  Mg  Mg0  1  0.81850000  0.18150000  0.75000000  1
  Mg  Mg1  1  0.18150000  0.81850000  0.25000000  1
  Si  Si0  1  0.50000000  0.50000000  0.00000000  1
  Si  Si1  1  0.50000000  0.50000000  0.50000000  1
  Si  Si2  1  0.88268500  0.11731500  0.25000000  1
  Si  Si3  1  0.11731500  0.88268500  0.75000000  1
loop_
_geom_bond_atom_site_label_1
_geom_bond_atom_site_label_2
_geom_bond_distance
_geom_bond_site_symmetry_2
Mg0 Si2 2.765859 1_556
Mg0 Si2 2.765859 1_555
Mg0 Si3 2.833220 1_545
Mg0 Si3 2.833220 1_655
Mg0 Si1 2.981422 1_545
Mg0 Si0 2.981422 1_546
Mg0 Si1 2.981422 1_655
Mg0 Si0 2.981422 1_656
Mg1 Si3 2.765859 1_555
Mg1 Si3 2.765859 1_554
Mg1 Si2 2.833220 1_455
Mg1 Si2 2.833220 1_565
Mg1 Si0 2.981422 1_565
Mg1 Si1 2.981422 1_565
Mg1 Si0 2.981422 1_455
Mg1 Si1 2.981422 1_455
Si0 Si2 2.556447 1_455
Si0 Si3 2.556447 1_654
Si0 Si3 2.556447 1_544
Si0 Si2 2.556447 1_565
Si0 Si1 2.672912 1_554
Si0 Si1 2.672912 1_555
Si1 Si2 2.556447 1_455
Si1 Si3 2.556447 1_655
Si1 Si3 2.556447 1_545
Si1 Si2 2.556447 1_565
