# generated using pymatgen
data_Ce(BOs)2
_symmetry_space_group_name_H-M   'P 1'
_cell_length_a   6.74941154
_cell_length_b   6.01061614
_cell_length_c   5.59566742
_cell_angle_alpha   71.01395330
_cell_angle_beta   57.36169552
_cell_angle_gamma   51.62435117
_symmetry_Int_Tables_number   1
_chemical_formula_structural   Ce(BOs)2
_chemical_formula_sum   'Ce2 B4 Os4'
_cell_volume   149.84558018
_cell_formula_units_Z   2
loop_
 _symmetry_equiv_pos_site_id
 _symmetry_equiv_pos_as_xyz
  1  'x, y, z'
loop_
 _atom_site_type_symbol
 _atom_site_label
 _atom_site_symmetry_multiplicity
 _atom_site_fract_x
 _atom_site_fract_y
 _atom_site_fract_z
 _atom_site_occupancy
  Ce  Ce0  1  0.00000000  -0.00000000  0.00000000  1
  Ce  Ce1  1  0.25000000  0.25000000  0.25000000  1
  B  B0  1  0.31554507  0.68445493  0.31554507  1
  B  B1  1  0.68445493  0.31554507  0.68445493  1
  B  B2  1  0.56554507  0.93445493  0.56554507  1
  B  B3  1  0.93445493  0.56554507  0.93445493  1
  Os  Os0  1  0.63802238  0.63802238  0.36197762  1
  Os  Os1  1  0.36197762  0.36197762  0.63802238  1
  Os  Os2  1  0.61197762  0.61197762  0.88802238  1
  Os  Os3  1  0.88802238  0.88802238  0.61197762  1
loop_
_geom_bond_atom_site_label_1
_geom_bond_atom_site_label_2
_geom_bond_distance
_geom_bond_site_symmetry_2
Ce0 Os2 3.015139 1_454
Ce0 Os2 3.015139 1_544
Ce0 Os3 3.015139 1_445
Ce0 Os3 3.015139 1_444
Ce1 Os1 3.015139 1_555
Ce1 Os0 3.015139 1_455
Ce1 Os1 3.015139 1_554
Ce1 Os0 3.015139 1_545
B0 Os3 2.085374 1_455
B0 Os2 2.085374 1_554
B0 Os1 2.165937 1_555
B0 Os0 2.165937 1_555
B0 Ce0 2.848257 1_565
B0 Ce1 3.062991 1_565
B0 Ce1 3.062991 1_555
B1 Os2 2.085374 1_555
B1 Os3 2.085374 1_545
B1 Os1 2.165937 1_555
B1 Os0 2.165937 1_555
B1 Ce0 2.848257 1_656
B1 Ce1 3.062991 1_655
B1 Ce1 3.062991 1_556
B2 Os0 2.085374 1_555
B2 Os1 2.085374 1_565
B2 Os2 2.165937 1_555
B2 Os3 2.165937 1_555
B2 Ce1 2.848257 1_565
B2 Ce0 3.062991 1_566
B2 Ce0 3.062991 1_665
B3 Os1 2.085374 1_655
B3 Os0 2.085374 1_556
B3 Os2 2.165937 1_555
B3 Os3 2.165937 1_555
B3 Ce1 2.848257 1_656
B3 Ce0 3.062991 1_666
B3 Ce0 3.062991 1_656
