# generated using pymatgen
data_Li7PS6
_symmetry_space_group_name_H-M   'P 1'
_cell_length_a   7.17336996
_cell_length_b   14.16857297
_cell_length_c   9.85700721
_cell_angle_alpha   90.00000000
_cell_angle_beta   90.00000000
_cell_angle_gamma   90.00000000
_symmetry_Int_Tables_number   1
_chemical_formula_structural   Li7PS6
_chemical_formula_sum   'Li28 P4 S24'
_cell_volume   1001.83088254
_cell_formula_units_Z   4
loop_
 _symmetry_equiv_pos_site_id
 _symmetry_equiv_pos_as_xyz
  1  'x, y, z'
loop_
 _atom_site_type_symbol
 _atom_site_label
 _atom_site_symmetry_multiplicity
 _atom_site_fract_x
 _atom_site_fract_y
 _atom_site_fract_z
 _atom_site_occupancy
  Li  Li0  1  0.75682255  0.67926745  0.80787237  1
  Li  Li1  1  0.24317745  0.32073255  0.30787237  1
  Li  Li2  1  0.74317745  0.17926745  0.80787237  1
  Li  Li3  1  0.25682255  0.82073255  0.30787237  1
  Li  Li4  1  0.02405863  0.73451900  0.53426951  1
  Li  Li5  1  0.97594137  0.26548100  0.03426951  1
  Li  Li6  1  0.47594137  0.23451900  0.53426951  1
  Li  Li7  1  0.52405863  0.76548100  0.03426951  1
  Li  Li8  1  0.82832219  0.97354787  0.66860691  1
  Li  Li9  1  0.17167781  0.02645213  0.16860691  1
  Li  Li10  1  0.67167781  0.47354787  0.66860691  1
  Li  Li11  1  0.32832219  0.52645213  0.16860691  1
  Li  Li12  1  0.95074200  0.89088714  0.97985607  1
  Li  Li13  1  0.04925800  0.10911286  0.47985607  1
  Li  Li14  1  0.54925800  0.39088714  0.97985607  1
  Li  Li15  1  0.45074200  0.60911286  0.47985607  1
  Li  Li16  1  0.55459818  0.95729611  0.01636286  1
  Li  Li17  1  0.44540182  0.04270389  0.51636286  1
  Li  Li18  1  0.94540182  0.45729611  0.01636286  1
  Li  Li19  1  0.05459818  0.54270389  0.51636286  1
  Li  Li20  1  0.60588291  0.78269510  0.61734755  1
  Li  Li21  1  0.39411709  0.21730490  0.11734755  1
  Li  Li22  1  0.89411709  0.28269510  0.61734755  1
  Li  Li23  1  0.10588291  0.71730490  0.11734755  1
  Li  Li24  1  0.35353186  0.87224699  0.82895868  1
  Li  Li25  1  0.64646814  0.12775301  0.32895868  1
  Li  Li26  1  0.14646814  0.37224699  0.82895868  1
  Li  Li27  1  0.85353186  0.62775301  0.32895868  1
  P  P0  1  0.76812700  0.88530362  0.31515911  1
  P  P1  1  0.23187300  0.11469638  0.81515911  1
  P  P2  1  0.73187300  0.38530362  0.31515911  1
  P  P3  1  0.26812700  0.61469638  0.81515911  1
  S  S0  1  0.76302801  0.63082233  0.56981185  1
  S  S1  1  0.23697199  0.36917767  0.06981185  1
  S  S2  1  0.73697199  0.13082233  0.56981185  1
  S  S3  1  0.26302801  0.86917767  0.06981185  1
  S  S4  1  0.27958333  0.73233129  0.69513674  1
  S  S5  1  0.72041667  0.26766871  0.19513674  1
  S  S6  1  0.22041667  0.23233129  0.69513674  1
  S  S7  1  0.77958333  0.76766871  0.19513674  1
  S  S8  1  0.69569943  0.85563639  0.83169686  1
  S  S9  1  0.30430057  0.14436361  0.33169686  1
  S  S10  1  0.80430057  0.35563639  0.83169686  1
  S  S11  1  0.19569943  0.64436361  0.33169686  1
  S  S12  1  0.48902901  0.60477432  0.94802623  1
  S  S13  1  0.51097099  0.39522568  0.44802623  1
  S  S14  1  0.01097099  0.10477432  0.94802623  1
  S  S15  1  0.98902901  0.89522568  0.44802623  1
  S  S16  1  0.02590001  0.61403904  0.92835009  1
  S  S17  1  0.97409999  0.38596096  0.42835009  1
  S  S18  1  0.47409999  0.11403904  0.92835009  1
  S  S19  1  0.52590001  0.88596096  0.42835009  1
  S  S20  1  0.78774327  0.00078970  0.18904515  1
  S  S21  1  0.21225673  0.99921030  0.68904515  1
  S  S22  1  0.71225673  0.50078970  0.18904515  1
  S  S23  1  0.28774327  0.49921030  0.68904515  1
loop_
_geom_bond_atom_site_label_1
_geom_bond_atom_site_label_2
_geom_bond_distance
_geom_bond_site_symmetry_2
Li0 S0 2.445299 1_555
Li0 S16 2.447458 1_655
Li0 S8 2.547916 1_555
Li0 S12 2.590889 1_555
Li1 S1 2.445299 1_555
Li1 S17 2.447458 1_455
Li1 S9 2.547916 1_555
Li1 S13 2.590889 1_555
Li2 S2 2.445299 1_555
Li2 S18 2.447458 1_555
Li2 S10 2.547916 1_555
Li2 S14 2.590889 1_655
Li3 S3 2.445299 1_555
Li3 S19 2.447458 1_555
Li3 S11 2.547916 1_555
Li3 S15 2.590889 1_455
Li4 S0 2.405728 1_455
Li4 S4 2.423860 1_555
Li4 S15 2.443455 1_455
Li4 S11 2.671084 1_555
Li5 S1 2.405728 1_655
Li5 S5 2.423860 1_555
Li5 S14 2.443455 1_654
Li5 S10 2.671084 1_554
Li6 S2 2.405728 1_555
Li6 S6 2.423860 1_555
Li6 S13 2.443455 1_555
Li6 S9 2.671084 1_555
Li7 S3 2.405728 1_555
Li7 S7 2.423860 1_555
Li7 S12 2.443455 1_554
Li7 S8 2.671084 1_554
Li8 S8 2.506075 1_555
Li8 S2 2.518591 1_565
Li8 S15 2.699604 1_555
Li8 S21 2.785298 1_655
Li9 S9 2.506075 1_555
Li9 S3 2.518591 1_545
Li9 S14 2.699604 1_554
Li9 S20 2.785298 1_455
Li10 S10 2.506075 1_555
Li10 S0 2.518591 1_555
Li10 S13 2.699604 1_555
Li10 S23 2.785298 1_555
Li11 S11 2.506075 1_555
Li11 S1 2.518591 1_555
Li11 S12 2.699604 1_554
Li11 S22 2.785298 1_555
Li12 S8 2.393609 1_555
Li12 S3 2.428803 1_656
Li12 S20 2.836134 1_566
Li13 S9 2.393609 1_555
Li13 S2 2.428803 1_455
Li13 S21 2.836134 1_545
Li14 S10 2.393609 1_555
Li14 S1 2.428803 1_556
Li14 S22 2.836134 1_556
Li15 S11 2.393609 1_555
Li15 S0 2.428803 1_555
Li15 S23 2.836134 1_555
Li16 S18 2.453187 1_564
Li16 S20 2.464558 1_565
Li16 S3 2.492167 1_555
Li16 S8 2.532290 1_554
Li17 S19 2.453187 1_545
Li17 S21 2.464558 1_545
Li17 S2 2.492167 1_555
Li17 S9 2.532290 1_555
Li18 S16 2.453187 1_654
Li18 S22 2.464558 1_555
Li18 S1 2.492167 1_655
Li18 S10 2.532290 1_554
Li19 S17 2.453187 1_455
Li19 S23 2.464558 1_555
Li19 S0 2.492167 1_455
Li19 S11 2.532290 1_555
Li20 S19 2.437317 1_555
Li20 S8 2.438704 1_555
Li20 S0 2.473983 1_555
Li20 S4 2.564344 1_555
Li21 S18 2.437317 1_554
Li21 S9 2.438704 1_555
Li21 S1 2.473983 1_555
Li21 S5 2.564344 1_555
Li22 S17 2.437317 1_555
Li22 S10 2.438704 1_555
Li22 S2 2.473983 1_555
Li22 S6 2.564344 1_655
Li23 S16 2.437317 1_554
Li23 S11 2.438704 1_555
Li23 S3 2.473983 1_555
Li23 S7 2.564344 1_455
Li24 S4 2.439529 1_555
Li24 S3 2.461643 1_556
Li24 S8 2.465900 1_555
Li24 S21 2.482945 1_555
Li25 S5 2.439529 1_555
Li25 S2 2.461643 1_555
Li25 S9 2.465900 1_555
Li25 S20 2.482945 1_555
Li26 S6 2.439529 1_555
Li26 S1 2.461643 1_556
Li26 S10 2.465900 1_455
Li26 S23 2.482945 1_555
Li27 S7 2.439529 1_555
Li27 S0 2.461643 1_555
Li27 S11 2.465900 1_655
Li27 S22 2.482945 1_555
P0 S7 2.045566 1_555
P0 S20 2.059734 1_565
P0 S15 2.060582 1_555
P0 S19 2.064976 1_555
P1 S6 2.045566 1_555
P1 S21 2.059734 1_545
P1 S14 2.060582 1_555
P1 S18 2.064976 1_555
P2 S5 2.045566 1_555
P2 S22 2.059734 1_555
P2 S13 2.060582 1_555
P2 S17 2.064976 1_555
P3 S4 2.045566 1_555
P3 S23 2.059734 1_555
P3 S12 2.060582 1_555
P3 S16 2.064976 1_555
