# generated using pymatgen
data_BaSi6
_symmetry_space_group_name_H-M   'P 1'
_cell_length_a   5.70181207
_cell_length_b   5.70181207
_cell_length_c   12.00789500
_cell_angle_alpha   90.00000000
_cell_angle_beta   90.00000000
_cell_angle_gamma   133.47038753
_symmetry_Int_Tables_number   1
_chemical_formula_structural   BaSi6
_chemical_formula_sum   'Ba2 Si12'
_cell_volume   283.31383272
_cell_formula_units_Z   2
loop_
 _symmetry_equiv_pos_site_id
 _symmetry_equiv_pos_as_xyz
  1  'x, y, z'
loop_
 _atom_site_type_symbol
 _atom_site_label
 _atom_site_symmetry_multiplicity
 _atom_site_fract_x
 _atom_site_fract_y
 _atom_site_fract_z
 _atom_site_occupancy
  Ba  Ba0  1  0.27953100  0.72046900  0.25000000  1
  Ba  Ba1  1  0.72046900  0.27953100  0.75000000  1
  Si  Si0  1  0.97852700  0.02147300  0.09776900  1
  Si  Si1  1  0.02147300  0.97852700  0.90223100  1
  Si  Si2  1  0.75466000  0.24534000  0.46303600  1
  Si  Si3  1  0.24534000  0.75466000  0.53696400  1
  Si  Si4  1  0.24534000  0.75466000  0.96303600  1
  Si  Si5  1  0.75466000  0.24534000  0.03696400  1
  Si  Si6  1  0.43758100  0.56241900  0.64698500  1
  Si  Si7  1  0.56241900  0.43758100  0.35301500  1
  Si  Si8  1  0.56241900  0.43758100  0.14698500  1
  Si  Si9  1  0.43758100  0.56241900  0.85301500  1
  Si  Si10  1  0.97852700  0.02147300  0.40223100  1
  Si  Si11  1  0.02147300  0.97852700  0.59776900  1
loop_
_geom_bond_atom_site_label_1
_geom_bond_atom_site_label_2
_geom_bond_distance
_geom_bond_site_symmetry_2
Ba0 Si7 3.211439 1_555
Ba0 Si8 3.211439 1_555
Ba0 Si2 3.418162 1_455
Ba0 Si5 3.418162 1_455
Ba0 Si5 3.418162 1_565
Ba0 Si2 3.418162 1_565
Ba0 Si7 3.431577 1_565
Ba0 Si7 3.431577 1_455
Ba0 Si8 3.431577 1_455
Ba0 Si8 3.431577 1_565
Ba0 Si3 3.464401 1_555
Ba0 Si4 3.464401 1_554
Ba0 Si0 3.572073 1_565
Ba0 Si10 3.572073 1_565
Ba0 Si10 3.572073 1_455
Ba0 Si0 3.572073 1_455
Ba0 Si0 3.644947 1_465
Ba0 Si10 3.644947 1_465
Ba1 Si9 3.211439 1_555
Ba1 Si6 3.211439 1_555
Ba1 Si3 3.418162 1_655
Ba1 Si4 3.418162 1_545
Ba1 Si4 3.418162 1_655
Ba1 Si3 3.418162 1_545
Ba1 Si9 3.431577 1_545
Ba1 Si6 3.431577 1_545
Ba1 Si6 3.431577 1_655
Ba1 Si9 3.431577 1_655
Ba1 Si2 3.464401 1_555
Ba1 Si5 3.464401 1_556
Ba1 Si11 3.572073 1_545
Ba1 Si11 3.572073 1_655
Ba1 Si1 3.572073 1_545
Ba1 Si1 3.572073 1_655
Ba1 Si1 3.644947 1_645
Ba1 Si11 3.644947 1_645
Si0 Si1 2.390717 1_644
Si0 Si5 2.456342 1_555
Si0 Si8 2.488713 1_655
Si0 Si8 2.488713 1_545
Si1 Si4 2.456342 1_555
Si1 Si9 2.488713 1_455
Si1 Si9 2.488713 1_565
Si2 Si7 2.408634 1_555
Si2 Si3 2.422721 1_545
Si2 Si3 2.422721 1_655
Si3 Si6 2.408634 1_555
Si4 Si9 2.408634 1_555
Si4 Si5 2.422721 1_456
Si4 Si5 2.422721 1_566
Si5 Si8 2.408634 1_555
Si6 Si9 2.473987 1_555
Si7 Si8 2.473987 1_555
Si10 Si11 2.390717 1_645
Si10 Si2 2.456342 1_555
Si10 Si7 2.488713 1_545
Si10 Si7 2.488713 1_655
Si11 Si3 2.456342 1_555
Si11 Si6 2.488713 1_455
Si11 Si6 2.488713 1_565
