# generated using pymatgen
data_Ca3AsI3
_symmetry_space_group_name_H-M   'P 1'
_cell_length_a   10.82968565
_cell_length_b   10.82986115
_cell_length_c   10.82983122
_cell_angle_alpha   109.47146621
_cell_angle_beta   109.47086942
_cell_angle_gamma   109.47094750
_symmetry_Int_Tables_number   1
_chemical_formula_structural   Ca3AsI3
_chemical_formula_sum   'Ca12 As4 I12'
_cell_volume   977.77868802
_cell_formula_units_Z   4
loop_
 _symmetry_equiv_pos_site_id
 _symmetry_equiv_pos_as_xyz
  1  'x, y, z'
loop_
 _atom_site_type_symbol
 _atom_site_label
 _atom_site_symmetry_multiplicity
 _atom_site_fract_x
 _atom_site_fract_y
 _atom_site_fract_z
 _atom_site_occupancy
  Ca  Ca0  1  0.46954063  0.48477029  0.23477059  1
  Ca  Ca1  1  0.75000134  0.23477109  0.26523128  1
  Ca  Ca2  1  0.75000132  0.01523205  0.48477031  1
  Ca  Ca3  1  0.23477026  0.46954014  0.48476997  1
  Ca  Ca4  1  0.26523198  0.75000110  0.23477048  1
  Ca  Ca5  1  0.03046188  0.26523144  0.01523087  1
  Ca  Ca6  1  0.01523152  0.03046197  0.26523138  1
  Ca  Ca7  1  0.48477167  0.75000129  0.01523097  1
  Ca  Ca8  1  0.48477055  0.23477050  0.46954016  1
  Ca  Ca9  1  0.01523187  0.48477028  0.75000061  1
  Ca  Ca10  1  0.26523203  0.01523210  0.03046150  1
  Ca  Ca11  1  0.23477056  0.26523121  0.75000052  1
  As  As0  1  0.25000089  0.25000095  0.25000060  1
  As  As1  1  0.50000162  0.00000151  0.25000071  1
  As  As2  1  0.00000098  0.25000084  0.50000024  1
  As  As3  1  0.25000138  0.50000096  0.00000083  1
  I  I0  1  0.25000104  0.75319380  0.74680514  1
  I  I1  1  0.50638720  0.50319631  0.75319528  1
  I  I2  1  0.99361546  0.74680626  0.99680527  1
  I  I3  1  0.74680904  0.24998578  0.75317748  1
  I  I4  1  0.99680552  0.99361526  0.74680543  1
  I  I5  1  0.25000112  0.99680636  0.50319555  1
  I  I6  1  0.75319603  0.50638670  0.50319605  1
  I  I7  1  0.50316793  0.24998578  0.99680778  1
  I  I8  1  0.75317489  0.74680513  0.24999286  1
  I  I9  1  0.74680703  0.99680635  0.99361539  1
  I  I10  1  0.99681720  0.50319641  0.25000820  1
  I  I11  1  0.50319705  0.75319615  0.50638653  1
loop_
_geom_bond_atom_site_label_1
_geom_bond_atom_site_label_2
_geom_bond_distance
_geom_bond_site_symmetry_2
Ca0 I7 3.180207 1_554
Ca0 I11 3.180309 1_555
Ca0 I8 3.324886 1_555
Ca0 I6 3.325007 1_555
Ca1 I6 3.180303 1_555
Ca1 I9 3.180306 1_544
Ca1 I10 3.325006 1_555
Ca1 I7 3.325037 1_554
Ca2 I3 3.180100 1_555
Ca2 I8 3.180251 1_545
Ca2 I4 3.324959 1_545
Ca2 I11 3.324962 1_545
Ca3 I10 3.180213 1_455
Ca3 I1 3.180306 1_555
Ca3 I0 3.324976 1_555
Ca3 I11 3.325024 1_555
Ca4 I2 3.180303 1_454
Ca4 I11 3.180306 1_555
Ca4 I10 3.324961 1_455
Ca4 I5 3.324990 1_555
Ca5 I10 3.180299 1_455
Ca5 I4 3.180308 1_444
Ca5 I3 3.324979 1_454
Ca5 I9 3.325008 1_444
Ca6 I9 3.180299 1_444
Ca6 I5 3.180327 1_545
Ca6 I2 3.325023 1_444
Ca6 I8 3.325074 1_445
Ca7 I8 3.180135 1_555
Ca7 I0 3.180327 1_554
Ca7 I9 3.324954 1_554
Ca7 I1 3.324956 1_554
Ca8 I6 3.180307 1_555
Ca8 I5 3.180325 1_545
Ca8 I3 3.324973 1_555
Ca8 I1 3.325013 1_555
Ca9 I3 3.180274 1_455
Ca9 I0 3.180324 1_555
Ca9 I6 3.324960 1_455
Ca9 I2 3.324963 1_455
Ca10 I7 3.180037 1_554
Ca10 I2 3.180308 1_444
Ca10 I0 3.325009 1_544
Ca10 I4 3.325019 1_444
Ca11 I1 3.180304 1_555
Ca11 I4 3.180307 1_445
Ca11 I7 3.324908 1_555
Ca11 I5 3.324986 1_545
As0 Ca6 2.942006 1_555
As0 Ca3 2.942007 1_555
As0 Ca10 2.942008 1_555
As0 Ca8 2.942009 1_555
As0 Ca0 2.942010 1_555
As0 Ca5 2.942010 1_555
As1 Ca2 2.942003 1_555
As1 Ca1 2.942004 1_555
As1 Ca10 2.942007 1_555
As1 Ca8 2.942010 1_555
As1 Ca4 2.942016 1_545
As1 Ca7 2.942018 1_545
As2 Ca6 2.942002 1_555
As2 Ca2 2.942003 1_455
As2 Ca1 2.942004 1_455
As2 Ca3 2.942004 1_555
As2 Ca9 2.942011 1_555
As2 Ca11 2.942012 1_555
As3 Ca9 2.942009 1_554
As3 Ca5 2.942010 1_555
As3 Ca11 2.942013 1_554
As3 Ca4 2.942013 1_555
As3 Ca0 2.942013 1_555
As3 Ca7 2.942020 1_555
