# generated using pymatgen
data_CeU(Pt4Au)2
_symmetry_space_group_name_H-M   'P 1'
_cell_length_a   9.26296612
_cell_length_b   9.26296612
_cell_length_c   9.26296602
_cell_angle_alpha   33.59383763
_cell_angle_beta   33.59383763
_cell_angle_gamma   33.59383934
_symmetry_Int_Tables_number   1
_chemical_formula_structural   CeU(Pt4Au)2
_chemical_formula_sum   'Ce1 U1 Pt8 Au2'
_cell_volume   216.74230586
_cell_formula_units_Z   1
loop_
 _symmetry_equiv_pos_site_id
 _symmetry_equiv_pos_as_xyz
  1  'x, y, z'
loop_
 _atom_site_type_symbol
 _atom_site_label
 _atom_site_symmetry_multiplicity
 _atom_site_fract_x
 _atom_site_fract_y
 _atom_site_fract_z
 _atom_site_occupancy
  Ce  Ce0  1  0.99991500  0.99991500  0.99991500  1
  U  U0  1  0.50015200  0.50015200  0.50015200  1
  Pt  Pt0  1  0.43685000  0.93657900  0.43685000  1
  Pt  Pt1  1  0.93692800  0.44040700  0.93692800  1
  Pt  Pt2  1  0.43685000  0.43685000  0.93657900  1
  Pt  Pt3  1  0.93692800  0.93692800  0.44040700  1
  Pt  Pt4  1  0.18770100  0.18770100  0.18770100  1
  Pt  Pt5  1  0.68761600  0.68761600  0.68761600  1
  Pt  Pt6  1  0.93657900  0.43685000  0.43685000  1
  Pt  Pt7  1  0.44040700  0.93692800  0.93692800  1
  Au  Au0  1  0.87484400  0.87484400  0.87484400  1
  Au  Au1  1  0.37523100  0.37523100  0.37523100  1
loop_
_geom_bond_atom_site_label_1
_geom_bond_atom_site_label_2
_geom_bond_distance
_geom_bond_site_symmetry_2
Ce0 Pt5 3.139650 1_556
Ce0 Pt5 3.139651 1_655
Ce0 Pt5 3.139651 1_565
Ce0 Pt6 3.146819 1_565
Ce0 Pt0 3.146819 1_655
Ce0 Pt6 3.146819 1_556
Ce0 Pt0 3.146819 1_556
Ce0 Pt2 3.146819 1_655
Ce0 Pt2 3.146819 1_565
Ce0 Pt3 3.156651 1_556
Ce0 Pt7 3.156651 1_655
Ce0 Pt1 3.156651 1_565
Pt0 Pt4 2.655095 1_565
Pt0 Pt2 2.675364 1_555
Pt0 Pt6 2.675364 1_555
Pt0 Pt2 2.678266 1_564
Pt0 Pt6 2.678266 1_465
Pt0 Pt5 2.692554 1_555
Pt0 U0 3.115285 1_555
Pt1 Pt3 2.658190 1_555
Pt1 Pt7 2.658190 1_555
Pt1 Pt4 2.672681 1_656
Pt1 Pt5 2.678613 1_555
Pt1 Pt3 2.695440 1_546
Pt1 Pt7 2.695440 1_645
Pt1 U0 3.131906 1_556
Pt1 U0 3.131906 1_655
Pt2 Pt4 2.655095 1_556
Pt2 Pt6 2.675364 1_555
Pt2 Pt6 2.678266 1_456
Pt2 Pt5 2.692554 1_555
Pt2 U0 3.115285 1_555
Pt3 Pt7 2.658190 1_555
Pt3 Pt4 2.672681 1_665
Pt3 Pt5 2.678613 1_555
Pt3 Pt7 2.695440 1_654
Pt3 U0 3.131906 1_565
Pt3 U0 3.131906 1_655
Pt4 Pt6 2.655095 1_455
Pt4 Pt7 2.672681 1_544
Pt4 U0 3.138954 1_554
Pt4 U0 3.138954 1_455
Pt4 U0 3.138954 1_545
Pt5 Pt7 2.678613 1_555
Pt5 Pt6 2.692554 1_555
Pt6 U0 3.115285 1_555
Pt7 U0 3.131906 1_556
Pt7 U0 3.131906 1_565
Au0 Pt3 3.113768 1_555
Au0 Pt7 3.113768 1_555
Au0 Pt1 3.113768 1_555
Au0 Pt6 3.129867 1_556
Au0 Pt0 3.129867 1_556
Au0 Pt6 3.129867 1_565
Au0 Pt0 3.129867 1_655
Au0 Pt2 3.129867 1_655
Au0 Pt2 3.129867 1_565
Au0 Pt4 3.137118 1_665
Au0 Pt4 3.137118 1_656
Au0 Pt4 3.137118 1_566
Au0 U0 3.275305 1_556
Au0 U0 3.275305 1_565
Au0 U0 3.275305 1_655
Au0 Ce0 3.276380 1_555
Au1 Pt5 3.139256 1_554
Au1 Pt5 3.139256 1_455
Au1 Pt5 3.139256 1_545
Au1 Pt1 3.142731 1_455
Au1 Pt7 3.142731 1_545
Au1 Pt7 3.142731 1_554
Au1 Pt1 3.142731 1_554
Au1 Pt3 3.142731 1_455
Au1 Pt3 3.142731 1_545
Au1 Pt2 3.158594 1_554
Au1 Pt0 3.158594 1_545
Au1 Pt6 3.158594 1_455
Au1 U0 3.272451 1_555
Au1 Ce0 3.280748 1_445
Au1 Ce0 3.280748 1_544
Au1 Ce0 3.280748 1_454
