# generated using pymatgen
data_Nb5Ni(B2Ru5)2
_symmetry_space_group_name_H-M   'P 1'
_cell_length_a   9.36591400
_cell_length_b   9.36591400
_cell_length_c   3.01325500
_cell_angle_alpha   90.00000000
_cell_angle_beta   90.00000000
_cell_angle_gamma   90.00000000
_symmetry_Int_Tables_number   1
_chemical_formula_structural   Nb5Ni(B2Ru5)2
_chemical_formula_sum   'Nb5 Ni1 B4 Ru10'
_cell_volume   264.32376834
_cell_formula_units_Z   1
loop_
 _symmetry_equiv_pos_site_id
 _symmetry_equiv_pos_as_xyz
  1  'x, y, z'
loop_
 _atom_site_type_symbol
 _atom_site_label
 _atom_site_symmetry_multiplicity
 _atom_site_fract_x
 _atom_site_fract_y
 _atom_site_fract_z
 _atom_site_occupancy
  Nb  Nb0  1  0.82019900  0.67395800  0.00000000  1
  Nb  Nb1  1  0.17980100  0.32604200  0.00000000  1
  Nb  Nb2  1  0.32604200  0.82019900  0.00000000  1
  Nb  Nb3  1  0.67395800  0.17980100  0.00000000  1
  Nb  Nb4  1  0.00000000  0.00000000  0.00000000  1
  Ni  Ni0  1  0.50000000  0.50000000  0.00000000  1
  B  B0  1  0.61710700  0.87015300  0.00000000  1
  B  B1  1  0.38289300  0.12984700  0.00000000  1
  B  B2  1  0.12984700  0.61710700  0.00000000  1
  B  B3  1  0.87015300  0.38289300  0.00000000  1
  Ru  Ru0  1  0.50000000  0.00000000  0.50000000  1
  Ru  Ru1  1  0.00000000  0.50000000  0.50000000  1
  Ru  Ru2  1  0.56915900  0.71301800  0.50000000  1
  Ru  Ru3  1  0.43084100  0.28698200  0.50000000  1
  Ru  Ru4  1  0.07246700  0.77985700  0.50000000  1
  Ru  Ru5  1  0.92753300  0.22014300  0.50000000  1
  Ru  Ru6  1  0.28698200  0.56915900  0.50000000  1
  Ru  Ru7  1  0.71301800  0.43084100  0.50000000  1
  Ru  Ru8  1  0.22014300  0.07246700  0.50000000  1
  Ru  Ru9  1  0.77985700  0.92753300  0.50000000  1
loop_
_geom_bond_atom_site_label_1
_geom_bond_atom_site_label_2
_geom_bond_distance
_geom_bond_site_symmetry_2
Nb0 Ru1 2.785736 1_655
Nb0 Ru1 2.785736 1_654
Nb0 Ru2 2.816379 1_554
Nb0 Ru2 2.816379 1_555
Nb0 Ru9 2.837804 1_555
Nb0 Ru9 2.837804 1_554
Nb0 Ru7 2.909025 1_555
Nb0 Ru7 2.909025 1_554
Nb0 Ru4 2.972562 1_654
Nb0 Ru4 2.972562 1_655
Nb1 Ru1 2.785736 1_554
Nb1 Ru1 2.785736 1_555
Nb1 Ru3 2.816379 1_555
Nb1 Ru3 2.816379 1_554
Nb1 Ru8 2.837804 1_555
Nb1 Ru8 2.837804 1_554
Nb1 Ru6 2.909025 1_555
Nb1 Ru6 2.909025 1_554
Nb1 Ru5 2.972562 1_455
Nb1 Ru5 2.972562 1_454
Nb2 Ru0 2.785736 1_565
Nb2 Ru0 2.785736 1_564
Nb2 Ru6 2.816379 1_555
Nb2 Ru6 2.816379 1_554
Nb2 Ru4 2.837804 1_555
Nb2 Ru4 2.837804 1_554
Nb2 Ru2 2.909025 1_554
Nb2 Ru2 2.909025 1_555
Nb2 Ru8 2.972562 1_565
Nb2 Ru8 2.972562 1_564
Nb3 Ru0 2.785736 1_555
Nb3 Ru0 2.785736 1_554
Nb3 Ru7 2.816379 1_554
Nb3 Ru7 2.816379 1_555
Nb3 Ru5 2.837804 1_555
Nb3 Ru5 2.837804 1_554
Nb3 Ru3 2.909025 1_555
Nb3 Ru3 2.909025 1_554
Nb3 Ru9 2.972562 1_544
Nb3 Ru9 2.972562 1_545
Nb4 Ru9 2.642304 1_444
Nb4 Ru9 2.642304 1_445
Nb4 Ru5 2.642304 1_455
Nb4 Ru8 2.642304 1_555
Nb4 Ru8 2.642304 1_554
Nb4 Ru4 2.642304 1_544
Nb4 Ru4 2.642304 1_545
Nb4 Ru5 2.642304 1_454
Ni0 Ru2 2.582624 1_555
Ni0 Ru6 2.582624 1_554
Ni0 Ru6 2.582624 1_555
Ni0 Ru3 2.582624 1_555
Ni0 Ru2 2.582624 1_554
Ni0 Ru7 2.582624 1_555
Ni0 Ru3 2.582624 1_554
Ni0 Ru7 2.582624 1_554
B0 Ru2 2.153494 1_554
B0 Ru2 2.153494 1_555
B0 Ru9 2.209579 1_554
B0 Ru9 2.209579 1_555
B0 Ru0 2.225290 1_564
B0 Ru0 2.225290 1_565
B0 Nb0 2.644753 1_555
B0 Nb2 2.765947 1_555
B0 Nb3 2.948611 1_565
B1 Ru3 2.153494 1_554
B1 Ru3 2.153494 1_555
B1 Ru8 2.209579 1_555
B1 Ru8 2.209579 1_554
B1 Ru0 2.225290 1_554
B1 Ru0 2.225290 1_555
B1 Nb1 2.644753 1_555
B1 Nb3 2.765947 1_555
B1 Nb2 2.948611 1_545
B2 Ru6 2.153494 1_555
B2 Ru6 2.153494 1_554
B2 Ru4 2.209579 1_555
B2 Ru4 2.209579 1_554
B2 Ru1 2.225290 1_555
B2 Ru1 2.225290 1_554
B2 Nb2 2.644753 1_555
B2 Nb1 2.765947 1_555
B2 Nb0 2.948611 1_455
B3 Ru7 2.153494 1_555
B3 Ru7 2.153494 1_554
B3 Ru5 2.209579 1_554
B3 Ru5 2.209579 1_555
B3 Ru1 2.225290 1_654
B3 Ru1 2.225290 1_655
B3 Nb3 2.644753 1_555
B3 Nb0 2.765947 1_555
B3 Nb1 2.948611 1_655
