# generated using pymatgen
data_DySiPd2
_symmetry_space_group_name_H-M   'P 1'
_cell_length_a   5.51531275
_cell_length_b   6.93007317
_cell_length_c   7.31014666
_cell_angle_alpha   90.00000000
_cell_angle_beta   90.00000000
_cell_angle_gamma   90.00000000
_symmetry_Int_Tables_number   1
_chemical_formula_structural   DySiPd2
_chemical_formula_sum   'Dy4 Si4 Pd8'
_cell_volume   279.40492344
_cell_formula_units_Z   4
loop_
 _symmetry_equiv_pos_site_id
 _symmetry_equiv_pos_as_xyz
  1  'x, y, z'
loop_
 _atom_site_type_symbol
 _atom_site_label
 _atom_site_symmetry_multiplicity
 _atom_site_fract_x
 _atom_site_fract_y
 _atom_site_fract_z
 _atom_site_occupancy
  Dy  Dy0  1  0.35670587  0.75000000  0.02892153  1
  Dy  Dy1  1  0.14329413  0.75000000  0.52892153  1
  Dy  Dy2  1  0.64329413  0.25000000  0.97107847  1
  Dy  Dy3  1  0.85670587  0.25000000  0.47107847  1
  Si  Si0  1  0.64336046  0.75000000  0.37699852  1
  Si  Si1  1  0.85663954  0.75000000  0.87699852  1
  Si  Si2  1  0.35663954  0.25000000  0.62300148  1
  Si  Si3  1  0.14336046  0.25000000  0.12300148  1
  Pd  Pd0  1  0.90691679  0.55184628  0.17725565  1
  Pd  Pd1  1  0.59308321  0.94815372  0.67725565  1
  Pd  Pd2  1  0.09308321  0.05184628  0.82274435  1
  Pd  Pd3  1  0.40691679  0.44815372  0.32274435  1
  Pd  Pd4  1  0.09308321  0.44815372  0.82274435  1
  Pd  Pd5  1  0.40691679  0.05184628  0.32274435  1
  Pd  Pd6  1  0.90691679  0.94815372  0.17725565  1
  Pd  Pd7  1  0.59308321  0.55184628  0.67725565  1
loop_
_geom_bond_atom_site_label_1
_geom_bond_atom_site_label_2
_geom_bond_distance
_geom_bond_site_symmetry_2
Dy0 Pd2 2.959951 1_564
Dy0 Pd4 2.959951 1_554
Dy0 Si1 2.972547 1_554
Dy0 Si1 2.973226 1_454
Dy0 Si0 2.995660 1_555
Dy0 Pd5 3.010948 1_565
Dy0 Pd3 3.010948 1_555
Dy0 Pd0 3.035711 1_455
Dy0 Pd6 3.035711 1_455
Dy0 Pd1 3.192805 1_554
Dy0 Pd7 3.192805 1_554
Dy0 Pd6 3.502891 1_555
Dy0 Pd0 3.502891 1_555
Dy1 Pd5 2.959951 1_565
Dy1 Pd3 2.959951 1_555
Dy1 Si0 2.972547 1_455
Dy1 Si0 2.973226 1_555
Dy1 Si1 2.995660 1_455
Dy1 Pd2 3.010948 1_565
Dy1 Pd4 3.010948 1_555
Dy1 Pd1 3.035711 1_555
Dy1 Pd7 3.035711 1_555
Dy1 Pd0 3.192805 1_455
Dy1 Pd6 3.192805 1_455
Dy1 Pd1 3.502891 1_455
Dy1 Pd7 3.502891 1_455
Dy2 Pd0 2.959951 1_556
Dy2 Pd6 2.959951 1_546
Dy2 Si3 2.972547 1_556
Dy2 Si3 2.973226 1_656
Dy2 Si2 2.995660 1_555
Dy2 Pd7 3.010948 1_555
Dy2 Pd1 3.010948 1_545
Dy2 Pd2 3.035711 1_655
Dy2 Pd4 3.035711 1_655
Dy2 Pd3 3.192805 1_556
Dy2 Pd5 3.192805 1_556
Dy2 Pd4 3.502891 1_555
Dy2 Pd2 3.502891 1_555
Dy3 Pd1 2.959951 1_545
Dy3 Pd7 2.959951 1_555
Dy3 Si2 2.972547 1_655
Dy3 Si2 2.973226 1_555
Dy3 Si3 2.995660 1_655
Dy3 Pd6 3.010948 1_545
Dy3 Pd0 3.010948 1_555
Dy3 Pd3 3.035711 1_555
Dy3 Pd5 3.035711 1_555
Dy3 Pd4 3.192805 1_655
Dy3 Pd2 3.192805 1_655
Dy3 Pd3 3.502891 1_655
Dy3 Pd5 3.502891 1_655
Pd0 Si0 2.476027 1_555
Pd0 Si3 2.496712 1_655
Pd0 Si1 2.603904 1_554
Pd0 Pd6 2.746440 1_555
Pd0 Pd4 2.878655 1_654
Pd0 Pd3 3.041739 1_655
Pd0 Pd3 3.041739 1_555
Pd1 Si1 2.476027 1_555
Pd1 Si2 2.496712 1_565
Pd1 Si0 2.603904 1_555
Pd1 Pd7 2.746440 1_555
Pd1 Pd5 2.878655 1_565
Pd1 Pd2 3.041739 1_565
Pd1 Pd2 3.041739 1_665
Pd2 Si2 2.476027 1_555
Pd2 Si1 2.496712 1_445
Pd2 Si3 2.603904 1_556
Pd2 Pd4 2.746440 1_555
Pd2 Pd6 2.878655 1_446
Pd3 Si3 2.476027 1_555
Pd3 Si0 2.496712 1_555
Pd3 Si2 2.603904 1_555
Pd3 Pd5 2.746440 1_555
Pd3 Pd7 2.878655 1_555
Pd4 Si2 2.476027 1_555
Pd4 Si1 2.496712 1_455
Pd4 Si3 2.603904 1_556
Pd4 Pd7 3.041739 1_555
Pd4 Pd7 3.041739 1_455
Pd5 Si3 2.476027 1_555
Pd5 Si0 2.496712 1_545
Pd5 Si2 2.603904 1_555
Pd5 Pd6 3.041739 1_545
Pd5 Pd6 3.041739 1_445
Pd6 Si0 2.476027 1_555
Pd6 Si3 2.496712 1_665
Pd6 Si1 2.603904 1_554
Pd7 Si1 2.476027 1_555
Pd7 Si2 2.496712 1_555
Pd7 Si0 2.603904 1_555
