# generated using pymatgen
data_Sr6Mg(W2O9)2
_symmetry_space_group_name_H-M   'P 1'
_cell_length_a   9.34694927
_cell_length_b   6.82252137
_cell_length_c   7.44605053
_cell_angle_alpha   88.30142095
_cell_angle_beta   76.41112060
_cell_angle_gamma   79.42152704
_symmetry_Int_Tables_number   1
_chemical_formula_structural   Sr6Mg(W2O9)2
_chemical_formula_sum   'Sr6 Mg1 W4 O18'
_cell_volume   453.65129165
_cell_formula_units_Z   1
loop_
 _symmetry_equiv_pos_site_id
 _symmetry_equiv_pos_as_xyz
  1  'x, y, z'
loop_
 _atom_site_type_symbol
 _atom_site_label
 _atom_site_symmetry_multiplicity
 _atom_site_fract_x
 _atom_site_fract_y
 _atom_site_fract_z
 _atom_site_occupancy
  Sr  Sr0  1  0.30994600  0.88275000  0.61671000  1
  Sr  Sr1  1  0.03788400  0.33664500  0.79913100  1
  Sr  Sr2  1  0.35954900  0.74505400  0.09929500  1
  Sr  Sr3  1  0.48074300  0.24188600  0.88269400  1
  Sr  Sr4  1  0.73549600  0.55123700  0.19973300  1
  Sr  Sr5  1  0.80253900  0.04937500  0.39738700  1
  Mg  Mg0  1  0.09073600  0.62794200  0.39167300  1
  W  W0  1  0.87435100  0.84182300  0.82432700  1
  W  W1  1  0.36883400  0.33004900  0.36117400  1
  W  W2  1  0.14864400  0.17541800  0.19089600  1
  W  W3  1  0.67173700  0.64663400  0.65115700  1
  O  O0  1  0.09610900  0.92324400  0.28627500  1
  O  O1  1  0.06784900  0.69696700  0.78614800  1
  O  O2  1  0.66153800  0.92041700  0.78010900  1
  O  O3  1  0.30092600  0.61942100  0.42230800  1
  O  O4  1  0.14204400  0.30278500  0.45610200  1
  O  O5  1  0.22860200  0.43912400  0.14066500  1
  O  O6  1  0.47907800  0.62340400  0.78763400  1
  O  O7  1  0.60692200  0.79214700  0.45947800  1
  O  O8  1  0.82337200  0.87926400  0.07598100  1
  O  O9  1  0.23485900  0.09320800  0.92407300  1
  O  O10  1  0.43533900  0.21248900  0.55854800  1
  O  O11  1  0.88294500  0.71938700  0.53932100  1
  O  O12  1  0.53082600  0.40371300  0.16454500  1
  O  O13  1  0.78471700  0.57279800  0.85643500  1
  O  O14  1  0.72147400  0.40073800  0.53652500  1
  O  O15  1  0.37404700  0.07721400  0.21394700  1
  O  O16  1  0.94821400  0.28230200  0.16110600  1
  O  O17  1  0.91675000  0.07685300  0.72233400  1
loop_
_geom_bond_atom_site_label_1
_geom_bond_atom_site_label_2
_geom_bond_distance
_geom_bond_site_symmetry_2
Mg0 O11 1.990598 1_455
Mg0 O3 2.020662 1_555
Mg0 O0 2.145311 1_555
Mg0 O4 2.244059 1_555
Mg0 O5 2.283585 1_555
O0 W2 1.944060 1_565
O0 Sr2 2.621035 1_555
O0 Sr5 2.657611 1_465
O1 W0 1.856713 1_455
O1 Sr1 2.521318 1_555
O1 Sr0 2.817027 1_555
O2 W0 2.063571 1_555
O2 W3 2.101901 1_555
O2 Sr3 2.526135 1_565
O2 Sr5 3.023975 1_565
O3 W1 1.991269 1_555
O3 Sr0 2.365846 1_555
O3 Sr2 2.500142 1_555
O4 W1 2.112023 1_555
O4 W2 2.164092 1_555
O4 Sr1 2.511790 1_555
O5 W2 2.063443 1_555
O5 W1 2.355518 1_555
O5 Sr2 2.583043 1_555
O5 Sr3 2.813599 1_554
O6 W3 1.880404 1_555
O6 Sr2 2.424423 1_556
O6 Sr0 2.652283 1_555
O6 Sr3 2.675350 1_555
O7 W3 1.868458 1_555
O7 Sr4 2.501473 1_555
O7 Sr0 2.709934 1_555
O7 Sr5 2.714686 1_565
O8 W0 1.835116 1_554
O8 Sr4 2.594085 1_555
O8 Sr5 2.641024 1_565
O9 W2 2.014704 1_556
O9 Sr1 2.569863 1_555
O9 Sr0 2.619570 1_545
O9 Sr3 2.628794 1_555
O9 Sr2 2.866527 1_546
O10 W1 1.834652 1_555
O10 Sr3 2.566537 1_555
O10 Sr0 2.700739 1_545
O11 W3 2.097586 1_555
O11 W0 2.282141 1_555
O11 Sr5 2.522156 1_565
O12 W1 1.970495 1_555
O12 Sr4 2.387365 1_555
O12 Sr3 2.575138 1_554
O12 Sr2 2.674300 1_555
O13 W3 2.054947 1_555
O13 W0 2.138302 1_555
O13 Sr4 2.493484 1_556
O13 Sr1 2.558109 1_655
O14 W3 1.836082 1_555
O14 Sr5 2.550569 1_555
O14 Sr4 2.665086 1_555
O15 W1 2.058114 1_555
O15 W2 2.135865 1_555
O15 Sr2 2.482842 1_545
O15 Sr3 2.726122 1_554
O15 Sr0 3.213223 1_545
O16 W2 1.942863 1_655
O16 Sr4 2.413623 1_555
O16 Sr5 2.641548 1_555
O16 Sr1 2.664173 1_654
O17 W0 1.823380 1_545
O17 Sr1 2.419015 1_655
O17 Sr5 2.888459 1_555
