# generated using pymatgen
data_Ba2AlTlCo2O7
_symmetry_space_group_name_H-M   'P 1'
_cell_length_a   4.04302500
_cell_length_b   4.26710351
_cell_length_c   11.55869478
_cell_angle_alpha   89.57168662
_cell_angle_beta   81.28660392
_cell_angle_gamma   89.81805946
_symmetry_Int_Tables_number   1
_chemical_formula_structural   Ba2AlTlCo2O7
_chemical_formula_sum   'Ba2 Al1 Tl1 Co2 O7'
_cell_volume   197.10324590
_cell_formula_units_Z   1
loop_
 _symmetry_equiv_pos_site_id
 _symmetry_equiv_pos_as_xyz
  1  'x, y, z'
loop_
 _atom_site_type_symbol
 _atom_site_label
 _atom_site_symmetry_multiplicity
 _atom_site_fract_x
 _atom_site_fract_y
 _atom_site_fract_z
 _atom_site_occupancy
  Ba  Ba0  1  0.39244600  0.51730000  0.22241900  1
  Ba  Ba1  1  0.60726500  0.52033700  0.77726400  1
  Al  Al0  1  0.50361700  0.37173500  0.50048300  1
  Tl  Tl0  1  0.00063200  0.08128000  0.00034700  1
  Co  Co0  1  0.86469500  0.98928800  0.37435600  1
  Co  Co1  1  0.13402700  0.98731200  0.61746600  1
  O  O0  1  0.92530400  0.98261400  0.18671400  1
  O  O1  1  0.80221900  0.53060600  0.38735600  1
  O  O2  1  0.33007200  0.08112100  0.41120000  1
  O  O3  1  0.66406800  0.07976600  0.59437400  1
  O  O4  1  0.49915400  0.34802100  0.00154900  1
  O  O5  1  0.19739700  0.52874000  0.61011700  1
  O  O6  1  0.07910000  0.98187600  0.81635400  1
loop_
_geom_bond_atom_site_label_1
_geom_bond_atom_site_label_2
_geom_bond_distance
_geom_bond_site_symmetry_2
Ba0 O4 2.630099 1_555
Ba0 O1 2.709559 1_555
Ba0 O0 2.807109 1_455
Ba0 O1 2.820391 1_455
Ba0 O2 2.839836 1_555
Ba0 O0 2.915389 1_555
Ba0 O0 3.036530 1_445
Ba0 O0 3.119387 1_545
Ba0 O2 3.243636 1_565
Ba1 O4 2.661330 1_556
Ba1 O5 2.729197 1_555
Ba1 O3 2.822313 1_555
Ba1 O6 2.832001 1_655
Ba1 O5 2.833619 1_655
Ba1 O6 2.887379 1_555
Ba1 O6 3.056193 1_645
Ba1 O6 3.125157 1_545
Ba1 O3 3.162435 1_565
Al0 O5 1.766227 1_555
Al0 O1 1.772149 1_555
Al0 O3 1.827220 1_555
Al0 O2 1.827339 1_555
Co0 O1 1.975962 1_555
Co0 O2 2.031017 1_665
Co0 O0 2.145885 1_555
Co0 O2 2.173751 1_565
Co0 O1 2.326332 1_565
Co0 O3 2.581115 1_565
Co1 O5 1.973456 1_555
Co1 O3 1.996101 1_465
Co1 O3 2.156314 1_565
Co1 O6 2.275805 1_555
Co1 O5 2.324803 1_565
Co1 O2 2.426501 1_565
O0 Tl0 2.167693 1_665
O4 Tl0 2.319784 1_555
O4 Tl0 2.320231 1_655
O6 Tl0 2.147489 1_566
