# generated using pymatgen
data_Fe3Mo5N8
_symmetry_space_group_name_H-M   'P 1'
_cell_length_a   11.28232650
_cell_length_b   11.28232650
_cell_length_c   4.96892306
_cell_angle_alpha   77.85200338
_cell_angle_beta   77.85200338
_cell_angle_gamma   14.58135978
_symmetry_Int_Tables_number   1
_chemical_formula_structural   Fe3Mo5N8
_chemical_formula_sum   'Fe3 Mo5 N8'
_cell_volume   155.60965938
_cell_formula_units_Z   1
loop_
 _symmetry_equiv_pos_site_id
 _symmetry_equiv_pos_as_xyz
  1  'x, y, z'
loop_
 _atom_site_type_symbol
 _atom_site_label
 _atom_site_symmetry_multiplicity
 _atom_site_fract_x
 _atom_site_fract_y
 _atom_site_fract_z
 _atom_site_occupancy
  Fe  Fe0  1  0.00000000  0.00000000  0.00000000  1
  Fe  Fe1  1  0.24923400  0.24923400  0.74945600  1
  Fe  Fe2  1  0.75076600  0.75076600  0.25054400  1
  Mo  Mo0  1  0.12769500  0.12769500  0.87130100  1
  Mo  Mo1  1  0.62946200  0.62946200  0.37289000  1
  Mo  Mo2  1  0.87230500  0.87230500  0.12869900  1
  Mo  Mo3  1  0.37053800  0.37053800  0.62711000  1
  Mo  Mo4  1  0.50000000  0.50000000  0.50000000  1
  N  N0  1  0.56675900  0.56675900  0.76275500  1
  N  N1  1  0.06685600  0.06685600  0.26800400  1
  N  N2  1  0.80966500  0.80966500  0.85435600  1
  N  N3  1  0.31009200  0.31009200  0.35328100  1
  N  N4  1  0.93314400  0.93314400  0.73199600  1
  N  N5  1  0.43324100  0.43324100  0.23724500  1
  N  N6  1  0.68990800  0.68990800  0.64671900  1
  N  N7  1  0.19033500  0.19033500  0.14564400  1
loop_
_geom_bond_atom_site_label_1
_geom_bond_atom_site_label_2
_geom_bond_distance
_geom_bond_site_symmetry_2
Fe0 N1 2.204109 1_555
Fe0 N4 2.204109 1_444
Fe0 N5 2.219216 1_545
Fe0 N0 2.219216 1_454
Fe0 N5 2.219216 1_455
Fe0 N0 2.219216 1_544
Fe1 N6 2.088384 1_545
Fe1 N6 2.088384 1_455
Fe1 N2 2.109563 1_545
Fe1 N2 2.109563 1_455
Fe1 N7 2.124198 1_556
Fe1 N3 2.143106 1_555
Fe2 N3 2.088384 1_655
Fe2 N3 2.088384 1_565
Fe2 N7 2.109563 1_565
Fe2 N7 2.109563 1_655
Fe2 N2 2.124198 1_554
Fe2 N6 2.143106 1_555
Mo0 N0 2.124419 1_545
Mo0 N0 2.124419 1_455
Mo0 N6 2.138897 1_545
Mo0 N6 2.138897 1_455
Mo0 N1 2.144976 1_556
Mo0 N7 2.152880 1_556
Mo1 N6 2.112530 1_555
Mo1 N7 2.128033 1_565
Mo1 N7 2.128033 1_655
Mo1 N0 2.137481 1_555
Mo1 N1 2.143588 1_655
Mo1 N1 2.143588 1_565
Mo2 N5 2.124419 1_565
Mo2 N5 2.124419 1_655
Mo2 N3 2.138897 1_565
Mo2 N3 2.138897 1_655
Mo2 N4 2.144976 1_554
Mo2 N2 2.152880 1_554
Mo3 N3 2.112530 1_555
Mo3 N2 2.128033 1_455
Mo3 N2 2.128033 1_545
Mo3 N5 2.137481 1_555
Mo3 N4 2.143588 1_455
Mo3 N4 2.143588 1_545
Mo4 N0 2.182900 1_555
Mo4 N5 2.182900 1_555
Mo4 N4 2.210447 1_455
Mo4 N1 2.210447 1_655
Mo4 N1 2.210447 1_565
Mo4 N4 2.210447 1_545
