# generated using pymatgen
data_Li4TiCrO6
_symmetry_space_group_name_H-M   'P 1'
_cell_length_a   5.07357884
_cell_length_b   9.81401028
_cell_length_c   8.78583144
_cell_angle_alpha   89.99615488
_cell_angle_beta   90.00370965
_cell_angle_gamma   80.39690654
_symmetry_Int_Tables_number   1
_chemical_formula_structural   Li4TiCrO6
_chemical_formula_sum   'Li16 Ti4 Cr4 O24'
_cell_volume   431.33528808
_cell_formula_units_Z   4
loop_
 _symmetry_equiv_pos_site_id
 _symmetry_equiv_pos_as_xyz
  1  'x, y, z'
loop_
 _atom_site_type_symbol
 _atom_site_label
 _atom_site_symmetry_multiplicity
 _atom_site_fract_x
 _atom_site_fract_y
 _atom_site_fract_z
 _atom_site_occupancy
  Li  Li0  1  0.25002500  0.00006600  0.25003700  1
  Li  Li1  1  0.74989600  0.99991600  0.74995600  1
  Li  Li2  1  0.75000900  0.50003900  0.24998200  1
  Li  Li3  1  0.24983700  0.49996800  0.75002400  1
  Li  Li4  1  0.99967800  0.74870800  0.24814200  1
  Li  Li5  1  0.50063400  0.75142800  0.74820500  1
  Li  Li6  1  0.99936700  0.24859900  0.75175500  1
  Li  Li7  1  0.50036400  0.25138500  0.25195700  1
  Li  Li8  1  0.26679900  0.50044200  0.41058000  1
  Li  Li9  1  0.76070900  0.49590900  0.91041800  1
  Li  Li10  1  0.26702000  0.00050500  0.58940600  1
  Li  Li11  1  0.75982500  0.99598300  0.08922800  1
  Li  Li12  1  0.74007700  0.00409300  0.41080100  1
  Li  Li13  1  0.23266400  0.99954800  0.91052000  1
  Li  Li14  1  0.73902100  0.50416200  0.58947100  1
  Li  Li15  1  0.23320400  0.49959300  0.08936100  1
  Ti  Ti0  1  0.00635600  0.26013000  0.41820900  1
  Ti  Ti1  1  0.49327400  0.23991000  0.91766700  1
  Ti  Ti2  1  0.00672800  0.76004100  0.58247000  1
  Ti  Ti3  1  0.49370100  0.73993500  0.08182700  1
  Cr  Cr0  1  0.51063200  0.24970100  0.58484100  1
  Cr  Cr1  1  0.98941000  0.75011100  0.91516800  1
  Cr  Cr2  1  0.98935600  0.25008400  0.08479400  1
  Cr  Cr3  1  0.51090900  0.74981900  0.41497400  1
  O  O0  1  0.10805500  0.36771000  0.25150000  1
  O  O1  1  0.60088100  0.36394400  0.74583200  1
  O  O2  1  0.89969200  0.13584700  0.24629300  1
  O  O3  1  0.39190400  0.13219000  0.75116700  1
  O  O4  1  0.10810300  0.86773900  0.74890600  1
  O  O5  1  0.60036300  0.86421700  0.25363100  1
  O  O6  1  0.89910300  0.63603800  0.75419200  1
  O  O7  1  0.39198400  0.63232400  0.24848100  1
  O  O8  1  0.14579500  0.86399300  0.42554900  1
  O  O9  1  0.65091500  0.86041000  0.92732700  1
  O  O10  1  0.84948700  0.63942100  0.42763800  1
  O  O11  1  0.35335900  0.63628800  0.92521400  1
  O  O12  1  0.14669100  0.36369300  0.57483000  1
  O  O13  1  0.65051200  0.36063800  0.07233800  1
  O  O14  1  0.84910300  0.13955900  0.57274500  1
  O  O15  1  0.35430300  0.13598400  0.07448900  1
  O  O16  1  0.36282200  0.14046000  0.43159000  1
  O  O17  1  0.85523600  0.13485700  0.92722300  1
  O  O18  1  0.36209700  0.64020200  0.56877100  1
  O  O19  1  0.85537400  0.63488900  0.07267100  1
  O  O20  1  0.64471700  0.36504000  0.42742900  1
  O  O21  1  0.13798100  0.35980400  0.93121300  1
  O  O22  1  0.64486600  0.86517100  0.57275800  1
  O  O23  1  0.13716000  0.85951000  0.06841900  1
loop_
_geom_bond_atom_site_label_1
_geom_bond_atom_site_label_2
_geom_bond_distance
_geom_bond_site_symmetry_2
Li0 O2 2.036130 1_455
Li0 O5 2.036468 1_545
Li0 O15 2.161778 1_555
Li0 O8 2.162469 1_545
Li0 O16 2.243547 1_555
Li0 O23 2.245121 1_545
Li1 O3 2.048795 1_565
Li1 O4 2.049178 1_655
Li1 O22 2.166027 1_555
Li1 O17 2.168264 1_565
Li1 O9 2.187313 1_555
Li1 O14 2.187588 1_565
Li2 O7 2.048990 1_555
Li2 O0 2.049284 1_655
Li2 O19 2.167926 1_555
Li2 O20 2.169609 1_555
Li2 O10 2.189217 1_555
Li2 O13 2.189298 1_555
Li3 O6 2.039198 1_455
Li3 O1 2.040173 1_555
Li3 O12 2.159957 1_555
Li3 O11 2.160883 1_555
Li3 O21 2.238008 1_555
Li3 O18 2.239590 1_555
Li4 O23 2.101256 1_655
Li4 O19 2.105568 1_555
Li4 O10 2.119106 1_555
Li4 O7 2.123152 1_655
Li4 O8 2.130503 1_655
Li4 O5 2.150732 1_555
Li5 O18 2.104025 1_555
Li5 O22 2.104775 1_555
Li5 O9 2.115204 1_555
Li5 O4 2.123855 1_555
Li5 O11 2.129641 1_555
Li5 O6 2.146728 1_555
Li6 O21 2.104229 1_655
Li6 O17 2.104681 1_555
Li6 O14 2.114755 1_555
Li6 O3 2.124245 1_655
Li6 O12 2.128946 1_655
Li6 O1 2.146624 1_555
Li7 O16 2.101482 1_555
Li7 O20 2.104736 1_555
Li7 O13 2.119625 1_555
Li7 O0 2.122946 1_555
Li7 O15 2.131442 1_555
Li7 O2 2.150929 1_555
Li8 O18 2.065954 1_555
Li8 O7 2.093084 1_555
Li8 O12 2.127823 1_555
Li8 O20 2.148016 1_555
Li8 O0 2.156174 1_555
Li8 O10 2.324257 1_455
Li9 O19 2.083725 1_556
Li9 O13 2.084769 1_556
Li9 O6 2.142493 1_555
Li9 O21 2.151348 1_655
Li9 O1 2.185484 1_555
Li9 O11 2.288302 1_555
Li10 O16 2.065888 1_555
Li10 O3 2.089212 1_555
Li10 O8 2.126200 1_545
Li10 O22 2.147323 1_545
Li10 O4 2.159160 1_545
Li10 O14 2.326822 1_455
Li11 O17 2.082721 1_564
Li11 O9 2.084313 1_554
Li11 O2 2.148730 1_565
Li11 O23 2.153354 1_655
Li11 O5 2.182224 1_555
Li11 O15 2.279129 1_565
Li12 O22 2.082413 1_545
Li12 O14 2.084073 1_555
Li12 O5 2.149065 1_545
Li12 O16 2.152528 1_555
Li12 O2 2.183122 1_555
Li12 O8 2.280371 1_645
Li13 O23 2.066428 1_556
Li13 O4 2.088483 1_555
Li13 O15 2.127190 1_566
Li13 O17 2.145566 1_465
Li13 O3 2.158290 1_565
Li13 O9 2.328640 1_555
Li14 O20 2.082802 1_555
Li14 O10 2.084679 1_555
Li14 O1 2.143302 1_555
Li14 O18 2.149588 1_555
Li14 O6 2.186303 1_555
Li14 O12 2.289927 1_655
Li15 O21 2.065768 1_554
Li15 O0 2.093256 1_555
Li15 O11 2.126943 1_554
Li15 O19 2.147080 1_455
Li15 O7 2.156482 1_555
Li15 O13 2.324119 1_555
Cr0 O14 1.873341 1_555
Cr0 O1 1.907554 1_555
Cr0 O16 1.947556 1_555
Cr0 O20 1.978279 1_555
Cr0 O12 1.994875 1_555
Cr0 O3 2.014932 1_555
Cr1 O9 1.874127 1_555
Cr1 O6 1.906508 1_555
Cr1 O23 1.948364 1_656
Cr1 O19 1.978007 1_556
Cr1 O11 1.994249 1_655
Cr1 O4 2.015169 1_655
Cr2 O13 1.876771 1_555
Cr2 O2 1.909761 1_555
Cr2 O21 1.954391 1_654
Cr2 O17 1.978687 1_554
Cr2 O15 1.999686 1_655
Cr2 O0 2.018054 1_655
Cr3 O10 1.875121 1_555
Cr3 O5 1.909376 1_555
Cr3 O18 1.955534 1_555
Cr3 O22 1.980405 1_555
Cr3 O8 2.000795 1_555
Cr3 O7 2.016349 1_555
O0 Ti0 1.925579 1_555
O1 Ti1 2.068970 1_555
O2 Ti0 2.069377 1_655
O3 Ti1 1.924456 1_555
O4 Ti2 1.923909 1_555
O5 Ti3 2.068649 1_555
O6 Ti2 2.068087 1_655
O7 Ti3 1.925425 1_555
O8 Ti2 1.918193 1_555
O9 Ti3 2.047267 1_556
O10 Ti2 2.050219 1_655
O11 Ti3 1.917471 1_556
O12 Ti0 1.917017 1_555
O13 Ti1 2.049955 1_554
O14 Ti0 2.048178 1_655
O15 Ti1 1.917194 1_554
O16 Ti0 1.988793 1_555
O17 Ti1 1.952121 1_555
O18 Ti2 1.985204 1_555
O19 Ti3 1.950713 1_555
O20 Ti0 1.950094 1_655
O21 Ti1 1.985049 1_555
O22 Ti2 1.952028 1_655
O23 Ti3 1.988707 1_555
