# generated using pymatgen
data_MgZn
_symmetry_space_group_name_H-M   'P 1'
_cell_length_a   5.31517109
_cell_length_b   5.31517109
_cell_length_c   5.69784473
_cell_angle_alpha   61.45260421
_cell_angle_beta   61.45260421
_cell_angle_gamma   54.75705642
_symmetry_Int_Tables_number   1
_chemical_formula_structural   MgZn
_chemical_formula_sum   'Mg3 Zn3'
_cell_volume   110.80482251
_cell_formula_units_Z   3
loop_
 _symmetry_equiv_pos_site_id
 _symmetry_equiv_pos_as_xyz
  1  'x, y, z'
loop_
 _atom_site_type_symbol
 _atom_site_label
 _atom_site_symmetry_multiplicity
 _atom_site_fract_x
 _atom_site_fract_y
 _atom_site_fract_z
 _atom_site_occupancy
  Mg  Mg0  1  0.00558200  0.30080300  0.01578500  1
  Mg  Mg1  1  0.69919700  0.99441800  0.98421500  1
  Mg  Mg2  1  0.46379900  0.53620100  0.50000000  1
  Zn  Zn0  1  0.34380200  0.65619800  0.00000000  1
  Zn  Zn1  1  0.80628700  0.81866700  0.50614200  1
  Zn  Zn2  1  0.18133300  0.19371300  0.49385800  1
loop_
_geom_bond_atom_site_label_1
_geom_bond_atom_site_label_2
_geom_bond_distance
_geom_bond_site_symmetry_2
Mg0 Zn0 2.830234 1_545
Mg0 Zn2 2.896466 1_554
Mg0 Zn0 2.901839 1_455
Mg0 Zn2 2.992191 1_555
Mg0 Zn1 2.992718 1_445
Mg0 Mg1 2.992805 1_444
Mg0 Mg1 2.998879 1_544
Mg0 Mg1 2.998879 1_454
Mg0 Mg2 3.002917 1_455
Mg0 Zn1 3.011060 1_454
Mg0 Mg2 3.048834 1_554
Mg0 Zn0 3.226490 1_555
Mg1 Zn0 2.830234 1_656
Mg1 Zn1 2.896466 1_556
Mg1 Zn0 2.901839 1_566
Mg1 Zn1 2.992191 1_555
Mg1 Zn2 2.992718 1_665
Mg1 Mg2 3.002917 1_565
Mg1 Zn2 3.011060 1_566
Mg1 Mg2 3.048834 1_556
Mg1 Zn0 3.226490 1_556
Mg2 Zn2 2.889074 1_565
Mg2 Zn1 2.889074 1_455
Mg2 Zn0 2.908689 1_556
Mg2 Zn0 2.908689 1_555
Mg2 Zn1 2.972266 1_555
Mg2 Zn2 2.972266 1_555
Mg2 Zn2 3.127483 1_655
Mg2 Zn1 3.127483 1_545
Zn0 Zn1 2.867531 1_554
Zn0 Zn2 2.867531 1_555
Zn0 Zn1 2.980456 1_455
Zn0 Zn2 2.980456 1_564
Zn1 Zn2 2.731206 1_655
Zn1 Zn2 2.731206 1_565
