# generated using pymatgen
data_Ca3B5Cl2O21
_symmetry_space_group_name_H-M   'P 1'
_cell_length_a   7.39434000
_cell_length_b   8.80647300
_cell_length_c   17.11396769
_cell_angle_alpha   59.50490399
_cell_angle_beta   90.00000000
_cell_angle_gamma   90.00000000
_symmetry_Int_Tables_number   1
_chemical_formula_structural   Ca3B5Cl2O21
_chemical_formula_sum   'Ca6 B10 Cl4 O42'
_cell_volume   960.27232753
_cell_formula_units_Z   2
loop_
 _symmetry_equiv_pos_site_id
 _symmetry_equiv_pos_as_xyz
  1  'x, y, z'
loop_
 _atom_site_type_symbol
 _atom_site_label
 _atom_site_symmetry_multiplicity
 _atom_site_fract_x
 _atom_site_fract_y
 _atom_site_fract_z
 _atom_site_occupancy
  Ca  Ca0  1  0.56053200  0.99525500  0.00405000  1
  Ca  Ca1  1  0.43946800  0.99525500  0.50405000  1
  Ca  Ca2  1  0.69713300  0.44129900  0.39826900  1
  Ca  Ca3  1  0.30286700  0.44129900  0.89826900  1
  Ca  Ca4  1  0.40485000  0.22585200  0.62213500  1
  Ca  Ca5  1  0.59515000  0.22585200  0.12213500  1
  B  B0  1  0.56072600  0.89026100  0.34459600  1
  B  B1  1  0.43927400  0.89026100  0.84459600  1
  B  B2  1  0.54089000  0.55189500  0.18199800  1
  B  B3  1  0.45911000  0.55189500  0.68199800  1
  B  B4  1  0.41989400  0.78390200  0.73086800  1
  B  B5  1  0.58010600  0.78390200  0.23086800  1
  B  B6  1  0.49078800  0.65866600  0.01397800  1
  B  B7  1  0.50921200  0.65866600  0.51397800  1
  B  B8  1  0.45952000  0.21779700  0.80485600  1
  B  B9  1  0.54048000  0.21779700  0.30485600  1
  Cl  Cl0  1  0.93649000  0.04059500  0.81101300  1
  Cl  Cl1  1  0.06351000  0.04059500  0.31101300  1
  Cl  Cl2  1  0.99932900  0.68451600  0.52727000  1
  Cl  Cl3  1  0.00067100  0.68451600  0.02727000  1
  O  O0  1  0.58267700  0.76443900  0.31861800  1
  O  O1  1  0.41732300  0.76443900  0.81861800  1
  O  O2  1  0.54046300  0.82996800  0.43642000  1
  O  O3  1  0.45953700  0.82996800  0.93642000  1
  O  O4  1  0.44137300  0.06718100  0.78322600  1
  O  O5  1  0.55862700  0.06718100  0.28322600  1
  O  O6  1  0.57198700  0.61053400  0.24296600  1
  O  O7  1  0.42801300  0.61053400  0.74296600  1
  O  O8  1  0.54615800  0.37758900  0.20844900  1
  O  O9  1  0.45384200  0.37758900  0.70844900  1
  O  O10  1  0.50665800  0.67908000  0.09210900  1
  O  O11  1  0.49334200  0.67908000  0.59210900  1
  O  O12  1  0.40790500  0.93394900  0.65345000  1
  O  O13  1  0.59209500  0.93394900  0.15345000  1
  O  O14  1  0.84402300  0.84466900  0.67644700  1
  O  O15  1  0.15597700  0.84466900  0.17644700  1
  O  O16  1  0.60899800  0.53399100  0.00565400  1
  O  O17  1  0.39100200  0.53399100  0.50565400  1
  O  O18  1  0.40210400  0.50182000  0.02195500  1
  O  O19  1  0.59789600  0.50182000  0.52195500  1
  O  O20  1  0.32616200  0.21664600  0.86503800  1
  O  O21  1  0.67383800  0.21664600  0.36503800  1
  O  O22  1  0.62131200  0.20216500  0.85431000  1
  O  O23  1  0.37868800  0.20216500  0.35431000  1
  O  O24  1  0.50887500  0.24347000  0.49453100  1
  O  O25  1  0.49112500  0.24347000  0.99453100  1
  O  O26  1  0.91091300  0.16669200  0.68345700  1
  O  O27  1  0.08908700  0.16669200  0.18345700  1
  O  O28  1  0.05584600  0.21607600  0.63683300  1
  O  O29  1  0.94415400  0.21607600  0.13683300  1
  O  O30  1  0.03285900  0.32023300  0.45944700  1
  O  O31  1  0.96714100  0.32023300  0.95944700  1
  O  O32  1  0.17126200  0.94112300  0.09329000  1
  O  O33  1  0.82873800  0.94112300  0.59329000  1
  O  O34  1  0.95083300  0.64355400  0.45427400  1
  O  O35  1  0.04916700  0.64355400  0.95427400  1
  O  O36  1  0.88843900  0.85102900  0.99560600  1
  O  O37  1  0.11156100  0.85102900  0.49560600  1
  O  O38  1  0.00541900  0.51628800  0.31259800  1
  O  O39  1  0.99458100  0.51628800  0.81259800  1
  O  O40  1  0.11472700  0.41276200  0.38008400  1
  O  O41  1  0.88527300  0.41276200  0.88008400  1
loop_
_geom_bond_atom_site_label_1
_geom_bond_atom_site_label_2
_geom_bond_distance
_geom_bond_site_symmetry_2
Ca0 O25 2.169486 1_564
Ca0 O22 2.313034 1_564
Ca0 O13 2.341431 1_555
Ca0 O3 2.392897 1_554
Ca0 O10 2.433895 1_555
Ca0 O36 2.774768 1_554
Ca1 O24 2.169486 1_565
Ca1 O23 2.313034 1_565
Ca1 O12 2.341431 1_555
Ca1 O2 2.392897 1_555
Ca1 O11 2.433895 1_555
Ca1 O37 2.774768 1_555
Ca2 O24 2.184953 1_555
Ca2 O21 2.325751 1_555
Ca2 O6 2.474139 1_555
Ca2 O19 2.539332 1_555
Ca2 O0 2.595290 1_555
Ca2 O38 2.607589 1_655
Ca2 O30 2.694929 1_655
Ca3 O25 2.184953 1_555
Ca3 O20 2.325751 1_555
Ca3 O7 2.474139 1_555
Ca3 O18 2.539332 1_556
Ca3 O1 2.595290 1_555
Ca3 O39 2.607589 1_455
Ca3 O31 2.694929 1_455
Ca4 O24 2.245191 1_555
Ca4 O12 2.344709 1_545
Ca4 O4 2.390853 1_555
Ca4 O17 2.420296 1_555
Ca4 O9 2.470276 1_555
Ca4 O19 2.579634 1_555
Ca4 O28 2.590074 1_555
Ca5 O25 2.245191 1_554
Ca5 O13 2.344709 1_545
Ca5 O5 2.390853 1_555
Ca5 O16 2.420296 1_555
Ca5 O8 2.470276 1_555
Ca5 O18 2.579634 1_555
Ca5 O29 2.590074 1_555
B0 O5 1.367485 1_565
B0 O2 1.388180 1_555
B0 O0 1.397051 1_555
B1 O4 1.367485 1_565
B1 O3 1.388180 1_555
B1 O1 1.397051 1_555
B2 O8 1.362893 1_555
B2 O10 1.391534 1_555
B2 O6 1.398248 1_555
B3 O9 1.362893 1_555
B3 O11 1.391534 1_555
B3 O7 1.398248 1_555
B4 O12 1.316235 1_555
B4 O1 1.422586 1_555
B4 O7 1.434100 1_555
B5 O13 1.316235 1_555
B5 O0 1.422586 1_555
B5 O6 1.434100 1_555
B6 O3 1.434821 1_554
B6 O10 1.441521 1_555
B6 O16 1.465794 1_555
B6 O18 1.471447 1_555
B7 O2 1.434821 1_555
B7 O11 1.441521 1_555
B7 O17 1.465794 1_555
B7 O19 1.471447 1_555
B8 O20 1.422214 1_555
B8 O22 1.431173 1_555
B8 O9 1.532240 1_555
B8 O4 1.553284 1_555
B9 O21 1.422214 1_555
B9 O23 1.431173 1_555
B9 O8 1.532240 1_555
B9 O5 1.553284 1_555
Cl0 O26 1.890508 1_555
Cl1 O27 1.890508 1_555
Cl2 O34 1.508879 1_555
Cl2 O37 1.525177 1_655
Cl3 O35 1.508879 1_554
Cl3 O36 1.525177 1_454
O14 O33 1.238038 1_555
O15 O32 1.238038 1_555
O26 O28 1.273627 1_655
O27 O29 1.273627 1_455
O30 O40 1.323604 1_555
O31 O41 1.323604 1_555
O38 O40 1.322765 1_555
O39 O41 1.322765 1_555
