# generated using pymatgen
data_AlCd3
_symmetry_space_group_name_H-M   'P 1'
_cell_length_a   5.43723880
_cell_length_b   5.43723880
_cell_length_c   5.43723880
_cell_angle_alpha   132.40889436
_cell_angle_beta   132.40889436
_cell_angle_gamma   69.58398433
_symmetry_Int_Tables_number   1
_chemical_formula_structural   AlCd3
_chemical_formula_sum   'Al1 Cd3'
_cell_volume   85.95896534
_cell_formula_units_Z   1
loop_
 _symmetry_equiv_pos_site_id
 _symmetry_equiv_pos_as_xyz
  1  'x, y, z'
loop_
 _atom_site_type_symbol
 _atom_site_label
 _atom_site_symmetry_multiplicity
 _atom_site_fract_x
 _atom_site_fract_y
 _atom_site_fract_z
 _atom_site_occupancy
  Al  Al0  1  0.00000000  0.00000000  0.00000000  1
  Cd  Cd0  1  0.75000000  0.25000000  0.50000000  1
  Cd  Cd1  1  0.25000000  0.75000000  0.50000000  1
  Cd  Cd2  1  0.50000000  0.50000000  0.00000000  1
loop_
_geom_bond_atom_site_label_1
_geom_bond_atom_site_label_2
_geom_bond_distance
_geom_bond_site_symmetry_2
Al0 Cd2 3.102482 1_455
Al0 Cd2 3.102482 1_545
Al0 Cd2 3.102482 1_556
Al0 Cd2 3.102482 1_444
Al0 Cd1 3.130054 1_544
Al0 Cd1 3.130054 1_444
Al0 Cd1 3.130054 1_545
Al0 Cd0 3.130054 1_455
Al0 Cd0 3.130054 1_454
Al0 Cd0 3.130054 1_555
Al0 Cd1 3.130054 1_555
Al0 Cd0 3.130054 1_444
Cd0 Cd1 3.102482 1_656
Cd0 Cd1 3.102482 1_544
Cd0 Cd1 3.102482 1_645
Cd0 Cd1 3.102482 1_555
Cd0 Cd2 3.130054 1_556
Cd0 Cd2 3.130054 1_555
Cd0 Cd2 3.130054 1_656
Cd0 Cd2 3.130054 1_545
Cd1 Cd2 3.130054 1_455
Cd1 Cd2 3.130054 1_556
Cd1 Cd2 3.130054 1_555
Cd1 Cd2 3.130054 1_566
