# generated using pymatgen
data_Mn3FeCo2P3
_symmetry_space_group_name_H-M   'P 1'
_cell_length_a   3.49586300
_cell_length_b   5.83160800
_cell_length_c   20.05918211
_cell_angle_alpha   89.93703490
_cell_angle_beta   90.00000000
_cell_angle_gamma   90.00000000
_symmetry_Int_Tables_number   1
_chemical_formula_structural   Mn3FeCo2P3
_chemical_formula_sum   'Mn12 Fe4 Co8 P12'
_cell_volume   408.93632212
_cell_formula_units_Z   4
loop_
 _symmetry_equiv_pos_site_id
 _symmetry_equiv_pos_as_xyz
  1  'x, y, z'
loop_
 _atom_site_type_symbol
 _atom_site_label
 _atom_site_symmetry_multiplicity
 _atom_site_fract_x
 _atom_site_fract_y
 _atom_site_fract_z
 _atom_site_occupancy
  Mn  Mn0  1  0.50000000  0.47277300  0.94362400  1
  Mn  Mn1  1  0.50000000  0.47153100  0.61021000  1
  Mn  Mn2  1  0.50000000  0.47278200  0.27706300  1
  Mn  Mn3  1  0.50000000  0.97125100  0.88968100  1
  Mn  Mn4  1  0.50000000  0.97215800  0.55622000  1
  Mn  Mn5  1  0.50000000  0.97193200  0.22280100  1
  Mn  Mn6  1  0.00000000  0.52720100  0.72304800  1
  Mn  Mn7  1  0.00000000  0.52717800  0.38934200  1
  Mn  Mn8  1  0.00000000  0.52701900  0.05597200  1
  Mn  Mn9  1  0.00000000  0.02741000  0.77690800  1
  Mn  Mn10  1  0.00000000  0.02716500  0.44386800  1
  Mn  Mn11  1  0.00000000  0.02710900  0.11041600  1
  Fe  Fe0  1  0.50000000  0.35445300  0.81275300  1
  Fe  Fe1  1  0.50000000  0.35493900  0.47908600  1
  Fe  Fe2  1  0.50000000  0.35513600  0.14582400  1
  Fe  Fe3  1  0.50000000  0.85473400  0.68710100  1
  Co  Co0  1  0.50000000  0.85620200  0.35478800  1
  Co  Co1  1  0.50000000  0.85612100  0.02137500  1
  Co  Co2  1  0.00000000  0.64727300  0.85499300  1
  Co  Co3  1  0.00000000  0.64682200  0.52193800  1
  Co  Co4  1  0.00000000  0.64630500  0.18839500  1
  Co  Co5  1  0.00000000  0.14498800  0.97834700  1
  Co  Co6  1  0.00000000  0.14771500  0.64467900  1
  Co  Co7  1  0.00000000  0.14460000  0.31170000  1
  P  P0  1  0.50000000  0.73038600  0.79059600  1
  P  P1  1  0.50000000  0.73147700  0.45823400  1
  P  P2  1  0.50000000  0.73147900  0.12477600  1
  P  P3  1  0.50000000  0.23056100  0.70920400  1
  P  P4  1  0.50000000  0.23352600  0.37567700  1
  P  P5  1  0.50000000  0.23340800  0.04245700  1
  P  P6  1  0.00000000  0.26780500  0.87460400  1
  P  P7  1  0.00000000  0.26754800  0.54133100  1
  P  P8  1  0.00000000  0.26736200  0.20804200  1
  P  P9  1  0.00000000  0.76678800  0.95821000  1
  P  P10  1  0.00000000  0.76821000  0.62528900  1
  P  P11  1  0.00000000  0.76665200  0.29144700  1
loop_
_geom_bond_atom_site_label_1
_geom_bond_atom_site_label_2
_geom_bond_distance
_geom_bond_site_symmetry_2
Mn0 P5 2.423376 1_556
Mn0 P9 2.466122 1_555
Mn0 P9 2.466122 1_655
Mn0 P6 2.530697 1_655
Mn0 P6 2.530697 1_555
Mn1 P3 2.431405 1_555
Mn1 P10 2.478145 1_655
Mn1 P10 2.478145 1_555
Mn1 P7 2.526436 1_555
Mn1 P7 2.526436 1_655
Mn2 P4 2.419420 1_555
Mn2 P11 2.465053 1_655
Mn2 P11 2.465053 1_555
Mn2 P8 2.531955 1_655
Mn2 P8 2.531955 1_555
Mn3 P0 2.435063 1_555
Mn3 P6 2.477167 1_665
Mn3 P6 2.477167 1_565
Mn3 P9 2.522495 1_555
Mn3 P9 2.522495 1_655
Mn4 P1 2.416465 1_555
Mn4 P7 2.471979 1_565
Mn4 P7 2.471979 1_665
Mn4 P10 2.526995 1_655
Mn4 P10 2.526995 1_555
Mn5 P2 2.416328 1_555
Mn5 P8 2.471830 1_565
Mn5 P8 2.471830 1_665
Mn5 P11 2.526025 1_655
Mn5 P11 2.526025 1_555
Mn6 P10 2.411364 1_555
Mn6 P3 2.475066 1_555
Mn6 P3 2.475066 1_455
Mn6 P0 2.509717 1_555
Mn6 P0 2.509717 1_455
Mn7 P11 2.408387 1_555
Mn7 P4 2.462511 1_555
Mn7 P4 2.462511 1_455
Mn7 P1 2.527448 1_555
Mn7 P1 2.527448 1_455
Mn8 P9 2.407212 1_554
Mn8 P5 2.462010 1_455
Mn8 P5 2.462010 1_555
Mn8 P2 2.526926 1_455
Mn8 P2 2.526926 1_555
Mn9 P6 2.410760 1_555
Mn9 P0 2.475858 1_445
Mn9 P0 2.475858 1_545
Mn9 P3 2.509907 1_555
Mn9 P3 2.509907 1_455
Mn10 P7 2.406918 1_555
Mn10 P1 2.471953 1_545
Mn10 P1 2.471953 1_445
Mn10 P4 2.524062 1_555
Mn10 P4 2.524062 1_455
Mn11 P8 2.409135 1_555
Mn11 P2 2.471703 1_545
Mn11 P2 2.471703 1_445
Mn11 P5 2.521373 1_455
Mn11 P5 2.521373 1_555
Fe0 P3 2.199925 1_555
Fe0 P6 2.201931 1_655
Fe0 P6 2.201931 1_555
Fe0 P0 2.236414 1_555
Fe0 Mn3 2.714301 1_545
Fe1 P4 2.192546 1_555
Fe1 P7 2.207385 1_555
Fe1 P7 2.207385 1_655
Fe1 P1 2.234853 1_555
Fe1 Mn1 2.717422 1_555
Fe2 P5 2.192345 1_555
Fe2 P8 2.207595 1_655
Fe2 P8 2.207595 1_555
Fe2 P2 2.234471 1_555
Fe3 P0 2.198275 1_555
Fe3 P10 2.201950 1_655
Fe3 P10 2.201950 1_555
Fe3 P3 2.236549 1_565
Fe3 Mn1 2.716675 1_555
Co0 P1 2.198071 1_555
Co0 P11 2.223462 1_555
Co0 P11 2.223462 1_655
Co0 P4 2.240399 1_565
Co1 P2 2.197060 1_555
Co1 P9 2.221147 1_554
Co1 P9 2.221147 1_654
Co1 P5 2.240918 1_565
Co1 Mn3 2.724942 1_554
Co2 P9 2.185335 1_555
Co2 P0 2.226528 1_555
Co2 P0 2.226528 1_455
Co2 P6 2.247176 1_555
Co2 Mn3 2.666798 1_455
Co2 Mn3 2.666798 1_555
Co3 P10 2.191398 1_555
Co3 P1 2.220472 1_555
Co3 P1 2.220472 1_455
Co3 P7 2.245305 1_555
Co3 Mn1 2.689143 1_455
Co3 Mn1 2.689143 1_555
Co4 P11 2.183758 1_555
Co4 P2 2.220164 1_555
Co4 P2 2.220164 1_455
Co4 P8 2.244288 1_555
Co5 P6 2.200058 1_555
Co5 P5 2.230780 1_456
Co5 P5 2.230780 1_556
Co5 P9 2.242635 1_545
Co5 Mn3 2.692403 1_445
Co5 Mn3 2.692403 1_545
Co6 P7 2.186964 1_555
Co6 P3 2.228298 1_455
Co6 P3 2.228298 1_555
Co6 P10 2.247463 1_545
Co6 Mn1 2.663905 1_455
Co6 Mn1 2.663905 1_555
Co7 P8 2.198342 1_555
Co7 P4 2.229928 1_455
Co7 P4 2.229928 1_555
Co7 P11 2.241612 1_545
