# generated using pymatgen
data_NaFeAs
_symmetry_space_group_name_H-M   'P 1'
_cell_length_a   7.50001057
_cell_length_b   7.50001057
_cell_length_c   3.97291800
_cell_angle_alpha   90.00000000
_cell_angle_beta   90.00000000
_cell_angle_gamma   150.27181569
_symmetry_Int_Tables_number   1
_chemical_formula_structural   NaFeAs
_chemical_formula_sum   'Na2 Fe2 As2'
_cell_volume   110.81922513
_cell_formula_units_Z   2
loop_
 _symmetry_equiv_pos_site_id
 _symmetry_equiv_pos_as_xyz
  1  'x, y, z'
loop_
 _atom_site_type_symbol
 _atom_site_label
 _atom_site_symmetry_multiplicity
 _atom_site_fract_x
 _atom_site_fract_y
 _atom_site_fract_z
 _atom_site_occupancy
  Na  Na0  1  0.08668800  0.91331200  0.75000000  1
  Na  Na1  1  0.91331200  0.08668800  0.25000000  1
  Fe  Fe0  1  0.74916200  0.25083800  0.75000000  1
  Fe  Fe1  1  0.25083800  0.74916200  0.25000000  1
  As  As0  1  0.33826300  0.66173700  0.75000000  1
  As  As1  1  0.66173700  0.33826300  0.25000000  1
loop_
_geom_bond_atom_site_label_1
_geom_bond_atom_site_label_2
_geom_bond_distance
_geom_bond_site_symmetry_2
Na0 Na1 3.203794 1_466
Na0 Na1 3.203794 1_465
Fe0 Na0 3.041426 1_655
Fe0 Na0 3.041426 1_545
Fe0 Na1 3.099960 1_555
Fe0 Na1 3.099960 1_556
Fe1 Na1 3.041426 1_565
Fe1 Na1 3.041426 1_455
Fe1 Na0 3.099960 1_555
Fe1 Na0 3.099960 1_554
As0 Fe0 2.317399 1_565
As0 Fe0 2.317399 1_455
As0 Fe1 2.356387 1_556
As0 Fe1 2.356387 1_555
As0 Na1 2.971786 1_456
As0 Na1 2.971786 1_565
As0 Na1 2.971786 1_566
As0 Na1 2.971786 1_455
As1 Fe1 2.317399 1_655
As1 Fe1 2.317399 1_545
As1 Fe0 2.356387 1_555
As1 Fe0 2.356387 1_554
As1 Na0 2.971786 1_654
As1 Na0 2.971786 1_655
As1 Na0 2.971786 1_545
As1 Na0 2.971786 1_544
