# generated using pymatgen
data_H6CSN2O
_symmetry_space_group_name_H-M   'P 1'
_cell_length_a   6.04109682
_cell_length_b   8.32702734
_cell_length_c   9.45999300
_cell_angle_alpha   90.00000000
_cell_angle_beta   90.00000000
_cell_angle_gamma   98.70905569
_symmetry_Int_Tables_number   1
_chemical_formula_structural   H6CSN2O
_chemical_formula_sum   'H24 C4 S4 N8 O4'
_cell_volume   470.39216600
_cell_formula_units_Z   4
loop_
 _symmetry_equiv_pos_site_id
 _symmetry_equiv_pos_as_xyz
  1  'x, y, z'
loop_
 _atom_site_type_symbol
 _atom_site_label
 _atom_site_symmetry_multiplicity
 _atom_site_fract_x
 _atom_site_fract_y
 _atom_site_fract_z
 _atom_site_occupancy
  H  H0  1  0.02419200  0.08818500  0.76744400  1
  H  H1  1  0.97580800  0.41181500  0.26744400  1
  H  H2  1  0.97580800  0.91181500  0.23255600  1
  H  H3  1  0.02419200  0.58818500  0.73255600  1
  H  H4  1  0.93687400  0.12012900  0.61455500  1
  H  H5  1  0.06312600  0.37987100  0.11455500  1
  H  H6  1  0.06312600  0.87987100  0.38544500  1
  H  H7  1  0.93687400  0.62012900  0.88544500  1
  H  H8  1  0.77936000  0.81532100  0.62589900  1
  H  H9  1  0.22064000  0.68467900  0.12589900  1
  H  H10  1  0.22064000  0.18467900  0.37410100  1
  H  H11  1  0.77936000  0.31532100  0.87410100  1
  H  H12  1  0.67160400  0.63527400  0.53588500  1
  H  H13  1  0.32839600  0.86472600  0.03588500  1
  H  H14  1  0.32839600  0.36472600  0.46411500  1
  H  H15  1  0.67160400  0.13527400  0.96411500  1
  H  H16  1  0.54911100  0.98105600  0.71396000  1
  H  H17  1  0.45088900  0.51894400  0.21396000  1
  H  H18  1  0.45088900  0.01894400  0.28604000  1
  H  H19  1  0.54911100  0.48105600  0.78604000  1
  H  H20  1  0.26220000  0.95245600  0.66818300  1
  H  H21  1  0.73780000  0.54754400  0.16818300  1
  H  H22  1  0.73780000  0.04754400  0.33181700  1
  H  H23  1  0.26220000  0.45245600  0.83181700  1
  C  C0  1  0.43897300  0.77731700  0.59728500  1
  C  C1  1  0.56102700  0.72268300  0.09728500  1
  C  C2  1  0.56102700  0.22268300  0.40271500  1
  C  C3  1  0.43897300  0.27731700  0.90271500  1
  S  S0  1  0.21327100  0.66120500  0.51895300  1
  S  S1  1  0.78672900  0.83879500  0.01895300  1
  S  S2  1  0.78672900  0.33879500  0.48104700  1
  S  S3  1  0.21327100  0.16120500  0.98104700  1
  N  N0  1  0.64447400  0.73554200  0.59115100  1
  N  N1  1  0.35552600  0.76445800  0.09115100  1
  N  N2  1  0.35552600  0.26445800  0.40884900  1
  N  N3  1  0.64447400  0.23554200  0.90884900  1
  N  N4  1  0.41430600  0.91235500  0.66808000  1
  N  N5  1  0.58569400  0.58764500  0.16808000  1
  N  N6  1  0.58569400  0.08764500  0.33192000  1
  N  N7  1  0.41430600  0.41235500  0.83192000  1
  O  O0  1  0.97351900  0.03352500  0.67753600  1
  O  O1  1  0.02648100  0.46647500  0.17753600  1
  O  O2  1  0.02648100  0.96647500  0.32246400  1
  O  O3  1  0.97351900  0.53352500  0.82246400  1
loop_
_geom_bond_atom_site_label_1
_geom_bond_atom_site_label_2
_geom_bond_distance
_geom_bond_site_symmetry_2
H0 O0 0.991000 1_455
H1 O1 0.991000 1_655
H2 O2 0.991000 1_655
H3 O3 0.991000 1_455
H4 O0 0.986100 1_555
H5 O1 0.986100 1_555
H6 O2 0.986100 1_555
H7 O3 0.986100 1_555
H8 N0 1.024422 1_555
H9 N1 1.024422 1_555
H10 N2 1.024422 1_555
H11 N3 1.024422 1_555
H12 N0 1.019193 1_555
H13 N1 1.019193 1_555
H14 N2 1.019193 1_555
H15 N3 1.019193 1_555
H16 N4 1.018706 1_555
H17 N5 1.018706 1_555
H18 N6 1.018706 1_555
H19 N7 1.018706 1_555
H20 N4 1.024099 1_555
H21 N5 1.024099 1_555
H22 N6 1.024099 1_555
H23 N7 1.024099 1_555
C0 N4 1.336374 1_555
C0 N0 1.340282 1_555
C0 S0 1.715754 1_555
C1 N5 1.336374 1_555
C1 N1 1.340282 1_555
C1 S1 1.715754 1_555
C2 N6 1.336374 1_555
C2 N2 1.340282 1_555
C2 S2 1.715754 1_555
C3 N7 1.336374 1_555
C3 N3 1.340282 1_555
C3 S3 1.715754 1_555
