# generated using pymatgen
data_EuInRh
_symmetry_space_group_name_H-M   'P 1'
_cell_length_a   4.34962132
_cell_length_b   7.40416415
_cell_length_c   8.46429955
_cell_angle_alpha   89.96079620
_cell_angle_beta   90.00000000
_cell_angle_gamma   90.00000000
_symmetry_Int_Tables_number   1
_chemical_formula_structural   EuInRh
_chemical_formula_sum   'Eu4 In4 Rh4'
_cell_volume   272.59532921
_cell_formula_units_Z   4
loop_
 _symmetry_equiv_pos_site_id
 _symmetry_equiv_pos_as_xyz
  1  'x, y, z'
loop_
 _atom_site_type_symbol
 _atom_site_label
 _atom_site_symmetry_multiplicity
 _atom_site_fract_x
 _atom_site_fract_y
 _atom_site_fract_z
 _atom_site_occupancy
  Eu  Eu0  1  0.25000000  0.02973455  0.32375639  1
  Eu  Eu1  1  0.25000000  0.52976783  0.17727314  1
  Eu  Eu2  1  0.75000000  0.97020388  0.67671342  1
  Eu  Eu3  1  0.75000000  0.47024232  0.82215974  1
  In  In0  1  0.25000000  0.14523118  0.93699578  1
  In  In1  1  0.25000000  0.64497567  0.56305812  1
  In  In2  1  0.75000000  0.85505594  0.06318854  1
  In  In3  1  0.75000000  0.35489026  0.43669631  1
  Rh  Rh0  1  0.25000000  0.27307992  0.62660810  1
  Rh  Rh1  1  0.25000000  0.77306542  0.87344239  1
  Rh  Rh2  1  0.75000000  0.72688615  0.37335380  1
  Rh  Rh3  1  0.75000000  0.22686688  0.12675427  1
loop_
_geom_bond_atom_site_label_1
_geom_bond_atom_site_label_2
_geom_bond_distance
_geom_bond_site_symmetry_2
Eu0 Rh3 3.104418 1_455
Eu0 Rh3 3.104418 1_555
Eu0 Rh0 3.134303 1_555
Eu0 Rh2 3.151640 1_445
Eu0 Rh2 3.151640 1_545
Eu1 Rh2 3.101258 1_455
Eu1 Rh2 3.101258 1_555
Eu1 Rh1 3.138865 1_554
Eu1 Rh3 3.153378 1_555
Eu1 Rh3 3.153378 1_455
Eu2 Rh1 3.103199 1_555
Eu2 Rh1 3.103199 1_655
Eu2 Rh2 3.137704 1_555
Eu2 Rh0 3.152359 1_565
Eu2 Rh0 3.152359 1_665
Eu3 Rh0 3.099016 1_655
Eu3 Rh0 3.099016 1_555
Eu3 Rh3 3.144491 1_556
Eu3 Rh1 3.153854 1_655
Eu3 Rh1 3.153854 1_555
In0 Rh3 2.770609 1_556
In0 Rh3 2.770609 1_456
In0 Rh0 2.791940 1_555
In0 Rh1 2.807954 1_545
In1 Rh2 2.770307 1_555
In1 Rh2 2.770307 1_455
In1 Rh1 2.793738 1_555
In1 Rh0 2.805263 1_555
In2 Rh1 2.771124 1_554
In2 Rh1 2.771124 1_654
In2 Rh2 2.790975 1_555
In2 Rh3 2.805395 1_565
In3 Rh0 2.771164 1_655
In3 Rh0 2.771164 1_555
In3 Rh3 2.790050 1_555
In3 Rh2 2.805656 1_555
