# generated using pymatgen
data_Sr4CaY2(RuO6)2
_symmetry_space_group_name_H-M   'P 1'
_cell_length_a   5.82640521
_cell_length_b   6.14159564
_cell_length_c   8.54752256
_cell_angle_alpha   85.71632695
_cell_angle_beta   88.97790191
_cell_angle_gamma   89.17140220
_symmetry_Int_Tables_number   1
_chemical_formula_structural   Sr4CaY2(RuO6)2
_chemical_formula_sum   'Sr4 Ca1 Y2 Ru2 O12'
_cell_volume   304.93023108
_cell_formula_units_Z   1
loop_
 _symmetry_equiv_pos_site_id
 _symmetry_equiv_pos_as_xyz
  1  'x, y, z'
loop_
 _atom_site_type_symbol
 _atom_site_label
 _atom_site_symmetry_multiplicity
 _atom_site_fract_x
 _atom_site_fract_y
 _atom_site_fract_z
 _atom_site_occupancy
  Sr  Sr0  1  0.47097200  0.36066600  0.15521500  1
  Sr  Sr1  1  0.00209900  0.93251200  0.21493200  1
  Sr  Sr2  1  0.01801000  0.00013100  0.75614600  1
  Sr  Sr3  1  0.48207300  0.54381600  0.75597800  1
  Ca  Ca0  1  0.49401600  0.66092300  0.36836800  1
  Y  Y0  1  0.50905800  0.07547800  0.52398900  1
  Y  Y1  1  0.98615600  0.48194300  0.98887000  1
  Ru  Ru0  1  0.50121900  0.96502400  0.99883000  1
  Ru  Ru1  1  0.00446200  0.54971700  0.51266100  1
  O  O0  1  0.91446200  0.54593600  0.74352900  1
  O  O1  1  0.57919800  0.97413700  0.77231500  1
  O  O2  1  0.12118100  0.54013600  0.28294500  1
  O  O3  1  0.42722400  0.99446100  0.24976800  1
  O  O4  1  0.80056200  0.82163900  0.47220500  1
  O  O5  1  0.77298100  0.17749000  0.01986600  1
  O  O6  1  0.22120900  0.30067200  0.56754100  1
  O  O7  1  0.23957900  0.75419700  0.96984900  1
  O  O8  1  0.27027000  0.22727500  0.94952400  1
  O  O9  1  0.26487400  0.76972400  0.55940400  1
  O  O10  1  0.69910400  0.69763900  0.06976100  1
  O  O11  1  0.72129200  0.36606800  0.46674200  1
loop_
_geom_bond_atom_site_label_1
_geom_bond_atom_site_label_2
_geom_bond_distance
_geom_bond_site_symmetry_2
Ca0 O9 2.225908 1_555
Ca0 O3 2.248571 1_555
Ca0 O4 2.278255 1_555
Ca0 O11 2.341523 1_555
Ca0 O2 2.446707 1_555
Ca0 O10 2.793956 1_555
O0 Ru1 2.031307 1_655
O0 Y1 2.151740 1_555
O0 Sr3 2.519803 1_555
O0 Sr2 2.872762 1_665
O1 Ru0 1.977717 1_555
O1 Y0 2.210414 1_565
O1 Sr2 2.564603 1_665
O1 Sr3 2.725002 1_555
O2 Ru1 2.071169 1_555
O2 Sr1 2.526520 1_555
O2 Sr0 2.568239 1_555
O2 Y1 2.697736 1_454
O3 Ru0 2.200415 1_554
O3 Sr0 2.348235 1_565
O3 Y0 2.487929 1_565
O3 Sr1 2.537556 1_555
O4 Ru1 2.047181 1_655
O4 Y0 2.347475 1_565
O4 Sr1 2.526978 1_655
O4 Sr2 3.040471 1_665
O5 Ru0 2.084982 1_544
O5 Y1 2.256223 1_554
O5 Sr0 2.401012 1_555
O5 Sr1 2.544070 1_645
O5 Sr2 2.917684 1_654
O6 Ru1 2.003099 1_555
O6 Y0 2.202659 1_555
O6 Sr2 2.637825 1_555
O6 Sr3 2.765242 1_555
O7 Ru0 2.044564 1_555
O7 Y1 2.241580 1_455
O7 Sr2 2.626803 1_565
O7 Sr3 2.686149 1_555
O7 Sr1 2.774477 1_556
O7 Sr0 3.095051 1_556
O8 Ru0 2.106790 1_545
O8 Y1 2.298581 1_455
O8 Sr0 2.333642 1_556
O8 Sr2 2.707185 1_555
O8 Sr3 2.748674 1_555
O9 Ru1 2.109270 1_555
O9 Y0 2.370430 1_565
O9 Sr3 2.454873 1_555
O9 Sr2 2.666367 1_565
O10 Ru0 2.053061 1_554
O10 Y1 2.249805 1_554
O10 Sr0 2.530297 1_555
O10 Sr1 2.675115 1_655
O10 Sr3 3.196722 1_554
O11 Ru1 2.071548 1_655
O11 Y0 2.205766 1_555
