# generated using pymatgen
data_Nb2Pt
_symmetry_space_group_name_H-M   'P 1'
_cell_length_a   5.16402119
_cell_length_b   9.99158456
_cell_length_c   9.99158268
_cell_angle_alpha   90.00012404
_cell_angle_beta   90.00000000
_cell_angle_gamma   90.00000000
_symmetry_Int_Tables_number   1
_chemical_formula_structural   Nb2Pt
_chemical_formula_sum   'Nb20 Pt10'
_cell_volume   515.53323750
_cell_formula_units_Z   10
loop_
 _symmetry_equiv_pos_site_id
 _symmetry_equiv_pos_as_xyz
  1  'x, y, z'
loop_
 _atom_site_type_symbol
 _atom_site_label
 _atom_site_symmetry_multiplicity
 _atom_site_fract_x
 _atom_site_fract_y
 _atom_site_fract_z
 _atom_site_occupancy
  Nb  Nb0  1  0.50000000  0.10744731  0.89252274  1
  Nb  Nb1  1  0.50000000  0.89255080  0.10748097  1
  Nb  Nb2  1  -0.00000000  0.39251978  0.39255335  1
  Nb  Nb3  1  -0.00000000  0.60747837  0.60744767  1
  Nb  Nb4  1  0.50000000  0.37437421  0.96245281  1
  Nb  Nb5  1  0.50000000  0.62563315  0.03755339  1
  Nb  Nb6  1  -0.00000000  0.12560604  0.46246036  1
  Nb  Nb7  1  -0.00000000  0.87438262  0.53753795  1
  Nb  Nb8  1  0.50000000  0.96245882  0.37438765  1
  Nb  Nb9  1  0.50000000  0.03753670  0.62561238  1
  Nb  Nb10  1  -0.00000000  0.46245187  0.12563023  1
  Nb  Nb11  1  -0.00000000  0.53755316  0.87437168  1
  Nb  Nb12  1  0.24717385  0.32133221  0.67864268  1
  Nb  Nb13  1  0.24717240  0.67866897  0.32135713  1
  Nb  Nb14  1  0.74717339  0.17864121  0.17866923  1
  Nb  Nb15  1  0.74717412  0.82135693  0.82133143  1
  Nb  Nb16  1  0.75282660  0.67866897  0.32135713  1
  Nb  Nb17  1  0.75282615  0.32133321  0.67864268  1
  Nb  Nb18  1  0.25282588  0.82135693  0.82133143  1
  Nb  Nb19  1  0.25282661  0.17864221  0.17866923  1
  Pt  Pt0  1  0.50000000  0.49999732  0.49999727  1
  Pt  Pt1  1  -0.00000000  1.00001404  -0.00001086  1
  Pt  Pt2  1  0.50000000  0.43243284  0.23645207  1
  Pt  Pt3  1  0.50000000  0.56756573  0.76355220  1
  Pt  Pt4  1  -0.00000000  0.06756894  0.73644600  1
  Pt  Pt5  1  -0.00000000  0.93243263  0.26355446  1
  Pt  Pt6  1  0.50000000  0.23644205  0.43243236  1
  Pt  Pt7  1  0.50000000  0.76355415  0.56756677  1
  Pt  Pt8  1  -0.00000000  0.73645179  0.06756261  1
  Pt  Pt9  1  -0.00000000  0.26354805  0.93243502  1
loop_
_geom_bond_atom_site_label_1
_geom_bond_atom_site_label_2
_geom_bond_distance
_geom_bond_site_symmetry_2
Nb0 Nb9 2.756818 1_555
Nb0 Nb4 2.757027 1_555
Nb0 Pt1 2.995328 1_546
Nb0 Pt1 2.995328 1_646
Nb0 Nb1 3.036977 1_546
Nb0 Pt4 3.042603 1_555
Nb0 Pt4 3.042603 1_655
Nb0 Pt9 3.042770 1_655
Nb0 Pt9 3.042770 1_555
Nb0 Nb15 3.210325 1_545
Nb0 Nb18 3.210325 1_545
Nb0 Nb14 3.210828 1_556
Nb0 Nb19 3.210830 1_556
Nb0 Nb12 3.292166 1_555
Nb0 Nb17 3.292173 1_555
Nb1 Nb8 2.756776 1_555
Nb1 Nb5 2.756932 1_555
Nb1 Pt1 2.995527 1_655
Nb1 Pt1 2.995527 1_555
Nb1 Pt5 3.042591 1_655
Nb1 Pt5 3.042591 1_555
Nb1 Pt8 3.042769 1_555
Nb1 Pt8 3.042769 1_655
Nb1 Nb14 3.210317 1_565
Nb1 Nb19 3.210326 1_565
Nb1 Nb15 3.210857 1_554
Nb1 Nb18 3.210857 1_554
Nb1 Nb16 3.292122 1_555
Nb1 Nb13 3.292124 1_555
Nb2 Nb6 2.756845 1_555
Nb2 Pt0 2.995405 1_455
Nb2 Pt0 2.995405 1_555
Nb2 Nb3 3.036958 1_555
Nb2 Pt6 3.042610 1_455
Nb2 Pt6 3.042610 1_555
Nb2 Pt2 3.042775 1_555
Nb2 Pt2 3.042775 1_455
Nb3 Nb7 2.756760 1_555
Nb3 Pt0 2.995441 1_455
Nb3 Pt0 2.995441 1_555
Nb3 Pt7 3.042602 1_455
Nb3 Pt7 3.042602 1_555
Nb3 Pt3 3.042791 1_555
Nb3 Pt3 3.042791 1_455
Nb4 Nb5 2.620217 1_556
Nb4 Pt3 2.770473 1_555
Nb4 Pt2 2.798470 1_556
Nb4 Pt9 2.825404 1_555
Nb4 Pt9 2.825404 1_655
Nb5 Pt2 2.770521 1_555
Nb5 Pt3 2.798507 1_554
Nb5 Pt8 2.825366 1_555
Nb5 Pt8 2.825366 1_655
Nb6 Nb7 2.619814 1_545
Nb6 Pt5 2.770379 1_545
Nb6 Pt4 2.798294 1_555
Nb6 Pt6 2.825454 1_455
Nb6 Pt6 2.825454 1_555
Nb6 Nb8 3.177793 1_445
Nb6 Nb8 3.177793 1_545
Nb6 Nb9 3.177811 1_455
Nb6 Nb9 3.177811 1_555
Nb7 Pt4 2.770484 1_565
Nb7 Pt5 2.798300 1_555
Nb7 Pt7 2.825426 1_455
Nb7 Pt7 2.825426 1_555
Nb7 Nb8 3.177821 1_455
Nb7 Nb8 3.177821 1_555
Nb7 Nb9 3.177833 1_465
Nb7 Nb9 3.177833 1_565
Nb8 Nb9 2.619824 1_565
Nb8 Pt7 2.770416 1_555
Nb8 Pt6 2.798285 1_565
Nb8 Pt5 2.825441 1_655
Nb8 Pt5 2.825441 1_555
Nb9 Pt6 2.770427 1_555
Nb9 Pt7 2.798280 1_545
Nb9 Pt4 2.825449 1_555
Nb9 Pt4 2.825449 1_655
Nb10 Nb11 2.620218 1_554
Nb10 Nb2 2.756999 1_555
Nb10 Pt9 2.770516 1_554
Nb10 Pt8 2.798498 1_555
Nb10 Pt2 2.825389 1_455
Nb10 Pt2 2.825389 1_555
Nb10 Nb19 3.166494 1_555
Nb10 Nb14 3.166503 1_455
Nb10 Nb4 3.177962 1_454
Nb10 Nb4 3.177962 1_554
Nb10 Nb5 3.177981 1_455
Nb10 Nb5 3.177981 1_555
Nb10 Nb13 3.181314 1_555
Nb10 Nb16 3.181316 1_455
Nb11 Nb3 2.756990 1_555
Nb11 Pt8 2.770449 1_556
Nb11 Pt9 2.798540 1_555
Nb11 Pt3 2.825373 1_555
Nb11 Pt3 2.825373 1_455
Nb11 Nb18 3.166442 1_555
Nb11 Nb15 3.166442 1_455
Nb11 Nb4 3.177981 1_455
Nb11 Nb4 3.177981 1_555
Nb11 Nb5 3.177990 1_556
Nb11 Nb5 3.177990 1_456
Nb11 Nb17 3.181350 1_455
Nb11 Nb12 3.181356 1_555
Nb12 Nb17 2.552822 1_455
Nb12 Nb17 2.611199 1_555
Nb12 Pt0 2.842077 1_555
Nb12 Pt4 2.896815 1_555
Nb12 Pt9 2.897031 1_555
Nb12 Pt6 2.911315 1_555
Nb12 Pt3 2.911567 1_555
Nb12 Nb9 3.166350 1_555
Nb12 Nb4 3.166500 1_555
Nb12 Nb6 3.181077 1_555
Nb12 Nb2 3.210309 1_555
Nb12 Nb3 3.210832 1_555
Nb13 Nb16 2.552812 1_455
Nb13 Nb16 2.611209 1_555
Nb13 Pt0 2.842089 1_555
Nb13 Pt5 2.896814 1_555
Nb13 Pt8 2.897044 1_555
Nb13 Pt7 2.911298 1_555
Nb13 Pt2 2.911580 1_555
Nb13 Nb8 3.166303 1_555
Nb13 Nb5 3.166435 1_555
Nb13 Nb7 3.180987 1_555
Nb13 Nb3 3.210324 1_555
Nb13 Nb2 3.210858 1_555
Nb14 Nb19 2.552817 1_555
Nb14 Nb19 2.611204 1_655
Nb14 Pt1 2.842053 1_645
Nb14 Pt6 2.896805 1_555
Nb14 Pt2 2.897019 1_555
Nb14 Pt5 2.911290 1_645
Nb14 Pt9 2.911569 1_654
Nb14 Nb6 3.166321 1_655
Nb14 Nb8 3.181035 1_545
Nb14 Nb4 3.181355 1_554
Nb14 Nb2 3.292147 1_655
Nb15 Nb18 2.552825 1_555
Nb15 Nb18 2.611196 1_655
Nb15 Pt1 2.842099 1_656
Nb15 Pt7 2.896824 1_555
Nb15 Pt3 2.897010 1_555
Nb15 Pt4 2.911318 1_665
Nb15 Pt8 2.911537 1_656
Nb15 Nb7 3.166325 1_655
Nb15 Nb9 3.181022 1_565
Nb15 Nb5 3.181337 1_556
Nb15 Nb3 3.292143 1_655
Nb16 Pt0 2.842086 1_555
Nb16 Pt5 2.896816 1_655
Nb16 Pt8 2.897046 1_655
Nb16 Pt7 2.911296 1_555
Nb16 Pt2 2.911578 1_555
Nb16 Nb8 3.166300 1_555
Nb16 Nb5 3.166433 1_555
Nb16 Nb7 3.180989 1_655
Nb16 Nb3 3.210326 1_655
Nb16 Nb2 3.210861 1_655
Nb17 Pt0 2.842071 1_555
Nb17 Pt4 2.896824 1_655
Nb17 Pt9 2.897033 1_655
Nb17 Pt6 2.911318 1_555
Nb17 Pt3 2.911559 1_555
Nb17 Nb9 3.166359 1_555
Nb17 Nb4 3.166498 1_555
Nb17 Nb6 3.181083 1_655
Nb17 Nb2 3.210307 1_655
Nb17 Nb3 3.210823 1_655
Nb18 Pt1 2.842099 1_556
Nb18 Pt7 2.896824 1_555
Nb18 Pt3 2.897010 1_555
Nb18 Pt4 2.911318 1_565
Nb18 Pt8 2.911537 1_556
Nb18 Nb7 3.166325 1_555
Nb18 Nb9 3.181022 1_565
Nb18 Nb5 3.181337 1_556
Nb18 Nb3 3.292143 1_555
Nb19 Pt1 2.842059 1_545
Nb19 Pt6 2.896803 1_555
Nb19 Pt2 2.897010 1_555
Nb19 Pt5 2.911299 1_545
Nb19 Pt9 2.911566 1_554
Nb19 Nb6 3.166323 1_555
Nb19 Nb8 3.181041 1_545
Nb19 Nb4 3.181349 1_554
Nb19 Nb2 3.292140 1_555
Pt0 Pt2 2.718389 1_555
Pt0 Pt6 2.718488 1_555
Pt0 Pt3 2.718493 1_555
Pt0 Pt7 2.718515 1_555
Pt1 Pt9 2.718258 1_564
Pt1 Pt4 2.718348 1_564
Pt1 Pt8 2.718580 1_555
Pt1 Pt5 2.718629 1_555
Pt2 Pt6 2.769324 1_555
Pt3 Pt7 2.769344 1_555
Pt4 Pt9 2.769298 1_555
Pt5 Pt8 2.769330 1_555
