# generated using pymatgen
data_La2ZnBiO6
_symmetry_space_group_name_H-M   'P 1'
_cell_length_a   5.85738180
_cell_length_b   5.85738180
_cell_length_c   5.85738121
_cell_angle_alpha   61.22028490
_cell_angle_beta   61.22028490
_cell_angle_gamma   61.22027690
_symmetry_Int_Tables_number   1
_chemical_formula_structural   La2ZnBiO6
_chemical_formula_sum   'La2 Zn1 Bi1 O6'
_cell_volume   146.00049414
_cell_formula_units_Z   1
loop_
 _symmetry_equiv_pos_site_id
 _symmetry_equiv_pos_as_xyz
  1  'x, y, z'
loop_
 _atom_site_type_symbol
 _atom_site_label
 _atom_site_symmetry_multiplicity
 _atom_site_fract_x
 _atom_site_fract_y
 _atom_site_fract_z
 _atom_site_occupancy
  La  La0  1  0.75029600  0.75029600  0.75029600  1
  La  La1  1  0.24970400  0.24970400  0.24970400  1
  Zn  Zn0  1  0.50000000  0.50000000  0.50000000  1
  Bi  Bi0  1  0.00000000  0.00000000  0.00000000  1
  O  O0  1  0.74371000  0.36364800  0.15173400  1
  O  O1  1  0.15173400  0.74371000  0.36364800  1
  O  O2  1  0.36364800  0.15173400  0.74371000  1
  O  O3  1  0.25629000  0.63635200  0.84826600  1
  O  O4  1  0.63635200  0.84826600  0.25629000  1
  O  O5  1  0.84826600  0.25629000  0.63635200  1
loop_
_geom_bond_atom_site_label_1
_geom_bond_atom_site_label_2
_geom_bond_distance
_geom_bond_site_symmetry_2
La0 O2 2.351314 1_565
La0 O0 2.351314 1_556
La0 O1 2.351314 1_655
La1 O4 2.351314 1_545
La1 O3 2.351314 1_554
La1 O5 2.351314 1_455
Bi0 O1 2.244933 1_545
Bi0 O5 2.244933 1_454
Bi0 O0 2.244933 1_455
Bi0 O3 2.244933 1_544
Bi0 O2 2.244933 1_554
Bi0 O4 2.244933 1_445
O0 Zn0 2.122257 1_555
O1 Zn0 2.122257 1_555
O2 Zn0 2.122257 1_555
O3 Zn0 2.122257 1_555
O4 Zn0 2.122257 1_555
O5 Zn0 2.122257 1_555
