# generated using pymatgen
data_RbAs
_symmetry_space_group_name_H-M   'P 1'
_cell_length_a   6.62238443
_cell_length_b   6.97180645
_cell_length_c   12.15360933
_cell_angle_alpha   90.00000000
_cell_angle_beta   90.00000000
_cell_angle_gamma   90.00000000
_symmetry_Int_Tables_number   1
_chemical_formula_structural   RbAs
_chemical_formula_sum   'Rb8 As8'
_cell_volume   561.13192988
_cell_formula_units_Z   8
loop_
 _symmetry_equiv_pos_site_id
 _symmetry_equiv_pos_as_xyz
  1  'x, y, z'
loop_
 _atom_site_type_symbol
 _atom_site_label
 _atom_site_symmetry_multiplicity
 _atom_site_fract_x
 _atom_site_fract_y
 _atom_site_fract_z
 _atom_site_occupancy
  Rb  Rb0  1  0.09652733  0.11110038  0.41590428  1
  Rb  Rb1  1  0.59652733  0.38889962  0.58409572  1
  Rb  Rb2  1  0.90347267  0.61110038  0.08409572  1
  Rb  Rb3  1  0.40347267  0.88889962  0.91590428  1
  Rb  Rb4  1  0.67004115  0.14815710  0.21512519  1
  Rb  Rb5  1  0.17004115  0.35184290  0.78487481  1
  Rb  Rb6  1  0.32995885  0.64815710  0.28487481  1
  Rb  Rb7  1  0.82995885  0.85184290  0.71512519  1
  As  As0  1  0.17068688  0.18154662  0.10626556  1
  As  As1  1  0.67068688  0.31845338  0.89373444  1
  As  As2  1  0.82931312  0.68154662  0.39373444  1
  As  As3  1  0.32931312  0.81845338  0.60626556  1
  As  As4  1  0.40986481  0.42489797  0.03097193  1
  As  As5  1  0.90986481  0.07510203  0.96902807  1
  As  As6  1  0.59013519  0.92489797  0.46902807  1
  As  As7  1  0.09013519  0.57510203  0.53097193  1
loop_
_geom_bond_atom_site_label_1
_geom_bond_atom_site_label_2
_geom_bond_distance
_geom_bond_site_symmetry_2
As0 As4 2.494928 1_555
As0 As5 2.513198 1_454
As0 Rb3 3.448462 1_544
As0 Rb2 3.488938 1_455
As0 Rb4 3.569357 1_555
As0 Rb4 3.577282 1_455
As0 Rb0 3.826786 1_555
As1 As5 2.494928 1_555
As1 As4 2.513198 1_556
As1 Rb2 3.448462 1_556
As1 Rb3 3.488938 1_545
As1 Rb5 3.569357 1_655
As1 Rb5 3.577282 1_555
As1 Rb1 3.826786 1_555
As2 As6 2.494928 1_555
As2 As7 2.513198 1_655
As2 Rb1 3.448462 1_555
As2 Rb0 3.488938 1_665
As2 Rb6 3.569357 1_555
As2 Rb6 3.577282 1_655
As2 Rb2 3.826786 1_555
As3 As7 2.494928 1_555
As3 As6 2.513198 1_555
As3 Rb0 3.448462 1_565
As3 Rb1 3.488938 1_555
As3 Rb7 3.569357 1_455
As3 Rb7 3.577282 1_555
As3 Rb3 3.826786 1_555
As4 Rb4 3.420588 1_555
As4 Rb5 3.424573 1_554
As4 Rb6 3.496449 1_555
As4 Rb3 3.524532 1_554
As4 Rb2 3.575968 1_555
As4 Rb2 3.653521 1_455
As5 Rb5 3.420588 1_655
As5 Rb4 3.424573 1_556
As5 Rb7 3.496449 1_545
As5 Rb2 3.524532 1_546
As5 Rb3 3.575968 1_645
As5 Rb3 3.653521 1_545
As6 Rb6 3.420588 1_555
As6 Rb7 3.424573 1_555
As6 Rb4 3.496449 1_565
As6 Rb1 3.524532 1_565
As6 Rb0 3.575968 1_565
As6 Rb0 3.653521 1_665
As7 Rb7 3.420588 1_455
As7 Rb6 3.424573 1_555
As7 Rb5 3.496449 1_555
As7 Rb0 3.524532 1_555
As7 Rb1 3.575968 1_455
As7 Rb1 3.653521 1_555
