# generated using pymatgen
data_Li3Mn2CoO6
_symmetry_space_group_name_H-M   'P 1'
_cell_length_a   2.86311167
_cell_length_b   5.09717206
_cell_length_c   16.26143232
_cell_angle_alpha   95.10494553
_cell_angle_beta   90.46468953
_cell_angle_gamma   105.65526957
_symmetry_Int_Tables_number   1
_chemical_formula_structural   Li3Mn2CoO6
_chemical_formula_sum   'Li6 Mn4 Co2 O12'
_cell_volume   227.47777453
_cell_formula_units_Z   2
loop_
 _symmetry_equiv_pos_site_id
 _symmetry_equiv_pos_as_xyz
  1  'x, y, z'
loop_
 _atom_site_type_symbol
 _atom_site_label
 _atom_site_symmetry_multiplicity
 _atom_site_fract_x
 _atom_site_fract_y
 _atom_site_fract_z
 _atom_site_occupancy
  Li  Li0  1  0.25148200  0.50223800  0.24986900  1
  Li  Li1  1  0.74851800  0.49775800  0.75013600  1
  Li  Li2  1  0.74318300  0.48789700  0.07925400  1
  Li  Li3  1  0.24316700  0.49250200  0.57954300  1
  Li  Li4  1  0.75683600  0.50749800  0.42046200  1
  Li  Li5  1  0.25681900  0.51210600  0.92074900  1
  Mn  Mn0  1  0.99189400  0.98791200  0.66397800  1
  Mn  Mn1  1  0.00806900  0.01205800  0.33600500  1
  Mn  Mn2  1  0.49830800  0.99552500  0.16510400  1
  Mn  Mn3  1  0.50169400  0.00446000  0.83489500  1
  Co  Co0  1  0.00000000  0.00000300  0.00000100  1
  Co  Co1  1  0.50000100  0.00000300  0.49999600  1
  O  O0  1  0.15212300  0.23569300  0.46130900  1
  O  O1  1  0.61183000  0.22907200  0.96611100  1
  O  O2  1  0.38817700  0.77093500  0.03389600  1
  O  O3  1  0.84788000  0.76430700  0.53869200  1
  O  O4  1  0.10936500  0.22504900  0.12716900  1
  O  O5  1  0.60315800  0.21805300  0.62556300  1
  O  O6  1  0.39685800  0.78195700  0.37443300  1
  O  O7  1  0.89063600  0.77495700  0.87283800  1
  O  O8  1  0.61974800  0.23756900  0.29611800  1
  O  O9  1  0.11247600  0.23352600  0.79627000  1
  O  O10  1  0.88751400  0.76647700  0.20373300  1
  O  O11  1  0.38026500  0.76244500  0.70387700  1
loop_
_geom_bond_atom_site_label_1
_geom_bond_atom_site_label_2
_geom_bond_distance
_geom_bond_site_symmetry_2
Li0 O10 2.094633 1_455
Li0 O8 2.105398 1_555
Li0 O8 2.131382 1_455
Li0 O10 2.138070 1_555
Li0 O4 2.306036 1_555
Li0 O6 2.336917 1_555
Li1 O9 2.094572 1_655
Li1 O11 2.105514 1_555
Li1 O11 2.131515 1_655
Li1 O9 2.138061 1_555
Li1 O7 2.306087 1_555
Li1 O5 2.337000 1_555
Li2 O4 2.105211 1_655
Li2 O1 2.134497 1_554
Li2 O4 2.142841 1_555
Li2 O2 2.151075 1_555
Li2 O2 2.193002 1_655
Li2 O10 2.332965 1_555
Li3 O3 2.060633 1_555
Li3 O5 2.128679 1_555
Li3 O3 2.153927 1_455
Li3 O5 2.167909 1_455
Li3 O0 2.199514 1_555
Li3 O11 2.309922 1_555
Li4 O0 2.060607 1_555
Li4 O6 2.128756 1_555
Li4 O0 2.153904 1_655
Li4 O6 2.168017 1_655
Li4 O3 2.199461 1_555
Li4 O8 2.310021 1_555
Li5 O7 2.105197 1_455
Li5 O2 2.134559 1_556
Li5 O7 2.142818 1_555
Li5 O1 2.151094 1_555
Li5 O1 2.193009 1_455
Li5 O9 2.332965 1_555
Mn0 O11 1.946491 1_655
Mn0 O5 1.956744 1_565
Mn0 O5 1.967071 1_665
Mn0 O11 1.968062 1_555
Mn0 O3 2.222447 1_555
Mn0 O9 2.364284 1_665
Mn1 O8 1.946486 1_455
Mn1 O6 1.956772 1_545
Mn1 O6 1.966961 1_445
Mn1 O8 1.968175 1_555
Mn1 O0 2.222765 1_555
Mn1 O10 2.363936 1_445
Mn2 O4 1.951858 1_565
Mn2 O10 1.954659 1_555
Mn2 O4 1.962492 1_665
Mn2 O10 1.965268 1_455
Mn2 O2 2.306927 1_555
Mn2 O8 2.338941 1_565
Mn3 O7 1.951820 1_545
Mn3 O9 1.954731 1_555
Mn3 O7 1.962502 1_445
Mn3 O9 1.965253 1_655
Mn3 O1 2.307083 1_555
Mn3 O11 2.338937 1_545
Co0 O1 1.925377 1_454
Co0 O2 1.925415 1_545
Co0 O1 1.939563 1_554
Co0 O2 1.939574 1_445
Co0 O7 2.250203 1_444
Co0 O4 2.250274 1_555
Co1 O0 1.897678 1_555
Co1 O3 1.897761 1_545
Co1 O0 2.065929 1_655
Co1 O3 2.065992 1_445
Co1 O6 2.213770 1_545
Co1 O5 2.213834 1_555
