# generated using pymatgen
data_TbPS
_symmetry_space_group_name_H-M   'P 1'
_cell_length_a   5.34756347
_cell_length_b   5.38631092
_cell_length_c   16.75805173
_cell_angle_alpha   90.00000000
_cell_angle_beta   90.00000000
_cell_angle_gamma   90.00000000
_symmetry_Int_Tables_number   1
_chemical_formula_structural   TbPS
_chemical_formula_sum   'Tb8 P8 S8'
_cell_volume   482.69288099
_cell_formula_units_Z   8
loop_
 _symmetry_equiv_pos_site_id
 _symmetry_equiv_pos_as_xyz
  1  'x, y, z'
loop_
 _atom_site_type_symbol
 _atom_site_label
 _atom_site_symmetry_multiplicity
 _atom_site_fract_x
 _atom_site_fract_y
 _atom_site_fract_z
 _atom_site_occupancy
  Tb  Tb0  1  0.25000000  0.48358938  0.36191375  1
  Tb  Tb1  1  0.25000000  0.98358938  0.13808625  1
  Tb  Tb2  1  0.75000000  0.51641062  0.63808625  1
  Tb  Tb3  1  0.75000000  0.01641062  0.86191375  1
  Tb  Tb4  1  0.25000000  0.01467131  0.64685770  1
  Tb  Tb5  1  0.25000000  0.51467131  0.85314230  1
  Tb  Tb6  1  0.75000000  0.98532869  0.35314230  1
  Tb  Tb7  1  0.75000000  0.48532869  0.14685770  1
  P  P0  1  0.03997521  0.29685893  0.99721969  1
  P  P1  1  0.46002479  0.79685893  0.50278031  1
  P  P2  1  0.53997521  0.70314107  0.00278031  1
  P  P3  1  0.96002479  0.20314107  0.49721969  1
  P  P4  1  0.96002479  0.70314107  0.00278031  1
  P  P5  1  0.53997521  0.20314107  0.49721969  1
  P  P6  1  0.46002479  0.29685893  0.99721969  1
  P  P7  1  0.03997521  0.79685893  0.50278031  1
  S  S0  1  0.25000000  0.48496035  0.18887208  1
  S  S1  1  0.25000000  0.98496035  0.31112792  1
  S  S2  1  0.75000000  0.51503965  0.81112792  1
  S  S3  1  0.75000000  0.01503965  0.68887208  1
  S  S4  1  0.25000000  0.01094592  0.81608547  1
  S  S5  1  0.25000000  0.51094592  0.68391453  1
  S  S6  1  0.75000000  0.98905408  0.18391453  1
  S  S7  1  0.75000000  0.48905408  0.31608547  1
loop_
_geom_bond_atom_site_label_1
_geom_bond_atom_site_label_2
_geom_bond_distance
_geom_bond_site_symmetry_2
P0 P4 2.231681 1_456
P0 P6 2.246242 1_555
P0 Tb5 2.909882 1_555
P0 Tb1 3.111474 1_546
P0 Tb7 3.118230 1_456
P0 Tb3 3.134932 1_455
P1 P5 2.231681 1_565
P1 P7 2.246242 1_555
P1 Tb4 2.909882 1_565
P1 Tb0 3.111474 1_555
P1 Tb6 3.118230 1_555
P1 Tb2 3.134932 1_555
P2 P6 2.231681 1_554
P2 P4 2.246242 1_555
P2 Tb7 2.909882 1_555
P2 Tb3 3.111474 1_564
P2 Tb5 3.118230 1_554
P2 Tb1 3.134932 1_555
P3 P7 2.231681 1_645
P3 P5 2.246242 1_555
P3 Tb6 2.909882 1_545
P3 Tb2 3.111474 1_555
P3 Tb4 3.118230 1_655
P3 Tb0 3.134932 1_655
P4 Tb7 2.909882 1_555
P4 Tb3 3.111474 1_564
P4 Tb5 3.118230 1_654
P4 Tb1 3.134932 1_655
P5 Tb6 2.909882 1_545
P5 Tb2 3.111474 1_555
P5 Tb4 3.118230 1_555
P5 Tb0 3.134932 1_555
P6 Tb5 2.909882 1_555
P6 Tb1 3.111474 1_546
P6 Tb7 3.118230 1_556
P6 Tb3 3.134932 1_555
P7 Tb4 2.909882 1_565
P7 Tb0 3.111474 1_555
P7 Tb6 3.118230 1_455
P7 Tb2 3.134932 1_455
S0 Tb7 2.764930 1_455
S0 Tb7 2.764930 1_555
S0 Tb1 2.817390 1_555
S0 Tb1 2.831473 1_545
S0 Tb0 2.899851 1_555
S1 Tb6 2.764930 1_455
S1 Tb6 2.764930 1_555
S1 Tb0 2.817390 1_565
S1 Tb0 2.831473 1_555
S1 Tb1 2.899851 1_555
S2 Tb5 2.764930 1_555
S2 Tb5 2.764930 1_655
S2 Tb3 2.817390 1_555
S2 Tb3 2.831473 1_565
S2 Tb2 2.899851 1_555
S3 Tb4 2.764930 1_555
S3 Tb4 2.764930 1_655
S3 Tb2 2.817390 1_545
S3 Tb2 2.831473 1_555
S3 Tb3 2.899851 1_555
S4 Tb5 2.744275 1_545
S4 Tb3 2.782047 1_555
S4 Tb3 2.782047 1_455
S4 Tb5 2.783382 1_555
S4 Tb4 2.835999 1_555
S5 Tb4 2.744275 1_555
S5 Tb2 2.782047 1_455
S5 Tb2 2.782047 1_555
S5 Tb4 2.783382 1_565
S5 Tb5 2.835999 1_555
S6 Tb7 2.744275 1_565
S6 Tb1 2.782047 1_555
S6 Tb1 2.782047 1_655
S6 Tb7 2.783382 1_555
S6 Tb6 2.835999 1_555
S7 Tb6 2.744275 1_555
S7 Tb0 2.782047 1_555
S7 Tb0 2.782047 1_655
S7 Tb6 2.783382 1_545
S7 Tb7 2.835999 1_555
