# generated using pymatgen
data_La5Si3
_symmetry_space_group_name_H-M   'P 1'
_cell_length_a   8.99282260
_cell_length_b   8.99282260
_cell_length_c   6.82089600
_cell_angle_alpha   90.00000000
_cell_angle_beta   90.00000000
_cell_angle_gamma   120.00000444
_symmetry_Int_Tables_number   1
_chemical_formula_structural   La5Si3
_chemical_formula_sum   'La10 Si6'
_cell_volume   477.70973631
_cell_formula_units_Z   2
loop_
 _symmetry_equiv_pos_site_id
 _symmetry_equiv_pos_as_xyz
  1  'x, y, z'
loop_
 _atom_site_type_symbol
 _atom_site_label
 _atom_site_symmetry_multiplicity
 _atom_site_fract_x
 _atom_site_fract_y
 _atom_site_fract_z
 _atom_site_occupancy
  La  La0  1  0.66666700  0.33333300  0.50000000  1
  La  La1  1  0.33333300  0.66666700  0.50000000  1
  La  La2  1  0.33333300  0.66666700  0.00000000  1
  La  La3  1  0.66666700  0.33333300  0.00000000  1
  La  La4  1  0.74828000  0.74828000  0.25000000  1
  La  La5  1  0.25172000  0.00000000  0.25000000  1
  La  La6  1  0.00000000  0.25172000  0.25000000  1
  La  La7  1  0.25172000  0.25172000  0.75000000  1
  La  La8  1  0.74828000  0.00000000  0.75000000  1
  La  La9  1  0.00000000  0.74828000  0.75000000  1
  Si  Si0  1  0.39072600  0.39072600  0.25000000  1
  Si  Si1  1  0.60927400  0.00000000  0.25000000  1
  Si  Si2  1  0.00000000  0.60927400  0.25000000  1
  Si  Si3  1  0.60927400  0.60927400  0.75000000  1
  Si  Si4  1  0.39072600  0.00000000  0.75000000  1
  Si  Si5  1  0.00000000  0.39072600  0.75000000  1
loop_
_geom_bond_atom_site_label_1
_geom_bond_atom_site_label_2
_geom_bond_distance
_geom_bond_site_symmetry_2
La0 Si5 3.257709 1_655
La0 Si1 3.257709 1_555
La0 Si4 3.257712 1_555
La0 Si2 3.257712 1_655
La0 Si3 3.257717 1_555
La0 Si0 3.257717 1_555
La1 Si4 3.257709 1_565
La1 Si2 3.257709 1_555
La1 Si5 3.257712 1_555
La1 Si1 3.257712 1_565
La1 Si0 3.257717 1_555
La1 Si3 3.257717 1_555
La2 Si4 3.257709 1_564
La2 Si2 3.257709 1_555
La2 Si5 3.257712 1_554
La2 Si1 3.257712 1_565
La2 Si0 3.257717 1_555
La2 Si3 3.257717 1_554
La3 Si1 3.257709 1_555
La3 Si5 3.257709 1_654
La3 Si2 3.257712 1_655
La3 Si4 3.257712 1_554
La3 Si3 3.257717 1_554
La3 Si0 3.257717 1_555
La4 Si1 3.084895 1_565
La4 Si2 3.084895 1_655
La4 Si0 3.215419 1_555
La4 Si3 3.632327 1_554
La4 Si3 3.632327 1_555
La5 Si2 3.084895 1_545
La5 Si0 3.084895 1_555
La5 Si1 3.215420 1_555
La5 Si4 3.632327 1_555
La5 Si4 3.632327 1_554
La6 Si1 3.084895 1_455
La6 Si0 3.084895 1_555
La6 Si2 3.215420 1_555
La6 Si5 3.632327 1_555
La6 Si5 3.632327 1_554
La7 Si5 3.084895 1_555
La7 Si4 3.084895 1_555
La7 Si3 3.215419 1_555
La7 Si0 3.632327 1_556
La7 Si0 3.632327 1_555
La8 Si5 3.084895 1_655
La8 Si3 3.084895 1_545
La8 Si4 3.215420 1_555
La8 Si1 3.632327 1_556
La8 Si1 3.632327 1_555
La9 Si4 3.084895 1_565
La9 Si3 3.084895 1_455
La9 Si5 3.215420 1_555
La9 Si2 3.632327 1_556
La9 Si2 3.632327 1_555
