# generated using pymatgen
data_RuSN4(ClO)2
_symmetry_space_group_name_H-M   'P 1'
_cell_length_a   5.08953000
_cell_length_b   14.00431500
_cell_length_c   16.46794300
_cell_angle_alpha   90.00000000
_cell_angle_beta   90.00000000
_cell_angle_gamma   90.00000000
_symmetry_Int_Tables_number   1
_chemical_formula_structural   RuSN4(ClO)2
_chemical_formula_sum   'Ru4 S4 N16 Cl8 O8'
_cell_volume   1173.75891691
_cell_formula_units_Z   4
loop_
 _symmetry_equiv_pos_site_id
 _symmetry_equiv_pos_as_xyz
  1  'x, y, z'
loop_
 _atom_site_type_symbol
 _atom_site_label
 _atom_site_symmetry_multiplicity
 _atom_site_fract_x
 _atom_site_fract_y
 _atom_site_fract_z
 _atom_site_occupancy
  Ru  Ru0  1  0.25000000  0.18415000  0.09752500  1
  Ru  Ru1  1  0.25000000  0.31585000  0.59752500  1
  Ru  Ru2  1  0.75000000  0.81585000  0.90247500  1
  Ru  Ru3  1  0.75000000  0.68415000  0.40247500  1
  S  S0  1  0.25000000  0.47597700  0.18650900  1
  S  S1  1  0.25000000  0.02402300  0.68650900  1
  S  S2  1  0.75000000  0.52402300  0.81349100  1
  S  S3  1  0.75000000  0.97597700  0.31349100  1
  N  N0  1  0.47249100  0.29832900  0.04562800  1
  N  N1  1  0.02750900  0.20167100  0.54562800  1
  N  N2  1  0.97249100  0.70167100  0.95437200  1
  N  N3  1  0.52750900  0.79832900  0.45437200  1
  N  N4  1  0.52750900  0.70167100  0.95437200  1
  N  N5  1  0.97249100  0.79832900  0.45437200  1
  N  N6  1  0.02750900  0.29832900  0.04562800  1
  N  N7  1  0.47249100  0.20167100  0.54562800  1
  N  N8  1  0.51974700  0.16039600  0.15711000  1
  N  N9  1  0.98025300  0.33960400  0.65711000  1
  N  N10  1  0.01974700  0.83960400  0.84289000  1
  N  N11  1  0.48025300  0.66039600  0.34289000  1
  N  N12  1  0.48025300  0.83960400  0.84289000  1
  N  N13  1  0.01974700  0.66039600  0.34289000  1
  N  N14  1  0.98025300  0.16039600  0.15711000  1
  N  N15  1  0.51974700  0.33960400  0.65711000  1
  Cl  Cl0  1  0.25000000  0.08157000  0.99189700  1
  Cl  Cl1  1  0.25000000  0.41843000  0.49189700  1
  Cl  Cl2  1  0.75000000  0.91843000  0.00810300  1
  Cl  Cl3  1  0.75000000  0.58157000  0.50810300  1
  Cl  Cl4  1  0.75000000  0.33554700  0.02956000  1
  Cl  Cl5  1  0.75000000  0.16445300  0.52956000  1
  Cl  Cl6  1  0.25000000  0.66445300  0.97044000  1
  Cl  Cl7  1  0.25000000  0.83554700  0.47044000  1
  O  O0  1  0.25000000  0.45361200  0.27230600  1
  O  O1  1  0.25000000  0.04638800  0.77230600  1
  O  O2  1  0.75000000  0.54638800  0.72769400  1
  O  O3  1  0.75000000  0.95361200  0.22769400  1
  O  O4  1  0.25000000  0.57469800  0.16031300  1
  O  O5  1  0.25000000  0.92530200  0.66031300  1
  O  O6  1  0.75000000  0.42530200  0.83968700  1
  O  O7  1  0.75000000  0.07469800  0.33968700  1
loop_
_geom_bond_atom_site_label_1
_geom_bond_atom_site_label_2
_geom_bond_distance
_geom_bond_site_symmetry_2
N0 Ru0 2.137633 1_555
N1 Ru1 2.137633 1_555
N2 Ru2 2.137633 1_555
N3 Ru3 2.137633 1_555
N4 Ru2 2.137633 1_555
N5 Ru3 2.137633 1_555
N6 Ru0 2.137633 1_555
N7 Ru1 2.137633 1_555
N8 Ru0 1.719975 1_555
N9 Ru1 1.719975 1_655
N10 Ru2 1.719975 1_455
N11 Ru3 1.719975 1_555
N12 Ru2 1.719975 1_555
N13 Ru3 1.719975 1_455
N14 Ru0 1.719975 1_655
N15 Ru1 1.719975 1_555
Cl0 Ru0 2.255989 1_556
Cl1 Ru1 2.255989 1_555
Cl2 Ru2 2.255989 1_554
Cl3 Ru3 2.255989 1_555
Cl4 N6 1.528570 1_655
Cl4 N0 1.528570 1_555
Cl5 N1 1.528570 1_655
Cl5 N7 1.528570 1_555
Cl6 N2 1.528570 1_455
Cl6 N4 1.528570 1_555
Cl7 N5 1.528570 1_455
Cl7 N3 1.528570 1_555
O0 S0 1.447199 1_555
O1 S1 1.447199 1_555
O2 S2 1.447199 1_555
O3 S3 1.447199 1_555
O4 S0 1.448262 1_555
O5 S1 1.448262 1_565
O6 S2 1.448262 1_555
O7 S3 1.448262 1_545
