# generated using pymatgen
data_KCo
_symmetry_space_group_name_H-M   'P 1'
_cell_length_a   11.17593700
_cell_length_b   5.85593100
_cell_length_c   3.52094000
_cell_angle_alpha   90.00000000
_cell_angle_beta   90.00000000
_cell_angle_gamma   90.00000000
_symmetry_Int_Tables_number   1
_chemical_formula_structural   KCo
_chemical_formula_sum   'K4 Co4'
_cell_volume   230.42973487
_cell_formula_units_Z   4
loop_
 _symmetry_equiv_pos_site_id
 _symmetry_equiv_pos_as_xyz
  1  'x, y, z'
loop_
 _atom_site_type_symbol
 _atom_site_label
 _atom_site_symmetry_multiplicity
 _atom_site_fract_x
 _atom_site_fract_y
 _atom_site_fract_z
 _atom_site_occupancy
  K  K0  1  0.40386800  0.56234900  0.25000000  1
  K  K1  1  0.09613200  0.43765100  0.75000000  1
  K  K2  1  0.90386800  0.93765100  0.75000000  1
  K  K3  1  0.59613200  0.06234900  0.25000000  1
  Co  Co0  1  0.80373100  0.46003500  0.25000000  1
  Co  Co1  1  0.69626900  0.53996500  0.75000000  1
  Co  Co2  1  0.30373100  0.03996500  0.75000000  1
  Co  Co3  1  0.19626900  0.96003500  0.25000000  1
loop_
_geom_bond_atom_site_label_1
_geom_bond_atom_site_label_2
_geom_bond_distance
_geom_bond_site_symmetry_2
Co0 Co1 2.181906 1_554
Co0 Co1 2.181906 1_555
Co0 K3 3.287299 1_555
Co0 K2 3.489164 1_554
Co0 K2 3.489164 1_555
Co0 K2 3.702627 1_545
Co0 K2 3.702627 1_544
Co0 K1 3.714204 1_654
Co0 K1 3.714204 1_655
Co1 K2 3.287299 1_555
Co1 K3 3.489164 1_556
Co1 K3 3.489164 1_555
Co1 K3 3.702627 1_566
Co1 K3 3.702627 1_565
Co1 K0 3.714204 1_555
Co1 K0 3.714204 1_556
Co2 Co3 2.181906 1_545
Co2 Co3 2.181906 1_546
Co2 K1 3.287299 1_555
Co2 K0 3.489164 1_546
Co2 K0 3.489164 1_545
Co2 K0 3.702627 1_555
Co2 K0 3.702627 1_556
Co2 K3 3.714204 1_556
Co2 K3 3.714204 1_555
Co3 K0 3.287299 1_555
Co3 K1 3.489164 1_564
Co3 K1 3.489164 1_565
Co3 K1 3.702627 1_555
Co3 K1 3.702627 1_554
Co3 K2 3.714204 1_455
Co3 K2 3.714204 1_454
