# generated using pymatgen
data_Rb2Zr(MoO4)3
_symmetry_space_group_name_H-M   'P 1'
_cell_length_a   10.45665705
_cell_length_b   10.45665705
_cell_length_c   10.91855372
_cell_angle_alpha   75.29358755
_cell_angle_beta   75.29358755
_cell_angle_gamma   40.28841366
_symmetry_Int_Tables_number   1
_chemical_formula_structural   Rb2Zr(MoO4)3
_chemical_formula_sum   'Rb4 Zr2 Mo6 O24'
_cell_volume   743.22813316
_cell_formula_units_Z   2
loop_
 _symmetry_equiv_pos_site_id
 _symmetry_equiv_pos_as_xyz
  1  'x, y, z'
loop_
 _atom_site_type_symbol
 _atom_site_label
 _atom_site_symmetry_multiplicity
 _atom_site_fract_x
 _atom_site_fract_y
 _atom_site_fract_z
 _atom_site_occupancy
  Rb  Rb0  1  0.89886200  0.93361500  0.63401000  1
  Rb  Rb1  1  0.93361500  0.89886200  0.13401000  1
  Rb  Rb2  1  0.21520100  0.27488400  0.99798900  1
  Rb  Rb3  1  0.27488400  0.21520100  0.49798900  1
  Zr  Zr0  1  0.58126400  0.57997400  0.56110600  1
  Zr  Zr1  1  0.57997400  0.58126400  0.06110600  1
  Mo  Mo0  1  0.80433500  0.61890600  0.74429100  1
  Mo  Mo1  1  0.61890600  0.80433500  0.24429100  1
  Mo  Mo2  1  0.35424900  0.53980000  0.38406000  1
  Mo  Mo3  1  0.53980000  0.35424900  0.88406000  1
  Mo  Mo4  1  0.96701000  0.19899400  0.30911800  1
  Mo  Mo5  1  0.19899400  0.96701000  0.80911800  1
  O  O0  1  0.60638700  0.87824200  0.71876100  1
  O  O1  1  0.87824200  0.60638700  0.21876100  1
  O  O2  1  0.79065500  0.52270400  0.63357800  1
  O  O3  1  0.52270400  0.79065500  0.13357800  1
  O  O4  1  0.13200100  0.18429500  0.78218800  1
  O  O5  1  0.18429500  0.13200100  0.28218800  1
  O  O6  1  0.77402400  0.55125400  0.91482600  1
  O  O7  1  0.55125400  0.77402400  0.41482600  1
  O  O8  1  0.34925600  0.82960500  0.66771400  1
  O  O9  1  0.82960500  0.34925600  0.16771400  1
  O  O10  1  0.02164200  0.55269600  0.70810000  1
  O  O11  1  0.55269600  0.02164200  0.20810000  1
  O  O12  1  0.98374100  0.03149300  0.83239000  1
  O  O13  1  0.03149300  0.98374100  0.33239000  1
  O  O14  1  0.28086500  0.53721900  0.91811800  1
  O  O15  1  0.53721900  0.28086500  0.41811800  1
  O  O16  1  0.12768800  0.62492800  0.40511000  1
  O  O17  1  0.62492800  0.12768800  0.90511000  1
  O  O18  1  0.81433500  0.33504000  0.45268500  1
  O  O19  1  0.33504000  0.81433500  0.95268500  1
  O  O20  1  0.59682700  0.40394300  0.71650900  1
  O  O21  1  0.40394300  0.59682700  0.21650900  1
  O  O22  1  0.63359200  0.36807300  0.99744700  1
  O  O23  1  0.36807300  0.63359200  0.49744700  1
loop_
_geom_bond_atom_site_label_1
_geom_bond_atom_site_label_2
_geom_bond_distance
_geom_bond_site_symmetry_2
Mo0 O0 1.749786 1_555
Mo0 O10 1.755501 1_655
Mo0 O2 1.848892 1_555
Mo0 O6 1.855142 1_555
Mo1 O1 1.749786 1_555
Mo1 O11 1.755501 1_565
Mo1 O3 1.848892 1_555
Mo1 O7 1.855142 1_555
Mo2 O16 1.751534 1_555
Mo2 O15 1.754090 1_555
Mo2 O21 1.846224 1_555
Mo2 O23 1.854481 1_555
Mo3 O17 1.751534 1_555
Mo3 O14 1.754090 1_555
Mo3 O20 1.846224 1_555
Mo3 O22 1.854481 1_555
Mo4 O13 1.751191 1_645
Mo4 O5 1.754050 1_655
Mo4 O9 1.835043 1_555
Mo4 O18 1.851070 1_555
Mo5 O12 1.751191 1_465
Mo5 O4 1.754050 1_565
Mo5 O8 1.835043 1_555
Mo5 O19 1.851070 1_555
O0 Rb0 3.396678 1_555
O0 Rb3 3.396798 1_565
O1 Rb1 3.396678 1_555
O1 Rb2 3.396798 1_654
O2 Zr0 2.101787 1_555
O2 Rb3 3.455637 1_655
O3 Zr1 2.101787 1_555
O3 Rb2 3.455637 1_564
O4 Rb3 3.136735 1_555
O4 Rb2 3.261493 1_555
O5 Rb2 3.136735 1_554
O5 Rb3 3.261493 1_555
O6 Zr1 2.098642 1_556
O6 Rb2 3.303561 1_655
O7 Zr0 2.098642 1_555
O7 Rb3 3.303561 1_565
O8 Zr0 2.121793 1_555
O8 Rb3 3.528535 1_565
O9 Zr1 2.121793 1_555
O9 Rb2 3.528535 1_654
O10 Rb0 3.042664 1_455
O10 Rb3 3.390969 1_555
O10 Rb2 3.488258 1_555
O11 Rb1 3.042664 1_545
O11 Rb2 3.390969 1_554
O11 Rb3 3.488258 1_555
O12 Rb0 3.164555 1_545
O12 Rb1 3.310178 1_546
O13 Rb1 3.164555 1_455
O13 Rb0 3.310178 1_455
O14 Rb2 3.179886 1_555
O14 Rb1 3.503342 1_456
O15 Rb3 3.179886 1_555
O15 Rb0 3.503342 1_545
O16 Rb3 3.206155 1_555
O16 Rb1 3.310848 1_455
O16 Rb0 3.415746 1_455
O17 Rb2 3.206155 1_555
O17 Rb0 3.310848 1_545
O17 Rb1 3.415746 1_546
O18 Zr0 2.110105 1_555
O19 Zr1 2.110105 1_556
O20 Zr0 2.095501 1_555
O20 Rb0 3.475880 1_545
O21 Zr1 2.095501 1_555
O21 Rb1 3.475880 1_455
O22 Zr1 2.109299 1_556
O22 Rb1 3.363928 1_546
O23 Zr0 2.109299 1_555
O23 Rb0 3.363928 1_455
