# generated using pymatgen
data_Sr2GdCr(CuO4)2
_symmetry_space_group_name_H-M   'P 1'
_cell_length_a   3.85364215
_cell_length_b   3.85364215
_cell_length_c   11.52667000
_cell_angle_alpha   90.00000000
_cell_angle_beta   90.00000000
_cell_angle_gamma   90.16987287
_symmetry_Int_Tables_number   1
_chemical_formula_structural   Sr2GdCr(CuO4)2
_chemical_formula_sum   'Sr2 Gd1 Cr1 Cu2 O8'
_cell_volume   171.17672666
_cell_formula_units_Z   1
loop_
 _symmetry_equiv_pos_site_id
 _symmetry_equiv_pos_as_xyz
  1  'x, y, z'
loop_
 _atom_site_type_symbol
 _atom_site_label
 _atom_site_symmetry_multiplicity
 _atom_site_fract_x
 _atom_site_fract_y
 _atom_site_fract_z
 _atom_site_occupancy
  Sr  Sr0  1  0.50924600  0.49075400  0.66561900  1
  Sr  Sr1  1  0.50924600  0.49075400  0.33438100  1
  Gd  Gd0  1  0.50088700  0.49911300  0.00000000  1
  Cr  Cr0  1  0.01068800  0.98931200  0.50000000  1
  Cu  Cu0  1  0.00201600  0.99798400  0.84358900  1
  Cu  Cu1  1  0.00201600  0.99798400  0.15641100  1
  O  O0  1  0.00055200  0.49780500  0.87312600  1
  O  O1  1  0.50219500  0.99944800  0.87312600  1
  O  O2  1  0.00055200  0.49780500  0.12687400  1
  O  O3  1  0.50219500  0.99944800  0.12687400  1
  O  O4  1  0.00648100  0.99351900  0.66645800  1
  O  O5  1  0.00648100  0.99351900  0.33354200  1
  O  O6  1  0.01325400  0.49058400  0.50000000  1
  O  O7  1  0.50941600  0.98674600  0.50000000  1
loop_
_geom_bond_atom_site_label_1
_geom_bond_atom_site_label_2
_geom_bond_distance
_geom_bond_site_symmetry_2
Gd0 O3 2.417946 1_545
Gd0 O1 2.417946 1_544
Gd0 O0 2.417946 1_654
Gd0 O2 2.417946 1_655
Gd0 O2 2.419979 1_555
Gd0 O3 2.419979 1_555
Gd0 O0 2.419979 1_554
Gd0 O1 2.419979 1_554
Cr0 O4 1.918844 1_555
Cr0 O5 1.918844 1_555
Cr0 O7 1.921974 1_555
Cr0 O6 1.921974 1_555
Cr0 O6 1.931719 1_565
Cr0 O7 1.931719 1_455
Cu0 O1 1.956015 1_455
Cu0 O0 1.956015 1_565
Cu0 O0 1.957340 1_555
Cu0 O1 1.957340 1_555
Cu0 O4 2.041876 1_555
Cu1 O2 1.956015 1_565
Cu1 O3 1.956015 1_455
Cu1 O2 1.957340 1_555
Cu1 O3 1.957340 1_555
Cu1 O5 2.041876 1_555
O0 Sr0 3.050590 1_455
O0 Sr0 3.092724 1_555
O1 Sr0 3.050590 1_565
O1 Sr0 3.092724 1_555
O2 Sr1 3.050590 1_455
O2 Sr1 3.092724 1_555
O3 Sr1 3.050590 1_565
O3 Sr1 3.092724 1_555
O4 Sr0 2.713899 1_465
O4 Sr0 2.720953 1_565
O4 Sr0 2.720953 1_455
O4 Sr0 2.744081 1_555
O5 Sr1 2.713899 1_465
O5 Sr1 2.720953 1_565
O5 Sr1 2.720953 1_455
O5 Sr1 2.744081 1_555
O6 Sr0 2.701438 1_555
O6 Sr1 2.701438 1_555
O6 Sr0 2.723385 1_455
O6 Sr1 2.723385 1_455
O7 Sr0 2.701438 1_555
O7 Sr1 2.701438 1_555
O7 Sr0 2.723385 1_565
O7 Sr1 2.723385 1_565
