# generated using pymatgen
data_MgV6O5F19
_symmetry_space_group_name_H-M   'P 1'
_cell_length_a   5.46796265
_cell_length_b   5.27220002
_cell_length_c   15.46861176
_cell_angle_alpha   89.47839296
_cell_angle_beta   100.03728916
_cell_angle_gamma   91.89542539
_symmetry_Int_Tables_number   1
_chemical_formula_structural   MgV6O5F19
_chemical_formula_sum   'Mg1 V6 O5 F19'
_cell_volume   438.86414317
_cell_formula_units_Z   1
loop_
 _symmetry_equiv_pos_site_id
 _symmetry_equiv_pos_as_xyz
  1  'x, y, z'
loop_
 _atom_site_type_symbol
 _atom_site_label
 _atom_site_symmetry_multiplicity
 _atom_site_fract_x
 _atom_site_fract_y
 _atom_site_fract_z
 _atom_site_occupancy
  Mg  Mg0  1  0.69242100  0.97901400  0.56694200  1
  V  V0  1  0.05133100  0.96223000  0.00614000  1
  V  V1  1  0.12902400  0.47559500  0.32871800  1
  V  V2  1  0.30234700  0.04820500  0.66878300  1
  V  V3  1  0.53815900  0.45362000  0.99486500  1
  V  V4  1  0.65156900  0.99192000  0.32653000  1
  V  V5  1  0.83303300  0.48324900  0.67422200  1
  O  O0  1  0.00850200  0.19249000  0.63727900  1
  O  O1  1  0.54063000  0.27151300  0.64329900  1
  O  O2  1  0.70160700  0.22489700  0.96988000  1
  O  O3  1  0.29559600  0.79493300  0.03085600  1
  O  O4  1  0.88167500  0.27970900  0.30820800  1
  F  F0  1  0.21438100  0.27550800  0.97275200  1
  F  F1  1  0.14242700  0.71331000  0.69056200  1
  F  F2  1  0.02734400  0.10647900  0.10754900  1
  F  F3  1  0.21265600  0.42665700  0.44405800  1
  F  F4  1  0.35936600  0.09764400  0.78294400  1
  F  F5  1  0.13975700  0.59734500  0.22226700  1
  F  F6  1  0.32241500  0.90516900  0.55774000  1
  F  F7  1  0.45200000  0.61527600  0.89371700  1
  F  F8  1  0.36501000  0.22535600  0.31072500  1
  F  F9  1  0.45165600  0.71938000  0.35919900  1
  F  F10  1  0.65216000  0.79627000  0.68880800  1
  F  F11  1  0.53671200  0.40753800  0.10847500  1
  F  F12  1  0.71655900  0.08432800  0.44912200  1
  F  F13  1  0.88889500  0.41237700  0.78683200  1
  F  F14  1  0.60176700  0.91738900  0.21363100  1
  F  F15  1  0.79783500  0.62555500  0.55832700  1
  F  F16  1  0.95105600  0.90387900  0.89275200  1
  F  F17  1  0.80582400  0.70549100  0.02921800  1
  F  F18  1  0.95057100  0.77017300  0.35149700  1
loop_
_geom_bond_atom_site_label_1
_geom_bond_atom_site_label_2
_geom_bond_distance
_geom_bond_site_symmetry_2
Mg0 O0 2.162343 1_665
Mg0 O1 2.218475 1_565
O0 V2 1.788549 1_555
O0 V5 1.975194 1_455
O1 V2 1.818848 1_555
O1 V5 1.912158 1_555
O2 V3 1.613205 1_555
O3 V0 1.613022 1_555
O4 V1 1.661465 1_655
O4 V4 1.988906 1_545
F0 V3 1.953950 1_555
F0 V0 1.958867 1_546
F1 V2 1.996327 1_565
F1 V5 2.029262 1_455
F2 V0 1.776597 1_545
F3 V1 1.781545 1_555
F4 V2 1.759170 1_555
F5 V1 1.771686 1_555
F6 V2 1.904184 1_565
F6 Mg0 2.028203 1_555
F7 V3 1.772486 1_555
F8 V1 1.930692 1_555
F8 V4 2.004534 1_545
F9 V4 1.894822 1_555
F9 V1 2.134842 1_555
F10 V5 1.986226 1_555
F10 Mg0 2.151250 1_555
F10 V2 2.339426 1_565
F11 V3 1.773260 1_554
F12 Mg0 1.925574 1_545
F12 V4 1.931364 1_545
F13 V5 1.754261 1_555
F14 V4 1.765809 1_555
F15 V5 1.917975 1_555
F15 Mg0 1.981162 1_555
F16 V0 1.770614 1_656
F17 V0 1.949298 1_655
F17 V3 1.949612 1_554
F18 V1 1.928314 1_655
F18 V4 2.021647 1_555
