# generated using pymatgen
data_NaV3F7
_symmetry_space_group_name_H-M   'P 1'
_cell_length_a   7.43169583
_cell_length_b   7.43169583
_cell_length_c   7.39309877
_cell_angle_alpha   61.13550851
_cell_angle_beta   61.13550851
_cell_angle_gamma   60.73845835
_symmetry_Int_Tables_number   1
_chemical_formula_structural   NaV3F7
_chemical_formula_sum   'Na2 V6 F14'
_cell_volume   295.24176775
_cell_formula_units_Z   2
loop_
 _symmetry_equiv_pos_site_id
 _symmetry_equiv_pos_as_xyz
  1  'x, y, z'
loop_
 _atom_site_type_symbol
 _atom_site_label
 _atom_site_symmetry_multiplicity
 _atom_site_fract_x
 _atom_site_fract_y
 _atom_site_fract_z
 _atom_site_occupancy
  Na  Na0  1  0.50000000  0.50000000  0.00000000  1
  Na  Na1  1  0.50000000  0.50000000  0.50000000  1
  V  V0  1  0.50000000  0.00000000  0.50000000  1
  V  V1  1  0.00000000  0.50000000  0.00000000  1
  V  V2  1  0.00000000  0.00000000  0.50000000  1
  V  V3  1  0.00000000  0.00000000  0.00000000  1
  V  V4  1  0.00000000  0.50000000  0.50000000  1
  V  V5  1  0.50000000  0.00000000  0.00000000  1
  F  F0  1  0.12353900  0.87646100  0.25000000  1
  F  F1  1  0.87646100  0.12353900  0.75000000  1
  F  F2  1  0.65147700  0.66456400  0.10477400  1
  F  F3  1  0.33543600  0.34852300  0.39522600  1
  F  F4  1  0.34852300  0.33543600  0.89522600  1
  F  F5  1  0.66456400  0.65147700  0.60477400  1
  F  F6  1  0.66212000  0.02267900  0.16477700  1
  F  F7  1  0.97732100  0.33788000  0.33522300  1
  F  F8  1  0.88357100  0.33056200  0.94752000  1
  F  F9  1  0.66943800  0.11642900  0.55248000  1
  F  F10  1  0.11642900  0.66943800  0.05248000  1
  F  F11  1  0.33056200  0.88357100  0.44752000  1
  F  F12  1  0.02267900  0.66212000  0.66477700  1
  F  F13  1  0.33788000  0.97732100  0.83522300  1
loop_
_geom_bond_atom_site_label_1
_geom_bond_atom_site_label_2
_geom_bond_distance
_geom_bond_site_symmetry_2
F0 V3 2.068314 1_565
F0 V2 2.068314 1_565
F1 V2 2.068314 1_655
F1 V3 2.068314 1_656
F2 V5 2.077448 1_565
F2 V1 2.164552 1_655
F2 Na1 2.453716 1_555
F2 Na0 2.542719 1_555
F3 V4 2.077448 1_555
F3 V0 2.164552 1_555
F3 Na0 2.453716 1_555
F3 Na1 2.542719 1_555
F4 V5 2.077448 1_556
F4 V1 2.164552 1_556
F4 Na1 2.453716 1_555
F4 Na0 2.542719 1_556
F5 V4 2.077448 1_655
F5 V0 2.164552 1_565
F5 Na0 2.453716 1_556
F5 Na1 2.542719 1_555
F6 V0 2.129438 1_555
F6 V3 2.156111 1_655
F6 V5 2.185835 1_555
F7 V1 2.129438 1_655
F7 V2 2.156111 1_655
F7 V4 2.185835 1_655
F8 V3 2.064012 1_656
F8 V1 2.084657 1_656
F8 Na0 2.399331 1_556
F9 V2 2.064012 1_655
F9 V0 2.084657 1_555
F9 Na1 2.399331 1_555
F10 V3 2.064012 1_565
F10 V1 2.084657 1_555
F10 Na0 2.399331 1_555
F11 V2 2.064012 1_565
F11 V0 2.084657 1_565
F11 Na1 2.399331 1_555
F12 V1 2.129438 1_556
F12 V2 2.156111 1_565
F12 V4 2.185835 1_555
F13 V0 2.129438 1_565
F13 V3 2.156111 1_566
F13 V5 2.185835 1_566
