# generated using pymatgen
data_Co3O4
_symmetry_space_group_name_H-M   'P 1'
_cell_length_a   5.68925857
_cell_length_b   5.68929319
_cell_length_c   5.68933027
_cell_angle_alpha   60.00005078
_cell_angle_beta   59.99996802
_cell_angle_gamma   59.99957933
_symmetry_Int_Tables_number   1
_chemical_formula_structural   Co3O4
_chemical_formula_sum   'Co6 O8'
_cell_volume   130.21434052
_cell_formula_units_Z   2
loop_
 _symmetry_equiv_pos_site_id
 _symmetry_equiv_pos_as_xyz
  1  'x, y, z'
loop_
 _atom_site_type_symbol
 _atom_site_label
 _atom_site_symmetry_multiplicity
 _atom_site_fract_x
 _atom_site_fract_y
 _atom_site_fract_z
 _atom_site_occupancy
  Co  Co0  1  0.50000008  -0.00000206  0.50000088  1
  Co  Co1  1  -0.00000248  0.50000185  0.50000021  1
  Co  Co2  1  0.50000020  0.49999800  0.00000166  1
  Co  Co3  1  0.50000016  0.49999795  0.50000010  1
  Co  Co4  1  0.12502789  0.12501989  0.12497272  1
  Co  Co5  1  0.87498812  0.87500117  0.87500857  1
  O  O0  1  0.73694323  0.73694607  0.73694738  1
  O  O1  1  0.26304946  0.26305027  0.71084299  1
  O  O2  1  0.26304724  0.71084215  0.26305423  1
  O  O3  1  0.71084929  0.26304177  0.26305412  1
  O  O4  1  0.73694554  0.28916363  0.73694642  1
  O  O5  1  0.28916224  0.73694312  0.73694761  1
  O  O6  1  0.26304768  0.26305023  0.26305509  1
  O  O7  1  0.73694137  0.73694596  0.28916704  1
loop_
_geom_bond_atom_site_label_1
_geom_bond_atom_site_label_2
_geom_bond_distance
_geom_bond_site_symmetry_2
Co0 O7 1.912189 1_545
Co0 O0 1.912201 1_545
Co0 O3 1.912217 1_555
Co0 O5 1.912220 1_545
Co0 O1 1.912222 1_555
Co0 O6 1.912233 1_555
Co1 O7 1.912199 1_455
Co1 O2 1.912206 1_555
Co1 O4 1.912207 1_455
Co1 O0 1.912211 1_455
Co1 O1 1.912218 1_555
Co1 O6 1.912229 1_555
Co2 O4 1.912208 1_554
Co2 O5 1.912214 1_554
Co2 O0 1.912214 1_554
Co2 O2 1.912234 1_555
Co2 O6 1.912249 1_555
Co2 O3 1.912250 1_555
Co3 O7 1.912206 1_555
Co3 O4 1.912212 1_555
Co3 O5 1.912219 1_555
Co3 O2 1.912238 1_555
Co3 O1 1.912240 1_555
Co3 O3 1.912254 1_555
Co4 O1 1.923767 1_554
Co4 O6 1.923767 1_555
Co4 O3 1.923961 1_455
Co4 O2 1.923970 1_545
Co5 O4 1.923899 1_565
Co5 O0 1.923900 1_555
Co5 O7 1.923900 1_556
Co5 O5 1.923940 1_655
