# generated using pymatgen
data_Er2Mg
_symmetry_space_group_name_H-M   'P 1'
_cell_length_a   7.15373120
_cell_length_b   7.15373115
_cell_length_c   14.18137878
_cell_angle_alpha   104.60908223
_cell_angle_beta   104.60907595
_cell_angle_gamma   90.00001084
_symmetry_Int_Tables_number   1
_chemical_formula_structural   Er2Mg
_chemical_formula_sum   'Er16 Mg8'
_cell_volume   678.00507800
_cell_formula_units_Z   8
loop_
 _symmetry_equiv_pos_site_id
 _symmetry_equiv_pos_as_xyz
  1  'x, y, z'
loop_
 _atom_site_type_symbol
 _atom_site_label
 _atom_site_symmetry_multiplicity
 _atom_site_fract_x
 _atom_site_fract_y
 _atom_site_fract_z
 _atom_site_occupancy
  Er  Er0_0  1  0.33030136  0.33030136  0.16060321  1
  Er  Er0_1  1  0.33030136  0.33030136  0.66060321  1
  Er  Er0_2  1  0.33030136  0.83030136  0.16060321  1
  Er  Er0_3  1  0.33030136  0.83030136  0.66060321  1
  Er  Er0_4  1  0.83030135  0.33030136  0.16060321  1
  Er  Er0_5  1  0.83030136  0.33030136  0.66060321  1
  Er  Er0_6  1  0.83030135  0.83030136  0.16060321  1
  Er  Er0_7  1  0.83030135  0.83030136  0.66060321  1
  Er  Er1_0  1  0.16969864  0.16969865  0.33939679  1
  Er  Er1_1  1  0.16969864  0.16969865  0.83939679  1
  Er  Er1_2  1  0.16969865  0.66969865  0.33939679  1
  Er  Er1_3  1  0.16969865  0.66969864  0.83939679  1
  Er  Er1_4  1  0.66969864  0.16969865  0.33939679  1
  Er  Er1_5  1  0.66969864  0.16969865  0.83939679  1
  Er  Er1_6  1  0.66969864  0.66969865  0.33939679  1
  Er  Er1_7  1  0.66969864  0.66969865  0.83939679  1
  Mg  Mg0_0  1  0.00000000  0.00000000  0.00000000  1
  Mg  Mg0_1  1  0.00000000  0.00000000  0.50000000  1
  Mg  Mg0_2  1  0.00000000  0.50000000  0.00000000  1
  Mg  Mg0_3  1  0.00000000  0.50000000  0.50000000  1
  Mg  Mg0_4  1  0.50000000  0.00000000  0.00000000  1
  Mg  Mg0_5  1  0.50000000  0.00000000  0.50000000  1
  Mg  Mg0_6  1  0.50000000  0.50000000  0.00000000  1
  Mg  Mg0_7  1  0.50000000  0.50000000  0.50000000  1
loop_
_geom_bond_atom_site_label_1
_geom_bond_atom_site_label_2
_geom_bond_distance
_geom_bond_site_symmetry_2
Er0_0 Mg0_0 3.305195 1_555
Er0_0 Mg0_4 3.305198 1_555
Er0_0 Mg0_2 3.305198 1_555
Er0_0 Mg0_6 3.305200 1_555
Er0_0 Er1_0 3.465248 1_555
Er0_0 Er1_2 3.465252 1_555
Er0_0 Er1_4 3.465252 1_555
Er0_0 Er1_6 3.465255 1_555
Er0_0 Er0_2 3.576866 1_545
Er0_0 Er0_2 3.576866 1_555
Er0_0 Er0_4 3.576866 1_555
Er0_0 Er0_4 3.576866 1_455
Er0_1 Mg0_1 3.305195 1_555
Er0_1 Mg0_5 3.305198 1_555
Er0_1 Mg0_3 3.305198 1_555
Er0_1 Mg0_7 3.305200 1_555
Er0_1 Er1_1 3.465248 1_555
Er0_1 Er1_3 3.465252 1_555
Er0_1 Er1_5 3.465252 1_555
Er0_1 Er1_7 3.465255 1_555
Er0_1 Er0_3 3.576866 1_555
Er0_1 Er0_3 3.576866 1_545
Er0_1 Er0_5 3.576866 1_555
Er0_1 Er0_5 3.576866 1_455
Er0_2 Mg0_2 3.305195 1_555
Er0_2 Mg0_6 3.305198 1_555
Er0_2 Mg0_0 3.305198 1_565
Er0_2 Mg0_4 3.305200 1_565
Er0_2 Er1_2 3.465248 1_555
Er0_2 Er1_0 3.465252 1_565
Er0_2 Er1_6 3.465252 1_555
Er0_2 Er1_4 3.465255 1_565
Er0_2 Er0_6 3.576866 1_555
Er0_2 Er0_6 3.576866 1_455
Er0_3 Mg0_3 3.305195 1_555
Er0_3 Mg0_7 3.305198 1_555
Er0_3 Mg0_1 3.305198 1_565
Er0_3 Mg0_5 3.305200 1_565
Er0_3 Er1_3 3.465248 1_555
Er0_3 Er1_1 3.465252 1_565
Er0_3 Er1_7 3.465252 1_555
Er0_3 Er1_5 3.465255 1_565
Er0_3 Er0_7 3.576866 1_555
Er0_3 Er0_7 3.576866 1_455
Er0_4 Mg0_4 3.305195 1_555
Er0_4 Mg0_0 3.305198 1_655
Er0_4 Mg0_6 3.305198 1_555
Er0_4 Mg0_2 3.305200 1_655
Er0_4 Er1_4 3.465248 1_555
Er0_4 Er1_6 3.465252 1_555
Er0_4 Er1_0 3.465252 1_655
Er0_4 Er1_2 3.465255 1_655
Er0_4 Er0_6 3.576866 1_555
Er0_4 Er0_6 3.576866 1_545
Er0_5 Mg0_5 3.305195 1_555
Er0_5 Mg0_1 3.305198 1_655
Er0_5 Mg0_7 3.305198 1_555
Er0_5 Mg0_3 3.305200 1_655
Er0_5 Er1_5 3.465248 1_555
Er0_5 Er1_7 3.465252 1_555
Er0_5 Er1_1 3.465252 1_655
Er0_5 Er1_3 3.465255 1_655
Er0_5 Er0_7 3.576866 1_545
Er0_5 Er0_7 3.576866 1_555
Er0_6 Mg0_6 3.305195 1_555
Er0_6 Mg0_2 3.305198 1_655
Er0_6 Mg0_4 3.305198 1_565
Er0_6 Mg0_0 3.305200 1_665
Er0_6 Er1_6 3.465248 1_555
Er0_6 Er1_4 3.465252 1_565
Er0_6 Er1_2 3.465252 1_655
Er0_6 Er1_0 3.465255 1_665
Er0_7 Mg0_7 3.305195 1_555
Er0_7 Mg0_3 3.305198 1_655
Er0_7 Mg0_5 3.305198 1_565
Er0_7 Mg0_1 3.305200 1_665
Er0_7 Er1_7 3.465248 1_555
Er0_7 Er1_5 3.465252 1_565
Er0_7 Er1_3 3.465252 1_655
Er0_7 Er1_1 3.465255 1_665
Er1_0 Mg0_7 3.305195 1_555
Er1_0 Mg0_3 3.305198 1_555
Er1_0 Mg0_5 3.305198 1_555
Er1_0 Mg0_1 3.305200 1_555
Er1_0 Er1_2 3.576866 1_545
Er1_0 Er1_2 3.576866 1_555
Er1_0 Er1_4 3.576866 1_455
Er1_0 Er1_4 3.576866 1_555
Er1_1 Mg0_6 3.305195 1_556
Er1_1 Mg0_2 3.305198 1_556
Er1_1 Mg0_4 3.305198 1_556
Er1_1 Mg0_0 3.305200 1_556
Er1_1 Er1_3 3.576866 1_545
Er1_1 Er1_3 3.576866 1_555
Er1_1 Er1_5 3.576866 1_555
Er1_1 Er1_5 3.576866 1_455
Er1_2 Mg0_5 3.305195 1_565
Er1_2 Mg0_1 3.305198 1_565
Er1_2 Mg0_7 3.305198 1_555
Er1_2 Mg0_3 3.305200 1_555
Er1_2 Er1_6 3.576866 1_455
Er1_2 Er1_6 3.576866 1_555
Er1_3 Mg0_4 3.305195 1_566
Er1_3 Mg0_0 3.305198 1_566
Er1_3 Mg0_6 3.305198 1_556
Er1_3 Mg0_2 3.305200 1_556
Er1_3 Er1_7 3.576866 1_455
Er1_3 Er1_7 3.576866 1_555
Er1_4 Mg0_3 3.305195 1_655
Er1_4 Mg0_7 3.305198 1_555
Er1_4 Mg0_1 3.305198 1_655
Er1_4 Mg0_5 3.305200 1_555
Er1_4 Er1_6 3.576866 1_545
Er1_4 Er1_6 3.576866 1_555
Er1_5 Mg0_2 3.305195 1_656
Er1_5 Mg0_6 3.305198 1_556
Er1_5 Mg0_0 3.305198 1_656
Er1_5 Mg0_4 3.305200 1_556
Er1_5 Er1_7 3.576866 1_545
Er1_5 Er1_7 3.576866 1_555
Er1_6 Mg0_1 3.305195 1_665
Er1_6 Mg0_5 3.305198 1_565
Er1_6 Mg0_3 3.305198 1_655
Er1_6 Mg0_7 3.305200 1_555
Er1_7 Mg0_0 3.305195 1_666
Er1_7 Mg0_4 3.305198 1_566
Er1_7 Mg0_2 3.305198 1_656
Er1_7 Mg0_6 3.305200 1_556
