# generated using pymatgen
data_RbTl(FeSe)8
_symmetry_space_group_name_H-M   'P 1'
_cell_length_a   16.26357344
_cell_length_b   16.26357344
_cell_length_c   16.26357344
_cell_angle_alpha   161.85167029
_cell_angle_beta   161.85167029
_cell_angle_gamma   25.77525339
_symmetry_Int_Tables_number   1
_chemical_formula_structural   RbTl(FeSe)8
_chemical_formula_sum   'Rb1 Tl1 Fe8 Se8'
_cell_volume   417.21662152
_cell_formula_units_Z   1
loop_
 _symmetry_equiv_pos_site_id
 _symmetry_equiv_pos_as_xyz
  1  'x, y, z'
loop_
 _atom_site_type_symbol
 _atom_site_label
 _atom_site_symmetry_multiplicity
 _atom_site_fract_x
 _atom_site_fract_y
 _atom_site_fract_z
 _atom_site_occupancy
  Rb  Rb0  1  0.25000000  0.75000000  0.50000000  1
  Tl  Tl0  1  0.00000000  0.00000000  0.00000000  1
  Fe  Fe0  1  0.87374700  0.87376700  0.50042300  1
  Fe  Fe1  1  0.12623300  0.62665600  0.99998000  1
  Fe  Fe2  1  0.62667600  0.12625300  0.00002000  1
  Fe  Fe3  1  0.37334400  0.37332400  0.49957700  1
  Fe  Fe4  1  0.37334400  0.87376700  0.00002000  1
  Fe  Fe5  1  0.62667600  0.62665600  0.50042300  1
  Fe  Fe6  1  0.12623300  0.12625300  0.49957700  1
  Fe  Fe7  1  0.87374700  0.37332400  0.99998000  1
  Se  Se0  1  0.57183600  0.07183600  0.50000000  1
  Se  Se1  1  0.82477200  0.82477200  0.00000000  1
  Se  Se2  1  0.32506900  0.32506900  0.00000000  1
  Se  Se3  1  0.07160200  0.57160200  0.50000000  1
  Se  Se4  1  0.67493100  0.67493100  0.00000000  1
  Se  Se5  1  0.92816400  0.42816400  0.50000000  1
  Se  Se6  1  0.42839800  0.92839800  0.50000000  1
  Se  Se7  1  0.17522800  0.17522800  0.00000000  1
loop_
_geom_bond_atom_site_label_1
_geom_bond_atom_site_label_2
_geom_bond_distance
_geom_bond_site_symmetry_2
Rb0 Se1 3.492855 1_556
Rb0 Se1 3.492855 1_455
Rb0 Se7 3.492855 1_566
Rb0 Se7 3.492855 1_555
Rb0 Se2 3.499254 1_555
Rb0 Se4 3.499254 1_556
Rb0 Se2 3.499254 1_566
Rb0 Se4 3.499254 1_455
Fe0 Se4 2.439220 1_555
Fe0 Se7 2.443244 1_666
Fe0 Se0 2.444903 1_565
Fe0 Se3 2.449992 1_655
Fe1 Se2 2.439220 1_556
Fe1 Se1 2.443244 1_456
Fe1 Se5 2.444903 1_455
Fe1 Se6 2.449992 1_556
Fe2 Se2 2.439220 1_555
Fe2 Se1 2.443244 1_545
Fe2 Se5 2.444903 1_555
Fe2 Se6 2.449992 1_544
Fe3 Se4 2.439220 1_556
Fe3 Se7 2.443244 1_555
Fe3 Se0 2.444903 1_555
Fe3 Se3 2.449992 1_555
Fe4 Se4 2.439220 1_555
Fe4 Se7 2.443244 1_565
Fe4 Se0 2.444903 1_565
Fe4 Se3 2.449992 1_554
Fe5 Se2 2.439220 1_555
Fe5 Se1 2.443244 1_556
Fe5 Se5 2.444903 1_555
Fe5 Se6 2.449992 1_555
Fe6 Se2 2.439220 1_556
Fe6 Se1 2.443244 1_445
Fe6 Se5 2.444903 1_455
Fe6 Se6 2.449992 1_545
Fe7 Se4 2.439220 1_556
Fe7 Se7 2.443244 1_656
Fe7 Se0 2.444903 1_555
Fe7 Se3 2.449992 1_656
Se0 Tl0 3.430347 1_656
Se0 Tl0 3.430347 1_555
Se3 Tl0 3.425425 1_555
Se3 Tl0 3.425425 1_566
Se5 Tl0 3.430347 1_655
Se5 Tl0 3.430347 1_666
Se6 Tl0 3.425425 1_666
Se6 Tl0 3.425425 1_565
