# generated using pymatgen
data_SrCaHfTiO6
_symmetry_space_group_name_H-M   'P 1'
_cell_length_a   5.68306360
_cell_length_b   5.68306360
_cell_length_c   5.68306360
_cell_angle_alpha   60.00000000
_cell_angle_beta   60.00000000
_cell_angle_gamma   60.00000000
_symmetry_Int_Tables_number   1
_chemical_formula_structural   SrCaHfTiO6
_chemical_formula_sum   'Sr1 Ca1 Hf1 Ti1 O6'
_cell_volume   129.78740565
_cell_formula_units_Z   1
loop_
 _symmetry_equiv_pos_site_id
 _symmetry_equiv_pos_as_xyz
  1  'x, y, z'
loop_
 _atom_site_type_symbol
 _atom_site_label
 _atom_site_symmetry_multiplicity
 _atom_site_fract_x
 _atom_site_fract_y
 _atom_site_fract_z
 _atom_site_occupancy
  Sr  Sr0  1  0.75000000  0.75000000  0.75000000  1
  Ca  Ca0  1  0.25000000  0.25000000  0.25000000  1
  Hf  Hf0  1  0.00000000  0.00000000  0.00000000  1
  Ti  Ti0  1  0.50000000  0.50000000  0.50000000  1
  O  O0  1  0.74387406  0.25612594  0.25612594  1
  O  O1  1  0.25612594  0.74387406  0.74387406  1
  O  O2  1  0.74387406  0.25612594  0.74387406  1
  O  O3  1  0.25612594  0.74387406  0.25612594  1
  O  O4  1  0.74387406  0.74387406  0.25612594  1
  O  O5  1  0.25612594  0.25612594  0.74387406  1
loop_
_geom_bond_atom_site_label_1
_geom_bond_atom_site_label_2
_geom_bond_distance
_geom_bond_site_symmetry_2
Ca0 O4 2.841958 1_455
Ca0 O5 2.841958 1_555
Ca0 O5 2.841958 1_554
Ca0 O4 2.841958 1_545
Ca0 O2 2.841958 1_554
Ca0 O3 2.841958 1_555
Ca0 O1 2.841958 1_545
Ca0 O0 2.841958 1_555
Ca0 O0 2.841958 1_455
Ca0 O1 2.841958 1_554
Ca0 O2 2.841958 1_455
Ca0 O3 2.841958 1_545
Hf0 O3 2.058501 1_545
Hf0 O2 2.058501 1_454
Hf0 O4 2.058501 1_445
Hf0 O5 2.058501 1_554
Hf0 O1 2.058501 1_544
Hf0 O0 2.058501 1_455
O0 Ti0 1.960032 1_555
O0 Sr0 2.841958 1_554
O0 Sr0 2.841958 1_545
O1 Ti0 1.960032 1_555
O1 Sr0 2.841958 1_455
O1 Sr0 2.841958 1_555
O2 Ti0 1.960032 1_555
O2 Sr0 2.841958 1_555
O2 Sr0 2.841958 1_545
O3 Ti0 1.960032 1_555
O3 Sr0 2.841958 1_455
O3 Sr0 2.841958 1_554
O4 Ti0 1.960032 1_555
O4 Sr0 2.841958 1_555
O4 Sr0 2.841958 1_554
O5 Ti0 1.960032 1_555
O5 Sr0 2.841958 1_545
O5 Sr0 2.841958 1_455
