# generated using pymatgen
data_Ca2Cr9O13
_symmetry_space_group_name_H-M   'P 1'
_cell_length_a   3.12156900
_cell_length_b   5.37201436
_cell_length_c   16.62701267
_cell_angle_alpha   81.38765892
_cell_angle_beta   85.24933304
_cell_angle_gamma   75.74084460
_symmetry_Int_Tables_number   1
_chemical_formula_structural   Ca2Cr9O13
_chemical_formula_sum   'Ca2 Cr9 O13'
_cell_volume   266.87601544
_cell_formula_units_Z   1
loop_
 _symmetry_equiv_pos_site_id
 _symmetry_equiv_pos_as_xyz
  1  'x, y, z'
loop_
 _atom_site_type_symbol
 _atom_site_label
 _atom_site_symmetry_multiplicity
 _atom_site_fract_x
 _atom_site_fract_y
 _atom_site_fract_z
 _atom_site_occupancy
  Ca  Ca0  1  0.75157100  0.23362600  0.23032400  1
  Ca  Ca1  1  0.24842900  0.76637400  0.76967600  1
  Cr  Cr0  1  0.50000000  0.50000000  0.50000000  1
  Cr  Cr1  1  0.35255700  0.25777300  0.03955300  1
  Cr  Cr2  1  0.64744300  0.74222700  0.96044700  1
  Cr  Cr3  1  0.24733300  0.09492900  0.42076500  1
  Cr  Cr4  1  0.75266700  0.90507100  0.57923500  1
  Cr  Cr5  1  0.04581600  0.77180700  0.12223800  1
  Cr  Cr6  1  0.95418400  0.22819300  0.87776200  1
  Cr  Cr7  1  0.99426100  0.67663800  0.33808200  1
  Cr  Cr8  1  0.00573900  0.32336200  0.66191800  1
  O  O0  1  0.00000000  0.00000000  0.00000000  1
  O  O1  1  0.10232800  0.55690800  0.22990900  1
  O  O2  1  0.89767200  0.44309200  0.77009100  1
  O  O3  1  0.66060700  0.54676800  0.07936000  1
  O  O4  1  0.33939300  0.45323200  0.92064000  1
  O  O5  1  0.42023500  0.01392000  0.14446700  1
  O  O6  1  0.57976500  0.98608000  0.85553300  1
  O  O7  1  0.38423500  0.93572000  0.31637000  1
  O  O8  1  0.61576500  0.06428000  0.68363000  1
  O  O9  1  0.56365200  0.41467800  0.37931700  1
  O  O10  1  0.43634800  0.58532200  0.62068300  1
  O  O11  1  0.94881200  0.79076100  0.46065400  1
  O  O12  1  0.05118800  0.20923900  0.53934600  1
loop_
_geom_bond_atom_site_label_1
_geom_bond_atom_site_label_2
_geom_bond_distance
_geom_bond_site_symmetry_2
Ca0 O1 2.268655 1_655
Ca0 O1 2.321276 1_555
Ca0 O5 2.418924 1_555
Ca0 O7 2.422677 1_545
Ca0 O5 2.566151 1_655
Ca0 O7 2.594917 1_645
Ca0 O9 2.761703 1_555
Ca0 O3 2.798049 1_555
Ca1 O2 2.268655 1_455
Ca1 O2 2.321276 1_555
Ca1 O6 2.418924 1_555
Ca1 O8 2.422677 1_565
Ca1 O6 2.566151 1_455
Ca1 O8 2.594917 1_465
Ca1 O10 2.761703 1_555
Ca1 O4 2.798049 1_555
Cr0 O11 2.093947 1_455
Cr0 O12 2.093947 1_655
Cr0 O10 2.107261 1_555
Cr0 O9 2.107261 1_555
Cr0 O11 2.334670 1_555
Cr0 O12 2.334670 1_555
Cr1 O5 2.010959 1_555
Cr1 O4 2.093761 1_554
Cr1 O0 2.169008 1_555
Cr1 O3 2.218454 1_555
Cr1 O0 2.260218 1_655
Cr1 O3 2.435733 1_455
Cr2 O6 2.010959 1_555
Cr2 O3 2.093761 1_556
Cr2 O0 2.169008 1_666
Cr2 O4 2.218454 1_555
Cr2 O0 2.260218 1_566
Cr2 O4 2.435733 1_655
Cr3 O7 2.017112 1_545
Cr3 O11 2.073960 1_445
Cr3 O12 2.148675 1_555
Cr3 O9 2.183727 1_555
Cr3 O11 2.461318 1_545
Cr3 O9 2.462373 1_455
Cr4 O8 2.017112 1_565
Cr4 O12 2.073960 1_665
Cr4 O11 2.148675 1_555
Cr4 O10 2.183727 1_555
Cr4 O12 2.461318 1_565
Cr4 O10 2.462373 1_655
Cr5 O1 1.975309 1_555
Cr5 O5 2.039281 1_565
Cr5 O5 2.101166 1_465
Cr5 O3 2.128819 1_455
Cr5 O3 2.131044 1_555
Cr5 O0 2.206724 1_565
Cr6 O2 1.975309 1_555
Cr6 O6 2.039281 1_545
Cr6 O6 2.101166 1_645
Cr6 O4 2.128819 1_655
Cr6 O4 2.131044 1_555
Cr6 O0 2.206724 1_656
Cr7 O1 1.975226 1_655
Cr7 O7 2.039769 1_655
Cr7 O9 2.071301 1_655
Cr7 O7 2.085986 1_555
Cr7 O9 2.178865 1_555
Cr7 O11 2.198390 1_555
Cr8 O2 1.975226 1_455
Cr8 O8 2.039769 1_455
Cr8 O10 2.071301 1_455
Cr8 O8 2.085986 1_555
Cr8 O10 2.178865 1_555
Cr8 O12 2.198390 1_555
