# generated using pymatgen
data_Th3In13Ni4
_symmetry_space_group_name_H-M   'P 1'
_cell_length_a   9.65744300
_cell_length_b   9.65744300
_cell_length_c   9.65744300
_cell_angle_alpha   90.00000000
_cell_angle_beta   90.00000000
_cell_angle_gamma   90.00000000
_symmetry_Int_Tables_number   1
_chemical_formula_structural   Th3In13Ni4
_chemical_formula_sum   'Th6 In26 Ni8'
_cell_volume   900.71306149
_cell_formula_units_Z   2
loop_
 _symmetry_equiv_pos_site_id
 _symmetry_equiv_pos_as_xyz
  1  'x, y, z'
loop_
 _atom_site_type_symbol
 _atom_site_label
 _atom_site_symmetry_multiplicity
 _atom_site_fract_x
 _atom_site_fract_y
 _atom_site_fract_z
 _atom_site_occupancy
  Th  Th0  1  0.25000000  0.00000000  0.50000000  1
  Th  Th1  1  0.75000000  0.00000000  0.50000000  1
  Th  Th2  1  0.50000000  0.25000000  0.00000000  1
  Th  Th3  1  0.50000000  0.75000000  0.00000000  1
  Th  Th4  1  0.00000000  0.50000000  0.25000000  1
  Th  Th5  1  0.00000000  0.50000000  0.75000000  1
  In  In0  1  0.00000000  0.00000000  0.00000000  1
  In  In1  1  0.50000000  0.50000000  0.50000000  1
  In  In2  1  0.00000000  0.15546300  0.30450500  1
  In  In3  1  0.00000000  0.84453700  0.69549500  1
  In  In4  1  0.00000000  0.84453700  0.30450500  1
  In  In5  1  0.00000000  0.15546300  0.69549500  1
  In  In6  1  0.30450500  0.00000000  0.15546300  1
  In  In7  1  0.65546300  0.50000000  0.19549500  1
  In  In8  1  0.69549500  0.00000000  0.84453700  1
  In  In9  1  0.34453700  0.50000000  0.80450500  1
  In  In10  1  0.30450500  0.00000000  0.84453700  1
  In  In11  1  0.34453700  0.50000000  0.19549500  1
  In  In12  1  0.69549500  0.00000000  0.15546300  1
  In  In13  1  0.65546300  0.50000000  0.80450500  1
  In  In14  1  0.15546300  0.30450500  0.00000000  1
  In  In15  1  0.50000000  0.80450500  0.34453700  1
  In  In16  1  0.84453700  0.69549500  0.00000000  1
  In  In17  1  0.50000000  0.19549500  0.65546300  1
  In  In18  1  0.15546300  0.69549500  0.00000000  1
  In  In19  1  0.50000000  0.19549500  0.34453700  1
  In  In20  1  0.84453700  0.30450500  0.00000000  1
  In  In21  1  0.50000000  0.80450500  0.65546300  1
  In  In22  1  0.19549500  0.65546300  0.50000000  1
  In  In23  1  0.80450500  0.34453700  0.50000000  1
  In  In24  1  0.19549500  0.34453700  0.50000000  1
  In  In25  1  0.80450500  0.65546300  0.50000000  1
  Ni  Ni0  1  0.25000000  0.25000000  0.25000000  1
  Ni  Ni1  1  0.75000000  0.75000000  0.75000000  1
  Ni  Ni2  1  0.75000000  0.75000000  0.25000000  1
  Ni  Ni3  1  0.75000000  0.25000000  0.75000000  1
  Ni  Ni4  1  0.25000000  0.25000000  0.75000000  1
  Ni  Ni5  1  0.25000000  0.75000000  0.25000000  1
  Ni  Ni6  1  0.25000000  0.75000000  0.75000000  1
  Ni  Ni7  1  0.75000000  0.25000000  0.25000000  1
loop_
_geom_bond_atom_site_label_1
_geom_bond_atom_site_label_2
_geom_bond_distance
_geom_bond_site_symmetry_2
In0 In4 3.301829 1_545
In0 In20 3.301829 1_455
In0 In2 3.301829 1_555
In0 In14 3.301829 1_555
In0 In10 3.301829 1_554
In0 In6 3.301829 1_555
In0 In12 3.301829 1_455
In0 In18 3.301829 1_545
In0 In16 3.301829 1_445
In0 In5 3.301829 1_554
In0 In3 3.301829 1_544
In0 In8 3.301829 1_454
In1 In13 3.301829 1_555
In1 In23 3.301829 1_555
In1 In15 3.301829 1_555
In1 In21 3.301829 1_555
In1 In25 3.301829 1_555
In1 In9 3.301829 1_555
In1 In24 3.301829 1_555
In1 In11 3.301829 1_555
In1 In22 3.301829 1_555
In1 In19 3.301829 1_555
In1 In7 3.301829 1_555
In1 In17 3.301829 1_555
In2 Ni0 2.634342 1_555
In2 Ni7 2.634342 1_455
In2 Th4 3.368725 1_555
In2 Th1 3.412879 1_455
In2 Th0 3.412879 1_555
In3 Ni6 2.634342 1_555
In3 Ni1 2.634342 1_455
In3 Th5 3.368725 1_555
In3 Th1 3.412879 1_465
In3 Th0 3.412879 1_565
In4 Ni5 2.634342 1_555
In4 Ni2 2.634342 1_455
In4 Th4 3.368725 1_555
In4 Th1 3.412879 1_465
In4 Th0 3.412879 1_565
In5 Ni4 2.634342 1_555
In5 Ni3 2.634342 1_455
In5 Th5 3.368725 1_555
In5 Th1 3.412879 1_455
In5 Th0 3.412879 1_555
In6 Ni0 2.634342 1_555
In6 Ni5 2.634342 1_545
In6 Th0 3.368725 1_555
In6 Th2 3.412879 1_555
In6 Th3 3.412879 1_545
In7 Ni7 2.634342 1_555
In7 Ni2 2.634342 1_555
In7 Th4 3.368725 1_655
In7 Th3 3.412879 1_555
In7 Th2 3.412879 1_555
In8 Ni1 2.634342 1_545
In8 Ni3 2.634342 1_555
In8 Th1 3.368725 1_555
In8 Th3 3.412879 1_546
In8 Th2 3.412879 1_556
In9 Ni4 2.634342 1_555
In9 Ni6 2.634342 1_555
In9 Th5 3.368725 1_555
In9 Th3 3.412879 1_556
In9 Th2 3.412879 1_556
In10 Ni4 2.634342 1_555
In10 Ni6 2.634342 1_545
In10 Th0 3.368725 1_555
In10 Th3 3.412879 1_546
In10 Th2 3.412879 1_556
In11 Ni0 2.634342 1_555
In11 Ni5 2.634342 1_555
In11 Th4 3.368725 1_555
In11 Th3 3.412879 1_555
In11 Th2 3.412879 1_555
In12 Ni2 2.634342 1_545
In12 Ni7 2.634342 1_555
In12 Th1 3.368725 1_555
In12 Th2 3.412879 1_555
In12 Th3 3.412879 1_545
In13 Ni3 2.634342 1_555
In13 Ni1 2.634342 1_555
In13 Th5 3.368725 1_655
In13 Th3 3.412879 1_556
In13 Th2 3.412879 1_556
In14 Ni0 2.634342 1_555
In14 Ni4 2.634342 1_554
In14 Th2 3.368725 1_555
In14 Th4 3.412879 1_555
In14 Th5 3.412879 1_554
In15 Ni2 2.634342 1_555
In15 Ni5 2.634342 1_555
In15 Th3 3.368725 1_555
In15 Th0 3.412879 1_565
In15 Th1 3.412879 1_565
In16 Ni2 2.634342 1_555
In16 Ni1 2.634342 1_554
In16 Th3 3.368725 1_555
In16 Th4 3.412879 1_655
In16 Th5 3.412879 1_654
In17 Ni4 2.634342 1_555
In17 Ni3 2.634342 1_555
In17 Th2 3.368725 1_556
In17 Th0 3.412879 1_555
In17 Th1 3.412879 1_555
In18 Ni5 2.634342 1_555
In18 Ni6 2.634342 1_554
In18 Th3 3.368725 1_555
In18 Th5 3.412879 1_554
In18 Th4 3.412879 1_555
In19 Ni7 2.634342 1_555
In19 Ni0 2.634342 1_555
In19 Th2 3.368725 1_555
In19 Th0 3.412879 1_555
In19 Th1 3.412879 1_555
In20 Ni7 2.634342 1_555
In20 Ni3 2.634342 1_554
In20 Th2 3.368725 1_555
In20 Th4 3.412879 1_655
In20 Th5 3.412879 1_654
In21 Ni1 2.634342 1_555
In21 Ni6 2.634342 1_555
In21 Th3 3.368725 1_556
In21 Th0 3.412879 1_565
In21 Th1 3.412879 1_565
In22 Ni5 2.634342 1_555
In22 Ni6 2.634342 1_555
In22 Th0 3.368725 1_565
In22 Th5 3.412879 1_555
In22 Th4 3.412879 1_555
In23 Ni7 2.634342 1_555
In23 Ni3 2.634342 1_555
In23 Th1 3.368725 1_555
In23 Th4 3.412879 1_655
In23 Th5 3.412879 1_655
In24 Ni4 2.634342 1_555
In24 Ni0 2.634342 1_555
In24 Th0 3.368725 1_555
In24 Th5 3.412879 1_555
In24 Th4 3.412879 1_555
In25 Ni1 2.634342 1_555
In25 Ni2 2.634342 1_555
In25 Th1 3.368725 1_565
In25 Th4 3.412879 1_655
In25 Th5 3.412879 1_655
Ni0 Th0 3.414422 1_555
Ni0 Th4 3.414422 1_555
Ni0 Th2 3.414422 1_555
Ni1 Th5 3.414422 1_655
Ni1 Th1 3.414422 1_565
Ni1 Th3 3.414422 1_556
Ni2 Th1 3.414422 1_565
Ni2 Th3 3.414422 1_555
Ni2 Th4 3.414422 1_655
Ni3 Th2 3.414422 1_556
Ni3 Th5 3.414422 1_655
Ni3 Th1 3.414422 1_555
Ni4 Th2 3.414422 1_556
Ni4 Th0 3.414422 1_555
Ni4 Th5 3.414422 1_555
Ni5 Th4 3.414422 1_555
Ni5 Th3 3.414422 1_555
Ni5 Th0 3.414422 1_565
Ni6 Th5 3.414422 1_555
Ni6 Th3 3.414422 1_556
Ni6 Th0 3.414422 1_565
Ni7 Th4 3.414422 1_655
Ni7 Th1 3.414422 1_555
Ni7 Th2 3.414422 1_555
