# generated using pymatgen
data_Sm5Ru2
_symmetry_space_group_name_H-M   'P 1'
_cell_length_a   6.51137666
_cell_length_b   7.28968352
_cell_length_c   8.72154657
_cell_angle_alpha   96.30025777
_cell_angle_beta   111.91882849
_cell_angle_gamma   90.00000000
_symmetry_Int_Tables_number   1
_chemical_formula_structural   Sm5Ru2
_chemical_formula_sum   'Sm10 Ru4'
_cell_volume   381.35466693
_cell_formula_units_Z   2
loop_
 _symmetry_equiv_pos_site_id
 _symmetry_equiv_pos_as_xyz
  1  'x, y, z'
loop_
 _atom_site_type_symbol
 _atom_site_label
 _atom_site_symmetry_multiplicity
 _atom_site_fract_x
 _atom_site_fract_y
 _atom_site_fract_z
 _atom_site_occupancy
  Sm  Sm0  1  0.98120643  0.91086391  0.18654288  1
  Sm  Sm1  1  0.79466256  0.58913609  0.81345712  1
  Sm  Sm2  1  0.01879357  0.08913609  0.81345712  1
  Sm  Sm3  1  0.20533744  0.41086391  0.18654288  1
  Sm  Sm4  1  0.64189769  0.81351880  0.43167448  1
  Sm  Sm5  1  0.21022321  0.68648120  0.56832552  1
  Sm  Sm6  1  0.35810231  0.18648120  0.56832552  1
  Sm  Sm7  1  0.78977679  0.31351880  0.43167448  1
  Sm  Sm8  1  0.42393698  0.75000000  0.00000000  1
  Sm  Sm9  1  0.57606302  0.25000000  -0.00000000  1
  Ru  Ru0  1  0.82859531  0.57362283  0.22186684  1
  Ru  Ru1  1  0.60672847  0.92637717  0.77813316  1
  Ru  Ru2  1  0.17140469  0.42637717  0.77813316  1
  Ru  Ru3  1  0.39327153  0.07362283  0.22186684  1
loop_
_geom_bond_atom_site_label_1
_geom_bond_atom_site_label_2
_geom_bond_distance
_geom_bond_site_symmetry_2
Ru0 Sm0 2.742406 1_555
Ru0 Sm3 2.829198 1_655
Ru0 Sm7 2.848530 1_555
Ru0 Sm9 2.938730 1_555
Ru0 Sm4 2.973681 1_555
Ru0 Sm8 3.013232 1_555
Ru0 Sm5 3.135392 1_655
Ru0 Sm1 3.500005 1_554
Ru1 Sm1 2.742404 1_555
Ru1 Sm2 2.829192 1_665
Ru1 Sm6 2.848530 1_565
Ru1 Sm9 2.938730 1_566
Ru1 Sm5 2.973681 1_555
Ru1 Sm8 3.013232 1_556
Ru1 Sm4 3.135392 1_555
Ru1 Sm0 3.500007 1_556
Ru2 Sm2 2.742406 1_555
Ru2 Sm1 2.829198 1_455
Ru2 Sm5 2.848530 1_555
Ru2 Sm8 2.938730 1_556
Ru2 Sm6 2.973681 1_555
Ru2 Sm9 3.013232 1_556
Ru2 Sm7 3.135392 1_455
Ru2 Sm3 3.500005 1_556
Ru3 Sm3 2.742404 1_555
Ru3 Sm0 2.829192 1_445
Ru3 Sm4 2.848530 1_545
Ru3 Sm8 2.938730 1_545
Ru3 Sm7 2.973681 1_555
Ru3 Sm9 3.013232 1_555
Ru3 Sm6 3.135392 1_555
Ru3 Sm2 3.500007 1_554
