# generated using pymatgen
data_Mg2Al2O5
_symmetry_space_group_name_H-M   'P 1'
_cell_length_a   3.60136700
_cell_length_b   3.60136700
_cell_length_c   7.01013400
_cell_angle_alpha   90.00000000
_cell_angle_beta   90.00000000
_cell_angle_gamma   90.00000000
_symmetry_Int_Tables_number   1
_chemical_formula_structural   Mg2Al2O5
_chemical_formula_sum   'Mg2 Al2 O5'
_cell_volume   90.92034628
_cell_formula_units_Z   1
loop_
 _symmetry_equiv_pos_site_id
 _symmetry_equiv_pos_as_xyz
  1  'x, y, z'
loop_
 _atom_site_type_symbol
 _atom_site_label
 _atom_site_symmetry_multiplicity
 _atom_site_fract_x
 _atom_site_fract_y
 _atom_site_fract_z
 _atom_site_occupancy
  Mg  Mg0  1  0.00000000  0.00000000  0.00000000  1
  Mg  Mg1  1  0.00000000  0.00000000  0.50000000  1
  Al  Al0  1  0.50000000  0.50000000  0.24410900  1
  Al  Al1  1  0.50000000  0.50000000  0.75589100  1
  O  O0  1  0.50000000  0.00000000  0.19636900  1
  O  O1  1  0.50000000  0.00000000  0.80363100  1
  O  O2  1  0.00000000  0.50000000  0.19636900  1
  O  O3  1  0.00000000  0.50000000  0.80363100  1
  O  O4  1  0.50000000  0.50000000  0.50000000  1
loop_
_geom_bond_atom_site_label_1
_geom_bond_atom_site_label_2
_geom_bond_distance
_geom_bond_site_symmetry_2
Mg0 O2 2.266586 1_555
Mg0 O0 2.266586 1_555
Mg0 O3 2.266586 1_554
Mg0 O2 2.266586 1_545
Mg0 O1 2.266586 1_554
Mg0 O3 2.266586 1_544
Mg0 O1 2.266586 1_454
Mg0 O0 2.266586 1_455
Mg1 O4 2.546551 1_445
Mg1 O4 2.546551 1_545
Mg1 O4 2.546551 1_555
Mg1 O4 2.546551 1_455
Al0 O4 1.793830 1_555
Al0 O2 1.831519 1_655
Al0 O0 1.831519 1_555
Al0 O2 1.831519 1_555
Al0 O0 1.831519 1_565
Al1 O4 1.793830 1_555
Al1 O1 1.831519 1_565
Al1 O3 1.831519 1_555
Al1 O1 1.831519 1_555
Al1 O3 1.831519 1_655
