# generated using pymatgen
data_CeSe2
_symmetry_space_group_name_H-M   'P 1'
_cell_length_a   12.67442694
_cell_length_b   19.68458242
_cell_length_c   37.61658919
_cell_angle_alpha   90.00000000
_cell_angle_beta   90.00000000
_cell_angle_gamma   95.07771988
_symmetry_Int_Tables_number   1
_chemical_formula_structural   CeSe2
_chemical_formula_sum   'Ce32 Se64'
_cell_volume   9348.16213109
_cell_formula_units_Z   32
loop_
 _symmetry_equiv_pos_site_id
 _symmetry_equiv_pos_as_xyz
  1  'x, y, z'
loop_
 _atom_site_type_symbol
 _atom_site_label
 _atom_site_symmetry_multiplicity
 _atom_site_fract_x
 _atom_site_fract_y
 _atom_site_fract_z
 _atom_site_occupancy
  Ce  Ce0  1  0.93717878  0.27080241  0.52164605  1
  Ce  Ce1  1  0.06282122  0.72919759  0.02164605  1
  Ce  Ce2  1  0.06282122  0.72919759  0.47835395  1
  Ce  Ce3  1  0.93717878  0.27080241  0.97835395  1
  Ce  Ce4  1  0.10152325  0.13543081  0.87083958  1
  Ce  Ce5  1  0.89847675  0.86456919  0.37083958  1
  Ce  Ce6  1  0.89847675  0.86456919  0.12916042  1
  Ce  Ce7  1  0.10152325  0.13543081  0.62916042  1
  Ce  Ce8  1  0.48043510  0.23882039  0.82012133  1
  Ce  Ce9  1  0.51956490  0.76117961  0.32012133  1
  Ce  Ce10  1  0.51956490  0.76117961  0.17987867  1
  Ce  Ce11  1  0.48043510  0.23882039  0.67987867  1
  Ce  Ce12  1  0.59685690  0.39318502  0.93048130  1
  Ce  Ce13  1  0.40314310  0.60681498  0.43048130  1
  Ce  Ce14  1  0.40314310  0.60681498  0.06951870  1
  Ce  Ce15  1  0.59685690  0.39318502  0.56951870  1
  Ce  Ce16  1  0.74180435  0.03745205  0.81747604  1
  Ce  Ce17  1  0.25819565  0.96254795  0.31747604  1
  Ce  Ce18  1  0.25819565  0.96254795  0.18252396  1
  Ce  Ce19  1  0.74180435  0.03745205  0.68252396  1
  Ce  Ce20  1  0.76290175  0.05148593  0.45894590  1
  Ce  Ce21  1  0.23709825  0.94851407  0.95894590  1
  Ce  Ce22  1  0.23709825  0.94851407  0.54105410  1
  Ce  Ce23  1  0.76290175  0.05148593  0.04105410  1
  Ce  Ce24  1  0.36576290  0.10964120  0.43154064  1
  Ce  Ce25  1  0.63423710  0.89035880  0.93154064  1
  Ce  Ce26  1  0.63423710  0.89035880  0.56845936  1
  Ce  Ce27  1  0.36576290  0.10964120  0.06845936  1
  Ce  Ce28  1  0.29111151  0.36125685  0.47190539  1
  Ce  Ce29  1  0.70888849  0.63874315  0.97190539  1
  Ce  Ce30  1  0.70888849  0.63874315  0.52809461  1
  Ce  Ce31  1  0.29111151  0.36125685  0.02809461  1
  Se  Se0  1  0.02729846  0.22522828  0.58195735  1
  Se  Se1  1  0.97270154  0.77477172  0.08195735  1
  Se  Se2  1  0.97270154  0.77477172  0.41804265  1
  Se  Se3  1  0.02729846  0.22522828  0.91804265  1
  Se  Se4  1  0.75482612  0.32901305  0.53768472  1
  Se  Se5  1  0.24517388  0.67098695  0.03768472  1
  Se  Se6  1  0.24517388  0.67098695  0.46231528  1
  Se  Se7  1  0.75482612  0.32901305  0.96231528  1
  Se  Se8  1  0.08167312  0.36264756  0.48959523  1
  Se  Se9  1  0.91832688  0.63735244  0.98959523  1
  Se  Se10  1  0.91832688  0.63735244  0.51040477  1
  Se  Se11  1  0.08167312  0.36264756  0.01040477  1
  Se  Se12  1  0.89802401  0.16181708  0.47708752  1
  Se  Se13  1  0.10197599  0.83818292  0.97708752  1
  Se  Se14  1  0.10197599  0.83818292  0.52291248  1
  Se  Se15  1  0.89802401  0.16181708  0.02291248  1
  Se  Se16  1  0.15541121  0.02170238  0.90562240  1
  Se  Se17  1  0.84458879  0.97829762  0.40562240  1
  Se  Se18  1  0.84458879  0.97829762  0.09437760  1
  Se  Se19  1  0.15541121  0.02170238  0.59437760  1
  Se  Se20  1  0.27376283  0.19878734  0.83662760  1
  Se  Se21  1  0.72623717  0.80121266  0.33662760  1
  Se  Se22  1  0.72623717  0.80121266  0.16337240  1
  Se  Se23  1  0.27376283  0.19878734  0.66337240  1
  Se  Se24  1  0.94477459  0.09667335  0.82309052  1
  Se  Se25  1  0.05522541  0.90332665  0.32309052  1
  Se  Se26  1  0.05522541  0.90332665  0.17690948  1
  Se  Se27  1  0.94477459  0.09667335  0.67690948  1
  Se  Se28  1  0.49398125  0.27675814  0.75000000  1
  Se  Se29  1  0.50601875  0.72324186  0.25000000  1
  Se  Se30  1  0.55738308  0.34419213  0.86320114  1
  Se  Se31  1  0.44261692  0.65580787  0.36320114  1
  Se  Se32  1  0.44261692  0.65580787  0.13679886  1
  Se  Se33  1  0.55738308  0.34419213  0.63679886  1
  Se  Se34  1  0.60235068  0.13273800  0.83069198  1
  Se  Se35  1  0.39764932  0.86726200  0.33069198  1
  Se  Se36  1  0.39764932  0.86726200  0.16930802  1
  Se  Se37  1  0.60235068  0.13273800  0.66930802  1
  Se  Se38  1  0.41330117  0.36985860  0.96827037  1
  Se  Se39  1  0.58669883  0.63014140  0.46827037  1
  Se  Se40  1  0.58669883  0.63014140  0.03172963  1
  Se  Se41  1  0.41330117  0.36985860  0.53172963  1
  Se  Se42  1  0.65373669  0.53057168  0.92797464  1
  Se  Se43  1  0.34626331  0.46942832  0.42797464  1
  Se  Se44  1  0.34626331  0.46942832  0.07202536  1
  Se  Se45  1  0.65373669  0.53057168  0.57202536  1
  Se  Se46  1  0.70877171  0.93574460  0.86684155  1
  Se  Se47  1  0.29122829  0.06425540  0.36684155  1
  Se  Se48  1  0.29122829  0.06425540  0.13315845  1
  Se  Se49  1  0.70877171  0.93574460  0.63315845  1
  Se  Se50  1  0.71234304  0.98639394  0.75000000  1
  Se  Se51  1  0.28765696  0.01360606  0.25000000  1
  Se  Se52  1  0.73426079  0.96496619  0.51533821  1
  Se  Se53  1  0.26573921  0.03503381  0.01533821  1
  Se  Se54  1  0.26573921  0.03503381  0.48466179  1
  Se  Se55  1  0.73426079  0.96496619  0.98466179  1
  Se  Se56  1  0.57785766  0.09790961  0.43662767  1
  Se  Se57  1  0.42214234  0.90209039  0.93662767  1
  Se  Se58  1  0.42214234  0.90209039  0.56337233  1
  Se  Se59  1  0.57785766  0.09790961  0.06337233  1
  Se  Se60  1  0.32721986  0.24348411  0.43741843  1
  Se  Se61  1  0.67278014  0.75651589  0.93741843  1
  Se  Se62  1  0.67278014  0.75651589  0.56258157  1
  Se  Se63  1  0.32721986  0.24348411  0.06258157  1
loop_
_geom_bond_atom_site_label_1
_geom_bond_atom_site_label_2
_geom_bond_distance
_geom_bond_site_symmetry_2
Ce0 Se0 2.727245 1_655
Ce0 Se12 2.733077 1_555
Ce0 Se4 2.736325 1_555
Ce0 Se8 2.736798 1_655
Ce1 Se1 2.727245 1_455
Ce1 Se13 2.733077 1_554
Ce1 Se5 2.736325 1_555
Ce1 Se9 2.736798 1_454
Ce2 Se2 2.727245 1_455
Ce2 Se14 2.733077 1_555
Ce2 Se6 2.736325 1_555
Ce2 Se10 2.736798 1_455
Ce3 Se3 2.727245 1_655
Ce3 Se15 2.733077 1_556
Ce3 Se7 2.736325 1_555
Ce3 Se11 2.736798 1_656
Ce4 Se3 2.730696 1_555
Ce4 Se16 2.731455 1_555
Ce4 Se24 2.736221 1_455
Ce4 Se20 2.737756 1_555
Ce5 Se2 2.730696 1_555
Ce5 Se17 2.731455 1_555
Ce5 Se25 2.736221 1_655
Ce5 Se21 2.737756 1_555
Ce6 Se1 2.730696 1_555
Ce6 Se18 2.731455 1_555
Ce6 Se26 2.736221 1_655
Ce6 Se22 2.737756 1_555
Ce7 Se0 2.730696 1_555
Ce7 Se19 2.731455 1_555
Ce7 Se27 2.736221 1_455
Ce7 Se23 2.737756 1_555
Ce8 Se34 2.734498 1_555
Ce8 Se20 2.739099 1_555
Ce8 Se30 2.742525 1_555
Ce8 Se28 2.742639 1_555
Ce9 Se35 2.734498 1_555
Ce9 Se21 2.739099 1_555
Ce9 Se31 2.742525 1_555
Ce9 Se29 2.742639 1_555
Ce10 Se36 2.734498 1_555
Ce10 Se22 2.739099 1_555
Ce10 Se32 2.742525 1_555
Ce10 Se29 2.742639 1_555
Ce11 Se37 2.734498 1_555
Ce11 Se23 2.739099 1_555
Ce11 Se33 2.742525 1_555
Ce11 Se28 2.742639 1_555
Ce12 Se38 2.730353 1_555
Ce12 Se7 2.736059 1_555
Ce12 Se42 2.738115 1_555
Ce12 Se30 2.738645 1_555
Ce13 Se39 2.730353 1_555
Ce13 Se6 2.736059 1_555
Ce13 Se43 2.738115 1_555
Ce13 Se31 2.738645 1_555
Ce14 Se40 2.730353 1_555
Ce14 Se5 2.736059 1_555
Ce14 Se44 2.738115 1_555
Ce14 Se32 2.738645 1_555
Ce15 Se41 2.730353 1_555
Ce15 Se4 2.736059 1_555
Ce15 Se45 2.738115 1_555
Ce15 Se33 2.738645 1_555
Ce16 Se34 2.734254 1_555
Ce16 Se46 2.735598 1_545
Ce16 Se24 2.736903 1_555
Ce16 Se50 2.743300 1_545
Ce17 Se35 2.734254 1_555
Ce17 Se47 2.735598 1_565
Ce17 Se25 2.736903 1_555
Ce17 Se51 2.743300 1_565
Ce18 Se36 2.734254 1_555
Ce18 Se48 2.735598 1_565
Ce18 Se26 2.736903 1_555
Ce18 Se51 2.743300 1_565
Ce19 Se37 2.734254 1_555
Ce19 Se49 2.735598 1_545
Ce19 Se27 2.736903 1_555
Ce19 Se50 2.743300 1_545
Ce20 Se56 2.723940 1_555
Ce20 Se52 2.724474 1_545
Ce20 Se17 2.726709 1_545
Ce20 Se12 2.730771 1_555
Ce21 Se57 2.723940 1_555
Ce21 Se53 2.724474 1_566
Ce21 Se16 2.726709 1_565
Ce21 Se13 2.730771 1_555
Ce22 Se58 2.723940 1_555
Ce22 Se54 2.724474 1_565
Ce22 Se19 2.726709 1_565
Ce22 Se14 2.730771 1_555
Ce23 Se59 2.723940 1_555
Ce23 Se55 2.724474 1_544
Ce23 Se18 2.726709 1_545
Ce23 Se15 2.730771 1_555
Ce24 Se56 2.725095 1_555
Ce24 Se54 2.725323 1_555
Ce24 Se60 2.730695 1_555
Ce24 Se47 2.732101 1_555
Ce25 Se57 2.725095 1_555
Ce25 Se55 2.725323 1_555
Ce25 Se61 2.730695 1_555
Ce25 Se46 2.732101 1_555
Ce26 Se58 2.725095 1_555
Ce26 Se52 2.725323 1_555
Ce26 Se62 2.730695 1_555
Ce26 Se49 2.732101 1_555
Ce27 Se59 2.725095 1_555
Ce27 Se53 2.725323 1_555
Ce27 Se63 2.730695 1_555
Ce27 Se48 2.732101 1_555
Ce28 Se41 2.728535 1_555
Ce28 Se60 2.730337 1_555
Ce28 Se43 2.736778 1_555
Ce28 Se8 2.739132 1_555
Ce29 Se40 2.728535 1_556
Ce29 Se61 2.730337 1_555
Ce29 Se42 2.736778 1_555
Ce29 Se9 2.739132 1_555
Ce30 Se39 2.728535 1_555
Ce30 Se62 2.730337 1_555
Ce30 Se45 2.736778 1_555
Ce30 Se10 2.739132 1_555
Ce31 Se38 2.728535 1_554
Ce31 Se63 2.730337 1_555
Ce31 Se44 2.736778 1_555
Ce31 Se11 2.739132 1_555
