# generated using pymatgen
data_CeH2C2SNO9
_symmetry_space_group_name_H-M   'P 1'
_cell_length_a   6.90568800
_cell_length_b   8.11658500
_cell_length_c   15.59597269
_cell_angle_alpha   90.00000000
_cell_angle_beta   113.33555304
_cell_angle_gamma   90.00000000
_symmetry_Int_Tables_number   1
_chemical_formula_structural   CeH2C2SNO9
_chemical_formula_sum   'Ce4 H8 C8 S4 N4 O36'
_cell_volume   802.65775990
_cell_formula_units_Z   4
loop_
 _symmetry_equiv_pos_site_id
 _symmetry_equiv_pos_as_xyz
  1  'x, y, z'
loop_
 _atom_site_type_symbol
 _atom_site_label
 _atom_site_symmetry_multiplicity
 _atom_site_fract_x
 _atom_site_fract_y
 _atom_site_fract_z
 _atom_site_occupancy
  Ce  Ce0  1  0.16150800  0.27744700  0.91219600  1
  Ce  Ce1  1  0.16150800  0.22255300  0.41219600  1
  Ce  Ce2  1  0.83849200  0.72255300  0.08780400  1
  Ce  Ce3  1  0.83849200  0.77744700  0.58780400  1
  H  H0  1  0.45540400  0.07426000  0.08369000  1
  H  H1  1  0.45540400  0.42574000  0.58369000  1
  H  H2  1  0.54459600  0.92574000  0.91631000  1
  H  H3  1  0.54459600  0.57426000  0.41631000  1
  H  H4  1  0.22802500  0.06178100  0.08488900  1
  H  H5  1  0.22802500  0.43821900  0.58488900  1
  H  H6  1  0.77197500  0.93821900  0.91511100  1
  H  H7  1  0.77197500  0.56178100  0.41511100  1
  C  C0  1  0.85317800  0.45754400  0.71970200  1
  C  C1  1  0.85317800  0.04245600  0.21970200  1
  C  C2  1  0.14682200  0.54245600  0.28029800  1
  C  C3  1  0.14682200  0.95754400  0.78029800  1
  C  C4  1  0.06926100  0.45149600  0.71286100  1
  C  C5  1  0.06926100  0.04850400  0.21286100  1
  C  C6  1  0.93073900  0.54850400  0.28713900  1
  C  C7  1  0.93073900  0.95149600  0.78713900  1
  S  S0  1  0.25419700  0.62862200  0.00015900  1
  S  S1  1  0.25419700  0.87137800  0.50015900  1
  S  S2  1  0.74580300  0.37137800  0.99984100  1
  S  S3  1  0.74580300  0.12862100  0.49984100  1
  N  N0  1  0.49161100  0.15682200  0.71994800  1
  N  N1  1  0.49161100  0.34317800  0.21994800  1
  N  N2  1  0.50838900  0.84317800  0.28005200  1
  N  N3  1  0.50838900  0.65682200  0.78005200  1
  O  O0  1  0.26201000  0.46135700  0.04244300  1
  O  O1  1  0.26201000  0.03864300  0.54244300  1
  O  O2  1  0.73799000  0.53864300  0.95755700  1
  O  O3  1  0.73799000  0.96135700  0.45755700  1
  O  O4  1  0.10703700  0.73737900  0.02152200  1
  O  O5  1  0.10703700  0.76262100  0.52152200  1
  O  O6  1  0.89296300  0.26262100  0.97847800  1
  O  O7  1  0.89296300  0.23737900  0.47847800  1
  O  O8  1  0.18268200  0.59669400  0.89829600  1
  O  O9  1  0.18268200  0.90330600  0.39829600  1
  O  O10  1  0.81731800  0.40330600  0.10170400  1
  O  O11  1  0.81731800  0.09669400  0.60170400  1
  O  O12  1  0.46663400  0.70608200  0.03812500  1
  O  O13  1  0.46663400  0.79391800  0.53812500  1
  O  O14  1  0.53336600  0.29391800  0.96187500  1
  O  O15  1  0.53336600  0.20608200  0.46187500  1
  O  O16  1  0.84162000  0.38218400  0.78811100  1
  O  O17  1  0.84162000  0.11781600  0.28811100  1
  O  O18  1  0.15838000  0.61781600  0.21188900  1
  O  O19  1  0.15838000  0.88218400  0.71188900  1
  O  O20  1  0.70910700  0.53511500  0.65489800  1
  O  O21  1  0.70910700  0.96488500  0.15489800  1
  O  O22  1  0.29089300  0.46488500  0.34510200  1
  O  O23  1  0.29089300  0.03511500  0.84510200  1
  O  O24  1  0.20604800  0.36178100  0.77194200  1
  O  O25  1  0.20604800  0.13821900  0.27194200  1
  O  O26  1  0.79395200  0.63821900  0.22805800  1
  O  O27  1  0.79395200  0.86178100  0.72805800  1
  O  O28  1  0.08699200  0.53477700  0.64745400  1
  O  O29  1  0.08699200  0.96522300  0.14745400  1
  O  O30  1  0.91300800  0.46522300  0.35254600  1
  O  O31  1  0.91300800  0.03477700  0.85254600  1
  O  O32  1  0.30687400  0.10694000  0.04916600  1
  O  O33  1  0.30687400  0.39306000  0.54916600  1
  O  O34  1  0.69312600  0.89306000  0.95083400  1
  O  O35  1  0.69312600  0.60694000  0.45083400  1
loop_
_geom_bond_atom_site_label_1
_geom_bond_atom_site_label_2
_geom_bond_distance
_geom_bond_site_symmetry_2
Ce0 O14 2.374075 1_555
Ce0 O0 2.391506 1_556
Ce0 O32 2.405700 1_556
Ce0 O24 2.425051 1_555
Ce0 O16 2.441491 1_455
Ce0 O6 2.457834 1_455
Ce0 O31 2.534778 1_455
Ce0 O23 2.550038 1_555
Ce0 O8 2.609173 1_555
Ce1 O15 2.374075 1_555
Ce1 O1 2.391506 1_555
Ce1 O33 2.405700 1_555
Ce1 O25 2.425051 1_555
Ce1 O17 2.441491 1_455
Ce1 O7 2.457834 1_455
Ce1 O30 2.534778 1_455
Ce1 O22 2.550038 1_555
Ce1 O9 2.609173 1_545
Ce2 O12 2.374075 1_555
Ce2 O2 2.391506 1_554
Ce2 O34 2.405700 1_554
Ce2 O26 2.425051 1_555
Ce2 O18 2.441491 1_655
Ce2 O4 2.457834 1_655
Ce2 O29 2.534778 1_655
Ce2 O21 2.550038 1_555
Ce2 O10 2.609173 1_555
Ce3 O13 2.374075 1_555
Ce3 O3 2.391506 1_555
Ce3 O35 2.405700 1_555
Ce3 O27 2.425051 1_555
Ce3 O19 2.441491 1_655
Ce3 O5 2.457834 1_655
Ce3 O28 2.534778 1_655
Ce3 O20 2.550038 1_555
Ce3 O11 2.609173 1_565
H0 O32 0.987323 1_555
H1 O33 0.987323 1_555
H2 O34 0.987323 1_555
H3 O35 0.987323 1_555
H4 O32 0.990742 1_555
H5 O33 0.990742 1_555
H6 O34 0.990742 1_555
H7 O35 0.990742 1_555
C0 O16 1.259466 1_555
C0 O20 1.269297 1_555
C1 O17 1.259466 1_555
C1 O21 1.269297 1_545
C2 O18 1.259466 1_555
C2 O22 1.269297 1_555
C3 O19 1.259466 1_555
C3 O23 1.269297 1_565
C4 O24 1.257779 1_555
C4 O28 1.269425 1_555
C5 O25 1.257779 1_555
C5 O29 1.269425 1_545
C6 O26 1.257779 1_555
C6 O30 1.269425 1_555
C7 O27 1.257779 1_555
C7 O31 1.269425 1_565
O0 S0 1.500914 1_555
O1 S1 1.500914 1_545
O2 S2 1.500914 1_555
O3 S3 1.500907 1_565
O4 S0 1.480275 1_555
O5 S1 1.480275 1_555
O6 S2 1.480275 1_555
O7 S3 1.480280 1_555
O8 S0 1.487720 1_556
O9 S1 1.487720 1_555
O10 S2 1.487720 1_554
O11 S3 1.487718 1_555
O12 S0 1.486562 1_555
O13 S1 1.486562 1_555
O14 S2 1.486562 1_555
O15 S3 1.486566 1_555
