# generated using pymatgen
data_TmCO4
_symmetry_space_group_name_H-M   'P 1'
_cell_length_a   4.80754300
_cell_length_b   7.00569600
_cell_length_c   8.74489300
_cell_angle_alpha   90.00000000
_cell_angle_beta   90.00000000
_cell_angle_gamma   90.00000000
_symmetry_Int_Tables_number   1
_chemical_formula_structural   TmCO4
_chemical_formula_sum   'Tm4 C4 O16'
_cell_volume   294.52961199
_cell_formula_units_Z   4
loop_
 _symmetry_equiv_pos_site_id
 _symmetry_equiv_pos_as_xyz
  1  'x, y, z'
loop_
 _atom_site_type_symbol
 _atom_site_label
 _atom_site_symmetry_multiplicity
 _atom_site_fract_x
 _atom_site_fract_y
 _atom_site_fract_z
 _atom_site_occupancy
  Tm  Tm0  1  0.52581900  0.62708800  0.66149000  1
  Tm  Tm1  1  0.97418100  0.37291200  0.16149000  1
  Tm  Tm2  1  0.47418100  0.12708800  0.83851000  1
  Tm  Tm3  1  0.02581900  0.87291200  0.33851000  1
  C  C0  1  0.50757000  0.54489000  0.32994100  1
  C  C1  1  0.99243000  0.45511000  0.82994100  1
  C  C2  1  0.49243000  0.04489000  0.17005900  1
  C  C3  1  0.00757000  0.95511000  0.67005900  1
  O  O0  1  0.46979300  0.81431100  0.85710100  1
  O  O1  1  0.03020700  0.18568900  0.35710100  1
  O  O2  1  0.53020700  0.31431100  0.64289900  1
  O  O3  1  0.96979300  0.68568900  0.14289900  1
  O  O4  1  0.04571600  0.55513200  0.71176200  1
  O  O5  1  0.45428400  0.44486800  0.21176200  1
  O  O6  1  0.95428400  0.05513200  0.78823800  1
  O  O7  1  0.54571600  0.94486800  0.28823800  1
  O  O8  1  0.26939500  0.92857600  0.63189800  1
  O  O9  1  0.23060500  0.07142400  0.13189800  1
  O  O10  1  0.73060500  0.42857600  0.86810200  1
  O  O11  1  0.76939500  0.57142400  0.36810200  1
  O  O12  1  0.82045200  0.88245300  0.58116500  1
  O  O13  1  0.67954800  0.11754700  0.08116500  1
  O  O14  1  0.17954800  0.38245300  0.91883500  1
  O  O15  1  0.32045200  0.61754700  0.41883500  1
loop_
_geom_bond_atom_site_label_1
_geom_bond_atom_site_label_2
_geom_bond_distance
_geom_bond_site_symmetry_2
C0 O5 1.274631 1_555
C0 O15 1.293304 1_555
C0 O11 1.315421 1_555
C1 O4 1.274631 1_655
C1 O14 1.293304 1_655
C1 O10 1.315421 1_555
C2 O7 1.274631 1_545
C2 O13 1.293304 1_555
C2 O9 1.315421 1_555
C3 O6 1.274631 1_465
C3 O12 1.293304 1_455
C3 O8 1.315421 1_555
O0 Tm0 2.172339 1_555
O0 Tm2 2.197345 1_565
O1 Tm1 2.172339 1_455
O1 Tm3 2.197345 1_545
O2 Tm2 2.172339 1_555
O2 Tm0 2.197345 1_555
O3 Tm3 2.172339 1_655
O3 Tm1 2.197345 1_555
O4 Tm0 2.403078 1_555
O4 Tm0 2.587378 1_455
O5 Tm1 2.403078 1_455
O5 Tm1 2.587378 1_555
O6 Tm2 2.403078 1_555
O6 Tm2 2.587378 1_655
O7 Tm3 2.403078 1_655
O7 Tm3 2.587378 1_555
O8 Tm0 2.459226 1_555
O8 Tm2 2.483523 1_565
O8 Tm3 2.847079 1_555
O9 Tm1 2.459226 1_455
O9 Tm3 2.483523 1_545
O9 Tm2 2.847079 1_554
O10 Tm2 2.459226 1_555
O10 Tm0 2.483523 1_555
O10 Tm1 2.847079 1_556
O11 Tm3 2.459226 1_655
O11 Tm1 2.483523 1_555
O11 Tm0 2.847079 1_555
O12 Tm3 2.341389 1_655
O12 Tm0 2.387536 1_555
O13 Tm2 2.341389 1_554
O13 Tm1 2.387536 1_555
O14 Tm1 2.341389 1_456
O14 Tm2 2.387536 1_555
O15 Tm0 2.341389 1_555
O15 Tm3 2.387536 1_555
