# generated using pymatgen
data_TiAl2V
_symmetry_space_group_name_H-M   'P 1'
_cell_length_a   5.51252200
_cell_length_b   5.51252200
_cell_length_c   16.07446200
_cell_angle_alpha   90.00000000
_cell_angle_beta   90.00000000
_cell_angle_gamma   90.00000000
_symmetry_Int_Tables_number   1
_chemical_formula_structural   TiAl2V
_chemical_formula_sum   'Ti8 Al16 V8'
_cell_volume   488.46912453
_cell_formula_units_Z   8
loop_
 _symmetry_equiv_pos_site_id
 _symmetry_equiv_pos_as_xyz
  1  'x, y, z'
loop_
 _atom_site_type_symbol
 _atom_site_label
 _atom_site_symmetry_multiplicity
 _atom_site_fract_x
 _atom_site_fract_y
 _atom_site_fract_z
 _atom_site_occupancy
  Ti  Ti0_0  1  0.00000000  0.00000000  0.00000000  1
  Ti  Ti0_1  1  0.00000000  0.00000000  0.50000000  1
  Ti  Ti0_2  1  0.00000000  0.50000000  0.00000000  1
  Ti  Ti0_3  1  0.00000000  0.50000000  0.50000000  1
  Ti  Ti0_4  1  0.50000000  0.00000000  0.00000000  1
  Ti  Ti0_5  1  0.50000000  0.00000000  0.50000000  1
  Ti  Ti0_6  1  0.50000000  0.50000000  0.00000000  1
  Ti  Ti0_7  1  0.50000000  0.50000000  0.50000000  1
  Al  Al0_0  1  0.25000000  0.25000000  0.13005900  1
  Al  Al0_1  1  0.25000000  0.25000000  0.63005900  1
  Al  Al0_2  1  0.25000000  0.75000000  0.13005900  1
  Al  Al0_3  1  0.25000000  0.75000000  0.63005900  1
  Al  Al0_4  1  0.75000000  0.25000000  0.13005900  1
  Al  Al0_5  1  0.75000000  0.25000000  0.63005900  1
  Al  Al0_6  1  0.75000000  0.75000000  0.13005900  1
  Al  Al0_7  1  0.75000000  0.75000000  0.63005900  1
  Al  Al1_0  1  0.25000000  0.25000000  0.36994100  1
  Al  Al1_1  1  0.25000000  0.25000000  0.86994100  1
  Al  Al1_2  1  0.25000000  0.75000000  0.36994100  1
  Al  Al1_3  1  0.25000000  0.75000000  0.86994100  1
  Al  Al1_4  1  0.75000000  0.25000000  0.36994100  1
  Al  Al1_5  1  0.75000000  0.25000000  0.86994100  1
  Al  Al1_6  1  0.75000000  0.75000000  0.36994100  1
  Al  Al1_7  1  0.75000000  0.75000000  0.86994100  1
  V  V0_0  1  0.00000000  0.00000000  0.25000000  1
  V  V0_1  1  0.00000000  0.00000000  0.75000000  1
  V  V0_2  1  0.00000000  0.50000000  0.25000000  1
  V  V0_3  1  0.00000000  0.50000000  0.75000000  1
  V  V0_4  1  0.50000000  0.00000000  0.25000000  1
  V  V0_5  1  0.50000000  0.00000000  0.75000000  1
  V  V0_6  1  0.50000000  0.50000000  0.25000000  1
  V  V0_7  1  0.50000000  0.50000000  0.75000000  1
loop_
_geom_bond_atom_site_label_1
_geom_bond_atom_site_label_2
_geom_bond_distance
_geom_bond_site_symmetry_2
Ti0_0 Ti0_2 2.756261 1_555
Ti0_0 Ti0_2 2.756261 1_545
Ti0_0 Ti0_4 2.756261 1_455
Ti0_0 Ti0_4 2.756261 1_555
Ti0_1 Ti0_3 2.756261 1_545
Ti0_1 Ti0_5 2.756261 1_455
Ti0_1 Ti0_5 2.756261 1_555
Ti0_1 Ti0_3 2.756261 1_555
Ti0_2 Ti0_6 2.756261 1_455
Ti0_2 Ti0_6 2.756261 1_555
Ti0_3 Ti0_7 2.756261 1_455
Ti0_3 Ti0_7 2.756261 1_555
Ti0_4 Ti0_6 2.756261 1_555
Ti0_4 Ti0_6 2.756261 1_545
Ti0_5 Ti0_7 2.756261 1_545
Ti0_5 Ti0_7 2.756261 1_555
Al0_0 V0_0 2.741463 1_555
Al0_0 V0_2 2.741463 1_555
Al0_0 V0_6 2.741463 1_555
Al0_0 V0_4 2.741463 1_555
Al0_0 Al0_4 2.756261 1_555
Al0_0 Al0_4 2.756261 1_455
Al0_0 Al0_2 2.756261 1_545
Al0_0 Al0_2 2.756261 1_555
Al0_0 Ti0_4 2.858184 1_555
Al0_0 Ti0_6 2.858184 1_555
Al0_0 Ti0_2 2.858184 1_555
Al0_0 Ti0_0 2.858184 1_555
Al0_1 V0_3 2.741463 1_555
Al0_1 V0_7 2.741463 1_555
Al0_1 V0_1 2.741463 1_555
Al0_1 V0_5 2.741463 1_555
Al0_1 Al0_3 2.756261 1_545
Al0_1 Al0_5 2.756261 1_555
Al0_1 Al0_5 2.756261 1_455
Al0_1 Al0_3 2.756261 1_555
Al0_1 Ti0_5 2.858184 1_555
Al0_1 Ti0_3 2.858184 1_555
Al0_1 Ti0_7 2.858184 1_555
Al0_1 Ti0_1 2.858184 1_555
Al0_2 V0_2 2.741463 1_555
Al0_2 V0_6 2.741463 1_555
Al0_2 V0_0 2.741463 1_565
Al0_2 V0_4 2.741463 1_565
Al0_2 Al0_6 2.756261 1_455
Al0_2 Al0_6 2.756261 1_555
Al0_2 Ti0_0 2.858184 1_565
Al0_2 Ti0_6 2.858184 1_555
Al0_2 Ti0_2 2.858184 1_555
Al0_2 Ti0_4 2.858184 1_565
Al0_3 V0_3 2.741463 1_555
Al0_3 V0_7 2.741463 1_555
Al0_3 V0_1 2.741463 1_565
Al0_3 V0_5 2.741463 1_565
Al0_3 Al0_7 2.756261 1_455
Al0_3 Al0_7 2.756261 1_555
Al0_3 Ti0_5 2.858184 1_565
Al0_3 Ti0_3 2.858184 1_555
Al0_3 Ti0_7 2.858184 1_555
Al0_3 Ti0_1 2.858184 1_565
Al0_4 V0_0 2.741463 1_655
Al0_4 V0_6 2.741463 1_555
Al0_4 V0_4 2.741463 1_555
Al0_4 V0_2 2.741463 1_655
Al0_4 Al0_6 2.756261 1_545
Al0_4 Al0_6 2.756261 1_555
Al0_4 Ti0_4 2.858184 1_555
Al0_4 Ti0_6 2.858184 1_555
Al0_4 Ti0_0 2.858184 1_655
Al0_4 Ti0_2 2.858184 1_655
Al0_5 V0_3 2.741463 1_655
Al0_5 V0_1 2.741463 1_655
Al0_5 V0_7 2.741463 1_555
Al0_5 V0_5 2.741463 1_555
Al0_5 Al0_7 2.756261 1_545
Al0_5 Al0_7 2.756261 1_555
Al0_5 Ti0_1 2.858184 1_655
Al0_5 Ti0_5 2.858184 1_555
Al0_5 Ti0_7 2.858184 1_555
Al0_5 Ti0_3 2.858184 1_655
Al0_6 V0_0 2.741463 1_665
Al0_6 V0_6 2.741463 1_555
Al0_6 V0_4 2.741463 1_565
Al0_6 V0_2 2.741463 1_655
Al0_6 Ti0_6 2.858184 1_555
Al0_6 Ti0_0 2.858184 1_665
Al0_6 Ti0_4 2.858184 1_565
Al0_6 Ti0_2 2.858184 1_655
Al0_7 V0_3 2.741463 1_655
Al0_7 V0_7 2.741463 1_555
Al0_7 V0_5 2.741463 1_565
Al0_7 V0_1 2.741463 1_665
Al0_7 Ti0_1 2.858184 1_665
Al0_7 Ti0_5 2.858184 1_565
Al0_7 Ti0_7 2.858184 1_555
Al0_7 Ti0_3 2.858184 1_655
Al1_0 V0_0 2.741463 1_555
Al1_0 V0_2 2.741463 1_555
Al1_0 V0_4 2.741463 1_555
Al1_0 V0_6 2.741463 1_555
Al1_0 Al1_4 2.756261 1_555
Al1_0 Al1_4 2.756261 1_455
Al1_0 Al1_2 2.756261 1_545
Al1_0 Al1_2 2.756261 1_555
Al1_0 Ti0_5 2.858184 1_555
Al1_0 Ti0_3 2.858184 1_555
Al1_0 Ti0_7 2.858184 1_555
Al1_0 Ti0_1 2.858184 1_555
Al1_1 V0_3 2.741463 1_555
Al1_1 V0_7 2.741463 1_555
Al1_1 V0_5 2.741463 1_555
Al1_1 V0_1 2.741463 1_555
Al1_1 Al1_5 2.756261 1_455
Al1_1 Al1_3 2.756261 1_555
Al1_1 Al1_3 2.756261 1_545
Al1_1 Al1_5 2.756261 1_555
Al1_1 Ti0_2 2.858184 1_556
Al1_1 Ti0_0 2.858184 1_556
Al1_1 Ti0_6 2.858184 1_556
Al1_1 Ti0_4 2.858184 1_556
Al1_2 V0_2 2.741463 1_555
Al1_2 V0_6 2.741463 1_555
Al1_2 V0_0 2.741463 1_565
Al1_2 V0_4 2.741463 1_565
Al1_2 Al1_6 2.756261 1_555
Al1_2 Al1_6 2.756261 1_455
Al1_2 Ti0_1 2.858184 1_565
Al1_2 Ti0_5 2.858184 1_565
Al1_2 Ti0_3 2.858184 1_555
Al1_2 Ti0_7 2.858184 1_555
Al1_3 V0_3 2.741463 1_555
Al1_3 V0_7 2.741463 1_555
Al1_3 V0_1 2.741463 1_565
Al1_3 V0_5 2.741463 1_565
Al1_3 Al1_7 2.756261 1_555
Al1_3 Al1_7 2.756261 1_455
Al1_3 Ti0_2 2.858184 1_556
Al1_3 Ti0_4 2.858184 1_566
Al1_3 Ti0_6 2.858184 1_556
Al1_3 Ti0_0 2.858184 1_566
Al1_4 V0_0 2.741463 1_655
Al1_4 V0_6 2.741463 1_555
Al1_4 V0_4 2.741463 1_555
Al1_4 V0_2 2.741463 1_655
Al1_4 Al1_6 2.756261 1_555
Al1_4 Al1_6 2.756261 1_545
Al1_4 Ti0_1 2.858184 1_655
Al1_4 Ti0_5 2.858184 1_555
Al1_4 Ti0_7 2.858184 1_555
Al1_4 Ti0_3 2.858184 1_655
Al1_5 V0_1 2.741463 1_655
Al1_5 V0_7 2.741463 1_555
Al1_5 V0_5 2.741463 1_555
Al1_5 V0_3 2.741463 1_655
Al1_5 Al1_7 2.756261 1_555
Al1_5 Al1_7 2.756261 1_545
Al1_5 Ti0_2 2.858184 1_656
Al1_5 Ti0_6 2.858184 1_556
Al1_5 Ti0_4 2.858184 1_556
Al1_5 Ti0_0 2.858184 1_656
Al1_6 V0_0 2.741463 1_665
Al1_6 V0_6 2.741463 1_555
Al1_6 V0_4 2.741463 1_565
Al1_6 V0_2 2.741463 1_655
Al1_6 Ti0_1 2.858184 1_665
Al1_6 Ti0_5 2.858184 1_565
Al1_6 Ti0_7 2.858184 1_555
Al1_6 Ti0_3 2.858184 1_655
Al1_7 V0_7 2.741463 1_555
Al1_7 V0_1 2.741463 1_665
Al1_7 V0_5 2.741463 1_565
Al1_7 V0_3 2.741463 1_655
Al1_7 Ti0_2 2.858184 1_656
Al1_7 Ti0_4 2.858184 1_566
Al1_7 Ti0_0 2.858184 1_666
Al1_7 Ti0_6 2.858184 1_556
V0_0 V0_2 2.756261 1_545
V0_0 V0_4 2.756261 1_455
V0_0 V0_2 2.756261 1_555
V0_0 V0_4 2.756261 1_555
V0_1 V0_5 2.756261 1_455
V0_1 V0_3 2.756261 1_555
V0_1 V0_3 2.756261 1_545
V0_1 V0_5 2.756261 1_555
V0_2 V0_6 2.756261 1_455
V0_2 V0_6 2.756261 1_555
V0_3 V0_7 2.756261 1_455
V0_3 V0_7 2.756261 1_555
V0_4 V0_6 2.756261 1_545
V0_4 V0_6 2.756261 1_555
V0_5 V0_7 2.756261 1_545
V0_5 V0_7 2.756261 1_555
