# generated using pymatgen
data_MgZrN2
_symmetry_space_group_name_H-M   'P 1'
_cell_length_a   4.50527700
_cell_length_b   6.47005400
_cell_length_c   7.45881200
_cell_angle_alpha   90.00000000
_cell_angle_beta   90.00000000
_cell_angle_gamma   90.00000000
_symmetry_Int_Tables_number   1
_chemical_formula_structural   MgZrN2
_chemical_formula_sum   'Mg4 Zr4 N8'
_cell_volume   217.41978617
_cell_formula_units_Z   4
loop_
 _symmetry_equiv_pos_site_id
 _symmetry_equiv_pos_as_xyz
  1  'x, y, z'
loop_
 _atom_site_type_symbol
 _atom_site_label
 _atom_site_symmetry_multiplicity
 _atom_site_fract_x
 _atom_site_fract_y
 _atom_site_fract_z
 _atom_site_occupancy
  Mg  Mg0  1  0.75000000  0.57862800  0.11917200  1
  Mg  Mg1  1  0.25000000  0.42137200  0.88082800  1
  Mg  Mg2  1  0.25000000  0.92137200  0.61917200  1
  Mg  Mg3  1  0.75000000  0.07862800  0.38082800  1
  Zr  Zr0  1  0.75000000  0.58887700  0.63056000  1
  Zr  Zr1  1  0.25000000  0.41112300  0.36944000  1
  Zr  Zr2  1  0.25000000  0.91112300  0.13056000  1
  Zr  Zr3  1  0.75000000  0.08887700  0.86944000  1
  N  N0  1  0.25000000  0.58091500  0.61620000  1
  N  N1  1  0.75000000  0.41908500  0.38380000  1
  N  N2  1  0.75000000  0.91908500  0.11620000  1
  N  N3  1  0.25000000  0.08091500  0.88380000  1
  N  N4  1  0.25000000  0.58248600  0.12934700  1
  N  N5  1  0.75000000  0.41751400  0.87065300  1
  N  N6  1  0.75000000  0.91751400  0.62934700  1
  N  N7  1  0.25000000  0.08248600  0.37065300  1
loop_
_geom_bond_atom_site_label_1
_geom_bond_atom_site_label_2
_geom_bond_distance
_geom_bond_site_symmetry_2
Mg0 N5 2.126658 1_554
Mg0 N2 2.202887 1_555
Mg0 N1 2.227436 1_555
Mg0 N4 2.254055 1_655
Mg0 N4 2.254055 1_555
Mg1 N4 2.126658 1_556
Mg1 N3 2.202887 1_555
Mg1 N0 2.227436 1_555
Mg1 N5 2.254055 1_555
Mg1 N5 2.254055 1_455
Mg2 N7 2.126658 1_565
Mg2 N0 2.202887 1_555
Mg2 N3 2.227436 1_565
Mg2 N6 2.254055 1_455
Mg2 N6 2.254055 1_555
Mg3 N6 2.126658 1_545
Mg3 N1 2.202887 1_555
Mg3 N2 2.227436 1_545
Mg3 N7 2.254055 1_555
Mg3 N7 2.254055 1_655
N0 Zr1 2.143459 1_555
N0 Zr0 2.255772 1_555
N0 Zr0 2.255772 1_455
N1 Zr0 2.143459 1_555
N1 Zr1 2.255772 1_555
N1 Zr1 2.255772 1_655
N2 Zr3 2.143459 1_564
N2 Zr2 2.255772 1_655
N2 Zr2 2.255772 1_555
N3 Zr2 2.143459 1_546
N3 Zr3 2.255772 1_555
N3 Zr3 2.255772 1_455
N4 Zr1 2.106246 1_555
N4 Zr2 2.126318 1_555
N5 Zr0 2.106246 1_555
N5 Zr3 2.126318 1_555
N6 Zr3 2.106246 1_565
N6 Zr0 2.126318 1_555
N7 Zr2 2.106246 1_545
N7 Zr1 2.126318 1_555
