# generated using pymatgen
data_CaSbF5
_symmetry_space_group_name_H-M   'P 1'
_cell_length_a   10.67307800
_cell_length_b   6.15427000
_cell_length_c   8.48660162
_cell_angle_alpha   57.94136182
_cell_angle_beta   90.00000000
_cell_angle_gamma   90.00000000
_symmetry_Int_Tables_number   1
_chemical_formula_structural   CaSbF5
_chemical_formula_sum   'Ca4 Sb4 F20'
_cell_volume   472.43544832
_cell_formula_units_Z   4
loop_
 _symmetry_equiv_pos_site_id
 _symmetry_equiv_pos_as_xyz
  1  'x, y, z'
loop_
 _atom_site_type_symbol
 _atom_site_label
 _atom_site_symmetry_multiplicity
 _atom_site_fract_x
 _atom_site_fract_y
 _atom_site_fract_z
 _atom_site_occupancy
  Ca  Ca0  1  0.01877100  0.48279800  0.78328900  1
  Ca  Ca1  1  0.51877100  0.51720200  0.71671100  1
  Ca  Ca2  1  0.98122900  0.51720200  0.21671100  1
  Ca  Ca3  1  0.48122900  0.48279800  0.28328900  1
  Sb  Sb0  1  0.76575100  0.07038300  0.65602300  1
  Sb  Sb1  1  0.26575100  0.92961700  0.84397700  1
  Sb  Sb2  1  0.23424900  0.92961700  0.34397700  1
  Sb  Sb3  1  0.73424900  0.07038300  0.15602300  1
  F  F0  1  0.90666000  0.32872900  0.63607700  1
  F  F1  1  0.40666000  0.67127100  0.86392300  1
  F  F2  1  0.09334000  0.67127100  0.36392300  1
  F  F3  1  0.59334000  0.32872900  0.13607700  1
  F  F4  1  0.60616000  0.35604000  0.53922100  1
  F  F5  1  0.10616000  0.64396000  0.96077900  1
  F  F6  1  0.39384000  0.64396000  0.46077900  1
  F  F7  1  0.89384000  0.35604000  0.03922100  1
  F  F8  1  0.40940500  0.15109000  0.84831700  1
  F  F9  1  0.90940500  0.84891000  0.65168300  1
  F  F10  1  0.59059500  0.84891000  0.15168300  1
  F  F11  1  0.09059500  0.15109000  0.34831700  1
  F  F12  1  0.15028600  0.13975300  0.92636800  1
  F  F13  1  0.65028600  0.86024700  0.57363200  1
  F  F14  1  0.84971400  0.86024700  0.07363200  1
  F  F15  1  0.34971400  0.13975300  0.42636800  1
  F  F16  1  0.69669000  0.27876300  0.88243700  1
  F  F17  1  0.19669000  0.72123700  0.61756300  1
  F  F18  1  0.30331000  0.72123700  0.11756300  1
  F  F19  1  0.80331000  0.27876300  0.38243700  1
loop_
_geom_bond_atom_site_label_1
_geom_bond_atom_site_label_2
_geom_bond_distance
_geom_bond_site_symmetry_2
Ca0 F9 2.239461 1_455
Ca0 F0 2.269181 1_455
Ca0 F12 2.276063 1_555
Ca0 F7 2.303336 1_456
Ca0 F17 2.355095 1_555
Ca0 F5 2.389259 1_555
Ca1 F8 2.239461 1_555
Ca1 F1 2.269181 1_555
Ca1 F13 2.276063 1_555
Ca1 F6 2.303336 1_555
Ca1 F16 2.355095 1_555
Ca1 F4 2.389259 1_555
Ca2 F11 2.239461 1_655
Ca2 F2 2.269181 1_655
Ca2 F14 2.276063 1_555
Ca2 F5 2.303336 1_654
Ca2 F19 2.355095 1_555
Ca2 F7 2.389259 1_555
Ca3 F10 2.239461 1_555
Ca3 F3 2.269181 1_555
Ca3 F15 2.276063 1_555
Ca3 F4 2.303336 1_555
Ca3 F18 2.355095 1_555
Ca3 F6 2.389259 1_555
F0 Sb0 2.129000 1_555
F1 Sb1 2.129000 1_555
F2 Sb2 2.129000 1_555
F3 Sb3 2.129000 1_555
F4 Sb0 2.263752 1_555
F5 Sb1 2.263752 1_555
F6 Sb2 2.263752 1_555
F7 Sb3 2.263752 1_555
F8 Sb1 2.064758 1_545
F9 Sb0 2.064758 1_565
F10 Sb3 2.064758 1_565
F11 Sb2 2.064758 1_545
F12 Sb1 2.154071 1_545
F13 Sb0 2.154071 1_565
F14 Sb3 2.154071 1_565
F15 Sb2 2.154071 1_545
F16 Sb3 2.008792 1_556
F17 Sb2 2.008792 1_555
F18 Sb1 2.008792 1_554
F19 Sb0 2.008792 1_555
