# generated using pymatgen
data_NaNiO2
_symmetry_space_group_name_H-M   'P 1'
_cell_length_a   3.04885380
_cell_length_b   5.06740004
_cell_length_c   10.65425301
_cell_angle_alpha   89.99725124
_cell_angle_beta   90.00277741
_cell_angle_gamma   85.62260123
_symmetry_Int_Tables_number   1
_chemical_formula_structural   NaNiO2
_chemical_formula_sum   'Na4 Ni4 O8'
_cell_volume   164.12550619
_cell_formula_units_Z   4
loop_
 _symmetry_equiv_pos_site_id
 _symmetry_equiv_pos_as_xyz
  1  'x, y, z'
loop_
 _atom_site_type_symbol
 _atom_site_label
 _atom_site_symmetry_multiplicity
 _atom_site_fract_x
 _atom_site_fract_y
 _atom_site_fract_z
 _atom_site_occupancy
  Na  Na0  1  0.47872000  0.15407800  0.25001100  1
  Na  Na1  1  0.97872500  0.65407000  0.24998500  1
  Na  Na2  1  0.02127200  0.34592100  0.75001600  1
  Na  Na3  1  0.52126900  0.84592900  0.74998600  1
  Ni  Ni0  1  0.49990400  0.50015200  0.49999500  1
  Ni  Ni1  1  0.00008600  0.99985200  0.99999300  1
  Ni  Ni2  1  0.00011000  0.99985300  0.49999600  1
  Ni  Ni3  1  0.49989800  0.50014700  0.99999500  1
  O  O0  1  0.95912000  0.31897400  0.40194400  1
  O  O1  1  0.45905400  0.81892800  0.40199900  1
  O  O2  1  0.54087000  0.18102800  0.59805400  1
  O  O3  1  0.04095100  0.68106400  0.59800300  1
  O  O4  1  0.54082800  0.18105100  0.90195400  1
  O  O5  1  0.04089300  0.68109400  0.90200400  1
  O  O6  1  0.95918700  0.31894600  0.09805700  1
  O  O7  1  0.45911100  0.81891400  0.09800800  1
loop_
_geom_bond_atom_site_label_1
_geom_bond_atom_site_label_2
_geom_bond_distance
_geom_bond_site_symmetry_2
Na0 O1 2.350624 1_545
Na0 O7 2.350880 1_545
Na0 O6 2.371836 1_455
Na0 O0 2.372016 1_455
Na0 O0 2.377077 1_555
Na0 O6 2.377346 1_555
Na1 O6 2.350165 1_555
Na1 O0 2.350198 1_555
Na1 O7 2.372125 1_555
Na1 O1 2.372686 1_555
Na1 O7 2.377306 1_655
Na1 O1 2.377449 1_655
Na2 O3 2.350785 1_555
Na2 O5 2.350806 1_555
Na2 O4 2.371767 1_555
Na2 O2 2.372219 1_555
Na2 O4 2.377189 1_455
Na2 O2 2.377285 1_455
Na3 O2 2.350010 1_565
Na3 O4 2.350456 1_565
Na3 O5 2.372429 1_655
Na3 O3 2.372493 1_655
Na3 O3 2.377216 1_555
Na3 O5 2.377566 1_555
Ni0 O1 1.919407 1_555
Ni0 O2 1.921247 1_555
Ni0 O3 1.921768 1_555
Ni0 O0 1.923140 1_555
Ni0 O3 2.209674 1_655
Ni0 O0 2.209903 1_455
Ni1 O5 1.919381 1_555
Ni1 O6 1.921240 1_466
Ni1 O7 1.921895 1_556
Ni1 O4 1.923083 1_465
Ni1 O7 2.209635 1_456
Ni1 O4 2.209827 1_565
Ni2 O3 1.919526 1_555
Ni2 O0 1.921194 1_465
Ni2 O1 1.921714 1_555
Ni2 O2 1.923225 1_465
Ni2 O1 2.209671 1_455
Ni2 O2 2.209874 1_565
Ni3 O7 1.919558 1_556
Ni3 O4 1.921115 1_555
Ni3 O5 1.921733 1_555
Ni3 O6 1.923286 1_556
Ni3 O5 2.209583 1_655
Ni3 O6 2.209874 1_456
