# generated using pymatgen
data_Sr2H6Pt
_symmetry_space_group_name_H-M   'P 1'
_cell_length_a   7.44659173
_cell_length_b   7.44659173
_cell_length_c   5.61923657
_cell_angle_alpha   90.00000000
_cell_angle_beta   90.00000000
_cell_angle_gamma   135.59821844
_symmetry_Int_Tables_number   1
_chemical_formula_structural   Sr2H6Pt
_chemical_formula_sum   'Sr4 H12 Pt2'
_cell_volume   218.01948671
_cell_formula_units_Z   2
loop_
 _symmetry_equiv_pos_site_id
 _symmetry_equiv_pos_as_xyz
  1  'x, y, z'
loop_
 _atom_site_type_symbol
 _atom_site_label
 _atom_site_symmetry_multiplicity
 _atom_site_fract_x
 _atom_site_fract_y
 _atom_site_fract_z
 _atom_site_occupancy
  Sr  Sr0  1  0.64544725  0.35455275  -0.00000000  1
  Sr  Sr1  1  0.35455275  0.64544725  -0.00000000  1
  Sr  Sr2  1  0.85455275  0.14544725  0.50000000  1
  Sr  Sr3  1  0.14544725  0.85455275  0.50000000  1
  H  H0  1  0.88015820  0.11984180  0.00000000  1
  H  H1  1  0.11984180  0.88015820  -0.00000000  1
  H  H2  1  0.61984180  0.38015820  0.50000000  1
  H  H3  1  0.38015820  0.61984180  0.50000000  1
  H  H4  1  0.00072381  0.50072381  0.25000000  1
  H  H5  1  0.99927619  0.49927619  0.75000000  1
  H  H6  1  0.49927619  0.99927619  0.75000000  1
  H  H7  1  0.50072381  0.00072381  0.25000000  1
  H  H8  1  0.20930245  0.20930245  0.21523104  1
  H  H9  1  0.79069755  0.79069755  0.78476896  1
  H  H10  1  0.29069755  0.29069755  0.71523104  1
  H  H11  1  0.70930245  0.70930245  0.28476896  1
  Pt  Pt0  1  0.00000000  0.00000000  -0.00000000  1
  Pt  Pt1  1  0.50000000  0.50000000  0.50000000  1
loop_
_geom_bond_atom_site_label_1
_geom_bond_atom_site_label_2
_geom_bond_distance
_geom_bond_site_symmetry_2
H0 Pt0 1.652507 1_655
H0 Sr2 2.831716 1_554
H0 Sr2 2.831716 1_555
H0 Sr1 2.835799 1_545
H0 Sr1 2.835799 1_655
H1 Pt0 1.652507 1_565
H1 Sr3 2.831716 1_554
H1 Sr3 2.831716 1_555
H1 Sr0 2.835799 1_455
H1 Sr0 2.835799 1_565
H2 Pt1 1.652507 1_555
H2 Sr0 2.831716 1_555
H2 Sr0 2.831716 1_556
H2 Sr3 2.835799 1_655
H2 Sr3 2.835799 1_545
H3 Pt1 1.652507 1_555
H3 Sr1 2.831716 1_556
H3 Sr1 2.831716 1_555
H3 Sr2 2.835799 1_565
H3 Sr2 2.835799 1_455
H4 Sr3 2.453523 1_555
H4 Sr1 2.453523 1_555
H4 Sr2 2.458190 1_455
H4 Sr0 2.458190 1_455
H5 Sr2 2.453523 1_555
H5 Sr0 2.453523 1_556
H5 Sr1 2.458190 1_656
H5 Sr3 2.458190 1_655
H6 Sr3 2.453523 1_555
H6 Sr1 2.453523 1_556
H6 Sr2 2.458190 1_565
H6 Sr0 2.458190 1_566
H7 Sr2 2.453523 1_555
H7 Sr0 2.453523 1_555
H7 Sr3 2.458190 1_545
H7 Sr1 2.458190 1_545
H8 Pt0 1.688207 1_555
H8 Pt1 2.288390 1_555
H8 Sr3 2.823166 1_545
H8 Sr2 2.823166 1_455
H8 Sr1 2.856787 1_555
H8 Sr0 2.856787 1_555
H9 Pt0 1.688207 1_666
H9 Pt1 2.288390 1_555
H9 Sr2 2.823166 1_565
H9 Sr3 2.823166 1_655
H9 Sr0 2.856787 1_556
H9 Sr1 2.856787 1_556
H10 Pt1 1.688207 1_555
H10 Pt0 2.288390 1_556
H10 Sr1 2.823166 1_556
H10 Sr0 2.823166 1_556
H10 Sr3 2.856787 1_545
H10 Sr2 2.856787 1_455
H11 Pt1 1.688207 1_555
H11 Pt0 2.288390 1_665
H11 Sr1 2.823166 1_555
H11 Sr0 2.823166 1_555
H11 Sr2 2.856787 1_565
H11 Sr3 2.856787 1_655
