# generated using pymatgen
data_CsDyCdTe3
_symmetry_space_group_name_H-M   'P 1'
_cell_length_a   4.54722600
_cell_length_b   8.98579253
_cell_length_c   11.88901900
_cell_angle_alpha   90.00000000
_cell_angle_beta   90.00000000
_cell_angle_gamma   104.65647551
_symmetry_Int_Tables_number   1
_chemical_formula_structural   CsDyCdTe3
_chemical_formula_sum   'Cs2 Dy2 Cd2 Te6'
_cell_volume   469.98291815
_cell_formula_units_Z   2
loop_
 _symmetry_equiv_pos_site_id
 _symmetry_equiv_pos_as_xyz
  1  'x, y, z'
loop_
 _atom_site_type_symbol
 _atom_site_label
 _atom_site_symmetry_multiplicity
 _atom_site_fract_x
 _atom_site_fract_y
 _atom_site_fract_z
 _atom_site_occupancy
  Cs  Cs0  1  0.75099600  0.50199200  0.25000000  1
  Cs  Cs1  1  0.24900400  0.49800800  0.75000000  1
  Dy  Dy0  1  0.00000000  0.00000000  0.50000000  1
  Dy  Dy1  1  0.00000000  0.00000000  0.00000000  1
  Cd  Cd0  1  0.46309200  0.92618400  0.25000000  1
  Cd  Cd1  1  0.53690800  0.07381600  0.75000000  1
  Te  Te0  1  0.61980500  0.23961000  0.54643900  1
  Te  Te1  1  0.38019500  0.76039000  0.45356100  1
  Te  Te2  1  0.38019500  0.76039000  0.04643900  1
  Te  Te3  1  0.61980500  0.23961000  0.95356100  1
  Te  Te4  1  0.06524500  0.13049000  0.25000000  1
  Te  Te5  1  0.93475500  0.86951000  0.75000000  1
loop_
_geom_bond_atom_site_label_1
_geom_bond_atom_site_label_2
_geom_bond_distance
_geom_bond_site_symmetry_2
Cs0 Te4 3.949649 1_655
Cs0 Te4 3.949649 1_555
Cs0 Te1 4.009054 1_655
Cs0 Te2 4.009054 1_655
Cs0 Te1 4.009054 1_555
Cs0 Te2 4.009054 1_555
Cs0 Te3 4.198106 1_554
Cs0 Te0 4.198106 1_555
Cs1 Te5 3.949649 1_455
Cs1 Te5 3.949649 1_555
Cs1 Te3 4.009054 1_555
Cs1 Te0 4.009054 1_555
Cs1 Te3 4.009054 1_455
Cs1 Te0 4.009054 1_455
Cs1 Te2 4.198106 1_556
Cs1 Te1 4.198106 1_555
Dy0 Te0 3.132593 1_555
Dy0 Te1 3.132593 1_445
Dy0 Te1 3.132593 1_545
Dy0 Te0 3.132593 1_455
Dy0 Te5 3.181378 1_445
Dy0 Te4 3.181378 1_555
Dy1 Te3 3.132593 1_554
Dy1 Te2 3.132593 1_445
Dy1 Te2 3.132593 1_545
Dy1 Te3 3.132593 1_454
Dy1 Te5 3.181378 1_444
Dy1 Te4 3.181378 1_555
Cd0 Te2 2.816818 1_555
Cd0 Te1 2.816818 1_555
Cd0 Te4 2.885116 1_665
Cd0 Te4 2.885116 1_565
Cd1 Te0 2.816818 1_555
Cd1 Te3 2.816818 1_555
Cd1 Te5 2.885116 1_445
Cd1 Te5 2.885116 1_545
