# generated using pymatgen
data_Pr2MgS4
_symmetry_space_group_name_H-M   'P 1'
_cell_length_a   13.13787841
_cell_length_b   7.88167053
_cell_length_c   13.05281125
_cell_angle_alpha   90.00000000
_cell_angle_beta   90.00000000
_cell_angle_gamma   90.00000000
_symmetry_Int_Tables_number   1
_chemical_formula_structural   Pr2MgS4
_chemical_formula_sum   'Pr16 Mg8 S32'
_cell_volume   1351.59810016
_cell_formula_units_Z   8
loop_
 _symmetry_equiv_pos_site_id
 _symmetry_equiv_pos_as_xyz
  1  'x, y, z'
loop_
 _atom_site_type_symbol
 _atom_site_label
 _atom_site_symmetry_multiplicity
 _atom_site_fract_x
 _atom_site_fract_y
 _atom_site_fract_z
 _atom_site_occupancy
  Pr  Pr0  1  0.11001968  0.88615999  0.68349945  1
  Pr  Pr1  1  0.88998032  0.11384001  0.18349945  1
  Pr  Pr2  1  0.38998032  0.88615999  0.18349945  1
  Pr  Pr3  1  0.61001968  0.11384001  0.68349945  1
  Pr  Pr4  1  0.12701169  0.38412672  0.32629043  1
  Pr  Pr5  1  0.87298831  0.61587328  0.82629043  1
  Pr  Pr6  1  0.37298831  0.38412672  0.82629043  1
  Pr  Pr7  1  0.62701169  0.61587328  0.32629043  1
  Pr  Pr8  1  0.13489146  0.63045050  0.99448693  1
  Pr  Pr9  1  0.86510854  0.36954950  0.49448693  1
  Pr  Pr10  1  0.36510854  0.63045050  0.49448693  1
  Pr  Pr11  1  0.63489146  0.36954950  0.99448693  1
  Pr  Pr12  1  0.13607210  0.13016345  0.99335535  1
  Pr  Pr13  1  0.86392790  0.86983655  0.49335535  1
  Pr  Pr14  1  0.36392790  0.13016345  0.49335535  1
  Pr  Pr15  1  0.63607210  0.86983655  0.99335535  1
  Mg  Mg0  1  0.11143892  0.38569577  0.69376494  1
  Mg  Mg1  1  0.88856108  0.61430423  0.19376494  1
  Mg  Mg2  1  0.38856108  0.38569577  0.19376494  1
  Mg  Mg3  1  0.61143892  0.61430423  0.69376494  1
  Mg  Mg4  1  0.12561830  0.88022323  0.31988014  1
  Mg  Mg5  1  0.87438170  0.11977677  0.81988014  1
  Mg  Mg6  1  0.37438170  0.88022323  0.81988014  1
  Mg  Mg7  1  0.62561830  0.11977677  0.31988014  1
  S  S0  1  0.01039843  0.88263835  0.87942836  1
  S  S1  1  0.98960157  0.11736165  0.37942836  1
  S  S2  1  0.48960157  0.88263835  0.37942836  1
  S  S3  1  0.51039843  0.11736165  0.87942836  1
  S  S4  1  0.02762362  0.38296316  0.12879080  1
  S  S5  1  0.97237638  0.61703684  0.62879080  1
  S  S6  1  0.47237638  0.38296316  0.62879080  1
  S  S7  1  0.52762362  0.61703684  0.12879080  1
  S  S8  1  0.02559525  0.37138333  0.86640595  1
  S  S9  1  0.97440475  0.62861667  0.36640595  1
  S  S10  1  0.47440475  0.37138333  0.36640595  1
  S  S11  1  0.52559525  0.62861667  0.86640595  1
  S  S12  1  0.04737141  0.87328325  0.14097301  1
  S  S13  1  0.95262859  0.12671675  0.64097301  1
  S  S14  1  0.45262859  0.87328325  0.64097301  1
  S  S15  1  0.54737141  0.12671675  0.14097301  1
  S  S16  1  0.20967477  0.88033943  0.49414992  1
  S  S17  1  0.79032523  0.11966057  0.99414992  1
  S  S18  1  0.29032523  0.88033943  0.99414992  1
  S  S19  1  0.70967477  0.11966057  0.49414992  1
  S  S20  1  0.20991690  0.38125775  0.52544192  1
  S  S21  1  0.79008310  0.61874225  0.02544192  1
  S  S22  1  0.29008310  0.38125775  0.02544192  1
  S  S23  1  0.70991690  0.61874225  0.52544192  1
  S  S24  1  0.23301946  0.13237144  0.77389294  1
  S  S25  1  0.76698054  0.86762856  0.27389294  1
  S  S26  1  0.26698054  0.13237144  0.27389294  1
  S  S27  1  0.73301946  0.86762856  0.77389294  1
  S  S28  1  0.23151858  0.63407339  0.77664087  1
  S  S29  1  0.76848142  0.36592661  0.27664087  1
  S  S30  1  0.26848142  0.63407339  0.27664087  1
  S  S31  1  0.73151858  0.36592661  0.77664087  1
loop_
_geom_bond_atom_site_label_1
_geom_bond_atom_site_label_2
_geom_bond_distance
_geom_bond_site_symmetry_2
Pr0 S24 2.787331 1_565
Pr0 S16 2.797282 1_555
Pr0 S28 2.823768 1_555
Pr0 S13 2.859831 1_465
Pr0 S0 2.873007 1_555
Pr0 S5 2.877373 1_455
Pr1 S25 2.787331 1_545
Pr1 S17 2.797282 1_554
Pr1 S29 2.823768 1_555
Pr1 S12 2.859831 1_645
Pr1 S1 2.873007 1_555
Pr1 S4 2.877373 1_655
Pr2 S26 2.787331 1_565
Pr2 S18 2.797282 1_554
Pr2 S30 2.823768 1_555
Pr2 S15 2.859831 1_565
Pr2 S2 2.873007 1_555
Pr2 S7 2.877373 1_555
Pr3 S27 2.787331 1_545
Pr3 S19 2.797282 1_555
Pr3 S31 2.823768 1_555
Pr3 S14 2.859831 1_545
Pr3 S3 2.873007 1_555
Pr3 S6 2.877373 1_555
Pr4 S30 2.784837 1_555
Pr4 S26 2.790440 1_555
Pr4 S20 2.818545 1_555
Pr4 S9 2.829702 1_455
Pr4 S1 2.856719 1_455
Pr4 S4 2.889769 1_555
Pr5 S31 2.784837 1_555
Pr5 S27 2.790440 1_555
Pr5 S21 2.818545 1_556
Pr5 S8 2.829702 1_655
Pr5 S0 2.856719 1_655
Pr5 S5 2.889769 1_555
Pr6 S28 2.784837 1_555
Pr6 S24 2.790440 1_555
Pr6 S22 2.818545 1_556
Pr6 S11 2.829702 1_555
Pr6 S3 2.856719 1_555
Pr6 S6 2.889769 1_555
Pr7 S29 2.784837 1_555
Pr7 S25 2.790440 1_555
Pr7 S23 2.818545 1_555
Pr7 S10 2.829702 1_555
Pr7 S2 2.856719 1_555
Pr7 S7 2.889769 1_555
Pr8 S18 2.837105 1_555
Pr8 S22 2.859692 1_556
Pr8 S12 2.939588 1_556
Pr8 S4 2.977264 1_556
Pr8 S0 2.980171 1_555
Pr8 S8 3.004350 1_555
Pr8 S28 3.114144 1_555
Pr9 S19 2.837105 1_555
Pr9 S23 2.859692 1_555
Pr9 S13 2.939588 1_555
Pr9 S5 2.977264 1_555
Pr9 S1 2.980171 1_555
Pr9 S9 3.004350 1_555
Pr9 S29 3.114144 1_555
Pr10 S16 2.837105 1_555
Pr10 S20 2.859692 1_555
Pr10 S14 2.939588 1_555
Pr10 S6 2.977264 1_555
Pr10 S2 2.980171 1_555
Pr10 S10 3.004350 1_555
Pr10 S30 3.114144 1_555
Pr11 S17 2.837105 1_555
Pr11 S21 2.859692 1_556
Pr11 S15 2.939588 1_556
Pr11 S7 2.977264 1_556
Pr11 S3 2.980171 1_555
Pr11 S11 3.004350 1_555
Pr11 S31 3.114144 1_555
Pr12 S18 2.825620 1_545
Pr12 S22 2.861132 1_556
Pr12 S8 2.909824 1_555
Pr12 S0 2.956942 1_545
Pr12 S4 3.020788 1_556
Pr12 S12 3.028177 1_546
Pr12 S24 3.135046 1_555
Pr13 S19 2.825620 1_565
Pr13 S23 2.861132 1_555
Pr13 S9 2.909824 1_555
Pr13 S1 2.956942 1_565
Pr13 S5 3.020788 1_555
Pr13 S13 3.028177 1_565
Pr13 S25 3.135046 1_555
Pr14 S16 2.825620 1_545
Pr14 S20 2.861132 1_555
Pr14 S10 2.909824 1_555
Pr14 S2 2.956942 1_545
Pr14 S6 3.020788 1_555
Pr14 S14 3.028177 1_545
Pr14 S26 3.135046 1_555
Pr15 S17 2.825620 1_565
Pr15 S21 2.861132 1_556
Pr15 S11 2.909824 1_555
Pr15 S3 2.956942 1_565
Pr15 S7 3.020788 1_556
Pr15 S15 3.028177 1_566
Pr15 S27 3.135046 1_555
Mg0 S8 2.522440 1_555
Mg0 S20 2.549964 1_555
Mg0 S5 2.716941 1_455
Mg0 S28 2.737029 1_555
Mg0 S24 2.762569 1_555
Mg0 S13 2.999079 1_455
Mg1 S9 2.522440 1_555
Mg1 S21 2.549964 1_555
Mg1 S4 2.716941 1_655
Mg1 S29 2.737029 1_555
Mg1 S25 2.762569 1_555
Mg1 S12 2.999079 1_655
Mg2 S10 2.522440 1_555
Mg2 S22 2.549964 1_555
Mg2 S7 2.716941 1_555
Mg2 S30 2.737029 1_555
Mg2 S26 2.762569 1_555
Mg2 S15 2.999079 1_555
Mg3 S11 2.522440 1_555
Mg3 S23 2.549964 1_555
Mg3 S6 2.716941 1_555
Mg3 S31 2.737029 1_555
Mg3 S27 2.762569 1_555
Mg3 S14 2.999079 1_555
Mg4 S16 2.528604 1_555
Mg4 S12 2.552082 1_555
Mg4 S1 2.700140 1_465
Mg4 S30 2.757760 1_555
Mg4 S26 2.785509 1_565
Mg4 S9 2.871949 1_455
Mg5 S17 2.528604 1_555
Mg5 S13 2.552082 1_555
Mg5 S0 2.700140 1_645
Mg5 S31 2.757760 1_555
Mg5 S27 2.785509 1_545
Mg5 S8 2.871949 1_655
Mg6 S18 2.528604 1_555
Mg6 S14 2.552082 1_555
Mg6 S3 2.700140 1_565
Mg6 S28 2.757760 1_555
Mg6 S24 2.785509 1_565
Mg6 S11 2.871949 1_555
Mg7 S19 2.528604 1_555
Mg7 S15 2.552082 1_555
Mg7 S2 2.700140 1_545
Mg7 S29 2.757760 1_555
Mg7 S25 2.785509 1_545
Mg7 S10 2.871949 1_555
