# generated using pymatgen
data_KLaDyBiO6
_symmetry_space_group_name_H-M   'P 1'
_cell_length_a   6.06259212
_cell_length_b   6.06259212
_cell_length_c   6.06259212
_cell_angle_alpha   60.00000000
_cell_angle_beta   60.00000000
_cell_angle_gamma   60.00000000
_symmetry_Int_Tables_number   1
_chemical_formula_structural   KLaDyBiO6
_chemical_formula_sum   'K1 La1 Dy1 Bi1 O6'
_cell_volume   157.56510904
_cell_formula_units_Z   1
loop_
 _symmetry_equiv_pos_site_id
 _symmetry_equiv_pos_as_xyz
  1  'x, y, z'
loop_
 _atom_site_type_symbol
 _atom_site_label
 _atom_site_symmetry_multiplicity
 _atom_site_fract_x
 _atom_site_fract_y
 _atom_site_fract_z
 _atom_site_occupancy
  K  K0  1  0.75000000  0.75000000  0.75000000  1
  La  La0  1  0.25000000  0.25000000  0.25000000  1
  Dy  Dy0  1  0.50000000  0.50000000  0.50000000  1
  Bi  Bi0  1  0.00000000  0.00000000  0.00000000  1
  O  O0  1  0.75540000  0.24460000  0.24460000  1
  O  O1  1  0.24460000  0.75540000  0.75540000  1
  O  O2  1  0.75540000  0.24460000  0.75540000  1
  O  O3  1  0.24460000  0.75540000  0.24460000  1
  O  O4  1  0.75540000  0.75540000  0.24460000  1
  O  O5  1  0.24460000  0.24460000  0.75540000  1
loop_
_geom_bond_atom_site_label_1
_geom_bond_atom_site_label_2
_geom_bond_distance
_geom_bond_site_symmetry_2
K0 O5 3.031650 1_655
K0 O3 3.031650 1_556
K0 O0 3.031650 1_556
K0 O2 3.031650 1_555
K0 O4 3.031650 1_555
K0 O1 3.031650 1_555
K0 O0 3.031650 1_565
K0 O3 3.031650 1_655
K0 O1 3.031650 1_655
K0 O5 3.031650 1_565
K0 O2 3.031650 1_565
K0 O4 3.031650 1_556
La0 O0 3.031650 1_455
La0 O3 3.031650 1_545
La0 O5 3.031650 1_554
La0 O2 3.031650 1_455
La0 O2 3.031650 1_554
La0 O4 3.031650 1_545
La0 O1 3.031650 1_545
La0 O1 3.031650 1_554
La0 O3 3.031650 1_555
La0 O0 3.031650 1_555
La0 O4 3.031650 1_455
La0 O5 3.031650 1_555
Dy0 O5 2.189749 1_555
Dy0 O3 2.189749 1_555
Dy0 O0 2.189749 1_555
Dy0 O2 2.189749 1_555
Dy0 O4 2.189749 1_555
Dy0 O1 2.189749 1_555
Bi0 O4 2.097151 1_445
Bi0 O2 2.097151 1_454
Bi0 O1 2.097151 1_544
Bi0 O5 2.097151 1_554
Bi0 O0 2.097151 1_455
Bi0 O3 2.097151 1_545
