# generated using pymatgen
data_Li2MnNiO4
_symmetry_space_group_name_H-M   'P 1'
_cell_length_a   5.17579764
_cell_length_b   5.17578554
_cell_length_c   5.73598800
_cell_angle_alpha   89.99996250
_cell_angle_beta   89.99996953
_cell_angle_gamma   67.32331056
_symmetry_Int_Tables_number   1
_chemical_formula_structural   Li2MnNiO4
_chemical_formula_sum   'Li4 Mn2 Ni2 O8'
_cell_volume   141.78163174
_cell_formula_units_Z   2
loop_
 _symmetry_equiv_pos_site_id
 _symmetry_equiv_pos_as_xyz
  1  'x, y, z'
loop_
 _atom_site_type_symbol
 _atom_site_label
 _atom_site_symmetry_multiplicity
 _atom_site_fract_x
 _atom_site_fract_y
 _atom_site_fract_z
 _atom_site_occupancy
  Li  Li0  1  0.00000000  0.50000100  0.25000000  1
  Li  Li1  1  0.50000100  0.00000000  0.75000000  1
  Li  Li2  1  0.50000100  0.50000100  0.99975200  1
  Li  Li3  1  0.00000200  0.99999900  0.50024800  1
  Mn  Mn0  1  0.99999400  0.49998300  0.74999400  1
  Mn  Mn1  1  0.49999800  0.00000700  0.25000300  1
  Ni  Ni0  1  0.99999800  0.00000400  0.99815000  1
  Ni  Ni1  1  0.49999500  0.50000400  0.50185400  1
  O  O0  1  0.27788000  0.77788000  0.24999900  1
  O  O1  1  0.77643500  0.27643200  0.75000100  1
  O  O2  1  0.72212200  0.22212000  0.24999900  1
  O  O3  1  0.22356600  0.72356600  0.75000000  1
  O  O4  1  0.23006900  0.24867900  0.99059100  1
  O  O5  1  0.74868300  0.73006500  0.50941000  1
  O  O6  1  0.25132000  0.26993600  0.50941000  1
  O  O7  1  0.76993500  0.75132200  0.99059100  1
loop_
_geom_bond_atom_site_label_1
_geom_bond_atom_site_label_2
_geom_bond_distance
_geom_bond_site_symmetry_2
Li0 O5 2.032159 1_455
Li0 O7 2.032165 1_454
Li0 O6 2.032167 1_555
Li0 O4 2.032174 1_554
Li0 O2 2.394178 1_455
Li0 O0 2.394178 1_555
Li1 O4 2.031379 1_555
Li1 O7 2.031381 1_545
Li1 O5 2.031387 1_545
Li1 O6 2.031387 1_555
Li1 O1 2.381715 1_555
Li1 O3 2.381728 1_545
Li2 O1 2.040039 1_555
Li2 O3 2.040039 1_555
Li2 O0 2.043458 1_556
Li2 O2 2.043463 1_556
Li2 O4 2.246781 1_555
Li2 O7 2.246786 1_555
Li3 O3 2.040032 1_555
Li3 O1 2.040041 1_465
Li3 O0 2.043462 1_555
Li3 O2 2.043470 1_465
Li3 O5 2.246777 1_455
Li3 O6 2.246786 1_565
Mn0 O1 1.926124 1_555
Mn0 O3 1.926318 1_655
Mn0 O6 1.954464 1_655
Mn0 O5 1.954494 1_555
Mn0 O4 1.954518 1_655
Mn0 O7 1.954567 1_555
Mn1 O2 1.913747 1_555
Mn1 O0 1.913782 1_545
Mn1 O6 2.106181 1_555
Mn1 O4 2.106191 1_554
Mn1 O5 2.106223 1_545
Mn1 O7 2.106232 1_544
Ni0 O1 2.033571 1_555
Ni0 O3 2.033608 1_645
Ni0 O2 2.049909 1_556
Ni0 O0 2.049936 1_646
Ni0 O7 2.063553 1_545
Ni0 O4 2.063556 1_655
Ni1 O3 2.033561 1_555
Ni1 O1 2.033608 1_555
Ni1 O0 2.049931 1_555
Ni1 O2 2.049970 1_555
Ni1 O6 2.063543 1_555
Ni1 O5 2.063571 1_555
