# generated using pymatgen
data_Pr
_symmetry_space_group_name_H-M   'P 1'
_cell_length_a   7.42392980
_cell_length_b   7.41832585
_cell_length_c   12.82683841
_cell_angle_alpha   73.23032932
_cell_angle_beta   73.17852231
_cell_angle_gamma   59.97500779
_symmetry_Int_Tables_number   1
_chemical_formula_structural   Pr
_chemical_formula_sum   Pr16
_cell_volume   576.57764777
_cell_formula_units_Z   16
loop_
 _symmetry_equiv_pos_site_id
 _symmetry_equiv_pos_as_xyz
  1  'x, y, z'
loop_
 _atom_site_type_symbol
 _atom_site_label
 _atom_site_symmetry_multiplicity
 _atom_site_fract_x
 _atom_site_fract_y
 _atom_site_fract_z
 _atom_site_occupancy
  Pr  Pr0_0  1  0.12901845  0.36680068  0.37516241  1
  Pr  Pr0_1  1  0.12901845  0.36680068  0.87516241  1
  Pr  Pr0_2  1  0.12901845  0.86680068  0.37516241  1
  Pr  Pr0_3  1  0.12901845  0.86680068  0.87516241  1
  Pr  Pr0_4  1  0.62901845  0.36680068  0.37516241  1
  Pr  Pr0_5  1  0.62901845  0.36680068  0.87516241  1
  Pr  Pr0_6  1  0.62901845  0.86680068  0.37516241  1
  Pr  Pr0_7  1  0.62901845  0.86680068  0.87516241  1
  Pr  Pr1_0  1  0.37098155  0.13319932  0.12483759  1
  Pr  Pr1_1  1  0.37098154  0.13319932  0.62483759  1
  Pr  Pr1_2  1  0.37098155  0.63319932  0.12483759  1
  Pr  Pr1_3  1  0.37098155  0.63319932  0.62483759  1
  Pr  Pr1_4  1  0.87098154  0.13319932  0.12483759  1
  Pr  Pr1_5  1  0.87098154  0.13319932  0.62483759  1
  Pr  Pr1_6  1  0.87098155  0.63319932  0.12483759  1
  Pr  Pr1_7  1  0.87098154  0.63319932  0.62483759  1
loop_
_geom_bond_atom_site_label_1
_geom_bond_atom_site_label_2
_geom_bond_distance
_geom_bond_site_symmetry_2
Pr0_0 Pr1_0 3.646485 1_555
Pr0_0 Pr1_5 3.673954 1_455
Pr0_0 Pr1_1 3.673954 1_555
Pr0_0 Pr0_6 3.709163 1_545
Pr0_0 Pr0_6 3.709163 1_455
Pr0_0 Pr0_2 3.709163 1_545
Pr0_0 Pr0_2 3.709163 1_555
Pr0_0 Pr0_4 3.711965 1_555
Pr0_0 Pr0_4 3.711965 1_455
Pr0_0 Pr1_2 3.740948 1_555
Pr0_0 Pr1_6 3.740949 1_455
Pr0_0 Pr1_7 3.760877 1_455
Pr0_1 Pr1_1 3.646485 1_555
Pr0_1 Pr1_4 3.673954 1_456
Pr0_1 Pr1_0 3.673954 1_556
Pr0_1 Pr0_3 3.709163 1_555
Pr0_1 Pr0_7 3.709163 1_455
Pr0_1 Pr0_7 3.709163 1_545
Pr0_1 Pr0_3 3.709163 1_545
Pr0_1 Pr0_5 3.711965 1_555
Pr0_1 Pr0_5 3.711965 1_455
Pr0_1 Pr1_3 3.740948 1_555
Pr0_1 Pr1_7 3.740949 1_455
Pr0_1 Pr1_6 3.760877 1_456
Pr0_2 Pr1_2 3.646485 1_555
Pr0_2 Pr1_7 3.673954 1_455
Pr0_2 Pr1_3 3.673954 1_555
Pr0_2 Pr0_4 3.709163 1_555
Pr0_2 Pr0_4 3.709163 1_465
Pr0_2 Pr0_6 3.711965 1_455
Pr0_2 Pr0_6 3.711965 1_555
Pr0_2 Pr1_0 3.740948 1_565
Pr0_2 Pr1_4 3.740949 1_465
Pr0_2 Pr1_5 3.760877 1_465
Pr0_3 Pr1_3 3.646485 1_555
Pr0_3 Pr1_6 3.673954 1_456
Pr0_3 Pr1_2 3.673954 1_556
Pr0_3 Pr0_5 3.709163 1_555
Pr0_3 Pr0_5 3.709163 1_465
Pr0_3 Pr0_7 3.711965 1_455
Pr0_3 Pr0_7 3.711965 1_555
Pr0_3 Pr1_1 3.740948 1_565
Pr0_3 Pr1_5 3.740949 1_465
Pr0_3 Pr1_4 3.760877 1_466
Pr0_4 Pr1_4 3.646485 1_555
Pr0_4 Pr1_1 3.673954 1_555
Pr0_4 Pr1_5 3.673954 1_555
Pr0_4 Pr0_6 3.709163 1_545
Pr0_4 Pr0_6 3.709163 1_555
Pr0_4 Pr1_6 3.740948 1_555
Pr0_4 Pr1_2 3.740949 1_555
Pr0_4 Pr1_3 3.760877 1_555
Pr0_5 Pr1_5 3.646485 1_555
Pr0_5 Pr1_0 3.673954 1_556
Pr0_5 Pr1_4 3.673954 1_556
Pr0_5 Pr0_7 3.709163 1_555
Pr0_5 Pr0_7 3.709163 1_545
Pr0_5 Pr1_7 3.740948 1_555
Pr0_5 Pr1_3 3.740949 1_555
Pr0_5 Pr1_2 3.760877 1_556
Pr0_6 Pr1_6 3.646485 1_555
Pr0_6 Pr1_3 3.673954 1_555
Pr0_6 Pr1_7 3.673954 1_555
Pr0_6 Pr1_4 3.740948 1_565
Pr0_6 Pr1_0 3.740949 1_565
Pr0_6 Pr1_1 3.760877 1_565
Pr0_7 Pr1_7 3.646485 1_555
Pr0_7 Pr1_2 3.673954 1_556
Pr0_7 Pr1_6 3.673954 1_556
Pr0_7 Pr1_5 3.740948 1_565
Pr0_7 Pr1_1 3.740949 1_565
Pr0_7 Pr1_0 3.760877 1_566
Pr1_0 Pr1_2 3.709163 1_545
Pr1_0 Pr1_6 3.709163 1_455
Pr1_0 Pr1_6 3.709163 1_545
Pr1_0 Pr1_2 3.709163 1_555
Pr1_0 Pr1_4 3.711965 1_555
Pr1_0 Pr1_4 3.711965 1_455
Pr1_1 Pr1_3 3.709163 1_555
Pr1_1 Pr1_7 3.709163 1_455
Pr1_1 Pr1_7 3.709163 1_545
Pr1_1 Pr1_3 3.709163 1_545
Pr1_1 Pr1_5 3.711965 1_555
Pr1_1 Pr1_5 3.711965 1_455
Pr1_2 Pr1_4 3.709163 1_555
Pr1_2 Pr1_4 3.709163 1_465
Pr1_2 Pr1_6 3.711965 1_555
Pr1_2 Pr1_6 3.711965 1_455
Pr1_3 Pr1_5 3.709163 1_555
Pr1_3 Pr1_5 3.709163 1_465
Pr1_3 Pr1_7 3.711965 1_555
Pr1_3 Pr1_7 3.711965 1_455
Pr1_4 Pr1_6 3.709163 1_545
Pr1_4 Pr1_6 3.709163 1_555
Pr1_5 Pr1_7 3.709163 1_555
Pr1_5 Pr1_7 3.709163 1_545
