# generated using pymatgen
data_H5(C2N3)6
_symmetry_space_group_name_H-M   'P 1'
_cell_length_a   8.79685569
_cell_length_b   10.67959876
_cell_length_c   10.98366577
_cell_angle_alpha   106.86003702
_cell_angle_beta   100.45704216
_cell_angle_gamma   95.05857874
_symmetry_Int_Tables_number   1
_chemical_formula_structural   H5(C2N3)6
_chemical_formula_sum   'H10 C24 N36'
_cell_volume   960.19329346
_cell_formula_units_Z   2
loop_
 _symmetry_equiv_pos_site_id
 _symmetry_equiv_pos_as_xyz
  1  'x, y, z'
loop_
 _atom_site_type_symbol
 _atom_site_label
 _atom_site_symmetry_multiplicity
 _atom_site_fract_x
 _atom_site_fract_y
 _atom_site_fract_z
 _atom_site_occupancy
  H  H0  1  0.62996800  0.42242200  0.47580300  1
  H  H1  1  0.80080300  0.37795400  0.55803900  1
  H  H2  1  0.36511600  0.57563200  0.51462100  1
  H  H3  1  0.19271700  0.62065500  0.43448300  1
  H  H4  1  0.00660800  0.38018800  0.76809900  1
  H  H5  1  0.98546300  0.61942100  0.22306100  1
  H  H6  1  0.47763100  0.07857300  0.63549400  1
  H  H7  1  0.56634900  0.12066600  0.80483800  1
  H  H8  1  0.51407900  0.92317900  0.36125400  1
  H  H9  1  0.43149400  0.88030200  0.19042000  1
  C  C0  1  0.86435100  0.16541200  0.19379500  1
  C  C1  1  0.09348300  0.07786100  0.24913800  1
  C  C2  1  0.97934100  0.21854900  0.41556600  1
  C  C3  1  0.21686400  0.13131100  0.47842700  1
  C  C4  1  0.10333200  0.26244600  0.62931600  1
  C  C5  1  0.19933300  0.33642500  0.87243600  1
  C  C6  1  0.24656400  0.42397100  0.09476500  1
  C  C7  1  0.63385500  0.23474400  0.10372300  1
  C  C8  1  0.47809100  0.36922700  0.21752500  1
  C  C9  1  0.31615400  0.50127900  0.31822200  1
  C  C10  1  0.67697400  0.49885300  0.67265300  1
  C  C11  1  0.51416200  0.63009500  0.77317900  1
  C  C12  1  0.35950400  0.76571800  0.88785400  1
  C  C13  1  0.74588700  0.57560900  0.89609900  1
  C  C14  1  0.57707600  0.71619100  0.00870400  1
  C  C15  1  0.79273300  0.66265600  0.11836300  1
  C  C16  1  0.88830700  0.73714900  0.36157400  1
  C  C17  1  0.77529900  0.86955900  0.51239100  1
  C  C18  1  0.01212200  0.78120900  0.57526500  1
  C  C19  1  0.89810900  0.92068700  0.74150100  1
  C  C20  1  0.13029800  0.83575000  0.79842600  1
  C  C21  1  0.31839700  0.00051200  0.31615200  1
  C  C22  1  0.41590800  0.28375500  0.98214300  1
  C  C23  1  0.67544400  0.00101700  0.67573200  1
  N  N0  1  0.86767200  0.22841800  0.32188100  1
  N  N1  1  0.97360800  0.08602600  0.15971000  1
  N  N2  1  0.09743600  0.14414500  0.38179300  1
  N  N3  1  0.98222800  0.27801000  0.54143400  1
  N  N4  1  0.32538800  0.05863800  0.44622700  1
  N  N5  1  0.21787600  0.19212100  0.60397200  1
  N  N6  1  0.09852100  0.32826900  0.75648300  1
  N  N7  1  0.32301700  0.27278700  0.86788700  1
  N  N8  1  0.15772400  0.41246200  0.97860700  1
  N  N9  1  0.21459200  0.49462600  0.20594200  1
  N  N10  1  0.37968500  0.35877500  0.09810500  1
  N  N11  1  0.54232900  0.22523700  0.98528700  1
  N  N12  1  0.75598800  0.16856500  0.09361400  1
  N  N13  1  0.60087000  0.30395500  0.21798300  1
  N  N14  1  0.44653600  0.44093100  0.32746400  1
  N  N15  1  0.28753400  0.57108600  0.43096400  1
  N  N16  1  0.70655200  0.42820200  0.56017100  1
  N  N17  1  0.54675500  0.55948900  0.66313000  1
  N  N18  1  0.38668200  0.68962900  0.77391100  1
  N  N19  1  0.23942900  0.83412400  0.89767200  1
  N  N20  1  0.77724800  0.50415100  0.78496300  1
  N  N21  1  0.61317000  0.64122300  0.89263200  1
  N  N22  1  0.45312600  0.77758300  0.00578200  1
  N  N23  1  0.83544700  0.58783100  0.01218500  1
  N  N24  1  0.66853800  0.72534500  0.12301800  1
  N  N25  1  0.89338800  0.67109400  0.23452900  1
  N  N26  1  0.77342000  0.80725700  0.38697700  1
  N  N27  1  0.66476600  0.93991700  0.54536200  1
  N  N28  1  0.00848800  0.72021100  0.44976900  1
  N  N29  1  0.89610900  0.85809000  0.60862700  1
  N  N30  1  0.12283500  0.77035200  0.66950200  1
  N  N31  1  0.01095500  0.90327100  0.83062700  1
  N  N32  1  0.78800000  0.99162900  0.77431600  1
  N  N33  1  0.43008000  0.92928300  0.28595800  1
  N  N34  1  0.20440700  0.00738100  0.21698200  1
  N  N35  1  0.56498400  0.07271100  0.70827100  1
loop_
_geom_bond_atom_site_label_1
_geom_bond_atom_site_label_2
_geom_bond_distance
_geom_bond_site_symmetry_2
H0 N16 1.024336 1_555
H1 N16 1.026726 1_555
H2 N15 1.026198 1_555
H3 N15 1.027201 1_555
H4 N6 1.026127 1_555
H5 N25 1.025666 1_555
H6 N35 1.023680 1_555
H7 N35 1.032776 1_555
H8 N33 1.025754 1_555
H9 N33 1.030734 1_555
C0 N12 1.329288 1_555
C0 N0 1.365779 1_555
C0 N1 1.368534 1_555
C1 N34 1.320555 1_555
C1 N1 1.332043 1_455
C1 N2 1.415714 1_555
C2 N0 1.322568 1_555
C2 N3 1.338036 1_555
C2 N2 1.400971 1_655
C3 N4 1.316374 1_555
C3 N5 1.341037 1_555
C3 N2 1.397889 1_555
C4 N5 1.330739 1_555
C4 N3 1.358426 1_455
C4 N6 1.379869 1_555
C5 N7 1.333656 1_555
C5 N8 1.345862 1_555
C5 N6 1.388568 1_555
C6 N9 1.329376 1_555
C6 N8 1.335588 1_554
C6 N10 1.414388 1_555
C7 N12 1.340836 1_555
C7 N13 1.355531 1_555
C7 N11 1.370977 1_554
C8 N14 1.320745 1_555
C8 N13 1.336161 1_555
C8 N10 1.402915 1_555
C9 N15 1.327920 1_555
C9 N9 1.364616 1_555
C9 N14 1.366461 1_555
C10 N16 1.331900 1_555
C10 N20 1.363351 1_555
C10 N17 1.367153 1_555
C11 N17 1.321768 1_555
C11 N18 1.337138 1_555
C11 N21 1.403786 1_555
C12 N19 1.338953 1_555
C12 N18 1.355255 1_555
C12 N22 1.367937 1_556
C13 N20 1.329497 1_555
C13 N23 1.335729 1_556
C13 N21 1.413904 1_555
C14 N22 1.321127 1_555
C14 N24 1.334774 1_555
C14 N21 1.402449 1_554
C15 N24 1.331862 1_555
C15 N23 1.345831 1_555
C15 N25 1.388979 1_555
C16 N26 1.332090 1_555
C16 N28 1.361039 1_655
C16 N25 1.379866 1_555
C17 N27 1.319095 1_555
C17 N26 1.341133 1_555
C17 N29 1.397147 1_555
C18 N30 1.325497 1_555
C18 N28 1.335985 1_555
C18 N29 1.399617 1_455
C19 N32 1.319040 1_555
C19 N31 1.328066 1_655
C19 N29 1.414161 1_555
C20 N19 1.320701 1_555
C20 N31 1.366598 1_555
C20 N30 1.371787 1_555
C21 N33 1.325745 1_545
C21 N34 1.363892 1_555
C21 N4 1.370121 1_555
C22 N11 1.322754 1_555
C22 N7 1.334900 1_555
C22 N10 1.402185 1_556
C23 N35 1.325408 1_555
C23 N32 1.361694 1_545
C23 N27 1.372380 1_545
