# generated using pymatgen
data_Mg14ZnCo
_symmetry_space_group_name_H-M   'P 1'
_cell_length_a   6.26223667
_cell_length_b   6.26223618
_cell_length_c   9.74640246
_cell_angle_alpha   90.00000000
_cell_angle_beta   90.00000000
_cell_angle_gamma   120.00000253
_symmetry_Int_Tables_number   1
_chemical_formula_structural   Mg14ZnCo
_chemical_formula_sum   'Mg14 Zn1 Co1'
_cell_volume   331.00448743
_cell_formula_units_Z   1
loop_
 _symmetry_equiv_pos_site_id
 _symmetry_equiv_pos_as_xyz
  1  'x, y, z'
loop_
 _atom_site_type_symbol
 _atom_site_label
 _atom_site_symmetry_multiplicity
 _atom_site_fract_x
 _atom_site_fract_y
 _atom_site_fract_z
 _atom_site_occupancy
  Mg  Mg0  1  0.16680468  0.83340184  0.12500000  1
  Mg  Mg1  1  0.16531013  0.83265456  0.62500000  1
  Mg  Mg2  1  0.66659816  0.33319532  0.12500000  1
  Mg  Mg3  1  0.66734544  0.33468987  0.62500000  1
  Mg  Mg4  1  0.66659816  0.83340184  0.12500000  1
  Mg  Mg5  1  0.66734544  0.83265456  0.62500000  1
  Mg  Mg6  1  0.32477429  0.17522571  0.38093410  1
  Mg  Mg7  1  0.32477429  0.17522571  0.86906590  1
  Mg  Mg8  1  0.32477429  0.64954958  0.38093410  1
  Mg  Mg9  1  0.32477429  0.64954958  0.86906590  1
  Mg  Mg10  1  0.85045042  0.17522571  0.38093410  1
  Mg  Mg11  1  0.85045042  0.17522571  0.86906590  1
  Mg  Mg12  1  0.83333300  0.66666700  0.37251949  1
  Mg  Mg13  1  0.83333300  0.66666700  0.87748051  1
  Zn  Zn0  1  0.16666700  0.33333300  0.12500000  1
  Co  Co0  1  0.16666700  0.33333300  0.62500000  1
loop_
_geom_bond_atom_site_label_1
_geom_bond_atom_site_label_2
_geom_bond_distance
_geom_bond_site_symmetry_2
Mg0 Mg13 3.015041 1_454
Mg0 Mg12 3.015041 1_455
Mg0 Mg8 3.108908 1_555
Mg0 Mg9 3.108908 1_554
Mg0 Mg6 3.108915 1_565
Mg0 Mg7 3.108915 1_564
Mg0 Mg2 3.129825 1_565
Mg0 Mg4 3.129825 1_555
Mg0 Zn0 3.131118 1_555
Mg0 Zn0 3.131118 1_565
Mg0 Mg2 3.132411 1_455
Mg0 Mg4 3.132412 1_455
Mg1 Mg9 3.019200 1_555
Mg1 Mg8 3.019200 1_555
Mg1 Mg7 3.019207 1_565
Mg1 Mg6 3.019207 1_565
Mg1 Mg12 3.049074 1_455
Mg1 Mg13 3.049074 1_455
Mg1 Mg3 3.118373 1_455
Mg1 Mg5 3.118373 1_455
Mg1 Mg3 3.143864 1_565
Mg1 Mg5 3.143864 1_555
Mg2 Mg7 3.108915 1_554
Mg2 Mg6 3.108915 1_555
Mg2 Mg4 3.129825 1_545
Mg2 Zn0 3.131118 1_555
Mg2 Zn0 3.131118 1_655
Mg2 Mg4 3.132411 1_555
Mg3 Mg7 3.019207 1_555
Mg3 Mg6 3.019207 1_555
Mg3 Mg5 3.118372 1_555
Mg3 Mg5 3.143864 1_545
Mg4 Mg8 3.108915 1_555
Mg4 Mg9 3.108915 1_554
Mg4 Zn0 3.131118 1_555
Mg4 Zn0 3.131118 1_665
Mg5 Mg9 3.019207 1_555
Mg5 Mg8 3.019207 1_555
Mg6 Zn0 3.027068 1_555
Mg7 Zn0 3.027068 1_556
Mg8 Zn0 3.027074 1_555
Mg9 Zn0 3.027074 1_556
Mg10 Mg3 3.019200 1_555
Mg10 Mg5 3.019207 1_545
Mg10 Zn0 3.027074 1_655
Mg10 Mg2 3.108908 1_555
Mg10 Mg4 3.108914 1_545
Mg10 Mg12 3.133567 1_545
Mg10 Mg12 3.133567 1_555
Mg11 Mg3 3.019200 1_555
Mg11 Mg5 3.019207 1_545
Mg11 Zn0 3.027074 1_656
Mg11 Mg2 3.108908 1_556
Mg11 Mg4 3.108914 1_546
Mg11 Mg13 3.133567 1_545
Mg11 Mg13 3.133567 1_555
Mg12 Mg4 3.015035 1_555
Mg12 Mg2 3.015041 1_555
Mg12 Mg5 3.049067 1_555
Mg12 Mg3 3.049074 1_555
Mg12 Mg6 3.133567 1_665
Mg12 Mg6 3.133567 1_555
Mg12 Mg8 3.133568 1_655
Mg12 Mg8 3.133568 1_555
Mg13 Mg4 3.015035 1_556
Mg13 Mg2 3.015041 1_556
Mg13 Mg5 3.049067 1_555
Mg13 Mg3 3.049074 1_555
Mg13 Mg7 3.133567 1_665
Mg13 Mg7 3.133567 1_555
Mg13 Mg9 3.133568 1_655
Mg13 Mg9 3.133568 1_555
Co0 Mg6 2.932481 1_555
Co0 Mg7 2.932481 1_555
Co0 Mg8 2.932487 1_555
Co0 Mg9 2.932487 1_555
Co0 Mg11 2.932487 1_455
Co0 Mg10 2.932487 1_455
Co0 Mg1 3.131127 1_555
Co0 Mg5 3.131127 1_445
Co0 Mg5 3.131127 1_555
Co0 Mg1 3.131127 1_545
Co0 Mg3 3.131127 1_455
Co0 Mg3 3.131127 1_555
