# generated using pymatgen
data_Li2Ge7O15
_symmetry_space_group_name_H-M   'P 1'
_cell_length_a   17.16073500
_cell_length_b   7.48149500
_cell_length_c   9.78734600
_cell_angle_alpha   90.00000000
_cell_angle_beta   90.00000000
_cell_angle_gamma   90.00000000
_symmetry_Int_Tables_number   1
_chemical_formula_structural   Li2Ge7O15
_chemical_formula_sum   'Li8 Ge28 O60'
_cell_volume   1256.57731921
_cell_formula_units_Z   4
loop_
 _symmetry_equiv_pos_site_id
 _symmetry_equiv_pos_as_xyz
  1  'x, y, z'
loop_
 _atom_site_type_symbol
 _atom_site_label
 _atom_site_symmetry_multiplicity
 _atom_site_fract_x
 _atom_site_fract_y
 _atom_site_fract_z
 _atom_site_occupancy
  Li  Li0  1  0.74416600  0.24051100  0.99362400  1
  Li  Li1  1  0.25583400  0.75948900  0.49362400  1
  Li  Li2  1  0.75583400  0.24051100  0.49362400  1
  Li  Li3  1  0.24416600  0.75948900  0.99362400  1
  Li  Li4  1  0.00704500  0.26484000  0.74919400  1
  Li  Li5  1  0.99295500  0.73516000  0.24919400  1
  Li  Li6  1  0.49295500  0.26484000  0.24919400  1
  Li  Li7  1  0.50704500  0.73516000  0.74919400  1
  Ge  Ge0  1  0.83711100  0.25040200  0.74950200  1
  Ge  Ge1  1  0.16288900  0.74959800  0.24950200  1
  Ge  Ge2  1  0.66288900  0.25040200  0.24950200  1
  Ge  Ge3  1  0.33711100  0.74959800  0.74950200  1
  Ge  Ge4  1  0.19080700  0.46011400  0.75194600  1
  Ge  Ge5  1  0.80919300  0.53988600  0.25194600  1
  Ge  Ge6  1  0.30919300  0.46011400  0.25194600  1
  Ge  Ge7  1  0.69080700  0.53988600  0.75194600  1
  Ge  Ge8  1  0.91286500  0.54051200  0.96692500  1
  Ge  Ge9  1  0.08713500  0.45948800  0.46692500  1
  Ge  Ge10  1  0.58713500  0.54051200  0.46692500  1
  Ge  Ge11  1  0.41286500  0.45948800  0.96692500  1
  Ge  Ge12  1  0.90524300  0.53732100  0.52714800  1
  Ge  Ge13  1  0.09475700  0.46267900  0.02714800  1
  Ge  Ge14  1  0.59475700  0.53732100  0.02714800  1
  Ge  Ge15  1  0.40524300  0.46267900  0.52714800  1
  Ge  Ge16  1  0.30744300  0.03732800  0.24979000  1
  Ge  Ge17  1  0.69255700  0.96267200  0.74979000  1
  Ge  Ge18  1  0.19255700  0.03732800  0.74979000  1
  Ge  Ge19  1  0.80744300  0.96267200  0.24979000  1
  Ge  Ge20  1  0.59078000  0.96511500  0.03252600  1
  Ge  Ge21  1  0.40922000  0.03488500  0.53252600  1
  Ge  Ge22  1  0.90922000  0.96511500  0.53252600  1
  Ge  Ge23  1  0.09078000  0.03488500  0.03252600  1
  Ge  Ge24  1  0.59189500  0.96775000  0.47028100  1
  Ge  Ge25  1  0.40810500  0.03225000  0.97028100  1
  Ge  Ge26  1  0.90810500  0.96775000  0.97028100  1
  Ge  Ge27  1  0.09189500  0.03225000  0.47028100  1
  O  O0  1  0.23488500  0.24921800  0.77382200  1
  O  O1  1  0.76511500  0.75078200  0.27382200  1
  O  O2  1  0.26511500  0.24921800  0.27382200  1
  O  O3  1  0.73488500  0.75078200  0.77382200  1
  O  O4  1  0.16496200  0.51123500  0.58044500  1
  O  O5  1  0.83503800  0.48876500  0.08044500  1
  O  O6  1  0.33503800  0.51123500  0.08044500  1
  O  O7  1  0.66496200  0.48876500  0.58044500  1
  O  O8  1  0.09948600  0.44996500  0.84334900  1
  O  O9  1  0.90051400  0.55003500  0.34334900  1
  O  O10  1  0.40051400  0.44996500  0.34334900  1
  O  O11  1  0.59948600  0.55003500  0.84334900  1
  O  O12  1  0.00120200  0.46692500  0.57126000  1
  O  O13  1  0.99879800  0.53307500  0.07126000  1
  O  O14  1  0.49879800  0.46692500  0.07126000  1
  O  O15  1  0.50120200  0.53307500  0.57126000  1
  O  O16  1  0.91724200  0.39419000  0.82839800  1
  O  O17  1  0.08275800  0.60581000  0.32839800  1
  O  O18  1  0.58275800  0.39419000  0.32839800  1
  O  O19  1  0.41724200  0.60581000  0.82839800  1
  O  O20  1  0.91107600  0.75551700  0.89333700  1
  O  O21  1  0.08892400  0.24448300  0.39333700  1
  O  O22  1  0.58892400  0.75551700  0.39333700  1
  O  O23  1  0.41107600  0.24448300  0.89333700  1
  O  O24  1  0.83499800  0.38890000  0.58747200  1
  O  O25  1  0.16500200  0.61110000  0.08747200  1
  O  O26  1  0.66500200  0.38890000  0.08747200  1
  O  O27  1  0.33499800  0.61110000  0.58747200  1
  O  O28  1  0.75485000  0.38768400  0.82652300  1
  O  O29  1  0.24515000  0.61231600  0.32652300  1
  O  O30  1  0.74515000  0.38768400  0.32652300  1
  O  O31  1  0.25485000  0.61231600  0.82652300  1
  O  O32  1  0.34187600  0.94875400  0.40844300  1
  O  O33  1  0.65812400  0.05124600  0.90844300  1
  O  O34  1  0.15812400  0.94875400  0.90844300  1
  O  O35  1  0.84187600  0.05124600  0.40844300  1
  O  O36  1  0.39405800  0.07414500  0.14969400  1
  O  O37  1  0.60594200  0.92585500  0.64969400  1
  O  O38  1  0.10594200  0.07414500  0.64969400  1
  O  O39  1  0.89405800  0.92585500  0.14969400  1
  O  O40  1  0.49952900  0.07109300  0.44540800  1
  O  O41  1  0.50047100  0.92890700  0.94540800  1
  O  O42  1  0.00047100  0.07109300  0.94540800  1
  O  O43  1  0.99952900  0.92890700  0.44540800  1
  O  O44  1  0.57986600  0.10923800  0.17206200  1
  O  O45  1  0.42013400  0.89076200  0.67206200  1
  O  O46  1  0.92013400  0.10923800  0.67206200  1
  O  O47  1  0.07986600  0.89076200  0.17206200  1
  O  O48  1  0.61752900  0.75117600  0.08971800  1
  O  O49  1  0.38247100  0.24882400  0.58971800  1
  O  O50  1  0.88247100  0.75117600  0.58971800  1
  O  O51  1  0.11752900  0.24882400  0.08971800  1
  O  O52  1  0.66562900  0.10831900  0.41128700  1
  O  O53  1  0.33437100  0.89168100  0.91128700  1
  O  O54  1  0.83437100  0.10831900  0.91128700  1
  O  O55  1  0.16562900  0.89168100  0.41128700  1
  O  O56  1  0.74056800  0.10079900  0.16694700  1
  O  O57  1  0.25943200  0.89920100  0.66694700  1
  O  O58  1  0.75943200  0.10079900  0.66694700  1
  O  O59  1  0.24056800  0.89920100  0.16694700  1
loop_
_geom_bond_atom_site_label_1
_geom_bond_atom_site_label_2
_geom_bond_distance
_geom_bond_site_symmetry_2
Li0 O28 1.980091 1_555
Li0 O26 1.980334 1_556
Li0 O56 1.993501 1_556
Li0 O54 2.005935 1_555
Li0 O33 2.209128 1_555
Li0 O5 2.569727 1_556
Li1 O29 1.980091 1_555
Li1 O27 1.980334 1_555
Li1 O57 1.993501 1_555
Li1 O55 2.005935 1_555
Li1 O32 2.209128 1_555
Li1 O4 2.569727 1_555
Li2 O30 1.980091 1_555
Li2 O24 1.980334 1_555
Li2 O58 1.993501 1_555
Li2 O52 2.005935 1_555
Li2 O35 2.209128 1_555
Li2 O7 2.569727 1_555
Li3 O31 1.980091 1_555
Li3 O25 1.980334 1_556
Li3 O59 1.993501 1_556
Li3 O53 2.005935 1_555
Li3 O34 2.209128 1_555
Li3 O6 2.569727 1_556
Li4 O16 1.977973 1_455
Li4 O46 2.037046 1_455
Li4 O8 2.298694 1_555
Li4 O12 2.308401 1_555
Li4 O42 2.408696 1_555
Li4 O38 2.421589 1_555
Li5 O17 1.977973 1_655
Li5 O47 2.037046 1_655
Li5 O9 2.298694 1_555
Li5 O13 2.308401 1_555
Li5 O43 2.408696 1_555
Li5 O39 2.421589 1_555
Li6 O18 1.977973 1_555
Li6 O44 2.037046 1_555
Li6 O10 2.298694 1_555
Li6 O14 2.308401 1_555
Li6 O40 2.408696 1_555
Li6 O36 2.421589 1_555
Li7 O19 1.977973 1_555
Li7 O45 2.037046 1_555
Li7 O11 2.298694 1_555
Li7 O15 2.308401 1_555
Li7 O41 2.408696 1_555
Li7 O37 2.421589 1_555
Ge0 O24 1.894695 1_555
Ge0 O28 1.901559 1_555
Ge0 O54 1.907738 1_555
Ge0 O16 1.909037 1_555
Ge0 O58 1.918997 1_555
Ge0 O46 1.928657 1_555
Ge1 O25 1.894695 1_555
Ge1 O29 1.901559 1_555
Ge1 O55 1.907738 1_555
Ge1 O17 1.909037 1_555
Ge1 O59 1.918997 1_555
Ge1 O47 1.928657 1_555
Ge2 O26 1.894695 1_555
Ge2 O30 1.901559 1_555
Ge2 O52 1.907738 1_555
Ge2 O18 1.909037 1_555
Ge2 O56 1.918997 1_555
Ge2 O44 1.928657 1_555
Ge3 O27 1.894695 1_555
Ge3 O31 1.901559 1_555
Ge3 O53 1.907738 1_555
Ge3 O19 1.909037 1_555
Ge3 O57 1.918997 1_555
Ge3 O45 1.928657 1_555
Ge4 O31 1.742774 1_555
Ge4 O0 1.762812 1_555
Ge4 O4 1.777774 1_555
Ge4 O8 1.806094 1_555
Ge5 O30 1.742774 1_555
Ge5 O1 1.762812 1_555
Ge5 O5 1.777774 1_555
Ge5 O9 1.806094 1_555
Ge6 O29 1.742774 1_555
Ge6 O2 1.762812 1_555
Ge6 O6 1.777774 1_555
Ge6 O10 1.806094 1_555
Ge7 O28 1.742774 1_555
Ge7 O3 1.762812 1_555
Ge7 O7 1.777774 1_555
Ge7 O11 1.806094 1_555
Ge8 O16 1.744205 1_555
Ge8 O20 1.762707 1_555
Ge8 O5 1.779909 1_556
Ge8 O13 1.794584 1_556
Ge9 O17 1.744205 1_555
Ge9 O21 1.762707 1_555
Ge9 O4 1.779909 1_555
Ge9 O12 1.794584 1_555
Ge10 O18 1.744205 1_555
Ge10 O22 1.762707 1_555
Ge10 O7 1.779909 1_555
Ge10 O15 1.794584 1_555
Ge11 O19 1.744205 1_555
Ge11 O23 1.762707 1_555
Ge11 O6 1.779909 1_556
Ge11 O14 1.794584 1_556
Ge12 O24 1.742045 1_555
Ge12 O50 1.757155 1_555
Ge12 O12 1.781990 1_655
Ge12 O9 1.803244 1_555
Ge13 O25 1.742045 1_555
Ge13 O51 1.757155 1_555
Ge13 O13 1.781990 1_455
Ge13 O8 1.803244 1_554
Ge14 O26 1.742045 1_555
Ge14 O48 1.757155 1_555
Ge14 O14 1.781990 1_555
Ge14 O11 1.803244 1_554
Ge15 O27 1.742045 1_555
Ge15 O49 1.757155 1_555
Ge15 O15 1.781990 1_555
Ge15 O10 1.803244 1_555
Ge16 O59 1.744238 1_545
Ge16 O2 1.759540 1_555
Ge16 O32 1.788700 1_545
Ge16 O36 1.801374 1_555
Ge17 O58 1.744238 1_565
Ge17 O3 1.759540 1_555
Ge17 O33 1.788700 1_565
Ge17 O37 1.801374 1_555
Ge18 O57 1.744238 1_545
Ge18 O0 1.759540 1_555
Ge18 O34 1.788700 1_545
Ge18 O38 1.801374 1_555
Ge19 O56 1.744238 1_565
Ge19 O1 1.759540 1_555
Ge19 O35 1.788700 1_565
Ge19 O39 1.801374 1_555
Ge20 O44 1.750090 1_565
Ge20 O48 1.756675 1_555
Ge20 O41 1.789465 1_554
Ge20 O33 1.796020 1_564
Ge21 O45 1.750090 1_545
Ge21 O49 1.756675 1_555
Ge21 O40 1.789465 1_555
Ge21 O32 1.796020 1_545
Ge22 O46 1.750090 1_565
Ge22 O50 1.756675 1_555
Ge22 O43 1.789465 1_555
Ge22 O35 1.796020 1_565
Ge23 O47 1.750090 1_545
Ge23 O51 1.756675 1_555
Ge23 O42 1.789465 1_554
Ge23 O34 1.796020 1_544
Ge24 O52 1.743687 1_565
Ge24 O22 1.758095 1_555
Ge24 O40 1.780304 1_565
Ge24 O37 1.799946 1_555
Ge25 O53 1.743687 1_545
Ge25 O23 1.758095 1_555
Ge25 O41 1.780304 1_545
Ge25 O36 1.799946 1_556
Ge26 O54 1.743687 1_565
Ge26 O20 1.758095 1_555
Ge26 O42 1.780304 1_665
Ge26 O39 1.799946 1_556
Ge27 O55 1.743687 1_545
Ge27 O21 1.758095 1_555
Ge27 O43 1.780304 1_445
Ge27 O38 1.799946 1_555
