# generated using pymatgen
data_Hg3HN2O7
_symmetry_space_group_name_H-M   'P 1'
_cell_length_a   10.34246200
_cell_length_b   8.85968800
_cell_length_c   10.86555051
_cell_angle_alpha   62.55741767
_cell_angle_beta   90.00000000
_cell_angle_gamma   90.00000000
_symmetry_Int_Tables_number   1
_chemical_formula_structural   Hg3HN2O7
_chemical_formula_sum   'Hg12 H4 N8 O28'
_cell_volume   883.58697335
_cell_formula_units_Z   4
loop_
 _symmetry_equiv_pos_site_id
 _symmetry_equiv_pos_as_xyz
  1  'x, y, z'
loop_
 _atom_site_type_symbol
 _atom_site_label
 _atom_site_symmetry_multiplicity
 _atom_site_fract_x
 _atom_site_fract_y
 _atom_site_fract_z
 _atom_site_occupancy
  Hg  Hg0  1  0.45948600  0.35588300  0.59768500  1
  Hg  Hg1  1  0.04051400  0.35588300  0.09768500  1
  Hg  Hg2  1  0.54051400  0.64411700  0.40231500  1
  Hg  Hg3  1  0.95948600  0.64411700  0.90231500  1
  Hg  Hg4  1  0.92150300  0.22351800  0.75267600  1
  Hg  Hg5  1  0.57849700  0.22351800  0.25267600  1
  Hg  Hg6  1  0.07849700  0.77648200  0.24732400  1
  Hg  Hg7  1  0.42150300  0.77648200  0.74732400  1
  Hg  Hg8  1  0.16801700  0.16375300  0.76131900  1
  Hg  Hg9  1  0.33198300  0.16375300  0.26131900  1
  Hg  Hg10  1  0.83198300  0.83624700  0.23868100  1
  Hg  Hg11  1  0.66801700  0.83624700  0.73868100  1
  H  H0  1  0.41605000  0.05971700  0.82531900  1
  H  H1  1  0.08395000  0.05971700  0.32531900  1
  H  H2  1  0.58395000  0.94028300  0.17468100  1
  H  H3  1  0.91605000  0.94028300  0.67468100  1
  N  N0  1  0.67979300  0.17377200  0.91018200  1
  N  N1  1  0.82020700  0.17377200  0.41018200  1
  N  N2  1  0.32020700  0.82622800  0.08981800  1
  N  N3  1  0.17979300  0.82622800  0.58981800  1
  N  N4  1  0.80951300  0.58597400  0.59918100  1
  N  N5  1  0.69048700  0.58597400  0.09918100  1
  N  N6  1  0.19048700  0.41402600  0.40081900  1
  N  N7  1  0.30951300  0.41402600  0.90081900  1
  O  O0  1  0.69794900  0.19564400  0.78354200  1
  O  O1  1  0.80205100  0.19564400  0.28354200  1
  O  O2  1  0.30205100  0.80435600  0.21645800  1
  O  O3  1  0.19794900  0.80435600  0.71645800  1
  O  O4  1  0.77752700  0.15702900  0.98451600  1
  O  O5  1  0.72247300  0.15702900  0.48451600  1
  O  O6  1  0.22247300  0.84297100  0.01548400  1
  O  O7  1  0.27752700  0.84297100  0.51548400  1
  O  O8  1  0.56704600  0.16992800  0.95134400  1
  O  O9  1  0.93295400  0.16992800  0.45134400  1
  O  O10  1  0.43295400  0.83007200  0.04865600  1
  O  O11  1  0.06704600  0.83007200  0.54865600  1
  O  O12  1  0.37276400  0.11126300  0.73462600  1
  O  O13  1  0.12723600  0.11126300  0.23462600  1
  O  O14  1  0.62723600  0.88873700  0.26537400  1
  O  O15  1  0.87276400  0.88873700  0.76537400  1
  O  O16  1  0.83217000  0.52418600  0.72857000  1
  O  O17  1  0.66783000  0.52418600  0.22857000  1
  O  O18  1  0.16783000  0.47581400  0.27143000  1
  O  O19  1  0.33217000  0.47581400  0.77143000  1
  O  O20  1  0.76013100  0.73314300  0.53356700  1
  O  O21  1  0.73986900  0.73314300  0.03356700  1
  O  O22  1  0.23986900  0.26685700  0.46643300  1
  O  O23  1  0.26013100  0.26685700  0.96643300  1
  O  O24  1  0.83368500  0.49908100  0.53639300  1
  O  O25  1  0.66631500  0.49908100  0.03639300  1
  O  O26  1  0.16631500  0.50091900  0.46360700  1
  O  O27  1  0.33368500  0.50091900  0.96360700  1
loop_
_geom_bond_atom_site_label_1
_geom_bond_atom_site_label_2
_geom_bond_distance
_geom_bond_site_symmetry_2
Hg0 O12 2.177870 1_555
Hg1 O13 2.177870 1_555
Hg2 O14 2.177870 1_555
Hg3 O15 2.177870 1_555
Hg4 O0 2.333008 1_555
Hg5 O1 2.333008 1_555
Hg6 O2 2.333008 1_555
Hg7 O3 2.333008 1_555
Hg8 O12 2.215601 1_555
Hg9 O13 2.215601 1_555
Hg10 O14 2.215601 1_555
Hg11 O15 2.215601 1_555
H0 O12 0.982472 1_555
H1 O13 0.982472 1_555
H2 O14 0.982472 1_555
H3 O15 0.982472 1_555
N0 O8 1.243743 1_555
N0 O4 1.259229 1_555
N0 O0 1.311661 1_555
N1 O9 1.243743 1_555
N1 O5 1.259229 1_555
N1 O1 1.311661 1_555
N2 O10 1.243743 1_555
N2 O6 1.259229 1_555
N2 O2 1.311661 1_555
N3 O11 1.243743 1_555
N3 O7 1.259229 1_555
N3 O3 1.311661 1_555
N4 O24 1.266762 1_555
N4 O20 1.269801 1_555
N4 O16 1.273468 1_555
N5 O25 1.266762 1_555
N5 O21 1.269801 1_555
N5 O17 1.273468 1_555
N6 O26 1.266762 1_555
N6 O22 1.269801 1_555
N6 O18 1.273468 1_555
N7 O27 1.266762 1_555
N7 O23 1.269801 1_555
N7 O19 1.273468 1_555
