# generated using pymatgen
data_MgSi
_symmetry_space_group_name_H-M   'P 1'
_cell_length_a   5.86932100
_cell_length_b   5.39046200
_cell_length_c   14.04254417
_cell_angle_alpha   86.41351411
_cell_angle_beta   90.00000000
_cell_angle_gamma   90.00000000
_symmetry_Int_Tables_number   1
_chemical_formula_structural   MgSi
_chemical_formula_sum   'Mg12 Si12'
_cell_volume   443.41282952
_cell_formula_units_Z   12
loop_
 _symmetry_equiv_pos_site_id
 _symmetry_equiv_pos_as_xyz
  1  'x, y, z'
loop_
 _atom_site_type_symbol
 _atom_site_label
 _atom_site_symmetry_multiplicity
 _atom_site_fract_x
 _atom_site_fract_y
 _atom_site_fract_z
 _atom_site_occupancy
  Mg  Mg0  1  0.34349400  0.76883500  0.26118100  1
  Mg  Mg1  1  0.27600800  0.90054100  0.59678000  1
  Mg  Mg2  1  0.70015600  0.00818000  0.93614600  1
  Mg  Mg3  1  0.83664700  0.61583700  0.27457700  1
  Mg  Mg4  1  0.77738500  0.79273700  0.59530400  1
  Mg  Mg5  1  0.16506500  0.50902900  0.93282200  1
  Mg  Mg6  1  0.77600800  0.09945900  0.40322000  1
  Mg  Mg7  1  0.84349400  0.23116500  0.73881900  1
  Mg  Mg8  1  0.20015600  0.99182000  0.06385400  1
  Mg  Mg9  1  0.27738500  0.20726300  0.40469600  1
  Mg  Mg10  1  0.33664700  0.38416300  0.72542300  1
  Mg  Mg11  1  0.66506500  0.49097100  0.06717800  1
  Si  Si0  1  0.47901700  0.26497300  0.22804700  1
  Si  Si1  1  0.58936600  0.32217500  0.55818900  1
  Si  Si2  1  0.65824400  0.51621900  0.87249100  1
  Si  Si3  1  0.99080700  0.14377900  0.22927700  1
  Si  Si4  1  0.00759500  0.32493400  0.55831700  1
  Si  Si5  1  0.17915900  0.02808600  0.86919000  1
  Si  Si6  1  0.08936600  0.67782500  0.44181100  1
  Si  Si7  1  0.97901700  0.73502700  0.77195300  1
  Si  Si8  1  0.15824400  0.48378100  0.12750900  1
  Si  Si9  1  0.50759500  0.67506600  0.44168300  1
  Si  Si10  1  0.49080700  0.85622100  0.77072300  1
  Si  Si11  1  0.67915900  0.97191400  0.13081000  1
loop_
_geom_bond_atom_site_label_1
_geom_bond_atom_site_label_2
_geom_bond_distance
_geom_bond_site_symmetry_2
Mg0 Si8 2.725362 1_555
Mg0 Si9 2.729033 1_555
Mg0 Si0 2.801071 1_565
Mg0 Si11 2.860178 1_555
Mg0 Si0 2.895553 1_555
Mg0 Si3 2.908161 1_465
Mg0 Si6 2.956957 1_555
Mg1 Si10 2.745869 1_555
Mg1 Si6 2.775584 1_555
Mg1 Si4 2.802229 1_565
Mg1 Si9 2.898188 1_555
Mg1 Si1 2.947518 1_565
Mg1 Si7 3.100152 1_455
Mg2 Si11 2.731116 1_546
Mg2 Si10 2.795527 1_545
Mg2 Si2 2.837782 1_555
Mg2 Si2 2.861584 1_545
Mg2 Si5 2.964292 1_655
Mg2 Si5 3.199011 1_555
Mg3 Si3 2.810855 1_555
Mg3 Si6 2.815122 1_655
Mg3 Si11 2.851238 1_555
Mg3 Si8 2.918664 1_655
Mg3 Si0 2.926537 1_555
Mg3 Si3 3.015912 1_565
Mg3 Si9 3.071178 1_555
Mg4 Si7 2.748481 1_555
Mg4 Si9 2.781113 1_555
Mg4 Si1 2.844102 1_555
Mg4 Si6 2.923971 1_655
Mg4 Si4 2.935668 1_655
Mg4 Si10 3.019892 1_555
Mg4 Si1 3.073790 1_565
Mg4 Si4 3.184175 1_665
Mg5 Si7 2.726779 1_455
Mg5 Si8 2.729064 1_556
Mg5 Si5 2.795745 1_555
Mg5 Si5 2.884624 1_565
Mg5 Si2 3.015626 1_555
Mg5 Si2 3.092564 1_455
Mg6 Si3 2.745869 1_555
Mg6 Si1 2.775584 1_555
Mg6 Si9 2.802229 1_545
Mg6 Si4 2.898188 1_655
Mg6 Si6 2.947518 1_645
Mg6 Si0 3.100152 1_555
Mg7 Si2 2.725362 1_555
Mg7 Si4 2.729033 1_655
Mg7 Si7 2.801071 1_545
Mg7 Si5 2.860178 1_655
Mg7 Si7 2.895553 1_555
Mg7 Si10 2.908161 1_545
Mg7 Si1 2.956957 1_555
Mg8 Si5 2.731116 1_564
Mg8 Si3 2.795527 1_465
Mg8 Si8 2.837782 1_555
Mg8 Si8 2.861584 1_565
Mg8 Si11 2.964292 1_555
Mg8 Si11 3.199011 1_455
Mg9 Si0 2.748481 1_555
Mg9 Si4 2.781113 1_555
Mg9 Si6 2.844102 1_555
Mg9 Si1 2.923971 1_555
Mg9 Si9 2.935668 1_555
Mg9 Si3 3.019892 1_455
Mg9 Si6 3.073790 1_545
Mg9 Si9 3.184175 1_545
Mg10 Si10 2.810855 1_555
Mg10 Si1 2.815122 1_555
Mg10 Si5 2.851238 1_555
Mg10 Si2 2.918664 1_555
Mg10 Si7 2.926537 1_455
Mg10 Si10 3.015912 1_545
Mg10 Si4 3.071178 1_555
Mg11 Si0 2.726779 1_555
Mg11 Si2 2.729064 1_554
Mg11 Si11 2.795745 1_555
Mg11 Si11 2.884624 1_545
Mg11 Si8 3.015626 1_655
Mg11 Si8 3.092564 1_555
Si0 Si11 2.451484 1_545
Si0 Si8 2.592426 1_555
Si1 Si4 2.454767 1_655
Si1 Si9 2.477125 1_555
Si2 Si7 2.592426 1_555
Si3 Si8 2.457521 1_655
Si4 Si6 2.477125 1_555
Si5 Si7 2.451484 1_445
Si6 Si9 2.454767 1_555
Si10 Si2 2.457521 1_555
Si10 Si5 2.505257 1_565
Si11 Si3 2.505257 1_565
