# generated using pymatgen
data_GdGa6
_symmetry_space_group_name_H-M   'P 1'
_cell_length_a   5.94223447
_cell_length_b   5.94223263
_cell_length_c   7.55068598
_cell_angle_alpha   90.00001701
_cell_angle_beta   90.00000492
_cell_angle_gamma   89.99981179
_symmetry_Int_Tables_number   1
_chemical_formula_structural   GdGa6
_chemical_formula_sum   'Gd2 Ga12'
_cell_volume   266.61577575
_cell_formula_units_Z   2
loop_
 _symmetry_equiv_pos_site_id
 _symmetry_equiv_pos_as_xyz
  1  'x, y, z'
loop_
 _atom_site_type_symbol
 _atom_site_label
 _atom_site_symmetry_multiplicity
 _atom_site_fract_x
 _atom_site_fract_y
 _atom_site_fract_z
 _atom_site_occupancy
  Gd  Gd0  1  0.00000136  0.50000094  -0.00000133  1
  Gd  Gd1  1  0.50000215  -0.00000090  0.00000023  1
  Ga  Ga0  1  0.50000011  0.49999961  0.16004522  1
  Ga  Ga1  1  0.00000145  -0.00000136  0.83995424  1
  Ga  Ga2  1  0.50000040  0.49999924  0.83995457  1
  Ga  Ga3  1  -0.00000090  0.00000102  0.16004545  1
  Ga  Ga4  1  0.19557746  0.69557874  0.34688600  1
  Ga  Ga5  1  0.80441782  0.30442011  0.34688586  1
  Ga  Ga6  1  0.69558199  0.19558105  0.65311480  1
  Ga  Ga7  1  0.30442135  0.80441967  0.65311447  1
  Ga  Ga8  1  0.19557982  0.30442036  0.65311497  1
  Ga  Ga9  1  0.80442115  0.69557834  0.65311481  1
  Ga  Ga10  1  0.69557832  0.80441982  0.34688579  1
  Ga  Ga11  1  0.30441851  0.19558036  0.34688493  1
loop_
_geom_bond_atom_site_label_1
_geom_bond_atom_site_label_2
_geom_bond_distance
_geom_bond_site_symmetry_2
Ga0 Ga2 2.416904 1_554
Ga0 Ga5 2.571601 1_555
Ga0 Ga10 2.571612 1_555
Ga0 Ga11 2.571614 1_555
Ga0 Ga4 2.571621 1_555
Ga0 Gd1 3.207470 1_565
Ga0 Gd0 3.207471 1_555
Ga0 Gd1 3.207475 1_555
Ga0 Gd0 3.207485 1_655
Ga1 Ga3 2.416908 1_556
Ga1 Ga7 2.571604 1_545
Ga1 Ga6 2.571611 1_455
Ga1 Ga9 2.571613 1_445
Ga1 Ga8 2.571614 1_555
Ga1 Gd0 3.207459 1_546
Ga1 Gd1 3.207473 1_456
Ga1 Gd1 3.207480 1_556
Ga1 Gd0 3.207484 1_556
Ga2 Ga6 2.571604 1_555
Ga2 Ga7 2.571608 1_555
Ga2 Ga8 2.571612 1_555
Ga2 Ga9 2.571614 1_555
Ga2 Gd0 3.207466 1_556
Ga2 Gd1 3.207474 1_566
Ga2 Gd1 3.207476 1_556
Ga2 Gd0 3.207476 1_656
Ga3 Ga5 2.571610 1_455
Ga3 Ga4 2.571616 1_545
Ga3 Gd1 3.207457 1_455
Ga3 Gd0 3.207478 1_555
Ga3 Gd0 3.207478 1_545
Ga3 Gd1 3.207491 1_555
Ga4 Ga7 2.486573 1_555
Ga4 Gd0 3.092193 1_555
Ga5 Ga6 2.486562 1_555
Ga5 Gd0 3.092217 1_655
Ga6 Gd1 3.092200 1_556
Ga7 Gd1 3.092198 1_566
Ga8 Gd0 3.092179 1_556
Ga9 Gd0 3.092177 1_656
Ga10 Ga9 2.486576 1_555
Ga10 Ga3 2.571622 1_665
Ga10 Gd1 3.092183 1_565
Ga11 Ga8 2.486574 1_555
Ga11 Ga3 2.571607 1_555
Ga11 Gd1 3.092199 1_555
