# generated using pymatgen
data_In3Pt2
_symmetry_space_group_name_H-M   'P 1'
_cell_length_a   4.57225741
_cell_length_b   4.57225741
_cell_length_c   5.57637613
_cell_angle_alpha   90.00000000
_cell_angle_beta   90.00000000
_cell_angle_gamma   119.99999865
_symmetry_Int_Tables_number   1
_chemical_formula_structural   In3Pt2
_chemical_formula_sum   'In3 Pt2'
_cell_volume   100.95876779
_cell_formula_units_Z   1
loop_
 _symmetry_equiv_pos_site_id
 _symmetry_equiv_pos_as_xyz
  1  'x, y, z'
loop_
 _atom_site_type_symbol
 _atom_site_label
 _atom_site_symmetry_multiplicity
 _atom_site_fract_x
 _atom_site_fract_y
 _atom_site_fract_z
 _atom_site_occupancy
  In  In0  1  0.00000000  0.00000000  0.00000000  1
  In  In1  1  0.66666700  0.33333300  0.34967418  1
  In  In2  1  0.33333300  0.66666700  0.65032582  1
  Pt  Pt0  1  0.66666700  0.33333300  0.83717036  1
  Pt  Pt1  1  0.33333300  0.66666700  0.16282964  1
loop_
_geom_bond_atom_site_label_1
_geom_bond_atom_site_label_2
_geom_bond_distance
_geom_bond_site_symmetry_2
In0 Pt1 2.791588 1_545
In0 Pt0 2.791588 1_454
In0 Pt1 2.791591 1_555
In0 Pt0 2.791591 1_444
In0 Pt1 2.791591 1_445
In0 Pt0 2.791591 1_554
In0 In2 3.281869 1_544
In0 In1 3.281869 1_455
In0 In1 3.281873 1_555
In0 In2 3.281873 1_444
In0 In2 3.281873 1_554
In0 In1 3.281873 1_445
In1 Pt0 2.718462 1_555
In1 Pt1 2.837972 1_545
In1 Pt1 2.837972 1_655
In1 Pt1 2.837980 1_555
In1 Pt0 2.857914 1_554
In1 In2 3.127188 1_545
In1 In2 3.127188 1_655
In1 In2 3.127195 1_555
In2 Pt1 2.718462 1_555
In2 Pt0 2.837972 1_455
In2 Pt0 2.837972 1_565
In2 Pt0 2.837980 1_555
In2 Pt1 2.857914 1_556
