# generated using pymatgen
data_Ag7AsSe6
_symmetry_space_group_name_H-M   'P 1'
_cell_length_a   11.05144600
_cell_length_b   11.05144600
_cell_length_c   11.05144600
_cell_angle_alpha   90.00000000
_cell_angle_beta   90.00000000
_cell_angle_gamma   90.00000000
_symmetry_Int_Tables_number   1
_chemical_formula_structural   Ag7AsSe6
_chemical_formula_sum   'Ag28 As4 Se24'
_cell_volume   1349.76237496
_cell_formula_units_Z   4
loop_
 _symmetry_equiv_pos_site_id
 _symmetry_equiv_pos_as_xyz
  1  'x, y, z'
loop_
 _atom_site_type_symbol
 _atom_site_label
 _atom_site_symmetry_multiplicity
 _atom_site_fract_x
 _atom_site_fract_y
 _atom_site_fract_z
 _atom_site_occupancy
  Ag  Ag0  1  0.22703400  0.92736600  0.89645300  1
  Ag  Ag1  1  0.10354700  0.72703400  0.57263400  1
  Ag  Ag2  1  0.42736600  0.60354700  0.77296600  1
  Ag  Ag3  1  0.72703400  0.57263400  0.10354700  1
  Ag  Ag4  1  0.60354700  0.77296600  0.42736600  1
  Ag  Ag5  1  0.92736600  0.89645300  0.22703400  1
  Ag  Ag6  1  0.77296600  0.42736600  0.60354700  1
  Ag  Ag7  1  0.89645300  0.22703400  0.92736600  1
  Ag  Ag8  1  0.57263400  0.10354700  0.72703400  1
  Ag  Ag9  1  0.27296600  0.07263400  0.39645300  1
  Ag  Ag10  1  0.39645300  0.27296600  0.07263400  1
  Ag  Ag11  1  0.07263400  0.39645300  0.27296600  1
  Ag  Ag12  1  0.01041800  0.77586900  0.98215800  1
  Ag  Ag13  1  0.01784200  0.51041800  0.72413100  1
  Ag  Ag14  1  0.27586900  0.51784200  0.98958200  1
  Ag  Ag15  1  0.51041800  0.72413100  0.01784200  1
  Ag  Ag16  1  0.51784200  0.98958200  0.27586900  1
  Ag  Ag17  1  0.77586900  0.98215800  0.01041800  1
  Ag  Ag18  1  0.98958200  0.27586900  0.51784200  1
  Ag  Ag19  1  0.98215800  0.01041800  0.77586900  1
  Ag  Ag20  1  0.72413100  0.01784200  0.51041800  1
  Ag  Ag21  1  0.48958200  0.22413100  0.48215800  1
  Ag  Ag22  1  0.48215800  0.48958200  0.22413100  1
  Ag  Ag23  1  0.22413100  0.48215800  0.48958200  1
  Ag  Ag24  1  0.34865700  0.84865700  0.65134300  1
  Ag  Ag25  1  0.84865700  0.65134300  0.34865700  1
  Ag  Ag26  1  0.65134300  0.34865700  0.84865700  1
  Ag  Ag27  1  0.15134300  0.15134300  0.15134300  1
  As  As0  1  0.75129600  0.25129600  0.24870400  1
  As  As1  1  0.25129600  0.24870400  0.75129600  1
  As  As2  1  0.24870400  0.75129600  0.25129600  1
  As  As3  1  0.74870400  0.74870400  0.74870400  1
  Se  Se0  1  0.87622400  0.37622400  0.12377600  1
  Se  Se1  1  0.37622400  0.12377600  0.87622400  1
  Se  Se2  1  0.12377600  0.87622400  0.37622400  1
  Se  Se3  1  0.62377600  0.62377600  0.62377600  1
  Se  Se4  1  0.36227000  0.87926500  0.12121900  1
  Se  Se5  1  0.87878100  0.86227000  0.62073500  1
  Se  Se6  1  0.37926500  0.37878100  0.63773000  1
  Se  Se7  1  0.86227000  0.62073500  0.87878100  1
  Se  Se8  1  0.37878100  0.63773000  0.37926500  1
  Se  Se9  1  0.87926500  0.12121900  0.36227000  1
  Se  Se10  1  0.63773000  0.37926500  0.37878100  1
  Se  Se11  1  0.12121900  0.36227000  0.87926500  1
  Se  Se12  1  0.62073500  0.87878100  0.86227000  1
  Se  Se13  1  0.13773000  0.12073500  0.62121900  1
  Se  Se14  1  0.62121900  0.13773000  0.12073500  1
  Se  Se15  1  0.12073500  0.62121900  0.13773000  1
  Se  Se16  1  0.21613800  0.71613800  0.78386200  1
  Se  Se17  1  0.71613800  0.78386200  0.21613800  1
  Se  Se18  1  0.78386200  0.21613800  0.71613800  1
  Se  Se19  1  0.28386200  0.28386200  0.28386200  1
  Se  Se20  1  0.48366100  0.98366100  0.51633900  1
  Se  Se21  1  0.98366100  0.51633900  0.48366100  1
  Se  Se22  1  0.51633900  0.48366100  0.98366100  1
  Se  Se23  1  0.01633900  0.01633900  0.01633900  1
loop_
_geom_bond_atom_site_label_1
_geom_bond_atom_site_label_2
_geom_bond_distance
_geom_bond_site_symmetry_2
Ag0 Se16 2.648032 1_555
Ag0 Se1 2.734954 1_565
Ag0 Se23 2.853783 1_566
Ag0 Se4 2.947283 1_556
Ag1 Se16 2.648032 1_555
Ag1 Se2 2.734954 1_555
Ag1 Se21 2.853783 1_455
Ag1 Se5 2.947283 1_455
Ag2 Se16 2.648032 1_555
Ag2 Se3 2.734954 1_555
Ag2 Se22 2.853783 1_555
Ag2 Se6 2.947283 1_555
Ag3 Se17 2.648032 1_555
Ag3 Se0 2.734954 1_555
Ag3 Se22 2.853783 1_554
Ag3 Se7 2.947283 1_554
Ag4 Se17 2.648032 1_555
Ag4 Se3 2.734954 1_555
Ag4 Se20 2.853783 1_555
Ag4 Se8 2.947283 1_555
Ag5 Se17 2.648032 1_555
Ag5 Se2 2.734954 1_655
Ag5 Se23 2.853783 1_665
Ag5 Se9 2.947283 1_565
Ag6 Se18 2.648032 1_555
Ag6 Se3 2.734954 1_555
Ag6 Se21 2.853783 1_555
Ag6 Se10 2.947283 1_555
Ag7 Se18 2.648032 1_555
Ag7 Se0 2.734954 1_556
Ag7 Se23 2.853783 1_656
Ag7 Se11 2.947283 1_655
Ag8 Se18 2.648032 1_555
Ag8 Se1 2.734954 1_555
Ag8 Se20 2.853783 1_545
Ag8 Se12 2.947283 1_545
Ag9 Se19 2.648032 1_555
Ag9 Se2 2.734954 1_545
Ag9 Se20 2.853783 1_545
Ag9 Se13 2.947283 1_555
Ag10 Se19 2.648032 1_555
Ag10 Se1 2.734954 1_554
Ag10 Se22 2.853783 1_554
Ag10 Se14 2.947283 1_555
Ag11 Se19 2.648032 1_555
Ag11 Se0 2.734954 1_455
Ag11 Se21 2.853783 1_455
Ag11 Se15 2.947283 1_555
Ag12 Se7 2.631572 1_455
Ag12 Se23 2.685052 1_566
Ag12 Se15 2.713554 1_556
Ag12 Se16 3.225997 1_555
Ag13 Se11 2.631572 1_555
Ag13 Se21 2.685052 1_455
Ag13 Se7 2.713554 1_455
Ag13 Se16 3.225997 1_555
Ag14 Se15 2.631572 1_556
Ag14 Se22 2.685052 1_555
Ag14 Se11 2.713554 1_555
Ag14 Se16 3.225997 1_555
Ag15 Se4 2.631572 1_555
Ag15 Se22 2.685052 1_554
Ag15 Se12 2.713554 1_554
Ag15 Se17 3.225997 1_555
Ag16 Se14 2.631572 1_565
Ag16 Se20 2.685052 1_555
Ag16 Se4 2.713554 1_555
Ag16 Se17 3.225997 1_555
Ag17 Se12 2.631572 1_554
Ag17 Se23 2.685052 1_665
Ag17 Se14 2.713554 1_565
Ag17 Se17 3.225997 1_555
Ag18 Se13 2.631572 1_655
Ag18 Se21 2.685052 1_555
Ag18 Se9 2.713554 1_555
Ag18 Se18 3.225997 1_555
Ag19 Se5 2.631572 1_545
Ag19 Se23 2.685052 1_656
Ag19 Se13 2.713554 1_655
Ag19 Se18 3.225997 1_555
Ag20 Se9 2.631572 1_555
Ag20 Se20 2.685052 1_545
Ag20 Se5 2.713554 1_545
Ag20 Se18 3.225997 1_555
Ag21 Se10 2.631572 1_555
Ag21 Se20 2.685052 1_545
Ag21 Se6 2.713554 1_555
Ag21 Se19 3.225997 1_555
Ag22 Se8 2.631572 1_555
Ag22 Se22 2.685052 1_554
Ag22 Se10 2.713554 1_555
Ag22 Se19 3.225997 1_555
Ag23 Se6 2.631572 1_555
Ag23 Se21 2.685052 1_455
Ag23 Se8 2.713554 1_555
Ag23 Se19 3.225997 1_555
Ag24 Se16 2.536634 1_555
Ag24 Se20 2.584201 1_555
Ag25 Se17 2.536634 1_555
Ag25 Se21 2.584201 1_555
Ag26 Se18 2.536634 1_555
Ag26 Se22 2.584201 1_555
Ag27 Se19 2.536634 1_555
Ag27 Se23 2.584201 1_555
As0 Se10 2.375247 1_555
As0 Se9 2.375247 1_555
As0 Se14 2.375247 1_555
As0 Se0 2.391330 1_555
As1 Se6 2.375247 1_555
As1 Se11 2.375247 1_555
As1 Se13 2.375247 1_555
As1 Se1 2.391330 1_555
As2 Se8 2.375247 1_555
As2 Se4 2.375247 1_555
As2 Se15 2.375247 1_555
As2 Se2 2.391330 1_555
As3 Se7 2.375247 1_555
As3 Se5 2.375247 1_555
As3 Se12 2.375247 1_555
As3 Se3 2.391330 1_555
