# generated using pymatgen
data_NbV
_symmetry_space_group_name_H-M   'P 1'
_cell_length_a   5.70179803
_cell_length_b   5.70179803
_cell_length_c   8.45035313
_cell_angle_alpha   90.00000000
_cell_angle_beta   90.00000000
_cell_angle_gamma   110.96570837
_symmetry_Int_Tables_number   1
_chemical_formula_structural   NbV
_chemical_formula_sum   'Nb8 V8'
_cell_volume   256.53695842
_cell_formula_units_Z   8
loop_
 _symmetry_equiv_pos_site_id
 _symmetry_equiv_pos_as_xyz
  1  'x, y, z'
loop_
 _atom_site_type_symbol
 _atom_site_label
 _atom_site_symmetry_multiplicity
 _atom_site_fract_x
 _atom_site_fract_y
 _atom_site_fract_z
 _atom_site_occupancy
  Nb  Nb0_0  1  0.00000000  0.00000000  0.00000000  1
  Nb  Nb0_1  1  0.00000000  0.00000000  0.50000000  1
  Nb  Nb0_2  1  0.00000000  0.50000000  0.00000000  1
  Nb  Nb0_3  1  0.00000000  0.50000000  0.50000000  1
  Nb  Nb0_4  1  0.50000000  0.00000000  0.00000000  1
  Nb  Nb0_5  1  0.50000000  0.00000000  0.50000000  1
  Nb  Nb0_6  1  0.50000000  0.50000000  0.00000000  1
  Nb  Nb0_7  1  0.50000000  0.50000000  0.50000000  1
  V  V0_0  1  0.25000000  0.25000000  0.25000000  1
  V  V0_1  1  0.25000000  0.25000000  0.75000000  1
  V  V0_2  1  0.25000000  0.75000000  0.25000000  1
  V  V0_3  1  0.25000000  0.75000000  0.75000000  1
  V  V0_4  1  0.75000000  0.25000000  0.25000000  1
  V  V0_5  1  0.75000000  0.25000000  0.75000000  1
  V  V0_6  1  0.75000000  0.75000000  0.25000000  1
  V  V0_7  1  0.75000000  0.75000000  0.75000000  1
loop_
_geom_bond_atom_site_label_1
_geom_bond_atom_site_label_2
_geom_bond_distance
_geom_bond_site_symmetry_2
Nb0_0 V0_7 2.659468 1_444
Nb0_0 V0_0 2.659468 1_555
Nb0_0 V0_1 2.659468 1_554
Nb0_0 V0_6 2.659468 1_445
Nb0_0 Nb0_4 2.850899 1_555
Nb0_0 Nb0_2 2.850899 1_555
Nb0_0 Nb0_2 2.850899 1_545
Nb0_0 Nb0_4 2.850899 1_455
Nb0_1 V0_6 2.659468 1_445
Nb0_1 V0_0 2.659468 1_555
Nb0_1 V0_1 2.659468 1_555
Nb0_1 V0_7 2.659468 1_445
Nb0_1 Nb0_5 2.850899 1_455
Nb0_1 Nb0_5 2.850899 1_555
Nb0_1 Nb0_3 2.850899 1_555
Nb0_1 Nb0_3 2.850899 1_545
Nb0_2 V0_3 2.659468 1_554
Nb0_2 V0_5 2.659468 1_454
Nb0_2 V0_4 2.659468 1_455
Nb0_2 V0_2 2.659468 1_555
Nb0_2 Nb0_6 2.850899 1_455
Nb0_2 Nb0_6 2.850899 1_555
Nb0_3 V0_2 2.659468 1_555
Nb0_3 V0_4 2.659468 1_455
Nb0_3 V0_3 2.659468 1_555
Nb0_3 V0_5 2.659468 1_455
Nb0_3 Nb0_7 2.850899 1_455
Nb0_3 Nb0_7 2.850899 1_555
Nb0_4 V0_3 2.659468 1_544
Nb0_4 V0_5 2.659468 1_554
Nb0_4 V0_4 2.659468 1_555
Nb0_4 V0_2 2.659468 1_545
Nb0_4 Nb0_6 2.850899 1_555
Nb0_4 Nb0_6 2.850899 1_545
Nb0_5 V0_4 2.659468 1_555
Nb0_5 V0_2 2.659468 1_545
Nb0_5 V0_3 2.659468 1_545
Nb0_5 V0_5 2.659468 1_555
Nb0_5 Nb0_7 2.850899 1_545
Nb0_5 Nb0_7 2.850899 1_555
Nb0_6 V0_7 2.659468 1_554
Nb0_6 V0_0 2.659468 1_555
Nb0_6 V0_1 2.659468 1_554
Nb0_6 V0_6 2.659468 1_555
Nb0_7 V0_6 2.659468 1_555
Nb0_7 V0_0 2.659468 1_555
Nb0_7 V0_1 2.659468 1_555
Nb0_7 V0_7 2.659468 1_555
V0_0 V0_2 2.850899 1_555
V0_0 V0_4 2.850899 1_555
V0_0 V0_4 2.850899 1_455
V0_0 V0_2 2.850899 1_545
V0_1 V0_5 2.850899 1_455
V0_1 V0_5 2.850899 1_555
V0_1 V0_3 2.850899 1_545
V0_1 V0_3 2.850899 1_555
V0_2 V0_6 2.850899 1_555
V0_2 V0_6 2.850899 1_455
V0_3 V0_7 2.850899 1_555
V0_3 V0_7 2.850899 1_455
V0_4 V0_6 2.850899 1_555
V0_4 V0_6 2.850899 1_545
V0_5 V0_7 2.850899 1_555
V0_5 V0_7 2.850899 1_545
