# generated using pymatgen
data_Ca3Si3(WO6)2
_symmetry_space_group_name_H-M   'P 1'
_cell_length_a   10.80496075
_cell_length_b   10.80496075
_cell_length_c   10.80496075
_cell_angle_alpha   109.47122063
_cell_angle_beta   109.47122063
_cell_angle_gamma   109.47122063
_symmetry_Int_Tables_number   1
_chemical_formula_structural   Ca3Si3(WO6)2
_chemical_formula_sum   'Ca12 Si12 W8 O48'
_cell_volume   971.06363473
_cell_formula_units_Z   4
loop_
 _symmetry_equiv_pos_site_id
 _symmetry_equiv_pos_as_xyz
  1  'x, y, z'
loop_
 _atom_site_type_symbol
 _atom_site_label
 _atom_site_symmetry_multiplicity
 _atom_site_fract_x
 _atom_site_fract_y
 _atom_site_fract_z
 _atom_site_occupancy
  Ca  Ca0  1  0.25000000  0.37500000  0.12500000  1
  Ca  Ca1  1  0.75000000  0.12500000  0.37500000  1
  Ca  Ca2  1  0.37500000  0.12500000  0.25000000  1
  Ca  Ca3  1  0.12500000  0.37500000  0.75000000  1
  Ca  Ca4  1  0.25000000  0.87500000  0.62500000  1
  Ca  Ca5  1  0.12500000  0.25000000  0.37500000  1
  Ca  Ca6  1  0.62500000  0.25000000  0.87500000  1
  Ca  Ca7  1  0.75000000  0.62500000  0.87500000  1
  Ca  Ca8  1  0.87500000  0.75000000  0.62500000  1
  Ca  Ca9  1  0.87500000  0.62500000  0.25000000  1
  Ca  Ca10  1  0.62500000  0.87500000  0.75000000  1
  Ca  Ca11  1  0.37500000  0.75000000  0.12500000  1
  Si  Si0  1  0.12500000  0.75000000  0.87500000  1
  Si  Si1  1  0.87500000  0.25000000  0.12500000  1
  Si  Si2  1  0.75000000  0.37500000  0.62500000  1
  Si  Si3  1  0.12500000  0.87500000  0.25000000  1
  Si  Si4  1  0.25000000  0.12500000  0.87500000  1
  Si  Si5  1  0.37500000  0.62500000  0.75000000  1
  Si  Si6  1  0.37500000  0.25000000  0.62500000  1
  Si  Si7  1  0.87500000  0.12500000  0.75000000  1
  Si  Si8  1  0.62500000  0.37500000  0.25000000  1
  Si  Si9  1  0.75000000  0.87500000  0.12500000  1
  Si  Si10  1  0.25000000  0.62500000  0.37500000  1
  Si  Si11  1  0.62500000  0.75000000  0.37500000  1
  W  W0  1  0.50000000  0.00000000  0.00000000  1
  W  W1  1  0.50000000  0.50000000  0.00000000  1
  W  W2  1  0.00000000  0.50000000  0.50000000  1
  W  W3  1  0.00000000  0.00000000  0.50000000  1
  W  W4  1  0.50000000  0.50000000  0.50000000  1
  W  W5  1  0.00000000  0.50000000  0.00000000  1
  W  W6  1  0.50000000  0.00000000  0.50000000  1
  W  W7  1  0.00000000  0.00000000  0.00000000  1
  O  O0  1  0.59210500  0.89052000  0.37977200  1
  O  O1  1  0.37977200  0.59210500  0.89052000  1
  O  O2  1  0.28766700  0.29841500  0.90789500  1
  O  O3  1  0.48925200  0.60948000  0.20158500  1
  O  O4  1  0.29841500  0.89052000  0.01074800  1
  O  O5  1  0.12022800  0.01074800  0.21233300  1
  O  O6  1  0.37977200  0.28766700  0.48925200  1
  O  O7  1  0.89052000  0.37977200  0.59210500  1
  O  O8  1  0.20158500  0.21233300  0.59210500  1
  O  O9  1  0.48925200  0.37977200  0.28766700  1
  O  O10  1  0.89052000  0.01074800  0.29841500  1
  O  O11  1  0.60948000  0.90789500  0.12022800  1
  O  O12  1  0.90789500  0.12022800  0.60948000  1
  O  O13  1  0.28766700  0.48925200  0.37977200  1
  O  O14  1  0.59210500  0.20158500  0.21233300  1
  O  O15  1  0.21233300  0.59210500  0.20158500  1
  O  O16  1  0.01074800  0.29841500  0.89052000  1
  O  O17  1  0.90789500  0.28766700  0.29841500  1
  O  O18  1  0.01074800  0.21233300  0.12022800  1
  O  O19  1  0.79841500  0.78766700  0.40789500  1
  O  O20  1  0.20158500  0.48925200  0.60948000  1
  O  O21  1  0.60948000  0.20158500  0.48925200  1
  O  O22  1  0.21233300  0.12022800  0.01074800  1
  O  O23  1  0.12022800  0.60948000  0.90789500  1
  O  O24  1  0.40789500  0.10948000  0.62022800  1
  O  O25  1  0.62022800  0.40789500  0.10948000  1
  O  O26  1  0.71233300  0.70158500  0.09210500  1
  O  O27  1  0.51074800  0.39052000  0.79841500  1
  O  O28  1  0.70158500  0.10948000  0.98925200  1
  O  O29  1  0.87977200  0.98925200  0.78766700  1
  O  O30  1  0.62022800  0.71233300  0.51074800  1
  O  O31  1  0.10948000  0.62022800  0.40789500  1
  O  O32  1  0.87977200  0.39052000  0.09210500  1
  O  O33  1  0.78766700  0.87977200  0.98925200  1
  O  O34  1  0.39052000  0.79841500  0.51074800  1
  O  O35  1  0.70158500  0.09210500  0.71233300  1
  O  O36  1  0.79841500  0.51074800  0.39052000  1
  O  O37  1  0.98925200  0.78766700  0.87977200  1
  O  O38  1  0.09210500  0.71233300  0.70158500  1
  O  O39  1  0.98925200  0.70158500  0.10948000  1
  O  O40  1  0.78766700  0.40789500  0.79841500  1
  O  O41  1  0.40789500  0.79841500  0.78766700  1
  O  O42  1  0.71233300  0.51074800  0.62022800  1
  O  O43  1  0.09210500  0.87977200  0.39052000  1
  O  O44  1  0.39052000  0.09210500  0.87977200  1
  O  O45  1  0.10948000  0.98925200  0.70158500  1
  O  O46  1  0.51074800  0.62022800  0.71233300  1
  O  O47  1  0.29841500  0.90789500  0.28766700  1
loop_
_geom_bond_atom_site_label_1
_geom_bond_atom_site_label_2
_geom_bond_distance
_geom_bond_site_symmetry_2
Ca0 O15 2.433131 1_555
Ca0 O13 2.433131 1_555
Ca0 O22 2.433131 1_555
Ca0 O2 2.433131 1_554
Ca0 O16 2.568324 1_554
Ca0 O18 2.568324 1_555
Ca0 O9 2.568324 1_555
Ca0 O3 2.568324 1_555
Ca1 O11 2.433131 1_545
Ca1 O10 2.433131 1_555
Ca1 O7 2.433131 1_555
Ca1 O21 2.433131 1_555
Ca1 O12 2.568324 1_555
Ca1 O17 2.568324 1_555
Ca1 O0 2.568324 1_545
Ca1 O14 2.568324 1_555
Ca2 O5 2.433131 1_555
Ca2 O9 2.433131 1_555
Ca2 O47 2.433131 1_545
Ca2 O14 2.433131 1_555
Ca2 O4 2.568324 1_545
Ca2 O6 2.568324 1_555
Ca2 O22 2.568324 1_555
Ca2 O21 2.568324 1_555
Ca3 O1 2.433131 1_555
Ca3 O16 2.433131 1_555
Ca3 O12 2.433131 1_455
Ca3 O20 2.433131 1_555
Ca3 O7 2.568324 1_455
Ca3 O23 2.568324 1_555
Ca3 O8 2.568324 1_555
Ca3 O2 2.568324 1_555
Ca4 O34 2.433131 1_555
Ca4 O45 2.433131 1_555
Ca4 O31 2.433131 1_555
Ca4 O44 2.433131 1_565
Ca4 O24 2.568324 1_565
Ca4 O38 2.568324 1_555
Ca4 O43 2.568324 1_555
Ca4 O41 2.568324 1_555
Ca5 O6 2.433131 1_555
Ca5 O18 2.433131 1_555
Ca5 O17 2.433131 1_455
Ca5 O8 2.433131 1_555
Ca5 O10 2.568324 1_455
Ca5 O13 2.568324 1_555
Ca5 O5 2.568324 1_555
Ca5 O20 2.568324 1_555
Ca6 O24 2.433131 1_555
Ca6 O27 2.433131 1_555
Ca6 O28 2.433131 1_555
Ca6 O32 2.433131 1_556
Ca6 O40 2.568324 1_555
Ca6 O25 2.568324 1_556
Ca6 O44 2.568324 1_555
Ca6 O35 2.568324 1_555
Ca7 O40 2.433131 1_555
Ca7 O42 2.433131 1_555
Ca7 O33 2.433131 1_555
Ca7 O26 2.433131 1_556
Ca7 O39 2.568324 1_556
Ca7 O27 2.568324 1_555
Ca7 O46 2.568324 1_555
Ca7 O37 2.568324 1_555
Ca8 O37 2.433131 1_555
Ca8 O19 2.433131 1_555
Ca8 O30 2.433131 1_555
Ca8 O38 2.433131 1_655
Ca8 O36 2.568324 1_555
Ca8 O29 2.568324 1_555
Ca8 O45 2.568324 1_655
Ca8 O42 2.568324 1_555
Ca9 O25 2.433131 1_555
Ca9 O36 2.433131 1_555
Ca9 O39 2.433131 1_555
Ca9 O43 2.433131 1_655
Ca9 O26 2.568324 1_555
Ca9 O19 2.568324 1_555
Ca9 O31 2.568324 1_655
Ca9 O32 2.568324 1_555
Ca10 O41 2.433131 1_555
Ca10 O29 2.433131 1_555
Ca10 O46 2.433131 1_555
Ca10 O35 2.433131 1_565
Ca10 O33 2.568324 1_555
Ca10 O28 2.568324 1_565
Ca10 O30 2.568324 1_555
Ca10 O34 2.568324 1_555
Ca11 O3 2.433131 1_555
Ca11 O0 2.433131 1_555
Ca11 O4 2.433131 1_555
Ca11 O23 2.433131 1_554
Ca11 O15 2.568324 1_555
Ca11 O1 2.568324 1_554
Ca11 O11 2.568324 1_555
Ca11 O47 2.568324 1_555
O0 Si11 1.659536 1_555
O0 W6 2.167836 1_565
O1 Si5 1.659536 1_555
O1 W1 2.167836 1_556
O2 Si4 1.659536 1_555
O2 W1 2.167836 1_556
O3 Si11 1.659536 1_555
O3 W1 2.167836 1_555
O4 Si0 1.659536 1_554
O4 W0 2.167836 1_565
O5 Si3 1.659536 1_545
O5 W7 2.167836 1_555
O6 Si6 1.659536 1_555
O6 W4 2.167836 1_555
O7 Si2 1.659536 1_555
O7 W2 2.167836 1_655
O8 Si6 1.659536 1_555
O8 W3 2.167836 1_555
O9 Si8 1.659536 1_555
O9 W4 2.167836 1_555
O10 Si9 1.659536 1_545
O10 W3 2.167836 1_655
O11 Si9 1.659536 1_555
O11 W0 2.167836 1_565
O12 Si7 1.659536 1_555
O12 W3 2.167836 1_655
O13 Si10 1.659536 1_555
O13 W4 2.167836 1_555
O14 Si8 1.659536 1_555
O14 W0 2.167836 1_555
O15 Si10 1.659536 1_555
O15 W5 2.167836 1_555
O16 Si7 1.659536 1_455
O16 W5 2.167836 1_556
O17 Si1 1.659536 1_555
O17 W2 2.167836 1_655
O18 Si1 1.659536 1_455
O18 W7 2.167836 1_555
O19 Si11 1.659536 1_555
O19 W3 2.167836 1_665
O20 Si5 1.659536 1_555
O20 W2 2.167836 1_555
O21 Si2 1.659536 1_555
O21 W6 2.167836 1_555
O22 Si4 1.659536 1_554
O22 W7 2.167836 1_555
O23 Si0 1.659536 1_555
O23 W5 2.167836 1_556
O24 Si6 1.659536 1_555
O24 W6 2.167836 1_555
O25 Si8 1.659536 1_555
O25 W1 2.167836 1_555
O26 Si9 1.659536 1_555
O26 W1 2.167836 1_555
O27 Si6 1.659536 1_555
O27 W1 2.167836 1_556
O28 Si1 1.659536 1_556
O28 W0 2.167836 1_556
O29 Si7 1.659536 1_565
O29 W7 2.167836 1_666
O30 Si11 1.659536 1_555
O30 W4 2.167836 1_555
O31 Si10 1.659536 1_555
O31 W2 2.167836 1_555
O32 Si1 1.659536 1_555
O32 W5 2.167836 1_655
O33 Si9 1.659536 1_556
O33 W7 2.167836 1_666
O34 Si10 1.659536 1_555
O34 W6 2.167836 1_565
O35 Si7 1.659536 1_555
O35 W6 2.167836 1_555
O36 Si8 1.659536 1_555
O36 W2 2.167836 1_655
O37 Si0 1.659536 1_655
O37 W7 2.167836 1_666
O38 Si0 1.659536 1_555
O38 W2 2.167836 1_555
O39 Si3 1.659536 1_655
O39 W5 2.167836 1_655
O40 Si2 1.659536 1_555
O40 W5 2.167836 1_656
O41 Si5 1.659536 1_555
O41 W0 2.167836 1_566
O42 Si2 1.659536 1_555
O42 W4 2.167836 1_555
O43 Si3 1.659536 1_555
O43 W3 2.167836 1_565
O44 Si4 1.659536 1_555
O44 W0 2.167836 1_556
O45 Si4 1.659536 1_565
O45 W3 2.167836 1_565
O46 Si5 1.659536 1_555
O46 W4 2.167836 1_555
O47 Si3 1.659536 1_555
O47 W6 2.167836 1_565
