# generated using pymatgen
data_AlAgO3
_symmetry_space_group_name_H-M   'P 1'
_cell_length_a   4.31310020
_cell_length_b   5.74012317
_cell_length_c   10.01382801
_cell_angle_alpha   90.00515801
_cell_angle_beta   89.99911500
_cell_angle_gamma   89.96925874
_symmetry_Int_Tables_number   1
_chemical_formula_structural   AlAgO3
_chemical_formula_sum   'Al4 Ag4 O12'
_cell_volume   247.91957719
_cell_formula_units_Z   4
loop_
 _symmetry_equiv_pos_site_id
 _symmetry_equiv_pos_as_xyz
  1  'x, y, z'
loop_
 _atom_site_type_symbol
 _atom_site_label
 _atom_site_symmetry_multiplicity
 _atom_site_fract_x
 _atom_site_fract_y
 _atom_site_fract_z
 _atom_site_occupancy
  Al  Al0  1  0.97212100  0.17653200  0.74999300  1
  Al  Al1  1  0.47197200  0.32360900  0.24999700  1
  Al  Al2  1  0.52771800  0.67646200  0.75000200  1
  Al  Al3  1  0.02811300  0.82357100  0.25000400  1
  Ag  Ag0  1  0.99996200  0.49989200  0.50000200  1
  Ag  Ag1  1  0.50004700  0.99990300  0.49997400  1
  Ag  Ag2  1  0.50003500  0.99990500  0.00002800  1
  Ag  Ag3  1  0.99998300  0.49989000  0.00001000  1
  O  O0  1  0.68684700  0.28730500  0.40366900  1
  O  O1  1  0.18646900  0.21267600  0.59634300  1
  O  O2  1  0.81353100  0.78727400  0.09638000  1
  O  O3  1  0.31338500  0.71253100  0.90369500  1
  O  O4  1  0.31311600  0.71267400  0.59635200  1
  O  O5  1  0.81352500  0.78728800  0.40366900  1
  O  O6  1  0.18646800  0.21267600  0.90360600  1
  O  O7  1  0.68662800  0.28743300  0.09628200  1
  O  O8  1  0.27223000  0.06082900  0.24996100  1
  O  O9  1  0.77258300  0.43941300  0.74991400  1
  O  O10  1  0.22798500  0.56072400  0.25008200  1
  O  O11  1  0.72728500  0.93941000  0.75003900  1
loop_
_geom_bond_atom_site_label_1
_geom_bond_atom_site_label_2
_geom_bond_distance
_geom_bond_site_symmetry_2
Al0 O11 1.723166 1_545
Al0 O9 1.736743 1_555
Al0 O6 1.806699 1_655
Al0 O1 1.807025 1_655
Al1 O10 1.719998 1_555
Al1 O8 1.737478 1_555
Al1 O7 1.808134 1_555
Al1 O0 1.808392 1_555
Al2 O9 1.722017 1_555
Al2 O11 1.737941 1_555
Al2 O3 1.807163 1_555
Al2 O4 1.807540 1_555
Al3 O8 1.721884 1_565
Al3 O10 1.737287 1_555
Al3 O2 1.807413 1_455
Al3 O5 1.807774 1_455
Ag0 O0 2.060360 1_555
Ag0 O4 2.061213 1_655
Ag0 O1 2.072384 1_655
Ag0 O5 2.073052 1_555
Ag1 O5 2.060472 1_555
Ag1 O1 2.061592 1_565
Ag1 O4 2.074002 1_555
Ag1 O0 2.074232 1_565
Ag2 O2 2.060920 1_555
Ag2 O6 2.061925 1_564
Ag2 O3 2.073856 1_554
Ag2 O7 2.074097 1_565
Ag3 O7 2.060394 1_555
Ag3 O3 2.061354 1_654
Ag3 O6 2.072482 1_654
Ag3 O2 2.073045 1_555
