# generated using pymatgen
data_Sr2Ti2O5
_symmetry_space_group_name_H-M   'P 1'
_cell_length_a   8.87524498
_cell_length_b   8.87524498
_cell_length_c   8.87524498
_cell_angle_alpha   142.88375711
_cell_angle_beta   142.69448788
_cell_angle_gamma   53.64204544
_symmetry_Int_Tables_number   1
_chemical_formula_structural   Sr2Ti2O5
_chemical_formula_sum   'Sr4 Ti4 O10'
_cell_volume   254.02888582
_cell_formula_units_Z   2
loop_
 _symmetry_equiv_pos_site_id
 _symmetry_equiv_pos_as_xyz
  1  'x, y, z'
loop_
 _atom_site_type_symbol
 _atom_site_label
 _atom_site_symmetry_multiplicity
 _atom_site_fract_x
 _atom_site_fract_y
 _atom_site_fract_z
 _atom_site_occupancy
  Sr  Sr0  1  0.89911400  0.39087300  0.51529100  1
  Sr  Sr1  1  0.10088600  0.61617700  0.49175900  1
  Sr  Sr2  1  0.37558200  0.89087300  0.49175900  1
  Sr  Sr3  1  0.62441800  0.11617700  0.51529100  1
  Ti  Ti0  1  0.00000000  0.00421300  0.00421300  1
  Ti  Ti1  1  0.50000000  0.50421300  0.00421300  1
  Ti  Ti2  1  0.71086500  0.72713600  0.93800100  1
  Ti  Ti3  1  0.28913500  0.22713600  0.01627000  1
  O  O0  1  0.25581200  0.25788300  0.50268500  1
  O  O1  1  0.74418800  0.24687300  0.00207100  1
  O  O2  1  0.25519800  0.75788300  0.00207100  1
  O  O3  1  0.74480200  0.74687300  0.50268500  1
  O  O4  1  0.89796000  0.87119200  0.03134200  1
  O  O5  1  0.10204000  0.13338300  0.97323300  1
  O  O6  1  0.33985000  0.37119200  0.97323300  1
  O  O7  1  0.66015000  0.63338300  0.03134200  1
  O  O8  1  0.57264900  0.41627000  0.48891900  1
  O  O9  1  0.42735000  0.91627000  0.84362000  1
loop_
_geom_bond_atom_site_label_1
_geom_bond_atom_site_label_2
_geom_bond_distance
_geom_bond_site_symmetry_2
O0 Ti0 1.998123 1_555
O0 Ti1 2.010265 1_556
O0 Sr3 2.657178 1_555
O0 Sr1 2.666001 1_555
O0 Sr2 2.702647 1_545
O0 Sr0 2.711151 1_455
O1 Ti0 1.998123 1_655
O1 Ti1 2.010265 1_555
O1 Sr2 2.657178 1_544
O1 Sr0 2.666001 1_555
O1 Sr3 2.702647 1_554
O1 Sr1 2.711151 1_655
O2 Ti1 1.998123 1_555
O2 Ti0 2.010265 1_565
O2 Sr1 2.657178 1_554
O2 Sr3 2.666001 1_565
O2 Sr0 2.702647 1_454
O2 Sr2 2.711151 1_555
O3 Ti1 1.998123 1_555
O3 Ti0 2.010265 1_666
O3 Sr0 2.657178 1_555
O3 Sr2 2.666001 1_555
O3 Sr1 2.702647 1_655
O3 Sr3 2.711151 1_565
O4 Ti2 1.928176 1_554
O4 Ti0 2.083232 1_665
O4 Sr2 2.623168 1_655
O4 Sr0 2.834504 1_554
O4 Sr0 2.848410 1_565
O4 Sr2 3.084210 1_554
O5 Ti3 1.928183 1_556
O5 Ti0 2.083232 1_556
O5 Sr3 2.623168 1_455
O5 Sr1 2.834510 1_545
O5 Sr1 2.848404 1_556
O5 Sr3 3.084210 1_556
O6 Ti3 1.928159 1_556
O6 Ti1 2.083239 1_556
O6 Sr0 2.623171 1_455
O6 Sr2 2.834508 1_545
O6 Sr2 2.848408 1_556
O6 Sr0 3.084208 1_556
O7 Ti2 1.928168 1_554
O7 Ti1 2.083239 1_555
O7 Sr1 2.623171 1_655
O7 Sr3 2.834508 1_554
O7 Sr3 2.848408 1_565
O7 Sr1 3.084208 1_554
O8 Ti2 1.923529 1_555
O8 Ti3 1.931933 1_555
O8 Sr3 2.594567 1_555
O8 Sr0 2.594567 1_555
O9 Ti3 1.923525 1_566
O9 Ti2 1.931934 1_555
O9 Sr2 2.594564 1_555
O9 Sr1 2.594564 1_555
