# generated using pymatgen
data_Mg6NbMo
_symmetry_space_group_name_H-M   'P 1'
_cell_length_a   4.81066400
_cell_length_b   6.03828500
_cell_length_c   10.95173300
_cell_angle_alpha   90.00000000
_cell_angle_beta   90.00000000
_cell_angle_gamma   90.00000000
_symmetry_Int_Tables_number   1
_chemical_formula_structural   Mg6NbMo
_chemical_formula_sum   'Mg12 Nb2 Mo2'
_cell_volume   318.12769543
_cell_formula_units_Z   2
loop_
 _symmetry_equiv_pos_site_id
 _symmetry_equiv_pos_as_xyz
  1  'x, y, z'
loop_
 _atom_site_type_symbol
 _atom_site_label
 _atom_site_symmetry_multiplicity
 _atom_site_fract_x
 _atom_site_fract_y
 _atom_site_fract_z
 _atom_site_occupancy
  Mg  Mg0  1  0.00000000  0.25902200  0.07627200  1
  Mg  Mg1  1  0.00000000  0.74097800  0.07627200  1
  Mg  Mg2  1  0.00000000  0.00000000  0.33181500  1
  Mg  Mg3  1  0.50000000  0.74262400  0.42296100  1
  Mg  Mg4  1  0.50000000  0.25737600  0.42296100  1
  Mg  Mg5  1  0.50000000  0.00000000  0.16972400  1
  Mg  Mg6  1  0.00000000  0.75902200  0.57627200  1
  Mg  Mg7  1  0.00000000  0.24097800  0.57627200  1
  Mg  Mg8  1  0.00000000  0.50000000  0.83181500  1
  Mg  Mg9  1  0.50000000  0.24262400  0.92296100  1
  Mg  Mg10  1  0.50000000  0.75737600  0.92296100  1
  Mg  Mg11  1  0.50000000  0.50000000  0.66972400  1
  Nb  Nb0  1  0.00000000  0.50000000  0.31021200  1
  Nb  Nb1  1  0.00000000  0.00000000  0.81021200  1
  Mo  Mo0  1  0.50000000  0.50000000  0.18978500  1
  Mo  Mo1  1  0.50000000  0.00000000  0.68978500  1
loop_
_geom_bond_atom_site_label_1
_geom_bond_atom_site_label_2
_geom_bond_distance
_geom_bond_site_symmetry_2
Mg0 Mg1 2.910188 1_555
Mg0 Mg9 2.935053 1_554
Mg0 Mg9 2.935053 1_454
Mg0 Nb0 2.946420 1_555
Mg0 Mg5 3.046201 1_455
Mg0 Mg5 3.046201 1_555
Mg0 Mg8 3.047105 1_554
Mg0 Mo0 3.073821 1_555
Mg0 Mo0 3.073821 1_455
Mg0 Mg1 3.128097 1_545
Mg0 Mg2 3.206030 1_555
Mg0 Nb1 3.307051 1_554
Mg1 Mg10 2.935053 1_554
Mg1 Mg10 2.935053 1_454
Mg1 Nb0 2.946420 1_555
Mg1 Mg5 3.046201 1_565
Mg1 Mg5 3.046201 1_465
Mg1 Mg8 3.047105 1_554
Mg1 Mo0 3.073821 1_555
Mg1 Mo0 3.073821 1_455
Mg1 Mg2 3.206030 1_565
Mg1 Nb1 3.307051 1_564
Mg2 Mg5 2.989461 1_455
Mg2 Mg5 2.989461 1_555
Mg2 Nb0 3.028398 1_555
Mg2 Nb0 3.028398 1_545
Mg2 Mg3 3.032704 1_545
Mg2 Mg3 3.032704 1_445
Mg2 Mg4 3.032704 1_455
Mg2 Mg4 3.032704 1_555
Mg2 Mg6 3.047105 1_545
Mg2 Mg7 3.047105 1_555
Mg3 Mg4 2.930066 1_555
Mg3 Mg6 2.935053 1_655
Mg3 Mg6 2.935053 1_555
Mg3 Mo0 2.944080 1_555
Mg3 Nb0 3.075169 1_555
Mg3 Nb0 3.075169 1_655
Mg3 Mg4 3.108219 1_565
Mg3 Mg5 3.179138 1_565
Mg3 Mo1 3.309747 1_565
Mg4 Mg7 2.935053 1_555
Mg4 Mg7 2.935053 1_655
Mg4 Mo0 2.944080 1_555
Mg4 Nb0 3.075169 1_555
Mg4 Nb0 3.075169 1_655
Mg4 Mg5 3.179138 1_555
Mg4 Mo1 3.309747 1_555
Mg5 Mo0 3.027126 1_545
Mg5 Mo0 3.027126 1_555
Mg5 Mg9 3.074042 1_554
Mg6 Mg7 2.910188 1_565
Mg6 Nb1 2.946420 1_565
Mg6 Mo1 3.073821 1_565
Mg6 Mo1 3.073821 1_465
Mg6 Mg7 3.128097 1_555
Mg6 Mg8 3.206030 1_555
Mg6 Nb0 3.307051 1_555
Mg7 Nb1 2.946420 1_555
Mg7 Mo1 3.073821 1_555
Mg7 Mo1 3.073821 1_455
Mg7 Mg8 3.206030 1_555
Mg7 Nb0 3.307051 1_555
Mg8 Nb1 3.028398 1_555
Mg8 Nb1 3.028398 1_565
Mg8 Mg9 3.032704 1_455
Mg8 Mg9 3.032704 1_555
Mg9 Mo1 2.944080 1_555
Mg9 Nb1 3.075169 1_655
Mg9 Nb1 3.075169 1_555
Mg9 Mo0 3.309747 1_556
Mg10 Mg9 2.930066 1_565
Mg10 Mo1 2.944080 1_565
Mg10 Mg8 3.032704 1_555
Mg10 Mg8 3.032704 1_655
Mg10 Mg5 3.074042 1_566
Mg10 Nb1 3.075169 1_565
Mg10 Nb1 3.075169 1_665
Mg10 Mg9 3.108219 1_555
Mg10 Mg11 3.179138 1_555
Mg10 Mo0 3.309747 1_556
Mg11 Mg8 2.989461 1_655
Mg11 Mg8 2.989461 1_555
Mg11 Mo1 3.027126 1_565
Mg11 Mo1 3.027126 1_555
Mg11 Mg7 3.046201 1_555
Mg11 Mg6 3.046201 1_655
Mg11 Mg7 3.046201 1_655
Mg11 Mg6 3.046201 1_555
Mg11 Mg4 3.074042 1_555
Mg11 Mg3 3.074042 1_555
Mg11 Mg9 3.179138 1_555
Mo0 Nb0 2.743188 1_555
Mo0 Nb0 2.743188 1_655
Mo1 Nb1 2.743188 1_655
Mo1 Nb1 2.743188 1_555
