# generated using pymatgen
data_Mg14ZrCr
_symmetry_space_group_name_H-M   'P 1'
_cell_length_a   6.38223778
_cell_length_b   6.38223726
_cell_length_c   10.11856475
_cell_angle_alpha   90.00000000
_cell_angle_beta   90.00000000
_cell_angle_gamma   120.00000270
_symmetry_Int_Tables_number   1
_chemical_formula_structural   Mg14ZrCr
_chemical_formula_sum   'Mg14 Zr1 Cr1'
_cell_volume   356.94019829
_cell_formula_units_Z   1
loop_
 _symmetry_equiv_pos_site_id
 _symmetry_equiv_pos_as_xyz
  1  'x, y, z'
loop_
 _atom_site_type_symbol
 _atom_site_label
 _atom_site_symmetry_multiplicity
 _atom_site_fract_x
 _atom_site_fract_y
 _atom_site_fract_z
 _atom_site_occupancy
  Mg  Mg0  1  0.17351716  0.83675808  0.12500000  1
  Mg  Mg1  1  0.16667054  0.83333477  0.62500000  1
  Mg  Mg2  1  0.66324192  0.32648284  0.12500000  1
  Mg  Mg3  1  0.66666523  0.33332946  0.62500000  1
  Mg  Mg4  1  0.66324192  0.83675808  0.12500000  1
  Mg  Mg5  1  0.66666523  0.83333477  0.62500000  1
  Mg  Mg6  1  0.32901122  0.17098878  0.37730701  1
  Mg  Mg7  1  0.32901122  0.17098878  0.87269299  1
  Mg  Mg8  1  0.32901122  0.65802343  0.37730701  1
  Mg  Mg9  1  0.32901122  0.65802343  0.87269299  1
  Mg  Mg10  1  0.84197657  0.17098878  0.37730701  1
  Mg  Mg11  1  0.84197657  0.17098878  0.87269299  1
  Mg  Mg12  1  0.83333300  0.66666700  0.37180151  1
  Mg  Mg13  1  0.83333300  0.66666700  0.87819849  1
  Zr  Zr0  1  0.16666700  0.33333300  0.12500000  1
  Cr  Cr0  1  0.16666700  0.33333300  0.62500000  1
loop_
_geom_bond_atom_site_label_1
_geom_bond_atom_site_label_2
_geom_bond_distance
_geom_bond_site_symmetry_2
Mg0 Mg2 3.125540 1_565
Mg0 Mg4 3.125540 1_555
Mg0 Mg13 3.125983 1_454
Mg0 Mg12 3.125983 1_455
Mg0 Mg9 3.152127 1_554
Mg0 Mg8 3.152127 1_555
Mg0 Mg7 3.152134 1_564
Mg0 Mg6 3.152134 1_565
Mg0 Zr0 3.191343 1_555
Mg0 Zr0 3.191343 1_565
Mg0 Mg2 3.256698 1_455
Mg0 Mg4 3.256698 1_455
Mg1 Mg8 3.125089 1_555
Mg1 Mg9 3.125089 1_555
Mg1 Mg7 3.125095 1_565
Mg1 Mg6 3.125095 1_565
Mg1 Mg12 3.155689 1_455
Mg1 Mg13 3.155689 1_455
Mg1 Mg3 3.191085 1_565
Mg1 Mg5 3.191085 1_555
Mg1 Mg3 3.191153 1_455
Mg1 Mg5 3.191153 1_455
Mg2 Mg4 3.125540 1_545
Mg2 Mg7 3.152134 1_554
Mg2 Mg6 3.152134 1_555
Mg2 Zr0 3.191343 1_655
Mg2 Zr0 3.191343 1_555
Mg2 Mg4 3.256698 1_555
Mg3 Mg6 3.125095 1_555
Mg3 Mg7 3.125095 1_555
Mg3 Mg5 3.191085 1_545
Mg3 Mg5 3.191153 1_555
Mg4 Mg8 3.152133 1_555
Mg4 Mg9 3.152133 1_554
Mg4 Zr0 3.191343 1_555
Mg4 Zr0 3.191343 1_665
Mg5 Mg8 3.125095 1_555
Mg5 Mg9 3.125095 1_555
Mg6 Mg8 3.108371 1_555
Mg6 Zr0 3.120635 1_555
Mg6 Mg8 3.273867 1_545
Mg7 Mg9 3.108371 1_555
Mg7 Zr0 3.120635 1_556
Mg7 Mg9 3.273867 1_545
Mg8 Zr0 3.120641 1_555
Mg9 Zr0 3.120641 1_556
Mg10 Mg8 3.108371 1_655
Mg10 Mg6 3.108371 1_655
Mg10 Zr0 3.120641 1_655
Mg10 Mg3 3.125089 1_555
Mg10 Mg5 3.125095 1_545
Mg10 Mg2 3.152127 1_555
Mg10 Mg4 3.152133 1_545
Mg10 Mg12 3.191962 1_545
Mg10 Mg12 3.191962 1_555
Mg10 Mg8 3.273867 1_545
Mg10 Mg6 3.273867 1_555
Mg11 Mg9 3.108371 1_655
Mg11 Mg7 3.108371 1_655
Mg11 Zr0 3.120641 1_656
Mg11 Mg3 3.125089 1_555
Mg11 Mg5 3.125095 1_545
Mg11 Mg2 3.152127 1_556
Mg11 Mg4 3.152133 1_546
Mg11 Mg13 3.191962 1_545
Mg11 Mg13 3.191962 1_555
Mg11 Mg9 3.273867 1_545
Mg11 Mg7 3.273867 1_555
Mg12 Mg4 3.125976 1_555
Mg12 Mg2 3.125982 1_555
Mg12 Mg5 3.155682 1_555
Mg12 Mg3 3.155688 1_555
Mg12 Mg6 3.191962 1_665
Mg12 Mg6 3.191962 1_555
Mg12 Mg8 3.191963 1_555
Mg12 Mg8 3.191963 1_655
Mg13 Mg4 3.125976 1_556
Mg13 Mg2 3.125982 1_556
Mg13 Mg5 3.155682 1_555
Mg13 Mg3 3.155688 1_555
Mg13 Mg7 3.191962 1_665
Mg13 Mg7 3.191962 1_555
Mg13 Mg9 3.191963 1_555
Mg13 Mg9 3.191963 1_655
Cr0 Mg7 3.082557 1_555
Cr0 Mg6 3.082557 1_555
Cr0 Mg9 3.082563 1_555
Cr0 Mg8 3.082563 1_555
Cr0 Mg11 3.082563 1_455
Cr0 Mg10 3.082563 1_455
Cr0 Mg1 3.191119 1_555
Cr0 Mg5 3.191119 1_555
Cr0 Mg5 3.191119 1_445
Cr0 Mg1 3.191119 1_545
Cr0 Mg3 3.191119 1_455
Cr0 Mg3 3.191119 1_555
