# generated using pymatgen
data_SrMg6Mn
_symmetry_space_group_name_H-M   'P 1'
_cell_length_a   5.09483800
_cell_length_b   6.53972100
_cell_length_c   11.30726800
_cell_angle_alpha   90.00000000
_cell_angle_beta   90.00000000
_cell_angle_gamma   90.00000000
_symmetry_Int_Tables_number   1
_chemical_formula_structural   SrMg6Mn
_chemical_formula_sum   'Sr2 Mg12 Mn2'
_cell_volume   376.74481656
_cell_formula_units_Z   2
loop_
 _symmetry_equiv_pos_site_id
 _symmetry_equiv_pos_as_xyz
  1  'x, y, z'
loop_
 _atom_site_type_symbol
 _atom_site_label
 _atom_site_symmetry_multiplicity
 _atom_site_fract_x
 _atom_site_fract_y
 _atom_site_fract_z
 _atom_site_occupancy
  Sr  Sr0  1  0.00000000  0.50000000  0.83366900  1
  Sr  Sr1  1  0.00000000  0.00000000  0.33366900  1
  Mg  Mg0  1  0.00000000  0.24531800  0.08028500  1
  Mg  Mg1  1  0.00000000  0.75468200  0.08028500  1
  Mg  Mg2  1  0.50000000  0.22007000  0.91294200  1
  Mg  Mg3  1  0.50000000  0.77993000  0.91294200  1
  Mg  Mg4  1  0.50000000  0.50000000  0.17917000  1
  Mg  Mg5  1  0.50000000  0.50000000  0.65388400  1
  Mg  Mg6  1  0.00000000  0.74531800  0.58028500  1
  Mg  Mg7  1  0.00000000  0.25468200  0.58028500  1
  Mg  Mg8  1  0.50000000  0.72007000  0.41294200  1
  Mg  Mg9  1  0.50000000  0.27993000  0.41294200  1
  Mg  Mg10  1  0.50000000  0.00000000  0.67917000  1
  Mg  Mg11  1  0.50000000  0.00000000  0.15388400  1
  Mn  Mn0  1  0.00000000  0.50000000  0.34682600  1
  Mn  Mn1  1  0.00000000  0.00000000  0.84682600  1
loop_
_geom_bond_atom_site_label_1
_geom_bond_atom_site_label_2
_geom_bond_distance
_geom_bond_site_symmetry_2
Mg0 Mn1 3.089057 1_554
Mg0 Mg11 3.123415 1_555
Mg0 Mg11 3.123415 1_455
Mg0 Mg2 3.177577 1_454
Mg0 Mg2 3.177577 1_554
Mg0 Mg1 3.208623 1_545
Mg0 Mg4 3.242466 1_455
Mg0 Mg4 3.242466 1_555
Mg0 Sr0 3.248089 1_554
Mg0 Sr1 3.283672 1_555
Mg0 Mg1 3.331098 1_555
Mg0 Mn0 3.443450 1_555
Mg1 Mn1 3.089057 1_564
Mg1 Mg11 3.123415 1_465
Mg1 Mg11 3.123415 1_565
Mg1 Mg3 3.177577 1_554
Mg1 Mg3 3.177577 1_454
Mg1 Mg4 3.242466 1_455
Mg1 Mg4 3.242466 1_555
Mg1 Sr0 3.248089 1_554
Mg1 Sr1 3.283672 1_565
Mg1 Mn0 3.443450 1_555
Mg2 Mg3 2.878393 1_545
Mg2 Mn1 3.019855 1_655
Mg2 Mn1 3.019855 1_555
Mg2 Sr0 3.262535 1_655
Mg2 Sr0 3.262535 1_555
Mg2 Mg5 3.454239 1_555
Mg3 Mn1 3.019855 1_665
Mg3 Mn1 3.019855 1_565
Mg3 Sr0 3.262535 1_655
Mg3 Sr0 3.262535 1_555
Mg3 Mg5 3.454239 1_555
Mg4 Mg8 3.009724 1_555
Mg4 Mg9 3.009724 1_555
Mg4 Mn0 3.175396 1_555
Mg4 Mn0 3.175396 1_655
Mg5 Mg9 3.081172 1_555
Mg5 Mg8 3.081172 1_555
Mg5 Mg6 3.123415 1_655
Mg5 Mg7 3.123415 1_555
Mg5 Mg7 3.123415 1_655
Mg5 Mg6 3.123415 1_555
Mg5 Sr0 3.259131 1_655
Mg5 Sr0 3.259131 1_555
Mg6 Mn0 3.089057 1_555
Mg6 Mg8 3.177577 1_555
Mg6 Mg8 3.177577 1_455
Mg6 Mg7 3.208623 1_555
Mg6 Sr1 3.248089 1_565
Mg6 Sr0 3.283672 1_555
Mg6 Mg7 3.331098 1_565
Mg6 Mn1 3.443450 1_565
Mg7 Mn0 3.089057 1_555
Mg7 Mg9 3.177577 1_455
Mg7 Mg9 3.177577 1_555
Mg7 Sr1 3.248089 1_555
Mg7 Sr0 3.283672 1_555
Mg7 Mn1 3.443450 1_555
Mg8 Mg9 2.878393 1_555
Mg8 Mn0 3.019855 1_555
Mg8 Mn0 3.019855 1_655
Mg8 Sr1 3.262535 1_665
Mg8 Sr1 3.262535 1_565
Mg9 Mn0 3.019855 1_555
Mg9 Mn0 3.019855 1_655
Mg9 Sr1 3.262535 1_655
Mg9 Sr1 3.262535 1_555
Mg10 Mg2 3.009724 1_555
Mg10 Mg3 3.009724 1_545
Mg10 Mn1 3.175396 1_555
Mg10 Mn1 3.175396 1_655
Mg10 Mg6 3.242466 1_645
Mg10 Mg6 3.242466 1_545
Mg10 Mg7 3.242466 1_555
Mg10 Mg7 3.242466 1_655
Mg10 Mg5 3.282337 1_555
Mg10 Mg5 3.282337 1_545
Mg11 Mg3 3.081172 1_544
Mg11 Mg2 3.081172 1_554
Mg11 Sr1 3.259131 1_655
Mg11 Sr1 3.259131 1_555
Mg11 Mg4 3.282337 1_555
Mg11 Mg4 3.282337 1_545
Mg11 Mg9 3.454239 1_555
Mg11 Mg8 3.454239 1_545
Mn0 Sr1 3.273243 1_565
Mn0 Sr1 3.273243 1_555
Mn1 Sr0 3.273243 1_555
Mn1 Sr0 3.273243 1_545
