# generated using pymatgen
data_Ba4LiNb3O12
_symmetry_space_group_name_H-M   'P 1'
_cell_length_a   5.88723519
_cell_length_b   5.88723519
_cell_length_c   19.40103000
_cell_angle_alpha   90.00000000
_cell_angle_beta   90.00000000
_cell_angle_gamma   119.99999091
_symmetry_Int_Tables_number   1
_chemical_formula_structural   Ba4LiNb3O12
_chemical_formula_sum   'Ba8 Li2 Nb6 O24'
_cell_volume   582.34215674
_cell_formula_units_Z   2
loop_
 _symmetry_equiv_pos_site_id
 _symmetry_equiv_pos_as_xyz
  1  'x, y, z'
loop_
 _atom_site_type_symbol
 _atom_site_label
 _atom_site_symmetry_multiplicity
 _atom_site_fract_x
 _atom_site_fract_y
 _atom_site_fract_z
 _atom_site_occupancy
  Ba  Ba0  1  0.66666700  0.33333300  0.25095200  1
  Ba  Ba1  1  0.33333300  0.66666700  0.75095200  1
  Ba  Ba2  1  0.66666700  0.33333300  0.87104400  1
  Ba  Ba3  1  0.33333300  0.66666700  0.37104400  1
  Ba  Ba4  1  0.66666700  0.33333300  0.64409700  1
  Ba  Ba5  1  0.33333300  0.66666700  0.14409700  1
  Ba  Ba6  1  0.00000000  0.00000000  0.50111700  1
  Ba  Ba7  1  0.00000000  0.00000000  0.00111700  1
  Li  Li0  1  0.00000000  0.00000000  0.16602700  1
  Li  Li1  1  0.00000000  0.00000000  0.66602700  1
  Nb  Nb0  1  0.66666700  0.33333300  0.43996300  1
  Nb  Nb1  1  0.33333300  0.66666700  0.93996300  1
  Nb  Nb2  1  0.66666700  0.33333300  0.06770300  1
  Nb  Nb3  1  0.33333300  0.66666700  0.56770300  1
  Nb  Nb4  1  0.00000000  0.00000000  0.80836500  1
  Nb  Nb5  1  0.00000000  0.00000000  0.30836500  1
  O  O0  1  0.84068400  0.68136800  0.75671400  1
  O  O1  1  0.15931600  0.31863200  0.25671400  1
  O  O2  1  0.68136800  0.84068400  0.25671400  1
  O  O3  1  0.84068400  0.15931600  0.75671400  1
  O  O4  1  0.16955700  0.83044300  0.87832500  1
  O  O5  1  0.33911500  0.16955700  0.37832500  1
  O  O6  1  0.83044300  0.66088500  0.37832500  1
  O  O7  1  0.16955700  0.33911500  0.87832500  1
  O  O8  1  0.66088500  0.83044300  0.87832500  1
  O  O9  1  0.83044300  0.16955700  0.37832500  1
  O  O10  1  0.17294300  0.82705700  0.61840600  1
  O  O11  1  0.34588700  0.17294300  0.11840600  1
  O  O12  1  0.15931600  0.84068400  0.25671400  1
  O  O13  1  0.31863200  0.15931600  0.75671400  1
  O  O14  1  0.49863600  0.50136400  0.99680000  1
  O  O15  1  0.99727200  0.49863600  0.49680000  1
  O  O16  1  0.50136400  0.00272800  0.49680000  1
  O  O17  1  0.49863600  0.99727200  0.99680000  1
  O  O18  1  0.00272800  0.50136400  0.99680000  1
  O  O19  1  0.50136400  0.49863600  0.49680000  1
  O  O20  1  0.82705700  0.17294300  0.11840600  1
  O  O21  1  0.65411300  0.82705700  0.61840600  1
  O  O22  1  0.17294300  0.34588700  0.61840600  1
  O  O23  1  0.82705700  0.65411300  0.11840600  1
loop_
_geom_bond_atom_site_label_1
_geom_bond_atom_site_label_2
_geom_bond_distance
_geom_bond_site_symmetry_2
Ba0 O2 2.946690 1_545
Ba0 O1 2.946690 1_655
Ba0 O12 2.946693 1_655
Ba0 O12 2.946693 1_545
Ba0 O2 2.946696 1_555
Ba0 O1 2.946696 1_555
Ba0 O9 2.982556 1_555
Ba0 O6 2.982557 1_555
Ba0 O5 2.982557 1_555
Ba0 O20 3.047557 1_555
Ba0 O11 3.047557 1_555
Ba0 O23 3.047557 1_555
Ba1 O13 2.946690 1_565
Ba1 O0 2.946690 1_455
Ba1 O3 2.946693 1_455
Ba1 O3 2.946693 1_565
Ba1 O13 2.946696 1_555
Ba1 O0 2.946696 1_555
Ba1 O4 2.982556 1_555
Ba1 O8 2.982557 1_555
Ba1 O7 2.982557 1_555
Ba1 O10 3.047557 1_555
Ba1 O22 3.047557 1_555
Ba1 O21 3.047557 1_555
Ba2 O3 2.840550 1_555
Ba2 O0 2.840554 1_555
Ba2 O13 2.840554 1_555
Ba2 O7 2.947147 1_655
Ba2 O8 2.947147 1_545
Ba2 O4 2.947153 1_655
Ba2 O4 2.947153 1_545
Ba2 O8 2.947158 1_555
Ba2 O7 2.947158 1_555
Ba2 O17 2.981336 1_545
Ba2 O18 2.981336 1_655
Ba2 O14 2.981339 1_555
Ba3 O12 2.840550 1_555
Ba3 O2 2.840554 1_555
Ba3 O1 2.840554 1_555
Ba3 O6 2.947147 1_455
Ba3 O5 2.947147 1_565
Ba3 O9 2.947153 1_565
Ba3 O9 2.947153 1_455
Ba3 O5 2.947158 1_555
Ba3 O6 2.947158 1_555
Ba3 O16 2.981336 1_565
Ba3 O15 2.981336 1_455
Ba3 O19 2.981339 1_555
Ba4 O3 2.814675 1_555
Ba4 O13 2.814679 1_555
Ba4 O0 2.814679 1_555
Ba4 O21 2.986198 1_545
Ba4 O22 2.986198 1_655
Ba4 O10 2.986204 1_545
Ba4 O10 2.986204 1_655
Ba4 O22 2.986210 1_555
Ba4 O21 2.986210 1_555
Ba4 O16 3.317791 1_555
Ba4 O15 3.317791 1_555
Ba4 O19 3.317793 1_555
Ba5 O12 2.814675 1_555
Ba5 O2 2.814679 1_555
Ba5 O1 2.814679 1_555
Ba5 O23 2.986198 1_455
Ba5 O11 2.986198 1_565
Ba5 O20 2.986204 1_455
Ba5 O20 2.986204 1_565
Ba5 O11 2.986210 1_555
Ba5 O23 2.986210 1_555
Ba5 O18 3.317791 1_554
Ba5 O17 3.317791 1_554
Ba5 O14 3.317793 1_554
Ba6 O10 2.878880 1_545
Ba6 O21 2.878883 1_445
Ba6 O22 2.878883 1_555
Ba6 O9 2.943578 1_455
Ba6 O6 2.943581 1_445
Ba6 O5 2.943581 1_555
Ba6 O16 2.944842 1_455
Ba6 O15 2.944842 1_455
Ba6 O15 2.944842 1_445
Ba6 O16 2.944842 1_555
Ba6 O19 2.944842 1_445
Ba6 O19 2.944842 1_555
Ba7 O20 2.878880 1_455
Ba7 O11 2.878883 1_555
Ba7 O23 2.878883 1_445
Ba7 O4 2.943578 1_544
Ba7 O7 2.943581 1_554
Ba7 O8 2.943581 1_444
Ba7 O18 2.944842 1_544
Ba7 O17 2.944842 1_544
Ba7 O17 2.944842 1_444
Ba7 O18 2.944842 1_554
Ba7 O14 2.944842 1_444
Ba7 O14 2.944842 1_554
Li0 O20 1.990857 1_455
Li0 O11 1.990861 1_555
Li0 O23 1.990861 1_445
Li0 O12 2.394724 1_545
Li0 O2 2.394725 1_445
Li0 O1 2.394725 1_555
Li1 O10 1.990857 1_545
Li1 O21 1.990861 1_445
Li1 O22 1.990861 1_555
Li1 O3 2.394724 1_455
Li1 O13 2.394725 1_555
Li1 O0 2.394725 1_445
Nb0 O16 2.014236 1_555
Nb0 O15 2.014236 1_555
Nb0 O19 2.014240 1_555
Nb0 O9 2.054023 1_555
Nb0 O6 2.054023 1_555
Nb0 O5 2.054023 1_555
Nb1 O18 2.014236 1_555
Nb1 O17 2.014236 1_555
Nb1 O14 2.014240 1_555
Nb1 O4 2.054023 1_555
Nb1 O8 2.054023 1_555
Nb1 O7 2.054023 1_555
Nb2 O20 1.908531 1_555
Nb2 O11 1.908531 1_555
Nb2 O23 1.908531 1_555
Nb2 O17 2.197273 1_544
Nb2 O18 2.197273 1_654
Nb2 O14 2.197277 1_554
Nb3 O10 1.908531 1_555
Nb3 O21 1.908531 1_555
Nb3 O22 1.908531 1_555
Nb3 O15 2.197273 1_455
Nb3 O16 2.197273 1_565
Nb3 O19 2.197277 1_555
Nb4 O3 1.908746 1_455
Nb4 O13 1.908746 1_555
Nb4 O0 1.908746 1_445
Nb4 O4 2.198089 1_545
Nb4 O7 2.198093 1_555
Nb4 O8 2.198093 1_445
Nb5 O12 1.908746 1_545
Nb5 O2 1.908746 1_445
Nb5 O1 1.908746 1_555
Nb5 O9 2.198089 1_455
Nb5 O5 2.198093 1_555
Nb5 O6 2.198093 1_445
