# generated using pymatgen
data_SmH12(NO5)3
_symmetry_space_group_name_H-M   'P 1'
_cell_length_a   7.60463300
_cell_length_b   9.82578640
_cell_length_c   11.85278422
_cell_angle_alpha   104.08885382
_cell_angle_beta   98.47051863
_cell_angle_gamma   112.01455770
_symmetry_Int_Tables_number   1
_chemical_formula_structural   SmH12(NO5)3
_chemical_formula_sum   'Sm2 H24 N6 O30'
_cell_volume   767.84961361
_cell_formula_units_Z   2
loop_
 _symmetry_equiv_pos_site_id
 _symmetry_equiv_pos_as_xyz
  1  'x, y, z'
loop_
 _atom_site_type_symbol
 _atom_site_label
 _atom_site_symmetry_multiplicity
 _atom_site_fract_x
 _atom_site_fract_y
 _atom_site_fract_z
 _atom_site_occupancy
  Sm  Sm0  1  0.90705300  0.62295200  0.80093700  1
  Sm  Sm1  1  0.09294700  0.37704800  0.19906300  1
  H  H0  1  0.71387400  0.59049700  0.00146800  1
  H  H1  1  0.28612600  0.40950300  0.99853200  1
  H  H2  1  0.74757600  0.43847900  0.98016700  1
  H  H3  1  0.25242400  0.56152100  0.01983300  1
  H  H4  1  0.82450300  0.21436200  0.52420600  1
  H  H5  1  0.17549700  0.78563900  0.47579400  1
  H  H6  1  0.67768800  0.58622500  0.57408200  1
  H  H7  1  0.32231200  0.41377500  0.42591800  1
  H  H8  1  0.73072500  0.90926200  0.77033600  1
  H  H9  1  0.26927500  0.09073800  0.22966400  1
  H  H10  1  0.58442900  0.71641000  0.84151100  1
  H  H11  1  0.41557100  0.28359000  0.15848900  1
  H  H12  1  0.25846700  0.19871800  0.03247300  1
  H  H13  1  0.74153300  0.80128200  0.96752700  1
  H  H14  1  0.44999900  0.38186000  0.58589400  1
  H  H15  1  0.55000100  0.61814000  0.41410600  1
  H  H16  1  0.39350000  0.17332200  0.89401200  1
  H  H17  1  0.60650000  0.82667800  0.10598800  1
  H  H18  1  0.19369600  0.16419000  0.82576800  1
  H  H19  1  0.80630400  0.83581000  0.17423200  1
  H  H20  1  0.43795500  0.15741700  0.34508500  1
  H  H21  1  0.56204500  0.84258300  0.65491500  1
  H  H22  1  0.29592500  0.20907500  0.50510200  1
  H  H23  1  0.70407500  0.79092500  0.49489800  1
  N  N0  1  0.13806900  0.80694200  0.66758400  1
  N  N1  1  0.86193100  0.19305800  0.33241600  1
  N  N2  1  0.27360100  0.82413700  0.01282800  1
  N  N3  1  0.72639900  0.17586300  0.98717200  1
  N  N4  1  0.95384100  0.28549900  0.69877500  1
  N  N5  1  0.04615900  0.71450100  0.30122500  1
  O  O0  1  0.74745800  0.51938000  0.94403100  1
  O  O1  1  0.25254200  0.48062000  0.05596900  1
  O  O2  1  0.69116300  0.92781200  0.69509100  1
  O  O3  1  0.30883700  0.07218800  0.30490900  1
  O  O4  1  0.72597300  0.77055100  0.87759700  1
  O  O5  1  0.27402700  0.22944900  0.12240300  1
  O  O6  1  0.67539300  0.54423400  0.64213600  1
  O  O7  1  0.32460700  0.45576600  0.35786400  1
  O  O8  1  0.29681200  0.21774400  0.90176100  1
  O  O9  1  0.70318800  0.78225600  0.09823900  1
  O  O10  1  0.30791100  0.31297700  0.54335400  1
  O  O11  1  0.69208900  0.68702300  0.45664600  1
  O  O12  1  0.11847700  0.66835700  0.64830900  1
  O  O13  1  0.88152300  0.33164300  0.35169100  1
  O  O14  1  0.08554800  0.86742300  0.75649200  1
  O  O15  1  0.91445200  0.13257700  0.24350800  1
  O  O16  1  0.20795500  0.88517500  0.60152300  1
  O  O17  1  0.79204500  0.11482500  0.39847700  1
  O  O18  1  0.25391400  0.69307100  0.93950300  1
  O  O19  1  0.74608600  0.30692900  0.06049700  1
  O  O20  1  0.12808100  0.85675700  0.99860600  1
  O  O21  1  0.87191900  0.14324300  0.00139400  1
  O  O22  1  0.43030700  0.91083500  0.09200400  1
  O  O23  1  0.56969300  0.08916500  0.90799600  1
  O  O24  1  0.98930200  0.38965300  0.79665200  1
  O  O25  1  0.01069800  0.61034700  0.20334800  1
  O  O26  1  0.83518600  0.29264600  0.60613500  1
  O  O27  1  0.16481400  0.70735400  0.39386500  1
  O  O28  1  0.01535900  0.18694200  0.68430300  1
  O  O29  1  0.98464100  0.81305800  0.31569700  1
loop_
_geom_bond_atom_site_label_1
_geom_bond_atom_site_label_2
_geom_bond_distance
_geom_bond_site_symmetry_2
H0 O0 0.985089 1_554
H1 O1 0.985089 1_556
H2 O0 0.990719 1_555
H3 O1 0.990719 1_555
H4 O26 1.052393 1_555
H4 O17 1.496445 1_555
H5 O27 1.052398 1_555
H5 O16 1.496441 1_555
H6 O6 0.990943 1_555
H7 O7 0.990943 1_555
H8 O2 0.979979 1_555
H9 O3 0.979979 1_555
H10 O4 0.974099 1_555
H11 O5 0.974099 1_555
H12 O5 1.010309 1_555
H13 O4 1.010309 1_555
H14 O10 1.002473 1_555
H15 O11 1.002473 1_555
H16 O8 0.990233 1_555
H17 O9 0.990233 1_555
H18 O8 0.977208 1_555
H19 O9 0.977208 1_555
H20 O3 0.971515 1_555
H21 O2 0.971515 1_555
H22 O10 0.974093 1_555
H23 O11 0.974093 1_555
N0 O16 1.263253 1_555
N0 O12 1.270848 1_555
N0 O14 1.272886 1_555
N1 O17 1.263253 1_555
N1 O13 1.270848 1_555
N1 O15 1.272886 1_555
N2 O22 1.243697 1_555
N2 O20 1.262151 1_554
N2 O18 1.307084 1_554
N3 O23 1.243697 1_555
N3 O21 1.262151 1_556
N3 O19 1.307084 1_556
N4 O28 1.211810 1_655
N4 O24 1.260494 1_555
N4 O26 1.348325 1_555
N5 O29 1.211810 1_455
N5 O25 1.260494 1_555
N5 O27 1.348325 1_555
O0 Sm0 2.430241 1_555
O1 Sm1 2.430241 1_555
O4 Sm0 2.459558 1_555
O5 Sm1 2.459558 1_555
O6 Sm0 2.130124 1_555
O7 Sm1 2.130124 1_555
O12 Sm0 2.601703 1_455
O13 Sm1 2.601703 1_655
O14 Sm0 2.504498 1_455
O15 Sm1 2.504498 1_655
O18 Sm0 2.634436 1_455
O19 Sm1 2.634436 1_655
O20 Sm0 2.629967 1_455
O21 Sm1 2.629967 1_655
O24 Sm0 2.583839 1_555
O25 Sm1 2.583839 1_555
