# generated using pymatgen
data_Dy3Mn3Ga2Si
_symmetry_space_group_name_H-M   'P 1'
_cell_length_a   6.97320553
_cell_length_b   6.97320553
_cell_length_c   4.14871600
_cell_angle_alpha   90.00000000
_cell_angle_beta   90.00000000
_cell_angle_gamma   119.99999555
_symmetry_Int_Tables_number   1
_chemical_formula_structural   Dy3Mn3Ga2Si
_chemical_formula_sum   'Dy3 Mn3 Ga2 Si1'
_cell_volume   174.70659092
_cell_formula_units_Z   1
loop_
 _symmetry_equiv_pos_site_id
 _symmetry_equiv_pos_as_xyz
  1  'x, y, z'
loop_
 _atom_site_type_symbol
 _atom_site_label
 _atom_site_symmetry_multiplicity
 _atom_site_fract_x
 _atom_site_fract_y
 _atom_site_fract_z
 _atom_site_occupancy
  Dy  Dy0  1  0.00378100  0.42190900  0.50000000  1
  Dy  Dy1  1  0.57809100  0.58187200  0.50000000  1
  Dy  Dy2  1  0.41812800  0.99621900  0.50000000  1
  Mn  Mn0  1  0.01161600  0.77026300  0.00000000  1
  Mn  Mn1  1  0.22973700  0.24135300  0.00000000  1
  Mn  Mn2  1  0.75864700  0.98838400  0.00000000  1
  Ga  Ga0  1  0.00000000  0.00000000  0.50000000  1
  Ga  Ga1  1  0.66666700  0.33333300  0.00000000  1
  Si  Si0  1  0.33333300  0.66666700  0.00000000  1
loop_
_geom_bond_atom_site_label_1
_geom_bond_atom_site_label_2
_geom_bond_distance
_geom_bond_site_symmetry_2
Dy0 Si0 2.928267 1_556
Dy0 Si0 2.928267 1_555
Dy0 Ga0 2.928964 1_555
Dy0 Ga1 2.959492 1_455
Dy0 Ga1 2.959492 1_456
Dy0 Mn0 3.173952 1_556
Dy0 Mn0 3.173952 1_555
Dy0 Mn1 3.217860 1_555
Dy0 Mn1 3.217860 1_556
Dy0 Mn2 3.346082 1_446
Dy0 Mn2 3.346082 1_445
Dy1 Si0 2.928270 1_555
Dy1 Si0 2.928270 1_556
Dy1 Ga0 2.928965 1_665
Dy1 Ga1 2.959496 1_556
Dy1 Ga1 2.959496 1_555
Dy1 Mn1 3.173952 1_555
Dy1 Mn1 3.173952 1_556
Dy1 Mn2 3.217860 1_555
Dy1 Mn2 3.217860 1_556
Dy1 Mn0 3.346082 1_655
Dy1 Mn0 3.346082 1_656
Dy2 Si0 2.928265 1_556
Dy2 Si0 2.928265 1_555
Dy2 Ga0 2.928964 1_565
Dy2 Ga1 2.959493 1_566
Dy2 Ga1 2.959493 1_565
Dy2 Mn2 3.173952 1_556
Dy2 Mn2 3.173952 1_555
Dy2 Mn0 3.217860 1_556
Dy2 Mn0 3.217860 1_555
Dy2 Mn1 3.346082 1_566
Dy2 Mn1 3.346082 1_565
Mn0 Si0 2.678678 1_555
Mn0 Mn2 2.847493 1_455
Mn0 Mn1 2.847493 1_565
Mn1 Si0 2.678685 1_555
Mn1 Mn2 2.847493 1_445
Mn2 Si0 2.678683 1_555
Ga0 Mn0 2.646828 1_546
Ga0 Mn0 2.646828 1_545
Ga0 Mn2 2.646828 1_446
Ga0 Mn2 2.646828 1_445
Ga0 Mn1 2.646828 1_555
Ga0 Mn1 2.646828 1_556
Ga1 Mn2 2.782113 1_545
Ga1 Mn0 2.782118 1_655
Ga1 Mn1 2.782120 1_555
