# generated using pymatgen
data_C(N2O)2
_symmetry_space_group_name_H-M   'P 1'
_cell_length_a   15.59483298
_cell_length_b   12.97380982
_cell_length_c   9.11225823
_cell_angle_alpha   88.02364351
_cell_angle_beta   56.24644590
_cell_angle_gamma   35.72991059
_symmetry_Int_Tables_number   1
_chemical_formula_structural   C(N2O)2
_chemical_formula_sum   'C4 N16 O8'
_cell_volume   459.87629409
_cell_formula_units_Z   4
loop_
 _symmetry_equiv_pos_site_id
 _symmetry_equiv_pos_as_xyz
  1  'x, y, z'
loop_
 _atom_site_type_symbol
 _atom_site_label
 _atom_site_symmetry_multiplicity
 _atom_site_fract_x
 _atom_site_fract_y
 _atom_site_fract_z
 _atom_site_occupancy
  C  C0  1  0.73270000  0.00394300  0.16150500  1
  C  C1  1  0.10185200  0.16150500  0.00394300  1
  C  C2  1  0.08849500  0.14814800  0.51730000  1
  C  C3  1  0.24605700  0.51730000  0.14814800  1
  N  N0  1  0.63042200  0.05153500  0.37747800  1
  N  N1  1  0.94056500  0.37747800  0.05153500  1
  N  N2  1  0.87252200  0.30943500  0.61957800  1
  N  N3  1  0.19846500  0.61957800  0.30943500  1
  N  N4  1  0.82284700  0.01848600  0.07316400  1
  N  N5  1  0.08550400  0.07316400  0.01848600  1
  N  N6  1  0.17683600  0.16449600  0.42715300  1
  N  N7  1  0.23151400  0.42715300  0.16449600  1
  N  N8  1  0.72658200  0.96543600  0.02899600  1
  N  N9  1  0.27898600  0.02899600  0.96543600  1
  N  N10  1  0.22100400  0.97101400  0.52341800  1
  N  N11  1  0.28456400  0.52341800  0.97101400  1
  N  N12  1  0.74921300  0.83544300  0.01346900  1
  N  N13  1  0.40187500  0.01346900  0.83544300  1
  N  N14  1  0.23653100  0.84812500  0.50078700  1
  N  N15  1  0.41455700  0.50078700  0.84812500  1
  O  O0  1  0.61027200  0.91694100  0.23903800  1
  O  O1  1  0.23374900  0.23903800  0.91694100  1
  O  O2  1  0.01096200  0.01625100  0.63972800  1
  O  O3  1  0.33305900  0.63972800  0.01625100  1
  O  O4  1  0.90283500  0.65448800  0.76807900  1
  O  O5  1  0.67459800  0.76807900  0.65448800  1
  O  O6  1  0.48192100  0.57540200  0.34716500  1
  O  O7  1  0.59551200  0.34716500  0.57540200  1
loop_
_geom_bond_atom_site_label_1
_geom_bond_atom_site_label_2
_geom_bond_distance
_geom_bond_site_symmetry_2
C0 N0 1.339787 1_555
C0 N4 1.350023 1_555
C0 N8 1.401302 1_545
C1 N1 1.339787 1_455
C1 N5 1.350010 1_555
C1 N9 1.401302 1_554
C2 N2 1.339787 1_455
C2 N6 1.350010 1_555
C2 N10 1.401302 1_545
C3 N3 1.339787 1_555
C3 N7 1.350023 1_555
C3 N11 1.401302 1_554
N10 N14 1.408361 1_555
N11 N15 1.408361 1_555
N12 O0 1.232437 1_555
N12 O4 1.236412 1_554
N12 N8 1.408361 1_555
N13 O1 1.232437 1_555
N13 O5 1.236412 1_545
N13 N9 1.408361 1_555
N14 O2 1.232437 1_565
N14 O6 1.236412 1_555
N15 O3 1.232437 1_556
N15 O7 1.236412 1_555
