# generated using pymatgen
data_V6CoRh
_symmetry_space_group_name_H-M   'P 1'
_cell_length_a   4.69090865
_cell_length_b   4.69090865
_cell_length_c   4.69090865
_cell_angle_alpha   90.00000000
_cell_angle_beta   90.00000000
_cell_angle_gamma   90.00000000
_symmetry_Int_Tables_number   1
_chemical_formula_structural   V6CoRh
_chemical_formula_sum   'V6 Co1 Rh1'
_cell_volume   103.22168089
_cell_formula_units_Z   1
loop_
 _symmetry_equiv_pos_site_id
 _symmetry_equiv_pos_as_xyz
  1  'x, y, z'
loop_
 _atom_site_type_symbol
 _atom_site_label
 _atom_site_symmetry_multiplicity
 _atom_site_fract_x
 _atom_site_fract_y
 _atom_site_fract_z
 _atom_site_occupancy
  V  V0  1  -0.00000000  0.50000000  0.74587320  1
  V  V1  1  0.50000000  0.25412680  -0.00000000  1
  V  V2  1  0.74587320  0.00000000  0.50000000  1
  V  V3  1  0.00000000  0.50000000  0.25412680  1
  V  V4  1  0.50000000  0.74587320  0.00000000  1
  V  V5  1  0.25412680  -0.00000000  0.50000000  1
  Co  Co0  1  0.50000000  0.50000000  0.50000000  1
  Rh  Rh0  1  0.00000000  -0.00000000  -0.00000000  1
loop_
_geom_bond_atom_site_label_1
_geom_bond_atom_site_label_2
_geom_bond_distance
_geom_bond_site_symmetry_2
V0 V3 2.306737 1_555
V0 V3 2.384171 1_556
V1 V4 2.306737 1_555
V1 V4 2.384171 1_545
V2 V5 2.306737 1_555
V2 V5 2.384171 1_655
Co0 V3 2.613698 1_655
Co0 V4 2.613698 1_556
Co0 V0 2.613698 1_555
Co0 V3 2.613698 1_555
Co0 V4 2.613698 1_555
Co0 V1 2.613698 1_555
Co0 V5 2.613698 1_555
Co0 V5 2.613698 1_565
Co0 V2 2.613698 1_565
Co0 V0 2.613698 1_655
Co0 V2 2.613698 1_555
Co0 V1 2.613698 1_556
Rh0 V3 2.631012 1_545
Rh0 V0 2.631012 1_544
Rh0 V2 2.631012 1_455
Rh0 V4 2.631012 1_545
Rh0 V3 2.631012 1_555
Rh0 V0 2.631012 1_554
Rh0 V4 2.631012 1_445
Rh0 V1 2.631012 1_555
Rh0 V5 2.631012 1_555
Rh0 V1 2.631012 1_455
Rh0 V2 2.631012 1_454
Rh0 V5 2.631012 1_554
