# generated using pymatgen
data_FeNi5N4
_symmetry_space_group_name_H-M   'P 1'
_cell_length_a   8.56063300
_cell_length_b   5.80432800
_cell_length_c   4.08050700
_cell_angle_alpha   90.00000000
_cell_angle_beta   90.00000000
_cell_angle_gamma   90.00000000
_symmetry_Int_Tables_number   1
_chemical_formula_structural   FeNi5N4
_chemical_formula_sum   'Fe2 Ni10 N8'
_cell_volume   202.75517721
_cell_formula_units_Z   2
loop_
 _symmetry_equiv_pos_site_id
 _symmetry_equiv_pos_as_xyz
  1  'x, y, z'
loop_
 _atom_site_type_symbol
 _atom_site_label
 _atom_site_symmetry_multiplicity
 _atom_site_fract_x
 _atom_site_fract_y
 _atom_site_fract_z
 _atom_site_occupancy
  Fe  Fe0  1  0.75000000  0.25000000  0.72259900  1
  Fe  Fe1  1  0.25000000  0.75000000  0.27740100  1
  Ni  Ni0  1  0.58915900  0.53624600  0.28594800  1
  Ni  Ni1  1  0.91084100  0.53624600  0.28594800  1
  Ni  Ni2  1  0.58915900  0.96375400  0.28594800  1
  Ni  Ni3  1  0.91084100  0.96375400  0.28594800  1
  Ni  Ni4  1  0.41084100  0.46375400  0.71405200  1
  Ni  Ni5  1  0.08915900  0.46375400  0.71405200  1
  Ni  Ni6  1  0.41084100  0.03624600  0.71405200  1
  Ni  Ni7  1  0.08915900  0.03624600  0.71405200  1
  Ni  Ni8  1  0.75000000  0.75000000  0.79729500  1
  Ni  Ni9  1  0.25000000  0.25000000  0.20270500  1
  N  N0  1  0.75000000  0.02342600  0.01183600  1
  N  N1  1  0.75000000  0.47657400  0.01183600  1
  N  N2  1  0.25000000  0.97657400  0.98816400  1
  N  N3  1  0.25000000  0.52342600  0.98816400  1
  N  N4  1  0.44247000  0.75000000  0.48271400  1
  N  N5  1  0.05753000  0.75000000  0.48271400  1
  N  N6  1  0.55753000  0.25000000  0.51728600  1
  N  N7  1  0.94247000  0.25000000  0.51728600  1
loop_
_geom_bond_atom_site_label_1
_geom_bond_atom_site_label_2
_geom_bond_distance
_geom_bond_site_symmetry_2
Fe0 N1 1.767050 1_556
Fe0 N0 1.767050 1_556
Fe0 N6 1.848426 1_555
Fe0 N7 1.848426 1_555
Fe1 N2 1.767050 1_554
Fe1 N3 1.767050 1_554
Fe1 N5 1.848426 1_555
Fe1 N4 1.848426 1_555
N0 Ni3 1.807456 1_545
N0 Ni2 1.807456 1_545
N0 Ni8 1.812493 1_544
N1 Ni0 1.807456 1_555
N1 Ni1 1.807456 1_555
N1 Ni8 1.812493 1_554
N2 Ni7 1.807456 1_565
N2 Ni6 1.807456 1_565
N2 Ni9 1.812493 1_566
N3 Ni5 1.807456 1_555
N3 Ni4 1.807456 1_555
N3 Ni9 1.812493 1_556
N4 Ni6 1.929993 1_565
N4 Ni4 1.929993 1_555
N4 Ni0 1.939304 1_555
N4 Ni2 1.939304 1_555
N5 Ni7 1.929993 1_565
N5 Ni5 1.929993 1_555
N5 Ni1 1.939304 1_455
N5 Ni3 1.939304 1_455
N6 Ni0 1.929993 1_555
N6 Ni2 1.929993 1_545
N6 Ni4 1.939304 1_555
N6 Ni6 1.939304 1_555
N7 Ni1 1.929993 1_555
N7 Ni3 1.929993 1_545
N7 Ni7 1.939304 1_655
N7 Ni5 1.939304 1_655
