# generated using pymatgen
data_Sm3Mg2WS8
_symmetry_space_group_name_H-M   'P 1'
_cell_length_a   7.94966372
_cell_length_b   7.77404247
_cell_length_c   7.94980685
_cell_angle_alpha   59.24991304
_cell_angle_beta   59.99770530
_cell_angle_gamma   59.25168248
_symmetry_Int_Tables_number   1
_chemical_formula_structural   Sm3Mg2WS8
_chemical_formula_sum   'Sm3 Mg2 W1 S8'
_cell_volume   343.41391833
_cell_formula_units_Z   1
loop_
 _symmetry_equiv_pos_site_id
 _symmetry_equiv_pos_as_xyz
  1  'x, y, z'
loop_
 _atom_site_type_symbol
 _atom_site_label
 _atom_site_symmetry_multiplicity
 _atom_site_fract_x
 _atom_site_fract_y
 _atom_site_fract_z
 _atom_site_occupancy
  Sm  Sm0  1  0.50000233  0.50002322  0.49997779  1
  Sm  Sm1  1  0.49999895  0.49998943  0.00000130  1
  Sm  Sm2  1  0.00000199  0.49999072  0.50001231  1
  Mg  Mg0  1  0.87462929  0.87610037  0.87463874  1
  Mg  Mg1  1  0.12537184  0.12390745  0.12535892  1
  W  W0  1  0.49999921  0.99999431  0.50000741  1
  S  S0  1  0.73094027  0.77231407  0.73093168  1
  S  S1  1  0.26905044  0.22770156  0.73418414  1
  S  S2  1  0.25357390  0.73931748  0.25355461  1
  S  S3  1  0.73418876  0.22771511  0.26903692  1
  S  S4  1  0.74641032  0.26068542  0.74643168  1
  S  S5  1  0.26580835  0.77227943  0.73096663  1
  S  S6  1  0.26905761  0.22767246  0.26908569  1
  S  S7  1  0.73097075  0.77230396  0.26581318  1
loop_
_geom_bond_atom_site_label_1
_geom_bond_atom_site_label_2
_geom_bond_distance
_geom_bond_site_symmetry_2
Mg0 S4 2.413150 1_565
Mg0 S7 2.539796 1_556
Mg0 S5 2.539801 1_655
Mg0 S0 2.539890 1_555
Mg1 S2 2.413181 1_545
Mg1 S1 2.539800 1_554
Mg1 S3 2.539836 1_455
Mg1 S6 2.539871 1_555
S0 W0 2.568785 1_555
S0 Sm2 2.800724 1_655
S0 Sm1 2.800749 1_556
S1 W0 2.568789 1_545
S1 Sm2 2.800695 1_555
S1 Sm0 2.800790 1_555
S2 Sm0 2.742460 1_555
S2 Sm1 2.742517 1_555
S2 Sm2 2.742519 1_555
S3 W0 2.568844 1_545
S3 Sm1 2.800714 1_555
S3 Sm0 2.800756 1_555
S4 Sm1 2.742482 1_556
S4 Sm0 2.742501 1_555
S4 Sm2 2.742518 1_655
S5 W0 2.568820 1_555
S5 Sm1 2.800716 1_556
S5 Sm0 2.800721 1_555
S6 W0 2.568774 1_545
S6 Sm1 2.800714 1_555
S6 Sm2 2.800732 1_555
S7 W0 2.568798 1_555
S7 Sm0 2.800661 1_555
S7 Sm2 2.800746 1_655
