# generated using pymatgen
data_Lu2Co3Si5
_symmetry_space_group_name_H-M   'P 1'
_cell_length_a   7.80833670
_cell_length_b   7.80833670
_cell_length_c   7.80833670
_cell_angle_alpha   138.90745464
_cell_angle_beta   104.79214377
_cell_angle_gamma   89.48650243
_symmetry_Int_Tables_number   1
_chemical_formula_structural   Lu2Co3Si5
_chemical_formula_sum   'Lu4 Co6 Si10'
_cell_volume   289.66237825
_cell_formula_units_Z   2
loop_
 _symmetry_equiv_pos_site_id
 _symmetry_equiv_pos_as_xyz
  1  'x, y, z'
loop_
 _atom_site_type_symbol
 _atom_site_label
 _atom_site_symmetry_multiplicity
 _atom_site_fract_x
 _atom_site_fract_y
 _atom_site_fract_z
 _atom_site_occupancy
  Lu  Lu0  1  0.86826700  0.63362800  0.23463900  1
  Lu  Lu1  1  0.13173300  0.36637200  0.76536100  1
  Lu  Lu2  1  0.39898900  0.13362800  0.26536100  1
  Lu  Lu3  1  0.60101100  0.86637200  0.73463900  1
  Co  Co0  1  0.00000000  0.75000000  0.75000000  1
  Co  Co1  1  0.00000000  0.25000000  0.25000000  1
  Co  Co2  1  0.25027100  0.86307600  0.38719400  1
  Co  Co3  1  0.74972900  0.13692400  0.61280600  1
  Co  Co4  1  0.47588200  0.36307600  0.11280600  1
  Co  Co5  1  0.52411800  0.63692400  0.88719400  1
  Si  Si0  1  0.50000000  0.75000000  0.25000000  1
  Si  Si1  1  0.50000000  0.25000000  0.75000000  1
  Si  Si2  1  0.22946300  0.97946300  0.75000000  1
  Si  Si3  1  0.77053700  0.52053700  0.75000000  1
  Si  Si4  1  0.77053700  0.02053700  0.25000000  1
  Si  Si5  1  0.22946300  0.47946300  0.25000000  1
  Si  Si6  1  0.05571900  0.89811200  0.15760700  1
  Si  Si7  1  0.94428100  0.10188800  0.84239300  1
  Si  Si8  1  0.74050500  0.39811200  0.34239300  1
  Si  Si9  1  0.25949500  0.60188800  0.65760700  1
loop_
_geom_bond_atom_site_label_1
_geom_bond_atom_site_label_2
_geom_bond_distance
_geom_bond_site_symmetry_2
Lu0 Si8 2.806907 1_555
Lu0 Si7 2.947598 1_565
Lu0 Si7 2.947598 1_554
Lu0 Si1 3.012288 1_554
Lu0 Si0 3.012288 1_555
Lu0 Si6 3.024108 1_655
Lu0 Si3 3.030361 1_554
Lu0 Si4 3.030361 1_565
Lu0 Si2 3.066238 1_655
Lu0 Si5 3.066238 1_655
Lu1 Si9 2.806907 1_555
Lu1 Si6 2.947598 1_545
Lu1 Si6 2.947598 1_556
Lu1 Si1 3.012288 1_555
Lu1 Si0 3.012288 1_556
Lu1 Si7 3.024108 1_455
Lu1 Si2 3.030361 1_545
Lu1 Si5 3.030361 1_556
Lu1 Si4 3.066238 1_455
Lu1 Si3 3.066238 1_455
Lu2 Si6 2.806907 1_545
Lu2 Si9 2.947598 1_544
Lu2 Si9 2.947598 1_555
Lu2 Si1 3.012288 1_555
Lu2 Si0 3.012288 1_545
Lu2 Si8 3.024108 1_555
Lu2 Si3 3.030361 1_555
Lu2 Si4 3.030361 1_555
Lu2 Si2 3.066238 1_544
Lu2 Si5 3.066238 1_555
Lu3 Si7 2.806907 1_565
Lu3 Si8 2.947598 1_566
Lu3 Si8 2.947598 1_555
Lu3 Si1 3.012288 1_565
Lu3 Si0 3.012288 1_555
Lu3 Si9 3.024108 1_555
Lu3 Si5 3.030361 1_555
Lu3 Si2 3.030361 1_555
Lu3 Si4 3.066238 1_566
Lu3 Si3 3.066238 1_555
Co0 Si9 2.326023 1_555
Co0 Si7 2.326023 1_465
Co0 Si6 2.326023 1_556
Co0 Si8 2.326023 1_455
Co0 Si3 2.545210 1_455
Co0 Si2 2.545210 1_555
Co0 Co1 2.740443 1_566
Co0 Co1 2.740443 1_555
Co0 Lu2 3.235548 1_566
Co0 Lu0 3.235548 1_455
Co0 Lu1 3.235548 1_555
Co0 Lu3 3.235548 1_455
Co1 Si6 2.326023 1_545
Co1 Si7 2.326023 1_454
Co1 Si9 2.326023 1_555
Co1 Si8 2.326023 1_455
Co1 Si4 2.545210 1_455
Co1 Si5 2.545210 1_555
Co1 Lu0 3.235548 1_455
Co1 Lu2 3.235548 1_555
Co1 Lu1 3.235548 1_555
Co1 Lu3 3.235548 1_444
Co2 Si6 2.222051 1_555
Co2 Si5 2.286807 1_555
Co2 Si2 2.286810 1_555
Co2 Si0 2.310770 1_555
Co2 Si1 2.310774 1_565
Co2 Lu0 2.930981 1_455
Co2 Lu1 2.976447 1_554
Co2 Lu1 2.976452 1_565
Co3 Si7 2.222051 1_555
Co3 Si3 2.286807 1_555
Co3 Si4 2.286810 1_555
Co3 Si1 2.310770 1_555
Co3 Si0 2.310774 1_545
Co3 Lu1 2.930981 1_655
Co3 Lu0 2.976447 1_556
Co3 Lu0 2.976452 1_545
Co4 Si8 2.222048 1_555
Co4 Si2 2.286807 1_544
Co4 Si5 2.286807 1_555
Co4 Si0 2.310778 1_555
Co4 Si1 2.310778 1_554
Co4 Lu2 2.930974 1_555
Co4 Lu3 2.976448 1_544
Co4 Lu3 2.976448 1_555
Co5 Si9 2.222048 1_555
Co5 Si4 2.286807 1_566
Co5 Si3 2.286807 1_555
Co5 Si0 2.310778 1_556
Co5 Si1 2.310778 1_555
Co5 Lu3 2.930974 1_555
Co5 Lu2 2.976448 1_566
Co5 Lu2 2.976448 1_555
Si2 Si7 2.477008 1_465
Si2 Si9 2.477008 1_555
Si2 Si5 2.740443 1_566
Si2 Si5 2.740443 1_555
Si3 Si8 2.477008 1_555
Si3 Si6 2.477008 1_656
Si3 Si4 2.740443 1_555
Si3 Si4 2.740443 1_566
Si4 Si8 2.477008 1_555
Si4 Si6 2.477008 1_645
Si5 Si7 2.477008 1_454
Si5 Si9 2.477008 1_555
