# generated using pymatgen
data_Ba6Te10Br2O25
_symmetry_space_group_name_H-M   'P 1'
_cell_length_a   11.67429158
_cell_length_b   18.37335791
_cell_length_c   18.37335791
_cell_angle_alpha   118.37959162
_cell_angle_beta   90.00000000
_cell_angle_gamma   90.00000000
_symmetry_Int_Tables_number   1
_chemical_formula_structural   Ba6Te10Br2O25
_chemical_formula_sum   'Ba24 Te40 Br8 O100'
_cell_volume   3467.37181962
_cell_formula_units_Z   4
loop_
 _symmetry_equiv_pos_site_id
 _symmetry_equiv_pos_as_xyz
  1  'x, y, z'
loop_
 _atom_site_type_symbol
 _atom_site_label
 _atom_site_symmetry_multiplicity
 _atom_site_fract_x
 _atom_site_fract_y
 _atom_site_fract_z
 _atom_site_occupancy
  Ba  Ba0  1  0.50000000  0.51836568  0.51836568  1
  Ba  Ba1  1  -0.00000000  0.01836568  0.01836568  1
  Ba  Ba2  1  0.50000000  0.00961674  0.00961674  1
  Ba  Ba3  1  -0.00000000  0.50961674  0.50961674  1
  Ba  Ba4  1  0.74468756  0.73219549  0.22603095  1
  Ba  Ba5  1  0.25531244  0.22603095  0.73219549  1
  Ba  Ba6  1  0.75531244  0.23219549  0.72603095  1
  Ba  Ba7  1  0.24468756  0.72603095  0.23219549  1
  Ba  Ba8  1  0.75991232  0.47364828  0.68688883  1
  Ba  Ba9  1  0.24008768  0.68688883  0.47364828  1
  Ba  Ba10  1  0.74008768  0.97364828  0.18688883  1
  Ba  Ba11  1  0.25991232  0.18688883  0.97364828  1
  Ba  Ba12  1  0.75128124  0.18358679  0.96275598  1
  Ba  Ba13  1  0.24871876  0.96275598  0.18358679  1
  Ba  Ba14  1  0.74871876  0.68358679  0.46275598  1
  Ba  Ba15  1  0.25128124  0.46275598  0.68358679  1
  Ba  Ba16  1  0.50081897  0.77973482  0.05783495  1
  Ba  Ba17  1  0.49918103  0.05783495  0.77973482  1
  Ba  Ba18  1  0.99918103  0.27973482  0.55783495  1
  Ba  Ba19  1  0.00081897  0.55783495  0.27973482  1
  Ba  Ba20  1  0.99596693  0.77628801  0.06315214  1
  Ba  Ba21  1  0.00403307  0.06315214  0.77628801  1
  Ba  Ba22  1  0.50403307  0.27628801  0.56315214  1
  Ba  Ba23  1  0.49596693  0.56315214  0.27628801  1
  Te  Te0  1  0.51119761  0.30007498  0.12838956  1
  Te  Te1  1  0.48880239  0.12838956  0.30007498  1
  Te  Te2  1  0.98880239  0.80007498  0.62838956  1
  Te  Te3  1  0.01119761  0.62838956  0.80007498  1
  Te  Te4  1  0.99584236  0.28822946  0.12800449  1
  Te  Te5  1  0.00415764  0.12800449  0.28822946  1
  Te  Te6  1  0.50415764  0.78822946  0.62800449  1
  Te  Te7  1  0.49584236  0.62800449  0.78822946  1
  Te  Te8  1  0.73271138  0.62667308  0.93656757  1
  Te  Te9  1  0.26728862  0.93656757  0.62667308  1
  Te  Te10  1  0.76728862  0.12667308  0.43656757  1
  Te  Te11  1  0.23271138  0.43656757  0.12667308  1
  Te  Te12  1  0.74395251  0.46009133  0.12402147  1
  Te  Te13  1  0.25604749  0.12402147  0.46009133  1
  Te  Te14  1  0.75604749  0.96009133  0.62402147  1
  Te  Te15  1  0.24395251  0.62402147  0.96009133  1
  Te  Te16  1  0.50556077  0.28547851  0.90162373  1
  Te  Te17  1  0.49443923  0.90162373  0.28547851  1
  Te  Te18  1  0.99443923  0.78547851  0.40162373  1
  Te  Te19  1  0.00556077  0.40162373  0.78547851  1
  Te  Te20  1  0.99729648  0.29099649  0.90381364  1
  Te  Te21  1  0.00270352  0.90381364  0.29099649  1
  Te  Te22  1  0.50270352  0.79099649  0.40381364  1
  Te  Te23  1  0.49729648  0.40381364  0.79099649  1
  Te  Te24  1  0.75743342  0.84918790  0.96175339  1
  Te  Te25  1  0.24256658  0.96175339  0.84918790  1
  Te  Te26  1  0.74256658  0.34918790  0.46175339  1
  Te  Te27  1  0.25743342  0.46175339  0.34918790  1
  Te  Te28  1  0.74888976  0.45900835  0.34370911  1
  Te  Te29  1  0.25111024  0.34370911  0.45900835  1
  Te  Te30  1  0.75111024  0.95900835  0.84370911  1
  Te  Te31  1  0.24888976  0.84370911  0.95900835  1
  Te  Te32  1  0.75321837  0.19603925  0.18380769  1
  Te  Te33  1  0.24678163  0.18380769  0.19603925  1
  Te  Te34  1  0.74678163  0.69603925  0.68380769  1
  Te  Te35  1  0.25321837  0.68380769  0.69603925  1
  Te  Te36  1  0.99909449  0.56395008  0.07121237  1
  Te  Te37  1  0.00090551  0.07121237  0.56395008  1
  Te  Te38  1  0.50090551  0.06395008  0.57121237  1
  Te  Te39  1  0.49909449  0.57121237  0.06395008  1
  Br  Br0  1  0.75216371  0.41954431  0.92023568  1
  Br  Br1  1  0.24783629  0.92023568  0.41954431  1
  Br  Br2  1  0.74783629  0.91954431  0.42023568  1
  Br  Br3  1  0.25216371  0.42023568  0.91954431  1
  Br  Br4  1  0.50000000  0.82848967  0.82848967  1
  Br  Br5  1  -0.00000000  0.32848967  0.32848967  1
  Br  Br6  1  -0.00000000  0.83163119  0.83163119  1
  Br  Br7  1  0.50000000  0.33163119  0.33163119  1
  O  O0  1  0.62124693  0.36984269  0.71670325  1
  O  O1  1  0.37875307  0.71670325  0.36984269  1
  O  O2  1  0.87875307  0.86984269  0.21670325  1
  O  O3  1  0.12124693  0.21670325  0.86984269  1
  O  O4  1  0.88172426  0.36152135  0.71134591  1
  O  O5  1  0.11827574  0.71134591  0.36152135  1
  O  O6  1  0.61827574  0.86152135  0.21134591  1
  O  O7  1  0.38172426  0.21134591  0.86152135  1
  O  O8  1  0.62263329  0.20639680  0.85338224  1
  O  O9  1  0.37736671  0.85338224  0.20639680  1
  O  O10  1  0.87736671  0.70639680  0.35338224  1
  O  O11  1  0.12263329  0.35338224  0.70639680  1
  O  O12  1  0.88025917  0.21178144  0.85512919  1
  O  O13  1  0.11974083  0.85512919  0.21178144  1
  O  O14  1  0.61974083  0.71178144  0.35512919  1
  O  O15  1  0.38025917  0.35512919  0.71178144  1
  O  O16  1  0.63145190  0.88957452  0.03460535  1
  O  O17  1  0.36854810  0.03460535  0.88957452  1
  O  O18  1  0.86854810  0.38957452  0.53460535  1
  O  O19  1  0.13145190  0.53460535  0.38957452  1
  O  O20  1  0.87363248  0.89545845  0.04191474  1
  O  O21  1  0.12636752  0.04191474  0.89545845  1
  O  O22  1  0.62636752  0.39545845  0.54191474  1
  O  O23  1  0.37363248  0.54191474  0.39545845  1
  O  O24  1  0.63018105  0.53747237  0.38472606  1
  O  O25  1  0.36981895  0.38472606  0.53747237  1
  O  O26  1  0.86981895  0.03747237  0.88472606  1
  O  O27  1  0.13018105  0.88472606  0.03747237  1
  O  O28  1  0.87081808  0.53461340  0.39181190  1
  O  O29  1  0.12918192  0.39181190  0.53461340  1
  O  O30  1  0.62918192  0.03461340  0.89181190  1
  O  O31  1  0.37081808  0.89181190  0.03461340  1
  O  O32  1  0.50426468  0.29925854  0.80003714  1
  O  O33  1  0.49573532  0.80003714  0.29925854  1
  O  O34  1  0.99573532  0.79925854  0.30003714  1
  O  O35  1  0.00426468  0.30003714  0.79925854  1
  O  O36  1  0.74135527  0.45191219  0.45063223  1
  O  O37  1  0.25864473  0.45063223  0.45191219  1
  O  O38  1  0.75864473  0.95191219  0.95063223  1
  O  O39  1  0.24135527  0.95063223  0.95191219  1
  O  O40  1  0.51863630  0.23917512  0.01114082  1
  O  O41  1  0.48136370  0.01114082  0.23917512  1
  O  O42  1  0.98136370  0.73917512  0.51114082  1
  O  O43  1  0.01863630  0.51114082  0.73917512  1
  O  O44  1  0.96340374  0.25885964  0.01705831  1
  O  O45  1  0.03659626  0.01705831  0.25885964  1
  O  O46  1  0.53659626  0.75885964  0.51705831  1
  O  O47  1  0.46340374  0.51705831  0.75885964  1
  O  O48  1  0.76792786  0.73971731  0.00345124  1
  O  O49  1  0.23207214  0.00345124  0.73971731  1
  O  O50  1  0.73207214  0.23971731  0.50345124  1
  O  O51  1  0.26792786  0.50345124  0.23971731  1
  O  O52  1  0.77765325  0.49106156  0.23653871  1
  O  O53  1  0.22234675  0.23653871  0.49106156  1
  O  O54  1  0.72234675  0.99106156  0.73653871  1
  O  O55  1  0.27765325  0.73653871  0.99106156  1
  O  O56  1  0.62072335  0.60756925  0.71622001  1
  O  O57  1  0.37927665  0.71622001  0.60756925  1
  O  O58  1  0.87927665  0.10756925  0.21622001  1
  O  O59  1  0.12072335  0.21622001  0.10756925  1
  O  O60  1  0.83627150  0.60077241  0.63411268  1
  O  O61  1  0.16372850  0.63411268  0.60077241  1
  O  O62  1  0.66372850  0.10077241  0.13411268  1
  O  O63  1  0.33627150  0.13411268  0.10077241  1
  O  O64  1  0.67146574  0.25880115  0.13323025  1
  O  O65  1  0.32853426  0.13323025  0.25880115  1
  O  O66  1  0.82853426  0.75880115  0.63323025  1
  O  O67  1  0.17146574  0.63323025  0.75880115  1
  O  O68  1  0.87051190  0.17622301  0.10273229  1
  O  O69  1  0.12948810  0.10273229  0.17622301  1
  O  O70  1  0.62948810  0.67622301  0.60273229  1
  O  O71  1  0.37051190  0.60273229  0.67622301  1
  O  O72  1  0.59428330  0.66309197  0.09109893  1
  O  O73  1  0.40571670  0.09109893  0.66309197  1
  O  O74  1  0.90571670  0.16309197  0.59109893  1
  O  O75  1  0.09428330  0.59109893  0.16309197  1
  O  O76  1  0.90820967  0.65756106  0.09985253  1
  O  O77  1  0.09179033  0.09985253  0.65756106  1
  O  O78  1  0.59179033  0.15756106  0.59985253  1
  O  O79  1  0.40820967  0.59985253  0.15756106  1
  O  O80  1  0.64636955  0.54999198  0.14592662  1
  O  O81  1  0.35363045  0.14592662  0.54999198  1
  O  O82  1  0.85363045  0.04999198  0.64592662  1
  O  O83  1  0.14636955  0.64592662  0.04999198  1
  O  O84  1  0.88942452  0.51659161  0.12503056  1
  O  O85  1  0.11057548  0.12503056  0.51659161  1
  O  O86  1  0.61057548  0.01659161  0.62503056  1
  O  O87  1  0.38942452  0.62503056  0.01659161  1
  O  O88  1  0.82462387  0.59889365  0.84232841  1
  O  O89  1  0.17537613  0.84232841  0.59889365  1
  O  O90  1  0.67537613  0.09889365  0.34232841  1
  O  O91  1  0.32462387  0.34232841  0.09889365  1
  O  O92  1  0.58953727  0.65028766  0.89480552  1
  O  O93  1  0.41046273  0.89480552  0.65028766  1
  O  O94  1  0.91046273  0.15028766  0.39480552  1
  O  O95  1  0.08953727  0.39480552  0.15028766  1
  O  O96  1  0.56571847  0.40528755  0.15195650  1
  O  O97  1  0.43428153  0.15195650  0.40528755  1
  O  O98  1  0.93428153  0.90528755  0.65195650  1
  O  O99  1  0.06571847  0.65195650  0.90528755  1
loop_
_geom_bond_atom_site_label_1
_geom_bond_atom_site_label_2
_geom_bond_distance
_geom_bond_site_symmetry_2
Ba0 O22 2.896887 1_555
Ba0 O23 2.896887 1_555
Ba0 O71 2.970904 1_555
Ba0 O70 2.970904 1_555
Ba0 O24 3.046538 1_555
Ba0 O25 3.046538 1_555
Ba0 O36 3.087756 1_555
Ba0 O37 3.087756 1_555
Ba0 O57 3.496239 1_555
Ba0 O56 3.496239 1_555
Ba0 Br7 3.514626 1_555
Ba1 O20 2.896887 1_445
Ba1 O21 2.896887 1_554
Ba1 O69 2.970904 1_555
Ba1 O68 2.970904 1_455
Ba1 O27 3.046538 1_545
Ba1 O26 3.046538 1_454
Ba1 O39 3.087756 1_544
Ba1 O38 3.087756 1_444
Ba1 O58 3.496239 1_455
Ba1 O59 3.496239 1_555
Ba1 Br6 3.514626 1_544
Ba2 O62 2.837068 1_555
Ba2 O63 2.837068 1_555
Ba2 O30 2.848727 1_554
Ba2 O31 2.848727 1_545
Ba2 O16 2.897072 1_545
Ba2 O17 2.897072 1_554
Ba2 O38 3.213043 1_544
Ba2 O39 3.213043 1_544
Ba2 Br4 3.409086 1_544
Ba3 O61 2.837068 1_555
Ba3 O60 2.837068 1_455
Ba3 O28 2.848727 1_455
Ba3 O29 2.848727 1_555
Ba3 O18 2.897072 1_455
Ba3 O19 2.897072 1_555
Ba3 O37 3.213043 1_555
Ba3 O36 3.213043 1_455
Ba3 Br5 3.409086 1_555
Ba4 O72 2.801614 1_555
Ba4 O76 2.806641 1_555
Ba4 O6 2.916546 1_555
Ba4 O14 2.956409 1_555
Ba4 O10 3.025431 1_555
Ba4 O2 3.047466 1_555
Ba4 O80 3.163356 1_555
Ba4 O33 3.196323 1_555
Ba4 O34 3.219326 1_555
Ba4 Br2 3.592525 1_555
Ba5 O73 2.801614 1_555
Ba5 O77 2.806641 1_555
Ba5 O7 2.916546 1_555
Ba5 O15 2.956409 1_555
Ba5 O11 3.025431 1_555
Ba5 O3 3.047466 1_555
Ba5 O81 3.163356 1_555
Ba5 O32 3.196323 1_555
Ba5 O35 3.219326 1_555
Ba5 Br3 3.592525 1_555
Ba6 O74 2.801614 1_555
Ba6 O78 2.806641 1_555
Ba6 O4 2.916546 1_555
Ba6 O12 2.956409 1_555
Ba6 O8 3.025431 1_555
Ba6 O0 3.047466 1_555
Ba6 O82 3.163356 1_555
Ba6 O35 3.196323 1_655
Ba6 O32 3.219326 1_555
Ba6 Br0 3.592525 1_555
Ba7 O75 2.801614 1_555
Ba7 O79 2.806641 1_555
Ba7 O5 2.916546 1_555
Ba7 O13 2.956409 1_555
Ba7 O9 3.025431 1_555
Ba7 O1 3.047466 1_555
Ba7 O83 3.163356 1_555
Ba7 O34 3.196323 1_455
Ba7 O33 3.219326 1_555
Ba7 Br1 3.592525 1_555
Ba8 O4 2.710802 1_555
Ba8 O0 2.747994 1_555
Ba8 O18 2.777505 1_555
Ba8 O56 2.779338 1_555
Ba8 O88 2.788378 1_555
Ba8 O22 2.819904 1_555
Ba8 O60 3.056705 1_555
Ba8 O43 3.145038 1_655
Ba9 O5 2.710802 1_555
Ba9 O1 2.747994 1_555
Ba9 O19 2.777505 1_555
Ba9 O57 2.779338 1_555
Ba9 O89 2.788378 1_555
Ba9 O23 2.819904 1_555
Ba9 O61 3.056705 1_555
Ba9 O42 3.145038 1_455
Ba10 O6 2.710802 1_555
Ba10 O2 2.747994 1_555
Ba10 O16 2.777505 1_555
Ba10 O58 2.779338 1_565
Ba10 O90 2.788378 1_565
Ba10 O20 2.819904 1_555
Ba10 O62 3.056705 1_565
Ba10 O41 3.145038 1_565
Ba11 O7 2.710802 1_555
Ba11 O3 2.747994 1_555
Ba11 O17 2.777505 1_555
Ba11 O59 2.779338 1_556
Ba11 O91 2.788378 1_556
Ba11 O21 2.819904 1_555
Ba11 O63 3.056705 1_556
Ba11 O40 3.145038 1_556
Ba12 O8 2.696335 1_555
Ba12 O12 2.723920 1_555
Ba12 O26 2.742039 1_555
Ba12 O44 2.780091 1_556
Ba12 O30 2.798428 1_555
Ba12 O40 2.889080 1_556
Ba12 O64 2.910981 1_556
Ba12 O68 2.983438 1_556
Ba13 O9 2.696335 1_555
Ba13 O13 2.723920 1_555
Ba13 O27 2.742039 1_555
Ba13 O45 2.780091 1_565
Ba13 O31 2.798428 1_555
Ba13 O41 2.889080 1_565
Ba13 O65 2.910981 1_565
Ba13 O69 2.983438 1_565
Ba14 O10 2.696335 1_555
Ba14 O14 2.723920 1_555
Ba14 O24 2.742039 1_555
Ba14 O46 2.780091 1_555
Ba14 O28 2.798428 1_555
Ba14 O42 2.889080 1_555
Ba14 O66 2.910981 1_555
Ba14 O70 2.983438 1_555
Ba15 O11 2.696335 1_555
Ba15 O15 2.723920 1_555
Ba15 O25 2.742039 1_555
Ba15 O47 2.780091 1_555
Ba15 O29 2.798428 1_555
Ba15 O43 2.889080 1_555
Ba15 O67 2.910981 1_555
Ba15 O71 2.983438 1_555
Ba16 O16 2.720215 1_555
Ba16 O72 2.720698 1_555
Ba16 O31 2.749727 1_555
Ba16 O9 2.801353 1_555
Ba16 O55 2.827903 1_554
Ba16 O6 2.839815 1_555
Ba16 O87 2.880498 1_555
Ba16 O92 2.988211 1_554
Ba16 O48 3.250302 1_555
Ba17 O17 2.720215 1_555
Ba17 O73 2.720698 1_555
Ba17 O30 2.749727 1_555
Ba17 O8 2.801353 1_555
Ba17 O54 2.827903 1_545
Ba17 O7 2.839815 1_555
Ba17 O86 2.880498 1_555
Ba17 O93 2.988211 1_545
Ba17 O49 3.250302 1_555
Ba18 O18 2.720215 1_555
Ba18 O74 2.720698 1_555
Ba18 O29 2.749727 1_655
Ba18 O11 2.801353 1_655
Ba18 O53 2.827903 1_655
Ba18 O4 2.839815 1_555
Ba18 O85 2.880498 1_655
Ba18 O94 2.988211 1_555
Ba18 O50 3.250302 1_555
Ba19 O19 2.720215 1_555
Ba19 O75 2.720698 1_555
Ba19 O28 2.749727 1_455
Ba19 O10 2.801353 1_455
Ba19 O52 2.827903 1_455
Ba19 O5 2.839815 1_555
Ba19 O84 2.880498 1_455
Ba19 O95 2.988211 1_555
Ba19 O51 3.250302 1_555
Ba20 O27 2.746056 1_655
Ba20 O76 2.767883 1_555
Ba20 O20 2.792541 1_555
Ba20 O13 2.807708 1_655
Ba20 O99 2.827672 1_654
Ba20 O48 2.835722 1_555
Ba20 O2 2.859471 1_555
Ba20 O83 2.885789 1_655
Ba21 O26 2.746056 1_455
Ba21 O77 2.767883 1_555
Ba21 O21 2.792541 1_555
Ba21 O12 2.807708 1_455
Ba21 O98 2.827672 1_445
Ba21 O49 2.835722 1_555
Ba21 O3 2.859471 1_555
Ba21 O82 2.885789 1_455
Ba22 O25 2.746056 1_555
Ba22 O78 2.767883 1_555
Ba22 O22 2.792541 1_555
Ba22 O15 2.807708 1_555
Ba22 O97 2.827672 1_555
Ba22 O50 2.835722 1_555
Ba22 O0 2.859471 1_555
Ba22 O81 2.885789 1_555
Ba23 O24 2.746056 1_555
Ba23 O79 2.767883 1_555
Ba23 O23 2.792541 1_555
Ba23 O14 2.807708 1_555
Ba23 O96 2.827672 1_555
Ba23 O51 2.835722 1_555
Ba23 O1 2.859471 1_555
Ba23 O80 2.885789 1_555
O0 Te23 1.880647 1_555
O1 Te22 1.880647 1_555
O2 Te21 1.880647 1_655
O3 Te20 1.880647 1_455
O4 Te19 1.879931 1_655
O5 Te18 1.879931 1_455
O6 Te17 1.879931 1_555
O7 Te16 1.879931 1_555
O8 Te16 1.881628 1_555
O9 Te17 1.881628 1_555
O10 Te18 1.881628 1_555
O11 Te19 1.881628 1_555
O12 Te20 1.883532 1_555
O13 Te21 1.883532 1_555
O14 Te22 1.883532 1_555
O15 Te23 1.883532 1_555
O16 Te24 1.887111 1_554
O17 Te25 1.887111 1_545
O18 Te26 1.887111 1_555
O19 Te27 1.887111 1_555
O20 Te24 1.881992 1_554
O21 Te25 1.881992 1_545
O22 Te26 1.881992 1_555
O23 Te27 1.881992 1_555
O24 Te28 1.879903 1_555
O25 Te29 1.879903 1_555
O26 Te30 1.879903 1_545
O27 Te31 1.879903 1_554
O28 Te28 1.889397 1_555
O29 Te29 1.889397 1_555
O30 Te30 1.889397 1_545
O31 Te31 1.889397 1_554
O32 Te16 1.999334 1_555
O32 Te23 2.006963 1_555
O33 Te17 1.999334 1_555
O33 Te22 2.006963 1_555
O34 Te18 1.999334 1_555
O34 Te21 2.006963 1_655
O35 Te19 1.999334 1_555
O35 Te20 2.006963 1_455
O36 Te26 1.992688 1_555
O36 Te28 2.031657 1_555
O37 Te27 1.992688 1_555
O37 Te29 2.031657 1_555
O38 Te24 1.992688 1_555
O38 Te30 2.031657 1_555
O39 Te25 1.992688 1_555
O39 Te31 2.031657 1_555
O40 Te0 1.899715 1_555
O40 Te16 2.534434 1_554
O41 Te1 1.899715 1_555
O41 Te17 2.534434 1_545
O42 Te2 1.899715 1_555
O42 Te18 2.534434 1_555
O43 Te3 1.899715 1_555
O43 Te19 2.534434 1_555
O44 Te4 1.882610 1_555
O44 Te20 2.449970 1_554
O45 Te5 1.882610 1_555
O45 Te21 2.449970 1_545
O46 Te6 1.882610 1_555
O46 Te22 2.449970 1_555
O47 Te7 1.882610 1_555
O47 Te23 2.449970 1_555
O48 Te8 1.888585 1_554
O48 Te24 2.472311 1_554
O49 Te9 1.888585 1_545
O49 Te25 2.472311 1_545
O50 Te10 1.888585 1_555
O50 Te26 2.472311 1_555
O51 Te11 1.888585 1_555
O51 Te27 2.472311 1_555
O52 Te12 1.906336 1_555
O52 Te28 2.332219 1_555
O53 Te13 1.906336 1_555
O53 Te29 2.332219 1_555
O54 Te14 1.906336 1_555
O54 Te30 2.332219 1_555
O55 Te15 1.906336 1_555
O55 Te31 2.332219 1_555
O56 Te7 1.882733 1_555
O56 Te34 2.466336 1_555
O57 Te6 1.882733 1_555
O57 Te35 2.466336 1_555
O58 Te5 1.882733 1_655
O58 Te32 2.466336 1_555
O59 Te4 1.882733 1_455
O59 Te33 2.466336 1_555
O60 Te34 1.862704 1_555
O61 Te35 1.862704 1_555
O62 Te32 1.862704 1_555
O63 Te33 1.862704 1_555
O64 Te32 2.030485 1_555
O64 Te0 2.036617 1_555
O65 Te33 2.030485 1_555
O65 Te1 2.036617 1_555
O66 Te34 2.030485 1_555
O66 Te2 2.036617 1_555
O67 Te35 2.030485 1_555
O67 Te3 2.036617 1_555
O68 Te32 1.926397 1_555
O68 Te4 2.383927 1_555
O69 Te33 1.926397 1_555
O69 Te5 2.383927 1_555
O70 Te34 1.926397 1_555
O70 Te6 2.383927 1_555
O71 Te35 1.926397 1_555
O71 Te7 2.383927 1_555
O72 Te39 1.879637 1_555
O73 Te38 1.879637 1_555
O74 Te37 1.879637 1_655
O75 Te36 1.879637 1_455
O76 Te36 1.870964 1_555
O77 Te37 1.870964 1_555
O78 Te38 1.870964 1_555
O79 Te39 1.870964 1_555
O80 Te12 1.885786 1_555
O80 Te39 2.436177 1_555
O81 Te13 1.885786 1_555
O81 Te38 2.436177 1_555
O82 Te14 1.885786 1_545
O82 Te37 2.436177 1_655
O83 Te15 1.885786 1_554
O83 Te36 2.436177 1_455
O84 Te12 1.985916 1_555
O84 Te36 2.047447 1_555
O85 Te13 1.985916 1_555
O85 Te37 2.047447 1_555
O86 Te14 1.985916 1_545
O86 Te38 2.047447 1_555
O87 Te15 1.985916 1_554
O87 Te39 2.047447 1_555
O88 Te8 1.889393 1_555
O88 Te3 2.457751 1_655
O89 Te9 1.889393 1_555
O89 Te2 2.457751 1_455
O90 Te10 1.889393 1_555
O90 Te1 2.457751 1_555
O91 Te11 1.889393 1_555
O91 Te0 2.457751 1_555
O92 Te8 1.971614 1_555
O92 Te7 2.106263 1_555
O93 Te9 1.971614 1_555
O93 Te6 2.106263 1_555
O94 Te10 1.971614 1_555
O94 Te5 2.106263 1_655
O95 Te11 1.971614 1_555
O95 Te4 2.106263 1_455
O96 Te0 1.879843 1_555
O96 Te12 2.469451 1_555
O97 Te1 1.879843 1_555
O97 Te13 2.469451 1_555
O98 Te2 1.879843 1_555
O98 Te14 2.469451 1_555
O99 Te3 1.879843 1_555
O99 Te15 2.469451 1_555
