# generated using pymatgen
data_KCr2FeO10
_symmetry_space_group_name_H-M   'P 1'
_cell_length_a   6.22747033
_cell_length_b   6.22747033
_cell_length_c   7.79324065
_cell_angle_alpha   67.61225536
_cell_angle_beta   67.61225536
_cell_angle_gamma   52.06989875
_symmetry_Int_Tables_number   1
_chemical_formula_structural   KCr2FeO10
_chemical_formula_sum   'K1 Cr2 Fe1 O10'
_cell_volume   215.91303371
_cell_formula_units_Z   1
loop_
 _symmetry_equiv_pos_site_id
 _symmetry_equiv_pos_as_xyz
  1  'x, y, z'
loop_
 _atom_site_type_symbol
 _atom_site_label
 _atom_site_symmetry_multiplicity
 _atom_site_fract_x
 _atom_site_fract_y
 _atom_site_fract_z
 _atom_site_occupancy
  K  K0  1  0.00000000  0.00000000  0.50000000  1
  Cr  Cr0  1  0.60716900  0.60716900  0.72293100  1
  Cr  Cr1  1  0.39283100  0.39283100  0.27706900  1
  Fe  Fe0  1  0.00000000  0.00000000  0.00000000  1
  O  O0  1  0.25387100  0.76847800  0.81807600  1
  O  O1  1  0.76847800  0.25387100  0.81807600  1
  O  O2  1  0.74612900  0.23152200  0.18192400  1
  O  O3  1  0.23152200  0.74612900  0.18192400  1
  O  O4  1  0.73899400  0.73899400  0.75892500  1
  O  O5  1  0.26100600  0.26100600  0.24107500  1
  O  O6  1  0.64545600  0.64545600  0.49795500  1
  O  O7  1  0.35454400  0.35454400  0.50204500  1
  O  O8  1  0.82058400  0.82058400  0.08198800  1
  O  O9  1  0.17941600  0.17941600  0.91801200  1
loop_
_geom_bond_atom_site_label_1
_geom_bond_atom_site_label_2
_geom_bond_distance
_geom_bond_site_symmetry_2
K0 O5 2.758054 1_555
K0 O4 2.758054 1_445
K0 O1 2.860660 1_455
K0 O0 2.860660 1_545
K0 O3 2.860660 1_545
K0 O2 2.860660 1_455
K0 O6 3.177935 1_545
K0 O6 3.177935 1_455
K0 O7 3.177935 1_455
K0 O7 3.177935 1_545
Cr0 O4 1.614288 1_555
Cr0 O6 1.618871 1_555
Cr0 O0 1.734104 1_555
Cr0 O1 1.734104 1_555
Cr1 O5 1.614288 1_555
Cr1 O7 1.618871 1_555
Cr1 O2 1.734104 1_555
Cr1 O3 1.734104 1_555
Fe0 O9 1.830884 1_554
Fe0 O8 1.830884 1_445
Fe0 O2 1.906750 1_455
Fe0 O3 1.906750 1_545
Fe0 O1 1.906750 1_454
Fe0 O0 1.906750 1_544
