# generated using pymatgen
data_Ti3CuSn
_symmetry_space_group_name_H-M   'P 1'
_cell_length_a   4.70376811
_cell_length_b   4.70400500
_cell_length_c   5.07687300
_cell_angle_alpha   90.00000000
_cell_angle_beta   90.00000000
_cell_angle_gamma   59.99832699
_symmetry_Int_Tables_number   1
_chemical_formula_structural   Ti3CuSn
_chemical_formula_sum   'Ti3 Cu1 Sn1'
_cell_volume   97.28217849
_cell_formula_units_Z   1
loop_
 _symmetry_equiv_pos_site_id
 _symmetry_equiv_pos_as_xyz
  1  'x, y, z'
loop_
 _atom_site_type_symbol
 _atom_site_label
 _atom_site_symmetry_multiplicity
 _atom_site_fract_x
 _atom_site_fract_y
 _atom_site_fract_z
 _atom_site_occupancy
  Ti  Ti0  1  0.00004800  0.99997600  0.48303600  1
  Ti  Ti1  1  0.00004800  0.99997600  0.01696400  1
  Ti  Ti2  1  0.33326300  0.33336800  0.25000000  1
  Cu  Cu0  1  0.33342200  0.33328900  0.75000000  1
  Sn  Sn0  1  0.66661800  0.66669100  0.25000000  1
loop_
_geom_bond_atom_site_label_1
_geom_bond_atom_site_label_2
_geom_bond_distance
_geom_bond_site_symmetry_2
Ti0 Ti1 2.366188 1_555
Ti0 Ti1 2.710685 1_556
Ti0 Ti2 2.962099 1_565
Ti0 Ti2 2.962103 1_555
Ti0 Ti2 2.962638 1_465
Ti1 Ti2 2.962099 1_565
Ti1 Ti2 2.962103 1_555
Ti1 Ti2 2.962638 1_465
Cu0 Ti2 2.538437 1_555
Cu0 Ti2 2.538437 1_556
Cu0 Ti1 3.034955 1_646
Cu0 Ti0 3.034955 1_645
Cu0 Ti1 3.035299 1_556
Cu0 Ti0 3.035299 1_555
Cu0 Ti1 3.035300 1_546
Cu0 Ti0 3.035300 1_545
Sn0 Ti2 2.715588 1_655
Sn0 Ti2 2.715855 1_565
Sn0 Ti2 2.715859 1_555
Sn0 Ti0 2.961835 1_555
Sn0 Ti1 2.961835 1_555
Sn0 Ti0 2.962502 1_645
Sn0 Ti1 2.962502 1_645
Sn0 Ti0 2.962503 1_655
Sn0 Ti1 2.962503 1_655
