# generated using pymatgen
data_Li6Mn3Sb(PO4)6
_symmetry_space_group_name_H-M   'P 1'
_cell_length_a   8.76731800
_cell_length_b   8.79725965
_cell_length_c   8.80498945
_cell_angle_alpha   60.59827456
_cell_angle_beta   60.76349742
_cell_angle_gamma   60.21339603
_symmetry_Int_Tables_number   1
_chemical_formula_structural   Li6Mn3Sb(PO4)6
_chemical_formula_sum   'Li6 Mn3 Sb1 P6 O24'
_cell_volume   485.88060274
_cell_formula_units_Z   1
loop_
 _symmetry_equiv_pos_site_id
 _symmetry_equiv_pos_as_xyz
  1  'x, y, z'
loop_
 _atom_site_type_symbol
 _atom_site_label
 _atom_site_symmetry_multiplicity
 _atom_site_fract_x
 _atom_site_fract_y
 _atom_site_fract_z
 _atom_site_occupancy
  Li  Li0  1  0.96642700  0.99247600  0.97967400  1
  Li  Li1  1  0.27569400  0.64209200  0.84092600  1
  Li  Li2  1  0.52443500  0.50775800  0.49940800  1
  Li  Li3  1  0.69206600  0.36124900  0.15560400  1
  Li  Li4  1  0.35835800  0.16631700  0.68722800  1
  Li  Li5  1  0.15636000  0.69190400  0.35932800  1
  Mn  Mn0  1  0.85747300  0.85822700  0.85160200  1
  Mn  Mn1  1  0.65260900  0.64777000  0.63745400  1
  Mn  Mn2  1  0.34635700  0.34536300  0.34373500  1
  Sb  Sb0  1  0.14799700  0.14797000  0.15048200  1
  P  P0  1  0.94355900  0.56233900  0.24520600  1
  P  P1  1  0.55493100  0.24680400  0.94943700  1
  P  P2  1  0.24759800  0.95017900  0.55790800  1
  P  P3  1  0.75814700  0.04546400  0.46121900  1
  P  P4  1  0.45376700  0.75259600  0.03863900  1
  P  P5  1  0.04637100  0.46585600  0.75863900  1
  O  O0  1  0.86504600  0.48271500  0.76139200  1
  O  O1  1  0.74215000  0.88036300  0.46484100  1
  O  O2  1  0.92591400  0.74443500  0.07794300  1
  O  O3  1  0.43412600  0.72648600  0.89028200  1
  O  O4  1  0.76173900  0.55658900  0.40073200  1
  O  O5  1  0.01368800  0.39739100  0.17244100  1
  O  O6  1  0.74132700  0.08994900  0.91174900  1
  O  O7  1  0.52379300  0.41657400  0.77881600  1
  O  O8  1  0.39817500  0.75945800  0.56256600  1
  O  O9  1  0.83317900  0.00107900  0.60708700  1
  O  O10  1  0.90001000  0.11662600  0.25231000  1
  O  O11  1  0.61366600  0.81893100  0.96838800  1
  O  O12  1  0.39627000  0.16554400  0.02377200  1
  O  O13  1  0.08933400  0.92430900  0.74629800  1
  O  O14  1  0.17718300  0.01364400  0.39517000  1
  O  O15  1  0.58199800  0.22217700  0.46211800  1
  O  O16  1  0.46001700  0.58174700  0.21750800  1
  O  O17  1  0.25031900  0.90198700  0.11299300  1
  O  O18  1  0.03076400  0.61596000  0.81290400  1
  O  O19  1  0.21406000  0.45660600  0.57921400  1
  O  O20  1  0.54244600  0.29665800  0.10047500  1
  O  O21  1  0.11744100  0.25709800  0.90026900  1
  O  O22  1  0.30893800  0.09704700  0.53511300  1
  O  O23  1  0.09627200  0.54126300  0.30012800  1
loop_
_geom_bond_atom_site_label_1
_geom_bond_atom_site_label_2
_geom_bond_distance
_geom_bond_site_symmetry_2
Li0 O6 1.988935 1_565
Li0 O13 2.036715 1_655
Li0 O2 2.062119 1_556
Li1 O8 2.066951 1_555
Li1 O7 2.140609 1_555
Li1 O3 2.144879 1_555
Li1 O13 2.190018 1_555
Li1 O18 2.405969 1_555
Li2 O4 2.005925 1_555
Li2 O8 2.147099 1_555
Li2 O7 2.179286 1_555
Li2 O15 2.462245 1_555
Li2 O16 2.514240 1_555
Li3 O20 1.978031 1_555
Li3 O16 2.057384 1_555
Li3 O10 2.121115 1_555
Li3 O15 2.258052 1_555
Li4 O22 1.995895 1_555
Li4 O15 2.054085 1_555
Li4 O21 2.131319 1_555
Li4 O19 2.146473 1_555
Li5 O23 1.986352 1_555
Li5 O19 2.066530 1_555
Li5 O17 2.151772 1_555
Li5 O16 2.227896 1_555
Mn0 O9 1.945592 1_565
Mn0 O6 1.985891 1_565
Mn0 O2 1.986563 1_556
Mn0 O18 1.989207 1_655
Mn0 O11 1.995994 1_555
Mn0 O13 2.033141 1_655
Mn1 O1 2.118977 1_555
Mn1 O0 2.123872 1_555
Mn1 O4 2.198717 1_555
Mn1 O8 2.235913 1_555
Mn1 O3 2.265999 1_555
Mn1 O7 2.320526 1_555
Mn2 O22 2.068067 1_555
Mn2 O20 2.073436 1_555
Mn2 O23 2.084050 1_555
Mn2 O19 2.262152 1_555
Mn2 O16 2.293553 1_555
Mn2 O15 2.301972 1_555
O0 P5 1.510454 1_655
O1 P3 1.510893 1_565
O2 P0 1.555320 1_555
O3 P4 1.530496 1_556
O4 P0 1.516128 1_555
O5 P0 1.592418 1_455
O5 Sb0 1.966125 1_555
O6 P1 1.537607 1_555
O7 P1 1.534460 1_555
O8 P2 1.531086 1_555
O9 P3 1.520695 1_555
O10 P3 1.652430 1_555
O10 Sb0 2.013872 1_655
O11 P4 1.516501 1_556
O12 P1 1.585436 1_554
O12 Sb0 1.949201 1_555
O13 P2 1.556726 1_555
O14 P2 1.575505 1_545
O14 Sb0 1.960100 1_555
O15 P3 1.554558 1_555
O16 P4 1.555870 1_555
O17 P4 1.646946 1_555
O17 Sb0 2.019869 1_565
O18 P5 1.538460 1_555
O19 P5 1.549990 1_555
O20 P1 1.534836 1_554
O21 P5 1.639985 1_555
O21 Sb0 2.022742 1_556
O22 P2 1.526156 1_545
O23 P0 1.535784 1_455
