# generated using pymatgen
data_Te2MoW2(SeS)2
_symmetry_space_group_name_H-M   'P 1'
_cell_length_a   3.34924899
_cell_length_b   3.34924899
_cell_length_c   31.00619100
_cell_angle_alpha   90.00000000
_cell_angle_beta   90.00000000
_cell_angle_gamma   120.00001965
_symmetry_Int_Tables_number   1
_chemical_formula_structural   Te2MoW2(SeS)2
_chemical_formula_sum   'Te2 Mo1 W2 Se2 S2'
_cell_volume   301.21308564
_cell_formula_units_Z   1
loop_
 _symmetry_equiv_pos_site_id
 _symmetry_equiv_pos_as_xyz
  1  'x, y, z'
loop_
 _atom_site_type_symbol
 _atom_site_label
 _atom_site_symmetry_multiplicity
 _atom_site_fract_x
 _atom_site_fract_y
 _atom_site_fract_z
 _atom_site_occupancy
  Te  Te0  1  0.66666700  0.33333300  0.51691400  1
  Te  Te1  1  0.66666700  0.33333300  0.63974600  1
  Mo  Mo0  1  0.66666700  0.33333300  0.34695600  1
  W  W0  1  0.33333300  0.66666700  0.11565500  1
  W  W1  1  0.33333300  0.66666700  0.57836500  1
  Se  Se0  1  0.33333300  0.66666700  0.40061600  1
  Se  Se1  1  0.33333300  0.66666700  0.29327300  1
  S  S0  1  0.66666700  0.33333300  0.06657900  1
  S  S1  1  0.66666700  0.33333300  0.16473700  1
loop_
_geom_bond_atom_site_label_1
_geom_bond_atom_site_label_2
_geom_bond_distance
_geom_bond_site_symmetry_2
Te0 W1 2.714691 1_545
Te0 W1 2.714691 1_655
Te0 W1 2.714696 1_555
Te1 W1 2.713169 1_655
Te1 W1 2.713169 1_545
Te1 W1 2.713173 1_555
Mo0 Se0 2.550951 1_655
Mo0 Se0 2.550951 1_545
Mo0 Se0 2.550956 1_555
Mo0 Se1 2.551416 1_545
Mo0 Se1 2.551416 1_655
Mo0 Se1 2.551421 1_555
S0 W0 2.460609 1_545
S0 W0 2.460609 1_655
S0 W0 2.460614 1_555
S1 W0 2.460724 1_655
S1 W0 2.460724 1_545
S1 W0 2.460729 1_555
