# generated using pymatgen
data_Li7Ho3(MoO4)8
_symmetry_space_group_name_H-M   'P 1'
_cell_length_a   6.82606400
_cell_length_b   9.98246647
_cell_length_c   10.77376787
_cell_angle_alpha   66.22150846
_cell_angle_beta   83.84655346
_cell_angle_gamma   74.96455497
_symmetry_Int_Tables_number   1
_chemical_formula_structural   Li7Ho3(MoO4)8
_chemical_formula_sum   'Li7 Ho3 Mo8 O32'
_cell_volume   648.81290249
_cell_formula_units_Z   1
loop_
 _symmetry_equiv_pos_site_id
 _symmetry_equiv_pos_as_xyz
  1  'x, y, z'
loop_
 _atom_site_type_symbol
 _atom_site_label
 _atom_site_symmetry_multiplicity
 _atom_site_fract_x
 _atom_site_fract_y
 _atom_site_fract_z
 _atom_site_occupancy
  Li  Li0  1  0.50142100  0.50001400  0.50151600  1
  Li  Li1  1  0.99997100  0.00075200  0.50021000  1
  Li  Li2  1  0.43943000  0.15090100  0.63221200  1
  Li  Li3  1  0.93597600  0.64593500  0.63774100  1
  Li  Li4  1  0.05872600  0.34942500  0.36849400  1
  Li  Li5  1  0.56047000  0.84985400  0.36827600  1
  Li  Li6  1  0.76689200  0.45572500  0.93415800  1
  Ho  Ho0  1  0.27185200  0.95531500  0.93856800  1
  Ho  Ho1  1  0.72686900  0.04869400  0.05841900  1
  Ho  Ho2  1  0.23130900  0.54328900  0.05642800  1
  Mo  Mo0  1  0.38574600  0.76694900  0.70221000  1
  Mo  Mo1  1  0.88550600  0.26958000  0.70209300  1
  Mo  Mo2  1  0.11556400  0.73087000  0.29865800  1
  Mo  Mo3  1  0.61483400  0.23220300  0.29856200  1
  Mo  Mo4  1  0.34589500  0.35656500  0.81991200  1
  Mo  Mo5  1  0.84189000  0.85830000  0.82135100  1
  Mo  Mo6  1  0.15506100  0.14443100  0.17754600  1
  Mo  Mo7  1  0.65861400  0.64240400  0.17705100  1
  O  O0  1  0.58876700  0.28894300  0.90844700  1
  O  O1  1  0.08839500  0.79388600  0.91254400  1
  O  O2  1  0.91352800  0.19964700  0.09342300  1
  O  O3  1  0.41051000  0.70709800  0.08712300  1
  O  O4  1  0.63717600  0.30160000  0.64008600  1
  O  O5  1  0.13632600  0.80226000  0.64095300  1
  O  O6  1  0.86353000  0.20014800  0.35904000  1
  O  O7  1  0.36274000  0.69938600  0.35963900  1
  O  O8  1  0.05512500  0.26074800  0.56786200  1
  O  O9  1  0.55768500  0.76087000  0.56821700  1
  O  O10  1  0.44512100  0.23553600  0.43343200  1
  O  O11  1  0.94492800  0.73661100  0.43238800  1
  O  O12  1  0.43731200  0.59826300  0.86024400  1
  O  O13  1  0.94555900  0.09408700  0.86478800  1
  O  O14  1  0.05457900  0.90196700  0.13687400  1
  O  O15  1  0.54909500  0.40554900  0.14517200  1
  O  O16  1  0.29506000  0.19889400  0.79468700  1
  O  O17  1  0.79384400  0.70532800  0.79585100  1
  O  O18  1  0.20114400  0.30110000  0.20521900  1
  O  O19  1  0.70123200  0.80072200  0.20415300  1
  O  O20  1  0.31815100  0.51114200  0.66047600  1
  O  O21  1  0.81673000  0.01063000  0.66134300  1
  O  O22  1  0.18022900  0.99080900  0.33699900  1
  O  O23  1  0.68518700  0.49159100  0.33828000  1
  O  O24  1  0.64247500  0.92243900  0.92971000  1
  O  O25  1  0.15847500  0.41566100  0.93178300  1
  O  O26  1  0.86037400  0.58684700  0.07331900  1
  O  O27  1  0.35374100  0.07750500  0.07064000  1
  O  O28  1  0.38591200  0.93419900  0.73485900  1
  O  O29  1  0.89158600  0.43494400  0.72670200  1
  O  O30  1  0.11697000  0.56418600  0.26779400  1
  O  O31  1  0.61248800  0.06619900  0.26454900  1
loop_
_geom_bond_atom_site_label_1
_geom_bond_atom_site_label_2
_geom_bond_distance
_geom_bond_site_symmetry_2
Li0 O4 1.992574 1_555
Li0 O7 2.018192 1_555
Li0 O20 2.032822 1_555
Li0 O23 2.065205 1_555
Li1 O5 2.003633 1_645
Li1 O6 2.010767 1_555
Li1 O21 2.048542 1_555
Li1 O22 2.056541 1_645
Li2 O10 1.960078 1_555
Li2 O16 2.079982 1_555
Li2 O28 2.104811 1_545
Li2 O4 2.296366 1_555
Li2 O21 2.576838 1_555
Li2 O8 2.617082 1_555
Li3 O29 2.021766 1_555
Li3 O11 2.025509 1_555
Li3 O17 2.087150 1_555
Li3 O5 2.338308 1_655
Li3 O20 2.593474 1_655
Li3 O9 2.594202 1_555
Li4 O8 1.965847 1_555
Li4 O18 2.084839 1_555
Li4 O30 2.098887 1_555
Li4 O6 2.277699 1_455
Li4 O23 2.559189 1_455
Li4 O10 2.633840 1_555
Li5 O9 1.971443 1_555
Li5 O19 2.093084 1_555
Li5 O31 2.098959 1_565
Li5 O7 2.297392 1_555
Li5 O22 2.596266 1_555
Li5 O11 2.619521 1_555
Li6 O12 2.351500 1_555
Li6 O29 2.374353 1_555
Li6 O17 2.376470 1_555
Li6 O0 2.412758 1_555
Li6 O2 2.446284 1_556
Li6 O15 2.524494 1_556
Li6 O26 2.566965 1_556
Li6 O25 2.596983 1_655
Ho0 O28 2.321415 1_555
Ho0 O13 2.324322 1_465
Ho0 O16 2.334102 1_565
Ho0 O3 2.346701 1_556
Ho0 O1 2.393799 1_555
Ho0 O27 2.397669 1_566
Ho0 O14 2.420920 1_556
Ho0 O24 2.461689 1_555
Ho1 O0 2.297779 1_554
Ho1 O31 2.332918 1_555
Ho1 O14 2.360270 1_645
Ho1 O2 2.365122 1_555
Ho1 O19 2.378025 1_545
Ho1 O13 2.388882 1_554
Ho1 O24 2.408422 1_544
Ho1 O27 2.483107 1_555
Ho2 O15 2.312419 1_555
Ho2 O18 2.349335 1_555
Ho2 O25 2.350571 1_554
Ho2 O1 2.354467 1_554
Ho2 O12 2.360896 1_554
Ho2 O30 2.399149 1_555
Ho2 O3 2.416653 1_555
Ho2 O26 2.455025 1_455
Mo0 O9 1.770775 1_555
Mo0 O5 1.788975 1_555
Mo0 O12 1.835022 1_555
Mo0 O28 1.840064 1_555
Mo1 O8 1.769364 1_655
Mo1 O29 1.785441 1_555
Mo1 O4 1.792021 1_555
Mo1 O13 1.901233 1_555
Mo2 O11 1.762950 1_455
Mo2 O7 1.781349 1_555
Mo2 O30 1.821123 1_555
Mo2 O14 1.874716 1_555
Mo3 O10 1.764271 1_555
Mo3 O6 1.787737 1_555
Mo3 O15 1.837614 1_555
Mo3 O31 1.839928 1_555
Mo4 O20 1.774314 1_555
Mo4 O25 1.813459 1_555
Mo4 O16 1.822113 1_555
Mo4 O0 1.831165 1_555
Mo5 O21 1.768523 1_565
Mo5 O17 1.769843 1_555
Mo5 O24 1.853552 1_555
Mo5 O1 1.869145 1_655
Mo6 O22 1.770473 1_545
Mo6 O18 1.812490 1_555
Mo6 O2 1.813702 1_455
Mo6 O27 1.851424 1_555
Mo7 O23 1.770241 1_555
Mo7 O26 1.796352 1_555
Mo7 O19 1.815610 1_555
Mo7 O3 1.871817 1_555
