# generated using pymatgen
data_BaMoO4
_symmetry_space_group_name_H-M   'P 1'
_cell_length_a   5.62232866
_cell_length_b   5.62232997
_cell_length_c   7.54762341
_cell_angle_alpha   111.86722689
_cell_angle_beta   111.86721337
_cell_angle_gamma   89.99999671
_symmetry_Int_Tables_number   1
_chemical_formula_structural   BaMoO4
_chemical_formula_sum   'Ba2 Mo2 O8'
_cell_volume   202.80434680
_cell_formula_units_Z   2
loop_
 _symmetry_equiv_pos_site_id
 _symmetry_equiv_pos_as_xyz
  1  'x, y, z'
loop_
 _atom_site_type_symbol
 _atom_site_label
 _atom_site_symmetry_multiplicity
 _atom_site_fract_x
 _atom_site_fract_y
 _atom_site_fract_z
 _atom_site_occupancy
  Ba  Ba0  1  0.37500000  0.12500100  0.75000000  1
  Ba  Ba1  1  0.62499900  0.87500000  0.24999900  1
  Mo  Mo0  1  0.87500000  0.62500000  0.75000000  1
  Mo  Mo1  1  0.12500100  0.37500000  0.25000000  1
  O  O0  1  0.81528399  0.41650091  0.09571674  1
  O  O1  1  0.67921583  0.31528399  0.59571674  1
  O  O2  1  0.91650191  0.78043175  0.59571774  1
  O  O3  1  0.28043275  0.17921683  0.09571674  1
  O  O4  1  0.71956625  0.82078417  0.90428326  1
  O  O5  1  0.08349909  0.21956625  0.40428326  1
  O  O6  1  0.18471501  0.58349909  0.90428326  1
  O  O7  1  0.32078317  0.68471701  0.40428326  1
loop_
_geom_bond_atom_site_label_1
_geom_bond_atom_site_label_2
_geom_bond_distance
_geom_bond_site_symmetry_2
Ba0 O5 2.761377 1_555
Ba0 O7 2.761381 1_545
Ba0 O0 2.761381 1_556
Ba0 O3 2.761382 1_556
Ba0 O1 2.799585 1_555
Ba0 O6 2.799587 1_555
Ba0 O4 2.799589 1_545
Ba0 O2 2.799591 1_445
Ba1 O4 2.761375 1_554
Ba1 O6 2.761380 1_554
Ba1 O1 2.761386 1_565
Ba1 O2 2.761401 1_555
Ba1 O3 2.799586 1_565
Ba1 O5 2.799588 1_665
Ba1 O0 2.799589 1_555
Ba1 O7 2.799591 1_555
Mo0 O2 1.770464 1_555
Mo0 O6 1.770468 1_655
Mo0 O1 1.770472 1_555
Mo0 O4 1.770476 1_555
Mo1 O3 1.770466 1_555
Mo1 O7 1.770472 1_555
Mo1 O0 1.770476 1_455
Mo1 O5 1.770479 1_555
