# generated using pymatgen
data_Li9Mn2Co5O16
_symmetry_space_group_name_H-M   'P 1'
_cell_length_a   3.01587200
_cell_length_b   5.98294847
_cell_length_c   16.05164385
_cell_angle_alpha   90.62313471
_cell_angle_beta   90.97785598
_cell_angle_gamma   95.15607469
_symmetry_Int_Tables_number   1
_chemical_formula_structural   Li9Mn2Co5O16
_chemical_formula_sum   'Li9 Mn2 Co5 O16'
_cell_volume   288.39638205
_cell_formula_units_Z   1
loop_
 _symmetry_equiv_pos_site_id
 _symmetry_equiv_pos_as_xyz
  1  'x, y, z'
loop_
 _atom_site_type_symbol
 _atom_site_label
 _atom_site_symmetry_multiplicity
 _atom_site_fract_x
 _atom_site_fract_y
 _atom_site_fract_z
 _atom_site_occupancy
  Li  Li0  1  0.99979900  0.50019400  0.00007900  1
  Li  Li1  1  0.49997100  0.75011800  0.12474100  1
  Li  Li2  1  0.99880400  0.99999700  0.25069900  1
  Li  Li3  1  0.50038700  0.25192000  0.87389900  1
  Li  Li4  1  0.00098100  0.00014900  0.74947000  1
  Li  Li5  1  0.50203400  0.75510300  0.62334200  1
  Li  Li6  1  0.00066400  0.49953300  0.49981200  1
  Li  Li7  1  0.49726500  0.24359100  0.37806700  1
  Li  Li8  1  0.00017200  0.00088000  0.50040200  1
  Mn  Mn0  1  0.99974900  0.99938300  0.99936500  1
  Mn  Mn1  1  0.99885300  0.49994700  0.25150100  1
  Co  Co0  1  0.50025700  0.25040300  0.12517900  1
  Co  Co1  1  0.49545900  0.76242700  0.38071600  1
  Co  Co2  1  0.50206300  0.24035300  0.62055400  1
  Co  Co3  1  0.99840700  0.50077800  0.74842700  1
  Co  Co4  1  0.50150500  0.74677600  0.87374000  1
  O  O0  1  0.52210000  0.75564000  0.99385100  1
  O  O1  1  0.02347200  0.01160700  0.12146300  1
  O  O2  1  0.52145300  0.25745900  0.24441400  1
  O  O3  1  0.02373100  0.51045000  0.86809300  1
  O  O4  1  0.52303700  0.26422600  0.74025500  1
  O  O5  1  0.02183600  0.01878800  0.62558700  1
  O  O6  1  0.50500700  0.74660900  0.48862600  1
  O  O7  1  0.02326500  0.51209200  0.37191600  1
  O  O8  1  0.47652100  0.24372500  0.00533100  1
  O  O9  1  0.97630100  0.48944000  0.12932300  1
  O  O10  1  0.47962400  0.74281300  0.25967200  1
  O  O11  1  0.97585900  0.98776100  0.87751100  1
  O  O12  1  0.47738700  0.73471300  0.75538700  1
  O  O13  1  0.97719900  0.48644400  0.63073700  1
  O  O14  1  0.49661100  0.25466400  0.51246100  1
  O  O15  1  0.98022800  0.98201800  0.37537900  1
loop_
_geom_bond_atom_site_label_1
_geom_bond_atom_site_label_2
_geom_bond_distance
_geom_bond_site_symmetry_2
Li0 O9 2.078495 1_555
Li0 O0 2.098329 1_654
Li0 O8 2.103390 1_555
Li0 O3 2.122418 1_654
Li0 O0 2.194418 1_554
Li0 O8 2.196336 1_655
Li1 O0 2.103722 1_554
Li1 O9 2.120337 1_455
Li1 O1 2.122185 1_665
Li1 O10 2.168584 1_555
Li1 O9 2.214294 1_555
Li1 O1 2.217836 1_565
Li2 O15 2.006842 1_555
Li2 O1 2.078744 1_665
Li2 O10 2.102271 1_555
Li2 O2 2.107106 1_665
Li2 O2 2.202838 1_565
Li2 O10 2.211313 1_655
Li3 O3 2.112273 1_655
Li3 O8 2.113106 1_556
Li3 O11 2.135269 1_445
Li3 O4 2.149309 1_555
Li3 O3 2.205880 1_555
Li3 O11 2.227988 1_545
Li4 O5 1.994607 1_555
Li4 O11 2.059850 1_445
Li4 O4 2.136112 1_555
Li4 O12 2.140618 1_445
Li4 O4 2.236733 1_455
Li4 O12 2.236990 1_545
Li5 O5 2.121326 1_665
Li5 O12 2.126553 1_555
Li5 O13 2.157864 1_455
Li5 O6 2.162648 1_555
Li5 O5 2.235775 1_565
Li5 O13 2.250264 1_555
Li6 O14 2.028585 1_455
Li6 O6 2.035177 1_555
Li6 O7 2.057200 1_555
Li6 O13 2.106030 1_455
Li6 O14 2.194238 1_555
Li6 O6 2.201311 1_455
Li7 O15 2.107156 1_445
Li7 O2 2.150084 1_555
Li7 O14 2.157581 1_555
Li7 O7 2.158152 1_655
Li7 O15 2.232253 1_545
Li7 O7 2.246171 1_555
Li8 O15 2.008341 1_445
Li8 O5 2.010750 1_555
Li8 O6 2.038612 1_445
Li8 O14 2.039522 1_555
Li8 O14 2.251092 1_455
Li8 O6 2.255657 1_545
Mn0 O0 1.955725 1_555
Mn0 O11 1.956304 1_555
Mn0 O8 1.956586 1_666
Mn0 O1 1.960288 1_666
Mn0 O0 2.243001 1_655
Mn0 O8 2.247903 1_566
Mn1 O7 1.933331 1_655
Mn1 O2 1.950918 1_555
Mn1 O10 1.959998 1_655
Mn1 O9 1.961304 1_555
Mn1 O10 2.234399 1_555
Mn1 O2 2.239494 1_655
Co0 O2 1.913774 1_555
Co0 O8 1.923714 1_555
Co0 O9 1.933020 1_555
Co0 O1 1.933480 1_555
Co0 O1 2.222891 1_655
Co0 O9 2.225855 1_455
Co1 O6 1.735633 1_555
Co1 O15 1.879454 1_555
Co1 O10 1.944735 1_555
Co1 O7 1.973916 1_555
Co1 O15 2.124327 1_455
Co1 O7 2.286609 1_655
Co2 O14 1.737982 1_555
Co2 O5 1.876860 1_555
Co2 O4 1.924690 1_555
Co2 O13 1.963526 1_555
Co2 O5 2.143023 1_655
Co2 O13 2.263332 1_455
Co3 O13 1.889862 1_555
Co3 O12 1.919848 1_655
Co3 O3 1.921086 1_655
Co3 O4 1.923652 1_555
Co3 O12 2.199632 1_555
Co3 O4 2.220171 1_655
Co4 O12 1.900249 1_555
Co4 O3 1.926183 1_555
Co4 O0 1.927919 1_555
Co4 O11 1.937384 1_555
Co4 O3 2.211394 1_655
Co4 O11 2.237804 1_455
