# generated using pymatgen
data_Gd2Si2O7
_symmetry_space_group_name_H-M   'P 1'
_cell_length_a   5.06655996
_cell_length_b   8.28860406
_cell_length_c   13.87056412
_cell_angle_alpha   90.00000000
_cell_angle_beta   90.00000000
_cell_angle_gamma   90.00000000
_symmetry_Int_Tables_number   1
_chemical_formula_structural   Gd2Si2O7
_chemical_formula_sum   'Gd8 Si8 O28'
_cell_volume   582.49031019
_cell_formula_units_Z   4
loop_
 _symmetry_equiv_pos_site_id
 _symmetry_equiv_pos_as_xyz
  1  'x, y, z'
loop_
 _atom_site_type_symbol
 _atom_site_label
 _atom_site_symmetry_multiplicity
 _atom_site_fract_x
 _atom_site_fract_y
 _atom_site_fract_z
 _atom_site_occupancy
  Gd  Gd0  1  0.83917249  0.00826254  0.12548517  1
  Gd  Gd1  1  0.16082751  0.50826254  0.87451483  1
  Gd  Gd2  1  0.66082751  0.00826254  0.62548517  1
  Gd  Gd3  1  0.33917249  0.50826254  0.37451483  1
  Gd  Gd4  1  0.83917249  0.49173746  0.12548517  1
  Gd  Gd5  1  0.16082751  0.99173746  0.87451483  1
  Gd  Gd6  1  0.66082751  0.49173746  0.62548517  1
  Gd  Gd7  1  0.33917249  0.99173746  0.37451483  1
  Si  Si0  1  0.12335955  0.75000000  0.53908508  1
  Si  Si1  1  0.87664045  0.25000000  0.46091492  1
  Si  Si2  1  0.37664045  0.75000000  0.03908508  1
  Si  Si3  1  0.62335955  0.25000000  0.96091492  1
  Si  Si4  1  0.87778919  0.75000000  0.32000041  1
  Si  Si5  1  0.12221081  0.25000000  0.67999959  1
  Si  Si6  1  0.62221081  0.75000000  0.82000041  1
  Si  Si7  1  0.37778919  0.25000000  0.17999959  1
  O  O0  1  0.84973114  0.75000000  0.59893796  1
  O  O1  1  0.15026886  0.25000000  0.40106204  1
  O  O2  1  0.65026886  0.75000000  0.09893796  1
  O  O3  1  0.34973114  0.25000000  0.90106204  1
  O  O4  1  0.28896451  0.91621485  0.54717758  1
  O  O5  1  0.71103549  0.41621485  0.45282242  1
  O  O6  1  0.21103549  0.91621485  0.04717758  1
  O  O7  1  0.78896451  0.41621485  0.95282242  1
  O  O8  1  0.28896451  0.58378515  0.54717758  1
  O  O9  1  0.71103549  0.08378515  0.45282242  1
  O  O10  1  0.21103549  0.58378515  0.04717758  1
  O  O11  1  0.78896451  0.08378515  0.95282242  1
  O  O12  1  0.05865326  0.75000000  0.42045757  1
  O  O13  1  0.94134674  0.25000000  0.57954243  1
  O  O14  1  0.44134674  0.75000000  0.92045757  1
  O  O15  1  0.55865326  0.25000000  0.07954243  1
  O  O16  1  0.48531463  0.08816997  0.23164858  1
  O  O17  1  0.51468537  0.58816997  0.76835142  1
  O  O18  1  0.01468537  0.08816997  0.73164858  1
  O  O19  1  0.98531463  0.58816997  0.26835142  1
  O  O20  1  0.48531463  0.41183003  0.23164858  1
  O  O21  1  0.51468537  0.91183003  0.76835142  1
  O  O22  1  0.01468537  0.41183003  0.73164858  1
  O  O23  1  0.98531463  0.91183003  0.26835142  1
  O  O24  1  0.06803741  0.25000000  0.15461109  1
  O  O25  1  0.93196259  0.75000000  0.84538891  1
  O  O26  1  0.43196259  0.25000000  0.65461109  1
  O  O27  1  0.56803741  0.75000000  0.34538891  1
loop_
_geom_bond_atom_site_label_1
_geom_bond_atom_site_label_2
_geom_bond_distance
_geom_bond_site_symmetry_2
Gd0 O23 2.261414 1_545
Gd0 O6 2.304682 1_645
Gd0 O24 2.349992 1_655
Gd0 O2 2.373591 1_545
Gd0 O16 2.412746 1_555
Gd0 O11 2.488422 1_554
Gd0 O15 2.537867 1_555
Gd1 O22 2.261414 1_555
Gd1 O7 2.304682 1_455
Gd1 O25 2.349992 1_455
Gd1 O3 2.373591 1_555
Gd1 O17 2.412746 1_555
Gd1 O10 2.488422 1_556
Gd1 O14 2.537867 1_555
Gd2 O21 2.261414 1_545
Gd2 O4 2.304682 1_545
Gd2 O26 2.349992 1_555
Gd2 O0 2.373591 1_545
Gd2 O18 2.412746 1_655
Gd2 O9 2.488422 1_555
Gd2 O13 2.537867 1_555
Gd3 O20 2.261414 1_555
Gd3 O5 2.304682 1_555
Gd3 O27 2.349992 1_555
Gd3 O1 2.373591 1_555
Gd3 O19 2.412746 1_455
Gd3 O8 2.488422 1_555
Gd3 O12 2.537867 1_555
Gd4 O19 2.261414 1_555
Gd4 O10 2.304682 1_655
Gd4 O24 2.349992 1_655
Gd4 O2 2.373591 1_555
Gd4 O20 2.412746 1_555
Gd4 O7 2.488422 1_554
Gd4 O15 2.537867 1_555
Gd5 O18 2.261414 1_565
Gd5 O11 2.304682 1_465
Gd5 O25 2.349992 1_455
Gd5 O3 2.373591 1_565
Gd5 O21 2.412746 1_555
Gd5 O6 2.488422 1_556
Gd5 O14 2.537867 1_555
Gd6 O17 2.261414 1_555
Gd6 O8 2.304682 1_555
Gd6 O26 2.349992 1_555
Gd6 O0 2.373591 1_555
Gd6 O22 2.412746 1_655
Gd6 O5 2.488422 1_555
Gd6 O13 2.537867 1_555
Gd7 O16 2.261414 1_565
Gd7 O9 2.304682 1_565
Gd7 O27 2.349992 1_555
Gd7 O1 2.373591 1_565
Gd7 O23 2.412746 1_455
Gd7 O4 2.488422 1_555
Gd7 O12 2.537867 1_555
O0 Si0 1.615921 1_655
O1 Si1 1.615921 1_455
O2 Si2 1.615921 1_555
O3 Si3 1.615921 1_555
O4 Si0 1.616981 1_555
O5 Si1 1.616981 1_555
O6 Si2 1.616981 1_555
O7 Si3 1.616981 1_555
O8 Si0 1.616981 1_555
O9 Si1 1.616981 1_555
O10 Si2 1.616981 1_555
O11 Si3 1.616981 1_555
O12 Si4 1.667714 1_455
O12 Si0 1.677772 1_555
O13 Si5 1.667714 1_655
O13 Si1 1.677772 1_555
O14 Si6 1.667714 1_555
O14 Si2 1.677772 1_556
O15 Si7 1.667714 1_555
O15 Si3 1.677772 1_554
O16 Si7 1.615310 1_555
O17 Si6 1.615310 1_555
O18 Si5 1.615310 1_555
O19 Si4 1.615310 1_555
O20 Si7 1.615310 1_555
O21 Si6 1.615310 1_555
O22 Si5 1.615310 1_555
O23 Si4 1.615310 1_555
O24 Si7 1.608401 1_555
O25 Si6 1.608401 1_555
O26 Si5 1.608401 1_555
O27 Si4 1.608401 1_555
