# generated using pymatgen
data_Y2Ga2Fe15
_symmetry_space_group_name_H-M   'P 1'
_cell_length_a   6.41626441
_cell_length_b   6.41626441
_cell_length_c   6.41626394
_cell_angle_alpha   82.41835686
_cell_angle_beta   82.41835686
_cell_angle_gamma   82.41835561
_symmetry_Int_Tables_number   1
_chemical_formula_structural   Y2Ga2Fe15
_chemical_formula_sum   'Y2 Ga2 Fe15'
_cell_volume   257.78021202
_cell_formula_units_Z   1
loop_
 _symmetry_equiv_pos_site_id
 _symmetry_equiv_pos_as_xyz
  1  'x, y, z'
loop_
 _atom_site_type_symbol
 _atom_site_label
 _atom_site_symmetry_multiplicity
 _atom_site_fract_x
 _atom_site_fract_y
 _atom_site_fract_z
 _atom_site_occupancy
  Y  Y0  1  0.65274700  0.65274700  0.65274700  1
  Y  Y1  1  0.34725300  0.34725300  0.34725300  1
  Ga  Ga0  1  0.89716500  0.89716500  0.89716500  1
  Ga  Ga1  1  0.10283500  0.10283500  0.10283500  1
  Fe  Fe0  1  0.00000000  0.00000000  0.50000000  1
  Fe  Fe1  1  0.00000000  0.50000000  0.00000000  1
  Fe  Fe2  1  0.50000000  0.00000000  0.00000000  1
  Fe  Fe3  1  0.29936600  0.70063400  0.00000000  1
  Fe  Fe4  1  0.70063400  0.00000000  0.29936600  1
  Fe  Fe5  1  0.00000000  0.29936600  0.70063400  1
  Fe  Fe6  1  0.29936600  0.00000000  0.70063400  1
  Fe  Fe7  1  0.00000000  0.70063400  0.29936600  1
  Fe  Fe8  1  0.70063400  0.29936600  0.00000000  1
  Fe  Fe9  1  0.34168700  0.34168700  0.84037600  1
  Fe  Fe10  1  0.34168700  0.84037600  0.34168700  1
  Fe  Fe11  1  0.84037600  0.34168700  0.34168700  1
  Fe  Fe12  1  0.65831300  0.65831300  0.15962400  1
  Fe  Fe13  1  0.65831300  0.15962400  0.65831300  1
  Fe  Fe14  1  0.15962400  0.65831300  0.65831300  1
loop_
_geom_bond_atom_site_label_1
_geom_bond_atom_site_label_2
_geom_bond_distance
_geom_bond_site_symmetry_2
Ga0 Ga1 2.569605 1_666
Ga0 Y0 3.053715 1_555
Ga1 Y1 3.053715 1_555
Fe0 Fe14 2.445723 1_545
Fe0 Fe11 2.445723 1_455
Fe0 Fe10 2.445723 1_545
Fe0 Fe13 2.445723 1_455
Fe0 Fe7 2.449327 1_545
Fe0 Fe5 2.449327 1_555
Fe0 Fe6 2.449327 1_555
Fe0 Fe4 2.449327 1_455
Fe0 Ga0 2.567514 1_445
Fe0 Ga1 2.567514 1_555
Fe0 Y1 3.323646 1_555
Fe0 Y0 3.323646 1_445
Fe1 Fe14 2.445723 1_554
Fe1 Fe11 2.445723 1_455
Fe1 Fe12 2.445723 1_455
Fe1 Fe9 2.445723 1_554
Fe1 Fe5 2.449327 1_554
Fe1 Fe7 2.449327 1_555
Fe1 Fe3 2.449327 1_555
Fe1 Fe8 2.449327 1_455
Fe1 Ga1 2.567515 1_555
Fe1 Ga0 2.567515 1_454
Fe1 Y0 3.323646 1_454
Fe1 Y1 3.323646 1_555
Fe2 Fe9 2.445723 1_554
Fe2 Fe4 2.449327 1_555
Fe2 Fe6 2.449327 1_554
Fe2 Fe3 2.449327 1_545
Fe2 Fe8 2.449327 1_555
Fe2 Ga0 2.567515 1_544
Fe2 Ga1 2.567515 1_555
Fe2 Y1 3.323646 1_555
Fe2 Y0 3.323646 1_544
Fe3 Fe6 2.530899 1_564
Fe3 Fe7 2.530899 1_555
Fe3 Fe9 2.609787 1_554
Fe3 Ga1 2.838339 1_565
Fe3 Ga0 2.838339 1_454
Fe3 Y1 2.977156 1_555
Fe3 Y0 2.977156 1_554
Fe4 Fe8 2.530899 1_555
Fe4 Fe7 2.530899 1_645
Fe4 Ga0 2.838339 1_544
Fe4 Ga1 2.838339 1_655
Fe4 Y0 2.977156 1_545
Fe4 Y1 2.977156 1_555
Fe5 Fe8 2.530899 1_456
Fe5 Fe6 2.530899 1_555
Fe5 Fe9 2.534586 1_555
Fe5 Ga1 2.838339 1_556
Fe5 Ga0 2.838339 1_445
Fe5 Y1 2.977156 1_555
Fe5 Y0 2.977156 1_455
Fe6 Fe9 2.534586 1_555
Fe6 Ga1 2.838339 1_556
Fe6 Ga0 2.838339 1_445
Fe6 Y1 2.977156 1_555
Fe6 Y0 2.977156 1_545
Fe7 Ga0 2.838339 1_454
Fe7 Ga1 2.838339 1_565
Fe7 Y0 2.977156 1_455
Fe7 Y1 2.977156 1_555
Fe8 Fe9 2.609787 1_554
Fe8 Ga1 2.838339 1_655
Fe8 Ga0 2.838339 1_544
Fe8 Y1 2.977156 1_555
Fe8 Y0 2.977156 1_554
Fe9 Ga1 2.605945 1_556
Fe9 Y0 3.033012 1_555
Fe9 Y1 3.155027 1_555
Fe9 Y1 3.262109 1_556
Fe10 Fe14 2.442143 1_555
Fe10 Fe12 2.442143 1_555
Fe10 Fe2 2.445723 1_565
Fe10 Fe3 2.534586 1_555
Fe10 Fe7 2.534586 1_555
Fe10 Ga1 2.605945 1_565
Fe10 Fe6 2.609787 1_565
Fe10 Fe4 2.609787 1_565
Fe10 Y0 3.033012 1_555
Fe10 Y1 3.155027 1_555
Fe10 Y1 3.262110 1_565
Fe11 Fe13 2.442143 1_555
Fe11 Fe12 2.442143 1_555
Fe11 Fe8 2.534586 1_555
Fe11 Fe4 2.534586 1_555
Fe11 Ga1 2.605945 1_655
Fe11 Fe5 2.609787 1_655
Fe11 Fe7 2.609787 1_655
Fe11 Y0 3.033012 1_555
Fe11 Y1 3.155027 1_555
Fe11 Y1 3.262110 1_655
Fe12 Fe2 2.445723 1_565
Fe12 Fe4 2.534586 1_565
Fe12 Fe7 2.534586 1_655
Fe12 Ga0 2.605945 1_554
Fe12 Fe3 2.609787 1_555
Fe12 Fe8 2.609787 1_555
Fe12 Y1 3.033012 1_555
Fe12 Y0 3.155027 1_555
Fe12 Y0 3.262109 1_554
Fe13 Fe9 2.442143 1_555
Fe13 Fe2 2.445723 1_556
Fe13 Fe8 2.534586 1_556
Fe13 Fe5 2.534586 1_655
Fe13 Ga0 2.605945 1_545
Fe13 Fe4 2.609787 1_555
Fe13 Fe6 2.609787 1_555
Fe13 Y1 3.033012 1_555
Fe13 Y0 3.155027 1_555
Fe13 Y0 3.262110 1_545
Fe14 Fe9 2.442143 1_555
Fe14 Fe3 2.534586 1_556
Fe14 Fe6 2.534586 1_565
Fe14 Ga0 2.605945 1_455
Fe14 Fe7 2.609787 1_555
Fe14 Fe5 2.609787 1_555
Fe14 Y1 3.033012 1_555
Fe14 Y0 3.155027 1_555
Fe14 Y0 3.262110 1_455
