# generated using pymatgen
data_NaTaWO6
_symmetry_space_group_name_H-M   'P 1'
_cell_length_a   7.40654639
_cell_length_b   7.40654639
_cell_length_c   7.40654639
_cell_angle_alpha   120.23377413
_cell_angle_beta   119.81440506
_cell_angle_gamma   89.95866463
_symmetry_Int_Tables_number   1
_chemical_formula_structural   NaTaWO6
_chemical_formula_sum   'Na2 Ta2 W2 O12'
_cell_volume   287.18825995
_cell_formula_units_Z   2
loop_
 _symmetry_equiv_pos_site_id
 _symmetry_equiv_pos_as_xyz
  1  'x, y, z'
loop_
 _atom_site_type_symbol
 _atom_site_label
 _atom_site_symmetry_multiplicity
 _atom_site_fract_x
 _atom_site_fract_y
 _atom_site_fract_z
 _atom_site_occupancy
  Na  Na0  1  0.00000000  0.50000000  0.50000000  1
  Na  Na1  1  0.50000000  0.50000000  0.00000000  1
  Ta  Ta0  1  0.00000000  0.50000000  0.00000000  1
  Ta  Ta1  1  0.00000000  0.00000000  0.50000000  1
  W  W0  1  0.50000000  0.00000000  0.50000000  1
  W  W1  1  0.00000000  0.00000000  0.00000000  1
  O  O0  1  0.31550200  0.06633100  0.62383900  1
  O  O1  1  0.31550200  0.69166300  0.24917100  1
  O  O2  1  0.30772300  0.05772300  0.25000000  1
  O  O3  1  0.94249200  0.69166300  0.87616100  1
  O  O4  1  0.94249200  0.06633100  0.25082900  1
  O  O5  1  0.93038000  0.68038000  0.25000000  1
  O  O6  1  0.68449800  0.93366900  0.37616100  1
  O  O7  1  0.68449800  0.30833700  0.75082900  1
  O  O8  1  0.69227700  0.94227700  0.75000000  1
  O  O9  1  0.05750800  0.30833700  0.12383900  1
  O  O10  1  0.05750800  0.93366900  0.74917100  1
  O  O11  1  0.06962000  0.31962000  0.75000000  1
loop_
_geom_bond_atom_site_label_1
_geom_bond_atom_site_label_2
_geom_bond_distance
_geom_bond_site_symmetry_2
Na0 O5 2.649555 1_455
Na0 O11 2.649555 1_555
Na0 O9 2.674869 1_555
Na0 O4 2.674869 1_455
Na0 O10 2.674869 1_555
Na0 O3 2.674869 1_455
Na1 O11 2.649555 1_554
Na1 O5 2.649555 1_555
Na1 O0 2.674869 1_554
Na1 O1 2.674869 1_555
Na1 O6 2.674869 1_555
Na1 O7 2.674869 1_554
O0 W0 1.934302 1_555
O0 Ta1 1.989912 1_555
O1 W0 1.934302 1_565
O1 Ta0 1.989912 1_555
O2 W0 1.952853 1_555
O2 W1 1.952853 1_555
O3 W1 1.934302 1_666
O3 Ta0 1.989912 1_656
O4 W1 1.934302 1_655
O4 Ta1 1.989912 1_655
O5 Ta1 1.984066 1_665
O5 Ta0 1.984066 1_655
O6 W0 1.934302 1_565
O6 Ta1 1.989912 1_665
O7 W0 1.934302 1_555
O7 Ta0 1.989912 1_656
O8 W0 1.952853 1_565
O8 W1 1.952853 1_666
O9 W1 1.934302 1_555
O9 Ta0 1.989912 1_555
O10 W1 1.934302 1_566
O10 Ta1 1.989912 1_565
O11 Ta0 1.984066 1_556
O11 Ta1 1.984066 1_555
