# generated using pymatgen
data_PuReB2
_symmetry_space_group_name_H-M   'P 1'
_cell_length_a   5.37345900
_cell_length_b   5.78738000
_cell_length_c   6.46330300
_cell_angle_alpha   90.00000000
_cell_angle_beta   90.00000000
_cell_angle_gamma   90.00000000
_symmetry_Int_Tables_number   1
_chemical_formula_structural   PuReB2
_chemical_formula_sum   'Pu4 Re4 B8'
_cell_volume   200.99740701
_cell_formula_units_Z   4
loop_
 _symmetry_equiv_pos_site_id
 _symmetry_equiv_pos_as_xyz
  1  'x, y, z'
loop_
 _atom_site_type_symbol
 _atom_site_label
 _atom_site_symmetry_multiplicity
 _atom_site_fract_x
 _atom_site_fract_y
 _atom_site_fract_z
 _atom_site_occupancy
  Pu  Pu0  1  0.75000000  0.49729600  0.16364500  1
  Pu  Pu1  1  0.75000000  0.99729600  0.33635500  1
  Pu  Pu2  1  0.25000000  0.50270400  0.83635500  1
  Pu  Pu3  1  0.25000000  0.00270400  0.66364500  1
  Re  Re0  1  0.75000000  0.31567800  0.68701800  1
  Re  Re1  1  0.75000000  0.81567800  0.81298200  1
  Re  Re2  1  0.25000000  0.68432200  0.31298200  1
  Re  Re3  1  0.25000000  0.18432200  0.18701800  1
  B  B0  1  0.92037900  0.13388400  0.96518700  1
  B  B1  1  0.57962100  0.63388400  0.53481300  1
  B  B2  1  0.42037900  0.86611600  0.03481300  1
  B  B3  1  0.07962100  0.36611600  0.46518700  1
  B  B4  1  0.07962100  0.86611600  0.03481300  1
  B  B5  1  0.42037900  0.36611600  0.46518700  1
  B  B6  1  0.57962100  0.13388400  0.96518700  1
  B  B7  1  0.92037900  0.63388400  0.53481300  1
loop_
_geom_bond_atom_site_label_1
_geom_bond_atom_site_label_2
_geom_bond_distance
_geom_bond_site_symmetry_2
Pu0 Re1 2.920945 1_554
Pu1 Re0 2.920945 1_565
Pu2 Re3 2.920945 1_556
Pu3 Re2 2.920945 1_545
B0 B4 1.826525 1_646
B0 B6 1.831049 1_555
B0 Re0 2.275419 1_555
B0 Re1 2.279771 1_545
B0 Re3 2.297400 1_656
B0 Pu0 2.628108 1_556
B0 Pu1 2.686655 1_546
B0 Pu3 2.740797 1_655
B0 Pu2 2.895966 1_655
B1 B5 1.826525 1_555
B1 B7 1.831049 1_555
B1 Re1 2.275419 1_555
B1 Re0 2.279771 1_555
B1 Re2 2.297400 1_555
B1 Pu1 2.628108 1_555
B1 Pu0 2.686655 1_555
B1 Pu2 2.740797 1_555
B1 Pu3 2.895966 1_565
B2 B6 1.826525 1_564
B2 B4 1.831049 1_555
B2 Re2 2.275419 1_555
B2 Re3 2.279771 1_565
B2 Re1 2.297400 1_554
B2 Pu2 2.628108 1_554
B2 Pu3 2.686655 1_564
B2 Pu1 2.740797 1_555
B2 Pu0 2.895966 1_555
B3 B7 1.826525 1_455
B3 B5 1.831049 1_555
B3 Re3 2.275419 1_555
B3 Re2 2.279771 1_555
B3 Re0 2.297400 1_455
B3 Pu3 2.628108 1_555
B3 Pu2 2.686655 1_555
B3 Pu0 2.740797 1_455
B3 Pu1 2.895966 1_445
B4 Re2 2.275419 1_555
B4 Re3 2.279771 1_565
B4 Re1 2.297400 1_454
B4 Pu2 2.628108 1_554
B4 Pu3 2.686655 1_564
B4 Pu1 2.740797 1_455
B4 Pu0 2.895966 1_455
B5 Re3 2.275419 1_555
B5 Re2 2.279771 1_555
B5 Re0 2.297400 1_555
B5 Pu3 2.628108 1_555
B5 Pu2 2.686655 1_555
B5 Pu0 2.740797 1_555
B5 Pu1 2.895966 1_545
B6 Re0 2.275419 1_555
B6 Re1 2.279771 1_545
B6 Re3 2.297400 1_556
B6 Pu0 2.628108 1_556
B6 Pu1 2.686655 1_546
B6 Pu3 2.740797 1_555
B6 Pu2 2.895966 1_555
B7 Re1 2.275419 1_555
B7 Re0 2.279771 1_555
B7 Re2 2.297400 1_655
B7 Pu1 2.628108 1_555
B7 Pu0 2.686655 1_555
B7 Pu2 2.740797 1_655
B7 Pu3 2.895966 1_665
