# generated using pymatgen
data_FePH5CO8
_symmetry_space_group_name_H-M   'P 1'
_cell_length_a   9.86384100
_cell_length_b   7.76797300
_cell_length_c   10.81247001
_cell_angle_alpha   89.29737124
_cell_angle_beta   90.00000000
_cell_angle_gamma   90.00000000
_symmetry_Int_Tables_number   1
_chemical_formula_structural   FePH5CO8
_chemical_formula_sum   'Fe4 P4 H20 C4 O32'
_cell_volume   828.41132934
_cell_formula_units_Z   4
loop_
 _symmetry_equiv_pos_site_id
 _symmetry_equiv_pos_as_xyz
  1  'x, y, z'
loop_
 _atom_site_type_symbol
 _atom_site_label
 _atom_site_symmetry_multiplicity
 _atom_site_fract_x
 _atom_site_fract_y
 _atom_site_fract_z
 _atom_site_occupancy
  Fe  Fe0  1  0.15844600  0.49990200  0.12992300  1
  Fe  Fe1  1  0.65844600  0.50009800  0.37007700  1
  Fe  Fe2  1  0.34155400  0.49990200  0.62992300  1
  Fe  Fe3  1  0.84155400  0.50009800  0.87007700  1
  P  P0  1  0.16670500  0.45020600  0.84565800  1
  P  P1  1  0.83329500  0.54979400  0.15434200  1
  P  P2  1  0.33329500  0.45020600  0.34565800  1
  P  P3  1  0.66670500  0.54979400  0.65434200  1
  H  H0  1  0.66479100  0.00661600  0.32072600  1
  H  H1  1  0.91945600  0.38870300  0.31758200  1
  H  H2  1  0.16479100  0.99338400  0.17927400  1
  H  H3  1  0.84851900  0.72789000  0.55737000  1
  H  H4  1  0.84351300  0.27591000  0.08824500  1
  H  H5  1  0.65148100  0.72789000  0.05737000  1
  H  H6  1  0.47476700  0.83430300  0.89086600  1
  H  H7  1  0.08054400  0.61129700  0.68241800  1
  H  H8  1  0.34351300  0.72409000  0.41175500  1
  H  H9  1  0.02523300  0.83430300  0.39086600  1
  H  H10  1  0.41945600  0.61129700  0.18241800  1
  H  H11  1  0.52523300  0.16569700  0.10913400  1
  H  H12  1  0.15648700  0.72409000  0.91175500  1
  H  H13  1  0.15148100  0.27211000  0.44263000  1
  H  H14  1  0.83520900  0.00661600  0.82072600  1
  H  H15  1  0.58054400  0.38870300  0.81758200  1
  H  H16  1  0.34851900  0.27211000  0.94263000  1
  H  H17  1  0.65648700  0.27591000  0.58824500  1
  H  H18  1  0.33520900  0.99338400  0.67927400  1
  H  H19  1  0.97476700  0.16569700  0.60913400  1
  C  C0  1  0.98060300  0.97768100  0.93316100  1
  C  C1  1  0.01939700  0.02231900  0.06683900  1
  C  C2  1  0.51939700  0.97768100  0.43316100  1
  C  C3  1  0.48060300  0.02231900  0.56683900  1
  O  O0  1  0.30819500  0.26749000  0.02744600  1
  O  O1  1  0.86167800  0.04671200  0.90310200  1
  O  O2  1  0.68827100  0.39035000  0.55621200  1
  O  O3  1  0.83362200  0.69037400  0.01213100  1
  O  O4  1  0.98161600  0.60522900  0.17232400  1
  O  O5  1  0.51838400  0.60522900  0.67232400  1
  O  O6  1  0.20314500  0.36157900  0.29800000  1
  O  O7  1  0.33362200  0.30962600  0.48786900  1
  O  O8  1  0.66637800  0.69037400  0.51213100  1
  O  O9  1  0.16637800  0.30962600  0.98786900  1
  O  O10  1  0.70314500  0.63842100  0.20200000  1
  O  O11  1  0.05178100  0.89200900  0.86420700  1
  O  O12  1  0.81172900  0.39035000  0.05621200  1
  O  O13  1  0.82974400  0.40337400  0.28139000  1
  O  O14  1  0.67025600  0.40337400  0.78139000  1
  O  O15  1  0.32974400  0.59662600  0.21861000  1
  O  O16  1  0.17025600  0.59662600  0.71861000  1
  O  O17  1  0.44821900  0.89200900  0.36420700  1
  O  O18  1  0.69180500  0.73251000  0.97255400  1
  O  O19  1  0.13832200  0.95328800  0.09689800  1
  O  O20  1  0.55178100  0.10799100  0.63579300  1
  O  O21  1  0.79685500  0.63842100  0.70200000  1
  O  O22  1  0.31172900  0.60965000  0.44378800  1
  O  O23  1  0.63832200  0.04671200  0.40310200  1
  O  O24  1  0.29685500  0.36157900  0.79800000  1
  O  O25  1  0.36167800  0.95328800  0.59689800  1
  O  O26  1  0.80819500  0.73251000  0.47255400  1
  O  O27  1  0.18827100  0.60965000  0.94378800  1
  O  O28  1  0.48161600  0.39477100  0.32767600  1
  O  O29  1  0.94821900  0.10799100  0.13579300  1
  O  O30  1  0.01838400  0.39477100  0.82767600  1
  O  O31  1  0.19180500  0.26749000  0.52744600  1
loop_
_geom_bond_atom_site_label_1
_geom_bond_atom_site_label_2
_geom_bond_distance
_geom_bond_site_symmetry_2
Fe0 O4 1.982703 1_455
Fe0 O15 2.087264 1_555
Fe0 O6 2.145626 1_555
Fe0 O9 2.146070 1_554
Fe0 O27 2.195844 1_554
Fe1 O28 1.982703 1_555
Fe1 O13 2.087264 1_555
Fe1 O10 2.145626 1_555
Fe1 O8 2.146070 1_555
Fe1 O2 2.195844 1_555
Fe2 O5 1.982703 1_555
Fe2 O16 2.087264 1_555
Fe2 O24 2.145626 1_555
Fe2 O7 2.146070 1_555
Fe2 O22 2.195844 1_555
Fe3 O30 1.982703 1_655
Fe3 O14 2.087264 1_555
Fe3 O21 2.145626 1_555
Fe3 O3 2.146070 1_556
Fe3 O12 2.195844 1_556
H0 O23 0.982499 1_555
H1 O13 0.973697 1_555
H2 O19 0.982499 1_555
H3 O26 0.999852 1_555
H4 O12 1.000481 1_555
H5 O18 0.999852 1_554
H7 O16 0.973697 1_555
H8 O22 1.000481 1_555
H10 O15 0.973697 1_555
H12 O27 1.000481 1_555
H13 O31 0.999852 1_555
H14 O1 0.982499 1_555
H15 O14 0.973697 1_555
H16 O0 0.999852 1_556
H17 O2 1.000481 1_555
H18 O25 0.982499 1_555
C0 O11 1.226315 1_655
C0 O1 1.328520 1_565
C1 O29 1.226315 1_455
C1 O19 1.328520 1_545
C2 O17 1.226315 1_555
C2 O23 1.328520 1_565
C3 O20 1.226315 1_555
C3 O25 1.328520 1_545
O0 O9 1.497874 1_554
O2 P3 1.654474 1_555
O3 P1 1.875024 1_555
O4 P1 1.538083 1_555
O5 P3 1.538083 1_555
O6 P2 1.547996 1_555
O7 P2 1.875024 1_555
O8 P3 1.875024 1_555
O9 P0 1.875024 1_555
O10 P1 1.547996 1_555
O12 P1 1.654474 1_555
O13 P1 1.773024 1_555
O14 P3 1.773024 1_555
O15 P2 1.773024 1_555
O16 P0 1.773024 1_555
O18 O3 1.497874 1_556
O21 P3 1.547996 1_555
O22 P2 1.654474 1_555
O24 P0 1.547996 1_555
O26 O8 1.497874 1_555
O27 P0 1.654474 1_555
O28 P2 1.538083 1_555
O30 P0 1.538083 1_555
O31 O7 1.497874 1_555
