# generated using pymatgen
data_K4XeO15
_symmetry_space_group_name_H-M   'P 1'
_cell_length_a   8.79100500
_cell_length_b   11.75429500
_cell_length_c   15.90843400
_cell_angle_alpha   90.00000000
_cell_angle_beta   90.00000000
_cell_angle_gamma   90.00000000
_symmetry_Int_Tables_number   1
_chemical_formula_structural   K4XeO15
_chemical_formula_sum   'K16 Xe4 O60'
_cell_volume   1643.85135390
_cell_formula_units_Z   4
loop_
 _symmetry_equiv_pos_site_id
 _symmetry_equiv_pos_as_xyz
  1  'x, y, z'
loop_
 _atom_site_type_symbol
 _atom_site_label
 _atom_site_symmetry_multiplicity
 _atom_site_fract_x
 _atom_site_fract_y
 _atom_site_fract_z
 _atom_site_occupancy
  K  K0  1  0.37286600  0.51055300  0.65248500  1
  K  K1  1  0.62713400  0.48944700  0.15248500  1
  K  K2  1  0.37286600  0.98944700  0.15248500  1
  K  K3  1  0.62713400  0.01055300  0.65248500  1
  K  K4  1  0.14032000  0.71266200  0.04024600  1
  K  K5  1  0.85968000  0.28733800  0.54024600  1
  K  K6  1  0.14032000  0.78733800  0.54024600  1
  K  K7  1  0.85968000  0.21266200  0.04024600  1
  K  K8  1  0.63447100  0.71703200  0.96281800  1
  K  K9  1  0.36552900  0.28296800  0.46281800  1
  K  K10  1  0.63447100  0.78296800  0.46281800  1
  K  K11  1  0.36552900  0.21703200  0.96281800  1
  K  K12  1  0.10002000  0.45701500  0.84434100  1
  K  K13  1  0.89998000  0.54298500  0.34434100  1
  K  K14  1  0.10002000  0.04298500  0.34434100  1
  K  K15  1  0.89998000  0.95701500  0.84434100  1
  Xe  Xe0  1  0.75000600  0.52533500  0.72956000  1
  Xe  Xe1  1  0.24999400  0.47466500  0.22956000  1
  Xe  Xe2  1  0.75000600  0.97466500  0.22956000  1
  Xe  Xe3  1  0.24999400  0.02533500  0.72956000  1
  O  O0  1  0.53831300  0.74184300  0.79044600  1
  O  O1  1  0.46168700  0.25815700  0.29044600  1
  O  O2  1  0.53831300  0.75815700  0.29044600  1
  O  O3  1  0.46168700  0.24184300  0.79044600  1
  O  O4  1  0.92228500  0.26328600  0.75233700  1
  O  O5  1  0.07771500  0.73671400  0.25233700  1
  O  O6  1  0.92228500  0.23671400  0.25233700  1
  O  O7  1  0.07771500  0.76328600  0.75233700  1
  O  O8  1  0.98178100  0.59951700  0.57248800  1
  O  O9  1  0.01821900  0.40048300  0.07248800  1
  O  O10  1  0.98178100  0.90048300  0.07248800  1
  O  O11  1  0.01821900  0.09951700  0.57248800  1
  O  O12  1  0.91642400  0.63384000  0.90709100  1
  O  O13  1  0.08357600  0.36616000  0.40709100  1
  O  O14  1  0.91642400  0.86616000  0.40709100  1
  O  O15  1  0.08357600  0.13384000  0.90709100  1
  O  O16  1  0.56427000  0.32774800  0.60809900  1
  O  O17  1  0.43573000  0.67225200  0.10809900  1
  O  O18  1  0.56427000  0.17225200  0.10809900  1
  O  O19  1  0.43573000  0.82774800  0.60809900  1
  O  O20  1  0.63239200  0.36924700  0.91236300  1
  O  O21  1  0.36760800  0.63075300  0.41236300  1
  O  O22  1  0.63239200  0.13075300  0.41236300  1
  O  O23  1  0.36760800  0.86924700  0.91236300  1
  O  O24  1  0.38183100  0.33244600  0.78931200  1
  O  O25  1  0.61816900  0.66755400  0.28931200  1
  O  O26  1  0.38183100  0.16755400  0.28931200  1
  O  O27  1  0.61816900  0.83244600  0.78931200  1
  O  O28  1  0.14381200  0.66811500  0.74460100  1
  O  O29  1  0.85618800  0.33188500  0.24460100  1
  O  O30  1  0.14381200  0.83188500  0.24460100  1
  O  O31  1  0.85618800  0.16811500  0.74460100  1
  O  O32  1  0.09482800  0.43184100  0.61891400  1
  O  O33  1  0.90517200  0.56815900  0.11891400  1
  O  O34  1  0.09482800  0.06815900  0.11891400  1
  O  O35  1  0.90517200  0.93184100  0.61891400  1
  O  O36  1  0.31299800  0.57611700  0.47429900  1
  O  O37  1  0.68700200  0.42388300  0.97429900  1
  O  O38  1  0.31299800  0.92388300  0.97429900  1
  O  O39  1  0.68700200  0.07611700  0.47429900  1
  O  O40  1  0.92367500  0.74529200  0.90116200  1
  O  O41  1  0.07632500  0.25470800  0.40116200  1
  O  O42  1  0.92367500  0.75470800  0.40116200  1
  O  O43  1  0.07632500  0.24529200  0.90116200  1
  O  O44  1  0.98271400  0.50973900  0.05585000  1
  O  O45  1  0.01728600  0.49026100  0.55585000  1
  O  O46  1  0.98271400  0.99026100  0.55585000  1
  O  O47  1  0.01728600  0.00973900  0.05585000  1
  O  O48  1  0.61837200  0.03714300  0.96853200  1
  O  O49  1  0.38162800  0.96285700  0.46853200  1
  O  O50  1  0.61837200  0.46285700  0.46853200  1
  O  O51  1  0.38162800  0.53714300  0.96853200  1
  O  O52  1  0.45795800  0.78267900  0.10011800  1
  O  O53  1  0.54204200  0.21732100  0.60011800  1
  O  O54  1  0.45795800  0.71732100  0.60011800  1
  O  O55  1  0.54204200  0.28267900  0.10011800  1
  O  O56  1  0.37295000  0.58736000  0.89593900  1
  O  O57  1  0.62705000  0.41264000  0.39593900  1
  O  O58  1  0.37295000  0.91264000  0.39593900  1
  O  O59  1  0.62705000  0.08736000  0.89593900  1
loop_
_geom_bond_atom_site_label_1
_geom_bond_atom_site_label_2
_geom_bond_distance
_geom_bond_site_symmetry_2
K0 O32 2.667490 1_555
K0 O54 2.675909 1_555
K0 O16 2.819033 1_555
K0 O36 2.984327 1_555
K0 O24 3.021106 1_555
K0 O28 3.103566 1_555
K0 Xe0 3.539174 1_555
K1 O33 2.667490 1_555
K1 O55 2.675909 1_555
K1 O17 2.819033 1_555
K1 O37 2.984327 1_554
K1 O25 3.021106 1_555
K1 O29 3.103566 1_555
K1 Xe1 3.539174 1_555
K2 O34 2.667490 1_565
K2 O52 2.675909 1_555
K2 O18 2.819033 1_565
K2 O38 2.984327 1_554
K2 O26 3.021106 1_565
K2 O30 3.103566 1_555
K2 Xe2 3.539174 1_555
K3 O35 2.667490 1_545
K3 O53 2.675909 1_555
K3 O19 2.819033 1_545
K3 O39 2.984327 1_555
K3 O27 3.021106 1_545
K3 O31 3.103566 1_555
K3 Xe3 3.539174 1_555
K4 O10 2.660731 1_455
K4 O44 2.769573 1_455
K4 O17 2.852183 1_555
K4 O40 2.944481 1_454
K4 O33 2.953724 1_455
K4 O12 3.036384 1_454
K4 O52 3.062970 1_555
K4 O38 3.093391 1_554
K4 O51 3.171440 1_554
K5 O11 2.660731 1_655
K5 O45 2.769573 1_655
K5 O16 2.852183 1_555
K5 O41 2.944481 1_655
K5 O32 2.953724 1_655
K5 O13 3.036384 1_655
K5 O53 3.062970 1_555
K5 O39 3.093391 1_555
K5 O50 3.171440 1_555
K6 O8 2.660731 1_455
K6 O46 2.769573 1_455
K6 O19 2.852183 1_555
K6 O42 2.944481 1_455
K6 O35 2.953724 1_455
K6 O14 3.036384 1_455
K6 O54 3.062970 1_555
K6 O36 3.093391 1_555
K6 O49 3.171440 1_555
K7 O9 2.660731 1_655
K7 O47 2.769573 1_655
K7 O18 2.852183 1_555
K7 O43 2.944481 1_654
K7 O34 2.953724 1_655
K7 O15 3.036384 1_654
K7 O55 3.062970 1_555
K7 O37 3.093391 1_554
K7 O48 3.171440 1_554
K8 O40 2.745209 1_555
K8 O52 2.788212 1_556
K8 O12 2.808177 1_555
K8 O0 2.884288 1_555
K8 O17 2.944680 1_556
K8 O56 2.956470 1_555
K8 O23 3.057632 1_555
K8 O51 3.069174 1_555
K8 O27 3.078909 1_555
K9 O41 2.745209 1_555
K9 O53 2.788212 1_555
K9 O13 2.808177 1_555
K9 O1 2.884288 1_555
K9 O16 2.944680 1_555
K9 O57 2.956470 1_555
K9 O22 3.057632 1_555
K9 O50 3.069174 1_555
K9 O26 3.078909 1_555
K10 O42 2.745209 1_555
K10 O54 2.788212 1_555
K10 O14 2.808177 1_555
K10 O2 2.884288 1_555
K10 O19 2.944680 1_555
K10 O58 2.956470 1_555
K10 O21 3.057632 1_555
K10 O49 3.069174 1_555
K10 O25 3.078909 1_555
K11 O43 2.745209 1_555
K11 O55 2.788212 1_556
K11 O15 2.808177 1_555
K11 O3 2.884288 1_555
K11 O18 2.944680 1_556
K11 O59 2.956470 1_555
K11 O20 3.057632 1_555
K11 O48 3.069174 1_555
K11 O24 3.078909 1_555
K12 O43 2.655915 1_555
K12 O12 2.814508 1_455
K12 O56 2.962758 1_555
K12 O28 2.970329 1_555
K12 O24 3.007961 1_555
K12 O4 3.125532 1_455
K12 Xe0 3.667001 1_455
K13 O42 2.655915 1_555
K13 O13 2.814508 1_655
K13 O57 2.962758 1_555
K13 O29 2.970329 1_555
K13 O25 3.007961 1_555
K13 O5 3.125532 1_655
K13 Xe1 3.667001 1_655
K14 O41 2.655915 1_555
K14 O14 2.814508 1_445
K14 O58 2.962758 1_545
K14 O30 2.970329 1_545
K14 O26 3.007961 1_555
K14 O6 3.125532 1_455
K14 Xe2 3.667001 1_445
K15 O40 2.655915 1_555
K15 O15 2.814508 1_665
K15 O59 2.962758 1_565
K15 O31 2.970329 1_565
K15 O27 3.007961 1_555
K15 O7 3.125532 1_655
K15 Xe3 3.667001 1_665
O0 O27 1.275665 1_555
O1 O26 1.275665 1_555
O2 O25 1.275665 1_555
O10 O47 1.347857 1_665
O11 O46 1.347857 1_445
O12 O40 1.314977 1_555
O13 O41 1.314977 1_555
O14 O42 1.314977 1_555
O15 O43 1.314977 1_555
O16 O53 1.318744 1_555
O17 O52 1.318744 1_555
O18 O55 1.318744 1_555
O19 O54 1.318744 1_555
O20 O37 1.270327 1_555
O21 O36 1.270327 1_555
O22 O39 1.270327 1_555
O23 O38 1.270327 1_555
O24 O3 1.275665 1_555
O28 O7 1.266568 1_555
O29 O6 1.266568 1_555
O30 O5 1.266568 1_555
O31 O4 1.266568 1_555
O32 O45 1.393816 1_555
O33 O44 1.393816 1_555
O34 O47 1.393816 1_555
O35 O46 1.393816 1_555
O44 O9 1.347857 1_655
O45 O8 1.347857 1_455
O48 O59 1.299189 1_555
O49 O58 1.299189 1_555
O50 O57 1.299189 1_555
O51 O56 1.299189 1_555
