# generated using pymatgen
data_TeMoWS3
_symmetry_space_group_name_H-M   'P 1'
_cell_length_a   3.27162803
_cell_length_b   3.27162803
_cell_length_c   39.05846800
_cell_angle_alpha   90.00000000
_cell_angle_beta   90.00000000
_cell_angle_gamma   120.00000071
_symmetry_Int_Tables_number   1
_chemical_formula_structural   TeMoWS3
_chemical_formula_sum   'Te2 Mo2 W2 S6'
_cell_volume   362.05427142
_cell_formula_units_Z   2
loop_
 _symmetry_equiv_pos_site_id
 _symmetry_equiv_pos_as_xyz
  1  'x, y, z'
loop_
 _atom_site_type_symbol
 _atom_site_label
 _atom_site_symmetry_multiplicity
 _atom_site_fract_x
 _atom_site_fract_y
 _atom_site_fract_z
 _atom_site_occupancy
  Te  Te0  1  0.66666700  0.33333300  0.41992100  1
  Te  Te1  1  0.66666700  0.33333300  0.51862600  1
  Mo  Mo0  1  0.33333300  0.66666700  0.46930600  1
  Mo  Mo1  1  0.66666700  0.33333300  0.28096300  1
  W  W0  1  0.33333300  0.66666700  0.09378900  1
  W  W1  1  0.66666700  0.33333300  0.65886000  1
  S  S0  1  0.33333300  0.66666700  0.32039400  1
  S  S1  1  0.33333300  0.66666700  0.69839900  1
  S  S2  1  0.66666700  0.33333300  0.05426200  1
  S  S3  1  0.66666700  0.33333300  0.13336200  1
  S  S4  1  0.33333300  0.66666700  0.24156800  1
  S  S5  1  0.33333300  0.66666700  0.61929700  1
loop_
_geom_bond_atom_site_label_1
_geom_bond_atom_site_label_2
_geom_bond_distance
_geom_bond_site_symmetry_2
Mo0 Te1 2.697910 1_455
Mo0 Te1 2.697910 1_565
Mo0 Te1 2.697914 1_555
Mo0 Te0 2.699724 1_565
Mo0 Te0 2.699724 1_455
Mo0 Te0 2.699728 1_555
Mo1 S4 2.436281 1_545
Mo1 S4 2.436281 1_655
Mo1 S4 2.436286 1_555
Mo1 S0 2.437170 1_545
Mo1 S0 2.437170 1_655
Mo1 S0 2.437174 1_555
S1 W1 2.439837 1_455
S1 W1 2.439837 1_565
S1 W1 2.439842 1_555
S2 W0 2.439541 1_545
S2 W0 2.439541 1_655
S2 W0 2.439545 1_555
S3 W0 2.440678 1_545
S3 W0 2.440678 1_655
S3 W0 2.440683 1_555
S5 W1 2.440431 1_455
S5 W1 2.440431 1_565
S5 W1 2.440435 1_555
