# generated using pymatgen
data_Sr3La2Fe4CoO15
_symmetry_space_group_name_H-M   'P 1'
_cell_length_a   5.52967366
_cell_length_b   5.52965740
_cell_length_c   11.68558172
_cell_angle_alpha   103.69835272
_cell_angle_beta   103.69863607
_cell_angle_gamma   60.03605207
_symmetry_Int_Tables_number   1
_chemical_formula_structural   Sr3La2Fe4CoO15
_chemical_formula_sum   'Sr3 La2 Fe4 Co1 O15'
_cell_volume   297.75151323
_cell_formula_units_Z   1
loop_
 _symmetry_equiv_pos_site_id
 _symmetry_equiv_pos_as_xyz
  1  'x, y, z'
loop_
 _atom_site_type_symbol
 _atom_site_label
 _atom_site_symmetry_multiplicity
 _atom_site_fract_x
 _atom_site_fract_y
 _atom_site_fract_z
 _atom_site_occupancy
  Sr  Sr0  1  0.50000000  0.50000100  0.50000000  1
  Sr  Sr1  1  0.30111700  0.30111800  0.90314500  1
  Sr  Sr2  1  0.69888300  0.69888000  0.09685500  1
  La  La0  1  0.09679600  0.09679100  0.29035800  1
  La  La1  1  0.90320300  0.90320600  0.70964000  1
  Fe  Fe0  1  0.79956900  0.79957100  0.39888200  1
  Fe  Fe1  1  0.20043600  0.20043300  0.60112100  1
  Fe  Fe2  1  0.39907500  0.39906700  0.19776400  1
  Fe  Fe3  1  0.60092200  0.60093400  0.80224200  1
  Co  Co0  1  0.00000000  0.99999900  0.00000000  1
  O  O0  1  0.00000000  0.00000000  0.50000000  1
  O  O1  1  0.00000000  0.50000000  0.49999900  1
  O  O2  1  0.49999900  0.00000000  0.50000000  1
  O  O3  1  0.80690300  0.80690400  0.89747300  1
  O  O4  1  0.19309700  0.19309500  0.10252600  1
  O  O5  1  0.80693700  0.28415100  0.89809800  1
  O  O6  1  0.19306300  0.71584800  0.10190100  1
  O  O7  1  0.28414900  0.80693900  0.89809700  1
  O  O8  1  0.71585100  0.19306000  0.10190200  1
  O  O9  1  0.39770900  0.39771100  0.69902700  1
  O  O10  1  0.60229100  0.60229000  0.30097300  1
  O  O11  1  0.39740300  0.90278200  0.69881000  1
  O  O12  1  0.60259600  0.09722000  0.30118800  1
  O  O13  1  0.90277900  0.39740500  0.69881000  1
  O  O14  1  0.09722200  0.60259400  0.30118800  1
loop_
_geom_bond_atom_site_label_1
_geom_bond_atom_site_label_2
_geom_bond_distance
_geom_bond_site_symmetry_2
La0 O4 2.602943 1_555
La0 O8 2.609296 1_455
La0 O6 2.609306 1_545
La0 O14 2.764257 1_545
La0 O12 2.764274 1_455
La0 O10 2.768963 1_545
La0 O10 2.768986 1_455
La0 O12 2.770841 1_555
La0 O14 2.770842 1_555
La0 O2 2.846221 1_555
La0 O1 2.846237 1_555
La0 O0 2.846512 1_555
La1 O3 2.602946 1_555
La1 O7 2.609307 1_655
La1 O5 2.609320 1_565
La1 O13 2.764274 1_565
La1 O11 2.764288 1_655
La1 O9 2.768970 1_565
La1 O9 2.768976 1_655
La1 O13 2.770825 1_555
La1 O11 2.770827 1_555
La1 O2 2.846207 1_565
La1 O1 2.846229 1_655
La1 O0 2.846501 1_665
Fe0 O10 1.922386 1_555
Fe0 O12 1.925835 1_565
Fe0 O14 1.925862 1_655
Fe0 O0 1.959446 1_665
Fe0 O1 1.959968 1_655
Fe0 O2 1.959984 1_565
Fe1 O9 1.922343 1_555
Fe1 O11 1.925805 1_545
Fe1 O13 1.925839 1_455
Fe1 O0 1.959493 1_555
Fe1 O2 1.959980 1_555
Fe1 O1 1.959992 1_555
Fe2 O4 1.981975 1_555
Fe2 O12 1.986941 1_555
Fe2 O14 1.986976 1_555
Fe2 O8 1.988118 1_555
Fe2 O6 1.988134 1_555
Fe2 O10 1.989408 1_555
Fe3 O3 1.981955 1_555
Fe3 O11 1.987008 1_555
Fe3 O13 1.987054 1_555
Fe3 O7 1.988054 1_555
Fe3 O5 1.988090 1_555
Fe3 O9 1.989420 1_555
Co0 O6 1.906555 1_555
Co0 O8 1.906566 1_465
Co0 O5 1.906567 1_464
Co0 O7 1.906574 1_554
Co0 O4 1.908585 1_565
Co0 O3 1.908585 1_454
O0 Sr0 2.766336 1_545
O0 Sr0 2.766342 1_455
O1 Sr0 2.764837 1_555
O1 Sr0 2.764837 1_455
O2 Sr0 2.764820 1_545
O2 Sr0 2.764837 1_555
O3 Sr1 2.768050 1_655
O3 Sr1 2.768051 1_565
O3 Sr2 2.795837 1_556
O4 Sr2 2.768047 1_455
O4 Sr2 2.768054 1_545
O4 Sr1 2.795824 1_554
O5 Sr1 2.765678 1_555
O5 Sr1 2.767098 1_655
O5 Sr2 2.788642 1_556
O6 Sr2 2.765672 1_555
O6 Sr2 2.767103 1_455
O6 Sr1 2.788637 1_554
O7 Sr1 2.765675 1_555
O7 Sr1 2.767085 1_565
O7 Sr2 2.788656 1_556
O8 Sr2 2.765666 1_555
O8 Sr2 2.767093 1_545
O8 Sr1 2.788648 1_554
O9 Sr0 2.759473 1_555
O9 Sr1 2.784192 1_555
O10 Sr0 2.759470 1_555
O10 Sr2 2.784183 1_555
O11 Sr0 2.755204 1_555
O11 Sr1 2.788607 1_565
O12 Sr0 2.755220 1_555
O12 Sr2 2.788601 1_545
O13 Sr0 2.755190 1_555
O13 Sr1 2.788604 1_655
O14 Sr0 2.755204 1_555
O14 Sr2 2.788590 1_455
