# generated using pymatgen
data_Bi8(MoO7)3
_symmetry_space_group_name_H-M   'P 1'
_cell_length_a   5.72249600
_cell_length_b   8.73995400
_cell_length_c   40.39450252
_cell_angle_alpha   79.33342042
_cell_angle_beta   90.00000000
_cell_angle_gamma   90.00000000
_symmetry_Int_Tables_number   1
_chemical_formula_structural   Bi8(MoO7)3
_chemical_formula_sum   'Bi32 Mo12 O84'
_cell_volume   1985.39586676
_cell_formula_units_Z   4
loop_
 _symmetry_equiv_pos_site_id
 _symmetry_equiv_pos_as_xyz
  1  'x, y, z'
loop_
 _atom_site_type_symbol
 _atom_site_label
 _atom_site_symmetry_multiplicity
 _atom_site_fract_x
 _atom_site_fract_y
 _atom_site_fract_z
 _atom_site_occupancy
  Bi  Bi0  1  0.27128500  0.58921800  0.42102800  1
  Bi  Bi1  1  0.77128500  0.41078200  0.07897200  1
  Bi  Bi2  1  0.72871500  0.41078200  0.57897200  1
  Bi  Bi3  1  0.22871500  0.58921800  0.92102800  1
  Bi  Bi4  1  0.23695600  0.25719000  0.37469200  1
  Bi  Bi5  1  0.73695600  0.74281000  0.12530800  1
  Bi  Bi6  1  0.76304400  0.74281000  0.62530800  1
  Bi  Bi7  1  0.26304400  0.25719000  0.87469200  1
  Bi  Bi8  1  0.31913800  0.52836000  0.28397300  1
  Bi  Bi9  1  0.81913800  0.47164000  0.21602700  1
  Bi  Bi10  1  0.68086200  0.47164000  0.71602700  1
  Bi  Bi11  1  0.18086200  0.52836000  0.78397300  1
  Bi  Bi12  1  0.26846800  0.19073100  0.24152100  1
  Bi  Bi13  1  0.76846800  0.80926900  0.25847900  1
  Bi  Bi14  1  0.73153200  0.80926900  0.75847900  1
  Bi  Bi15  1  0.23153200  0.19073100  0.74152100  1
  Bi  Bi16  1  0.26976500  0.77811700  0.19046700  1
  Bi  Bi17  1  0.76976500  0.22188300  0.30953300  1
  Bi  Bi18  1  0.73023500  0.22188300  0.80953300  1
  Bi  Bi19  1  0.23023500  0.77811700  0.69046700  1
  Bi  Bi20  1  0.23427500  0.45387800  0.14615100  1
  Bi  Bi21  1  0.73427500  0.54612200  0.35384900  1
  Bi  Bi22  1  0.76572500  0.54612200  0.85384900  1
  Bi  Bi23  1  0.26572500  0.45387800  0.64615100  1
  Bi  Bi24  1  0.26832000  0.69809200  0.05724500  1
  Bi  Bi25  1  0.76832000  0.30190800  0.44275500  1
  Bi  Bi26  1  0.73168000  0.30190800  0.94275500  1
  Bi  Bi27  1  0.23168000  0.69809200  0.55724500  1
  Bi  Bi28  1  0.25027000  0.36079000  0.01107700  1
  Bi  Bi29  1  0.75027000  0.63921000  0.48892300  1
  Bi  Bi30  1  0.74973000  0.63921000  0.98892300  1
  Bi  Bi31  1  0.24973000  0.36079000  0.51107700  1
  Mo  Mo0  1  0.25877100  0.97077300  0.46530900  1
  Mo  Mo1  1  0.75877100  0.02922700  0.03469100  1
  Mo  Mo2  1  0.74122900  0.02922700  0.53469100  1
  Mo  Mo3  1  0.24122900  0.97077300  0.96530900  1
  Mo  Mo4  1  0.24338100  0.07171600  0.10439900  1
  Mo  Mo5  1  0.74338100  0.92828400  0.39560100  1
  Mo  Mo6  1  0.75661900  0.92828400  0.89560100  1
  Mo  Mo7  1  0.25661900  0.07171600  0.60439900  1
  Mo  Mo8  1  0.27866200  0.89151700  0.32743600  1
  Mo  Mo9  1  0.77866200  0.10848300  0.17256400  1
  Mo  Mo10  1  0.72133800  0.10848300  0.67256400  1
  Mo  Mo11  1  0.22133800  0.89151700  0.82743600  1
  O  O0  1  0.50254300  0.34018800  0.26511000  1
  O  O1  1  0.00254300  0.65981200  0.23489000  1
  O  O2  1  0.49745700  0.65981200  0.73489000  1
  O  O3  1  0.99745700  0.34018800  0.76511000  1
  O  O4  1  0.98089900  0.30794900  0.26426400  1
  O  O5  1  0.48089900  0.69205100  0.23573600  1
  O  O6  1  0.01910100  0.69205100  0.73573600  1
  O  O7  1  0.51910100  0.30794900  0.76426400  1
  O  O8  1  0.49156200  0.38027000  0.33446900  1
  O  O9  1  0.99156200  0.61973000  0.16553100  1
  O  O10  1  0.50843800  0.61973000  0.66553100  1
  O  O11  1  0.00843800  0.38027000  0.83446900  1
  O  O12  1  0.98134900  0.37586900  0.33542000  1
  O  O13  1  0.48134900  0.62413100  0.16458000  1
  O  O14  1  0.01865100  0.62413100  0.66458000  1
  O  O15  1  0.51865100  0.37586900  0.83542000  1
  O  O16  1  0.51102500  0.42401300  0.40041600  1
  O  O17  1  0.01102500  0.57598700  0.09958400  1
  O  O18  1  0.48897500  0.57598700  0.59958400  1
  O  O19  1  0.98897500  0.42401300  0.90041600  1
  O  O20  1  0.02315800  0.41957800  0.40171500  1
  O  O21  1  0.52315800  0.58042200  0.09828500  1
  O  O22  1  0.97684200  0.58042200  0.59828500  1
  O  O23  1  0.47684200  0.41957800  0.90171500  1
  O  O24  1  0.48243100  0.47786500  0.46698400  1
  O  O25  1  0.98243100  0.52213500  0.03301600  1
  O  O26  1  0.51756900  0.52213500  0.53301600  1
  O  O27  1  0.01756900  0.47786500  0.96698400  1
  O  O28  1  0.98456700  0.46970500  0.46778200  1
  O  O29  1  0.48456700  0.53029500  0.03221800  1
  O  O30  1  0.01543300  0.53029500  0.53221800  1
  O  O31  1  0.51543300  0.46970500  0.96778200  1
  O  O32  1  0.07371000  0.83549700  0.44941300  1
  O  O33  1  0.57371000  0.16450300  0.05058700  1
  O  O34  1  0.92629000  0.16450300  0.55058700  1
  O  O35  1  0.42629000  0.83549700  0.94941300  1
  O  O36  1  0.41209900  0.85030100  0.49987600  1
  O  O37  1  0.91209900  0.14969900  0.00012400  1
  O  O38  1  0.58790100  0.14969900  0.50012400  1
  O  O39  1  0.08790100  0.85030100  0.99987600  1
  O  O40  1  0.09242700  0.13352900  0.47541900  1
  O  O41  1  0.59242700  0.86647100  0.02458100  1
  O  O42  1  0.90757300  0.86647100  0.52458100  1
  O  O43  1  0.40757300  0.13352900  0.97541900  1
  O  O44  1  0.45922000  0.05317700  0.43239500  1
  O  O45  1  0.95922000  0.94682300  0.06760500  1
  O  O46  1  0.54078000  0.94682300  0.56760500  1
  O  O47  1  0.04078000  0.05317700  0.93239500  1
  O  O48  1  0.39342100  0.89785300  0.09574300  1
  O  O49  1  0.89342100  0.10214700  0.40425700  1
  O  O50  1  0.60657900  0.10214700  0.90425700  1
  O  O51  1  0.10657900  0.89785300  0.59574300  1
  O  O52  1  0.02213100  0.99703200  0.13555900  1
  O  O53  1  0.52213100  0.00296800  0.36444100  1
  O  O54  1  0.97786900  0.00296800  0.86444100  1
  O  O55  1  0.47786900  0.99703200  0.63555900  1
  O  O56  1  0.44894200  0.16100200  0.12810900  1
  O  O57  1  0.94894200  0.83899800  0.37189100  1
  O  O58  1  0.55105800  0.83899800  0.87189100  1
  O  O59  1  0.05105800  0.16100200  0.62810900  1
  O  O60  1  0.12826300  0.23853800  0.07492400  1
  O  O61  1  0.62826300  0.76146200  0.42507600  1
  O  O62  1  0.87173700  0.76146200  0.92507600  1
  O  O63  1  0.37173700  0.23853800  0.57492400  1
  O  O64  1  0.08700500  0.80400800  0.30032400  1
  O  O65  1  0.58700500  0.19599200  0.19967600  1
  O  O66  1  0.91299500  0.19599200  0.69967600  1
  O  O67  1  0.41299500  0.80400800  0.80032400  1
  O  O68  1  0.36989400  0.71455700  0.35731600  1
  O  O69  1  0.86989400  0.28544300  0.14268400  1
  O  O70  1  0.63010600  0.28544300  0.64268400  1
  O  O71  1  0.13010600  0.71455700  0.85731600  1
  O  O72  1  0.13803100  0.08206400  0.32780500  1
  O  O73  1  0.63803100  0.91793600  0.17219500  1
  O  O74  1  0.86196900  0.91793600  0.67219500  1
  O  O75  1  0.36196900  0.08206400  0.82780500  1
  O  O76  1  0.51673600  0.94641000  0.29824200  1
  O  O77  1  0.01673600  0.05359000  0.20175800  1
  O  O78  1  0.48326400  0.05359000  0.70175800  1
  O  O79  1  0.98326400  0.94641000  0.79824200  1
  O  O80  1  0.17070700  0.38193800  0.20418200  1
  O  O81  1  0.67070700  0.61806200  0.29581800  1
  O  O82  1  0.82929300  0.61806200  0.79581800  1
  O  O83  1  0.32929300  0.38193800  0.70418200  1
loop_
_geom_bond_atom_site_label_1
_geom_bond_atom_site_label_2
_geom_bond_distance
_geom_bond_site_symmetry_2
Bi0 O16 2.259473 1_555
Bi0 O24 2.276930 1_555
Bi0 O20 2.291544 1_555
Bi0 O61 2.560695 1_555
Bi0 O28 2.572868 1_455
Bi0 O68 2.664260 1_555
Bi0 O32 2.853022 1_555
Bi1 O17 2.259473 1_655
Bi1 O25 2.276930 1_555
Bi1 O21 2.291544 1_555
Bi1 O60 2.560695 1_655
Bi1 O29 2.572868 1_555
Bi1 O69 2.664260 1_555
Bi1 O33 2.853022 1_555
Bi2 O18 2.259473 1_555
Bi2 O26 2.276930 1_555
Bi2 O22 2.291544 1_555
Bi2 O63 2.560695 1_555
Bi2 O30 2.572868 1_655
Bi2 O70 2.664260 1_555
Bi2 O34 2.853022 1_555
Bi3 O19 2.259473 1_455
Bi3 O27 2.276930 1_555
Bi3 O23 2.291544 1_555
Bi3 O62 2.560695 1_455
Bi3 O31 2.572868 1_555
Bi3 O71 2.664260 1_555
Bi3 O35 2.853022 1_555
Bi4 O12 2.263373 1_455
Bi4 O8 2.296275 1_555
Bi4 O20 2.297002 1_555
Bi4 O16 2.495232 1_555
Bi4 O49 2.555010 1_455
Bi4 O72 2.706191 1_555
Bi5 O13 2.263373 1_555
Bi5 O9 2.296275 1_555
Bi5 O21 2.297002 1_555
Bi5 O17 2.495232 1_655
Bi5 O48 2.555010 1_555
Bi5 O73 2.706191 1_555
Bi6 O14 2.263373 1_655
Bi6 O10 2.296275 1_555
Bi6 O22 2.297002 1_555
Bi6 O18 2.495232 1_555
Bi6 O51 2.555010 1_655
Bi6 O74 2.706191 1_555
Bi7 O15 2.263373 1_555
Bi7 O11 2.296275 1_555
Bi7 O23 2.297002 1_555
Bi7 O19 2.495232 1_455
Bi7 O50 2.555010 1_555
Bi7 O75 2.706191 1_555
Bi8 O0 2.202444 1_555
Bi8 O81 2.242764 1_555
Bi8 O5 2.380837 1_555
Bi8 O8 2.414972 1_555
Bi8 O1 2.773091 1_555
Bi9 O1 2.202444 1_655
Bi9 O80 2.242764 1_655
Bi9 O4 2.380837 1_555
Bi9 O9 2.414972 1_555
Bi9 O0 2.773091 1_555
Bi10 O2 2.202444 1_555
Bi10 O83 2.242764 1_555
Bi10 O7 2.380837 1_555
Bi10 O10 2.414972 1_555
Bi10 O3 2.773091 1_555
Bi11 O3 2.202444 1_455
Bi11 O82 2.242764 1_455
Bi11 O6 2.380837 1_555
Bi11 O11 2.414972 1_555
Bi11 O2 2.773091 1_555
Bi12 O80 2.108919 1_555
Bi12 O0 2.206636 1_555
Bi12 O4 2.224861 1_455
Bi12 O65 2.480561 1_555
Bi12 O77 2.608522 1_555
Bi13 O81 2.108919 1_555
Bi13 O1 2.206636 1_655
Bi13 O5 2.224861 1_555
Bi13 O64 2.480561 1_655
Bi13 O76 2.608522 1_555
Bi14 O82 2.108919 1_555
Bi14 O2 2.206636 1_555
Bi14 O6 2.224861 1_655
Bi14 O67 2.480561 1_555
Bi14 O79 2.608522 1_555
Bi15 O83 2.108919 1_555
Bi15 O3 2.206636 1_455
Bi15 O7 2.224861 1_555
Bi15 O66 2.480561 1_455
Bi15 O78 2.608522 1_555
Bi16 O5 2.204599 1_555
Bi16 O13 2.211722 1_555
Bi16 O1 2.437350 1_555
Bi16 O9 2.445725 1_455
Bi16 O73 2.478978 1_555
Bi17 O4 2.204599 1_555
Bi17 O12 2.211722 1_555
Bi17 O0 2.437350 1_555
Bi17 O8 2.445725 1_555
Bi17 O72 2.478978 1_655
Bi18 O7 2.204599 1_555
Bi18 O15 2.211722 1_555
Bi18 O3 2.437350 1_555
Bi18 O11 2.445725 1_655
Bi18 O75 2.478978 1_555
Bi19 O6 2.204599 1_555
Bi19 O14 2.211722 1_555
Bi19 O2 2.437350 1_555
Bi19 O10 2.445725 1_555
Bi19 O74 2.478978 1_455
Bi20 O9 2.250155 1_455
Bi20 O13 2.275401 1_555
Bi20 O80 2.340301 1_555
Bi20 O17 2.359301 1_555
Bi20 O69 2.571183 1_455
Bi20 O21 2.627345 1_555
Bi21 O8 2.250155 1_555
Bi21 O12 2.275401 1_555
Bi21 O81 2.340301 1_555
Bi21 O16 2.359301 1_555
Bi21 O68 2.571183 1_555
Bi21 O20 2.627345 1_655
Bi22 O11 2.250155 1_655
Bi22 O15 2.275401 1_555
Bi22 O82 2.340301 1_555
Bi22 O19 2.359301 1_555
Bi22 O71 2.571183 1_655
Bi22 O23 2.627345 1_555
Bi23 O10 2.250155 1_555
Bi23 O14 2.275401 1_555
Bi23 O83 2.340301 1_555
Bi23 O18 2.359301 1_555
Bi23 O70 2.571183 1_555
Bi23 O22 2.627345 1_455
Bi24 O29 2.291929 1_555
Bi24 O21 2.302491 1_555
Bi24 O17 2.357141 1_555
Bi24 O25 2.560578 1_455
Bi24 O41 2.574438 1_555
Bi24 O48 2.642747 1_555
Bi24 O39 2.657956 1_554
Bi25 O28 2.291929 1_555
Bi25 O20 2.302491 1_655
Bi25 O16 2.357141 1_555
Bi25 O24 2.560578 1_555
Bi25 O40 2.574438 1_655
Bi25 O49 2.642747 1_555
Bi25 O38 2.657956 1_555
Bi26 O31 2.291929 1_555
Bi26 O23 2.302491 1_555
Bi26 O19 2.357141 1_555
Bi26 O27 2.560578 1_655
Bi26 O43 2.574438 1_555
Bi26 O50 2.642747 1_555
Bi26 O37 2.657956 1_556
Bi27 O30 2.291929 1_555
Bi27 O22 2.302491 1_455
Bi27 O18 2.357141 1_555
Bi27 O26 2.560578 1_555
Bi27 O42 2.574438 1_455
Bi27 O51 2.642747 1_555
Bi27 O36 2.657956 1_555
Bi28 O29 2.278159 1_555
Bi28 O27 2.306068 1_554
Bi28 O25 2.363410 1_455
Bi28 O31 2.377167 1_554
Bi28 O60 2.694546 1_555
Bi28 O37 2.765250 1_455
Bi28 O43 2.808790 1_554
Bi28 O33 2.811131 1_555
Bi29 O28 2.278159 1_555
Bi29 O26 2.306068 1_555
Bi29 O24 2.363410 1_555
Bi29 O30 2.377167 1_655
Bi29 O61 2.694546 1_555
Bi29 O36 2.765250 1_555
Bi29 O42 2.808790 1_555
Bi29 O32 2.811131 1_655
Bi30 O31 2.278159 1_555
Bi30 O25 2.306068 1_556
Bi30 O27 2.363410 1_655
Bi30 O29 2.377167 1_556
Bi30 O62 2.694546 1_555
Bi30 O39 2.765250 1_655
Bi30 O41 2.808790 1_556
Bi30 O35 2.811131 1_555
Bi31 O30 2.278159 1_555
Bi31 O24 2.306068 1_555
Bi31 O26 2.363410 1_555
Bi31 O28 2.377167 1_455
Bi31 O63 2.694546 1_555
Bi31 O38 2.765250 1_555
Bi31 O40 2.808790 1_555
Bi31 O34 2.811131 1_455
Mo0 O32 1.792399 1_555
Mo0 O44 1.802133 1_565
Mo0 O36 1.812168 1_555
Mo0 O40 1.819725 1_565
Mo1 O33 1.792399 1_555
Mo1 O45 1.802133 1_545
Mo1 O37 1.812168 1_555
Mo1 O41 1.819725 1_545
Mo2 O34 1.792399 1_555
Mo2 O46 1.802133 1_545
Mo2 O38 1.812168 1_555
Mo2 O42 1.819725 1_545
Mo3 O35 1.792399 1_555
Mo3 O47 1.802133 1_565
Mo3 O39 1.812168 1_555
Mo3 O43 1.819725 1_565
Mo4 O56 1.785120 1_555
Mo4 O52 1.819132 1_545
Mo4 O60 1.826129 1_555
Mo4 O48 1.834446 1_545
Mo5 O57 1.785120 1_555
Mo5 O53 1.819132 1_565
Mo5 O61 1.826129 1_555
Mo5 O49 1.834446 1_565
Mo6 O58 1.785120 1_555
Mo6 O54 1.819132 1_565
Mo6 O62 1.826129 1_555
Mo6 O50 1.834446 1_565
Mo7 O59 1.785120 1_555
Mo7 O55 1.819132 1_545
Mo7 O63 1.826129 1_555
Mo7 O51 1.834446 1_545
Mo8 O76 1.807622 1_555
Mo8 O64 1.815851 1_555
Mo8 O68 1.852127 1_555
Mo8 O72 1.852165 1_565
Mo9 O77 1.807622 1_655
Mo9 O65 1.815851 1_555
Mo9 O69 1.852127 1_555
Mo9 O73 1.852165 1_545
Mo10 O78 1.807622 1_555
Mo10 O66 1.815851 1_555
Mo10 O70 1.852127 1_555
Mo10 O74 1.852165 1_545
Mo11 O79 1.807622 1_455
Mo11 O67 1.815851 1_555
Mo11 O71 1.852127 1_555
Mo11 O75 1.852165 1_565
