# generated using pymatgen
data_Mg14SiBiO16
_symmetry_space_group_name_H-M   'P 1'
_cell_length_a   8.76016903
_cell_length_b   8.76016903
_cell_length_c   4.44696500
_cell_angle_alpha   90.00000000
_cell_angle_beta   90.00000000
_cell_angle_gamma   90.00000000
_symmetry_Int_Tables_number   1
_chemical_formula_structural   Mg14SiBiO16
_chemical_formula_sum   'Mg14 Si1 Bi1 O16'
_cell_volume   341.26259078
_cell_formula_units_Z   1
loop_
 _symmetry_equiv_pos_site_id
 _symmetry_equiv_pos_as_xyz
  1  'x, y, z'
loop_
 _atom_site_type_symbol
 _atom_site_label
 _atom_site_symmetry_multiplicity
 _atom_site_fract_x
 _atom_site_fract_y
 _atom_site_fract_z
 _atom_site_occupancy
  Mg  Mg0  1  0.00000000  0.50000000  0.00000000  1
  Mg  Mg1  1  0.50000000  0.00000000  0.00000000  1
  Mg  Mg2  1  0.00000000  0.25109692  0.50000000  1
  Mg  Mg3  1  0.00000000  0.74890308  0.50000000  1
  Mg  Mg4  1  0.50000000  0.23757674  0.50000000  1
  Mg  Mg5  1  0.50000000  0.76242326  0.50000000  1
  Mg  Mg6  1  0.25109692  0.00000000  0.50000000  1
  Mg  Mg7  1  0.23757674  0.50000000  0.50000000  1
  Mg  Mg8  1  0.74890308  0.00000000  0.50000000  1
  Mg  Mg9  1  0.76242326  0.50000000  0.50000000  1
  Mg  Mg10  1  0.24414017  0.24414017  -0.00000000  1
  Mg  Mg11  1  0.24414017  0.75585983  0.00000000  1
  Mg  Mg12  1  0.75585983  0.24414017  -0.00000000  1
  Mg  Mg13  1  0.75585983  0.75585983  0.00000000  1
  Si  Si0  1  0.00000000  0.00000000  0.00000000  1
  Bi  Bi0  1  0.50000000  0.50000000  0.00000000  1
  O  O0  1  0.25823640  0.00000000  0.00000000  1
  O  O1  1  0.22798572  0.50000000  0.00000000  1
  O  O2  1  0.74176360  -0.00000000  -0.00000000  1
  O  O3  1  0.77201428  0.50000000  -0.00000000  1
  O  O4  1  0.24920508  0.24920508  0.50000000  1
  O  O5  1  0.24920508  0.75079492  0.50000000  1
  O  O6  1  0.75079492  0.24920508  0.50000000  1
  O  O7  1  0.75079492  0.75079492  0.50000000  1
  O  O8  1  0.00000000  0.00000000  0.50000000  1
  O  O9  1  0.00000000  0.50000000  0.50000000  1
  O  O10  1  0.50000000  0.00000000  0.50000000  1
  O  O11  1  0.50000000  0.50000000  0.50000000  1
  O  O12  1  0.00000000  0.25823640  -0.00000000  1
  O  O13  1  0.00000000  0.74176360  -0.00000000  1
  O  O14  1  0.50000000  0.22798572  -0.00000000  1
  O  O15  1  0.50000000  0.77201428  0.00000000  1
loop_
_geom_bond_atom_site_label_1
_geom_bond_atom_site_label_2
_geom_bond_distance
_geom_bond_site_symmetry_2
Mg0 O3 1.997193 1_455
Mg0 O1 1.997193 1_555
Mg0 O13 2.117890 1_555
Mg0 O12 2.117890 1_555
Mg0 O9 2.223482 1_555
Mg0 O9 2.223482 1_554
Mg1 O15 1.997193 1_545
Mg1 O14 1.997193 1_555
Mg1 O2 2.117890 1_555
Mg1 O0 2.117890 1_555
Mg1 O10 2.223482 1_555
Mg1 O10 2.223482 1_554
Mg2 O9 2.180433 1_555
Mg2 O6 2.183142 1_455
Mg2 O4 2.183142 1_555
Mg2 O8 2.199651 1_555
Mg2 O12 2.224362 1_556
Mg2 O12 2.224362 1_555
Mg3 O9 2.180433 1_555
Mg3 O5 2.183142 1_555
Mg3 O7 2.183142 1_455
Mg3 O8 2.199651 1_565
Mg3 O13 2.224362 1_555
Mg3 O13 2.224362 1_556
Mg4 O10 2.081212 1_555
Mg4 O6 2.199366 1_555
Mg4 O4 2.199366 1_555
Mg4 O14 2.225069 1_555
Mg4 O14 2.225069 1_556
Mg4 O11 2.298872 1_555
Mg5 O10 2.081212 1_565
Mg5 O5 2.199366 1_555
Mg5 O7 2.199366 1_555
Mg5 O15 2.225069 1_556
Mg5 O15 2.225069 1_555
Mg5 O11 2.298872 1_555
Mg6 O10 2.180433 1_555
Mg6 O5 2.183142 1_545
Mg6 O4 2.183142 1_555
Mg6 O8 2.199651 1_555
Mg6 O0 2.224362 1_555
Mg6 O0 2.224362 1_556
Mg7 O9 2.081212 1_555
Mg7 O5 2.199366 1_555
Mg7 O4 2.199366 1_555
Mg7 O1 2.225069 1_556
Mg7 O1 2.225069 1_555
Mg7 O11 2.298872 1_555
Mg8 O10 2.180433 1_555
Mg8 O6 2.183142 1_555
Mg8 O7 2.183142 1_545
Mg8 O8 2.199651 1_655
Mg8 O2 2.224362 1_556
Mg8 O2 2.224362 1_555
Mg9 O9 2.081212 1_655
Mg9 O7 2.199366 1_555
Mg9 O6 2.199366 1_555
Mg9 O3 2.225069 1_556
Mg9 O3 2.225069 1_555
Mg9 O11 2.298872 1_555
Mg10 O0 2.142271 1_555
Mg10 O12 2.142271 1_555
Mg10 O4 2.224368 1_554
Mg10 O4 2.224368 1_555
Mg10 O1 2.245838 1_555
Mg10 O14 2.245838 1_555
Mg11 O0 2.142271 1_565
Mg11 O13 2.142271 1_555
Mg11 O5 2.224368 1_554
Mg11 O5 2.224368 1_555
Mg11 O1 2.245838 1_555
Mg11 O15 2.245838 1_555
Mg12 O2 2.142271 1_555
Mg12 O12 2.142271 1_655
Mg12 O6 2.224368 1_554
Mg12 O6 2.224368 1_555
Mg12 O14 2.245838 1_555
Mg12 O3 2.245838 1_555
Mg13 O2 2.142271 1_565
Mg13 O13 2.142271 1_655
Mg13 O7 2.224368 1_554
Mg13 O7 2.224368 1_555
Mg13 O15 2.245838 1_555
Mg13 O3 2.245838 1_555
Bi0 O11 2.223482 1_554
Bi0 O11 2.223482 1_555
Bi0 O1 2.382891 1_555
Bi0 O14 2.382891 1_555
Bi0 O15 2.382891 1_555
Bi0 O3 2.382891 1_555
O0 Si0 2.262195 1_555
O2 Si0 2.262195 1_655
O8 Si0 2.223482 1_556
O8 Si0 2.223482 1_555
O12 Si0 2.262195 1_555
O13 Si0 2.262195 1_565
