# generated using pymatgen
data_Ba2FeWO6
_symmetry_space_group_name_H-M   'P 1'
_cell_length_a   5.83495678
_cell_length_b   8.37512565
_cell_length_c   5.83619687
_cell_angle_alpha   89.99520769
_cell_angle_beta   91.73558825
_cell_angle_gamma   89.99480548
_symmetry_Int_Tables_number   1
_chemical_formula_structural   Ba2FeWO6
_chemical_formula_sum   'Ba4 Fe2 W2 O12'
_cell_volume   285.07532119
_cell_formula_units_Z   2
loop_
 _symmetry_equiv_pos_site_id
 _symmetry_equiv_pos_as_xyz
  1  'x, y, z'
loop_
 _atom_site_type_symbol
 _atom_site_label
 _atom_site_symmetry_multiplicity
 _atom_site_fract_x
 _atom_site_fract_y
 _atom_site_fract_z
 _atom_site_occupancy
  Ba  Ba0  1  0.00004100  0.24995800  0.49999900  1
  Ba  Ba1  1  0.50000200  0.74996400  0.99995900  1
  Ba  Ba2  1  0.49999900  0.25003800  0.00004000  1
  Ba  Ba3  1  0.99995800  0.75004100  0.50000100  1
  Fe  Fe0  1  0.49999800  0.00000000  0.49999800  1
  Fe  Fe1  1  0.00000300  0.49999400  0.00000700  1
  W  W0  1  0.99999700  0.00000100  0.00000200  1
  W  W1  1  0.49999900  0.50000200  0.49999900  1
  O  O0  1  0.26598900  0.50000600  0.73382000  1
  O  O1  1  0.76613900  0.00000500  0.23390500  1
  O  O2  1  0.24219000  0.99996200  0.24229600  1
  O  O3  1  0.74238700  0.50000000  0.74215400  1
  O  O4  1  0.25760900  0.50000300  0.25784400  1
  O  O5  1  0.75781200  0.00003800  0.75770700  1
  O  O6  1  0.23386200  0.99999500  0.76608800  1
  O  O7  1  0.73401300  0.49999700  0.26617700  1
  O  O8  1  0.00000700  0.23398300  0.00000100  1
  O  O9  1  0.49996900  0.73392500  0.49995600  1
  O  O10  1  0.99999100  0.76601600  0.00000300  1
  O  O11  1  0.50003500  0.26607400  0.50004400  1
loop_
_geom_bond_atom_site_label_1
_geom_bond_atom_site_label_2
_geom_bond_distance
_geom_bond_site_symmetry_2
Ba0 O6 2.919979 1_545
Ba0 O7 2.920213 1_455
Ba0 O0 2.920388 1_555
Ba0 O1 2.920511 1_455
Ba0 O11 2.920568 1_555
Ba0 O11 2.920630 1_455
Ba0 O8 2.921157 1_555
Ba0 O8 2.921170 1_556
Ba0 O5 2.961368 1_455
Ba0 O4 2.961461 1_555
Ba0 O2 2.961570 1_545
Ba0 O3 2.961680 1_455
Ba1 O10 2.920514 1_556
Ba1 O6 2.920632 1_555
Ba1 O10 2.920634 1_456
Ba1 O7 2.920893 1_556
Ba1 O0 2.920969 1_555
Ba1 O9 2.921166 1_556
Ba1 O9 2.921211 1_555
Ba1 O1 2.921246 1_566
Ba1 O3 2.962369 1_555
Ba1 O2 2.962424 1_556
Ba1 O4 2.962622 1_556
Ba1 O5 2.962649 1_565
Ba2 O8 2.920534 1_555
Ba2 O8 2.920617 1_655
Ba2 O1 2.920628 1_555
Ba2 O0 2.920903 1_554
Ba2 O7 2.920972 1_555
Ba2 O11 2.921159 1_554
Ba2 O11 2.921216 1_555
Ba2 O6 2.921274 1_544
Ba2 O4 2.962387 1_555
Ba2 O5 2.962427 1_554
Ba2 O3 2.962617 1_554
Ba2 O2 2.962669 1_545
Ba3 O1 2.920001 1_565
Ba3 O0 2.920190 1_655
Ba3 O7 2.920363 1_555
Ba3 O6 2.920501 1_655
Ba3 O9 2.920539 1_555
Ba3 O9 2.920659 1_655
Ba3 O10 2.921147 1_555
Ba3 O10 2.921181 1_556
Ba3 O2 2.961374 1_655
Ba3 O3 2.961441 1_555
Ba3 O5 2.961576 1_565
Ba3 O4 2.961653 1_655
Fe0 O2 2.094727 1_545
Fe0 O5 2.094780 1_555
Fe0 O11 2.228403 1_555
Fe0 O9 2.228412 1_545
Fe0 O6 2.229174 1_545
Fe0 O1 2.229208 1_555
Fe1 O4 2.094455 1_555
Fe1 O3 2.094561 1_454
Fe1 O8 2.227876 1_555
Fe1 O10 2.227968 1_455
Fe1 O7 2.228898 1_455
Fe1 O0 2.228953 1_554
O0 W1 1.959462 1_555
O1 W0 1.959169 1_555
O2 W0 1.968668 1_465
O3 W1 1.968896 1_555
O4 W1 1.968904 1_555
O5 W0 1.968640 1_556
O6 W0 1.959245 1_466
O7 W1 1.959483 1_555
O8 W0 1.959629 1_455
O9 W1 1.959135 1_555
O10 W0 1.959654 1_565
O11 W1 1.959176 1_555
