# generated using pymatgen
data_La3NdMn4O12
_symmetry_space_group_name_H-M   'P 1'
_cell_length_a   7.84989300
_cell_length_b   5.56553200
_cell_length_c   5.76977631
_cell_angle_alpha   89.93000109
_cell_angle_beta   90.00000000
_cell_angle_gamma   90.00000000
_symmetry_Int_Tables_number   1
_chemical_formula_structural   La3NdMn4O12
_chemical_formula_sum   'La3 Nd1 Mn4 O12'
_cell_volume   252.07459202
_cell_formula_units_Z   1
loop_
 _symmetry_equiv_pos_site_id
 _symmetry_equiv_pos_as_xyz
  1  'x, y, z'
loop_
 _atom_site_type_symbol
 _atom_site_label
 _atom_site_symmetry_multiplicity
 _atom_site_fract_x
 _atom_site_fract_y
 _atom_site_fract_z
 _atom_site_occupancy
  La  La0  1  0.00000000  0.00972900  0.95019000  1
  La  La1  1  0.50000000  0.50900700  0.54752000  1
  La  La2  1  0.50000000  0.98990800  0.04962700  1
  Nd  Nd0  1  0.00000000  0.48826300  0.44319000  1
  Mn  Mn0  1  0.24872300  0.99971100  0.50027400  1
  Mn  Mn1  1  0.75067700  0.50037900  0.99928100  1
  Mn  Mn2  1  0.75127700  0.99971100  0.50027400  1
  Mn  Mn3  1  0.24932300  0.50037900  0.99928100  1
  O  O0  1  0.00000000  0.58267100  0.02280900  1
  O  O1  1  0.00000000  0.90988200  0.51812000  1
  O  O2  1  0.50000000  0.41760400  0.98222300  1
  O  O3  1  0.50000000  0.08101600  0.48333400  1
  O  O4  1  0.20514900  0.22057600  0.19899400  1
  O  O5  1  0.79636700  0.28415500  0.69418600  1
  O  O6  1  0.70737300  0.78366000  0.80469400  1
  O  O7  1  0.29140100  0.71747900  0.30406500  1
  O  O8  1  0.29262700  0.78366000  0.80469400  1
  O  O9  1  0.70859900  0.71747900  0.30406500  1
  O  O10  1  0.79485100  0.22057600  0.19899400  1
  O  O11  1  0.20363300  0.28415500  0.69418600  1
loop_
_geom_bond_atom_site_label_1
_geom_bond_atom_site_label_2
_geom_bond_distance
_geom_bond_site_symmetry_2
La0 O0 2.412950 1_546
La0 O4 2.456690 1_556
La0 O10 2.456690 1_456
La0 O1 2.554795 1_545
La0 O5 2.657854 1_455
La0 O11 2.657854 1_555
La0 O6 2.750815 1_445
La0 O8 2.750815 1_545
La1 O3 2.411062 1_555
La1 O9 2.448813 1_555
La1 O7 2.448813 1_555
La1 O2 2.558598 1_555
La1 O8 2.682129 1_555
La1 O6 2.682129 1_555
La1 O11 2.773434 1_555
La1 O5 2.773434 1_555
La2 O2 2.411448 1_564
La2 O6 2.443085 1_554
La2 O8 2.443085 1_554
La2 O3 2.553856 1_565
La2 O9 2.670201 1_555
La2 O7 2.670201 1_555
La2 O10 2.784004 1_565
La2 O4 2.784004 1_565
Nd0 O1 2.386548 1_555
Nd0 O11 2.436977 1_555
Nd0 O5 2.436977 1_455
Nd0 O0 2.481136 1_555
Nd0 O10 2.608301 1_455
Nd0 O4 2.608301 1_555
Nd0 O9 2.738940 1_455
Nd0 O7 2.738940 1_555
Mn0 O7 1.966091 1_555
Mn0 O11 1.971684 1_565
Mn0 O1 2.018039 1_555
Mn0 O3 2.026068 1_565
Mn0 O4 2.155119 1_565
Mn0 O8 2.155120 1_555
Mn1 O6 1.964035 1_555
Mn1 O10 1.966898 1_556
Mn1 O0 2.014650 1_656
Mn1 O2 2.023417 1_555
Mn1 O9 2.160249 1_556
Mn1 O5 2.163504 1_555
Mn2 O9 1.966091 1_555
Mn2 O5 1.971684 1_565
Mn2 O1 2.018039 1_655
Mn2 O3 2.026068 1_565
Mn2 O10 2.155119 1_565
Mn2 O6 2.155120 1_555
Mn3 O8 1.964035 1_555
Mn3 O4 1.966898 1_556
Mn3 O0 2.014650 1_556
Mn3 O2 2.023417 1_555
Mn3 O7 2.160249 1_556
Mn3 O11 2.163504 1_555
