# generated using pymatgen
data_KCa2Nb3O10
_symmetry_space_group_name_H-M   'P 1'
_cell_length_a   15.09809151
_cell_length_b   15.09809151
_cell_length_c   7.87209800
_cell_angle_alpha   90.00000000
_cell_angle_beta   90.00000000
_cell_angle_gamma   164.96084529
_symmetry_Int_Tables_number   1
_chemical_formula_structural   KCa2Nb3O10
_chemical_formula_sum   'K2 Ca4 Nb6 O20'
_cell_volume   465.62570086
_cell_formula_units_Z   2
loop_
 _symmetry_equiv_pos_site_id
 _symmetry_equiv_pos_as_xyz
  1  'x, y, z'
loop_
 _atom_site_type_symbol
 _atom_site_label
 _atom_site_symmetry_multiplicity
 _atom_site_fract_x
 _atom_site_fract_y
 _atom_site_fract_z
 _atom_site_occupancy
  K  K0  1  0.74311800  0.25688200  0.75011900  1
  K  K1  1  0.25688200  0.74311800  0.25011900  1
  Ca  Ca0  1  0.42820000  0.57180000  0.26053100  1
  Ca  Ca1  1  0.57180000  0.42820000  0.76053100  1
  Ca  Ca2  1  0.42370800  0.57629200  0.75416200  1
  Ca  Ca3  1  0.57629200  0.42370800  0.25416200  1
  Nb  Nb0  1  0.00191300  0.99808700  0.49722500  1
  Nb  Nb1  1  0.99808700  0.00191300  0.99722500  1
  Nb  Nb2  1  0.85826100  0.14173900  0.49778200  1
  Nb  Nb3  1  0.14355300  0.85644700  0.50543400  1
  Nb  Nb4  1  0.85644700  0.14355300  0.00543400  1
  Nb  Nb5  1  0.14173900  0.85826100  0.99778200  1
  O  O0  1  0.79900300  0.20099700  0.45952200  1
  O  O1  1  0.20302800  0.79697200  0.54044500  1
  O  O2  1  0.79697200  0.20302800  0.04044500  1
  O  O3  1  0.20099700  0.79900300  0.95952200  1
  O  O4  1  0.93764200  0.06235800  0.55402800  1
  O  O5  1  0.06545100  0.93454900  0.43009400  1
  O  O6  1  0.93454900  0.06545100  0.93009400  1
  O  O7  1  0.06235800  0.93764200  0.05402800  1
  O  O8  1  0.88175300  0.11824700  0.25027100  1
  O  O9  1  0.11824700  0.88175300  0.75027100  1
  O  O10  1  0.37414400  0.62585600  0.49518900  1
  O  O11  1  0.62791600  0.37208400  0.50617000  1
  O  O12  1  0.37208400  0.62791600  0.00617000  1
  O  O13  1  0.62585600  0.37414400  0.99518900  1
  O  O14  1  0.85875600  0.14124400  0.74984100  1
  O  O15  1  0.14124400  0.85875600  0.24984100  1
  O  O16  1  0.98155200  0.01844800  0.23291800  1
  O  O17  1  0.01844800  0.98155200  0.73291800  1
  O  O18  1  0.49963500  0.50036500  0.46126700  1
  O  O19  1  0.50036500  0.49963500  0.96126700  1
loop_
_geom_bond_atom_site_label_1
_geom_bond_atom_site_label_2
_geom_bond_distance
_geom_bond_site_symmetry_2
K0 O2 2.796888 1_556
K0 O0 2.834093 1_555
K0 O1 2.840527 1_655
K0 O1 2.840527 1_545
K0 O3 2.865518 1_655
K0 O3 2.865518 1_545
K1 O1 2.796888 1_555
K1 O3 2.834093 1_554
K1 O2 2.840527 1_565
K1 O2 2.840527 1_455
K1 O0 2.865518 1_565
K1 O0 2.865518 1_455
Ca0 O8 2.417382 1_565
Ca0 O8 2.417382 1_455
Ca0 O10 2.455822 1_555
Ca0 O16 2.549910 1_565
Ca0 O16 2.549910 1_455
Ca0 O12 2.613722 1_555
Ca0 O18 2.659007 1_555
Ca1 O9 2.417382 1_655
Ca1 O9 2.417382 1_545
Ca1 O13 2.455822 1_555
Ca1 O17 2.549910 1_545
Ca1 O17 2.549910 1_655
Ca1 O11 2.613722 1_555
Ca1 O19 2.659007 1_555
Ca2 O6 2.434595 1_565
Ca2 O6 2.434595 1_455
Ca2 O12 2.514752 1_556
Ca2 O10 2.521452 1_555
Ca2 O4 2.561240 1_455
Ca2 O4 2.561240 1_565
Ca2 O14 2.772330 1_565
Ca2 O14 2.772330 1_455
Ca2 O19 2.815021 1_555
Ca3 O5 2.434595 1_545
Ca3 O5 2.434595 1_655
Ca3 O11 2.514752 1_555
Ca3 O13 2.521452 1_554
Ca3 O7 2.561240 1_545
Ca3 O7 2.561240 1_655
Ca3 O15 2.772330 1_655
Ca3 O15 2.772330 1_545
Ca3 O18 2.815021 1_555
Nb0 O17 1.920294 1_555
Nb0 O5 1.974152 1_555
Nb0 O4 1.975327 1_465
Nb0 O18 1.997149 1_565
Nb0 O18 1.997149 1_455
Nb0 O16 2.168097 1_465
Nb1 O16 1.920294 1_556
Nb1 O6 1.974152 1_555
Nb1 O7 1.975327 1_646
Nb1 O19 1.997149 1_655
Nb1 O19 1.997149 1_545
Nb1 O17 2.168097 1_645
Nb2 O0 1.799363 1_555
Nb2 O14 1.984288 1_555
Nb2 O10 2.032321 1_545
Nb2 O10 2.032321 1_655
Nb2 O8 2.071465 1_555
Nb2 O4 2.417287 1_555
Nb3 O1 1.801679 1_555
Nb3 O15 2.013240 1_555
Nb3 O11 2.030516 1_565
Nb3 O11 2.030516 1_455
Nb3 O9 2.070921 1_555
Nb3 O5 2.412149 1_555
Nb4 O2 1.801679 1_555
Nb4 O14 2.013240 1_554
Nb4 O12 2.030516 1_655
Nb4 O12 2.030516 1_545
Nb4 O8 2.070921 1_555
Nb4 O6 2.412149 1_554
Nb5 O3 1.799363 1_555
Nb5 O15 1.984288 1_556
Nb5 O13 2.032321 1_455
Nb5 O13 2.032321 1_565
Nb5 O9 2.071465 1_555
Nb5 O7 2.417287 1_556
