# generated using pymatgen
data_Nb4Pd
_symmetry_space_group_name_H-M   'P 1'
_cell_length_a   23.41329934
_cell_length_b   23.23928277
_cell_length_c   5.62152460
_cell_angle_alpha   84.84344304
_cell_angle_beta   81.32148230
_cell_angle_gamma   13.83507466
_symmetry_Int_Tables_number   1
_chemical_formula_structural   Nb4Pd
_chemical_formula_sum   'Nb32 Pd8'
_cell_volume   701.99217055
_cell_formula_units_Z   8
loop_
 _symmetry_equiv_pos_site_id
 _symmetry_equiv_pos_as_xyz
  1  'x, y, z'
loop_
 _atom_site_type_symbol
 _atom_site_label
 _atom_site_symmetry_multiplicity
 _atom_site_fract_x
 _atom_site_fract_y
 _atom_site_fract_z
 _atom_site_occupancy
  Nb  Nb0_0  1  0.20256157  0.20256157  0.29743843  1
  Nb  Nb0_1  1  0.20256157  0.20256157  0.79743843  1
  Nb  Nb0_2  1  0.20256157  0.70256157  0.29743843  1
  Nb  Nb0_3  1  0.20256157  0.70256157  0.79743843  1
  Nb  Nb0_4  1  0.70256157  0.20256157  0.29743843  1
  Nb  Nb0_5  1  0.70256157  0.20256157  0.79743843  1
  Nb  Nb0_6  1  0.70256157  0.70256157  0.29743843  1
  Nb  Nb0_7  1  0.70256157  0.70256157  0.79743843  1
  Nb  Nb1_0  1  0.40126737  0.40126737  0.09873263  1
  Nb  Nb1_1  1  0.40126737  0.40126737  0.59873263  1
  Nb  Nb1_2  1  0.40126737  0.90126737  0.09873263  1
  Nb  Nb1_3  1  0.40126737  0.90126737  0.59873263  1
  Nb  Nb1_4  1  0.90126737  0.40126737  0.09873263  1
  Nb  Nb1_5  1  0.90126737  0.40126737  0.59873263  1
  Nb  Nb1_6  1  0.90126737  0.90126737  0.09873263  1
  Nb  Nb1_7  1  0.90126737  0.90126737  0.59873263  1
  Nb  Nb2_0  1  0.09873263  0.09873263  0.40126737  1
  Nb  Nb2_1  1  0.09873263  0.09873263  0.90126737  1
  Nb  Nb2_2  1  0.09873263  0.59873263  0.40126737  1
  Nb  Nb2_3  1  0.09873263  0.59873263  0.90126737  1
  Nb  Nb2_4  1  0.59873263  0.09873263  0.40126737  1
  Nb  Nb2_5  1  0.59873263  0.09873263  0.90126737  1
  Nb  Nb2_6  1  0.59873263  0.59873263  0.40126737  1
  Nb  Nb2_7  1  0.59873263  0.59873263  0.90126737  1
  Nb  Nb3_0  1  0.29743843  0.29743843  0.20256157  1
  Nb  Nb3_1  1  0.29743843  0.29743843  0.70256157  1
  Nb  Nb3_2  1  0.29743843  0.79743843  0.20256157  1
  Nb  Nb3_3  1  0.29743843  0.79743843  0.70256157  1
  Nb  Nb3_4  1  0.79743843  0.29743843  0.20256157  1
  Nb  Nb3_5  1  0.79743843  0.29743843  0.70256157  1
  Nb  Nb3_6  1  0.79743843  0.79743843  0.20256157  1
  Nb  Nb3_7  1  0.79743843  0.79743843  0.70256157  1
  Pd  Pd0_0  1  0.00000000  0.00000000  0.00000000  1
  Pd  Pd0_1  1  0.00000000  0.00000000  0.50000000  1
  Pd  Pd0_2  1  0.00000000  0.50000000  0.00000000  1
  Pd  Pd0_3  1  0.00000000  0.50000000  0.50000000  1
  Pd  Pd0_4  1  0.50000000  0.00000000  0.00000000  1
  Pd  Pd0_5  1  0.50000000  0.00000000  0.50000000  1
  Pd  Pd0_6  1  0.50000000  0.50000000  0.00000000  1
  Pd  Pd0_7  1  0.50000000  0.50000000  0.50000000  1
loop_
_geom_bond_atom_site_label_1
_geom_bond_atom_site_label_2
_geom_bond_distance
_geom_bond_site_symmetry_2
Nb0_0 Pd0_3 2.773294 1_555
Nb0_0 Pd0_4 2.773294 1_555
Nb0_0 Nb0_1 2.810762 1_554
Nb0_0 Nb0_6 2.810762 1_455
Nb0_0 Nb0_1 2.810762 1_555
Nb0_0 Nb0_6 2.810762 1_545
Nb0_0 Nb1_5 2.914733 1_455
Nb0_0 Nb1_2 2.914733 1_545
Nb0_1 Pd0_2 2.773294 1_556
Nb0_1 Pd0_5 2.773294 1_555
Nb0_1 Nb0_7 2.810762 1_455
Nb0_1 Nb0_7 2.810762 1_545
Nb0_1 Nb1_3 2.914733 1_545
Nb0_1 Nb1_4 2.914733 1_456
Nb0_2 Pd0_1 2.773294 1_565
Nb0_2 Pd0_6 2.773294 1_555
Nb0_2 Nb0_4 2.810762 1_465
Nb0_2 Nb0_3 2.810762 1_555
Nb0_2 Nb0_4 2.810762 1_555
Nb0_2 Nb0_3 2.810762 1_554
Nb0_2 Nb1_7 2.914733 1_455
Nb0_2 Nb1_0 2.914733 1_555
Nb0_3 Pd0_0 2.773294 1_566
Nb0_3 Pd0_7 2.773294 1_555
Nb0_3 Nb0_5 2.810762 1_555
Nb0_3 Nb0_5 2.810762 1_465
Nb0_3 Nb1_6 2.914733 1_456
Nb0_3 Nb1_1 2.914733 1_555
Nb0_4 Pd0_0 2.773294 1_655
Nb0_4 Pd0_7 2.773294 1_555
Nb0_4 Nb0_5 2.810762 1_555
Nb0_4 Nb0_5 2.810762 1_554
Nb0_4 Nb1_6 2.914733 1_545
Nb0_4 Nb1_1 2.914733 1_555
Nb0_5 Pd0_1 2.773294 1_655
Nb0_5 Pd0_6 2.773294 1_556
Nb0_5 Nb1_7 2.914733 1_545
Nb0_5 Nb1_0 2.914733 1_556
Nb0_6 Pd0_2 2.773294 1_655
Nb0_6 Pd0_5 2.773294 1_565
Nb0_6 Nb0_7 2.810762 1_554
Nb0_6 Nb0_7 2.810762 1_555
Nb0_6 Nb1_3 2.914733 1_555
Nb0_6 Nb1_4 2.914733 1_555
Nb0_7 Pd0_3 2.773294 1_655
Nb0_7 Pd0_4 2.773294 1_566
Nb0_7 Nb1_5 2.914733 1_555
Nb0_7 Nb1_2 2.914733 1_556
Nb1_0 Nb1_1 2.810762 1_554
Nb1_0 Nb1_6 2.810762 1_455
Nb1_0 Nb1_6 2.810762 1_545
Nb1_0 Nb1_1 2.810762 1_555
Nb1_0 Nb2_5 2.961059 1_554
Nb1_0 Nb2_2 2.961059 1_555
Nb1_1 Nb1_7 2.810762 1_455
Nb1_1 Nb1_7 2.810762 1_545
Nb1_1 Nb2_3 2.961059 1_555
Nb1_1 Nb2_4 2.961059 1_555
Nb1_2 Nb1_3 2.810762 1_554
Nb1_2 Nb1_4 2.810762 1_555
Nb1_2 Nb1_4 2.810762 1_465
Nb1_2 Nb1_3 2.810762 1_555
Nb1_2 Nb2_7 2.961059 1_554
Nb1_2 Nb2_0 2.961059 1_565
Nb1_3 Nb1_5 2.810762 1_465
Nb1_3 Nb1_5 2.810762 1_555
Nb1_3 Nb2_6 2.961059 1_555
Nb1_3 Nb2_1 2.961059 1_565
Nb1_4 Nb1_5 2.810762 1_554
Nb1_4 Nb1_5 2.810762 1_555
Nb1_4 Nb2_6 2.961059 1_555
Nb1_4 Nb2_1 2.961059 1_654
Nb1_5 Nb2_7 2.961059 1_555
Nb1_5 Nb2_0 2.961059 1_655
Nb1_6 Nb1_7 2.810762 1_554
Nb1_6 Nb1_7 2.810762 1_555
Nb1_6 Nb2_3 2.961059 1_654
Nb1_6 Nb2_4 2.961059 1_565
Nb1_7 Nb2_5 2.961059 1_565
Nb1_7 Nb2_2 2.961059 1_655
Nb2_0 Nb2_6 2.810762 1_455
Nb2_0 Nb2_6 2.810762 1_545
Nb2_0 Nb2_1 2.810762 1_554
Nb2_0 Nb2_1 2.810762 1_555
Nb2_0 Nb3_5 2.914733 1_455
Nb2_0 Nb3_2 2.914733 1_545
Nb2_1 Nb2_7 2.810762 1_455
Nb2_1 Nb2_7 2.810762 1_545
Nb2_1 Nb3_4 2.914733 1_456
Nb2_1 Nb3_3 2.914733 1_545
Nb2_2 Nb2_3 2.810762 1_555
Nb2_2 Nb2_4 2.810762 1_555
Nb2_2 Nb2_3 2.810762 1_554
Nb2_2 Nb2_4 2.810762 1_465
Nb2_2 Nb3_7 2.914733 1_455
Nb2_2 Nb3_0 2.914733 1_555
Nb2_3 Nb2_5 2.810762 1_465
Nb2_3 Nb2_5 2.810762 1_555
Nb2_3 Nb3_6 2.914733 1_456
Nb2_3 Nb3_1 2.914733 1_555
Nb2_4 Nb2_5 2.810762 1_554
Nb2_4 Nb2_5 2.810762 1_555
Nb2_4 Nb3_6 2.914733 1_545
Nb2_4 Nb3_1 2.914733 1_555
Nb2_5 Nb3_7 2.914733 1_545
Nb2_5 Nb3_0 2.914733 1_556
Nb2_6 Nb2_7 2.810762 1_555
Nb2_6 Nb2_7 2.810762 1_554
Nb2_6 Nb3_4 2.914733 1_555
Nb2_6 Nb3_3 2.914733 1_555
Nb2_7 Nb3_5 2.914733 1_555
Nb2_7 Nb3_2 2.914733 1_556
Nb3_0 Pd0_3 2.773294 1_555
Nb3_0 Pd0_4 2.773294 1_555
Nb3_0 Nb3_1 2.810762 1_555
Nb3_0 Nb3_6 2.810762 1_455
Nb3_0 Nb3_6 2.810762 1_545
Nb3_0 Nb3_1 2.810762 1_554
Nb3_1 Pd0_5 2.773294 1_555
Nb3_1 Pd0_2 2.773294 1_556
Nb3_1 Nb3_7 2.810762 1_545
Nb3_1 Nb3_7 2.810762 1_455
Nb3_2 Pd0_1 2.773294 1_565
Nb3_2 Pd0_6 2.773294 1_555
Nb3_2 Nb3_3 2.810762 1_554
Nb3_2 Nb3_4 2.810762 1_465
Nb3_2 Nb3_4 2.810762 1_555
Nb3_2 Nb3_3 2.810762 1_555
Nb3_3 Pd0_7 2.773294 1_555
Nb3_3 Pd0_0 2.773294 1_566
Nb3_3 Nb3_5 2.810762 1_465
Nb3_3 Nb3_5 2.810762 1_555
Nb3_4 Pd0_7 2.773294 1_555
Nb3_4 Pd0_0 2.773294 1_655
Nb3_4 Nb3_5 2.810762 1_555
Nb3_4 Nb3_5 2.810762 1_554
Nb3_5 Pd0_1 2.773294 1_655
Nb3_5 Pd0_6 2.773294 1_556
Nb3_6 Pd0_2 2.773294 1_655
Nb3_6 Pd0_5 2.773294 1_565
Nb3_6 Nb3_7 2.810762 1_555
Nb3_6 Nb3_7 2.810762 1_554
Nb3_7 Pd0_3 2.773294 1_655
Nb3_7 Pd0_4 2.773294 1_566
Pd0_0 Pd0_6 2.810762 1_455
Pd0_0 Pd0_6 2.810762 1_545
Pd0_0 Pd0_1 2.810762 1_554
Pd0_0 Pd0_1 2.810762 1_555
Pd0_1 Pd0_7 2.810762 1_455
Pd0_1 Pd0_7 2.810762 1_545
Pd0_2 Pd0_4 2.810762 1_465
Pd0_2 Pd0_3 2.810762 1_555
Pd0_2 Pd0_4 2.810762 1_555
Pd0_2 Pd0_3 2.810762 1_554
Pd0_3 Pd0_5 2.810762 1_465
Pd0_3 Pd0_5 2.810762 1_555
Pd0_4 Pd0_5 2.810762 1_555
Pd0_4 Pd0_5 2.810762 1_554
Pd0_6 Pd0_7 2.810762 1_554
Pd0_6 Pd0_7 2.810762 1_555
