# generated using pymatgen
data_Mn23(BC2)2
_symmetry_space_group_name_H-M   'P 1'
_cell_length_a   7.38081243
_cell_length_b   7.38081243
_cell_length_c   7.38081243
_cell_angle_alpha   90.24073139
_cell_angle_beta   59.86362734
_cell_angle_gamma   120.14179445
_symmetry_Int_Tables_number   1
_chemical_formula_structural   Mn23(BC2)2
_chemical_formula_sum   'Mn23 B2 C4'
_cell_volume   283.71310551
_cell_formula_units_Z   1
loop_
 _symmetry_equiv_pos_site_id
 _symmetry_equiv_pos_as_xyz
  1  'x, y, z'
loop_
 _atom_site_type_symbol
 _atom_site_label
 _atom_site_symmetry_multiplicity
 _atom_site_fract_x
 _atom_site_fract_y
 _atom_site_fract_z
 _atom_site_occupancy
  Mn  Mn0  1  0.00252100  0.00646000  0.65636700  1
  Mn  Mn1  1  0.33717300  0.34111200  0.65636700  1
  Mn  Mn2  1  0.34781600  0.00000000  0.65218400  1
  Mn  Mn3  1  0.00188900  0.33694400  0.99877400  1
  Mn  Mn4  1  0.66428300  0.99933800  0.99877400  1
  Mn  Mn5  1  0.66637800  0.00000000  0.33362200  1
  Mn  Mn6  1  0.00252100  0.65888800  0.00393900  1
  Mn  Mn7  1  0.66428300  0.66305600  0.33505500  1
  Mn  Mn8  1  0.65367600  0.65930500  0.00562900  1
  Mn  Mn9  1  0.00188900  0.00066200  0.33505500  1
  Mn  Mn10  1  0.33717300  0.99354000  0.00393900  1
  Mn  Mn11  1  0.33506500  0.34069500  0.00562900  1
  Mn  Mn12  1  0.76146500  0.37934900  0.85918600  1
  Mn  Mn13  1  0.23495200  0.38281500  0.38223300  1
  Mn  Mn14  1  0.23794700  0.85526300  0.38011000  1
  Mn  Mn15  1  0.76462700  0.38194300  0.38011000  1
  Mn  Mn16  1  0.23495200  0.61718500  0.14786300  1
  Mn  Mn17  1  0.76146500  0.62065100  0.61788400  1
  Mn  Mn18  1  0.76462700  0.14473700  0.61731600  1
  Mn  Mn19  1  0.23794700  0.61805700  0.61731600  1
  Mn  Mn20  1  0.01427000  0.00000000  0.98573000  1
  Mn  Mn21  1  0.49642500  0.25001900  0.25355700  1
  Mn  Mn22  1  0.49642500  0.74998100  0.75359400  1
  B  B0  1  0.54304800  0.27274500  0.72969600  1
  B  B1  1  0.99755900  0.72725500  0.72969600  1
  C  C0  1  0.99767200  0.27730700  0.72502100  1
  C  C1  1  0.44657500  0.72443500  0.27786000  1
  C  C2  1  0.99770600  0.27556500  0.27786000  1
  C  C3  1  0.99767200  0.72269300  0.27963400  1
loop_
_geom_bond_atom_site_label_1
_geom_bond_atom_site_label_2
_geom_bond_distance
_geom_bond_site_symmetry_2
Mn0 Mn20 2.477134 1_555
Mn1 Mn20 2.477134 1_555
Mn2 Mn20 2.456764 1_555
Mn10 Mn20 2.477134 1_564
Mn11 Mn20 2.513488 1_554
Mn12 Mn21 2.375090 1_556
Mn13 Mn21 2.374560 1_555
Mn14 Mn21 2.377491 1_565
Mn15 Mn21 2.377485 1_555
Mn16 Mn22 2.374560 1_554
Mn17 Mn22 2.375084 1_555
Mn18 Mn22 2.377491 1_545
Mn19 Mn22 2.377491 1_555
Mn20 Mn6 2.477134 1_546
Mn20 Mn8 2.513492 1_446
Mn20 Mn4 2.533725 1_445
Mn20 Mn9 2.533728 1_556
Mn20 Mn7 2.533728 1_446
Mn20 Mn3 2.533728 1_555
Mn20 Mn5 2.562431 1_456
B0 Mn2 2.088318 1_555
B0 Mn11 2.093118 1_556
B0 Mn17 2.097204 1_555
B0 Mn12 2.097210 1_555
B0 Mn15 2.106740 1_555
B0 Mn18 2.106746 1_555
B0 Mn1 2.110602 1_555
B0 Mn10 2.110611 1_546
B0 Mn20 2.755268 1_555
B1 Mn2 2.088321 1_665
B1 Mn8 2.093118 1_556
B1 Mn12 2.097204 1_555
B1 Mn17 2.097204 1_555
B1 Mn19 2.106740 1_655
B1 Mn14 2.106740 1_655
B1 Mn6 2.110610 1_656
B1 Mn0 2.110610 1_665
B1 Mn20 2.755274 1_665
C0 Mn12 2.041119 1_555
C0 Mn18 2.055282 1_555
C0 Mn19 2.055282 1_655
C0 Mn13 2.066987 1_655
C0 Mn0 2.073515 1_655
C0 Mn1 2.073515 1_655
C0 Mn4 2.078248 1_545
C0 Mn3 2.078252 1_655
C1 Mn19 2.047766 1_555
C1 Mn14 2.047766 1_555
C1 Mn13 2.060011 1_555
C1 Mn16 2.060011 1_555
C1 Mn8 2.061721 1_555
C1 Mn5 2.070675 1_565
C1 Mn4 2.092660 1_554
C1 Mn7 2.092665 1_555
C2 Mn18 2.047766 1_555
C2 Mn15 2.047772 1_555
C2 Mn13 2.060005 1_655
C2 Mn16 2.060011 1_655
C2 Mn11 2.061712 1_655
C2 Mn5 2.070679 1_555
C2 Mn9 2.092660 1_655
C2 Mn3 2.092662 1_654
C3 Mn17 2.041125 1_555
C3 Mn15 2.055282 1_555
C3 Mn14 2.055288 1_655
C3 Mn16 2.066987 1_655
C3 Mn6 2.073507 1_655
C3 Mn10 2.073512 1_655
C3 Mn7 2.078242 1_555
C3 Mn9 2.078246 1_665
