# generated using pymatgen
data_NdMo5O8
_symmetry_space_group_name_H-M   'P 1'
_cell_length_a   9.20630700
_cell_length_b   8.30404000
_cell_length_c   10.45456963
_cell_angle_alpha   68.81908697
_cell_angle_beta   90.00000000
_cell_angle_gamma   90.00000000
_symmetry_Int_Tables_number   1
_chemical_formula_structural   NdMo5O8
_chemical_formula_sum   'Nd4 Mo20 O32'
_cell_volume   745.25329554
_cell_formula_units_Z   4
loop_
 _symmetry_equiv_pos_site_id
 _symmetry_equiv_pos_as_xyz
  1  'x, y, z'
loop_
 _atom_site_type_symbol
 _atom_site_label
 _atom_site_symmetry_multiplicity
 _atom_site_fract_x
 _atom_site_fract_y
 _atom_site_fract_z
 _atom_site_occupancy
  Nd  Nd0  1  0.02058800  0.72478300  0.01639400  1
  Nd  Nd1  1  0.52058800  0.27521700  0.48360600  1
  Nd  Nd2  1  0.97941200  0.27521700  0.98360600  1
  Nd  Nd3  1  0.47941200  0.72478300  0.51639400  1
  Mo  Mo0  1  0.37712900  0.99328800  0.07527300  1
  Mo  Mo1  1  0.87712900  0.00671200  0.42472700  1
  Mo  Mo2  1  0.62287100  0.00671200  0.92472700  1
  Mo  Mo3  1  0.12287100  0.99328800  0.57527300  1
  Mo  Mo4  1  0.35507800  0.20939700  0.78382500  1
  Mo  Mo5  1  0.85507800  0.79060300  0.71617500  1
  Mo  Mo6  1  0.64492200  0.79060300  0.21617500  1
  Mo  Mo7  1  0.14492200  0.20939700  0.28382500  1
  Mo  Mo8  1  0.37349400  0.80782800  0.86634000  1
  Mo  Mo9  1  0.87349400  0.19217200  0.63366000  1
  Mo  Mo10  1  0.62650600  0.19217200  0.13366000  1
  Mo  Mo11  1  0.12650600  0.80782800  0.36634000  1
  Mo  Mo12  1  0.37725800  0.60098500  0.18517500  1
  Mo  Mo13  1  0.87725800  0.39901500  0.31482500  1
  Mo  Mo14  1  0.62274200  0.39901500  0.81482500  1
  Mo  Mo15  1  0.12274200  0.60098500  0.68517500  1
  Mo  Mo16  1  0.36220900  0.38509800  0.98218400  1
  Mo  Mo17  1  0.86220900  0.61490200  0.51781600  1
  Mo  Mo18  1  0.63779100  0.61490200  0.01781600  1
  Mo  Mo19  1  0.13779100  0.38509800  0.48218400  1
  O  O0  1  0.49954200  0.59451300  0.85654200  1
  O  O1  1  0.99954200  0.40548700  0.64345800  1
  O  O2  1  0.50045800  0.40548700  0.14345800  1
  O  O3  1  0.00045800  0.59451300  0.35654200  1
  O  O4  1  0.29139100  0.37889300  0.33447500  1
  O  O5  1  0.79139100  0.62110700  0.16552500  1
  O  O6  1  0.70860900  0.62110700  0.66552500  1
  O  O7  1  0.20860900  0.37889300  0.83447500  1
  O  O8  1  0.27280400  0.79387200  0.68883700  1
  O  O9  1  0.77280400  0.20612800  0.81116300  1
  O  O10  1  0.72719600  0.20612800  0.31116300  1
  O  O11  1  0.22719600  0.79387200  0.18883700  1
  O  O12  1  0.26663400  0.18507200  0.60482900  1
  O  O13  1  0.76663400  0.81492800  0.89517100  1
  O  O14  1  0.73336600  0.81492800  0.39517100  1
  O  O15  1  0.23336600  0.18507200  0.10482900  1
  O  O16  1  0.24659700  0.60082900  0.50991200  1
  O  O17  1  0.74659700  0.39917100  0.99008800  1
  O  O18  1  0.75340300  0.39917100  0.49008800  1
  O  O19  1  0.25340300  0.60082900  0.00991200  1
  O  O20  1  0.50263300  0.03177400  0.74701400  1
  O  O21  1  0.00263300  0.96822600  0.75298600  1
  O  O22  1  0.49736700  0.96822600  0.25298600  1
  O  O23  1  0.99736700  0.03177400  0.24701400  1
  O  O24  1  0.98850800  0.59234900  0.85330900  1
  O  O25  1  0.48850800  0.40765100  0.64669100  1
  O  O26  1  0.01149200  0.40765100  0.14669100  1
  O  O27  1  0.51149200  0.59234900  0.35330900  1
  O  O28  1  0.23855200  0.98918300  0.91613900  1
  O  O29  1  0.73855200  0.01081700  0.58386100  1
  O  O30  1  0.76144800  0.01081700  0.08386100  1
  O  O31  1  0.26144800  0.98918300  0.41613900  1
loop_
_geom_bond_atom_site_label_1
_geom_bond_atom_site_label_2
_geom_bond_distance
_geom_bond_site_symmetry_2
Nd0 O24 2.357661 1_454
Nd0 O19 2.389250 1_555
Nd0 O26 2.491084 1_555
Nd0 O5 2.579607 1_455
Nd0 O13 2.635733 1_454
Nd0 O21 2.770318 1_554
Nd0 O11 2.818633 1_555
Nd0 O28 2.877993 1_554
Nd1 O25 2.357661 1_555
Nd1 O18 2.389250 1_555
Nd1 O27 2.491084 1_555
Nd1 O4 2.579607 1_555
Nd1 O12 2.635733 1_555
Nd1 O20 2.770318 1_555
Nd1 O10 2.818633 1_555
Nd1 O29 2.877993 1_555
Nd2 O26 2.357661 1_656
Nd2 O17 2.389250 1_555
Nd2 O24 2.491084 1_555
Nd2 O7 2.579607 1_655
Nd2 O15 2.635733 1_656
Nd2 O23 2.770318 1_556
Nd2 O9 2.818633 1_555
Nd2 O30 2.877993 1_556
Nd3 O27 2.357661 1_555
Nd3 O16 2.389250 1_555
Nd3 O25 2.491084 1_555
Nd3 O6 2.579607 1_555
Nd3 O14 2.635733 1_555
Nd3 O22 2.770318 1_555
Nd3 O8 2.818633 1_555
Nd3 O31 2.877993 1_555
Mo0 O28 2.106558 1_554
Mo0 O22 2.107386 1_555
Mo0 O11 2.153224 1_555
Mo0 O15 2.176953 1_565
Mo1 O29 2.106558 1_555
Mo1 O23 2.107386 1_555
Mo1 O10 2.153224 1_555
Mo1 O14 2.176953 1_545
Mo2 O30 2.106558 1_556
Mo2 O20 2.107386 1_555
Mo2 O9 2.153224 1_555
Mo2 O13 2.176953 1_545
Mo3 O31 2.106558 1_555
Mo3 O21 2.107386 1_555
Mo3 O8 2.153224 1_555
Mo3 O12 2.176953 1_565
Mo4 O12 2.116319 1_555
Mo4 O25 2.137551 1_555
Mo4 O20 2.139915 1_555
Mo4 O28 2.140189 1_545
Mo4 O7 2.149028 1_555
Mo5 O13 2.116319 1_555
Mo5 O24 2.137551 1_555
Mo5 O21 2.139915 1_655
Mo5 O29 2.140189 1_565
Mo5 O6 2.149028 1_555
Mo6 O14 2.116319 1_555
Mo6 O27 2.137551 1_555
Mo6 O22 2.139915 1_555
Mo6 O30 2.140189 1_565
Mo6 O5 2.149028 1_555
Mo7 O15 2.116319 1_555
Mo7 O26 2.137551 1_555
Mo7 O23 2.139915 1_455
Mo7 O31 2.140189 1_545
Mo7 O4 2.149028 1_555
Mo8 O8 2.114669 1_555
Mo8 O19 2.136718 1_556
Mo8 O0 2.150814 1_555
Mo8 O28 2.156144 1_555
Mo8 O20 2.179818 1_565
Mo9 O9 2.114669 1_555
Mo9 O18 2.136718 1_555
Mo9 O1 2.150814 1_555
Mo9 O29 2.156144 1_555
Mo9 O21 2.179818 1_645
Mo10 O10 2.114669 1_555
Mo10 O17 2.136718 1_554
Mo10 O2 2.150814 1_555
Mo10 O30 2.156144 1_555
Mo10 O22 2.179818 1_545
Mo11 O11 2.114669 1_555
Mo11 O16 2.136718 1_555
Mo11 O3 2.150814 1_555
Mo11 O31 2.156144 1_555
Mo11 O23 2.179818 1_465
Mo12 O4 2.093402 1_555
Mo12 O11 2.126016 1_555
Mo12 O27 2.128615 1_555
Mo12 O2 2.150303 1_555
Mo12 O19 2.158518 1_555
Mo13 O5 2.093402 1_555
Mo13 O10 2.126016 1_555
Mo13 O26 2.128615 1_655
Mo13 O3 2.150303 1_655
Mo13 O18 2.158518 1_555
Mo14 O6 2.093402 1_555
Mo14 O9 2.126016 1_555
Mo14 O25 2.128615 1_555
Mo14 O0 2.150303 1_555
Mo14 O17 2.158518 1_555
Mo15 O7 2.093402 1_555
Mo15 O8 2.126016 1_555
Mo15 O24 2.128615 1_455
Mo15 O1 2.150303 1_455
Mo15 O16 2.158518 1_555
Mo16 O15 2.066641 1_556
Mo16 O7 2.108189 1_555
Mo16 O19 2.161472 1_556
Mo16 O0 2.167336 1_555
Mo16 O2 2.167405 1_556
Mo17 O14 2.066641 1_555
Mo17 O6 2.108189 1_555
Mo17 O18 2.161472 1_555
Mo17 O1 2.167336 1_555
Mo17 O3 2.167405 1_655
Mo18 O13 2.066641 1_554
Mo18 O5 2.108189 1_555
Mo18 O17 2.161472 1_554
Mo18 O2 2.167336 1_555
Mo18 O0 2.167405 1_554
Mo19 O12 2.066641 1_555
Mo19 O4 2.108189 1_555
Mo19 O16 2.161472 1_555
Mo19 O3 2.167336 1_555
Mo19 O1 2.167405 1_455
