# generated using pymatgen
data_YCu3(WO3)4
_symmetry_space_group_name_H-M   'P 1'
_cell_length_a   6.65939400
_cell_length_b   6.72254506
_cell_length_c   6.76478142
_cell_angle_alpha   109.56791455
_cell_angle_beta   109.24261542
_cell_angle_gamma   108.90914005
_symmetry_Int_Tables_number   1
_chemical_formula_structural   YCu3(WO3)4
_chemical_formula_sum   'Y1 Cu3 W4 O12'
_cell_volume   235.10082701
_cell_formula_units_Z   1
loop_
 _symmetry_equiv_pos_site_id
 _symmetry_equiv_pos_as_xyz
  1  'x, y, z'
loop_
 _atom_site_type_symbol
 _atom_site_label
 _atom_site_symmetry_multiplicity
 _atom_site_fract_x
 _atom_site_fract_y
 _atom_site_fract_z
 _atom_site_occupancy
  Y  Y0  1  0.00000000  0.00000000  0.00000000  1
  Cu  Cu0  1  0.00000000  0.50000000  0.50000000  1
  Cu  Cu1  1  0.50000000  0.00000000  0.50000000  1
  Cu  Cu2  1  0.50000000  0.50000000  0.00000000  1
  W  W0  1  0.50000000  0.00000000  0.00000000  1
  W  W1  1  0.50000000  0.50000000  0.50000000  1
  W  W2  1  0.00000000  0.00000000  0.50000000  1
  W  W3  1  0.00000000  0.50000000  0.00000000  1
  O  O0  1  0.70547600  0.88128800  0.17518300  1
  O  O1  1  0.29452400  0.11871200  0.82481700  1
  O  O2  1  0.29201000  0.46301500  0.16658400  1
  O  O3  1  0.12140400  0.83092200  0.28727900  1
  O  O4  1  0.19194300  0.72465500  0.89501300  1
  O  O5  1  0.83574300  0.70551400  0.54502000  1
  O  O6  1  0.53380100  0.82791700  0.71031300  1
  O  O7  1  0.80805700  0.27534500  0.10498700  1
  O  O8  1  0.70799000  0.53698500  0.83341600  1
  O  O9  1  0.87859600  0.16907800  0.71272100  1
  O  O10  1  0.16425700  0.29448600  0.45498000  1
  O  O11  1  0.46619900  0.17208300  0.28968700  1
loop_
_geom_bond_atom_site_label_1
_geom_bond_atom_site_label_2
_geom_bond_distance
_geom_bond_site_symmetry_2
Cu0 O5 2.028607 1_455
Cu0 O10 2.028607 1_555
Cu0 O4 2.202135 1_555
Cu0 O7 2.202135 1_455
Cu1 O3 2.091615 1_545
Cu1 O9 2.091615 1_555
Cu1 O6 2.115002 1_545
Cu1 O11 2.115002 1_555
Cu2 O8 2.059975 1_554
Cu2 O2 2.059975 1_555
Cu2 O0 2.114248 1_555
Cu2 O1 2.114248 1_554
O0 W0 2.045989 1_565
O0 W2 2.069340 1_665
O0 Y0 2.653159 1_665
O1 W0 2.045989 1_556
O1 W2 2.069340 1_555
O1 Y0 2.653159 1_556
O2 W3 2.042024 1_555
O2 W1 2.099876 1_555
O2 Y0 2.650064 1_555
O3 W3 2.069316 1_555
O3 W2 2.069577 1_565
O3 Y0 2.600367 1_565
O4 W0 1.958849 1_566
O4 W3 2.117732 1_556
O4 Y0 2.610711 1_566
O5 W1 2.065853 1_555
O5 W2 2.104368 1_665
O5 Y0 2.623860 1_666
O6 W0 2.042109 1_566
O6 W1 2.073838 1_555
O6 Y0 2.638293 1_666
O7 W0 1.958849 1_555
O7 W3 2.117732 1_655
O7 Y0 2.610711 1_655
O8 W3 2.042024 1_656
O8 W1 2.099876 1_555
O8 Y0 2.650064 1_666
O9 W3 2.069316 1_656
O9 W2 2.069577 1_655
O9 Y0 2.600367 1_656
O10 W1 2.065853 1_555
O10 W2 2.104368 1_555
O10 Y0 2.623860 1_555
O11 W0 2.042109 1_555
O11 W1 2.073838 1_555
O11 Y0 2.638293 1_555
