# generated using pymatgen
data_Li2MnFe(BO3)2
_symmetry_space_group_name_H-M   'P 1'
_cell_length_a   8.22169548
_cell_length_b   8.22169548
_cell_length_c   6.33936900
_cell_angle_alpha   90.00000000
_cell_angle_beta   90.00000000
_cell_angle_gamma   119.99999583
_symmetry_Int_Tables_number   1
_chemical_formula_structural   Li2MnFe(BO3)2
_chemical_formula_sum   'Li6 Mn3 Fe3 B6 O18'
_cell_volume   371.10726473
_cell_formula_units_Z   3
loop_
 _symmetry_equiv_pos_site_id
 _symmetry_equiv_pos_as_xyz
  1  'x, y, z'
loop_
 _atom_site_type_symbol
 _atom_site_label
 _atom_site_symmetry_multiplicity
 _atom_site_fract_x
 _atom_site_fract_y
 _atom_site_fract_z
 _atom_site_occupancy
  Li  Li0  1  0.28220900  0.98181300  0.25292000  1
  Li  Li1  1  0.28220900  0.98181300  0.74708000  1
  Li  Li2  1  0.01818700  0.30039600  0.25292000  1
  Li  Li3  1  0.01818700  0.30039600  0.74708000  1
  Li  Li4  1  0.69960400  0.71779100  0.74708000  1
  Li  Li5  1  0.69960400  0.71779100  0.25292000  1
  Mn  Mn0  1  0.37077800  0.35811500  0.00000000  1
  Mn  Mn1  1  0.64188500  0.01266400  0.00000000  1
  Mn  Mn2  1  0.98733600  0.62922200  0.00000000  1
  Fe  Fe0  1  0.37196700  0.36212300  0.50000000  1
  Fe  Fe1  1  0.63787700  0.00984400  0.50000000  1
  Fe  Fe2  1  0.99015600  0.62803300  0.50000000  1
  B  B0  1  0.00000000  0.00000000  0.00000000  1
  B  B1  1  0.00000000  0.00000000  0.50000000  1
  B  B2  1  0.33333300  0.66666700  0.25595500  1
  B  B3  1  0.33333300  0.66666700  0.74404500  1
  B  B4  1  0.66666700  0.33333300  0.25360100  1
  B  B5  1  0.66666700  0.33333300  0.74639900  1
  O  O0  1  0.10922200  0.91331900  0.50000000  1
  O  O1  1  0.11849800  0.92408400  0.00000000  1
  O  O2  1  0.13864100  0.57977700  0.25421000  1
  O  O3  1  0.13864100  0.57977700  0.74579000  1
  O  O4  1  0.07591600  0.19441400  0.00000000  1
  O  O5  1  0.08668100  0.19590300  0.50000000  1
  O  O6  1  0.44113700  0.86135900  0.25421000  1
  O  O7  1  0.44113700  0.86135900  0.74579000  1
  O  O8  1  0.42022300  0.55886300  0.25421000  1
  O  O9  1  0.42022300  0.55886300  0.74579000  1
  O  O10  1  0.47185600  0.25053000  0.25256600  1
  O  O11  1  0.47185600  0.25053000  0.74743400  1
  O  O12  1  0.80558600  0.88150200  0.00000000  1
  O  O13  1  0.80409700  0.89077800  0.50000000  1
  O  O14  1  0.77867400  0.52814400  0.25256600  1
  O  O15  1  0.77867400  0.52814400  0.74743400  1
  O  O16  1  0.74947000  0.22132600  0.74743400  1
  O  O17  1  0.74947000  0.22132600  0.25256600  1
loop_
_geom_bond_atom_site_label_1
_geom_bond_atom_site_label_2
_geom_bond_distance
_geom_bond_site_symmetry_2
Li0 O10 1.966576 1_565
Li0 O1 1.992195 1_555
Li0 O6 1.995549 1_555
Li0 O0 1.998095 1_555
Li1 O11 1.966576 1_565
Li1 O1 1.992195 1_556
Li1 O7 1.995549 1_555
Li1 O0 1.998095 1_555
Li2 O17 1.966576 1_455
Li2 O4 1.992195 1_555
Li2 O2 1.995542 1_555
Li2 O5 1.998095 1_555
Li3 O16 1.966576 1_455
Li3 O4 1.992195 1_556
Li3 O3 1.995542 1_555
Li3 O5 1.998095 1_555
Li4 O15 1.966576 1_555
Li4 O12 1.992195 1_556
Li4 O9 1.995543 1_555
Li4 O13 1.998095 1_555
Li5 O14 1.966576 1_555
Li5 O12 1.992195 1_555
Li5 O8 1.995543 1_555
Li5 O13 1.998095 1_555
Mn0 O4 2.103733 1_555
Mn0 O11 2.184407 1_554
Mn0 O10 2.184407 1_555
Mn0 O8 2.194412 1_555
Mn0 O9 2.194412 1_554
Mn1 O12 2.103740 1_545
Mn1 O17 2.184402 1_555
Mn1 O16 2.184402 1_554
Mn1 O6 2.194416 1_545
Mn1 O7 2.194416 1_544
Mn2 O1 2.103732 1_655
Mn2 O14 2.184402 1_555
Mn2 O15 2.184402 1_554
Mn2 O3 2.194423 1_654
Mn2 O2 2.194423 1_655
Fe0 O5 2.040521 1_555
Fe0 O8 2.135398 1_555
Fe0 O9 2.135398 1_555
Fe0 O10 2.174893 1_555
Fe0 O11 2.174893 1_555
Fe1 O13 2.040521 1_545
Fe1 O6 2.135399 1_545
Fe1 O7 2.135399 1_545
Fe1 O17 2.174893 1_555
Fe1 O16 2.174893 1_555
Fe2 O0 2.040521 1_655
Fe2 O3 2.135403 1_655
Fe2 O2 2.135403 1_655
Fe2 O14 2.174893 1_555
Fe2 O15 2.174893 1_555
B0 O1 1.395290 1_545
B0 O4 1.395290 1_555
B0 O12 1.395290 1_445
B1 O0 1.397942 1_545
B1 O5 1.397942 1_555
B1 O13 1.397942 1_445
B2 O2 1.388953 1_555
B2 O6 1.388954 1_555
B2 O8 1.388967 1_555
B3 O3 1.388953 1_555
B3 O7 1.388954 1_555
B3 O9 1.388967 1_555
B4 O17 1.392287 1_555
B4 O14 1.392294 1_555
B4 O10 1.392294 1_555
B5 O16 1.392287 1_555
B5 O15 1.392294 1_555
B5 O11 1.392294 1_555
