# generated using pymatgen
data_NaCo2O3
_symmetry_space_group_name_H-M   'P 1'
_cell_length_a   5.18781324
_cell_length_b   5.90083826
_cell_length_c   5.89900115
_cell_angle_alpha   119.68184606
_cell_angle_beta   90.40619448
_cell_angle_gamma   89.61792183
_symmetry_Int_Tables_number   1
_chemical_formula_structural   NaCo2O3
_chemical_formula_sum   'Na2 Co4 O6'
_cell_volume   156.88332389
_cell_formula_units_Z   2
loop_
 _symmetry_equiv_pos_site_id
 _symmetry_equiv_pos_as_xyz
  1  'x, y, z'
loop_
 _atom_site_type_symbol
 _atom_site_label
 _atom_site_symmetry_multiplicity
 _atom_site_fract_x
 _atom_site_fract_y
 _atom_site_fract_z
 _atom_site_occupancy
  Na  Na0  1  0.99458000  0.32746000  0.32663300  1
  Na  Na1  1  0.49452100  0.67274300  0.67302200  1
  Co  Co0  1  0.01860700  0.01095000  0.67071000  1
  Co  Co1  1  0.50773500  0.99500400  0.32582700  1
  Co  Co2  1  0.51863900  0.32959200  0.98888800  1
  Co  Co3  1  0.00782600  0.67442500  0.00517800  1
  O  O0  1  0.46597500  0.27658400  0.28600500  1
  O  O1  1  0.96560000  0.71396000  0.72328100  1
  O  O2  1  0.39650100  0.04714000  0.65446400  1
  O  O3  1  0.89633500  0.34554300  0.95212700  1
  O  O4  1  0.37765100  0.67286900  0.06664500  1
  O  O5  1  0.87782700  0.93372900  0.32722000  1
loop_
_geom_bond_atom_site_label_1
_geom_bond_atom_site_label_2
_geom_bond_distance
_geom_bond_site_symmetry_2
Na0 O3 2.317012 1_554
Na0 O1 2.326866 1_555
Na0 O5 2.406567 1_545
Na0 O0 2.460761 1_655
Na0 O0 2.756484 1_555
Na1 O2 2.318433 1_565
Na1 O0 2.326604 1_555
Na1 O4 2.403632 1_556
Na1 O1 2.458820 1_555
Na1 O1 2.758169 1_455
Co0 O1 1.946507 1_445
Co0 O3 1.951558 1_455
Co0 O5 1.978829 1_445
Co0 O2 1.981576 1_555
Co1 O0 1.801090 1_565
Co1 O4 1.878966 1_555
Co1 O2 1.899674 1_565
Co1 O5 1.952061 1_555
Co2 O0 1.948151 1_556
Co2 O2 1.952233 1_555
Co2 O4 1.978214 1_556
Co2 O3 1.980883 1_555
Co3 O1 1.801677 1_454
Co3 O5 1.879000 1_455
Co3 O3 1.899904 1_454
Co3 O4 1.950825 1_555
