# generated using pymatgen
data_BaSrLaBiO6
_symmetry_space_group_name_H-M   'P 1'
_cell_length_a   6.14831827
_cell_length_b   6.14831827
_cell_length_c   8.90923179
_cell_angle_alpha   90.00000000
_cell_angle_beta   90.00000000
_cell_angle_gamma   90.00000000
_symmetry_Int_Tables_number   1
_chemical_formula_structural   BaSrLaBiO6
_chemical_formula_sum   'Ba2 Sr2 La2 Bi2 O12'
_cell_volume   336.78515463
_cell_formula_units_Z   2
loop_
 _symmetry_equiv_pos_site_id
 _symmetry_equiv_pos_as_xyz
  1  'x, y, z'
loop_
 _atom_site_type_symbol
 _atom_site_label
 _atom_site_symmetry_multiplicity
 _atom_site_fract_x
 _atom_site_fract_y
 _atom_site_fract_z
 _atom_site_occupancy
  Ba  Ba0  1  -0.00000000  0.50000000  0.25000000  1
  Ba  Ba1  1  0.50000000  0.00000000  0.75000000  1
  Sr  Sr0  1  -0.00000000  0.00000000  0.50000000  1
  Sr  Sr1  1  0.50000000  0.50000000  -0.00000000  1
  La  La0  1  0.50000000  0.00000000  0.25000000  1
  La  La1  1  -0.00000000  0.50000000  0.75000000  1
  Bi  Bi0  1  -0.00000000  0.00000000  -0.00000000  1
  Bi  Bi1  1  0.50000000  0.50000000  0.50000000  1
  O  O0  1  -0.00000000  0.00000000  0.23704976  1
  O  O1  1  0.50000000  0.50000000  0.26295024  1
  O  O2  1  -0.00000000  0.00000000  0.76295024  1
  O  O3  1  0.50000000  0.50000000  0.73704976  1
  O  O4  1  0.31404507  0.14635751  0.02750307  1
  O  O5  1  0.68595493  0.85364249  0.02750307  1
  O  O6  1  0.85364249  0.31404507  0.97249693  1
  O  O7  1  0.14635751  0.68595493  0.97249693  1
  O  O8  1  0.81404507  0.35364249  0.52750307  1
  O  O9  1  0.18595493  0.64635751  0.52750307  1
  O  O10  1  0.35364249  0.18595493  0.47249693  1
  O  O11  1  0.64635751  0.81404507  0.47249693  1
loop_
_geom_bond_atom_site_label_1
_geom_bond_atom_site_label_2
_geom_bond_distance
_geom_bond_site_symmetry_2
Ba0 O7 2.868685 1_554
Ba0 O6 2.868685 1_454
Ba0 O8 2.868685 1_455
Ba0 O9 2.868685 1_555
Ba0 O0 3.076323 1_565
Ba0 O0 3.076323 1_555
Ba0 O1 3.076323 1_555
Ba0 O1 3.076323 1_455
Ba1 O11 2.868685 1_545
Ba1 O10 2.868685 1_555
Ba1 O5 2.868685 1_546
Ba1 O4 2.868685 1_556
Ba1 O2 3.076323 1_555
Ba1 O3 3.076323 1_555
Ba1 O2 3.076323 1_655
Ba1 O3 3.076323 1_545
La0 O5 2.458925 1_545
La0 O4 2.458925 1_555
La0 O10 2.458925 1_555
La0 O11 2.458925 1_545
La0 O1 3.076323 1_545
La0 O0 3.076323 1_555
La0 O0 3.076323 1_655
La0 O1 3.076323 1_555
La1 O7 2.458925 1_555
La1 O8 2.458925 1_455
La1 O6 2.458925 1_455
La1 O9 2.458925 1_555
La1 O3 3.076323 1_455
La1 O2 3.076323 1_555
La1 O3 3.076323 1_555
La1 O2 3.076323 1_565
Bi0 O2 2.111931 1_554
Bi0 O0 2.111931 1_555
Bi0 O6 2.144284 1_454
Bi0 O4 2.144284 1_555
Bi0 O7 2.144284 1_544
Bi0 O5 2.144284 1_445
Bi1 O1 2.111931 1_555
Bi1 O3 2.111931 1_555
Bi1 O8 2.144284 1_555
Bi1 O11 2.144284 1_555
Bi1 O10 2.144284 1_555
Bi1 O9 2.144284 1_555
O0 Sr0 2.342685 1_555
O1 Sr1 2.342685 1_555
O2 Sr0 2.342685 1_555
O3 Sr1 2.342685 1_556
O4 Sr1 2.468766 1_555
O5 Sr1 2.468766 1_555
O6 Sr1 2.468766 1_556
O7 Sr1 2.468766 1_556
O8 Sr0 2.468766 1_655
O9 Sr0 2.468766 1_565
O10 Sr0 2.468766 1_555
O11 Sr0 2.468766 1_665
