# generated using pymatgen
data_Hf6Co23
_symmetry_space_group_name_H-M   'P 1'
_cell_length_a   8.05780774
_cell_length_b   8.05779815
_cell_length_c   8.05783651
_cell_angle_alpha   59.99948683
_cell_angle_beta   59.99929524
_cell_angle_gamma   59.99963563
_symmetry_Int_Tables_number   1
_chemical_formula_structural   Hf6Co23
_chemical_formula_sum   'Hf6 Co23'
_cell_volume   369.94021535
_cell_formula_units_Z   1
loop_
 _symmetry_equiv_pos_site_id
 _symmetry_equiv_pos_as_xyz
  1  'x, y, z'
loop_
 _atom_site_type_symbol
 _atom_site_label
 _atom_site_symmetry_multiplicity
 _atom_site_fract_x
 _atom_site_fract_y
 _atom_site_fract_z
 _atom_site_occupancy
  Hf  Hf0  1  0.71030723  0.71030731  0.28969262  1
  Hf  Hf1  1  0.28969310  0.71030721  0.28969203  1
  Hf  Hf2  1  0.71030757  0.28969298  0.28969154  1
  Hf  Hf3  1  0.28969277  0.28969269  0.71030738  1
  Hf  Hf4  1  0.71030690  0.28969279  0.71030797  1
  Hf  Hf5  1  0.28969243  0.71030702  0.71030846  1
  Co  Co0  1  -0.00000000  0.00000000  -0.00000000  1
  Co  Co1  1  -0.00000000  0.00000000  0.50000000  1
  Co  Co2  1  0.50000000  0.00000000  0.50000000  1
  Co  Co3  1  -0.00000000  0.50000000  0.50000000  1
  Co  Co4  1  0.50000000  0.50000000  -0.00000000  1
  Co  Co5  1  -0.00000000  0.50000000  -0.00000000  1
  Co  Co6  1  0.50000000  0.00000000  -0.00000000  1
  Co  Co7  1  0.87828502  0.87828545  0.36514503  1
  Co  Co8  1  0.87828709  0.36514248  0.87828342  1
  Co  Co9  1  0.36514047  0.87828608  0.87828203  1
  Co  Co10  1  0.87829149  0.87828612  0.87828207  1
  Co  Co11  1  0.12171498  0.12171455  0.63485497  1
  Co  Co12  1  0.12171291  0.63485752  0.12171658  1
  Co  Co13  1  0.63485953  0.12171392  0.12171797  1
  Co  Co14  1  0.12170851  0.12171388  0.12171793  1
  Co  Co15  1  0.67328332  0.67327743  0.98015858  1
  Co  Co16  1  0.67328338  0.98015985  0.67327431  1
  Co  Co17  1  0.98015978  0.67328116  0.67327804  1
  Co  Co18  1  0.67328201  0.67328061  0.67327661  1
  Co  Co19  1  0.32671668  0.32672257  0.01984142  1
  Co  Co20  1  0.32671662  0.01984015  0.32672569  1
  Co  Co21  1  0.01984022  0.32671884  0.32672196  1
  Co  Co22  1  0.32671799  0.32671939  0.32672339  1
loop_
_geom_bond_atom_site_label_1
_geom_bond_atom_site_label_2
_geom_bond_distance
_geom_bond_site_symmetry_2
Hf0 Hf5 3.389207 1_555
Hf0 Hf4 3.389212 1_555
Hf0 Hf2 3.389228 1_555
Hf0 Hf1 3.389231 1_555
Hf1 Hf2 3.389209 1_555
Hf1 Hf3 3.389212 1_555
Hf1 Hf5 3.389255 1_555
Hf2 Hf3 3.389207 1_555
Hf2 Hf4 3.389255 1_555
Hf3 Hf5 3.389228 1_555
Hf3 Hf4 3.389231 1_555
Hf4 Hf5 3.389209 1_555
Co0 Co13 2.402306 1_455
Co0 Co9 2.402306 1_544
Co0 Co8 2.402321 1_454
Co0 Co12 2.402321 1_545
Co0 Co10 2.402333 1_444
Co0 Co14 2.402333 1_555
Co0 Co7 2.402341 1_445
Co0 Co11 2.402341 1_554
Co1 Co16 2.329709 1_445
Co1 Co20 2.329709 1_555
Co1 Co17 2.329726 1_445
Co1 Co21 2.329726 1_555
Co1 Co14 2.489524 1_555
Co1 Co10 2.489524 1_445
Co1 Co11 2.489562 1_555
Co1 Co7 2.489562 1_445
Co1 Hf1 2.884540 1_545
Co1 Hf4 2.884540 1_455
Co1 Hf2 2.884550 1_455
Co1 Hf5 2.884550 1_545
Co2 Co22 2.329730 1_555
Co2 Co20 2.329744 1_555
Co2 Co9 2.489522 1_545
Co2 Co7 2.489536 1_545
Co2 Hf2 2.884535 1_555
Co2 Hf5 2.884535 1_545
Co2 Hf0 2.884544 1_545
Co2 Hf3 2.884544 1_555
Co3 Co8 2.489531 1_455
Co3 Co7 2.489541 1_455
Co3 Hf1 2.884534 1_555
Co3 Hf4 2.884534 1_455
Co3 Hf0 2.884554 1_455
Co3 Hf3 2.884554 1_555
Co4 Co9 2.489546 1_554
Co4 Co8 2.489550 1_554
Co4 Hf4 2.884540 1_554
Co4 Hf1 2.884540 1_555
Co4 Hf5 2.884549 1_554
Co4 Hf2 2.884549 1_555
Co5 Co8 2.489578 1_454
Co5 Hf5 2.884522 1_554
Co5 Hf2 2.884522 1_455
Co5 Hf3 2.884536 1_554
Co5 Hf0 2.884536 1_455
Co6 Co9 2.489607 1_544
Co6 Hf4 2.884524 1_554
Co6 Hf1 2.884524 1_545
Co6 Hf3 2.884546 1_554
Co6 Hf0 2.884546 1_545
Co7 Hf2 2.740717 1_565
Co7 Hf1 2.740722 1_655
Co7 Hf0 2.740749 1_555
Co8 Hf3 2.740705 1_655
Co8 Hf2 2.740730 1_556
Co8 Hf4 2.740736 1_555
Co9 Hf5 2.740704 1_555
Co9 Hf3 2.740716 1_565
Co9 Hf1 2.740747 1_556
Co10 Co17 2.479541 1_555
Co10 Co15 2.479562 1_555
Co10 Co16 2.479579 1_555
Co10 Co5 2.489546 1_656
Co10 Co6 2.489580 1_566
Co10 Hf5 2.740672 1_655
Co10 Hf4 2.740716 1_565
Co10 Hf0 2.740742 1_556
Co10 Co11 2.773931 1_665
Co10 Co12 2.773975 1_656
Co10 Co13 2.774010 1_566
Co11 Co20 2.479478 1_555
Co11 Co22 2.479486 1_555
Co11 Co21 2.479512 1_555
Co11 Co2 2.489536 1_555
Co11 Co3 2.489541 1_555
Co11 Hf5 2.740717 1_545
Co11 Hf4 2.740722 1_455
Co11 Hf3 2.740749 1_555
Co11 Co9 2.773956 1_545
Co11 Co8 2.773968 1_455
Co12 Co19 2.479517 1_555
Co12 Co21 2.479525 1_555
Co12 Co22 2.479534 1_555
Co12 Co3 2.489531 1_555
Co12 Co4 2.489550 1_555
Co12 Co5 2.489578 1_555
Co12 Hf0 2.740705 1_455
Co12 Hf5 2.740730 1_554
Co12 Hf1 2.740736 1_555
Co12 Co9 2.773955 1_554
Co12 Co7 2.773968 1_455
Co13 Co22 2.479531 1_555
Co13 Co20 2.479557 1_555
Co13 Co19 2.479582 1_555
Co13 Co2 2.489522 1_555
Co13 Co4 2.489546 1_555
Co13 Co6 2.489607 1_555
Co13 Hf2 2.740704 1_555
Co13 Hf0 2.740716 1_545
Co13 Hf4 2.740747 1_554
Co13 Co8 2.773955 1_554
Co13 Co7 2.773956 1_545
Co14 Co21 2.479541 1_555
Co14 Co19 2.479562 1_555
Co14 Co20 2.479579 1_555
Co14 Co5 2.489546 1_555
Co14 Co6 2.489580 1_555
Co14 Hf2 2.740672 1_455
Co14 Hf1 2.740716 1_545
Co14 Hf3 2.740742 1_554
Co14 Co7 2.773931 1_445
Co14 Co8 2.773975 1_454
Co14 Co9 2.774010 1_544
Co15 Co5 2.329722 1_656
Co15 Co4 2.329749 1_556
Co15 Co6 2.329759 1_566
Co15 Co17 2.472746 1_555
Co15 Co16 2.472791 1_555
Co15 Co18 2.472797 1_555
Co15 Co8 2.479517 1_555
Co15 Co9 2.479582 1_555
Co15 Hf2 2.824179 1_556
Co15 Hf1 2.824202 1_556
Co15 Hf0 2.824232 1_556
Co16 Co2 2.329744 1_565
Co16 Co6 2.329780 1_566
Co16 Co17 2.472745 1_555
Co16 Co18 2.472767 1_555
Co16 Co7 2.479478 1_555
Co16 Co9 2.479557 1_555
Co16 Hf2 2.824173 1_565
Co16 Hf3 2.824210 1_565
Co16 Hf4 2.824227 1_565
Co17 Co3 2.329750 1_655
Co17 Co5 2.329760 1_656
Co17 Co18 2.472770 1_555
Co17 Co7 2.479512 1_555
Co17 Co8 2.479525 1_555
Co17 Hf1 2.824183 1_655
Co17 Hf3 2.824201 1_655
Co17 Hf5 2.824224 1_655
Co18 Co3 2.329714 1_655
Co18 Co2 2.329730 1_565
Co18 Co4 2.329750 1_556
Co18 Co7 2.479486 1_555
Co18 Co9 2.479531 1_555
Co18 Co8 2.479534 1_555
Co18 Hf0 2.824199 1_555
Co18 Hf4 2.824202 1_555
Co18 Hf5 2.824213 1_555
Co19 Co5 2.329722 1_555
Co19 Co4 2.329749 1_555
Co19 Co6 2.329759 1_555
Co19 Co21 2.472746 1_555
Co19 Co20 2.472791 1_555
Co19 Co22 2.472797 1_555
Co19 Hf5 2.824179 1_554
Co19 Hf4 2.824202 1_554
Co19 Hf3 2.824232 1_554
Co20 Co6 2.329780 1_555
Co20 Co21 2.472745 1_555
Co20 Co22 2.472767 1_555
Co20 Hf5 2.824173 1_545
Co20 Hf0 2.824210 1_545
Co20 Hf1 2.824227 1_545
Co21 Co3 2.329750 1_555
Co21 Co5 2.329760 1_555
Co21 Co22 2.472770 1_555
Co21 Hf4 2.824183 1_455
Co21 Hf0 2.824201 1_455
Co21 Hf2 2.824224 1_455
Co22 Co3 2.329714 1_555
Co22 Co4 2.329750 1_555
Co22 Hf3 2.824199 1_555
Co22 Hf1 2.824202 1_555
Co22 Hf2 2.824213 1_555
