# generated using pymatgen
data_Nb5Si3
_symmetry_space_group_name_H-M   'P 1'
_cell_length_a   6.60119664
_cell_length_b   6.60125617
_cell_length_c   7.57267952
_cell_angle_alpha   115.83632667
_cell_angle_beta   115.83714312
_cell_angle_gamma   89.99556743
_symmetry_Int_Tables_number   1
_chemical_formula_structural   Nb5Si3
_chemical_formula_sum   'Nb10 Si6'
_cell_volume   259.86920433
_cell_formula_units_Z   2
loop_
 _symmetry_equiv_pos_site_id
 _symmetry_equiv_pos_as_xyz
  1  'x, y, z'
loop_
 _atom_site_type_symbol
 _atom_site_label
 _atom_site_symmetry_multiplicity
 _atom_site_fract_x
 _atom_site_fract_y
 _atom_site_fract_z
 _atom_site_occupancy
  Nb  Nb0  1  0.18479995  0.01756210  0.70240204  1
  Nb  Nb1  1  0.01761916  0.51758258  0.70243519  1
  Nb  Nb2  1  0.68482210  0.18479400  0.70227046  1
  Nb  Nb3  1  0.98238084  0.48241642  0.29756281  1
  Nb  Nb4  1  0.51748747  0.68481722  0.70232960  1
  Nb  Nb5  1  0.81520105  0.98243790  0.29759796  1
  Nb  Nb6  1  0.48251253  0.31518378  0.29767140  1
  Nb  Nb7  1  0.31517790  0.81520700  0.29772954  1
  Nb  Nb8  1  0.50000100  0.50000100  0.00000100  1
  Nb  Nb9  1  0.00000100  0.00000100  -0.00000000  1
  Si  Si0  1  0.62841840  0.12842247  0.99992477  1
  Si  Si1  1  0.87149699  0.62844557  0.99994065  1
  Si  Si2  1  0.12850301  0.37155443  0.00005835  1
  Si  Si3  1  0.37158060  0.87157753  0.00007323  1
  Si  Si4  1  0.75003379  0.74999924  0.49999992  1
  Si  Si5  1  0.24996721  0.25000176  0.50000008  1
loop_
_geom_bond_atom_site_label_1
_geom_bond_atom_site_label_2
_geom_bond_distance
_geom_bond_site_symmetry_2
Nb0 Si2 2.611229 1_556
Nb0 Si0 2.645696 1_555
Nb0 Si3 2.645910 1_546
Nb0 Si4 2.740922 1_445
Nb0 Si5 2.741043 1_555
Nb1 Si3 2.611539 1_556
Nb1 Si1 2.645486 1_455
Nb1 Si2 2.645798 1_556
Nb1 Si5 2.740694 1_555
Nb1 Si4 2.741052 1_455
Nb2 Si0 2.611595 1_555
Nb2 Si1 2.646155 1_555
Nb2 Si2 2.646463 1_656
Nb2 Si4 2.740832 1_545
Nb2 Si5 2.741097 1_555
Nb3 Si0 2.611539 1_554
Nb3 Si2 2.645480 1_655
Nb3 Si1 2.645796 1_554
Nb3 Si4 2.740702 1_555
Nb3 Si5 2.741052 1_655
Nb4 Si1 2.611321 1_555
Nb4 Si0 2.645769 1_565
Nb4 Si3 2.645982 1_556
Nb4 Si4 2.741170 1_555
Nb4 Si5 2.741192 1_555
Nb5 Si1 2.611229 1_554
Nb5 Si3 2.645710 1_555
Nb5 Si0 2.645923 1_564
Nb5 Si5 2.740925 1_665
Nb5 Si4 2.741038 1_555
Nb6 Si2 2.611325 1_555
Nb6 Si3 2.645779 1_545
Nb6 Si0 2.645996 1_554
Nb6 Si5 2.741158 1_555
Nb6 Si4 2.741195 1_555
Nb7 Si3 2.611603 1_555
Nb7 Si2 2.646161 1_555
Nb7 Si1 2.646465 1_454
Nb7 Si5 2.740829 1_565
Nb7 Si4 2.741103 1_555
Nb8 Si0 2.595019 1_554
Nb8 Si3 2.595022 1_555
Nb8 Si1 2.595078 1_554
Nb8 Si2 2.595082 1_555
Nb8 Si4 2.981773 1_555
Nb8 Si5 2.981785 1_554
Nb9 Si3 2.595027 1_545
Nb9 Si0 2.595037 1_454
Nb9 Si2 2.595080 1_555
Nb9 Si1 2.595093 1_444
Nb9 Si5 2.981780 1_555
Nb9 Si4 2.981780 1_444
Si0 Si3 2.398540 1_546
Si1 Si2 2.398662 1_656
