# generated using pymatgen
data_La12Co6Pb
_symmetry_space_group_name_H-M   'P 1'
_cell_length_a   8.85390806
_cell_length_b   8.85393157
_cell_length_c   8.85390453
_cell_angle_alpha   109.37623382
_cell_angle_beta   109.48289551
_cell_angle_gamma   109.55505143
_symmetry_Int_Tables_number   1
_chemical_formula_structural   La12Co6Pb
_chemical_formula_sum   'La12 Co6 Pb1'
_cell_volume   534.29428565
_cell_formula_units_Z   1
loop_
 _symmetry_equiv_pos_site_id
 _symmetry_equiv_pos_as_xyz
  1  'x, y, z'
loop_
 _atom_site_type_symbol
 _atom_site_label
 _atom_site_symmetry_multiplicity
 _atom_site_fract_x
 _atom_site_fract_y
 _atom_site_fract_z
 _atom_site_occupancy
  La  La0  1  0.80891477  0.68817880  0.49709570  1
  La  La1  1  0.19108687  0.31181418  0.50290338  1
  La  La2  1  0.19108372  0.68817957  0.87926596  1
  La  La3  1  0.80891381  0.31181530  0.12073119  1
  La  La4  1  0.68782130  0.49566629  0.80784910  1
  La  La5  1  0.31217087  0.50431888  0.19215091  1
  La  La6  1  0.68782804  0.87997401  0.19214855  1
  La  La7  1  0.31217887  0.12002321  0.80784877  1
  La  La8  1  0.49749353  0.80857064  0.68893141  1
  La  La9  1  0.50249766  0.19143088  0.31107754  1
  La  La10  1  0.11963919  0.80857605  0.31106958  1
  La  La11  1  0.88035359  0.19143452  0.68892651  1
  Co  Co0  1  0.88901851  0.38901471  0.50000466  1
  Co  Co1  1  0.11100054  0.61100103  0.49999825  1
  Co  Co2  1  0.38881382  0.49999826  0.88880985  1
  Co  Co3  1  0.61118874  0.50000035  0.11118386  1
  Co  Co4  1  0.49999537  0.88902381  0.38902430  1
  Co  Co5  1  0.49999739  0.11097888  0.61097742  1
  Pb  Pb0  1  0.00000142  0.00000063  0.00000306  1
loop_
_geom_bond_atom_site_label_1
_geom_bond_atom_site_label_2
_geom_bond_distance
_geom_bond_site_symmetry_2
La0 Pb0 3.741943 1_666
La1 Pb0 3.741881 1_555
La2 Pb0 3.741943 1_566
La3 Pb0 3.741920 1_655
La4 Pb0 3.746151 1_666
La5 Pb0 3.746030 1_555
La6 Pb0 3.746053 1_665
La7 Pb0 3.746137 1_556
La8 Pb0 3.732804 1_666
La9 Pb0 3.732727 1_555
La10 Pb0 3.732703 1_565
La11 Pb0 3.732856 1_656
Co0 Co1 2.267167 1_655
Co0 La11 2.793105 1_555
Co0 La9 2.793221 1_555
Co0 La2 2.968151 1_655
Co0 La0 2.968225 1_555
Co0 La1 2.968225 1_655
Co0 La3 2.968248 1_555
Co1 La8 2.793016 1_555
Co1 La10 2.793113 1_555
Co1 La0 2.968261 1_455
Co1 La3 2.968261 1_455
Co1 La2 2.968281 1_555
Co1 La1 2.968332 1_555
Co2 Co3 2.273132 1_556
Co2 La1 2.791977 1_555
Co2 La2 2.792034 1_555
Co2 La4 2.973136 1_555
Co2 La6 2.973164 1_556
Co2 La7 2.973184 1_555
Co2 La5 2.973237 1_556
Co3 La0 2.792017 1_555
Co3 La3 2.792025 1_555
Co3 La4 2.973108 1_554
Co3 La7 2.973155 1_554
Co3 La6 2.973156 1_555
Co3 La5 2.973228 1_555
Co4 Co5 2.271824 1_565
Co4 La5 2.782209 1_555
Co4 La6 2.782242 1_555
Co4 La10 2.973599 1_555
Co4 La11 2.973600 1_565
Co4 La9 2.973606 1_565
Co4 La8 2.973638 1_555
Co5 La4 2.782082 1_555
Co5 La7 2.782107 1_555
Co5 La9 2.973566 1_555
Co5 La10 2.973595 1_545
Co5 La11 2.973596 1_555
Co5 La8 2.973647 1_545
