# generated using pymatgen
data_TeH3N(OF)2
_symmetry_space_group_name_H-M   'P 1'
_cell_length_a   6.25755903
_cell_length_b   6.45515300
_cell_length_c   10.69754929
_cell_angle_alpha   90.00000000
_cell_angle_beta   97.55251428
_cell_angle_gamma   90.00000000
_symmetry_Int_Tables_number   1
_chemical_formula_structural   TeH3N(OF)2
_chemical_formula_sum   'Te4 H12 N4 O8 F8'
_cell_volume   428.36281884
_cell_formula_units_Z   4
loop_
 _symmetry_equiv_pos_site_id
 _symmetry_equiv_pos_as_xyz
  1  'x, y, z'
loop_
 _atom_site_type_symbol
 _atom_site_label
 _atom_site_symmetry_multiplicity
 _atom_site_fract_x
 _atom_site_fract_y
 _atom_site_fract_z
 _atom_site_occupancy
  Te  Te0  1  0.26148200  0.55544900  0.36174700  1
  Te  Te1  1  0.76148200  0.94455100  0.86174700  1
  Te  Te2  1  0.73851800  0.44455100  0.63825300  1
  Te  Te3  1  0.23851800  0.05544900  0.13825300  1
  H  H0  1  0.94242500  0.11242300  0.38854900  1
  H  H1  1  0.44242500  0.38757700  0.88854900  1
  H  H2  1  0.05757500  0.88757700  0.61145100  1
  H  H3  1  0.55757500  0.61242300  0.11145100  1
  H  H4  1  0.65424900  0.05108500  0.31809000  1
  H  H5  1  0.15424900  0.44891500  0.81809000  1
  H  H6  1  0.34575100  0.94891500  0.68191000  1
  H  H7  1  0.84575100  0.55108500  0.18191000  1
  H  H8  1  0.81285000  0.53506600  0.41650600  1
  H  H9  1  0.31285000  0.96493400  0.91650600  1
  H  H10  1  0.18715000  0.46493400  0.58349400  1
  H  H11  1  0.68715000  0.03506600  0.08349400  1
  N  N0  1  0.80249400  0.01777500  0.37377500  1
  N  N1  1  0.30249400  0.48222500  0.87377500  1
  N  N2  1  0.19750600  0.98222500  0.62622500  1
  N  N3  1  0.69750600  0.51777500  0.12622500  1
  O  O0  1  0.97134100  0.64550100  0.32723300  1
  O  O1  1  0.47134100  0.85449900  0.82723300  1
  O  O2  1  0.02865900  0.35449900  0.67276700  1
  O  O3  1  0.52865900  0.14550100  0.17276700  1
  O  O4  1  0.70605400  0.44253600  0.45541500  1
  O  O5  1  0.20605400  0.05746400  0.95541500  1
  O  O6  1  0.29394600  0.55746400  0.54458500  1
  O  O7  1  0.79394600  0.94253600  0.04458500  1
  F  F0  1  0.14692600  0.25118600  0.38006100  1
  F  F1  1  0.64692600  0.24881400  0.88006100  1
  F  F2  1  0.85307400  0.74881400  0.61993900  1
  F  F3  1  0.35307400  0.75118600  0.11993900  1
  F  F4  1  0.36332700  0.84848000  0.38248600  1
  F  F5  1  0.86332700  0.65152000  0.88248600  1
  F  F6  1  0.63667300  0.15152000  0.61751400  1
  F  F7  1  0.13667300  0.34848000  0.11751400  1
loop_
_geom_bond_atom_site_label_1
_geom_bond_atom_site_label_2
_geom_bond_distance
_geom_bond_site_symmetry_2
H0 N0 1.062357 1_555
H1 N1 1.062357 1_555
H2 N2 1.062357 1_555
H3 N3 1.062357 1_555
H4 N0 1.056580 1_555
H5 N1 1.056580 1_555
H6 N2 1.056580 1_555
H7 N3 1.056580 1_555
H8 O4 1.024564 1_555
H8 O0 1.628740 1_555
H9 O5 1.024564 1_565
H9 O1 1.628740 1_555
H10 O6 1.024564 1_555
H10 O2 1.628740 1_555
H11 O7 1.024564 1_545
H11 O3 1.628740 1_555
O0 Te0 1.895871 1_655
O1 Te1 1.895871 1_555
O2 Te2 1.895871 1_455
O3 Te3 1.895871 1_555
O4 Te2 1.939744 1_555
O5 Te3 1.939744 1_556
O6 Te0 1.939744 1_555
O7 Te1 1.939744 1_554
F0 H0 1.574391 1_455
F0 Te0 2.108722 1_555
F1 H1 1.574391 1_555
F1 Te1 2.108722 1_545
F2 H2 1.574391 1_655
F2 Te2 2.108722 1_555
F3 H3 1.574391 1_555
F3 Te3 2.108722 1_565
F4 Te0 1.999051 1_555
F5 Te1 1.999051 1_555
F6 Te2 1.999051 1_555
F7 Te3 1.999051 1_555
