# generated using pymatgen
data_Co2H36N13Cl5O3
_symmetry_space_group_name_H-M   'P 1'
_cell_length_a   13.04384454
_cell_length_b   13.04384454
_cell_length_c   7.09689242
_cell_angle_alpha   88.31757386
_cell_angle_beta   88.31757386
_cell_angle_gamma   70.71967788
_symmetry_Int_Tables_number   1
_chemical_formula_structural   Co2H36N13Cl5O3
_chemical_formula_sum   'Co4 H72 N26 Cl10 O6'
_cell_volume   1139.01764536
_cell_formula_units_Z   2
loop_
 _symmetry_equiv_pos_site_id
 _symmetry_equiv_pos_as_xyz
  1  'x, y, z'
loop_
 _atom_site_type_symbol
 _atom_site_label
 _atom_site_symmetry_multiplicity
 _atom_site_fract_x
 _atom_site_fract_y
 _atom_site_fract_z
 _atom_site_occupancy
  Co  Co0  1  0.00000000  0.50000000  0.50000000  1
  Co  Co1  1  0.50000000  0.00000000  0.50000000  1
  Co  Co2  1  0.00000000  0.00000000  0.00000000  1
  Co  Co3  1  0.50000000  0.50000000  0.00000000  1
  H  H0  1  0.94263600  0.64517200  0.23135500  1
  H  H1  1  0.64517200  0.94263600  0.23135500  1
  H  H2  1  0.05736400  0.35482800  0.76864500  1
  H  H3  1  0.35482800  0.05736400  0.76864500  1
  H  H4  1  0.96130000  0.52426700  0.14728600  1
  H  H5  1  0.52426700  0.96130000  0.14728600  1
  H  H6  1  0.03870000  0.47573300  0.85271400  1
  H  H7  1  0.47573300  0.03870000  0.85271400  1
  H  H8  1  0.84883400  0.58808100  0.25778100  1
  H  H9  1  0.58808100  0.84883400  0.25778100  1
  H  H10  1  0.15116600  0.41191900  0.74221900  1
  H  H11  1  0.41191900  0.15116600  0.74221900  1
  H  H12  1  0.96938500  0.31565100  0.54986300  1
  H  H13  1  0.31565100  0.96938500  0.54986300  1
  H  H14  1  0.03061500  0.68434900  0.45013700  1
  H  H15  1  0.68434900  0.03061500  0.45013700  1
  H  H16  1  0.86037200  0.40012800  0.45190300  1
  H  H17  1  0.40012800  0.86037200  0.45190300  1
  H  H18  1  0.13962800  0.59987200  0.54809700  1
  H  H19  1  0.59987200  0.13962800  0.54809700  1
  H  H20  1  0.97014700  0.34425100  0.32541200  1
  H  H21  1  0.34425100  0.97014700  0.32541200  1
  H  H22  1  0.02985300  0.65574900  0.67458800  1
  H  H23  1  0.65574900  0.02985300  0.67458800  1
  H  H24  1  0.19502700  0.37910800  0.44063400  1
  H  H25  1  0.37910800  0.19502700  0.44063400  1
  H  H26  1  0.80497300  0.62089200  0.55936600  1
  H  H27  1  0.62089200  0.80497300  0.55936600  1
  H  H28  1  0.12039200  0.37188200  0.26041800  1
  H  H29  1  0.37188200  0.12039200  0.26041800  1
  H  H30  1  0.87960800  0.62811800  0.73958200  1
  H  H31  1  0.62811800  0.87960800  0.73958200  1
  H  H32  1  0.15979800  0.47878300  0.27752000  1
  H  H33  1  0.47878300  0.15979800  0.27752000  1
  H  H34  1  0.84020200  0.52121700  0.72248000  1
  H  H35  1  0.52121700  0.84020200  0.72248000  1
  H  H36  1  0.97658900  0.20244000  0.97857800  1
  H  H37  1  0.20244000  0.97658900  0.97857800  1
  H  H38  1  0.02341100  0.79756000  0.02142200  1
  H  H39  1  0.79756000  0.02341100  0.02142200  1
  H  H40  1  0.01314100  0.14854500  0.77263800  1
  H  H41  1  0.14854500  0.01314100  0.77263800  1
  H  H42  1  0.98685900  0.85145500  0.22736200  1
  H  H43  1  0.85145500  0.98685900  0.22736200  1
  H  H44  1  0.88568900  0.17894500  0.84208300  1
  H  H45  1  0.17894500  0.88568900  0.84208300  1
  H  H46  1  0.11431100  0.82105500  0.15791700  1
  H  H47  1  0.82105500  0.11431100  0.15791700  1
  H  H48  1  0.97945400  0.87133200  0.75251900  1
  H  H49  1  0.87133200  0.97945400  0.75251900  1
  H  H50  1  0.02054600  0.12866800  0.24748100  1
  H  H51  1  0.12866800  0.02054600  0.24748100  1
  H  H52  1  0.98416900  0.98416900  0.65076400  1
  H  H53  1  0.01583100  0.01583100  0.34923600  1
  H  H54  1  0.44507100  0.33286000  0.06093200  1
  H  H55  1  0.33286000  0.44507100  0.06093200  1
  H  H56  1  0.55492900  0.66714000  0.93906700  1
  H  H57  1  0.66714000  0.55492900  0.93906700  1
  H  H58  1  0.39369400  0.39369400  0.86230900  1
  H  H59  1  0.60630600  0.60630600  0.13769100  1
  H  H60  1  0.42790000  0.65623800  0.75672800  1
  H  H61  1  0.65623800  0.42790000  0.75672800  1
  H  H62  1  0.57210000  0.34376200  0.24327200  1
  H  H63  1  0.34376200  0.57210000  0.24327200  1
  H  H64  1  0.40342100  0.54569100  0.68778600  1
  H  H65  1  0.54569100  0.40342100  0.68778600  1
  H  H66  1  0.59657900  0.45430900  0.31221400  1
  H  H67  1  0.45430900  0.59657900  0.31221400  1
  H  H68  1  0.32558500  0.62202400  0.85157100  1
  H  H69  1  0.62202400  0.32558500  0.85157100  1
  H  H70  1  0.67441500  0.37797600  0.14842900  1
  H  H71  1  0.37797600  0.67441500  0.14842900  1
  N  N0  1  0.93144700  0.57182500  0.26139000  1
  N  N1  1  0.57182500  0.93144700  0.26139000  1
  N  N2  1  0.06855300  0.42817500  0.73861000  1
  N  N3  1  0.42817500  0.06855300  0.73861000  1
  N  N4  1  0.94365900  0.37875900  0.45315900  1
  N  N5  1  0.37875900  0.94365900  0.45315900  1
  N  N6  1  0.05634100  0.62124100  0.54684100  1
  N  N7  1  0.62124100  0.05634100  0.54684100  1
  N  N8  1  0.13277200  0.42417400  0.35643600  1
  N  N9  1  0.42417400  0.13277200  0.35643600  1
  N  N10  1  0.86722800  0.57582600  0.64356400  1
  N  N11  1  0.57582600  0.86722800  0.64356400  1
  N  N12  1  0.96407200  0.14758100  0.88942200  1
  N  N13  1  0.14758100  0.96407200  0.88942200  1
  N  N14  1  0.03592800  0.85241900  0.11057800  1
  N  N15  1  0.85241900  0.03592800  0.11057800  1
  N  N16  1  0.95396200  0.95396200  0.76590500  1
  N  N17  1  0.04603800  0.04603800  0.23409500  1
  N  N18  1  0.40811000  0.40811000  0.99973300  1
  N  N19  1  0.59189000  0.59189000  0.00026700  1
  N  N20  1  0.40490900  0.59155300  0.80260100  1
  N  N21  1  0.59155300  0.40490900  0.80260100  1
  N  N22  1  0.59509100  0.40844700  0.19739900  1
  N  N23  1  0.40844700  0.59509100  0.19739900  1
  N  N24  1  0.20796100  0.20796100  0.07146600  1
  N  N25  1  0.79203900  0.79203900  0.92853400  1
  Cl  Cl0  1  0.16054700  0.16054700  0.59688000  1
  Cl  Cl1  1  0.83945300  0.83945300  0.40312000  1
  Cl  Cl2  1  0.83531300  0.41212000  0.97364400  1
  Cl  Cl3  1  0.41212000  0.83531300  0.97364400  1
  Cl  Cl4  1  0.16468700  0.58788000  0.02635600  1
  Cl  Cl5  1  0.58788000  0.16468700  0.02635600  1
  Cl  Cl6  1  0.82043000  0.17957000  0.50000000  1
  Cl  Cl7  1  0.17957000  0.82043000  0.50000000  1
  Cl  Cl8  1  0.61175700  0.61175700  0.46870300  1
  Cl  Cl9  1  0.38824300  0.38824300  0.53129700  1
  O  O0  1  0.10537300  0.25208200  0.09577700  1
  O  O1  1  0.25208200  0.10537300  0.09577700  1
  O  O2  1  0.89462700  0.74791800  0.90422300  1
  O  O3  1  0.74791800  0.89462700  0.90422300  1
  O  O4  1  0.26563200  0.26563200  0.02627600  1
  O  O5  1  0.73436800  0.73436800  0.97372400  1
loop_
_geom_bond_atom_site_label_1
_geom_bond_atom_site_label_2
_geom_bond_distance
_geom_bond_site_symmetry_2
Co0 N10 1.959600 1_455
Co0 N8 1.959600 1_555
Co0 N6 1.991052 1_555
Co0 N4 1.991052 1_455
Co0 N2 1.996850 1_555
Co0 N0 1.996850 1_455
Co1 N11 1.959600 1_545
Co1 N9 1.959600 1_555
Co1 N7 1.991052 1_555
Co1 N5 1.991052 1_545
Co1 N3 1.996850 1_555
Co1 N1 1.996850 1_545
Co2 N17 1.958727 1_555
Co2 N16 1.958727 1_444
Co2 N13 1.969345 1_544
Co2 N12 1.969345 1_454
Co2 N14 1.969345 1_545
Co2 N15 1.969345 1_455
Co3 N18 1.955065 1_554
Co3 N19 1.955065 1_555
Co3 N22 1.988162 1_555
Co3 N23 1.988162 1_555
Co3 N20 1.988162 1_554
Co3 N21 1.988162 1_554
H0 N0 1.029792 1_555
H1 N1 1.029792 1_555
H2 N2 1.029792 1_555
H3 N3 1.029792 1_555
H4 N0 1.021598 1_555
H5 N1 1.021598 1_555
H6 N2 1.021598 1_555
H7 N3 1.021598 1_555
H8 N0 1.028217 1_555
H9 N1 1.028217 1_555
H10 N2 1.028217 1_555
H11 N3 1.028217 1_555
H12 N4 1.029152 1_555
H13 N5 1.029152 1_555
H14 N6 1.029152 1_555
H15 N7 1.029152 1_555
H16 N4 1.028811 1_555
H17 N5 1.028811 1_555
H18 N6 1.028811 1_555
H19 N7 1.028811 1_555
H20 N4 1.023124 1_555
H21 N5 1.023124 1_555
H22 N6 1.023124 1_555
H23 N7 1.023124 1_555
H24 N8 1.026966 1_555
H25 N9 1.026966 1_555
H26 N10 1.026966 1_555
H27 N11 1.026966 1_555
H28 N8 1.030611 1_555
H29 N9 1.030611 1_555
H30 N10 1.030611 1_555
H31 N11 1.030611 1_555
H32 N8 1.037368 1_555
H33 N9 1.037368 1_555
H34 N10 1.037368 1_555
H35 N11 1.037368 1_555
H36 N12 1.024136 1_555
H37 N13 1.024136 1_555
H38 N14 1.024136 1_555
H39 N15 1.024136 1_555
H40 N12 1.034548 1_455
H41 N13 1.034548 1_545
H42 N14 1.034548 1_655
H43 N15 1.034548 1_565
H44 N12 1.030266 1_555
H45 N13 1.030266 1_555
H46 N14 1.030266 1_555
H47 N15 1.030266 1_555
H48 N16 1.024088 1_555
H49 N16 1.024088 1_555
H50 N17 1.024088 1_555
H51 N17 1.024088 1_555
H52 N16 1.021240 1_555
H53 N17 1.021240 1_555
H54 N18 1.029207 1_554
H55 N18 1.029207 1_554
H56 N19 1.029210 1_556
H57 N19 1.029210 1_556
H58 N18 1.032852 1_555
H59 N19 1.032852 1_555
H60 N20 1.026184 1_555
H61 N21 1.026184 1_555
H62 N22 1.026184 1_555
H63 N23 1.026184 1_555
H64 N20 1.029275 1_555
H65 N21 1.029275 1_555
H66 N22 1.029275 1_555
H67 N23 1.029275 1_555
H68 N20 1.031869 1_555
H69 N21 1.031869 1_555
H70 N22 1.031869 1_555
H71 N23 1.031869 1_555
N24 O4 1.256974 1_555
N24 O1 1.278792 1_555
N24 O0 1.278792 1_555
N25 O5 1.256974 1_555
N25 O3 1.278792 1_555
N25 O2 1.278792 1_555
