# generated using pymatgen
data_InTe5Pb4
_symmetry_space_group_name_H-M   'P 1'
_cell_length_a   19.04671024
_cell_length_b   19.04671024
_cell_length_c   19.04671082
_cell_angle_alpha   13.83623207
_cell_angle_beta   13.83623207
_cell_angle_gamma   13.83623146
_symmetry_Int_Tables_number   1
_chemical_formula_structural   InTe5Pb4
_chemical_formula_sum   'In1 Te5 Pb4'
_cell_volume   343.89640414
_cell_formula_units_Z   1
loop_
 _symmetry_equiv_pos_site_id
 _symmetry_equiv_pos_as_xyz
  1  'x, y, z'
loop_
 _atom_site_type_symbol
 _atom_site_label
 _atom_site_symmetry_multiplicity
 _atom_site_fract_x
 _atom_site_fract_y
 _atom_site_fract_z
 _atom_site_occupancy
  In  In0  1  0.00000000  0.00000000  0.00000000  1
  Te  Te0  1  0.69995000  0.69995000  0.69995000  1
  Te  Te1  1  0.50000000  0.50000000  0.50000000  1
  Te  Te2  1  0.10026000  0.10026000  0.10026000  1
  Te  Te3  1  0.30005000  0.30005000  0.30005000  1
  Te  Te4  1  0.89974000  0.89974000  0.89974000  1
  Pb  Pb0  1  0.60143800  0.60143800  0.60143800  1
  Pb  Pb1  1  0.20023400  0.20023400  0.20023400  1
  Pb  Pb2  1  0.79976600  0.79976600  0.79976600  1
  Pb  Pb3  1  0.39856200  0.39856200  0.39856200  1
loop_
_geom_bond_atom_site_label_1
_geom_bond_atom_site_label_2
_geom_bond_distance
_geom_bond_site_symmetry_2
In0 Te3 3.250334 1_455
In0 Te3 3.250334 1_545
In0 Te0 3.250334 1_454
In0 Te0 3.250334 1_544
In0 Te3 3.250335 1_554
In0 Te0 3.250335 1_445
Pb0 Te3 3.207059 1_565
Pb0 Te3 3.207059 1_655
Pb0 Te3 3.207060 1_556
Pb0 Te4 3.308628 1_545
Pb0 Te4 3.308628 1_455
Pb0 Te4 3.308628 1_554
Pb1 Te4 3.235842 1_544
Pb1 Te4 3.235842 1_454
Pb1 Te4 3.235842 1_445
Pb1 Te1 3.259672 1_545
Pb1 Te1 3.259672 1_455
Pb1 Te1 3.259672 1_554
Pb2 Te2 3.235842 1_566
Pb2 Te2 3.235842 1_656
Pb2 Te2 3.235842 1_665
Pb2 Te1 3.259672 1_565
Pb2 Te1 3.259672 1_655
Pb2 Te1 3.259672 1_556
Pb3 Te0 3.207059 1_545
Pb3 Te0 3.207059 1_455
Pb3 Te0 3.207060 1_554
Pb3 Te2 3.308628 1_655
Pb3 Te2 3.308628 1_565
Pb3 Te2 3.308628 1_556
