# generated using pymatgen
data_RhWN5ClO4
_symmetry_space_group_name_H-M   'P 1'
_cell_length_a   5.56758600
_cell_length_b   9.87739300
_cell_length_c   17.11411600
_cell_angle_alpha   90.00000000
_cell_angle_beta   90.00000000
_cell_angle_gamma   90.00000000
_symmetry_Int_Tables_number   1
_chemical_formula_structural   RhWN5ClO4
_chemical_formula_sum   'Rh4 W4 N20 Cl4 O16'
_cell_volume   941.16060272
_cell_formula_units_Z   4
loop_
 _symmetry_equiv_pos_site_id
 _symmetry_equiv_pos_as_xyz
  1  'x, y, z'
loop_
 _atom_site_type_symbol
 _atom_site_label
 _atom_site_symmetry_multiplicity
 _atom_site_fract_x
 _atom_site_fract_y
 _atom_site_fract_z
 _atom_site_occupancy
  Rh  Rh0  1  0.75000000  0.37525000  0.82706700  1
  Rh  Rh1  1  0.75000000  0.12475000  0.32706700  1
  Rh  Rh2  1  0.25000000  0.62475000  0.17293300  1
  Rh  Rh3  1  0.25000000  0.87525000  0.67293300  1
  W  W0  1  0.25000000  0.43293700  0.57863200  1
  W  W1  1  0.25000000  0.06706300  0.07863200  1
  W  W2  1  0.75000000  0.56706300  0.42136800  1
  W  W3  1  0.75000000  0.93293700  0.92136800  1
  N  N0  1  0.50964900  0.51139600  0.87836000  1
  N  N1  1  0.99035100  0.98860400  0.37836000  1
  N  N2  1  0.00964900  0.48860400  0.12164000  1
  N  N3  1  0.49035100  0.01139600  0.62164000  1
  N  N4  1  0.49035100  0.48860400  0.12164000  1
  N  N5  1  0.00964900  0.01139600  0.62164000  1
  N  N6  1  0.99035100  0.51139600  0.87836000  1
  N  N7  1  0.50964900  0.98860400  0.37836000  1
  N  N8  1  0.75000000  0.39309100  0.72900500  1
  N  N9  1  0.75000000  0.10690900  0.22900500  1
  N  N10  1  0.25000000  0.60690900  0.27099500  1
  N  N11  1  0.25000000  0.89309100  0.77099500  1
  N  N12  1  0.55648100  0.22373500  0.86306600  1
  N  N13  1  0.94351900  0.27626500  0.36306600  1
  N  N14  1  0.05648100  0.77626500  0.13693400  1
  N  N15  1  0.44351900  0.72373500  0.63693400  1
  N  N16  1  0.44351900  0.77626500  0.13693400  1
  N  N17  1  0.05648100  0.72373500  0.63693400  1
  N  N18  1  0.94351900  0.22373500  0.86306600  1
  N  N19  1  0.55648100  0.27626500  0.36306600  1
  Cl  Cl0  1  0.75000000  0.44627700  0.10683800  1
  Cl  Cl1  1  0.75000000  0.05372300  0.60683800  1
  Cl  Cl2  1  0.25000000  0.55372300  0.89316200  1
  Cl  Cl3  1  0.25000000  0.94627700  0.39316200  1
  O  O0  1  0.00178100  0.33771000  0.61106900  1
  O  O1  1  0.49821900  0.16229000  0.11106900  1
  O  O2  1  0.50178100  0.66229000  0.38893100  1
  O  O3  1  0.99821900  0.83771000  0.88893100  1
  O  O4  1  0.99821900  0.66229000  0.38893100  1
  O  O5  1  0.50178100  0.83771000  0.88893100  1
  O  O6  1  0.49821900  0.33771000  0.61106900  1
  O  O7  1  0.00178100  0.16229000  0.11106900  1
  O  O8  1  0.25000000  0.62028800  0.64565000  1
  O  O9  1  0.25000000  0.87971200  0.14565000  1
  O  O10  1  0.75000000  0.37971200  0.35435000  1
  O  O11  1  0.75000000  0.12028800  0.85435000  1
  O  O12  1  0.25000000  0.43043700  0.47460900  1
  O  O13  1  0.25000000  0.06956300  0.97460900  1
  O  O14  1  0.75000000  0.56956300  0.52539100  1
  O  O15  1  0.75000000  0.93043700  0.02539100  1
loop_
_geom_bond_atom_site_label_1
_geom_bond_atom_site_label_2
_geom_bond_distance
_geom_bond_site_symmetry_2
N0 Rh0 2.090384 1_555
N1 Rh1 2.090384 1_565
N2 Rh2 2.090384 1_555
N3 Rh3 2.090384 1_545
N4 Rh2 2.090384 1_555
N5 Rh3 2.090384 1_545
N6 Rh0 2.090384 1_555
N7 Rh1 2.090384 1_565
N8 Rh0 1.687471 1_555
N9 Rh1 1.687471 1_555
N10 Rh2 1.687471 1_555
N11 Rh3 1.687471 1_555
N12 O11 1.492368 1_555
N12 Rh0 1.944264 1_555
N13 O10 1.492368 1_555
N13 Rh1 1.944264 1_555
N14 O9 1.492368 1_555
N14 Rh2 1.944264 1_555
N15 O8 1.492368 1_555
N15 Rh3 1.944264 1_555
N16 O9 1.492368 1_555
N16 Rh2 1.944264 1_555
N17 O8 1.492368 1_555
N17 Rh3 1.944264 1_555
N18 O11 1.492368 1_555
N18 Rh0 1.944264 1_555
N19 O10 1.492368 1_555
N19 Rh1 1.944264 1_555
Cl0 N4 1.526033 1_555
Cl0 N2 1.526033 1_655
Cl1 N5 1.526033 1_655
Cl1 N3 1.526033 1_555
Cl2 N0 1.526033 1_555
Cl2 N6 1.526033 1_455
Cl3 N1 1.526033 1_455
Cl3 N7 1.526033 1_555
O0 W0 1.761465 1_555
O1 W1 1.761465 1_555
O2 W2 1.761465 1_555
O3 W3 1.761465 1_555
O4 W2 1.761465 1_555
O5 W3 1.761465 1_555
O6 W0 1.761465 1_555
O7 W1 1.761465 1_555
O8 W0 2.177154 1_555
O9 W1 2.177154 1_565
O10 W2 2.177154 1_555
O11 W3 2.177154 1_545
O12 W0 1.780433 1_555
O13 W1 1.780433 1_556
O14 W2 1.780433 1_555
O15 W3 1.780433 1_554
