# generated using pymatgen
data_RbYbS2O9
_symmetry_space_group_name_H-M   'P 1'
_cell_length_a   8.86353500
_cell_length_b   10.23471100
_cell_length_c   10.37731623
_cell_angle_alpha   61.44253218
_cell_angle_beta   90.00000000
_cell_angle_gamma   90.00000000
_symmetry_Int_Tables_number   1
_chemical_formula_structural   RbYbS2O9
_chemical_formula_sum   'Rb4 Yb4 S8 O36'
_cell_volume   826.85491130
_cell_formula_units_Z   4
loop_
 _symmetry_equiv_pos_site_id
 _symmetry_equiv_pos_as_xyz
  1  'x, y, z'
loop_
 _atom_site_type_symbol
 _atom_site_label
 _atom_site_symmetry_multiplicity
 _atom_site_fract_x
 _atom_site_fract_y
 _atom_site_fract_z
 _atom_site_occupancy
  Rb  Rb0  1  0.17916700  0.32006400  0.21748900  1
  Rb  Rb1  1  0.67916700  0.17993600  0.78251100  1
  Rb  Rb2  1  0.82083300  0.67993600  0.78251100  1
  Rb  Rb3  1  0.32083300  0.82006400  0.21748900  1
  Yb  Yb0  1  0.61334800  0.48077400  0.24198300  1
  Yb  Yb1  1  0.11334800  0.01922600  0.75801700  1
  Yb  Yb2  1  0.38665200  0.51922600  0.75801700  1
  Yb  Yb3  1  0.88665200  0.98077400  0.24198300  1
  S  S0  1  0.62671200  0.31125900  0.06816500  1
  S  S1  1  0.12671200  0.18874100  0.93183500  1
  S  S2  1  0.37328800  0.68874100  0.93183500  1
  S  S3  1  0.87328800  0.81125900  0.06816500  1
  S  S4  1  0.81203500  0.12480000  0.47659600  1
  S  S5  1  0.31203500  0.37520000  0.52340400  1
  S  S6  1  0.18796500  0.87520000  0.52340400  1
  S  S7  1  0.68796500  0.62480000  0.47659600  1
  O  O0  1  0.50221600  0.30380300  0.16653700  1
  O  O1  1  0.00221600  0.19619700  0.83346300  1
  O  O2  1  0.49778400  0.69619700  0.83346300  1
  O  O3  1  0.99778400  0.80380300  0.16653700  1
  O  O4  1  0.57108600  0.35941900  0.91677500  1
  O  O5  1  0.07108600  0.14058100  0.08322500  1
  O  O6  1  0.42891400  0.64058100  0.08322500  1
  O  O7  1  0.92891400  0.85941900  0.91677500  1
  O  O8  1  0.69518500  0.15899400  0.12001000  1
  O  O9  1  0.19518500  0.34100600  0.87999000  1
  O  O10  1  0.30481500  0.84100600  0.87999000  1
  O  O11  1  0.80481500  0.65899400  0.12001000  1
  O  O12  1  0.74145500  0.41635700  0.06888800  1
  O  O13  1  0.24145500  0.08364300  0.93111200  1
  O  O14  1  0.25854500  0.58364300  0.93111200  1
  O  O15  1  0.75854500  0.91635700  0.06888800  1
  O  O16  1  0.89514200  0.10874100  0.60637200  1
  O  O17  1  0.39514200  0.39125900  0.39362800  1
  O  O18  1  0.10485800  0.89125900  0.39362800  1
  O  O19  1  0.60485800  0.60874100  0.60637200  1
  O  O20  1  0.71241700  0.26044800  0.42231400  1
  O  O21  1  0.21241700  0.23955200  0.57768600  1
  O  O22  1  0.28758300  0.73955200  0.57768600  1
  O  O23  1  0.78758300  0.76044800  0.42231400  1
  O  O24  1  0.91187000  0.13470300  0.35902200  1
  O  O25  1  0.41187000  0.36529700  0.64097800  1
  O  O26  1  0.08813000  0.86529700  0.64097800  1
  O  O27  1  0.58813000  0.63470300  0.35902200  1
  O  O28  1  0.70700600  0.99373400  0.52553700  1
  O  O29  1  0.20700600  0.50626600  0.47446300  1
  O  O30  1  0.29299400  0.00626600  0.47446300  1
  O  O31  1  0.79299400  0.49373400  0.52553700  1
  O  O32  1  0.87847500  0.45852000  0.34562900  1
  O  O33  1  0.37847500  0.04148000  0.65437100  1
  O  O34  1  0.12152500  0.54148000  0.65437100  1
  O  O35  1  0.62152500  0.95852000  0.34562900  1
loop_
_geom_bond_atom_site_label_1
_geom_bond_atom_site_label_2
_geom_bond_distance
_geom_bond_site_symmetry_2
O0 S0 1.480240 1_555
O0 Yb0 2.493923 1_555
O0 Rb0 2.930906 1_555
O1 S1 1.480240 1_555
O1 Yb1 2.493923 1_555
O1 Rb1 2.930906 1_455
O2 S2 1.480240 1_555
O2 Yb2 2.493923 1_555
O2 Rb2 2.930906 1_555
O3 S3 1.480240 1_555
O3 Yb3 2.493923 1_555
O3 Rb3 2.930906 1_655
O4 S0 1.487885 1_556
O4 Yb2 2.342102 1_555
O4 Rb1 2.946259 1_555
O5 S1 1.487885 1_554
O5 Yb3 2.342102 1_445
O5 Rb0 2.946259 1_555
O6 S2 1.487885 1_554
O6 Yb0 2.342102 1_555
O6 Rb3 2.946259 1_555
O7 S3 1.487885 1_556
O7 Yb1 2.342102 1_665
O7 Rb2 2.946259 1_555
O8 S0 1.511544 1_555
O8 Yb3 2.366835 1_545
O9 S1 1.511544 1_555
O9 Yb2 2.366835 1_555
O10 S2 1.511544 1_555
O10 Yb1 2.366835 1_565
O11 S3 1.511544 1_555
O11 Yb0 2.366835 1_555
O12 S0 1.482949 1_555
O12 Yb0 2.466329 1_555
O12 Rb2 2.989857 1_554
O13 S1 1.482949 1_555
O13 Yb1 2.466329 1_555
O13 Rb3 2.989857 1_546
O14 S2 1.482949 1_555
O14 Yb2 2.466329 1_555
O14 Rb0 2.989857 1_556
O15 S3 1.482949 1_555
O15 Yb3 2.466329 1_555
O15 Rb1 2.989857 1_564
O16 S4 1.473660 1_555
O16 Yb1 2.382860 1_655
O16 Rb1 2.968151 1_555
O17 S5 1.473660 1_555
O17 Yb0 2.382860 1_555
O17 Rb0 2.968151 1_555
O18 S6 1.473660 1_555
O18 Yb3 2.382860 1_455
O18 Rb3 2.968151 1_555
O19 S7 1.473660 1_555
O19 Yb2 2.382860 1_555
O19 Rb2 2.968151 1_555
O20 S4 1.508865 1_555
O20 Yb0 2.307252 1_555
O21 S5 1.508865 1_555
O21 Yb1 2.307252 1_555
O22 S6 1.508865 1_555
O22 Yb2 2.307252 1_555
O23 S7 1.508865 1_555
O23 Yb3 2.307252 1_555
O24 S4 1.470960 1_555
O24 Yb3 2.415870 1_545
O24 Rb0 2.950481 1_655
O25 S5 1.470960 1_555
O25 Yb2 2.415870 1_555
O25 Rb1 2.950481 1_555
O26 S6 1.470960 1_555
O26 Yb1 2.415870 1_565
O26 Rb2 2.950481 1_455
O27 S7 1.470960 1_555
O27 Yb0 2.415870 1_555
O27 Rb3 2.950481 1_555
O28 S4 1.507523 1_565
O28 Rb2 3.202415 1_555
O29 S5 1.507523 1_555
O29 Rb3 3.202415 1_555
O30 S6 1.507523 1_545
O30 Rb0 3.202415 1_555
O31 S7 1.507523 1_555
O31 Rb1 3.202415 1_555
O32 Yb0 2.548888 1_555
O33 Yb1 2.548888 1_555
O34 Yb2 2.548888 1_555
O35 Yb3 2.548888 1_555
