# generated using pymatgen
data_Pr2SbAu3
_symmetry_space_group_name_H-M   'P 1'
_cell_length_a   3.72731300
_cell_length_b   4.71887000
_cell_length_c   8.49148500
_cell_angle_alpha   90.00000000
_cell_angle_beta   90.00000000
_cell_angle_gamma   90.00000000
_symmetry_Int_Tables_number   1
_chemical_formula_structural   Pr2SbAu3
_chemical_formula_sum   'Pr2 Sb1 Au3'
_cell_volume   149.35422889
_cell_formula_units_Z   1
loop_
 _symmetry_equiv_pos_site_id
 _symmetry_equiv_pos_as_xyz
  1  'x, y, z'
loop_
 _atom_site_type_symbol
 _atom_site_label
 _atom_site_symmetry_multiplicity
 _atom_site_fract_x
 _atom_site_fract_y
 _atom_site_fract_z
 _atom_site_occupancy
  Pr  Pr0  1  0.00000000  0.50000000  0.98833900  1
  Pr  Pr1  1  0.00000000  0.00000000  0.51303500  1
  Sb  Sb0  1  0.50000000  0.50000000  0.33547700  1
  Au  Au0  1  0.50000000  0.00000000  0.83419200  1
  Au  Au1  1  0.50000000  0.00000000  0.16000400  1
  Au  Au2  1  0.50000000  0.50000000  0.66895300  1
loop_
_geom_bond_atom_site_label_1
_geom_bond_atom_site_label_2
_geom_bond_distance
_geom_bond_site_symmetry_2
Pr0 Sb0 3.487442 1_556
Pr0 Sb0 3.487442 1_456
Pr1 Sb0 3.363540 1_545
Pr1 Sb0 3.363540 1_555
Pr1 Sb0 3.363540 1_445
Pr1 Sb0 3.363540 1_455
Au0 Au2 2.745121 1_545
Au0 Au2 2.745121 1_555
Au0 Au1 2.766628 1_556
Au0 Pr0 3.279248 1_555
Au0 Pr0 3.279248 1_655
Au0 Pr0 3.279248 1_545
Au0 Pr0 3.279248 1_645
Au0 Pr1 3.303073 1_655
Au0 Pr1 3.303073 1_555
Au1 Sb0 2.790540 1_545
Au1 Sb0 2.790540 1_555
Au1 Pr0 3.341409 1_544
Au1 Pr0 3.341409 1_654
Au1 Pr0 3.341409 1_644
Au1 Pr0 3.341409 1_554
Au1 Pr1 3.529839 1_655
Au1 Pr1 3.529839 1_555
Au2 Sb0 2.831706 1_555
Au2 Pr1 3.285279 1_555
Au2 Pr1 3.285279 1_665
Au2 Pr1 3.285279 1_655
Au2 Pr1 3.285279 1_565
Au2 Pr0 3.290668 1_555
Au2 Pr0 3.290668 1_655
