# generated using pymatgen
data_Mg3Fe3(AsO4)4
_symmetry_space_group_name_H-M   'P 1'
_cell_length_a   5.23566700
_cell_length_b   8.66009100
_cell_length_c   16.27423041
_cell_angle_alpha   68.50495843
_cell_angle_beta   90.00000000
_cell_angle_gamma   90.00000000
_symmetry_Int_Tables_number   1
_chemical_formula_structural   Mg3Fe3(AsO4)4
_chemical_formula_sum   'Mg6 Fe6 As8 O32'
_cell_volume   686.57445017
_cell_formula_units_Z   2
loop_
 _symmetry_equiv_pos_site_id
 _symmetry_equiv_pos_as_xyz
  1  'x, y, z'
loop_
 _atom_site_type_symbol
 _atom_site_label
 _atom_site_symmetry_multiplicity
 _atom_site_fract_x
 _atom_site_fract_y
 _atom_site_fract_z
 _atom_site_occupancy
  Mg  Mg0  1  0.55952500  0.31637100  0.21078500  1
  Mg  Mg1  1  0.05952500  0.68362900  0.28921500  1
  Mg  Mg2  1  0.44047500  0.68362900  0.78921500  1
  Mg  Mg3  1  0.94047500  0.31637100  0.71078500  1
  Mg  Mg4  1  0.50000000  0.00000000  0.50000000  1
  Mg  Mg5  1  0.00000000  0.00000000  0.00000000  1
  Fe  Fe0  1  0.48967000  0.19788800  0.62509400  1
  Fe  Fe1  1  0.51033000  0.80211200  0.37490600  1
  Fe  Fe2  1  0.98967000  0.80211200  0.87490600  1
  Fe  Fe3  1  0.01033000  0.19788800  0.12509400  1
  Fe  Fe4  1  0.00000000  0.50000000  0.50000000  1
  Fe  Fe5  1  0.50000000  0.50000000  0.00000000  1
  As  As0  1  0.98433400  0.03307400  0.35119900  1
  As  As1  1  0.49880800  0.41586200  0.39508800  1
  As  As2  1  0.99880800  0.58413800  0.10491200  1
  As  As3  1  0.00119200  0.41586200  0.89508800  1
  As  As4  1  0.01566600  0.96692600  0.64880100  1
  As  As5  1  0.50119200  0.58413800  0.60491200  1
  As  As6  1  0.51566600  0.03307400  0.85119900  1
  As  As7  1  0.48433400  0.96692600  0.14880100  1
  O  O0  1  0.40498600  0.81419600  0.24965600  1
  O  O1  1  0.94251300  0.75394800  0.01149100  1
  O  O2  1  0.42042200  0.39339000  0.30017600  1
  O  O3  1  0.39452800  0.15808400  0.15605000  1
  O  O4  1  0.57957800  0.60661000  0.69982400  1
  O  O5  1  0.09501400  0.81419600  0.74965600  1
  O  O6  1  0.92042200  0.60661000  0.19982400  1
  O  O7  1  0.70402900  0.50587300  0.89357100  1
  O  O8  1  0.68721500  0.07692200  0.92653700  1
  O  O9  1  0.59501400  0.18580400  0.75034400  1
  O  O10  1  0.10547200  0.15808400  0.65605000  1
  O  O11  1  0.29597100  0.49412700  0.10642900  1
  O  O12  1  0.28951800  0.57095600  0.40336800  1
  O  O13  1  0.31278500  0.92307800  0.07346300  1
  O  O14  1  0.69219400  0.98964900  0.62601100  1
  O  O15  1  0.19219400  0.01035100  0.87398900  1
  O  O16  1  0.78951800  0.42904400  0.09663200  1
  O  O17  1  0.07957800  0.39339000  0.80017600  1
  O  O18  1  0.18721500  0.92307800  0.57346300  1
  O  O19  1  0.20402900  0.49412700  0.60642900  1
  O  O20  1  0.80780600  0.98964900  0.12601100  1
  O  O21  1  0.30780600  0.01035100  0.37398900  1
  O  O22  1  0.05748700  0.24605200  0.98850900  1
  O  O23  1  0.44251300  0.24605200  0.48850900  1
  O  O24  1  0.71048200  0.42904400  0.59663200  1
  O  O25  1  0.90498600  0.18580400  0.25034400  1
  O  O26  1  0.60547200  0.84191600  0.84395000  1
  O  O27  1  0.81278500  0.07692200  0.42653700  1
  O  O28  1  0.55748700  0.75394800  0.51149100  1
  O  O29  1  0.79597100  0.50587300  0.39357100  1
  O  O30  1  0.21048200  0.57095600  0.90336800  1
  O  O31  1  0.89452800  0.84191600  0.34395000  1
loop_
_geom_bond_atom_site_label_1
_geom_bond_atom_site_label_2
_geom_bond_distance
_geom_bond_site_symmetry_2
Mg0 O2 1.950061 1_555
Mg0 O3 2.076924 1_555
Mg0 O25 2.104992 1_555
Mg0 O16 2.127189 1_555
Mg0 O11 2.289571 1_555
Mg1 O6 1.950061 1_455
Mg1 O31 2.076924 1_455
Mg1 O0 2.104992 1_555
Mg1 O12 2.127189 1_555
Mg1 O29 2.289571 1_455
Mg2 O4 1.950061 1_555
Mg2 O26 2.076924 1_555
Mg2 O5 2.104992 1_555
Mg2 O30 2.127189 1_555
Mg2 O7 2.289571 1_555
Mg3 O17 1.950061 1_655
Mg3 O10 2.076924 1_655
Mg3 O9 2.104992 1_555
Mg3 O24 2.127189 1_555
Mg3 O19 2.289571 1_655
Mg4 O27 1.992816 1_555
Mg4 O18 1.992816 1_545
Mg4 O23 2.091408 1_555
Mg4 O28 2.091408 1_545
Mg4 O14 2.256410 1_545
Mg4 O21 2.256410 1_555
Mg5 O13 1.992816 1_545
Mg5 O8 1.992816 1_454
Mg5 O22 2.091408 1_554
Mg5 O1 2.091408 1_445
Mg5 O20 2.256410 1_445
Mg5 O15 2.256410 1_554
Fe0 O10 2.071623 1_555
Fe0 O9 2.076943 1_555
Fe0 O14 2.087337 1_545
Fe0 O23 2.120470 1_555
Fe0 O24 2.208829 1_555
Fe1 O31 2.071623 1_555
Fe1 O0 2.076943 1_555
Fe1 O21 2.087337 1_565
Fe1 O28 2.120470 1_555
Fe1 O12 2.208829 1_555
Fe2 O26 2.071623 1_555
Fe2 O5 2.076943 1_655
Fe2 O15 2.087337 1_665
Fe2 O1 2.120470 1_556
Fe2 O30 2.208829 1_655
Fe3 O3 2.071623 1_555
Fe3 O25 2.076943 1_455
Fe3 O20 2.087337 1_445
Fe3 O22 2.120470 1_554
Fe3 O16 2.208829 1_455
Fe4 O19 2.019687 1_555
Fe4 O29 2.019687 1_455
Fe4 O24 2.107185 1_455
Fe4 O12 2.107185 1_555
Fe5 O7 2.019687 1_554
Fe5 O11 2.019687 1_555
Fe5 O16 2.107185 1_555
Fe5 O30 2.107185 1_554
As0 O27 1.671928 1_555
As0 O21 1.729465 1_655
As0 O25 1.739268 1_555
As0 O31 1.765962 1_545
As1 O2 1.677034 1_555
As1 O23 1.709517 1_555
As1 O29 1.736315 1_555
As1 O12 1.776374 1_555
As2 O6 1.677034 1_555
As2 O1 1.709517 1_555
As2 O11 1.736315 1_655
As2 O16 1.776374 1_555
As3 O17 1.677034 1_555
As3 O22 1.709517 1_555
As3 O7 1.736315 1_455
As3 O30 1.776374 1_555
As4 O18 1.671928 1_555
As4 O14 1.729465 1_455
As4 O5 1.739268 1_555
As4 O10 1.765962 1_565
As5 O4 1.677034 1_555
As5 O28 1.709517 1_555
As5 O19 1.736315 1_555
As5 O24 1.776374 1_555
As6 O8 1.671928 1_555
As6 O15 1.729465 1_555
As6 O9 1.739268 1_555
As6 O26 1.765962 1_545
As7 O13 1.671928 1_555
As7 O20 1.729465 1_555
As7 O0 1.739268 1_555
As7 O3 1.765962 1_565
