# generated using pymatgen
data_Mn3Ga2(GeO4)3
_symmetry_space_group_name_H-M   'P 1'
_cell_length_a   10.55969716
_cell_length_b   10.55969716
_cell_length_c   10.55969716
_cell_angle_alpha   109.47122063
_cell_angle_beta   109.47122063
_cell_angle_gamma   109.47122063
_symmetry_Int_Tables_number   1
_chemical_formula_structural   Mn3Ga2(GeO4)3
_chemical_formula_sum   'Mn12 Ga8 Ge12 O48'
_cell_volume   906.42630316
_cell_formula_units_Z   4
loop_
 _symmetry_equiv_pos_site_id
 _symmetry_equiv_pos_as_xyz
  1  'x, y, z'
loop_
 _atom_site_type_symbol
 _atom_site_label
 _atom_site_symmetry_multiplicity
 _atom_site_fract_x
 _atom_site_fract_y
 _atom_site_fract_z
 _atom_site_occupancy
  Mn  Mn0  1  0.25000000  0.37500000  0.12500000  1
  Mn  Mn1  1  0.75000000  0.62500000  0.87500000  1
  Mn  Mn2  1  0.75000000  0.12500000  0.37500000  1
  Mn  Mn3  1  0.12500000  0.25000000  0.37500000  1
  Mn  Mn4  1  0.37500000  0.75000000  0.12500000  1
  Mn  Mn5  1  0.25000000  0.87500000  0.62500000  1
  Mn  Mn6  1  0.87500000  0.75000000  0.62500000  1
  Mn  Mn7  1  0.62500000  0.25000000  0.87500000  1
  Mn  Mn8  1  0.37500000  0.12500000  0.25000000  1
  Mn  Mn9  1  0.62500000  0.87500000  0.75000000  1
  Mn  Mn10  1  0.12500000  0.37500000  0.75000000  1
  Mn  Mn11  1  0.87500000  0.62500000  0.25000000  1
  Ga  Ga0  1  0.00000000  0.00000000  0.00000000  1
  Ga  Ga1  1  0.50000000  0.00000000  0.50000000  1
  Ga  Ga2  1  0.00000000  0.50000000  0.50000000  1
  Ga  Ga3  1  0.50000000  0.00000000  0.00000000  1
  Ga  Ga4  1  0.50000000  0.50000000  0.00000000  1
  Ga  Ga5  1  0.50000000  0.50000000  0.50000000  1
  Ga  Ga6  1  0.00000000  0.00000000  0.50000000  1
  Ga  Ga7  1  0.00000000  0.50000000  0.00000000  1
  Ge  Ge0  1  0.25000000  0.62500000  0.37500000  1
  Ge  Ge1  1  0.75000000  0.37500000  0.62500000  1
  Ge  Ge2  1  0.75000000  0.87500000  0.12500000  1
  Ge  Ge3  1  0.37500000  0.25000000  0.62500000  1
  Ge  Ge4  1  0.62500000  0.75000000  0.37500000  1
  Ge  Ge5  1  0.25000000  0.12500000  0.87500000  1
  Ge  Ge6  1  0.12500000  0.75000000  0.87500000  1
  Ge  Ge7  1  0.87500000  0.25000000  0.12500000  1
  Ge  Ge8  1  0.62500000  0.37500000  0.25000000  1
  Ge  Ge9  1  0.37500000  0.62500000  0.75000000  1
  Ge  Ge10  1  0.87500000  0.12500000  0.75000000  1
  Ge  Ge11  1  0.12500000  0.87500000  0.25000000  1
  O  O0  1  0.47772400  0.37582200  0.29608100  1
  O  O1  1  0.52227600  0.62417800  0.70391900  1
  O  O2  1  0.57974100  0.18164300  0.20391900  1
  O  O3  1  0.92025900  0.12417800  0.60190100  1
  O  O4  1  0.29608100  0.47772400  0.37582200  1
  O  O5  1  0.31835700  0.92025900  0.29608100  1
  O  O6  1  0.42025900  0.81835700  0.79608100  1
  O  O7  1  0.07974100  0.87582200  0.39809900  1
  O  O8  1  0.70391900  0.52227600  0.62417800  1
  O  O9  1  0.68164300  0.07974100  0.70391900  1
  O  O10  1  0.02227600  0.31835700  0.89809900  1
  O  O11  1  0.20391900  0.57974100  0.18164300  1
  O  O12  1  0.12417800  0.02227600  0.20391900  1
  O  O13  1  0.97772400  0.68164300  0.10190100  1
  O  O14  1  0.79608100  0.42025900  0.81835700  1
  O  O15  1  0.87582200  0.97772400  0.79608100  1
  O  O16  1  0.60190100  0.92025900  0.12417800  1
  O  O17  1  0.18164300  0.47772400  0.60190100  1
  O  O18  1  0.39809900  0.07974100  0.87582200  1
  O  O19  1  0.81835700  0.52227600  0.39809900  1
  O  O20  1  0.89809900  0.02227600  0.31835700  1
  O  O21  1  0.37582200  0.57974100  0.89809900  1
  O  O22  1  0.10190100  0.97772400  0.68164300  1
  O  O23  1  0.62417800  0.42025900  0.10190100  1
  O  O24  1  0.37582200  0.29608100  0.47772400  1
  O  O25  1  0.57974100  0.89809900  0.37582200  1
  O  O26  1  0.62417800  0.70391900  0.52227600  1
  O  O27  1  0.42025900  0.10190100  0.62417800  1
  O  O28  1  0.12417800  0.60190100  0.92025900  1
  O  O29  1  0.02227600  0.20391900  0.12417800  1
  O  O30  1  0.87582200  0.39809900  0.07974100  1
  O  O31  1  0.97772400  0.79608100  0.87582200  1
  O  O32  1  0.31835700  0.89809900  0.02227600  1
  O  O33  1  0.92025900  0.29608100  0.31835700  1
  O  O34  1  0.68164300  0.10190100  0.97772400  1
  O  O35  1  0.07974100  0.70391900  0.68164300  1
  O  O36  1  0.18164300  0.20391900  0.57974100  1
  O  O37  1  0.47772400  0.60190100  0.18164300  1
  O  O38  1  0.81835700  0.79608100  0.42025900  1
  O  O39  1  0.52227600  0.39809900  0.81835700  1
  O  O40  1  0.29608100  0.31835700  0.92025900  1
  O  O41  1  0.70391900  0.68164300  0.07974100  1
  O  O42  1  0.20391900  0.12417800  0.02227600  1
  O  O43  1  0.79608100  0.87582200  0.97772400  1
  O  O44  1  0.89809900  0.37582200  0.57974100  1
  O  O45  1  0.10190100  0.62417800  0.42025900  1
  O  O46  1  0.60190100  0.18164300  0.47772400  1
  O  O47  1  0.39809900  0.81835700  0.52227600  1
loop_
_geom_bond_atom_site_label_1
_geom_bond_atom_site_label_2
_geom_bond_distance
_geom_bond_site_symmetry_2
Mn0 O40 2.302625 1_554
Mn0 O4 2.302625 1_555
Mn0 O42 2.302625 1_555
Mn0 O11 2.302625 1_555
Mn0 O37 2.475026 1_555
Mn0 O10 2.475026 1_554
Mn0 O29 2.475032 1_555
Mn0 O0 2.475032 1_555
Mn1 O8 2.302625 1_555
Mn1 O43 2.302625 1_555
Mn1 O14 2.302625 1_555
Mn1 O41 2.302625 1_556
Mn1 O39 2.475026 1_555
Mn1 O13 2.475026 1_556
Mn1 O31 2.475032 1_555
Mn1 O1 2.475032 1_555
Mn2 O16 2.302625 1_545
Mn2 O44 2.302625 1_555
Mn2 O46 2.302635 1_555
Mn2 O20 2.302635 1_555
Mn2 O25 2.475025 1_545
Mn2 O3 2.475025 1_555
Mn2 O33 2.475032 1_555
Mn2 O2 2.475032 1_555
Mn3 O33 2.302625 1_455
Mn3 O36 2.302625 1_555
Mn3 O29 2.302625 1_555
Mn3 O24 2.302625 1_555
Mn3 O17 2.475026 1_555
Mn3 O20 2.475026 1_455
Mn3 O4 2.475032 1_555
Mn3 O12 2.475032 1_555
Mn4 O25 2.302625 1_555
Mn4 O28 2.302625 1_554
Mn4 O32 2.302635 1_555
Mn4 O37 2.302635 1_555
Mn4 O21 2.475025 1_554
Mn4 O16 2.475025 1_555
Mn4 O11 2.475032 1_555
Mn4 O5 2.475032 1_555
Mn5 O45 2.302625 1_555
Mn5 O18 2.302625 1_565
Mn5 O22 2.302635 1_555
Mn5 O47 2.302635 1_555
Mn5 O27 2.475025 1_565
Mn5 O7 2.475025 1_555
Mn5 O35 2.475032 1_555
Mn5 O6 2.475032 1_555
Mn6 O26 2.302625 1_555
Mn6 O31 2.302625 1_555
Mn6 O38 2.302625 1_555
Mn6 O35 2.302625 1_655
Mn6 O19 2.475026 1_555
Mn6 O22 2.475026 1_655
Mn6 O8 2.475032 1_555
Mn6 O15 2.475032 1_555
Mn7 O27 2.302625 1_555
Mn7 O30 2.302625 1_556
Mn7 O34 2.302635 1_555
Mn7 O39 2.302635 1_555
Mn7 O23 2.475025 1_556
Mn7 O18 2.475025 1_555
Mn7 O14 2.475032 1_555
Mn7 O9 2.475032 1_555
Mn8 O5 2.302625 1_545
Mn8 O0 2.302625 1_555
Mn8 O2 2.302625 1_555
Mn8 O12 2.302625 1_555
Mn8 O46 2.475026 1_555
Mn8 O32 2.475026 1_545
Mn8 O24 2.475032 1_555
Mn8 O42 2.475032 1_555
Mn9 O1 2.302625 1_555
Mn9 O15 2.302625 1_555
Mn9 O6 2.302625 1_555
Mn9 O9 2.302625 1_565
Mn9 O47 2.475026 1_555
Mn9 O34 2.475026 1_565
Mn9 O43 2.475032 1_555
Mn9 O26 2.475032 1_555
Mn10 O3 2.302625 1_455
Mn10 O21 2.302625 1_555
Mn10 O17 2.302635 1_555
Mn10 O10 2.302635 1_555
Mn10 O44 2.475025 1_455
Mn10 O28 2.475025 1_555
Mn10 O40 2.475032 1_555
Mn10 O36 2.475032 1_555
Mn11 O23 2.302625 1_555
Mn11 O7 2.302625 1_655
Mn11 O19 2.302635 1_555
Mn11 O13 2.302635 1_555
Mn11 O30 2.475025 1_555
Mn11 O45 2.475025 1_655
Mn11 O41 2.475032 1_555
Mn11 O38 2.475032 1_555
Ga0 O31 1.996464 1_444
Ga0 O15 1.996464 1_444
Ga0 O42 1.996464 1_555
Ga0 O12 1.996464 1_555
Ga0 O43 1.996464 1_444
Ga0 O29 1.996464 1_555
Ga1 O25 1.996459 1_545
Ga1 O27 1.996459 1_555
Ga1 O47 1.996461 1_545
Ga1 O46 1.996461 1_555
Ga1 O9 1.996464 1_555
Ga1 O5 1.996464 1_545
Ga2 O44 1.996459 1_455
Ga2 O45 1.996459 1_555
Ga2 O19 1.996461 1_455
Ga2 O17 1.996461 1_555
Ga2 O35 1.996464 1_555
Ga2 O33 1.996464 1_455
Ga3 O16 1.996459 1_545
Ga3 O18 1.996459 1_554
Ga3 O34 1.996461 1_554
Ga3 O32 1.996461 1_545
Ga3 O6 1.996464 1_544
Ga3 O2 1.996464 1_555
Ga4 O21 1.996459 1_554
Ga4 O23 1.996459 1_555
Ga4 O39 1.996461 1_554
Ga4 O37 1.996461 1_555
Ga4 O41 1.996464 1_555
Ga4 O40 1.996464 1_554
Ga5 O8 1.996464 1_555
Ga5 O26 1.996464 1_555
Ga5 O1 1.996464 1_555
Ga5 O4 1.996464 1_555
Ga5 O0 1.996464 1_555
Ga5 O24 1.996464 1_555
Ga6 O3 1.996459 1_455
Ga6 O7 1.996459 1_545
Ga6 O22 1.996461 1_545
Ga6 O20 1.996461 1_455
Ga6 O38 1.996464 1_445
Ga6 O36 1.996464 1_555
Ga7 O28 1.996459 1_554
Ga7 O30 1.996459 1_455
Ga7 O13 1.996461 1_455
Ga7 O10 1.996461 1_554
Ga7 O14 1.996464 1_454
Ga7 O11 1.996464 1_555
Ge0 O11 1.779371 1_555
Ge0 O4 1.779371 1_555
Ge0 O47 1.779373 1_555
Ge0 O45 1.779381 1_555
Ge1 O14 1.779371 1_555
Ge1 O8 1.779371 1_555
Ge1 O46 1.779373 1_555
Ge1 O44 1.779381 1_555
Ge2 O43 1.779371 1_554
Ge2 O41 1.779371 1_555
Ge2 O20 1.779373 1_565
Ge2 O16 1.779381 1_555
Ge3 O36 1.779371 1_555
Ge3 O24 1.779371 1_555
Ge3 O39 1.779373 1_555
Ge3 O27 1.779381 1_555
Ge4 O38 1.779371 1_555
Ge4 O26 1.779371 1_555
Ge4 O37 1.779373 1_555
Ge4 O25 1.779381 1_555
Ge5 O42 1.779371 1_556
Ge5 O40 1.779371 1_555
Ge5 O22 1.779373 1_545
Ge5 O18 1.779381 1_555
Ge6 O31 1.779371 1_455
Ge6 O35 1.779371 1_555
Ge6 O32 1.779373 1_556
Ge6 O28 1.779381 1_555
Ge7 O33 1.779371 1_555
Ge7 O29 1.779371 1_655
Ge7 O34 1.779373 1_554
Ge7 O30 1.779381 1_555
Ge8 O2 1.779371 1_555
Ge8 O0 1.779371 1_555
Ge8 O19 1.779373 1_555
Ge8 O23 1.779381 1_555
Ge9 O1 1.779371 1_555
Ge9 O6 1.779371 1_555
Ge9 O17 1.779373 1_555
Ge9 O21 1.779381 1_555
Ge10 O9 1.779371 1_555
Ge10 O15 1.779371 1_545
Ge10 O10 1.779373 1_655
Ge10 O3 1.779381 1_555
Ge11 O5 1.779371 1_555
Ge11 O12 1.779371 1_565
Ge11 O13 1.779373 1_455
Ge11 O7 1.779381 1_555
