# generated using pymatgen
data_AgH6C2N5O4
_symmetry_space_group_name_H-M   'P 1'
_cell_length_a   8.89712600
_cell_length_b   9.18628200
_cell_length_c   11.06388964
_cell_angle_alpha   61.45143196
_cell_angle_beta   90.00000000
_cell_angle_gamma   90.00000000
_symmetry_Int_Tables_number   1
_chemical_formula_structural   AgH6C2N5O4
_chemical_formula_sum   'Ag4 H24 C8 N20 O16'
_cell_volume   794.32049648
_cell_formula_units_Z   4
loop_
 _symmetry_equiv_pos_site_id
 _symmetry_equiv_pos_as_xyz
  1  'x, y, z'
loop_
 _atom_site_type_symbol
 _atom_site_label
 _atom_site_symmetry_multiplicity
 _atom_site_fract_x
 _atom_site_fract_y
 _atom_site_fract_z
 _atom_site_occupancy
  Ag  Ag0  1  0.45323000  0.31114500  0.54765300  1
  Ag  Ag1  1  0.04677000  0.31114500  0.04765300  1
  Ag  Ag2  1  0.54677000  0.68885500  0.45234700  1
  Ag  Ag3  1  0.95323000  0.68885500  0.95234700  1
  H  H0  1  0.40567500  0.39120300  0.27898600  1
  H  H1  1  0.09432500  0.39120300  0.77898600  1
  H  H2  1  0.59432500  0.60879700  0.72101400  1
  H  H3  1  0.90567500  0.60879700  0.22101400  1
  H  H4  1  0.65865600  0.08154500  0.51247600  1
  H  H5  1  0.84134400  0.08154500  0.01247600  1
  H  H6  1  0.34134400  0.91845500  0.48752400  1
  H  H7  1  0.15865600  0.91845500  0.98752400  1
  H  H8  1  0.72370300  0.04555000  0.37929000  1
  H  H9  1  0.77629700  0.04555000  0.87929000  1
  H  H10  1  0.27629700  0.95445000  0.62071000  1
  H  H11  1  0.22370300  0.95445000  0.12071000  1
  H  H12  1  0.39209100  0.40402800  0.73607800  1
  H  H13  1  0.10790900  0.40402800  0.23607800  1
  H  H14  1  0.60790900  0.59597200  0.26392200  1
  H  H15  1  0.89209100  0.59597200  0.76392200  1
  H  H16  1  0.33851000  0.20935600  0.79814800  1
  H  H17  1  0.16149000  0.20935600  0.29814800  1
  H  H18  1  0.66149000  0.79064400  0.20185200  1
  H  H19  1  0.83851000  0.79064400  0.70185200  1
  H  H20  1  0.51509600  0.25423800  0.80899000  1
  H  H21  1  0.98490400  0.25423800  0.30899000  1
  H  H22  1  0.48490400  0.74576200  0.19101000  1
  H  H23  1  0.01509600  0.74576200  0.69101000  1
  C  C0  1  0.54964300  0.23330400  0.18499100  1
  C  C1  1  0.95035700  0.23330400  0.68499100  1
  C  C2  1  0.45035700  0.76669600  0.81500900  1
  C  C3  1  0.04964300  0.76669600  0.31500900  1
  C  C4  1  0.55796100  0.22060800  0.32440300  1
  C  C5  1  0.94203900  0.22060800  0.82440300  1
  C  C6  1  0.44203900  0.77939200  0.67559700  1
  C  C7  1  0.05796100  0.77939200  0.17559700  1
  N  N0  1  0.44833000  0.13321500  0.16445700  1
  N  N1  1  0.05167000  0.13321500  0.66445700  1
  N  N2  1  0.55167000  0.86678500  0.83554300  1
  N  N3  1  0.94833000  0.86678500  0.33554300  1
  N  N4  1  0.63776900  0.35395500  0.08154100  1
  N  N5  1  0.86223100  0.35395500  0.58154100  1
  N  N6  1  0.36223100  0.64604500  0.91845900  1
  N  N7  1  0.13776900  0.64604500  0.41845900  1
  N  N8  1  0.47423200  0.31338200  0.35741500  1
  N  N9  1  0.02576800  0.31338200  0.85741500  1
  N  N10  1  0.52576800  0.68661800  0.64258500  1
  N  N11  1  0.97423200  0.68661800  0.14258500  1
  N  N12  1  0.65452200  0.10822500  0.41176600  1
  N  N13  1  0.84547800  0.10822500  0.91176600  1
  N  N14  1  0.34547800  0.89177500  0.58823400  1
  N  N15  1  0.15452200  0.89177500  0.08823400  1
  N  N16  1  0.42273600  0.29131500  0.74618600  1
  N  N17  1  0.07726400  0.29131500  0.24618600  1
  N  N18  1  0.57726400  0.70868500  0.25381400  1
  N  N19  1  0.92273600  0.70868500  0.75381400  1
  O  O0  1  0.36160400  0.04463200  0.26646200  1
  O  O1  1  0.13839600  0.04463200  0.76646200  1
  O  O2  1  0.63839600  0.95536800  0.73353800  1
  O  O3  1  0.86160400  0.95536800  0.23353800  1
  O  O4  1  0.43888100  0.12572400  0.05446000  1
  O  O5  1  0.06111900  0.12572400  0.55446000  1
  O  O6  1  0.56111900  0.87427600  0.94554000  1
  O  O7  1  0.93888100  0.87427600  0.44554000  1
  O  O8  1  0.72289100  0.43454600  0.12078000  1
  O  O9  1  0.77710900  0.43454600  0.62078000  1
  O  O10  1  0.27710900  0.56545400  0.87922000  1
  O  O11  1  0.22289100  0.56545400  0.37922000  1
  O  O12  1  0.63305100  0.38252500  0.95893900  1
  O  O13  1  0.86694900  0.38252500  0.45893900  1
  O  O14  1  0.36694900  0.61747500  0.04106100  1
  O  O15  1  0.13305100  0.61747500  0.54106100  1
loop_
_geom_bond_atom_site_label_1
_geom_bond_atom_site_label_2
_geom_bond_distance
_geom_bond_site_symmetry_2
Ag0 N8 2.103346 1_555
Ag0 N16 2.132877 1_555
Ag1 N9 2.103346 1_554
Ag1 N17 2.132877 1_555
Ag2 N10 2.103346 1_555
Ag2 N18 2.132877 1_555
Ag3 N11 2.103346 1_556
Ag3 N19 2.132877 1_555
H0 N8 1.021349 1_555
H1 N9 1.021349 1_555
H2 N10 1.021349 1_555
H3 N11 1.021349 1_555
H4 N12 1.020755 1_555
H5 N13 1.020755 1_554
H6 N14 1.020755 1_555
H7 N15 1.020755 1_556
H8 N12 1.018420 1_555
H9 N13 1.018420 1_555
H10 N14 1.018420 1_555
H11 N15 1.018420 1_555
H12 N16 1.023841 1_555
H13 N17 1.023841 1_555
H14 N18 1.023841 1_555
H15 N19 1.023841 1_555
H16 N16 1.022354 1_555
H17 N17 1.022354 1_555
H18 N18 1.022354 1_555
H19 N19 1.022354 1_555
H20 N16 1.023660 1_555
H21 N17 1.023660 1_655
H22 N18 1.023660 1_555
H23 N19 1.023660 1_455
C0 N0 1.381724 1_555
C0 N4 1.393087 1_555
C0 C4 1.492064 1_555
C1 N1 1.381724 1_655
C1 N5 1.393087 1_555
C1 C5 1.492064 1_555
C2 N2 1.381724 1_555
C2 N6 1.393087 1_555
C2 C6 1.492064 1_555
C3 N3 1.381724 1_455
C3 N7 1.393087 1_555
C3 C7 1.492064 1_555
C4 N8 1.308509 1_555
C4 N12 1.335808 1_555
C5 N9 1.308509 1_655
C5 N13 1.335808 1_555
C6 N10 1.308509 1_555
C6 N14 1.335808 1_555
C7 N11 1.308509 1_455
C7 N15 1.335808 1_555
N0 O4 1.254163 1_555
N0 O0 1.285869 1_555
N1 O5 1.254163 1_555
N1 O1 1.285869 1_555
N2 O6 1.254163 1_555
N2 O2 1.285869 1_555
N3 O7 1.254163 1_555
N3 O3 1.285869 1_555
N4 O12 1.253133 1_554
N4 O8 1.271743 1_555
N5 O13 1.253133 1_555
N5 O9 1.271743 1_555
N6 O14 1.253133 1_556
N6 O10 1.271743 1_555
N7 O15 1.253133 1_555
N7 O11 1.271743 1_555
