# generated using pymatgen
data_PuGaNi
_symmetry_space_group_name_H-M   'P 1'
_cell_length_a   6.74799292
_cell_length_b   6.75239379
_cell_length_c   4.00584994
_cell_angle_alpha   90.00000000
_cell_angle_beta   90.00000000
_cell_angle_gamma   120.17557806
_symmetry_Int_Tables_number   1
_chemical_formula_structural   PuGaNi
_chemical_formula_sum   'Pu3 Ga3 Ni3'
_cell_volume   157.79258643
_cell_formula_units_Z   3
loop_
 _symmetry_equiv_pos_site_id
 _symmetry_equiv_pos_as_xyz
  1  'x, y, z'
loop_
 _atom_site_type_symbol
 _atom_site_label
 _atom_site_symmetry_multiplicity
 _atom_site_fract_x
 _atom_site_fract_y
 _atom_site_fract_z
 _atom_site_occupancy
  Pu  Pu0  1  0.42736361  0.00106554  0.50000000  1
  Pu  Pu1  1  0.99854868  0.42569328  0.50000000  1
  Pu  Pu2  1  0.57270661  0.57267641  0.50000000  1
  Ga  Ga0  1  0.76670425  -0.00003357  0.00000000  1
  Ga  Ga1  1  0.00150455  0.76745130  0.00000000  1
  Ga  Ga2  1  0.23363825  0.23319769  -0.00000000  1
  Ni  Ni0  1  0.33361613  0.66763134  0.00000000  1
  Ni  Ni1  1  0.66752652  0.33341420  0.00000000  1
  Ni  Ni2  1  -0.00160760  -0.00109418  0.50000000  1
loop_
_geom_bond_atom_site_label_1
_geom_bond_atom_site_label_2
_geom_bond_distance
_geom_bond_site_symmetry_2
Pu0 Pu1 3.459359 1_555
Pu0 Pu2 3.471875 1_555
Pu0 Pu1 3.487929 1_445
Pu0 Pu2 3.490191 1_545
Pu1 Pu2 3.479886 1_555
Pu1 Pu2 3.482874 1_655
Ga0 Ni2 2.543094 1_654
Ga0 Ni2 2.543094 1_655
Ga0 Ni0 2.642665 1_545
Ga0 Ni1 2.651853 1_555
Ga0 Ga2 2.723905 1_655
Ga0 Ga1 2.734269 1_645
Ga0 Pu0 3.045052 1_554
Ga0 Pu0 3.045052 1_555
Ga0 Pu1 3.194033 1_555
Ga0 Pu1 3.194033 1_554
Ga0 Pu2 3.202019 1_544
Ga0 Pu2 3.202019 1_545
Ga1 Ni2 2.547099 1_565
Ga1 Ni2 2.547099 1_564
Ga1 Ni0 2.644869 1_555
Ga1 Ni1 2.651134 1_455
Ga1 Ga2 2.718772 1_565
Ga1 Pu1 3.048154 1_455
Ga1 Pu1 3.048154 1_454
Ga1 Pu0 3.193905 1_565
Ga1 Pu0 3.193905 1_564
Ga1 Pu2 3.207523 1_455
Ga1 Pu2 3.207523 1_454
Ga2 Ni2 2.551430 1_555
Ga2 Ni2 2.551430 1_554
Ga2 Ni1 2.653031 1_555
Ga2 Ni0 2.659102 1_555
Ga2 Pu2 3.037886 1_554
Ga2 Pu2 3.037886 1_555
Ga2 Pu0 3.199601 1_554
Ga2 Pu0 3.199601 1_555
Ga2 Pu1 3.207918 1_455
Ga2 Pu1 3.207918 1_454
Ni0 Pu0 2.837112 1_564
Ni0 Pu0 2.837112 1_565
Ni0 Pu2 2.840027 1_554
Ni0 Pu2 2.840027 1_555
Ni0 Pu1 2.842442 1_455
Ni0 Pu1 2.842442 1_454
Ni1 Pu1 2.826713 1_555
Ni1 Pu1 2.826713 1_554
Ni1 Pu0 2.831629 1_555
Ni1 Pu0 2.831629 1_554
Ni1 Pu2 2.840855 1_555
Ni1 Pu2 2.840855 1_554
Ni2 Pu2 2.867667 1_445
Ni2 Pu1 2.881307 1_455
Ni2 Pu0 2.887392 1_555
