# generated using pymatgen
data_K2Pb3C3O9F2
_symmetry_space_group_name_H-M   'P 1'
_cell_length_a   5.37608906
_cell_length_b   5.37608906
_cell_length_c   23.62087300
_cell_angle_alpha   90.00000000
_cell_angle_beta   90.00000000
_cell_angle_gamma   120.00001299
_symmetry_Int_Tables_number   1
_chemical_formula_structural   K2Pb3C3O9F2
_chemical_formula_sum   'K4 Pb6 C6 O18 F4'
_cell_volume   591.23403667
_cell_formula_units_Z   2
loop_
 _symmetry_equiv_pos_site_id
 _symmetry_equiv_pos_as_xyz
  1  'x, y, z'
loop_
 _atom_site_type_symbol
 _atom_site_label
 _atom_site_symmetry_multiplicity
 _atom_site_fract_x
 _atom_site_fract_y
 _atom_site_fract_z
 _atom_site_occupancy
  K  K0  1  0.66666700  0.33333300  0.34677400  1
  K  K1  1  0.33333300  0.66666700  0.65322600  1
  K  K2  1  0.33333300  0.66666700  0.84677400  1
  K  K3  1  0.66666700  0.33333300  0.15322600  1
  Pb  Pb0  1  0.33333300  0.66666700  0.25000000  1
  Pb  Pb1  1  0.66666700  0.33333300  0.75000000  1
  Pb  Pb2  1  0.33333300  0.66666700  0.45191600  1
  Pb  Pb3  1  0.66666700  0.33333300  0.54808400  1
  Pb  Pb4  1  0.66666700  0.33333300  0.95191600  1
  Pb  Pb5  1  0.33333300  0.66666700  0.04808400  1
  C  C0  1  0.00000000  0.00000000  0.43484300  1
  C  C1  1  0.00000000  0.00000000  0.56515700  1
  C  C2  1  0.00000000  0.00000000  0.93484300  1
  C  C3  1  0.00000000  0.00000000  0.06515700  1
  C  C4  1  0.00000000  0.00000000  0.25000000  1
  C  C5  1  0.00000000  0.00000000  0.75000000  1
  O  O0  1  0.86000900  0.72001800  0.43511100  1
  O  O1  1  0.27998200  0.13999100  0.43511100  1
  O  O2  1  0.86000900  0.13999100  0.43511100  1
  O  O3  1  0.13999100  0.27998200  0.56488900  1
  O  O4  1  0.72001800  0.86000900  0.56488900  1
  O  O5  1  0.13999100  0.86000900  0.56488900  1
  O  O6  1  0.13999100  0.27998200  0.93511100  1
  O  O7  1  0.72001800  0.86000900  0.93511100  1
  O  O8  1  0.13999100  0.86000900  0.93511100  1
  O  O9  1  0.86000900  0.72001800  0.06488900  1
  O  O10  1  0.27998200  0.13999100  0.06488900  1
  O  O11  1  0.86000900  0.13999100  0.06488900  1
  O  O12  1  0.86007800  0.72015500  0.25000000  1
  O  O13  1  0.27984500  0.13992200  0.25000000  1
  O  O14  1  0.86007800  0.13992200  0.25000000  1
  O  O15  1  0.13992200  0.27984500  0.75000000  1
  O  O16  1  0.72015500  0.86007800  0.75000000  1
  O  O17  1  0.13992200  0.86007800  0.75000000  1
  F  F0  1  0.33333300  0.66666700  0.35418200  1
  F  F1  1  0.66666700  0.33333300  0.64581800  1
  F  F2  1  0.66666700  0.33333300  0.85418200  1
  F  F3  1  0.33333300  0.66666700  0.14581800  1
loop_
_geom_bond_atom_site_label_1
_geom_bond_atom_site_label_2
_geom_bond_distance
_geom_bond_site_symmetry_2
K0 O2 2.755920 1_555
K0 O1 2.755922 1_555
K0 O0 2.755922 1_555
K0 O13 2.910119 1_555
K0 O12 2.910119 1_555
K0 O14 2.910120 1_555
K1 O5 2.755920 1_555
K1 O3 2.755922 1_555
K1 O4 2.755922 1_555
K1 O15 2.910119 1_555
K1 O16 2.910119 1_555
K1 O17 2.910120 1_555
K2 O8 2.755920 1_555
K2 O6 2.755922 1_555
K2 O7 2.755922 1_555
K2 O15 2.910119 1_555
K2 O16 2.910119 1_555
K2 O17 2.910120 1_555
K3 O11 2.755920 1_555
K3 O10 2.755922 1_555
K3 O9 2.755922 1_555
K3 O12 2.910119 1_555
K3 O13 2.910119 1_555
K3 O14 2.910120 1_555
C0 O0 1.303564 1_445
C0 O1 1.303564 1_555
C0 O2 1.303564 1_455
C1 O4 1.303564 1_445
C1 O3 1.303564 1_555
C1 O5 1.303564 1_545
C2 O7 1.303564 1_445
C2 O6 1.303564 1_555
C2 O8 1.303564 1_545
C3 O9 1.303564 1_445
C3 O10 1.303564 1_555
C3 O11 1.303564 1_455
C4 O14 1.302906 1_455
C4 O12 1.302910 1_445
C4 O13 1.302910 1_555
C5 O17 1.302906 1_545
C5 O16 1.302910 1_445
C5 O15 1.302910 1_555
O0 Pb2 2.728523 1_655
O0 Pb2 2.728528 1_555
O1 Pb2 2.728523 1_545
O1 Pb2 2.728528 1_555
O2 Pb2 2.728525 1_545
O2 Pb2 2.728525 1_655
O3 Pb3 2.728523 1_455
O3 Pb3 2.728528 1_555
O4 Pb3 2.728523 1_565
O4 Pb3 2.728528 1_555
O5 Pb3 2.728525 1_455
O5 Pb3 2.728525 1_565
O6 Pb4 2.728523 1_455
O6 Pb4 2.728528 1_555
O7 Pb4 2.728523 1_565
O7 Pb4 2.728528 1_555
O8 Pb4 2.728525 1_455
O8 Pb4 2.728525 1_565
O9 Pb5 2.728523 1_655
O9 Pb5 2.728528 1_555
O10 Pb5 2.728523 1_545
O10 Pb5 2.728528 1_555
O11 Pb5 2.728525 1_545
O11 Pb5 2.728525 1_655
O12 Pb0 2.699550 1_655
O12 Pb0 2.699561 1_555
O13 Pb0 2.699550 1_545
O13 Pb0 2.699561 1_555
O14 Pb0 2.699556 1_545
O14 Pb0 2.699556 1_655
O15 Pb1 2.699550 1_455
O15 Pb1 2.699561 1_555
O16 Pb1 2.699550 1_565
O16 Pb1 2.699561 1_555
O17 Pb1 2.699556 1_455
O17 Pb1 2.699556 1_565
F0 Pb2 2.308562 1_555
F0 Pb0 2.460870 1_555
F0 K0 3.108811 1_455
F0 K0 3.108811 1_565
F0 K0 3.108821 1_555
F1 Pb3 2.308562 1_555
F1 Pb1 2.460870 1_555
F1 K1 3.108811 1_545
F1 K1 3.108811 1_655
F1 K1 3.108821 1_555
F2 Pb4 2.308562 1_555
F2 Pb1 2.460870 1_555
F2 K2 3.108811 1_545
F2 K2 3.108811 1_655
F2 K2 3.108821 1_555
F3 Pb5 2.308562 1_555
F3 Pb0 2.460870 1_555
F3 K3 3.108811 1_455
F3 K3 3.108811 1_565
F3 K3 3.108821 1_555
