# generated using pymatgen
data_HfMg6Cu
_symmetry_space_group_name_H-M   'P 1'
_cell_length_a   4.89296700
_cell_length_b   6.08100700
_cell_length_c   11.17878200
_cell_angle_alpha   90.00000000
_cell_angle_beta   90.00000000
_cell_angle_gamma   90.00000000
_symmetry_Int_Tables_number   1
_chemical_formula_structural   HfMg6Cu
_chemical_formula_sum   'Hf2 Mg12 Cu2'
_cell_volume   332.61534176
_cell_formula_units_Z   2
loop_
 _symmetry_equiv_pos_site_id
 _symmetry_equiv_pos_as_xyz
  1  'x, y, z'
loop_
 _atom_site_type_symbol
 _atom_site_label
 _atom_site_symmetry_multiplicity
 _atom_site_fract_x
 _atom_site_fract_y
 _atom_site_fract_z
 _atom_site_occupancy
  Hf  Hf0  1  0.50000000  0.50000000  0.18701800  1
  Hf  Hf1  1  0.50000000  0.00000000  0.68701800  1
  Mg  Mg0  1  0.00000000  0.74436700  0.07974400  1
  Mg  Mg1  1  0.00000000  0.25563300  0.07974400  1
  Mg  Mg2  1  0.00000000  0.00000000  0.32467700  1
  Mg  Mg3  1  0.50000000  0.25420500  0.42493600  1
  Mg  Mg4  1  0.50000000  0.74579500  0.42493600  1
  Mg  Mg5  1  0.50000000  0.00000000  0.16674900  1
  Mg  Mg6  1  0.00000000  0.24436700  0.57974400  1
  Mg  Mg7  1  0.00000000  0.75563300  0.57974400  1
  Mg  Mg8  1  0.00000000  0.50000000  0.82467700  1
  Mg  Mg9  1  0.50000000  0.75420500  0.92493600  1
  Mg  Mg10  1  0.50000000  0.24579500  0.92493600  1
  Mg  Mg11  1  0.50000000  0.50000000  0.66674900  1
  Cu  Cu0  1  0.00000000  0.50000000  0.31219600  1
  Cu  Cu1  1  0.00000000  0.00000000  0.81219600  1
loop_
_geom_bond_atom_site_label_1
_geom_bond_atom_site_label_2
_geom_bond_distance
_geom_bond_site_symmetry_2
Hf0 Mg5 3.048934 1_555
Hf0 Mg5 3.048934 1_565
Hf0 Mg3 3.050856 1_555
Hf0 Mg4 3.050856 1_555
Hf0 Mg0 3.103471 1_655
Hf0 Mg1 3.103471 1_555
Hf0 Mg1 3.103471 1_655
Hf0 Mg0 3.103471 1_555
Hf0 Mg9 3.312559 1_554
Hf0 Mg10 3.312559 1_554
Hf1 Mg11 3.048934 1_545
Hf1 Mg11 3.048934 1_555
Hf1 Mg10 3.050856 1_555
Hf1 Mg9 3.050856 1_545
Hf1 Mg6 3.103471 1_655
Hf1 Mg7 3.103471 1_545
Hf1 Mg6 3.103471 1_555
Hf1 Mg7 3.103471 1_645
Hf1 Mg3 3.312559 1_555
Hf1 Mg4 3.312559 1_545
Mg0 Mg1 2.971995 1_555
Mg0 Mg9 2.997285 1_554
Mg0 Mg9 2.997285 1_454
Mg0 Mg5 3.057408 1_565
Mg0 Mg5 3.057408 1_465
Mg0 Mg1 3.109012 1_565
Mg0 Mg2 3.148559 1_565
Mg0 Mg8 3.215326 1_554
Mg1 Mg10 2.997285 1_454
Mg1 Mg10 2.997285 1_554
Mg1 Mg5 3.057408 1_455
Mg1 Mg5 3.057408 1_555
Mg1 Mg2 3.148559 1_555
Mg1 Mg8 3.215326 1_554
Mg2 Mg5 3.016964 1_455
Mg2 Mg5 3.016964 1_555
Mg2 Mg4 3.103382 1_545
Mg2 Mg3 3.103382 1_455
Mg2 Mg4 3.103382 1_445
Mg2 Mg3 3.103382 1_555
Mg2 Mg7 3.215326 1_545
Mg2 Mg6 3.215326 1_555
Mg3 Mg4 2.989362 1_555
Mg3 Mg6 2.997285 1_655
Mg3 Mg6 2.997285 1_555
Mg3 Mg4 3.091645 1_545
Mg3 Mg5 3.274112 1_555
Mg4 Mg7 2.997285 1_555
Mg4 Mg7 2.997285 1_655
Mg4 Mg5 3.274112 1_565
Mg5 Mg9 3.088887 1_544
Mg6 Mg7 2.971995 1_545
Mg6 Mg7 3.109012 1_555
Mg6 Mg8 3.148559 1_555
Mg7 Mg8 3.148559 1_555
Mg8 Mg9 3.103382 1_455
Mg8 Mg9 3.103382 1_555
Mg10 Mg9 2.989362 1_545
Mg10 Mg5 3.088887 1_556
Mg10 Mg9 3.091645 1_555
Mg10 Mg8 3.103382 1_555
Mg10 Mg8 3.103382 1_655
Mg10 Mg11 3.274112 1_555
Mg11 Mg8 3.016964 1_555
Mg11 Mg8 3.016964 1_655
Mg11 Mg7 3.057408 1_555
Mg11 Mg6 3.057408 1_655
Mg11 Mg7 3.057408 1_655
Mg11 Mg6 3.057408 1_555
Mg11 Mg4 3.088887 1_555
Mg11 Mg3 3.088887 1_555
Mg11 Mg9 3.274112 1_555
Cu0 Hf0 2.818409 1_455
Cu0 Hf0 2.818409 1_555
Cu0 Mg0 2.993417 1_555
Cu0 Mg1 2.993417 1_555
Cu0 Mg2 3.043703 1_555
Cu0 Mg2 3.043703 1_565
Cu0 Mg4 3.131725 1_455
Cu0 Mg4 3.131725 1_555
Cu0 Mg3 3.131725 1_555
Cu0 Mg3 3.131725 1_455
Cu0 Mg7 3.370718 1_555
Cu0 Mg6 3.370718 1_555
Cu1 Hf1 2.818409 1_555
Cu1 Hf1 2.818409 1_455
Cu1 Mg6 2.993417 1_555
Cu1 Mg7 2.993417 1_545
Cu1 Mg8 3.043703 1_545
Cu1 Mg8 3.043703 1_555
Cu1 Mg10 3.131725 1_555
Cu1 Mg10 3.131725 1_455
Cu1 Mg9 3.131725 1_545
Cu1 Mg9 3.131725 1_445
Cu1 Mg1 3.370718 1_556
Cu1 Mg0 3.370718 1_546
