# generated using pymatgen
data_LiCr4In4O12
_symmetry_space_group_name_H-M   'P 1'
_cell_length_a   5.22186297
_cell_length_b   5.61665648
_cell_length_c   7.93943416
_cell_angle_alpha   90.01629758
_cell_angle_beta   90.01646197
_cell_angle_gamma   88.86269910
_symmetry_Int_Tables_number   1
_chemical_formula_structural   LiCr4In4O12
_chemical_formula_sum   'Li1 Cr4 In4 O12'
_cell_volume   232.81303225
_cell_formula_units_Z   1
loop_
 _symmetry_equiv_pos_site_id
 _symmetry_equiv_pos_as_xyz
  1  'x, y, z'
loop_
 _atom_site_type_symbol
 _atom_site_label
 _atom_site_symmetry_multiplicity
 _atom_site_fract_x
 _atom_site_fract_y
 _atom_site_fract_z
 _atom_site_occupancy
  Li  Li0  1  0.42965500  0.23161900  0.24988000  1
  Cr  Cr0  1  0.00267600  0.49584000  0.99880200  1
  Cr  Cr1  1  0.00266100  0.49586500  0.50119300  1
  Cr  Cr2  1  0.49891300  0.99396200  0.98656900  1
  Cr  Cr3  1  0.49893100  0.99393100  0.51330200  1
  In  In0  1  0.02997600  0.93411700  0.75000000  1
  In  In1  1  0.47541800  0.43717200  0.75003500  1
  In  In2  1  0.55382800  0.61122800  0.24985900  1
  In  In3  1  0.95626300  0.06391400  0.24998100  1
  O  O0  1  0.14445900  0.43790200  0.25004500  1
  O  O1  1  0.19170900  0.19646800  0.57301600  1
  O  O2  1  0.19147300  0.19642400  0.92695000  1
  O  O3  1  0.30145100  0.69382000  0.57410500  1
  O  O4  1  0.30132400  0.69351000  0.92598600  1
  O  O5  1  0.34954800  0.93708100  0.25062000  1
  O  O6  1  0.63808400  0.06580300  0.74959100  1
  O  O7  1  0.68828200  0.30047300  0.07834500  1
  O  O8  1  0.68824500  0.30015100  0.42174300  1
  O  O9  1  0.80678600  0.79910800  0.07032900  1
  O  O10  1  0.80661700  0.79904300  0.42971800  1
  O  O11  1  0.86870300  0.56066300  0.74993200  1
loop_
_geom_bond_atom_site_label_1
_geom_bond_atom_site_label_2
_geom_bond_distance
_geom_bond_site_symmetry_2
Li0 O5 1.714428 1_545
Li0 O0 1.868632 1_555
Li0 O7 1.962214 1_555
Li0 O8 1.962818 1_555
Cr0 O2 2.014822 1_555
Cr0 O4 2.017056 1_555
Cr0 O9 2.049601 1_456
Cr0 O7 2.090614 1_456
Cr0 O11 2.124998 1_455
Cr0 O0 2.150102 1_556
Cr1 O1 2.015399 1_555
Cr1 O3 2.018324 1_555
Cr1 O10 2.049565 1_455
Cr1 O8 2.091064 1_455
Cr1 O11 2.124164 1_455
Cr1 O0 2.149673 1_555
Cr2 O2 2.005473 1_565
Cr2 O9 2.038275 1_556
Cr2 O4 2.052335 1_555
Cr2 O6 2.060036 1_565
Cr2 O7 2.130497 1_566
Cr2 O5 2.261986 1_556
Cr3 O1 2.005050 1_565
Cr3 O10 2.037258 1_555
Cr3 O3 2.051221 1_555
Cr3 O6 2.054451 1_565
Cr3 O8 2.128963 1_565
Cr3 O5 2.251338 1_555
In0 O6 2.162120 1_465
In0 O2 2.214253 1_565
In0 O1 2.215916 1_565
In0 O11 2.275764 1_455
In0 O3 2.388629 1_555
In0 O4 2.389602 1_555
In1 O11 2.180651 1_555
In1 O4 2.190541 1_555
In1 O3 2.191488 1_555
In1 O6 2.236508 1_555
In1 O1 2.464762 1_555
In1 O2 2.466108 1_555
In2 O5 2.100018 1_555
In2 O9 2.224257 1_555
In2 O10 2.224351 1_555
In2 Li0 2.240829 1_555
In2 O7 2.311758 1_555
In2 O8 2.315135 1_555
In2 O0 2.366426 1_555
In3 O5 2.160331 1_645
In3 O9 2.213608 1_545
In3 O10 2.215448 1_545
In3 O0 2.336680 1_655
In3 O8 2.346342 1_555
In3 O7 2.346621 1_555
