# generated using pymatgen
data_Mg14TiMo
_symmetry_space_group_name_H-M   'P 1'
_cell_length_a   6.31559972
_cell_length_b   6.09981685
_cell_length_c   10.04616307
_cell_angle_alpha   90.00000000
_cell_angle_beta   90.00000000
_cell_angle_gamma   118.87607375
_symmetry_Int_Tables_number   1
_chemical_formula_structural   Mg14TiMo
_chemical_formula_sum   'Mg14 Ti1 Mo1'
_cell_volume   338.89895857
_cell_formula_units_Z   1
loop_
 _symmetry_equiv_pos_site_id
 _symmetry_equiv_pos_as_xyz
  1  'x, y, z'
loop_
 _atom_site_type_symbol
 _atom_site_label
 _atom_site_symmetry_multiplicity
 _atom_site_fract_x
 _atom_site_fract_y
 _atom_site_fract_z
 _atom_site_occupancy
  Mg  Mg0  1  0.16711705  0.33355802  0.62500000  1
  Mg  Mg1  1  0.16492730  0.83246315  0.62500000  1
  Mg  Mg2  1  0.66147883  0.32858488  0.12500000  1
  Mg  Mg3  1  0.66338373  0.33279379  0.62500000  1
  Mg  Mg4  1  0.66147883  0.83289295  0.12500000  1
  Mg  Mg5  1  0.66338373  0.83058895  0.62500000  1
  Mg  Mg6  1  0.32814005  0.16002842  0.36313710  1
  Mg  Mg7  1  0.32814005  0.16002842  0.88686290  1
  Mg  Mg8  1  0.32814005  0.66811263  0.36313710  1
  Mg  Mg9  1  0.32814005  0.66811263  0.88686290  1
  Mg  Mg10  1  0.84511108  0.17255604  0.37222311  1
  Mg  Mg11  1  0.84511108  0.17255604  0.87777689  1
  Mg  Mg12  1  0.84974665  0.67487382  0.36412126  1
  Mg  Mg13  1  0.84974665  0.67487382  0.88587874  1
  Ti  Ti0  1  0.16025951  0.33012926  0.12500000  1
  Mo  Mo0  1  0.15569537  0.82784718  0.12500000  1
loop_
_geom_bond_atom_site_label_1
_geom_bond_atom_site_label_2
_geom_bond_distance
_geom_bond_site_symmetry_2
Mg0 Mg1 3.049932 1_545
Mg0 Mg1 3.049932 1_555
Mg0 Mg11 3.101616 1_455
Mg0 Mg10 3.101616 1_455
Mg0 Mg5 3.136475 1_555
Mg0 Mg3 3.136476 1_555
Mg0 Mg5 3.179129 1_445
Mg0 Mg3 3.179129 1_455
Mg0 Mg6 3.180403 1_555
Mg0 Mg7 3.180403 1_555
Mg0 Mg9 3.180409 1_555
Mg0 Mg8 3.180409 1_555
Mg1 Mg12 3.147541 1_455
Mg1 Mg13 3.147541 1_455
Mg1 Mg3 3.153588 1_565
Mg1 Mg5 3.153588 1_555
Mg1 Mg9 3.160108 1_555
Mg1 Mg8 3.160108 1_555
Mg1 Mg7 3.160114 1_565
Mg1 Mg6 3.160114 1_565
Mg1 Mg3 3.162043 1_455
Mg1 Mg5 3.162043 1_455
Mg2 Mg6 3.020259 1_555
Mg2 Mg7 3.020259 1_554
Mg2 Mg4 3.023630 1_545
Mg2 Mg4 3.076187 1_555
Mg2 Mo0 3.136253 1_655
Mg2 Ti0 3.145561 1_655
Mg2 Ti0 3.170061 1_555
Mg2 Mo0 3.179577 1_545
Mg3 Mg5 3.036459 1_555
Mg3 Mg5 3.063358 1_545
Mg3 Mg6 3.218546 1_555
Mg3 Mg7 3.218546 1_555
Mg4 Mg8 3.020259 1_555
Mg4 Mg9 3.020259 1_554
Mg4 Mo0 3.136253 1_655
Mg4 Ti0 3.145560 1_665
Mg4 Ti0 3.170060 1_555
Mg4 Mo0 3.179577 1_555
Mg5 Mg8 3.218546 1_555
Mg5 Mg9 3.218546 1_555
Mg6 Mo0 2.980575 1_545
Mg6 Ti0 2.997779 1_555
Mg6 Mg8 3.000596 1_545
Mg6 Mg8 3.099221 1_555
Mg7 Mo0 2.980575 1_546
Mg7 Ti0 2.997779 1_556
Mg7 Mg9 3.000596 1_545
Mg7 Mg9 3.099221 1_555
Mg8 Mo0 2.980569 1_555
Mg8 Ti0 2.997785 1_555
Mg9 Mo0 2.980569 1_556
Mg9 Ti0 2.997785 1_556
Mg10 Ti0 3.034160 1_655
Mg10 Mg12 3.051102 1_555
Mg10 Mg12 3.051102 1_545
Mg10 Mg2 3.079837 1_555
Mg10 Mg4 3.079843 1_545
Mg10 Mg8 3.089594 1_655
Mg10 Mg6 3.089594 1_655
Mg10 Mg3 3.131266 1_555
Mg10 Mg5 3.131272 1_545
Mg10 Mg8 3.230063 1_545
Mg10 Mg6 3.230063 1_555
Mg11 Ti0 3.034160 1_656
Mg11 Mg13 3.051102 1_555
Mg11 Mg13 3.051102 1_545
Mg11 Mg2 3.079837 1_556
Mg11 Mg4 3.079843 1_546
Mg11 Mg9 3.089594 1_655
Mg11 Mg7 3.089594 1_655
Mg11 Mg3 3.131266 1_555
Mg11 Mg5 3.131272 1_545
Mg11 Mg9 3.230063 1_545
Mg11 Mg7 3.230063 1_555
Mg12 Mo0 2.938315 1_655
Mg12 Mg4 3.036544 1_555
Mg12 Mg2 3.036550 1_555
Mg12 Mg6 3.041488 1_665
Mg12 Mg8 3.041488 1_655
Mg12 Mg5 3.199375 1_555
Mg12 Mg3 3.199381 1_555
Mg12 Mg6 3.274556 1_555
Mg12 Mg8 3.274556 1_555
Mg13 Mo0 2.938315 1_656
Mg13 Mg4 3.036544 1_556
Mg13 Mg2 3.036550 1_556
Mg13 Mg7 3.041488 1_665
Mg13 Mg9 3.041488 1_655
Mg13 Mg5 3.199375 1_555
Mg13 Mg3 3.199381 1_555
Mg13 Mg7 3.274556 1_555
Mg13 Mg9 3.274556 1_555
Mo0 Ti0 3.050013 1_555
Mo0 Ti0 3.050013 1_565
