# generated using pymatgen
data_Mg14VB
_symmetry_space_group_name_H-M   'P 1'
_cell_length_a   6.21862621
_cell_length_b   6.21862573
_cell_length_c   9.97739519
_cell_angle_alpha   90.00000000
_cell_angle_beta   90.00000000
_cell_angle_gamma   120.00000259
_symmetry_Int_Tables_number   1
_chemical_formula_structural   Mg14VB
_chemical_formula_sum   'Mg14 V1 B1'
_cell_volume   334.14630823
_cell_formula_units_Z   1
loop_
 _symmetry_equiv_pos_site_id
 _symmetry_equiv_pos_as_xyz
  1  'x, y, z'
loop_
 _atom_site_type_symbol
 _atom_site_label
 _atom_site_symmetry_multiplicity
 _atom_site_fract_x
 _atom_site_fract_y
 _atom_site_fract_z
 _atom_site_occupancy
  Mg  Mg0  1  0.17073797  0.83536848  0.12500000  1
  Mg  Mg1  1  0.16394263  0.83197082  0.62500000  1
  Mg  Mg2  1  0.66463152  0.32926203  0.12500000  1
  Mg  Mg3  1  0.66802918  0.33605737  0.62500000  1
  Mg  Mg4  1  0.66463152  0.83536848  0.12500000  1
  Mg  Mg5  1  0.66802918  0.83197082  0.62500000  1
  Mg  Mg6  1  0.32574873  0.17425127  0.38165585  1
  Mg  Mg7  1  0.32574873  0.17425127  0.86834415  1
  Mg  Mg8  1  0.32574873  0.65149845  0.38165585  1
  Mg  Mg9  1  0.32574873  0.65149845  0.86834415  1
  Mg  Mg10  1  0.84850155  0.17425127  0.38165585  1
  Mg  Mg11  1  0.84850155  0.17425127  0.86834415  1
  Mg  Mg12  1  0.83333300  0.66666700  0.37250932  1
  Mg  Mg13  1  0.83333300  0.66666700  0.87749068  1
  V  V0  1  0.16666700  0.33333300  0.12500000  1
  B  B0  1  0.16666700  0.33333300  0.62500000  1
loop_
_geom_bond_atom_site_label_1
_geom_bond_atom_site_label_2
_geom_bond_distance
_geom_bond_site_symmetry_2
Mg0 Mg13 3.065981 1_454
Mg0 Mg12 3.065981 1_455
Mg0 Mg2 3.071339 1_565
Mg0 Mg4 3.071339 1_555
Mg0 V0 3.109390 1_555
Mg0 V0 3.109390 1_565
Mg0 Mg8 3.145837 1_555
Mg0 Mg9 3.145837 1_554
Mg0 Mg7 3.145844 1_564
Mg0 Mg6 3.145844 1_565
Mg0 Mg2 3.147287 1_455
Mg0 Mg4 3.147287 1_455
Mg1 Mg8 3.048960 1_555
Mg1 Mg9 3.048960 1_555
Mg1 Mg6 3.048966 1_565
Mg1 Mg7 3.048966 1_565
Mg1 Mg12 3.084887 1_455
Mg1 Mg13 3.084887 1_455
Mg2 Mg4 3.071339 1_545
Mg2 V0 3.109390 1_655
Mg2 V0 3.109390 1_555
Mg2 Mg6 3.145844 1_555
Mg2 Mg7 3.145844 1_554
Mg2 Mg4 3.147287 1_555
Mg3 Mg6 3.048966 1_555
Mg3 Mg7 3.048966 1_555
Mg4 V0 3.109390 1_555
Mg4 V0 3.109390 1_665
Mg4 Mg8 3.145843 1_555
Mg4 Mg9 3.145843 1_554
Mg5 Mg8 3.048966 1_555
Mg5 Mg9 3.048966 1_555
Mg6 Mg8 2.967822 1_555
Mg6 V0 3.081143 1_555
Mg6 Mg8 3.250804 1_545
Mg7 Mg9 2.967822 1_555
Mg7 V0 3.081143 1_556
Mg7 Mg9 3.250804 1_545
Mg8 V0 3.081148 1_555
Mg9 V0 3.081148 1_556
Mg10 Mg8 2.967822 1_655
Mg10 Mg6 2.967822 1_655
Mg10 Mg3 3.048960 1_555
Mg10 Mg5 3.048966 1_545
Mg10 V0 3.081149 1_655
Mg10 Mg12 3.111724 1_545
Mg10 Mg12 3.111724 1_555
Mg10 Mg2 3.145837 1_555
Mg10 Mg4 3.145843 1_545
Mg10 Mg8 3.250804 1_545
Mg10 Mg6 3.250804 1_555
Mg11 Mg9 2.967822 1_655
Mg11 Mg7 2.967822 1_655
Mg11 Mg3 3.048960 1_555
Mg11 Mg5 3.048966 1_545
Mg11 V0 3.081149 1_656
Mg11 Mg13 3.111724 1_545
Mg11 Mg13 3.111724 1_555
Mg11 Mg2 3.145837 1_556
Mg11 Mg4 3.145843 1_546
Mg11 Mg9 3.250804 1_545
Mg11 Mg7 3.250804 1_555
Mg12 Mg4 3.065975 1_555
Mg12 Mg2 3.065981 1_555
Mg12 Mg5 3.084880 1_555
Mg12 Mg3 3.084886 1_555
Mg12 Mg6 3.111724 1_665
Mg12 Mg6 3.111724 1_555
Mg12 Mg8 3.111724 1_555
Mg12 Mg8 3.111725 1_655
Mg13 Mg4 3.065975 1_556
Mg13 Mg2 3.065981 1_556
Mg13 Mg5 3.084880 1_555
Mg13 Mg3 3.084886 1_555
Mg13 Mg7 3.111724 1_665
Mg13 Mg7 3.111724 1_555
Mg13 Mg9 3.111724 1_555
Mg13 Mg9 3.111725 1_655
B0 Mg7 2.971676 1_555
B0 Mg6 2.971676 1_555
B0 Mg9 2.971682 1_555
B0 Mg8 2.971682 1_555
B0 Mg10 2.971683 1_455
B0 Mg11 2.971683 1_455
