# generated using pymatgen
data_Fe(C4N3)2
_symmetry_space_group_name_H-M   'P 1'
_cell_length_a   5.12134800
_cell_length_b   7.11808700
_cell_length_c   10.00418600
_cell_angle_alpha   90.00000000
_cell_angle_beta   90.00000000
_cell_angle_gamma   90.00000000
_symmetry_Int_Tables_number   1
_chemical_formula_structural   Fe(C4N3)2
_chemical_formula_sum   'Fe2 C16 N12'
_cell_volume   364.69460350
_cell_formula_units_Z   2
loop_
 _symmetry_equiv_pos_site_id
 _symmetry_equiv_pos_as_xyz
  1  'x, y, z'
loop_
 _atom_site_type_symbol
 _atom_site_label
 _atom_site_symmetry_multiplicity
 _atom_site_fract_x
 _atom_site_fract_y
 _atom_site_fract_z
 _atom_site_occupancy
  Fe  Fe0  1  0.00000000  0.00000000  0.00000000  1
  Fe  Fe1  1  0.00000000  0.50000000  0.50000000  1
  C  C0  1  0.37824300  0.00000000  0.75850300  1
  C  C1  1  0.62175700  0.00000000  0.24149700  1
  C  C2  1  0.62175700  0.50000000  0.25850300  1
  C  C3  1  0.37824300  0.50000000  0.74149700  1
  C  C4  1  0.69236200  0.66624000  0.88535200  1
  C  C5  1  0.30763800  0.33376000  0.11464800  1
  C  C6  1  0.30763800  0.83376000  0.38535200  1
  C  C7  1  0.69236200  0.83376000  0.61464800  1
  C  C8  1  0.69236200  0.16624000  0.61464800  1
  C  C9  1  0.30763800  0.16624000  0.38535200  1
  C  C10  1  0.30763800  0.66624000  0.11464800  1
  C  C11  1  0.69236200  0.33376000  0.88535200  1
  C  C12  1  0.57655400  0.00000000  0.66111100  1
  C  C13  1  0.42344600  0.00000000  0.33888900  1
  C  C14  1  0.42344600  0.50000000  0.16111100  1
  C  C15  1  0.57655400  0.50000000  0.83888900  1
  N  N0  1  0.21851300  0.00000000  0.84251900  1
  N  N1  1  0.78148700  0.00000000  0.15748100  1
  N  N2  1  0.78148700  0.50000000  0.34251900  1
  N  N3  1  0.21851300  0.50000000  0.65748100  1
  N  N4  1  0.79546800  0.80074800  0.92723100  1
  N  N5  1  0.20453200  0.19925200  0.07276900  1
  N  N6  1  0.20453200  0.69925200  0.42723100  1
  N  N7  1  0.79546800  0.69925200  0.57276900  1
  N  N8  1  0.79546800  0.30074800  0.57276900  1
  N  N9  1  0.20453200  0.30074800  0.42723100  1
  N  N10  1  0.20453200  0.80074800  0.07276900  1
  N  N11  1  0.79546800  0.19925200  0.92723100  1
loop_
_geom_bond_atom_site_label_1
_geom_bond_atom_site_label_2
_geom_bond_distance
_geom_bond_site_symmetry_2
Fe0 N10 1.907549 1_545
Fe0 N5 1.907549 1_555
Fe0 N4 1.907549 1_444
Fe0 N11 1.907549 1_454
Fe0 N0 1.932471 1_554
Fe0 N1 1.932471 1_455
Fe1 N9 1.907549 1_555
Fe1 N6 1.907549 1_555
Fe1 N7 1.907549 1_455
Fe1 N8 1.907549 1_455
Fe1 N2 1.932471 1_455
Fe1 N3 1.932471 1_555
C0 N0 1.172876 1_555
C0 C12 1.407408 1_555
C1 N1 1.172876 1_555
C1 C13 1.407408 1_555
C2 N2 1.172876 1_555
C3 N3 1.172876 1_555
C4 N4 1.170919 1_555
C5 N5 1.170919 1_555
C6 N6 1.170919 1_555
C7 N7 1.170919 1_555
C8 N8 1.170919 1_555
C9 N9 1.170919 1_555
C10 N10 1.170919 1_555
C10 C14 1.402870 1_555
C11 N11 1.170919 1_555
C11 C15 1.402870 1_555
C12 C8 1.402870 1_555
C12 C7 1.402870 1_545
C13 C9 1.402870 1_555
C13 C6 1.402870 1_545
C14 C5 1.402870 1_555
C14 C2 1.407408 1_555
C15 C4 1.402870 1_555
C15 C3 1.407408 1_555
