# generated using pymatgen
data_Ca3Co2(Si2O7)2
_symmetry_space_group_name_H-M   'P 1'
_cell_length_a   9.35006770
_cell_length_b   9.35006770
_cell_length_c   10.10626042
_cell_angle_alpha   60.32411045
_cell_angle_beta   60.32411045
_cell_angle_gamma   48.69037883
_symmetry_Int_Tables_number   1
_chemical_formula_structural   Ca3Co2(Si2O7)2
_chemical_formula_sum   'Ca6 Co4 Si8 O28'
_cell_volume   557.12284358
_cell_formula_units_Z   2
loop_
 _symmetry_equiv_pos_site_id
 _symmetry_equiv_pos_as_xyz
  1  'x, y, z'
loop_
 _atom_site_type_symbol
 _atom_site_label
 _atom_site_symmetry_multiplicity
 _atom_site_fract_x
 _atom_site_fract_y
 _atom_site_fract_z
 _atom_site_occupancy
  Ca  Ca0  1  0.22889600  0.16242200  0.54104500  1
  Ca  Ca1  1  0.83757800  0.77110400  0.95895500  1
  Ca  Ca2  1  0.16242200  0.22889600  0.04104500  1
  Ca  Ca3  1  0.65298400  0.34701600  0.25000000  1
  Ca  Ca4  1  0.77110400  0.83757800  0.45895500  1
  Ca  Ca5  1  0.34701600  0.65298400  0.75000000  1
  Co  Co0  1  0.21384000  0.78616000  0.25000000  1
  Co  Co1  1  0.78616000  0.21384000  0.75000000  1
  Co  Co2  1  0.00000000  0.00000000  0.00000000  1
  Co  Co3  1  0.00000000  0.00000000  0.50000000  1
  Si  Si0  1  0.11181600  0.53507700  0.65744000  1
  Si  Si1  1  0.53507700  0.11181600  0.15744000  1
  Si  Si2  1  0.21228600  0.53573300  0.14587100  1
  Si  Si3  1  0.53573300  0.21228600  0.64587100  1
  Si  Si4  1  0.46492300  0.88818400  0.84256000  1
  Si  Si5  1  0.78771400  0.46426700  0.85412900  1
  Si  Si6  1  0.46426700  0.78771400  0.35412900  1
  Si  Si7  1  0.88818400  0.46492300  0.34256000  1
  O  O0  1  0.29389100  0.87790800  0.50438100  1
  O  O1  1  0.89615200  0.97597100  0.71658300  1
  O  O2  1  0.65140300  0.45189400  0.80949800  1
  O  O3  1  0.97597100  0.89615200  0.21658300  1
  O  O4  1  0.94347400  0.26306200  0.48287300  1
  O  O5  1  0.50936600  0.04959700  0.81596700  1
  O  O6  1  0.45189400  0.65140300  0.30949800  1
  O  O7  1  0.73693800  0.05652600  0.01712700  1
  O  O8  1  0.49063400  0.95040300  0.18403300  1
  O  O9  1  0.67332300  0.65693900  0.40731300  1
  O  O10  1  0.10384800  0.02402900  0.28341700  1
  O  O11  1  0.05652600  0.73693800  0.51712700  1
  O  O12  1  0.95040300  0.49063400  0.68403300  1
  O  O13  1  0.87790800  0.29389100  0.00438100  1
  O  O14  1  0.65693900  0.67332300  0.90731300  1
  O  O15  1  0.26306200  0.94347400  0.98287300  1
  O  O16  1  0.46980300  0.89356100  0.67849900  1
  O  O17  1  0.32667700  0.34306100  0.59268700  1
  O  O18  1  0.10643900  0.53019700  0.82150100  1
  O  O19  1  0.34306100  0.32667700  0.09268700  1
  O  O20  1  0.04959700  0.50936600  0.31596700  1
  O  O21  1  0.02402900  0.10384800  0.78341700  1
  O  O22  1  0.89356100  0.46980300  0.17849900  1
  O  O23  1  0.34859700  0.54810600  0.19050200  1
  O  O24  1  0.53019700  0.10643900  0.32150100  1
  O  O25  1  0.54810600  0.34859700  0.69050200  1
  O  O26  1  0.12209200  0.70610900  0.99561900  1
  O  O27  1  0.70610900  0.12209200  0.49561900  1
loop_
_geom_bond_atom_site_label_1
_geom_bond_atom_site_label_2
_geom_bond_distance
_geom_bond_site_symmetry_2
Ca0 O21 2.319444 1_555
Ca0 O16 2.342554 1_545
Ca0 O4 2.458337 1_455
Ca0 O24 2.479359 1_555
Ca0 O0 2.490400 1_545
Ca0 O17 2.710158 1_555
Ca0 O20 2.792380 1_555
Ca0 O12 2.898506 1_455
Ca1 O1 2.319444 1_555
Ca1 O18 2.342554 1_655
Ca1 O7 2.458337 1_566
Ca1 O22 2.479359 1_556
Ca1 O26 2.490400 1_655
Ca1 O14 2.710158 1_555
Ca1 O8 2.792380 1_556
Ca1 O5 2.898506 1_565
Ca2 O10 2.319444 1_555
Ca2 O22 2.342554 1_455
Ca2 O15 2.458337 1_544
Ca2 O18 2.479359 1_554
Ca2 O13 2.490400 1_455
Ca2 O19 2.710158 1_555
Ca2 O5 2.792380 1_554
Ca2 O8 2.898506 1_545
Ca3 O27 2.346039 1_555
Ca3 O13 2.346039 1_555
Ca3 O6 2.346671 1_555
Ca3 O23 2.346671 1_555
Ca3 O22 2.806893 1_555
Ca3 O24 2.806893 1_555
Ca4 O3 2.319444 1_555
Ca4 O24 2.342554 1_565
Ca4 O11 2.458337 1_655
Ca4 O16 2.479359 1_555
Ca4 O27 2.490400 1_565
Ca4 O9 2.710158 1_555
Ca4 O12 2.792380 1_555
Ca4 O20 2.898506 1_655
Ca5 O26 2.346039 1_555
Ca5 O0 2.346039 1_555
Ca5 O2 2.346671 1_555
Ca5 O25 2.346671 1_555
Ca5 O16 2.806893 1_555
Ca5 O18 2.806893 1_555
Co0 O10 1.870371 1_565
Co0 O3 1.870371 1_455
Co0 O6 1.943143 1_555
Co0 O23 1.943143 1_555
Co0 O15 2.322718 1_554
Co0 O11 2.322718 1_555
Co1 O21 1.870371 1_655
Co1 O1 1.870371 1_545
Co1 O2 1.943143 1_555
Co1 O25 1.943143 1_555
Co1 O4 2.322718 1_555
Co1 O7 2.322718 1_556
Co2 O3 1.865723 1_445
Co2 O21 1.865723 1_554
Co2 O15 2.076507 1_544
Co2 O7 2.076507 1_455
Co2 O13 2.187462 1_455
Co2 O26 2.187462 1_544
Co3 O1 1.865723 1_445
Co3 O10 1.865723 1_555
Co3 O4 2.076507 1_455
Co3 O11 2.076507 1_545
Co3 O0 2.187462 1_545
Co3 O27 2.187462 1_455
O0 Si6 1.629050 1_555
O2 Si5 1.629968 1_555
O4 Si7 1.621090 1_555
O5 Si3 1.678091 1_555
O5 Si4 1.684768 1_545
O6 Si6 1.629968 1_555
O7 Si1 1.621090 1_555
O8 Si6 1.678091 1_555
O8 Si1 1.684768 1_565
O9 Si7 1.669486 1_555
O9 Si6 1.684883 1_555
O11 Si0 1.621090 1_555
O12 Si5 1.678091 1_555
O12 Si0 1.684768 1_655
O13 Si5 1.629050 1_554
O14 Si4 1.669486 1_555
O14 Si5 1.684883 1_555
O15 Si4 1.621090 1_555
O16 Si4 1.612232 1_555
O17 Si0 1.669486 1_555
O17 Si3 1.684883 1_555
O18 Si0 1.612232 1_555
O19 Si1 1.669486 1_555
O19 Si2 1.684883 1_555
O20 Si2 1.678091 1_555
O20 Si7 1.684768 1_455
O22 Si7 1.612232 1_555
O23 Si2 1.629968 1_555
O24 Si1 1.612232 1_555
O25 Si3 1.629968 1_555
O26 Si2 1.629050 1_556
O27 Si3 1.629050 1_555
