# generated using pymatgen
data_ErWO5
_symmetry_space_group_name_H-M   'P 1'
_cell_length_a   5.28371380
_cell_length_b   6.53194772
_cell_length_c   12.64312300
_cell_angle_alpha   90.00000000
_cell_angle_beta   90.00000000
_cell_angle_gamma   109.07134566
_symmetry_Int_Tables_number   1
_chemical_formula_structural   ErWO5
_chemical_formula_sum   'Er4 W4 O20'
_cell_volume   412.40111197
_cell_formula_units_Z   4
loop_
 _symmetry_equiv_pos_site_id
 _symmetry_equiv_pos_as_xyz
  1  'x, y, z'
loop_
 _atom_site_type_symbol
 _atom_site_label
 _atom_site_symmetry_multiplicity
 _atom_site_fract_x
 _atom_site_fract_y
 _atom_site_fract_z
 _atom_site_occupancy
  Er  Er0  1  0.14390200  0.78472300  0.44453100  1
  Er  Er1  1  0.85609800  0.21527700  0.55546900  1
  Er  Er2  1  0.35609800  0.71527700  0.94453100  1
  Er  Er3  1  0.64390200  0.28472300  0.05546900  1
  W  W0  1  0.95349500  0.84593100  0.13803900  1
  W  W1  1  0.04650500  0.15406900  0.86196100  1
  W  W2  1  0.54650500  0.65406900  0.63803900  1
  W  W3  1  0.45349500  0.34593100  0.36196100  1
  O  O0  1  0.04635100  0.55828500  0.08484000  1
  O  O1  1  0.95364900  0.44171500  0.91516000  1
  O  O2  1  0.45364900  0.94171500  0.58484000  1
  O  O3  1  0.54635100  0.05828500  0.41516000  1
  O  O4  1  0.85958600  0.84498500  0.57216900  1
  O  O5  1  0.14041400  0.15501500  0.42783100  1
  O  O6  1  0.64041400  0.65501500  0.07216900  1
  O  O7  1  0.35958600  0.34498500  0.92783100  1
  O  O8  1  0.27494200  0.97066900  0.06471100  1
  O  O9  1  0.72505800  0.02933100  0.93528900  1
  O  O10  1  0.22505800  0.52933100  0.56471100  1
  O  O11  1  0.77494200  0.47066900  0.43528900  1
  O  O12  1  0.99844600  0.79043200  0.27470200  1
  O  O13  1  0.00155400  0.20956800  0.72529800  1
  O  O14  1  0.50155400  0.70956800  0.77470200  1
  O  O15  1  0.49844600  0.29043200  0.22529800  1
  O  O16  1  0.15240800  0.91833100  0.85285200  1
  O  O17  1  0.84759200  0.08166900  0.14714800  1
  O  O18  1  0.34759200  0.58166900  0.35285200  1
  O  O19  1  0.65240800  0.41833100  0.64714800  1
loop_
_geom_bond_atom_site_label_1
_geom_bond_atom_site_label_2
_geom_bond_distance
_geom_bond_site_symmetry_2
Er0 O18 2.278997 1_555
Er0 O12 2.284977 1_455
Er0 O3 2.317218 1_565
Er0 O4 2.324279 1_455
Er0 O11 2.325705 1_455
Er0 O10 2.396452 1_555
Er0 O2 2.404208 1_555
Er0 O5 2.433987 1_565
Er1 O19 2.278997 1_555
Er1 O13 2.284977 1_655
Er1 O2 2.317218 1_545
Er1 O5 2.324279 1_655
Er1 O10 2.325705 1_655
Er1 O11 2.396452 1_555
Er1 O3 2.404208 1_555
Er1 O4 2.433987 1_545
Er2 O16 2.278997 1_555
Er2 O14 2.284977 1_555
Er2 O1 2.317218 1_455
Er2 O6 2.324279 1_556
Er2 O9 2.325705 1_565
Er2 O8 2.396452 1_556
Er2 O0 2.404208 1_556
Er2 O7 2.433987 1_555
Er3 O17 2.278997 1_555
Er3 O15 2.284977 1_555
Er3 O0 2.317218 1_655
Er3 O7 2.324279 1_554
Er3 O8 2.325705 1_545
Er3 O9 2.396452 1_554
Er3 O1 2.404208 1_554
Er3 O6 2.433987 1_555
O0 W0 2.196755 1_455
O1 W1 2.196755 1_655
O2 W2 2.196755 1_555
O3 W3 2.196755 1_555
O4 W2 1.907115 1_555
O5 W3 1.907115 1_555
O6 W0 1.907115 1_555
O7 W1 1.907115 1_555
O8 W0 1.871822 1_455
O9 W1 1.871822 1_655
O10 W2 1.871822 1_555
O11 W3 1.871822 1_555
O12 W0 1.797095 1_555
O13 W1 1.797095 1_555
O14 W2 1.797095 1_555
O15 W3 1.797095 1_555
O16 W1 1.805688 1_565
O17 W0 1.805688 1_545
O18 W3 1.805688 1_555
O19 W2 1.805688 1_555
