# generated using pymatgen
data_SrHfO3
_symmetry_space_group_name_H-M   'P 1'
_cell_length_a   4.13810900
_cell_length_b   4.13810900
_cell_length_c   4.14673600
_cell_angle_alpha   90.00000000
_cell_angle_beta   90.00000000
_cell_angle_gamma   90.00000000
_symmetry_Int_Tables_number   1
_chemical_formula_structural   SrHfO3
_chemical_formula_sum   'Sr1 Hf1 O3'
_cell_volume   71.00848374
_cell_formula_units_Z   1
loop_
 _symmetry_equiv_pos_site_id
 _symmetry_equiv_pos_as_xyz
  1  'x, y, z'
loop_
 _atom_site_type_symbol
 _atom_site_label
 _atom_site_symmetry_multiplicity
 _atom_site_fract_x
 _atom_site_fract_y
 _atom_site_fract_z
 _atom_site_occupancy
  Sr  Sr0  1  0.50000000  0.50000000  0.51481600  1
  Hf  Hf0  1  0.00000000  0.00000000  0.99281900  1
  O  O0  1  0.50000000  0.00000000  0.97521700  1
  O  O1  1  0.00000000  0.50000000  0.97521700  1
  O  O2  1  0.00000000  0.00000000  0.48593200  1
loop_
_geom_bond_atom_site_label_1
_geom_bond_atom_site_label_2
_geom_bond_distance
_geom_bond_site_symmetry_2
Hf0 O2 2.044809 1_556
Hf0 O1 2.070342 1_555
Hf0 O0 2.070342 1_555
Hf0 O1 2.070342 1_545
Hf0 O0 2.070342 1_455
Hf0 O2 2.101927 1_555
O0 Sr0 2.815295 1_545
O0 Sr0 2.815295 1_555
O0 Sr0 3.047577 1_556
O0 Sr0 3.047577 1_546
O1 Sr0 2.815295 1_455
O1 Sr0 2.815295 1_555
O1 Sr0 3.047577 1_456
O1 Sr0 3.047577 1_556
O2 Sr0 2.928535 1_555
O2 Sr0 2.928535 1_445
O2 Sr0 2.928535 1_545
O2 Sr0 2.928535 1_455
