# generated using pymatgen
data_MgSi2
_symmetry_space_group_name_H-M   'P 1'
_cell_length_a   3.79355500
_cell_length_b   4.65628418
_cell_length_c   13.15392157
_cell_angle_alpha   85.94050013
_cell_angle_beta   85.46243556
_cell_angle_gamma   67.33811806
_symmetry_Int_Tables_number   1
_chemical_formula_structural   MgSi2
_chemical_formula_sum   'Mg4 Si8'
_cell_volume   213.53321026
_cell_formula_units_Z   4
loop_
 _symmetry_equiv_pos_site_id
 _symmetry_equiv_pos_as_xyz
  1  'x, y, z'
loop_
 _atom_site_type_symbol
 _atom_site_label
 _atom_site_symmetry_multiplicity
 _atom_site_fract_x
 _atom_site_fract_y
 _atom_site_fract_z
 _atom_site_occupancy
  Mg  Mg0  1  0.55310000  0.97682800  0.12459400  1
  Mg  Mg1  1  0.19513800  0.80669000  0.95096100  1
  Mg  Mg2  1  0.33244100  0.66772400  0.70647200  1
  Mg  Mg3  1  0.90210500  0.16494600  0.29929700  1
  Si  Si0  1  0.92209000  0.41036100  0.84785900  1
  Si  Si1  1  0.23905500  0.54804100  0.20264000  1
  Si  Si2  1  0.19552300  0.55835600  0.40020200  1
  Si  Si3  1  0.00382800  0.42669700  0.57197200  1
  Si  Si4  1  0.86523900  0.40503300  0.03988900  1
  Si  Si5  1  0.60714200  0.06176500  0.80311800  1
  Si  Si6  1  0.66785200  0.06869100  0.60827500  1
  Si  Si7  1  0.51628800  0.90514900  0.44446200  1
loop_
_geom_bond_atom_site_label_1
_geom_bond_atom_site_label_2
_geom_bond_distance
_geom_bond_site_symmetry_2
Mg0 Si1 2.701622 1_565
Mg0 Si4 2.741177 1_555
Mg0 Si1 2.794396 1_555
Mg0 Si4 2.813363 1_565
Mg0 Si1 2.817907 1_655
Mg0 Si4 2.856977 1_465
Mg1 Si4 2.773903 1_456
Mg1 Si4 2.797387 1_556
Mg1 Si4 2.870476 1_466
Mg1 Si0 2.872645 1_465
Mg1 Si5 2.873657 1_565
Mg1 Si0 2.892644 1_455
Mg1 Si5 2.913065 1_465
Mg1 Si0 2.948029 1_555
Mg2 Si3 2.766196 1_555
Mg2 Si0 2.825250 1_455
Mg2 Si6 2.828830 1_565
Mg2 Si6 2.838494 1_465
Mg2 Si5 2.842830 1_565
Mg2 Si5 2.845888 1_555
Mg2 Si0 2.859291 1_555
Mg2 Si3 2.870895 1_655
Mg2 Si5 2.905118 1_465
Mg2 Si6 2.929616 1_555
Mg3 Si1 2.758824 1_655
Mg3 Si7 2.801207 1_545
Mg3 Si1 2.802265 1_555
Mg3 Si2 2.873777 1_645
Mg3 Si2 2.880939 1_555
Mg3 Si2 2.916425 1_655
Mg3 Si7 2.956875 1_645
Mg3 Si1 2.988669 1_645
Si0 Si5 2.479798 1_555
Si0 Si4 2.517259 1_556
Si0 Si5 2.525356 1_655
Si0 Si5 2.835432 1_565
Si1 Si2 2.593560 1_555
Si2 Si3 2.428415 1_555
Si2 Si7 2.487257 1_555
Si2 Si7 2.505071 1_455
Si2 Si7 2.842515 1_545
Si3 Si6 2.461608 1_455
Si3 Si6 2.488795 1_555
Si3 Si6 2.821051 1_465
Si5 Si6 2.554098 1_555
Si6 Si7 2.513821 1_545
