# generated using pymatgen
data_LaEu3(NiO3)4
_symmetry_space_group_name_H-M   'P 1'
_cell_length_a   5.43798318
_cell_length_b   5.46418962
_cell_length_c   7.64583000
_cell_angle_alpha   90.00000000
_cell_angle_beta   90.00000000
_cell_angle_gamma   90.28108936
_symmetry_Int_Tables_number   1
_chemical_formula_structural   LaEu3(NiO3)4
_chemical_formula_sum   'La1 Eu3 Ni4 O12'
_cell_volume   227.18676798
_cell_formula_units_Z   1
loop_
 _symmetry_equiv_pos_site_id
 _symmetry_equiv_pos_as_xyz
  1  'x, y, z'
loop_
 _atom_site_type_symbol
 _atom_site_label
 _atom_site_symmetry_multiplicity
 _atom_site_fract_x
 _atom_site_fract_y
 _atom_site_fract_z
 _atom_site_occupancy
  La  La0  1  0.50797300  0.53966100  0.25000000  1
  Eu  Eu0  1  0.99115900  0.04463500  0.25000000  1
  Eu  Eu1  1  0.49123500  0.45432000  0.75000000  1
  Eu  Eu2  1  0.00874500  0.95487200  0.75000000  1
  Ni  Ni0  1  0.00008500  0.50045100  0.99832700  1
  Ni  Ni1  1  0.50013000  0.99965400  0.50131400  1
  Ni  Ni2  1  0.00008500  0.50045100  0.50167300  1
  Ni  Ni3  1  0.50013000  0.99965400  0.99868600  1
  O  O0  1  0.41700800  0.99123800  0.25000000  1
  O  O1  1  0.07090800  0.48287400  0.25000000  1
  O  O2  1  0.58211900  0.01663000  0.75000000  1
  O  O3  1  0.91751800  0.51694200  0.75000000  1
  O  O4  1  0.79154900  0.79384400  0.04181700  1
  O  O5  1  0.71350200  0.28614100  0.46161100  1
  O  O6  1  0.21091100  0.20920700  0.54300800  1
  O  O7  1  0.29049200  0.71011700  0.95490700  1
  O  O8  1  0.21091100  0.20920700  0.95699200  1
  O  O9  1  0.29049200  0.71011700  0.54509300  1
  O  O10  1  0.79154900  0.79384400  0.45818300  1
  O  O11  1  0.71350200  0.28614100  0.03838900  1
loop_
_geom_bond_atom_site_label_1
_geom_bond_atom_site_label_2
_geom_bond_distance
_geom_bond_site_symmetry_2
La0 O1 2.395412 1_555
La0 O11 2.408548 1_555
La0 O5 2.408548 1_555
La0 O0 2.518976 1_555
La0 O4 2.611449 1_555
La0 O10 2.611449 1_555
La0 O9 2.714328 1_555
La0 O7 2.714328 1_554
Eu0 O0 2.335488 1_645
Eu0 O10 2.361183 1_545
Eu0 O4 2.361183 1_545
Eu0 O1 2.431480 1_655
Eu0 O11 2.580407 1_555
Eu0 O5 2.580407 1_555
Eu0 O6 2.691663 1_655
Eu0 O8 2.691663 1_654
Eu1 O3 2.341577 1_555
Eu1 O7 2.369551 1_555
Eu1 O9 2.369551 1_555
Eu1 O2 2.444526 1_555
Eu1 O8 2.569494 1_555
Eu1 O6 2.569494 1_555
Eu1 O5 2.679219 1_555
Eu1 O11 2.679219 1_556
Eu2 O2 2.346037 1_465
Eu2 O8 2.372699 1_565
Eu2 O6 2.372699 1_565
Eu2 O3 2.441431 1_455
Eu2 O7 2.571118 1_555
Eu2 O9 2.571118 1_555
Eu2 O10 2.671554 1_455
Eu2 O4 2.671554 1_456
Ni0 O3 1.953215 1_455
Ni0 O1 1.964854 1_556
Ni0 O11 1.968742 1_456
Ni0 O7 1.974575 1_555
Ni0 O8 1.991172 1_555
Ni0 O4 1.996122 1_456
Ni1 O2 1.955083 1_565
Ni1 O5 1.967535 1_565
Ni1 O9 1.974071 1_555
Ni1 O0 1.974439 1_555
Ni1 O10 1.975424 1_555
Ni1 O6 1.975855 1_565
Ni2 O3 1.953215 1_455
Ni2 O1 1.964854 1_555
Ni2 O5 1.968742 1_455
Ni2 O9 1.974575 1_555
Ni2 O6 1.991172 1_555
Ni2 O10 1.996122 1_455
Ni3 O2 1.955083 1_565
Ni3 O11 1.967535 1_566
Ni3 O7 1.974071 1_555
Ni3 O0 1.974439 1_556
Ni3 O4 1.975424 1_556
Ni3 O8 1.975855 1_565
