# generated using pymatgen
data_Zr4Ni2H9
_symmetry_space_group_name_H-M   'P 1'
_cell_length_a   5.61553600
_cell_length_b   5.62968928
_cell_length_c   8.87965694
_cell_angle_alpha   82.00758938
_cell_angle_beta   82.30553682
_cell_angle_gamma   74.92025370
_symmetry_Int_Tables_number   1
_chemical_formula_structural   Zr4Ni2H9
_chemical_formula_sum   'Zr8 Ni4 H18'
_cell_volume   267.01416450
_cell_formula_units_Z   2
loop_
 _symmetry_equiv_pos_site_id
 _symmetry_equiv_pos_as_xyz
  1  'x, y, z'
loop_
 _atom_site_type_symbol
 _atom_site_label
 _atom_site_symmetry_multiplicity
 _atom_site_fract_x
 _atom_site_fract_y
 _atom_site_fract_z
 _atom_site_occupancy
  Zr  Zr0  1  0.74870500  0.60241800  0.92006200  1
  Zr  Zr1  1  0.25129500  0.39758200  0.07993800  1
  Zr  Zr2  1  0.74650500  0.92584800  0.57941200  1
  Zr  Zr3  1  0.25349500  0.07415200  0.42058800  1
  Zr  Zr4  1  0.17865600  0.98338400  0.83346800  1
  Zr  Zr5  1  0.82134400  0.01661600  0.16653200  1
  Zr  Zr6  1  0.33365800  0.50356000  0.66158600  1
  Zr  Zr7  1  0.66634200  0.49644000  0.33841400  1
  Ni  Ni0  1  0.35044600  0.85073600  0.15054800  1
  Ni  Ni1  1  0.64955400  0.14926400  0.84945200  1
  Ni  Ni2  1  0.12810200  0.62609600  0.37269800  1
  Ni  Ni3  1  0.87189800  0.37390400  0.62730200  1
  H  H0  1  0.65034700  0.74813700  0.14291000  1
  H  H1  1  0.34965300  0.25186300  0.85709000  1
  H  H2  1  0.50150300  0.74777400  0.50156700  1
  H  H3  1  0.49849700  0.25222600  0.49843300  1
  H  H4  1  0.83620700  0.77144700  0.36435800  1
  H  H5  1  0.16379300  0.22855300  0.63564200  1
  H  H6  1  0.87207200  0.38413900  0.12305800  1
  H  H7  1  0.12792800  0.61586100  0.87694200  1
  H  H8  1  0.50668200  0.75914700  0.74940200  1
  H  H9  1  0.49331800  0.24085300  0.25059800  1
  H  H10  1  0.62126700  0.28997800  0.00318300  1
  H  H11  1  0.37873300  0.71002200  0.99681700  1
  H  H12  1  0.15259100  0.07017000  0.05797600  1
  H  H13  1  0.84740900  0.92983000  0.94202400  1
  H  H14  1  0.12138000  0.87204100  0.62061100  1
  H  H15  1  0.87862000  0.12795900  0.37938900  1
  H  H16  1  0.07661000  0.40023000  0.29897300  1
  H  H17  1  0.92339000  0.59977000  0.70102700  1
loop_
_geom_bond_atom_site_label_1
_geom_bond_atom_site_label_2
_geom_bond_distance
_geom_bond_site_symmetry_2
H0 Ni0 1.627451 1_555
H0 Zr5 2.036621 1_565
H0 Zr7 2.078723 1_555
H0 Zr0 2.194706 1_554
H1 Ni1 1.627451 1_555
H1 Zr4 2.036621 1_545
H1 Zr6 2.078723 1_555
H1 Zr1 2.194706 1_556
H2 Zr3 2.098093 1_565
H2 Zr7 2.118294 1_555
H2 Zr2 2.130897 1_555
H2 Zr6 2.137749 1_555
H3 Zr2 2.098093 1_545
H3 Zr6 2.118294 1_555
H3 Zr3 2.130897 1_555
H3 Zr7 2.137749 1_555
H4 Ni2 1.636954 1_655
H4 Zr7 2.070350 1_555
H4 Zr5 2.074324 1_565
H4 Zr2 2.152225 1_555
H5 Ni3 1.636954 1_455
H5 Zr6 2.070350 1_555
H5 Zr4 2.074324 1_545
H5 Zr3 2.152225 1_555
H6 Zr0 2.124756 1_554
H6 Zr1 2.131838 1_655
H6 Zr5 2.136871 1_555
H6 Zr7 2.180778 1_555
H7 Zr1 2.124756 1_556
H7 Zr0 2.131838 1_455
H7 Zr4 2.136871 1_555
H7 Zr6 2.180778 1_555
H8 Zr4 2.056174 1_555
H8 Zr0 2.116084 1_555
H8 Zr2 2.166154 1_555
H8 Zr6 2.205628 1_555
H9 Zr5 2.056174 1_555
H9 Zr1 2.116084 1_555
H9 Zr3 2.166154 1_555
H9 Zr7 2.205628 1_555
H10 Ni1 1.641155 1_554
H10 Zr1 2.056367 1_555
H10 Zr0 2.074433 1_554
H10 Zr5 2.156517 1_555
H11 Ni0 1.641155 1_556
H11 Zr0 2.056367 1_555
H11 Zr1 2.074433 1_556
H11 Zr4 2.156517 1_555
H12 Ni0 1.638366 1_545
H12 Zr5 2.052073 1_455
H12 Zr4 2.095209 1_544
H12 Zr1 2.098390 1_555
H13 Ni1 1.638366 1_565
H13 Zr4 2.052073 1_655
H13 Zr5 2.095209 1_566
H13 Zr0 2.098390 1_555
H14 Zr6 2.115708 1_555
H14 Zr2 2.121496 1_455
H14 Zr3 2.126992 1_565
H14 Zr4 2.160089 1_555
H15 Zr7 2.115708 1_555
H15 Zr3 2.121496 1_655
H15 Zr2 2.126992 1_545
H15 Zr5 2.160089 1_555
H16 Ni2 1.613233 1_555
H16 Zr1 2.057885 1_555
H16 Zr3 2.076027 1_555
H16 Zr7 2.216135 1_455
H17 Ni3 1.613233 1_555
H17 Zr0 2.057885 1_555
H17 Zr2 2.076027 1_555
H17 Zr6 2.216135 1_655
