# generated using pymatgen
data_BaC7N10
_symmetry_space_group_name_H-M   'P 1'
_cell_length_a   5.91618257
_cell_length_b   5.73133404
_cell_length_c   8.28649308
_cell_angle_alpha   90.00000000
_cell_angle_beta   106.64904493
_cell_angle_gamma   90.00000000
_symmetry_Int_Tables_number   1
_chemical_formula_structural   BaC7N10
_chemical_formula_sum   'Ba2 C14 N20'
_cell_volume   269.19611096
_cell_formula_units_Z   2
loop_
 _symmetry_equiv_pos_site_id
 _symmetry_equiv_pos_as_xyz
  1  'x, y, z'
loop_
 _atom_site_type_symbol
 _atom_site_label
 _atom_site_symmetry_multiplicity
 _atom_site_fract_x
 _atom_site_fract_y
 _atom_site_fract_z
 _atom_site_occupancy
  Ba  Ba0  1  0.95666005  0.12367044  0.67245013  1
  Ba  Ba1  1  0.95666005  0.87632956  0.17245013  1
  C  C0  1  0.53726216  0.97396140  0.82783728  1
  C  C1  1  0.53726216  0.02603860  0.32783728  1
  C  C2  1  0.36193348  0.03099144  0.02066733  1
  C  C3  1  0.36193348  0.96900856  0.52066733  1
  C  C4  1  0.11361646  0.38595461  0.07302102  1
  C  C5  1  0.11361646  0.61404539  0.57302102  1
  C  C6  1  0.66276052  0.36639463  0.98869447  1
  C  C7  1  0.66276052  0.63360537  0.48869447  1
  C  C8  1  0.83704341  0.63260472  0.81254649  1
  C  C9  1  0.83704341  0.36739528  0.31254649  1
  C  C10  1  0.29717493  0.62266900  0.88646587  1
  C  C11  1  0.29717493  0.37733100  0.38646587  1
  C  C12  1  0.48268120  0.37945336  0.68674073  1
  C  C13  1  0.48268120  0.62054664  0.18674073  1
  N  N0  1  0.74210711  0.84030384  0.83691536  1
  N  N1  1  0.74210711  0.15969616  0.33691536  1
  N  N2  1  0.57031193  0.12905918  0.97489306  1
  N  N3  1  0.57031193  0.87094082  0.47489306  1
  N  N4  1  0.32231479  0.87307416  0.86979071  1
  N  N5  1  0.32231479  0.12692584  0.36979071  1
  N  N6  1  0.16551297  0.17185214  0.01360794  1
  N  N7  1  0.16551297  0.82814786  0.51360794  1
  N  N8  1  0.28539951  0.50570499  0.72546816  1
  N  N9  1  0.28539951  0.49429501  0.22546816  1
  N  N10  1  0.44747198  0.11576110  0.67517241  1
  N  N11  1  0.44747198  0.88423890  0.17517241  1
  N  N12  1  0.88289205  0.39464537  0.12159355  1
  N  N13  1  0.88289205  0.60535463  0.62159355  1
  N  N14  1  0.07993595  0.58767731  0.93798353  1
  N  N15  1  0.07993595  0.41232269  0.43798353  1
  N  N16  1  0.70027754  0.41556014  0.82252629  1
  N  N17  1  0.70027754  0.58443986  0.32252629  1
  N  N18  1  0.49694395  0.53883525  0.02292467  1
  N  N19  1  0.49694395  0.46116475  0.52292467  1
loop_
_geom_bond_atom_site_label_1
_geom_bond_atom_site_label_2
_geom_bond_distance
_geom_bond_site_symmetry_2
Ba0 N7 2.657052 1_645
Ba0 N0 2.664095 1_545
Ba0 N1 2.713332 1_555
Ba0 N4 2.718384 1_645
Ba0 N6 2.755601 1_656
Ba0 N16 2.779711 1_555
Ba0 N15 2.802798 1_655
Ba0 N3 2.803276 1_545
Ba0 N13 2.807864 1_555
Ba0 N8 2.877529 1_655
Ba0 N10 2.897705 1_655
Ba0 N13 3.014529 1_545
Ba0 N10 3.019330 1_555
Ba1 N6 2.657052 1_665
Ba1 N1 2.664095 1_565
Ba1 N0 2.713332 1_554
Ba1 N5 2.718384 1_665
Ba1 N7 2.755601 1_655
Ba1 N17 2.779711 1_555
Ba1 N14 2.802798 1_654
Ba1 N2 2.803276 1_564
Ba1 N12 2.807864 1_555
Ba1 N9 2.877529 1_655
Ba1 N11 2.897705 1_655
Ba1 N12 3.014529 1_565
Ba1 N11 3.019330 1_555
C0 N0 1.417368 1_555
C0 N10 1.469001 1_565
C0 N2 1.475399 1_565
C0 N4 1.525011 1_555
C1 N1 1.417368 1_555
C1 N11 1.469001 1_545
C1 N3 1.475399 1_545
C1 N5 1.525011 1_555
C2 N6 1.402361 1_555
C2 N11 1.493802 1_545
C2 N2 1.499181 1_554
C2 N4 1.506412 1_544
C3 N7 1.402361 1_555
C3 N10 1.493802 1_565
C3 N3 1.499181 1_555
C3 N5 1.506412 1_565
C4 N6 1.388893 1_555
C4 N9 1.509493 1_555
C4 N12 1.530540 1_455
C4 N14 1.581370 1_554
C5 N7 1.388893 1_555
C5 N8 1.509493 1_555
C5 N13 1.530540 1_455
C5 N15 1.581370 1_555
C6 N12 1.453705 1_556
C6 N2 1.458307 1_555
C6 N18 1.476155 1_556
C6 N16 1.483169 1_555
C7 N13 1.453705 1_555
C7 N3 1.458307 1_555
C7 N19 1.476155 1_555
C7 N17 1.483169 1_555
C8 N0 1.355826 1_555
C8 N16 1.499100 1_555
C8 N14 1.534858 1_655
C8 N13 1.687507 1_555
C9 N1 1.355826 1_555
C9 N17 1.499100 1_555
C9 N15 1.534858 1_655
C9 N12 1.687507 1_555
C10 N4 1.453500 1_555
C10 N18 1.463050 1_556
C10 N8 1.476759 1_555
C10 N14 1.479413 1_555
C11 N5 1.453500 1_555
C11 N19 1.463050 1_555
C11 N9 1.476759 1_555
C11 N15 1.479413 1_555
C12 N19 1.461087 1_555
C12 N16 1.461540 1_555
C12 N8 1.484401 1_555
C12 N10 1.524858 1_555
C13 N18 1.461087 1_555
C13 N17 1.461540 1_555
C13 N9 1.484401 1_555
C13 N11 1.524858 1_555
