# generated using pymatgen
data_La3Tm2(GaO4)3
_symmetry_space_group_name_H-M   'P 1'
_cell_length_a   11.40377575
_cell_length_b   11.40377575
_cell_length_c   11.40377575
_cell_angle_alpha   109.47122063
_cell_angle_beta   109.47122063
_cell_angle_gamma   109.47122063
_symmetry_Int_Tables_number   1
_chemical_formula_structural   La3Tm2(GaO4)3
_chemical_formula_sum   'La12 Tm8 Ga12 O48'
_cell_volume   1141.62669378
_cell_formula_units_Z   4
loop_
 _symmetry_equiv_pos_site_id
 _symmetry_equiv_pos_as_xyz
  1  'x, y, z'
loop_
 _atom_site_type_symbol
 _atom_site_label
 _atom_site_symmetry_multiplicity
 _atom_site_fract_x
 _atom_site_fract_y
 _atom_site_fract_z
 _atom_site_occupancy
  La  La0  1  0.25000000  0.37500000  0.12500000  1
  La  La1  1  0.75000000  0.62500000  0.87500000  1
  La  La2  1  0.75000000  0.12500000  0.37500000  1
  La  La3  1  0.12500000  0.25000000  0.37500000  1
  La  La4  1  0.37500000  0.75000000  0.12500000  1
  La  La5  1  0.25000000  0.87500000  0.62500000  1
  La  La6  1  0.87500000  0.75000000  0.62500000  1
  La  La7  1  0.62500000  0.25000000  0.87500000  1
  La  La8  1  0.37500000  0.12500000  0.25000000  1
  La  La9  1  0.62500000  0.87500000  0.75000000  1
  La  La10  1  0.12500000  0.37500000  0.75000000  1
  La  La11  1  0.87500000  0.62500000  0.25000000  1
  Tm  Tm0  1  0.00000000  0.00000000  0.00000000  1
  Tm  Tm1  1  0.50000000  0.00000000  0.50000000  1
  Tm  Tm2  1  0.00000000  0.50000000  0.50000000  1
  Tm  Tm3  1  0.50000000  0.00000000  0.00000000  1
  Tm  Tm4  1  0.50000000  0.50000000  0.00000000  1
  Tm  Tm5  1  0.50000000  0.50000000  0.50000000  1
  Tm  Tm6  1  0.00000000  0.00000000  0.50000000  1
  Tm  Tm7  1  0.00000000  0.50000000  0.00000000  1
  Ga  Ga0  1  0.25000000  0.62500000  0.37500000  1
  Ga  Ga1  1  0.75000000  0.37500000  0.62500000  1
  Ga  Ga2  1  0.75000000  0.87500000  0.12500000  1
  Ga  Ga3  1  0.37500000  0.25000000  0.62500000  1
  Ga  Ga4  1  0.62500000  0.75000000  0.37500000  1
  Ga  Ga5  1  0.25000000  0.12500000  0.87500000  1
  Ga  Ga6  1  0.12500000  0.75000000  0.87500000  1
  Ga  Ga7  1  0.87500000  0.25000000  0.12500000  1
  Ga  Ga8  1  0.62500000  0.37500000  0.25000000  1
  Ga  Ga9  1  0.37500000  0.62500000  0.75000000  1
  Ga  Ga10  1  0.87500000  0.12500000  0.75000000  1
  Ga  Ga11  1  0.12500000  0.87500000  0.25000000  1
  O  O0  1  0.47557000  0.37399000  0.28815000  1
  O  O1  1  0.52443000  0.62601000  0.71185000  1
  O  O2  1  0.58584000  0.18742100  0.21185000  1
  O  O3  1  0.91416000  0.12601000  0.60158100  1
  O  O4  1  0.28815000  0.47557000  0.37399000  1
  O  O5  1  0.31257900  0.91416000  0.28815000  1
  O  O6  1  0.41416000  0.81257900  0.78815000  1
  O  O7  1  0.08584000  0.87399000  0.39841900  1
  O  O8  1  0.71185000  0.52443000  0.62601000  1
  O  O9  1  0.68742100  0.08584000  0.71185000  1
  O  O10  1  0.02443000  0.31257900  0.89841900  1
  O  O11  1  0.21185000  0.58584000  0.18742100  1
  O  O12  1  0.12601000  0.02443000  0.21185000  1
  O  O13  1  0.97557000  0.68742100  0.10158100  1
  O  O14  1  0.78815000  0.41416000  0.81257900  1
  O  O15  1  0.87399000  0.97557000  0.78815000  1
  O  O16  1  0.60158100  0.91416000  0.12601000  1
  O  O17  1  0.18742100  0.47557000  0.60158100  1
  O  O18  1  0.39841900  0.08584000  0.87399000  1
  O  O19  1  0.81257900  0.52443000  0.39841900  1
  O  O20  1  0.89841900  0.02443000  0.31257900  1
  O  O21  1  0.37399000  0.58584000  0.89841900  1
  O  O22  1  0.10158100  0.97557000  0.68742100  1
  O  O23  1  0.62601000  0.41416000  0.10158100  1
  O  O24  1  0.37399000  0.28815000  0.47557000  1
  O  O25  1  0.58584000  0.89841900  0.37399000  1
  O  O26  1  0.62601000  0.71185000  0.52443000  1
  O  O27  1  0.41416000  0.10158100  0.62601000  1
  O  O28  1  0.12601000  0.60158100  0.91416000  1
  O  O29  1  0.02443000  0.21185000  0.12601000  1
  O  O30  1  0.87399000  0.39841900  0.08584000  1
  O  O31  1  0.97557000  0.78815000  0.87399000  1
  O  O32  1  0.31257900  0.89841900  0.02443000  1
  O  O33  1  0.91416000  0.28815000  0.31257900  1
  O  O34  1  0.68742100  0.10158100  0.97557000  1
  O  O35  1  0.08584000  0.71185000  0.68742100  1
  O  O36  1  0.18742100  0.21185000  0.58584000  1
  O  O37  1  0.47557000  0.60158100  0.18742100  1
  O  O38  1  0.81257900  0.78815000  0.41416000  1
  O  O39  1  0.52443000  0.39841900  0.81257900  1
  O  O40  1  0.28815000  0.31257900  0.91416000  1
  O  O41  1  0.71185000  0.68742100  0.08584000  1
  O  O42  1  0.21185000  0.12601000  0.02443000  1
  O  O43  1  0.78815000  0.87399000  0.97557000  1
  O  O44  1  0.89841900  0.37399000  0.58584000  1
  O  O45  1  0.10158100  0.62601000  0.41416000  1
  O  O46  1  0.60158100  0.18742100  0.47557000  1
  O  O47  1  0.39841900  0.81257900  0.52443000  1
loop_
_geom_bond_atom_site_label_1
_geom_bond_atom_site_label_2
_geom_bond_distance
_geom_bond_site_symmetry_2
La0 O42 2.497956 1_555
La0 O4 2.497956 1_555
La0 O40 2.497957 1_554
La0 O11 2.497957 1_555
La0 O29 2.630987 1_555
La0 O0 2.630987 1_555
La0 O37 2.630990 1_555
La0 O10 2.630990 1_554
La1 O8 2.497956 1_555
La1 O43 2.497956 1_555
La1 O41 2.497957 1_556
La1 O14 2.497957 1_555
La1 O1 2.630987 1_555
La1 O31 2.630987 1_555
La1 O13 2.630990 1_556
La1 O39 2.630990 1_555
La2 O20 2.497950 1_555
La2 O46 2.497950 1_555
La2 O16 2.497957 1_545
La2 O44 2.497957 1_555
La2 O3 2.630996 1_555
La2 O2 2.630996 1_555
La2 O33 2.630996 1_555
La2 O25 2.630996 1_545
La3 O29 2.497956 1_555
La3 O24 2.497956 1_555
La3 O33 2.497957 1_455
La3 O36 2.497957 1_555
La3 O12 2.630987 1_555
La3 O4 2.630987 1_555
La3 O17 2.630990 1_555
La3 O20 2.630990 1_455
La4 O32 2.497950 1_555
La4 O37 2.497950 1_555
La4 O28 2.497957 1_554
La4 O25 2.497957 1_555
La4 O16 2.630996 1_555
La4 O11 2.630996 1_555
La4 O21 2.630996 1_554
La4 O5 2.630996 1_555
La5 O47 2.497950 1_555
La5 O22 2.497950 1_555
La5 O45 2.497957 1_555
La5 O18 2.497957 1_565
La5 O27 2.630996 1_565
La5 O35 2.630996 1_555
La5 O7 2.630996 1_555
La5 O6 2.630996 1_555
La6 O26 2.497956 1_555
La6 O31 2.497956 1_555
La6 O35 2.497957 1_655
La6 O38 2.497957 1_555
La6 O8 2.630987 1_555
La6 O15 2.630987 1_555
La6 O22 2.630990 1_655
La6 O19 2.630990 1_555
La7 O39 2.497950 1_555
La7 O34 2.497950 1_555
La7 O27 2.497957 1_555
La7 O30 2.497957 1_556
La7 O23 2.630996 1_556
La7 O9 2.630996 1_555
La7 O14 2.630996 1_555
La7 O18 2.630996 1_555
La8 O12 2.497956 1_555
La8 O0 2.497956 1_555
La8 O5 2.497957 1_545
La8 O2 2.497957 1_555
La8 O42 2.630987 1_555
La8 O24 2.630987 1_555
La8 O46 2.630990 1_555
La8 O32 2.630990 1_545
La9 O1 2.497956 1_555
La9 O15 2.497956 1_555
La9 O9 2.497957 1_565
La9 O6 2.497957 1_555
La9 O26 2.630987 1_555
La9 O43 2.630987 1_555
La9 O34 2.630990 1_565
La9 O47 2.630990 1_555
La10 O10 2.497950 1_555
La10 O17 2.497950 1_555
La10 O3 2.497957 1_455
La10 O21 2.497957 1_555
La10 O28 2.630996 1_555
La10 O36 2.630996 1_555
La10 O44 2.630996 1_455
La10 O40 2.630996 1_555
La11 O19 2.497950 1_555
La11 O13 2.497950 1_555
La11 O23 2.497957 1_555
La11 O7 2.497957 1_655
La11 O45 2.630996 1_655
La11 O41 2.630996 1_555
La11 O30 2.630996 1_555
La11 O38 2.630996 1_555
Ga0 O11 1.891481 1_555
Ga0 O45 1.891481 1_555
Ga0 O47 1.891484 1_555
Ga0 O4 1.891492 1_555
Ga1 O14 1.891481 1_555
Ga1 O44 1.891481 1_555
Ga1 O46 1.891484 1_555
Ga1 O8 1.891492 1_555
Ga2 O41 1.891481 1_555
Ga2 O16 1.891481 1_555
Ga2 O20 1.891484 1_565
Ga2 O43 1.891492 1_554
Ga3 O36 1.891481 1_555
Ga3 O27 1.891481 1_555
Ga3 O39 1.891484 1_555
Ga3 O24 1.891492 1_555
Ga4 O38 1.891481 1_555
Ga4 O25 1.891481 1_555
Ga4 O37 1.891484 1_555
Ga4 O26 1.891492 1_555
Ga5 O18 1.891481 1_555
Ga5 O40 1.891481 1_555
Ga5 O22 1.891484 1_545
Ga5 O42 1.891492 1_556
Ga6 O35 1.891481 1_555
Ga6 O28 1.891481 1_555
Ga6 O32 1.891484 1_556
Ga6 O31 1.891492 1_455
Ga7 O30 1.891481 1_555
Ga7 O33 1.891481 1_555
Ga7 O34 1.891484 1_554
Ga7 O29 1.891492 1_655
Ga8 O2 1.891481 1_555
Ga8 O23 1.891481 1_555
Ga8 O19 1.891484 1_555
Ga8 O0 1.891492 1_555
Ga9 O6 1.891481 1_555
Ga9 O21 1.891481 1_555
Ga9 O17 1.891484 1_555
Ga9 O1 1.891492 1_555
Ga10 O9 1.891481 1_555
Ga10 O3 1.891481 1_555
Ga10 O10 1.891484 1_655
Ga10 O15 1.891492 1_545
Ga11 O7 1.891481 1_555
Ga11 O5 1.891481 1_555
Ga11 O13 1.891484 1_455
Ga11 O12 1.891492 1_565
O0 Tm5 2.224653 1_555
O1 Tm5 2.224653 1_555
O2 Tm3 2.224658 1_555
O3 Tm6 2.224658 1_655
O4 Tm5 2.224653 1_555
O5 Tm1 2.224658 1_565
O6 Tm3 2.224658 1_566
O7 Tm6 2.224658 1_565
O8 Tm5 2.224653 1_555
O9 Tm1 2.224658 1_555
O10 Tm7 2.224665 1_556
O11 Tm7 2.224658 1_555
O12 Tm0 2.224653 1_555
O13 Tm7 2.224665 1_655
O14 Tm7 2.224658 1_656
O15 Tm0 2.224653 1_666
O16 Tm3 2.224658 1_565
O17 Tm2 2.224665 1_555
O18 Tm3 2.224658 1_556
O19 Tm2 2.224665 1_655
O20 Tm6 2.224665 1_655
O21 Tm4 2.224658 1_556
O22 Tm6 2.224665 1_565
O23 Tm4 2.224658 1_555
O24 Tm5 2.224653 1_555
O25 Tm1 2.224658 1_565
O26 Tm5 2.224653 1_555
O27 Tm1 2.224658 1_555
O28 Tm7 2.224658 1_556
O29 Tm0 2.224653 1_555
O30 Tm7 2.224658 1_655
O31 Tm0 2.224653 1_666
O32 Tm3 2.224665 1_565
O33 Tm2 2.224658 1_655
O34 Tm3 2.224665 1_556
O35 Tm2 2.224658 1_555
O36 Tm6 2.224658 1_555
O37 Tm4 2.224665 1_555
O38 Tm6 2.224658 1_665
O39 Tm4 2.224665 1_556
O40 Tm4 2.224658 1_556
O41 Tm4 2.224658 1_555
O42 Tm0 2.224653 1_555
O43 Tm0 2.224653 1_666
O44 Tm2 2.224658 1_655
O45 Tm2 2.224658 1_555
O46 Tm1 2.224665 1_555
O47 Tm1 2.224665 1_565
