# generated using pymatgen
data_Ca(MoO2)2
_symmetry_space_group_name_H-M   'P 1'
_cell_length_a   2.90208084
_cell_length_b   9.67805750
_cell_length_c   11.10326512
_cell_angle_alpha   90.00000000
_cell_angle_beta   90.00000000
_cell_angle_gamma   90.00000000
_symmetry_Int_Tables_number   1
_chemical_formula_structural   Ca(MoO2)2
_chemical_formula_sum   'Ca4 Mo8 O16'
_cell_volume   311.85191396
_cell_formula_units_Z   4
loop_
 _symmetry_equiv_pos_site_id
 _symmetry_equiv_pos_as_xyz
  1  'x, y, z'
loop_
 _atom_site_type_symbol
 _atom_site_label
 _atom_site_symmetry_multiplicity
 _atom_site_fract_x
 _atom_site_fract_y
 _atom_site_fract_z
 _atom_site_occupancy
  Ca  Ca0  1  0.25000000  0.72029229  0.82550406  1
  Ca  Ca1  1  0.75000000  0.27970771  0.17449594  1
  Ca  Ca2  1  0.25000000  0.22029229  0.67449594  1
  Ca  Ca3  1  0.75000000  0.77970771  0.32550406  1
  Mo  Mo0  1  0.75000000  0.90302815  0.60059473  1
  Mo  Mo1  1  0.25000000  0.59697185  0.10059473  1
  Mo  Mo2  1  0.75000000  0.40302815  0.89940527  1
  Mo  Mo3  1  0.25000000  0.09697185  0.39940527  1
  Mo  Mo4  1  0.25000000  0.03396261  0.90709695  1
  Mo  Mo5  1  0.75000000  0.96603739  0.09290305  1
  Mo  Mo6  1  0.25000000  0.53396261  0.59290305  1
  Mo  Mo7  1  0.75000000  0.46603739  0.40709695  1
  O  O0  1  0.75000000  0.37783837  0.57735817  1
  O  O1  1  0.25000000  0.62216163  0.42264183  1
  O  O2  1  0.75000000  0.87783837  0.92264183  1
  O  O3  1  0.25000000  0.12216163  0.07735817  1
  O  O4  1  0.75000000  0.54289824  0.22861214  1
  O  O5  1  0.25000000  0.45710176  0.77138786  1
  O  O6  1  0.75000000  0.04289824  0.27138786  1
  O  O7  1  0.25000000  0.95710176  0.72861214  1
  O  O8  1  0.75000000  0.10871318  0.54194902  1
  O  O9  1  0.25000000  0.89128682  0.45805098  1
  O  O10  1  0.75000000  0.60871318  0.95805098  1
  O  O11  1  0.25000000  0.39128682  0.04194902  1
  O  O12  1  0.25000000  0.31353481  0.34630945  1
  O  O13  1  0.75000000  0.68646519  0.65369055  1
  O  O14  1  0.75000000  0.18646519  0.84630945  1
  O  O15  1  0.25000000  0.81353481  0.15369055  1
loop_
_geom_bond_atom_site_label_1
_geom_bond_atom_site_label_2
_geom_bond_distance
_geom_bond_site_symmetry_2
Ca0 O10 2.331855 1_555
Ca0 O10 2.331855 1_455
Ca0 O2 2.365082 1_555
Ca0 O2 2.365082 1_455
Ca0 O13 2.419087 1_455
Ca0 O13 2.419087 1_555
Ca0 O7 2.531795 1_555
Ca0 O5 2.617085 1_555
Ca1 O11 2.331855 1_655
Ca1 O11 2.331855 1_555
Ca1 O3 2.365082 1_555
Ca1 O3 2.365082 1_655
Ca1 O12 2.419087 1_555
Ca1 O12 2.419087 1_655
Ca1 O6 2.531795 1_555
Ca1 O4 2.617085 1_555
Ca2 O8 2.331855 1_455
Ca2 O8 2.331855 1_555
Ca2 O0 2.365082 1_455
Ca2 O0 2.365082 1_555
Ca2 O14 2.419087 1_555
Ca2 O14 2.419087 1_455
Ca2 O5 2.531795 1_555
Ca2 O7 2.617085 1_545
Ca3 O9 2.331855 1_555
Ca3 O9 2.331855 1_655
Ca3 O1 2.365082 1_655
Ca3 O1 2.365082 1_555
Ca3 O15 2.419087 1_555
Ca3 O15 2.419087 1_655
Ca3 O4 2.531795 1_555
Ca3 O6 2.617085 1_565
Mo0 O8 2.094426 1_565
Mo0 O7 2.097570 1_655
Mo0 O7 2.097570 1_555
Mo0 O9 2.150203 1_555
Mo0 O9 2.150203 1_655
Mo0 O13 2.177243 1_555
Mo1 O11 2.094426 1_555
Mo1 O4 2.097570 1_455
Mo1 O4 2.097570 1_555
Mo1 O10 2.150203 1_554
Mo1 O10 2.150203 1_454
Mo1 O15 2.177243 1_555
Mo2 O10 2.094426 1_555
Mo2 O5 2.097570 1_555
Mo2 O5 2.097570 1_655
Mo2 O11 2.150203 1_556
Mo2 O11 2.150203 1_656
Mo2 O14 2.177243 1_555
Mo3 O9 2.094426 1_545
Mo3 O6 2.097570 1_555
Mo3 O6 2.097570 1_455
Mo3 O8 2.150203 1_455
Mo3 O8 2.150203 1_555
Mo3 O12 2.177243 1_555
Mo4 O3 2.074234 1_556
Mo4 O2 2.101991 1_445
Mo4 O2 2.101991 1_545
Mo4 O7 2.116772 1_545
Mo4 O14 2.177023 1_555
Mo4 O14 2.177023 1_455
Mo5 O2 2.074234 1_554
Mo5 O3 2.101991 1_665
Mo5 O3 2.101991 1_565
Mo5 O6 2.116772 1_565
Mo5 O15 2.177023 1_555
Mo5 O15 2.177023 1_655
Mo6 O1 2.074234 1_555
Mo6 O0 2.101991 1_555
Mo6 O0 2.101991 1_455
Mo6 O5 2.116772 1_555
Mo6 O13 2.177023 1_455
Mo6 O13 2.177023 1_555
Mo7 O0 2.074234 1_555
Mo7 O1 2.101991 1_655
Mo7 O1 2.101991 1_555
Mo7 O4 2.116772 1_555
Mo7 O12 2.177023 1_555
Mo7 O12 2.177023 1_655
