# generated using pymatgen
data_Ba2DyInTe5
_symmetry_space_group_name_H-M   'P 1'
_cell_length_a   10.50248625
_cell_length_b   10.50248625
_cell_length_c   14.39944900
_cell_angle_alpha   90.00000000
_cell_angle_beta   90.00000000
_cell_angle_gamma   154.75325804
_symmetry_Int_Tables_number   1
_chemical_formula_structural   Ba2DyInTe5
_chemical_formula_sum   'Ba4 Dy2 In2 Te10'
_cell_volume   677.43366835
_cell_formula_units_Z   2
loop_
 _symmetry_equiv_pos_site_id
 _symmetry_equiv_pos_as_xyz
  1  'x, y, z'
loop_
 _atom_site_type_symbol
 _atom_site_label
 _atom_site_symmetry_multiplicity
 _atom_site_fract_x
 _atom_site_fract_y
 _atom_site_fract_z
 _atom_site_occupancy
  Ba  Ba0  1  0.86954600  0.13045400  0.18424700  1
  Ba  Ba1  1  0.13045400  0.86954600  0.68424700  1
  Ba  Ba2  1  0.88073200  0.11926800  0.81799800  1
  Ba  Ba3  1  0.11926800  0.88073200  0.31799800  1
  Dy  Dy0  1  0.79048300  0.20951700  0.48169800  1
  Dy  Dy1  1  0.20951700  0.79048300  0.98169800  1
  In  In0  1  0.55630700  0.44369300  0.06555200  1
  In  In1  1  0.44369300  0.55630700  0.56555200  1
  Te  Te0  1  0.64438300  0.35561700  0.49876300  1
  Te  Te1  1  0.35561700  0.64438300  0.99876300  1
  Te  Te2  1  0.70787200  0.29212800  0.83949400  1
  Te  Te3  1  0.29212800  0.70787200  0.33949400  1
  Te  Te4  1  0.68996400  0.31003600  0.13393200  1
  Te  Te5  1  0.31003600  0.68996400  0.63393200  1
  Te  Te6  1  0.49588300  0.50411700  0.23790200  1
  Te  Te7  1  0.50411700  0.49588300  0.73790200  1
  Te  Te8  1  0.95006500  0.04993500  0.44858400  1
  Te  Te9  1  0.04993500  0.95006500  0.94858400  1
loop_
_geom_bond_atom_site_label_1
_geom_bond_atom_site_label_2
_geom_bond_distance
_geom_bond_site_symmetry_2
Ba0 Te1 3.533145 1_654
Ba0 Te1 3.533145 1_544
Ba0 Te6 3.545532 1_655
Ba0 Te6 3.545532 1_545
Ba0 Te3 3.575403 1_545
Ba0 Te3 3.575403 1_655
Ba0 Te4 3.751558 1_555
Ba0 Te8 4.148717 1_555
Ba1 Te0 3.533145 1_565
Ba1 Te0 3.533145 1_455
Ba1 Te7 3.545532 1_565
Ba1 Te7 3.545532 1_455
Ba1 Te2 3.575403 1_455
Ba1 Te2 3.575403 1_565
Ba1 Te5 3.751558 1_555
Ba1 Te9 4.148717 1_555
Ba2 Te1 3.508311 1_655
Ba2 Te1 3.508311 1_545
Ba2 Te2 3.556647 1_555
Ba2 Te7 3.604769 1_655
Ba2 Te7 3.604769 1_545
Ba2 Te5 3.793779 1_655
Ba2 Te5 3.793779 1_545
Ba2 Te9 3.945142 1_645
Ba3 Te0 3.508311 1_565
Ba3 Te0 3.508311 1_455
Ba3 Te3 3.556647 1_555
Ba3 Te6 3.604769 1_565
Ba3 Te6 3.604769 1_455
Ba3 Te4 3.793779 1_565
Ba3 Te4 3.793779 1_455
Ba3 Te8 3.945142 1_465
Dy0 Te0 3.004711 1_555
Dy0 Te3 3.076055 1_545
Dy0 Te3 3.076055 1_655
Dy0 Te5 3.199052 1_545
Dy0 Te5 3.199052 1_655
Dy0 Te8 3.305561 1_555
Dy1 Te1 3.004711 1_555
Dy1 Te2 3.076055 1_455
Dy1 Te2 3.076055 1_565
Dy1 Te4 3.199052 1_456
Dy1 Te4 3.199052 1_566
Dy1 Te9 3.305561 1_555
In0 Te6 2.773626 1_555
In0 Te9 2.849896 1_654
In0 Te9 2.849896 1_544
In0 Te4 2.911169 1_555
In1 Te7 2.773626 1_555
In1 Te8 2.849896 1_565
In1 Te8 2.849896 1_455
In1 Te5 2.911169 1_555
