# generated using pymatgen
data_Tm2InAg
_symmetry_space_group_name_H-M   'P 1'
_cell_length_a   3.59275259
_cell_length_b   3.59275259
_cell_length_c   7.44047553
_cell_angle_alpha   90.00000000
_cell_angle_beta   90.00000000
_cell_angle_gamma   90.00000000
_symmetry_Int_Tables_number   1
_chemical_formula_structural   Tm2InAg
_chemical_formula_sum   'Tm2 In1 Ag1'
_cell_volume   96.04069961
_cell_formula_units_Z   1
loop_
 _symmetry_equiv_pos_site_id
 _symmetry_equiv_pos_as_xyz
  1  'x, y, z'
loop_
 _atom_site_type_symbol
 _atom_site_label
 _atom_site_symmetry_multiplicity
 _atom_site_fract_x
 _atom_site_fract_y
 _atom_site_fract_z
 _atom_site_occupancy
  Tm  Tm0  1  0.00000000  0.00000000  0.76654048  1
  Tm  Tm1  1  -0.00000000  -0.00000000  0.23345952  1
  In  In0  1  0.50000000  0.50000000  0.50000000  1
  Ag  Ag0  1  0.50000000  0.50000000  -0.00000000  1
loop_
_geom_bond_atom_site_label_1
_geom_bond_atom_site_label_2
_geom_bond_distance
_geom_bond_site_symmetry_2
In0 Tm0 3.222882 1_565
In0 Tm0 3.222882 1_555
In0 Tm0 3.222882 1_655
In0 Tm1 3.222882 1_565
In0 Tm0 3.222882 1_665
In0 Tm1 3.222882 1_655
In0 Tm1 3.222882 1_665
In0 Tm1 3.222882 1_555
Ag0 Tm0 3.077544 1_654
Ag0 Tm1 3.077544 1_655
Ag0 Tm0 3.077544 1_664
Ag0 Tm1 3.077544 1_665
Ag0 Tm1 3.077544 1_555
Ag0 Tm0 3.077544 1_554
Ag0 Tm0 3.077544 1_564
Ag0 Tm1 3.077544 1_565
