# generated using pymatgen
data_KTb(N2O7)2
_symmetry_space_group_name_H-M   'P 1'
_cell_length_a   7.93391800
_cell_length_b   11.92581800
_cell_length_c   13.39091700
_cell_angle_alpha   90.00000000
_cell_angle_beta   90.00000000
_cell_angle_gamma   90.00000000
_symmetry_Int_Tables_number   1
_chemical_formula_structural   KTb(N2O7)2
_chemical_formula_sum   'K4 Tb4 N16 O56'
_cell_volume   1267.02797258
_cell_formula_units_Z   4
loop_
 _symmetry_equiv_pos_site_id
 _symmetry_equiv_pos_as_xyz
  1  'x, y, z'
loop_
 _atom_site_type_symbol
 _atom_site_label
 _atom_site_symmetry_multiplicity
 _atom_site_fract_x
 _atom_site_fract_y
 _atom_site_fract_z
 _atom_site_occupancy
  K  K0  1  0.71446600  0.32839400  0.02012900  1
  K  K1  1  0.21446600  0.67160600  0.97987100  1
  K  K2  1  0.21446600  0.82839400  0.47987100  1
  K  K3  1  0.71446600  0.17160600  0.52012900  1
  Tb  Tb0  1  0.22934100  0.18816900  0.22967500  1
  Tb  Tb1  1  0.72934100  0.81183100  0.77032500  1
  Tb  Tb2  1  0.72934100  0.68816900  0.27032500  1
  Tb  Tb3  1  0.22934100  0.31183100  0.72967500  1
  N  N0  1  0.56465800  0.24344900  0.29451300  1
  N  N1  1  0.06465800  0.75655100  0.70548700  1
  N  N2  1  0.06465800  0.74344900  0.20548700  1
  N  N3  1  0.56465800  0.25655100  0.79451300  1
  N  N4  1  0.23343800  0.41845800  0.17760800  1
  N  N5  1  0.73343800  0.58154200  0.82239200  1
  N  N6  1  0.73343800  0.91845800  0.32239200  1
  N  N7  1  0.23343800  0.08154200  0.67760800  1
  N  N8  1  0.09407200  0.08430000  0.40191100  1
  N  N9  1  0.59407200  0.91570000  0.59808900  1
  N  N10  1  0.59407200  0.58430000  0.09808900  1
  N  N11  1  0.09407200  0.41570000  0.90191100  1
  N  N12  1  0.93957600  0.11779500  0.11780400  1
  N  N13  1  0.43957600  0.88220500  0.88219600  1
  N  N14  1  0.43957600  0.61779500  0.38219600  1
  N  N15  1  0.93957600  0.38220500  0.61780400  1
  O  O0  1  0.52003300  0.23774100  0.20163400  1
  O  O1  1  0.02003300  0.76225900  0.79836600  1
  O  O2  1  0.02003300  0.73774100  0.29836600  1
  O  O3  1  0.52003300  0.26225900  0.70163400  1
  O  O4  1  0.70299500  0.27874400  0.32034700  1
  O  O5  1  0.20299500  0.72125600  0.67965300  1
  O  O6  1  0.20299500  0.77874400  0.17965300  1
  O  O7  1  0.70299500  0.22125600  0.82034700  1
  O  O8  1  0.45241200  0.20959200  0.35753300  1
  O  O9  1  0.95241200  0.79040800  0.64246700  1
  O  O10  1  0.95241200  0.70959200  0.14246700  1
  O  O11  1  0.45241200  0.29040800  0.85753300  1
  O  O12  1  0.73804400  0.02046400  0.33529300  1
  O  O13  1  0.23804400  0.97953600  0.66470700  1
  O  O14  1  0.23804400  0.52046400  0.16470700  1
  O  O15  1  0.73804400  0.47953600  0.83529300  1
  O  O16  1  0.18990900  0.37665700  0.26381300  1
  O  O17  1  0.68990900  0.62334300  0.73618700  1
  O  O18  1  0.68990900  0.87665700  0.23618700  1
  O  O19  1  0.18990900  0.12334300  0.76381300  1
  O  O20  1  0.27074100  0.34722600  0.10972600  1
  O  O21  1  0.77074100  0.65277400  0.89027400  1
  O  O22  1  0.77074100  0.84722600  0.39027400  1
  O  O23  1  0.27074100  0.15277400  0.60972600  1
  O  O24  1  0.20146700  0.03116800  0.34739400  1
  O  O25  1  0.70146700  0.96883200  0.65260600  1
  O  O26  1  0.70146700  0.53116800  0.15260600  1
  O  O27  1  0.20146700  0.46883200  0.84739400  1
  O  O28  1  0.02712100  0.04077100  0.47519200  1
  O  O29  1  0.52712100  0.95922900  0.52480800  1
  O  O30  1  0.52712100  0.54077100  0.02480800  1
  O  O31  1  0.02712100  0.45922900  0.97519200  1
  O  O32  1  0.05922100  0.18569500  0.37468200  1
  O  O33  1  0.55922100  0.81430500  0.62531800  1
  O  O34  1  0.55922100  0.68569500  0.12531800  1
  O  O35  1  0.05922100  0.31430500  0.87468200  1
  O  O36  1  0.81091500  0.09077200  0.07323100  1
  O  O37  1  0.31091500  0.90922800  0.92676900  1
  O  O38  1  0.31091500  0.59077200  0.42676900  1
  O  O39  1  0.81091500  0.40922800  0.57323100  1
  O  O40  1  0.97964100  0.22220900  0.13071600  1
  O  O41  1  0.47964100  0.77779100  0.86928400  1
  O  O42  1  0.47964100  0.72220900  0.36928400  1
  O  O43  1  0.97964100  0.27779100  0.63071600  1
  O  O44  1  0.04449400  0.04641500  0.15473300  1
  O  O45  1  0.54449400  0.95358500  0.84526700  1
  O  O46  1  0.54449400  0.54641500  0.34526700  1
  O  O47  1  0.04449400  0.45358500  0.65473300  1
  O  O48  1  0.41487100  0.02369700  0.11248600  1
  O  O49  1  0.91487100  0.97630300  0.88751400  1
  O  O50  1  0.91487100  0.52369700  0.38751400  1
  O  O51  1  0.41487100  0.47630300  0.61248600  1
  O  O52  1  0.36918500  0.08920700  0.04614700  1
  O  O53  1  0.86918500  0.91079300  0.95385300  1
  O  O54  1  0.86918500  0.58920700  0.45385300  1
  O  O55  1  0.36918500  0.41079300  0.54614700  1
loop_
_geom_bond_atom_site_label_1
_geom_bond_atom_site_label_2
_geom_bond_distance
_geom_bond_site_symmetry_2
K0 O40 2.867555 1_555
K0 O30 2.937375 1_555
K0 O7 2.966119 1_554
K0 O31 2.991647 1_654
K0 O26 3.000931 1_555
K0 O36 3.020237 1_555
K0 O11 3.044440 1_554
K0 O15 3.067606 1_554
K0 O0 3.075042 1_555
K1 O41 2.867555 1_555
K1 O31 2.937375 1_555
K1 O6 2.966119 1_556
K1 O30 2.991647 1_556
K1 O27 3.000931 1_555
K1 O37 3.020237 1_555
K1 O10 3.044440 1_456
K1 O14 3.067606 1_556
K1 O1 3.075042 1_555
K2 O42 2.867555 1_555
K2 O28 2.937375 1_565
K2 O5 2.966119 1_555
K2 O29 2.991647 1_555
K2 O24 3.000931 1_565
K2 O38 3.020237 1_555
K2 O9 3.044440 1_455
K2 O13 3.067606 1_555
K2 O2 3.075042 1_555
K3 O43 2.867555 1_555
K3 O29 2.937375 1_545
K3 O4 2.966119 1_555
K3 O28 2.991647 1_655
K3 O25 3.000931 1_545
K3 O39 3.020237 1_555
K3 O8 3.044440 1_555
K3 O12 3.067606 1_555
K3 O3 3.075042 1_555
N0 O4 1.225347 1_555
N0 O8 1.291616 1_555
N0 O0 1.294937 1_555
N1 O5 1.225347 1_555
N1 O9 1.291616 1_455
N1 O1 1.294937 1_555
N2 O6 1.225347 1_555
N2 O10 1.291616 1_455
N2 O2 1.294937 1_555
N3 O7 1.225347 1_555
N3 O11 1.291616 1_555
N3 O3 1.294937 1_555
N4 O14 1.229254 1_555
N4 O20 1.278877 1_555
N4 O16 1.303971 1_555
N5 O15 1.229254 1_555
N5 O21 1.278877 1_555
N5 O17 1.303971 1_555
N6 O12 1.229254 1_565
N6 O22 1.278877 1_555
N6 O18 1.303971 1_555
N7 O13 1.229254 1_545
N7 O23 1.278877 1_555
N7 O19 1.303971 1_555
N8 O28 1.230687 1_555
N8 O24 1.288589 1_555
N8 O32 1.292909 1_555
N9 O29 1.230687 1_555
N9 O25 1.288589 1_555
N9 O33 1.292909 1_555
N10 O30 1.230687 1_555
N10 O26 1.288589 1_555
N10 O34 1.292909 1_555
N11 O31 1.230687 1_555
N11 O27 1.288589 1_555
N11 O35 1.292909 1_555
N12 O36 1.225610 1_555
N12 O44 1.289226 1_655
N12 O40 1.296733 1_555
N13 O37 1.225610 1_555
N13 O45 1.289226 1_555
N13 O41 1.296733 1_555
N14 O38 1.225610 1_555
N14 O46 1.289226 1_555
N14 O42 1.296733 1_555
N15 O39 1.225610 1_555
N15 O47 1.289226 1_655
N15 O43 1.296733 1_555
O0 Tb0 2.410319 1_555
O1 Tb1 2.410319 1_455
O2 Tb2 2.410319 1_455
O3 Tb3 2.410319 1_555
O8 Tb0 2.475676 1_555
O9 Tb1 2.475676 1_555
O10 Tb2 2.475676 1_555
O11 Tb3 2.475676 1_555
O16 Tb0 2.315121 1_555
O17 Tb1 2.315121 1_555
O18 Tb2 2.315121 1_555
O19 Tb3 2.315121 1_555
O20 Tb0 2.507195 1_555
O21 Tb1 2.507195 1_555
O22 Tb2 2.507195 1_555
O23 Tb3 2.507195 1_555
O24 Tb0 2.457557 1_555
O25 Tb1 2.457557 1_555
O26 Tb2 2.457557 1_555
O27 Tb3 2.457557 1_555
O32 Tb0 2.364975 1_555
O33 Tb1 2.364975 1_555
O34 Tb2 2.364975 1_555
O35 Tb3 2.364975 1_555
O40 Tb0 2.417764 1_655
O41 Tb1 2.417764 1_555
O42 Tb2 2.417764 1_555
O43 Tb3 2.417764 1_655
O44 Tb0 2.452712 1_555
O45 Tb1 2.452712 1_555
O46 Tb2 2.452712 1_555
O47 Tb3 2.452712 1_555
O48 O52 1.237295 1_555
O48 Tb0 2.911471 1_555
O49 O53 1.237295 1_555
O49 Tb1 2.911471 1_555
O50 O54 1.237295 1_555
O50 Tb2 2.911471 1_555
O51 O55 1.237295 1_555
O51 Tb3 2.911471 1_555
O52 Tb0 2.943422 1_555
O53 Tb1 2.943422 1_555
O54 Tb2 2.943422 1_555
O55 Tb3 2.943422 1_555
