# generated using pymatgen
data_KNpN3O11
_symmetry_space_group_name_H-M   'P 1'
_cell_length_a   8.38997872
_cell_length_b   8.38997872
_cell_length_c   8.38997866
_cell_angle_alpha   69.25954971
_cell_angle_beta   69.25954971
_cell_angle_gamma   69.25954673
_symmetry_Int_Tables_number   1
_chemical_formula_structural   KNpN3O11
_chemical_formula_sum   'K2 Np2 N6 O22'
_cell_volume   498.54286405
_cell_formula_units_Z   2
loop_
 _symmetry_equiv_pos_site_id
 _symmetry_equiv_pos_as_xyz
  1  'x, y, z'
loop_
 _atom_site_type_symbol
 _atom_site_label
 _atom_site_symmetry_multiplicity
 _atom_site_fract_x
 _atom_site_fract_y
 _atom_site_fract_z
 _atom_site_occupancy
  K  K0  1  0.50000000  0.50000000  0.50000000  1
  K  K1  1  0.00000000  0.00000000  0.00000000  1
  Np  Np0  1  0.75000000  0.75000000  0.75000000  1
  Np  Np1  1  0.25000000  0.25000000  0.25000000  1
  N  N0  1  0.75000000  0.44340100  0.05659900  1
  N  N1  1  0.05659900  0.75000000  0.44340100  1
  N  N2  1  0.44340100  0.05659900  0.75000000  1
  N  N3  1  0.25000000  0.55659900  0.94340100  1
  N  N4  1  0.94340100  0.25000000  0.55659900  1
  N  N5  1  0.55659900  0.94340100  0.25000000  1
  O  O0  1  0.65572400  0.65572400  0.65572400  1
  O  O1  1  0.84427600  0.84427600  0.84427600  1
  O  O2  1  0.15572400  0.15572400  0.15572400  1
  O  O3  1  0.34427600  0.34427600  0.34427600  1
  O  O4  1  0.87439400  0.44362000  0.91181700  1
  O  O5  1  0.58818300  0.05638000  0.62560600  1
  O  O6  1  0.05638000  0.62560600  0.58818300  1
  O  O7  1  0.62560600  0.58818300  0.05638000  1
  O  O8  1  0.68542500  0.81457500  0.25000000  1
  O  O9  1  0.81457500  0.25000000  0.68542500  1
  O  O10  1  0.25000000  0.68542500  0.81457500  1
  O  O11  1  0.31457500  0.18542500  0.75000000  1
  O  O12  1  0.18542500  0.75000000  0.31457500  1
  O  O13  1  0.75000000  0.31457500  0.18542500  1
  O  O14  1  0.55638000  0.08818300  0.12560600  1
  O  O15  1  0.08818300  0.12560600  0.55638000  1
  O  O16  1  0.12560600  0.55638000  0.08818300  1
  O  O17  1  0.41181700  0.94362000  0.37439400  1
  O  O18  1  0.94362000  0.37439400  0.41181700  1
  O  O19  1  0.37439400  0.41181700  0.94362000  1
  O  O20  1  0.44362000  0.91181700  0.87439400  1
  O  O21  1  0.91181700  0.87439400  0.44362000  1
loop_
_geom_bond_atom_site_label_1
_geom_bond_atom_site_label_2
_geom_bond_distance
_geom_bond_site_symmetry_2
K0 O3 2.957708 1_555
K0 O0 2.957708 1_555
K0 O9 3.234438 1_555
K0 O12 3.234438 1_555
K0 O10 3.234438 1_555
K0 O13 3.234438 1_555
K0 O11 3.234438 1_555
K0 O8 3.234438 1_555
K0 O18 3.366711 1_555
K0 O6 3.366711 1_555
K0 O5 3.366711 1_555
K0 O17 3.366711 1_555
K0 O19 3.366711 1_555
K0 O7 3.366711 1_555
K1 O1 2.957708 1_444
K1 O2 2.957708 1_555
K1 O10 3.234438 1_544
K1 O13 3.234438 1_455
K1 O12 3.234438 1_545
K1 O9 3.234438 1_454
K1 O8 3.234438 1_445
K1 O11 3.234438 1_554
K1 O4 3.366711 1_454
K1 O16 3.366711 1_545
K1 O14 3.366711 1_455
K1 O20 3.366711 1_544
K1 O15 3.366711 1_554
K1 O21 3.366711 1_445
Np0 O0 1.790610 1_555
Np0 O1 1.790610 1_555
Np0 O20 2.484289 1_555
Np0 O5 2.484289 1_565
Np0 O4 2.484289 1_555
Np0 O6 2.484289 1_655
Np0 O21 2.484289 1_555
Np0 O7 2.484289 1_556
Np1 O2 1.790610 1_555
Np1 O3 1.790610 1_555
Np1 O17 2.484289 1_545
Np1 O14 2.484289 1_555
Np1 O16 2.484289 1_555
Np1 O18 2.484289 1_455
Np1 O15 2.484289 1_555
Np1 O19 2.484289 1_554
N0 O13 1.228429 1_555
N0 O7 1.290984 1_555
N0 O4 1.290984 1_554
N1 O12 1.228429 1_555
N1 O21 1.290984 1_455
N1 O6 1.290984 1_555
N2 O11 1.228429 1_555
N2 O20 1.290984 1_545
N2 O5 1.290984 1_555
N3 O10 1.228429 1_555
N3 O19 1.290984 1_555
N3 O16 1.290984 1_556
N4 O9 1.228429 1_555
N4 O15 1.290984 1_655
N4 O18 1.290984 1_555
N5 O8 1.228429 1_555
N5 O14 1.290984 1_565
N5 O17 1.290984 1_555
