# generated using pymatgen
data_CaYMn2O6
_symmetry_space_group_name_H-M   'P 1'
_cell_length_a   5.35469010
_cell_length_b   5.55372011
_cell_length_c   7.57726300
_cell_angle_alpha   89.99978066
_cell_angle_beta   90.00004406
_cell_angle_gamma   89.97758240
_symmetry_Int_Tables_number   1
_chemical_formula_structural   CaYMn2O6
_chemical_formula_sum   'Ca2 Y2 Mn4 O12'
_cell_volume   225.33604026
_cell_formula_units_Z   2
loop_
 _symmetry_equiv_pos_site_id
 _symmetry_equiv_pos_as_xyz
  1  'x, y, z'
loop_
 _atom_site_type_symbol
 _atom_site_label
 _atom_site_symmetry_multiplicity
 _atom_site_fract_x
 _atom_site_fract_y
 _atom_site_fract_z
 _atom_site_occupancy
  Ca  Ca0  1  0.51126700  0.55306900  0.25000200  1
  Ca  Ca1  1  0.01129400  0.94698200  0.75000000  1
  Y  Y0  1  0.98371800  0.06349400  0.24999800  1
  Y  Y1  1  0.48372200  0.43645500  0.75000300  1
  Mn  Mn0  1  0.99944600  0.50378000  0.00013800  1
  Mn  Mn1  1  0.49946700  0.99621400  0.50008800  1
  Mn  Mn2  1  0.99944900  0.50379300  0.49985500  1
  Mn  Mn3  1  0.49946400  0.99622600  0.99991400  1
  O  O0  1  0.80275300  0.80215500  0.04978300  1
  O  O1  1  0.70792000  0.29102700  0.45337600  1
  O  O2  1  0.20777100  0.20902900  0.54664300  1
  O  O3  1  0.30263700  0.69780300  0.95024200  1
  O  O4  1  0.20779000  0.20900100  0.95336000  1
  O  O5  1  0.30263800  0.69781300  0.54976700  1
  O  O6  1  0.80277000  0.80212900  0.45021800  1
  O  O7  1  0.70791900  0.29103800  0.04661400  1
  O  O8  1  0.39928600  0.97371000  0.25001600  1
  O  O9  1  0.08567300  0.46838500  0.24999200  1
  O  O10  1  0.58567000  0.03162700  0.74998800  1
  O  O11  1  0.89934700  0.52627000  0.75000500  1
loop_
_geom_bond_atom_site_label_1
_geom_bond_atom_site_label_2
_geom_bond_distance
_geom_bond_site_symmetry_2
Ca0 O9 2.327128 1_555
Ca0 O1 2.366492 1_555
Ca0 O7 2.366529 1_555
Ca0 O8 2.411622 1_555
Ca0 O6 2.579334 1_555
Ca0 O0 2.579365 1_555
Ca0 O3 2.655653 1_554
Ca0 O5 2.655707 1_555
Ca1 O10 2.326881 1_465
Ca1 O4 2.366484 1_565
Ca1 O2 2.366513 1_565
Ca1 O11 2.412413 1_455
Ca1 O5 2.578566 1_555
Ca1 O3 2.578625 1_555
Ca1 O0 2.656024 1_456
Ca1 O6 2.656027 1_455
Mn0 O9 1.958569 1_655
Mn0 O11 1.973599 1_554
Mn0 O3 1.985234 1_654
Mn0 O7 1.989537 1_555
Mn0 O0 1.998847 1_555
Mn0 O4 2.012206 1_654
Mn1 O10 1.958923 1_565
Mn1 O8 1.973306 1_555
Mn1 O6 1.985185 1_555
Mn1 O2 1.989870 1_565
Mn1 O5 2.000080 1_555
Mn1 O1 2.013304 1_565
Mn2 O9 1.958641 1_655
Mn2 O11 1.973724 1_555
Mn2 O5 1.985240 1_655
Mn2 O1 1.989630 1_555
Mn2 O6 1.998614 1_555
Mn2 O2 2.012084 1_655
Mn3 O10 1.959110 1_565
Mn3 O8 1.973524 1_556
Mn3 O0 1.985078 1_556
Mn3 O4 1.989643 1_565
Mn3 O3 2.000168 1_555
Mn3 O7 2.013291 1_566
O0 Y0 2.312619 1_565
O1 Y0 2.480159 1_555
O1 Y1 2.672940 1_555
O2 Y1 2.480847 1_555
O2 Y0 2.673168 1_455
O3 Y1 2.312564 1_555
O4 Y1 2.480847 1_555
O4 Y0 2.673119 1_456
O5 Y1 2.312574 1_555
O6 Y0 2.312690 1_565
O7 Y0 2.480214 1_555
O7 Y1 2.672811 1_554
O8 Y0 2.280231 1_465
O9 Y0 2.314183 1_455
O10 Y1 2.313419 1_555
O11 Y1 2.280947 1_555
