# generated using pymatgen
data_Mg3Si4(BiO7)2
_symmetry_space_group_name_H-M   'P 1'
_cell_length_a   9.67584014
_cell_length_b   9.67584014
_cell_length_c   10.38876300
_cell_angle_alpha   58.23599101
_cell_angle_beta   58.23599101
_cell_angle_gamma   51.42921945
_symmetry_Int_Tables_number   1
_chemical_formula_structural   Mg3Si4(BiO7)2
_chemical_formula_sum   'Mg6 Si8 Bi4 O28'
_cell_volume   617.12409037
_cell_formula_units_Z   2
loop_
 _symmetry_equiv_pos_site_id
 _symmetry_equiv_pos_as_xyz
  1  'x, y, z'
loop_
 _atom_site_type_symbol
 _atom_site_label
 _atom_site_symmetry_multiplicity
 _atom_site_fract_x
 _atom_site_fract_y
 _atom_site_fract_z
 _atom_site_occupancy
  Mg  Mg0  1  0.06773400  0.29880100  0.07535800  1
  Mg  Mg1  1  0.70119900  0.93226600  0.42464200  1
  Mg  Mg2  1  0.29880100  0.06773400  0.57535800  1
  Mg  Mg3  1  0.38820600  0.61179400  0.75000000  1
  Mg  Mg4  1  0.93226600  0.70119900  0.92464200  1
  Mg  Mg5  1  0.61179400  0.38820600  0.25000000  1
  Si  Si0  1  0.51563200  0.08992100  0.71893000  1
  Si  Si1  1  0.08992100  0.51563200  0.21893000  1
  Si  Si2  1  0.49171400  0.26393800  0.11773700  1
  Si  Si3  1  0.26393800  0.49171400  0.61773700  1
  Si  Si4  1  0.91007900  0.48436800  0.78107000  1
  Si  Si5  1  0.50828600  0.73606200  0.88226300  1
  Si  Si6  1  0.73606200  0.50828600  0.38226300  1
  Si  Si7  1  0.48436800  0.91007900  0.28107000  1
  Bi  Bi0  1  0.77535400  0.22464600  0.75000000  1
  Bi  Bi1  1  0.22464600  0.77535400  0.25000000  1
  Bi  Bi2  1  0.00000000  0.00000000  0.00000000  1
  Bi  Bi3  1  0.00000000  0.00000000  0.50000000  1
  O  O0  1  0.81044900  0.34176700  0.31497600  1
  O  O1  1  0.93460500  0.88622100  0.40814800  1
  O  O2  1  0.50792300  0.59807300  0.06303100  1
  O  O3  1  0.88622100  0.93460500  0.90814800  1
  O  O4  1  0.28680200  0.93490600  0.31308800  1
  O  O5  1  0.07938300  0.50938800  0.62290400  1
  O  O6  1  0.59807300  0.50792300  0.56303100  1
  O  O7  1  0.06509400  0.71319800  0.18691200  1
  O  O8  1  0.92061700  0.49061200  0.37709600  1
  O  O9  1  0.64973000  0.70718200  0.24418100  1
  O  O10  1  0.06539500  0.11377900  0.59185200  1
  O  O11  1  0.71319800  0.06509400  0.68691200  1
  O  O12  1  0.49061200  0.92061700  0.87709600  1
  O  O13  1  0.34176700  0.81044900  0.81497600  1
  O  O14  1  0.70718200  0.64973000  0.74418100  1
  O  O15  1  0.93490600  0.28680200  0.81308800  1
  O  O16  1  0.91548400  0.50297400  0.92579000  1
  O  O17  1  0.35027000  0.29281800  0.75581900  1
  O  O18  1  0.49702600  0.08451600  0.57421000  1
  O  O19  1  0.29281800  0.35027000  0.25581900  1
  O  O20  1  0.50938800  0.07938300  0.12290400  1
  O  O21  1  0.11377900  0.06539500  0.09185200  1
  O  O22  1  0.50297400  0.91548400  0.42579000  1
  O  O23  1  0.49207700  0.40192700  0.93696900  1
  O  O24  1  0.08451600  0.49702600  0.07421000  1
  O  O25  1  0.40192700  0.49207700  0.43696900  1
  O  O26  1  0.65823300  0.18955100  0.18502400  1
  O  O27  1  0.18955100  0.65823300  0.68502400  1
loop_
_geom_bond_atom_site_label_1
_geom_bond_atom_site_label_2
_geom_bond_distance
_geom_bond_site_symmetry_2
Mg0 O21 1.935590 1_555
Mg0 O16 2.009087 1_454
Mg0 O24 2.016791 1_555
Mg0 O0 2.416915 1_455
Mg1 O1 1.935590 1_555
Mg1 O18 2.009087 1_565
Mg1 O22 2.016791 1_555
Mg1 O26 2.416915 1_565
Mg2 O10 1.935590 1_555
Mg2 O22 2.009087 1_545
Mg2 O18 2.016791 1_555
Mg2 O13 2.416915 1_545
Mg3 O23 2.064986 1_555
Mg3 O6 2.064986 1_555
Mg3 O13 2.078932 1_555
Mg3 O27 2.078932 1_555
Mg4 O3 1.935590 1_555
Mg4 O24 2.009087 1_656
Mg4 O16 2.016791 1_555
Mg4 O27 2.416915 1_655
Mg5 O25 2.064986 1_555
Mg5 O2 2.064986 1_555
Mg5 O26 2.078932 1_555
Mg5 O0 2.078932 1_555
Bi0 O3 2.230038 1_545
Bi0 O10 2.230038 1_655
Bi0 O11 2.410935 1_555
Bi0 O15 2.410935 1_555
Bi0 O23 2.503565 1_555
Bi0 O6 2.503565 1_555
Bi1 O1 2.230038 1_455
Bi1 O21 2.230038 1_565
Bi1 O7 2.410935 1_555
Bi1 O4 2.410935 1_555
Bi1 O2 2.503565 1_555
Bi1 O25 2.503565 1_555
Bi2 O21 2.265676 1_555
Bi2 O3 2.265676 1_444
Bi2 O7 2.302821 1_545
Bi2 O15 2.302821 1_454
Bi2 O26 2.729566 1_455
Bi2 O13 2.729566 1_544
Bi3 O10 2.265676 1_555
Bi3 O1 2.265676 1_445
Bi3 O4 2.302821 1_545
Bi3 O11 2.302821 1_455
Bi3 O27 2.729566 1_545
Bi3 O0 2.729566 1_455
O0 Si6 1.677110 1_555
O2 Si5 1.633529 1_554
O4 Si7 1.632384 1_555
O5 Si4 1.638243 1_455
O5 Si3 1.657977 1_555
O6 Si6 1.633529 1_555
O7 Si1 1.632384 1_555
O8 Si1 1.638243 1_655
O8 Si6 1.657977 1_555
O9 Si7 1.670542 1_555
O9 Si6 1.676207 1_555
O11 Si0 1.632384 1_555
O12 Si0 1.638243 1_565
O12 Si5 1.657977 1_555
O13 Si5 1.677110 1_555
O14 Si4 1.670542 1_555
O14 Si5 1.676207 1_555
O15 Si4 1.632384 1_555
O16 Si4 1.635553 1_555
O17 Si0 1.670542 1_555
O17 Si3 1.676207 1_555
O18 Si0 1.635553 1_555
O19 Si1 1.670542 1_555
O19 Si2 1.676207 1_555
O20 Si7 1.638243 1_545
O20 Si2 1.657977 1_555
O22 Si7 1.635553 1_555
O23 Si2 1.633529 1_556
O24 Si1 1.635553 1_555
O25 Si3 1.633529 1_555
O26 Si2 1.677110 1_555
O27 Si3 1.677110 1_555
