# generated using pymatgen
data_Mg6NbCr
_symmetry_space_group_name_H-M   'P 1'
_cell_length_a   4.97640300
_cell_length_b   6.03841500
_cell_length_c   10.87819900
_cell_angle_alpha   90.00000000
_cell_angle_beta   90.00000000
_cell_angle_gamma   90.00000000
_symmetry_Int_Tables_number   1
_chemical_formula_structural   Mg6NbCr
_chemical_formula_sum   'Mg12 Nb2 Cr2'
_cell_volume   326.88538205
_cell_formula_units_Z   2
loop_
 _symmetry_equiv_pos_site_id
 _symmetry_equiv_pos_as_xyz
  1  'x, y, z'
loop_
 _atom_site_type_symbol
 _atom_site_label
 _atom_site_symmetry_multiplicity
 _atom_site_fract_x
 _atom_site_fract_y
 _atom_site_fract_z
 _atom_site_occupancy
  Mg  Mg0  1  0.50000000  0.24697800  0.41876100  1
  Mg  Mg1  1  0.50000000  0.75302200  0.41876100  1
  Mg  Mg2  1  0.00000000  0.75258400  0.08801400  1
  Mg  Mg3  1  0.00000000  0.24741600  0.08801400  1
  Mg  Mg4  1  0.00000000  0.00000000  0.32509600  1
  Mg  Mg5  1  0.00000000  0.50000000  0.32498200  1
  Mg  Mg6  1  0.50000000  0.74697800  0.91876100  1
  Mg  Mg7  1  0.50000000  0.25302200  0.91876100  1
  Mg  Mg8  1  0.00000000  0.25258400  0.58801400  1
  Mg  Mg9  1  0.00000000  0.74741600  0.58801400  1
  Mg  Mg10  1  0.00000000  0.50000000  0.82509600  1
  Mg  Mg11  1  0.00000000  0.00000000  0.82498200  1
  Nb  Nb0  1  0.50000000  0.00000000  0.17047900  1
  Nb  Nb1  1  0.50000000  0.50000000  0.67047900  1
  Cr  Cr0  1  0.50000000  0.50000000  0.16588900  1
  Cr  Cr1  1  0.50000000  0.00000000  0.66588900  1
loop_
_geom_bond_atom_site_label_1
_geom_bond_atom_site_label_2
_geom_bond_distance
_geom_bond_site_symmetry_2
Mg0 Mg1 2.982711 1_545
Mg0 Mg1 3.055704 1_555
Mg0 Mg4 3.074648 1_655
Mg0 Mg4 3.074648 1_555
Mg0 Nb0 3.085254 1_555
Mg0 Mg5 3.092924 1_555
Mg0 Mg5 3.092924 1_655
Mg0 Mg8 3.095512 1_555
Mg0 Mg8 3.095512 1_655
Mg0 Nb1 3.135647 1_555
Mg1 Mg4 3.074648 1_565
Mg1 Mg4 3.074648 1_665
Mg1 Nb0 3.085254 1_565
Mg1 Mg5 3.092924 1_555
Mg1 Mg5 3.092924 1_655
Mg1 Mg9 3.095512 1_655
Mg1 Mg9 3.095512 1_555
Mg1 Nb1 3.135647 1_555
Mg2 Mg4 2.980505 1_565
Mg2 Mg3 2.988001 1_565
Mg2 Mg5 2.995202 1_555
Mg2 Nb0 3.037749 1_465
Mg2 Nb0 3.037749 1_565
Mg2 Mg3 3.050414 1_555
Mg2 Mg6 3.095512 1_454
Mg2 Mg6 3.095512 1_554
Mg3 Mg4 2.980505 1_555
Mg3 Mg5 2.995202 1_555
Mg3 Nb0 3.037749 1_455
Mg3 Nb0 3.037749 1_555
Mg3 Mg7 3.095512 1_554
Mg3 Mg7 3.095512 1_454
Mg4 Nb0 3.003351 1_555
Mg4 Nb0 3.003351 1_455
Mg4 Mg5 3.019208 1_545
Mg4 Mg5 3.019208 1_555
Mg4 Mg8 3.241339 1_555
Mg4 Mg9 3.241339 1_545
Mg5 Mg8 3.227872 1_555
Mg5 Mg9 3.227872 1_555
Mg6 Mg7 2.982711 1_555
Mg6 Mg7 3.055704 1_565
Mg6 Nb1 3.085254 1_555
Mg6 Nb0 3.135647 1_566
Mg7 Nb1 3.085254 1_555
Mg7 Nb0 3.135647 1_556
Mg8 Mg9 2.988001 1_555
Mg8 Nb1 3.037749 1_455
Mg8 Nb1 3.037749 1_555
Mg8 Mg9 3.050414 1_545
Mg9 Nb1 3.037749 1_455
Mg9 Nb1 3.037749 1_555
Mg10 Mg9 2.980505 1_555
Mg10 Mg8 2.980505 1_555
Mg10 Nb1 3.003351 1_455
Mg10 Nb1 3.003351 1_555
Mg10 Mg11 3.019208 1_555
Mg10 Mg11 3.019208 1_565
Mg10 Mg6 3.074648 1_455
Mg10 Mg6 3.074648 1_555
Mg10 Mg7 3.074648 1_455
Mg10 Mg7 3.074648 1_555
Mg10 Mg2 3.241339 1_556
Mg10 Mg3 3.241339 1_556
Mg11 Mg8 2.995202 1_555
Mg11 Mg9 2.995202 1_545
Mg11 Mg7 3.092924 1_555
Mg11 Mg7 3.092924 1_455
Mg11 Mg6 3.092924 1_545
Mg11 Mg6 3.092924 1_445
Mg11 Mg3 3.227872 1_556
Mg11 Mg2 3.227872 1_546
Cr0 Nb0 3.019620 1_555
Cr0 Nb0 3.019620 1_565
Cr0 Mg5 3.030888 1_655
Cr0 Mg5 3.030888 1_555
Cr0 Mg2 3.038922 1_555
Cr0 Mg2 3.038922 1_655
Cr0 Mg3 3.038922 1_555
Cr0 Mg3 3.038922 1_655
Cr0 Mg6 3.074271 1_554
Cr0 Mg7 3.074271 1_554
Cr0 Mg1 3.146615 1_555
Cr0 Mg0 3.146615 1_555
Cr1 Nb1 3.019620 1_555
Cr1 Nb1 3.019620 1_545
Cr1 Mg11 3.030888 1_555
Cr1 Mg11 3.030888 1_655
Cr1 Mg9 3.038922 1_545
Cr1 Mg8 3.038922 1_555
Cr1 Mg9 3.038922 1_645
Cr1 Mg8 3.038922 1_655
Cr1 Mg0 3.074271 1_555
Cr1 Mg1 3.074271 1_545
Cr1 Mg7 3.146615 1_555
Cr1 Mg6 3.146615 1_545
