# generated using pymatgen
data_LiCo2O3
_symmetry_space_group_name_H-M   'P 1'
_cell_length_a   5.11897412
_cell_length_b   5.11897412
_cell_length_c   5.11897412
_cell_angle_alpha   146.67020274
_cell_angle_beta   131.95011331
_cell_angle_gamma   59.73467374
_symmetry_Int_Tables_number   1
_chemical_formula_structural   LiCo2O3
_chemical_formula_sum   'Li1 Co2 O3'
_cell_volume   54.32446011
_cell_formula_units_Z   1
loop_
 _symmetry_equiv_pos_site_id
 _symmetry_equiv_pos_as_xyz
  1  'x, y, z'
loop_
 _atom_site_type_symbol
 _atom_site_label
 _atom_site_symmetry_multiplicity
 _atom_site_fract_x
 _atom_site_fract_y
 _atom_site_fract_z
 _atom_site_occupancy
  Li  Li0  1  0.00000000  0.00000000  0.00000000  1
  Co  Co0  1  0.66499300  0.66499300  0.00000000  1
  Co  Co1  1  0.33500700  0.33500700  0.00000000  1
  O  O0  1  0.50000000  0.00000000  0.50000000  1
  O  O1  1  0.17882300  0.67882300  0.50000000  1
  O  O2  1  0.82117700  0.32117700  0.50000000  1
loop_
_geom_bond_atom_site_label_1
_geom_bond_atom_site_label_2
_geom_bond_distance
_geom_bond_site_symmetry_2
Li0 O0 2.084110 1_555
Li0 O0 2.084110 1_454
Li0 O1 2.162294 1_544
Li0 O1 2.162294 1_555
Li0 O2 2.162294 1_444
Li0 O2 2.162294 1_455
Co0 O2 2.019335 1_554
Co0 O2 2.019335 1_565
Co0 O0 2.073818 1_554
Co0 O0 2.073818 1_565
Co0 O1 2.087724 1_655
Co0 O1 2.087724 1_554
Co1 O1 2.019335 1_544
Co1 O1 2.019335 1_555
Co1 O0 2.073818 1_554
Co1 O0 2.073818 1_565
Co1 O2 2.087724 1_555
Co1 O2 2.087724 1_454
