# generated using pymatgen
data_BaMo2(P2O7)2
_symmetry_space_group_name_H-M   'P 1'
_cell_length_a   7.75348824
_cell_length_b   7.75348835
_cell_length_c   10.08673681
_cell_angle_alpha   80.12039145
_cell_angle_beta   80.12039452
_cell_angle_gamma   89.32204189
_symmetry_Int_Tables_number   1
_chemical_formula_structural   BaMo2(P2O7)2
_chemical_formula_sum   'Ba2 Mo4 P8 O28'
_cell_volume   588.43195295
_cell_formula_units_Z   2
loop_
 _symmetry_equiv_pos_site_id
 _symmetry_equiv_pos_as_xyz
  1  'x, y, z'
loop_
 _atom_site_type_symbol
 _atom_site_label
 _atom_site_symmetry_multiplicity
 _atom_site_fract_x
 _atom_site_fract_y
 _atom_site_fract_z
 _atom_site_occupancy
  Ba  Ba0  1  0.00000000  0.49999900  0.00000000  1
  Ba  Ba1  1  0.50000000  0.00000000  0.50000100  1
  Mo  Mo0  1  0.00000000  0.99999900  0.50000000  1
  Mo  Mo1  1  0.00000000  0.00000000  0.00000000  1
  Mo  Mo2  1  0.45479900  0.54520200  0.25000000  1
  Mo  Mo3  1  0.54520200  0.45479900  0.75000000  1
  P  P0  1  0.82061400  0.73186400  0.30009800  1
  P  P1  1  0.26813700  0.17938700  0.19990300  1
  P  P2  1  0.17938700  0.26813600  0.69990300  1
  P  P3  1  0.73186400  0.82061300  0.80009800  1
  P  P4  1  0.74775600  0.36697700  0.44382300  1
  P  P5  1  0.63302300  0.25224500  0.05617700  1
  P  P6  1  0.25224500  0.63302300  0.55617700  1
  P  P7  1  0.36697600  0.74775600  0.94382300  1
  O  O0  1  0.94633500  0.77640900  0.16357800  1
  O  O1  1  0.22359100  0.05366600  0.33642100  1
  O  O2  1  0.05366600  0.22359100  0.83642200  1
  O  O3  1  0.77640800  0.94633400  0.66357800  1
  O  O4  1  0.62571100  0.74123500  0.28985200  1
  O  O5  1  0.25876400  0.37428900  0.21014900  1
  O  O6  1  0.37428900  0.25876400  0.71014800  1
  O  O7  1  0.74123600  0.62571100  0.78985200  1
  O  O8  1  0.85161100  0.83476600  0.40953100  1
  O  O9  1  0.16523500  0.14838800  0.09046800  1
  O  O10  1  0.14838800  0.16523500  0.59046800  1
  O  O11  1  0.83476500  0.85161200  0.90953100  1
  O  O12  1  0.86415200  0.52552200  0.34391500  1
  O  O13  1  0.47447800  0.13584800  0.15608600  1
  O  O14  1  0.38798200  0.73978500  0.09128700  1
  O  O15  1  0.26021500  0.61201900  0.40871300  1
  O  O16  1  0.61201900  0.26021500  0.90871300  1
  O  O17  1  0.73978400  0.38798200  0.59128700  1
  O  O18  1  0.36225600  0.56568200  0.90098500  1
  O  O19  1  0.43431800  0.63774300  0.59901400  1
  O  O20  1  0.63774300  0.43431800  0.09901400  1
  O  O21  1  0.13584800  0.47447800  0.65608600  1
  O  O22  1  0.20051000  0.84192800  0.91148600  1
  O  O23  1  0.15807200  0.79949000  0.58851400  1
  O  O24  1  0.79948900  0.15807100  0.08851400  1
  O  O25  1  0.84192800  0.20051100  0.41148500  1
  O  O26  1  0.52552200  0.86415200  0.84391400  1
  O  O27  1  0.56568200  0.36225700  0.40098500  1
loop_
_geom_bond_atom_site_label_1
_geom_bond_atom_site_label_2
_geom_bond_distance
_geom_bond_site_symmetry_2
Ba0 O18 2.835945 1_554
Ba0 O20 2.835949 1_455
Ba0 O2 2.906073 1_554
Ba0 O0 2.906086 1_455
Ba0 O24 3.008585 1_455
Ba0 O22 3.008588 1_554
Ba0 O9 3.061228 1_555
Ba0 O11 3.061243 1_454
Ba0 O7 3.189461 1_454
Ba0 O5 3.189465 1_555
Ba1 O19 2.835948 1_545
Ba1 O27 2.835953 1_555
Ba1 O3 2.906066 1_545
Ba1 O1 2.906093 1_555
Ba1 O23 3.008581 1_545
Ba1 O25 3.008586 1_555
Ba1 O8 3.061229 1_545
Ba1 O10 3.061232 1_555
Ba1 O6 3.189452 1_555
Ba1 O4 3.189472 1_545
Mo0 O23 2.137817 1_555
Mo0 O25 2.137836 1_465
Mo0 O8 2.143383 1_455
Mo0 O10 2.143387 1_565
Mo0 O3 2.168148 1_455
Mo0 O1 2.168150 1_565
Mo1 O22 2.137822 1_544
Mo1 O24 2.137822 1_455
Mo1 O9 2.143382 1_555
Mo1 O11 2.143388 1_444
Mo1 O0 2.168143 1_445
Mo1 O2 2.168144 1_554
Mo2 O14 2.131834 1_555
Mo2 O15 2.131839 1_555
Mo2 O4 2.160552 1_555
Mo2 O5 2.160564 1_555
Mo2 O27 2.179375 1_555
Mo2 O20 2.179382 1_555
Mo3 O17 2.131830 1_555
Mo3 O16 2.131839 1_555
Mo3 O7 2.160557 1_555
Mo3 O6 2.160568 1_555
Mo3 O18 2.179379 1_555
Mo3 O19 2.179382 1_555
O0 P0 1.532925 1_555
O1 P1 1.532910 1_555
O2 P2 1.532917 1_555
O3 P3 1.532924 1_555
O4 P0 1.532331 1_555
O5 P1 1.532324 1_555
O6 P2 1.532321 1_555
O7 P3 1.532323 1_555
O8 P0 1.520044 1_555
O9 P1 1.520065 1_555
O10 P2 1.520060 1_555
O11 P3 1.520043 1_555
O12 P4 1.621788 1_555
O12 P0 1.632376 1_555
O13 P5 1.621795 1_555
O13 P1 1.632370 1_555
O14 P7 1.514643 1_554
O15 P6 1.514640 1_555
O16 P5 1.514640 1_556
O17 P4 1.514640 1_555
O18 P7 1.548205 1_555
O19 P6 1.548193 1_555
O20 P5 1.548193 1_555
O21 P6 1.621795 1_555
O21 P2 1.632377 1_555
O22 P7 1.531617 1_555
O23 P6 1.531627 1_555
O24 P5 1.531623 1_555
O25 P4 1.531620 1_555
O26 P7 1.621797 1_555
O26 P3 1.632376 1_555
O27 P4 1.548205 1_555
