# generated using pymatgen
data_CoCBrN4O3
_symmetry_space_group_name_H-M   'P 1'
_cell_length_a   8.24394000
_cell_length_b   4.50553000
_cell_length_c   15.04641100
_cell_angle_alpha   90.00000000
_cell_angle_beta   90.00000000
_cell_angle_gamma   90.00000000
_symmetry_Int_Tables_number   1
_chemical_formula_structural   CoCBrN4O3
_chemical_formula_sum   'Co4 C4 Br4 N16 O12'
_cell_volume   558.87364340
_cell_formula_units_Z   4
loop_
 _symmetry_equiv_pos_site_id
 _symmetry_equiv_pos_as_xyz
  1  'x, y, z'
loop_
 _atom_site_type_symbol
 _atom_site_label
 _atom_site_symmetry_multiplicity
 _atom_site_fract_x
 _atom_site_fract_y
 _atom_site_fract_z
 _atom_site_occupancy
  Co  Co0  1  0.38505200  0.25000000  0.61516900  1
  Co  Co1  1  0.11494800  0.25000000  0.11516900  1
  Co  Co2  1  0.61494800  0.75000000  0.38483100  1
  Co  Co3  1  0.88505200  0.75000000  0.88483100  1
  C  C0  1  0.73067500  0.25000000  0.54696200  1
  C  C1  1  0.76932500  0.25000000  0.04696200  1
  C  C2  1  0.26932500  0.75000000  0.45303800  1
  C  C3  1  0.23067500  0.75000000  0.95303800  1
  Br  Br0  1  0.08385100  0.25000000  0.71442200  1
  Br  Br1  1  0.41614900  0.25000000  0.21442200  1
  Br  Br2  1  0.91614900  0.75000000  0.28557800  1
  Br  Br3  1  0.58385100  0.75000000  0.78557800  1
  N  N0  1  0.48138000  0.25000000  0.71868400  1
  N  N1  1  0.01862000  0.25000000  0.21868400  1
  N  N2  1  0.51862000  0.75000000  0.28131600  1
  N  N3  1  0.98138000  0.75000000  0.78131600  1
  N  N4  1  0.20232600  0.25000000  0.98627700  1
  N  N5  1  0.29767400  0.25000000  0.48627700  1
  N  N6  1  0.79767400  0.75000000  0.01372300  1
  N  N7  1  0.70232600  0.75000000  0.51372300  1
  N  N8  1  0.24109100  0.99236200  0.65255400  1
  N  N9  1  0.25890900  0.50763800  0.15255400  1
  N  N10  1  0.75890900  0.49236200  0.34744600  1
  N  N11  1  0.74109100  0.00763800  0.84744600  1
  N  N12  1  0.75890900  0.00763800  0.34744600  1
  N  N13  1  0.74109100  0.49236200  0.84744600  1
  N  N14  1  0.24109100  0.50763800  0.65255400  1
  N  N15  1  0.25890900  0.99236200  0.15255400  1
  O  O0  1  0.86804700  0.25000000  0.52186800  1
  O  O1  1  0.63195300  0.25000000  0.02186800  1
  O  O2  1  0.13195300  0.75000000  0.47813200  1
  O  O3  1  0.36804700  0.75000000  0.97813200  1
  O  O4  1  0.63052000  0.00586200  0.56185300  1
  O  O5  1  0.86948000  0.49413800  0.06185300  1
  O  O6  1  0.36948000  0.50586200  0.43814700  1
  O  O7  1  0.13052000  0.99413800  0.93814700  1
  O  O8  1  0.36948000  0.99413800  0.43814700  1
  O  O9  1  0.13052000  0.50586200  0.93814700  1
  O  O10  1  0.63052000  0.49413800  0.56185300  1
  O  O11  1  0.86948000  0.00586200  0.06185300  1
loop_
_geom_bond_atom_site_label_1
_geom_bond_atom_site_label_2
_geom_bond_distance
_geom_bond_site_symmetry_2
Co0 N0 1.748293 1_555
Co0 N14 1.752818 1_555
Co0 N8 1.752818 1_545
Co0 N5 2.068819 1_555
Co0 O4 2.438962 1_555
Co0 O10 2.438962 1_555
Co1 N1 1.748293 1_555
Co1 N9 1.752818 1_555
Co1 N15 1.752818 1_545
Co1 N4 2.068819 1_554
Co1 O11 2.438962 1_455
Co1 O5 2.438962 1_455
Co2 N2 1.748293 1_555
Co2 N10 1.752818 1_555
Co2 N12 1.752818 1_565
Co2 N7 2.068819 1_555
Co2 O8 2.438962 1_555
Co2 O6 2.438962 1_555
Co3 N3 1.748293 1_555
Co3 N11 1.752818 1_565
Co3 N13 1.752818 1_555
Co3 N6 2.068819 1_556
Co3 O7 2.438962 1_655
Co3 O9 2.438962 1_655
C0 O0 1.193771 1_555
C0 O10 1.393510 1_555
C0 O4 1.393510 1_555
C1 O1 1.193771 1_555
C1 O11 1.393510 1_555
C1 O5 1.393510 1_555
C2 O2 1.193771 1_555
C2 O8 1.393510 1_555
C2 O6 1.393510 1_555
C3 O3 1.193771 1_555
C3 O7 1.393510 1_555
C3 O9 1.393510 1_555
Br0 N14 1.973408 1_555
Br0 N8 1.973408 1_545
Br1 N15 1.973408 1_545
Br1 N9 1.973408 1_555
Br2 N10 1.973408 1_555
Br2 N12 1.973408 1_565
Br3 N13 1.973408 1_555
Br3 N11 1.973408 1_565
N4 O9 1.484519 1_555
N4 O7 1.484519 1_545
N5 O6 1.484519 1_555
N5 O8 1.484519 1_545
N6 O5 1.484519 1_555
N6 O11 1.484519 1_565
N7 O10 1.484519 1_555
N7 O4 1.484519 1_565
