# generated using pymatgen
data_Li9Mn2Co5O16
_symmetry_space_group_name_H-M   'P 1'
_cell_length_a   2.99681344
_cell_length_b   2.99681344
_cell_length_c   39.15911183
_cell_angle_alpha   89.76837932
_cell_angle_beta   89.76837932
_cell_angle_gamma   56.87943261
_symmetry_Int_Tables_number   1
_chemical_formula_structural   Li9Mn2Co5O16
_chemical_formula_sum   'Li9 Mn2 Co5 O16'
_cell_volume   294.53994948
_cell_formula_units_Z   1
loop_
 _symmetry_equiv_pos_site_id
 _symmetry_equiv_pos_as_xyz
  1  'x, y, z'
loop_
 _atom_site_type_symbol
 _atom_site_label
 _atom_site_symmetry_multiplicity
 _atom_site_fract_x
 _atom_site_fract_y
 _atom_site_fract_z
 _atom_site_occupancy
  Li  Li0  1  0.69083800  0.69083800  0.06372300  1
  Li  Li1  1  0.05929300  0.05929300  0.18639200  1
  Li  Li2  1  0.43983200  0.43983200  0.31399400  1
  Li  Li3  1  0.82112500  0.82112500  0.43898100  1
  Li  Li4  1  0.17920000  0.17920000  0.56166100  1
  Li  Li5  1  0.56068700  0.56068700  0.68740800  1
  Li  Li6  1  0.93801900  0.93801900  0.81186000  1
  Li  Li7  1  0.31010700  0.31010700  0.93602600  1
  Li  Li8  1  0.49919200  0.49919200  0.49994800  1
  Mn  Mn0  1  0.00046800  0.00046800  0.00008800  1
  Mn  Mn1  1  0.75093100  0.75093100  0.24966600  1
  Co  Co0  1  0.37492600  0.37492600  0.12500400  1
  Co  Co1  1  0.12630900  0.12630900  0.37498600  1
  Co  Co2  1  0.87383000  0.87383000  0.62562500  1
  Co  Co3  1  0.24779800  0.24779800  0.75000800  1
  Co  Co4  1  0.62418300  0.62418300  0.87446300  1
  O  O0  1  0.36860800  0.36860800  0.02978300  1
  O  O1  1  0.73811500  0.73811500  0.15266000  1
  O  O2  1  0.11612000  0.11612000  0.27861800  1
  O  O3  1  0.46571100  0.46571100  0.40210600  1
  O  O4  1  0.84610700  0.84610700  0.53179100  1
  O  O5  1  0.21370500  0.21370500  0.65500500  1
  O  O6  1  0.61268400  0.61268400  0.77804400  1
  O  O7  1  0.98762800  0.98762800  0.90243700  1
  O  O8  1  0.01144700  0.01144700  0.09725400  1
  O  O9  1  0.38278100  0.38278100  0.22000800  1
  O  O10  1  0.78340500  0.78340500  0.34598400  1
  O  O11  1  0.15494400  0.15494400  0.46830800  1
  O  O12  1  0.54034600  0.54034600  0.59803100  1
  O  O13  1  0.88695600  0.88695600  0.72269400  1
  O  O14  1  0.26241600  0.26241600  0.84676700  1
  O  O15  1  0.63228800  0.63228800  0.97067700  1
loop_
_geom_bond_atom_site_label_1
_geom_bond_atom_site_label_2
_geom_bond_distance
_geom_bond_site_symmetry_2
Li0 O8 2.144667 1_665
Li0 O8 2.154853 1_655
Li0 O8 2.154853 1_565
Li0 O0 2.160924 1_655
Li0 O0 2.160924 1_565
Li0 O0 2.161299 1_555
Li1 O9 2.150311 1_455
Li1 O9 2.150311 1_545
Li1 O1 2.151890 1_445
Li1 O1 2.158340 1_455
Li1 O1 2.158340 1_545
Li1 O9 2.158725 1_555
Li2 O10 2.067917 1_545
Li2 O10 2.067917 1_455
Li2 O2 2.192548 1_565
Li2 O2 2.192548 1_655
Li2 O2 2.202593 1_555
Li2 O10 2.206553 1_555
Li3 O11 2.028187 1_565
Li3 O11 2.028187 1_655
Li3 O11 2.105394 1_665
Li3 O3 2.166221 1_565
Li3 O3 2.166221 1_655
Li3 O3 2.370367 1_555
Li4 O4 2.041896 1_545
Li4 O4 2.041896 1_455
Li4 O4 2.113960 1_445
Li4 O12 2.142709 1_455
Li4 O12 2.142709 1_545
Li4 O12 2.382449 1_555
Li5 O5 2.070712 1_655
Li5 O5 2.070712 1_565
Li5 O13 2.184687 1_455
Li5 O13 2.184687 1_545
Li5 O13 2.210869 1_555
Li5 O5 2.230588 1_555
Li6 O6 2.150943 1_655
Li6 O6 2.150943 1_565
Li6 O6 2.171244 1_555
Li6 O14 2.179502 1_565
Li6 O14 2.179502 1_655
Li6 O14 2.193845 1_665
Li7 O7 2.151958 1_545
Li7 O7 2.151958 1_455
Li7 O7 2.153863 1_445
Li7 O15 2.178214 1_545
Li7 O15 2.178214 1_455
Li7 O15 2.178428 1_555
Li8 O4 2.057524 1_455
Li8 O4 2.057524 1_545
Li8 O11 2.058257 1_565
Li8 O11 2.058257 1_655
Li8 O11 2.201689 1_555
Li8 O4 2.217812 1_555
Mn0 O15 1.959230 1_454
Mn0 O15 1.959230 1_544
Mn0 O0 1.965844 1_545
Mn0 O0 1.965844 1_455
Mn0 O15 2.261022 1_444
Mn0 O0 2.266569 1_555
Mn1 O2 1.954381 1_655
Mn1 O2 1.954381 1_565
Mn1 O9 1.964971 1_655
Mn1 O9 1.964971 1_565
Mn1 O2 2.238242 1_665
Mn1 O9 2.265866 1_555
Co0 O1 1.929358 1_455
Co0 O1 1.929358 1_545
Co0 O8 1.930854 1_655
Co0 O8 1.930854 1_565
Co0 O1 2.203580 1_555
Co0 O8 2.206736 1_555
Co1 O3 1.967948 1_545
Co1 O3 1.967948 1_455
Co1 O10 2.000874 1_545
Co1 O10 2.000874 1_455
Co1 O3 2.084451 1_555
Co1 O10 2.138849 1_445
Co2 O12 1.991457 1_655
Co2 O12 1.991457 1_565
Co2 O5 2.015873 1_565
Co2 O5 2.015873 1_655
Co2 O12 2.067388 1_555
Co2 O5 2.133342 1_665
Co3 O13 1.926539 1_455
Co3 O13 1.926539 1_545
Co3 O6 1.934438 1_545
Co3 O6 1.934438 1_455
Co3 O13 2.186179 1_445
Co3 O6 2.218758 1_555
Co4 O14 1.933028 1_655
Co4 O14 1.933028 1_565
Co4 O7 1.935856 1_545
Co4 O7 1.935856 1_455
Co4 O14 2.197835 1_555
Co4 O7 2.210948 1_555
