# generated using pymatgen
data_CdHg4Te5
_symmetry_space_group_name_H-M   'P 1'
_cell_length_a   11.61081897
_cell_length_b   11.61081897
_cell_length_c   11.61081897
_cell_angle_alpha   158.44231312
_cell_angle_beta   149.58624516
_cell_angle_gamma   37.58585445
_symmetry_Int_Tables_number   1
_chemical_formula_structural   CdHg4Te5
_chemical_formula_sum   'Cd1 Hg4 Te5'
_cell_volume   290.76844036
_cell_formula_units_Z   1
loop_
 _symmetry_equiv_pos_site_id
 _symmetry_equiv_pos_as_xyz
  1  'x, y, z'
loop_
 _atom_site_type_symbol
 _atom_site_label
 _atom_site_symmetry_multiplicity
 _atom_site_fract_x
 _atom_site_fract_y
 _atom_site_fract_z
 _atom_site_occupancy
  Cd  Cd0  1  0.00000000  0.00000000  0.00000000  1
  Hg  Hg0  1  0.60037400  0.60037400  0.00000000  1
  Hg  Hg1  1  0.20084000  0.20084000  0.00000000  1
  Hg  Hg2  1  0.79916000  0.79916000  0.00000000  1
  Hg  Hg3  1  0.39962600  0.39962600  0.00000000  1
  Te  Te0  1  0.30054200  0.80054200  0.50000000  1
  Te  Te1  1  0.90223900  0.40223900  0.50000000  1
  Te  Te2  1  0.50000000  0.00000000  0.50000000  1
  Te  Te3  1  0.09776100  0.59776100  0.50000000  1
  Te  Te4  1  0.69945800  0.19945800  0.50000000  1
loop_
_geom_bond_atom_site_label_1
_geom_bond_atom_site_label_2
_geom_bond_distance
_geom_bond_site_symmetry_2
Cd0 Te2 3.045576 1_555
Cd0 Te2 3.045576 1_454
Cd0 Te3 3.055155 1_555
Cd0 Te3 3.055155 1_544
Cd0 Te1 3.055155 1_455
Cd0 Te1 3.055155 1_444
Hg0 Te3 3.046118 1_554
Hg0 Te3 3.046118 1_655
Hg0 Te4 3.075684 1_554
Hg0 Te4 3.075684 1_565
Hg0 Te2 3.095833 1_554
Hg0 Te2 3.095833 1_565
Hg1 Te4 3.045728 1_555
Hg1 Te4 3.045728 1_454
Hg1 Te0 3.085321 1_544
Hg1 Te0 3.085321 1_555
Hg1 Te3 3.138495 1_555
Hg1 Te3 3.138495 1_544
Hg2 Te0 3.045728 1_554
Hg2 Te0 3.045728 1_655
Hg2 Te4 3.085321 1_554
Hg2 Te4 3.085321 1_565
Hg2 Te1 3.138495 1_565
Hg2 Te1 3.138495 1_554
Hg3 Te1 3.046118 1_454
Hg3 Te1 3.046118 1_555
Hg3 Te0 3.075684 1_544
Hg3 Te0 3.075684 1_555
Hg3 Te2 3.095833 1_565
Hg3 Te2 3.095833 1_554
