# generated using pymatgen
data_LuAgS2
_symmetry_space_group_name_H-M   'P 1'
_cell_length_a   6.99652742
_cell_length_b   6.99652742
_cell_length_c   6.99652742
_cell_angle_alpha   135.24960077
_cell_angle_beta   135.24960077
_cell_angle_gamma   65.14262275
_symmetry_Int_Tables_number   1
_chemical_formula_structural   LuAgS2
_chemical_formula_sum   'Lu2 Ag2 S4'
_cell_volume   167.29756799
_cell_formula_units_Z   2
loop_
 _symmetry_equiv_pos_site_id
 _symmetry_equiv_pos_as_xyz
  1  'x, y, z'
loop_
 _atom_site_type_symbol
 _atom_site_label
 _atom_site_symmetry_multiplicity
 _atom_site_fract_x
 _atom_site_fract_y
 _atom_site_fract_z
 _atom_site_occupancy
  Lu  Lu0  1  0.00000000  0.00000000  -0.00000000  1
  Lu  Lu1  1  0.75000000  0.25000000  0.50000000  1
  Ag  Ag0  1  0.50000000  0.50000000  -0.00000000  1
  Ag  Ag1  1  0.25000000  0.75000000  0.50000000  1
  S  S0  1  0.77363424  0.77363424  -0.00000000  1
  S  S1  1  0.22636576  0.22636576  0.00000000  1
  S  S2  1  0.97636576  0.47636576  0.50000000  1
  S  S3  1  0.52363424  0.02363424  0.50000000  1
loop_
_geom_bond_atom_site_label_1
_geom_bond_atom_site_label_2
_geom_bond_distance
_geom_bond_site_symmetry_2
Lu0 S0 2.669363 1_445
Lu0 S1 2.669363 1_555
Lu0 S2 2.677911 1_444
Lu0 S3 2.677911 1_454
Lu0 S3 2.677911 1_555
Lu0 S2 2.677911 1_455
Lu1 S3 2.669363 1_555
Lu1 S2 2.669363 1_555
Lu1 S0 2.677911 1_545
Lu1 S1 2.677911 1_555
Lu1 S1 2.677911 1_656
Lu1 S0 2.677911 1_556
Ag0 S2 2.677911 1_555
Ag0 S3 2.677911 1_565
Ag0 S3 2.677911 1_554
Ag0 S2 2.677911 1_454
Ag1 S0 2.677911 1_455
Ag1 S1 2.677911 1_555
Ag1 S1 2.677911 1_566
Ag1 S0 2.677911 1_556
