# generated using pymatgen
data_ErS2
_symmetry_space_group_name_H-M   'P 1'
_cell_length_a   5.49646122
_cell_length_b   5.49646122
_cell_length_c   5.49646122
_cell_angle_alpha   60.00000000
_cell_angle_beta   60.00000000
_cell_angle_gamma   60.00000000
_symmetry_Int_Tables_number   1
_chemical_formula_structural   ErS2
_chemical_formula_sum   'Er2 S4'
_cell_volume   117.41795339
_cell_formula_units_Z   2
loop_
 _symmetry_equiv_pos_site_id
 _symmetry_equiv_pos_as_xyz
  1  'x, y, z'
loop_
 _atom_site_type_symbol
 _atom_site_label
 _atom_site_symmetry_multiplicity
 _atom_site_fract_x
 _atom_site_fract_y
 _atom_site_fract_z
 _atom_site_occupancy
  Er  Er0  1  0.75000000  0.75000000  0.75000000  1
  Er  Er1  1  0.50000000  0.50000000  0.50000000  1
  S  S0  1  0.12500000  0.12500000  0.62500000  1
  S  S1  1  0.12500000  0.62500000  0.12500000  1
  S  S2  1  0.12500000  0.12500000  0.12500000  1
  S  S3  1  0.62500000  0.12500000  0.12500000  1
loop_
_geom_bond_atom_site_label_1
_geom_bond_atom_site_label_2
_geom_bond_distance
_geom_bond_site_symmetry_2
Er0 S1 3.222586 1_655
Er0 S3 3.222586 1_566
Er0 S1 3.222586 1_656
Er0 S3 3.222586 1_556
Er0 S2 3.222586 1_656
Er0 S2 3.222586 1_566
Er0 S0 3.222586 1_655
Er0 S1 3.222586 1_556
Er0 S2 3.222586 1_665
Er0 S3 3.222586 1_565
Er0 S0 3.222586 1_565
Er0 S0 3.222586 1_665
Er1 S1 3.222586 1_655
Er1 S3 3.222586 1_555
Er1 S3 3.222586 1_556
Er1 S2 3.222586 1_565
Er1 S2 3.222586 1_556
Er1 S2 3.222586 1_655
Er1 S0 3.222586 1_555
Er1 S0 3.222586 1_655
Er1 S1 3.222586 1_556
Er1 S1 3.222586 1_555
Er1 S3 3.222586 1_565
Er1 S0 3.222586 1_565
S0 S1 2.748231 1_555
S0 S3 2.748231 1_456
S0 S3 2.748231 1_555
S0 S2 2.748231 1_555
S0 S1 2.748231 1_546
S0 S2 2.748231 1_556
S1 S3 2.748231 1_555
S1 S2 2.748231 1_555
S1 S3 2.748231 1_465
S1 S2 2.748231 1_565
S2 S3 2.748231 1_555
S2 S3 2.748231 1_455
