# generated using pymatgen
data_Mo2S4N
_symmetry_space_group_name_H-M   'P 1'
_cell_length_a   6.59203534
_cell_length_b   6.59203534
_cell_length_c   6.59203534
_cell_angle_alpha   100.92297961
_cell_angle_beta   100.92297961
_cell_angle_gamma   128.39076653
_symmetry_Int_Tables_number   1
_chemical_formula_structural   Mo2S4N
_chemical_formula_sum   'Mo2 S4 N1'
_cell_volume   202.13413103
_cell_formula_units_Z   1
loop_
 _symmetry_equiv_pos_site_id
 _symmetry_equiv_pos_as_xyz
  1  'x, y, z'
loop_
 _atom_site_type_symbol
 _atom_site_label
 _atom_site_symmetry_multiplicity
 _atom_site_fract_x
 _atom_site_fract_y
 _atom_site_fract_z
 _atom_site_occupancy
  Mo  Mo0  1  0.25000000  0.75000000  0.50000000  1
  Mo  Mo1  1  0.75000000  0.25000000  0.50000000  1
  S  S0  1  0.18210700  0.39272200  0.57482900  1
  S  S1  1  0.81789300  0.60727800  0.42517100  1
  S  S2  1  0.60727800  0.18210700  0.78938500  1
  S  S3  1  0.39272200  0.81789300  0.21061500  1
  N  N0  1  0.00000000  0.00000000  0.00000000  1
loop_
_geom_bond_atom_site_label_1
_geom_bond_atom_site_label_2
_geom_bond_distance
_geom_bond_site_symmetry_2
Mo0 S3 2.281509 1_555
Mo0 S1 2.281509 1_455
Mo0 S2 2.281509 1_565
Mo0 S0 2.281509 1_555
Mo1 S2 2.281509 1_555
Mo1 S3 2.281509 1_545
Mo1 S1 2.281509 1_555
Mo1 S0 2.281509 1_655
