# generated using pymatgen
data_KIrN2
_symmetry_space_group_name_H-M   'P 1'
_cell_length_a   5.69289700
_cell_length_b   11.46403100
_cell_length_c   16.91798100
_cell_angle_alpha   90.00000000
_cell_angle_beta   90.00000000
_cell_angle_gamma   90.00000000
_symmetry_Int_Tables_number   1
_chemical_formula_structural   KIrN2
_chemical_formula_sum   'K16 Ir16 N32'
_cell_volume   1104.12745977
_cell_formula_units_Z   16
loop_
 _symmetry_equiv_pos_site_id
 _symmetry_equiv_pos_as_xyz
  1  'x, y, z'
loop_
 _atom_site_type_symbol
 _atom_site_label
 _atom_site_symmetry_multiplicity
 _atom_site_fract_x
 _atom_site_fract_y
 _atom_site_fract_z
 _atom_site_occupancy
  K  K0  1  0.25416600  0.00887200  0.43875400  1
  K  K1  1  0.75416600  0.49112800  0.56124600  1
  K  K2  1  0.74583400  0.50887200  0.06124600  1
  K  K3  1  0.24583400  0.99112800  0.93875400  1
  K  K4  1  0.74583400  0.99112800  0.56124600  1
  K  K5  1  0.24583400  0.50887200  0.43875400  1
  K  K6  1  0.25416600  0.49112800  0.93875400  1
  K  K7  1  0.75416600  0.00887200  0.06124600  1
  K  K8  1  0.31946700  0.26402700  0.31539800  1
  K  K9  1  0.81946700  0.23597300  0.68460200  1
  K  K10  1  0.68053300  0.76402700  0.18460200  1
  K  K11  1  0.18053300  0.73597300  0.81539800  1
  K  K12  1  0.68053300  0.73597300  0.68460200  1
  K  K13  1  0.18053300  0.76402700  0.31539800  1
  K  K14  1  0.31946700  0.23597300  0.81539800  1
  K  K15  1  0.81946700  0.26402700  0.18460200  1
  Ir  Ir0  1  0.75558600  0.01416000  0.31006700  1
  Ir  Ir1  1  0.25558600  0.48584000  0.68993300  1
  Ir  Ir2  1  0.24441400  0.51416000  0.18993300  1
  Ir  Ir3  1  0.74441400  0.98584000  0.81006700  1
  Ir  Ir4  1  0.24441400  0.98584000  0.68993300  1
  Ir  Ir5  1  0.74441400  0.51416000  0.31006700  1
  Ir  Ir6  1  0.75558600  0.48584000  0.81006700  1
  Ir  Ir7  1  0.25558600  0.01416000  0.18993300  1
  Ir  Ir8  1  0.79157900  0.26315100  0.43573700  1
  Ir  Ir9  1  0.29157900  0.23684900  0.56426300  1
  Ir  Ir10  1  0.20842100  0.76315100  0.06426300  1
  Ir  Ir11  1  0.70842100  0.73684900  0.93573700  1
  Ir  Ir12  1  0.20842100  0.73684900  0.56426300  1
  Ir  Ir13  1  0.70842100  0.76315100  0.43573700  1
  Ir  Ir14  1  0.79157900  0.23684900  0.93573700  1
  Ir  Ir15  1  0.29157900  0.26315100  0.06426300  1
  N  N0  1  0.05245400  0.30373200  0.49999900  1
  N  N1  1  0.55245400  0.19626800  0.50000100  1
  N  N2  1  0.94754600  0.80373200  0.00000100  1
  N  N3  1  0.44754600  0.69626800  0.99999900  1
  N  N4  1  0.94754600  0.69626800  0.50000100  1
  N  N5  1  0.44754600  0.80373200  0.49999900  1
  N  N6  1  0.05245400  0.19626800  0.99999900  1
  N  N7  1  0.55245400  0.30373200  0.00000100  1
  N  N8  1  0.67851300  0.41232900  0.39600000  1
  N  N9  1  0.17851300  0.08767100  0.60400000  1
  N  N10  1  0.32148700  0.91232900  0.10400000  1
  N  N11  1  0.82148700  0.58767100  0.89600000  1
  N  N12  1  0.32148700  0.58767100  0.60400000  1
  N  N13  1  0.82148700  0.91232900  0.39600000  1
  N  N14  1  0.67851300  0.08767100  0.89600000  1
  N  N15  1  0.17851300  0.41232900  0.10400000  1
  N  N16  1  0.82523300  0.17037800  0.34178700  1
  N  N17  1  0.32523300  0.32962200  0.65821300  1
  N  N18  1  0.17476700  0.67037800  0.15821300  1
  N  N19  1  0.67476700  0.82962200  0.84178700  1
  N  N20  1  0.17476700  0.82962200  0.65821300  1
  N  N21  1  0.67476700  0.67037800  0.34178700  1
  N  N22  1  0.82523300  0.32962200  0.84178700  1
  N  N23  1  0.32523300  0.17037800  0.15821300  1
  N  N24  1  0.56724600  0.48361900  0.21567500  1
  N  N25  1  0.06724600  0.01638100  0.78432500  1
  N  N26  1  0.43275400  0.98361900  0.28432500  1
  N  N27  1  0.93275400  0.51638100  0.71567500  1
  N  N28  1  0.43275400  0.51638100  0.78432500  1
  N  N29  1  0.93275400  0.98361900  0.21567500  1
  N  N30  1  0.56724600  0.01638100  0.71567500  1
  N  N31  1  0.06724600  0.48361900  0.28432500  1
loop_
_geom_bond_atom_site_label_1
_geom_bond_atom_site_label_2
_geom_bond_distance
_geom_bond_site_symmetry_2
K0 N13 2.795615 1_445
K0 N5 2.795746 1_545
K0 N26 2.818382 1_545
K0 N1 2.927889 1_555
K0 N9 2.969356 1_555
K1 N12 2.795615 1_555
K1 N4 2.795746 1_555
K1 N27 2.818382 1_555
K1 N0 2.927889 1_655
K1 N8 2.969356 1_555
K2 N15 2.795615 1_655
K2 N7 2.795746 1_555
K2 N24 2.818382 1_555
K2 N3 2.927889 1_554
K2 N11 2.969356 1_554
K3 N14 2.795615 1_565
K3 N6 2.795746 1_565
K3 N25 2.818382 1_565
K3 N2 2.927889 1_456
K3 N10 2.969356 1_556
K4 N9 2.795615 1_665
K4 N1 2.795746 1_565
K4 N30 2.818382 1_565
K4 N5 2.927889 1_555
K4 N13 2.969356 1_555
K5 N8 2.795615 1_555
K5 N0 2.795746 1_555
K5 N31 2.818382 1_555
K5 N4 2.927889 1_455
K5 N12 2.969356 1_555
K6 N11 2.795615 1_455
K6 N3 2.795746 1_555
K6 N28 2.818382 1_555
K6 N7 2.927889 1_556
K6 N15 2.969356 1_556
K7 N10 2.795615 1_545
K7 N2 2.795746 1_545
K7 N29 2.818382 1_545
K7 N6 2.927889 1_654
K7 N14 2.969356 1_554
K8 N23 2.867980 1_555
K8 N31 2.945407 1_555
K8 N8 2.987963 1_555
K8 N16 3.044404 1_455
K8 N16 3.105180 1_555
K8 N26 3.320539 1_545
K8 N24 3.342669 1_555
K9 N22 2.867980 1_555
K9 N30 2.945407 1_555
K9 N9 2.987963 1_655
K9 N17 3.044404 1_555
K9 N17 3.105180 1_655
K9 N27 3.320539 1_555
K9 N25 3.342669 1_655
K10 N21 2.867980 1_555
K10 N29 2.945407 1_555
K10 N10 2.987963 1_555
K10 N18 3.044404 1_655
K10 N18 3.105180 1_555
K10 N24 3.320539 1_555
K10 N26 3.342669 1_555
K11 N20 2.867980 1_555
K11 N28 2.945407 1_555
K11 N11 2.987963 1_455
K11 N19 3.044404 1_555
K11 N19 3.105180 1_455
K11 N25 3.320539 1_565
K11 N27 3.342669 1_455
K12 N19 2.867980 1_555
K12 N27 2.945407 1_555
K12 N12 2.987963 1_555
K12 N20 3.044404 1_655
K12 N20 3.105180 1_555
K12 N30 3.320539 1_565
K12 N28 3.342669 1_555
K13 N18 2.867980 1_555
K13 N26 2.945407 1_555
K13 N13 2.987963 1_455
K13 N21 3.044404 1_555
K13 N21 3.105180 1_455
K13 N31 3.320539 1_555
K13 N29 3.342669 1_455
K14 N17 2.867980 1_555
K14 N25 2.945407 1_555
K14 N14 2.987963 1_555
K14 N22 3.044404 1_455
K14 N22 3.105180 1_555
K14 N28 3.320539 1_555
K14 N30 3.342669 1_555
K15 N16 2.867980 1_555
K15 N24 2.945407 1_555
K15 N15 2.987963 1_655
K15 N23 3.044404 1_555
K15 N23 3.105180 1_655
K15 N29 3.320539 1_545
K15 N31 3.342669 1_655
Ir0 N13 1.901876 1_545
Ir0 N16 1.911143 1_555
Ir0 N26 1.920921 1_545
Ir0 N29 1.920942 1_545
Ir1 N12 1.901876 1_555
Ir1 N17 1.911143 1_555
Ir1 N27 1.920921 1_455
Ir1 N28 1.920942 1_555
Ir2 N15 1.901876 1_555
Ir2 N18 1.911143 1_555
Ir2 N24 1.920921 1_555
Ir2 N31 1.920942 1_555
Ir3 N14 1.901876 1_565
Ir3 N19 1.911143 1_555
Ir3 N25 1.920921 1_665
Ir3 N30 1.920942 1_565
Ir4 N9 1.901876 1_565
Ir4 N20 1.911143 1_555
Ir4 N30 1.920921 1_565
Ir4 N25 1.920942 1_565
Ir5 N8 1.901876 1_555
Ir5 N21 1.911143 1_555
Ir5 N31 1.920921 1_655
Ir5 N24 1.920942 1_555
Ir6 N11 1.901876 1_555
Ir6 N22 1.911143 1_555
Ir6 N28 1.920921 1_555
Ir6 N27 1.920942 1_555
Ir7 N10 1.901876 1_545
Ir7 N23 1.911143 1_555
Ir7 N29 1.920921 1_445
Ir7 N26 1.920942 1_545
Ir8 N0 1.898427 1_655
Ir8 N1 1.903450 1_555
Ir8 N16 1.922026 1_555
Ir8 N8 1.947044 1_555
Ir9 N1 1.898427 1_555
Ir9 N0 1.903450 1_555
Ir9 N17 1.922026 1_555
Ir9 N9 1.947044 1_555
Ir10 N2 1.898427 1_455
Ir10 N3 1.903450 1_554
Ir10 N18 1.922026 1_555
Ir10 N10 1.947044 1_555
Ir11 N3 1.898427 1_555
Ir11 N2 1.903450 1_556
Ir11 N19 1.922026 1_555
Ir11 N11 1.947044 1_555
Ir12 N4 1.898427 1_455
Ir12 N5 1.903450 1_555
Ir12 N20 1.922026 1_555
Ir12 N12 1.947044 1_555
Ir13 N5 1.898427 1_555
Ir13 N4 1.903450 1_555
Ir13 N21 1.922026 1_555
Ir13 N13 1.947044 1_555
Ir14 N6 1.898427 1_655
Ir14 N7 1.903450 1_556
Ir14 N22 1.922026 1_555
Ir14 N14 1.947044 1_555
Ir15 N7 1.898427 1_555
Ir15 N6 1.903450 1_554
Ir15 N23 1.922026 1_555
Ir15 N15 1.947044 1_555
