# generated using pymatgen
data_Li2Ni3WO8
_symmetry_space_group_name_H-M   'P 1'
_cell_length_a   8.50065727
_cell_length_b   8.56339501
_cell_length_c   8.22028025
_cell_angle_alpha   90.00566454
_cell_angle_beta   89.97176493
_cell_angle_gamma   90.00026895
_symmetry_Int_Tables_number   1
_chemical_formula_structural   Li2Ni3WO8
_chemical_formula_sum   'Li8 Ni12 W4 O32'
_cell_volume   598.39100028
_cell_formula_units_Z   4
loop_
 _symmetry_equiv_pos_site_id
 _symmetry_equiv_pos_as_xyz
  1  'x, y, z'
loop_
 _atom_site_type_symbol
 _atom_site_label
 _atom_site_symmetry_multiplicity
 _atom_site_fract_x
 _atom_site_fract_y
 _atom_site_fract_z
 _atom_site_occupancy
  Li  Li0  1  0.99047000  0.99709100  0.99390700  1
  Li  Li1  1  0.25264300  0.25788600  0.25659200  1
  Li  Li2  1  0.24759700  0.74248800  0.75680300  1
  Li  Li3  1  0.50962400  0.00255000  0.49373400  1
  Li  Li4  1  0.49092300  0.50192800  0.00645500  1
  Li  Li5  1  0.75224200  0.24221600  0.74340600  1
  Li  Li6  1  0.74712600  0.75818700  0.24355600  1
  Li  Li7  1  0.00927700  0.49752300  0.50623100  1
  Ni  Ni0  1  0.11978500  0.12946200  0.62510000  1
  Ni  Ni1  1  0.12796000  0.37769400  0.87720800  1
  Ni  Ni2  1  0.12695000  0.62296600  0.12766200  1
  Ni  Ni3  1  0.37315400  0.37729200  0.62757300  1
  Ni  Ni4  1  0.37241600  0.62275000  0.37738400  1
  Ni  Ni5  1  0.38026100  0.87048400  0.12531100  1
  Ni  Ni6  1  0.62000200  0.37037500  0.37484400  1
  Ni  Ni7  1  0.62792900  0.12312400  0.12228200  1
  Ni  Ni8  1  0.62674100  0.87770500  0.87224400  1
  Ni  Ni9  1  0.87331100  0.12262500  0.37223900  1
  Ni  Ni10  1  0.87195200  0.87728800  0.62249200  1
  Ni  Ni11  1  0.88000200  0.62960700  0.87497400  1
  W  W0  1  0.12825800  0.87813700  0.37499500  1
  W  W1  1  0.37107300  0.12139300  0.87476800  1
  W  W2  1  0.62830400  0.62175400  0.62559900  1
  W  W3  1  0.87227700  0.37818700  0.12528900  1
  O  O0  1  0.11294000  0.10488300  0.37486900  1
  O  O1  1  0.11629300  0.87544400  0.61004200  1
  O  O2  1  0.11844100  0.60595700  0.89803400  1
  O  O3  1  0.14458300  0.13251300  0.87513400  1
  O  O4  1  0.10745600  0.37759300  0.11092900  1
  O  O5  1  0.14618800  0.36724900  0.64750000  1
  O  O6  1  0.12758600  0.64415800  0.36196500  1
  O  O7  1  0.12426300  0.86724200  0.14050600  1
  O  O8  1  0.37557800  0.13222900  0.64048500  1
  O  O9  1  0.37155700  0.35585300  0.86190800  1
  O  O10  1  0.35453000  0.63275900  0.14785900  1
  O  O11  1  0.39296000  0.62328700  0.61106200  1
  O  O12  1  0.35525300  0.86613400  0.37556800  1
  O  O13  1  0.38148200  0.39523900  0.39765100  1
  O  O14  1  0.38264400  0.12451300  0.10980500  1
  O  O15  1  0.38775200  0.89463800  0.87515200  1
  O  O16  1  0.61296000  0.39503900  0.62504100  1
  O  O17  1  0.61653900  0.62441000  0.38998400  1
  O  O18  1  0.61892000  0.89655700  0.10251300  1
  O  O19  1  0.64484600  0.36442500  0.12426300  1
  O  O20  1  0.60652600  0.12374300  0.88865700  1
  O  O21  1  0.64672000  0.13260600  0.35234800  1
  O  O22  1  0.62735100  0.85568600  0.63790000  1
  O  O23  1  0.62422400  0.63202400  0.85953200  1
  O  O24  1  0.87571700  0.36792000  0.35962800  1
  O  O25  1  0.87373000  0.14448600  0.13807000  1
  O  O26  1  0.85311400  0.86747600  0.85237900  1
  O  O27  1  0.89304800  0.87661200  0.38891100  1
  O  O28  1  0.85525000  0.63397900  0.62459700  1
  O  O29  1  0.88114400  0.10471500  0.60215600  1
  O  O30  1  0.88446500  0.37540300  0.88990700  1
  O  O31  1  0.88566300  0.60466300  0.12513900  1
loop_
_geom_bond_atom_site_label_1
_geom_bond_atom_site_label_2
_geom_bond_distance
_geom_bond_site_symmetry_2
Li0 O26 1.987429 1_555
Li0 O25 1.995212 1_566
Li0 O7 1.995946 1_656
Li0 O3 2.003323 1_665
Li1 O13 1.982039 1_555
Li1 O14 1.995010 1_555
Li1 O4 2.002372 1_555
Li1 O0 2.017775 1_555
Li2 O2 1.979694 1_555
Li2 O1 1.999799 1_555
Li2 O11 2.000615 1_555
Li2 O15 2.016035 1_555
Li3 O21 1.987018 1_555
Li3 O8 1.996307 1_555
Li3 O22 1.997276 1_545
Li3 O12 2.007790 1_545
Li4 O10 1.987218 1_555
Li4 O23 1.995675 1_554
Li4 O9 2.001770 1_554
Li4 O19 2.009437 1_555
Li5 O29 1.983380 1_555
Li5 O20 1.997003 1_555
Li5 O30 2.003869 1_555
Li5 O16 2.015589 1_555
Li6 O18 1.984323 1_555
Li6 O17 1.998104 1_555
Li6 O27 1.999002 1_555
Li6 O31 2.015305 1_555
Li7 O5 1.987258 1_555
Li7 O24 1.993526 1_455
Li7 O6 1.998422 1_555
Li7 O28 2.006257 1_455
Ni0 O29 2.048435 1_455
Ni0 O5 2.056846 1_555
Ni0 O3 2.066397 1_555
Ni0 O0 2.068536 1_555
Ni0 O8 2.178274 1_555
Ni0 O1 2.178966 1_545
Ni1 O5 1.896636 1_555
Ni1 O4 1.929057 1_556
Ni1 O2 1.963836 1_555
Ni1 O30 2.072540 1_455
Ni1 O9 2.082903 1_555
Ni1 O3 2.104399 1_555
Ni2 O2 1.894620 1_554
Ni2 O6 1.934559 1_555
Ni2 O10 1.943581 1_555
Ni2 O31 2.057192 1_455
Ni2 O7 2.094608 1_555
Ni2 O4 2.112225 1_555
Ni3 O13 1.897563 1_555
Ni3 O9 1.935087 1_555
Ni3 O5 1.938130 1_555
Ni3 O16 2.044261 1_555
Ni3 O8 2.101366 1_555
Ni3 O11 2.117631 1_555
Ni4 O10 1.894899 1_555
Ni4 O11 1.928912 1_555
Ni4 O13 1.956915 1_555
Ni4 O17 2.077889 1_555
Ni4 O12 2.089350 1_555
Ni4 O6 2.093180 1_555
Ni5 O18 2.049503 1_555
Ni5 O10 2.055830 1_555
Ni5 O15 2.067723 1_554
Ni5 O12 2.068372 1_555
Ni5 O14 2.179188 1_565
Ni5 O7 2.179848 1_555
Ni6 O13 2.047235 1_555
Ni6 O21 2.057040 1_555
Ni6 O16 2.068322 1_555
Ni6 O19 2.071162 1_555
Ni6 O24 2.177381 1_555
Ni6 O17 2.179145 1_555
Ni7 O21 1.899747 1_555
Ni7 O20 1.929159 1_554
Ni7 O18 1.948469 1_545
Ni7 O19 2.071416 1_555
Ni7 O14 2.087689 1_555
Ni7 O25 2.101535 1_555
Ni8 O18 1.900862 1_556
Ni8 O26 1.933140 1_555
Ni8 O22 1.935565 1_555
Ni8 O15 2.036861 1_555
Ni8 O23 2.106556 1_555
Ni8 O20 2.118200 1_565
Ni9 O29 1.897411 1_555
Ni9 O25 1.934036 1_555
Ni9 O21 1.935070 1_555
Ni9 O0 2.042788 1_655
Ni9 O24 2.103224 1_555
Ni9 O27 2.117835 1_545
Ni10 O26 1.898298 1_555
Ni10 O27 1.928378 1_555
Ni10 O29 1.956282 1_565
Ni10 O1 2.079588 1_655
Ni10 O28 2.088455 1_555
Ni10 O22 2.091259 1_555
Ni11 O2 2.045878 1_655
Ni11 O26 2.058177 1_555
Ni11 O31 2.068095 1_556
Ni11 O28 2.069342 1_555
Ni11 O23 2.178144 1_555
Ni11 O30 2.180651 1_555
O0 W0 1.946078 1_545
O1 W0 1.934917 1_555
O3 W1 1.927669 1_555
O4 W3 2.002606 1_455
O6 W0 2.006513 1_555
O7 W0 1.930128 1_555
O8 W1 1.928477 1_555
O9 W1 2.010569 1_555
O11 W2 2.004246 1_555
O12 W0 1.932351 1_555
O14 W1 1.934802 1_554
O15 W1 1.946966 1_565
O16 W2 1.945831 1_555
O17 W2 1.939587 1_555
O19 W3 1.936923 1_555
O20 W1 2.004916 1_555
O22 W2 2.005809 1_555
O23 W2 1.925291 1_555
O24 W3 1.928582 1_555
O25 W3 2.004079 1_555
O27 W0 2.002696 1_655
O28 W2 1.932042 1_555
O30 W3 1.937771 1_556
O31 W3 1.942739 1_555
