# generated using pymatgen
data_Li2PH3O4
_symmetry_space_group_name_H-M   'P 1'
_cell_length_a   5.10666000
_cell_length_b   9.08403300
_cell_length_c   18.21751295
_cell_angle_alpha   90.00000000
_cell_angle_beta   91.48469426
_cell_angle_gamma   90.00000000
_symmetry_Int_Tables_number   1
_chemical_formula_structural   Li2PH3O4
_chemical_formula_sum   'Li16 P8 H24 O32'
_cell_volume   844.80973308
_cell_formula_units_Z   8
loop_
 _symmetry_equiv_pos_site_id
 _symmetry_equiv_pos_as_xyz
  1  'x, y, z'
loop_
 _atom_site_type_symbol
 _atom_site_label
 _atom_site_symmetry_multiplicity
 _atom_site_fract_x
 _atom_site_fract_y
 _atom_site_fract_z
 _atom_site_occupancy
  Li  Li0  1  0.31997400  0.85445600  0.95515500  1
  Li  Li1  1  0.68002600  0.35445600  0.54484500  1
  Li  Li2  1  0.68002600  0.14554400  0.04484500  1
  Li  Li3  1  0.31997400  0.64554400  0.45515500  1
  Li  Li4  1  0.31389300  0.17965800  0.89033500  1
  Li  Li5  1  0.68610700  0.67965800  0.60966500  1
  Li  Li6  1  0.68610700  0.82034200  0.10966500  1
  Li  Li7  1  0.31389300  0.32034200  0.39033500  1
  Li  Li8  1  0.80807100  0.34328700  0.94446900  1
  Li  Li9  1  0.19192900  0.84328700  0.55553100  1
  Li  Li10  1  0.19192900  0.65671300  0.05553100  1
  Li  Li11  1  0.80807100  0.15671300  0.44446900  1
  Li  Li12  1  0.80746000  0.67001800  0.94998900  1
  Li  Li13  1  0.19254000  0.17001800  0.55001100  1
  Li  Li14  1  0.19254000  0.32998200  0.05001100  1
  Li  Li15  1  0.80746000  0.82998200  0.44998900  1
  P  P0  1  0.30439400  0.51197100  0.90588900  1
  P  P1  1  0.69560600  0.01197100  0.59411100  1
  P  P2  1  0.69560600  0.48802900  0.09411100  1
  P  P3  1  0.30439400  0.98802900  0.40588900  1
  P  P4  1  0.80494200  0.00214300  0.89688100  1
  P  P5  1  0.19505800  0.50214300  0.60311900  1
  P  P6  1  0.19505800  0.99785700  0.10311900  1
  P  P7  1  0.80494200  0.49785700  0.39688100  1
  H  H0  1  0.73647300  0.01209900  0.82126900  1
  H  H1  1  0.26352700  0.51209900  0.67873100  1
  H  H2  1  0.26352700  0.98790100  0.17873100  1
  H  H3  1  0.73647300  0.48790100  0.32126900  1
  H  H4  1  0.43617000  0.25672400  0.75801600  1
  H  H5  1  0.56383000  0.75672400  0.74198400  1
  H  H6  1  0.56383000  0.74327600  0.24198400  1
  H  H7  1  0.43617000  0.24327600  0.25801600  1
  H  H8  1  0.12584700  0.25648200  0.76295700  1
  H  H9  1  0.87415300  0.75648200  0.73704300  1
  H  H10  1  0.87415300  0.74351800  0.23704300  1
  H  H11  1  0.12584700  0.24351800  0.26295700  1
  H  H12  1  0.21466600  0.91174700  0.79813100  1
  H  H13  1  0.78533400  0.41174700  0.70186900  1
  H  H14  1  0.78533400  0.08825300  0.20186900  1
  H  H15  1  0.21466600  0.58825300  0.29813100  1
  H  H16  1  0.26328500  0.93429500  0.71514000  1
  H  H17  1  0.73671500  0.43429500  0.78486000  1
  H  H18  1  0.73671500  0.06570500  0.28486000  1
  H  H19  1  0.26328500  0.56570500  0.21514000  1
  H  H20  1  0.21501700  0.52788600  0.83231700  1
  H  H21  1  0.78498300  0.02788600  0.66768300  1
  H  H22  1  0.78498300  0.47211400  0.16768300  1
  H  H23  1  0.21501700  0.97211400  0.33231700  1
  O  O0  1  0.18889800  0.36603900  0.93489700  1
  O  O1  1  0.81110200  0.86603900  0.56510300  1
  O  O2  1  0.81110200  0.63396100  0.06510300  1
  O  O3  1  0.18889800  0.13396100  0.43489700  1
  O  O4  1  0.60479300  0.50790400  0.90472600  1
  O  O5  1  0.39520700  0.00790400  0.59527400  1
  O  O6  1  0.39520700  0.49209600  0.09527400  1
  O  O7  1  0.60479300  0.99209600  0.40472600  1
  O  O8  1  0.19393000  0.64663100  0.94664200  1
  O  O9  1  0.80607000  0.14663100  0.55335800  1
  O  O10  1  0.80607000  0.35336900  0.05335800  1
  O  O11  1  0.19393000  0.85336900  0.44664200  1
  O  O12  1  0.68071400  0.86159700  0.92609700  1
  O  O13  1  0.31928600  0.36159700  0.57390300  1
  O  O14  1  0.31928600  0.13840300  0.07390300  1
  O  O15  1  0.68071400  0.63840300  0.42609700  1
  O  O16  1  0.10629300  0.99937000  0.90110800  1
  O  O17  1  0.89370700  0.49937000  0.59889200  1
  O  O18  1  0.89370700  0.00063000  0.09889200  1
  O  O19  1  0.10629300  0.50063000  0.40110800  1
  O  O20  1  0.68393400  0.14212700  0.93133400  1
  O  O21  1  0.31606600  0.64212700  0.56866600  1
  O  O22  1  0.31606600  0.85787300  0.06866600  1
  O  O23  1  0.68393400  0.35787300  0.43133400  1
  O  O24  1  0.28655200  0.20575400  0.77989300  1
  O  O25  1  0.71344800  0.70575400  0.72010700  1
  O  O26  1  0.71344800  0.79424600  0.22010700  1
  O  O27  1  0.28655200  0.29424600  0.27989300  1
  O  O28  1  0.23479500  0.85735000  0.75168400  1
  O  O29  1  0.76520500  0.35735000  0.74831600  1
  O  O30  1  0.76520500  0.14265000  0.24831600  1
  O  O31  1  0.23479500  0.64265000  0.25168400  1
loop_
_geom_bond_atom_site_label_1
_geom_bond_atom_site_label_2
_geom_bond_distance
_geom_bond_site_symmetry_2
Li0 O12 1.930954 1_555
Li0 O16 1.958927 1_555
Li0 O8 1.999327 1_555
Li0 O22 2.068734 1_556
Li1 O13 1.930954 1_555
Li1 O17 1.958927 1_555
Li1 O9 1.999327 1_555
Li1 O23 2.068734 1_555
Li2 O14 1.930954 1_555
Li2 O18 1.958927 1_555
Li2 O10 1.999327 1_555
Li2 O20 2.068734 1_554
Li3 O15 1.930954 1_555
Li3 O19 1.958927 1_555
Li3 O11 1.999327 1_555
Li3 O21 2.068734 1_555
Li4 O16 1.963517 1_545
Li4 O0 1.989945 1_555
Li4 O24 2.027114 1_555
Li4 O20 2.042504 1_555
Li5 O17 1.963517 1_555
Li5 O1 1.989945 1_555
Li5 O25 2.027114 1_555
Li5 O21 2.042504 1_555
Li6 O18 1.963517 1_565
Li6 O2 1.989945 1_555
Li6 O26 2.027114 1_555
Li6 O22 2.042504 1_555
Li7 O19 1.963517 1_555
Li7 O3 1.989945 1_555
Li7 O27 2.027114 1_555
Li7 O23 2.042504 1_555
Li8 O20 1.946907 1_555
Li8 O4 1.949110 1_555
Li8 O0 1.967934 1_655
Li8 O10 1.986091 1_556
Li9 O21 1.946907 1_555
Li9 O5 1.949110 1_565
Li9 O1 1.967934 1_455
Li9 O11 1.986091 1_555
Li10 O22 1.946907 1_555
Li10 O6 1.949110 1_555
Li10 O2 1.967934 1_455
Li10 O8 1.986091 1_554
Li11 O23 1.946907 1_555
Li11 O7 1.949110 1_545
Li11 O3 1.967934 1_655
Li11 O9 1.986091 1_555
Li12 O12 1.903275 1_555
Li12 O4 1.968636 1_555
Li12 O8 1.987478 1_655
Li12 O2 2.122121 1_556
Li13 O13 1.903275 1_555
Li13 O5 1.968636 1_555
Li13 O9 1.987478 1_455
Li13 O3 2.122121 1_555
Li14 O14 1.903275 1_555
Li14 O6 1.968636 1_555
Li14 O10 1.987478 1_455
Li14 O0 2.122121 1_554
Li15 O15 1.903275 1_555
Li15 O7 1.968636 1_555
Li15 O11 1.987478 1_655
Li15 O1 2.122121 1_555
H0 P4 1.415231 1_555
H1 P5 1.415231 1_555
H2 P6 1.415231 1_555
H3 P7 1.415231 1_555
H4 O24 0.986290 1_555
H5 O25 0.986290 1_555
H6 O26 0.986290 1_555
H7 O27 0.986290 1_555
H8 O24 0.983826 1_555
H9 O25 0.983826 1_555
H10 O26 0.983826 1_555
H11 O27 0.983826 1_555
H12 O28 0.987532 1_555
H13 O29 0.987532 1_555
H14 O30 0.987532 1_555
H15 O31 0.987532 1_555
H16 O28 0.978753 1_555
H17 O29 0.978753 1_555
H18 O30 0.978753 1_555
H19 O31 0.978753 1_555
H20 P0 1.412062 1_555
H21 P1 1.412062 1_555
H22 P2 1.412062 1_555
H23 P3 1.412062 1_555
O0 P0 1.549396 1_555
O1 P1 1.549396 1_565
O2 P2 1.549396 1_555
O3 P3 1.549396 1_545
O4 P0 1.535175 1_555
O5 P1 1.535175 1_555
O6 P2 1.535175 1_555
O7 P3 1.535175 1_555
O8 P0 1.545139 1_555
O9 P1 1.545139 1_555
O10 P2 1.545139 1_555
O11 P3 1.545139 1_555
O12 P4 1.527500 1_565
O13 P5 1.527500 1_555
O14 P6 1.527500 1_545
O15 P7 1.527500 1_555
O16 P4 1.539035 1_465
O17 P5 1.539035 1_655
O18 P6 1.539035 1_645
O19 P7 1.539035 1_455
O20 P4 1.553356 1_555
O21 P5 1.553356 1_555
O22 P6 1.553356 1_555
O23 P7 1.553356 1_555
