# generated using pymatgen
data_Sr2(AlAg)5
_symmetry_space_group_name_H-M   'P 1'
_cell_length_a   4.44866473
_cell_length_b   5.54311627
_cell_length_c   9.90645019
_cell_angle_alpha   90.00000000
_cell_angle_beta   90.00000000
_cell_angle_gamma   90.00000000
_symmetry_Int_Tables_number   1
_chemical_formula_structural   Sr2(AlAg)5
_chemical_formula_sum   'Sr2 Al5 Ag5'
_cell_volume   244.28777010
_cell_formula_units_Z   1
loop_
 _symmetry_equiv_pos_site_id
 _symmetry_equiv_pos_as_xyz
  1  'x, y, z'
loop_
 _atom_site_type_symbol
 _atom_site_label
 _atom_site_symmetry_multiplicity
 _atom_site_fract_x
 _atom_site_fract_y
 _atom_site_fract_z
 _atom_site_occupancy
  Sr  Sr0  1  -0.00000000  0.50000000  0.00000000  1
  Sr  Sr1  1  -0.00000000  -0.00000000  0.50000000  1
  Al  Al0  1  0.50000000  -0.00000000  0.00000000  1
  Al  Al1  1  0.50000000  0.75262128  0.25163569  1
  Al  Al2  1  0.50000000  0.24737872  0.74836431  1
  Al  Al3  1  0.50000000  0.24737872  0.25163569  1
  Al  Al4  1  0.50000000  0.75262128  0.74836431  1
  Ag  Ag0  1  -0.00000000  0.50000000  0.31920753  1
  Ag  Ag1  1  0.00000000  -0.00000000  0.83169130  1
  Ag  Ag2  1  -0.00000000  -0.00000000  0.16830870  1
  Ag  Ag3  1  0.00000000  0.50000000  0.68079247  1
  Ag  Ag4  1  0.50000000  0.50000000  0.50000000  1
loop_
_geom_bond_atom_site_label_1
_geom_bond_atom_site_label_2
_geom_bond_distance
_geom_bond_site_symmetry_2
Al0 Al4 2.845076 1_544
Al0 Al2 2.845076 1_554
Al0 Al1 2.845076 1_545
Al0 Al3 2.845076 1_555
Al0 Sr0 3.553757 1_545
Al0 Sr0 3.553757 1_555
Al0 Sr0 3.553757 1_645
Al0 Sr0 3.553757 1_655
Al1 Al3 2.742498 1_565
Al1 Al3 2.800618 1_555
Al1 Sr1 3.589093 1_565
Al1 Sr1 3.589093 1_665
Al1 Sr0 3.622520 1_655
Al1 Sr0 3.622520 1_555
Al2 Al4 2.742498 1_545
Al2 Al4 2.800618 1_555
Al2 Sr1 3.589093 1_555
Al2 Sr1 3.589093 1_655
Al2 Sr0 3.622520 1_556
Al2 Sr0 3.622520 1_656
Al3 Sr1 3.589093 1_655
Al3 Sr1 3.589093 1_555
Al3 Sr0 3.622520 1_655
Al3 Sr0 3.622520 1_555
Al4 Sr1 3.589093 1_565
Al4 Sr1 3.589093 1_665
Al4 Sr0 3.622520 1_556
Al4 Sr0 3.622520 1_656
Ag0 Al1 2.712308 1_555
Ag0 Al1 2.712308 1_455
Ag0 Al3 2.712308 1_555
Ag0 Al3 2.712308 1_455
Ag0 Ag4 2.855762 1_455
Ag0 Ag4 2.855762 1_555
Ag0 Sr0 3.162213 1_555
Ag0 Sr1 3.299887 1_565
Ag0 Sr1 3.299887 1_555
Ag1 Al2 2.740326 1_455
Ag1 Al2 2.740326 1_555
Ag1 Al4 2.740326 1_445
Ag1 Al4 2.740326 1_545
Ag1 Al0 2.779871 1_456
Ag1 Al0 2.779871 1_556
Ag1 Sr0 3.234434 1_556
Ag1 Sr0 3.234434 1_546
Ag1 Sr1 3.285883 1_555
Ag2 Al3 2.740326 1_455
Ag2 Al3 2.740326 1_555
Ag2 Al1 2.740326 1_445
Ag2 Al1 2.740326 1_545
Ag2 Al0 2.779871 1_455
Ag2 Al0 2.779871 1_555
Ag2 Sr0 3.234434 1_555
Ag2 Sr0 3.234434 1_545
Ag2 Sr1 3.285883 1_555
Ag3 Al4 2.712308 1_555
Ag3 Al2 2.712308 1_455
Ag3 Al2 2.712308 1_555
Ag3 Al4 2.712308 1_455
Ag3 Ag4 2.855762 1_455
Ag3 Ag4 2.855762 1_555
Ag3 Sr0 3.162213 1_556
Ag3 Sr1 3.299887 1_565
Ag3 Sr1 3.299887 1_555
Ag4 Al1 2.830985 1_555
Ag4 Al3 2.830985 1_555
Ag4 Al4 2.830985 1_555
Ag4 Al2 2.830985 1_555
Ag4 Sr1 3.553757 1_665
Ag4 Sr1 3.553757 1_555
Ag4 Sr1 3.553757 1_655
Ag4 Sr1 3.553757 1_565
