# generated using pymatgen
data_CaAl4Si2O11
_symmetry_space_group_name_H-M   'P 1'
_cell_length_a   5.47762430
_cell_length_b   5.47762430
_cell_length_c   12.83776064
_cell_angle_alpha   89.81738350
_cell_angle_beta   89.81738350
_cell_angle_gamma   119.97541108
_symmetry_Int_Tables_number   1
_chemical_formula_structural   CaAl4Si2O11
_chemical_formula_sum   'Ca2 Al8 Si4 O22'
_cell_volume   333.65921654
_cell_formula_units_Z   2
loop_
 _symmetry_equiv_pos_site_id
 _symmetry_equiv_pos_as_xyz
  1  'x, y, z'
loop_
 _atom_site_type_symbol
 _atom_site_label
 _atom_site_symmetry_multiplicity
 _atom_site_fract_x
 _atom_site_fract_y
 _atom_site_fract_z
 _atom_site_occupancy
  Ca  Ca0  1  0.66624600  0.33280000  0.75294100  1
  Ca  Ca1  1  0.33280000  0.66624600  0.25294100  1
  Al  Al0  1  0.00339800  0.00783000  0.64646700  1
  Al  Al1  1  0.99619200  0.99140100  0.35181100  1
  Al  Al2  1  0.00783000  0.00339800  0.14646700  1
  Al  Al3  1  0.99140100  0.99619200  0.85181100  1
  Al  Al4  1  0.33241600  0.66493700  0.72941100  1
  Al  Al5  1  0.66493700  0.33241600  0.22941100  1
  Al  Al6  1  0.50147400  0.00295600  0.49853600  1
  Al  Al7  1  0.00295600  0.50147400  0.99853600  1
  Si  Si0  1  0.99491600  0.49783800  0.49846500  1
  Si  Si1  1  0.50287400  0.49785700  0.49842200  1
  Si  Si2  1  0.49783800  0.99491600  0.99846500  1
  Si  Si3  1  0.49785700  0.50287400  0.99842200  1
  O  O0  1  0.18978100  0.83675600  0.07781900  1
  O  O1  1  0.18929300  0.35183200  0.07787600  1
  O  O2  1  0.64847800  0.82427200  0.07661800  1
  O  O3  1  0.81043100  0.16429900  0.92211000  1
  O  O4  1  0.81101900  0.64766000  0.92195300  1
  O  O5  1  0.35367900  0.17693500  0.92352200  1
  O  O6  1  0.83675600  0.18978100  0.57781900  1
  O  O7  1  0.82427200  0.64847800  0.57661800  1
  O  O8  1  0.35183200  0.18929300  0.57787600  1
  O  O9  1  0.16429900  0.81043100  0.42211000  1
  O  O10  1  0.17693500  0.35367900  0.42352200  1
  O  O11  1  0.64766000  0.81101900  0.42195300  1
  O  O12  1  0.15148200  0.84828200  0.74856500  1
  O  O13  1  0.15042000  0.30320900  0.75252400  1
  O  O14  1  0.69609000  0.84914900  0.74526400  1
  O  O15  1  0.84828200  0.15148200  0.24856500  1
  O  O16  1  0.84914900  0.69609000  0.24526400  1
  O  O17  1  0.30320900  0.15042000  0.25252400  1
  O  O18  1  0.32762900  0.65620400  0.57795000  1
  O  O19  1  0.67391600  0.34680700  0.42474100  1
  O  O20  1  0.65620400  0.32762900  0.07795000  1
  O  O21  1  0.34680700  0.67391600  0.92474100  1
loop_
_geom_bond_atom_site_label_1
_geom_bond_atom_site_label_2
_geom_bond_distance
_geom_bond_site_symmetry_2
Ca0 O3 2.630353 1_555
Ca0 O5 2.638061 1_555
Ca0 O4 2.641837 1_555
Ca0 O6 2.696171 1_555
Ca0 O8 2.705210 1_555
Ca0 O7 2.707404 1_555
Ca0 O14 2.736665 1_545
Ca0 O13 2.736701 1_655
Ca0 O12 2.742552 1_545
Ca0 O12 2.745765 1_655
Ca0 O13 2.748130 1_555
Ca0 O14 2.751761 1_555
Ca1 O9 2.630353 1_555
Ca1 O10 2.638061 1_555
Ca1 O11 2.641837 1_555
Ca1 O0 2.696171 1_555
Ca1 O1 2.705210 1_555
Ca1 O2 2.707404 1_555
Ca1 O16 2.736665 1_455
Ca1 O17 2.736701 1_565
Ca1 O15 2.742552 1_455
Ca1 O15 2.745765 1_565
Ca1 O17 2.748130 1_555
Ca1 O16 2.751761 1_555
Al0 O8 1.869253 1_555
Al0 O6 1.873982 1_455
Al0 O14 1.927445 1_445
Al0 O7 1.930886 1_445
Al0 O13 1.959381 1_555
Al0 O12 1.961516 1_545
Al1 O11 1.878912 1_555
Al1 O9 1.885938 1_655
Al1 O17 1.930562 1_665
Al1 O10 1.954454 1_665
Al1 O16 1.963551 1_555
Al1 O15 1.972678 1_565
Al2 O1 1.869253 1_555
Al2 O0 1.873982 1_545
Al2 O16 1.927445 1_445
Al2 O2 1.930886 1_445
Al2 O17 1.959381 1_555
Al2 O15 1.961516 1_455
Al3 O4 1.878912 1_555
Al3 O3 1.885938 1_565
Al3 O13 1.930562 1_665
Al3 O5 1.954454 1_665
Al3 O14 1.963551 1_555
Al3 O12 1.972678 1_655
Al4 O14 1.738744 1_555
Al4 O13 1.740231 1_555
Al4 O12 1.745266 1_555
Al4 O18 1.945099 1_555
Al5 O16 1.738744 1_555
Al5 O17 1.740231 1_555
Al5 O15 1.745266 1_555
Al5 O20 1.945099 1_555
Al6 O19 1.882124 1_555
Al6 O11 1.885729 1_545
Al6 O9 1.886200 1_545
Al6 O8 1.894317 1_555
Al6 O6 1.896478 1_555
Al6 O18 1.930782 1_545
Al7 O21 1.882124 1_555
Al7 O4 1.885729 1_455
Al7 O3 1.886200 1_455
Al7 O1 1.894317 1_556
Al7 O0 1.896478 1_556
Al7 O20 1.930782 1_456
O0 Si2 1.777178 1_554
O1 Si3 1.779883 1_554
O2 Si2 1.825164 1_554
O2 Si3 1.831099 1_554
O3 Si2 1.774701 1_545
O4 Si3 1.777670 1_555
O5 Si2 1.824473 1_545
O5 Si3 1.828296 1_555
O6 Si0 1.777178 1_555
O7 Si0 1.825164 1_555
O7 Si1 1.831099 1_555
O8 Si1 1.779883 1_555
O9 Si0 1.774701 1_455
O10 Si0 1.824473 1_455
O10 Si1 1.828296 1_555
O11 Si1 1.777670 1_555
O18 Si1 1.883488 1_555
O18 Si0 1.884911 1_455
O19 Si1 1.797512 1_555
O19 Si0 1.798305 1_555
O20 Si3 1.883488 1_554
O20 Si2 1.884911 1_544
O21 Si3 1.797512 1_555
O21 Si2 1.798305 1_555
