# generated using pymatgen
data_Na2Ca4ZrNbSi4O17F
_symmetry_space_group_name_H-M   'P 1'
_cell_length_a   10.46150300
_cell_length_b   7.43161700
_cell_length_c   11.07844020
_cell_angle_alpha   69.87298117
_cell_angle_beta   90.00000000
_cell_angle_gamma   90.00000000
_symmetry_Int_Tables_number   1
_chemical_formula_structural   Na2Ca4ZrNbSi4O17F
_chemical_formula_sum   'Na4 Ca8 Zr2 Nb2 Si8 O34 F2'
_cell_volume   808.70513924
_cell_formula_units_Z   2
loop_
 _symmetry_equiv_pos_site_id
 _symmetry_equiv_pos_as_xyz
  1  'x, y, z'
loop_
 _atom_site_type_symbol
 _atom_site_label
 _atom_site_symmetry_multiplicity
 _atom_site_fract_x
 _atom_site_fract_y
 _atom_site_fract_z
 _atom_site_occupancy
  Na  Na0  1  0.42177900  0.95749900  0.36183500  1
  Na  Na1  1  0.92177900  0.04250100  0.63816500  1
  Na  Na2  1  0.56863800  0.30057300  0.12596400  1
  Na  Na3  1  0.06863800  0.69942700  0.87403600  1
  Ca  Ca0  1  0.22138300  0.29952800  0.15854700  1
  Ca  Ca1  1  0.72138300  0.70047200  0.84145300  1
  Ca  Ca2  1  0.19048700  0.80235400  0.14989900  1
  Ca  Ca3  1  0.69048700  0.19764600  0.85010100  1
  Ca  Ca4  1  0.42696800  0.43327300  0.36731200  1
  Ca  Ca5  1  0.92696800  0.56672700  0.63268800  1
  Ca  Ca6  1  0.80577500  0.95567700  0.34936500  1
  Ca  Ca7  1  0.30577500  0.04432300  0.65063500  1
  Zr  Zr0  1  0.80917300  0.45864800  0.34960400  1
  Zr  Zr1  1  0.30917300  0.54135200  0.65039600  1
  Nb  Nb0  1  0.55763800  0.79452900  0.11681300  1
  Nb  Nb1  1  0.05763800  0.20547100  0.88318700  1
  Si  Si0  1  0.12484800  0.37201600  0.43057700  1
  Si  Si1  1  0.62484800  0.62798400  0.56942300  1
  Si  Si2  1  0.87841500  0.80438800  0.07662700  1
  Si  Si3  1  0.37841500  0.19561200  0.92337300  1
  Si  Si4  1  0.12503000  0.93547200  0.43427100  1
  Si  Si5  1  0.62503000  0.06452800  0.56572900  1
  Si  Si6  1  0.87401300  0.38253100  0.07053400  1
  Si  Si7  1  0.37401300  0.61746900  0.92946600  1
  O  O0  1  0.00286500  0.93768300  0.01590200  1
  O  O1  1  0.50286500  0.06231700  0.98409800  1
  O  O2  1  0.00789600  0.31218500  0.01792800  1
  O  O3  1  0.50789600  0.68781500  0.98207200  1
  O  O4  1  0.98073200  0.85986300  0.47054200  1
  O  O5  1  0.48073200  0.14013700  0.52945800  1
  O  O6  1  0.97682800  0.40827800  0.46615100  1
  O  O7  1  0.47682800  0.59172200  0.53384900  1
  O  O8  1  0.90099100  0.61429100  0.03474200  1
  O  O9  1  0.40099100  0.38570900  0.96525800  1
  O  O10  1  0.73991600  0.89188400  0.01471600  1
  O  O11  1  0.23991600  0.10811600  0.98528400  1
  O  O12  1  0.16875200  0.97581900  0.28736200  1
  O  O13  1  0.66875200  0.02418100  0.71263800  1
  O  O14  1  0.14276000  0.13605400  0.47155400  1
  O  O15  1  0.64276000  0.86394600  0.52844600  1
  O  O16  1  0.40083000  0.26793800  0.24986500  1
  O  O17  1  0.90083000  0.73206200  0.75013500  1
  O  O18  1  0.88006500  0.73838000  0.23367000  1
  O  O19  1  0.38006500  0.26162000  0.76633000  1
  O  O20  1  0.73486900  0.58917200  0.47328400  1
  O  O21  1  0.23486900  0.41082800  0.52671600  1
  O  O22  1  0.74794300  0.35581100  0.99585100  1
  O  O23  1  0.24794300  0.64418900  0.00414900  1
  O  O24  1  0.64126200  0.56747300  0.23004700  1
  O  O25  1  0.14126200  0.43252700  0.76995300  1
  O  O26  1  0.16346800  0.48723600  0.28370200  1
  O  O27  1  0.66346800  0.51276400  0.71629800  1
  O  O28  1  0.86332200  0.29156500  0.22894700  1
  O  O29  1  0.36332200  0.70843500  0.77105300  1
  O  O30  1  0.73105700  0.19895000  0.46024000  1
  O  O31  1  0.23105700  0.80105000  0.53976000  1
  O  O32  1  0.41008600  0.76298200  0.21216000  1
  O  O33  1  0.91008600  0.23701800  0.78784000  1
  F  F0  1  0.62621100  0.96212500  0.22729500  1
  F  F1  1  0.12621100  0.03787500  0.77270500  1
loop_
_geom_bond_atom_site_label_1
_geom_bond_atom_site_label_2
_geom_bond_distance
_geom_bond_site_symmetry_2
Na0 O16 2.222564 1_565
Na0 O32 2.550254 1_555
Na0 O5 2.721340 1_565
Na0 O12 2.762022 1_555
Na0 O31 2.764223 1_555
Na0 O7 2.790587 1_555
Na0 O15 2.889903 1_555
Na1 O17 2.222564 1_545
Na1 O33 2.550254 1_555
Na1 O4 2.721340 1_545
Na1 O13 2.762022 1_555
Na1 O30 2.764223 1_555
Na1 O6 2.790587 1_555
Na1 O14 2.889903 1_655
Na2 O16 2.189907 1_555
Na2 O22 2.314668 1_554
Na2 O9 2.422966 1_554
Na2 O24 2.723067 1_555
Na2 O1 2.827335 1_554
Na2 O3 2.840723 1_554
Na3 O17 2.189907 1_455
Na3 O23 2.314668 1_556
Na3 O8 2.422966 1_456
Na3 O25 2.723067 1_555
Na3 O0 2.827335 1_556
Na3 O2 2.840723 1_556
Ca0 O16 2.106970 1_555
Ca0 O26 2.359361 1_555
Ca0 O12 2.400902 1_545
Ca0 O23 2.559005 1_555
Ca0 O2 2.706089 1_555
Ca0 O9 2.753583 1_554
Ca0 O11 2.761275 1_554
Ca1 O17 2.106970 1_555
Ca1 O27 2.359361 1_555
Ca1 O13 2.400902 1_565
Ca1 O22 2.559005 1_555
Ca1 O3 2.706089 1_555
Ca1 O8 2.753583 1_556
Ca1 O10 2.761275 1_556
Ca2 O26 2.317839 1_555
Ca2 O12 2.320294 1_555
Ca2 O23 2.378293 1_555
Ca2 O32 2.387516 1_555
Ca2 O11 2.429955 1_564
Ca2 O0 2.457700 1_555
Ca3 O27 2.317839 1_555
Ca3 O13 2.320294 1_555
Ca3 O22 2.378293 1_555
Ca3 O33 2.387516 1_555
Ca3 O10 2.429955 1_546
Ca3 O1 2.457700 1_555
Ca4 O16 2.092287 1_555
Ca4 O5 2.365538 1_555
Ca4 O32 2.467990 1_555
Ca4 O7 2.560802 1_555
Ca4 O21 2.642412 1_555
Ca4 O24 2.699856 1_555
Ca4 O26 2.891718 1_555
Ca5 O17 2.092287 1_555
Ca5 O4 2.365538 1_555
Ca5 O33 2.467990 1_555
Ca5 O6 2.560802 1_555
Ca5 O20 2.642412 1_555
Ca5 O25 2.699856 1_655
Ca5 O27 2.891718 1_555
Ca6 O4 2.236379 1_555
Ca6 F0 2.305501 1_555
Ca6 O28 2.466037 1_565
Ca6 O18 2.505808 1_555
Ca6 O15 2.525528 1_555
Ca6 O30 2.629945 1_565
Ca6 O20 2.698191 1_555
Ca7 O5 2.236379 1_555
Ca7 F1 2.305501 1_555
Ca7 O29 2.466037 1_545
Ca7 O19 2.505808 1_555
Ca7 O14 2.525528 1_555
Ca7 O31 2.629945 1_545
Ca7 O21 2.698191 1_555
Nb0 O32 1.839306 1_555
Nb0 O24 1.931197 1_555
Nb0 O3 1.985611 1_554
Nb0 O1 2.106384 1_564
Nb0 O10 2.208140 1_555
Nb1 O33 1.839306 1_455
Nb1 O25 1.931197 1_555
Nb1 O2 1.985611 1_556
Nb1 O0 2.106384 1_546
Nb1 O11 2.208140 1_555
O0 Si2 1.634094 1_455
O1 Si3 1.634094 1_555
O2 Si6 1.668640 1_455
O3 Si7 1.668640 1_555
O4 Si4 1.612644 1_655
O5 Si5 1.612644 1_555
O6 Si0 1.642839 1_655
O6 Zr0 2.133269 1_555
O7 Si1 1.642839 1_555
O7 Zr1 2.133269 1_555
O8 Si2 1.648647 1_555
O8 Si6 1.653291 1_555
O9 Si3 1.648647 1_555
O9 Si7 1.653291 1_555
O10 Si2 1.638793 1_555
O11 Si3 1.638793 1_555
O12 Si4 1.616200 1_555
O13 Si5 1.616200 1_555
O14 Si0 1.663846 1_555
O14 Si4 1.688420 1_545
O15 Si1 1.663846 1_555
O15 Si5 1.688420 1_565
O18 Si2 1.637211 1_555
O18 Zr0 2.164201 1_555
O19 Si3 1.637211 1_555
O19 Zr1 2.164201 1_555
O20 Si1 1.659444 1_555
O20 Zr0 2.082602 1_555
O21 Si0 1.659444 1_555
O21 Zr1 2.082602 1_555
O22 Si6 1.605145 1_556
O23 Si7 1.605145 1_554
O24 Zr0 2.181017 1_555
O25 Zr1 2.181017 1_555
O26 Si0 1.607849 1_555
O27 Si1 1.607849 1_555
O28 Si6 1.653163 1_555
O28 Zr0 2.188998 1_555
O29 Si7 1.653163 1_555
O29 Zr1 2.188998 1_555
O30 Si5 1.670503 1_555
O30 Zr0 2.065661 1_555
O31 Si4 1.670503 1_555
O31 Zr1 2.065661 1_555
F0 Nb0 2.147828 1_555
F0 Na2 2.450734 1_565
F0 Na0 2.600265 1_555
F1 Nb1 2.147828 1_555
F1 Na3 2.450734 1_545
F1 Na1 2.600265 1_455
