# generated using pymatgen
data_Li9Mn2Co5O16
_symmetry_space_group_name_H-M   'P 1'
_cell_length_a   2.96917200
_cell_length_b   9.94439700
_cell_length_c   10.05650077
_cell_angle_alpha   78.70857866
_cell_angle_beta   90.00000000
_cell_angle_gamma   90.00000000
_symmetry_Int_Tables_number   1
_chemical_formula_structural   Li9Mn2Co5O16
_chemical_formula_sum   'Li9 Mn2 Co5 O16'
_cell_volume   291.18705945
_cell_formula_units_Z   1
loop_
 _symmetry_equiv_pos_site_id
 _symmetry_equiv_pos_as_xyz
  1  'x, y, z'
loop_
 _atom_site_type_symbol
 _atom_site_label
 _atom_site_symmetry_multiplicity
 _atom_site_fract_x
 _atom_site_fract_y
 _atom_site_fract_z
 _atom_site_occupancy
  Li  Li0  1  0.50000000  0.27167500  0.86146600  1
  Li  Li1  1  0.50000000  0.73273800  0.63886000  1
  Li  Li2  1  0.50000000  0.26412900  0.37788200  1
  Li  Li3  1  0.00000000  0.26026500  0.61036400  1
  Li  Li4  1  0.00000000  0.73918600  0.38453900  1
  Li  Li5  1  0.00000000  0.26718900  0.12300500  1
  Li  Li6  1  0.50000000  0.73241200  0.12564500  1
  Li  Li7  1  0.00000000  0.73624200  0.87321600  1
  Li  Li8  1  0.00000000  0.50521700  0.75055000  1
  Mn  Mn0  1  0.00000000  0.00077600  0.99740700  1
  Mn  Mn1  1  0.50000000  0.99668600  0.25451300  1
  Co  Co0  1  0.00000000  0.99768400  0.51444700  1
  Co  Co1  1  0.00000000  0.49721400  0.24690700  1
  Co  Co2  1  0.50000000  0.50279500  0.50809500  1
  Co  Co3  1  0.50000000  0.49656700  0.98606800  1
  Co  Co4  1  0.50000000  0.00424800  0.74341300  1
  O  O0  1  0.50000000  0.10271100  0.06475000  1
  O  O1  1  0.50000000  0.62234500  0.82914700  1
  O  O2  1  0.50000000  0.12263300  0.55097600  1
  O  O3  1  0.00000000  0.11317900  0.82436900  1
  O  O4  1  0.00000000  0.61611200  0.55964200  1
  O  O5  1  0.00000000  0.10452600  0.30325600  1
  O  O6  1  0.50000000  0.61100500  0.32685800  1
  O  O7  1  0.00000000  0.61703300  0.07752500  1
  O  O8  1  0.50000000  0.38545000  0.66262200  1
  O  O9  1  0.50000000  0.88874700  0.42827900  1
  O  O10  1  0.50000000  0.38137700  0.18493400  1
  O  O11  1  0.00000000  0.38802600  0.42765800  1
  O  O12  1  0.00000000  0.89173000  0.18936200  1
  O  O13  1  0.00000000  0.37821600  0.93918000  1
  O  O14  1  0.50000000  0.89090100  0.95133800  1
  O  O15  1  0.00000000  0.88098600  0.68372700  1
loop_
_geom_bond_atom_site_label_1
_geom_bond_atom_site_label_2
_geom_bond_distance
_geom_bond_site_symmetry_2
Li0 O13 2.064352 1_655
Li0 O13 2.064352 1_555
Li0 O8 2.095909 1_555
Li0 O3 2.248928 1_655
Li0 O3 2.248928 1_555
Li0 O0 2.378521 1_556
Li1 O1 2.011079 1_555
Li1 O4 2.132029 1_655
Li1 O4 2.132029 1_555
Li1 O15 2.200327 1_555
Li1 O15 2.200327 1_655
Li1 O9 2.367488 1_555
Li2 O2 2.012673 1_555
Li2 O11 2.052829 1_555
Li2 O11 2.052829 1_655
Li2 O10 2.058783 1_555
Li2 O5 2.398482 1_555
Li2 O5 2.398482 1_655
Li3 O11 2.018914 1_555
Li3 O8 2.070296 1_455
Li3 O8 2.070296 1_555
Li3 O2 2.180375 1_555
Li3 O2 2.180375 1_455
Li3 O3 2.353389 1_555
Li4 O4 1.937732 1_555
Li4 O6 2.110650 1_555
Li4 O6 2.110650 1_455
Li4 O9 2.205837 1_455
Li4 O9 2.205837 1_555
Li4 O12 2.233329 1_555
Li5 O13 1.958878 1_554
Li5 O10 2.039174 1_455
Li5 O10 2.039174 1_555
Li5 O5 2.180413 1_555
Li5 O0 2.365955 1_455
Li5 O0 2.365955 1_555
Li6 O7 1.993006 1_655
Li6 O7 1.993006 1_555
Li6 O14 2.115387 1_554
Li6 O6 2.143709 1_555
Li6 O12 2.349937 1_655
Li6 O12 2.349937 1_555
Li7 O1 1.969730 1_555
Li7 O1 1.969730 1_455
Li7 O15 2.151518 1_555
Li7 O7 2.161718 1_556
Li7 O14 2.379033 1_455
Li7 O14 2.379033 1_555
Li8 O4 2.018150 1_555
Li8 O13 2.062841 1_555
Li8 O1 2.132124 1_455
Li8 O1 2.132124 1_555
Li8 O8 2.194723 1_455
Li8 O8 2.194723 1_555
Mn0 O3 1.875067 1_555
Mn0 O14 1.952110 1_445
Mn0 O14 1.952110 1_545
Mn0 O0 1.989730 1_456
Mn0 O0 1.989730 1_556
Mn0 O12 2.020546 1_546
Mn1 O9 1.863145 1_555
Mn1 O5 1.949405 1_565
Mn1 O5 1.949405 1_665
Mn1 O0 1.991367 1_565
Mn1 O12 1.997604 1_655
Mn1 O12 1.997604 1_555
Co0 O15 1.863102 1_555
Co0 O2 2.015342 1_565
Co0 O2 2.015342 1_465
Co0 O9 2.120396 1_555
Co0 O9 2.120396 1_455
Co0 O5 2.180805 1_565
Co1 O7 1.877891 1_555
Co1 O11 1.926187 1_555
Co1 O10 2.049510 1_455
Co1 O10 2.049510 1_555
Co1 O6 2.118306 1_555
Co1 O6 2.118306 1_455
Co2 O8 1.751145 1_555
Co2 O6 1.926610 1_555
Co2 O4 1.992813 1_555
Co2 O4 1.992813 1_655
Co2 O11 2.126607 1_555
Co2 O11 2.126607 1_655
Co3 O1 1.811585 1_555
Co3 O13 2.007192 1_555
Co3 O13 2.007192 1_655
Co3 O10 2.101105 1_556
Co3 O7 2.217316 1_556
Co3 O7 2.217316 1_656
Co4 O2 2.058870 1_555
Co4 O15 2.086838 1_645
Co4 O15 2.086838 1_545
Co4 O3 2.094183 1_655
Co4 O3 2.094183 1_555
Co4 O14 2.172514 1_545
