# generated using pymatgen
data_FeP2W
_symmetry_space_group_name_H-M   'P 1'
_cell_length_a   3.25953000
_cell_length_b   5.41055800
_cell_length_c   5.99141600
_cell_angle_alpha   90.00000000
_cell_angle_beta   90.00000000
_cell_angle_gamma   90.00000000
_symmetry_Int_Tables_number   1
_chemical_formula_structural   FeP2W
_chemical_formula_sum   'Fe2 P4 W2'
_cell_volume   105.66387035
_cell_formula_units_Z   2
loop_
 _symmetry_equiv_pos_site_id
 _symmetry_equiv_pos_as_xyz
  1  'x, y, z'
loop_
 _atom_site_type_symbol
 _atom_site_label
 _atom_site_symmetry_multiplicity
 _atom_site_fract_x
 _atom_site_fract_y
 _atom_site_fract_z
 _atom_site_occupancy
  Fe  Fe0  1  0.50000000  0.49625600  0.05677600  1
  Fe  Fe1  1  0.50000000  0.99625600  0.94322400  1
  P  P0  1  0.50000000  0.31951600  0.70787200  1
  P  P1  1  0.50000000  0.81951600  0.29212800  1
  P  P2  1  0.00000000  0.68633900  0.84758100  1
  P  P3  1  0.00000000  0.18633900  0.15241900  1
  W  W0  1  0.00000000  0.49789000  0.45105300  1
  W  W1  1  0.00000000  0.99789000  0.54894700  1
loop_
_geom_bond_atom_site_label_1
_geom_bond_atom_site_label_2
_geom_bond_distance
_geom_bond_site_symmetry_2
Fe0 P1 2.246646 1_555
Fe0 P0 2.298767 1_554
Fe0 P2 2.298869 1_554
Fe0 P2 2.298869 1_654
Fe0 P3 2.407539 1_555
Fe0 P3 2.407539 1_655
Fe0 W0 2.869942 1_555
Fe0 W0 2.869942 1_655
Fe1 P0 2.246646 1_565
Fe1 P1 2.298767 1_556
Fe1 P3 2.298869 1_566
Fe1 P3 2.298869 1_666
Fe1 P2 2.407539 1_655
Fe1 P2 2.407539 1_555
Fe1 W1 2.869942 1_655
Fe1 W1 2.869942 1_555
P0 W0 2.440325 1_655
P0 W0 2.440325 1_555
P0 W1 2.567295 1_545
P0 W1 2.567295 1_645
P1 W1 2.440325 1_555
P1 W1 2.440325 1_655
P1 W0 2.567295 1_655
P1 W0 2.567295 1_555
P2 W1 2.458220 1_555
P2 W0 2.585318 1_555
P3 W0 2.458220 1_555
P3 W1 2.585318 1_545
