# generated using pymatgen
data_Li2Sm5Sn7
_symmetry_space_group_name_H-M   'P 1'
_cell_length_a   6.21171000
_cell_length_b   13.72841600
_cell_length_c   17.30719600
_cell_angle_alpha   90.00000000
_cell_angle_beta   90.00000000
_cell_angle_gamma   90.00000000
_symmetry_Int_Tables_number   1
_chemical_formula_structural   Li2Sm5Sn7
_chemical_formula_sum   'Li8 Sm20 Sn28'
_cell_volume   1475.90469671
_cell_formula_units_Z   4
loop_
 _symmetry_equiv_pos_site_id
 _symmetry_equiv_pos_as_xyz
  1  'x, y, z'
loop_
 _atom_site_type_symbol
 _atom_site_label
 _atom_site_symmetry_multiplicity
 _atom_site_fract_x
 _atom_site_fract_y
 _atom_site_fract_z
 _atom_site_occupancy
  Li  Li0  1  0.11013800  0.73106400  0.72841200  1
  Li  Li1  1  0.38986200  0.26893600  0.22841200  1
  Li  Li2  1  0.61013800  0.76893600  0.27158800  1
  Li  Li3  1  0.88986200  0.23106400  0.77158800  1
  Li  Li4  1  0.42347900  0.26923000  0.51993800  1
  Li  Li5  1  0.07652100  0.73077000  0.01993800  1
  Li  Li6  1  0.92347900  0.23077000  0.48006200  1
  Li  Li7  1  0.57652100  0.76923000  0.98006200  1
  Sm  Sm0  1  0.14445400  0.00156300  0.76401900  1
  Sm  Sm1  1  0.35554600  0.99843700  0.26401900  1
  Sm  Sm2  1  0.64445400  0.49843700  0.23598100  1
  Sm  Sm3  1  0.85554600  0.50156300  0.73598100  1
  Sm  Sm4  1  0.35541600  0.31959000  0.04070900  1
  Sm  Sm5  1  0.14458400  0.68041000  0.54070900  1
  Sm  Sm6  1  0.85541600  0.18041000  0.95929100  1
  Sm  Sm7  1  0.64458400  0.81959000  0.45929100  1
  Sm  Sm8  1  0.36196400  0.32379900  0.71727800  1
  Sm  Sm9  1  0.13803600  0.67620100  0.21727800  1
  Sm  Sm10  1  0.86196400  0.17620100  0.28272200  1
  Sm  Sm11  1  0.63803600  0.82379900  0.78272200  1
  Sm  Sm12  1  0.64064200  0.49743700  0.51729900  1
  Sm  Sm13  1  0.85935800  0.50256300  0.01729900  1
  Sm  Sm14  1  0.14064200  0.00256300  0.48270100  1
  Sm  Sm15  1  0.35935800  0.99743700  0.98270100  1
  Sm  Sm16  1  0.65160100  0.07528600  0.62328400  1
  Sm  Sm17  1  0.84839900  0.92471400  0.12328400  1
  Sm  Sm18  1  0.15160100  0.42471400  0.37671600  1
  Sm  Sm19  1  0.34839900  0.57528600  0.87671600  1
  Sn  Sn0  1  0.09269000  0.37937000  0.87895900  1
  Sn  Sn1  1  0.40731000  0.62063000  0.37895900  1
  Sn  Sn2  1  0.59269000  0.12063000  0.12104100  1
  Sn  Sn3  1  0.90731000  0.87937000  0.62104100  1
  Sn  Sn4  1  0.13856700  0.15054100  0.62285400  1
  Sn  Sn5  1  0.36143300  0.84945900  0.12285400  1
  Sn  Sn6  1  0.63856700  0.34945900  0.37714600  1
  Sn  Sn7  1  0.86143300  0.65054100  0.87714600  1
  Sn  Sn8  1  0.13859400  0.43684800  0.56498200  1
  Sn  Sn9  1  0.36140600  0.56315200  0.06498200  1
  Sn  Sn10  1  0.63859400  0.06315200  0.43501800  1
  Sn  Sn11  1  0.86140600  0.93684800  0.93501800  1
  Sn  Sn12  1  0.15188100  0.44387600  0.18836900  1
  Sn  Sn13  1  0.34811900  0.55612400  0.68836900  1
  Sn  Sn14  1  0.65188100  0.05612400  0.81163100  1
  Sn  Sn15  1  0.84811900  0.94387600  0.31163100  1
  Sn  Sn16  1  0.20129400  0.80948600  0.87156900  1
  Sn  Sn17  1  0.29870600  0.19051400  0.37156900  1
  Sn  Sn18  1  0.70129400  0.69051400  0.12843100  1
  Sn  Sn19  1  0.79870600  0.30948600  0.62843100  1
  Sn  Sn20  1  0.32278000  0.18663600  0.87799700  1
  Sn  Sn21  1  0.17722000  0.81336400  0.37799700  1
  Sn  Sn22  1  0.82278000  0.31336400  0.12200300  1
  Sn  Sn23  1  0.67722000  0.68663600  0.62200300  1
  Sn  Sn24  1  0.61013900  0.37364100  0.87909500  1
  Sn  Sn25  1  0.88986100  0.62635900  0.37909500  1
  Sn  Sn26  1  0.11013900  0.12635900  0.12090500  1
  Sn  Sn27  1  0.38986100  0.87364100  0.62090500  1
loop_
_geom_bond_atom_site_label_1
_geom_bond_atom_site_label_2
_geom_bond_distance
_geom_bond_site_symmetry_2
Li0 Sn16 2.760152 1_555
Li0 Sn13 2.904047 1_555
Li0 Sn3 3.030831 1_455
Li0 Sn7 3.199224 1_455
Li0 Sn27 3.211285 1_555
Li0 Sn23 3.315907 1_455
Li0 Sm5 3.329091 1_555
Li1 Sn17 2.760152 1_555
Li1 Sn12 2.904047 1_555
Li1 Sn2 3.030831 1_555
Li1 Sn6 3.199224 1_555
Li1 Sn26 3.211285 1_555
Li1 Sn22 3.315907 1_555
Li1 Sm4 3.329091 1_555
Li2 Sn18 2.760152 1_555
Li2 Sn15 2.904047 1_555
Li2 Sn1 3.030831 1_555
Li2 Sn5 3.199224 1_555
Li2 Sn25 3.211285 1_555
Li2 Sn21 3.315907 1_555
Li2 Sm7 3.329091 1_555
Li3 Sn19 2.760152 1_555
Li3 Sn14 2.904047 1_555
Li3 Sn0 3.030831 1_655
Li3 Sn4 3.199224 1_655
Li3 Sn24 3.211285 1_555
Li3 Sn20 3.315907 1_655
Li3 Sm6 3.329091 1_555
Li4 Sn17 2.891775 1_555
Li4 Sn4 2.993288 1_555
Li4 Sn8 3.005747 1_555
Li4 Sn6 3.017558 1_555
Li4 Sn19 3.043658 1_555
Li4 Sm12 3.411298 1_555
Li5 Sn16 2.891775 1_554
Li5 Sn5 2.993288 1_555
Li5 Sn9 3.005747 1_555
Li5 Sn7 3.017558 1_454
Li5 Sn18 3.043658 1_455
Li5 Sm13 3.411298 1_455
Li6 Sn19 2.891775 1_555
Li6 Sn6 2.993288 1_555
Li6 Sn10 3.005747 1_555
Li6 Sn4 3.017558 1_655
Li6 Sn17 3.043658 1_655
Li6 Sm14 3.411298 1_655
Li7 Sn18 2.891775 1_556
Li7 Sn7 2.993288 1_555
Li7 Sn11 3.005747 1_555
Li7 Sn5 3.017558 1_556
Li7 Sn16 3.043658 1_555
Li7 Sm15 3.411298 1_555
Sm0 Sn4 3.186439 1_555
Sm0 Sn16 3.246959 1_545
Sm0 Sn14 3.256067 1_455
Sm0 Sn3 3.332774 1_445
Sm0 Sn14 3.342921 1_555
Sm0 Sn27 3.397492 1_545
Sm0 Sn20 3.402026 1_555
Sm0 Sn11 3.555186 1_445
Sm1 Sn5 3.186439 1_555
Sm1 Sn17 3.246959 1_565
Sm1 Sn15 3.256067 1_555
Sm1 Sn2 3.332774 1_565
Sm1 Sn15 3.342921 1_455
Sm1 Sn26 3.397492 1_565
Sm1 Sn21 3.402026 1_555
Sm1 Sn10 3.555186 1_565
Sm2 Sn6 3.186439 1_555
Sm2 Sn18 3.246959 1_555
Sm2 Sn12 3.256067 1_555
Sm2 Sn1 3.332774 1_555
Sm2 Sn12 3.342921 1_655
Sm2 Sn25 3.397492 1_555
Sm2 Sn22 3.402026 1_555
Sm2 Sn9 3.555186 1_555
Sm3 Sn7 3.186439 1_555
Sm3 Sn19 3.246959 1_555
Sm3 Sn13 3.256067 1_655
Sm3 Sn0 3.332774 1_655
Sm3 Sn13 3.342921 1_555
Sm3 Sn24 3.397492 1_555
Sm3 Sn23 3.402026 1_555
Sm3 Sn8 3.555186 1_655
Sm4 Sn22 3.227233 1_555
Sm4 Sn24 3.298161 1_554
Sm4 Sn12 3.322760 1_555
Sm4 Sn0 3.342713 1_554
Sm4 Sn26 3.359299 1_555
Sm4 Sn20 3.361991 1_554
Sm4 Sn9 3.370213 1_555
Sm4 Sn2 3.400865 1_555
Sm4 Sn22 3.596328 1_455
Sm5 Sn23 3.227233 1_455
Sm5 Sn25 3.298161 1_455
Sm5 Sn13 3.322760 1_555
Sm5 Sn1 3.342713 1_555
Sm5 Sn27 3.359299 1_555
Sm5 Sn21 3.361991 1_555
Sm5 Sn8 3.370213 1_555
Sm5 Sn3 3.400865 1_455
Sm5 Sn23 3.596328 1_555
Sm6 Sn20 3.227233 1_655
Sm6 Sn26 3.298161 1_656
Sm6 Sn14 3.322760 1_555
Sm6 Sn2 3.342713 1_556
Sm6 Sn24 3.359299 1_555
Sm6 Sn22 3.361991 1_556
Sm6 Sn11 3.370213 1_545
Sm6 Sn0 3.400865 1_655
Sm6 Sn20 3.596328 1_555
Sm7 Sn21 3.227233 1_555
Sm7 Sn27 3.298161 1_555
Sm7 Sn15 3.322760 1_555
Sm7 Sn3 3.342713 1_555
Sm7 Sn25 3.359299 1_555
Sm7 Sn23 3.361991 1_555
Sm7 Sn10 3.370213 1_565
Sm7 Sn1 3.400865 1_555
Sm7 Sn21 3.596328 1_655
Sm8 Sn19 3.124582 1_555
Sm8 Sn4 3.202162 1_555
Sm8 Sn13 3.229605 1_555
Sm8 Sn24 3.269259 1_555
Sm8 Sn0 3.348127 1_555
Sm8 Sn8 3.358775 1_555
Sm8 Sn20 3.367836 1_555
Sm8 Sn19 3.826836 1_455
Sm9 Sn18 3.124582 1_455
Sm9 Sn5 3.202162 1_555
Sm9 Sn12 3.229605 1_555
Sm9 Sn25 3.269259 1_455
Sm9 Sn1 3.348127 1_555
Sm9 Sn9 3.358775 1_555
Sm9 Sn21 3.367836 1_555
Sm9 Sn18 3.826836 1_555
Sm10 Sn17 3.124582 1_655
Sm10 Sn6 3.202162 1_555
Sm10 Sn15 3.229605 1_545
Sm10 Sn26 3.269259 1_655
Sm10 Sn2 3.348127 1_555
Sm10 Sn10 3.358775 1_555
Sm10 Sn22 3.367836 1_555
Sm10 Sn17 3.826836 1_555
Sm11 Sn16 3.124582 1_555
Sm11 Sn7 3.202162 1_555
Sm11 Sn14 3.229605 1_565
Sm11 Sn27 3.269259 1_555
Sm11 Sn3 3.348127 1_555
Sm11 Sn11 3.358775 1_555
Sm11 Sn23 3.367836 1_555
Sm11 Sn16 3.826836 1_655
Sm12 Sn6 3.164013 1_555
Sm12 Sn23 3.175209 1_555
Sm12 Sn1 3.270108 1_555
Sm12 Sn8 3.307628 1_655
Sm12 Sn8 3.331433 1_555
Sm12 Sn25 3.354157 1_555
Sm12 Sn19 3.364702 1_555
Sm12 Sn13 3.566069 1_555
Sm13 Sn7 3.164013 1_554
Sm13 Sn22 3.175209 1_555
Sm13 Sn0 3.270108 1_654
Sm13 Sn9 3.307628 1_555
Sm13 Sn9 3.331433 1_655
Sm13 Sn24 3.354157 1_554
Sm13 Sn18 3.364702 1_555
Sm13 Sn12 3.566069 1_655
Sm14 Sn4 3.164013 1_555
Sm14 Sn21 3.175209 1_545
Sm14 Sn3 3.270108 1_445
Sm14 Sn10 3.307628 1_555
Sm14 Sn10 3.331433 1_455
Sm14 Sn27 3.354157 1_545
Sm14 Sn17 3.364702 1_555
Sm14 Sn15 3.566069 1_445
Sm15 Sn5 3.164013 1_556
Sm15 Sn20 3.175209 1_565
Sm15 Sn2 3.270108 1_566
Sm15 Sn11 3.307628 1_455
Sm15 Sn11 3.331433 1_555
Sm15 Sn26 3.354157 1_566
Sm15 Sn16 3.364702 1_555
Sm15 Sn14 3.566069 1_565
Sm16 Sn3 3.123864 1_545
Sm16 Sn4 3.196465 1_655
Sm16 Sn27 3.210669 1_545
Sm16 Sn10 3.263612 1_555
Sm16 Sn14 3.270356 1_555
Sm16 Sn19 3.343710 1_555
Sm16 Sn4 3.350109 1_555
Sm17 Sn2 3.123864 1_565
Sm17 Sn5 3.196465 1_555
Sm17 Sn26 3.210669 1_665
Sm17 Sn11 3.263612 1_554
Sm17 Sn15 3.270356 1_555
Sm17 Sn18 3.343710 1_555
Sm17 Sn5 3.350109 1_655
Sm18 Sn1 3.123864 1_555
Sm18 Sn6 3.196465 1_555
Sm18 Sn25 3.210669 1_455
Sm18 Sn8 3.263612 1_555
Sm18 Sn12 3.270356 1_555
Sm18 Sn17 3.343710 1_555
Sm18 Sn6 3.350109 1_455
Sm19 Sn0 3.123864 1_555
Sm19 Sn7 3.196465 1_455
Sm19 Sn24 3.210669 1_555
Sm19 Sn9 3.263612 1_556
Sm19 Sn13 3.270356 1_555
Sm19 Sn16 3.343710 1_555
Sm19 Sn7 3.350109 1_555
Sn0 Sn24 2.998499 1_455
Sn0 Sn20 3.007324 1_555
Sn0 Sn24 3.215206 1_555
Sn1 Sn25 2.998499 1_555
Sn1 Sn21 3.007324 1_555
Sn1 Sn25 3.215206 1_455
Sn2 Sn26 2.998499 1_555
Sn2 Sn22 3.007324 1_555
Sn2 Sn26 3.215206 1_655
Sn10 Sn17 2.953063 1_555
Sn10 Sn15 2.989234 1_545
Sn11 Sn16 2.953063 1_655
Sn11 Sn14 2.989234 1_565
Sn12 Sn22 2.951043 1_455
Sn12 Sn9 2.989234 1_555
Sn13 Sn23 2.951043 1_555
Sn13 Sn8 2.989234 1_555
Sn14 Sn20 2.951043 1_555
Sn15 Sn21 2.951043 1_655
Sn16 Sn7 3.037686 1_455
Sn17 Sn6 3.037686 1_555
Sn18 Sn9 2.953063 1_555
Sn18 Sn5 3.037686 1_555
Sn19 Sn8 2.953063 1_655
Sn19 Sn4 3.037686 1_655
Sn20 Sn24 3.126898 1_555
Sn21 Sn25 3.126898 1_455
Sn22 Sn26 3.126898 1_655
Sn23 Sn3 3.007324 1_555
Sn23 Sn27 3.126898 1_555
Sn27 Sn3 2.998499 1_455
Sn27 Sn3 3.215206 1_555
