# generated using pymatgen
data_BeSi(AgO2)2
_symmetry_space_group_name_H-M   'P 1'
_cell_length_a   5.04371700
_cell_length_b   10.14967500
_cell_length_c   14.40424000
_cell_angle_alpha   90.00000000
_cell_angle_beta   90.00000000
_cell_angle_gamma   90.00000000
_symmetry_Int_Tables_number   1
_chemical_formula_structural   BeSi(AgO2)2
_chemical_formula_sum   'Be8 Si8 Ag16 O32'
_cell_volume   737.38312658
_cell_formula_units_Z   8
loop_
 _symmetry_equiv_pos_site_id
 _symmetry_equiv_pos_as_xyz
  1  'x, y, z'
loop_
 _atom_site_type_symbol
 _atom_site_label
 _atom_site_symmetry_multiplicity
 _atom_site_fract_x
 _atom_site_fract_y
 _atom_site_fract_z
 _atom_site_occupancy
  Be  Be0  1  0.02519300  0.01577800  0.49530100  1
  Be  Be1  1  0.97480700  0.98422200  0.99530100  1
  Be  Be2  1  0.97480700  0.51577800  0.49530100  1
  Be  Be3  1  0.02519300  0.48422200  0.99530100  1
  Be  Be4  1  0.50173400  0.23588700  0.74870600  1
  Be  Be5  1  0.49826600  0.76411300  0.24870600  1
  Be  Be6  1  0.49826600  0.73588700  0.74870600  1
  Be  Be7  1  0.50173400  0.26411300  0.24870600  1
  Si  Si0  1  0.52584700  0.48442300  0.87454800  1
  Si  Si1  1  0.47415300  0.51557700  0.37454800  1
  Si  Si2  1  0.47415300  0.98442300  0.87454800  1
  Si  Si3  1  0.52584700  0.01557700  0.37454800  1
  Si  Si4  1  0.00268200  0.26654500  0.62017800  1
  Si  Si5  1  0.99731800  0.73345500  0.12017800  1
  Si  Si6  1  0.99731800  0.76654500  0.62017800  1
  Si  Si7  1  0.00268200  0.23345500  0.12017800  1
  Ag  Ag0  1  0.01990600  0.23616700  0.87234400  1
  Ag  Ag1  1  0.98009400  0.76383300  0.37234400  1
  Ag  Ag2  1  0.98009400  0.73616700  0.87234400  1
  Ag  Ag3  1  0.01990600  0.26383300  0.37234400  1
  Ag  Ag4  1  0.01886700  0.49633200  0.74711800  1
  Ag  Ag5  1  0.98113300  0.50366800  0.24711800  1
  Ag  Ag6  1  0.98113300  0.99633200  0.74711800  1
  Ag  Ag7  1  0.01886700  0.00366800  0.24711800  1
  Ag  Ag8  1  0.52377700  0.26410300  0.49722700  1
  Ag  Ag9  1  0.47622300  0.73589700  0.99722700  1
  Ag  Ag10  1  0.47622300  0.76410300  0.49722700  1
  Ag  Ag11  1  0.52377700  0.23589700  0.99722700  1
  Ag  Ag12  1  0.51033800  0.01315900  0.62210200  1
  Ag  Ag13  1  0.48966200  0.98684100  0.12210200  1
  Ag  Ag14  1  0.48966200  0.51315900  0.62210200  1
  Ag  Ag15  1  0.51033800  0.48684100  0.12210200  1
  O  O0  1  0.58089500  0.33339900  0.83598400  1
  O  O1  1  0.41910500  0.66660100  0.33598400  1
  O  O2  1  0.41910500  0.83339900  0.83598400  1
  O  O3  1  0.58089500  0.16660100  0.33598400  1
  O  O4  1  0.26408300  0.30015000  0.68532000  1
  O  O5  1  0.73591700  0.69985000  0.18532000  1
  O  O6  1  0.73591700  0.80015000  0.68532000  1
  O  O7  1  0.26408300  0.19985000  0.18532000  1
  O  O8  1  0.10850600  0.59393500  0.07468100  1
  O  O9  1  0.89149400  0.40606500  0.57468100  1
  O  O10  1  0.89149400  0.09393500  0.07468100  1
  O  O11  1  0.10850600  0.90606500  0.57468100  1
  O  O12  1  0.21171200  0.50507900  0.90209700  1
  O  O13  1  0.78828800  0.49492100  0.40209700  1
  O  O14  1  0.78828800  0.00507900  0.90209700  1
  O  O15  1  0.21171200  0.99492100  0.40209700  1
  O  O16  1  0.23565500  0.70068500  0.68386900  1
  O  O17  1  0.76434500  0.29931500  0.18386900  1
  O  O18  1  0.76434500  0.20068500  0.68386900  1
  O  O19  1  0.23565500  0.79931500  0.18386900  1
  O  O20  1  0.28776300  0.00648800  0.96765100  1
  O  O21  1  0.71223700  0.99351200  0.46765100  1
  O  O22  1  0.71223700  0.50648800  0.96765100  1
  O  O23  1  0.28776300  0.49351200  0.46765100  1
  O  O24  1  0.08494800  0.16648400  0.53397100  1
  O  O25  1  0.91505200  0.83351600  0.03397100  1
  O  O26  1  0.91505200  0.66648400  0.53397100  1
  O  O27  1  0.08494800  0.33351600  0.03397100  1
  O  O28  1  0.39390600  0.09370400  0.79360300  1
  O  O29  1  0.60609400  0.90629600  0.29360300  1
  O  O30  1  0.60609400  0.59370400  0.79360300  1
  O  O31  1  0.39390600  0.40629600  0.29360300  1
loop_
_geom_bond_atom_site_label_1
_geom_bond_atom_site_label_2
_geom_bond_distance
_geom_bond_site_symmetry_2
Be0 O21 1.643544 1_445
Be0 O11 1.650440 1_545
Be0 O15 1.652942 1_545
Be0 O24 1.655544 1_555
Be1 O20 1.643544 1_665
Be1 O10 1.650440 1_566
Be1 O14 1.652942 1_565
Be1 O25 1.655544 1_556
Be2 O23 1.643544 1_655
Be2 O9 1.650440 1_555
Be2 O13 1.652942 1_555
Be2 O26 1.655544 1_555
Be3 O22 1.643544 1_455
Be3 O8 1.650440 1_556
Be3 O12 1.652942 1_555
Be3 O27 1.655544 1_556
Be4 O4 1.641888 1_555
Be4 O0 1.649071 1_555
Be4 O18 1.659600 1_555
Be4 O28 1.672297 1_555
Be5 O5 1.641888 1_555
Be5 O1 1.649071 1_555
Be5 O19 1.659600 1_555
Be5 O29 1.672297 1_555
Be6 O6 1.641888 1_555
Be6 O2 1.649071 1_555
Be6 O16 1.659600 1_555
Be6 O30 1.672297 1_555
Be7 O7 1.641888 1_555
Be7 O3 1.649071 1_555
Be7 O17 1.659600 1_555
Be7 O31 1.672297 1_555
Ag0 O0 2.480143 1_455
Ag0 O27 2.550294 1_556
Ag0 O28 2.633537 1_555
Ag0 O14 2.655112 1_455
Ag1 O1 2.480143 1_655
Ag1 O26 2.550294 1_555
Ag1 O29 2.633537 1_555
Ag1 O15 2.655112 1_655
Ag2 O2 2.480143 1_655
Ag2 O25 2.550294 1_556
Ag2 O30 2.633537 1_555
Ag2 O12 2.655112 1_655
Ag3 O3 2.480143 1_455
Ag3 O24 2.550294 1_555
Ag3 O31 2.633537 1_555
Ag3 O13 2.655112 1_455
Ag4 O30 2.399878 1_455
Ag4 O12 2.436667 1_555
Ag4 O4 2.507361 1_555
Ag4 O16 2.515460 1_555
Ag4 O9 2.724241 1_455
Ag5 O31 2.399878 1_655
Ag5 O13 2.436667 1_555
Ag5 O5 2.507361 1_555
Ag5 O17 2.515460 1_555
Ag5 O8 2.724241 1_655
Ag6 O28 2.399878 1_665
Ag6 O14 2.436667 1_565
Ag6 O6 2.507361 1_555
Ag6 O18 2.515460 1_565
Ag6 O11 2.724241 1_655
Ag7 O29 2.399878 1_445
Ag7 O15 2.436667 1_545
Ag7 O7 2.507361 1_555
Ag7 O19 2.515460 1_545
Ag7 O10 2.724241 1_455
Ag8 O24 2.482064 1_555
Ag8 O3 2.541008 1_555
Ag8 O9 2.600111 1_555
Ag8 O23 2.649545 1_555
Ag9 O25 2.482064 1_556
Ag9 O2 2.541008 1_555
Ag9 O8 2.600111 1_556
Ag9 O22 2.649545 1_555
Ag10 O26 2.482064 1_555
Ag10 O1 2.541008 1_555
Ag10 O11 2.600111 1_555
Ag10 O21 2.649545 1_555
Ag11 O27 2.482064 1_556
Ag11 O0 2.541008 1_555
Ag11 O10 2.600111 1_556
Ag11 O20 2.649545 1_555
Ag12 O11 2.399104 1_545
Ag12 O21 2.454843 1_545
Ag12 O18 2.460803 1_555
Ag12 O6 2.607263 1_545
Ag12 O28 2.667539 1_555
Ag13 O10 2.399104 1_565
Ag13 O20 2.454843 1_564
Ag13 O19 2.460803 1_555
Ag13 O7 2.607263 1_565
Ag13 O29 2.667539 1_555
Ag14 O9 2.399104 1_555
Ag14 O23 2.454843 1_555
Ag14 O16 2.460803 1_555
Ag14 O4 2.607263 1_555
Ag14 O30 2.667539 1_555
Ag15 O8 2.399104 1_555
Ag15 O22 2.454843 1_554
Ag15 O17 2.460803 1_555
Ag15 O5 2.607263 1_555
Ag15 O31 2.667539 1_555
O0 Si0 1.653863 1_555
O1 Si1 1.653863 1_555
O2 Si2 1.653863 1_555
O3 Si3 1.653863 1_555
O4 Si4 1.653798 1_555
O5 Si5 1.653798 1_555
O6 Si6 1.653798 1_555
O7 Si7 1.653798 1_555
O8 Si5 1.658093 1_455
O9 Si4 1.658093 1_655
O10 Si7 1.658093 1_655
O11 Si6 1.658093 1_455
O12 Si0 1.646745 1_555
O13 Si1 1.646745 1_555
O14 Si2 1.646745 1_545
O15 Si3 1.646745 1_565
O16 Si6 1.653345 1_455
O17 Si7 1.653345 1_655
O18 Si4 1.653345 1_655
O19 Si5 1.653345 1_455
O20 Si2 1.653006 1_545
O21 Si3 1.653006 1_565
O22 Si0 1.653006 1_555
O23 Si1 1.653006 1_555
O24 Si4 1.656959 1_555
O25 Si5 1.656959 1_555
O26 Si6 1.656959 1_555
O27 Si7 1.656959 1_555
O28 Si2 1.659370 1_545
O29 Si3 1.659370 1_565
O30 Si0 1.659370 1_555
O31 Si1 1.659370 1_555
