# generated using pymatgen
data_Cr5Si3B
_symmetry_space_group_name_H-M   'P 1'
_cell_length_a   7.02039500
_cell_length_b   7.02039489
_cell_length_c   4.70745800
_cell_angle_alpha   90.00000000
_cell_angle_beta   90.00000000
_cell_angle_gamma   120.00000523
_symmetry_Int_Tables_number   1
_chemical_formula_structural   Cr5Si3B
_chemical_formula_sum   'Cr10 Si6 B2'
_cell_volume   200.92785709
_cell_formula_units_Z   2
loop_
 _symmetry_equiv_pos_site_id
 _symmetry_equiv_pos_as_xyz
  1  'x, y, z'
loop_
 _atom_site_type_symbol
 _atom_site_label
 _atom_site_symmetry_multiplicity
 _atom_site_fract_x
 _atom_site_fract_y
 _atom_site_fract_z
 _atom_site_occupancy
  Cr  Cr0  1  0.66666700  0.33333300  0.50000000  1
  Cr  Cr1  1  0.33333300  0.66666700  0.50000000  1
  Cr  Cr2  1  0.33333300  0.66666700  0.00000000  1
  Cr  Cr3  1  0.66666700  0.33333300  0.00000000  1
  Cr  Cr4  1  0.75423800  0.75423800  0.25000000  1
  Cr  Cr5  1  0.24576200  0.00000000  0.25000000  1
  Cr  Cr6  1  0.00000000  0.24576200  0.25000000  1
  Cr  Cr7  1  0.24576200  0.24576200  0.75000000  1
  Cr  Cr8  1  0.75423800  0.00000000  0.75000000  1
  Cr  Cr9  1  0.00000000  0.75423800  0.75000000  1
  Si  Si0  1  0.40071900  0.40071900  0.25000000  1
  Si  Si1  1  0.59928100  0.00000000  0.25000000  1
  Si  Si2  1  0.00000000  0.59928100  0.25000000  1
  Si  Si3  1  0.59928100  0.59928100  0.75000000  1
  Si  Si4  1  0.40071900  0.00000000  0.75000000  1
  Si  Si5  1  0.00000000  0.40071900  0.75000000  1
  B  B0  1  0.00000000  0.00000000  0.50000000  1
  B  B1  1  0.00000000  0.00000000  0.00000000  1
loop_
_geom_bond_atom_site_label_1
_geom_bond_atom_site_label_2
_geom_bond_distance
_geom_bond_site_symmetry_2
Cr0 Cr3 2.353729 1_555
Cr0 Cr3 2.353729 1_556
Cr0 Si1 2.444986 1_555
Cr0 Si5 2.444986 1_655
Cr0 Si4 2.444988 1_555
Cr0 Si2 2.444988 1_655
Cr0 Si3 2.444992 1_555
Cr0 Si0 2.444992 1_555
Cr1 Cr2 2.353729 1_556
Cr1 Cr2 2.353729 1_555
Cr1 Si4 2.444986 1_565
Cr1 Si2 2.444986 1_555
Cr1 Si1 2.444988 1_565
Cr1 Si5 2.444988 1_555
Cr1 Si0 2.444992 1_555
Cr1 Si3 2.444992 1_555
Cr2 Si4 2.444986 1_564
Cr2 Si2 2.444986 1_555
Cr2 Si1 2.444988 1_565
Cr2 Si5 2.444988 1_554
Cr2 Si0 2.444992 1_555
Cr2 Si3 2.444992 1_554
Cr3 Si1 2.444986 1_555
Cr3 Si5 2.444986 1_654
Cr3 Si4 2.444988 1_554
Cr3 Si2 2.444988 1_655
Cr3 Si3 2.444992 1_554
Cr3 Si0 2.444992 1_555
Cr4 Si1 2.457070 1_565
Cr4 Si2 2.457070 1_655
Cr4 Si0 2.481843 1_555
Cr4 Si3 2.592967 1_555
Cr4 Si3 2.592967 1_554
Cr5 Si2 2.457070 1_545
Cr5 Si0 2.457070 1_555
Cr5 Si1 2.481843 1_555
Cr5 Si4 2.592967 1_555
Cr5 Si4 2.592967 1_554
Cr6 Si1 2.457070 1_455
Cr6 Si0 2.457070 1_555
Cr6 Si2 2.481843 1_555
Cr6 Si5 2.592967 1_555
Cr6 Si5 2.592967 1_554
Cr7 Si4 2.457070 1_555
Cr7 Si5 2.457070 1_555
Cr7 Si3 2.481843 1_555
Cr7 Si0 2.592967 1_555
Cr7 Si0 2.592967 1_556
Cr8 Si5 2.457070 1_655
Cr8 Si3 2.457070 1_545
Cr8 Si4 2.481843 1_555
Cr8 Si1 2.592967 1_555
Cr8 Si1 2.592967 1_556
Cr9 Si4 2.457070 1_565
Cr9 Si3 2.457070 1_455
Cr9 Si5 2.481843 1_555
Cr9 Si2 2.592967 1_555
Cr9 Si2 2.592967 1_556
B0 Cr7 2.088499 1_555
B0 Cr4 2.088499 1_445
B0 Cr6 2.088499 1_555
B0 Cr9 2.088499 1_545
B0 Cr5 2.088499 1_555
B0 Cr8 2.088499 1_455
B1 Cr7 2.088499 1_554
B1 Cr4 2.088499 1_445
B1 Cr6 2.088499 1_555
B1 Cr9 2.088499 1_544
B1 Cr5 2.088499 1_555
B1 Cr8 2.088499 1_454
