# generated using pymatgen
data_BaYMnCoO5
_symmetry_space_group_name_H-M   'P 1'
_cell_length_a   5.59236369
_cell_length_b   5.59061021
_cell_length_c   7.77061812
_cell_angle_alpha   90.02744857
_cell_angle_beta   90.00626512
_cell_angle_gamma   91.11072454
_symmetry_Int_Tables_number   1
_chemical_formula_structural   BaYMnCoO5
_chemical_formula_sum   'Ba2 Y2 Mn2 Co2 O10'
_cell_volume   242.90056375
_cell_formula_units_Z   2
loop_
 _symmetry_equiv_pos_site_id
 _symmetry_equiv_pos_as_xyz
  1  'x, y, z'
loop_
 _atom_site_type_symbol
 _atom_site_label
 _atom_site_symmetry_multiplicity
 _atom_site_fract_x
 _atom_site_fract_y
 _atom_site_fract_z
 _atom_site_occupancy
  Ba  Ba0  1  0.99987400  0.00249600  0.98994600  1
  Ba  Ba1  1  0.50280900  0.49968300  0.99069000  1
  Y  Y0  1  0.99916000  0.00118000  0.50119100  1
  Y  Y1  1  0.50102800  0.49914100  0.50126500  1
  Mn  Mn0  1  0.99997100  0.50005400  0.27442400  1
  Mn  Mn1  1  0.49955200  0.99946100  0.25460900  1
  Co  Co0  1  0.00593700  0.50590000  0.74349800  1
  Co  Co1  1  0.49961900  0.99959300  0.73729500  1
  O  O0  1  0.49920200  0.99911100  0.98842300  1
  O  O1  1  0.99835200  0.49820100  0.00222200  1
  O  O2  1  0.24111300  0.25704800  0.68366000  1
  O  O3  1  0.75716400  0.74144100  0.68356200  1
  O  O4  1  0.26548500  0.76546800  0.68357700  1
  O  O5  1  0.73146200  0.23174700  0.68413400  1
  O  O6  1  0.24024600  0.25961100  0.31526300  1
  O  O7  1  0.75943100  0.74018900  0.31519700  1
  O  O8  1  0.24141200  0.74144500  0.32547900  1
  O  O9  1  0.75818300  0.25823100  0.32556100  1
loop_
_geom_bond_atom_site_label_1
_geom_bond_atom_site_label_2
_geom_bond_distance
_geom_bond_site_symmetry_2
Ba0 O1 2.773067 1_556
Ba0 O0 2.792881 1_645
Ba0 O0 2.799661 1_545
Ba0 O1 2.820824 1_546
Ba0 O2 3.072351 1_655
Ba0 O3 3.091873 1_545
Ba0 O5 3.101542 1_555
Ba0 O4 3.115132 1_645
Ba0 O6 3.191304 1_656
Ba0 O7 3.205334 1_546
Ba0 O9 3.277868 1_556
Ba0 O8 3.291175 1_646
Ba1 O1 2.772868 1_556
Ba1 O0 2.792635 1_555
Ba1 O0 2.798232 1_545
Ba1 O1 2.822391 1_456
Ba1 O3 3.078172 1_555
Ba1 O2 3.097279 1_555
Ba1 O5 3.102407 1_555
Ba1 O4 3.121491 1_555
Ba1 O7 3.185464 1_556
Ba1 O6 3.200971 1_556
Ba1 O9 3.272649 1_556
Ba1 O8 3.287204 1_556
Mn0 O8 1.931435 1_655
Mn0 O9 1.934878 1_555
Mn0 O7 1.944716 1_555
Mn0 O6 1.945129 1_655
Mn0 O1 2.115216 1_555
Mn1 O0 2.068430 1_554
Mn1 O8 2.094805 1_555
Mn1 O9 2.099228 1_565
Mn1 O7 2.125333 1_555
Mn1 O6 2.126396 1_565
Co0 O2 1.987942 1_555
Co0 O3 1.989450 1_455
Co0 O1 2.011361 1_456
Co0 O4 2.085323 1_555
Co0 O5 2.196812 1_455
Co1 O5 1.863218 1_565
Co1 O4 1.880109 1_555
Co1 O0 1.951425 1_555
Co1 O3 2.100430 1_555
Co1 O2 2.101528 1_565
O2 Y0 2.410413 1_455
O2 Y1 2.424751 1_555
O3 Y1 2.411613 1_555
O3 Y0 2.423751 1_565
O4 Y1 2.456306 1_555
O4 Y0 2.457808 1_465
O5 Y1 2.447644 1_555
O5 Y0 2.448911 1_555
O6 Y0 2.432991 1_455
O6 Y1 2.435394 1_555
O7 Y1 2.433445 1_555
O7 Y0 2.436574 1_565
O8 Y0 2.425484 1_465
O8 Y1 2.426187 1_555
O9 Y1 2.412465 1_555
O9 Y0 2.412550 1_555
