# generated using pymatgen
data_Na3SrTa4O12
_symmetry_space_group_name_H-M   'P 1'
_cell_length_a   7.89553571
_cell_length_b   5.54980032
_cell_length_c   5.55970297
_cell_angle_alpha   90.48133280
_cell_angle_beta   90.00000000
_cell_angle_gamma   90.00000000
_symmetry_Int_Tables_number   1
_chemical_formula_structural   Na3SrTa4O12
_chemical_formula_sum   'Na3 Sr1 Ta4 O12'
_cell_volume   243.61006342
_cell_formula_units_Z   1
loop_
 _symmetry_equiv_pos_site_id
 _symmetry_equiv_pos_as_xyz
  1  'x, y, z'
loop_
 _atom_site_type_symbol
 _atom_site_label
 _atom_site_symmetry_multiplicity
 _atom_site_fract_x
 _atom_site_fract_y
 _atom_site_fract_z
 _atom_site_occupancy
  Na  Na0  1  0.00000000  0.99604839  0.01541159  1
  Na  Na1  1  0.50000000  0.49968188  0.49128344  1
  Na  Na2  1  0.50000000  0.00326993  0.98610619  1
  Sr  Sr0  1  0.00000000  0.49450339  0.51185082  1
  Ta  Ta0  1  0.25387672  -0.00013192  0.50010439  1
  Ta  Ta1  1  0.74626057  0.50005545  0.00036105  1
  Ta  Ta2  1  0.74612328  -0.00013192  0.50010439  1
  Ta  Ta3  1  0.25373943  0.50005545  0.00036105  1
  O  O0  1  0.28555844  0.78182257  0.21849251  1
  O  O1  1  0.74044011  0.71422614  0.71377012  1
  O  O2  1  0.78948939  0.22015537  0.77972019  1
  O  O3  1  0.24310062  0.28516327  0.28444572  1
  O  O4  1  0.21051061  0.22015537  0.77972019  1
  O  O5  1  0.75689938  0.28516327  0.28444572  1
  O  O6  1  0.71444156  0.78182257  0.21849251  1
  O  O7  1  0.25955989  0.71422614  0.71377012  1
  O  O8  1  0.00000000  0.96231364  0.46507740  1
  O  O9  1  0.00000000  0.54876983  0.02130118  1
  O  O10  1  0.50000000  0.04409878  0.53804292  1
  O  O11  1  0.50000000  0.44873039  0.97713850  1
loop_
_geom_bond_atom_site_label_1
_geom_bond_atom_site_label_2
_geom_bond_distance
_geom_bond_site_symmetry_2
Na0 O4 2.460474 1_564
Na0 O2 2.460474 1_464
Na0 O9 2.482798 1_555
Na0 O8 2.508577 1_555
Na0 O6 2.791818 1_455
Na0 O0 2.791818 1_555
Na0 O3 2.907850 1_565
Na0 O5 2.907850 1_465
Na1 O10 2.543897 1_555
Na1 O1 2.554794 1_555
Na1 O7 2.554794 1_555
Na1 O5 2.613620 1_555
Na1 O3 2.613620 1_555
Na1 O11 2.718332 1_555
Na1 O0 2.767415 1_555
Na1 O6 2.767415 1_555
Na1 O11 2.870080 1_554
Na2 O0 2.464355 1_546
Na2 O6 2.464355 1_546
Na2 O11 2.473138 1_555
Na2 O10 2.503278 1_555
Na2 O2 2.830718 1_555
Na2 O4 2.830718 1_555
O0 Ta0 1.986568 1_565
O0 Ta3 1.986787 1_555
O1 Ta2 1.989432 1_565
O1 Ta1 1.996374 1_556
O1 Sr0 2.631374 1_655
O2 Ta2 1.999164 1_555
O2 Ta1 2.000571 1_556
O2 Sr0 2.708659 1_655
O3 Ta3 1.988871 1_555
O3 Ta0 1.995913 1_555
O3 Sr0 2.570543 1_555
O4 Ta0 1.999164 1_555
O4 Ta3 2.000571 1_556
O4 Sr0 2.708659 1_555
O5 Ta1 1.988871 1_555
O5 Ta2 1.995913 1_555
O5 Sr0 2.570543 1_655
O6 Ta2 1.986568 1_565
O6 Ta1 1.986787 1_555
O7 Ta0 1.989432 1_565
O7 Ta3 1.996374 1_556
O7 Sr0 2.631374 1_555
O8 Ta2 2.024518 1_465
O8 Ta0 2.024518 1_565
O8 Sr0 2.611417 1_555
O8 Sr0 2.962796 1_565
O9 Ta3 2.024787 1_555
O9 Ta1 2.024787 1_455
O9 Sr0 2.746402 1_555
O9 Sr0 2.845842 1_554
O10 Ta0 1.969821 1_555
O10 Ta2 1.969821 1_555
O11 Ta3 1.969193 1_556
O11 Ta1 1.969193 1_556
