# generated using pymatgen
data_MoWO6
_symmetry_space_group_name_H-M   'P 1'
_cell_length_a   5.46504709
_cell_length_b   5.46504709
_cell_length_c   5.53394461
_cell_angle_alpha   59.81022236
_cell_angle_beta   59.81022236
_cell_angle_gamma   60.30361817
_symmetry_Int_Tables_number   1
_chemical_formula_structural   MoWO6
_chemical_formula_sum   'Mo1 W1 O6'
_cell_volume   116.79835259
_cell_formula_units_Z   1
loop_
 _symmetry_equiv_pos_site_id
 _symmetry_equiv_pos_as_xyz
  1  'x, y, z'
loop_
 _atom_site_type_symbol
 _atom_site_label
 _atom_site_symmetry_multiplicity
 _atom_site_fract_x
 _atom_site_fract_y
 _atom_site_fract_z
 _atom_site_occupancy
  Mo  Mo0  1  0.48951600  0.48951600  0.49645800  1
  W  W0  1  0.98943600  0.98943600  0.99535200  1
  O  O0  1  0.74498800  0.25416600  0.19810200  1
  O  O1  1  0.25281000  0.75045000  0.69943800  1
  O  O2  1  0.74896500  0.74896500  0.19239400  1
  O  O3  1  0.25416600  0.74498800  0.19810200  1
  O  O4  1  0.75045000  0.25281000  0.69943800  1
  O  O5  1  0.25075700  0.25075700  0.69585800  1
loop_
_geom_bond_atom_site_label_1
_geom_bond_atom_site_label_2
_geom_bond_distance
_geom_bond_site_symmetry_2
Mo0 O1 1.813984 1_555
Mo0 O4 1.813984 1_555
Mo0 O5 1.847579 1_555
Mo0 O2 2.011259 1_555
Mo0 O3 2.089934 1_555
Mo0 O0 2.089934 1_555
O0 W0 1.829423 1_544
O1 W0 2.092145 1_455
O2 W0 1.863313 1_554
O3 W0 1.829423 1_454
O4 W0 2.092145 1_545
O5 W0 2.021335 1_445
