# generated using pymatgen
data_RbCoCuS2
_symmetry_space_group_name_H-M   'P 1'
_cell_length_a   7.07985315
_cell_length_b   7.07985315
_cell_length_c   7.07985315
_cell_angle_alpha   147.96330867
_cell_angle_beta   147.96330867
_cell_angle_gamma   45.93953277
_symmetry_Int_Tables_number   1
_chemical_formula_structural   RbCoCuS2
_chemical_formula_sum   'Rb1 Co1 Cu1 S2'
_cell_volume   99.51796711
_cell_formula_units_Z   1
loop_
 _symmetry_equiv_pos_site_id
 _symmetry_equiv_pos_as_xyz
  1  'x, y, z'
loop_
 _atom_site_type_symbol
 _atom_site_label
 _atom_site_symmetry_multiplicity
 _atom_site_fract_x
 _atom_site_fract_y
 _atom_site_fract_z
 _atom_site_occupancy
  Rb  Rb0  1  0.00000000  0.00000000  0.00000000  1
  Co  Co0  1  0.75000000  0.25000000  0.50000000  1
  Cu  Cu0  1  0.25000000  0.75000000  0.50000000  1
  S  S0  1  0.65958200  0.65958200  0.00000000  1
  S  S1  1  0.34041800  0.34041800  0.00000000  1
loop_
_geom_bond_atom_site_label_1
_geom_bond_atom_site_label_2
_geom_bond_distance
_geom_bond_site_symmetry_2
Rb0 S1 3.458592 1_556
Rb0 S0 3.458592 1_455
Rb0 S1 3.458592 1_444
Rb0 S1 3.458592 1_545
Rb0 S0 3.458592 1_556
Rb0 S1 3.458592 1_455
Rb0 S0 3.458592 1_444
Rb0 S0 3.458592 1_545
Co0 S1 2.281726 1_555
Co0 S0 2.281726 1_545
Co0 S0 2.281726 1_556
Co0 S1 2.281726 1_656
Cu0 S1 2.281726 1_555
Cu0 S0 2.281726 1_455
Cu0 S0 2.281726 1_556
Cu0 S1 2.281726 1_566
