# generated using pymatgen
data_DyMn2(Cr2Ge3)2
_symmetry_space_group_name_H-M   'P 1'
_cell_length_a   5.14079917
_cell_length_b   5.14079917
_cell_length_c   8.28243000
_cell_angle_alpha   90.00000000
_cell_angle_beta   90.00000000
_cell_angle_gamma   120.03136260
_symmetry_Int_Tables_number   1
_chemical_formula_structural   DyMn2(Cr2Ge3)2
_chemical_formula_sum   'Dy1 Mn2 Cr4 Ge6'
_cell_volume   189.50136570
_cell_formula_units_Z   1
loop_
 _symmetry_equiv_pos_site_id
 _symmetry_equiv_pos_as_xyz
  1  'x, y, z'
loop_
 _atom_site_type_symbol
 _atom_site_label
 _atom_site_symmetry_multiplicity
 _atom_site_fract_x
 _atom_site_fract_y
 _atom_site_fract_z
 _atom_site_occupancy
  Dy  Dy0  1  0.50000000  0.50000000  0.00028600  1
  Mn  Mn0  1  0.00000000  0.50000000  0.74941100  1
  Mn  Mn1  1  0.50000000  0.00000000  0.74941100  1
  Cr  Cr0  1  0.00000000  0.00000000  0.75057600  1
  Cr  Cr1  1  0.00000000  0.50000000  0.25066400  1
  Cr  Cr2  1  0.50000000  0.00000000  0.25066400  1
  Cr  Cr3  1  0.00000000  0.00000000  0.25004900  1
  Ge  Ge0  1  0.16567500  0.83432500  0.50116800  1
  Ge  Ge1  1  0.83432500  0.16567500  0.50116800  1
  Ge  Ge2  1  0.16623500  0.83376500  0.99802500  1
  Ge  Ge3  1  0.83376500  0.16623500  0.99802500  1
  Ge  Ge4  1  0.50000000  0.50000000  0.65427100  1
  Ge  Ge5  1  0.50000000  0.50000000  0.34629200  1
loop_
_geom_bond_atom_site_label_1
_geom_bond_atom_site_label_2
_geom_bond_distance
_geom_bond_site_symmetry_2
Dy0 Ge5 2.865770 1_555
Dy0 Ge4 2.865845 1_554
Dy0 Ge3 2.965242 1_564
Dy0 Ge2 2.965242 1_654
Dy0 Ge3 2.965242 1_454
Dy0 Ge2 2.965242 1_544
Dy0 Ge2 2.972414 1_554
Dy0 Ge3 2.972414 1_554
Dy0 Mn1 3.305213 1_564
Dy0 Mn0 3.305213 1_654
Dy0 Mn0 3.305213 1_554
Dy0 Mn1 3.305213 1_554
Mn0 Mn1 2.569181 1_455
Mn0 Mn1 2.569181 1_565
Cr0 Ge3 2.528237 1_455
Cr0 Ge2 2.528237 1_545
Cr0 Ge1 2.538506 1_455
Cr0 Ge0 2.538506 1_545
Cr0 Mn1 2.570418 1_455
Cr0 Mn0 2.570418 1_555
Cr0 Mn0 2.570418 1_545
Cr0 Mn1 2.570418 1_555
Cr0 Ge4 2.690152 1_555
Cr0 Ge4 2.690152 1_445
Cr1 Ge0 2.553200 1_555
Cr1 Ge1 2.553200 1_455
Cr1 Ge3 2.566136 1_454
Cr1 Ge2 2.566136 1_554
Cr1 Ge5 2.689660 1_555
Cr1 Ge5 2.689660 1_455
Cr2 Ge0 2.553200 1_545
Cr2 Ge1 2.553200 1_555
Cr2 Ge3 2.566136 1_554
Cr2 Ge2 2.566136 1_544
Cr2 Ge5 2.689660 1_555
Cr2 Ge5 2.689660 1_545
Cr3 Ge1 2.550051 1_455
Cr3 Ge0 2.550051 1_545
Cr3 Ge2 2.559050 1_544
Cr3 Ge3 2.559050 1_454
Cr3 Ge5 2.690000 1_555
Cr3 Ge5 2.690000 1_445
Ge0 Mn0 2.538006 1_555
Ge0 Mn1 2.538006 1_565
Ge1 Mn0 2.538006 1_655
Ge1 Mn1 2.538006 1_555
Ge2 Mn1 2.539026 1_565
Ge2 Mn0 2.539026 1_555
Ge3 Mn0 2.539026 1_655
Ge3 Mn1 2.539026 1_555
Ge4 Ge5 2.550815 1_555
Ge4 Mn0 2.688472 1_555
Ge4 Mn1 2.688472 1_565
Ge4 Mn0 2.688472 1_655
Ge4 Mn1 2.688472 1_555
