# generated using pymatgen
data_BaYTi4O7
_symmetry_space_group_name_H-M   'P 1'
_cell_length_a   6.38298461
_cell_length_b   6.38298461
_cell_length_c   10.69684600
_cell_angle_alpha   90.00000000
_cell_angle_beta   90.00000000
_cell_angle_gamma   120.00000632
_symmetry_Int_Tables_number   1
_chemical_formula_structural   BaYTi4O7
_chemical_formula_sum   'Ba2 Y2 Ti8 O14'
_cell_volume   377.42784903
_cell_formula_units_Z   2
loop_
 _symmetry_equiv_pos_site_id
 _symmetry_equiv_pos_as_xyz
  1  'x, y, z'
loop_
 _atom_site_type_symbol
 _atom_site_label
 _atom_site_symmetry_multiplicity
 _atom_site_fract_x
 _atom_site_fract_y
 _atom_site_fract_z
 _atom_site_occupancy
  Ba  Ba0  1  0.66666700  0.33333300  0.50392700  1
  Ba  Ba1  1  0.33333300  0.66666700  0.00392700  1
  Y  Y0  1  0.66666700  0.33333300  0.86379800  1
  Y  Y1  1  0.33333300  0.66666700  0.36379800  1
  Ti  Ti0  1  0.84873800  0.15126200  0.18407300  1
  Ti  Ti1  1  0.69747600  0.84873800  0.68407300  1
  Ti  Ti2  1  0.15126200  0.30252400  0.68407300  1
  Ti  Ti3  1  0.84873800  0.69747600  0.18407300  1
  Ti  Ti4  1  0.30252400  0.15126200  0.18407300  1
  Ti  Ti5  1  0.15126200  0.84873800  0.68407300  1
  Ti  Ti6  1  0.00000000  0.00000000  0.48828400  1
  Ti  Ti7  1  0.00000000  0.00000000  0.98828400  1
  O  O0  1  0.82360700  0.17639300  0.00122700  1
  O  O1  1  0.64721300  0.82360700  0.50122700  1
  O  O2  1  0.17639300  0.35278700  0.50122700  1
  O  O3  1  0.82360700  0.64721300  0.00122700  1
  O  O4  1  0.35278700  0.17639300  0.00122700  1
  O  O5  1  0.17639300  0.82360700  0.50122700  1
  O  O6  1  0.00000000  0.00000000  0.79206800  1
  O  O7  1  0.00000000  0.00000000  0.29206800  1
  O  O8  1  0.50613600  0.49386400  0.24334000  1
  O  O9  1  0.01227300  0.50613600  0.74334000  1
  O  O10  1  0.49386400  0.98772700  0.74334000  1
  O  O11  1  0.50613600  0.01227300  0.24334000  1
  O  O12  1  0.49386400  0.50613600  0.74334000  1
  O  O13  1  0.98772700  0.49386400  0.24334000  1
loop_
_geom_bond_atom_site_label_1
_geom_bond_atom_site_label_2
_geom_bond_distance
_geom_bond_site_symmetry_2
Ba0 O2 3.193428 1_655
Ba0 O1 3.193428 1_545
Ba0 O5 3.193433 1_655
Ba0 O5 3.193433 1_545
Ba0 O1 3.193441 1_555
Ba0 O2 3.193441 1_555
Ba0 O10 3.195052 1_545
Ba0 O9 3.195052 1_655
Ba0 O12 3.195052 1_555
Ba0 O11 3.304499 1_555
Ba0 O13 3.304499 1_555
Ba0 O8 3.304505 1_555
Ba1 O4 3.193428 1_565
Ba1 O3 3.193428 1_455
Ba1 O0 3.193433 1_455
Ba1 O0 3.193433 1_565
Ba1 O3 3.193441 1_555
Ba1 O4 3.193441 1_555
Ba1 O13 3.195052 1_455
Ba1 O11 3.195052 1_565
Ba1 O8 3.195052 1_555
Ba1 O9 3.304499 1_554
Ba1 O10 3.304499 1_554
Ba1 O12 3.304505 1_554
O0 Ti7 1.955048 1_654
O0 Ti0 1.975511 1_555
O0 Y0 2.274104 1_554
O1 Ti6 1.955054 1_665
O1 Ti1 1.975512 1_555
O1 Y1 2.274104 1_555
O2 Ti6 1.955054 1_555
O2 Ti2 1.975512 1_555
O2 Y1 2.274104 1_555
O3 Ti7 1.955054 1_664
O3 Ti3 1.975512 1_555
O3 Y0 2.274104 1_554
O4 Ti7 1.955054 1_554
O4 Ti4 1.975512 1_555
O4 Y0 2.274104 1_554
O5 Ti6 1.955048 1_565
O5 Ti5 1.975511 1_555
O5 Y1 2.274104 1_555
O6 Ti2 2.032508 1_555
O6 Ti1 2.032508 1_445
O6 Ti5 2.032508 1_545
O6 Ti7 2.098892 1_555
O7 Ti3 2.032508 1_445
O7 Ti4 2.032508 1_555
O7 Ti0 2.032508 1_455
O7 Ti6 2.098892 1_555
O8 Ti4 2.007760 1_555
O8 Ti3 2.007760 1_555
O8 Y1 2.304367 1_555
O9 Ti2 2.007755 1_555
O9 Ti5 2.007761 1_555
O9 Y0 2.304366 1_455
O10 Ti1 2.007755 1_555
O10 Ti5 2.007761 1_555
O10 Y0 2.304366 1_565
O11 Ti4 2.007755 1_555
O11 Ti0 2.007761 1_555
O11 Y1 2.304366 1_545
O12 Ti1 2.007760 1_555
O12 Ti2 2.007760 1_555
O12 Y0 2.304367 1_555
O13 Ti3 2.007755 1_555
O13 Ti0 2.007761 1_555
O13 Y1 2.304366 1_655
