# generated using pymatgen
data_KH8WN2(OF)3
_symmetry_space_group_name_H-M   'P 1'
_cell_length_a   6.34858900
_cell_length_b   6.44728500
_cell_length_c   11.32764399
_cell_angle_alpha   56.20598120
_cell_angle_beta   90.00000000
_cell_angle_gamma   90.00000000
_symmetry_Int_Tables_number   1
_chemical_formula_structural   KH8WN2(OF)3
_chemical_formula_sum   'K2 H16 W2 N4 O6 F6'
_cell_volume   385.31589594
_cell_formula_units_Z   2
loop_
 _symmetry_equiv_pos_site_id
 _symmetry_equiv_pos_as_xyz
  1  'x, y, z'
loop_
 _atom_site_type_symbol
 _atom_site_label
 _atom_site_symmetry_multiplicity
 _atom_site_fract_x
 _atom_site_fract_y
 _atom_site_fract_z
 _atom_site_occupancy
  K  K0  1  0.25778200  0.50185700  0.50046000  1
  K  K1  1  0.74221800  0.50185700  0.00046000  1
  H  H0  1  0.56369800  0.77516000  0.21875700  1
  H  H1  1  0.43630200  0.77516000  0.71875700  1
  H  H2  1  0.92610500  0.24255500  0.77898700  1
  H  H3  1  0.07389500  0.24255500  0.27898700  1
  H  H4  1  0.81878400  0.78832400  0.15223000  1
  H  H5  1  0.18121600  0.78832400  0.65223000  1
  H  H6  1  0.66871300  0.22213000  0.84246300  1
  H  H7  1  0.33128700  0.22213000  0.34246300  1
  H  H8  1  0.78292300  0.80457900  0.29588500  1
  H  H9  1  0.21707700  0.80457900  0.79588500  1
  H  H10  1  0.72294500  0.13337000  0.72794500  1
  H  H11  1  0.27705500  0.13337000  0.22794500  1
  H  H12  1  0.74554000  0.53294500  0.30403000  1
  H  H13  1  0.25446000  0.53294500  0.80403000  1
  H  H14  1  0.73209700  0.43809700  0.67175300  1
  H  H15  1  0.26790300  0.43809700  0.17175300  1
  W  W0  1  0.77762400  0.99279300  0.50372600  1
  W  W1  1  0.22237600  0.99279300  0.00372600  1
  N  N0  1  0.72880400  0.72695800  0.24336400  1
  N  N1  1  0.27119600  0.72695800  0.74336400  1
  N  N2  1  0.76117400  0.25746000  0.75584700  1
  N  N3  1  0.23882600  0.25746000  0.25584700  1
  O  O0  1  0.68708500  0.82955200  0.69309800  1
  O  O1  1  0.31291500  0.82955200  0.19309800  1
  O  O2  1  0.80487800  0.23577800  0.30868300  1
  O  O3  1  0.19512200  0.23577800  0.80868300  1
  O  O4  1  0.00737700  0.81063600  0.52486300  1
  O  O5  1  0.99262300  0.81063600  0.02486300  1
  F  F0  1  0.92950800  0.23099400  0.53467200  1
  F  F1  1  0.07049200  0.23099400  0.03467200  1
  F  F2  1  0.58893500  0.77745300  0.47340700  1
  F  F3  1  0.41106500  0.77745300  0.97340700  1
  F  F4  1  0.48986500  0.19935900  0.46982700  1
  F  F5  1  0.51013500  0.19935900  0.96982700  1
loop_
_geom_bond_atom_site_label_1
_geom_bond_atom_site_label_2
_geom_bond_distance
_geom_bond_site_symmetry_2
K0 O4 2.679370 1_555
K0 O1 2.919845 1_555
K0 O3 2.937422 1_555
K1 O5 2.679370 1_555
K1 O0 2.919845 1_554
K1 O2 2.937422 1_555
H0 N0 1.084719 1_555
H0 O1 1.621392 1_555
H1 N1 1.084719 1_555
H1 O0 1.621392 1_555
H2 N2 1.070652 1_555
H2 O3 1.736538 1_655
H3 N3 1.070652 1_555
H3 O2 1.736538 1_455
H4 N0 1.046048 1_555
H4 O5 1.757669 1_555
H5 N1 1.046048 1_555
H5 O4 1.757669 1_555
H6 N2 1.053803 1_555
H7 N3 1.053803 1_555
H8 N0 1.026474 1_555
H9 N1 1.026474 1_555
H10 N2 1.039308 1_555
H11 N3 1.039308 1_555
H12 N0 1.044966 1_555
H13 N1 1.044966 1_555
H14 N2 1.031367 1_555
H15 N3 1.031367 1_555
O0 W0 1.878352 1_555
O1 W1 1.878352 1_555
O2 W0 1.874888 1_545
O3 W1 1.874888 1_546
O4 W0 1.803141 1_455
O5 W1 1.803141 1_655
F0 W0 2.002512 1_545
F0 K0 2.605836 1_655
F1 W1 2.002512 1_545
F1 K1 2.605836 1_455
F2 W0 2.002724 1_555
F2 K0 2.658056 1_555
F3 W1 2.002724 1_556
F3 K1 2.658056 1_556
F4 H7 1.697337 1_555
F4 W0 2.165561 1_545
F4 K0 2.616826 1_555
F5 H6 1.697337 1_555
F5 W1 2.165561 1_546
F5 K1 2.616826 1_556
