# generated using pymatgen
data_CeGa3Cu
_symmetry_space_group_name_H-M   'P 1'
_cell_length_a   6.02462225
_cell_length_b   6.02462225
_cell_length_c   6.02462225
_cell_angle_alpha   139.21275029
_cell_angle_beta   139.21275029
_cell_angle_gamma   59.05059915
_symmetry_Int_Tables_number   1
_chemical_formula_structural   CeGa3Cu
_chemical_formula_sum   'Ce1 Ga3 Cu1'
_cell_volume   92.41934322
_cell_formula_units_Z   1
loop_
 _symmetry_equiv_pos_site_id
 _symmetry_equiv_pos_as_xyz
  1  'x, y, z'
loop_
 _atom_site_type_symbol
 _atom_site_label
 _atom_site_symmetry_multiplicity
 _atom_site_fract_x
 _atom_site_fract_y
 _atom_site_fract_z
 _atom_site_occupancy
  Ce  Ce0  1  0.00000000  0.00000000  0.00000000  1
  Ga  Ga0  1  0.61830290  0.61830290  -0.00000000  1
  Ga  Ga1  1  0.38169710  0.38169710  0.00000000  1
  Ga  Ga2  1  0.75000000  0.25000000  0.50000000  1
  Cu  Cu0  1  0.25000000  0.75000000  0.50000000  1
loop_
_geom_bond_atom_site_label_1
_geom_bond_atom_site_label_2
_geom_bond_distance
_geom_bond_site_symmetry_2
Ce0 Ga0 3.217656 1_545
Ce0 Ga0 3.217656 1_455
Ce0 Ga0 3.217656 1_556
Ce0 Ga0 3.217656 1_444
Ce0 Ga1 3.217656 1_545
Ce0 Ga1 3.217656 1_444
Ce0 Ga1 3.217656 1_556
Ce0 Ga1 3.217656 1_455
Ce0 Cu0 3.358233 1_545
Ce0 Ga2 3.358233 1_444
Ce0 Cu0 3.358233 1_555
Ce0 Ga2 3.358233 1_454
Ce0 Cu0 3.358233 1_444
Ce0 Cu0 3.358233 1_544
Ce0 Ga2 3.358233 1_455
Ce0 Ga2 3.358233 1_555
Ga0 Ga1 2.480695 1_555
Ga0 Ga2 2.512763 1_565
Ga0 Ga2 2.512763 1_554
Ga1 Ga2 2.512763 1_454
Ga1 Ga2 2.512763 1_555
Cu0 Ga1 2.512763 1_555
Cu0 Ga1 2.512763 1_566
Cu0 Ga0 2.512763 1_455
Cu0 Ga0 2.512763 1_556
Cu0 Ga2 2.968981 1_454
Cu0 Ga2 2.968981 1_555
Cu0 Ga2 2.968981 1_566
Cu0 Ga2 2.968981 1_465
