# generated using pymatgen
data_Mg30CrCdO32
_symmetry_space_group_name_H-M   'P 1'
_cell_length_a   8.55384600
_cell_length_b   8.55384600
_cell_length_c   8.62106800
_cell_angle_alpha   90.00000000
_cell_angle_beta   90.00000000
_cell_angle_gamma   90.00000000
_symmetry_Int_Tables_number   1
_chemical_formula_structural   Mg30CrCdO32
_chemical_formula_sum   'Mg30 Cr1 Cd1 O32'
_cell_volume   630.78872932
_cell_formula_units_Z   1
loop_
 _symmetry_equiv_pos_site_id
 _symmetry_equiv_pos_as_xyz
  1  'x, y, z'
loop_
 _atom_site_type_symbol
 _atom_site_label
 _atom_site_symmetry_multiplicity
 _atom_site_fract_x
 _atom_site_fract_y
 _atom_site_fract_z
 _atom_site_occupancy
  Mg  Mg0  1  0.00000000  0.50000000  0.00000000  1
  Mg  Mg1  1  0.50000000  0.00000000  0.00000000  1
  Mg  Mg2  1  0.00000000  0.00000000  0.50000000  1
  Mg  Mg3  1  0.00000000  0.50000000  0.50000000  1
  Mg  Mg4  1  0.50000000  0.00000000  0.50000000  1
  Mg  Mg5  1  0.50000000  0.50000000  0.50000000  1
  Mg  Mg6  1  0.24841000  0.24841000  0.00000000  1
  Mg  Mg7  1  0.24841000  0.75159000  0.00000000  1
  Mg  Mg8  1  0.75159000  0.24841000  0.00000000  1
  Mg  Mg9  1  0.75159000  0.75159000  0.00000000  1
  Mg  Mg10  1  0.25000200  0.25000200  0.50000000  1
  Mg  Mg11  1  0.25000200  0.74999800  0.50000000  1
  Mg  Mg12  1  0.74999800  0.25000200  0.50000000  1
  Mg  Mg13  1  0.74999800  0.74999800  0.50000000  1
  Mg  Mg14  1  0.00000000  0.24922700  0.25230600  1
  Mg  Mg15  1  0.00000000  0.75077300  0.25230600  1
  Mg  Mg16  1  0.50000000  0.24737700  0.25262300  1
  Mg  Mg17  1  0.50000000  0.75262300  0.25262300  1
  Mg  Mg18  1  0.00000000  0.24922700  0.74769400  1
  Mg  Mg19  1  0.00000000  0.75077300  0.74769400  1
  Mg  Mg20  1  0.50000000  0.24737700  0.74737700  1
  Mg  Mg21  1  0.50000000  0.75262300  0.74737700  1
  Mg  Mg22  1  0.24922700  0.00000000  0.25230600  1
  Mg  Mg23  1  0.24737700  0.50000000  0.25262300  1
  Mg  Mg24  1  0.75077300  0.00000000  0.25230600  1
  Mg  Mg25  1  0.75262300  0.50000000  0.25262300  1
  Mg  Mg26  1  0.24922700  0.00000000  0.74769400  1
  Mg  Mg27  1  0.24737700  0.50000000  0.74737700  1
  Mg  Mg28  1  0.75077300  0.00000000  0.74769400  1
  Mg  Mg29  1  0.75262300  0.50000000  0.74737700  1
  Cr  Cr0  1  0.00000000  0.00000000  0.00000000  1
  Cd  Cd0  1  0.50000000  0.50000000  0.00000000  1
  O  O0  1  0.00000000  0.00000000  0.26513500  1
  O  O1  1  0.00000000  0.50000000  0.25138300  1
  O  O2  1  0.50000000  0.00000000  0.25138300  1
  O  O3  1  0.50000000  0.50000000  0.26376700  1
  O  O4  1  0.00000000  0.00000000  0.73486500  1
  O  O5  1  0.00000000  0.50000000  0.74861700  1
  O  O6  1  0.50000000  0.00000000  0.74861700  1
  O  O7  1  0.50000000  0.50000000  0.73623300  1
  O  O8  1  0.25020300  0.25020300  0.24930500  1
  O  O9  1  0.25020300  0.74979700  0.24930500  1
  O  O10  1  0.74979700  0.25020300  0.24930500  1
  O  O11  1  0.74979700  0.74979700  0.24930500  1
  O  O12  1  0.25020300  0.25020300  0.75069500  1
  O  O13  1  0.25020300  0.74979700  0.75069500  1
  O  O14  1  0.74979700  0.25020300  0.75069500  1
  O  O15  1  0.74979700  0.74979700  0.75069500  1
  O  O16  1  0.00000000  0.24916800  0.00000000  1
  O  O17  1  0.00000000  0.75083200  0.00000000  1
  O  O18  1  0.50000000  0.23602300  0.00000000  1
  O  O19  1  0.50000000  0.76397700  0.00000000  1
  O  O20  1  0.00000000  0.25228700  0.50000000  1
  O  O21  1  0.00000000  0.74771300  0.50000000  1
  O  O22  1  0.50000000  0.24848900  0.50000000  1
  O  O23  1  0.50000000  0.75151100  0.50000000  1
  O  O24  1  0.24916800  0.00000000  0.00000000  1
  O  O25  1  0.23602300  0.50000000  0.00000000  1
  O  O26  1  0.75083200  0.00000000  0.00000000  1
  O  O27  1  0.76397700  0.50000000  0.00000000  1
  O  O28  1  0.25228700  0.00000000  0.50000000  1
  O  O29  1  0.24848900  0.50000000  0.50000000  1
  O  O30  1  0.74771300  0.00000000  0.50000000  1
  O  O31  1  0.75151100  0.50000000  0.50000000  1
loop_
_geom_bond_atom_site_label_1
_geom_bond_atom_site_label_2
_geom_bond_distance
_geom_bond_site_symmetry_2
Mg0 O27 2.018904 1_455
Mg0 O25 2.018904 1_555
Mg0 O16 2.145578 1_555
Mg0 O17 2.145578 1_555
Mg0 O1 2.167190 1_555
Mg0 O5 2.167190 1_554
Mg1 O18 2.018904 1_555
Mg1 O19 2.018904 1_545
Mg1 O24 2.145578 1_555
Mg1 O26 2.145578 1_555
Mg1 O6 2.167190 1_554
Mg1 O2 2.167190 1_555
Mg2 O0 2.024787 1_555
Mg2 O4 2.024787 1_555
Mg2 O20 2.158024 1_555
Mg2 O28 2.158024 1_555
Mg2 O21 2.158024 1_545
Mg2 O30 2.158024 1_455
Mg3 O21 2.118899 1_555
Mg3 O20 2.118899 1_555
Mg3 O29 2.125537 1_555
Mg3 O31 2.125537 1_455
Mg3 O1 2.143344 1_555
Mg3 O5 2.143344 1_555
Mg4 O30 2.118899 1_555
Mg4 O28 2.118899 1_555
Mg4 O22 2.125537 1_555
Mg4 O23 2.125537 1_545
Mg4 O2 2.143344 1_555
Mg4 O6 2.143344 1_555
Mg5 O3 2.036581 1_555
Mg5 O7 2.036581 1_555
Mg5 O31 2.151386 1_555
Mg5 O23 2.151386 1_555
Mg5 O22 2.151386 1_555
Mg5 O29 2.151386 1_555
Mg6 O16 2.124871 1_555
Mg6 O24 2.124871 1_555
Mg6 O12 2.149385 1_554
Mg6 O8 2.149385 1_555
Mg6 O25 2.154669 1_555
Mg6 O18 2.154669 1_555
Mg7 O17 2.124871 1_555
Mg7 O24 2.124871 1_565
Mg7 O13 2.149385 1_554
Mg7 O9 2.149385 1_555
Mg7 O25 2.154669 1_555
Mg7 O19 2.154669 1_555
Mg8 O26 2.124871 1_555
Mg8 O16 2.124871 1_655
Mg8 O10 2.149385 1_555
Mg8 O14 2.149385 1_554
Mg8 O27 2.154669 1_555
Mg8 O18 2.154669 1_555
Mg9 O26 2.124871 1_565
Mg9 O17 2.124871 1_655
Mg9 O15 2.149385 1_554
Mg9 O11 2.149385 1_555
Mg9 O27 2.154669 1_555
Mg9 O19 2.154669 1_555
Mg10 O22 2.138484 1_555
Mg10 O29 2.138484 1_555
Mg10 O28 2.138568 1_555
Mg10 O20 2.138568 1_555
Mg10 O12 2.161260 1_555
Mg10 O8 2.161260 1_555
Mg11 O23 2.138484 1_555
Mg11 O29 2.138484 1_555
Mg11 O28 2.138568 1_565
Mg11 O21 2.138568 1_555
Mg11 O9 2.161260 1_555
Mg11 O13 2.161260 1_555
Mg12 O31 2.138484 1_555
Mg12 O22 2.138484 1_555
Mg12 O20 2.138568 1_655
Mg12 O30 2.138568 1_555
Mg12 O10 2.161260 1_555
Mg12 O14 2.161260 1_555
Mg13 O31 2.138484 1_555
Mg13 O23 2.138484 1_555
Mg13 O21 2.138568 1_655
Mg13 O30 2.138568 1_565
Mg13 O15 2.161260 1_555
Mg13 O11 2.161260 1_555
Mg14 O0 2.134716 1_555
Mg14 O20 2.135547 1_555
Mg14 O10 2.140371 1_455
Mg14 O8 2.140371 1_555
Mg14 O1 2.145088 1_555
Mg14 O16 2.175147 1_555
Mg15 O0 2.134716 1_565
Mg15 O21 2.135547 1_555
Mg15 O11 2.140371 1_455
Mg15 O9 2.140371 1_555
Mg15 O1 2.145088 1_555
Mg15 O17 2.175147 1_555
Mg16 O2 2.116052 1_555
Mg16 O22 2.132675 1_555
Mg16 O8 2.137053 1_555
Mg16 O10 2.137053 1_555
Mg16 O3 2.163033 1_555
Mg16 O18 2.180044 1_555
Mg17 O2 2.116052 1_565
Mg17 O23 2.132675 1_555
Mg17 O9 2.137053 1_555
Mg17 O11 2.137053 1_555
Mg17 O3 2.163033 1_555
Mg17 O19 2.180044 1_555
Mg18 O4 2.134716 1_555
Mg18 O20 2.135547 1_555
Mg18 O14 2.140371 1_455
Mg18 O12 2.140371 1_555
Mg18 O5 2.145088 1_555
Mg18 O16 2.175147 1_556
Mg19 O4 2.134716 1_565
Mg19 O21 2.135547 1_555
Mg19 O15 2.140371 1_455
Mg19 O13 2.140371 1_555
Mg19 O5 2.145088 1_555
Mg19 O17 2.175147 1_556
Mg20 O6 2.116052 1_555
Mg20 O22 2.132675 1_555
Mg20 O12 2.137053 1_555
Mg20 O14 2.137053 1_555
Mg20 O7 2.163033 1_555
Mg20 O18 2.180044 1_556
Mg21 O6 2.116052 1_565
Mg21 O23 2.132675 1_555
Mg21 O13 2.137053 1_555
Mg21 O15 2.137053 1_555
Mg21 O7 2.163033 1_555
Mg21 O19 2.180044 1_556
Mg22 O0 2.134716 1_555
Mg22 O28 2.135547 1_555
Mg22 O9 2.140371 1_545
Mg22 O8 2.140371 1_555
Mg22 O2 2.145088 1_555
Mg22 O24 2.175147 1_555
Mg23 O1 2.116052 1_555
Mg23 O29 2.132675 1_555
Mg23 O8 2.137053 1_555
Mg23 O9 2.137053 1_555
Mg23 O3 2.163033 1_555
Mg23 O25 2.180044 1_555
Mg24 O0 2.134716 1_655
Mg24 O30 2.135547 1_555
Mg24 O11 2.140371 1_545
Mg24 O10 2.140371 1_555
Mg24 O2 2.145088 1_555
Mg24 O26 2.175147 1_555
Mg25 O1 2.116052 1_655
Mg25 O31 2.132675 1_555
Mg25 O10 2.137053 1_555
Mg25 O11 2.137053 1_555
Mg25 O3 2.163033 1_555
Mg25 O27 2.180044 1_555
Mg26 O4 2.134716 1_555
Mg26 O28 2.135547 1_555
Mg26 O13 2.140371 1_545
Mg26 O12 2.140371 1_555
Mg26 O6 2.145088 1_555
Mg26 O24 2.175147 1_556
Mg27 O5 2.116052 1_555
Mg27 O29 2.132675 1_555
Mg27 O12 2.137053 1_555
Mg27 O13 2.137053 1_555
Mg27 O7 2.163033 1_555
Mg27 O25 2.180044 1_556
Mg28 O4 2.134716 1_655
Mg28 O30 2.135547 1_555
Mg28 O15 2.140371 1_545
Mg28 O14 2.140371 1_555
Mg28 O6 2.145088 1_555
Mg28 O26 2.175147 1_556
Mg29 O5 2.116052 1_655
Mg29 O31 2.132675 1_555
Mg29 O14 2.137053 1_555
Mg29 O15 2.137053 1_555
Mg29 O7 2.163033 1_555
Mg29 O27 2.180044 1_556
Cr0 O26 2.131345 1_455
Cr0 O17 2.131345 1_545
Cr0 O24 2.131345 1_555
Cr0 O16 2.131345 1_555
Cr0 O4 2.285747 1_554
Cr0 O0 2.285747 1_555
Cd0 O18 2.258019 1_555
Cd0 O27 2.258019 1_555
Cd0 O19 2.258019 1_555
Cd0 O25 2.258019 1_555
Cd0 O3 2.273953 1_555
Cd0 O7 2.273953 1_554
