# generated using pymatgen
data_Zn2SnO4
_symmetry_space_group_name_H-M   'P 1'
_cell_length_a   6.19975528
_cell_length_b   6.19975528
_cell_length_c   6.19975528
_cell_angle_alpha   60.00000000
_cell_angle_beta   60.00000000
_cell_angle_gamma   60.00000000
_symmetry_Int_Tables_number   1
_chemical_formula_structural   Zn2SnO4
_chemical_formula_sum   'Zn4 Sn2 O8'
_cell_volume   168.50339037
_cell_formula_units_Z   2
loop_
 _symmetry_equiv_pos_site_id
 _symmetry_equiv_pos_as_xyz
  1  'x, y, z'
loop_
 _atom_site_type_symbol
 _atom_site_label
 _atom_site_symmetry_multiplicity
 _atom_site_fract_x
 _atom_site_fract_y
 _atom_site_fract_z
 _atom_site_occupancy
  Zn  Zn0  1  0.62500000  0.12500000  0.12500000  1
  Zn  Zn1  1  0.12500000  0.62500000  0.12500000  1
  Zn  Zn2  1  0.12500000  0.12500000  0.62500000  1
  Zn  Zn3  1  0.12500000  0.12500000  0.12500000  1
  Sn  Sn0  1  0.50000000  0.50000000  0.50000000  1
  Sn  Sn1  1  0.75000000  0.75000000  0.75000000  1
  O  O0  1  0.89571600  0.36809500  0.36809500  1
  O  O1  1  0.36809500  0.89571600  0.36809500  1
  O  O2  1  0.36809500  0.36809500  0.89571600  1
  O  O3  1  0.36809500  0.36809500  0.36809500  1
  O  O4  1  0.35428400  0.88190500  0.88190500  1
  O  O5  1  0.88190500  0.35428400  0.88190500  1
  O  O6  1  0.88190500  0.88190500  0.35428400  1
  O  O7  1  0.88190500  0.88190500  0.88190500  1
loop_
_geom_bond_atom_site_label_1
_geom_bond_atom_site_label_2
_geom_bond_distance
_geom_bond_site_symmetry_2
O0 Sn0 2.003146 1_555
O0 Zn2 2.133118 1_655
O0 Zn1 2.133118 1_655
O0 Zn3 2.133122 1_655
O1 Sn0 2.003146 1_555
O1 Zn2 2.133118 1_565
O1 Zn0 2.133118 1_565
O1 Zn3 2.133122 1_565
O2 Sn0 2.003146 1_555
O2 Zn1 2.133118 1_556
O2 Zn0 2.133118 1_556
O2 Zn3 2.133122 1_556
O3 Sn0 2.003141 1_555
O3 Zn0 2.133122 1_555
O3 Zn1 2.133122 1_555
O3 Zn2 2.133122 1_555
O4 Sn1 2.003146 1_555
O4 Zn1 2.133118 1_556
O4 Zn2 2.133118 1_565
O4 Zn3 2.133122 1_566
O5 Sn1 2.003146 1_555
O5 Zn0 2.133118 1_556
O5 Zn2 2.133118 1_655
O5 Zn3 2.133122 1_656
O6 Sn1 2.003146 1_555
O6 Zn0 2.133118 1_565
O6 Zn1 2.133118 1_655
O6 Zn3 2.133122 1_665
O7 Sn1 2.003141 1_555
O7 Zn2 2.133122 1_665
O7 Zn0 2.133122 1_566
O7 Zn1 2.133122 1_656
