# generated using pymatgen
data_Nd(ClO2)3
_symmetry_space_group_name_H-M   'P 1'
_cell_length_a   7.78501000
_cell_length_b   7.84568349
_cell_length_c   6.73875475
_cell_angle_alpha   120.17018983
_cell_angle_beta   90.00000000
_cell_angle_gamma   90.00000000
_symmetry_Int_Tables_number   1
_chemical_formula_structural   Nd(ClO2)3
_chemical_formula_sum   'Nd2 Cl6 O12'
_cell_volume   355.83846519
_cell_formula_units_Z   2
loop_
 _symmetry_equiv_pos_site_id
 _symmetry_equiv_pos_as_xyz
  1  'x, y, z'
loop_
 _atom_site_type_symbol
 _atom_site_label
 _atom_site_symmetry_multiplicity
 _atom_site_fract_x
 _atom_site_fract_y
 _atom_site_fract_z
 _atom_site_occupancy
  Nd  Nd0  1  0.13106700  0.25000000  0.25000000  1
  Nd  Nd1  1  0.86893300  0.75000000  0.75000000  1
  Cl  Cl0  1  0.81001400  0.18420900  0.48531200  1
  Cl  Cl1  1  0.18998600  0.81579100  0.51468800  1
  Cl  Cl2  1  0.81001400  0.31579100  0.01468800  1
  Cl  Cl3  1  0.18998600  0.68420900  0.98531200  1
  Cl  Cl4  1  0.38519800  0.25000000  0.75000000  1
  Cl  Cl5  1  0.61480200  0.75000000  0.25000000  1
  O  O0  1  0.09690500  0.88981000  0.01899400  1
  O  O1  1  0.90309500  0.11019000  0.98100600  1
  O  O2  1  0.09690500  0.61019000  0.48100600  1
  O  O3  1  0.90309500  0.38981000  0.51899400  1
  O  O4  1  0.46411700  0.46396000  0.40428100  1
  O  O5  1  0.53588300  0.53604000  0.59571900  1
  O  O6  1  0.46411700  0.03604000  0.09571900  1
  O  O7  1  0.53588300  0.96396000  0.90428100  1
  O  O8  1  0.27319800  0.32058200  0.97163400  1
  O  O9  1  0.72680200  0.67941800  0.02836600  1
  O  O10  1  0.27319800  0.17941800  0.52836600  1
  O  O11  1  0.72680200  0.82058200  0.47163400  1
loop_
_geom_bond_atom_site_label_1
_geom_bond_atom_site_label_2
_geom_bond_distance
_geom_bond_site_symmetry_2
Nd0 O3 2.374921 1_455
Nd0 O1 2.374921 1_454
Nd0 O0 2.461344 1_545
Nd0 O2 2.461344 1_555
Nd0 O10 2.468576 1_555
Nd0 O8 2.468576 1_554
Nd0 O4 2.977783 1_555
Nd0 O6 2.977783 1_555
Nd1 O2 2.374921 1_655
Nd1 O0 2.374921 1_656
Nd1 O1 2.461344 1_565
Nd1 O3 2.461344 1_555
Nd1 O11 2.468576 1_555
Nd1 O9 2.468576 1_556
Nd1 O7 2.977783 1_555
Nd1 O5 2.977783 1_555
Cl0 O3 1.676494 1_555
Cl1 O2 1.676494 1_555
Cl2 O1 1.676494 1_554
Cl3 O0 1.676494 1_556
Cl4 O10 1.570425 1_555
Cl4 O8 1.570425 1_555
Cl5 O9 1.570425 1_555
Cl5 O11 1.570425 1_555
O4 O5 1.250158 1_555
O6 O7 1.250158 1_544
