# generated using pymatgen
data_Li2AlGaSi2(H2O5)2
_symmetry_space_group_name_H-M   'P 1'
_cell_length_a   5.05286100
_cell_length_b   8.31850413
_cell_length_c   10.60459530
_cell_angle_alpha   90.05821886
_cell_angle_beta   90.00000000
_cell_angle_gamma   90.00000000
_symmetry_Int_Tables_number   1
_chemical_formula_structural   Li2AlGaSi2(H2O5)2
_chemical_formula_sum   'Li4 Al2 Ga2 Si4 H8 O20'
_cell_volume   445.73471864
_cell_formula_units_Z   2
loop_
 _symmetry_equiv_pos_site_id
 _symmetry_equiv_pos_as_xyz
  1  'x, y, z'
loop_
 _atom_site_type_symbol
 _atom_site_label
 _atom_site_symmetry_multiplicity
 _atom_site_fract_x
 _atom_site_fract_y
 _atom_site_fract_z
 _atom_site_occupancy
  Li  Li0  1  0.24304000  0.68653900  0.18618700  1
  Li  Li1  1  0.74304000  0.31346100  0.81381300  1
  Li  Li2  1  0.74079700  0.17932800  0.31157000  1
  Li  Li3  1  0.24079700  0.82067200  0.68843000  1
  Al  Al0  1  0.24787400  0.08080800  0.15608800  1
  Al  Al1  1  0.74787400  0.91919200  0.84391200  1
  Ga  Ga0  1  0.74543900  0.58175100  0.34486400  1
  Ga  Ga1  1  0.24543900  0.41824900  0.65513600  1
  Si  Si0  1  0.74880700  0.87510700  0.14287100  1
  Si  Si1  1  0.24880700  0.12489300  0.85712900  1
  Si  Si2  1  0.24785700  0.36992600  0.35361200  1
  Si  Si3  1  0.74785700  0.63007400  0.64638800  1
  H  H0  1  0.65564300  0.33023700  0.03793500  1
  H  H1  1  0.15564300  0.66976300  0.96206500  1
  H  H2  1  0.15404800  0.83023700  0.46464200  1
  H  H3  1  0.65404800  0.16976300  0.53535800  1
  H  H4  1  0.88437700  0.46046400  0.01876300  1
  H  H5  1  0.38437700  0.53953600  0.98123700  1
  H  H6  1  0.38480300  0.96082400  0.48155700  1
  H  H7  1  0.88480300  0.03917600  0.51844300  1
  O  O0  1  0.22033800  0.58476000  0.01738300  1
  O  O1  1  0.72033800  0.41524000  0.98261700  1
  O  O2  1  0.72031000  0.08283700  0.48191200  1
  O  O3  1  0.22031000  0.91716300  0.51808800  1
  O  O4  1  0.86737400  0.72245300  0.22341800  1
  O  O5  1  0.36737400  0.27754700  0.77658200  1
  O  O6  1  0.36426600  0.22005200  0.26945400  1
  O  O7  1  0.86426600  0.77994800  0.73054600  1
  O  O8  1  0.39140200  0.54066700  0.31172400  1
  O  O9  1  0.89140200  0.45933300  0.68827600  1
  O  O10  1  0.90950300  0.03918400  0.18631100  1
  O  O11  1  0.40950300  0.96081600  0.81368900  1
  O  O12  1  0.81763500  0.67061900  0.49920700  1
  O  O13  1  0.31763500  0.32938100  0.50079300  1
  O  O14  1  0.30476300  0.16000000  0.00577100  1
  O  O15  1  0.80476300  0.84000000  0.99422900  1
  O  O16  1  0.92917000  0.38824500  0.32402300  1
  O  O17  1  0.42917000  0.61175500  0.67597700  1
  O  O18  1  0.43255400  0.89925100  0.17558600  1
  O  O19  1  0.93255400  0.10074900  0.82441400  1
loop_
_geom_bond_atom_site_label_1
_geom_bond_atom_site_label_2
_geom_bond_distance
_geom_bond_site_symmetry_2
Li0 O8 1.951914 1_555
Li0 O4 1.961635 1_455
Li0 O0 1.982762 1_555
Li0 O18 2.015181 1_555
Li1 O9 1.951914 1_555
Li1 O5 1.961635 1_555
Li1 O1 1.982762 1_555
Li1 O19 2.015181 1_555
Li2 O10 1.961382 1_555
Li2 O2 1.980161 1_555
Li2 O6 1.983499 1_555
Li2 O16 1.985738 1_555
Li3 O11 1.961382 1_555
Li3 O3 1.980161 1_555
Li3 O7 1.983499 1_455
Li3 O17 1.985738 1_555
Al0 O14 1.749207 1_555
Al0 O6 1.769179 1_555
Al0 O10 1.773712 1_455
Al0 O18 1.787494 1_545
Al1 O15 1.749207 1_555
Al1 O7 1.769179 1_555
Al1 O11 1.773712 1_555
Al1 O19 1.787494 1_565
Ga0 O12 1.831950 1_555
Ga0 O4 1.846950 1_555
Ga0 O8 1.854784 1_555
Ga0 O16 1.871112 1_555
Ga1 O13 1.831950 1_555
Ga1 O5 1.846950 1_555
Ga1 O9 1.854784 1_455
Ga1 O17 1.871112 1_555
H0 O1 0.975612 1_554
H1 O0 0.975612 1_556
H2 O3 0.977427 1_555
H3 O2 0.977427 1_555
H4 O1 0.987512 1_554
H5 O0 0.987512 1_556
H6 O3 0.986458 1_555
H7 O2 0.986458 1_555
O4 Si0 1.644159 1_555
O5 Si1 1.644159 1_555
O6 Si2 1.641503 1_555
O7 Si3 1.641503 1_555
O8 Si2 1.655886 1_555
O9 Si3 1.655886 1_555
O10 Si0 1.653215 1_545
O11 Si1 1.653215 1_565
O12 Si3 1.635609 1_555
O13 Si2 1.635609 1_555
O14 Si1 1.627567 1_554
O15 Si0 1.627567 1_556
O16 Si2 1.647659 1_655
O17 Si3 1.647659 1_555
O18 Si0 1.647454 1_555
O19 Si1 1.647454 1_655
