# generated using pymatgen
data_Yb2MgS4
_symmetry_space_group_name_H-M   'P 1'
_cell_length_a   3.95259600
_cell_length_b   12.75914400
_cell_length_c   13.57123700
_cell_angle_alpha   90.00000000
_cell_angle_beta   90.00000000
_cell_angle_gamma   90.00000000
_symmetry_Int_Tables_number   1
_chemical_formula_structural   Yb2MgS4
_chemical_formula_sum   'Yb8 Mg4 S16'
_cell_volume   684.42111673
_cell_formula_units_Z   4
loop_
 _symmetry_equiv_pos_site_id
 _symmetry_equiv_pos_as_xyz
  1  'x, y, z'
loop_
 _atom_site_type_symbol
 _atom_site_label
 _atom_site_symmetry_multiplicity
 _atom_site_fract_x
 _atom_site_fract_y
 _atom_site_fract_z
 _atom_site_occupancy
  Yb  Yb0  1  0.25000000  0.05464000  0.11412900  1
  Yb  Yb1  1  0.75000000  0.94536000  0.88587100  1
  Yb  Yb2  1  0.75000000  0.55464000  0.38587100  1
  Yb  Yb3  1  0.25000000  0.44536000  0.61412900  1
  Yb  Yb4  1  0.25000000  0.72848400  0.12323600  1
  Yb  Yb5  1  0.75000000  0.27151600  0.87676400  1
  Yb  Yb6  1  0.75000000  0.22848400  0.37676400  1
  Yb  Yb7  1  0.25000000  0.77151600  0.62323600  1
  Mg  Mg0  1  0.75000000  0.43656000  0.08933900  1
  Mg  Mg1  1  0.25000000  0.56344000  0.91066100  1
  Mg  Mg2  1  0.25000000  0.93656000  0.41066100  1
  Mg  Mg3  1  0.75000000  0.06344000  0.58933900  1
  S  S0  1  0.75000000  0.61792200  0.02595300  1
  S  S1  1  0.25000000  0.38207800  0.97404700  1
  S  S2  1  0.25000000  0.11792200  0.47404700  1
  S  S3  1  0.75000000  0.88207800  0.52595300  1
  S  S4  1  0.25000000  0.88225200  0.99910900  1
  S  S5  1  0.75000000  0.11774800  0.00089100  1
  S  S6  1  0.75000000  0.38225200  0.50089100  1
  S  S7  1  0.25000000  0.61774800  0.49910900  1
  S  S8  1  0.25000000  0.27856200  0.23748600  1
  S  S9  1  0.75000000  0.72143800  0.76251400  1
  S  S10  1  0.75000000  0.77856200  0.26251400  1
  S  S11  1  0.25000000  0.22143800  0.73748600  1
  S  S12  1  0.75000000  0.94560200  0.27344800  1
  S  S13  1  0.25000000  0.05439800  0.72655200  1
  S  S14  1  0.25000000  0.44560200  0.22655200  1
  S  S15  1  0.75000000  0.55439800  0.77344800  1
loop_
_geom_bond_atom_site_label_1
_geom_bond_atom_site_label_2
_geom_bond_distance
_geom_bond_site_symmetry_2
Mg0 S0 2.468744 1_555
Mg0 S1 2.614789 1_554
Mg0 S1 2.614789 1_654
Mg0 S14 2.717842 1_655
Mg0 S14 2.717842 1_555
Mg1 S1 2.468744 1_555
Mg1 S0 2.614789 1_456
Mg1 S0 2.614789 1_556
Mg1 S15 2.717842 1_555
Mg1 S15 2.717842 1_455
Mg2 S2 2.468744 1_565
Mg2 S3 2.614789 1_455
Mg2 S3 2.614789 1_555
Mg2 S12 2.717842 1_455
Mg2 S12 2.717842 1_555
Mg3 S3 2.468744 1_545
Mg3 S2 2.614789 1_555
Mg3 S2 2.614789 1_655
Mg3 S13 2.717842 1_555
Mg3 S13 2.717842 1_655
S0 Yb4 2.763842 1_555
S0 Yb4 2.763842 1_655
S1 Yb5 2.763842 1_555
S1 Yb5 2.763842 1_455
S2 Yb6 2.763842 1_455
S2 Yb6 2.763842 1_555
S3 Yb7 2.763842 1_555
S3 Yb7 2.763842 1_655
S4 Yb4 2.585918 1_556
S4 Yb1 2.629791 1_455
S4 Yb1 2.629791 1_555
S4 Yb0 2.697130 1_566
S5 Yb5 2.585918 1_554
S5 Yb0 2.629791 1_655
S5 Yb0 2.629791 1_555
S5 Yb1 2.697130 1_544
S6 Yb6 2.585918 1_555
S6 Yb3 2.629791 1_555
S6 Yb3 2.629791 1_655
S6 Yb2 2.697130 1_555
S7 Yb7 2.585918 1_555
S7 Yb2 2.629791 1_555
S7 Yb2 2.629791 1_455
S7 Yb3 2.697130 1_555
S8 Yb6 2.808340 1_455
S8 Yb6 2.808340 1_555
S8 Yb0 3.311403 1_555
S9 Yb7 2.808340 1_555
S9 Yb7 2.808340 1_655
S9 Yb1 3.311403 1_555
S10 S12 2.136447 1_555
S10 Yb4 2.808340 1_655
S10 Yb4 2.808340 1_555
S10 Yb2 3.311403 1_555
S11 S13 2.136447 1_555
S11 Yb5 2.808340 1_555
S11 Yb5 2.808340 1_455
S11 Yb3 3.311403 1_555
S12 Yb0 3.242869 1_565
S12 Yb0 3.242869 1_665
S13 Yb1 3.242869 1_445
S13 Yb1 3.242869 1_545
S14 S8 2.136447 1_555
S14 Yb2 3.242869 1_455
S14 Yb2 3.242869 1_555
S15 S9 2.136447 1_555
S15 Yb3 3.242869 1_555
S15 Yb3 3.242869 1_655
