# generated using pymatgen
data_ZnCdTeSe
_symmetry_space_group_name_H-M   'P 1'
_cell_length_a   4.36851468
_cell_length_b   4.35996200
_cell_length_c   7.24206274
_cell_angle_alpha   90.00000000
_cell_angle_beta   89.91387887
_cell_angle_gamma   60.06474240
_symmetry_Int_Tables_number   1
_chemical_formula_structural   ZnCdTeSe
_chemical_formula_sum   'Zn1 Cd1 Te1 Se1'
_cell_volume   119.53407458
_cell_formula_units_Z   1
loop_
 _symmetry_equiv_pos_site_id
 _symmetry_equiv_pos_as_xyz
  1  'x, y, z'
loop_
 _atom_site_type_symbol
 _atom_site_label
 _atom_site_symmetry_multiplicity
 _atom_site_fract_x
 _atom_site_fract_y
 _atom_site_fract_z
 _atom_site_occupancy
  Zn  Zn0  1  0.33323800  0.33338100  0.01482900  1
  Cd  Cd0  1  0.66591600  0.66704200  0.47721600  1
  Te  Te0  1  0.33423900  0.33288000  0.64601000  1
  Se  Se0  1  0.66660700  0.66669700  0.10994600  1
loop_
_geom_bond_atom_site_label_1
_geom_bond_atom_site_label_2
_geom_bond_distance
_geom_bond_site_symmetry_2
Cd0 Se0 2.659789 1_555
Cd0 Te0 2.796051 1_565
Cd0 Te0 2.796054 1_555
Cd0 Te0 2.811818 1_655
Te0 Zn0 2.671006 1_556
Se0 Zn0 2.612005 1_565
Se0 Zn0 2.612009 1_555
Se0 Zn0 2.614841 1_655
