# generated using pymatgen
data_Al2Co2O7
_symmetry_space_group_name_H-M   'P 1'
_cell_length_a   6.53189748
_cell_length_b   6.53189748
_cell_length_c   6.53189748
_cell_angle_alpha   60.00000000
_cell_angle_beta   60.00000000
_cell_angle_gamma   60.00000000
_symmetry_Int_Tables_number   1
_chemical_formula_structural   Al2Co2O7
_chemical_formula_sum   'Al4 Co4 O14'
_cell_volume   197.06208831
_cell_formula_units_Z   2
loop_
 _symmetry_equiv_pos_site_id
 _symmetry_equiv_pos_as_xyz
  1  'x, y, z'
loop_
 _atom_site_type_symbol
 _atom_site_label
 _atom_site_symmetry_multiplicity
 _atom_site_fract_x
 _atom_site_fract_y
 _atom_site_fract_z
 _atom_site_occupancy
  Al  Al0  1  0.62500000  0.62500000  0.12500000  1
  Al  Al1  1  0.62500000  0.12500000  0.62500000  1
  Al  Al2  1  0.12500000  0.62500000  0.62500000  1
  Al  Al3  1  0.62500000  0.62500000  0.62500000  1
  Co  Co0  1  0.12500000  0.12500000  0.62500000  1
  Co  Co1  1  0.12500000  0.62500000  0.12500000  1
  Co  Co2  1  0.62500000  0.12500000  0.12500000  1
  Co  Co3  1  0.12500000  0.12500000  0.12500000  1
  O  O0  1  0.75000000  0.75000000  0.75000000  1
  O  O1  1  0.50000000  0.50000000  0.50000000  1
  O  O2  1  0.03282100  0.46717900  0.03282100  1
  O  O3  1  0.78282100  0.21717900  0.78282100  1
  O  O4  1  0.03282100  0.03282100  0.46717900  1
  O  O5  1  0.46717900  0.03282100  0.03282100  1
  O  O6  1  0.03282100  0.46717900  0.46717900  1
  O  O7  1  0.46717900  0.46717900  0.03282100  1
  O  O8  1  0.46717900  0.03282100  0.46717900  1
  O  O9  1  0.21717900  0.78282100  0.78282100  1
  O  O10  1  0.78282100  0.21717900  0.21717900  1
  O  O11  1  0.21717900  0.78282100  0.21717900  1
  O  O12  1  0.78282100  0.78282100  0.21717900  1
  O  O13  1  0.21717900  0.21717900  0.78282100  1
loop_
_geom_bond_atom_site_label_1
_geom_bond_atom_site_label_2
_geom_bond_distance
_geom_bond_site_symmetry_2
Al0 O0 1.999977 1_554
Al0 O1 1.999977 1_555
Al0 O5 2.189062 1_565
Al0 O2 2.189062 1_655
Al0 O12 2.189062 1_555
Al0 O10 2.189062 1_555
Al0 O11 2.189062 1_555
Al0 O7 2.189062 1_555
Al1 O1 1.999977 1_555
Al1 O0 1.999977 1_545
Al1 O4 2.189062 1_655
Al1 O5 2.189062 1_556
Al1 O3 2.189062 1_555
Al1 O13 2.189062 1_555
Al1 O10 2.189062 1_555
Al1 O8 2.189062 1_555
Al2 O1 1.999977 1_555
Al2 O0 1.999977 1_455
Al2 O4 2.189062 1_565
Al2 O2 2.189062 1_556
Al2 O9 2.189062 1_555
Al2 O13 2.189062 1_555
Al2 O11 2.189062 1_555
Al2 O6 2.189062 1_555
Al3 O0 1.999977 1_555
Al3 O1 1.999977 1_555
Al3 O8 2.189062 1_565
Al3 O7 2.189062 1_556
Al3 O6 2.189062 1_655
Al3 O12 2.189062 1_555
Al3 O9 2.189062 1_555
Al3 O3 2.189062 1_555
Co0 O13 1.841647 1_555
Co0 O6 1.841647 1_555
Co0 O8 1.841647 1_555
Co0 O3 1.841647 1_455
Co0 O9 1.841647 1_545
Co0 O4 1.841647 1_555
Co1 O11 1.841647 1_555
Co1 O6 1.841647 1_555
Co1 O7 1.841647 1_555
Co1 O12 1.841647 1_455
Co1 O9 1.841647 1_554
Co1 O2 1.841647 1_555
Co2 O10 1.841647 1_555
Co2 O8 1.841647 1_555
Co2 O7 1.841647 1_555
Co2 O3 1.841647 1_554
Co2 O12 1.841647 1_545
Co2 O5 1.841647 1_555
Co3 O4 1.841647 1_555
Co3 O5 1.841647 1_555
Co3 O2 1.841647 1_555
Co3 O10 1.841647 1_455
Co3 O13 1.841647 1_554
Co3 O11 1.841647 1_545
