# generated using pymatgen
data_Na3TaF8
_symmetry_space_group_name_H-M   'P 1'
_cell_length_a   6.30914691
_cell_length_b   6.30914691
_cell_length_c   11.13824049
_cell_angle_alpha   61.68023085
_cell_angle_beta   61.68023085
_cell_angle_gamma   49.78727538
_symmetry_Int_Tables_number   1
_chemical_formula_structural   Na3TaF8
_chemical_formula_sum   'Na6 Ta2 F16'
_cell_volume   288.58155302
_cell_formula_units_Z   2
loop_
 _symmetry_equiv_pos_site_id
 _symmetry_equiv_pos_as_xyz
  1  'x, y, z'
loop_
 _atom_site_type_symbol
 _atom_site_label
 _atom_site_symmetry_multiplicity
 _atom_site_fract_x
 _atom_site_fract_y
 _atom_site_fract_z
 _atom_site_occupancy
  Na  Na0  1  0.29321054  0.27708378  0.60076470  1
  Na  Na1  1  0.72291622  0.70678946  0.89923530  1
  Na  Na2  1  0.70678946  0.72291622  0.39923530  1
  Na  Na3  1  0.27708378  0.29321054  0.10076470  1
  Na  Na4  1  0.00000000  0.00000000  0.50000000  1
  Na  Na5  1  0.00000000  0.00000000  0.00000000  1
  Ta  Ta0  1  0.56643829  0.43356171  0.75000000  1
  Ta  Ta1  1  0.43356171  0.56643829  0.25000000  1
  F  F0  1  0.63079914  0.10294068  0.71440346  1
  F  F1  1  0.89705932  0.36920086  0.78559654  1
  F  F2  1  0.36920086  0.89705932  0.28559654  1
  F  F3  1  0.10294068  0.63079914  0.21440346  1
  F  F4  1  0.20184257  0.44921329  0.86274460  1
  F  F5  1  0.55078671  0.79815743  0.63725540  1
  F  F6  1  0.79815743  0.55078671  0.13725540  1
  F  F7  1  0.44921329  0.20184257  0.36274460  1
  F  F8  1  0.65733963  0.37523441  0.39118014  1
  F  F9  1  0.62476559  0.34266037  0.10881986  1
  F  F10  1  0.34266037  0.62476559  0.60881986  1
  F  F11  1  0.37523441  0.65733963  0.89118014  1
  F  F12  1  0.09876165  0.68054671  0.41774474  1
  F  F13  1  0.31945329  0.90123835  0.08225526  1
  F  F14  1  0.90123835  0.31945329  0.58225526  1
  F  F15  1  0.68054671  0.09876165  0.91774474  1
loop_
_geom_bond_atom_site_label_1
_geom_bond_atom_site_label_2
_geom_bond_distance
_geom_bond_site_symmetry_2
F0 Ta0 2.052176 1_555
F0 Na1 2.280461 1_545
F0 Na0 2.358470 1_555
F0 Na4 2.406428 1_655
F1 Ta0 2.052176 1_555
F1 Na0 2.280461 1_655
F1 Na1 2.358470 1_555
F1 Na5 2.406428 1_656
F2 Ta1 2.052176 1_555
F2 Na3 2.280461 1_565
F2 Na2 2.358470 1_555
F2 Na4 2.406428 1_565
F3 Ta1 2.052176 1_555
F3 Na2 2.280461 1_455
F3 Na3 2.358470 1_555
F3 Na5 2.406428 1_565
F4 Ta0 1.990401 1_555
F4 Na1 2.248815 1_455
F4 Na3 2.517455 1_556
F5 Ta0 1.990401 1_555
F5 Na0 2.248815 1_565
F5 Na2 2.517455 1_555
F6 Ta1 1.990401 1_555
F6 Na3 2.248815 1_655
F6 Na1 2.517455 1_554
F7 Ta1 1.990401 1_555
F7 Na2 2.248815 1_545
F7 Na0 2.517455 1_555
F8 Ta1 2.007165 1_555
F8 Na4 2.214139 1_655
F8 Na2 2.452373 1_555
F8 Na0 2.547129 1_555
F9 Ta1 2.007165 1_555
F9 Na5 2.214139 1_655
F9 Na3 2.452373 1_555
F9 Na1 2.547129 1_554
F10 Ta0 2.007165 1_555
F10 Na4 2.214139 1_565
F10 Na0 2.452373 1_555
F10 Na2 2.547129 1_555
F11 Ta0 2.007165 1_555
F11 Na5 2.214139 1_566
F11 Na1 2.452373 1_555
F11 Na3 2.547129 1_556
F12 Ta1 2.009751 1_555
F12 Na4 2.208733 1_565
F12 Na0 2.357397 1_555
F12 Na2 2.409889 1_455
F13 Ta1 2.009751 1_555
F13 Na5 2.208733 1_565
F13 Na1 2.357397 1_554
F13 Na3 2.409889 1_565
F14 Ta0 2.009751 1_555
F14 Na4 2.208733 1_655
F14 Na2 2.357397 1_555
F14 Na0 2.409889 1_655
F15 Ta0 2.009751 1_555
F15 Na5 2.208733 1_656
F15 Na3 2.357397 1_556
F15 Na1 2.409889 1_545
