# generated using pymatgen
data_BaAl
_symmetry_space_group_name_H-M   'P 1'
_cell_length_a   4.70975900
_cell_length_b   6.42389900
_cell_length_c   9.83680200
_cell_angle_alpha   90.00000000
_cell_angle_beta   90.00000000
_cell_angle_gamma   90.00000000
_symmetry_Int_Tables_number   1
_chemical_formula_structural   BaAl
_chemical_formula_sum   'Ba4 Al4'
_cell_volume   297.61260318
_cell_formula_units_Z   4
loop_
 _symmetry_equiv_pos_site_id
 _symmetry_equiv_pos_as_xyz
  1  'x, y, z'
loop_
 _atom_site_type_symbol
 _atom_site_label
 _atom_site_symmetry_multiplicity
 _atom_site_fract_x
 _atom_site_fract_y
 _atom_site_fract_z
 _atom_site_occupancy
  Ba  Ba0  1  0.25000000  0.08593300  0.67861300  1
  Ba  Ba1  1  0.75000000  0.91406700  0.32138700  1
  Ba  Ba2  1  0.75000000  0.58593300  0.82138700  1
  Ba  Ba3  1  0.25000000  0.41406700  0.17861300  1
  Al  Al0  1  0.25000000  0.91554800  0.02261200  1
  Al  Al1  1  0.75000000  0.08445200  0.97738800  1
  Al  Al2  1  0.75000000  0.41554800  0.47738800  1
  Al  Al3  1  0.25000000  0.58445200  0.52261200  1
loop_
_geom_bond_atom_site_label_1
_geom_bond_atom_site_label_2
_geom_bond_distance
_geom_bond_site_symmetry_2
Al0 Al1 2.630709 1_464
Al0 Al1 2.630709 1_564
Al0 Ba3 3.551118 1_565
Al0 Ba0 3.556466 1_564
Al0 Ba3 3.568287 1_555
Al0 Ba2 3.734563 1_454
Al0 Ba2 3.734563 1_554
Al0 Ba1 3.766061 1_555
Al0 Ba1 3.766061 1_455
Al1 Ba2 3.551118 1_545
Al1 Ba1 3.556466 1_546
Al1 Ba2 3.568287 1_555
Al1 Ba3 3.734563 1_656
Al1 Ba3 3.734563 1_556
Al1 Ba0 3.766061 1_655
Al1 Ba0 3.766061 1_555
Al2 Al3 2.630709 1_655
Al2 Al3 2.630709 1_555
Al2 Ba1 3.551118 1_555
Al2 Ba2 3.556466 1_555
Al2 Ba1 3.568287 1_545
Al2 Ba0 3.734563 1_555
Al2 Ba0 3.734563 1_655
Al2 Ba3 3.766061 1_555
Al2 Ba3 3.766061 1_655
Al3 Ba0 3.551118 1_555
Al3 Ba3 3.556466 1_555
Al3 Ba0 3.568287 1_565
Al3 Ba1 3.734563 1_455
Al3 Ba1 3.734563 1_555
Al3 Ba2 3.766061 1_555
Al3 Ba2 3.766061 1_455
