# generated using pymatgen
data_MnPNO5
_symmetry_space_group_name_H-M   'P 1'
_cell_length_a   5.31202000
_cell_length_b   5.72449300
_cell_length_c   7.96436400
_cell_angle_alpha   90.00000000
_cell_angle_beta   90.00000000
_cell_angle_gamma   90.00000000
_symmetry_Int_Tables_number   1
_chemical_formula_structural   MnPNO5
_chemical_formula_sum   'Mn2 P2 N2 O10'
_cell_volume   242.18532882
_cell_formula_units_Z   2
loop_
 _symmetry_equiv_pos_site_id
 _symmetry_equiv_pos_as_xyz
  1  'x, y, z'
loop_
 _atom_site_type_symbol
 _atom_site_label
 _atom_site_symmetry_multiplicity
 _atom_site_fract_x
 _atom_site_fract_y
 _atom_site_fract_z
 _atom_site_occupancy
  Mn  Mn0  1  0.45700400  0.00000000  0.49540000  1
  Mn  Mn1  1  0.95700400  0.50000000  0.50460000  1
  P  P0  1  0.00265500  0.00000000  0.29470200  1
  P  P1  1  0.50265500  0.50000000  0.70529800  1
  N  N0  1  0.30514700  0.00000000  0.99598900  1
  N  N1  1  0.80514700  0.50000000  0.00401100  1
  O  O0  1  0.71791500  0.00000000  0.30696500  1
  O  O1  1  0.21791500  0.50000000  0.69303500  1
  O  O2  1  0.03896900  0.00000000  0.09300400  1
  O  O3  1  0.53896900  0.50000000  0.90699600  1
  O  O4  1  0.25948700  0.00000000  0.85349200  1
  O  O5  1  0.75948700  0.50000000  0.14650800  1
  O  O6  1  0.13441200  0.21448400  0.37621000  1
  O  O7  1  0.63441200  0.28551600  0.62379000  1
  O  O8  1  0.63441200  0.71448400  0.62379000  1
  O  O9  1  0.13441200  0.78551600  0.37621000  1
loop_
_geom_bond_atom_site_label_1
_geom_bond_atom_site_label_2
_geom_bond_distance
_geom_bond_site_symmetry_2
Mn0 O0 2.042839 1_555
Mn0 O7 2.145945 1_555
Mn0 O8 2.145945 1_545
Mn0 O6 2.311951 1_555
Mn0 O9 2.311951 1_545
Mn1 O1 2.042839 1_655
Mn1 O9 2.145945 1_655
Mn1 O6 2.145945 1_655
Mn1 O8 2.311951 1_555
Mn1 O7 2.311951 1_555
N0 O4 1.160527 1_555
N0 O2 1.611286 1_556
N1 O5 1.160527 1_555
N1 O3 1.611286 1_554
O0 P0 1.515695 1_655
O1 P1 1.515695 1_555
O2 P0 1.617937 1_555
O3 P1 1.617937 1_555
O6 P0 1.555244 1_555
O7 P1 1.555244 1_555
O8 P1 1.555244 1_555
O9 P0 1.555244 1_565
