# generated using pymatgen
data_Ca2ZrTi(SiO5)2
_symmetry_space_group_name_H-M   'P 1'
_cell_length_a   5.55410300
_cell_length_b   5.62226609
_cell_length_c   7.31170787
_cell_angle_alpha   104.09965052
_cell_angle_beta   103.88679150
_cell_angle_gamma   105.78672990
_symmetry_Int_Tables_number   1
_chemical_formula_structural   Ca2ZrTi(SiO5)2
_chemical_formula_sum   'Ca2 Zr1 Ti1 Si2 O10'
_cell_volume   201.28777020
_cell_formula_units_Z   1
loop_
 _symmetry_equiv_pos_site_id
 _symmetry_equiv_pos_as_xyz
  1  'x, y, z'
loop_
 _atom_site_type_symbol
 _atom_site_label
 _atom_site_symmetry_multiplicity
 _atom_site_fract_x
 _atom_site_fract_y
 _atom_site_fract_z
 _atom_site_occupancy
  Ca  Ca0  1  0.17708400  0.84063300  0.26108700  1
  Ca  Ca1  1  0.82291600  0.15936700  0.73891300  1
  Zr  Zr0  1  0.50000000  0.50000000  0.00000000  1
  Ti  Ti0  1  0.50000000  0.50000000  0.50000000  1
  Si  Si0  1  0.17108200  0.81159700  0.74519900  1
  Si  Si1  1  0.82891800  0.18840300  0.25480100  1
  O  O0  1  0.57784300  0.42016700  0.73673100  1
  O  O1  1  0.42215700  0.57983300  0.26326900  1
  O  O2  1  0.87529600  0.74851600  0.58585900  1
  O  O3  1  0.76389300  0.89392900  0.09955800  1
  O  O4  1  0.12470400  0.25148400  0.41414100  1
  O  O5  1  0.23610700  0.10607100  0.90044200  1
  O  O6  1  0.82897400  0.39222900  0.12564300  1
  O  O7  1  0.38678300  0.80858700  0.62309600  1
  O  O8  1  0.17102600  0.60777100  0.87435700  1
  O  O9  1  0.61321700  0.19141300  0.37690400  1
loop_
_geom_bond_atom_site_label_1
_geom_bond_atom_site_label_2
_geom_bond_distance
_geom_bond_site_symmetry_2
Ca0 O1 2.256093 1_555
Ca0 O4 2.436219 1_565
Ca0 O3 2.448843 1_455
Ca0 O9 2.465068 1_565
Ca0 O6 2.507375 1_455
Ca0 O7 2.694776 1_555
Ca0 O8 2.799552 1_554
Ca1 O0 2.256093 1_555
Ca1 O2 2.436219 1_545
Ca1 O5 2.448843 1_655
Ca1 O7 2.465068 1_545
Ca1 O8 2.507375 1_655
Ca1 O9 2.694776 1_555
Ca1 O6 2.799552 1_556
O0 Ti0 1.873318 1_555
O0 Zr0 2.043996 1_556
O1 Ti0 1.873318 1_555
O1 Zr0 2.043996 1_555
O2 Si0 1.656784 1_655
O2 Ti0 2.012716 1_555
O3 Si1 1.649903 1_565
O3 Zr0 2.125896 1_555
O4 Si1 1.656784 1_455
O4 Ti0 2.012716 1_555
O5 Si0 1.649903 1_545
O5 Zr0 2.125896 1_556
O6 Si1 1.652961 1_555
O6 Zr0 2.148827 1_555
O7 Si0 1.658218 1_555
O7 Ti0 2.078471 1_555
O8 Si0 1.652961 1_555
O8 Zr0 2.148827 1_556
O9 Si1 1.658218 1_555
O9 Ti0 2.078471 1_555
