# generated using pymatgen
data_TmTe2
_symmetry_space_group_name_H-M   'P 1'
_cell_length_a   4.42590700
_cell_length_b   4.42590700
_cell_length_c   8.78349400
_cell_angle_alpha   90.00000000
_cell_angle_beta   90.00000000
_cell_angle_gamma   90.00000000
_symmetry_Int_Tables_number   1
_chemical_formula_structural   TmTe2
_chemical_formula_sum   'Tm2 Te4'
_cell_volume   172.05681410
_cell_formula_units_Z   2
loop_
 _symmetry_equiv_pos_site_id
 _symmetry_equiv_pos_as_xyz
  1  'x, y, z'
loop_
 _atom_site_type_symbol
 _atom_site_label
 _atom_site_symmetry_multiplicity
 _atom_site_fract_x
 _atom_site_fract_y
 _atom_site_fract_z
 _atom_site_occupancy
  Tm  Tm0  1  0.00000000  0.50000000  0.72915200  1
  Tm  Tm1  1  0.50000000  0.00000000  0.27084800  1
  Te  Te0  1  0.00000000  0.00000000  0.00000000  1
  Te  Te1  1  0.50000000  0.50000000  0.00000000  1
  Te  Te2  1  0.00000000  0.50000000  0.37207600  1
  Te  Te3  1  0.50000000  0.00000000  0.62792400  1
loop_
_geom_bond_atom_site_label_1
_geom_bond_atom_site_label_2
_geom_bond_distance
_geom_bond_site_symmetry_2
Te0 Te1 3.129589 1_455
Te0 Te1 3.129589 1_445
Te0 Te1 3.129589 1_545
Te0 Te1 3.129589 1_555
Te0 Tm0 3.249118 1_554
Te0 Tm1 3.249118 1_455
Te0 Tm0 3.249118 1_544
Te0 Tm1 3.249118 1_555
Te1 Tm0 3.249118 1_554
Te1 Tm1 3.249118 1_565
Te1 Tm0 3.249118 1_654
Te1 Tm1 3.249118 1_555
Te2 Tm0 3.136375 1_555
Te2 Tm1 3.253443 1_455
Te2 Tm1 3.253443 1_565
Te2 Tm1 3.253443 1_465
Te2 Tm1 3.253443 1_555
Te3 Tm1 3.136375 1_555
Te3 Tm0 3.253443 1_555
Te3 Tm0 3.253443 1_655
Te3 Tm0 3.253443 1_545
Te3 Tm0 3.253443 1_645
