# generated using pymatgen
data_TiSi2
_symmetry_space_group_name_H-M   'P 1'
_cell_length_a   5.30909695
_cell_length_b   5.26236498
_cell_length_c   5.05176862
_cell_angle_alpha   61.92034360
_cell_angle_beta   60.98914970
_cell_angle_gamma   57.09050670
_symmetry_Int_Tables_number   1
_chemical_formula_structural   TiSi2
_chemical_formula_sum   'Ti2 Si4'
_cell_volume   99.41034831
_cell_formula_units_Z   2
loop_
 _symmetry_equiv_pos_site_id
 _symmetry_equiv_pos_as_xyz
  1  'x, y, z'
loop_
 _atom_site_type_symbol
 _atom_site_label
 _atom_site_symmetry_multiplicity
 _atom_site_fract_x
 _atom_site_fract_y
 _atom_site_fract_z
 _atom_site_occupancy
  Ti  Ti0  1  0.87500000  0.87500000  0.87500000  1
  Ti  Ti1  1  0.12500000  0.12500000  0.12500000  1
  Si  Si0  1  0.20856500  0.20856500  0.54143500  1
  Si  Si1  1  0.54143500  0.54143500  0.20856500  1
  Si  Si2  1  0.79143500  0.79143500  0.45856500  1
  Si  Si3  1  0.45856500  0.45856500  0.79143500  1
loop_
_geom_bond_atom_site_label_1
_geom_bond_atom_site_label_2
_geom_bond_distance
_geom_bond_site_symmetry_2
Si0 Si1 2.593766 1_555
Si0 Ti0 2.599181 1_445
Si0 Si2 2.607118 1_455
Si0 Si2 2.607118 1_545
Si0 Ti1 2.608464 1_555
Si0 Ti1 2.608464 1_556
Si1 Ti0 2.599181 1_554
Si1 Si3 2.607118 1_555
Si1 Si3 2.607118 1_554
Si1 Ti1 2.608464 1_565
Si1 Ti1 2.608464 1_655
Si2 Si3 2.593766 1_555
Si2 Ti1 2.599181 1_665
Si2 Ti0 2.608464 1_554
Si2 Ti0 2.608464 1_555
Si3 Ti1 2.599181 1_556
Si3 Ti0 2.608464 1_545
Si3 Ti0 2.608464 1_455
