# generated using pymatgen
data_Ca(YS2)2
_symmetry_space_group_name_H-M   'P 1'
_cell_length_a   3.89858059
_cell_length_b   12.99509933
_cell_length_c   13.13802218
_cell_angle_alpha   90.00000000
_cell_angle_beta   90.00000000
_cell_angle_gamma   90.00000000
_symmetry_Int_Tables_number   1
_chemical_formula_structural   Ca(YS2)2
_chemical_formula_sum   'Ca4 Y8 S16'
_cell_volume   665.60428686
_cell_formula_units_Z   4
loop_
 _symmetry_equiv_pos_site_id
 _symmetry_equiv_pos_as_xyz
  1  'x, y, z'
loop_
 _atom_site_type_symbol
 _atom_site_label
 _atom_site_symmetry_multiplicity
 _atom_site_fract_x
 _atom_site_fract_y
 _atom_site_fract_z
 _atom_site_occupancy
  Ca  Ca0  1  0.75000000  0.62995244  0.41823559  1
  Ca  Ca1  1  0.25000000  0.37004756  0.58176441  1
  Ca  Ca2  1  0.75000000  0.12995244  0.08176441  1
  Ca  Ca3  1  0.25000000  0.87004756  0.91823559  1
  Y  Y0  1  0.75000000  0.89202385  0.58351955  1
  Y  Y1  1  0.25000000  0.10797615  0.41648045  1
  Y  Y2  1  0.75000000  0.39202385  0.91648045  1
  Y  Y3  1  0.25000000  0.60797615  0.08351955  1
  Y  Y4  1  0.25000000  0.64619804  0.70308847  1
  Y  Y5  1  0.75000000  0.35380196  0.29691153  1
  Y  Y6  1  0.25000000  0.14619804  0.79691153  1
  Y  Y7  1  0.75000000  0.85380196  0.20308847  1
  S  S0  1  0.25000000  0.97099314  0.11778866  1
  S  S1  1  0.75000000  0.02900686  0.88221134  1
  S  S2  1  0.25000000  0.47099314  0.38221134  1
  S  S3  1  0.75000000  0.52900686  0.61778866  1
  S  S4  1  0.75000000  0.74360128  0.02558415  1
  S  S5  1  0.25000000  0.25639872  0.97441585  1
  S  S6  1  0.75000000  0.24360128  0.47441585  1
  S  S7  1  0.25000000  0.75639872  0.52558415  1
  S  S8  1  0.25000000  0.53336527  0.88271554  1
  S  S9  1  0.75000000  0.46663473  0.11728446  1
  S  S10  1  0.25000000  0.03336527  0.61728446  1
  S  S11  1  0.75000000  0.96663473  0.38271554  1
  S  S12  1  0.75000000  0.78221544  0.76325634  1
  S  S13  1  0.25000000  0.21778456  0.23674366  1
  S  S14  1  0.75000000  0.28221544  0.73674366  1
  S  S15  1  0.25000000  0.71778456  0.26325634  1
loop_
_geom_bond_atom_site_label_1
_geom_bond_atom_site_label_2
_geom_bond_distance
_geom_bond_site_symmetry_2
Ca0 S2 2.879378 1_555
Ca0 S2 2.879378 1_655
Ca0 S7 2.913565 1_555
Ca0 S7 2.913565 1_655
Ca0 S3 2.931603 1_555
Ca0 S15 3.041099 1_655
Ca0 S15 3.041099 1_555
Ca1 S3 2.879378 1_555
Ca1 S3 2.879378 1_455
Ca1 S6 2.913565 1_555
Ca1 S6 2.913565 1_455
Ca1 S2 2.931603 1_555
Ca1 S14 3.041099 1_555
Ca1 S14 3.041099 1_455
Ca2 S0 2.879378 1_645
Ca2 S0 2.879378 1_545
Ca2 S5 2.913565 1_554
Ca2 S5 2.913565 1_654
Ca2 S1 2.931603 1_554
Ca2 S13 3.041099 1_655
Ca2 S13 3.041099 1_555
Ca3 S1 2.879378 1_565
Ca3 S1 2.879378 1_465
Ca3 S4 2.913565 1_556
Ca3 S4 2.913565 1_456
Ca3 S0 2.931603 1_556
Ca3 S12 3.041099 1_455
Ca3 S12 3.041099 1_555
S0 Y7 2.715676 1_455
S0 Y7 2.715676 1_555
S1 Y6 2.715676 1_555
S1 Y6 2.715676 1_655
S2 Y5 2.715676 1_455
S2 Y5 2.715676 1_555
S3 Y4 2.715676 1_655
S3 Y4 2.715676 1_555
S4 Y3 2.735939 1_555
S4 Y3 2.735939 1_655
S4 Y7 2.736659 1_555
S5 Y2 2.735939 1_555
S5 Y2 2.735939 1_455
S5 Y6 2.736659 1_555
S6 Y1 2.735939 1_655
S6 Y1 2.735939 1_555
S6 Y5 2.736659 1_555
S7 Y0 2.735939 1_455
S7 Y0 2.735939 1_555
S7 Y4 2.736659 1_555
S8 Y2 2.714802 1_555
S8 Y2 2.714802 1_455
S8 Y4 2.778362 1_555
S8 Y3 2.810695 1_556
S9 Y3 2.714802 1_655
S9 Y3 2.714802 1_555
S9 Y5 2.778362 1_555
S9 Y2 2.810695 1_554
S10 Y0 2.714802 1_445
S10 Y0 2.714802 1_545
S10 Y6 2.778362 1_555
S10 Y1 2.810695 1_555
S11 Y1 2.714802 1_565
S11 Y1 2.714802 1_665
S11 Y7 2.778362 1_555
S11 Y0 2.810695 1_555
S12 Y4 2.747521 1_655
S12 Y4 2.747521 1_555
S12 Y0 2.759056 1_555
S13 Y5 2.747521 1_555
S13 Y5 2.747521 1_455
S13 Y1 2.759056 1_555
S14 Y6 2.747521 1_655
S14 Y6 2.747521 1_555
S14 Y2 2.759056 1_555
S15 Y7 2.747521 1_555
S15 Y7 2.747521 1_455
S15 Y3 2.759056 1_555
