# generated using pymatgen
data_NaBiSe2
_symmetry_space_group_name_H-M   'P 1'
_cell_length_a   7.45429319
_cell_length_b   7.45429319
_cell_length_c   7.45429266
_cell_angle_alpha   32.68976484
_cell_angle_beta   32.68976484
_cell_angle_gamma   32.68976187
_symmetry_Int_Tables_number   1
_chemical_formula_structural   NaBiSe2
_chemical_formula_sum   'Na1 Bi1 Se2'
_cell_volume   107.46877154
_cell_formula_units_Z   1
loop_
 _symmetry_equiv_pos_site_id
 _symmetry_equiv_pos_as_xyz
  1  'x, y, z'
loop_
 _atom_site_type_symbol
 _atom_site_label
 _atom_site_symmetry_multiplicity
 _atom_site_fract_x
 _atom_site_fract_y
 _atom_site_fract_z
 _atom_site_occupancy
  Na  Na0  1  0.50000000  0.50000000  0.50000000  1
  Bi  Bi0  1  0.00000000  0.00000000  -0.00000000  1
  Se  Se0  1  0.25340603  0.25340603  0.25340603  1
  Se  Se1  1  0.74659397  0.74659397  0.74659397  1
loop_
_geom_bond_atom_site_label_1
_geom_bond_atom_site_label_2
_geom_bond_distance
_geom_bond_site_symmetry_2
Na0 Se1 3.038558 1_554
Na0 Se0 3.038558 1_556
Na0 Se1 3.038559 1_545
Na0 Se1 3.038559 1_455
Na0 Se0 3.038559 1_565
Na0 Se0 3.038559 1_655
Bi0 Se0 2.953812 1_554
Bi0 Se1 2.953812 1_445
Bi0 Se0 2.953813 1_545
Bi0 Se0 2.953813 1_455
Bi0 Se1 2.953813 1_544
Bi0 Se1 2.953813 1_454
