# generated using pymatgen
data_PrCrTeO6
_symmetry_space_group_name_H-M   'P 1'
_cell_length_a   5.57102906
_cell_length_b   5.57102906
_cell_length_c   8.47495000
_cell_angle_alpha   90.00000000
_cell_angle_beta   90.00000000
_cell_angle_gamma   120.00001262
_symmetry_Int_Tables_number   1
_chemical_formula_structural   PrCrTeO6
_chemical_formula_sum   'Pr2 Cr2 Te2 O12'
_cell_volume   227.79205327
_cell_formula_units_Z   2
loop_
 _symmetry_equiv_pos_site_id
 _symmetry_equiv_pos_as_xyz
  1  'x, y, z'
loop_
 _atom_site_type_symbol
 _atom_site_label
 _atom_site_symmetry_multiplicity
 _atom_site_fract_x
 _atom_site_fract_y
 _atom_site_fract_z
 _atom_site_occupancy
  Pr  Pr0  1  0.33333300  0.66666700  0.75000000  1
  Pr  Pr1  1  0.66666700  0.33333300  0.25000000  1
  Cr  Cr0  1  0.00000000  0.00000000  0.00000000  1
  Cr  Cr1  1  0.00000000  0.00000000  0.50000000  1
  Te  Te0  1  0.66666700  0.33333300  0.75000000  1
  Te  Te1  1  0.33333300  0.66666700  0.25000000  1
  O  O0  1  0.94027000  0.29912900  0.88112600  1
  O  O1  1  0.05973000  0.70087100  0.11887400  1
  O  O2  1  0.35885900  0.05973000  0.88112600  1
  O  O3  1  0.35885900  0.29912900  0.61887400  1
  O  O4  1  0.64114100  0.94027000  0.11887400  1
  O  O5  1  0.64114100  0.70087100  0.38112600  1
  O  O6  1  0.70087100  0.64114100  0.88112600  1
  O  O7  1  0.70087100  0.05973000  0.61887400  1
  O  O8  1  0.29912900  0.35885900  0.11887400  1
  O  O9  1  0.29912900  0.94027000  0.38112600  1
  O  O10  1  0.94027000  0.64114100  0.61887400  1
  O  O11  1  0.05973000  0.35885900  0.38112600  1
loop_
_geom_bond_atom_site_label_1
_geom_bond_atom_site_label_2
_geom_bond_distance
_geom_bond_site_symmetry_2
Cr0 O6 2.111229 1_444
Cr0 O8 2.111229 1_555
Cr0 O2 2.111229 1_554
Cr0 O4 2.111229 1_445
Cr0 O1 2.111229 1_545
Cr0 O0 2.111229 1_454
Cr1 O5 2.111229 1_445
Cr1 O3 2.111229 1_555
Cr1 O11 2.111229 1_555
Cr1 O10 2.111229 1_445
Cr1 O9 2.111229 1_545
Cr1 O7 2.111229 1_455
O0 Te0 1.971054 1_555
O0 Pr0 2.395592 1_655
O1 Te1 1.971054 1_555
O1 Pr1 2.395592 1_455
O2 Te0 1.971056 1_555
O2 Pr0 2.395591 1_545
O3 Te0 1.971059 1_555
O3 Pr0 2.395596 1_555
O4 Te1 1.971056 1_555
O4 Pr1 2.395591 1_565
O5 Te1 1.971059 1_555
O5 Pr1 2.395596 1_555
O6 Te0 1.971059 1_555
O6 Pr0 2.395596 1_555
O7 Te0 1.971054 1_555
O7 Pr0 2.395592 1_545
O8 Te1 1.971059 1_555
O8 Pr1 2.395596 1_555
O9 Te1 1.971054 1_555
O9 Pr1 2.395592 1_565
O10 Te0 1.971056 1_555
O10 Pr0 2.395591 1_655
O11 Te1 1.971056 1_555
O11 Pr1 2.395591 1_455
