# generated using pymatgen
data_K3Er4(CuTe2)5
_symmetry_space_group_name_H-M   'P 1'
_cell_length_a   4.32884600
_cell_length_b   16.55066900
_cell_length_c   17.66836000
_cell_angle_alpha   90.00000000
_cell_angle_beta   90.00000000
_cell_angle_gamma   90.00000000
_symmetry_Int_Tables_number   1
_chemical_formula_structural   K3Er4(CuTe2)5
_chemical_formula_sum   'K6 Er8 Cu10 Te20'
_cell_volume   1265.85490497
_cell_formula_units_Z   2
loop_
 _symmetry_equiv_pos_site_id
 _symmetry_equiv_pos_as_xyz
  1  'x, y, z'
loop_
 _atom_site_type_symbol
 _atom_site_label
 _atom_site_symmetry_multiplicity
 _atom_site_fract_x
 _atom_site_fract_y
 _atom_site_fract_z
 _atom_site_occupancy
  K  K0  1  0.50000000  0.07999400  0.33596800  1
  K  K1  1  0.50000000  0.42117400  0.66214200  1
  K  K2  1  0.00000000  0.57882600  0.16214200  1
  K  K3  1  0.00000000  0.92000600  0.83596800  1
  K  K4  1  0.50000000  0.24964800  0.49892300  1
  K  K5  1  0.00000000  0.75035200  0.99892300  1
  Er  Er0  1  0.50000000  0.53619800  0.44771800  1
  Er  Er1  1  0.50000000  0.95905300  0.55456700  1
  Er  Er2  1  0.00000000  0.04094700  0.05456700  1
  Er  Er3  1  0.00000000  0.46380200  0.94771800  1
  Er  Er4  1  0.50000000  0.31482600  0.21405500  1
  Er  Er5  1  0.50000000  0.18229800  0.78607300  1
  Er  Er6  1  0.00000000  0.81770200  0.28607300  1
  Er  Er7  1  0.00000000  0.68517400  0.71405500  1
  Cu  Cu0  1  0.50000000  0.59190300  0.84556700  1
  Cu  Cu1  1  0.50000000  0.91047800  0.15454200  1
  Cu  Cu2  1  0.00000000  0.08952200  0.65454200  1
  Cu  Cu3  1  0.00000000  0.40809700  0.34556700  1
  Cu  Cu4  1  0.50000000  0.31236200  0.04261800  1
  Cu  Cu5  1  0.50000000  0.18531500  0.95916200  1
  Cu  Cu6  1  0.00000000  0.81468500  0.45916200  1
  Cu  Cu7  1  0.00000000  0.68763800  0.54261800  1
  Cu  Cu8  1  0.50000000  0.65636300  0.30914100  1
  Cu  Cu9  1  0.00000000  0.34363700  0.80914100  1
  Te  Te0  1  0.50000000  0.57731800  0.99495200  1
  Te  Te1  1  0.50000000  0.92240800  0.00619100  1
  Te  Te2  1  0.00000000  0.07759200  0.50619100  1
  Te  Te3  1  0.00000000  0.42268200  0.49495200  1
  Te  Te4  1  0.50000000  0.88070300  0.39738500  1
  Te  Te5  1  0.50000000  0.61900700  0.60087900  1
  Te  Te6  1  0.00000000  0.38099300  0.10087900  1
  Te  Te7  1  0.00000000  0.11929700  0.89738500  1
  Te  Te8  1  0.50000000  0.48201300  0.28623300  1
  Te  Te9  1  0.50000000  0.02171400  0.71387500  1
  Te  Te10  1  0.00000000  0.97828600  0.21387500  1
  Te  Te11  1  0.00000000  0.51798700  0.78623300  1
  Te  Te12  1  0.50000000  0.33454300  0.89438300  1
  Te  Te13  1  0.50000000  0.16334900  0.10541600  1
  Te  Te14  1  0.00000000  0.83665100  0.60541600  1
  Te  Te15  1  0.00000000  0.66545700  0.39438300  1
  Te  Te16  1  0.50000000  0.74611700  0.18574200  1
  Te  Te17  1  0.50000000  0.74834200  0.81456800  1
  Te  Te18  1  0.00000000  0.25165800  0.31456800  1
  Te  Te19  1  0.00000000  0.25388300  0.68574200  1
loop_
_geom_bond_atom_site_label_1
_geom_bond_atom_site_label_2
_geom_bond_distance
_geom_bond_site_symmetry_2
K0 Te4 3.472314 1_545
K0 Te10 3.488808 1_645
K0 Te10 3.488808 1_545
K0 Te18 3.591635 1_555
K0 Te18 3.591635 1_655
K0 Te2 3.705635 1_655
K0 Te2 3.705635 1_555
K1 Te5 3.448545 1_555
K1 Te11 3.472628 1_555
K1 Te11 3.472628 1_655
K1 Te19 3.539029 1_655
K1 Te19 3.539029 1_555
K1 Te3 3.662145 1_555
K1 Te3 3.662145 1_655
K2 Te6 3.448545 1_555
K2 Te8 3.472628 1_455
K2 Te8 3.472628 1_555
K2 Te16 3.539029 1_555
K2 Te16 3.539029 1_455
K2 Te0 3.662145 1_554
K2 Te0 3.662145 1_454
K3 Te7 3.472314 1_565
K3 Te9 3.488808 1_465
K3 Te9 3.488808 1_565
K3 Te17 3.591635 1_555
K3 Te17 3.591635 1_455
K3 Te1 3.705635 1_556
K3 Te1 3.705635 1_456
K4 Te2 3.579145 1_555
K4 Te2 3.579145 1_655
K4 Te3 3.590427 1_555
K4 Te3 3.590427 1_655
K4 Te18 3.910948 1_555
K4 Te18 3.910948 1_655
K4 Te19 3.947762 1_555
K4 Te19 3.947762 1_655
K5 Te1 3.579145 1_456
K5 Te1 3.579145 1_556
K5 Te0 3.590427 1_455
K5 Te0 3.590427 1_555
K5 Te17 3.910948 1_555
K5 Te17 3.910948 1_455
K5 Te16 3.947762 1_456
K5 Te16 3.947762 1_556
Er0 Te3 2.985123 1_655
Er0 Te3 2.985123 1_555
Er0 Te8 2.990795 1_555
Er0 Te5 3.033379 1_555
Er0 Te15 3.185818 1_555
Er0 Te15 3.185818 1_655
Er1 Te9 2.999689 1_565
Er1 Te2 3.043736 1_665
Er1 Te2 3.043736 1_565
Er1 Te4 3.064979 1_555
Er1 Te14 3.097723 1_655
Er1 Te14 3.097723 1_555
Er2 Te10 2.999689 1_545
Er2 Te1 3.043736 1_545
Er2 Te1 3.043736 1_445
Er2 Te7 3.064979 1_554
Er2 Te13 3.097723 1_555
Er2 Te13 3.097723 1_455
Er3 Te0 2.985123 1_555
Er3 Te0 2.985123 1_455
Er3 Te11 2.990795 1_555
Er3 Te6 3.033379 1_556
Er3 Te12 3.185818 1_455
Er3 Te12 3.185818 1_555
Er4 Te18 2.988572 1_555
Er4 Te18 2.988572 1_655
Er4 Te8 3.046787 1_555
Er4 Te6 3.143649 1_655
Er4 Te6 3.143649 1_555
Er4 Te13 3.157476 1_555
Er5 Te9 2.948044 1_555
Er5 Te19 3.038230 1_555
Er5 Te19 3.038230 1_655
Er5 Te7 3.104815 1_655
Er5 Te7 3.104815 1_555
Er5 Te12 3.164059 1_555
Er6 Te10 2.948044 1_555
Er6 Te16 3.038230 1_455
Er6 Te16 3.038230 1_555
Er6 Te4 3.104815 1_455
Er6 Te4 3.104815 1_555
Er6 Te15 3.164059 1_555
Er7 Te17 2.988572 1_455
Er7 Te17 2.988572 1_555
Er7 Te11 3.046787 1_555
Er7 Te5 3.143649 1_555
Er7 Te5 3.143649 1_455
Er7 Te14 3.157476 1_555
Cu0 Te17 2.646465 1_555
Cu0 Te0 2.650403 1_555
Cu0 Te11 2.698211 1_555
Cu0 Te11 2.698211 1_655
Cu1 Te1 2.628545 1_555
Cu1 Te10 2.653899 1_655
Cu1 Te10 2.653899 1_555
Cu1 Te16 2.775577 1_555
Cu1 Er6 3.527490 1_655
Cu1 Er6 3.527490 1_555
Cu2 Te2 2.628545 1_555
Cu2 Te9 2.653899 1_455
Cu2 Te9 2.653899 1_555
Cu2 Te19 2.775577 1_555
Cu2 Er5 3.527490 1_555
Cu2 Er5 3.527490 1_455
Cu3 Te18 2.646465 1_555
Cu3 Te3 2.650403 1_555
Cu3 Te8 2.698211 1_555
Cu3 Te8 2.698211 1_455
Cu4 Cu5 2.568198 1_554
Cu4 Te12 2.644673 1_554
Cu4 Te6 2.652279 1_655
Cu4 Te6 2.652279 1_555
Cu4 Te13 2.704355 1_555
Cu4 Er4 3.029285 1_555
Cu5 Te13 2.609517 1_556
Cu5 Te7 2.658940 1_555
Cu5 Te7 2.658940 1_655
Cu5 Te12 2.722131 1_555
Cu5 Er5 3.058606 1_555
Cu5 Er2 3.638037 1_556
Cu5 Er2 3.638037 1_656
Cu6 Cu7 2.568198 1_555
Cu6 Te14 2.609517 1_555
Cu6 Te4 2.658940 1_455
Cu6 Te4 2.658940 1_555
Cu6 Te15 2.722131 1_555
Cu6 Er6 3.058606 1_555
Cu6 Er1 3.638037 1_555
Cu6 Er1 3.638037 1_455
Cu7 Te15 2.644673 1_555
Cu7 Te5 2.652279 1_555
Cu7 Te5 2.652279 1_455
Cu7 Te14 2.704355 1_555
Cu7 Er7 3.029285 1_555
Cu8 Te16 2.638219 1_555
Cu8 Te15 2.641151 1_555
Cu8 Te15 2.641151 1_655
Cu8 Te8 2.913857 1_555
Cu8 Er0 3.154389 1_555
Cu8 Er6 3.461384 1_555
Cu8 Er6 3.461384 1_655
Cu8 K2 3.616237 1_555
Cu8 K2 3.616237 1_655
Cu9 Te19 2.638219 1_555
Cu9 Te12 2.641151 1_555
Cu9 Te12 2.641151 1_455
Cu9 Te11 2.913857 1_555
Cu9 Er3 3.154389 1_555
Cu9 Er5 3.461384 1_555
Cu9 Er5 3.461384 1_455
Cu9 K1 3.616237 1_455
Cu9 K1 3.616237 1_555
