# generated using pymatgen
data_CsSbWO6
_symmetry_space_group_name_H-M   'P 1'
_cell_length_a   7.40960801
_cell_length_b   7.40960801
_cell_length_c   7.40960801
_cell_angle_alpha   120.72693071
_cell_angle_beta   119.69423594
_cell_angle_gamma   89.63798581
_symmetry_Int_Tables_number   1
_chemical_formula_structural   CsSbWO6
_chemical_formula_sum   'Cs2 Sb2 W2 O12'
_cell_volume   286.70305437
_cell_formula_units_Z   2
loop_
 _symmetry_equiv_pos_site_id
 _symmetry_equiv_pos_as_xyz
  1  'x, y, z'
loop_
 _atom_site_type_symbol
 _atom_site_label
 _atom_site_symmetry_multiplicity
 _atom_site_fract_x
 _atom_site_fract_y
 _atom_site_fract_z
 _atom_site_occupancy
  Cs  Cs0  1  0.61717700  0.88205700  0.23512000  1
  Cs  Cs1  1  0.35306300  0.11794300  0.73512000  1
  Sb  Sb0  1  0.99890000  0.50000000  0.49890000  1
  Sb  Sb1  1  0.99890000  0.00000000  0.99890000  1
  W  W0  1  0.99799700  0.49976700  0.99823000  1
  W  W1  1  0.49846300  0.50023300  0.49823000  1
  O  O0  1  0.07448000  0.82343800  0.75104200  1
  O  O1  1  0.69101000  0.44180200  0.74920900  1
  O  O2  1  0.68020500  0.81082600  0.74618100  1
  O  O3  1  0.06398600  0.43562900  0.75358400  1
  O  O4  1  0.06398600  0.81040200  0.12835700  1
  O  O5  1  0.68020500  0.43402400  0.36937900  1
  O  O6  1  0.92760400  0.17656200  0.25104200  1
  O  O7  1  0.30740700  0.55819800  0.24920900  1
  O  O8  1  0.31795400  0.18959800  0.25358400  1
  O  O9  1  0.93535500  0.56597600  0.24618100  1
  O  O10  1  0.93535500  0.18917400  0.86937900  1
  O  O11  1  0.31795400  0.56437100  0.62835700  1
loop_
_geom_bond_atom_site_label_1
_geom_bond_atom_site_label_2
_geom_bond_distance
_geom_bond_site_symmetry_2
Cs0 O6 3.098051 1_565
Cs0 O11 3.169410 1_554
Cs0 O8 3.169415 1_565
Cs0 O9 3.314355 1_555
Cs0 O10 3.314355 1_565
Cs0 O7 3.405963 1_555
Cs1 O0 3.098051 1_545
Cs1 O4 3.169410 1_545
Cs1 O3 3.169410 1_555
Cs1 O2 3.314355 1_545
Cs1 O5 3.314355 1_556
Cs1 O1 3.405957 1_555
O0 Sb0 1.988078 1_455
O0 Sb1 1.988078 1_465
O1 W0 1.951250 1_555
O1 W1 1.966619 1_555
O2 W1 1.937117 1_555
O2 Sb1 2.006524 1_565
O3 W0 1.935401 1_455
O3 Sb0 2.009099 1_455
O4 W0 1.935401 1_454
O4 Sb1 2.009099 1_464
O5 W1 1.937117 1_555
O5 Sb0 2.006524 1_555
O6 Sb0 1.988078 1_555
O6 Sb1 1.988078 1_554
O7 W1 1.951245 1_555
O7 W0 1.966621 1_454
O8 W1 1.935403 1_555
O8 Sb1 2.009093 1_454
O9 W0 1.937117 1_554
O9 Sb0 2.006524 1_555
O10 W0 1.937117 1_555
O10 Sb1 2.006524 1_555
O11 W1 1.935408 1_555
O11 Sb0 2.009092 1_455
