# generated using pymatgen
data_KNaCaSi8Ni5O24
_symmetry_space_group_name_H-M   'P 1'
_cell_length_a   5.29636282
_cell_length_b   10.12953091
_cell_length_c   10.34593167
_cell_angle_alpha   119.28521991
_cell_angle_beta   97.59056409
_cell_angle_gamma   74.35440725
_symmetry_Int_Tables_number   1
_chemical_formula_structural   KNaCaSi8Ni5O24
_chemical_formula_sum   'K1 Na1 Ca1 Si8 Ni5 O24'
_cell_volume   466.17979970
_cell_formula_units_Z   1
loop_
 _symmetry_equiv_pos_site_id
 _symmetry_equiv_pos_as_xyz
  1  'x, y, z'
loop_
 _atom_site_type_symbol
 _atom_site_label
 _atom_site_symmetry_multiplicity
 _atom_site_fract_x
 _atom_site_fract_y
 _atom_site_fract_z
 _atom_site_occupancy
  K  K0  1  0.96170700  0.51959800  0.00251200  1
  Na  Na0  1  0.50010600  0.72538400  0.45162500  1
  Ca  Ca0  1  0.49994900  0.27538100  0.55155900  1
  Si  Si0  1  0.69763600  0.18878700  0.83014400  1
  Si  Si1  1  0.69631100  0.35994200  0.17040100  1
  Si  Si2  1  0.30347400  0.81110700  0.17067800  1
  Si  Si3  1  0.30219300  0.64166100  0.82979400  1
  Si  Si4  1  0.19240300  0.11289000  0.65910400  1
  Si  Si5  1  0.19244100  0.45631500  0.34132400  1
  Si  Si6  1  0.80758200  0.88608900  0.34224600  1
  Si  Si7  1  0.80745300  0.54644400  0.65808900  1
  Ni  Ni0  1  0.00022400  0.82074200  0.64118000  1
  Ni  Ni1  1  0.99994600  0.17691600  0.35336800  1
  Ni  Ni2  1  0.50005100  0.91462000  0.82900400  1
  Ni  Ni3  1  0.50020000  0.08445300  0.16865100  1
  Ni  Ni4  1  0.99983100  0.99985900  0.99918800  1
  O  O0  1  0.89255400  0.21314000  0.73470800  1
  O  O1  1  0.89805700  0.47375800  0.26149400  1
  O  O2  1  0.10088400  0.78813100  0.26102700  1
  O  O3  1  0.10632700  0.52247800  0.73528300  1
  O  O4  1  0.40023500  0.22511200  0.76664200  1
  O  O5  1  0.39708600  0.45355900  0.22932800  1
  O  O6  1  0.60335400  0.77629600  0.22923000  1
  O  O7  1  0.60033000  0.54230800  0.76698700  1
  O  O8  1  0.20547500  0.11593700  0.50602500  1
  O  O9  1  0.20299500  0.60504400  0.49850300  1
  O  O10  1  0.79660800  0.89303700  0.49851700  1
  O  O11  1  0.79411000  0.38984500  0.50609100  1
  O  O12  1  0.70012400  0.33107900  0.99959000  1
  O  O13  1  0.30289500  0.66853600  0.99963000  1
  O  O14  1  0.78609200  0.02123500  0.82439100  1
  O  O15  1  0.78589900  0.19661200  0.17547900  1
  O  O16  1  0.21402400  0.97926000  0.17574000  1
  O  O17  1  0.21358700  0.80332300  0.82412400  1
  O  O18  1  0.27681900  0.95024700  0.66819500  1
  O  O19  1  0.28022100  0.28484100  0.33863800  1
  O  O20  1  0.71956000  0.05421100  0.33885000  1
  O  O21  1  0.72271500  0.71818500  0.66771400  1
  O  O22  1  0.30645200  0.09124900  0.99755600  1
  O  O23  1  0.69409000  0.90548900  0.99738600  1
loop_
_geom_bond_atom_site_label_1
_geom_bond_atom_site_label_2
_geom_bond_distance
_geom_bond_site_symmetry_2
K0 O12 2.631807 1_554
K0 O13 2.659161 1_654
K0 O6 2.900472 1_555
K0 O2 2.922156 1_655
K0 O7 2.955109 1_554
K0 O3 2.980220 1_654
K0 O1 3.008110 1_555
K0 O0 3.062362 1_554
K0 O5 3.247397 1_655
K0 O4 3.299500 1_654
Na0 O21 2.410448 1_555
Na0 O18 2.421018 1_555
Na0 O9 2.451945 1_555
Na0 O10 2.452887 1_555
Na0 O5 2.729871 1_555
Na0 O6 2.739423 1_555
Na0 O1 2.846236 1_555
Na0 O2 2.857096 1_555
Ca0 O20 2.379574 1_555
Ca0 O8 2.383931 1_555
Ca0 O19 2.384372 1_555
Ca0 O11 2.386318 1_555
Ca0 O4 2.655919 1_555
Ca0 O7 2.669765 1_555
Ca0 O0 2.780731 1_555
Ca0 O3 2.793219 1_555
Ni0 O10 2.022070 1_455
Ni0 O9 2.025855 1_555
Ni0 O18 2.124793 1_555
Ni0 O21 2.126974 1_455
Ni0 O17 2.131823 1_555
Ni0 O14 2.136162 1_465
Ni1 O11 2.046925 1_555
Ni1 O8 2.049017 1_655
Ni1 O16 2.097111 1_645
Ni1 O15 2.097190 1_555
Ni1 O19 2.126029 1_655
Ni1 O20 2.127622 1_555
Ni2 O22 1.929760 1_565
Ni2 O23 1.932075 1_555
Ni2 O18 2.033140 1_555
Ni2 O21 2.034810 1_555
Ni2 O14 2.101368 1_565
Ni2 O17 2.102895 1_555
Ni3 O22 1.947399 1_554
Ni3 O23 1.953105 1_544
Ni3 O20 2.083167 1_555
Ni3 O19 2.084210 1_555
Ni3 O15 2.099029 1_555
Ni3 O16 2.101202 1_545
Ni4 O14 2.075783 1_565
Ni4 O17 2.079420 1_655
Ni4 O22 2.080382 1_665
Ni4 O23 2.084665 1_555
Ni4 O15 2.086685 1_566
Ni4 O16 2.089188 1_656
O0 Si0 1.657245 1_555
O0 Si4 1.687120 1_655
O1 Si1 1.641507 1_555
O1 Si5 1.672819 1_655
O2 Si2 1.640646 1_555
O2 Si6 1.673790 1_455
O3 Si3 1.656020 1_555
O3 Si7 1.688461 1_455
O4 Si0 1.642741 1_555
O4 Si4 1.689902 1_555
O5 Si1 1.631442 1_555
O5 Si5 1.673911 1_555
O6 Si2 1.632982 1_555
O6 Si6 1.678265 1_555
O7 Si3 1.643959 1_555
O7 Si7 1.694694 1_555
O8 Si4 1.609949 1_555
O9 Si5 1.594324 1_555
O10 Si6 1.591720 1_555
O11 Si7 1.607760 1_555
O12 Si0 1.638011 1_555
O12 Si1 1.646103 1_556
O13 Si3 1.640859 1_555
O13 Si2 1.648638 1_556
O14 Si0 1.607252 1_555
O15 Si1 1.618690 1_555
O16 Si2 1.616321 1_555
O17 Si3 1.605453 1_555
O18 Si4 1.632844 1_565
O19 Si5 1.659683 1_555
O20 Si6 1.656731 1_545
O21 Si7 1.630629 1_555
