# generated using pymatgen
data_Ga2Co6C
_symmetry_space_group_name_H-M   'P 1'
_cell_length_a   3.71698100
_cell_length_b   3.71698100
_cell_length_c   7.10292100
_cell_angle_alpha   90.00000000
_cell_angle_beta   90.00000000
_cell_angle_gamma   90.00000000
_symmetry_Int_Tables_number   1
_chemical_formula_structural   Ga2Co6C
_chemical_formula_sum   'Ga2 Co6 C1'
_cell_volume   98.13358544
_cell_formula_units_Z   1
loop_
 _symmetry_equiv_pos_site_id
 _symmetry_equiv_pos_as_xyz
  1  'x, y, z'
loop_
 _atom_site_type_symbol
 _atom_site_label
 _atom_site_symmetry_multiplicity
 _atom_site_fract_x
 _atom_site_fract_y
 _atom_site_fract_z
 _atom_site_occupancy
  Ga  Ga0  1  0.00000000  0.00000000  0.74086600  1
  Ga  Ga1  1  0.00000000  0.00000000  0.25913400  1
  Co  Co0  1  0.50000000  0.50000000  0.73612600  1
  Co  Co1  1  0.50000000  0.50000000  0.26387400  1
  Co  Co2  1  0.50000000  0.00000000  0.00000000  1
  Co  Co3  1  0.50000000  0.00000000  0.50000000  1
  Co  Co4  1  0.00000000  0.50000000  0.00000000  1
  Co  Co5  1  0.00000000  0.50000000  0.50000000  1
  C  C0  1  0.50000000  0.50000000  0.00000000  1
loop_
_geom_bond_atom_site_label_1
_geom_bond_atom_site_label_2
_geom_bond_distance
_geom_bond_site_symmetry_2
Co0 Co3 2.503385 1_565
Co0 Co5 2.503385 1_555
Co0 Co3 2.503385 1_555
Co0 Co5 2.503385 1_655
Co0 Ga0 2.628518 1_565
Co0 Ga0 2.628518 1_655
Co0 Ga0 2.628518 1_665
Co0 Ga0 2.628518 1_555
Co1 Co3 2.503385 1_555
Co1 Co5 2.503385 1_655
Co1 Co3 2.503385 1_565
Co1 Co5 2.503385 1_555
Co1 Ga1 2.628518 1_555
Co1 Ga1 2.628518 1_665
Co1 Ga1 2.628518 1_655
Co1 Ga1 2.628518 1_565
Co2 Ga1 2.615688 1_655
Co2 Ga1 2.615688 1_555
Co2 Ga0 2.615688 1_654
Co2 Ga0 2.615688 1_554
Co3 Ga0 2.526065 1_655
Co3 Ga0 2.526065 1_555
Co3 Ga1 2.526065 1_555
Co3 Ga1 2.526065 1_655
Co3 Co5 2.628302 1_655
Co3 Co5 2.628302 1_645
Co3 Co5 2.628302 1_545
Co3 Co5 2.628302 1_555
Co4 Ga1 2.615688 1_555
Co4 Ga1 2.615688 1_565
Co4 Ga0 2.615688 1_554
Co4 Ga0 2.615688 1_564
Co5 Ga0 2.526065 1_565
Co5 Ga0 2.526065 1_555
Co5 Ga1 2.526065 1_555
Co5 Ga1 2.526065 1_565
C0 Co2 1.858491 1_555
C0 Co4 1.858491 1_555
C0 Co2 1.858491 1_565
C0 Co4 1.858491 1_655
C0 Co1 1.874276 1_555
C0 Co0 1.874276 1_554
