# generated using pymatgen
data_AlInN2
_symmetry_space_group_name_H-M   'P 1'
_cell_length_a   5.72537500
_cell_length_b   4.74578941
_cell_length_c   9.27764190
_cell_angle_alpha   90.00000065
_cell_angle_beta   144.11755752
_cell_angle_gamma   114.48483280
_symmetry_Int_Tables_number   1
_chemical_formula_structural   AlInN2
_chemical_formula_sum   'Al2 In2 N4'
_cell_volume   104.47793032
_cell_formula_units_Z   2
loop_
 _symmetry_equiv_pos_site_id
 _symmetry_equiv_pos_as_xyz
  1  'x, y, z'
loop_
 _atom_site_type_symbol
 _atom_site_label
 _atom_site_symmetry_multiplicity
 _atom_site_fract_x
 _atom_site_fract_y
 _atom_site_fract_z
 _atom_site_occupancy
  Al  Al0  1  0.00000000  0.50000000  0.25000000  1
  Al  Al1  1  0.00000000  0.00000000  0.00000000  1
  In  In0  1  0.00000000  0.50000000  0.75000000  1
  In  In1  1  0.00000000  0.00000000  0.50000000  1
  N  N0  1  0.50000000  0.04947600  0.12500000  1
  N  N1  1  0.50000000  0.95052400  0.62500000  1
  N  N2  1  0.40104700  0.45052400  0.32552400  1
  N  N3  1  0.59895300  0.54947600  0.92447600  1
loop_
_geom_bond_atom_site_label_1
_geom_bond_atom_site_label_2
_geom_bond_distance
_geom_bond_site_symmetry_2
Al0 N2 1.912637 1_555
Al0 N0 1.912642 1_455
Al0 N1 1.912642 1_555
Al0 N3 1.912643 1_454
Al1 N3 1.912640 1_444
Al1 N0 1.912643 1_555
Al1 N1 1.912643 1_444
Al1 N2 1.912646 1_555
In0 N1 2.184611 1_445
In0 N0 2.184611 1_566
In0 N2 2.184612 1_455
In0 N3 2.184616 1_555
In1 N3 2.184609 1_555
In1 N1 2.184611 1_545
In1 N0 2.184611 1_455
In1 N2 2.184614 1_445
