# generated using pymatgen
data_Ga12OF36
_symmetry_space_group_name_H-M   'P 1'
_cell_length_a   10.46044250
_cell_length_b   10.46044250
_cell_length_c   10.46044250
_cell_angle_alpha   138.97836480
_cell_angle_beta   105.79048789
_cell_angle_gamma   88.47676737
_symmetry_Int_Tables_number   1
_chemical_formula_structural   Ga12OF36
_chemical_formula_sum   'Ga12 O1 F36'
_cell_volume   693.34810860
_cell_formula_units_Z   1
loop_
 _symmetry_equiv_pos_site_id
 _symmetry_equiv_pos_as_xyz
  1  'x, y, z'
loop_
 _atom_site_type_symbol
 _atom_site_label
 _atom_site_symmetry_multiplicity
 _atom_site_fract_x
 _atom_site_fract_y
 _atom_site_fract_z
 _atom_site_occupancy
  Ga  Ga0  1  0.12517300  0.62511900  0.50005400  1
  Ga  Ga1  1  0.62501100  0.12497000  0.50004000  1
  Ga  Ga2  1  0.37507000  0.87503000  0.50004000  1
  Ga  Ga3  1  0.87493400  0.37488100  0.50005400  1
  Ga  Ga4  1  0.37490200  0.37489100  0.50004600  1
  Ga  Ga5  1  0.87543600  0.87538900  0.49973500  1
  Ga  Ga6  1  0.37490200  0.87485600  0.00001000  1
  Ga  Ga7  1  0.87543600  0.37570100  0.00004700  1
  Ga  Ga8  1  0.12515500  0.12514400  0.50004600  1
  Ga  Ga9  1  0.62434600  0.62429900  0.49973500  1
  Ga  Ga10  1  0.12515500  0.62510900  0.00001000  1
  Ga  Ga11  1  0.62434600  0.12461100  0.00004700  1
  O  O0  1  0.94646900  0.00000000  0.94646900  1
  F  F0  1  0.96507800  0.50000000  0.46507800  1
  F  F1  1  0.46505600  0.00000000  0.46505600  1
  F  F2  1  0.28510200  0.75007100  0.53503100  1
  F  F3  1  0.78496000  0.24992900  0.53503100  1
  F  F4  1  0.04018600  0.82977600  0.57983200  1
  F  F5  1  0.54026400  0.33011900  0.58062200  1
  F  F6  1  0.20968900  0.79013600  0.78972900  1
  F  F7  1  0.70969600  0.29047700  0.78999800  1
  F  F8  1  0.25050300  0.04035800  0.58062200  1
  F  F9  1  0.75005600  0.53964600  0.57983200  1
  F  F10  1  0.99959300  0.58004000  0.78972900  1
  F  F11  1  0.49952100  0.08030200  0.78999800  1
  F  F12  1  0.20968900  0.41996000  0.41955300  1
  F  F13  1  0.70969600  0.91969800  0.41921900  1
  F  F14  1  0.04018600  0.46035400  0.21041000  1
  F  F15  1  0.54026400  0.95964200  0.21014500  1
  F  F16  1  0.99959300  0.20986400  0.41955300  1
  F  F17  1  0.49952100  0.70952300  0.41921900  1
  F  F18  1  0.25050300  0.66988100  0.21014500  1
  F  F19  1  0.75005600  0.17022400  0.21041000  1
  F  F20  1  0.27915400  0.28222600  0.56138000  1
  F  F21  1  0.77838800  0.78132100  0.55970900  1
  F  F22  1  0.97100500  0.53291800  0.00326800  1
  F  F23  1  0.47035000  0.03226300  0.00326800  1
  F  F24  1  0.97100500  0.96773700  0.43808700  1
  F  F25  1  0.47035000  0.46708200  0.43808700  1
  F  F26  1  0.27915400  0.71777400  0.99692800  1
  F  F27  1  0.77838800  0.21867900  0.99706800  1
  F  F28  1  0.63968200  0.85291400  0.78676800  1
  F  F29  1  0.14260800  0.35405300  0.78855400  1
  F  F30  1  0.60743000  0.39591600  0.21151400  1
  F  F31  1  0.10753400  0.89604100  0.21149300  1
  F  F32  1  0.43450100  0.64594700  0.78855400  1
  F  F33  1  0.93385300  0.14708600  0.78676800  1
  F  F34  1  0.81559800  0.60408400  0.21151400  1
  F  F35  1  0.31545200  0.10395900  0.21149300  1
loop_
_geom_bond_atom_site_label_1
_geom_bond_atom_site_label_2
_geom_bond_distance
_geom_bond_site_symmetry_2
F0 Ga0 1.926616 1_655
F0 Ga3 1.926621 1_555
F1 Ga2 1.924465 1_545
F1 Ga1 1.924474 1_555
F2 Ga0 1.924182 1_555
F2 Ga2 1.924325 1_555
F3 Ga3 1.924176 1_555
F3 Ga1 1.924316 1_555
F4 Ga5 1.916578 1_455
F4 Ga0 1.917451 1_555
F5 Ga1 1.917702 1_555
F5 Ga4 1.918570 1_555
F6 Ga0 1.916687 1_555
F6 Ga6 1.918743 1_556
F7 Ga1 1.917649 1_555
F7 Ga7 1.918740 1_556
F8 Ga2 1.917696 1_545
F8 Ga8 1.918570 1_555
F9 Ga9 1.916578 1_555
F9 Ga3 1.917443 1_555
F10 Ga3 1.916690 1_555
F10 Ga10 1.918741 1_656
F11 Ga2 1.917650 1_545
F11 Ga11 1.918740 1_556
F12 Ga0 1.916687 1_555
F12 Ga4 1.918749 1_555
F13 Ga1 1.917644 1_565
F13 Ga5 1.918740 1_555
F14 Ga7 1.916578 1_455
F14 Ga0 1.917451 1_555
F15 Ga1 1.917696 1_565
F15 Ga6 1.918576 1_555
F16 Ga3 1.916695 1_555
F16 Ga8 1.918749 1_655
F17 Ga2 1.917650 1_555
F17 Ga9 1.918740 1_555
F18 Ga2 1.917696 1_555
F18 Ga10 1.918578 1_555
F19 Ga11 1.916578 1_555
F19 Ga3 1.917449 1_555
F20 Ga8 1.921995 1_555
F20 Ga4 1.921995 1_555
F21 Ga5 1.929655 1_555
F21 Ga9 1.929655 1_555
F22 Ga7 1.921084 1_555
F22 Ga10 1.921823 1_655
F23 Ga11 1.921084 1_555
F23 Ga6 1.921808 1_545
F24 Ga5 1.921084 1_555
F24 Ga8 1.921816 1_665
F25 Ga9 1.921084 1_555
F25 Ga4 1.921816 1_555
F26 Ga10 1.921988 1_556
F26 Ga6 1.922003 1_556
F27 Ga11 1.929649 1_556
F27 Ga7 1.929663 1_556
F28 Ga9 1.919227 1_555
F28 Ga11 1.919227 1_566
F29 Ga8 1.922000 1_555
F29 Ga10 1.922006 1_556
F30 Ga11 1.921525 1_555
F30 Ga9 1.921525 1_555
F31 Ga8 1.921889 1_565
F31 Ga10 1.921890 1_555
F32 Ga6 1.922000 1_556
F32 Ga4 1.922003 1_555
F33 Ga7 1.919221 1_556
F33 Ga5 1.919228 1_545
F34 Ga7 1.921525 1_555
F34 Ga5 1.921525 1_555
F35 Ga4 1.921889 1_555
F35 Ga6 1.921892 1_545
