# generated using pymatgen
data_CsP2H5O8
_symmetry_space_group_name_H-M   'P 1'
_cell_length_a   7.79949100
_cell_length_b   9.66384500
_cell_length_c   11.75080831
_cell_angle_alpha   77.62145961
_cell_angle_beta   90.00000000
_cell_angle_gamma   90.00000000
_symmetry_Int_Tables_number   1
_chemical_formula_structural   CsP2H5O8
_chemical_formula_sum   'Cs4 P8 H20 O32'
_cell_volume   865.10445968
_cell_formula_units_Z   4
loop_
 _symmetry_equiv_pos_site_id
 _symmetry_equiv_pos_as_xyz
  1  'x, y, z'
loop_
 _atom_site_type_symbol
 _atom_site_label
 _atom_site_symmetry_multiplicity
 _atom_site_fract_x
 _atom_site_fract_y
 _atom_site_fract_z
 _atom_site_occupancy
  Cs  Cs0  1  0.65987900  0.46863900  0.25299600  1
  Cs  Cs1  1  0.15987900  0.03136100  0.74700400  1
  Cs  Cs2  1  0.34012100  0.53136100  0.74700400  1
  Cs  Cs3  1  0.84012100  0.96863900  0.25299600  1
  P  P0  1  0.18127500  0.33151100  0.42279300  1
  P  P1  1  0.68127500  0.16848900  0.57720700  1
  P  P2  1  0.81872500  0.66848900  0.57720700  1
  P  P3  1  0.31872500  0.83151100  0.42279300  1
  P  P4  1  0.19040600  0.29201600  0.07558900  1
  P  P5  1  0.69040600  0.20798400  0.92441100  1
  P  P6  1  0.80959400  0.70798400  0.92441100  1
  P  P7  1  0.30959400  0.79201600  0.07558900  1
  H  H0  1  0.27511400  0.55648300  0.40537900  1
  H  H1  1  0.77511400  0.94351700  0.59462100  1
  H  H2  1  0.72488600  0.44351700  0.59462100  1
  H  H3  1  0.22488600  0.05648300  0.40537900  1
  H  H4  1  0.97450500  0.31524200  0.55714100  1
  H  H5  1  0.47450500  0.18475800  0.44285900  1
  H  H6  1  0.02549500  0.68475800  0.44285900  1
  H  H7  1  0.52549500  0.81524200  0.55714100  1
  H  H8  1  0.04147500  0.30709700  0.24912200  1
  H  H9  1  0.54147500  0.19290300  0.75087800  1
  H  H10  1  0.95852500  0.69290300  0.75087800  1
  H  H11  1  0.45852500  0.80709700  0.24912200  1
  H  H12  1  0.26805100  0.51114900  0.09282800  1
  H  H13  1  0.76805100  0.98885100  0.90717200  1
  H  H14  1  0.73194900  0.48885100  0.90717200  1
  H  H15  1  0.23194900  0.01114900  0.09282800  1
  H  H16  1  0.98511700  0.34298600  0.93943700  1
  H  H17  1  0.48511700  0.15701400  0.06056300  1
  H  H18  1  0.01488300  0.65701400  0.06056300  1
  H  H19  1  0.51488300  0.84298600  0.93943700  1
  O  O0  1  0.28600100  0.19896800  0.41901000  1
  O  O1  1  0.78600100  0.30103200  0.58099000  1
  O  O2  1  0.71399900  0.80103200  0.58099000  1
  O  O3  1  0.21399900  0.69896800  0.41901000  1
  O  O4  1  0.02925700  0.35254300  0.33671600  1
  O  O5  1  0.52925700  0.14745700  0.66328400  1
  O  O6  1  0.97074300  0.64745700  0.66328400  1
  O  O7  1  0.47074300  0.85254300  0.33671600  1
  O  O8  1  0.31474900  0.45655100  0.39788100  1
  O  O9  1  0.81474900  0.04344900  0.60211900  1
  O  O10  1  0.68525100  0.54344900  0.60211900  1
  O  O11  1  0.18525100  0.95655100  0.39788100  1
  O  O12  1  0.10671900  0.32675500  0.54869500  1
  O  O13  1  0.60671900  0.17324500  0.45130500  1
  O  O14  1  0.89328100  0.67324500  0.45130500  1
  O  O15  1  0.39328100  0.82675500  0.54869500  1
  O  O16  1  0.29962700  0.15987400  0.07969800  1
  O  O17  1  0.79962700  0.34012600  0.92030200  1
  O  O18  1  0.70037300  0.84012600  0.92030200  1
  O  O19  1  0.20037300  0.65987400  0.07969800  1
  O  O20  1  0.03745400  0.26264200  0.16104100  1
  O  O21  1  0.53745400  0.23735800  0.83895900  1
  O  O22  1  0.96254600  0.73735800  0.83895900  1
  O  O23  1  0.46254600  0.76264200  0.16104100  1
  O  O24  1  0.31510600  0.40878000  0.10307500  1
  O  O25  1  0.81510600  0.09122000  0.89692500  1
  O  O26  1  0.68489400  0.59122000  0.89692500  1
  O  O27  1  0.18489400  0.90878000  0.10307500  1
  O  O28  1  0.11781300  0.35038000  0.94892600  1
  O  O29  1  0.61781300  0.14962000  0.05107400  1
  O  O30  1  0.88218700  0.64962000  0.05107400  1
  O  O31  1  0.38218700  0.85038000  0.94892600  1
loop_
_geom_bond_atom_site_label_1
_geom_bond_atom_site_label_2
_geom_bond_distance
_geom_bond_site_symmetry_2
Cs0 O30 3.148967 1_555
Cs0 O4 3.170690 1_655
Cs0 O8 3.173788 1_555
Cs0 O23 3.208203 1_555
Cs0 O13 3.301380 1_555
Cs0 O24 3.332584 1_555
Cs1 O31 3.148967 1_545
Cs1 O5 3.170690 1_555
Cs1 O9 3.173788 1_455
Cs1 O22 3.208203 1_445
Cs1 O12 3.301380 1_555
Cs1 O25 3.332584 1_455
Cs2 O28 3.148967 1_555
Cs2 O6 3.170690 1_455
Cs2 O10 3.173788 1_555
Cs2 O21 3.208203 1_555
Cs2 O15 3.301380 1_555
Cs2 O26 3.332584 1_555
Cs3 O29 3.148967 1_565
Cs3 O7 3.170690 1_555
Cs3 O11 3.173788 1_655
Cs3 O20 3.208203 1_665
Cs3 O14 3.301380 1_555
Cs3 O27 3.332584 1_655
H0 O8 1.035585 1_555
H0 O3 1.497807 1_555
H1 O9 1.035585 1_565
H1 O2 1.497807 1_555
H2 O10 1.035585 1_555
H2 O1 1.497807 1_555
H3 O11 1.035585 1_545
H3 O0 1.497807 1_555
H4 O12 1.039650 1_655
H4 O1 1.497494 1_555
H5 O13 1.039650 1_555
H5 O0 1.497494 1_555
H6 O14 1.039650 1_455
H6 O3 1.497494 1_555
H7 O15 1.039650 1_555
H7 O2 1.497494 1_555
H8 O20 1.203103 1_555
H8 O4 1.206331 1_555
H9 O21 1.203103 1_555
H9 O5 1.206331 1_555
H10 O22 1.203103 1_555
H10 O6 1.206331 1_555
H11 O23 1.203103 1_555
H11 O7 1.206331 1_555
H12 O24 1.037686 1_555
H12 O19 1.507668 1_555
H13 O25 1.037686 1_565
H13 O18 1.507668 1_555
H14 O26 1.037686 1_555
H14 O17 1.507668 1_555
H15 O27 1.037686 1_545
H15 O16 1.507668 1_555
H16 O28 1.045036 1_655
H16 O17 1.465267 1_555
H17 O29 1.045036 1_555
H17 O16 1.465267 1_555
H18 O30 1.045036 1_455
H18 O19 1.465267 1_555
H19 O31 1.045036 1_555
H19 O18 1.465267 1_555
O0 P0 1.527811 1_555
O1 P1 1.527811 1_555
O2 P2 1.527811 1_555
O3 P3 1.527811 1_555
O4 P0 1.543388 1_555
O5 P1 1.543388 1_555
O6 P2 1.543388 1_555
O7 P3 1.543388 1_555
O8 P0 1.574144 1_555
O9 P1 1.574144 1_555
O10 P2 1.574144 1_555
O11 P3 1.574144 1_555
O12 P0 1.581099 1_555
O13 P1 1.581099 1_555
O14 P2 1.581099 1_555
O15 P3 1.581099 1_555
O16 P4 1.527188 1_555
O17 P5 1.527188 1_555
O18 P6 1.527188 1_555
O19 P7 1.527188 1_555
O20 P4 1.545889 1_555
O21 P5 1.545889 1_555
O22 P6 1.545889 1_555
O23 P7 1.545889 1_555
O24 P4 1.574731 1_555
O25 P5 1.574731 1_555
O26 P6 1.574731 1_555
O27 P7 1.574731 1_555
O28 P4 1.579266 1_556
O29 P5 1.579266 1_554
O30 P6 1.579266 1_554
O31 P7 1.579266 1_556
