# generated using pymatgen
data_TmMgS3
_symmetry_space_group_name_H-M   'P 1'
_cell_length_a   6.62411200
_cell_length_b   6.62411177
_cell_length_c   17.88239700
_cell_angle_alpha   90.00000000
_cell_angle_beta   90.00000000
_cell_angle_gamma   120.00000117
_symmetry_Int_Tables_number   1
_chemical_formula_structural   TmMgS3
_chemical_formula_sum   'Tm6 Mg6 S18'
_cell_volume   679.53476049
_cell_formula_units_Z   6
loop_
 _symmetry_equiv_pos_site_id
 _symmetry_equiv_pos_as_xyz
  1  'x, y, z'
loop_
 _atom_site_type_symbol
 _atom_site_label
 _atom_site_symmetry_multiplicity
 _atom_site_fract_x
 _atom_site_fract_y
 _atom_site_fract_z
 _atom_site_occupancy
  Tm  Tm0  1  0.00000000  0.00000000  0.34801800  1
  Tm  Tm1  1  0.00000000  0.00000000  0.65198200  1
  Tm  Tm2  1  0.66666700  0.33333300  0.68135100  1
  Tm  Tm3  1  0.66666700  0.33333300  0.98531500  1
  Tm  Tm4  1  0.33333300  0.66666700  0.01468500  1
  Tm  Tm5  1  0.33333300  0.66666700  0.31864900  1
  Mg  Mg0  1  0.00000000  0.00000000  0.15410200  1
  Mg  Mg1  1  0.00000000  0.00000000  0.84589800  1
  Mg  Mg2  1  0.66666700  0.33333300  0.48743500  1
  Mg  Mg3  1  0.66666700  0.33333300  0.17923100  1
  Mg  Mg4  1  0.33333300  0.66666700  0.82076900  1
  Mg  Mg5  1  0.33333300  0.66666700  0.51256500  1
  S  S0  1  0.98204300  0.34609100  0.58240300  1
  S  S1  1  0.01795700  0.65390900  0.41759700  1
  S  S2  1  0.65390900  0.63595200  0.58240300  1
  S  S3  1  0.34609100  0.36404800  0.41759700  1
  S  S4  1  0.36404800  0.01795700  0.58240300  1
  S  S5  1  0.63595200  0.98204300  0.41759700  1
  S  S6  1  0.64871000  0.67942400  0.91573600  1
  S  S7  1  0.68462400  0.98724200  0.75093000  1
  S  S8  1  0.32057600  0.96928500  0.91573600  1
  S  S9  1  0.01275800  0.69738100  0.75093000  1
  S  S10  1  0.03071500  0.35129000  0.91573600  1
  S  S11  1  0.30261900  0.31537600  0.75093000  1
  S  S12  1  0.31537600  0.01275800  0.24907000  1
  S  S13  1  0.35129000  0.32057600  0.08426400  1
  S  S14  1  0.98724200  0.30261900  0.24907000  1
  S  S15  1  0.67942400  0.03071500  0.08426400  1
  S  S16  1  0.69738100  0.68462400  0.24907000  1
  S  S17  1  0.96928500  0.64871000  0.08426400  1
loop_
_geom_bond_atom_site_label_1
_geom_bond_atom_site_label_2
_geom_bond_distance
_geom_bond_site_symmetry_2
Mg0 S17 2.557828 1_445
Mg0 S13 2.557830 1_555
Mg0 S15 2.557834 1_455
Mg0 S12 2.660629 1_555
Mg0 S16 2.660631 1_445
Mg0 S14 2.660634 1_455
Mg1 S10 2.557828 1_555
Mg1 S6 2.557830 1_445
Mg1 S8 2.557834 1_545
Mg1 S7 2.660629 1_445
Mg1 S11 2.660631 1_555
Mg1 S9 2.660634 1_545
Mg2 S5 2.557828 1_545
Mg2 S1 2.557830 1_655
Mg2 S3 2.557834 1_555
Mg2 S0 2.660629 1_555
Mg2 S4 2.660631 1_555
Mg2 S2 2.660634 1_555
Mg3 S14 2.557833 1_555
Mg3 S12 2.557840 1_555
Mg3 S16 2.557845 1_555
Mg3 S15 2.660614 1_555
Mg3 S17 2.660620 1_555
Mg3 S13 2.660625 1_555
Mg4 S9 2.557833 1_555
Mg4 S7 2.557840 1_555
Mg4 S11 2.557845 1_555
Mg4 S8 2.660614 1_555
Mg4 S10 2.660620 1_555
Mg4 S6 2.660625 1_555
Mg5 S4 2.557828 1_565
Mg5 S0 2.557830 1_455
Mg5 S2 2.557834 1_555
Mg5 S1 2.660629 1_555
Mg5 S5 2.660631 1_555
Mg5 S3 2.660634 1_555
S0 Tm1 2.662845 1_655
S0 Tm2 2.706612 1_555
S1 Tm0 2.662845 1_565
S1 Tm5 2.706612 1_555
S2 Tm1 2.662845 1_665
S2 Tm2 2.706616 1_555
S3 Tm0 2.662845 1_555
S3 Tm5 2.706616 1_555
S4 Tm1 2.662845 1_555
S4 Tm2 2.706614 1_555
S5 Tm0 2.662845 1_665
S5 Tm5 2.706614 1_555
S6 Tm3 2.662845 1_555
S6 Tm4 2.706631 1_556
S7 Tm2 2.662845 1_565
S7 Tm1 2.706612 1_665
S8 Tm3 2.662845 1_565
S8 Tm4 2.706621 1_556
S9 Tm2 2.662845 1_455
S9 Tm1 2.706616 1_565
S10 Tm3 2.662845 1_455
S10 Tm4 2.706626 1_556
S11 Tm2 2.662845 1_555
S11 Tm1 2.706614 1_555
S12 Tm5 2.662845 1_545
S12 Tm0 2.706612 1_555
S13 Tm4 2.662845 1_555
S13 Tm3 2.706631 1_554
S14 Tm5 2.662845 1_655
S14 Tm0 2.706616 1_655
S15 Tm4 2.662845 1_545
S15 Tm3 2.706621 1_554
S16 Tm5 2.662845 1_555
S16 Tm0 2.706614 1_665
S17 Tm4 2.662845 1_655
S17 Tm3 2.706626 1_554
