# generated using pymatgen
data_CsMg14Sn
_symmetry_space_group_name_H-M   'P 1'
_cell_length_a   6.55642264
_cell_length_b   6.55642207
_cell_length_c   10.93364367
_cell_angle_alpha   90.00000000
_cell_angle_beta   90.00000000
_cell_angle_gamma   120.00000286
_symmetry_Int_Tables_number   1
_chemical_formula_structural   CsMg14Sn
_chemical_formula_sum   'Cs1 Mg14 Sn1'
_cell_volume   407.03277449
_cell_formula_units_Z   1
loop_
 _symmetry_equiv_pos_site_id
 _symmetry_equiv_pos_as_xyz
  1  'x, y, z'
loop_
 _atom_site_type_symbol
 _atom_site_label
 _atom_site_symmetry_multiplicity
 _atom_site_fract_x
 _atom_site_fract_y
 _atom_site_fract_z
 _atom_site_occupancy
  Cs  Cs0  1  0.16666700  0.33333300  0.62500000  1
  Mg  Mg0  1  0.16195835  0.83097867  0.12500000  1
  Mg  Mg1  1  0.17168020  0.83583960  0.62500000  1
  Mg  Mg2  1  0.66902133  0.33804165  0.12500000  1
  Mg  Mg3  1  0.66416040  0.32831980  0.62500000  1
  Mg  Mg4  1  0.66902133  0.83097867  0.12500000  1
  Mg  Mg5  1  0.66416040  0.83583960  0.62500000  1
  Mg  Mg6  1  0.33918889  0.16081111  0.36134007  1
  Mg  Mg7  1  0.33918889  0.16081111  0.88865993  1
  Mg  Mg8  1  0.33918889  0.67837877  0.36134007  1
  Mg  Mg9  1  0.33918889  0.67837877  0.88865993  1
  Mg  Mg10  1  0.82162123  0.16081111  0.36134007  1
  Mg  Mg11  1  0.82162123  0.16081111  0.88865993  1
  Mg  Mg12  1  0.83333300  0.66666700  0.38121135  1
  Mg  Mg13  1  0.83333300  0.66666700  0.86878865  1
  Sn  Sn0  1  0.16666700  0.33333300  0.12500000  1
loop_
_geom_bond_atom_site_label_1
_geom_bond_atom_site_label_2
_geom_bond_distance
_geom_bond_site_symmetry_2
Cs0 Mg1 3.278335 1_555
Cs0 Mg5 3.278335 1_555
Cs0 Mg5 3.278335 1_445
Cs0 Mg1 3.278335 1_545
Cs0 Mg3 3.278335 1_455
Cs0 Mg3 3.278335 1_555
Cs0 Mg6 3.485494 1_555
Cs0 Mg7 3.485494 1_555
Cs0 Mg8 3.485500 1_555
Cs0 Mg9 3.485500 1_555
Cs0 Mg11 3.485500 1_455
Cs0 Mg10 3.485500 1_455
Mg0 Mg8 3.192367 1_555
Mg0 Mg9 3.192367 1_554
Mg0 Mg7 3.192373 1_564
Mg0 Mg6 3.192373 1_565
Mg0 Mg2 3.231903 1_455
Mg0 Mg4 3.231903 1_455
Mg0 Sn0 3.278320 1_555
Mg0 Sn0 3.278320 1_565
Mg0 Mg2 3.324519 1_565
Mg0 Mg4 3.324519 1_555
Mg0 Mg13 3.365882 1_454
Mg0 Mg12 3.365882 1_455
Mg1 Mg12 3.285678 1_455
Mg1 Mg13 3.285678 1_455
Mg1 Mg8 3.422882 1_555
Mg1 Mg9 3.422882 1_555
Mg1 Mg6 3.422888 1_565
Mg1 Mg7 3.422888 1_565
Mg2 Mg7 3.192373 1_554
Mg2 Mg6 3.192373 1_555
Mg2 Mg4 3.231903 1_555
Mg2 Sn0 3.278320 1_655
Mg2 Sn0 3.278320 1_555
Mg2 Mg4 3.324519 1_545
Mg3 Mg6 3.422888 1_555
Mg3 Mg7 3.422888 1_555
Mg4 Mg9 3.192374 1_554
Mg4 Mg8 3.192374 1_555
Mg4 Sn0 3.278320 1_665
Mg4 Sn0 3.278320 1_555
Mg5 Mg8 3.422889 1_555
Mg5 Mg9 3.422889 1_555
Mg6 Mg8 3.163030 1_545
Mg6 Sn0 3.242792 1_555
Mg6 Mg8 3.393392 1_555
Mg7 Mg9 3.163030 1_545
Mg7 Sn0 3.242792 1_556
Mg7 Mg9 3.393392 1_555
Mg8 Sn0 3.242798 1_555
Mg9 Sn0 3.242798 1_556
Mg10 Mg8 3.163030 1_545
Mg10 Mg6 3.163030 1_555
Mg10 Mg2 3.192367 1_555
Mg10 Mg4 3.192374 1_545
Mg10 Sn0 3.242798 1_655
Mg10 Mg12 3.286076 1_545
Mg10 Mg12 3.286076 1_555
Mg10 Mg8 3.393392 1_655
Mg10 Mg6 3.393392 1_655
Mg10 Mg3 3.422882 1_555
Mg10 Mg5 3.422888 1_545
Mg11 Mg9 3.163030 1_545
Mg11 Mg7 3.163030 1_555
Mg11 Mg2 3.192367 1_556
Mg11 Mg4 3.192374 1_546
Mg11 Sn0 3.242798 1_656
Mg11 Mg13 3.286076 1_545
Mg11 Mg13 3.286076 1_555
Mg11 Mg9 3.393392 1_655
Mg11 Mg7 3.393392 1_655
Mg11 Mg3 3.422882 1_555
Mg11 Mg5 3.422888 1_545
Mg12 Mg5 3.285671 1_555
Mg12 Mg3 3.285678 1_555
Mg12 Mg6 3.286076 1_555
Mg12 Mg6 3.286076 1_665
Mg12 Mg8 3.286076 1_555
Mg12 Mg8 3.286076 1_655
Mg12 Mg4 3.365876 1_555
Mg12 Mg2 3.365882 1_555
Mg13 Mg5 3.285671 1_555
Mg13 Mg3 3.285678 1_555
Mg13 Mg7 3.286076 1_555
Mg13 Mg7 3.286076 1_665
Mg13 Mg9 3.286076 1_555
Mg13 Mg9 3.286076 1_655
Mg13 Mg4 3.365876 1_556
Mg13 Mg2 3.365882 1_556
