# generated using pymatgen
data_TaCr3(AgS4)2
_symmetry_space_group_name_H-M   'P 1'
_cell_length_a   11.86440635
_cell_length_b   3.47292400
_cell_length_c   12.23868779
_cell_angle_alpha   90.00000000
_cell_angle_beta   89.86342653
_cell_angle_gamma   90.00000000
_symmetry_Int_Tables_number   1
_chemical_formula_structural   TaCr3(AgS4)2
_chemical_formula_sum   'Ta2 Cr6 Ag4 S16'
_cell_volume   504.28368106
_cell_formula_units_Z   2
loop_
 _symmetry_equiv_pos_site_id
 _symmetry_equiv_pos_as_xyz
  1  'x, y, z'
loop_
 _atom_site_type_symbol
 _atom_site_label
 _atom_site_symmetry_multiplicity
 _atom_site_fract_x
 _atom_site_fract_y
 _atom_site_fract_z
 _atom_site_occupancy
  Ta  Ta0  1  0.14793000  0.25000000  0.71482700  1
  Ta  Ta1  1  0.85207000  0.75000000  0.28517300  1
  Cr  Cr0  1  0.11309300  0.25000000  0.08187400  1
  Cr  Cr1  1  0.88690700  0.75000000  0.91812600  1
  Cr  Cr2  1  0.39834100  0.75000000  0.57303500  1
  Cr  Cr3  1  0.60165900  0.25000000  0.42696500  1
  Cr  Cr4  1  0.34791600  0.75000000  0.20644800  1
  Cr  Cr5  1  0.65208400  0.25000000  0.79355200  1
  Ag  Ag0  1  0.14575700  0.75000000  0.40579200  1
  Ag  Ag1  1  0.85424300  0.25000000  0.59420800  1
  Ag  Ag2  1  0.37678600  0.25000000  0.92445900  1
  Ag  Ag3  1  0.62321400  0.75000000  0.07554100  1
  S  S0  1  0.04487300  0.75000000  0.61702700  1
  S  S1  1  0.95512700  0.25000000  0.38297300  1
  S  S2  1  0.45426200  0.25000000  0.12685400  1
  S  S3  1  0.54573800  0.75000000  0.87314600  1
  S  S4  1  0.03309000  0.25000000  0.88084000  1
  S  S5  1  0.96691000  0.75000000  0.11916000  1
  S  S6  1  0.46813100  0.75000000  0.38556800  1
  S  S7  1  0.53186900  0.25000000  0.61443200  1
  S  S8  1  0.21228800  0.25000000  0.24986500  1
  S  S9  1  0.78771200  0.75000000  0.75013500  1
  S  S10  1  0.29038000  0.75000000  0.75457600  1
  S  S11  1  0.70962000  0.25000000  0.24542400  1
  S  S12  1  0.23777000  0.75000000  0.04107300  1
  S  S13  1  0.76223000  0.25000000  0.95892700  1
  S  S14  1  0.26569200  0.25000000  0.53554600  1
  S  S15  1  0.73430800  0.75000000  0.46445400  1
loop_
_geom_bond_atom_site_label_1
_geom_bond_atom_site_label_2
_geom_bond_distance
_geom_bond_site_symmetry_2
Cr0 S12 2.334356 1_555
Cr0 S12 2.334356 1_545
Cr0 S8 2.371434 1_555
Cr0 S5 2.495560 1_455
Cr0 S5 2.495560 1_445
Cr0 S4 2.639246 1_554
Cr1 S13 2.334356 1_555
Cr1 S13 2.334356 1_565
Cr1 S9 2.371434 1_555
Cr1 S4 2.495560 1_665
Cr1 S4 2.495560 1_655
Cr1 S5 2.639246 1_556
Cr2 S14 2.388746 1_565
Cr2 S14 2.388746 1_555
Cr2 S7 2.405328 1_555
Cr2 S7 2.405328 1_565
Cr2 S6 2.437334 1_555
Cr2 S10 2.561956 1_555
Cr3 S15 2.388746 1_545
Cr3 S15 2.388746 1_555
Cr3 S6 2.405328 1_545
Cr3 S6 2.405328 1_555
Cr3 S7 2.437334 1_555
Cr3 S11 2.561956 1_555
Cr4 S2 2.355914 1_565
Cr4 S2 2.355914 1_555
Cr4 S12 2.411814 1_555
Cr4 S8 2.425474 1_555
Cr4 S8 2.425474 1_565
Cr4 S6 2.618185 1_555
Cr5 S3 2.355914 1_545
Cr5 S3 2.355914 1_555
Cr5 S13 2.411814 1_555
Cr5 S9 2.425474 1_555
Cr5 S9 2.425474 1_545
Cr5 S7 2.618185 1_555
Ag0 S8 2.696843 1_565
Ag0 S8 2.696843 1_555
Ag0 S14 2.751851 1_565
Ag0 S14 2.751851 1_555
Ag0 S0 2.846287 1_555
Ag0 S1 2.865597 1_465
Ag0 S1 2.865597 1_455
Ag1 S9 2.696843 1_545
Ag1 S9 2.696843 1_555
Ag1 S15 2.751851 1_555
Ag1 S15 2.751851 1_545
Ag1 S1 2.846287 1_555
Ag1 S0 2.865597 1_655
Ag1 S0 2.865597 1_645
Ag2 S2 2.644157 1_556
Ag2 S3 2.724292 1_555
Ag2 S3 2.724292 1_545
Ag2 S12 2.785914 1_546
Ag2 S12 2.785914 1_556
Ag2 S10 2.898146 1_545
Ag2 S10 2.898146 1_555
Ag3 S3 2.644157 1_554
Ag3 S2 2.724292 1_555
Ag3 S2 2.724292 1_565
Ag3 S13 2.785914 1_554
Ag3 S13 2.785914 1_564
Ag3 S11 2.898146 1_565
Ag3 S11 2.898146 1_555
S0 Ta0 2.439256 1_565
S0 Ta0 2.439256 1_555
S1 Ta1 2.439256 1_555
S1 Ta1 2.439256 1_545
S4 Ta0 2.443638 1_555
S5 Ta1 2.443638 1_555
S10 Ta0 2.472299 1_565
S10 Ta0 2.472299 1_555
S11 Ta1 2.472299 1_555
S11 Ta1 2.472299 1_545
S14 Ta0 2.598431 1_555
S15 Ta1 2.598431 1_555
