# generated using pymatgen
data_K7Ti8(PO4)12
_symmetry_space_group_name_H-M   'P 1'
_cell_length_a   9.98847984
_cell_length_b   9.98847984
_cell_length_c   9.98848044
_cell_angle_alpha   90.11936003
_cell_angle_beta   90.11936003
_cell_angle_gamma   90.11936282
_symmetry_Int_Tables_number   1
_chemical_formula_structural   K7Ti8(PO4)12
_chemical_formula_sum   'K7 Ti8 P12 O48'
_cell_volume   996.54149611
_cell_formula_units_Z   1
loop_
 _symmetry_equiv_pos_site_id
 _symmetry_equiv_pos_as_xyz
  1  'x, y, z'
loop_
 _atom_site_type_symbol
 _atom_site_label
 _atom_site_symmetry_multiplicity
 _atom_site_fract_x
 _atom_site_fract_y
 _atom_site_fract_z
 _atom_site_occupancy
  K  K0  1  0.29050800  0.29050800  0.29050800  1
  K  K1  1  0.79285200  0.70841200  0.20747800  1
  K  K2  1  0.70841200  0.20747800  0.79285200  1
  K  K3  1  0.20747800  0.79285200  0.70841200  1
  K  K4  1  0.56655000  0.93362400  0.43317900  1
  K  K5  1  0.93362400  0.43317900  0.56655000  1
  K  K6  1  0.43317900  0.56655000  0.93362400  1
  Ti  Ti0  1  0.86060000  0.86060000  0.86060000  1
  Ti  Ti1  1  0.35690400  0.14236600  0.64281900  1
  Ti  Ti2  1  0.14236600  0.64281900  0.35690400  1
  Ti  Ti3  1  0.64281900  0.35690400  0.14236600  1
  Ti  Ti4  1  0.58776300  0.58776300  0.58776300  1
  Ti  Ti5  1  0.08754000  0.40976900  0.91479700  1
  Ti  Ti6  1  0.40976900  0.91479700  0.08754000  1
  Ti  Ti7  1  0.91479700  0.08754000  0.40976900  1
  P  P0  1  0.45889700  0.62791000  0.27494200  1
  P  P1  1  0.62791000  0.27494200  0.45889700  1
  P  P2  1  0.27494200  0.45889700  0.62791000  1
  P  P3  1  0.95903900  0.37170300  0.22465900  1
  P  P4  1  0.12750500  0.72587500  0.04118000  1
  P  P5  1  0.77564600  0.54152900  0.87241400  1
  P  P6  1  0.54152900  0.87241400  0.77564600  1
  P  P7  1  0.37170300  0.22465900  0.95903900  1
  P  P8  1  0.72587500  0.04118000  0.12750500  1
  P  P9  1  0.04118000  0.12750500  0.72587500  1
  P  P10  1  0.87241400  0.77564600  0.54152900  1
  P  P11  1  0.22465900  0.95903900  0.37170300  1
  O  O0  1  0.35422600  0.07696900  0.99948200  1
  O  O1  1  0.07696900  0.99948200  0.35422600  1
  O  O2  1  0.99948200  0.35422600  0.07696900  1
  O  O3  1  0.85191000  0.92312800  0.49981800  1
  O  O4  1  0.57747300  0.99979800  0.14742700  1
  O  O5  1  0.49997800  0.64774100  0.42280600  1
  O  O6  1  0.64774100  0.42280600  0.49997800  1
  O  O7  1  0.92312800  0.49981800  0.85191000  1
  O  O8  1  0.99979800  0.14742700  0.57747300  1
  O  O9  1  0.14742700  0.57747300  0.99979800  1
  O  O10  1  0.42280600  0.49997800  0.64774100  1
  O  O11  1  0.49981800  0.85191000  0.92312800  1
  O  O12  1  0.31223800  0.57791700  0.26689900  1
  O  O13  1  0.57791700  0.26689900  0.31223800  1
  O  O14  1  0.26689900  0.31223800  0.57791700  1
  O  O15  1  0.81201000  0.42126900  0.23274100  1
  O  O16  1  0.07864100  0.73201800  0.18827100  1
  O  O17  1  0.76702900  0.68835000  0.92145700  1
  O  O18  1  0.68835000  0.92145700  0.76702900  1
  O  O19  1  0.42126900  0.23274100  0.81201000  1
  O  O20  1  0.73201800  0.18827100  0.07864100  1
  O  O21  1  0.18827100  0.07864100  0.73201800  1
  O  O22  1  0.92145700  0.76702900  0.68835000  1
  O  O23  1  0.23274100  0.81201000  0.42126900  1
  O  O24  1  0.47857100  0.76428800  0.20370400  1
  O  O25  1  0.76428800  0.20370400  0.47857100  1
  O  O26  1  0.20370400  0.47857100  0.76428800  1
  O  O27  1  0.97726600  0.23678400  0.29831700  1
  O  O28  1  0.26511100  0.79527000  0.02170100  1
  O  O29  1  0.70378800  0.52154600  0.73582000  1
  O  O30  1  0.52154600  0.73582000  0.70378800  1
  O  O31  1  0.23678400  0.29831700  0.97726600  1
  O  O32  1  0.79527000  0.02170100  0.26511100  1
  O  O33  1  0.02170100  0.26511100  0.79527000  1
  O  O34  1  0.73582000  0.70378800  0.52154600  1
  O  O35  1  0.29831700  0.97726600  0.23678400  1
  O  O36  1  0.29788000  0.05238200  0.47191800  1
  O  O37  1  0.05238200  0.47191800  0.29788000  1
  O  O38  1  0.47191800  0.29788000  0.05238200  1
  O  O39  1  0.79610600  0.94657100  0.02700700  1
  O  O40  1  0.55237700  0.52743900  0.20208500  1
  O  O41  1  0.97192900  0.70201900  0.44788200  1
  O  O42  1  0.70201900  0.44788200  0.97192900  1
  O  O43  1  0.94657100  0.02700700  0.79610600  1
  O  O44  1  0.52743900  0.20208500  0.55237700  1
  O  O45  1  0.20208500  0.55237700  0.52743900  1
  O  O46  1  0.44788200  0.97192900  0.70201900  1
  O  O47  1  0.02700700  0.79610600  0.94657100  1
loop_
_geom_bond_atom_site_label_1
_geom_bond_atom_site_label_2
_geom_bond_distance
_geom_bond_site_symmetry_2
K0 O12 2.888690 1_555
K0 O13 2.888690 1_555
K0 O14 2.888690 1_555
K0 O36 2.994040 1_555
K0 O37 2.994040 1_555
K0 O38 2.994040 1_555
K0 O27 3.174540 1_455
K0 O35 3.174540 1_545
K0 O31 3.174540 1_554
K1 O16 2.870679 1_655
K1 O17 2.874540 1_554
K1 O15 2.886437 1_555
K1 O39 2.987848 1_555
K1 O41 2.992135 1_555
K1 O40 3.003490 1_555
K1 O32 3.180644 1_565
K1 O24 3.189721 1_555
K1 O34 3.189945 1_555
K2 O20 2.870679 1_556
K2 O18 2.874539 1_545
K2 O19 2.886437 1_555
K2 O43 2.987848 1_555
K2 O42 2.992135 1_555
K2 O44 3.003490 1_555
K2 O33 3.180644 1_655
K2 O25 3.189721 1_555
K2 O29 3.189945 1_555
K3 O21 2.870679 1_565
K3 O22 2.874539 1_455
K3 O23 2.886437 1_555
K3 O47 2.987848 1_555
K3 O46 2.992135 1_555
K3 O45 3.003490 1_555
K3 O28 3.180644 1_556
K3 O26 3.189721 1_555
K3 O30 3.189945 1_555
K4 O3 2.927791 1_555
K4 O5 2.932159 1_555
K4 O4 2.933304 1_555
K4 O44 2.958664 1_565
K4 O46 2.961938 1_555
K4 O36 2.962134 1_565
K4 O32 2.970715 1_565
K4 O24 2.975925 1_555
K4 O34 2.987708 1_555
K5 O7 2.927791 1_555
K5 O6 2.932159 1_555
K5 O8 2.933304 1_555
K5 O45 2.958664 1_655
K5 O41 2.961938 1_555
K5 O37 2.962134 1_655
K5 O33 2.970715 1_655
K5 O25 2.975925 1_555
K5 O29 2.987708 1_555
K6 O11 2.927790 1_555
K6 O10 2.932159 1_555
K6 O9 2.933304 1_555
K6 O40 2.958665 1_556
K6 O42 2.961938 1_555
K6 O38 2.962134 1_556
K6 O28 2.970715 1_556
K6 O26 2.975925 1_555
K6 O30 2.987708 1_555
O0 P7 1.539992 1_555
O0 Ti6 1.926913 1_546
O1 P11 1.539992 1_555
O1 Ti7 1.926913 1_465
O2 P3 1.539992 1_555
O2 Ti5 1.926913 1_654
O3 P10 1.545661 1_555
O3 Ti7 1.976031 1_565
O4 P8 1.551358 1_565
O4 Ti6 1.967852 1_555
O5 P0 1.544303 1_555
O5 Ti4 1.960319 1_555
O6 P1 1.544303 1_555
O6 Ti4 1.960319 1_555
O7 P5 1.545661 1_555
O7 Ti5 1.976031 1_655
O8 P9 1.551358 1_655
O8 Ti7 1.967852 1_555
O9 P4 1.551358 1_556
O9 Ti5 1.967852 1_555
O10 P2 1.544303 1_555
O10 Ti4 1.960319 1_555
O11 P6 1.545661 1_555
O11 Ti6 1.976031 1_556
O12 P0 1.548560 1_555
O12 Ti2 2.028792 1_555
O13 P1 1.548560 1_555
O13 Ti3 2.028792 1_555
O14 P2 1.548560 1_555
O14 Ti1 2.028792 1_555
O15 P3 1.552985 1_555
O15 Ti3 2.017643 1_555
O16 P4 1.550263 1_555
O16 Ti2 2.010044 1_555
O17 P5 1.547825 1_555
O17 Ti0 2.050181 1_555
O18 P6 1.547825 1_555
O18 Ti0 2.050181 1_555
O19 P7 1.552985 1_555
O19 Ti1 2.017643 1_555
O20 P8 1.550263 1_555
O20 Ti3 2.010044 1_555
O21 P9 1.550263 1_555
O21 Ti1 2.010044 1_555
O22 P10 1.547825 1_555
O22 Ti0 2.050181 1_555
O23 P11 1.552985 1_555
O23 Ti2 2.017643 1_555
O24 P0 1.550501 1_555
O24 Ti6 2.021611 1_555
O25 P1 1.550501 1_555
O25 Ti7 2.021611 1_555
O26 P2 1.550501 1_555
O26 Ti5 2.021611 1_555
O27 P3 1.547632 1_555
O27 Ti7 1.963877 1_555
O28 P4 1.550871 1_555
O28 Ti6 1.982730 1_555
O29 P5 1.552641 1_555
O29 Ti4 1.991911 1_555
O30 P6 1.552640 1_555
O30 Ti4 1.991911 1_555
O31 P7 1.547632 1_555
O31 Ti5 1.963878 1_555
O32 P8 1.550871 1_555
O32 Ti7 1.982730 1_555
O33 P9 1.550871 1_555
O33 Ti5 1.982730 1_555
O34 P10 1.552640 1_555
O34 Ti4 1.991911 1_555
O35 P11 1.547632 1_555
O35 Ti6 1.963878 1_555
O36 P11 1.548029 1_545
O36 Ti1 2.014106 1_555
O37 P3 1.548029 1_455
O37 Ti2 2.014106 1_555
O38 P7 1.548029 1_554
O38 Ti3 2.014106 1_555
O39 P8 1.547427 1_565
O39 Ti0 1.978879 1_554
O40 P0 1.553139 1_555
O40 Ti3 2.019369 1_555
O41 P10 1.551741 1_555
O41 Ti2 2.020406 1_655
O42 P5 1.551740 1_555
O42 Ti3 2.020406 1_556
O43 P9 1.547427 1_655
O43 Ti0 1.978879 1_545
O44 P1 1.553139 1_555
O44 Ti1 2.019369 1_555
O45 P2 1.553139 1_555
O45 Ti2 2.019369 1_555
O46 P6 1.551741 1_555
O46 Ti1 2.020406 1_565
O47 P4 1.547427 1_556
O47 Ti0 1.978879 1_455
