# generated using pymatgen
data_Pr3Cu3Sb4
_symmetry_space_group_name_H-M   'P 1'
_cell_length_a   8.48733795
_cell_length_b   8.48733795
_cell_length_c   8.48733795
_cell_angle_alpha   109.47122063
_cell_angle_beta   109.47122063
_cell_angle_gamma   109.47122063
_symmetry_Int_Tables_number   1
_chemical_formula_structural   Pr3Cu3Sb4
_chemical_formula_sum   'Pr6 Cu6 Sb8'
_cell_volume   470.64407446
_cell_formula_units_Z   2
loop_
 _symmetry_equiv_pos_site_id
 _symmetry_equiv_pos_as_xyz
  1  'x, y, z'
loop_
 _atom_site_type_symbol
 _atom_site_label
 _atom_site_symmetry_multiplicity
 _atom_site_fract_x
 _atom_site_fract_y
 _atom_site_fract_z
 _atom_site_occupancy
  Pr  Pr0  1  0.87500000  0.25000000  0.12500000  1
  Pr  Pr1  1  0.62500000  0.75000000  0.37500000  1
  Pr  Pr2  1  0.25000000  0.12500000  0.87500000  1
  Pr  Pr3  1  0.75000000  0.37500000  0.62500000  1
  Pr  Pr4  1  0.12500000  0.87500000  0.25000000  1
  Pr  Pr5  1  0.37500000  0.62500000  0.75000000  1
  Cu  Cu0  1  0.37500000  0.25000000  0.62500000  1
  Cu  Cu1  1  0.12500000  0.75000000  0.87500000  1
  Cu  Cu2  1  0.25000000  0.62500000  0.37500000  1
  Cu  Cu3  1  0.75000000  0.87500000  0.12500000  1
  Cu  Cu4  1  0.62500000  0.37500000  0.25000000  1
  Cu  Cu5  1  0.87500000  0.12500000  0.75000000  1
  Sb  Sb0  1  0.65654930  0.50000000  -0.00000000  1
  Sb  Sb1  1  0.50000000  0.00000000  0.65654930  1
  Sb  Sb2  1  -0.00000000  0.65654930  0.50000000  1
  Sb  Sb3  1  0.84345070  0.84345070  0.84345070  1
  Sb  Sb4  1  0.50000000  -0.00000000  0.15654930  1
  Sb  Sb5  1  0.15654930  0.50000000  -0.00000000  1
  Sb  Sb6  1  -0.00000000  0.15654930  0.50000000  1
  Sb  Sb7  1  0.34345070  0.34345070  0.34345070  1
loop_
_geom_bond_atom_site_label_1
_geom_bond_atom_site_label_2
_geom_bond_distance
_geom_bond_site_symmetry_2
Pr0 Sb5 3.338944 1_655
Pr0 Sb3 3.338944 1_544
Pr0 Sb4 3.338944 1_555
Pr0 Sb2 3.338944 1_655
Pr0 Sb7 3.446353 1_655
Pr0 Sb0 3.446353 1_555
Pr0 Sb6 3.446353 1_655
Pr0 Sb1 3.446353 1_554
Pr1 Sb7 3.338944 1_555
Pr1 Sb1 3.338944 1_565
Pr1 Sb0 3.338944 1_555
Pr1 Sb6 3.338944 1_665
Pr1 Sb3 3.446353 1_555
Pr1 Sb4 3.446353 1_565
Pr1 Sb5 3.446353 1_555
Pr1 Sb2 3.446353 1_655
Pr2 Sb4 3.338944 1_556
Pr2 Sb6 3.338944 1_555
Pr2 Sb3 3.338944 1_445
Pr2 Sb0 3.338944 1_556
Pr2 Sb7 3.446353 1_556
Pr2 Sb1 3.446353 1_555
Pr2 Sb5 3.446353 1_556
Pr2 Sb2 3.446353 1_545
Pr3 Sb1 3.338944 1_555
Pr3 Sb7 3.338944 1_555
Pr3 Sb5 3.338944 1_656
Pr3 Sb2 3.338944 1_655
Pr3 Sb3 3.446353 1_555
Pr3 Sb4 3.446353 1_555
Pr3 Sb6 3.446353 1_655
Pr3 Sb0 3.446353 1_556
Pr4 Sb5 3.338944 1_555
Pr4 Sb3 3.338944 1_454
Pr4 Sb1 3.338944 1_565
Pr4 Sb6 3.338944 1_565
Pr4 Sb0 3.446353 1_455
Pr4 Sb7 3.446353 1_565
Pr4 Sb4 3.446353 1_565
Pr4 Sb2 3.446353 1_555
Pr5 Sb7 3.338944 1_555
Pr5 Sb4 3.338944 1_566
Pr5 Sb2 3.338944 1_555
Pr5 Sb0 3.338944 1_556
Pr5 Sb3 3.446353 1_555
Pr5 Sb6 3.446353 1_555
Pr5 Sb5 3.446353 1_556
Pr5 Sb1 3.446353 1_565
Cu0 Sb6 2.718371 1_555
Cu0 Sb7 2.718371 1_555
Cu0 Sb1 2.718371 1_555
Cu0 Sb0 2.718371 1_556
Cu0 Pr4 3.000727 1_545
Cu0 Pr3 3.000727 1_555
Cu0 Pr2 3.000727 1_555
Cu0 Pr5 3.000727 1_555
Cu1 Sb4 2.718371 1_566
Cu1 Sb2 2.718371 1_555
Cu1 Sb5 2.718371 1_556
Cu1 Sb3 2.718371 1_455
Cu1 Pr2 3.000727 1_565
Cu1 Pr3 3.000727 1_455
Cu1 Pr5 3.000727 1_555
Cu1 Pr4 3.000727 1_556
Cu2 Sb7 2.718371 1_555
Cu2 Sb5 2.718371 1_555
Cu2 Sb2 2.718371 1_555
Cu2 Sb1 2.718371 1_565
Cu2 Pr1 3.000727 1_555
Cu2 Pr5 3.000727 1_555
Cu2 Pr4 3.000727 1_555
Cu2 Pr0 3.000727 1_455
Cu3 Sb6 2.718371 1_665
Cu3 Sb4 2.718371 1_565
Cu3 Sb3 2.718371 1_554
Cu3 Sb0 2.718371 1_555
Cu3 Pr1 3.000727 1_555
Cu3 Pr0 3.000727 1_565
Cu3 Pr5 3.000727 1_554
Cu3 Pr4 3.000727 1_655
Cu4 Sb0 2.718371 1_555
Cu4 Sb7 2.718371 1_555
Cu4 Sb4 2.718371 1_555
Cu4 Sb2 2.718371 1_655
Cu4 Pr2 3.000727 1_554
Cu4 Pr1 3.000727 1_555
Cu4 Pr3 3.000727 1_555
Cu4 Pr0 3.000727 1_555
Cu5 Sb3 2.718371 1_545
Cu5 Sb1 2.718371 1_555
Cu5 Sb6 2.718371 1_655
Cu5 Sb5 2.718371 1_656
Cu5 Pr1 3.000727 1_545
Cu5 Pr2 3.000727 1_655
Cu5 Pr3 3.000727 1_555
Cu5 Pr0 3.000727 1_556
