# generated using pymatgen
data_HfZr(SbRh)2
_symmetry_space_group_name_H-M   'P 1'
_cell_length_a   7.90942829
_cell_length_b   7.90942829
_cell_length_c   7.90942880
_cell_angle_alpha   34.00078867
_cell_angle_beta   34.00078867
_cell_angle_gamma   34.00078732
_symmetry_Int_Tables_number   1
_chemical_formula_structural   HfZr(SbRh)2
_chemical_formula_sum   'Hf1 Zr1 Sb2 Rh2'
_cell_volume   137.92338080
_cell_formula_units_Z   1
loop_
 _symmetry_equiv_pos_site_id
 _symmetry_equiv_pos_as_xyz
  1  'x, y, z'
loop_
 _atom_site_type_symbol
 _atom_site_label
 _atom_site_symmetry_multiplicity
 _atom_site_fract_x
 _atom_site_fract_y
 _atom_site_fract_z
 _atom_site_occupancy
  Hf  Hf0  1  0.62586700  0.62586700  0.62586700  1
  Zr  Zr0  1  0.12542500  0.12542500  0.12542500  1
  Sb  Sb0  1  0.99804600  0.99804600  0.99804600  1
  Sb  Sb1  1  0.50067300  0.50067300  0.50067300  1
  Rh  Rh0  1  0.74848000  0.74848000  0.74848000  1
  Rh  Rh1  1  0.25151000  0.25151000  0.25151000  1
loop_
_geom_bond_atom_site_label_1
_geom_bond_atom_site_label_2
_geom_bond_distance
_geom_bond_site_symmetry_2
Hf0 Rh0 2.738575 1_555
Hf0 Sb1 2.796222 1_555
Hf0 Sb0 2.807713 1_455
Hf0 Sb0 2.807713 1_545
Hf0 Sb0 2.807713 1_554
Hf0 Rh1 2.823125 1_565
Hf0 Rh1 2.823125 1_655
Hf0 Rh1 2.823125 1_556
Sb0 Zr0 2.845024 1_666
Sb1 Zr0 2.829646 1_565
Sb1 Zr0 2.829646 1_655
Sb1 Zr0 2.829646 1_556
Rh0 Zr0 2.842411 1_566
Rh0 Zr0 2.842411 1_656
Rh0 Zr0 2.842411 1_665
Rh1 Zr0 2.816122 1_555
