# generated using pymatgen
data_Li7Mn4CoO12
_symmetry_space_group_name_H-M   'P 1'
_cell_length_a   2.98904586
_cell_length_b   14.63411996
_cell_length_c   5.08511506
_cell_angle_alpha   92.21466671
_cell_angle_beta   86.61418601
_cell_angle_gamma   92.81357278
_symmetry_Int_Tables_number   1
_chemical_formula_structural   Li7Mn4CoO12
_chemical_formula_sum   'Li7 Mn4 Co1 O12'
_cell_volume   221.63489226
_cell_formula_units_Z   1
loop_
 _symmetry_equiv_pos_site_id
 _symmetry_equiv_pos_as_xyz
  1  'x, y, z'
loop_
 _atom_site_type_symbol
 _atom_site_label
 _atom_site_symmetry_multiplicity
 _atom_site_fract_x
 _atom_site_fract_y
 _atom_site_fract_z
 _atom_site_occupancy
  Li  Li0  1  0.99224800  0.15505200  0.65319600  1
  Li  Li1  1  0.49718700  0.50079800  0.49641300  1
  Li  Li2  1  0.00724700  0.84301000  0.34419600  1
  Li  Li3  1  0.50547900  0.15820300  0.17013600  1
  Li  Li4  1  0.00044300  0.50218600  0.00251500  1
  Li  Li5  1  0.49766100  0.84161600  0.83199400  1
  Li  Li6  1  0.49989300  0.99940900  0.50013200  1
  Mn  Mn0  1  0.99980600  0.99969800  0.99988700  1
  Mn  Mn1  1  0.99694400  0.66766100  0.66609400  1
  Mn  Mn2  1  0.50359800  0.33327700  0.83405500  1
  Mn  Mn3  1  0.00323300  0.33270000  0.33411800  1
  Co  Co0  1  0.49707400  0.66703800  0.16613200  1
  O  O0  1  0.52836100  0.07179300  0.85406600  1
  O  O1  1  0.97323500  0.41171200  0.65745900  1
  O  O2  1  0.48171200  0.74156200  0.49067700  1
  O  O3  1  0.99226400  0.07874500  0.30858000  1
  O  O4  1  0.46982600  0.41195100  0.15790000  1
  O  O5  1  0.96710900  0.73964400  0.99953500  1
  O  O6  1  0.53032900  0.25638100  0.51062500  1
  O  O7  1  0.03145600  0.59094200  0.33845000  1
  O  O8  1  0.47043100  0.92754900  0.14571800  1
  O  O9  1  0.02637100  0.25834600  0.00624300  1
  O  O10  1  0.51982000  0.59075100  0.84069800  1
  O  O11  1  0.00827500  0.91997600  0.69118200  1
loop_
_geom_bond_atom_site_label_1
_geom_bond_atom_site_label_2
_geom_bond_distance
_geom_bond_site_symmetry_2
Li0 O3 2.041247 1_555
Li0 O0 2.052693 1_555
Li0 O6 2.241092 1_655
Li0 O6 2.243464 1_555
Li0 O9 2.305469 1_656
Li0 O0 2.361570 1_655
Li1 O4 2.119800 1_555
Li1 O1 2.133912 1_455
Li1 O10 2.151655 1_555
Li1 O7 2.158537 1_655
Li1 O7 2.172013 1_555
Li1 O1 2.190270 1_555
Li2 O11 2.056371 1_555
Li2 O8 2.056522 1_555
Li2 O2 2.223681 1_455
Li2 O5 2.275178 1_454
Li2 O2 2.277522 1_555
Li2 O8 2.367808 1_455
Li3 O3 1.990361 1_455
Li3 O0 2.006343 1_554
Li3 O3 2.077299 1_555
Li3 O6 2.209084 1_555
Li3 O9 2.232389 1_655
Li3 O9 2.309661 1_555
Li4 O7 2.109318 1_555
Li4 O10 2.121550 1_554
Li4 O4 2.147232 1_455
Li4 O1 2.159893 1_454
Li4 O4 2.174852 1_555
Li4 O10 2.196719 1_454
Li5 O11 1.979823 1_655
Li5 O8 1.993183 1_556
Li5 O11 2.078304 1_555
Li5 O2 2.228251 1_555
Li5 O5 2.274635 1_455
Li5 O5 2.316620 1_555
Li6 O11 2.050703 1_555
Li6 O3 2.052569 1_565
Li6 O8 2.055448 1_555
Li6 O0 2.056809 1_565
Li6 O3 2.243648 1_465
Li6 O11 2.244831 1_655
Mn0 O3 1.913315 1_566
Mn0 O11 1.919029 1_655
Mn0 O0 1.979249 1_665
Mn0 O8 1.981507 1_556
Mn0 O8 1.993269 1_656
Mn0 O0 1.994638 1_565
Mn1 O2 1.957782 1_655
Mn1 O5 1.961109 1_555
Mn1 O10 1.964455 1_555
Mn1 O7 1.973206 1_655
Mn1 O2 2.176551 1_555
Mn1 O10 2.216213 1_655
Mn2 O9 1.943444 1_556
Mn2 O6 1.956509 1_555
Mn2 O1 1.966487 1_555
Mn2 O4 1.973041 1_556
Mn2 O9 2.194268 1_656
Mn2 O1 2.250222 1_455
Mn3 O9 1.955030 1_555
Mn3 O6 1.955426 1_455
Mn3 O4 1.966481 1_555
Mn3 O1 1.973401 1_455
Mn3 O6 2.225420 1_555
Mn3 O4 2.262894 1_455
Co0 O5 1.898151 1_554
Co0 O7 1.929798 1_555
Co0 O2 1.942167 1_555
Co0 O10 1.959827 1_554
Co0 O5 2.179291 1_454
Co0 O7 2.230389 1_655
