# generated using pymatgen
data_Li2CoOF3
_symmetry_space_group_name_H-M   'P 1'
_cell_length_a   5.35539300
_cell_length_b   8.10165197
_cell_length_c   7.88785123
_cell_angle_alpha   72.00910532
_cell_angle_beta   72.44717281
_cell_angle_gamma   72.26724322
_symmetry_Int_Tables_number   1
_chemical_formula_structural   Li2CoOF3
_chemical_formula_sum   'Li8 Co4 O4 F12'
_cell_volume   301.79236543
_cell_formula_units_Z   4
loop_
 _symmetry_equiv_pos_site_id
 _symmetry_equiv_pos_as_xyz
  1  'x, y, z'
loop_
 _atom_site_type_symbol
 _atom_site_label
 _atom_site_symmetry_multiplicity
 _atom_site_fract_x
 _atom_site_fract_y
 _atom_site_fract_z
 _atom_site_occupancy
  Li  Li0  1  0.58754000  0.67673300  0.01072700  1
  Li  Li1  1  0.08754100  0.17672700  0.51073200  1
  Li  Li2  1  0.86179600  0.45963100  0.72550700  1
  Li  Li3  1  0.36178700  0.95964400  0.22550200  1
  Li  Li4  1  0.06021500  0.59553300  0.25486000  1
  Li  Li5  1  0.56017900  0.09554400  0.75485300  1
  Li  Li6  1  0.25987200  0.35502300  0.98498100  1
  Li  Li7  1  0.75988300  0.85501300  0.48498500  1
  Co  Co0  1  0.24355100  0.80312700  0.72191900  1
  Co  Co1  1  0.93424500  0.98258000  0.03457400  1
  Co  Co2  1  0.74355700  0.30312900  0.22192000  1
  Co  Co3  1  0.43425900  0.48257800  0.53457300  1
  O  O0  1  0.47444900  0.49556400  0.29742100  1
  O  O1  1  0.97444900  0.99556600  0.79741800  1
  O  O2  1  0.66893500  0.15375100  0.13691700  1
  O  O3  1  0.16893800  0.65374600  0.63691900  1
  F  F0  1  0.68516600  0.81536200  0.12191100  1
  F  F1  1  0.18518700  0.31534800  0.62191600  1
  F  F2  1  0.85301600  0.46529000  0.96704400  1
  F  F3  1  0.35300800  0.96529100  0.46704200  1
  F  F4  1  0.07435800  0.34027200  0.24962000  1
  F  F5  1  0.57435600  0.84028400  0.74961300  1
  F  F6  1  0.55821400  0.34795600  0.76253700  1
  F  F7  1  0.05820600  0.84795900  0.26253100  1
  F  F8  1  0.24413900  0.65504800  0.98399100  1
  F  F9  1  0.74413800  0.15504700  0.48399100  1
  F  F10  1  0.24450400  0.10412700  0.99799600  1
  F  F11  1  0.74451800  0.60412000  0.49799800  1
loop_
_geom_bond_atom_site_label_1
_geom_bond_atom_site_label_2
_geom_bond_distance
_geom_bond_site_symmetry_2
Li0 O0 2.302194 1_555
Li1 O1 2.302124 1_445
Li2 O3 2.422963 1_655
Li3 O2 2.422942 1_565
Li4 O0 2.208320 1_555
Li5 O1 2.208513 1_545
Co0 O3 1.741054 1_555
Co0 O1 1.884002 1_455
Co0 F5 1.968702 1_555
Co0 F8 2.045037 1_555
Co0 F3 2.058688 1_555
Co1 O1 1.790545 1_554
Co1 O2 1.842020 1_565
Co1 F7 1.982643 1_655
Co1 F0 2.014761 1_555
Co1 F10 2.084646 1_664
Co2 O2 1.741075 1_555
Co2 O0 1.883998 1_555
Co2 F4 1.968649 1_655
Co2 F9 2.045032 1_555
Co2 F2 2.058674 1_554
Co3 O0 1.790527 1_555
Co3 O3 1.842038 1_555
Co3 F6 1.982677 1_555
Co3 F1 2.014804 1_555
Co3 F11 2.084624 1_555
F0 Li3 1.880580 1_555
F0 Li0 1.883243 1_555
F0 Li4 2.498705 1_655
F1 Li2 1.880623 1_455
F1 Li1 1.883253 1_555
F1 Li5 2.498377 1_555
F2 Li2 1.905975 1_555
F2 Li0 1.913136 1_556
F2 Li6 2.118426 1_655
F3 Li3 1.905969 1_555
F3 Li1 1.913088 1_565
F3 Li7 2.118539 1_555
F4 Li6 2.006497 1_554
F4 Li4 2.059057 1_555
F4 Li1 2.085074 1_555
F5 Li7 2.006455 1_555
F5 Li5 2.058999 1_565
F5 Li0 2.085103 1_556
F6 Li6 1.987484 1_555
F6 Li2 1.998369 1_555
F6 Li5 2.061236 1_555
F7 Li7 1.987475 1_455
F7 Li3 1.998419 1_555
F7 Li4 2.061243 1_555
F8 Li0 1.977641 1_556
F8 Li4 2.037447 1_556
F8 Li6 2.404032 1_555
F9 Li1 1.977652 1_655
F9 Li5 2.037440 1_555
F9 Li7 2.404078 1_545
F10 Li3 1.979757 1_546
F10 Li6 2.029033 1_555
F10 Li5 2.143877 1_555
F11 Li2 1.979776 1_555
F11 Li7 2.029008 1_555
F11 Li4 2.143913 1_655
