# generated using pymatgen
data_ThV2SeO9
_symmetry_space_group_name_H-M   'P 1'
_cell_length_a   6.93870700
_cell_length_b   7.25145400
_cell_length_c   14.71421300
_cell_angle_alpha   90.00000000
_cell_angle_beta   90.00000000
_cell_angle_gamma   90.00000000
_symmetry_Int_Tables_number   1
_chemical_formula_structural   ThV2SeO9
_chemical_formula_sum   'Th4 V8 Se4 O36'
_cell_volume   740.35614231
_cell_formula_units_Z   4
loop_
 _symmetry_equiv_pos_site_id
 _symmetry_equiv_pos_as_xyz
  1  'x, y, z'
loop_
 _atom_site_type_symbol
 _atom_site_label
 _atom_site_symmetry_multiplicity
 _atom_site_fract_x
 _atom_site_fract_y
 _atom_site_fract_z
 _atom_site_occupancy
  Th  Th0  1  0.85464300  0.25000000  0.95407700  1
  Th  Th1  1  0.14535700  0.75000000  0.04592300  1
  Th  Th2  1  0.85464300  0.75000000  0.54592300  1
  Th  Th3  1  0.14535700  0.25000000  0.45407700  1
  V  V0  1  0.43768000  0.00000000  0.25000000  1
  V  V1  1  0.56232000  0.50000000  0.75000000  1
  V  V2  1  0.56232000  0.00000000  0.75000000  1
  V  V3  1  0.43768000  0.50000000  0.25000000  1
  V  V4  1  0.80195800  0.25000000  0.22956300  1
  V  V5  1  0.19804200  0.75000000  0.77043700  1
  V  V6  1  0.80195800  0.75000000  0.27043700  1
  V  V7  1  0.19804200  0.25000000  0.72956300  1
  Se  Se0  1  0.30793000  0.25000000  0.04352600  1
  Se  Se1  1  0.69207000  0.75000000  0.95647400  1
  Se  Se2  1  0.30793000  0.75000000  0.45647400  1
  Se  Se3  1  0.69207000  0.25000000  0.54352600  1
  O  O0  1  0.17202900  0.07471500  0.98994100  1
  O  O1  1  0.82797100  0.57471500  0.01005900  1
  O  O2  1  0.17202900  0.92528500  0.51005900  1
  O  O3  1  0.82797100  0.42528500  0.48994100  1
  O  O4  1  0.82797100  0.92528500  0.01005900  1
  O  O5  1  0.17202900  0.42528500  0.98994100  1
  O  O6  1  0.82797100  0.07471500  0.48994100  1
  O  O7  1  0.17202900  0.57471500  0.51005900  1
  O  O8  1  0.52321600  0.25000000  0.98722500  1
  O  O9  1  0.47678400  0.75000000  0.01277500  1
  O  O10  1  0.52321600  0.75000000  0.51277500  1
  O  O11  1  0.47678400  0.25000000  0.48722500  1
  O  O12  1  0.30014800  0.95061300  0.15871600  1
  O  O13  1  0.69985200  0.45061300  0.84128400  1
  O  O14  1  0.30014800  0.04938700  0.34128400  1
  O  O15  1  0.69985200  0.54938700  0.65871600  1
  O  O16  1  0.69985200  0.04938700  0.84128400  1
  O  O17  1  0.30014800  0.54938700  0.15871600  1
  O  O18  1  0.69985200  0.95061300  0.65871600  1
  O  O19  1  0.30014800  0.45061300  0.34128400  1
  O  O20  1  0.51174900  0.75000000  0.27903100  1
  O  O21  1  0.48825100  0.25000000  0.72096900  1
  O  O22  1  0.51174900  0.25000000  0.22096900  1
  O  O23  1  0.48825100  0.75000000  0.77903100  1
  O  O24  1  0.72110700  0.00000000  0.25000000  1
  O  O25  1  0.27889300  0.50000000  0.75000000  1
  O  O26  1  0.27889300  0.00000000  0.75000000  1
  O  O27  1  0.72110700  0.50000000  0.25000000  1
  O  O28  1  0.97201800  0.25000000  0.31164900  1
  O  O29  1  0.02798200  0.75000000  0.68835100  1
  O  O30  1  0.97201800  0.75000000  0.18835100  1
  O  O31  1  0.02798200  0.25000000  0.81164900  1
  O  O32  1  0.89940800  0.25000000  0.12474300  1
  O  O33  1  0.10059200  0.75000000  0.87525700  1
  O  O34  1  0.89940800  0.75000000  0.37525700  1
  O  O35  1  0.10059200  0.25000000  0.62474300  1
loop_
_geom_bond_atom_site_label_1
_geom_bond_atom_site_label_2
_geom_bond_distance
_geom_bond_site_symmetry_2
O0 Se0 1.768191 1_556
O0 Th1 2.501437 1_546
O0 Th0 2.596921 1_455
O1 Se1 1.768191 1_554
O1 Th0 2.501437 1_554
O1 Th1 2.596921 1_655
O2 Se2 1.768191 1_555
O2 Th3 2.501437 1_565
O2 Th2 2.596921 1_455
O3 Se3 1.768191 1_555
O3 Th2 2.501437 1_555
O3 Th3 2.596921 1_655
O4 Se1 1.768191 1_554
O4 Th0 2.501437 1_564
O4 Th1 2.596921 1_655
O5 Se0 1.768191 1_556
O5 Th1 2.501437 1_556
O5 Th0 2.596921 1_455
O6 Se3 1.768191 1_555
O6 Th2 2.501437 1_545
O6 Th3 2.596921 1_655
O7 Se2 1.768191 1_555
O7 Th3 2.501437 1_555
O7 Th2 2.596921 1_455
O8 Se0 1.708141 1_556
O8 Th0 2.350830 1_555
O9 Se1 1.708141 1_554
O9 Th1 2.350830 1_555
O10 Se2 1.708141 1_555
O10 Th2 2.350830 1_555
O11 Se3 1.708141 1_555
O11 Th3 2.350830 1_555
O12 V0 1.686133 1_565
O12 Th1 2.454447 1_555
O13 V1 1.686133 1_555
O13 Th0 2.454447 1_555
O14 V0 1.686133 1_555
O14 Th3 2.454447 1_555
O15 V1 1.686133 1_555
O15 Th2 2.454447 1_555
O16 V2 1.686133 1_555
O16 Th0 2.454447 1_555
O17 V3 1.686133 1_555
O17 Th1 2.454447 1_555
O18 V2 1.686133 1_565
O18 Th2 2.454447 1_555
O19 V3 1.686133 1_555
O19 Th3 2.454447 1_555
O20 V0 1.932119 1_565
O20 V3 1.932119 1_555
O20 V6 2.017642 1_555
O21 V1 1.932119 1_555
O21 V2 1.932119 1_555
O21 V7 2.017642 1_555
O22 V3 1.932119 1_555
O22 V0 1.932119 1_555
O22 V4 2.017642 1_555
O23 V2 1.932119 1_565
O23 V1 1.932119 1_555
O23 V5 2.017642 1_555
O24 V6 1.921360 1_545
O24 V4 1.921360 1_555
O24 V0 1.966617 1_555
O25 V5 1.921360 1_555
O25 V7 1.921360 1_555
O25 V1 1.966617 1_555
O26 V5 1.921360 1_545
O26 V7 1.921360 1_555
O26 V2 1.966617 1_555
O27 V6 1.921360 1_555
O27 V4 1.921360 1_555
O27 V3 1.966617 1_555
O28 V4 1.688564 1_555
O28 Th3 2.416326 1_655
O29 V5 1.688564 1_555
O29 Th2 2.416326 1_455
O30 V6 1.688564 1_555
O30 Th1 2.416326 1_655
O31 V7 1.688564 1_555
O31 Th0 2.416326 1_455
O32 V4 1.684055 1_555
O32 Th0 2.530353 1_554
O33 V5 1.684055 1_555
O33 Th1 2.530353 1_556
O34 V6 1.684055 1_555
O34 Th2 2.530353 1_555
O35 V7 1.684055 1_555
O35 Th3 2.530353 1_555
