# generated using pymatgen
data_MgBi3
_symmetry_space_group_name_H-M   'P 1'
_cell_length_a   7.00722984
_cell_length_b   7.00722984
_cell_length_c   5.58406800
_cell_angle_alpha   90.00000000
_cell_angle_beta   90.00000000
_cell_angle_gamma   119.99999845
_symmetry_Int_Tables_number   1
_chemical_formula_structural   MgBi3
_chemical_formula_sum   'Mg2 Bi6'
_cell_volume   237.45103215
_cell_formula_units_Z   2
loop_
 _symmetry_equiv_pos_site_id
 _symmetry_equiv_pos_as_xyz
  1  'x, y, z'
loop_
 _atom_site_type_symbol
 _atom_site_label
 _atom_site_symmetry_multiplicity
 _atom_site_fract_x
 _atom_site_fract_y
 _atom_site_fract_z
 _atom_site_occupancy
  Mg  Mg0  1  0.66666700  0.33333300  0.25000000  1
  Mg  Mg1  1  0.33333300  0.66666700  0.75000000  1
  Bi  Bi0  1  0.17309200  0.34618300  0.25000000  1
  Bi  Bi1  1  0.17309200  0.82690800  0.25000000  1
  Bi  Bi2  1  0.65381700  0.82690800  0.25000000  1
  Bi  Bi3  1  0.34618300  0.17309200  0.75000000  1
  Bi  Bi4  1  0.82690800  0.17309200  0.75000000  1
  Bi  Bi5  1  0.82690800  0.65381700  0.75000000  1
loop_
_geom_bond_atom_site_label_1
_geom_bond_atom_site_label_2
_geom_bond_distance
_geom_bond_site_symmetry_2
Bi0 Mg1 3.402624 1_555
Bi0 Mg1 3.402624 1_554
Bi0 Mg0 3.504483 1_555
Bi0 Mg0 3.504483 1_455
Bi1 Mg1 3.402617 1_554
Bi1 Mg1 3.402617 1_555
Bi1 Mg0 3.504483 1_455
Bi1 Mg0 3.504483 1_565
Bi2 Mg1 3.402624 1_555
Bi2 Mg1 3.402624 1_554
Bi2 Mg0 3.504483 1_555
Bi2 Mg0 3.504483 1_565
Bi3 Mg0 3.402624 1_555
Bi3 Mg0 3.402624 1_556
Bi3 Mg1 3.504483 1_555
Bi3 Mg1 3.504483 1_545
Bi4 Mg0 3.402617 1_555
Bi4 Mg0 3.402617 1_556
Bi4 Mg1 3.504483 1_545
Bi4 Mg1 3.504483 1_655
Bi5 Mg0 3.402624 1_555
Bi5 Mg0 3.402624 1_556
Bi5 Mg1 3.504483 1_555
Bi5 Mg1 3.504483 1_655
