# generated using pymatgen
data_Ba2Cd2Sb3
_symmetry_space_group_name_H-M   'P 1'
_cell_length_a   9.48406435
_cell_length_b   9.48406435
_cell_length_c   13.56286307
_cell_angle_alpha   54.67801000
_cell_angle_beta   54.67801000
_cell_angle_gamma   29.86603409
_symmetry_Int_Tables_number   1
_chemical_formula_structural   Ba2Cd2Sb3
_chemical_formula_sum   'Ba4 Cd4 Sb6'
_cell_volume   486.73739792
_cell_formula_units_Z   2
loop_
 _symmetry_equiv_pos_site_id
 _symmetry_equiv_pos_as_xyz
  1  'x, y, z'
loop_
 _atom_site_type_symbol
 _atom_site_label
 _atom_site_symmetry_multiplicity
 _atom_site_fract_x
 _atom_site_fract_y
 _atom_site_fract_z
 _atom_site_occupancy
  Ba  Ba0  1  0.26420790  0.26420790  0.33729703  1
  Ba  Ba1  1  0.73579210  0.73579210  0.66270297  1
  Ba  Ba2  1  0.39822680  0.39822680  0.94421692  1
  Ba  Ba3  1  0.60177320  0.60177320  0.05578308  1
  Cd  Cd0  1  0.04119272  0.04119272  0.68944805  1
  Cd  Cd1  1  0.95880728  0.95880728  0.31055195  1
  Cd  Cd2  1  0.40872409  0.40872409  0.65397117  1
  Cd  Cd3  1  0.59127591  0.59127591  0.34602883  1
  Sb  Sb0  1  0.07997131  0.07997131  0.87510510  1
  Sb  Sb1  1  0.92002869  0.92002869  0.12489490  1
  Sb  Sb2  1  0.15408845  0.15408845  0.19760685  1
  Sb  Sb3  1  0.84591155  0.84591155  0.80239315  1
  Sb  Sb4  1  0.38845242  0.38845242  0.45695146  1
  Sb  Sb5  1  0.61154758  0.61154758  0.54304854  1
loop_
_geom_bond_atom_site_label_1
_geom_bond_atom_site_label_2
_geom_bond_distance
_geom_bond_site_symmetry_2
Ba0 Sb2 3.498395 1_555
Ba0 Sb4 3.498761 1_555
Ba0 Sb5 3.499201 1_455
Ba0 Sb5 3.499201 1_545
Ba0 Sb1 3.547073 1_545
Ba0 Sb1 3.547073 1_455
Ba1 Sb3 3.498395 1_555
Ba1 Sb5 3.498761 1_555
Ba1 Sb4 3.499201 1_655
Ba1 Sb4 3.499201 1_565
Ba1 Sb0 3.547073 1_565
Ba1 Sb0 3.547073 1_655
Ba2 Sb3 3.577620 1_455
Ba2 Sb3 3.577620 1_545
Ba2 Sb1 3.648198 1_546
Ba2 Sb1 3.648198 1_456
Ba2 Sb2 3.664512 1_556
Ba2 Cd0 3.734011 1_565
Ba2 Cd0 3.734011 1_655
Ba2 Sb0 3.769614 1_565
Ba2 Sb0 3.769614 1_655
Ba2 Cd2 3.824549 1_555
Ba3 Sb2 3.577620 1_565
Ba3 Sb2 3.577620 1_655
Ba3 Sb0 3.648198 1_654
Ba3 Sb0 3.648198 1_564
Ba3 Sb3 3.664512 1_554
Ba3 Cd1 3.734011 1_545
Ba3 Cd1 3.734011 1_455
Ba3 Sb1 3.769614 1_545
Ba3 Sb1 3.769614 1_455
Ba3 Cd3 3.824549 1_555
Cd0 Sb5 2.917883 1_545
Cd0 Sb5 2.917883 1_455
Cd0 Sb3 2.931670 1_445
Cd0 Sb0 2.997896 1_555
Cd1 Sb4 2.917883 1_655
Cd1 Sb4 2.917883 1_565
Cd1 Sb2 2.931670 1_665
Cd1 Sb1 2.997896 1_555
Cd2 Sb4 2.909734 1_555
Cd2 Sb3 2.928659 1_545
Cd2 Sb3 2.928659 1_455
Cd2 Sb5 3.064082 1_555
Cd3 Sb5 2.909734 1_555
Cd3 Sb2 2.928659 1_655
Cd3 Sb2 2.928659 1_565
Cd3 Sb4 3.064082 1_555
Sb0 Sb1 2.861016 1_446
