# generated using pymatgen
data_Nd5Ga3
_symmetry_space_group_name_H-M   'P 1'
_cell_length_a   9.16462900
_cell_length_b   9.16462900
_cell_length_c   9.16468966
_cell_angle_alpha   129.09709336
_cell_angle_beta   129.09709336
_cell_angle_gamma   74.85498859
_symmetry_Int_Tables_number   1
_chemical_formula_structural   Nd5Ga3
_chemical_formula_sum   'Nd10 Ga6'
_cell_volume   451.56409170
_cell_formula_units_Z   2
loop_
 _symmetry_equiv_pos_site_id
 _symmetry_equiv_pos_as_xyz
  1  'x, y, z'
loop_
 _atom_site_type_symbol
 _atom_site_label
 _atom_site_symmetry_multiplicity
 _atom_site_fract_x
 _atom_site_fract_y
 _atom_site_fract_z
 _atom_site_occupancy
  Nd  Nd0  1  0.50000000  0.50000000  0.00000000  1
  Nd  Nd1  1  0.00000000  0.00000000  0.00000000  1
  Nd  Nd2  1  0.52578403  0.02578403  0.84914881  1
  Nd  Nd3  1  0.17669576  0.67669576  0.15081326  1
  Nd  Nd4  1  0.02572130  0.17673113  0.50011339  1
  Nd  Nd5  1  0.67673113  0.52572130  0.50011339  1
  Nd  Nd6  1  0.47421597  0.97421597  0.15085119  1
  Nd  Nd7  1  0.82330424  0.32330424  0.84918674  1
  Nd  Nd8  1  0.97427870  0.82326887  0.49988661  1
  Nd  Nd9  1  0.32326887  0.47427870  0.49988661  1
  Ga  Ga0  1  0.24999618  0.25000382  0.00000000  1
  Ga  Ga1  1  0.75000382  0.74999618  0.00000000  1
  Ga  Ga2  1  0.88408341  0.38408341  0.26819480  1
  Ga  Ga3  1  0.11591659  0.61591659  0.73180520  1
  Ga  Ga4  1  0.38400657  0.11599343  0.50000000  1
  Ga  Ga5  1  0.61599343  0.88400657  0.50000000  1
loop_
_geom_bond_atom_site_label_1
_geom_bond_atom_site_label_2
_geom_bond_distance
_geom_bond_site_symmetry_2
Ga0 Nd4 3.260107 1_554
Ga0 Nd9 3.260107 1_555
Ga0 Nd6 3.260728 1_545
Ga0 Nd2 3.260728 1_554
Ga0 Nd3 3.261110 1_555
Ga0 Nd7 3.261110 1_454
Ga0 Nd5 3.261160 1_555
Ga0 Nd8 3.261160 1_444
Ga0 Nd0 3.638922 1_555
Ga0 Nd1 3.638922 1_555
Ga1 Nd8 3.260107 1_555
Ga1 Nd5 3.260107 1_554
Ga1 Nd6 3.260728 1_555
Ga1 Nd2 3.260728 1_564
Ga1 Nd7 3.261110 1_554
Ga1 Nd3 3.261110 1_655
Ga1 Nd9 3.261160 1_554
Ga1 Nd4 3.261160 1_665
Ga1 Nd0 3.638922 1_555
Ga1 Nd1 3.638922 1_665
Ga2 Ga3 2.582231 1_655
Ga2 Nd0 3.160268 1_555
Ga2 Nd1 3.160268 1_655
Ga2 Nd7 3.183262 1_554
Ga2 Nd2 3.183866 1_554
Ga2 Nd9 3.183957 1_655
Ga2 Nd8 3.183957 1_555
Ga2 Nd4 3.184225 1_655
Ga2 Nd5 3.184225 1_555
Ga3 Nd0 3.160268 1_556
Ga3 Nd1 3.160268 1_566
Ga3 Nd3 3.183262 1_556
Ga3 Nd6 3.183866 1_556
Ga3 Nd5 3.183957 1_455
Ga3 Nd4 3.183957 1_555
Ga3 Nd9 3.184225 1_555
Ga3 Nd8 3.184225 1_455
Ga4 Ga5 2.584272 1_545
Ga4 Nd0 3.159777 1_556
Ga4 Nd1 3.159777 1_555
Ga4 Nd3 3.183956 1_545
Ga4 Nd7 3.183956 1_555
Ga4 Nd4 3.184350 1_555
Ga4 Nd9 3.184350 1_555
Ga4 Nd6 3.184664 1_545
Ga4 Nd2 3.184664 1_555
Ga5 Nd0 3.159777 1_555
Ga5 Nd1 3.159777 1_666
Ga5 Nd7 3.183956 1_565
Ga5 Nd3 3.183956 1_555
Ga5 Nd8 3.184350 1_555
Ga5 Nd5 3.184350 1_555
Ga5 Nd6 3.184664 1_555
Ga5 Nd2 3.184664 1_565
