# generated using pymatgen
data_HfGeOs
_symmetry_space_group_name_H-M   'P 1'
_cell_length_a   6.69040023
_cell_length_b   6.69040023
_cell_length_c   3.77264370
_cell_angle_alpha   90.00000000
_cell_angle_beta   90.00000000
_cell_angle_gamma   119.99999401
_symmetry_Int_Tables_number   1
_chemical_formula_structural   HfGeOs
_chemical_formula_sum   'Hf3 Ge3 Os3'
_cell_volume   146.24487208
_cell_formula_units_Z   3
loop_
 _symmetry_equiv_pos_site_id
 _symmetry_equiv_pos_as_xyz
  1  'x, y, z'
loop_
 _atom_site_type_symbol
 _atom_site_label
 _atom_site_symmetry_multiplicity
 _atom_site_fract_x
 _atom_site_fract_y
 _atom_site_fract_z
 _atom_site_occupancy
  Hf  Hf0  1  0.41740550  0.00000000  0.50000000  1
  Hf  Hf1  1  0.00000000  0.41740550  0.50000000  1
  Hf  Hf2  1  0.58259450  0.58259450  0.50000000  1
  Ge  Ge0  1  0.33333300  0.66666700  -0.00000000  1
  Ge  Ge1  1  0.66666700  0.33333300  -0.00000000  1
  Ge  Ge2  1  0.00000000  0.00000000  0.50000000  1
  Os  Os0  1  0.75314052  -0.00000000  -0.00000000  1
  Os  Os1  1  -0.00000000  0.75314052  -0.00000000  1
  Os  Os2  1  0.24685948  0.24685948  0.00000000  1
loop_
_geom_bond_atom_site_label_1
_geom_bond_atom_site_label_2
_geom_bond_distance
_geom_bond_site_symmetry_2
Hf0 Os0 2.933195 1_555
Hf0 Os0 2.933195 1_556
Hf0 Os2 3.077724 1_556
Hf0 Os2 3.077724 1_555
Hf0 Os1 3.077724 1_546
Hf0 Os1 3.077724 1_545
Hf1 Os1 2.933195 1_555
Hf1 Os1 2.933195 1_556
Hf1 Os2 3.077724 1_556
Hf1 Os2 3.077724 1_555
Hf1 Os0 3.077724 1_456
Hf1 Os0 3.077724 1_455
Hf2 Os2 2.933195 1_555
Hf2 Os2 2.933195 1_556
Hf2 Os1 3.077724 1_655
Hf2 Os0 3.077724 1_565
Hf2 Os1 3.077724 1_656
Hf2 Os0 3.077724 1_566
Ge0 Os1 2.568739 1_555
Ge0 Os0 2.568744 1_565
Ge0 Os2 2.568746 1_555
Ge0 Hf0 2.755663 1_565
Ge0 Hf0 2.755663 1_564
Ge0 Hf1 2.755664 1_555
Ge0 Hf1 2.755664 1_554
Ge0 Hf2 2.755667 1_555
Ge0 Hf2 2.755667 1_554
Ge1 Os0 2.568739 1_555
Ge1 Os1 2.568744 1_655
Ge1 Os2 2.568746 1_555
Ge1 Hf1 2.755663 1_655
Ge1 Hf1 2.755663 1_654
Ge1 Hf0 2.755664 1_554
Ge1 Hf0 2.755664 1_555
Ge1 Hf2 2.755667 1_555
Ge1 Hf2 2.755667 1_554
Ge2 Os1 2.507181 1_546
Ge2 Os1 2.507181 1_545
Ge2 Os0 2.507181 1_456
Ge2 Os0 2.507181 1_455
Ge2 Os2 2.507181 1_555
Ge2 Os2 2.507181 1_556
Ge2 Hf1 2.792610 1_555
Ge2 Hf0 2.792610 1_555
Ge2 Hf2 2.792610 1_445
Os0 Os1 2.860635 1_645
Os0 Os2 2.860636 1_655
Os1 Os2 2.860636 1_565
