# generated using pymatgen
data_Mg3Cu3(AsO4)4
_symmetry_space_group_name_H-M   'P 1'
_cell_length_a   5.08606800
_cell_length_b   8.72399896
_cell_length_c   14.67676480
_cell_angle_alpha   99.81602673
_cell_angle_beta   90.00000000
_cell_angle_gamma   90.00000000
_symmetry_Int_Tables_number   1
_chemical_formula_structural   Mg3Cu3(AsO4)4
_chemical_formula_sum   'Mg6 Cu6 As8 O32'
_cell_volume   641.68685087
_cell_formula_units_Z   2
loop_
 _symmetry_equiv_pos_site_id
 _symmetry_equiv_pos_as_xyz
  1  'x, y, z'
loop_
 _atom_site_type_symbol
 _atom_site_label
 _atom_site_symmetry_multiplicity
 _atom_site_fract_x
 _atom_site_fract_y
 _atom_site_fract_z
 _atom_site_occupancy
  Mg  Mg0  1  0.97458900  0.01816800  0.72280800  1
  Mg  Mg1  1  0.47458900  0.48183200  0.77719200  1
  Mg  Mg2  1  0.02541100  0.98183200  0.27719200  1
  Mg  Mg3  1  0.52541100  0.51816800  0.22280800  1
  Mg  Mg4  1  0.00000000  0.00000000  0.00000000  1
  Mg  Mg5  1  0.50000000  0.50000000  0.50000000  1
  Cu  Cu0  1  0.01022000  0.32961700  0.12141500  1
  Cu  Cu1  1  0.98978000  0.67038300  0.87858500  1
  Cu  Cu2  1  0.51022000  0.17038300  0.37858500  1
  Cu  Cu3  1  0.48978000  0.82961700  0.62141500  1
  Cu  Cu4  1  0.50000000  0.50000000  0.00000000  1
  Cu  Cu5  1  0.00000000  0.00000000  0.50000000  1
  As  As0  1  0.50403200  0.88998500  0.84849500  1
  As  As1  1  0.99638800  0.32078600  0.89925500  1
  As  As2  1  0.49638800  0.17921400  0.60074500  1
  As  As3  1  0.50361200  0.82078600  0.39925500  1
  As  As4  1  0.49596800  0.11001500  0.15150500  1
  As  As5  1  0.00361200  0.67921400  0.10074500  1
  As  As6  1  0.99596800  0.38998500  0.34849500  1
  As  As7  1  0.00403200  0.61001500  0.65150500  1
  O  O0  1  0.09613000  0.56241600  0.75863900  1
  O  O1  1  0.56096100  0.26715900  0.50634600  1
  O  O2  1  0.09685200  0.21338700  0.80039100  1
  O  O3  1  0.09916300  0.80310200  0.65369100  1
  O  O4  1  0.90314800  0.78661300  0.19960900  1
  O  O5  1  0.40387000  0.06241600  0.25863900  1
  O  O6  1  0.59685200  0.28661300  0.69960900  1
  O  O7  1  0.82092200  0.89235500  0.39180100  1
  O  O8  1  0.82410400  0.51725000  0.42472700  1
  O  O9  1  0.90387000  0.43758400  0.24136100  1
  O  O10  1  0.40083700  0.30310200  0.15369100  1
  O  O11  1  0.17907800  0.10764500  0.60819900  1
  O  O12  1  0.19483800  0.49202300  0.91882300  1
  O  O13  1  0.17589600  0.48275000  0.57527300  1
  O  O14  1  0.83301700  0.09517500  0.13872000  1
  O  O15  1  0.33301700  0.40482500  0.36128000  1
  O  O16  1  0.69483800  0.00797700  0.58117700  1
  O  O17  1  0.40314800  0.71338700  0.30039100  1
  O  O18  1  0.32410400  0.98275000  0.07527300  1
  O  O19  1  0.32092200  0.60764500  0.10819900  1
  O  O20  1  0.66698300  0.59517500  0.63872000  1
  O  O21  1  0.16698300  0.90482500  0.86128000  1
  O  O22  1  0.43903900  0.73284100  0.49365400  1
  O  O23  1  0.06096100  0.23284100  0.99365400  1
  O  O24  1  0.80516200  0.50797700  0.08117700  1
  O  O25  1  0.59613000  0.93758400  0.74136100  1
  O  O26  1  0.90083700  0.19689800  0.34630900  1
  O  O27  1  0.67589600  0.01725000  0.92472700  1
  O  O28  1  0.93903900  0.76715900  0.00634600  1
  O  O29  1  0.67907800  0.39235500  0.89180100  1
  O  O30  1  0.30516200  0.99202300  0.41882300  1
  O  O31  1  0.59916300  0.69689800  0.84630900  1
loop_
_geom_bond_atom_site_label_1
_geom_bond_atom_site_label_2
_geom_bond_distance
_geom_bond_site_symmetry_2
Mg0 O2 1.980539 1_655
Mg0 O3 2.074071 1_645
Mg0 O25 2.082970 1_545
Mg0 O11 2.228936 1_655
Mg0 O16 2.508042 1_555
Mg0 O21 2.598227 1_645
Mg1 O6 1.980539 1_555
Mg1 O31 2.074071 1_555
Mg1 O0 2.082970 1_555
Mg1 O29 2.228936 1_555
Mg1 O12 2.508042 1_555
Mg1 O20 2.598227 1_555
Mg2 O4 1.980539 1_455
Mg2 O26 2.074071 1_465
Mg2 O5 2.082970 1_565
Mg2 O7 2.228936 1_455
Mg2 O30 2.508042 1_555
Mg2 O14 2.598227 1_465
Mg3 O17 1.980539 1_555
Mg3 O10 2.074071 1_555
Mg3 O9 2.082970 1_555
Mg3 O19 2.228936 1_555
Mg3 O24 2.508042 1_555
Mg3 O15 2.598227 1_555
Mg4 O18 2.004273 1_545
Mg4 O27 2.004273 1_454
Mg4 O23 2.072562 1_554
Mg4 O28 2.072562 1_445
Mg4 O21 2.231464 1_544
Mg4 O14 2.231464 1_455
Mg5 O13 2.004273 1_555
Mg5 O8 2.004273 1_555
Mg5 O1 2.072562 1_555
Mg5 O22 2.072562 1_555
Mg5 O15 2.231464 1_555
Mg5 O20 2.231464 1_555
Cu0 O9 1.927033 1_455
Cu0 O23 1.937956 1_554
Cu0 O24 2.042300 1_455
Cu0 O10 2.064525 1_555
Cu0 O14 2.288459 1_455
Cu1 O0 1.927033 1_655
Cu1 O28 1.937956 1_556
Cu1 O12 2.042300 1_655
Cu1 O31 2.064525 1_555
Cu1 O21 2.288459 1_655
Cu2 O5 1.927033 1_555
Cu2 O1 1.937956 1_555
Cu2 O30 2.042300 1_545
Cu2 O26 2.064525 1_555
Cu2 O15 2.288459 1_555
Cu3 O25 1.927033 1_555
Cu3 O22 1.937956 1_555
Cu3 O16 2.042300 1_565
Cu3 O3 2.064525 1_555
Cu3 O20 2.288459 1_555
Cu4 O19 1.929962 1_555
Cu4 O29 1.929962 1_554
Cu4 O24 1.950636 1_555
Cu4 O12 1.950636 1_554
Cu5 O11 1.929962 1_555
Cu5 O7 1.929962 1_445
Cu5 O16 1.950636 1_455
Cu5 O30 1.950636 1_545
As0 O27 1.680772 1_565
As0 O21 1.726950 1_555
As0 O31 1.747631 1_555
As0 O25 1.756947 1_555
As1 O2 1.667578 1_655
As1 O23 1.725828 1_655
As1 O29 1.740586 1_555
As1 O12 1.785103 1_655
As2 O6 1.667578 1_555
As2 O1 1.725828 1_555
As2 O11 1.740586 1_555
As2 O16 1.785103 1_555
As3 O17 1.667578 1_555
As3 O22 1.725828 1_555
As3 O7 1.740586 1_555
As3 O30 1.785103 1_555
As4 O18 1.680772 1_545
As4 O14 1.726950 1_555
As4 O10 1.747631 1_555
As4 O5 1.756947 1_555
As5 O4 1.667578 1_455
As5 O28 1.725828 1_455
As5 O19 1.740586 1_555
As5 O24 1.785103 1_455
As6 O8 1.680772 1_555
As6 O15 1.726950 1_655
As6 O26 1.747631 1_555
As6 O9 1.756947 1_555
As7 O13 1.680772 1_555
As7 O20 1.726950 1_455
As7 O3 1.747631 1_555
As7 O0 1.756947 1_555
