# generated using pymatgen
data_CaPr(SnO3)2
_symmetry_space_group_name_H-M   'P 1'
_cell_length_a   5.69606100
_cell_length_b   5.95208600
_cell_length_c   8.23298300
_cell_angle_alpha   90.00000000
_cell_angle_beta   90.00000000
_cell_angle_gamma   90.00000000
_symmetry_Int_Tables_number   1
_chemical_formula_structural   CaPr(SnO3)2
_chemical_formula_sum   'Ca2 Pr2 Sn4 O12'
_cell_volume   279.12648578
_cell_formula_units_Z   2
loop_
 _symmetry_equiv_pos_site_id
 _symmetry_equiv_pos_as_xyz
  1  'x, y, z'
loop_
 _atom_site_type_symbol
 _atom_site_label
 _atom_site_symmetry_multiplicity
 _atom_site_fract_x
 _atom_site_fract_y
 _atom_site_fract_z
 _atom_site_occupancy
  Ca  Ca0  1  0.48481600  0.19861400  0.00000000  1
  Ca  Ca1  1  0.98481600  0.80138600  0.50000000  1
  Pr  Pr0  1  0.01972500  0.69148100  0.00000000  1
  Pr  Pr1  1  0.51972500  0.30851900  0.50000000  1
  Sn  Sn0  1  0.00115800  0.24619900  0.75053800  1
  Sn  Sn1  1  0.00115800  0.24619900  0.24946200  1
  Sn  Sn2  1  0.50115800  0.75380100  0.25053800  1
  Sn  Sn3  1  0.50115800  0.75380100  0.74946200  1
  O  O0  1  0.11857200  0.19919900  0.50000000  1
  O  O1  1  0.19542100  0.95065900  0.81156300  1
  O  O2  1  0.19542100  0.95065900  0.18843700  1
  O  O3  1  0.29731000  0.45345100  0.18777100  1
  O  O4  1  0.29731000  0.45345100  0.81222900  1
  O  O5  1  0.38304800  0.70367000  0.50000000  1
  O  O6  1  0.61857200  0.80080100  0.00000000  1
  O  O7  1  0.69542100  0.04934100  0.68843700  1
  O  O8  1  0.69542100  0.04934100  0.31156300  1
  O  O9  1  0.79731000  0.54654900  0.68777100  1
  O  O10  1  0.79731000  0.54654900  0.31222900  1
  O  O11  1  0.88304800  0.29633000  0.00000000  1
loop_
_geom_bond_atom_site_label_1
_geom_bond_atom_site_label_2
_geom_bond_distance
_geom_bond_site_symmetry_2
Ca0 O11 2.341731 1_555
Ca0 O3 2.414807 1_555
Ca0 O4 2.414807 1_554
Ca0 O6 2.487373 1_545
Ca0 O1 2.702264 1_544
Ca0 O2 2.702264 1_545
Ca0 O8 2.967860 1_555
Ca0 O7 2.967860 1_554
Ca1 O5 2.341731 1_655
Ca1 O10 2.414807 1_555
Ca1 O9 2.414807 1_555
Ca1 O0 2.487373 1_665
Ca1 O7 2.702264 1_565
Ca1 O8 2.702264 1_565
Ca1 O2 2.967860 1_655
Ca1 O1 2.967860 1_655
O0 Sn0 2.186362 1_555
O0 Sn1 2.186362 1_555
O0 Pr1 2.375832 1_555
O1 Sn0 2.138037 1_565
O1 Sn3 2.160355 1_555
O1 Pr0 2.405859 1_556
O2 Sn1 2.138037 1_565
O2 Sn2 2.160355 1_555
O2 Pr0 2.405859 1_555
O3 Sn1 2.150655 1_555
O3 Sn2 2.193438 1_555
O3 Pr0 2.626236 1_555
O3 Pr1 2.992830 1_555
O4 Sn0 2.150655 1_555
O4 Sn3 2.193438 1_555
O4 Pr0 2.626236 1_556
O4 Pr1 2.992830 1_555
O5 Sn3 2.181697 1_555
O5 Sn2 2.181697 1_555
O5 Pr1 2.477472 1_555
O6 Sn2 2.186362 1_555
O6 Sn3 2.186362 1_554
O6 Pr0 2.375832 1_655
O7 Sn3 2.138037 1_545
O7 Sn0 2.160355 1_655
O7 Pr1 2.405859 1_555
O8 Sn2 2.138037 1_545
O8 Sn1 2.160355 1_655
O8 Pr1 2.405859 1_555
O9 Sn3 2.150655 1_555
O9 Sn0 2.193438 1_655
O9 Pr1 2.626236 1_555
O9 Pr0 2.992830 1_656
O10 Sn2 2.150655 1_555
O10 Sn1 2.193438 1_655
O10 Pr1 2.626236 1_555
O10 Pr0 2.992830 1_655
O11 Sn0 2.181697 1_654
O11 Sn1 2.181697 1_655
O11 Pr0 2.477472 1_655
