# generated using pymatgen
data_MgGa
_symmetry_space_group_name_H-M   'P 1'
_cell_length_a   4.46914020
_cell_length_b   4.46914020
_cell_length_c   7.31262900
_cell_angle_alpha   90.00000000
_cell_angle_beta   90.00000000
_cell_angle_gamma   120.00000291
_symmetry_Int_Tables_number   1
_chemical_formula_structural   MgGa
_chemical_formula_sum   'Mg2 Ga2'
_cell_volume   126.48881289
_cell_formula_units_Z   2
loop_
 _symmetry_equiv_pos_site_id
 _symmetry_equiv_pos_as_xyz
  1  'x, y, z'
loop_
 _atom_site_type_symbol
 _atom_site_label
 _atom_site_symmetry_multiplicity
 _atom_site_fract_x
 _atom_site_fract_y
 _atom_site_fract_z
 _atom_site_occupancy
  Mg  Mg0  1  0.66666700  0.33333300  0.62510100  1
  Mg  Mg1  1  0.33333300  0.66666700  0.12510100  1
  Ga  Ga0  1  0.66666700  0.33333300  0.99990000  1
  Ga  Ga1  1  0.33333300  0.66666700  0.49990000  1
loop_
_geom_bond_atom_site_label_1
_geom_bond_atom_site_label_2
_geom_bond_distance
_geom_bond_site_symmetry_2
Ga0 Mg1 2.737874 1_546
Ga0 Mg1 2.737874 1_656
Ga0 Mg1 2.737881 1_556
Ga0 Mg0 2.740766 1_555
Ga1 Mg0 2.737874 1_455
Ga1 Mg0 2.737874 1_565
Ga1 Mg0 2.737881 1_555
Ga1 Mg1 2.740766 1_555
