# generated using pymatgen
data_ZnH9C5NO6
_symmetry_space_group_name_H-M   'P 1'
_cell_length_a   8.21253752
_cell_length_b   8.21253752
_cell_length_c   8.76486456
_cell_angle_alpha   62.25686186
_cell_angle_beta   62.25686186
_cell_angle_gamma   59.84505248
_symmetry_Int_Tables_number   1
_chemical_formula_structural   ZnH9C5NO6
_chemical_formula_sum   'Zn2 H18 C10 N2 O12'
_cell_volume   431.16516243
_cell_formula_units_Z   2
loop_
 _symmetry_equiv_pos_site_id
 _symmetry_equiv_pos_as_xyz
  1  'x, y, z'
loop_
 _atom_site_type_symbol
 _atom_site_label
 _atom_site_symmetry_multiplicity
 _atom_site_fract_x
 _atom_site_fract_y
 _atom_site_fract_z
 _atom_site_occupancy
  Zn  Zn0  1  0.50439400  0.99854800  0.50009000  1
  Zn  Zn1  1  0.99854800  0.50439400  0.00009000  1
  H  H0  1  0.40916500  0.89664000  0.97657500  1
  H  H1  1  0.15925300  0.88701000  0.09553400  1
  H  H2  1  0.36526500  0.67547800  0.05507500  1
  H  H3  1  0.89664000  0.40916500  0.47657500  1
  H  H4  1  0.67547800  0.36526500  0.55507500  1
  H  H5  1  0.88701000  0.15925300  0.59553400  1
  H  H6  1  0.61398200  0.14172800  0.90347300  1
  H  H7  1  0.82500300  0.09411900  0.94484100  1
  H  H8  1  0.60311100  0.28174200  0.02414300  1
  H  H9  1  0.14172800  0.61398200  0.40347300  1
  H  H10  1  0.28174200  0.60311100  0.52414300  1
  H  H11  1  0.09411900  0.82500300  0.44484100  1
  H  H12  1  0.25014100  0.33336200  0.25087500  1
  H  H13  1  0.66149800  0.75208200  0.24863800  1
  H  H14  1  0.83539200  0.16640600  0.25092200  1
  H  H15  1  0.33336200  0.25014100  0.75087500  1
  H  H16  1  0.16640600  0.83539200  0.75092200  1
  H  H17  1  0.75208200  0.66149800  0.74863800  1
  C  C0  1  0.31759600  0.81247500  0.08649100  1
  C  C1  1  0.81247500  0.31759600  0.58649100  1
  C  C2  1  0.68813200  0.21579100  0.91352800  1
  C  C3  1  0.21579100  0.68813200  0.41352800  1
  C  C4  1  0.24788200  0.19992600  0.24930300  1
  C  C5  1  0.79605500  0.75405400  0.24737000  1
  C  C6  1  0.69833700  0.30055700  0.25330400  1
  C  C7  1  0.19992600  0.24788200  0.74930300  1
  C  C8  1  0.30055700  0.69833700  0.75330400  1
  C  C9  1  0.75405400  0.79605500  0.74737000  1
  N  N0  1  0.35402800  0.75024500  0.25059700  1
  N  N1  1  0.75024500  0.35402800  0.75059700  1
  O  O0  1  0.34679900  0.03310300  0.33758600  1
  O  O1  1  0.77599600  0.85426200  0.33435800  1
  O  O2  1  0.53322500  0.27867800  0.34034400  1
  O  O3  1  0.03310300  0.34679900  0.83758600  1
  O  O4  1  0.27867800  0.53322500  0.84034400  1
  O  O5  1  0.85426200  0.77599600  0.83435800  1
  O  O6  1  0.65515600  0.96393100  0.65951900  1
  O  O7  1  0.22361000  0.14783800  0.66101600  1
  O  O8  1  0.46689600  0.71811500  0.66664900  1
  O  O9  1  0.96393100  0.65515600  0.15951900  1
  O  O10  1  0.71811500  0.46689600  0.16664900  1
  O  O11  1  0.14783800  0.22361000  0.16101600  1
loop_
_geom_bond_atom_site_label_1
_geom_bond_atom_site_label_2
_geom_bond_distance
_geom_bond_site_symmetry_2
C0 H0 1.095070 1_554
C0 H1 1.105211 1_555
C0 H2 1.113763 1_555
C0 N0 1.407928 1_555
C1 H3 1.095070 1_555
C1 H5 1.105211 1_555
C1 H4 1.113763 1_555
C1 N1 1.407928 1_555
C2 H8 1.095242 1_556
C2 H6 1.104792 1_555
C2 H7 1.113886 1_555
C2 N1 1.408060 1_555
C3 H10 1.095242 1_555
C3 H9 1.104792 1_555
C3 H11 1.113886 1_555
C3 N0 1.408060 1_555
C4 H12 1.111817 1_555
C4 O11 1.266067 1_555
C4 O0 1.271123 1_555
C5 H13 1.108111 1_555
C5 O1 1.271514 1_555
C5 O9 1.273671 1_555
C6 H14 1.111215 1_555
C6 O2 1.267694 1_555
C6 O10 1.269439 1_555
C7 H15 1.111817 1_555
C7 O7 1.266067 1_555
C7 O3 1.271123 1_555
C8 H16 1.111215 1_555
C8 O4 1.267694 1_555
C8 O8 1.269439 1_555
C9 H17 1.108111 1_555
C9 O5 1.271514 1_555
C9 O6 1.273671 1_555
O0 Zn0 2.180661 1_545
O1 Zn0 2.102381 1_555
O2 Zn0 2.132794 1_545
O3 Zn1 2.180661 1_456
O4 Zn1 2.132794 1_456
O5 Zn1 2.102381 1_556
O6 Zn0 2.110392 1_555
O7 Zn0 2.133433 1_545
O8 Zn0 2.166546 1_555
O9 Zn1 2.110392 1_555
O10 Zn1 2.166546 1_555
O11 Zn1 2.133433 1_455
