# generated using pymatgen
data_CaErAl4
_symmetry_space_group_name_H-M   'P 1'
_cell_length_a   5.58968900
_cell_length_b   5.58968900
_cell_length_c   5.58968900
_cell_angle_alpha   60.00000000
_cell_angle_beta   60.00000000
_cell_angle_gamma   60.00000000
_symmetry_Int_Tables_number   1
_chemical_formula_structural   CaErAl4
_chemical_formula_sum   'Ca1 Er1 Al4'
_cell_volume   123.49459179
_cell_formula_units_Z   1
loop_
 _symmetry_equiv_pos_site_id
 _symmetry_equiv_pos_as_xyz
  1  'x, y, z'
loop_
 _atom_site_type_symbol
 _atom_site_label
 _atom_site_symmetry_multiplicity
 _atom_site_fract_x
 _atom_site_fract_y
 _atom_site_fract_z
 _atom_site_occupancy
  Ca  Ca0  1  0.25000000  0.25000000  0.25000000  1
  Er  Er0  1  0.00000000  0.00000000  0.00000000  1
  Al  Al0  1  0.62516500  0.62516500  0.12450600  1
  Al  Al1  1  0.62516500  0.12450600  0.62516500  1
  Al  Al2  1  0.12450600  0.62516500  0.62516500  1
  Al  Al3  1  0.62516500  0.62516500  0.62516500  1
loop_
_geom_bond_atom_site_label_1
_geom_bond_atom_site_label_2
_geom_bond_distance
_geom_bond_site_symmetry_2
Ca0 Er0 3.422971 1_655
Ca0 Er0 3.422971 1_556
Ca0 Er0 3.422971 1_555
Ca0 Er0 3.422971 1_565
Al0 Al1 2.791161 1_564
Al0 Al2 2.791161 1_654
Al0 Al3 2.791161 1_554
Al0 Al1 2.798528 1_555
Al0 Al2 2.798528 1_555
Al0 Al3 2.798528 1_555
Al0 Er0 3.276851 1_665
Al0 Er0 3.276856 1_565
Al0 Er0 3.276856 1_655
Al0 Ca0 3.277637 1_655
Al0 Ca0 3.277637 1_565
Al0 Ca0 3.277642 1_555
Al1 Al2 2.791161 1_645
Al1 Al3 2.791161 1_545
Al1 Al2 2.798528 1_555
Al1 Al3 2.798528 1_555
Al1 Er0 3.276851 1_656
Al1 Er0 3.276856 1_556
Al1 Er0 3.276856 1_655
Al1 Ca0 3.277637 1_556
Al1 Ca0 3.277637 1_655
Al1 Ca0 3.277642 1_555
Al2 Al3 2.791161 1_455
Al2 Al3 2.798528 1_555
Al2 Er0 3.276851 1_566
Al2 Er0 3.276856 1_556
Al2 Er0 3.276856 1_565
Al2 Ca0 3.277637 1_556
Al2 Ca0 3.277637 1_565
Al2 Ca0 3.277642 1_555
Al3 Er0 3.276853 1_566
Al3 Er0 3.276853 1_665
Al3 Er0 3.276853 1_656
Al3 Ca0 3.277640 1_655
Al3 Ca0 3.277640 1_565
Al3 Ca0 3.277640 1_556
