# generated using pymatgen
data_ZnCr2S5
_symmetry_space_group_name_H-M   'P 1'
_cell_length_a   3.62815100
_cell_length_b   6.47563300
_cell_length_c   13.99067100
_cell_angle_alpha   90.00000000
_cell_angle_beta   90.00000000
_cell_angle_gamma   90.00000000
_symmetry_Int_Tables_number   1
_chemical_formula_structural   ZnCr2S5
_chemical_formula_sum   'Zn2 Cr4 S10'
_cell_volume   328.70485994
_cell_formula_units_Z   2
loop_
 _symmetry_equiv_pos_site_id
 _symmetry_equiv_pos_as_xyz
  1  'x, y, z'
loop_
 _atom_site_type_symbol
 _atom_site_label
 _atom_site_symmetry_multiplicity
 _atom_site_fract_x
 _atom_site_fract_y
 _atom_site_fract_z
 _atom_site_occupancy
  Zn  Zn0  1  0.50000000  0.08898700  0.00000000  1
  Zn  Zn1  1  0.00000000  0.91101300  0.50000000  1
  Cr  Cr0  1  0.00000000  0.50988100  0.85034100  1
  Cr  Cr1  1  0.50000000  0.49011900  0.64965900  1
  Cr  Cr2  1  0.50000000  0.49011900  0.35034100  1
  Cr  Cr3  1  0.00000000  0.50988100  0.14965900  1
  S  S0  1  0.00000000  0.82971200  0.07636100  1
  S  S1  1  0.50000000  0.17028800  0.42363900  1
  S  S2  1  0.50000000  0.17028800  0.57636100  1
  S  S3  1  0.00000000  0.82971200  0.92363900  1
  S  S4  1  0.50000000  0.67276000  0.50000000  1
  S  S5  1  0.00000000  0.32724000  0.00000000  1
  S  S6  1  0.50000000  0.31487700  0.79598200  1
  S  S7  1  0.00000000  0.68512300  0.70401800  1
  S  S8  1  0.50000000  0.31487700  0.20401800  1
  S  S9  1  0.00000000  0.68512300  0.29598200  1
loop_
_geom_bond_atom_site_label_1
_geom_bond_atom_site_label_2
_geom_bond_distance
_geom_bond_site_symmetry_2
Cr0 S3 2.311085 1_555
Cr0 S6 2.337490 1_455
Cr0 S6 2.337490 1_555
Cr0 S7 2.340647 1_555
Cr0 S5 2.404775 1_556
Cr1 S2 2.311085 1_555
Cr1 S7 2.337490 1_555
Cr1 S7 2.337490 1_655
Cr1 S6 2.340647 1_555
Cr1 S4 2.404775 1_555
Cr2 S1 2.311085 1_555
Cr2 S9 2.337490 1_555
Cr2 S9 2.337490 1_655
Cr2 S8 2.340647 1_555
Cr2 S4 2.404775 1_555
Cr3 S0 2.311085 1_555
Cr3 S8 2.337490 1_455
Cr3 S8 2.337490 1_555
Cr3 S9 2.340647 1_555
Cr3 S5 2.404775 1_555
S0 S3 2.136683 1_554
S0 Zn0 2.692798 1_565
S0 Zn0 2.692798 1_465
S1 S2 2.136683 1_555
S1 Zn1 2.692798 1_645
S1 Zn1 2.692798 1_545
S2 Zn1 2.692798 1_545
S2 Zn1 2.692798 1_645
S3 Zn0 2.692798 1_466
S3 Zn0 2.692798 1_566
S4 Zn1 2.381433 1_555
S4 Zn1 2.381433 1_655
S5 Zn0 2.381433 1_555
S5 Zn0 2.381433 1_455
