# generated using pymatgen
data_LiMg30MnO32
_symmetry_space_group_name_H-M   'P 1'
_cell_length_a   8.51957800
_cell_length_b   8.51957800
_cell_length_c   8.49395200
_cell_angle_alpha   90.00000000
_cell_angle_beta   90.00000000
_cell_angle_gamma   90.00000000
_symmetry_Int_Tables_number   1
_chemical_formula_structural   LiMg30MnO32
_chemical_formula_sum   'Li1 Mg30 Mn1 O32'
_cell_volume   616.51829578
_cell_formula_units_Z   1
loop_
 _symmetry_equiv_pos_site_id
 _symmetry_equiv_pos_as_xyz
  1  'x, y, z'
loop_
 _atom_site_type_symbol
 _atom_site_label
 _atom_site_symmetry_multiplicity
 _atom_site_fract_x
 _atom_site_fract_y
 _atom_site_fract_z
 _atom_site_occupancy
  Li  Li0  1  0.00000000  0.00000000  0.50000000  1
  Mg  Mg0  1  0.50000000  0.00000000  0.00000000  1
  Mg  Mg1  1  0.50000000  0.00000000  0.50000000  1
  Mg  Mg2  1  0.00000000  0.50000000  0.00000000  1
  Mg  Mg3  1  0.00000000  0.50000000  0.50000000  1
  Mg  Mg4  1  0.50000000  0.50000000  0.00000000  1
  Mg  Mg5  1  0.50000000  0.50000000  0.50000000  1
  Mg  Mg6  1  0.25085000  0.00000000  0.25401600  1
  Mg  Mg7  1  0.25085000  0.00000000  0.74598400  1
  Mg  Mg8  1  0.74915000  0.00000000  0.25401600  1
  Mg  Mg9  1  0.74915000  0.00000000  0.74598400  1
  Mg  Mg10  1  0.25003200  0.50000000  0.25121100  1
  Mg  Mg11  1  0.25003200  0.50000000  0.74878900  1
  Mg  Mg12  1  0.74996900  0.50000000  0.25121100  1
  Mg  Mg13  1  0.74996900  0.50000000  0.74878900  1
  Mg  Mg14  1  0.00000000  0.25085000  0.25401600  1
  Mg  Mg15  1  0.00000000  0.25085000  0.74598400  1
  Mg  Mg16  1  0.50000000  0.25003200  0.25121100  1
  Mg  Mg17  1  0.50000000  0.25003200  0.74878900  1
  Mg  Mg18  1  0.00000000  0.74915000  0.25401600  1
  Mg  Mg19  1  0.00000000  0.74915000  0.74598400  1
  Mg  Mg20  1  0.50000000  0.74996900  0.25121100  1
  Mg  Mg21  1  0.50000000  0.74996900  0.74878900  1
  Mg  Mg22  1  0.25127600  0.25127600  0.00000000  1
  Mg  Mg23  1  0.24706500  0.24706500  0.50000000  1
  Mg  Mg24  1  0.74872400  0.25127600  0.00000000  1
  Mg  Mg25  1  0.75293500  0.24706500  0.50000000  1
  Mg  Mg26  1  0.25127600  0.74872400  0.00000000  1
  Mg  Mg27  1  0.24706500  0.75293500  0.50000000  1
  Mg  Mg28  1  0.74872400  0.74872400  0.00000000  1
  Mg  Mg29  1  0.75293500  0.75293500  0.50000000  1
  Mn  Mn0  1  0.00000000  0.00000000  0.00000000  1
  O  O0  1  0.00000000  0.25026700  0.00000000  1
  O  O1  1  0.00000000  0.25341300  0.50000000  1
  O  O2  1  0.50000000  0.24973500  0.00000000  1
  O  O3  1  0.50000000  0.25054600  0.50000000  1
  O  O4  1  0.00000000  0.74973300  0.00000000  1
  O  O5  1  0.00000000  0.74658700  0.50000000  1
  O  O6  1  0.50000000  0.75026500  0.00000000  1
  O  O7  1  0.50000000  0.74945400  0.50000000  1
  O  O8  1  0.24929700  0.24929700  0.24920400  1
  O  O9  1  0.24929700  0.24929700  0.75079600  1
  O  O10  1  0.75070300  0.24929700  0.24920400  1
  O  O11  1  0.75070300  0.24929700  0.75079600  1
  O  O12  1  0.24929700  0.75070300  0.24920400  1
  O  O13  1  0.24929700  0.75070300  0.75079600  1
  O  O14  1  0.75070300  0.75070300  0.24920400  1
  O  O15  1  0.75070300  0.75070300  0.75079600  1
  O  O16  1  0.00000000  0.00000000  0.22952600  1
  O  O17  1  0.00000000  0.00000000  0.77047400  1
  O  O18  1  0.50000000  0.00000000  0.24841100  1
  O  O19  1  0.50000000  0.00000000  0.75158900  1
  O  O20  1  0.00000000  0.50000000  0.24841100  1
  O  O21  1  0.00000000  0.50000000  0.75158900  1
  O  O22  1  0.50000000  0.50000000  0.24923400  1
  O  O23  1  0.50000000  0.50000000  0.75076600  1
  O  O24  1  0.25026700  0.00000000  0.00000000  1
  O  O25  1  0.25341300  0.00000000  0.50000000  1
  O  O26  1  0.74973300  0.00000000  0.00000000  1
  O  O27  1  0.74658700  0.00000000  0.50000000  1
  O  O28  1  0.24973500  0.50000000  0.00000000  1
  O  O29  1  0.25054600  0.50000000  0.50000000  1
  O  O30  1  0.75026500  0.50000000  0.00000000  1
  O  O31  1  0.74945400  0.50000000  0.50000000  1
loop_
_geom_bond_atom_site_label_1
_geom_bond_atom_site_label_2
_geom_bond_distance
_geom_bond_site_symmetry_2
Li0 O25 2.158972 1_555
Li0 O5 2.158972 1_545
Li0 O1 2.158972 1_555
Li0 O27 2.158972 1_455
Li0 O17 2.297393 1_555
Li0 O16 2.297393 1_555
Mg0 O18 2.109991 1_555
Mg0 O19 2.109991 1_554
Mg0 O24 2.127620 1_555
Mg0 O26 2.127620 1_555
Mg0 O6 2.127637 1_545
Mg0 O2 2.127637 1_555
Mg1 O27 2.100817 1_555
Mg1 O25 2.100817 1_555
Mg1 O3 2.134546 1_555
Mg1 O7 2.134546 1_545
Mg1 O19 2.136985 1_555
Mg1 O18 2.136985 1_555
Mg2 O20 2.109991 1_555
Mg2 O21 2.109991 1_554
Mg2 O0 2.127620 1_555
Mg2 O4 2.127620 1_555
Mg2 O30 2.127637 1_455
Mg2 O28 2.127637 1_555
Mg3 O1 2.100817 1_555
Mg3 O5 2.100817 1_555
Mg3 O29 2.134546 1_555
Mg3 O31 2.134546 1_455
Mg3 O21 2.136985 1_555
Mg3 O20 2.136985 1_555
Mg4 O23 2.116982 1_554
Mg4 O22 2.116982 1_555
Mg4 O30 2.132152 1_555
Mg4 O2 2.132152 1_555
Mg4 O28 2.132152 1_555
Mg4 O6 2.132152 1_555
Mg5 O7 2.125243 1_555
Mg5 O31 2.125243 1_555
Mg5 O3 2.125243 1_555
Mg5 O29 2.125243 1_555
Mg5 O22 2.129994 1_555
Mg5 O23 2.129994 1_555
Mg6 O25 2.089490 1_555
Mg6 O18 2.123187 1_555
Mg6 O12 2.124340 1_545
Mg6 O8 2.124340 1_555
Mg6 O16 2.147236 1_555
Mg6 O24 2.157605 1_555
Mg7 O25 2.089490 1_555
Mg7 O19 2.123187 1_555
Mg7 O9 2.124340 1_555
Mg7 O13 2.124340 1_545
Mg7 O17 2.147236 1_555
Mg7 O24 2.157605 1_556
Mg8 O27 2.089490 1_555
Mg8 O18 2.123187 1_555
Mg8 O14 2.124340 1_545
Mg8 O10 2.124340 1_555
Mg8 O16 2.147236 1_655
Mg8 O26 2.157605 1_555
Mg9 O27 2.089490 1_555
Mg9 O19 2.123187 1_555
Mg9 O15 2.124340 1_545
Mg9 O11 2.124340 1_555
Mg9 O17 2.147236 1_655
Mg9 O26 2.157605 1_556
Mg10 O29 2.113206 1_555
Mg10 O22 2.129688 1_555
Mg10 O20 2.130300 1_555
Mg10 O28 2.133776 1_555
Mg10 O8 2.135961 1_555
Mg10 O12 2.135961 1_555
Mg11 O29 2.113206 1_555
Mg11 O23 2.129688 1_555
Mg11 O21 2.130300 1_555
Mg11 O28 2.133776 1_556
Mg11 O9 2.135961 1_555
Mg11 O13 2.135961 1_555
Mg12 O31 2.113206 1_555
Mg12 O22 2.129697 1_555
Mg12 O20 2.130291 1_655
Mg12 O30 2.133776 1_555
Mg12 O10 2.135961 1_555
Mg12 O14 2.135961 1_555
Mg13 O31 2.113206 1_555
Mg13 O23 2.129697 1_555
Mg13 O21 2.130291 1_655
Mg13 O30 2.133776 1_556
Mg13 O15 2.135961 1_555
Mg13 O11 2.135961 1_555
Mg14 O1 2.089490 1_555
Mg14 O20 2.123187 1_555
Mg14 O10 2.124340 1_455
Mg14 O8 2.124340 1_555
Mg14 O16 2.147236 1_555
Mg14 O0 2.157605 1_555
Mg15 O1 2.089490 1_555
Mg15 O21 2.123187 1_555
Mg15 O9 2.124340 1_555
Mg15 O11 2.124340 1_455
Mg15 O17 2.147236 1_555
Mg15 O0 2.157605 1_556
Mg16 O3 2.113206 1_555
Mg16 O22 2.129688 1_555
Mg16 O18 2.130300 1_555
Mg16 O2 2.133776 1_555
Mg16 O8 2.135961 1_555
Mg16 O10 2.135961 1_555
Mg17 O3 2.113206 1_555
Mg17 O23 2.129688 1_555
Mg17 O19 2.130300 1_555
Mg17 O2 2.133776 1_556
Mg17 O9 2.135961 1_555
Mg17 O11 2.135961 1_555
Mg18 O5 2.089490 1_555
Mg18 O20 2.123187 1_555
Mg18 O14 2.124340 1_455
Mg18 O12 2.124340 1_555
Mg18 O16 2.147236 1_565
Mg18 O4 2.157605 1_555
Mg19 O5 2.089490 1_555
Mg19 O21 2.123187 1_555
Mg19 O15 2.124340 1_455
Mg19 O13 2.124340 1_555
Mg19 O17 2.147236 1_565
Mg19 O4 2.157605 1_556
Mg20 O7 2.113206 1_555
Mg20 O22 2.129697 1_555
Mg20 O18 2.130291 1_565
Mg20 O6 2.133776 1_555
Mg20 O12 2.135961 1_555
Mg20 O14 2.135961 1_555
Mg21 O7 2.113206 1_555
Mg21 O23 2.129697 1_555
Mg21 O19 2.130291 1_565
Mg21 O6 2.133776 1_556
Mg21 O15 2.135961 1_555
Mg21 O13 2.135961 1_555
Mg22 O8 2.116861 1_555
Mg22 O9 2.116861 1_554
Mg22 O28 2.119064 1_555
Mg22 O2 2.119064 1_555
Mg22 O24 2.140783 1_555
Mg22 O0 2.140783 1_555
Mg23 O1 2.105584 1_555
Mg23 O25 2.105584 1_555
Mg23 O8 2.130419 1_555
Mg23 O9 2.130419 1_555
Mg23 O3 2.155104 1_555
Mg23 O29 2.155104 1_555
Mg24 O11 2.116861 1_554
Mg24 O10 2.116861 1_555
Mg24 O30 2.119064 1_555
Mg24 O2 2.119064 1_555
Mg24 O26 2.140783 1_555
Mg24 O0 2.140783 1_655
Mg25 O27 2.105584 1_555
Mg25 O1 2.105584 1_655
Mg25 O11 2.130419 1_555
Mg25 O10 2.130419 1_555
Mg25 O3 2.155104 1_555
Mg25 O31 2.155104 1_555
Mg26 O13 2.116861 1_554
Mg26 O12 2.116861 1_555
Mg26 O28 2.119064 1_555
Mg26 O6 2.119064 1_555
Mg26 O4 2.140783 1_555
Mg26 O24 2.140783 1_565
Mg27 O25 2.105584 1_565
Mg27 O5 2.105584 1_555
Mg27 O12 2.130419 1_555
Mg27 O13 2.130419 1_555
Mg27 O7 2.155104 1_555
Mg27 O29 2.155104 1_555
Mg28 O14 2.116861 1_555
Mg28 O15 2.116861 1_554
Mg28 O30 2.119064 1_555
Mg28 O6 2.119064 1_555
Mg28 O26 2.140783 1_565
Mg28 O4 2.140783 1_655
Mg29 O5 2.105584 1_655
Mg29 O27 2.105584 1_565
Mg29 O14 2.130419 1_555
Mg29 O15 2.130419 1_555
Mg29 O7 2.155104 1_555
Mg29 O31 2.155104 1_555
Mn0 O17 1.949583 1_554
Mn0 O16 1.949583 1_555
Mn0 O0 2.132169 1_555
Mn0 O24 2.132169 1_555
Mn0 O26 2.132169 1_455
Mn0 O4 2.132169 1_545
