# generated using pymatgen
data_CaZrSi6O17
_symmetry_space_group_name_H-M   'P 1'
_cell_length_a   10.05610963
_cell_length_b   10.05610963
_cell_length_c   7.94942127
_cell_angle_alpha   76.32049273
_cell_angle_beta   76.32049273
_cell_angle_gamma   89.71615338
_symmetry_Int_Tables_number   1
_chemical_formula_structural   CaZrSi6O17
_chemical_formula_sum   'Ca2 Zr2 Si12 O34'
_cell_volume   757.82117415
_cell_formula_units_Z   2
loop_
 _symmetry_equiv_pos_site_id
 _symmetry_equiv_pos_as_xyz
  1  'x, y, z'
loop_
 _atom_site_type_symbol
 _atom_site_label
 _atom_site_symmetry_multiplicity
 _atom_site_fract_x
 _atom_site_fract_y
 _atom_site_fract_z
 _atom_site_occupancy
  Ca  Ca0  1  0.98923000  0.49579200  0.95842600  1
  Ca  Ca1  1  0.50420800  0.01077000  0.04157400  1
  Zr  Zr0  1  0.24913200  0.25352100  0.99488400  1
  Zr  Zr1  1  0.74647900  0.75086800  0.00511600  1
  Si  Si0  1  0.05171600  0.32949500  0.65555200  1
  Si  Si1  1  0.67050500  0.94828400  0.34444800  1
  Si  Si2  1  0.81998900  0.55739300  0.65966300  1
  Si  Si3  1  0.44260800  0.18001100  0.34033700  1
  Si  Si4  1  0.97784300  0.70888700  0.27038700  1
  Si  Si5  1  0.29111300  0.02215700  0.72961300  1
  Si  Si6  1  0.20194400  0.49172800  0.26984100  1
  Si  Si7  1  0.50827200  0.79805600  0.73015900  1
  Si  Si8  1  0.98894500  0.02253400  0.69487700  1
  Si  Si9  1  0.97746600  0.01105500  0.30512300  1
  Si  Si10  1  0.51134000  0.49471700  0.69900800  1
  Si  Si11  1  0.50528300  0.48866000  0.30099200  1
  O  O0  1  0.01004700  0.98995300  0.50000000  1
  O  O1  1  0.48704300  0.51295700  0.50000000  1
  O  O2  1  0.15175100  0.37484800  0.45637800  1
  O  O3  1  0.62515200  0.84824900  0.54362200  1
  O  O4  1  0.86211300  0.65481400  0.45893300  1
  O  O5  1  0.34518600  0.13788700  0.54106700  1
  O  O6  1  0.13064600  0.32874400  0.81191700  1
  O  O7  1  0.67125600  0.86935400  0.18808300  1
  O  O8  1  0.91890100  0.67823700  0.10735000  1
  O  O9  1  0.32176300  0.08109900  0.89265000  1
  O  O10  1  0.82425500  0.63878200  0.81263400  1
  O  O11  1  0.36121800  0.17574500  0.18736600  1
  O  O12  1  0.17175600  0.42863600  0.10848500  1
  O  O13  1  0.57136400  0.82824400  0.89151500  1
  O  O14  1  0.93696400  0.44437700  0.68966100  1
  O  O15  1  0.55562300  0.06303600  0.31033900  1
  O  O16  1  0.11601500  0.62671500  0.28628800  1
  O  O17  1  0.37328500  0.88398500  0.71371200  1
  O  O18  1  0.96998600  0.18621500  0.67975000  1
  O  O19  1  0.81378500  0.03001400  0.32025000  1
  O  O20  1  0.01571300  0.87100600  0.23700900  1
  O  O21  1  0.12899400  0.98428700  0.76299100  1
  O  O22  1  0.67453000  0.47380700  0.69290600  1
  O  O23  1  0.52619300  0.32547000  0.30709400  1
  O  O24  1  0.36376800  0.52969400  0.23786000  1
  O  O25  1  0.47030600  0.63623200  0.76214000  1
  O  O26  1  0.41813000  0.36828800  0.83902800  1
  O  O27  1  0.63171200  0.58187000  0.16097200  1
  O  O28  1  0.85819900  0.93373800  0.83885600  1
  O  O29  1  0.06626200  0.14180100  0.16114400  1
  O  O30  1  0.92010200  0.30652500  0.22113600  1
  O  O31  1  0.69347500  0.07989800  0.77886400  1
  O  O32  1  0.18935400  0.64291800  0.89802700  1
  O  O33  1  0.35708200  0.81064600  0.10197300  1
loop_
_geom_bond_atom_site_label_1
_geom_bond_atom_site_label_2
_geom_bond_distance
_geom_bond_site_symmetry_2
Ca0 O32 2.388726 1_655
Ca0 O8 2.426156 1_556
Ca0 O12 2.427015 1_656
Ca0 O30 2.431785 1_556
Ca0 O14 2.482866 1_555
Ca0 O10 2.502134 1_555
Ca0 O6 2.513765 1_655
Ca1 O33 2.388726 1_545
Ca1 O9 2.426156 1_554
Ca1 O13 2.427015 1_544
Ca1 O31 2.431785 1_554
Ca1 O15 2.482866 1_555
Ca1 O11 2.502134 1_555
Ca1 O7 2.513765 1_545
O0 Si8 1.623627 1_465
O0 Si9 1.623627 1_465
O1 Si10 1.625175 1_555
O1 Si11 1.625175 1_555
O2 Si0 1.623735 1_555
O2 Si6 1.631755 1_555
O3 Si1 1.623735 1_555
O3 Si7 1.631755 1_555
O4 Si2 1.621862 1_555
O4 Si4 1.640835 1_555
O5 Si3 1.621866 1_555
O5 Si5 1.640835 1_555
O6 Si0 1.623973 1_555
O6 Zr0 2.097091 1_555
O7 Si1 1.623973 1_555
O7 Zr1 2.097091 1_555
O8 Si4 1.637122 1_555
O8 Zr1 2.138581 1_555
O9 Si5 1.637122 1_555
O9 Zr0 2.138581 1_555
O10 Si2 1.626717 1_555
O10 Zr1 2.112917 1_556
O11 Si3 1.626724 1_555
O11 Zr0 2.112917 1_554
O12 Si6 1.646506 1_555
O12 Zr0 2.219964 1_554
O13 Si7 1.646506 1_555
O13 Zr1 2.219964 1_556
O14 Si2 1.650291 1_555
O14 Si0 1.651284 1_655
O15 Si3 1.650284 1_555
O15 Si1 1.651284 1_545
O16 Si6 1.620285 1_555
O16 Si4 1.628412 1_455
O17 Si7 1.620285 1_555
O17 Si5 1.628412 1_565
O18 Si0 1.610708 1_655
O18 Si8 1.635305 1_555
O19 Si1 1.610708 1_545
O19 Si9 1.635305 1_555
O20 Si4 1.620810 1_455
O20 Si9 1.637490 1_465
O21 Si5 1.620810 1_565
O21 Si8 1.637490 1_465
O22 Si2 1.624897 1_555
O22 Si10 1.644199 1_555
O23 Si3 1.624892 1_555
O23 Si11 1.644199 1_555
O24 Si6 1.619609 1_555
O24 Si11 1.637486 1_555
O25 Si7 1.619609 1_555
O25 Si10 1.637486 1_555
O26 Si10 1.607154 1_555
O26 Zr0 2.025437 1_555
O27 Si11 1.607154 1_555
O27 Zr1 2.025437 1_555
O28 Si8 1.628650 1_565
O28 Zr1 2.135264 1_556
O29 Si9 1.628650 1_455
O29 Zr0 2.135264 1_554
