# generated using pymatgen
data_LaAg(IO3)4
_symmetry_space_group_name_H-M   'P 1'
_cell_length_a   16.42935891
_cell_length_b   16.42935891
_cell_length_c   13.07818050
_cell_angle_alpha   89.34957874
_cell_angle_beta   89.34957874
_cell_angle_gamma   20.23370311
_symmetry_Int_Tables_number   1
_chemical_formula_structural   LaAg(IO3)4
_chemical_formula_sum   'La4 Ag4 I16 O48'
_cell_volume   1220.80894891
_cell_formula_units_Z   4
loop_
 _symmetry_equiv_pos_site_id
 _symmetry_equiv_pos_as_xyz
  1  'x, y, z'
loop_
 _atom_site_type_symbol
 _atom_site_label
 _atom_site_symmetry_multiplicity
 _atom_site_fract_x
 _atom_site_fract_y
 _atom_site_fract_z
 _atom_site_occupancy
  La  La0  1  0.27344900  0.68443600  0.49977700  1
  La  La1  1  0.68443600  0.27344900  0.99977700  1
  La  La2  1  0.46457400  0.07605700  0.50116800  1
  La  La3  1  0.07605700  0.46457400  0.00116800  1
  Ag  Ag0  1  0.07728100  0.64509700  0.61857000  1
  Ag  Ag1  1  0.64509700  0.07728100  0.11857000  1
  Ag  Ag2  1  0.67102400  0.19889500  0.70628900  1
  Ag  Ag3  1  0.19889500  0.67102400  0.20628900  1
  I  I0  1  0.65746500  0.12660700  0.46073000  1
  I  I1  1  0.12660700  0.65746500  0.96073000  1
  I  I2  1  0.40812500  0.78004800  0.36354600  1
  I  I3  1  0.78004800  0.40812500  0.86354600  1
  I  I4  1  0.82193700  0.28687500  0.59545000  1
  I  I5  1  0.28687500  0.82193700  0.09545000  1
  I  I6  1  0.55134900  0.95565600  0.20873400  1
  I  I7  1  0.95565600  0.55134900  0.70873400  1
  I  I8  1  0.92651000  0.46184600  0.39771300  1
  I  I9  1  0.46184600  0.92651000  0.89771300  1
  I  I10  1  0.13746300  0.53196900  0.29811700  1
  I  I11  1  0.53196900  0.13746300  0.79811700  1
  I  I12  1  0.32904200  0.97923900  0.63331600  1
  I  I13  1  0.97923900  0.32904200  0.13331600  1
  I  I14  1  0.19277400  0.80169100  0.79350100  1
  I  I15  1  0.80169100  0.19277400  0.29350100  1
  O  O0  1  0.45046300  0.37695100  0.54498400  1
  O  O1  1  0.37695100  0.45046300  0.04498400  1
  O  O2  1  0.92851400  0.91184300  0.51885400  1
  O  O3  1  0.91184300  0.92851400  0.01885400  1
  O  O4  1  0.67888500  0.00922800  0.53298600  1
  O  O5  1  0.00922800  0.67888500  0.03298600  1
  O  O6  1  0.59856600  0.66593700  0.44056900  1
  O  O7  1  0.66593700  0.59856600  0.94056900  1
  O  O8  1  0.58093500  0.60726000  0.24629200  1
  O  O9  1  0.60726000  0.58093500  0.74629200  1
  O  O10  1  0.48398000  0.61029400  0.42633400  1
  O  O11  1  0.61029400  0.48398000  0.92633400  1
  O  O12  1  0.00834400  0.09242600  0.70815700  1
  O  O13  1  0.09242600  0.00834400  0.20815700  1
  O  O14  1  0.98187200  0.07532300  0.50071300  1
  O  O15  1  0.07532300  0.98187200  0.00071300  1
  O  O16  1  0.58382100  0.43572700  0.62426800  1
  O  O17  1  0.43572700  0.58382100  0.12426800  1
  O  O18  1  0.83407200  0.71605900  0.15062600  1
  O  O19  1  0.71605900  0.83407200  0.65062600  1
  O  O20  1  0.61037400  0.95725200  0.32577000  1
  O  O21  1  0.95725200  0.61037400  0.82577000  1
  O  O22  1  0.37802700  0.19851600  0.14123900  1
  O  O23  1  0.19851600  0.37802700  0.64123900  1
  O  O24  1  0.76714800  0.67664000  0.48776000  1
  O  O25  1  0.67664000  0.76714800  0.98776000  1
  O  O26  1  0.76021800  0.63855300  0.27943500  1
  O  O27  1  0.63855300  0.76021800  0.77943500  1
  O  O28  1  0.18033500  0.29223200  0.37216900  1
  O  O29  1  0.29223200  0.18033500  0.87216900  1
  O  O30  1  0.92984600  0.81190100  0.30915100  1
  O  O31  1  0.81190100  0.92984600  0.80915100  1
  O  O32  1  0.38486500  0.36278800  0.25175200  1
  O  O33  1  0.36278800  0.38486500  0.75175200  1
  O  O34  1  0.23323800  0.42541300  0.43143400  1
  O  O35  1  0.42541300  0.23323800  0.93143400  1
  O  O36  1  0.15848900  0.14491300  0.75150800  1
  O  O37  1  0.14491300  0.15848900  0.25150800  1
  O  O38  1  0.12970100  0.10809300  0.55129000  1
  O  O39  1  0.10809300  0.12970100  0.05129000  1
  O  O40  1  0.26318100  0.14292600  0.57886400  1
  O  O41  1  0.14292600  0.26318100  0.07886400  1
  O  O42  1  0.14884900  0.78318700  0.67809400  1
  O  O43  1  0.78318700  0.14884900  0.17809400  1
  O  O44  1  0.89063600  0.06279800  0.83720000  1
  O  O45  1  0.06279800  0.89063600  0.33720000  1
  O  O46  1  0.35138500  0.57421100  0.87009900  1
  O  O47  1  0.57421100  0.35138500  0.37009900  1
loop_
_geom_bond_atom_site_label_1
_geom_bond_atom_site_label_2
_geom_bond_distance
_geom_bond_site_symmetry_2
La0 O45 2.444728 1_555
La0 O42 2.450774 1_555
La0 O16 2.507218 1_555
La0 O2 2.528419 1_455
La0 O10 2.532749 1_555
La0 O14 2.541585 1_465
La0 O47 2.552478 1_555
La0 O0 2.594005 1_555
La1 O44 2.444728 1_555
La1 O43 2.450774 1_556
La1 O17 2.507218 1_556
La1 O3 2.528419 1_546
La1 O11 2.532749 1_555
La1 O15 2.541585 1_646
La1 O46 2.552478 1_555
La1 O1 2.594005 1_556
La2 O19 2.424717 1_545
La2 O20 2.452056 1_545
La2 O28 2.487272 1_555
La2 O40 2.512944 1_555
La2 O23 2.530795 1_555
La2 O4 2.558178 1_555
La2 O24 2.568015 1_545
La2 O34 2.691409 1_555
La3 O18 2.424717 1_455
La3 O21 2.452056 1_454
La3 O29 2.487272 1_554
La3 O41 2.512944 1_555
La3 O22 2.530795 1_555
La3 O5 2.558178 1_555
La3 O25 2.568015 1_454
La3 O35 2.691409 1_554
Ag0 O33 2.387011 1_555
Ag0 O4 2.533148 1_465
Ag0 O2 2.592756 1_455
Ag0 O23 2.625094 1_555
Ag0 O0 2.683293 1_555
Ag1 O32 2.387011 1_555
Ag1 O5 2.533148 1_645
Ag1 O3 2.592756 1_545
Ag1 O22 2.625094 1_555
Ag1 O1 2.683293 1_555
Ag2 O44 2.421344 1_555
Ag2 O33 2.504225 1_555
Ag2 O0 2.505941 1_555
Ag2 O31 2.728077 1_545
Ag2 O42 2.790396 1_645
Ag2 O16 2.796799 1_555
Ag3 O45 2.421344 1_555
Ag3 O32 2.504225 1_555
Ag3 O1 2.505941 1_555
Ag3 O30 2.728077 1_455
Ag3 O43 2.790396 1_465
Ag3 O17 2.796799 1_555
I0 O2 1.840702 1_545
I0 O4 1.851597 1_555
I0 O0 1.861566 1_555
I1 O3 1.840702 1_456
I1 O5 1.851597 1_556
I1 O1 1.861566 1_556
I2 O6 1.827563 1_555
I2 O8 1.829278 1_555
I2 O10 1.858610 1_555
I3 O7 1.827563 1_555
I3 O9 1.829278 1_555
I3 O11 1.858610 1_555
I4 O12 1.842076 1_655
I4 O14 1.845339 1_555
I4 O16 1.860390 1_555
I4 O38 2.574750 1_655
I5 O13 1.842076 1_565
I5 O15 1.845339 1_555
I5 O17 1.860390 1_555
I5 O39 2.574750 1_565
I6 O18 1.823184 1_555
I6 O20 1.834723 1_555
I6 O22 1.861129 1_565
I6 O26 2.487202 1_555
I7 O19 1.823184 1_555
I7 O21 1.834723 1_555
I7 O23 1.861129 1_655
I7 O27 2.487202 1_555
I8 O24 1.838736 1_555
I8 O26 1.842548 1_555
I8 O28 1.857289 1_655
I8 O6 2.580404 1_555
I9 O25 1.838736 1_555
I9 O27 1.842548 1_555
I9 O29 1.857289 1_565
I9 O7 2.580404 1_555
I10 O30 1.836422 1_455
I10 O32 1.842801 1_555
I10 O34 1.845072 1_555
I11 O31 1.836422 1_545
I11 O33 1.842801 1_555
I11 O35 1.845072 1_555
I12 O36 1.825991 1_565
I12 O38 1.837334 1_565
I12 O40 1.850255 1_565
I13 O37 1.825991 1_655
I13 O39 1.837334 1_655
I13 O41 1.850255 1_655
I14 O42 1.827045 1_555
I14 O44 1.844034 1_465
I14 O46 1.860115 1_555
I14 O12 2.457270 1_565
I15 O43 1.827045 1_555
I15 O45 1.844034 1_645
I15 O47 1.860115 1_555
I15 O13 2.457270 1_655
