# generated using pymatgen
data_Cu2Si2Pb7(S2O13)2
_symmetry_space_group_name_H-M   'P 1'
_cell_length_a   10.82025029
_cell_length_b   10.82025029
_cell_length_c   9.61396085
_cell_angle_alpha   89.39119739
_cell_angle_beta   89.39119739
_cell_angle_gamma   30.78191207
_symmetry_Int_Tables_number   1
_chemical_formula_structural   Cu2Si2Pb7(S2O13)2
_chemical_formula_sum   'Cu2 Si2 Pb7 S4 O26'
_cell_volume   576.00576398
_cell_formula_units_Z   1
loop_
 _symmetry_equiv_pos_site_id
 _symmetry_equiv_pos_as_xyz
  1  'x, y, z'
loop_
 _atom_site_type_symbol
 _atom_site_label
 _atom_site_symmetry_multiplicity
 _atom_site_fract_x
 _atom_site_fract_y
 _atom_site_fract_z
 _atom_site_occupancy
  Cu  Cu0  1  0.00000000  0.50000000  0.00000000  1
  Cu  Cu1  1  0.50000000  0.00000000  0.00000000  1
  Si  Si0  1  0.39463400  0.39463400  0.00827400  1
  Si  Si1  1  0.60536600  0.60536600  0.99172600  1
  Pb  Pb0  1  0.14707100  0.14707100  0.74516400  1
  Pb  Pb1  1  0.85292900  0.85292900  0.25483600  1
  Pb  Pb2  1  0.47467900  0.47467900  0.28813300  1
  Pb  Pb3  1  0.52532100  0.52532100  0.71186700  1
  Pb  Pb4  1  0.34338000  0.34338000  0.66968700  1
  Pb  Pb5  1  0.65662000  0.65662000  0.33031300  1
  Pb  Pb6  1  0.00000000  0.00000000  0.00000000  1
  S  S0  1  0.26755100  0.26755100  0.34462200  1
  S  S1  1  0.73244900  0.73244900  0.65537800  1
  S  S2  1  0.93236700  0.93236700  0.65460200  1
  S  S3  1  0.06763300  0.06763300  0.34539800  1
  O  O0  1  0.31423400  0.31423400  0.97503700  1
  O  O1  1  0.68576600  0.68576600  0.02496300  1
  O  O2  1  0.33668700  0.33668700  0.38706700  1
  O  O3  1  0.66331300  0.66331300  0.61293300  1
  O  O4  1  0.19089300  0.63938200  0.10551800  1
  O  O5  1  0.63938200  0.19089300  0.10551800  1
  O  O6  1  0.80910700  0.36061800  0.89448200  1
  O  O7  1  0.36061800  0.80910700  0.89448200  1
  O  O8  1  0.22424800  0.22424800  0.46525000  1
  O  O9  1  0.77575200  0.77575200  0.53475000  1
  O  O10  1  0.88366700  0.88366700  0.76629800  1
  O  O11  1  0.11633300  0.11633300  0.23370200  1
  O  O12  1  0.43085600  0.43085600  0.85635100  1
  O  O13  1  0.56914400  0.56914400  0.14364900  1
  O  O14  1  0.04374200  0.46945300  0.25527500  1
  O  O15  1  0.46945300  0.04374200  0.25527500  1
  O  O16  1  0.95625800  0.53054700  0.74472500  1
  O  O17  1  0.53054700  0.95625800  0.74472500  1
  O  O18  1  0.14135900  0.71183000  0.56584600  1
  O  O19  1  0.71183000  0.14135900  0.56584600  1
  O  O20  1  0.85864100  0.28817000  0.43415400  1
  O  O21  1  0.28817000  0.85864100  0.43415400  1
  O  O22  1  0.00106200  0.00106200  0.28262000  1
  O  O23  1  0.99893800  0.99893800  0.71738000  1
  O  O24  1  0.80346200  0.80346200  0.02814600  1
  O  O25  1  0.19653800  0.19653800  0.97185400  1
loop_
_geom_bond_atom_site_label_1
_geom_bond_atom_site_label_2
_geom_bond_distance
_geom_bond_site_symmetry_2
Cu0 O25 1.840062 1_554
Cu0 O24 1.840062 1_455
Cu0 O1 1.976961 1_455
Cu0 O0 1.976961 1_554
Cu0 O14 2.468810 1_555
Cu0 O16 2.468810 1_454
Cu1 O25 1.840062 1_554
Cu1 O24 1.840062 1_545
Cu1 O1 1.976961 1_545
Cu1 O0 1.976961 1_554
Cu1 O15 2.468810 1_555
Cu1 O17 2.468810 1_544
O0 Si0 1.711117 1_556
O1 Si1 1.711117 1_554
O2 S0 1.503411 1_555
O2 Pb4 2.722220 1_555
O3 S1 1.503411 1_555
O3 Pb5 2.722220 1_555
O4 Si0 1.650653 1_555
O4 Pb1 2.492541 1_455
O4 Pb2 2.516445 1_555
O4 Pb6 2.575454 1_565
O5 Si0 1.650653 1_555
O5 Pb1 2.492541 1_545
O5 Pb2 2.516445 1_555
O5 Pb6 2.575454 1_655
O6 Si1 1.650653 1_555
O6 Pb0 2.492541 1_655
O6 Pb3 2.516445 1_555
O6 Pb6 2.575454 1_656
O7 Si1 1.650653 1_555
O7 Pb0 2.492541 1_565
O7 Pb3 2.516445 1_555
O7 Pb6 2.575454 1_566
O8 S0 1.462237 1_555
O9 S1 1.462237 1_555
O10 S2 1.470217 1_555
O11 S3 1.470217 1_555
O12 Si0 1.637110 1_556
O12 Pb3 2.398713 1_555
O12 Pb4 2.573680 1_555
O13 Si1 1.637110 1_554
O13 Pb2 2.398713 1_555
O13 Pb5 2.573680 1_555
O14 S0 1.512938 1_555
O14 Pb1 2.599887 1_455
O14 Pb5 2.749260 1_455
O15 S0 1.512938 1_555
O15 Pb1 2.599887 1_545
O15 Pb5 2.749260 1_545
O16 S1 1.512938 1_555
O16 Pb0 2.599887 1_655
O16 Pb4 2.749260 1_655
O17 S1 1.512938 1_555
O17 Pb0 2.599887 1_565
O17 Pb4 2.749260 1_565
O18 S2 1.505455 1_455
O18 Pb4 2.580068 1_555
O19 S2 1.505455 1_545
O19 Pb4 2.580068 1_555
O20 S3 1.505455 1_655
O20 Pb5 2.580068 1_555
O21 S3 1.505455 1_565
O21 Pb5 2.580068 1_555
O22 S3 1.520516 1_555
O22 Pb6 2.717432 1_555
O23 S2 1.520516 1_555
O23 Pb6 2.717432 1_666
O24 Pb1 2.421682 1_555
O25 Pb0 2.421682 1_555
