# generated using pymatgen
data_CeMg6Al
_symmetry_space_group_name_H-M   'P 1'
_cell_length_a   6.80506994
_cell_length_b   6.80506994
_cell_length_c   5.24481100
_cell_angle_alpha   90.00000000
_cell_angle_beta   90.00000000
_cell_angle_gamma   121.91932092
_symmetry_Int_Tables_number   1
_chemical_formula_structural   CeMg6Al
_chemical_formula_sum   'Ce1 Mg6 Al1'
_cell_volume   206.15650576
_cell_formula_units_Z   1
loop_
 _symmetry_equiv_pos_site_id
 _symmetry_equiv_pos_as_xyz
  1  'x, y, z'
loop_
 _atom_site_type_symbol
 _atom_site_label
 _atom_site_symmetry_multiplicity
 _atom_site_fract_x
 _atom_site_fract_y
 _atom_site_fract_z
 _atom_site_occupancy
  Ce  Ce0  1  0.33084100  0.66915900  0.50000000  1
  Mg  Mg0  1  0.32805200  0.16489000  0.50000000  1
  Mg  Mg1  1  0.83511000  0.67194800  0.50000000  1
  Mg  Mg2  1  0.15800900  0.32190400  0.00000000  1
  Mg  Mg3  1  0.67809600  0.84199100  0.00000000  1
  Mg  Mg4  1  0.66990000  0.33010000  0.00000000  1
  Mg  Mg5  1  0.16266600  0.83733400  0.00000000  1
  Al  Al0  1  0.83733000  0.16267000  0.50000000  1
loop_
_geom_bond_atom_site_label_1
_geom_bond_atom_site_label_2
_geom_bond_distance
_geom_bond_site_symmetry_2
Ce0 Mg5 3.298712 1_555
Ce0 Mg5 3.298712 1_556
Ce0 Mg3 3.302353 1_555
Ce0 Mg3 3.302353 1_556
Ce0 Mg2 3.302353 1_556
Ce0 Mg2 3.302353 1_555
Ce0 Mg1 3.383557 1_455
Ce0 Mg0 3.383557 1_565
Ce0 Mg0 3.421589 1_555
Ce0 Mg1 3.421589 1_555
Mg0 Mg5 3.234111 1_545
Mg0 Mg5 3.234111 1_546
Mg0 Mg1 3.256723 1_445
Mg0 Mg2 3.265751 1_556
Mg0 Mg2 3.265751 1_555
Mg0 Mg4 3.284360 1_556
Mg0 Mg4 3.284360 1_555
Mg0 Mg1 3.349983 1_555
Mg1 Mg5 3.234111 1_655
Mg1 Mg5 3.234111 1_656
Mg1 Mg3 3.265751 1_555
Mg1 Mg3 3.265751 1_556
Mg1 Mg4 3.284360 1_556
Mg1 Mg4 3.284360 1_555
Mg2 Mg3 3.170644 1_445
Mg2 Mg5 3.314398 1_545
Mg2 Mg4 3.351440 1_455
Mg2 Mg3 3.436062 1_555
Mg2 Mg4 3.454289 1_555
Mg2 Mg5 3.490885 1_555
Mg3 Mg5 3.314398 1_655
Mg3 Mg4 3.351440 1_565
Mg3 Mg4 3.454289 1_555
Mg3 Mg5 3.490885 1_555
Mg4 Mg5 3.304474 1_655
Mg4 Mg5 3.304474 1_545
Al0 Mg2 3.211364 1_655
Al0 Mg2 3.211364 1_656
Al0 Mg3 3.211364 1_545
Al0 Mg3 3.211364 1_546
Al0 Mg4 3.293342 1_556
Al0 Mg4 3.293342 1_555
Al0 Ce0 3.304255 1_545
Al0 Ce0 3.304255 1_655
Al0 Mg1 3.331435 1_545
Al0 Mg0 3.331435 1_655
