# generated using pymatgen
data_Ba5Sn3
_symmetry_space_group_name_H-M   'P 1'
_cell_length_a   9.08573686
_cell_length_b   9.08573661
_cell_length_c   10.76350306
_cell_angle_alpha   114.96485376
_cell_angle_beta   114.96484650
_cell_angle_gamma   90.00000690
_symmetry_Int_Tables_number   1
_chemical_formula_structural   Ba5Sn3
_chemical_formula_sum   'Ba10 Sn6'
_cell_volume   712.89373019
_cell_formula_units_Z   2
loop_
 _symmetry_equiv_pos_site_id
 _symmetry_equiv_pos_as_xyz
  1  'x, y, z'
loop_
 _atom_site_type_symbol
 _atom_site_label
 _atom_site_symmetry_multiplicity
 _atom_site_fract_x
 _atom_site_fract_y
 _atom_site_fract_z
 _atom_site_occupancy
  Ba  Ba0  1  0.67824601  0.17824601  0.71665889  1
  Ba  Ba1  1  0.96158613  0.46158513  0.28334111  1
  Ba  Ba2  1  0.00000000  -0.00000000  -0.00000000  1
  Ba  Ba3  1  0.50000000  0.50000000  -0.00000000  1
  Ba  Ba4  1  0.03841387  0.53841387  0.71665889  1
  Ba  Ba5  1  0.17824601  0.03841387  0.71665889  1
  Ba  Ba6  1  0.53841387  0.67824601  0.71665889  1
  Ba  Ba7  1  0.82175399  0.96158613  0.28334111  1
  Ba  Ba8  1  0.46158513  0.32175399  0.28334111  1
  Ba  Ba9  1  0.32175399  0.82175399  0.28334111  1
  Sn  Sn0  1  0.75000000  0.75000000  0.50000000  1
  Sn  Sn1  1  0.25000000  0.25000000  0.50000000  1
  Sn  Sn2  1  0.61427840  0.11427840  -0.00000000  1
  Sn  Sn3  1  0.88572160  0.61427840  0.00000000  1
  Sn  Sn4  1  0.11427840  0.38572160  -0.00000000  1
  Sn  Sn5  1  0.38572160  0.88572160  0.00000000  1
loop_
_geom_bond_atom_site_label_1
_geom_bond_atom_site_label_2
_geom_bond_distance
_geom_bond_site_symmetry_2
Ba0 Sn2 3.601236 1_556
Ba0 Sn3 3.673915 1_556
Ba0 Sn4 3.673915 1_656
Ba0 Sn0 3.824481 1_545
Ba0 Sn1 3.824481 1_555
Ba1 Sn2 3.601223 1_555
Ba1 Sn4 3.673924 1_655
Ba1 Sn3 3.673929 1_555
Ba1 Sn1 3.824471 1_655
Ba1 Sn0 3.824482 1_555
Ba2 Sn4 3.655140 1_555
Ba2 Sn3 3.655140 1_445
Ba2 Sn2 3.655140 1_455
Ba2 Sn5 3.655140 1_545
Ba3 Sn3 3.655140 1_555
Ba3 Sn4 3.655140 1_555
Ba3 Sn5 3.655140 1_555
Ba3 Sn2 3.655140 1_555
Ba4 Sn5 3.601227 1_556
Ba4 Sn3 3.673922 1_456
Ba4 Sn4 3.673923 1_556
Ba4 Sn1 3.824478 1_555
Ba4 Sn0 3.824478 1_455
Ba5 Sn4 3.601232 1_556
Ba5 Sn2 3.673916 1_556
Ba5 Sn5 3.673921 1_546
Ba5 Sn1 3.824474 1_555
Ba5 Sn0 3.824485 1_445
Ba6 Sn3 3.601232 1_556
Ba6 Sn2 3.673916 1_566
Ba6 Sn5 3.673921 1_556
Ba6 Sn0 3.824474 1_555
Ba6 Sn1 3.824484 1_555
Ba7 Sn3 3.601232 1_555
Ba7 Sn5 3.673916 1_555
Ba7 Sn2 3.673921 1_565
Ba7 Sn0 3.824474 1_555
Ba7 Sn1 3.824485 1_665
Ba8 Sn4 3.601228 1_555
Ba8 Sn5 3.673917 1_545
Ba8 Sn2 3.673928 1_555
Ba8 Sn1 3.824467 1_555
Ba8 Sn0 3.824488 1_555
Ba9 Sn5 3.601236 1_555
Ba9 Sn4 3.673915 1_555
Ba9 Sn3 3.673915 1_455
Ba9 Sn1 3.824481 1_565
Ba9 Sn0 3.824481 1_555
Sn2 Sn5 2.936765 1_545
Sn3 Sn4 2.936766 1_655
