# generated using pymatgen
data_Li9Mn2Co5O16
_symmetry_space_group_name_H-M   'P 1'
_cell_length_a   5.76647300
_cell_length_b   5.86283594
_cell_length_c   8.95288923
_cell_angle_alpha   89.50994572
_cell_angle_beta   71.31459034
_cell_angle_gamma   89.82311372
_symmetry_Int_Tables_number   1
_chemical_formula_structural   Li9Mn2Co5O16
_chemical_formula_sum   'Li9 Mn2 Co5 O16'
_cell_volume   286.71414566
_cell_formula_units_Z   1
loop_
 _symmetry_equiv_pos_site_id
 _symmetry_equiv_pos_as_xyz
  1  'x, y, z'
loop_
 _atom_site_type_symbol
 _atom_site_label
 _atom_site_symmetry_multiplicity
 _atom_site_fract_x
 _atom_site_fract_y
 _atom_site_fract_z
 _atom_site_occupancy
  Li  Li0  1  0.87546000  0.74647600  0.73953600  1
  Li  Li1  1  0.12405800  0.25625500  0.25447700  1
  Li  Li2  1  0.74816200  0.99236400  0.50253100  1
  Li  Li3  1  0.00182600  0.50369700  0.00118100  1
  Li  Li4  1  0.61659500  0.25631000  0.26524400  1
  Li  Li5  1  0.49688200  0.50277700  0.00350700  1
  Li  Li6  1  0.38612000  0.74531700  0.73966200  1
  Li  Li7  1  0.25068300  0.99553500  0.49454900  1
  Li  Li8  1  0.75139400  0.50286700  0.50051800  1
  Mn  Mn0  1  0.00099000  0.99917200  0.99948100  1
  Mn  Mn1  1  0.87469300  0.25469400  0.74849600  1
  Co  Co0  1  0.24584300  0.50219700  0.50423400  1
  Co  Co1  1  0.50026500  0.99856700  0.99765200  1
  Co  Co2  1  0.12233300  0.74458000  0.25736700  1
  Co  Co3  1  0.38788700  0.25811000  0.73376300  1
  Co  Co4  1  0.62018200  0.74300100  0.25744700  1
  O  O0  1  0.74820300  0.77991700  0.00056800  1
  O  O1  1  0.00253000  0.26528100  0.52479300  1
  O  O2  1  0.63986400  0.02042400  0.74422900  1
  O  O3  1  0.87834600  0.52484200  0.24216000  1
  O  O4  1  0.47824800  0.26152500  0.51418900  1
  O  O5  1  0.37530400  0.50240300  0.24851800  1
  O  O6  1  0.24842800  0.77666300  0.99888700  1
  O  O7  1  0.11021300  0.01743100  0.76741200  1
  O  O8  1  0.02052000  0.73312300  0.49043000  1
  O  O9  1  0.25506300  0.22003100  0.99277700  1
  O  O10  1  0.88200900  0.99890400  0.23177300  1
  O  O11  1  0.10928900  0.48258600  0.76180800  1
  O  O12  1  0.75643700  0.22534900  0.98559300  1
  O  O13  1  0.62981300  0.47971300  0.75895200  1
  O  O14  1  0.48698600  0.73228300  0.49236100  1
  O  O15  1  0.37537300  0.97760600  0.24590400  1
loop_
_geom_bond_atom_site_label_1
_geom_bond_atom_site_label_2
_geom_bond_distance
_geom_bond_site_symmetry_2
Li0 O13 2.081838 1_555
Li0 O2 2.092403 1_565
Li0 O11 2.098958 1_655
Li0 O8 2.118244 1_655
Li0 O7 2.157510 1_665
Li0 O0 2.224090 1_556
Li1 O5 2.036309 1_555
Li1 O10 2.113297 1_445
Li1 O3 2.140731 1_455
Li1 O15 2.165922 1_545
Li1 O9 2.231306 1_554
Li1 O1 2.294799 1_555
Li2 O2 2.058906 1_565
Li2 O8 2.160431 1_655
Li2 O14 2.169330 1_555
Li2 O4 2.192540 1_565
Li2 O1 2.226820 1_665
Li2 O10 2.296317 1_555
Li3 O11 2.035990 1_554
Li3 O3 2.048589 1_455
Li3 O6 2.139740 1_554
Li3 O0 2.179884 1_455
Li3 O9 2.195608 1_554
Li3 O12 2.197634 1_454
Li4 O5 2.038996 1_555
Li4 O10 2.099837 1_545
Li4 O4 2.113424 1_555
Li4 O3 2.146807 1_555
Li4 O15 2.192715 1_545
Li4 O12 2.380104 1_554
Li5 O5 2.077922 1_555
Li5 O13 2.080557 1_554
Li5 O6 2.157639 1_554
Li5 O0 2.174951 1_555
Li5 O12 2.178774 1_554
Li5 O9 2.191911 1_554
Li6 O14 2.103254 1_555
Li6 O13 2.137005 1_555
Li6 O11 2.183447 1_555
Li6 O2 2.190469 1_565
Li6 O7 2.208178 1_565
Li6 O6 2.208181 1_555
Li7 O8 2.043221 1_555
Li7 O14 2.051750 1_555
Li7 O4 2.085661 1_565
Li7 O1 2.089770 1_565
Li7 O15 2.112222 1_555
Li7 O7 2.318889 1_565
Li8 O8 2.039605 1_655
Li8 O14 2.048451 1_555
Li8 O1 2.066084 1_655
Li8 O4 2.094096 1_555
Li8 O3 2.193908 1_555
Li8 O13 2.195256 1_555
Mn0 O6 1.929115 1_555
Mn0 O0 1.944124 1_456
Mn0 O9 1.944438 1_565
Mn0 O12 1.964818 1_465
Mn0 O10 1.970156 1_456
Mn0 O7 1.970552 1_565
Mn1 O1 1.900157 1_655
Mn1 O13 1.910263 1_555
Mn1 O11 1.935609 1_655
Mn1 O2 1.940911 1_555
Mn1 O7 1.984899 1_655
Mn1 O12 2.016798 1_555
Co0 O8 1.904117 1_555
Co0 O14 1.918076 1_555
Co0 O1 1.942668 1_555
Co0 O4 1.964090 1_555
Co0 O5 2.168757 1_555
Co0 O11 2.187141 1_555
Co1 O0 1.923570 1_556
Co1 O9 1.927241 1_565
Co1 O6 1.950061 1_555
Co1 O12 1.966999 1_565
Co1 O15 2.108046 1_556
Co1 O2 2.153507 1_565
Co2 O3 1.947984 1_455
Co2 O8 1.978878 1_555
Co2 O15 1.979922 1_555
Co2 O5 2.016252 1_555
Co2 O10 2.093115 1_455
Co2 O6 2.198769 1_554
Co3 O4 1.865323 1_555
Co3 O13 1.975553 1_555
Co3 O11 2.027349 1_555
Co3 O2 2.033329 1_555
Co3 O7 2.084057 1_555
Co3 O9 2.206366 1_555
Co4 O3 1.931723 1_555
Co4 O15 1.993603 1_555
Co4 O14 1.995033 1_555
Co4 O5 2.019078 1_555
Co4 O10 2.090230 1_555
Co4 O0 2.187596 1_555
