# generated using pymatgen
data_AlPt3
_symmetry_space_group_name_H-M   'P 1'
_cell_length_a   5.52881200
_cell_length_b   5.55982798
_cell_length_c   5.52881200
_cell_angle_alpha   60.18436718
_cell_angle_beta   90.00000000
_cell_angle_gamma   119.81563282
_symmetry_Int_Tables_number   1
_chemical_formula_structural   AlPt3
_chemical_formula_sum   'Al2 Pt6'
_cell_volume   120.84053839
_cell_formula_units_Z   2
loop_
 _symmetry_equiv_pos_site_id
 _symmetry_equiv_pos_as_xyz
  1  'x, y, z'
loop_
 _atom_site_type_symbol
 _atom_site_label
 _atom_site_symmetry_multiplicity
 _atom_site_fract_x
 _atom_site_fract_y
 _atom_site_fract_z
 _atom_site_occupancy
  Al  Al0  1  0.75000000  0.50000000  0.75000000  1
  Al  Al1  1  0.25000000  0.50000000  0.25000000  1
  Pt  Pt0  1  0.25000000  0.50000000  0.75000000  1
  Pt  Pt1  1  0.75000000  0.50000000  0.25000000  1
  Pt  Pt2  1  0.27986400  0.00000000  0.77986400  1
  Pt  Pt3  1  0.72013600  0.00000000  0.22013600  1
  Pt  Pt4  1  0.22013600  0.00000000  0.27986400  1
  Pt  Pt5  1  0.77986400  0.00000000  0.72013600  1
loop_
_geom_bond_atom_site_label_1
_geom_bond_atom_site_label_2
_geom_bond_distance
_geom_bond_site_symmetry_2
Al0 Pt5 2.620987 1_565
Al0 Pt3 2.620987 1_556
Al0 Pt2 2.620987 1_555
Al0 Pt4 2.620987 1_665
Al0 Pt0 2.764406 1_655
Al0 Pt1 2.764406 1_555
Al0 Pt1 2.764406 1_556
Al0 Pt0 2.764406 1_555
Al0 Pt2 2.948783 1_665
Al0 Pt4 2.948783 1_556
Al0 Pt5 2.948783 1_555
Al0 Pt3 2.948783 1_565
Al1 Pt2 2.620987 1_564
Al1 Pt3 2.620987 1_565
Al1 Pt4 2.620987 1_555
Al1 Pt5 2.620987 1_455
Al1 Pt1 2.764406 1_455
Al1 Pt1 2.764406 1_555
Al1 Pt0 2.764406 1_555
Al1 Pt0 2.764406 1_554
Al1 Pt4 2.948783 1_565
Al1 Pt2 2.948783 1_555
Al1 Pt3 2.948783 1_455
Al1 Pt5 2.948783 1_564
Pt0 Pt4 2.789704 1_556
Pt0 Pt2 2.789704 1_565
Pt0 Pt5 2.789704 1_565
Pt0 Pt3 2.789704 1_565
Pt0 Pt4 2.789704 1_565
Pt0 Pt2 2.789704 1_555
Pt0 Pt5 2.789704 1_455
Pt0 Pt3 2.789704 1_456
Pt1 Pt2 2.789704 1_664
Pt1 Pt5 2.789704 1_555
Pt1 Pt5 2.789704 1_564
Pt1 Pt3 2.789704 1_555
Pt1 Pt3 2.789704 1_565
Pt1 Pt4 2.789704 1_555
Pt1 Pt2 2.789704 1_555
Pt1 Pt4 2.789704 1_665
Pt2 Pt4 2.784060 1_556
Pt2 Pt4 2.784060 1_555
Pt2 Pt5 2.784060 1_555
Pt2 Pt5 2.784060 1_455
Pt3 Pt4 2.784060 1_555
Pt3 Pt5 2.784060 1_555
Pt3 Pt5 2.784060 1_554
Pt3 Pt4 2.784060 1_655
