# generated using pymatgen
data_Sm3(SiRu)2
_symmetry_space_group_name_H-M   'P 1'
_cell_length_a   5.66517727
_cell_length_b   7.72184382
_cell_length_c   13.46402399
_cell_angle_alpha   90.00000000
_cell_angle_beta   90.00000000
_cell_angle_gamma   90.00000000
_symmetry_Int_Tables_number   1
_chemical_formula_structural   Sm3(SiRu)2
_chemical_formula_sum   'Sm12 Si8 Ru8'
_cell_volume   588.99199759
_cell_formula_units_Z   4
loop_
 _symmetry_equiv_pos_site_id
 _symmetry_equiv_pos_as_xyz
  1  'x, y, z'
loop_
 _atom_site_type_symbol
 _atom_site_label
 _atom_site_symmetry_multiplicity
 _atom_site_fract_x
 _atom_site_fract_y
 _atom_site_fract_z
 _atom_site_occupancy
  Sm  Sm0  1  0.62814946  0.25679677  0.25000000  1
  Sm  Sm1  1  0.37185054  0.74320323  0.75000000  1
  Sm  Sm2  1  0.37185054  0.75679677  0.25000000  1
  Sm  Sm3  1  0.62814946  0.24320323  0.75000000  1
  Sm  Sm4  1  0.14561990  0.40112330  0.10036516  1
  Sm  Sm5  1  0.85438010  0.59887670  0.89963484  1
  Sm  Sm6  1  0.85438010  0.59887670  0.60036516  1
  Sm  Sm7  1  0.85438010  0.90112330  0.39963484  1
  Sm  Sm8  1  0.14561990  0.40112330  0.39963484  1
  Sm  Sm9  1  0.14561990  0.09887670  0.60036516  1
  Sm  Sm10  1  0.14561990  0.09887670  0.89963484  1
  Sm  Sm11  1  0.85438010  0.90112330  0.10036516  1
  Si  Si0  1  0.14500076  0.10601994  0.25000000  1
  Si  Si1  1  0.85499924  0.89398006  0.75000000  1
  Si  Si2  1  0.85499924  0.60601994  0.25000000  1
  Si  Si3  1  0.14500076  0.39398006  0.75000000  1
  Si  Si4  1  0.59854477  0.25000000  0.00000000  1
  Si  Si5  1  0.40145523  0.75000000  0.00000000  1
  Si  Si6  1  0.40145523  0.75000000  0.50000000  1
  Si  Si7  1  0.59854477  0.25000000  0.50000000  1
  Ru  Ru0  1  0.35243888  0.02694517  0.08951212  1
  Ru  Ru1  1  0.64756112  0.97305483  0.91048788  1
  Ru  Ru2  1  0.64756112  0.97305483  0.58951212  1
  Ru  Ru3  1  0.64756112  0.52694517  0.41048788  1
  Ru  Ru4  1  0.35243888  0.02694517  0.41048788  1
  Ru  Ru5  1  0.35243888  0.47305483  0.58951212  1
  Ru  Ru6  1  0.35243888  0.47305483  0.91048788  1
  Ru  Ru7  1  0.64756112  0.52694517  0.08951212  1
loop_
_geom_bond_atom_site_label_1
_geom_bond_atom_site_label_2
_geom_bond_distance
_geom_bond_site_symmetry_2
Si0 Sm0 2.974454 1_555
Si0 Sm2 2.987223 1_545
Si0 Sm4 3.041651 1_555
Si0 Sm8 3.041651 1_555
Si0 Sm7 3.045152 1_445
Si0 Sm11 3.045152 1_445
Si0 Sm0 3.151038 1_455
Si1 Sm1 2.974454 1_555
Si1 Sm3 2.987223 1_565
Si1 Sm6 3.041651 1_555
Si1 Sm5 3.041651 1_555
Si1 Sm9 3.045152 1_665
Si1 Sm10 3.045152 1_665
Si1 Sm1 3.151038 1_655
Si2 Sm2 2.974454 1_555
Si2 Sm0 2.987223 1_555
Si2 Sm7 3.041651 1_555
Si2 Sm11 3.041651 1_555
Si2 Sm4 3.045152 1_655
Si2 Sm8 3.045152 1_655
Si2 Sm2 3.151038 1_655
Si3 Sm3 2.974454 1_555
Si3 Sm1 2.987223 1_555
Si3 Sm9 3.041651 1_555
Si3 Sm10 3.041651 1_555
Si3 Sm6 3.045152 1_455
Si3 Sm5 3.045152 1_455
Si3 Sm3 3.151038 1_455
Si4 Sm4 3.125968 1_555
Si4 Sm10 3.125968 1_554
Si4 Sm5 3.344274 1_554
Si4 Sm11 3.344274 1_545
Si4 Sm3 3.370590 1_554
Si4 Sm0 3.370590 1_555
Si4 Sm4 3.576780 1_655
Si4 Sm10 3.576780 1_654
Si5 Sm11 3.125968 1_555
Si5 Sm5 3.125968 1_554
Si5 Sm10 3.344274 1_564
Si5 Sm4 3.344274 1_555
Si5 Sm1 3.370590 1_554
Si5 Sm2 3.370590 1_555
Si5 Sm11 3.576780 1_455
Si5 Sm5 3.576780 1_454
Si6 Sm7 3.125968 1_555
Si6 Sm6 3.125968 1_555
Si6 Sm9 3.344274 1_565
Si6 Sm8 3.344274 1_555
Si6 Sm2 3.370590 1_555
Si6 Sm1 3.370590 1_555
Si6 Sm7 3.576780 1_455
Si6 Sm6 3.576780 1_455
Si7 Sm8 3.125968 1_555
Si7 Sm9 3.125968 1_555
Si7 Sm6 3.344274 1_555
Si7 Sm7 3.344274 1_545
Si7 Sm3 3.370590 1_555
Si7 Sm0 3.370590 1_555
Si7 Sm8 3.576780 1_655
Si7 Sm9 3.576780 1_655
Ru0 Si5 2.470405 1_545
Ru0 Si4 2.522503 1_555
Ru0 Si0 2.534360 1_555
Ru0 Sm10 2.866544 1_554
Ru0 Sm11 2.987757 1_445
Ru0 Sm2 3.005459 1_545
Ru0 Sm11 3.008537 1_545
Ru0 Sm4 3.121293 1_555
Ru0 Sm0 3.202966 1_555
Ru1 Si4 2.470405 1_566
Ru1 Si5 2.522503 1_556
Ru1 Si1 2.534360 1_555
Ru1 Sm11 2.866544 1_556
Ru1 Sm10 2.987757 1_665
Ru1 Sm3 3.005459 1_565
Ru1 Sm10 3.008537 1_565
Ru1 Sm5 3.121293 1_555
Ru1 Sm1 3.202966 1_555
Ru2 Si7 2.470405 1_565
Ru2 Si6 2.522503 1_555
Ru2 Si1 2.534360 1_555
Ru2 Sm7 2.866544 1_555
Ru2 Sm9 2.987757 1_665
Ru2 Sm3 3.005459 1_565
Ru2 Sm9 3.008537 1_565
Ru2 Sm6 3.121293 1_555
Ru2 Sm1 3.202966 1_555
Ru3 Si7 2.470405 1_555
Ru3 Si6 2.522503 1_555
Ru3 Si2 2.534360 1_555
Ru3 Sm6 2.866544 1_555
Ru3 Sm8 2.987757 1_655
Ru3 Sm0 3.005459 1_555
Ru3 Sm8 3.008537 1_555
Ru3 Sm7 3.121293 1_555
Ru3 Sm2 3.202966 1_555
Ru4 Si6 2.470405 1_545
Ru4 Si7 2.522503 1_555
Ru4 Si0 2.534360 1_555
Ru4 Sm9 2.866544 1_555
Ru4 Sm7 2.987757 1_445
Ru4 Sm2 3.005459 1_545
Ru4 Sm7 3.008537 1_545
Ru4 Sm8 3.121293 1_555
Ru4 Sm0 3.202966 1_555
Ru5 Si6 2.470405 1_555
Ru5 Si7 2.522503 1_555
Ru5 Si3 2.534360 1_555
Ru5 Sm8 2.866544 1_555
Ru5 Sm6 2.987757 1_455
Ru5 Sm1 3.005459 1_555
Ru5 Sm6 3.008537 1_555
Ru5 Sm9 3.121293 1_555
Ru5 Sm3 3.202966 1_555
Ru6 Si5 2.470405 1_556
Ru6 Si4 2.522503 1_556
Ru6 Si3 2.534360 1_555
Ru6 Sm4 2.866544 1_556
Ru6 Sm5 2.987757 1_455
Ru6 Sm1 3.005459 1_555
Ru6 Sm5 3.008537 1_555
Ru6 Sm10 3.121293 1_555
Ru6 Sm3 3.202966 1_555
Ru7 Si4 2.470405 1_555
Ru7 Si5 2.522503 1_555
Ru7 Si2 2.534360 1_555
Ru7 Sm5 2.866544 1_554
Ru7 Sm4 2.987757 1_655
Ru7 Sm0 3.005459 1_555
Ru7 Sm4 3.008537 1_555
Ru7 Sm11 3.121293 1_555
Ru7 Sm2 3.202966 1_555
