# generated using pymatgen
data_NaLa2TaTi2O10
_symmetry_space_group_name_H-M   'P 1'
_cell_length_a   3.88165300
_cell_length_b   3.88586604
_cell_length_c   15.18859613
_cell_angle_alpha   96.93167987
_cell_angle_beta   96.92743191
_cell_angle_gamma   89.99168401
_symmetry_Int_Tables_number   1
_chemical_formula_structural   NaLa2TaTi2O10
_chemical_formula_sum   'Na1 La2 Ta1 Ti2 O10'
_cell_volume   225.73952172
_cell_formula_units_Z   1
loop_
 _symmetry_equiv_pos_site_id
 _symmetry_equiv_pos_as_xyz
  1  'x, y, z'
loop_
 _atom_site_type_symbol
 _atom_site_label
 _atom_site_symmetry_multiplicity
 _atom_site_fract_x
 _atom_site_fract_y
 _atom_site_fract_z
 _atom_site_occupancy
  Na  Na0  1  0.75010400  0.25481900  0.50454800  1
  La  La0  1  0.56909500  0.56942100  0.13503200  1
  La  La1  1  0.41185800  0.41103000  0.83725200  1
  Ta  Ta0  1  0.14909200  0.14872500  0.29301100  1
  Ti  Ti0  1  0.01319600  0.01289500  0.99867600  1
  Ti  Ti1  1  0.85108100  0.85030000  0.70021400  1
  O  O0  1  0.79495100  0.79476700  0.58712600  1
  O  O1  1  0.20617600  0.20482300  0.41290000  1
  O  O2  1  0.86925700  0.37059300  0.73766100  1
  O  O3  1  0.37185000  0.86945800  0.73916800  1
  O  O4  1  0.13537500  0.63506600  0.26134500  1
  O  O5  1  0.63589700  0.13593000  0.26259100  1
  O  O6  1  0.95198000  0.95260900  0.87415700  1
  O  O7  1  0.08396400  0.08326600  0.13627100  1
  O  O8  1  0.04787500  0.52906700  0.00981500  1
  O  O9  1  0.52924800  0.04823100  0.01023300  1
loop_
_geom_bond_atom_site_label_1
_geom_bond_atom_site_label_2
_geom_bond_distance
_geom_bond_site_symmetry_2
Na0 O0 2.299511 1_545
Na0 O0 2.306073 1_555
Na0 O1 2.374552 1_655
Na0 O1 2.378878 1_555
La0 O9 2.592570 1_555
La0 O8 2.595174 1_555
La0 O7 2.670851 1_555
La0 O4 2.690912 1_555
La0 O5 2.706445 1_555
La0 O4 2.728040 1_655
La0 O5 2.741624 1_565
La0 O7 2.744410 1_565
La0 O7 2.749866 1_655
La0 O9 2.803424 1_565
La0 O8 2.806442 1_655
La0 O7 2.822142 1_665
La1 O3 2.420716 1_545
La1 O2 2.433727 1_455
La1 O3 2.449800 1_555
La1 O2 2.460784 1_555
La1 O6 2.675312 1_445
La1 O6 2.799908 1_545
La1 O6 2.808063 1_455
La1 O6 2.927761 1_555
La1 O8 3.111116 1_556
La1 O9 3.114980 1_556
La1 O8 3.365145 1_656
La1 O9 3.373840 1_566
O0 Ti1 1.692520 1_555
O1 Ta0 1.794250 1_555
O2 Ti1 2.012324 1_555
O2 Ti1 2.031971 1_545
O3 Ti1 2.017621 1_555
O3 Ti1 2.035374 1_455
O4 Ta0 1.995082 1_565
O4 Ta0 2.004720 1_555
O5 Ta0 1.989134 1_655
O5 Ta0 1.997899 1_555
O6 Ti0 1.863574 1_665
O7 Ti0 2.059469 1_554
O7 Ta0 2.346238 1_555
O8 Ti0 1.911202 1_564
O8 Ti0 1.995634 1_554
O9 Ti0 1.911059 1_654
O9 Ti0 1.992902 1_554
