# generated using pymatgen
data_Ce(Sb3Ru)4
_symmetry_space_group_name_H-M   'P 1'
_cell_length_a   8.12097655
_cell_length_b   8.12097655
_cell_length_c   8.12097655
_cell_angle_alpha   109.47122063
_cell_angle_beta   109.47122063
_cell_angle_gamma   109.47122063
_symmetry_Int_Tables_number   1
_chemical_formula_structural   Ce(Sb3Ru)4
_chemical_formula_sum   'Ce1 Sb12 Ru4'
_cell_volume   412.29007414
_cell_formula_units_Z   1
loop_
 _symmetry_equiv_pos_site_id
 _symmetry_equiv_pos_as_xyz
  1  'x, y, z'
loop_
 _atom_site_type_symbol
 _atom_site_label
 _atom_site_symmetry_multiplicity
 _atom_site_fract_x
 _atom_site_fract_y
 _atom_site_fract_z
 _atom_site_occupancy
  Ce  Ce0  1  0.00000000  0.00000000  0.00000000  1
  Sb  Sb0  1  0.33829500  0.18027500  0.84197900  1
  Sb  Sb1  1  0.66170400  0.81972500  0.15802100  1
  Sb  Sb2  1  0.66170400  0.50368400  0.84197900  1
  Sb  Sb3  1  0.33829600  0.49631600  0.15802100  1
  Sb  Sb4  1  0.18027500  0.84197900  0.33829600  1
  Sb  Sb5  1  0.81972500  0.15802100  0.66170500  1
  Sb  Sb6  1  0.50368400  0.84197900  0.66170500  1
  Sb  Sb7  1  0.49631600  0.15802100  0.33829600  1
  Sb  Sb8  1  0.84197900  0.33829500  0.18027500  1
  Sb  Sb9  1  0.15802100  0.66170400  0.81972500  1
  Sb  Sb10  1  0.84197900  0.66170400  0.50368400  1
  Sb  Sb11  1  0.15802100  0.33829600  0.49631600  1
  Ru  Ru0  1  0.00000000  0.00000000  0.50000000  1
  Ru  Ru1  1  0.50000000  0.00000000  0.00000000  1
  Ru  Ru2  1  0.00000000  0.50000000  0.00000000  1
  Ru  Ru3  1  0.50000000  0.50000000  0.50000000  1
loop_
_geom_bond_atom_site_label_1
_geom_bond_atom_site_label_2
_geom_bond_distance
_geom_bond_site_symmetry_2
Ce0 Sb6 3.501314 1_444
Ce0 Sb10 3.501316 1_444
Ce0 Sb2 3.501316 1_444
Ce0 Sb3 3.501316 1_555
Ce0 Sb11 3.501316 1_555
Ce0 Sb7 3.501316 1_555
Ce0 Sb5 3.501316 1_454
Ce0 Sb0 3.501316 1_554
Ce0 Sb8 3.501316 1_455
Ce0 Sb1 3.501322 1_445
Ce0 Sb9 3.501322 1_544
Ce0 Sb4 3.501322 1_545
Sb0 Sb3 2.963610 1_556
Sb0 Sb2 3.032702 1_555
Sb1 Sb2 2.963615 1_554
Sb1 Sb3 3.032697 1_555
Sb4 Sb7 2.963615 1_565
Sb4 Sb6 3.032702 1_555
Sb5 Sb6 2.963615 1_545
Sb5 Sb7 3.032702 1_555
Sb10 Sb9 2.963615 1_655
Sb10 Sb8 3.032702 1_555
Sb11 Sb8 2.963610 1_455
Sb11 Sb9 3.032697 1_555
Ru0 Sb0 2.631599 1_555
Ru0 Sb1 2.631603 1_445
Ru0 Sb4 2.631603 1_545
Ru0 Sb11 2.631607 1_555
Ru0 Sb10 2.631607 1_445
Ru0 Sb5 2.631607 1_455
Ru1 Sb8 2.631599 1_555
Ru1 Sb6 2.631600 1_544
Ru1 Sb9 2.631603 1_544
Ru1 Sb1 2.631603 1_545
Ru1 Sb7 2.631607 1_555
Ru1 Sb0 2.631607 1_554
Ru2 Sb5 2.631599 1_454
Ru2 Sb4 2.631603 1_555
Ru2 Sb9 2.631603 1_554
Ru2 Sb3 2.631607 1_555
Ru2 Sb2 2.631607 1_454
Ru2 Sb8 2.631607 1_455
Ru3 Sb10 2.631599 1_555
Ru3 Sb2 2.631599 1_555
Ru3 Sb7 2.631599 1_555
Ru3 Sb11 2.631599 1_555
Ru3 Sb3 2.631599 1_555
Ru3 Sb6 2.631600 1_555
