# generated using pymatgen
data_Y(WO2)2
_symmetry_space_group_name_H-M   'P 1'
_cell_length_a   6.57333663
_cell_length_b   6.57333663
_cell_length_c   6.05747805
_cell_angle_alpha   63.60422893
_cell_angle_beta   63.60422893
_cell_angle_gamma   99.64410364
_symmetry_Int_Tables_number   1
_chemical_formula_structural   Y(WO2)2
_chemical_formula_sum   'Y2 W4 O8'
_cell_volume   186.99578184
_cell_formula_units_Z   2
loop_
 _symmetry_equiv_pos_site_id
 _symmetry_equiv_pos_as_xyz
  1  'x, y, z'
loop_
 _atom_site_type_symbol
 _atom_site_label
 _atom_site_symmetry_multiplicity
 _atom_site_fract_x
 _atom_site_fract_y
 _atom_site_fract_z
 _atom_site_occupancy
  Y  Y0  1  0.62438400  0.37561600  0.25000000  1
  Y  Y1  1  0.37561600  0.62438400  0.75000000  1
  W  W0  1  0.00000000  0.50000000  0.50000000  1
  W  W1  1  0.50000000  0.00000000  0.00000000  1
  W  W2  1  0.00000000  0.00000000  0.50000000  1
  W  W3  1  0.00000000  0.00000000  0.00000000  1
  O  O0  1  0.36389500  0.00590900  0.75057700  1
  O  O1  1  0.99409100  0.63610500  0.74942300  1
  O  O2  1  0.63610500  0.99409100  0.24942300  1
  O  O3  1  0.00590900  0.36389500  0.25057700  1
  O  O4  1  0.24863300  0.39047900  0.58835000  1
  O  O5  1  0.60952100  0.75136700  0.91165000  1
  O  O6  1  0.39047900  0.24863300  0.08835000  1
  O  O7  1  0.75136700  0.60952100  0.41165000  1
loop_
_geom_bond_atom_site_label_1
_geom_bond_atom_site_label_2
_geom_bond_distance
_geom_bond_site_symmetry_2
O0 W1 2.060584 1_556
O0 W3 2.170084 1_556
O0 Y0 2.338711 1_555
O0 Y1 2.523443 1_545
O1 W0 2.060584 1_655
O1 W2 2.170084 1_665
O1 Y0 2.338711 1_556
O1 Y1 2.523443 1_655
O2 W1 2.060584 1_565
O2 W3 2.170084 1_665
O2 Y1 2.338711 1_555
O2 Y0 2.523443 1_565
O3 W0 2.060584 1_555
O3 W2 2.170084 1_555
O3 Y1 2.338711 1_554
O3 Y0 2.523443 1_455
O4 W0 2.074885 1_555
O4 W3 2.181115 1_556
O4 Y1 2.378006 1_555
O4 Y0 2.463460 1_555
O5 W1 2.074885 1_566
O5 W2 2.181115 1_665
O5 Y1 2.378006 1_555
O5 Y0 2.463460 1_556
O6 W1 2.074885 1_555
O6 W2 2.181115 1_555
O6 Y0 2.378006 1_555
O6 Y1 2.463460 1_554
O7 W0 2.074885 1_655
O7 W3 2.181115 1_665
O7 Y0 2.378006 1_555
O7 Y1 2.463460 1_555
