# generated using pymatgen
data_K2Na6V5Mo3O20
_symmetry_space_group_name_H-M   'P 1'
_cell_length_a   11.27070864
_cell_length_b   11.59464047
_cell_length_c   16.75489844
_cell_angle_alpha   110.41072927
_cell_angle_beta   109.04696421
_cell_angle_gamma   89.97550385
_symmetry_Int_Tables_number   1
_chemical_formula_structural   K2Na6V5Mo3O20
_chemical_formula_sum   'K8 Na24 V20 Mo12 O80'
_cell_volume   1923.76144988
_cell_formula_units_Z   4
loop_
 _symmetry_equiv_pos_site_id
 _symmetry_equiv_pos_as_xyz
  1  'x, y, z'
loop_
 _atom_site_type_symbol
 _atom_site_label
 _atom_site_symmetry_multiplicity
 _atom_site_fract_x
 _atom_site_fract_y
 _atom_site_fract_z
 _atom_site_occupancy
  K  K0  1  0.30690100  0.07003300  0.11702600  1
  K  K1  1  0.30773600  0.57020000  0.11707200  1
  K  K2  1  0.80637000  0.07076600  0.11719900  1
  K  K3  1  0.80565900  0.57010900  0.11669300  1
  K  K4  1  0.18566300  0.92626900  0.87819800  1
  K  K5  1  0.05532300  0.79659800  0.11705700  1
  K  K6  1  0.55775800  0.29699800  0.11618300  1
  K  K7  1  0.55762800  0.79663700  0.11692100  1
  Na  Na0  1  0.29860100  0.07376900  0.60729500  1
  Na  Na1  1  0.29854300  0.56576800  0.60807000  1
  Na  Na2  1  0.80761700  0.06529400  0.60684000  1
  Na  Na3  1  0.81258400  0.57329200  0.60694600  1
  Na  Na4  1  0.19403900  0.42881100  0.39534700  1
  Na  Na5  1  0.19554200  0.42846400  0.88790200  1
  Na  Na6  1  0.19410800  0.93738100  0.39628400  1
  Na  Na7  1  0.70969400  0.43793000  0.39848900  1
  Na  Na8  1  0.69493500  0.42833400  0.88796100  1
  Na  Na9  1  0.70442800  0.93052400  0.39830400  1
  Na  Na10  1  0.69663500  0.92939300  0.88826000  1
  Na  Na11  1  0.05484900  0.29143700  0.10751600  1
  Na  Na12  1  0.06011900  0.28773600  0.60512200  1
  Na  Na13  1  0.04876000  0.78642500  0.60493500  1
  Na  Na14  1  0.55022300  0.28641800  0.60780000  1
  Na  Na15  1  0.55959900  0.78881600  0.60738300  1
  Na  Na16  1  0.44423400  0.21018200  0.39753300  1
  Na  Na17  1  0.44576200  0.20899000  0.88832600  1
  Na  Na18  1  0.45533000  0.71330100  0.39762200  1
  Na  Na19  1  0.44418300  0.70893800  0.88822200  1
  Na  Na20  1  0.95701800  0.21683100  0.39876500  1
  Na  Na21  1  0.94650400  0.20883100  0.88883400  1
  Na  Na22  1  0.94323500  0.71509600  0.39720300  1
  Na  Na23  1  0.94581800  0.70906500  0.88840800  1
  V  V0  1  0.00864000  0.99803100  0.50021800  1
  V  V1  1  0.00635200  0.49921600  0.50115300  1
  V  V2  1  0.25238100  0.25112400  0.50148700  1
  V  V3  1  0.76133300  0.75091200  0.50105300  1
  V  V4  1  0.11215700  0.09554700  0.25791300  1
  V  V5  1  0.09963500  0.08702800  0.74314100  1
  V  V6  1  0.10855900  0.58671800  0.25536500  1
  V  V7  1  0.10116100  0.57951200  0.74527800  1
  V  V8  1  0.61181900  0.09104700  0.25810600  1
  V  V9  1  0.60388500  0.08710100  0.74796600  1
  V  V10  1  0.61155000  0.59013000  0.25820000  1
  V  V11  1  0.60055300  0.58406300  0.74708500  1
  V  V12  1  0.35630000  0.41528000  0.25619100  1
  V  V13  1  0.35071600  0.41096600  0.74615900  1
  V  V14  1  0.36049900  0.91706300  0.25729700  1
  V  V15  1  0.35347000  0.91324200  0.74361500  1
  V  V16  1  0.86375600  0.41629200  0.25779800  1
  V  V17  1  0.85102100  0.41176000  0.74713000  1
  V  V18  1  0.86298800  0.91741200  0.25814500  1
  V  V19  1  0.84949800  0.91223000  0.74671100  1
  Mo  Mo0  1  0.00028200  0.99890300  0.99679200  1
  Mo  Mo1  1  0.00042600  0.49623700  0.99465800  1
  Mo  Mo2  1  0.49985400  0.99645500  0.99349300  1
  Mo  Mo3  1  0.50781300  0.00054400  0.50074000  1
  Mo  Mo4  1  0.50029900  0.49610600  0.99334900  1
  Mo  Mo5  1  0.50562100  0.50024600  0.50024700  1
  Mo  Mo6  1  0.25059300  0.24860700  0.99509400  1
  Mo  Mo7  1  0.25039600  0.74660700  0.99493500  1
  Mo  Mo8  1  0.25380900  0.75110500  0.49995900  1
  Mo  Mo9  1  0.75228600  0.24806200  0.99537800  1
  Mo  Mo10  1  0.76139400  0.25190800  0.50106000  1
  Mo  Mo11  1  0.75001200  0.74710800  0.99360700  1
  O  O0  1  0.11332800  0.11071000  0.48911400  1
  O  O1  1  0.11801300  0.12252800  0.98694500  1
  O  O2  1  0.13440500  0.62672100  0.48989500  1
  O  O3  1  0.11866900  0.61345300  0.98008500  1
  O  O4  1  0.62344000  0.11768600  0.48552300  1
  O  O5  1  0.61828800  0.11331500  0.97772000  1
  O  O6  1  0.62306800  0.60816300  0.48990200  1
  O  O7  1  0.61768800  0.61426100  0.97793900  1
  O  O8  1  0.13075600  0.37765400  0.00798100  1
  O  O9  1  0.13875700  0.38012900  0.51173900  1
  O  O10  1  0.12930100  0.87650600  0.00753200  1
  O  O11  1  0.14104700  0.88278900  0.51627200  1
  O  O12  1  0.63035900  0.37616100  0.00311700  1
  O  O13  1  0.64234900  0.37454400  0.51358100  1
  O  O14  1  0.62872200  0.87555800  0.00205600  1
  O  O15  1  0.63827800  0.87871200  0.51252900  1
  O  O16  1  0.37189300  0.11673900  0.49014900  1
  O  O17  1  0.37064400  0.11749100  0.98180900  1
  O  O18  1  0.37577300  0.61553900  0.48283300  1
  O  O19  1  0.36877600  0.61390000  0.97995800  1
  O  O20  1  0.86712300  0.12568100  0.48724400  1
  O  O21  1  0.87001900  0.11700200  0.98132600  1
  O  O22  1  0.87901600  0.62305300  0.49032900  1
  O  O23  1  0.86721000  0.61303200  0.97806800  1
  O  O24  1  0.37931200  0.37722900  0.00296500  1
  O  O25  1  0.39566600  0.38960800  0.51345900  1
  O  O26  1  0.38140600  0.87659200  0.00535700  1
  O  O27  1  0.38416600  0.87394300  0.51228900  1
  O  O28  1  0.88519100  0.37752100  0.00876800  1
  O  O29  1  0.88806000  0.38450800  0.51623700  1
  O  O30  1  0.87964500  0.87849300  0.00514400  1
  O  O31  1  0.89537200  0.89445100  0.51135200  1
  O  O32  1  0.07438700  0.09882100  0.14564100  1
  O  O33  1  0.07490800  0.10621400  0.63941500  1
  O  O34  1  0.07424800  0.58826200  0.14453700  1
  O  O35  1  0.08423000  0.60258400  0.64379200  1
  O  O36  1  0.57558300  0.08543100  0.14472100  1
  O  O37  1  0.58449200  0.10462700  0.64372900  1
  O  O38  1  0.57384200  0.58516100  0.14415600  1
  O  O39  1  0.57899900  0.60061700  0.64100500  1
  O  O40  1  0.44171600  0.39216500  0.35951700  1
  O  O41  1  0.43606700  0.39349700  0.85044200  1
  O  O42  1  0.44196700  0.88914800  0.35719800  1
  O  O43  1  0.43078500  0.89664100  0.84912800  1
  O  O44  1  0.94553600  0.39247800  0.35823500  1
  O  O45  1  0.93500800  0.39380200  0.85110700  1
  O  O46  1  0.94682700  0.89363600  0.35943600  1
  O  O47  1  0.93090700  0.89599600  0.85244700  1
  O  O48  1  0.32720100  0.30793800  0.14424000  1
  O  O49  1  0.32931100  0.29156000  0.64029500  1
  O  O50  1  0.32481800  0.80782900  0.14414400  1
  O  O51  1  0.33627800  0.78787200  0.63956100  1
  O  O52  1  0.82907500  0.30783100  0.14363200  1
  O  O53  1  0.83026900  0.28963200  0.64122000  1
  O  O54  1  0.82369800  0.80862000  0.14383200  1
  O  O55  1  0.82929800  0.79274000  0.64114800  1
  O  O56  1  0.19782900  0.21572100  0.36156300  1
  O  O57  1  0.18361700  0.20375300  0.85130700  1
  O  O58  1  0.19425500  0.71281300  0.35909700  1
  O  O59  1  0.18695400  0.69555600  0.85215000  1
  O  O60  1  0.69676600  0.21854600  0.36042000  1
  O  O61  1  0.68921300  0.20778200  0.85220800  1
  O  O62  1  0.69613000  0.71419600  0.36016100  1
  O  O63  1  0.68605500  0.70602800  0.85039400  1
  O  O64  1  0.45523200  0.05803200  0.26738300  1
  O  O65  1  0.43763800  0.05476900  0.74621000  1
  O  O66  1  0.45302300  0.55481300  0.26721300  1
  O  O67  1  0.43601400  0.55292300  0.74726200  1
  O  O68  1  0.95570800  0.05816100  0.26691500  1
  O  O69  1  0.93737300  0.05122600  0.74732900  1
  O  O70  1  0.95342500  0.56050300  0.26756400  1
  O  O71  1  0.93463700  0.55111900  0.74667400  1
  O  O72  1  0.19200500  0.44644100  0.25665700  1
  O  O73  1  0.18501600  0.43878100  0.74593200  1
  O  O74  1  0.20346600  0.96176300  0.26518200  1
  O  O75  1  0.18732000  0.94687800  0.73345900  1
  O  O76  1  0.70523300  0.45885300  0.26606600  1
  O  O77  1  0.68527100  0.44396100  0.74688500  1
  O  O78  1  0.70578500  0.96086200  0.26794900  1
  O  O79  1  0.68438700  0.94454600  0.74718700  1
loop_
_geom_bond_atom_site_label_1
_geom_bond_atom_site_label_2
_geom_bond_distance
_geom_bond_site_symmetry_2
K0 O64 2.579952 1_555
K0 O48 2.631411 1_555
K0 O10 2.672657 1_545
K0 O26 2.707978 1_545
K0 O1 2.747478 1_554
K0 O17 2.807815 1_554
K0 O32 2.813626 1_555
K0 O36 2.905675 1_555
K1 O66 2.581787 1_555
K1 O50 2.627895 1_555
K1 O8 2.661150 1_555
K1 O24 2.708048 1_555
K1 O3 2.769477 1_554
K1 O19 2.802055 1_554
K1 O34 2.811318 1_555
K1 O38 2.878969 1_555
K2 O68 2.578094 1_555
K2 O52 2.625725 1_555
K2 O30 2.695912 1_545
K2 O14 2.700127 1_545
K2 O36 2.781231 1_555
K2 O5 2.787163 1_554
K2 O21 2.811072 1_554
K2 O32 2.900164 1_655
K3 O70 2.573798 1_555
K3 O54 2.637966 1_555
K3 O12 2.673354 1_555
K3 O28 2.701747 1_555
K3 O7 2.787412 1_554
K3 O38 2.792290 1_555
K3 O23 2.825214 1_554
K3 O34 2.904498 1_655
K3 O52 3.224921 1_555
K4 O75 2.524331 1_555
K4 O59 2.556619 1_555
K4 O1 2.663206 1_565
K4 O10 2.683857 1_556
K4 O17 2.689451 1_565
K4 O26 2.743196 1_556
K4 O47 2.764105 1_455
K4 O43 2.957785 1_555
K5 O74 2.568593 1_555
K5 O34 2.608396 1_555
K5 O10 2.665769 1_555
K5 O30 2.674901 1_455
K5 O54 2.785006 1_455
K5 O23 2.787902 1_454
K5 O3 2.820423 1_554
K5 O50 2.916868 1_555
K6 O76 2.565578 1_555
K6 O36 2.653564 1_555
K6 O24 2.692192 1_555
K6 O12 2.706663 1_555
K6 O17 2.735808 1_554
K6 O48 2.782968 1_555
K6 O5 2.822913 1_554
K6 O52 2.936048 1_555
K6 O38 3.204467 1_555
K7 O78 2.588697 1_555
K7 O38 2.641870 1_555
K7 O26 2.661243 1_555
K7 O14 2.723741 1_555
K7 O19 2.776741 1_554
K7 O50 2.801694 1_555
K7 O7 2.818737 1_554
K7 O54 2.879156 1_555
Na0 O49 2.388341 1_555
Na0 O65 2.428630 1_555
Na0 O11 2.502553 1_545
Na0 O0 2.521264 1_555
Na0 O16 2.554156 1_555
Na0 O27 2.694362 1_545
Na0 O33 2.744274 1_555
Na1 O67 2.396948 1_555
Na1 O51 2.449032 1_555
Na1 O9 2.482787 1_555
Na1 O2 2.535033 1_555
Na1 O25 2.599089 1_555
Na1 O35 2.671963 1_555
Na1 O18 2.744233 1_555
Na2 O69 2.393089 1_555
Na2 O53 2.454040 1_555
Na2 O31 2.506465 1_545
Na2 O15 2.543703 1_545
Na2 O20 2.609879 1_555
Na2 O4 2.629808 1_555
Na2 O37 2.780466 1_555
Na2 O33 2.888935 1_655
Na3 O55 2.398103 1_555
Na3 O71 2.399341 1_555
Na3 O29 2.519241 1_555
Na3 O6 2.527840 1_555
Na3 O22 2.540229 1_555
Na3 O13 2.639914 1_555
Na3 O39 2.865434 1_555
Na3 O35 2.913954 1_655
Na4 O56 2.338124 1_555
Na4 O72 2.395538 1_555
Na4 O9 2.463935 1_555
Na4 O2 2.526858 1_555
Na4 O18 2.619557 1_555
Na4 O25 2.641656 1_555
Na4 O44 2.662748 1_455
Na5 O73 2.387642 1_555
Na5 O57 2.452468 1_555
Na5 O3 2.509558 1_555
Na5 O19 2.557121 1_555
Na5 O24 2.559507 1_556
Na5 O8 2.591128 1_556
Na5 O45 2.794762 1_455
Na5 O41 2.973097 1_555
Na6 O74 2.345308 1_555
Na6 O0 2.455476 1_565
Na6 O58 2.457034 1_555
Na6 O11 2.544125 1_555
Na6 O16 2.545326 1_565
Na6 O46 2.658140 1_455
Na6 O27 2.680619 1_555
Na7 O76 2.299297 1_555
Na7 O60 2.388801 1_555
Na7 O6 2.461849 1_555
Na7 O22 2.529827 1_555
Na7 O29 2.565125 1_555
Na7 O13 2.603672 1_555
Na7 O40 2.881432 1_555
Na7 O44 2.952820 1_555
Na8 O77 2.400522 1_555
Na8 O61 2.410153 1_555
Na8 O7 2.503257 1_555
Na8 O12 2.519793 1_556
Na8 O23 2.543737 1_555
Na8 O28 2.653310 1_556
Na8 O41 2.774469 1_555
Na8 O45 2.963113 1_555
Na9 O78 2.334923 1_555
Na9 O62 2.356181 1_555
Na9 O31 2.507047 1_555
Na9 O15 2.512586 1_555
Na9 O4 2.516935 1_565
Na9 O20 2.563465 1_565
Na9 O42 2.809980 1_555
Na10 O79 2.390293 1_555
Na10 O63 2.434917 1_555
Na10 O5 2.491344 1_565
Na10 O14 2.528600 1_556
Na10 O30 2.570348 1_556
Na10 O21 2.575056 1_565
Na10 O43 2.845538 1_555
Na10 O47 2.890142 1_555
Na11 O72 2.492504 1_555
Na11 O32 2.519332 1_555
Na11 O28 2.544665 1_455
Na11 O1 2.569290 1_554
Na11 O8 2.570452 1_555
Na11 O21 2.654554 1_454
Na11 O52 2.793175 1_455
Na11 O48 2.919466 1_555
Na12 O73 2.359519 1_555
Na12 O33 2.359720 1_555
Na12 O0 2.515482 1_555
Na12 O9 2.540903 1_555
Na12 O29 2.552675 1_455
Na12 O20 2.602663 1_455
Na12 O53 2.844411 1_455
Na12 O49 2.892961 1_555
Na13 O75 2.355908 1_555
Na13 O35 2.434053 1_555
Na13 O22 2.450263 1_455
Na13 O31 2.571928 1_455
Na13 O11 2.589266 1_555
Na13 O2 2.607521 1_555
Na13 O55 2.727648 1_455
Na14 O37 2.384737 1_555
Na14 O77 2.408776 1_555
Na14 O25 2.546494 1_555
Na14 O16 2.551170 1_555
Na14 O13 2.609611 1_555
Na14 O4 2.648051 1_555
Na14 O49 2.713165 1_555
Na15 O79 2.372152 1_555
Na15 O39 2.429672 1_555
Na15 O27 2.541917 1_555
Na15 O15 2.544521 1_555
Na15 O6 2.610670 1_555
Na15 O18 2.634598 1_555
Na15 O51 2.741505 1_555
Na15 O55 2.902010 1_555
Na16 O64 2.318566 1_555
Na16 O40 2.405059 1_555
Na16 O16 2.499161 1_555
Na16 O25 2.504958 1_555
Na16 O4 2.561362 1_555
Na16 O13 2.642651 1_555
Na16 O56 2.648468 1_555
Na17 O65 2.400767 1_555
Na17 O41 2.427564 1_555
Na17 O17 2.514136 1_555
Na17 O24 2.525800 1_556
Na17 O5 2.551695 1_555
Na17 O12 2.564415 1_556
Na17 O57 2.809914 1_555
Na18 O66 2.305228 1_555
Na18 O42 2.352619 1_555
Na18 O18 2.468275 1_555
Na18 O27 2.512411 1_555
Na18 O15 2.544297 1_555
Na18 O6 2.618311 1_555
Na18 O58 2.798712 1_555
Na19 O67 2.395204 1_555
Na19 O43 2.473421 1_555
Na19 O19 2.516699 1_555
Na19 O26 2.524922 1_556
Na19 O7 2.553283 1_555
Na19 O14 2.557364 1_556
Na19 O59 2.754230 1_555
Na20 O68 2.325735 1_555
Na20 O44 2.352132 1_555
Na20 O9 2.517227 1_655
Na20 O20 2.532822 1_555
Na20 O0 2.542809 1_655
Na20 O29 2.566293 1_555
Na20 O60 2.792103 1_555
Na21 O69 2.406253 1_555
Na21 O45 2.430608 1_555
Na21 O21 2.510353 1_555
Na21 O28 2.550469 1_556
Na21 O1 2.551824 1_655
Na21 O8 2.588705 1_656
Na21 O61 2.760293 1_555
Na21 O57 2.934530 1_655
Na22 O70 2.321870 1_555
Na22 O46 2.370202 1_555
Na22 O22 2.448799 1_555
Na22 O31 2.484299 1_555
Na22 O62 2.647477 1_555
Na22 O2 2.651104 1_655
Na22 O11 2.669491 1_655
Na23 O71 2.404277 1_555
Na23 O47 2.435847 1_555
Na23 O23 2.513507 1_555
Na23 O30 2.551814 1_556
Na23 O3 2.572242 1_655
Na23 O10 2.576055 1_656
Na23 O63 2.783124 1_555
Na23 O59 2.964922 1_655
Mo0 O30 2.019770 1_456
Mo0 O21 2.023640 1_465
Mo0 O1 2.037640 1_565
Mo0 O10 2.041187 1_556
Mo0 O47 2.153583 1_455
Mo0 O32 2.210331 1_566
Mo1 O28 2.016506 1_456
Mo1 O8 2.023929 1_556
Mo1 O3 2.031784 1_555
Mo1 O23 2.038098 1_455
Mo1 O45 2.142421 1_455
Mo1 O34 2.214735 1_556
Mo2 O14 2.024252 1_556
Mo2 O26 2.029940 1_556
Mo2 O17 2.032817 1_565
Mo2 O5 2.041829 1_565
Mo2 O43 2.148333 1_555
Mo2 O36 2.231356 1_566
Mo3 O4 2.016929 1_555
Mo3 O16 2.044716 1_555
Mo3 O15 2.049364 1_545
Mo3 O27 2.123703 1_545
Mo3 O37 2.139127 1_555
Mo3 O42 2.161569 1_545
Mo4 O24 2.021161 1_556
Mo4 O19 2.026821 1_555
Mo4 O12 2.027334 1_556
Mo4 O7 2.040875 1_555
Mo4 O41 2.134264 1_555
Mo4 O38 2.225240 1_556
Mo5 O25 1.899703 1_555
Mo5 O6 1.910587 1_555
Mo5 O18 2.001390 1_555
Mo5 O39 2.100892 1_555
Mo5 O40 2.116665 1_555
Mo5 O13 2.132924 1_555
Mo6 O8 2.018148 1_556
Mo6 O24 2.021369 1_556
Mo6 O1 2.029275 1_555
Mo6 O17 2.037215 1_555
Mo6 O57 2.140960 1_555
Mo6 O48 2.203765 1_556
Mo7 O26 2.032796 1_556
Mo7 O10 2.034764 1_556
Mo7 O3 2.035334 1_555
Mo7 O19 2.039155 1_555
Mo7 O59 2.116869 1_555
Mo7 O50 2.202597 1_556
Mo8 O2 1.898251 1_555
Mo8 O27 1.956592 1_555
Mo8 O11 1.988744 1_555
Mo8 O18 2.093706 1_555
Mo8 O51 2.098221 1_555
Mo8 O58 2.110280 1_555
Mo9 O21 2.019403 1_555
Mo9 O12 2.022740 1_556
Mo9 O28 2.023593 1_556
Mo9 O5 2.048729 1_555
Mo9 O61 2.140929 1_555
Mo9 O52 2.190009 1_556
Mo10 O20 1.886223 1_555
Mo10 O13 1.959619 1_555
Mo10 O29 1.989659 1_555
Mo10 O4 2.088670 1_555
Mo10 O53 2.098275 1_555
Mo10 O60 2.115905 1_555
Mo11 O14 2.020994 1_556
Mo11 O30 2.026045 1_556
Mo11 O7 2.032265 1_555
Mo11 O23 2.041970 1_555
Mo11 O63 2.139710 1_555
Mo11 O54 2.217600 1_556
O0 V0 1.856824 1_545
O0 V2 2.168971 1_555
O2 V1 2.162903 1_555
O6 V3 2.190722 1_555
O9 V2 1.967116 1_555
O9 V1 2.039912 1_555
O11 V0 2.017861 1_555
O15 V3 2.032190 1_555
O16 V2 2.058406 1_555
O20 V0 2.185846 1_645
O22 V3 1.989312 1_555
O22 V1 2.040645 1_655
O25 V2 2.189186 1_555
O29 V1 2.016475 1_655
O31 V0 1.849294 1_655
O31 V3 2.171075 1_555
O32 V4 1.802319 1_555
O33 V5 1.760965 1_555
O33 V0 2.096171 1_545
O34 V6 1.775523 1_555
O35 V7 1.762028 1_555
O35 V1 2.133633 1_555
O36 V8 1.785341 1_555
O37 V9 1.771330 1_555
O38 V10 1.796742 1_555
O39 V11 1.791914 1_555
O40 V12 1.797593 1_555
O41 V13 1.780150 1_555
O42 V14 1.767501 1_555
O43 V15 1.775793 1_555
O44 V16 1.751903 1_555
O44 V1 2.144264 1_655
O45 V17 1.775076 1_555
O46 V18 1.768762 1_555
O46 V0 2.109758 1_655
O47 V19 1.785316 1_555
O48 V12 1.773540 1_555
O49 V13 1.768975 1_555
O49 V2 2.074655 1_555
O50 V14 1.785536 1_555
O51 V15 1.789460 1_555
O52 V16 1.796605 1_555
O53 V17 1.784794 1_555
O54 V18 1.793710 1_555
O55 V19 1.768576 1_555
O55 V3 2.089123 1_555
O56 V4 1.763140 1_555
O56 V2 2.104988 1_555
O57 V5 1.784021 1_555
O58 V6 1.795637 1_555
O59 V7 1.772639 1_555
O60 V8 1.789723 1_555
O61 V9 1.770176 1_555
O62 V10 1.766539 1_555
O62 V3 2.112088 1_555
O63 V11 1.769100 1_555
O64 V8 1.872565 1_555
O64 V14 1.879141 1_545
O65 V15 1.875946 1_545
O65 V9 1.899778 1_555
O66 V12 1.871260 1_555
O66 V10 1.898074 1_555
O67 V11 1.890593 1_555
O67 V13 1.897955 1_555
O68 V18 1.873725 1_545
O68 V4 1.881406 1_655
O69 V19 1.887151 1_545
O69 V5 1.904338 1_655
O70 V6 1.862351 1_655
O70 V16 1.883259 1_555
O71 V17 1.874480 1_555
O71 V7 1.914685 1_655
O72 V6 1.881579 1_555
O72 V12 1.888483 1_555
O73 V7 1.886866 1_555
O73 V13 1.894068 1_555
O74 V14 1.876856 1_555
O74 V4 1.878474 1_565
O75 V15 1.877624 1_555
O75 V5 1.887587 1_565
O76 V10 1.869967 1_555
O76 V16 1.888914 1_555
O77 V11 1.883470 1_555
O77 V17 1.903879 1_555
O78 V8 1.866953 1_565
O78 V18 1.884542 1_555
O79 V9 1.883290 1_565
O79 V19 1.900126 1_555
