# generated using pymatgen
data_YbH3CN3
_symmetry_space_group_name_H-M   'P 1'
_cell_length_a   5.22063020
_cell_length_b   5.22063020
_cell_length_c   6.67265232
_cell_angle_alpha   90.00000000
_cell_angle_beta   90.00000000
_cell_angle_gamma   120.00000647
_symmetry_Int_Tables_number   1
_chemical_formula_structural   YbH3CN3
_chemical_formula_sum   'Yb2 H6 C2 N6'
_cell_volume   157.49797097
_cell_formula_units_Z   2
loop_
 _symmetry_equiv_pos_site_id
 _symmetry_equiv_pos_as_xyz
  1  'x, y, z'
loop_
 _atom_site_type_symbol
 _atom_site_label
 _atom_site_symmetry_multiplicity
 _atom_site_fract_x
 _atom_site_fract_y
 _atom_site_fract_z
 _atom_site_occupancy
  Yb  Yb0  1  0.00000000  0.00000000  0.50000000  1
  Yb  Yb1  1  0.00000000  0.00000000  0.00000000  1
  H  H0  1  0.07488383  0.63918398  0.75000000  1
  H  H1  1  0.36081602  0.43570086  0.75000000  1
  H  H2  1  0.56429914  0.92511617  0.75000000  1
  H  H3  1  0.92511617  0.36081602  0.25000000  1
  H  H4  1  0.63918398  0.56429914  0.25000000  1
  H  H5  1  0.43570086  0.07488383  0.25000000  1
  C  C0  1  0.66666700  0.33333300  0.75000000  1
  C  C1  1  0.33333300  0.66666700  0.25000000  1
  N  N0  1  0.87008461  0.62635866  0.75000000  1
  N  N1  1  0.37364134  0.24372695  0.75000000  1
  N  N2  1  0.75627305  0.12991539  0.75000000  1
  N  N3  1  0.12991539  0.37364134  0.25000000  1
  N  N4  1  0.62635866  0.75627305  0.25000000  1
  N  N5  1  0.24372695  0.87008461  0.25000000  1
loop_
_geom_bond_atom_site_label_1
_geom_bond_atom_site_label_2
_geom_bond_distance
_geom_bond_site_symmetry_2
H0 N0 1.037325 1_455
H1 N1 1.037325 1_555
H2 N2 1.037325 1_565
H3 N3 1.037325 1_655
H4 N4 1.037325 1_555
H5 N5 1.037325 1_545
C0 N2 1.357719 1_555
C0 N0 1.357727 1_555
C0 N1 1.357729 1_555
C1 N5 1.357719 1_555
C1 N3 1.357727 1_555
C1 N4 1.357729 1_555
N0 Yb1 2.392652 1_666
N0 Yb0 2.392652 1_665
N1 Yb0 2.392652 1_555
N1 Yb1 2.392652 1_556
N2 Yb1 2.392655 1_656
N2 Yb0 2.392655 1_655
N3 Yb0 2.392652 1_555
N3 Yb1 2.392652 1_555
N4 Yb0 2.392652 1_665
N4 Yb1 2.392652 1_665
N5 Yb1 2.392655 1_565
N5 Yb0 2.392655 1_565
