# generated using pymatgen
data_La2Mn(SeO)2
_symmetry_space_group_name_H-M   'P 1'
_cell_length_a   8.57064026
_cell_length_b   8.57064026
_cell_length_c   17.75060349
_cell_angle_alpha   89.99447056
_cell_angle_beta   89.99447056
_cell_angle_gamma   152.75352271
_symmetry_Int_Tables_number   1
_chemical_formula_structural   La2Mn(SeO)2
_chemical_formula_sum   'La8 Mn4 Se8 O8'
_cell_volume   596.94411309
_cell_formula_units_Z   4
loop_
 _symmetry_equiv_pos_site_id
 _symmetry_equiv_pos_as_xyz
  1  'x, y, z'
loop_
 _atom_site_type_symbol
 _atom_site_label
 _atom_site_symmetry_multiplicity
 _atom_site_fract_x
 _atom_site_fract_y
 _atom_site_fract_z
 _atom_site_occupancy
  La  La0  1  0.42435500  0.57601400  0.91404000  1
  La  La1  1  0.57726600  0.42325600  0.08379200  1
  La  La2  1  0.42325600  0.57726600  0.58379200  1
  La  La3  1  0.57601400  0.42435500  0.41404000  1
  La  La4  1  0.73051900  0.27188000  0.91035100  1
  La  La5  1  0.26882500  0.73300500  0.08831100  1
  La  La6  1  0.73300500  0.26882500  0.58831100  1
  La  La7  1  0.27188000  0.73051900  0.41035100  1
  Mn  Mn0  1  0.08186700  0.91314500  0.72482600  1
  Mn  Mn1  1  0.91314500  0.08186700  0.22482600  1
  Mn  Mn2  1  0.88606900  0.16407900  0.74958800  1
  Mn  Mn3  1  0.16407900  0.88606900  0.24958800  1
  Se  Se0  1  0.48844000  0.50784900  0.75024500  1
  Se  Se1  1  0.50784900  0.48844000  0.25024500  1
  Se  Se2  1  0.07949200  0.92324600  0.93305300  1
  Se  Se3  1  0.92084800  0.08008100  0.07330000  1
  Se  Se4  1  0.08008100  0.92084800  0.57330000  1
  Se  Se5  1  0.92324600  0.07949200  0.43305300  1
  Se  Se6  1  0.24547700  0.76994200  0.75008800  1
  Se  Se7  1  0.76994200  0.24547700  0.25008800  1
  O  O0  1  0.29054500  0.71185500  0.54412600  1
  O  O1  1  0.71088200  0.29158300  0.45530100  1
  O  O2  1  0.29158300  0.71088200  0.95530100  1
  O  O3  1  0.71185500  0.29054500  0.04412600  1
  O  O4  1  0.87088000  0.13241700  0.86465800  1
  O  O5  1  0.13252500  0.87045700  0.13474100  1
  O  O6  1  0.87045700  0.13252500  0.63474100  1
  O  O7  1  0.13241700  0.87088000  0.36465800  1
loop_
_geom_bond_atom_site_label_1
_geom_bond_atom_site_label_2
_geom_bond_distance
_geom_bond_site_symmetry_2
La0 O2 2.346543 1_555
La0 O4 2.378814 1_455
La0 O4 2.388218 1_565
La0 Se0 3.109161 1_555
La0 Se2 3.278242 1_545
La0 Se2 3.284297 1_655
La0 Se3 3.472980 1_456
La0 Se3 3.475640 1_566
La1 O3 2.335159 1_555
La1 O5 2.383619 1_545
La1 O5 2.392641 1_655
La1 Se1 3.160215 1_555
La1 Se3 3.303715 1_455
La1 Se3 3.304626 1_565
La1 Se2 3.349817 1_544
La1 Se2 3.353885 1_654
La2 O0 2.335159 1_555
La2 O6 2.383619 1_455
La2 O6 2.392641 1_565
La2 Se0 3.160215 1_555
La2 Se4 3.303715 1_545
La2 Se4 3.304626 1_655
La2 Se5 3.349817 1_455
La2 Se5 3.353885 1_565
La3 O1 2.346543 1_555
La3 O7 2.378814 1_545
La3 O7 2.388218 1_655
La3 Se1 3.109161 1_555
La3 Se5 3.278242 1_455
La3 Se5 3.284297 1_565
La3 Se4 3.472980 1_545
La3 Se4 3.475640 1_655
La4 O3 2.394857 1_556
La4 O2 2.396585 1_545
La4 O2 2.397360 1_655
La4 O4 2.467887 1_555
La4 Se2 3.252442 1_545
La4 Se2 3.253496 1_655
La4 Se6 3.476615 1_545
La4 Se6 3.505663 1_655
La5 O3 2.365733 1_455
La5 O3 2.367147 1_565
La5 O2 2.390421 1_554
La5 O5 2.424593 1_555
La5 Se3 3.254267 1_565
La5 Se3 3.256658 1_455
La5 Se7 3.495098 1_455
La5 Se7 3.527991 1_565
La6 O0 2.365733 1_545
La6 O0 2.367147 1_655
La6 O1 2.390421 1_555
La6 O6 2.424593 1_555
La6 Se4 3.254267 1_655
La6 Se4 3.256658 1_545
La6 Se6 3.495098 1_545
La6 Se6 3.527991 1_655
La7 O0 2.394857 1_555
La7 O1 2.396585 1_455
La7 O1 2.397360 1_565
La7 O7 2.467887 1_555
La7 Se5 3.252442 1_455
La7 Se5 3.253496 1_565
La7 Se7 3.476615 1_455
La7 Se7 3.505663 1_565
Mn0 Se0 2.592911 1_455
Mn0 Se6 2.594974 1_555
Mn0 Se0 2.597209 1_565
Mn0 Se4 2.690861 1_555
Mn1 Se1 2.592911 1_545
Mn1 Se7 2.594974 1_555
Mn1 Se1 2.597209 1_655
Mn1 Se3 2.690861 1_555
Mn2 O6 2.045180 1_555
Mn2 O4 2.049310 1_555
Mn2 Se6 2.830421 1_655
Mn2 Se0 2.878880 1_655
Mn2 Se6 2.928713 1_545
Mn2 Se0 3.027514 1_545
Mn3 O5 2.045180 1_555
Mn3 O7 2.049310 1_555
Mn3 Se7 2.830421 1_565
Mn3 Se1 2.878880 1_565
Mn3 Se7 2.928713 1_455
Mn3 Se1 3.027514 1_455
