# generated using pymatgen
data_Ba3PrIr2O9
_symmetry_space_group_name_H-M   'P 1'
_cell_length_a   6.02779200
_cell_length_b   6.02779200
_cell_length_c   15.03335500
_cell_angle_alpha   90.00000000
_cell_angle_beta   90.00000000
_cell_angle_gamma   119.99999999
_symmetry_Int_Tables_number   1
_chemical_formula_structural   Ba3PrIr2O9
_chemical_formula_sum   'Ba6 Pr2 Ir4 O18'
_cell_volume   473.04565772
_cell_formula_units_Z   2
loop_
 _symmetry_equiv_pos_site_id
 _symmetry_equiv_pos_as_xyz
  1  'x, y, z'
loop_
 _atom_site_type_symbol
 _atom_site_label
 _atom_site_symmetry_multiplicity
 _atom_site_fract_x
 _atom_site_fract_y
 _atom_site_fract_z
 _atom_site_occupancy
  Ba  Ba0  1  0.33333300  0.66666700  0.09795900  1
  Ba  Ba1  1  0.66666700  0.33333300  0.90204100  1
  Ba  Ba2  1  0.66666700  0.33333300  0.59795900  1
  Ba  Ba3  1  0.33333300  0.66666700  0.40204100  1
  Ba  Ba4  1  0.00000000  0.00000000  0.25000000  1
  Ba  Ba5  1  0.00000000  0.00000000  0.75000000  1
  Pr  Pr0  1  0.00000000  0.00000000  0.00000000  1
  Pr  Pr1  1  0.00000000  0.00000000  0.50000000  1
  Ir  Ir0  1  0.33333300  0.66666700  0.66645400  1
  Ir  Ir1  1  0.66666700  0.33333300  0.33354600  1
  Ir  Ir2  1  0.66666700  0.33333300  0.16645400  1
  Ir  Ir3  1  0.33333300  0.66666700  0.83354600  1
  O  O0  1  0.17942400  0.35884800  0.59063300  1
  O  O1  1  0.82057600  0.64115200  0.40936700  1
  O  O2  1  0.64115200  0.82057600  0.59063300  1
  O  O3  1  0.82057600  0.64115200  0.09063300  1
  O  O4  1  0.35884800  0.17942400  0.40936700  1
  O  O5  1  0.17942400  0.35884800  0.90936700  1
  O  O6  1  0.17942400  0.82057600  0.59063300  1
  O  O7  1  0.35884800  0.17942400  0.09063300  1
  O  O8  1  0.82057600  0.17942400  0.40936700  1
  O  O9  1  0.64115200  0.82057600  0.90936700  1
  O  O10  1  0.82057600  0.17942400  0.09063300  1
  O  O11  1  0.17942400  0.82057600  0.90936700  1
  O  O12  1  0.50922100  0.01844300  0.25000000  1
  O  O13  1  0.49077900  0.98155700  0.75000000  1
  O  O14  1  0.98155700  0.49077900  0.25000000  1
  O  O15  1  0.01844300  0.50922100  0.75000000  1
  O  O16  1  0.50922100  0.49077900  0.25000000  1
  O  O17  1  0.49077900  0.50922100  0.75000000  1
loop_
_geom_bond_atom_site_label_1
_geom_bond_atom_site_label_2
_geom_bond_distance
_geom_bond_site_symmetry_2
Ba0 O16 2.931985 1_555
Ba0 O14 2.931985 1_455
Ba0 O12 2.931985 1_565
Ba0 O7 3.018844 1_565
Ba0 O3 3.018844 1_455
Ba0 O10 3.018847 1_455
Ba0 O10 3.018847 1_565
Ba0 O3 3.018850 1_555
Ba0 O7 3.018850 1_555
Ba0 O11 3.258872 1_554
Ba0 O5 3.258875 1_554
Ba0 O9 3.258875 1_554
Ba1 O17 2.931985 1_555
Ba1 O13 2.931985 1_545
Ba1 O15 2.931985 1_655
Ba1 O9 3.018844 1_545
Ba1 O5 3.018844 1_655
Ba1 O11 3.018847 1_655
Ba1 O11 3.018847 1_545
Ba1 O9 3.018850 1_555
Ba1 O5 3.018850 1_555
Ba1 O10 3.258872 1_556
Ba1 O3 3.258875 1_556
Ba1 O7 3.258875 1_556
Ba2 O17 2.931985 1_555
Ba2 O13 2.931985 1_545
Ba2 O15 2.931985 1_655
Ba2 O2 3.018844 1_545
Ba2 O0 3.018844 1_655
Ba2 O6 3.018847 1_655
Ba2 O6 3.018847 1_545
Ba2 O2 3.018850 1_555
Ba2 O0 3.018850 1_555
Ba2 O8 3.258872 1_555
Ba2 O1 3.258875 1_555
Ba2 O4 3.258875 1_555
Ba3 O16 2.931985 1_555
Ba3 O12 2.931985 1_565
Ba3 O14 2.931985 1_455
Ba3 O1 3.018844 1_455
Ba3 O4 3.018844 1_565
Ba3 O8 3.018847 1_565
Ba3 O8 3.018847 1_455
Ba3 O4 3.018850 1_555
Ba3 O1 3.018850 1_555
Ba3 O6 3.258872 1_555
Ba3 O2 3.258875 1_555
Ba3 O0 3.258875 1_555
Ba4 O14 3.015430 1_445
Ba4 O12 3.015430 1_555
Ba4 O16 3.015433 1_445
Ba4 O16 3.015433 1_555
Ba4 O14 3.015436 1_455
Ba4 O12 3.015436 1_455
Ba4 O10 3.041230 1_455
Ba4 O8 3.041230 1_455
Ba4 O3 3.041230 1_445
Ba4 O1 3.041230 1_445
Ba4 O4 3.041230 1_555
Ba4 O7 3.041230 1_555
Ba5 O13 3.015430 1_445
Ba5 O15 3.015430 1_555
Ba5 O17 3.015433 1_445
Ba5 O17 3.015433 1_555
Ba5 O15 3.015436 1_545
Ba5 O13 3.015436 1_545
Ba5 O11 3.041230 1_545
Ba5 O6 3.041230 1_545
Ba5 O2 3.041230 1_445
Ba5 O9 3.041230 1_445
Ba5 O5 3.041230 1_555
Ba5 O0 3.041230 1_555
Ir0 O6 1.970102 1_555
Ir0 O0 1.970106 1_555
Ir0 O2 1.970106 1_555
Ir0 O15 2.068705 1_555
Ir0 O13 2.068705 1_555
Ir0 O17 2.068713 1_555
Ir1 O8 1.970102 1_555
Ir1 O4 1.970106 1_555
Ir1 O1 1.970106 1_555
Ir1 O12 2.068705 1_555
Ir1 O14 2.068705 1_555
Ir1 O16 2.068713 1_555
Ir2 O10 1.970102 1_555
Ir2 O7 1.970106 1_555
Ir2 O3 1.970106 1_555
Ir2 O12 2.068705 1_555
Ir2 O14 2.068705 1_555
Ir2 O16 2.068713 1_555
Ir3 O11 1.970102 1_555
Ir3 O5 1.970106 1_555
Ir3 O9 1.970106 1_555
Ir3 O15 2.068705 1_555
Ir3 O13 2.068705 1_555
Ir3 O17 2.068713 1_555
O0 Pr1 2.316372 1_555
O1 Pr1 2.316372 1_665
O2 Pr1 2.316372 1_665
O3 Pr0 2.316372 1_665
O4 Pr1 2.316372 1_555
O5 Pr0 2.316372 1_556
O6 Pr1 2.316372 1_565
O7 Pr0 2.316372 1_555
O8 Pr1 2.316372 1_655
O9 Pr0 2.316372 1_666
O10 Pr0 2.316372 1_655
O11 Pr0 2.316372 1_566
