# generated using pymatgen
data_Ta2Al3V4C3
_symmetry_space_group_name_H-M   'P 1'
_cell_length_a   5.98756800
_cell_length_b   5.98756800
_cell_length_c   80.39082200
_cell_angle_alpha   90.00000000
_cell_angle_beta   90.00000000
_cell_angle_gamma   120.00000005
_symmetry_Int_Tables_number   1
_chemical_formula_structural   Ta2Al3V4C3
_chemical_formula_sum   'Ta32 Al48 V64 C48'
_cell_volume   2495.96228583
_cell_formula_units_Z   16
loop_
 _symmetry_equiv_pos_site_id
 _symmetry_equiv_pos_as_xyz
  1  'x, y, z'
loop_
 _atom_site_type_symbol
 _atom_site_label
 _atom_site_symmetry_multiplicity
 _atom_site_fract_x
 _atom_site_fract_y
 _atom_site_fract_z
 _atom_site_occupancy
  Ta  Ta0_0  1  0.33333350  0.16666650  0.09947450  1
  Ta  Ta0_1  1  0.33333350  0.16666650  0.59947450  1
  Ta  Ta0_2  1  0.33333350  0.66666650  0.09947450  1
  Ta  Ta0_3  1  0.33333350  0.66666650  0.59947450  1
  Ta  Ta0_4  1  0.83333350  0.16666650  0.09947450  1
  Ta  Ta0_5  1  0.83333350  0.16666650  0.59947450  1
  Ta  Ta0_6  1  0.83333350  0.66666650  0.09947450  1
  Ta  Ta0_7  1  0.83333350  0.66666650  0.59947450  1
  Ta  Ta1_0  1  0.33333350  0.16666650  0.26464050  1
  Ta  Ta1_1  1  0.33333350  0.16666650  0.76464050  1
  Ta  Ta1_2  1  0.33333350  0.66666650  0.26464050  1
  Ta  Ta1_3  1  0.33333350  0.66666650  0.76464050  1
  Ta  Ta1_4  1  0.83333350  0.16666650  0.26464050  1
  Ta  Ta1_5  1  0.83333350  0.16666650  0.76464050  1
  Ta  Ta1_6  1  0.83333350  0.66666650  0.26464050  1
  Ta  Ta1_7  1  0.83333350  0.66666650  0.76464050  1
  Ta  Ta2_0  1  0.33333350  0.16666650  0.43121050  1
  Ta  Ta2_1  1  0.33333350  0.16666650  0.93121050  1
  Ta  Ta2_2  1  0.33333350  0.66666650  0.43121050  1
  Ta  Ta2_3  1  0.33333350  0.66666650  0.93121050  1
  Ta  Ta2_4  1  0.83333350  0.16666650  0.43121050  1
  Ta  Ta2_5  1  0.83333350  0.16666650  0.93121050  1
  Ta  Ta2_6  1  0.83333350  0.66666650  0.43121050  1
  Ta  Ta2_7  1  0.83333350  0.66666650  0.93121050  1
  Ta  Ta3_0  1  0.16666650  0.33333350  0.06728400  1
  Ta  Ta3_1  1  0.16666650  0.33333350  0.56728400  1
  Ta  Ta3_2  1  0.16666650  0.83333350  0.06728400  1
  Ta  Ta3_3  1  0.16666650  0.83333350  0.56728400  1
  Ta  Ta3_4  1  0.66666650  0.33333350  0.06728400  1
  Ta  Ta3_5  1  0.66666650  0.33333350  0.56728400  1
  Ta  Ta3_6  1  0.66666650  0.83333350  0.06728400  1
  Ta  Ta3_7  1  0.66666650  0.83333350  0.56728400  1
  Al  Al0_0  1  0.33333350  0.16666650  0.03924700  1
  Al  Al0_1  1  0.33333350  0.16666650  0.53924700  1
  Al  Al0_2  1  0.33333350  0.66666650  0.03924700  1
  Al  Al0_3  1  0.33333350  0.66666650  0.53924700  1
  Al  Al0_4  1  0.83333350  0.16666650  0.03924700  1
  Al  Al0_5  1  0.83333350  0.16666650  0.53924700  1
  Al  Al0_6  1  0.83333350  0.66666650  0.03924700  1
  Al  Al0_7  1  0.83333350  0.66666650  0.53924700  1
  Al  Al1_0  1  0.33333350  0.16666650  0.20784750  1
  Al  Al1_1  1  0.33333350  0.16666650  0.70784750  1
  Al  Al1_2  1  0.33333350  0.66666650  0.20784750  1
  Al  Al1_3  1  0.33333350  0.66666650  0.70784750  1
  Al  Al1_4  1  0.83333350  0.16666650  0.20784750  1
  Al  Al1_5  1  0.83333350  0.16666650  0.70784750  1
  Al  Al1_6  1  0.83333350  0.66666650  0.20784750  1
  Al  Al1_7  1  0.83333350  0.66666650  0.70784750  1
  Al  Al2_0  1  0.33333350  0.16666650  0.37433700  1
  Al  Al2_1  1  0.33333350  0.16666650  0.87433700  1
  Al  Al2_2  1  0.33333350  0.66666650  0.37433700  1
  Al  Al2_3  1  0.33333350  0.66666650  0.87433700  1
  Al  Al2_4  1  0.83333350  0.16666650  0.37433700  1
  Al  Al2_5  1  0.83333350  0.16666650  0.87433700  1
  Al  Al2_6  1  0.83333350  0.66666650  0.37433700  1
  Al  Al2_7  1  0.83333350  0.66666650  0.87433700  1
  Al  Al3_0  1  0.16666650  0.33333350  0.12757600  1
  Al  Al3_1  1  0.16666650  0.33333350  0.62757600  1
  Al  Al3_2  1  0.16666650  0.83333350  0.12757600  1
  Al  Al3_3  1  0.16666650  0.83333350  0.62757600  1
  Al  Al3_4  1  0.66666650  0.33333350  0.12757600  1
  Al  Al3_5  1  0.66666650  0.33333350  0.62757600  1
  Al  Al3_6  1  0.66666650  0.83333350  0.12757600  1
  Al  Al3_7  1  0.66666650  0.83333350  0.62757600  1
  Al  Al4_0  1  0.16666650  0.33333350  0.29346600  1
  Al  Al4_1  1  0.16666650  0.33333350  0.79346600  1
  Al  Al4_2  1  0.16666650  0.83333350  0.29346600  1
  Al  Al4_3  1  0.16666650  0.83333350  0.79346600  1
  Al  Al4_4  1  0.66666650  0.33333350  0.29346600  1
  Al  Al4_5  1  0.66666650  0.33333350  0.79346600  1
  Al  Al4_6  1  0.66666650  0.83333350  0.29346600  1
  Al  Al4_7  1  0.66666650  0.83333350  0.79346600  1
  Al  Al5_0  1  0.16666650  0.33333350  0.45988450  1
  Al  Al5_1  1  0.16666650  0.33333350  0.95988450  1
  Al  Al5_2  1  0.16666650  0.83333350  0.45988450  1
  Al  Al5_3  1  0.16666650  0.83333350  0.95988450  1
  Al  Al5_4  1  0.66666650  0.33333350  0.45988450  1
  Al  Al5_5  1  0.66666650  0.33333350  0.95988450  1
  Al  Al5_6  1  0.66666650  0.83333350  0.45988450  1
  Al  Al5_7  1  0.66666650  0.83333350  0.95988450  1
  V  V0_0  1  0.16666650  0.33333350  0.23485450  1
  V  V0_1  1  0.16666650  0.33333350  0.73485450  1
  V  V0_2  1  0.16666650  0.83333350  0.23485450  1
  V  V0_3  1  0.16666650  0.83333350  0.73485450  1
  V  V0_4  1  0.66666650  0.33333350  0.23485450  1
  V  V0_5  1  0.66666650  0.33333350  0.73485450  1
  V  V0_6  1  0.66666650  0.83333350  0.23485450  1
  V  V0_7  1  0.66666650  0.83333350  0.73485450  1
  V  V1_0  1  0.16666650  0.33333350  0.40144550  1
  V  V1_1  1  0.16666650  0.33333350  0.90144550  1
  V  V1_2  1  0.16666650  0.83333350  0.40144550  1
  V  V1_3  1  0.16666650  0.83333350  0.90144550  1
  V  V1_4  1  0.66666650  0.33333350  0.40144550  1
  V  V1_5  1  0.66666650  0.33333350  0.90144550  1
  V  V1_6  1  0.66666650  0.83333350  0.40144550  1
  V  V1_7  1  0.66666650  0.83333350  0.90144550  1
  V  V2_0  1  0.16666650  0.33333350  0.01316250  1
  V  V2_1  1  0.16666650  0.33333350  0.51316250  1
  V  V2_2  1  0.16666650  0.83333350  0.01316250  1
  V  V2_3  1  0.16666650  0.83333350  0.51316250  1
  V  V2_4  1  0.66666650  0.33333350  0.01316250  1
  V  V2_5  1  0.66666650  0.33333350  0.51316250  1
  V  V2_6  1  0.66666650  0.83333350  0.01316250  1
  V  V2_7  1  0.66666650  0.83333350  0.51316250  1
  V  V3_0  1  0.16666650  0.33333350  0.18089500  1
  V  V3_1  1  0.16666650  0.33333350  0.68089500  1
  V  V3_2  1  0.16666650  0.83333350  0.18089500  1
  V  V3_3  1  0.16666650  0.83333350  0.68089500  1
  V  V3_4  1  0.66666650  0.33333350  0.18089500  1
  V  V3_5  1  0.66666650  0.33333350  0.68089500  1
  V  V3_6  1  0.66666650  0.83333350  0.18089500  1
  V  V3_7  1  0.66666650  0.83333350  0.68089500  1
  V  V4_0  1  0.16666650  0.33333350  0.34727900  1
  V  V4_1  1  0.16666650  0.33333350  0.84727900  1
  V  V4_2  1  0.16666650  0.83333350  0.34727900  1
  V  V4_3  1  0.16666650  0.83333350  0.84727900  1
  V  V4_4  1  0.66666650  0.33333350  0.34727900  1
  V  V4_5  1  0.66666650  0.33333350  0.84727900  1
  V  V4_6  1  0.66666650  0.83333350  0.34727900  1
  V  V4_7  1  0.66666650  0.83333350  0.84727900  1
  V  V5_0  1  0.33333350  0.16666650  0.15374900  1
  V  V5_1  1  0.33333350  0.16666650  0.65374900  1
  V  V5_2  1  0.33333350  0.66666650  0.15374900  1
  V  V5_3  1  0.33333350  0.66666650  0.65374900  1
  V  V5_4  1  0.83333350  0.16666650  0.15374900  1
  V  V5_5  1  0.83333350  0.16666650  0.65374900  1
  V  V5_6  1  0.83333350  0.66666650  0.15374900  1
  V  V5_7  1  0.83333350  0.66666650  0.65374900  1
  V  V6_0  1  0.33333350  0.16666650  0.32015050  1
  V  V6_1  1  0.33333350  0.16666650  0.82015050  1
  V  V6_2  1  0.33333350  0.66666650  0.32015050  1
  V  V6_3  1  0.33333350  0.66666650  0.82015050  1
  V  V6_4  1  0.83333350  0.16666650  0.32015050  1
  V  V6_5  1  0.83333350  0.16666650  0.82015050  1
  V  V6_6  1  0.83333350  0.66666650  0.32015050  1
  V  V6_7  1  0.83333350  0.66666650  0.82015050  1
  V  V7_0  1  0.33333350  0.16666650  0.48630550  1
  V  V7_1  1  0.33333350  0.16666650  0.98630550  1
  V  V7_2  1  0.33333350  0.66666650  0.48630550  1
  V  V7_3  1  0.33333350  0.66666650  0.98630550  1
  V  V7_4  1  0.83333350  0.16666650  0.48630550  1
  V  V7_5  1  0.83333350  0.16666650  0.98630550  1
  V  V7_6  1  0.83333350  0.66666650  0.48630550  1
  V  V7_7  1  0.83333350  0.66666650  0.98630550  1
  C  C0_0  1  0.00000000  0.00000000  0.08338150  1
  C  C0_1  1  0.00000000  0.00000000  0.58338150  1
  C  C0_2  1  0.00000000  0.50000000  0.08338150  1
  C  C0_3  1  0.00000000  0.50000000  0.58338150  1
  C  C0_4  1  0.50000000  0.00000000  0.08338150  1
  C  C0_5  1  0.50000000  0.00000000  0.58338150  1
  C  C0_6  1  0.50000000  0.50000000  0.08338150  1
  C  C0_7  1  0.50000000  0.50000000  0.58338150  1
  C  C1_0  1  0.00000000  0.00000000  0.24821600  1
  C  C1_1  1  0.00000000  0.00000000  0.74821600  1
  C  C1_2  1  0.00000000  0.50000000  0.24821600  1
  C  C1_3  1  0.00000000  0.50000000  0.74821600  1
  C  C1_4  1  0.50000000  0.00000000  0.24821600  1
  C  C1_5  1  0.50000000  0.00000000  0.74821600  1
  C  C1_6  1  0.50000000  0.50000000  0.24821600  1
  C  C1_7  1  0.50000000  0.50000000  0.74821600  1
  C  C2_0  1  0.00000000  0.00000000  0.41482650  1
  C  C2_1  1  0.00000000  0.00000000  0.91482650  1
  C  C2_2  1  0.00000000  0.50000000  0.41482650  1
  C  C2_3  1  0.00000000  0.50000000  0.91482650  1
  C  C2_4  1  0.50000000  0.00000000  0.41482650  1
  C  C2_5  1  0.50000000  0.00000000  0.91482650  1
  C  C2_6  1  0.50000000  0.50000000  0.41482650  1
  C  C2_7  1  0.50000000  0.50000000  0.91482650  1
  C  C3_0  1  0.00000000  0.00000000  0.49975450  1
  C  C3_1  1  0.00000000  0.00000000  0.99975450  1
  C  C3_2  1  0.00000000  0.50000000  0.49975450  1
  C  C3_3  1  0.00000000  0.50000000  0.99975450  1
  C  C3_4  1  0.50000000  0.00000000  0.49975450  1
  C  C3_5  1  0.50000000  0.00000000  0.99975450  1
  C  C3_6  1  0.50000000  0.50000000  0.49975450  1
  C  C3_7  1  0.50000000  0.50000000  0.99975450  1
  C  C4_0  1  0.00000000  0.00000000  0.16730000  1
  C  C4_1  1  0.00000000  0.00000000  0.66730000  1
  C  C4_2  1  0.00000000  0.50000000  0.16730000  1
  C  C4_3  1  0.00000000  0.50000000  0.66730000  1
  C  C4_4  1  0.50000000  0.00000000  0.16730000  1
  C  C4_5  1  0.50000000  0.00000000  0.66730000  1
  C  C4_6  1  0.50000000  0.50000000  0.16730000  1
  C  C4_7  1  0.50000000  0.50000000  0.66730000  1
  C  C5_0  1  0.00000000  0.00000000  0.33371150  1
  C  C5_1  1  0.00000000  0.00000000  0.83371150  1
  C  C5_2  1  0.00000000  0.50000000  0.33371150  1
  C  C5_3  1  0.00000000  0.50000000  0.83371150  1
  C  C5_4  1  0.50000000  0.00000000  0.33371150  1
  C  C5_5  1  0.50000000  0.00000000  0.83371150  1
  C  C5_6  1  0.50000000  0.50000000  0.33371150  1
  C  C5_7  1  0.50000000  0.50000000  0.83371150  1
loop_
_geom_bond_atom_site_label_1
_geom_bond_atom_site_label_2
_geom_bond_distance
_geom_bond_site_symmetry_2
Al0_0 V2_4 2.717497 1_555
Al0_0 V2_2 2.717497 1_545
Al0_0 V2_0 2.717501 1_555
Al0_0 Ta3_4 2.840373 1_555
Al0_0 Ta3_2 2.840373 1_545
Al0_0 Ta3_0 2.840376 1_555
Al0_0 Al0_6 2.993784 1_445
Al0_0 Al0_6 2.993784 1_555
Al0_0 Al0_4 2.993784 1_555
Al0_0 Al0_2 2.993784 1_545
Al0_0 Al0_4 2.993784 1_455
Al0_0 Al0_2 2.993784 1_555
Al0_1 V2_5 2.717497 1_555
Al0_1 V2_3 2.717497 1_545
Al0_1 V2_1 2.717501 1_555
Al0_1 Ta3_5 2.840373 1_555
Al0_1 Ta3_3 2.840373 1_545
Al0_1 Ta3_1 2.840376 1_555
Al0_1 Al0_7 2.993784 1_445
Al0_1 Al0_7 2.993784 1_555
Al0_1 Al0_3 2.993784 1_545
Al0_1 Al0_5 2.993784 1_555
Al0_1 Al0_5 2.993784 1_455
Al0_1 Al0_3 2.993784 1_555
Al0_2 V2_6 2.717497 1_555
Al0_2 V2_0 2.717497 1_555
Al0_2 V2_2 2.717501 1_555
Al0_2 Ta3_6 2.840373 1_555
Al0_2 Ta3_0 2.840373 1_555
Al0_2 Ta3_2 2.840376 1_555
Al0_2 Al0_4 2.993784 1_565
Al0_2 Al0_4 2.993784 1_455
Al0_2 Al0_6 2.993784 1_555
Al0_2 Al0_6 2.993784 1_455
Al0_3 V2_7 2.717497 1_555
Al0_3 V2_1 2.717497 1_555
Al0_3 V2_3 2.717501 1_555
Al0_3 Ta3_7 2.840373 1_555
Al0_3 Ta3_1 2.840373 1_555
Al0_3 Ta3_3 2.840376 1_555
Al0_3 Al0_5 2.993784 1_565
Al0_3 Al0_5 2.993784 1_455
Al0_3 Al0_7 2.993784 1_555
Al0_3 Al0_7 2.993784 1_455
Al0_4 V2_6 2.717497 1_545
Al0_4 V2_0 2.717497 1_655
Al0_4 V2_4 2.717501 1_555
Al0_4 Ta3_6 2.840373 1_545
Al0_4 Ta3_0 2.840373 1_655
Al0_4 Ta3_4 2.840376 1_555
Al0_4 Al0_6 2.993784 1_545
Al0_4 Al0_6 2.993784 1_555
Al0_5 V2_7 2.717497 1_545
Al0_5 V2_1 2.717497 1_655
Al0_5 V2_5 2.717501 1_555
Al0_5 Ta3_7 2.840373 1_545
Al0_5 Ta3_1 2.840373 1_655
Al0_5 Ta3_5 2.840376 1_555
Al0_5 Al0_7 2.993784 1_545
Al0_5 Al0_7 2.993784 1_555
Al0_6 V2_4 2.717497 1_555
Al0_6 V2_2 2.717497 1_655
Al0_6 V2_6 2.717501 1_555
Al0_6 Ta3_4 2.840373 1_555
Al0_6 Ta3_2 2.840373 1_655
Al0_6 Ta3_6 2.840376 1_555
Al0_7 V2_3 2.717497 1_655
Al0_7 V2_5 2.717497 1_555
Al0_7 V2_7 2.717501 1_555
Al0_7 Ta3_3 2.840373 1_655
Al0_7 Ta3_5 2.840373 1_555
Al0_7 Ta3_7 2.840376 1_555
Al1_0 V3_4 2.771698 1_555
Al1_0 V3_2 2.771698 1_545
Al1_0 V3_0 2.771701 1_555
Al1_0 V0_4 2.775124 1_555
Al1_0 V0_2 2.775124 1_545
Al1_0 V0_0 2.775128 1_555
Al1_0 Al1_6 2.993784 1_445
Al1_0 Al1_6 2.993784 1_555
Al1_0 Al1_4 2.993784 1_555
Al1_0 Al1_2 2.993784 1_545
Al1_0 Al1_4 2.993784 1_455
Al1_0 Al1_2 2.993784 1_555
Al1_1 V3_5 2.771698 1_555
Al1_1 V3_3 2.771698 1_545
Al1_1 V3_1 2.771701 1_555
Al1_1 V0_5 2.775124 1_555
Al1_1 V0_3 2.775124 1_545
Al1_1 V0_1 2.775128 1_555
Al1_1 Al1_7 2.993784 1_555
Al1_1 Al1_7 2.993784 1_445
Al1_1 Al1_3 2.993784 1_545
Al1_1 Al1_5 2.993784 1_555
Al1_1 Al1_3 2.993784 1_555
Al1_1 Al1_5 2.993784 1_455
Al1_2 V3_6 2.771698 1_555
Al1_2 V3_0 2.771698 1_555
Al1_2 V3_2 2.771701 1_555
Al1_2 V0_6 2.775124 1_555
Al1_2 V0_0 2.775124 1_555
Al1_2 V0_2 2.775128 1_555
Al1_2 Al1_4 2.993784 1_455
Al1_2 Al1_4 2.993784 1_565
Al1_2 Al1_6 2.993784 1_555
Al1_2 Al1_6 2.993784 1_455
Al1_3 V3_7 2.771698 1_555
Al1_3 V3_1 2.771698 1_555
Al1_3 V3_3 2.771701 1_555
Al1_3 V0_7 2.775124 1_555
Al1_3 V0_1 2.775124 1_555
Al1_3 V0_3 2.775128 1_555
Al1_3 Al1_5 2.993784 1_455
Al1_3 Al1_5 2.993784 1_565
Al1_3 Al1_7 2.993784 1_555
Al1_3 Al1_7 2.993784 1_455
Al1_4 V3_6 2.771698 1_545
Al1_4 V3_0 2.771698 1_655
Al1_4 V3_4 2.771701 1_555
Al1_4 V0_6 2.775124 1_545
Al1_4 V0_0 2.775124 1_655
Al1_4 V0_4 2.775128 1_555
Al1_4 Al1_6 2.993784 1_545
Al1_4 Al1_6 2.993784 1_555
Al1_5 V3_7 2.771698 1_545
Al1_5 V3_1 2.771698 1_655
Al1_5 V3_5 2.771701 1_555
Al1_5 V0_7 2.775124 1_545
Al1_5 V0_1 2.775124 1_655
Al1_5 V0_5 2.775128 1_555
Al1_5 Al1_7 2.993784 1_545
Al1_5 Al1_7 2.993784 1_555
Al1_6 V3_2 2.771698 1_655
Al1_6 V3_4 2.771698 1_555
Al1_6 V3_6 2.771701 1_555
Al1_6 V0_4 2.775124 1_555
Al1_6 V0_2 2.775124 1_655
Al1_6 V0_6 2.775128 1_555
Al1_7 V3_5 2.771698 1_555
Al1_7 V3_3 2.771698 1_655
Al1_7 V3_7 2.771701 1_555
Al1_7 V0_3 2.775124 1_655
Al1_7 V0_5 2.775124 1_555
Al1_7 V0_7 2.775128 1_555
Al2_0 V4_4 2.778333 1_555
Al2_0 V4_2 2.778333 1_545
Al2_0 V4_0 2.778336 1_555
Al2_0 V1_4 2.781513 1_555
Al2_0 V1_2 2.781513 1_545
Al2_0 V1_0 2.781516 1_555
Al2_0 Al2_6 2.993784 1_445
Al2_0 Al2_6 2.993784 1_555
Al2_0 Al2_2 2.993784 1_545
Al2_0 Al2_4 2.993784 1_555
Al2_0 Al2_2 2.993784 1_555
Al2_0 Al2_4 2.993784 1_455
Al2_1 V4_5 2.778333 1_555
Al2_1 V4_3 2.778333 1_545
Al2_1 V4_1 2.778336 1_555
Al2_1 V1_5 2.781513 1_555
Al2_1 V1_3 2.781513 1_545
Al2_1 V1_1 2.781516 1_555
Al2_1 Al2_7 2.993784 1_445
Al2_1 Al2_7 2.993784 1_555
Al2_1 Al2_3 2.993784 1_545
Al2_1 Al2_5 2.993784 1_555
Al2_1 Al2_5 2.993784 1_455
Al2_1 Al2_3 2.993784 1_555
Al2_2 V4_6 2.778333 1_555
Al2_2 V4_0 2.778333 1_555
Al2_2 V4_2 2.778336 1_555
Al2_2 V1_6 2.781513 1_555
Al2_2 V1_0 2.781513 1_555
Al2_2 V1_2 2.781516 1_555
Al2_2 Al2_4 2.993784 1_565
Al2_2 Al2_4 2.993784 1_455
Al2_2 Al2_6 2.993784 1_555
Al2_2 Al2_6 2.993784 1_455
Al2_3 V4_7 2.778333 1_555
Al2_3 V4_1 2.778333 1_555
Al2_3 V4_3 2.778336 1_555
Al2_3 V1_7 2.781513 1_555
Al2_3 V1_1 2.781513 1_555
Al2_3 V1_3 2.781516 1_555
Al2_3 Al2_5 2.993784 1_565
Al2_3 Al2_5 2.993784 1_455
Al2_3 Al2_7 2.993784 1_555
Al2_3 Al2_7 2.993784 1_455
Al2_4 V4_6 2.778333 1_545
Al2_4 V4_0 2.778333 1_655
Al2_4 V4_4 2.778336 1_555
Al2_4 V1_6 2.781513 1_545
Al2_4 V1_0 2.781513 1_655
Al2_4 V1_4 2.781516 1_555
Al2_4 Al2_6 2.993784 1_545
Al2_4 Al2_6 2.993784 1_555
Al2_5 V4_7 2.778333 1_545
Al2_5 V4_1 2.778333 1_655
Al2_5 V4_5 2.778336 1_555
Al2_5 V1_7 2.781513 1_545
Al2_5 V1_1 2.781513 1_655
Al2_5 V1_5 2.781516 1_555
Al2_5 Al2_7 2.993784 1_545
Al2_5 Al2_7 2.993784 1_555
Al2_6 V4_4 2.778333 1_555
Al2_6 V4_2 2.778333 1_655
Al2_6 V4_6 2.778336 1_555
Al2_6 V1_2 2.781513 1_655
Al2_6 V1_4 2.781513 1_555
Al2_6 V1_6 2.781516 1_555
Al2_7 V4_5 2.778333 1_555
Al2_7 V4_3 2.778333 1_655
Al2_7 V4_7 2.778336 1_555
Al2_7 V1_3 2.781513 1_655
Al2_7 V1_5 2.781513 1_555
Al2_7 V1_7 2.781516 1_555
Al3_0 V5_2 2.722991 1_555
Al3_0 V5_4 2.722991 1_455
Al3_0 V5_0 2.722995 1_555
Al3_0 Ta0_4 2.844489 1_455
Al3_0 Ta0_2 2.844489 1_555
Al3_0 Ta0_0 2.844493 1_555
Al3_0 Al3_6 2.993784 1_555
Al3_0 Al3_6 2.993784 1_445
Al3_0 Al3_2 2.993784 1_555
Al3_0 Al3_4 2.993784 1_555
Al3_0 Al3_4 2.993784 1_455
Al3_0 Al3_2 2.993784 1_545
Al3_1 V5_3 2.722991 1_555
Al3_1 V5_5 2.722991 1_455
Al3_1 V5_1 2.722995 1_555
Al3_1 Ta0_5 2.844489 1_455
Al3_1 Ta0_3 2.844489 1_555
Al3_1 Ta0_1 2.844493 1_555
Al3_1 Al3_7 2.993784 1_445
Al3_1 Al3_7 2.993784 1_555
Al3_1 Al3_5 2.993784 1_555
Al3_1 Al3_3 2.993784 1_555
Al3_1 Al3_5 2.993784 1_455
Al3_1 Al3_3 2.993784 1_545
Al3_2 V5_6 2.722991 1_455
Al3_2 V5_0 2.722991 1_565
Al3_2 V5_2 2.722995 1_555
Al3_2 Ta0_6 2.844489 1_455
Al3_2 Ta0_0 2.844489 1_565
Al3_2 Ta0_2 2.844493 1_555
Al3_2 Al3_4 2.993784 1_455
Al3_2 Al3_4 2.993784 1_565
Al3_2 Al3_6 2.993784 1_555
Al3_2 Al3_6 2.993784 1_455
Al3_3 V5_1 2.722991 1_565
Al3_3 V5_7 2.722991 1_455
Al3_3 V5_3 2.722995 1_555
Al3_3 Ta0_1 2.844489 1_565
Al3_3 Ta0_7 2.844489 1_455
Al3_3 Ta0_3 2.844493 1_555
Al3_3 Al3_5 2.993784 1_455
Al3_3 Al3_5 2.993784 1_565
Al3_3 Al3_7 2.993784 1_555
Al3_3 Al3_7 2.993784 1_455
Al3_4 V5_0 2.722991 1_555
Al3_4 V5_6 2.722991 1_555
Al3_4 V5_4 2.722995 1_555
Al3_4 Ta0_0 2.844489 1_555
Al3_4 Ta0_6 2.844489 1_555
Al3_4 Ta0_4 2.844493 1_555
Al3_4 Al3_6 2.993784 1_545
Al3_4 Al3_6 2.993784 1_555
Al3_5 V5_1 2.722991 1_555
Al3_5 V5_7 2.722991 1_555
Al3_5 V5_5 2.722995 1_555
Al3_5 Ta0_1 2.844489 1_555
Al3_5 Ta0_7 2.844489 1_555
Al3_5 Ta0_5 2.844493 1_555
Al3_5 Al3_7 2.993784 1_545
Al3_5 Al3_7 2.993784 1_555
Al3_6 V5_4 2.722991 1_565
Al3_6 V5_2 2.722991 1_555
Al3_6 V5_6 2.722995 1_555
Al3_6 Ta0_4 2.844489 1_565
Al3_6 Ta0_2 2.844489 1_555
Al3_6 Ta0_6 2.844493 1_555
Al3_7 V5_3 2.722991 1_555
Al3_7 V5_5 2.722991 1_565
Al3_7 V5_7 2.722995 1_555
Al3_7 Ta0_3 2.844489 1_555
Al3_7 Ta0_5 2.844489 1_565
Al3_7 Ta0_7 2.844493 1_555
Al4_0 V6_4 2.754888 1_455
Al4_0 V6_2 2.754888 1_555
Al4_0 V6_0 2.754892 1_555
Al4_0 Ta1_4 2.890931 1_455
Al4_0 Ta1_2 2.890931 1_555
Al4_0 Ta1_0 2.890934 1_555
Al4_0 Al4_6 2.993784 1_555
Al4_0 Al4_6 2.993784 1_445
Al4_0 Al4_2 2.993784 1_555
Al4_0 Al4_4 2.993784 1_555
Al4_0 Al4_4 2.993784 1_455
Al4_0 Al4_2 2.993784 1_545
Al4_1 V6_3 2.754888 1_555
Al4_1 V6_5 2.754888 1_455
Al4_1 V6_1 2.754892 1_555
Al4_1 Ta1_3 2.890931 1_555
Al4_1 Ta1_5 2.890931 1_455
Al4_1 Ta1_1 2.890934 1_555
Al4_1 Al4_7 2.993784 1_555
Al4_1 Al4_7 2.993784 1_445
Al4_1 Al4_5 2.993784 1_555
Al4_1 Al4_3 2.993784 1_555
Al4_1 Al4_5 2.993784 1_455
Al4_1 Al4_3 2.993784 1_545
Al4_2 V6_6 2.754888 1_455
Al4_2 V6_0 2.754888 1_565
Al4_2 V6_2 2.754892 1_555
Al4_2 Ta1_6 2.890931 1_455
Al4_2 Ta1_0 2.890931 1_565
Al4_2 Ta1_2 2.890934 1_555
Al4_2 Al4_4 2.993784 1_565
Al4_2 Al4_4 2.993784 1_455
Al4_2 Al4_6 2.993784 1_555
Al4_2 Al4_6 2.993784 1_455
Al4_3 V6_1 2.754888 1_565
Al4_3 V6_7 2.754888 1_455
Al4_3 V6_3 2.754892 1_555
Al4_3 Ta1_7 2.890931 1_455
Al4_3 Ta1_1 2.890931 1_565
Al4_3 Ta1_3 2.890934 1_555
Al4_3 Al4_5 2.993784 1_455
Al4_3 Al4_5 2.993784 1_565
Al4_3 Al4_7 2.993784 1_555
Al4_3 Al4_7 2.993784 1_455
Al4_4 V6_0 2.754888 1_555
Al4_4 V6_6 2.754888 1_555
Al4_4 V6_4 2.754892 1_555
Al4_4 Ta1_0 2.890931 1_555
Al4_4 Ta1_6 2.890931 1_555
Al4_4 Ta1_4 2.890934 1_555
Al4_4 Al4_6 2.993784 1_545
Al4_4 Al4_6 2.993784 1_555
Al4_5 V6_1 2.754888 1_555
Al4_5 V6_7 2.754888 1_555
Al4_5 V6_5 2.754892 1_555
Al4_5 Ta1_1 2.890931 1_555
Al4_5 Ta1_7 2.890931 1_555
Al4_5 Ta1_5 2.890934 1_555
Al4_5 Al4_7 2.993784 1_545
Al4_5 Al4_7 2.993784 1_555
Al4_6 V6_4 2.754888 1_565
Al4_6 V6_2 2.754888 1_555
Al4_6 V6_6 2.754892 1_555
Al4_6 Ta1_4 2.890931 1_565
Al4_6 Ta1_2 2.890931 1_555
Al4_6 Ta1_6 2.890934 1_555
Al4_7 V6_3 2.754888 1_555
Al4_7 V6_5 2.754888 1_565
Al4_7 V6_7 2.754892 1_555
Al4_7 Ta1_5 2.890931 1_565
Al4_7 Ta1_3 2.890931 1_555
Al4_7 Ta1_7 2.890934 1_555
Al5_0 V7_2 2.738426 1_555
Al5_0 V7_4 2.738426 1_455
Al5_0 V7_0 2.738429 1_555
Al5_0 Ta2_4 2.881177 1_455
Al5_0 Ta2_2 2.881177 1_555
Al5_0 Ta2_0 2.881180 1_555
Al5_0 Al5_6 2.993784 1_555
Al5_0 Al5_6 2.993784 1_445
Al5_0 Al5_2 2.993784 1_555
Al5_0 Al5_4 2.993784 1_555
Al5_0 Al5_4 2.993784 1_455
Al5_0 Al5_2 2.993784 1_545
Al5_1 V7_3 2.738426 1_555
Al5_1 V7_5 2.738426 1_455
Al5_1 V7_1 2.738429 1_555
Al5_1 Ta2_3 2.881177 1_555
Al5_1 Ta2_5 2.881177 1_455
Al5_1 Ta2_1 2.881180 1_555
Al5_1 Al5_7 2.993784 1_555
Al5_1 Al5_7 2.993784 1_445
Al5_1 Al5_5 2.993784 1_555
Al5_1 Al5_3 2.993784 1_555
Al5_1 Al5_5 2.993784 1_455
Al5_1 Al5_3 2.993784 1_545
Al5_2 V7_6 2.738426 1_455
Al5_2 V7_0 2.738426 1_565
Al5_2 V7_2 2.738429 1_555
Al5_2 Ta2_0 2.881177 1_565
Al5_2 Ta2_6 2.881177 1_455
Al5_2 Ta2_2 2.881180 1_555
Al5_2 Al5_4 2.993784 1_455
Al5_2 Al5_4 2.993784 1_565
Al5_2 Al5_6 2.993784 1_555
Al5_2 Al5_6 2.993784 1_455
Al5_3 V7_7 2.738426 1_455
Al5_3 V7_1 2.738426 1_565
Al5_3 V7_3 2.738429 1_555
Al5_3 Ta2_7 2.881177 1_455
Al5_3 Ta2_1 2.881177 1_565
Al5_3 Ta2_3 2.881180 1_555
Al5_3 Al5_5 2.993784 1_565
Al5_3 Al5_5 2.993784 1_455
Al5_3 Al5_7 2.993784 1_555
Al5_3 Al5_7 2.993784 1_455
Al5_4 V7_0 2.738426 1_555
Al5_4 V7_6 2.738426 1_555
Al5_4 V7_4 2.738429 1_555
Al5_4 Ta2_0 2.881177 1_555
Al5_4 Ta2_6 2.881177 1_555
Al5_4 Ta2_4 2.881180 1_555
Al5_4 Al5_6 2.993784 1_545
Al5_4 Al5_6 2.993784 1_555
Al5_5 V7_7 2.738426 1_555
Al5_5 V7_1 2.738426 1_555
Al5_5 V7_5 2.738429 1_555
Al5_5 Ta2_7 2.881177 1_555
Al5_5 Ta2_1 2.881177 1_555
Al5_5 Ta2_5 2.881180 1_555
Al5_5 Al5_7 2.993784 1_545
Al5_5 Al5_7 2.993784 1_555
Al5_6 V7_4 2.738426 1_565
Al5_6 V7_2 2.738426 1_555
Al5_6 V7_6 2.738429 1_555
Al5_6 Ta2_4 2.881177 1_565
Al5_6 Ta2_2 2.881177 1_555
Al5_6 Ta2_6 2.881180 1_555
Al5_7 V7_3 2.738426 1_555
Al5_7 V7_5 2.738426 1_565
Al5_7 V7_7 2.738429 1_555
Al5_7 Ta2_3 2.881177 1_555
Al5_7 Ta2_5 2.881177 1_565
Al5_7 Ta2_7 2.881180 1_555
C0_0 Ta0_4 2.159007 1_455
C0_0 Ta0_0 2.159009 1_555
C0_0 Ta0_6 2.159009 1_445
C0_0 Ta3_2 2.159224 1_545
C0_0 Ta3_0 2.159226 1_555
C0_0 Ta3_6 2.159226 1_445
C0_1 Ta0_5 2.159007 1_455
C0_1 Ta0_1 2.159009 1_555
C0_1 Ta0_7 2.159009 1_445
C0_1 Ta3_3 2.159224 1_545
C0_1 Ta3_1 2.159226 1_555
C0_1 Ta3_7 2.159226 1_445
C0_2 Ta0_6 2.159007 1_455
C0_2 Ta0_4 2.159009 1_455
C0_2 Ta0_2 2.159009 1_555
C0_2 Ta3_0 2.159224 1_555
C0_2 Ta3_2 2.159226 1_555
C0_2 Ta3_4 2.159226 1_455
C0_3 Ta0_7 2.159007 1_455
C0_3 Ta0_3 2.159009 1_555
C0_3 Ta0_5 2.159009 1_455
C0_3 Ta3_1 2.159224 1_555
C0_3 Ta3_3 2.159226 1_555
C0_3 Ta3_5 2.159226 1_455
C0_4 Ta0_0 2.159007 1_555
C0_4 Ta0_4 2.159009 1_555
C0_4 Ta0_2 2.159009 1_545
C0_4 Ta3_6 2.159224 1_545
C0_4 Ta3_4 2.159226 1_555
C0_4 Ta3_2 2.159226 1_545
C0_5 Ta0_1 2.159007 1_555
C0_5 Ta0_3 2.159009 1_545
C0_5 Ta0_5 2.159009 1_555
C0_5 Ta3_7 2.159224 1_545
C0_5 Ta3_3 2.159226 1_545
C0_5 Ta3_5 2.159226 1_555
C0_6 Ta0_2 2.159007 1_555
C0_6 Ta0_0 2.159009 1_555
C0_6 Ta0_6 2.159009 1_555
C0_6 Ta3_4 2.159224 1_555
C0_6 Ta3_0 2.159226 1_555
C0_6 Ta3_6 2.159226 1_555
C0_7 Ta0_3 2.159007 1_555
C0_7 Ta0_1 2.159009 1_555
C0_7 Ta0_7 2.159009 1_555
C0_7 Ta3_5 2.159224 1_555
C0_7 Ta3_1 2.159226 1_555
C0_7 Ta3_7 2.159226 1_555
C1_0 V0_2 2.035032 1_545
C1_0 V0_0 2.035034 1_555
C1_0 V0_6 2.035034 1_445
C1_0 Ta1_4 2.175081 1_455
C1_0 Ta1_6 2.175083 1_445
C1_0 Ta1_0 2.175083 1_555
C1_1 V0_3 2.035032 1_545
C1_1 V0_1 2.035034 1_555
C1_1 V0_7 2.035034 1_445
C1_1 Ta1_5 2.175081 1_455
C1_1 Ta1_7 2.175083 1_445
C1_1 Ta1_1 2.175083 1_555
C1_2 V0_0 2.035032 1_555
C1_2 V0_2 2.035034 1_555
C1_2 V0_4 2.035034 1_455
C1_2 Ta1_6 2.175081 1_455
C1_2 Ta1_2 2.175083 1_555
C1_2 Ta1_4 2.175083 1_455
C1_3 V0_1 2.035032 1_555
C1_3 V0_3 2.035034 1_555
C1_3 V0_5 2.035034 1_455
C1_3 Ta1_7 2.175081 1_455
C1_3 Ta1_5 2.175083 1_455
C1_3 Ta1_3 2.175083 1_555
C1_4 V0_6 2.035032 1_545
C1_4 V0_4 2.035034 1_555
C1_4 V0_2 2.035034 1_545
C1_4 Ta1_0 2.175081 1_555
C1_4 Ta1_4 2.175083 1_555
C1_4 Ta1_2 2.175083 1_545
C1_5 V0_7 2.035032 1_545
C1_5 V0_3 2.035034 1_545
C1_5 V0_5 2.035034 1_555
C1_5 Ta1_1 2.175081 1_555
C1_5 Ta1_3 2.175083 1_545
C1_5 Ta1_5 2.175083 1_555
C1_6 V0_4 2.035032 1_555
C1_6 V0_6 2.035034 1_555
C1_6 V0_0 2.035034 1_555
C1_6 Ta1_2 2.175081 1_555
C1_6 Ta1_6 2.175083 1_555
C1_6 Ta1_0 2.175083 1_555
C1_7 V0_5 2.035032 1_555
C1_7 V0_1 2.035034 1_555
C1_7 V0_7 2.035034 1_555
C1_7 Ta1_3 2.175081 1_555
C1_7 Ta1_7 2.175083 1_555
C1_7 Ta1_1 2.175083 1_555
C2_0 V1_2 2.035860 1_545
C2_0 V1_0 2.035862 1_555
C2_0 V1_6 2.035862 1_445
C2_0 Ta2_4 2.173106 1_455
C2_0 Ta2_0 2.173108 1_555
C2_0 Ta2_6 2.173108 1_445
C2_1 V1_3 2.035860 1_545
C2_1 V1_1 2.035862 1_555
C2_1 V1_7 2.035862 1_445
C2_1 Ta2_5 2.173106 1_455
C2_1 Ta2_1 2.173108 1_555
C2_1 Ta2_7 2.173108 1_445
C2_2 V1_0 2.035860 1_555
C2_2 V1_2 2.035862 1_555
C2_2 V1_4 2.035862 1_455
C2_2 Ta2_6 2.173106 1_455
C2_2 Ta2_2 2.173108 1_555
C2_2 Ta2_4 2.173108 1_455
C2_3 V1_1 2.035860 1_555
C2_3 V1_3 2.035862 1_555
C2_3 V1_5 2.035862 1_455
C2_3 Ta2_7 2.173106 1_455
C2_3 Ta2_3 2.173108 1_555
C2_3 Ta2_5 2.173108 1_455
C2_4 V1_6 2.035860 1_545
C2_4 V1_2 2.035862 1_545
C2_4 V1_4 2.035862 1_555
C2_4 Ta2_0 2.173106 1_555
C2_4 Ta2_4 2.173108 1_555
C2_4 Ta2_2 2.173108 1_545
C2_5 V1_7 2.035860 1_545
C2_5 V1_3 2.035862 1_545
C2_5 V1_5 2.035862 1_555
C2_5 Ta2_1 2.173106 1_555
C2_5 Ta2_5 2.173108 1_555
C2_5 Ta2_3 2.173108 1_545
C2_6 V1_4 2.035860 1_555
C2_6 V1_0 2.035862 1_555
C2_6 V1_6 2.035862 1_555
C2_6 Ta2_2 2.173106 1_555
C2_6 Ta2_0 2.173108 1_555
C2_6 Ta2_6 2.173108 1_555
C2_7 V1_5 2.035860 1_555
C2_7 V1_1 2.035862 1_555
C2_7 V1_7 2.035862 1_555
C2_7 Ta2_3 2.173106 1_555
C2_7 Ta2_1 2.173108 1_555
C2_7 Ta2_7 2.173108 1_555
C3_0 V2_3 2.037008 1_545
C3_0 V2_1 2.037010 1_555
C3_0 V2_7 2.037010 1_445
C3_0 V7_4 2.038754 1_455
C3_0 V7_6 2.038756 1_445
C3_0 V7_0 2.038756 1_555
C3_1 V2_2 2.037008 1_546
C3_1 V2_0 2.037010 1_556
C3_1 V2_6 2.037010 1_446
C3_1 V7_5 2.038754 1_455
C3_1 V7_7 2.038756 1_445
C3_1 V7_1 2.038756 1_555
C3_2 V2_1 2.037008 1_555
C3_2 V2_3 2.037010 1_555
C3_2 V2_5 2.037010 1_455
C3_2 V7_6 2.038754 1_455
C3_2 V7_4 2.038756 1_455
C3_2 V7_2 2.038756 1_555
C3_3 V2_0 2.037008 1_556
C3_3 V2_2 2.037010 1_556
C3_3 V2_4 2.037010 1_456
C3_3 V7_7 2.038754 1_455
C3_3 V7_3 2.038756 1_555
C3_3 V7_5 2.038756 1_455
C3_4 V2_7 2.037008 1_545
C3_4 V2_5 2.037010 1_555
C3_4 V2_3 2.037010 1_545
C3_4 V7_0 2.038754 1_555
C3_4 V7_4 2.038756 1_555
C3_4 V7_2 2.038756 1_545
C3_5 V2_6 2.037008 1_546
C3_5 V2_4 2.037010 1_556
C3_5 V2_2 2.037010 1_546
C3_5 V7_1 2.038754 1_555
C3_5 V7_5 2.038756 1_555
C3_5 V7_3 2.038756 1_545
C3_6 V2_5 2.037008 1_555
C3_6 V2_1 2.037010 1_555
C3_6 V2_7 2.037010 1_555
C3_6 V7_2 2.038754 1_555
C3_6 V7_6 2.038756 1_555
C3_6 V7_0 2.038756 1_555
C3_7 V2_4 2.037008 1_556
C3_7 V2_0 2.037010 1_556
C3_7 V2_6 2.037010 1_556
C3_7 V7_3 2.038754 1_555
C3_7 V7_7 2.038756 1_555
C3_7 V7_1 2.038756 1_555
C4_0 V5_4 2.043114 1_455
C4_0 V5_6 2.043116 1_445
C4_0 V5_0 2.043116 1_555
C4_0 V3_2 2.045002 1_545
C4_0 V3_0 2.045004 1_555
C4_0 V3_6 2.045004 1_445
C4_1 V5_5 2.043114 1_455
C4_1 V5_1 2.043116 1_555
C4_1 V5_7 2.043116 1_445
C4_1 V3_3 2.045002 1_545
C4_1 V3_1 2.045004 1_555
C4_1 V3_7 2.045004 1_445
C4_2 V5_6 2.043114 1_455
C4_2 V5_2 2.043116 1_555
C4_2 V5_4 2.043116 1_455
C4_2 V3_0 2.045002 1_555
C4_2 V3_2 2.045004 1_555
C4_2 V3_4 2.045004 1_455
C4_3 V5_7 2.043114 1_455
C4_3 V5_3 2.043116 1_555
C4_3 V5_5 2.043116 1_455
C4_3 V3_1 2.045002 1_555
C4_3 V3_3 2.045004 1_555
C4_3 V3_5 2.045004 1_455
C4_4 V5_0 2.043114 1_555
C4_4 V5_2 2.043116 1_545
C4_4 V5_4 2.043116 1_555
C4_4 V3_6 2.045002 1_545
C4_4 V3_4 2.045004 1_555
C4_4 V3_2 2.045004 1_545
C4_5 V5_1 2.043114 1_555
C4_5 V5_5 2.043116 1_555
C4_5 V5_3 2.043116 1_545
C4_5 V3_7 2.045002 1_545
C4_5 V3_3 2.045004 1_545
C4_5 V3_5 2.045004 1_555
C4_6 V5_2 2.043114 1_555
C4_6 V5_6 2.043116 1_555
C4_6 V5_0 2.043116 1_555
C4_6 V3_4 2.045002 1_555
C4_6 V3_0 2.045004 1_555
C4_6 V3_6 2.045004 1_555
C4_7 V5_3 2.043114 1_555
C4_7 V5_7 2.043116 1_555
C4_7 V5_1 2.043116 1_555
C4_7 V3_5 2.045002 1_555
C4_7 V3_1 2.045004 1_555
C4_7 V3_7 2.045004 1_555
C5_0 V6_4 2.043543 1_455
C5_0 V6_0 2.043545 1_555
C5_0 V6_6 2.043545 1_445
C5_0 V4_2 2.043822 1_545
C5_0 V4_0 2.043824 1_555
C5_0 V4_6 2.043824 1_445
C5_1 V6_5 2.043543 1_455
C5_1 V6_7 2.043545 1_445
C5_1 V6_1 2.043545 1_555
C5_1 V4_3 2.043822 1_545
C5_1 V4_1 2.043824 1_555
C5_1 V4_7 2.043824 1_445
C5_2 V6_6 2.043543 1_455
C5_2 V6_2 2.043545 1_555
C5_2 V6_4 2.043545 1_455
C5_2 V4_0 2.043822 1_555
C5_2 V4_2 2.043824 1_555
C5_2 V4_4 2.043824 1_455
C5_3 V6_7 2.043543 1_455
C5_3 V6_3 2.043545 1_555
C5_3 V6_5 2.043545 1_455
C5_3 V4_1 2.043822 1_555
C5_3 V4_3 2.043824 1_555
C5_3 V4_5 2.043824 1_455
C5_4 V6_0 2.043543 1_555
C5_4 V6_2 2.043545 1_545
C5_4 V6_4 2.043545 1_555
C5_4 V4_6 2.043822 1_545
C5_4 V4_4 2.043824 1_555
C5_4 V4_2 2.043824 1_545
C5_5 V6_1 2.043543 1_555
C5_5 V6_5 2.043545 1_555
C5_5 V6_3 2.043545 1_545
C5_5 V4_7 2.043822 1_545
C5_5 V4_3 2.043824 1_545
C5_5 V4_5 2.043824 1_555
C5_6 V6_2 2.043543 1_555
C5_6 V6_6 2.043545 1_555
C5_6 V6_0 2.043545 1_555
C5_6 V4_4 2.043822 1_555
C5_6 V4_0 2.043824 1_555
C5_6 V4_6 2.043824 1_555
C5_7 V6_3 2.043543 1_555
C5_7 V6_7 2.043545 1_555
C5_7 V6_1 2.043545 1_555
C5_7 V4_5 2.043822 1_555
C5_7 V4_1 2.043824 1_555
C5_7 V4_7 2.043824 1_555
