# generated using pymatgen
data_Fe2Co9N8
_symmetry_space_group_name_H-M   'P 1'
_cell_length_a   8.76601735
_cell_length_b   3.77347026
_cell_length_c   6.00155752
_cell_angle_alpha   89.99999910
_cell_angle_beta   69.09560214
_cell_angle_gamma   77.57080757
_symmetry_Int_Tables_number   1
_chemical_formula_structural   Fe2Co9N8
_chemical_formula_sum   'Fe2 Co9 N8'
_cell_volume   180.46471555
_cell_formula_units_Z   1
loop_
 _symmetry_equiv_pos_site_id
 _symmetry_equiv_pos_as_xyz
  1  'x, y, z'
loop_
 _atom_site_type_symbol
 _atom_site_label
 _atom_site_symmetry_multiplicity
 _atom_site_fract_x
 _atom_site_fract_y
 _atom_site_fract_z
 _atom_site_occupancy
  Fe  Fe0  1  0.35245400  0.82377300  0.78666800  1
  Fe  Fe1  1  0.64754600  0.17622700  0.21333200  1
  Co  Co0  1  0.00000000  0.50000000  0.50000000  1
  Co  Co1  1  0.03311300  0.98344300  0.74389900  1
  Co  Co2  1  0.96688700  0.01655700  0.25610100  1
  Co  Co3  1  0.68582200  0.65708900  0.50083300  1
  Co  Co4  1  0.31417800  0.34291100  0.49916700  1
  Co  Co5  1  0.85164200  0.57417900  0.99202500  1
  Co  Co6  1  0.14835800  0.42582100  0.00797500  1
  Co  Co7  1  0.61139600  0.19430300  0.80703900  1
  Co  Co8  1  0.38860400  0.80569700  0.19296100  1
  N  N0  1  0.20121200  0.89939400  0.08984200  1
  N  N1  1  0.79878800  0.10060600  0.91015800  1
  N  N2  1  0.27884700  0.86057700  0.53953100  1
  N  N3  1  0.72115300  0.13942300  0.46046900  1
  N  N4  1  0.54835500  0.72582200  0.82463600  1
  N  N5  1  0.45164500  0.27417800  0.17536400  1
  N  N6  1  0.07810200  0.46095000  0.74188300  1
  N  N7  1  0.92189800  0.53905000  0.25811700  1
loop_
_geom_bond_atom_site_label_1
_geom_bond_atom_site_label_2
_geom_bond_distance
_geom_bond_site_symmetry_2
Fe0 N4 1.773014 1_555
Fe0 N0 1.807061 1_556
Fe0 N2 1.811050 1_555
Fe1 N5 1.773014 1_555
Fe1 N1 1.807061 1_554
Fe1 N3 1.811050 1_555
Co0 N6 1.806553 1_555
Co0 N7 1.806553 1_455
Co1 N1 1.885960 1_465
Co1 N6 1.924790 1_555
Co1 N6 1.924801 1_565
Co1 N2 2.011010 1_555
Co2 N0 1.885960 1_645
Co2 N7 1.924790 1_555
Co2 N7 1.924801 1_545
Co2 N3 2.011010 1_555
Co3 N4 1.868211 1_555
Co3 N3 1.912167 1_565
Co3 N3 1.912171 1_555
Co3 N7 2.013679 1_555
Co4 N5 1.868211 1_555
Co4 N2 1.912167 1_545
Co4 N2 1.912171 1_555
Co4 N6 2.013679 1_555
Co5 N7 1.901020 1_556
Co5 N6 1.971109 1_655
Co5 N1 2.041652 1_565
Co5 N1 2.041652 1_555
Co6 N6 1.901020 1_554
Co6 N7 1.971109 1_455
Co6 N0 2.041652 1_545
Co6 N0 2.041652 1_555
Co7 N1 1.918822 1_555
Co7 N3 1.944468 1_555
Co7 N4 1.954608 1_555
Co7 N4 1.954619 1_545
Co7 N5 2.132504 1_556
Co8 N0 1.918822 1_555
Co8 N2 1.944468 1_555
Co8 N5 1.954608 1_555
Co8 N5 1.954619 1_565
Co8 N4 2.132504 1_554
