# generated using pymatgen
data_LaGaPd2
_symmetry_space_group_name_H-M   'P 1'
_cell_length_a   5.85384590
_cell_length_b   7.04982271
_cell_length_c   7.68635602
_cell_angle_alpha   90.00000000
_cell_angle_beta   90.00000000
_cell_angle_gamma   90.00000000
_symmetry_Int_Tables_number   1
_chemical_formula_structural   LaGaPd2
_chemical_formula_sum   'La4 Ga4 Pd8'
_cell_volume   317.20496578
_cell_formula_units_Z   4
loop_
 _symmetry_equiv_pos_site_id
 _symmetry_equiv_pos_as_xyz
  1  'x, y, z'
loop_
 _atom_site_type_symbol
 _atom_site_label
 _atom_site_symmetry_multiplicity
 _atom_site_fract_x
 _atom_site_fract_y
 _atom_site_fract_z
 _atom_site_occupancy
  La  La0  1  0.34637715  0.75000000  0.03510971  1
  La  La1  1  0.15364181  0.75000000  0.53510498  1
  La  La2  1  0.65364181  0.25000000  0.96489502  1
  La  La3  1  0.84637715  0.25000000  0.46489029  1
  Ga  Ga0  1  0.65480363  0.75000000  0.37772911  1
  Ga  Ga1  1  0.84522096  0.75000000  0.87771279  1
  Ga  Ga2  1  0.34522096  0.25000000  0.62228721  1
  Ga  Ga3  1  0.15480363  0.25000000  0.12227089  1
  Pd  Pd0  1  0.91289645  0.55296234  0.17483286  1
  Pd  Pd1  1  0.58708277  0.94704841  0.67486695  1
  Pd  Pd2  1  0.08708277  0.05295159  0.82513305  1
  Pd  Pd3  1  0.41289645  0.44703766  0.32516714  1
  Pd  Pd4  1  0.08708277  0.44704841  0.82513305  1
  Pd  Pd5  1  0.41289645  0.05296234  0.32516714  1
  Pd  Pd6  1  0.91289645  0.94703766  0.17483286  1
  Pd  Pd7  1  0.58708277  0.55295159  0.67486695  1
loop_
_geom_bond_atom_site_label_1
_geom_bond_atom_site_label_2
_geom_bond_distance
_geom_bond_site_symmetry_2
La0 Pd2 3.077374 1_564
La0 Pd4 3.077374 1_554
La0 Pd6 3.085773 1_455
La0 Pd0 3.085773 1_455
La0 Pd3 3.111913 1_555
La0 Pd5 3.111913 1_565
La0 Pd7 3.403277 1_554
La0 Pd1 3.403277 1_554
La1 Pd3 3.077155 1_555
La1 Pd5 3.077155 1_565
La1 Pd7 3.085719 1_555
La1 Pd1 3.085719 1_555
La1 Pd2 3.111728 1_565
La1 Pd4 3.111728 1_555
La1 Pd6 3.403526 1_455
La1 Pd0 3.403526 1_455
La2 Pd0 3.077155 1_556
La2 Pd6 3.077155 1_546
La2 Pd4 3.085719 1_655
La2 Pd2 3.085719 1_655
La2 Pd1 3.111728 1_545
La2 Pd7 3.111728 1_555
La2 Pd3 3.403526 1_556
La2 Pd5 3.403526 1_556
La3 Pd1 3.077374 1_545
La3 Pd7 3.077374 1_555
La3 Pd5 3.085773 1_555
La3 Pd3 3.085773 1_555
La3 Pd0 3.111913 1_555
La3 Pd6 3.111913 1_545
La3 Pd4 3.403277 1_655
La3 Pd2 3.403277 1_655
Ga0 Pd0 2.577656 1_555
Ga0 Pd6 2.577656 1_555
Ga0 Pd3 2.594282 1_555
Ga0 Pd5 2.594282 1_565
Ga0 Pd1 2.702433 1_555
Ga0 Pd7 2.702433 1_555
Ga0 La1 3.160753 1_655
Ga0 La1 3.173324 1_555
Ga0 La0 3.192970 1_555
Ga1 Pd7 2.577618 1_555
Ga1 Pd1 2.577618 1_555
Ga1 Pd2 2.594096 1_665
Ga1 Pd4 2.594096 1_655
Ga1 Pd6 2.702239 1_556
Ga1 Pd0 2.702239 1_556
Ga1 La0 3.160845 1_556
Ga1 La0 3.173355 1_656
Ga1 La1 3.192878 1_655
Ga2 Pd2 2.577618 1_555
Ga2 Pd4 2.577618 1_555
Ga2 Pd1 2.594096 1_545
Ga2 Pd7 2.594096 1_555
Ga2 Pd5 2.702239 1_555
Ga2 Pd3 2.702239 1_555
Ga2 La3 3.160845 1_455
Ga2 La3 3.173355 1_555
Ga2 La2 3.192878 1_555
Ga3 Pd5 2.577656 1_555
Ga3 Pd3 2.577656 1_555
Ga3 Pd0 2.594282 1_455
Ga3 Pd6 2.594282 1_445
Ga3 Pd2 2.702433 1_554
Ga3 Pd4 2.702433 1_554
Ga3 La2 3.160753 1_554
Ga3 La2 3.173324 1_454
Ga3 La3 3.192970 1_455
