# generated using pymatgen
data_Mg10Si3(O7F2)2
_symmetry_space_group_name_H-M   'P 1'
_cell_length_a   5.09981100
_cell_length_b   8.74149100
_cell_length_c   14.10028600
_cell_angle_alpha   90.00000000
_cell_angle_beta   90.00000000
_cell_angle_gamma   90.00000000
_symmetry_Int_Tables_number   1
_chemical_formula_structural   Mg10Si3(O7F2)2
_chemical_formula_sum   'Mg20 Si6 O28 F8'
_cell_volume   628.59007248
_cell_formula_units_Z   2
loop_
 _symmetry_equiv_pos_site_id
 _symmetry_equiv_pos_as_xyz
  1  'x, y, z'
loop_
 _atom_site_type_symbol
 _atom_site_label
 _atom_site_symmetry_multiplicity
 _atom_site_fract_x
 _atom_site_fract_y
 _atom_site_fract_z
 _atom_site_occupancy
  Mg  Mg0  1  0.66613700  0.50000000  0.32883500  1
  Mg  Mg1  1  0.33386300  0.50000000  0.67116500  1
  Mg  Mg2  1  0.16613700  0.00000000  0.17116500  1
  Mg  Mg3  1  0.83386300  0.00000000  0.82883500  1
  Mg  Mg4  1  0.65250500  0.82029800  0.17564200  1
  Mg  Mg5  1  0.34749500  0.82029800  0.82435800  1
  Mg  Mg6  1  0.15250500  0.67970200  0.32435800  1
  Mg  Mg7  1  0.84749500  0.67970200  0.67564200  1
  Mg  Mg8  1  0.34749500  0.17970200  0.82435800  1
  Mg  Mg9  1  0.65250500  0.17970200  0.17564200  1
  Mg  Mg10  1  0.84749500  0.32029800  0.67564200  1
  Mg  Mg11  1  0.15250500  0.32029800  0.32435800  1
  Mg  Mg12  1  0.00000000  0.81700500  0.00000000  1
  Mg  Mg13  1  0.50000000  0.68299500  0.50000000  1
  Mg  Mg14  1  0.00000000  0.18299500  0.00000000  1
  Mg  Mg15  1  0.50000000  0.31700500  0.50000000  1
  Mg  Mg16  1  0.00000000  0.84655000  0.50000000  1
  Mg  Mg17  1  0.50000000  0.65345000  0.00000000  1
  Mg  Mg18  1  0.00000000  0.15345000  0.50000000  1
  Mg  Mg19  1  0.50000000  0.34655000  0.00000000  1
  Si  Si0  1  0.00000000  0.50000000  0.50000000  1
  Si  Si1  1  0.50000000  0.00000000  0.00000000  1
  Si  Si2  1  0.99116700  0.50000000  0.12392800  1
  Si  Si3  1  0.00883300  0.50000000  0.87607200  1
  Si  Si4  1  0.49116700  0.00000000  0.37607200  1
  Si  Si5  1  0.50883300  0.00000000  0.62392800  1
  O  O0  1  0.82908000  0.65837000  0.09019300  1
  O  O1  1  0.17092000  0.65837000  0.90980700  1
  O  O2  1  0.32908000  0.84163000  0.40980700  1
  O  O3  1  0.67092000  0.84163000  0.59019300  1
  O  O4  1  0.17092000  0.34163000  0.90980700  1
  O  O5  1  0.82908000  0.34163000  0.09019300  1
  O  O6  1  0.67092000  0.15837000  0.59019300  1
  O  O7  1  0.32908000  0.15837000  0.40980700  1
  O  O8  1  0.99189300  0.50000000  0.24328700  1
  O  O9  1  0.00810700  0.50000000  0.75671300  1
  O  O10  1  0.49189300  0.00000000  0.25671300  1
  O  O11  1  0.50810700  0.00000000  0.74328700  1
  O  O12  1  0.28643600  0.50000000  0.07951400  1
  O  O13  1  0.71356400  0.50000000  0.92048600  1
  O  O14  1  0.78643600  0.00000000  0.42048600  1
  O  O15  1  0.21356400  0.00000000  0.57951400  1
  O  O16  1  0.85480000  0.64549000  0.42673600  1
  O  O17  1  0.14520000  0.64549000  0.57326400  1
  O  O18  1  0.35480000  0.85451000  0.07326400  1
  O  O19  1  0.64520000  0.85451000  0.92673600  1
  O  O20  1  0.14520000  0.35451000  0.57326400  1
  O  O21  1  0.85480000  0.35451000  0.42673600  1
  O  O22  1  0.64520000  0.14549000  0.92673600  1
  O  O23  1  0.35480000  0.14549000  0.07326400  1
  O  O24  1  0.69183400  0.50000000  0.58070900  1
  O  O25  1  0.30816600  0.50000000  0.41929100  1
  O  O26  1  0.19183400  0.00000000  0.91929100  1
  O  O27  1  0.80816600  0.00000000  0.08070900  1
  F  F0  1  0.49147400  0.66402700  0.25683900  1
  F  F1  1  0.50852600  0.66402700  0.74316100  1
  F  F2  1  0.99147400  0.83597300  0.24316100  1
  F  F3  1  0.00852600  0.83597300  0.75683900  1
  F  F4  1  0.50852600  0.33597300  0.74316100  1
  F  F5  1  0.49147400  0.33597300  0.25683900  1
  F  F6  1  0.00852600  0.16402700  0.75683900  1
  F  F7  1  0.99147400  0.16402700  0.24316100  1
loop_
_geom_bond_atom_site_label_1
_geom_bond_atom_site_label_2
_geom_bond_distance
_geom_bond_site_symmetry_2
Mg0 O8 2.053032 1_555
Mg0 O21 2.109216 1_555
Mg0 O16 2.109216 1_555
Mg0 O25 2.227004 1_555
Mg1 O9 2.053032 1_555
Mg1 O20 2.109216 1_555
Mg1 O17 2.109216 1_555
Mg1 O24 2.227004 1_555
Mg2 O10 2.053032 1_555
Mg2 O18 2.109216 1_545
Mg2 O23 2.109216 1_555
Mg2 O27 2.227004 1_455
Mg3 O11 2.053032 1_555
Mg3 O19 2.109216 1_545
Mg3 O22 2.109216 1_555
Mg3 O26 2.227004 1_655
Mg4 O0 2.065476 1_555
Mg4 O10 2.108377 1_565
Mg4 O18 2.116212 1_555
Mg4 O27 2.211244 1_565
Mg5 O1 2.065476 1_555
Mg5 O11 2.108377 1_565
Mg5 O19 2.116212 1_555
Mg5 O26 2.211244 1_565
Mg6 O2 2.065476 1_555
Mg6 O8 2.108377 1_455
Mg6 O16 2.116212 1_455
Mg6 O25 2.211244 1_555
Mg7 O3 2.065476 1_555
Mg7 O9 2.108377 1_655
Mg7 O17 2.116212 1_655
Mg7 O24 2.211244 1_555
Mg8 O4 2.065476 1_555
Mg8 O11 2.108377 1_555
Mg8 O22 2.116212 1_555
Mg8 O26 2.211244 1_555
Mg9 O5 2.065476 1_555
Mg9 O10 2.108377 1_555
Mg9 O23 2.116212 1_555
Mg9 O27 2.211244 1_555
Mg10 O6 2.065476 1_555
Mg10 O9 2.108377 1_655
Mg10 O20 2.116212 1_655
Mg10 O24 2.211244 1_555
Mg11 O7 2.065476 1_555
Mg11 O8 2.108377 1_455
Mg11 O21 2.116212 1_455
Mg11 O25 2.211244 1_555
Mg12 O0 2.073665 1_455
Mg12 O1 2.073665 1_554
Mg12 O19 2.109180 1_454
Mg12 O18 2.109180 1_555
Mg12 O26 2.193415 1_564
Mg12 O27 2.193415 1_465
Mg13 O2 2.073665 1_555
Mg13 O3 2.073665 1_555
Mg13 O16 2.109180 1_555
Mg13 O17 2.109180 1_555
Mg13 O24 2.193415 1_555
Mg13 O25 2.193415 1_555
Mg14 O5 2.073665 1_455
Mg14 O4 2.073665 1_554
Mg14 O23 2.109180 1_555
Mg14 O22 2.109180 1_454
Mg14 O26 2.193415 1_554
Mg14 O27 2.193415 1_455
Mg15 O6 2.073665 1_555
Mg15 O7 2.073665 1_555
Mg15 O21 2.109180 1_555
Mg15 O20 2.109180 1_555
Mg15 O24 2.193415 1_555
Mg15 O25 2.193415 1_555
Mg16 O15 2.059744 1_565
Mg16 O14 2.059744 1_465
Mg16 O3 2.106110 1_455
Mg16 O2 2.106110 1_555
Mg16 O16 2.168995 1_455
Mg16 O17 2.168995 1_555
Mg17 O12 2.059744 1_555
Mg17 O13 2.059744 1_554
Mg17 O0 2.106110 1_555
Mg17 O1 2.106110 1_554
Mg17 O18 2.168995 1_555
Mg17 O19 2.168995 1_554
Mg18 O15 2.059744 1_555
Mg18 O14 2.059744 1_455
Mg18 O6 2.106110 1_455
Mg18 O7 2.106110 1_555
Mg18 O20 2.168995 1_555
Mg18 O21 2.168995 1_455
Mg19 O12 2.059744 1_555
Mg19 O13 2.059744 1_554
Mg19 O5 2.106110 1_555
Mg19 O4 2.106110 1_554
Mg19 O23 2.168995 1_555
Mg19 O22 2.168995 1_554
O0 Si2 1.681098 1_555
O1 Si3 1.681098 1_555
O2 Si4 1.681098 1_565
O3 Si5 1.681098 1_565
O4 Si3 1.681098 1_555
O5 Si2 1.681098 1_555
O6 Si5 1.681098 1_555
O7 Si4 1.681098 1_555
O8 Si2 1.683000 1_555
O9 Si3 1.683000 1_555
O10 Si4 1.683000 1_555
O11 Si5 1.683000 1_555
O12 Si2 1.630850 1_455
O13 Si3 1.630850 1_655
O14 Si4 1.630850 1_555
O15 Si5 1.630850 1_555
O16 Si0 1.798049 1_655
O17 Si0 1.798049 1_555
O18 Si1 1.798049 1_565
O19 Si1 1.798049 1_566
O20 Si0 1.798049 1_555
O21 Si0 1.798049 1_655
O22 Si1 1.798049 1_556
O23 Si1 1.798049 1_555
O24 Si0 1.940355 1_655
O25 Si0 1.940355 1_555
O26 Si1 1.940355 1_556
O27 Si1 1.940355 1_555
F0 Mg4 1.962468 1_555
F0 Mg0 1.969744 1_555
F0 Mg6 1.978251 1_555
F1 Mg5 1.962468 1_555
F1 Mg1 1.969744 1_555
F1 Mg7 1.978251 1_555
F2 Mg6 1.962468 1_655
F2 Mg2 1.969744 1_665
F2 Mg4 1.978251 1_555
F3 Mg7 1.962468 1_455
F3 Mg3 1.969744 1_465
F3 Mg5 1.978251 1_555
F4 Mg8 1.962468 1_555
F4 Mg1 1.969744 1_555
F4 Mg10 1.978251 1_555
F5 Mg9 1.962468 1_555
F5 Mg0 1.969744 1_555
F5 Mg11 1.978251 1_555
F6 Mg10 1.962468 1_455
F6 Mg3 1.969744 1_455
F6 Mg8 1.978251 1_555
F7 Mg11 1.962468 1_655
F7 Mg2 1.969744 1_655
F7 Mg9 1.978251 1_555
