# generated using pymatgen
data_MnZn13
_symmetry_space_group_name_H-M   'P 1'
_cell_length_a   5.13162181
_cell_length_b   6.53432918
_cell_length_c   6.53432977
_cell_angle_alpha   69.27404490
_cell_angle_beta   80.96982540
_cell_angle_gamma   80.96982457
_symmetry_Int_Tables_number   1
_chemical_formula_structural   MnZn13
_chemical_formula_sum   'Mn1 Zn13'
_cell_volume   201.16414556
_cell_formula_units_Z   1
loop_
 _symmetry_equiv_pos_site_id
 _symmetry_equiv_pos_as_xyz
  1  'x, y, z'
loop_
 _atom_site_type_symbol
 _atom_site_label
 _atom_site_symmetry_multiplicity
 _atom_site_fract_x
 _atom_site_fract_y
 _atom_site_fract_z
 _atom_site_occupancy
  Mn  Mn0  1  0.50000000  -0.00000000  -0.00000000  1
  Zn  Zn0  1  0.19673432  0.99640000  0.35727503  1
  Zn  Zn1  1  0.80326568  0.00360000  0.64272497  1
  Zn  Zn2  1  0.80326568  0.64272497  0.00360000  1
  Zn  Zn3  1  0.19673432  0.35727503  0.99640000  1
  Zn  Zn4  1  0.32412600  0.22189243  0.61950322  1
  Zn  Zn5  1  0.67587400  0.77810757  0.38049678  1
  Zn  Zn6  1  0.67587400  0.38049678  0.77810757  1
  Zn  Zn7  1  0.32412600  0.61950322  0.22189243  1
  Zn  Zn8  1  -0.00000000  -0.00000000  -0.00000000  1
  Zn  Zn9  1  0.06712618  0.61249953  0.61249953  1
  Zn  Zn10  1  0.93287382  0.38750047  0.38750047  1
  Zn  Zn11  1  0.36308371  0.77868341  0.77868341  1
  Zn  Zn12  1  0.63691629  0.22131659  0.22131659  1
loop_
_geom_bond_atom_site_label_1
_geom_bond_atom_site_label_2
_geom_bond_distance
_geom_bond_site_symmetry_2
Mn0 Zn8 2.565811 1_555
Mn0 Zn8 2.565811 1_655
Mn0 Zn3 2.589350 1_554
Mn0 Zn2 2.589350 1_545
Mn0 Zn0 2.589350 1_545
Mn0 Zn1 2.589350 1_554
Mn0 Zn12 2.606637 1_555
Mn0 Zn11 2.606637 1_544
Mn0 Zn6 2.615437 1_554
Mn0 Zn7 2.615437 1_545
Mn0 Zn5 2.615437 1_545
Mn0 Zn4 2.615437 1_554
Zn0 Zn1 2.531450 1_465
Zn0 Zn9 2.594386 1_555
Zn0 Zn5 2.639343 1_555
Zn0 Zn8 2.676460 1_565
Zn0 Zn3 2.680546 1_564
Zn0 Zn12 2.745838 1_565
Zn0 Zn10 2.755080 1_465
Zn0 Zn11 2.814065 1_555
Zn0 Zn4 2.824075 1_565
Zn0 Zn7 2.851365 1_555
Zn1 Zn10 2.594386 1_555
Zn1 Zn4 2.639343 1_555
Zn1 Zn8 2.676460 1_656
Zn1 Zn2 2.680546 1_546
Zn1 Zn11 2.745838 1_545
Zn1 Zn9 2.755080 1_645
Zn1 Zn12 2.814065 1_555
Zn1 Zn5 2.824075 1_545
Zn1 Zn6 2.851365 1_555
Zn2 Zn3 2.531449 1_654
Zn2 Zn7 2.639344 1_555
Zn2 Zn8 2.676460 1_665
Zn2 Zn9 2.755080 1_654
Zn2 Zn6 2.824075 1_554
Zn2 Zn5 2.851365 1_555
Zn3 Zn9 2.594386 1_555
Zn3 Zn6 2.639344 1_555
Zn3 Zn8 2.676460 1_556
Zn3 Zn7 2.824075 1_556
Zn3 Zn4 2.851365 1_555
Zn4 Zn9 2.671241 1_555
Zn4 Zn6 2.709424 1_555
Zn4 Zn8 2.820954 1_556
Zn4 Zn7 2.953415 1_555
Zn5 Zn9 2.571499 1_655
Zn5 Zn7 2.709424 1_555
Zn5 Zn8 2.820954 1_665
Zn5 Zn6 2.953415 1_555
Zn6 Zn9 2.571499 1_655
Zn6 Zn8 2.820954 1_656
Zn7 Zn9 2.671242 1_555
Zn7 Zn8 2.820954 1_565
Zn10 Zn12 2.556356 1_555
Zn10 Zn7 2.571499 1_655
Zn10 Zn4 2.571499 1_655
Zn10 Zn2 2.594386 1_555
Zn10 Zn9 2.638853 1_655
Zn10 Zn5 2.671241 1_555
Zn10 Zn6 2.671242 1_555
Zn10 Zn3 2.755080 1_654
Zn11 Zn9 2.556356 1_555
Zn11 Zn4 2.694535 1_565
Zn11 Zn7 2.694535 1_556
Zn11 Zn8 2.728166 1_566
Zn11 Zn2 2.745838 1_556
Zn11 Zn3 2.814064 1_555
Zn11 Zn6 2.835536 1_555
Zn11 Zn5 2.835536 1_555
Zn12 Zn5 2.694535 1_545
Zn12 Zn6 2.694535 1_554
Zn12 Zn8 2.728166 1_655
Zn12 Zn3 2.745838 1_554
Zn12 Zn2 2.814064 1_555
Zn12 Zn7 2.835536 1_555
Zn12 Zn4 2.835536 1_555
