# generated using pymatgen
data_Mg149Fe
_symmetry_space_group_name_H-M   'P 1'
_cell_length_a   15.93856739
_cell_length_b   15.93857267
_cell_length_c   15.67576170
_cell_angle_alpha   90.00000000
_cell_angle_beta   90.00000000
_cell_angle_gamma   120.00001295
_symmetry_Int_Tables_number   1
_chemical_formula_structural   Mg149Fe
_chemical_formula_sum   'Mg149 Fe1'
_cell_volume   3448.72001581
_cell_formula_units_Z   1
loop_
 _symmetry_equiv_pos_site_id
 _symmetry_equiv_pos_as_xyz
  1  'x, y, z'
loop_
 _atom_site_type_symbol
 _atom_site_label
 _atom_site_symmetry_multiplicity
 _atom_site_fract_x
 _atom_site_fract_y
 _atom_site_fract_z
 _atom_site_occupancy
  Mg  Mg0  1  0.39738240  0.00020447  -0.00000000  1
  Mg  Mg1  1  0.60282307  0.00020447  0.00000000  1
  Mg  Mg2  1  0.81107255  0.00160085  0.00000000  1
  Mg  Mg3  1  0.19052829  0.00160085  0.00000000  1
  Mg  Mg4  1  0.99839915  0.18892645  0.00000000  1
  Mg  Mg5  1  0.19052829  0.18892745  0.00000000  1
  Mg  Mg6  1  0.80117520  0.19882480  0.00000000  1
  Mg  Mg7  1  0.39764961  0.19882480  0.00000000  1
  Mg  Mg8  1  0.59971031  0.19942061  0.00000000  1
  Mg  Mg9  1  0.99979653  0.39717793  0.00000000  1
  Mg  Mg10  1  0.39738240  0.39717793  0.00000000  1
  Mg  Mg11  1  0.19860548  0.39721196  -0.00000000  1
  Mg  Mg12  1  0.59971031  0.40028969  0.00000000  1
  Mg  Mg13  1  0.80057939  0.40028969  0.00000000  1
  Mg  Mg14  1  0.19968016  0.59984008  0.00000000  1
  Mg  Mg15  1  0.40015992  0.59984008  0.00000000  1
  Mg  Mg16  1  0.80117520  0.60235039  0.00000000  1
  Mg  Mg17  1  0.99979653  0.60261860  0.00000000  1
  Mg  Mg18  1  0.60282307  0.60261860  0.00000000  1
  Mg  Mg19  1  0.40015992  0.80031984  0.00000000  1
  Mg  Mg20  1  0.19860548  0.80139352  0.00000000  1
  Mg  Mg21  1  0.60278804  0.80139352  0.00000000  1
  Mg  Mg22  1  0.81107255  0.80947171  0.00000000  1
  Mg  Mg23  1  0.99839915  0.80947171  -0.00000000  1
  Mg  Mg24  1  0.06333570  0.12667140  0.15709370  1
  Mg  Mg25  1  0.87332860  0.93666430  0.15709370  1
  Mg  Mg26  1  0.06333570  0.93666430  0.15709370  1
  Mg  Mg27  1  0.26489913  0.33129029  0.16559033  1
  Mg  Mg28  1  0.06639115  0.33129129  0.16559033  1
  Mg  Mg29  1  0.06639115  0.73510087  0.16559033  1
  Mg  Mg30  1  0.66870971  0.73510187  0.16559033  1
  Mg  Mg31  1  0.26489913  0.93360885  0.16559033  1
  Mg  Mg32  1  0.66870971  0.93360885  0.16559033  1
  Mg  Mg33  1  0.06656704  0.53328302  0.16631464  1
  Mg  Mg34  1  0.46671598  0.53328402  0.16631464  1
  Mg  Mg35  1  0.46671598  0.93343296  0.16631464  1
  Mg  Mg36  1  0.66653791  0.13352580  0.16663906  1
  Mg  Mg37  1  0.46698789  0.13352580  0.16663906  1
  Mg  Mg38  1  0.86647420  0.33346109  0.16663906  1
  Mg  Mg39  1  0.46698789  0.33346209  0.16663906  1
  Mg  Mg40  1  0.66653791  0.53301211  0.16663906  1
  Mg  Mg41  1  0.86647420  0.53301311  0.16663906  1
  Mg  Mg42  1  0.66666700  0.33333400  0.16655197  1
  Mg  Mg43  1  0.26653131  0.53306262  0.16655002  1
  Mg  Mg44  1  0.46693638  0.73346769  0.16655002  1
  Mg  Mg45  1  0.26653131  0.73346869  0.16655002  1
  Mg  Mg46  1  0.86587489  0.13412511  0.16692315  1
  Mg  Mg47  1  0.26825022  0.13412511  0.16692315  1
  Mg  Mg48  1  0.86587489  0.73174978  0.16692315  1
  Mg  Mg49  1  0.80083221  0.99956864  0.33116121  1
  Mg  Mg50  1  0.19873643  0.99956864  0.33116121  1
  Mg  Mg51  1  0.19873643  0.19916679  0.33116121  1
  Mg  Mg52  1  0.00043136  0.19916779  0.33116121  1
  Mg  Mg53  1  0.80083221  0.80126357  0.33116121  1
  Mg  Mg54  1  0.00043136  0.80126357  0.33116121  1
  Mg  Mg55  1  0.00000000  0.00000000  0.33186919  1
  Mg  Mg56  1  0.60049062  -0.00004266  0.33295444  1
  Mg  Mg57  1  0.39946672  -0.00004266  0.33295444  1
  Mg  Mg58  1  0.39946672  0.39950938  0.33295444  1
  Mg  Mg59  1  0.00004266  0.39950938  0.33295444  1
  Mg  Mg60  1  0.00004266  0.60053328  0.33295444  1
  Mg  Mg61  1  0.60049062  0.60053328  0.33295444  1
  Mg  Mg62  1  0.59981402  0.19962705  0.33327538  1
  Mg  Mg63  1  0.80037295  0.40018598  0.33327538  1
  Mg  Mg64  1  0.59981402  0.40018698  0.33327538  1
  Mg  Mg65  1  0.20008098  0.40016095  0.33330914  1
  Mg  Mg66  1  0.59983905  0.79991902  0.33330914  1
  Mg  Mg67  1  0.20008098  0.79992002  0.33330914  1
  Mg  Mg68  1  0.39975259  0.19987629  0.33340349  1
  Mg  Mg69  1  0.80012471  0.19987629  0.33340349  1
  Mg  Mg70  1  0.80012471  0.60024741  0.33340349  1
  Mg  Mg71  1  0.19993569  0.59996735  0.33351252  1
  Mg  Mg72  1  0.40003165  0.59996835  0.33351252  1
  Mg  Mg73  1  0.40003165  0.80006431  0.33351252  1
  Mg  Mg74  1  0.86677969  0.13321931  0.50000000  1
  Mg  Mg75  1  0.26644062  0.13322031  0.50000000  1
  Mg  Mg76  1  0.06669853  0.13339705  0.50000000  1
  Mg  Mg77  1  0.46704537  0.13367380  0.50000000  1
  Mg  Mg78  1  0.66662943  0.13367380  0.50000000  1
  Mg  Mg79  1  0.26662896  0.33295306  0.50000000  1
  Mg  Mg80  1  0.06632410  0.33295306  0.50000000  1
  Mg  Mg81  1  0.86632720  0.33337057  0.50000000  1
  Mg  Mg82  1  0.46704537  0.33337157  0.50000000  1
  Mg  Mg83  1  0.66666700  0.33333400  0.50000000  1
  Mg  Mg84  1  0.66662943  0.53295563  0.50000000  1
  Mg  Mg85  1  0.86632720  0.53295563  0.50000000  1
  Mg  Mg86  1  0.06601637  0.53300769  0.50000000  1
  Mg  Mg87  1  0.46699131  0.53300869  0.50000000  1
  Mg  Mg88  1  0.26652889  0.53305779  0.50000000  1
  Mg  Mg89  1  0.66704694  0.73337104  0.50000000  1
  Mg  Mg90  1  0.06632410  0.73337104  0.50000000  1
  Mg  Mg91  1  0.46694221  0.73347111  0.50000000  1
  Mg  Mg92  1  0.26652889  0.73347111  0.50000000  1
  Mg  Mg93  1  0.86677969  0.73356038  0.50000000  1
  Mg  Mg94  1  0.86660295  0.93330047  0.50000000  1
  Mg  Mg95  1  0.06669853  0.93330147  0.50000000  1
  Mg  Mg96  1  0.46699131  0.93398363  0.50000000  1
  Mg  Mg97  1  0.66704694  0.93367590  0.50000000  1
  Mg  Mg98  1  0.26662896  0.93367590  0.50000000  1
  Mg  Mg99  1  0.19993569  0.59996735  0.66648748  1
  Mg  Mg100  1  0.40003165  0.59996835  0.66648748  1
  Mg  Mg101  1  0.40003165  0.80006431  0.66648748  1
  Mg  Mg102  1  0.39975259  0.19987629  0.66659651  1
  Mg  Mg103  1  0.80012471  0.19987629  0.66659651  1
  Mg  Mg104  1  0.80012471  0.60024741  0.66659651  1
  Mg  Mg105  1  0.20008098  0.40016095  0.66669186  1
  Mg  Mg106  1  0.59983905  0.79991902  0.66669186  1
  Mg  Mg107  1  0.20008098  0.79992002  0.66669186  1
  Mg  Mg108  1  0.59981402  0.19962705  0.66672562  1
  Mg  Mg109  1  0.80037295  0.40018598  0.66672562  1
  Mg  Mg110  1  0.59981402  0.40018698  0.66672562  1
  Mg  Mg111  1  0.60049062  -0.00004266  0.66704556  1
  Mg  Mg112  1  0.39946672  -0.00004266  0.66704556  1
  Mg  Mg113  1  0.39946672  0.39950938  0.66704556  1
  Mg  Mg114  1  0.00004266  0.39950938  0.66704556  1
  Mg  Mg115  1  0.00004266  0.60053328  0.66704556  1
  Mg  Mg116  1  0.60049062  0.60053328  0.66704556  1
  Mg  Mg117  1  0.00000000  0.00000000  0.66813081  1
  Mg  Mg118  1  0.80083221  0.99956864  0.66883879  1
  Mg  Mg119  1  0.19873643  0.99956864  0.66883879  1
  Mg  Mg120  1  0.19873643  0.19916679  0.66883879  1
  Mg  Mg121  1  0.00043136  0.19916779  0.66883879  1
  Mg  Mg122  1  0.80083221  0.80126357  0.66883879  1
  Mg  Mg123  1  0.00043136  0.80126357  0.66883879  1
  Mg  Mg124  1  0.86587489  0.13412511  0.83307685  1
  Mg  Mg125  1  0.26825022  0.13412511  0.83307685  1
  Mg  Mg126  1  0.86587489  0.73174978  0.83307685  1
  Mg  Mg127  1  0.26653131  0.53306262  0.83344898  1
  Mg  Mg128  1  0.46693638  0.73346769  0.83344898  1
  Mg  Mg129  1  0.26653131  0.73346869  0.83344898  1
  Mg  Mg130  1  0.66666700  0.33333400  0.83344803  1
  Mg  Mg131  1  0.66653791  0.13352580  0.83336094  1
  Mg  Mg132  1  0.46698789  0.13352580  0.83336094  1
  Mg  Mg133  1  0.86647420  0.33346109  0.83336094  1
  Mg  Mg134  1  0.46698789  0.33346209  0.83336094  1
  Mg  Mg135  1  0.66653791  0.53301211  0.83336094  1
  Mg  Mg136  1  0.86647420  0.53301311  0.83336094  1
  Mg  Mg137  1  0.06656704  0.53328302  0.83368536  1
  Mg  Mg138  1  0.46671598  0.53328402  0.83368536  1
  Mg  Mg139  1  0.46671598  0.93343296  0.83368536  1
  Mg  Mg140  1  0.26489913  0.33129029  0.83440967  1
  Mg  Mg141  1  0.06639115  0.33129129  0.83440967  1
  Mg  Mg142  1  0.06639115  0.73510087  0.83440967  1
  Mg  Mg143  1  0.66870971  0.73510187  0.83440967  1
  Mg  Mg144  1  0.26489913  0.93360885  0.83440967  1
  Mg  Mg145  1  0.66870971  0.93360885  0.83440967  1
  Mg  Mg146  1  0.06333570  0.12667140  0.84290730  1
  Mg  Mg147  1  0.87332860  0.93666430  0.84290730  1
  Mg  Mg148  1  0.06333570  0.93666430  0.84290730  1
  Fe  Fe0  1  0.00000000  0.00000000  0.00000000  1
loop_
_geom_bond_atom_site_label_1
_geom_bond_atom_site_label_2
_geom_bond_distance
_geom_bond_site_symmetry_2
Mg0 Mg7 3.163597 1_555
Mg0 Mg20 3.168490 1_545
Mg0 Mg31 3.175231 1_545
Mg0 Mg144 3.175231 1_544
Mg0 Mg132 3.195673 1_554
Mg0 Mg37 3.195673 1_555
Mg0 Mg8 3.200307 1_555
Mg0 Mg19 3.208240 1_545
Mg0 Mg139 3.213549 1_544
Mg0 Mg35 3.213549 1_545
Mg0 Mg1 3.274430 1_555
Mg0 Mg3 3.308142 1_555
Mg1 Mg6 3.163588 1_555
Mg1 Mg21 3.168484 1_545
Mg1 Mg32 3.175224 1_545
Mg1 Mg145 3.175224 1_544
Mg1 Mg131 3.195673 1_554
Mg1 Mg36 3.195673 1_555
Mg1 Mg8 3.200316 1_555
Mg1 Mg19 3.208247 1_545
Mg1 Mg139 3.213565 1_544
Mg1 Mg35 3.213565 1_545
Mg1 Mg2 3.308126 1_555
Mg2 Mg4 2.985710 1_555
Mg2 Mg25 3.024407 1_545
Mg2 Mg22 3.062264 1_545
Mg2 Mg46 3.197874 1_555
Mg2 Mg6 3.225238 1_555
Mg2 Mg32 3.256071 1_545
Mg2 Mg21 3.257296 1_545
Mg3 Mg5 2.985719 1_555
Mg3 Mg47 3.197874 1_555
Mg3 Mg7 3.225237 1_555
Mg3 Mg31 3.256071 1_545
Mg4 Mg5 3.062255 1_655
Mg4 Mg46 3.197874 1_555
Mg4 Mg6 3.225245 1_555
Mg4 Mg9 3.308151 1_555
Mg5 Mg7 3.225237 1_555
Mg6 Mg9 3.163604 1_555
Mg6 Mg8 3.215820 1_555
Mg7 Mg8 3.215820 1_555
Mg10 Mg7 3.163597 1_555
Mg10 Mg11 3.168491 1_555
Mg10 Mg27 3.175231 1_555
Mg10 Mg140 3.175231 1_554
Mg10 Mg134 3.195673 1_554
Mg10 Mg39 3.195673 1_555
Mg10 Mg12 3.200307 1_555
Mg10 Mg15 3.208240 1_555
Mg10 Mg138 3.213557 1_554
Mg10 Mg34 3.213557 1_555
Mg10 Mg18 3.274430 1_555
Mg10 Mg5 3.308142 1_555
Mg11 Mg9 3.168459 1_455
Mg11 Mg141 3.173091 1_554
Mg11 Mg28 3.173091 1_555
Mg11 Mg27 3.173099 1_555
Mg11 Mg140 3.173099 1_554
Mg11 Mg43 3.214428 1_555
Mg11 Mg127 3.214441 1_554
Mg11 Mg14 3.221073 1_555
Mg11 Mg15 3.221079 1_555
Mg11 Mg4 3.257297 1_455
Mg11 Mg5 3.257297 1_555
Mg12 Mg134 3.190583 1_554
Mg12 Mg39 3.190583 1_555
Mg12 Mg135 3.190583 1_554
Mg12 Mg40 3.190583 1_555
Mg12 Mg130 3.198919 1_554
Mg12 Mg42 3.198919 1_555
Mg12 Mg18 3.200316 1_555
Mg12 Mg13 3.201565 1_555
Mg12 Mg8 3.201566 1_555
Mg12 Mg7 3.215820 1_555
Mg12 Mg16 3.215820 1_555
Mg13 Mg133 3.190591 1_554
Mg13 Mg38 3.190591 1_555
Mg13 Mg136 3.190591 1_554
Mg13 Mg41 3.190591 1_555
Mg13 Mg130 3.198919 1_554
Mg13 Mg42 3.198919 1_555
Mg13 Mg17 3.200323 1_555
Mg13 Mg9 3.200323 1_555
Mg13 Mg8 3.201565 1_555
Mg13 Mg16 3.215821 1_555
Mg13 Mg6 3.215821 1_555
Mg14 Mg33 3.189515 1_555
Mg14 Mg19 3.195360 1_555
Mg14 Mg15 3.195360 1_555
Mg14 Mg45 3.196633 1_555
Mg14 Mg43 3.196633 1_555
Mg14 Mg9 3.208231 1_455
Mg14 Mg17 3.208231 1_455
Mg14 Mg20 3.221073 1_555
Mg15 Mg34 3.189508 1_555
Mg15 Mg19 3.195361 1_555
Mg15 Mg44 3.196625 1_555
Mg15 Mg43 3.196632 1_555
Mg15 Mg18 3.208247 1_555
Mg15 Mg21 3.221072 1_555
Mg16 Mg18 3.163588 1_555
Mg16 Mg17 3.163604 1_555
Mg16 Mg48 3.168137 1_555
Mg16 Mg41 3.205977 1_555
Mg16 Mg40 3.205985 1_555
Mg16 Mg23 3.225237 1_555
Mg16 Mg22 3.225238 1_555
Mg17 Mg20 3.168459 1_655
Mg17 Mg29 3.175224 1_655
Mg17 Mg41 3.195680 1_555
Mg17 Mg33 3.213557 1_655
Mg17 Mg9 3.274431 1_555
Mg17 Mg23 3.308136 1_555
Mg18 Mg21 3.168468 1_555
Mg18 Mg30 3.175232 1_555
Mg18 Mg40 3.195673 1_555
Mg18 Mg34 3.213565 1_555
Mg18 Mg22 3.308126 1_555
Mg19 Mg35 3.189516 1_555
Mg19 Mg45 3.196632 1_555
Mg19 Mg44 3.196633 1_555
Mg19 Mg21 3.221080 1_555
Mg19 Mg20 3.221080 1_555
Mg20 Mg29 3.173091 1_555
Mg20 Mg31 3.173099 1_555
Mg20 Mg45 3.214428 1_555
Mg20 Mg23 3.257289 1_455
Mg20 Mg3 3.257297 1_565
Mg21 Mg30 3.173083 1_555
Mg21 Mg32 3.173099 1_555
Mg21 Mg44 3.214436 1_555
Mg21 Mg22 3.257288 1_555
Mg22 Mg23 2.985718 1_555
Mg22 Mg25 3.024407 1_555
Mg22 Mg48 3.197874 1_555
Mg22 Mg30 3.256071 1_555
Mg23 Mg26 3.024407 1_655
Mg23 Mg3 3.062263 1_665
Mg23 Mg48 3.197874 1_555
Mg23 Mg29 3.256072 1_655
Mg24 Mg4 3.024399 1_455
Mg24 Mg5 3.024407 1_555
Mg24 Mg25 3.028441 1_445
Mg24 Mg26 3.028442 1_545
Mg24 Mg47 3.211991 1_555
Mg24 Mg46 3.211991 1_455
Mg24 Mg27 3.239996 1_555
Mg24 Mg28 3.240013 1_555
Mg24 Mg55 3.250126 1_555
Mg24 Mg51 3.308224 1_555
Mg24 Mg52 3.308225 1_555
Mg25 Mg26 3.028441 1_655
Mg25 Mg48 3.211992 1_555
Mg25 Mg46 3.211992 1_565
Mg25 Mg30 3.239988 1_555
Mg25 Mg32 3.239996 1_555
Mg25 Mg55 3.250126 1_665
Mg25 Mg53 3.308225 1_555
Mg25 Mg49 3.308225 1_555
Mg26 Mg3 3.024407 1_565
Mg26 Mg47 3.211991 1_565
Mg26 Mg48 3.211991 1_455
Mg26 Mg31 3.239996 1_555
Mg26 Mg29 3.239997 1_555
Mg26 Mg55 3.250127 1_565
Mg26 Mg50 3.308224 1_555
Mg26 Mg54 3.308225 1_555
Mg27 Mg28 3.163941 1_555
Mg27 Mg47 3.169644 1_555
Mg27 Mg51 3.172120 1_555
Mg27 Mg43 3.203070 1_555
Mg27 Mg39 3.203880 1_555
Mg27 Mg65 3.212254 1_555
Mg27 Mg58 3.214570 1_555
Mg27 Mg34 3.218102 1_555
Mg27 Mg5 3.256071 1_555
Mg28 Mg46 3.169650 1_455
Mg28 Mg52 3.172120 1_555
Mg28 Mg9 3.175216 1_455
Mg28 Mg43 3.203061 1_555
Mg28 Mg38 3.203864 1_455
Mg28 Mg65 3.212261 1_555
Mg28 Mg59 3.214562 1_555
Mg28 Mg33 3.218079 1_555
Mg28 Mg4 3.256088 1_455
Mg29 Mg31 3.163933 1_555
Mg29 Mg48 3.169643 1_455
Mg29 Mg54 3.172112 1_555
Mg29 Mg45 3.203069 1_555
Mg29 Mg41 3.203872 1_455
Mg29 Mg67 3.212261 1_555
Mg29 Mg60 3.214570 1_555
Mg29 Mg33 3.218111 1_555
Mg30 Mg32 3.163918 1_555
Mg30 Mg48 3.169651 1_555
Mg30 Mg53 3.172112 1_555
Mg30 Mg44 3.203069 1_555
Mg30 Mg40 3.203897 1_555
Mg30 Mg66 3.212246 1_555
Mg30 Mg61 3.214578 1_555
Mg30 Mg34 3.218110 1_555
Mg31 Mg47 3.169644 1_565
Mg31 Mg50 3.172112 1_555
Mg31 Mg45 3.203070 1_555
Mg31 Mg37 3.203880 1_565
Mg31 Mg67 3.212254 1_555
Mg31 Mg57 3.214570 1_565
Mg31 Mg35 3.218094 1_555
Mg32 Mg46 3.169643 1_565
Mg32 Mg49 3.172112 1_555
Mg32 Mg44 3.203085 1_555
Mg32 Mg36 3.203881 1_565
Mg32 Mg66 3.212262 1_555
Mg32 Mg56 3.214570 1_565
Mg32 Mg35 3.218110 1_555
Mg33 Mg38 3.187040 1_455
Mg33 Mg41 3.187048 1_455
Mg33 Mg43 3.188904 1_555
Mg33 Mg45 3.188912 1_555
Mg33 Mg59 3.198943 1_555
Mg33 Mg60 3.198951 1_555
Mg33 Mg71 3.202869 1_555
Mg33 Mg9 3.213549 1_455
Mg34 Mg40 3.187048 1_555
Mg34 Mg39 3.187050 1_555
Mg34 Mg44 3.188889 1_555
Mg34 Mg43 3.188896 1_555
Mg34 Mg61 3.198950 1_555
Mg34 Mg58 3.198951 1_555
Mg34 Mg72 3.202869 1_555
Mg35 Mg37 3.187034 1_565
Mg35 Mg36 3.187040 1_565
Mg35 Mg45 3.188904 1_555
Mg35 Mg44 3.188921 1_555
Mg35 Mg57 3.198943 1_565
Mg35 Mg56 3.198950 1_565
Mg35 Mg73 3.202869 1_555
Mg36 Mg46 3.172384 1_555
Mg36 Mg37 3.180541 1_555
Mg36 Mg42 3.183630 1_555
Mg36 Mg38 3.186690 1_555
Mg36 Mg8 3.190583 1_555
Mg36 Mg62 3.191357 1_555
Mg36 Mg56 3.193172 1_555
Mg36 Mg69 3.199053 1_555
Mg36 Mg6 3.205985 1_555
Mg37 Mg47 3.172384 1_555
Mg37 Mg42 3.183628 1_555
Mg37 Mg39 3.186699 1_555
Mg37 Mg8 3.190583 1_555
Mg37 Mg62 3.191365 1_555
Mg37 Mg57 3.193172 1_555
Mg37 Mg68 3.199046 1_555
Mg37 Mg7 3.205985 1_555
Mg38 Mg46 3.172369 1_555
Mg38 Mg41 3.180574 1_555
Mg38 Mg42 3.183628 1_555
Mg38 Mg63 3.191365 1_555
Mg38 Mg59 3.193171 1_655
Mg38 Mg9 3.195680 1_555
Mg38 Mg69 3.199038 1_555
Mg38 Mg6 3.205977 1_555
Mg39 Mg47 3.172384 1_555
Mg39 Mg40 3.180541 1_555
Mg39 Mg42 3.183621 1_555
Mg39 Mg64 3.191365 1_555
Mg39 Mg58 3.193172 1_555
Mg39 Mg68 3.199046 1_555
Mg39 Mg7 3.205986 1_555
Mg40 Mg48 3.172384 1_555
Mg40 Mg42 3.183614 1_555
Mg40 Mg41 3.186690 1_555
Mg40 Mg64 3.191357 1_555
Mg40 Mg61 3.193172 1_555
Mg40 Mg70 3.199053 1_555
Mg41 Mg48 3.172369 1_555
Mg41 Mg42 3.183620 1_555
Mg41 Mg63 3.191373 1_555
Mg41 Mg60 3.193171 1_655
Mg41 Mg70 3.199030 1_555
Mg42 Mg8 3.198928 1_555
Mg42 Mg63 3.199468 1_555
Mg42 Mg64 3.199469 1_555
Mg42 Mg62 3.199477 1_555
Mg43 Mg65 3.193536 1_555
Mg43 Mg44 3.194170 1_555
Mg43 Mg45 3.194187 1_555
Mg43 Mg72 3.200897 1_555
Mg43 Mg71 3.200897 1_555
Mg44 Mg66 3.193544 1_555
Mg44 Mg45 3.194178 1_555
Mg44 Mg72 3.200889 1_555
Mg44 Mg73 3.200905 1_555
Mg45 Mg67 3.193536 1_555
Mg45 Mg73 3.200897 1_555
Mg45 Mg71 3.200905 1_555
Mg46 Mg6 3.168137 1_555
Mg46 Mg52 3.174778 1_655
Mg46 Mg49 3.174778 1_545
Mg46 Mg69 3.178884 1_555
Mg47 Mg7 3.168137 1_555
Mg47 Mg51 3.174770 1_555
Mg47 Mg50 3.174778 1_545
Mg47 Mg68 3.178891 1_555
Mg47 Mg5 3.197874 1_555
Mg48 Mg54 3.174778 1_655
Mg48 Mg53 3.174778 1_555
Mg48 Mg70 3.178892 1_555
Mg49 Mg53 3.160700 1_555
Mg49 Mg55 3.171037 1_665
Mg49 Mg52 3.181324 1_665
Mg49 Mg66 3.193067 1_555
Mg49 Mg56 3.196384 1_565
Mg49 Mg69 3.198464 1_565
Mg49 Mg94 3.213509 1_555
Mg49 Mg74 3.226207 1_565
Mg49 Mg97 3.227278 1_555
Mg50 Mg54 3.160699 1_555
Mg50 Mg55 3.171037 1_565
Mg50 Mg51 3.181310 1_565
Mg50 Mg67 3.193061 1_555
Mg50 Mg57 3.196384 1_565
Mg50 Mg68 3.198471 1_565
Mg50 Mg95 3.213501 1_555
Mg50 Mg75 3.226215 1_565
Mg50 Mg98 3.227278 1_555
Mg51 Mg52 3.160707 1_555
Mg51 Mg55 3.171029 1_555
Mg51 Mg65 3.193076 1_555
Mg51 Mg58 3.196392 1_555
Mg51 Mg68 3.198464 1_555
Mg51 Mg76 3.213501 1_555
Mg51 Mg75 3.226207 1_555
Mg51 Mg79 3.227286 1_555
Mg52 Mg55 3.171038 1_555
Mg52 Mg65 3.193067 1_555
Mg52 Mg59 3.196385 1_555
Mg52 Mg69 3.198455 1_455
Mg52 Mg76 3.213501 1_555
Mg52 Mg74 3.226214 1_455
Mg52 Mg80 3.227278 1_555
Mg53 Mg55 3.171037 1_665
Mg53 Mg54 3.181325 1_655
Mg53 Mg66 3.193059 1_555
Mg53 Mg61 3.196384 1_555
Mg53 Mg70 3.198480 1_555
Mg53 Mg94 3.213493 1_555
Mg53 Mg93 3.226207 1_555
Mg53 Mg89 3.227278 1_555
Mg54 Mg55 3.171038 1_565
Mg54 Mg67 3.193067 1_555
Mg54 Mg60 3.196385 1_555
Mg54 Mg70 3.198463 1_455
Mg54 Mg95 3.213501 1_555
Mg54 Mg93 3.226214 1_455
Mg54 Mg90 3.227278 1_555
Mg55 Mg94 3.215071 1_445
Mg55 Mg76 3.215072 1_555
Mg55 Mg95 3.215072 1_545
Mg56 Mg66 3.183150 1_545
Mg56 Mg69 3.184162 1_555
Mg56 Mg62 3.187860 1_555
Mg56 Mg73 3.190540 1_545
Mg56 Mg97 3.196707 1_545
Mg56 Mg96 3.201976 1_545
Mg56 Mg78 3.203699 1_555
Mg56 Mg57 3.204033 1_555
Mg57 Mg67 3.183133 1_545
Mg57 Mg68 3.184155 1_555
Mg57 Mg62 3.187867 1_555
Mg57 Mg73 3.190533 1_545
Mg57 Mg98 3.196707 1_545
Mg57 Mg96 3.201969 1_545
Mg57 Mg77 3.203699 1_555
Mg58 Mg65 3.183133 1_555
Mg58 Mg68 3.184155 1_555
Mg58 Mg64 3.187867 1_555
Mg58 Mg72 3.190549 1_555
Mg58 Mg79 3.196707 1_555
Mg58 Mg87 3.201977 1_555
Mg58 Mg82 3.203699 1_555
Mg58 Mg61 3.204033 1_555
Mg59 Mg65 3.183149 1_555
Mg59 Mg69 3.184146 1_455
Mg59 Mg63 3.187859 1_455
Mg59 Mg71 3.190532 1_555
Mg59 Mg80 3.196707 1_555
Mg59 Mg86 3.201969 1_555
Mg59 Mg81 3.203691 1_455
Mg59 Mg60 3.204034 1_555
Mg60 Mg67 3.183149 1_555
Mg60 Mg70 3.184138 1_455
Mg60 Mg63 3.187867 1_455
Mg60 Mg71 3.190540 1_555
Mg60 Mg90 3.196707 1_555
Mg60 Mg86 3.201977 1_555
Mg60 Mg85 3.203691 1_455
Mg61 Mg66 3.183134 1_555
Mg61 Mg70 3.184170 1_555
Mg61 Mg64 3.187860 1_555
Mg61 Mg72 3.190548 1_555
Mg61 Mg89 3.196707 1_555
Mg61 Mg87 3.201976 1_555
Mg61 Mg84 3.203699 1_555
Mg62 Mg68 3.190681 1_555
Mg62 Mg69 3.190682 1_555
Mg62 Mg77 3.192046 1_555
Mg62 Mg78 3.192046 1_555
Mg62 Mg63 3.196622 1_555
Mg62 Mg64 3.196639 1_555
Mg62 Mg83 3.199492 1_555
Mg63 Mg70 3.190674 1_555
Mg63 Mg69 3.190675 1_555
Mg63 Mg85 3.192054 1_555
Mg63 Mg81 3.192054 1_555
Mg63 Mg64 3.196630 1_555
Mg63 Mg83 3.199484 1_555
Mg64 Mg70 3.190673 1_555
Mg64 Mg68 3.190681 1_555
Mg64 Mg82 3.192046 1_555
Mg64 Mg84 3.192046 1_555
Mg64 Mg83 3.199484 1_555
Mg65 Mg72 3.185788 1_555
Mg65 Mg71 3.185789 1_555
Mg65 Mg88 3.192622 1_555
Mg65 Mg79 3.199454 1_555
Mg65 Mg80 3.199462 1_555
Mg66 Mg72 3.185788 1_555
Mg66 Mg73 3.185804 1_555
Mg66 Mg91 3.192622 1_555
Mg66 Mg89 3.199454 1_555
Mg66 Mg97 3.199462 1_555
Mg67 Mg73 3.185780 1_555
Mg67 Mg71 3.185805 1_555
Mg67 Mg92 3.192622 1_555
Mg67 Mg98 3.199454 1_555
Mg67 Mg90 3.199462 1_555
Mg68 Mg75 3.194708 1_555
Mg68 Mg77 3.196178 1_555
Mg68 Mg82 3.196178 1_555
Mg69 Mg74 3.194708 1_555
Mg69 Mg81 3.196170 1_555
Mg69 Mg78 3.196178 1_555
Mg70 Mg93 3.194716 1_555
Mg70 Mg85 3.196170 1_555
Mg70 Mg84 3.196178 1_555
Mg71 Mg72 3.189235 1_555
Mg71 Mg73 3.189251 1_555
Mg71 Mg88 3.194831 1_555
Mg71 Mg92 3.194839 1_555
Mg71 Mg86 3.198149 1_555
Mg72 Mg73 3.189244 1_555
Mg72 Mg88 3.194830 1_555
Mg72 Mg91 3.194831 1_555
Mg72 Mg87 3.198150 1_555
Mg73 Mg92 3.194830 1_555
Mg73 Mg91 3.194839 1_555
Mg73 Mg96 3.198150 1_555
Mg74 Mg97 3.181946 1_545
Mg74 Mg80 3.181962 1_655
Mg74 Mg76 3.185004 1_655
Mg74 Mg94 3.185013 1_545
Mg74 Mg78 3.193737 1_555
Mg74 Mg81 3.193738 1_555
Mg75 Mg79 3.181955 1_555
Mg75 Mg98 3.181955 1_545
Mg75 Mg95 3.185012 1_545
Mg75 Mg76 3.185012 1_555
Mg75 Mg82 3.193744 1_555
Mg75 Mg77 3.193744 1_555
Mg76 Mg79 3.183625 1_555
Mg76 Mg80 3.183626 1_555
Mg76 Mg95 3.189238 1_545
Mg76 Mg94 3.189245 1_445
Mg77 Mg78 3.181084 1_555
Mg77 Mg83 3.181990 1_555
Mg77 Mg96 3.182346 1_545
Mg77 Mg82 3.182897 1_555
Mg77 Mg98 3.191020 1_545
Mg78 Mg83 3.181999 1_555
Mg78 Mg96 3.182360 1_545
Mg78 Mg81 3.182888 1_555
Mg78 Mg97 3.191014 1_545
Mg79 Mg88 3.190182 1_555
Mg79 Mg82 3.191020 1_555
Mg79 Mg87 3.191047 1_555
Mg79 Mg80 3.192573 1_555
Mg80 Mg88 3.190180 1_555
Mg80 Mg81 3.190997 1_455
Mg80 Mg86 3.191040 1_555
Mg81 Mg85 3.181101 1_555
Mg81 Mg83 3.182006 1_555
Mg81 Mg86 3.182344 1_655
Mg82 Mg84 3.181084 1_555
Mg82 Mg83 3.181982 1_555
Mg82 Mg87 3.182362 1_555
Mg83 Mg84 3.181983 1_555
Mg83 Mg85 3.181990 1_555
Mg84 Mg87 3.182369 1_555
Mg84 Mg85 3.182896 1_555
Mg84 Mg89 3.191014 1_555
Mg84 Mg93 3.193736 1_555
Mg85 Mg86 3.182344 1_655
Mg85 Mg90 3.191004 1_655
Mg85 Mg93 3.193753 1_555
Mg86 Mg90 3.191056 1_555
Mg86 Mg88 3.195483 1_555
Mg86 Mg92 3.195491 1_555
Mg86 Mg99 3.198149 1_555
Mg87 Mg89 3.191047 1_555
Mg87 Mg88 3.195475 1_555
Mg87 Mg91 3.195476 1_555
Mg88 Mg91 3.194301 1_555
Mg88 Mg92 3.194302 1_555
Mg88 Mg99 3.194831 1_555
Mg89 Mg93 3.181946 1_555
Mg89 Mg94 3.183617 1_555
Mg89 Mg91 3.190181 1_555
Mg89 Mg97 3.192574 1_555
Mg90 Mg93 3.181962 1_455
Mg90 Mg95 3.183626 1_555
Mg90 Mg92 3.190180 1_555
Mg90 Mg98 3.192572 1_555
Mg91 Mg97 3.190180 1_555
Mg91 Mg92 3.194301 1_555
Mg91 Mg96 3.195492 1_555
Mg92 Mg98 3.190181 1_555
Mg92 Mg99 3.194839 1_555
Mg92 Mg96 3.195483 1_555
Mg93 Mg94 3.184981 1_555
Mg93 Mg95 3.185004 1_655
Mg94 Mg97 3.183633 1_555
Mg94 Mg95 3.189229 1_655
Mg95 Mg98 3.183625 1_555
Mg96 Mg98 3.191039 1_555
Mg96 Mg97 3.191055 1_555
Mg100 Mg105 3.185788 1_555
Mg100 Mg106 3.185788 1_555
Mg100 Mg99 3.189235 1_555
Mg100 Mg101 3.189244 1_555
Mg100 Mg116 3.190548 1_555
Mg100 Mg113 3.190549 1_555
Mg100 Mg88 3.194830 1_555
Mg100 Mg91 3.194831 1_555
Mg100 Mg87 3.198150 1_555
Mg100 Mg128 3.200876 1_555
Mg100 Mg127 3.200884 1_555
Mg100 Mg138 3.202869 1_555
Mg101 Mg107 3.185780 1_555
Mg101 Mg106 3.185804 1_555
Mg101 Mg99 3.189251 1_555
Mg101 Mg112 3.190533 1_565
Mg101 Mg111 3.190540 1_565
Mg101 Mg92 3.194830 1_555
Mg101 Mg91 3.194839 1_555
Mg101 Mg96 3.198150 1_555
Mg101 Mg129 3.200884 1_555
Mg101 Mg128 3.200892 1_555
Mg101 Mg139 3.202869 1_555
Mg102 Mg125 3.178891 1_555
Mg102 Mg112 3.184155 1_555
Mg102 Mg113 3.184155 1_555
Mg102 Mg108 3.190681 1_555
Mg102 Mg110 3.190681 1_555
Mg102 Mg75 3.194708 1_555
Mg102 Mg77 3.196178 1_555
Mg102 Mg82 3.196178 1_555
Mg102 Mg120 3.198464 1_555
Mg102 Mg119 3.198471 1_545
Mg102 Mg132 3.199046 1_555
Mg102 Mg134 3.199046 1_555
Mg103 Mg124 3.178884 1_555
Mg103 Mg114 3.184146 1_655
Mg103 Mg111 3.184162 1_555
Mg103 Mg109 3.190675 1_555
Mg103 Mg108 3.190682 1_555
Mg103 Mg74 3.194708 1_555
Mg103 Mg81 3.196170 1_555
Mg103 Mg78 3.196178 1_555
Mg103 Mg121 3.198455 1_655
Mg103 Mg118 3.198464 1_545
Mg103 Mg133 3.199038 1_555
Mg103 Mg131 3.199053 1_555
Mg104 Mg126 3.178892 1_555
Mg104 Mg115 3.184138 1_655
Mg104 Mg116 3.184170 1_555
Mg104 Mg110 3.190673 1_555
Mg104 Mg109 3.190674 1_555
Mg104 Mg93 3.194716 1_555
Mg104 Mg85 3.196170 1_555
Mg104 Mg84 3.196178 1_555
Mg104 Mg123 3.198463 1_655
Mg104 Mg122 3.198480 1_555
Mg104 Mg136 3.199030 1_555
Mg104 Mg135 3.199053 1_555
Mg105 Mg113 3.183133 1_555
Mg105 Mg114 3.183149 1_555
Mg105 Mg99 3.185789 1_555
Mg105 Mg88 3.192635 1_555
Mg105 Mg121 3.193067 1_555
Mg105 Mg120 3.193076 1_555
Mg105 Mg127 3.193510 1_555
Mg105 Mg79 3.199467 1_555
Mg105 Mg80 3.199474 1_555
Mg105 Mg140 3.212241 1_555
Mg105 Mg141 3.212248 1_555
Mg106 Mg116 3.183134 1_555
Mg106 Mg111 3.183150 1_565
Mg106 Mg91 3.192634 1_555
Mg106 Mg122 3.193059 1_555
Mg106 Mg118 3.193067 1_555
Mg106 Mg128 3.193518 1_555
Mg106 Mg89 3.199467 1_555
Mg106 Mg97 3.199475 1_555
Mg106 Mg143 3.212233 1_555
Mg106 Mg145 3.212249 1_555
Mg107 Mg112 3.183133 1_565
Mg107 Mg115 3.183149 1_555
Mg107 Mg99 3.185805 1_555
Mg107 Mg92 3.192635 1_555
Mg107 Mg119 3.193060 1_555
Mg107 Mg123 3.193067 1_555
Mg107 Mg129 3.193510 1_555
Mg107 Mg98 3.199467 1_555
Mg107 Mg90 3.199474 1_555
Mg107 Mg144 3.212241 1_555
Mg107 Mg142 3.212249 1_555
Mg108 Mg111 3.187860 1_555
Mg108 Mg112 3.187867 1_555
Mg108 Mg131 3.191345 1_555
Mg108 Mg132 3.191352 1_555
Mg108 Mg77 3.192059 1_555
Mg108 Mg78 3.192059 1_555
Mg108 Mg109 3.196622 1_555
Mg108 Mg110 3.196639 1_555
Mg108 Mg130 3.199464 1_555
Mg108 Mg83 3.199505 1_555
Mg109 Mg114 3.187859 1_655
Mg109 Mg115 3.187867 1_655
Mg109 Mg133 3.191352 1_555
Mg109 Mg136 3.191360 1_555
Mg109 Mg85 3.192067 1_555
Mg109 Mg81 3.192067 1_555
Mg109 Mg110 3.196630 1_555
Mg109 Mg130 3.199456 1_555
Mg109 Mg83 3.199497 1_555
Mg110 Mg116 3.187860 1_555
Mg110 Mg113 3.187867 1_555
Mg110 Mg135 3.191344 1_555
Mg110 Mg134 3.191352 1_555
Mg110 Mg82 3.192059 1_555
Mg110 Mg84 3.192059 1_555
Mg110 Mg130 3.199456 1_555
Mg110 Mg83 3.199497 1_555
Mg111 Mg131 3.193172 1_555
Mg111 Mg118 3.196384 1_545
Mg111 Mg97 3.196707 1_545
Mg111 Mg139 3.198950 1_545
Mg111 Mg96 3.201976 1_545
Mg111 Mg78 3.203699 1_555
Mg111 Mg112 3.204033 1_555
Mg111 Mg145 3.214570 1_545
Mg112 Mg132 3.193172 1_555
Mg112 Mg119 3.196384 1_545
Mg112 Mg98 3.196707 1_545
Mg112 Mg139 3.198943 1_545
Mg112 Mg96 3.201969 1_545
Mg112 Mg77 3.203699 1_555
Mg112 Mg144 3.214570 1_545
Mg113 Mg134 3.193172 1_555
Mg113 Mg120 3.196392 1_555
Mg113 Mg79 3.196707 1_555
Mg113 Mg138 3.198951 1_555
Mg113 Mg87 3.201977 1_555
Mg113 Mg82 3.203699 1_555
Mg113 Mg116 3.204033 1_555
Mg113 Mg140 3.214570 1_555
Mg114 Mg99 3.190532 1_555
Mg114 Mg133 3.193171 1_455
Mg114 Mg121 3.196385 1_555
Mg114 Mg80 3.196707 1_555
Mg114 Mg137 3.198943 1_555
Mg114 Mg86 3.201969 1_555
Mg114 Mg81 3.203691 1_455
Mg114 Mg115 3.204034 1_555
Mg114 Mg141 3.214562 1_555
Mg115 Mg99 3.190540 1_555
Mg115 Mg136 3.193171 1_455
Mg115 Mg123 3.196385 1_555
Mg115 Mg90 3.196707 1_555
Mg115 Mg137 3.198951 1_555
Mg115 Mg86 3.201977 1_555
Mg115 Mg85 3.203691 1_455
Mg115 Mg142 3.214570 1_555
Mg116 Mg135 3.193172 1_555
Mg116 Mg122 3.196384 1_555
Mg116 Mg89 3.196707 1_555
Mg116 Mg138 3.198950 1_555
Mg116 Mg87 3.201976 1_555
Mg116 Mg84 3.203699 1_555
Mg116 Mg143 3.214578 1_555
Mg117 Mg120 3.171029 1_555
Mg117 Mg122 3.171037 1_445
Mg117 Mg118 3.171037 1_445
Mg117 Mg119 3.171037 1_545
Mg117 Mg121 3.171038 1_555
Mg117 Mg123 3.171038 1_545
Mg117 Mg94 3.215071 1_445
Mg117 Mg76 3.215072 1_555
Mg117 Mg95 3.215072 1_545
Mg117 Mg147 3.250139 1_445
Mg117 Mg146 3.250140 1_555
Mg117 Mg148 3.250140 1_545
Mg118 Mg122 3.160700 1_555
Mg118 Mg145 3.172112 1_555
Mg118 Mg124 3.174778 1_565
Mg118 Mg121 3.181324 1_665
Mg118 Mg94 3.213509 1_555
Mg118 Mg74 3.226207 1_565
Mg118 Mg97 3.227278 1_555
Mg118 Mg147 3.308238 1_555
Mg119 Mg123 3.160699 1_555
Mg119 Mg144 3.172112 1_555
Mg119 Mg125 3.174778 1_565
Mg119 Mg120 3.181310 1_565
Mg119 Mg95 3.213501 1_555
Mg119 Mg75 3.226215 1_565
Mg119 Mg98 3.227278 1_555
Mg119 Mg148 3.308237 1_555
Mg120 Mg121 3.160707 1_555
Mg120 Mg140 3.172120 1_555
Mg120 Mg125 3.174770 1_555
Mg120 Mg76 3.213501 1_555
Mg120 Mg75 3.226207 1_555
Mg120 Mg79 3.227286 1_555
Mg120 Mg146 3.308237 1_555
Mg121 Mg141 3.172120 1_555
Mg121 Mg124 3.174778 1_455
Mg121 Mg76 3.213501 1_555
Mg121 Mg74 3.226214 1_455
Mg121 Mg80 3.227278 1_555
Mg121 Mg146 3.308238 1_555
Mg122 Mg143 3.172112 1_555
Mg122 Mg126 3.174778 1_555
Mg122 Mg123 3.181325 1_655
Mg122 Mg94 3.213493 1_555
Mg122 Mg93 3.226207 1_555
Mg122 Mg89 3.227278 1_555
Mg122 Mg147 3.308238 1_555
Mg123 Mg142 3.172112 1_555
Mg123 Mg126 3.174778 1_455
Mg123 Mg95 3.213501 1_555
Mg123 Mg93 3.226214 1_455
Mg123 Mg90 3.227278 1_555
Mg123 Mg148 3.308238 1_555
Mg124 Mg6 3.168137 1_556
Mg124 Mg145 3.169643 1_545
Mg124 Mg141 3.169650 1_655
Mg124 Mg133 3.172369 1_555
Mg124 Mg131 3.172384 1_555
Mg124 Mg2 3.197874 1_556
Mg124 Mg4 3.197874 1_556
Mg124 Mg146 3.211992 1_655
Mg124 Mg147 3.211993 1_545
Mg125 Mg7 3.168137 1_556
Mg125 Mg144 3.169644 1_545
Mg125 Mg140 3.169644 1_555
Mg125 Mg134 3.172384 1_555
Mg125 Mg132 3.172384 1_555
Mg125 Mg3 3.197874 1_556
Mg125 Mg5 3.197874 1_556
Mg125 Mg148 3.211992 1_545
Mg125 Mg146 3.211992 1_555
Mg126 Mg16 3.168137 1_556
Mg126 Mg142 3.169643 1_655
Mg126 Mg143 3.169651 1_555
Mg126 Mg136 3.172369 1_555
Mg126 Mg135 3.172384 1_555
Mg126 Mg23 3.197874 1_556
Mg126 Mg22 3.197874 1_556
Mg126 Mg148 3.211992 1_655
Mg126 Mg147 3.211993 1_555
Mg127 Mg138 3.188896 1_555
Mg127 Mg137 3.188904 1_555
Mg127 Mg128 3.194170 1_555
Mg127 Mg129 3.194187 1_555
Mg127 Mg15 3.196645 1_556
Mg127 Mg14 3.196646 1_556
Mg127 Mg99 3.200885 1_555
Mg127 Mg141 3.203061 1_555
Mg127 Mg140 3.203070 1_555
Mg128 Mg138 3.188889 1_555
Mg128 Mg139 3.188921 1_555
Mg128 Mg129 3.194178 1_555
Mg128 Mg15 3.196638 1_556
Mg128 Mg19 3.196646 1_556
Mg128 Mg143 3.203069 1_555
Mg128 Mg145 3.203085 1_555
Mg128 Mg21 3.214449 1_556
Mg129 Mg139 3.188904 1_555
Mg129 Mg137 3.188912 1_555
Mg129 Mg19 3.196645 1_556
Mg129 Mg14 3.196646 1_556
Mg129 Mg99 3.200892 1_555
Mg129 Mg142 3.203069 1_555
Mg129 Mg144 3.203070 1_555
Mg129 Mg20 3.214441 1_556
Mg130 Mg135 3.183614 1_555
Mg130 Mg136 3.183620 1_555
Mg130 Mg134 3.183621 1_555
Mg130 Mg132 3.183628 1_555
Mg130 Mg133 3.183628 1_555
Mg130 Mg131 3.183630 1_555
Mg130 Mg8 3.198928 1_556
Mg131 Mg132 3.180541 1_555
Mg131 Mg133 3.186690 1_555
Mg131 Mg139 3.187040 1_545
Mg131 Mg8 3.190583 1_556
Mg131 Mg145 3.203881 1_545
Mg131 Mg6 3.205985 1_556
Mg132 Mg134 3.186699 1_555
Mg132 Mg139 3.187034 1_545
Mg132 Mg8 3.190583 1_556
Mg132 Mg144 3.203880 1_545
Mg132 Mg7 3.205985 1_556
Mg133 Mg136 3.180574 1_555
Mg133 Mg137 3.187040 1_655
Mg133 Mg9 3.195680 1_556
Mg133 Mg141 3.203864 1_655
Mg133 Mg6 3.205977 1_556
Mg134 Mg135 3.180541 1_555
Mg134 Mg138 3.187050 1_555
Mg134 Mg140 3.203880 1_555
Mg134 Mg7 3.205986 1_556
Mg135 Mg136 3.186690 1_555
Mg135 Mg138 3.187048 1_555
Mg135 Mg18 3.195673 1_556
Mg135 Mg143 3.203897 1_555
Mg135 Mg16 3.205985 1_556
Mg136 Mg137 3.187048 1_655
Mg136 Mg17 3.195680 1_556
Mg136 Mg142 3.203872 1_655
Mg136 Mg16 3.205977 1_556
Mg137 Mg14 3.189515 1_556
Mg137 Mg99 3.202869 1_555
Mg137 Mg9 3.213549 1_456
Mg137 Mg17 3.213557 1_456
Mg137 Mg141 3.218079 1_555
Mg137 Mg142 3.218111 1_555
Mg138 Mg15 3.189508 1_556
Mg138 Mg18 3.213565 1_556
Mg138 Mg140 3.218102 1_555
Mg138 Mg143 3.218110 1_555
Mg139 Mg19 3.189516 1_556
Mg139 Mg144 3.218094 1_555
Mg139 Mg145 3.218110 1_555
Mg140 Mg141 3.163941 1_555
Mg140 Mg146 3.239996 1_555
Mg140 Mg5 3.256071 1_556
Mg141 Mg9 3.175216 1_456
Mg141 Mg146 3.240013 1_555
Mg141 Mg4 3.256088 1_456
Mg142 Mg144 3.163933 1_555
Mg142 Mg20 3.173091 1_556
Mg142 Mg17 3.175224 1_456
Mg142 Mg148 3.239997 1_555
Mg142 Mg23 3.256072 1_456
Mg143 Mg145 3.163918 1_555
Mg143 Mg21 3.173083 1_556
Mg143 Mg18 3.175232 1_556
Mg143 Mg147 3.239988 1_555
Mg143 Mg22 3.256071 1_556
Mg144 Mg20 3.173099 1_556
Mg144 Mg148 3.239996 1_555
Mg144 Mg3 3.256071 1_566
Mg145 Mg21 3.173099 1_556
Mg145 Mg147 3.239996 1_555
Mg145 Mg2 3.256071 1_566
Mg146 Mg4 3.024386 1_456
Mg146 Mg5 3.024394 1_556
Mg146 Mg147 3.028441 1_445
Mg146 Mg148 3.028442 1_545
Mg147 Mg22 3.024394 1_556
Mg147 Mg2 3.024394 1_566
Mg147 Mg148 3.028441 1_655
Mg148 Mg3 3.024394 1_566
Mg148 Mg23 3.024394 1_456
Fe0 Mg147 3.020148 1_444
Fe0 Mg146 3.020148 1_554
Fe0 Mg148 3.020148 1_544
Fe0 Mg25 3.020160 1_445
Fe0 Mg24 3.020161 1_555
Fe0 Mg26 3.020161 1_545
Fe0 Mg4 3.024056 1_455
Fe0 Mg5 3.024071 1_555
Fe0 Mg3 3.024071 1_555
Fe0 Mg22 3.024071 1_445
Fe0 Mg2 3.024071 1_455
Fe0 Mg23 3.024072 1_445
