# generated using pymatgen
data_TeW2SeS2
_symmetry_space_group_name_H-M   'P 1'
_cell_length_a   3.30678268
_cell_length_b   3.30678268
_cell_length_c   37.72478000
_cell_angle_alpha   90.00000000
_cell_angle_beta   90.00000000
_cell_angle_gamma   120.00001357
_symmetry_Int_Tables_number   1
_chemical_formula_structural   TeW2SeS2
_chemical_formula_sum   'Te2 W4 Se2 S4'
_cell_volume   357.24700466
_cell_formula_units_Z   2
loop_
 _symmetry_equiv_pos_site_id
 _symmetry_equiv_pos_as_xyz
  1  'x, y, z'
loop_
 _atom_site_type_symbol
 _atom_site_label
 _atom_site_symmetry_multiplicity
 _atom_site_fract_x
 _atom_site_fract_y
 _atom_site_fract_z
 _atom_site_occupancy
  Te  Te0  1  0.33333300  0.66666700  0.41873800  1
  Te  Te1  1  0.33333300  0.66666700  0.52064700  1
  W  W0  1  0.00000000  0.00000000  0.09393500  1
  W  W1  1  0.00000000  0.00000000  0.46967200  1
  W  W2  1  0.33333300  0.66666700  0.28175200  1
  W  W3  1  0.33333300  0.66666700  0.65755100  1
  Se  Se0  1  0.00000000  0.00000000  0.32647200  1
  Se  Se1  1  0.00000000  0.00000000  0.23703200  1
  S  S0  1  0.00000000  0.00000000  0.69822900  1
  S  S1  1  0.33333300  0.66666700  0.05324400  1
  S  S2  1  0.33333300  0.66666700  0.13460900  1
  S  S3  1  0.00000000  0.00000000  0.61686700  1
loop_
_geom_bond_atom_site_label_1
_geom_bond_atom_site_label_2
_geom_bond_distance
_geom_bond_site_symmetry_2
Te0 W1 2.708688 1_565
Te0 W1 2.708690 1_665
Te0 W1 2.708690 1_555
Te1 W1 2.709786 1_565
Te1 W1 2.709788 1_555
Te1 W1 2.709788 1_665
Se0 W2 2.547759 1_545
Se0 W2 2.547761 1_445
Se0 W2 2.547761 1_555
Se1 W2 2.547759 1_545
Se1 W2 2.547761 1_445
Se1 W2 2.547761 1_555
S0 W3 2.449455 1_545
S0 W3 2.449457 1_445
S0 W3 2.449457 1_555
S1 W0 2.449763 1_565
S1 W0 2.449764 1_555
S1 W0 2.449764 1_665
S2 W0 2.449361 1_565
S2 W0 2.449363 1_555
S2 W0 2.449363 1_665
S3 W3 2.449597 1_545
S3 W3 2.449599 1_555
S3 W3 2.449599 1_445
