# generated using pymatgen
data_Li7Mn5O12
_symmetry_space_group_name_H-M   'P 1'
_cell_length_a   2.98423002
_cell_length_b   14.43983890
_cell_length_c   10.84930853
_cell_angle_alpha   73.90595669
_cell_angle_beta   82.08285436
_cell_angle_gamma   95.92654313
_symmetry_Int_Tables_number   1
_chemical_formula_structural   Li7Mn5O12
_chemical_formula_sum   'Li14 Mn10 O24'
_cell_volume   439.97052471
_cell_formula_units_Z   2
loop_
 _symmetry_equiv_pos_site_id
 _symmetry_equiv_pos_as_xyz
  1  'x, y, z'
loop_
 _atom_site_type_symbol
 _atom_site_label
 _atom_site_symmetry_multiplicity
 _atom_site_fract_x
 _atom_site_fract_y
 _atom_site_fract_z
 _atom_site_occupancy
  Li  Li0  1  0.33329900  0.33329200  0.66670100  1
  Li  Li1  1  0.33335600  0.83334700  0.16664500  1
  Li  Li2  1  0.83744700  0.71732900  0.04238800  1
  Li  Li3  1  0.83759600  0.21731900  0.54208000  1
  Li  Li4  1  0.82920600  0.44935100  0.79099400  1
  Li  Li5  1  0.82940300  0.94953500  0.29079600  1
  Li  Li6  1  0.17354800  0.29480800  0.94771700  1
  Li  Li7  1  0.17330300  0.79475600  0.44814200  1
  Li  Li8  1  0.49337900  0.87192900  0.88517800  1
  Li  Li9  1  0.49300700  0.37164600  0.38564800  1
  Li  Li10  1  0.16677500  0.53981700  0.20630100  1
  Li  Li11  1  0.16651700  0.03961600  0.70660200  1
  Li  Li12  1  0.49975000  0.12674900  0.12724000  1
  Li  Li13  1  0.50005600  0.62704300  0.62691600  1
  Mn  Mn0  1  0.99610500  0.49450500  0.50212500  1
  Mn  Mn1  1  0.67064300  0.67225100  0.33114700  1
  Mn  Mn2  1  0.99943000  0.75026700  0.75136100  1
  Mn  Mn3  1  0.66680500  0.41600100  0.08243600  1
  Mn  Mn4  1  0.66707500  0.91626700  0.58211100  1
  Mn  Mn5  1  0.33316600  0.58318000  0.91678600  1
  Mn  Mn6  1  0.33280900  0.08287300  0.41717800  1
  Mn  Mn7  1  0.99611900  0.99452200  0.00211600  1
  Mn  Mn8  1  0.67059800  0.17222900  0.83116100  1
  Mn  Mn9  1  0.00067400  0.25143600  0.25011500  1
  O  O0  1  0.74302300  0.30170600  0.81555100  1
  O  O1  1  0.74303000  0.80165100  0.31552700  1
  O  O2  1  0.92362100  0.86497600  0.01784700  1
  O  O3  1  0.92368100  0.36506600  0.51777300  1
  O  O4  1  0.08100400  0.38888800  0.22683900  1
  O  O5  1  0.08084100  0.88871000  0.72705800  1
  O  O6  1  0.58588300  0.27798100  0.10636400  1
  O  O7  1  0.58585300  0.77793900  0.60634100  1
  O  O8  1  0.43118700  0.48533200  0.62277200  1
  O  O9  1  0.43119200  0.98529400  0.12271100  1
  O  O10  1  0.23551000  0.68134500  0.21052800  1
  O  O11  1  0.23551500  0.18133600  0.71051600  1
  O  O12  1  0.74553600  0.55360300  0.06276500  1
  O  O13  1  0.74555300  0.05379700  0.56282700  1
  O  O14  1  0.92104500  0.61288600  0.77058300  1
  O  O15  1  0.92113900  0.11299500  0.27052600  1
  O  O16  1  0.09035200  0.14320100  0.96226300  1
  O  O17  1  0.09044300  0.64319900  0.46210600  1
  O  O18  1  0.57622900  0.52342900  0.37118700  1
  O  O19  1  0.57630100  0.02349400  0.87113100  1
  O  O20  1  0.41093600  0.72080300  0.89872800  1
  O  O21  1  0.41099200  0.22082200  0.39862800  1
  O  O22  1  0.25553500  0.44577500  0.93487100  1
  O  O23  1  0.25553500  0.94570800  0.43467200  1
loop_
_geom_bond_atom_site_label_1
_geom_bond_atom_site_label_2
_geom_bond_distance
_geom_bond_site_symmetry_2
Li0 O11 2.092125 1_555
Li0 O8 2.093201 1_555
Li0 O0 2.135648 1_455
Li0 O0 2.135829 1_555
Li0 O3 2.136143 1_555
Li0 O3 2.136437 1_455
Li1 O9 2.091893 1_555
Li1 O10 2.092710 1_555
Li1 O2 2.135245 1_555
Li1 O2 2.135453 1_455
Li1 O1 2.135826 1_455
Li1 O1 2.136095 1_555
Li2 O2 2.058066 1_555
Li2 O20 2.136550 1_654
Li2 O20 2.137327 1_554
Li2 O10 2.281114 1_555
Li2 O10 2.282049 1_655
Li2 O12 2.296311 1_555
Li3 O3 2.059938 1_555
Li3 O21 2.134865 1_655
Li3 O21 2.135656 1_555
Li3 O11 2.283414 1_555
Li3 O11 2.284362 1_655
Li3 O13 2.292572 1_555
Li4 O0 2.058007 1_555
Li4 O22 2.137987 1_555
Li4 O22 2.138670 1_655
Li4 O8 2.281762 1_655
Li4 O8 2.282679 1_555
Li4 O14 2.293503 1_555
Li5 O1 2.061084 1_555
Li5 O23 2.137448 1_555
Li5 O23 2.137831 1_655
Li5 O9 2.280697 1_655
Li5 O9 2.281663 1_555
Li5 O15 2.292745 1_565
Li6 O0 2.041734 1_555
Li6 O0 2.042411 1_455
Li6 O22 2.131534 1_555
Li6 O16 2.136464 1_555
Li6 O6 2.223903 1_456
Li6 O6 2.224650 1_556
Li7 O1 2.045093 1_555
Li7 O1 2.045645 1_455
Li7 O23 2.129746 1_555
Li7 O17 2.137184 1_555
Li7 O7 2.220415 1_455
Li7 O7 2.221106 1_555
Li8 O2 2.045304 1_456
Li8 O2 2.045964 1_556
Li8 O20 2.132039 1_555
Li8 O19 2.137093 1_565
Li8 O5 2.219993 1_655
Li8 O5 2.220405 1_555
Li9 O3 2.042223 1_455
Li9 O3 2.042768 1_555
Li9 O21 2.129145 1_555
Li9 O18 2.139194 1_555
Li9 O4 2.224572 1_655
Li9 O4 2.225145 1_555
Li10 O10 2.046616 1_555
Li10 O12 2.112806 1_555
Li10 O12 2.112825 1_455
Li10 O4 2.112997 1_555
Li10 O18 2.274342 1_455
Li10 O18 2.275167 1_555
Li11 O11 2.048312 1_555
Li11 O5 2.112844 1_545
Li11 O13 2.113835 1_555
Li11 O13 2.114030 1_455
Li11 O19 2.271924 1_455
Li11 O19 2.272821 1_555
Li12 O9 2.046595 1_545
Li12 O15 2.110958 1_455
Li12 O15 2.111013 1_555
Li12 O6 2.116607 1_555
Li12 O16 2.274916 1_654
Li12 O16 2.275824 1_554
Li13 O8 2.048962 1_555
Li13 O7 2.112447 1_555
Li13 O14 2.113148 1_455
Li13 O14 2.113170 1_555
Li13 O17 2.274147 1_655
Li13 O17 2.274991 1_555
Mn0 O3 1.816461 1_555
Mn0 O8 1.955198 1_555
Mn0 O8 1.955565 1_655
Mn0 O18 2.007986 1_555
Mn0 O18 2.008448 1_655
Mn0 O17 2.050006 1_655
Mn1 O1 1.815966 1_555
Mn1 O10 1.955157 1_655
Mn1 O10 1.955512 1_555
Mn1 O17 2.008127 1_655
Mn1 O17 2.008595 1_555
Mn1 O18 2.051785 1_555
Mn2 O14 1.922206 1_555
Mn2 O5 1.927367 1_655
Mn2 O7 2.108610 1_655
Mn2 O7 2.108707 1_555
Mn2 O20 2.125219 1_555
Mn2 O20 2.125314 1_655
Mn3 O6 1.922029 1_555
Mn3 O12 1.924422 1_555
Mn3 O4 2.104264 1_555
Mn3 O4 2.104504 1_655
Mn3 O22 2.126551 1_654
Mn3 O22 2.126721 1_554
Mn4 O13 1.924204 1_565
Mn4 O7 1.925862 1_555
Mn4 O5 2.107924 1_555
Mn4 O5 2.108422 1_655
Mn4 O23 2.125635 1_655
Mn4 O23 2.125975 1_555
Mn5 O22 1.924984 1_555
Mn5 O20 1.928159 1_555
Mn5 O12 2.114507 1_456
Mn5 O12 2.115551 1_556
Mn5 O14 2.116268 1_555
Mn5 O14 2.117007 1_455
Mn6 O23 1.922846 1_545
Mn6 O21 1.931754 1_555
Mn6 O13 2.112318 1_455
Mn6 O13 2.113189 1_555
Mn6 O15 2.119501 1_555
Mn6 O15 2.120162 1_455
Mn7 O2 1.817804 1_555
Mn7 O9 1.954754 1_555
Mn7 O9 1.955087 1_655
Mn7 O19 2.008285 1_564
Mn7 O19 2.008794 1_664
Mn7 O16 2.049971 1_664
Mn8 O0 1.817091 1_555
Mn8 O11 1.955381 1_655
Mn8 O11 1.955598 1_555
Mn8 O16 2.009139 1_655
Mn8 O16 2.009548 1_555
Mn8 O19 2.050635 1_555
Mn9 O4 1.915147 1_555
Mn9 O15 1.934874 1_455
Mn9 O6 2.099804 1_555
Mn9 O6 2.099968 1_455
Mn9 O21 2.133386 1_555
Mn9 O21 2.133457 1_455
