# generated using pymatgen
data_Be3Pd
_symmetry_space_group_name_H-M   'P 1'
_cell_length_a   4.29949461
_cell_length_b   4.29949461
_cell_length_c   4.29949461
_cell_angle_alpha   134.56801515
_cell_angle_beta   134.56801515
_cell_angle_gamma   66.20215248
_symmetry_Int_Tables_number   1
_chemical_formula_structural   Be3Pd
_chemical_formula_sum   'Be3 Pd1'
_cell_volume   39.71436487
_cell_formula_units_Z   1
loop_
 _symmetry_equiv_pos_site_id
 _symmetry_equiv_pos_as_xyz
  1  'x, y, z'
loop_
 _atom_site_type_symbol
 _atom_site_label
 _atom_site_symmetry_multiplicity
 _atom_site_fract_x
 _atom_site_fract_y
 _atom_site_fract_z
 _atom_site_occupancy
  Be  Be0  1  0.75000000  0.25000000  0.50000000  1
  Be  Be1  1  0.25000000  0.75000000  0.50000000  1
  Be  Be2  1  0.50000000  0.50000000  0.00000000  1
  Pd  Pd0  1  0.00000000  0.00000000  0.00000000  1
loop_
_geom_bond_atom_site_label_1
_geom_bond_atom_site_label_2
_geom_bond_distance
_geom_bond_site_symmetry_2
Be0 Be1 2.348030 1_656
Be0 Be1 2.348030 1_544
Be0 Be1 2.348030 1_555
Be0 Be1 2.348030 1_645
Be0 Pd0 2.449434 1_555
Be0 Be2 2.449434 1_545
Be0 Pd0 2.449434 1_656
Be0 Pd0 2.449434 1_655
Be0 Pd0 2.449434 1_666
Be0 Be2 2.449434 1_555
Be0 Be2 2.449434 1_556
Be0 Be2 2.449434 1_656
Be1 Pd0 2.449434 1_555
Be1 Pd0 2.449434 1_565
Be1 Pd0 2.449434 1_566
Be1 Pd0 2.449434 1_666
Be1 Be2 2.449434 1_566
Be1 Be2 2.449434 1_455
Be1 Be2 2.449434 1_555
Be1 Be2 2.449434 1_556
Be2 Pd0 2.348030 1_666
Be2 Pd0 2.348030 1_554
Be2 Pd0 2.348030 1_565
Be2 Pd0 2.348030 1_655
