# generated using pymatgen
data_Sr10P6BrClO24
_symmetry_space_group_name_H-M   'P 1'
_cell_length_a   10.05032049
_cell_length_b   10.05032049
_cell_length_c   7.28661200
_cell_angle_alpha   90.00000000
_cell_angle_beta   90.00000000
_cell_angle_gamma   120.00000321
_symmetry_Int_Tables_number   1
_chemical_formula_structural   Sr10P6BrClO24
_chemical_formula_sum   'Sr10 P6 Br1 Cl1 O24'
_cell_volume   637.40590740
_cell_formula_units_Z   1
loop_
 _symmetry_equiv_pos_site_id
 _symmetry_equiv_pos_as_xyz
  1  'x, y, z'
loop_
 _atom_site_type_symbol
 _atom_site_label
 _atom_site_symmetry_multiplicity
 _atom_site_fract_x
 _atom_site_fract_y
 _atom_site_fract_z
 _atom_site_occupancy
  Sr  Sr0  1  0.33333300  0.66666700  0.49971100  1
  Sr  Sr1  1  0.66666700  0.33333300  0.99968700  1
  Sr  Sr2  1  0.66666700  0.33333300  0.50028900  1
  Sr  Sr3  1  0.33333300  0.66666700  0.00031300  1
  Sr  Sr4  1  0.25370300  0.99284500  0.24806900  1
  Sr  Sr5  1  0.73914200  0.74629700  0.24806900  1
  Sr  Sr6  1  0.00715500  0.26085800  0.24806900  1
  Sr  Sr7  1  0.74629700  0.00715500  0.75193100  1
  Sr  Sr8  1  0.26085800  0.25370300  0.75193100  1
  Sr  Sr9  1  0.99284500  0.73914200  0.75193100  1
  P  P0  1  0.96795800  0.59215300  0.25019800  1
  P  P1  1  0.62419600  0.03204200  0.25019800  1
  P  P2  1  0.40784700  0.37580400  0.25019800  1
  P  P3  1  0.03204200  0.40784700  0.74980200  1
  P  P4  1  0.37580400  0.96795800  0.74980200  1
  P  P5  1  0.59215300  0.62419600  0.74980200  1
  Br  Br0  1  0.00000000  0.00000000  0.50000000  1
  Cl  Cl0  1  0.00000000  0.00000000  0.00000000  1
  O  O0  1  0.91663000  0.64519300  0.42338000  1
  O  O1  1  0.72856200  0.08337000  0.42338000  1
  O  O2  1  0.35480700  0.27143800  0.42338000  1
  O  O3  1  0.08323300  0.35427000  0.92294500  1
  O  O4  1  0.27103600  0.91676700  0.92294500  1
  O  O5  1  0.64573000  0.72896400  0.92294500  1
  O  O6  1  0.08337000  0.35480700  0.57662000  1
  O  O7  1  0.27143800  0.91663000  0.57662000  1
  O  O8  1  0.64519300  0.72856200  0.57662000  1
  O  O9  1  0.91676700  0.64573000  0.07705500  1
  O  O10  1  0.72896400  0.08323300  0.07705500  1
  O  O11  1  0.35427000  0.27103600  0.07705500  1
  O  O12  1  0.14465400  0.65596400  0.24986600  1
  O  O13  1  0.51131000  0.85534600  0.24986600  1
  O  O14  1  0.34403600  0.48869000  0.24986600  1
  O  O15  1  0.85534600  0.34403600  0.75013400  1
  O  O16  1  0.48869000  0.14465400  0.75013400  1
  O  O17  1  0.65596400  0.51131000  0.75013400  1
  O  O18  1  0.87789400  0.41217600  0.24977000  1
  O  O19  1  0.53428200  0.12210600  0.24977000  1
  O  O20  1  0.58782400  0.46571800  0.24977000  1
  O  O21  1  0.12210600  0.58782400  0.75023000  1
  O  O22  1  0.46571800  0.87789400  0.75023000  1
  O  O23  1  0.41217600  0.53428200  0.75023000  1
loop_
_geom_bond_atom_site_label_1
_geom_bond_atom_site_label_2
_geom_bond_distance
_geom_bond_site_symmetry_2
Br0 Sr8 3.171730 1_555
Br0 Sr5 3.171730 1_445
Br0 Sr9 3.171730 1_445
Br0 Sr6 3.171730 1_555
Br0 Sr7 3.171730 1_455
Br0 Sr4 3.171730 1_545
Cl0 Sr5 3.155526 1_445
Cl0 Sr8 3.155526 1_554
Cl0 Sr6 3.155526 1_555
Cl0 Sr9 3.155526 1_444
Cl0 Sr4 3.155526 1_545
Cl0 Sr7 3.155526 1_454
O0 P0 1.554891 1_555
O0 Sr9 2.546836 1_555
O0 Sr5 2.767470 1_555
O0 Sr2 2.928317 1_555
O1 P1 1.554880 1_555
O1 Sr7 2.546838 1_555
O1 Sr6 2.767476 1_655
O1 Sr2 2.928304 1_555
O2 P2 1.554880 1_555
O2 Sr8 2.546835 1_555
O2 Sr4 2.767478 1_545
O2 Sr2 2.928324 1_555
O3 P3 1.556719 1_555
O3 Sr6 2.522021 1_556
O3 Sr8 2.750566 1_555
O3 Sr3 2.932865 1_556
O4 P4 1.556719 1_555
O4 Sr4 2.522019 1_556
O4 Sr9 2.750559 1_455
O4 Sr3 2.932866 1_556
O5 P5 1.556719 1_555
O5 Sr5 2.522022 1_556
O5 Sr7 2.750558 1_565
O5 Sr3 2.932865 1_556
O6 P3 1.554891 1_555
O6 Sr6 2.546836 1_555
O6 Sr8 2.767470 1_555
O6 Sr0 2.928317 1_555
O7 P4 1.554880 1_555
O7 Sr4 2.546838 1_555
O7 Sr9 2.767476 1_455
O7 Sr0 2.928304 1_555
O8 P5 1.554880 1_555
O8 Sr5 2.546835 1_555
O8 Sr7 2.767478 1_565
O8 Sr0 2.928324 1_555
O9 P0 1.556719 1_555
O9 Sr9 2.522021 1_554
O9 Sr5 2.750566 1_555
O9 Sr1 2.932865 1_554
O10 P1 1.556719 1_555
O10 Sr7 2.522019 1_554
O10 Sr6 2.750559 1_655
O10 Sr1 2.932866 1_554
O11 P2 1.556719 1_555
O11 Sr8 2.522022 1_554
O11 Sr4 2.750558 1_545
O11 Sr1 2.932865 1_554
O12 P0 1.557580 1_455
O12 Sr3 2.590376 1_555
O12 Sr0 2.591870 1_555
O12 Sr4 2.992324 1_555
O13 P1 1.557582 1_565
O13 Sr3 2.590379 1_555
O13 Sr0 2.591873 1_555
O13 Sr5 2.992324 1_555
O14 P2 1.557590 1_555
O14 Sr3 2.590383 1_555
O14 Sr0 2.591877 1_555
O14 Sr6 2.992324 1_555
O15 P3 1.557580 1_655
O15 Sr1 2.590376 1_555
O15 Sr2 2.591870 1_555
O15 Sr7 2.992324 1_555
O16 P4 1.557582 1_545
O16 Sr1 2.590379 1_555
O16 Sr2 2.591873 1_555
O16 Sr8 2.992324 1_555
O17 P5 1.557590 1_555
O17 Sr1 2.590383 1_555
O17 Sr2 2.591877 1_555
O17 Sr9 2.992324 1_555
O18 P0 1.566493 1_555
O18 Sr6 2.444658 1_655
O18 Sr1 2.602506 1_554
O18 Sr2 2.604731 1_555
O19 P1 1.566502 1_555
O19 Sr4 2.444658 1_545
O19 Sr1 2.602507 1_554
O19 Sr2 2.604733 1_555
O20 P2 1.566493 1_555
O20 Sr5 2.444658 1_555
O20 Sr1 2.602513 1_554
O20 Sr2 2.604738 1_555
O21 P3 1.566493 1_555
O21 Sr9 2.444658 1_455
O21 Sr3 2.602506 1_556
O21 Sr0 2.604731 1_555
O22 P4 1.566502 1_555
O22 Sr7 2.444658 1_565
O22 Sr3 2.602507 1_556
O22 Sr0 2.604733 1_555
O23 P5 1.566493 1_555
O23 Sr8 2.444658 1_555
O23 Sr3 2.602513 1_556
O23 Sr0 2.604738 1_555
