# generated using pymatgen
data_BaNa(B3O5)3
_symmetry_space_group_name_H-M   'P 1'
_cell_length_a   8.64939597
_cell_length_b   8.64939597
_cell_length_c   8.64939662
_cell_angle_alpha   79.80427397
_cell_angle_beta   79.80427397
_cell_angle_gamma   79.80427588
_symmetry_Int_Tables_number   1
_chemical_formula_structural   BaNa(B3O5)3
_chemical_formula_sum   'Ba2 Na2 B18 O30'
_cell_volume   619.67531645
_cell_formula_units_Z   2
loop_
 _symmetry_equiv_pos_site_id
 _symmetry_equiv_pos_as_xyz
  1  'x, y, z'
loop_
 _atom_site_type_symbol
 _atom_site_label
 _atom_site_symmetry_multiplicity
 _atom_site_fract_x
 _atom_site_fract_y
 _atom_site_fract_z
 _atom_site_occupancy
  Ba  Ba0  1  0.49773021  0.49773021  0.49773021  1
  Ba  Ba1  1  -0.00226979  -0.00226979  -0.00226979  1
  Na  Na0  1  0.27967708  0.27967708  0.27967708  1
  Na  Na1  1  0.77967708  0.77967708  0.77967708  1
  B  B0  1  0.16077627  0.71637936  0.28375727  1
  B  B1  1  0.71637936  0.28375727  0.16077627  1
  B  B2  1  0.28375727  0.16077627  0.71637936  1
  B  B3  1  0.78375727  0.21637936  0.66077627  1
  B  B4  1  0.87316551  0.72349181  0.38427790  1
  B  B5  1  0.72349181  0.38427790  0.87316551  1
  B  B6  1  0.38427790  0.87316551  0.72349181  1
  B  B7  1  0.88427790  0.22349181  0.37316551  1
  B  B8  1  0.22349181  0.37316551  0.88427790  1
  B  B9  1  0.37316551  0.88427790  0.22349181  1
  B  B10  1  0.05750490  0.71114296  0.56751518  1
  B  B11  1  0.71114296  0.56751518  0.05750490  1
  B  B12  1  0.56751518  0.05750490  0.71114296  1
  B  B13  1  0.06751518  0.21114296  0.55750490  1
  B  B14  1  0.21114296  0.55750490  0.06751518  1
  B  B15  1  0.55750490  0.06751518  0.21114296  1
  B  B16  1  0.21637936  0.66077627  0.78375727  1
  B  B17  1  0.66077627  0.78375727  0.21637936  1
  O  O0  1  0.36190287  0.72642723  0.70650453  1
  O  O1  1  0.20650453  0.22642723  0.86190287  1
  O  O2  1  0.86190287  0.20650453  0.22642723  1
  O  O3  1  0.22642723  0.86190287  0.20650453  1
  O  O4  1  0.49234259  0.76187070  0.24993287  1
  O  O5  1  0.70650453  0.36190287  0.72642723  1
  O  O6  1  0.76187070  0.24993287  0.49234259  1
  O  O7  1  0.26187070  0.99234259  0.74993287  1
  O  O8  1  0.74993287  0.26187070  0.99234259  1
  O  O9  1  0.99234259  0.74993287  0.26187070  1
  O  O10  1  0.73368345  0.71579309  0.07126628  1
  O  O11  1  0.07126628  0.73368345  0.71579309  1
  O  O12  1  0.71579309  0.07126628  0.73368345  1
  O  O13  1  0.21579309  0.23368345  0.57126628  1
  O  O14  1  0.57126628  0.21579309  0.23368345  1
  O  O15  1  0.23368345  0.57126628  0.21579309  1
  O  O16  1  0.18285762  0.68558401  0.45137702  1
  O  O17  1  0.68558401  0.45137702  0.18285762  1
  O  O18  1  0.45137702  0.18285762  0.68558401  1
  O  O19  1  0.95137702  0.18558401  0.68285762  1
  O  O20  1  0.18558401  0.68285762  0.95137702  1
  O  O21  1  0.68285762  0.95137702  0.18558401  1
  O  O22  1  0.90288423  0.71527390  0.53867918  1
  O  O23  1  0.71527390  0.53867918  0.90288423  1
  O  O24  1  0.53867918  0.90288423  0.71527390  1
  O  O25  1  0.03867918  0.21527390  0.40288423  1
  O  O26  1  0.21527390  0.40288423  0.03867918  1
  O  O27  1  0.40288423  0.03867918  0.21527390  1
  O  O28  1  0.24993287  0.49234259  0.76187070  1
  O  O29  1  0.72642723  0.70650453  0.36190287  1
loop_
_geom_bond_atom_site_label_1
_geom_bond_atom_site_label_2
_geom_bond_distance
_geom_bond_site_symmetry_2
Ba0 O6 2.842477 1_555
Ba0 O4 2.842477 1_555
Ba0 O28 2.842477 1_555
Ba0 O29 2.871353 1_555
Ba0 O0 2.871353 1_555
Ba0 O5 2.871353 1_555
Ba0 O18 2.967718 1_555
Ba0 O16 2.967718 1_555
Ba0 O17 2.967718 1_555
Ba1 O8 2.842477 1_454
Ba1 O7 2.842477 1_544
Ba1 O9 2.842477 1_445
Ba1 O1 2.871353 1_554
Ba1 O3 2.871353 1_545
Ba1 O2 2.871353 1_455
Ba1 O21 2.967718 1_445
Ba1 O20 2.967718 1_544
Ba1 O19 2.967718 1_454
Na0 O25 2.281565 1_555
Na0 O27 2.281565 1_555
Na0 O26 2.281565 1_555
Na0 O15 2.460422 1_555
Na0 O14 2.460422 1_555
Na0 O13 2.460422 1_555
Na1 O23 2.281565 1_555
Na1 O24 2.281565 1_555
Na1 O22 2.281565 1_555
Na1 O11 2.460422 1_655
Na1 O12 2.460422 1_565
Na1 O10 2.460422 1_556
B0 O16 1.467201 1_555
B0 O15 1.472539 1_555
B0 O9 1.473424 1_455
B0 O3 1.474511 1_555
B1 O17 1.467201 1_555
B1 O14 1.472539 1_555
B1 O8 1.473424 1_554
B1 O2 1.474511 1_555
B2 O18 1.467201 1_555
B2 O13 1.472539 1_555
B2 O7 1.473424 1_545
B2 O1 1.474511 1_555
B3 O19 1.467201 1_555
B3 O12 1.472539 1_555
B3 O6 1.473424 1_555
B3 O5 1.474511 1_555
B4 O29 1.353864 1_555
B4 O9 1.359113 1_555
B4 O22 1.391432 1_555
B5 O5 1.353864 1_555
B5 O8 1.359113 1_555
B5 O23 1.391432 1_555
B6 O0 1.353864 1_555
B6 O7 1.359113 1_555
B6 O24 1.391432 1_555
B7 O2 1.353864 1_555
B7 O6 1.359113 1_555
B7 O25 1.391432 1_655
B8 O1 1.353864 1_555
B8 O28 1.359113 1_555
B8 O26 1.391432 1_556
B9 O3 1.353864 1_555
B9 O4 1.359113 1_555
B9 O27 1.391432 1_565
B10 O16 1.357082 1_555
B10 O11 1.359338 1_555
B10 O22 1.396450 1_455
B11 O17 1.357082 1_555
B11 O10 1.359338 1_555
B11 O23 1.396450 1_554
B12 O18 1.357082 1_555
B12 O12 1.359338 1_555
B12 O24 1.396450 1_545
B13 O19 1.357082 1_455
B13 O13 1.359338 1_555
B13 O25 1.396450 1_555
B14 O20 1.357082 1_554
B14 O15 1.359338 1_555
B14 O26 1.396450 1_555
B15 O21 1.357082 1_545
B15 O14 1.359338 1_555
B15 O27 1.396450 1_555
B16 O20 1.467201 1_555
B16 O11 1.472539 1_555
B16 O28 1.473424 1_555
B16 O0 1.474511 1_555
B17 O21 1.467201 1_555
B17 O10 1.472539 1_555
B17 O4 1.473424 1_555
B17 O29 1.474511 1_555
