# generated using pymatgen
data_Mn2FeSbO6
_symmetry_space_group_name_H-M   'P 1'
_cell_length_a   5.46627100
_cell_length_b   5.31791600
_cell_length_c   9.36790568
_cell_angle_alpha   55.76221889
_cell_angle_beta   90.00000000
_cell_angle_gamma   90.00000000
_symmetry_Int_Tables_number   1
_chemical_formula_structural   Mn2FeSbO6
_chemical_formula_sum   'Mn4 Fe2 Sb2 O12'
_cell_volume   225.12732085
_cell_formula_units_Z   2
loop_
 _symmetry_equiv_pos_site_id
 _symmetry_equiv_pos_as_xyz
  1  'x, y, z'
loop_
 _atom_site_type_symbol
 _atom_site_label
 _atom_site_symmetry_multiplicity
 _atom_site_fract_x
 _atom_site_fract_y
 _atom_site_fract_z
 _atom_site_occupancy
  Mn  Mn0  1  0.95042200  0.26398100  0.74705000  1
  Mn  Mn1  1  0.54957800  0.26398100  0.24705000  1
  Mn  Mn2  1  0.04957800  0.73601900  0.25295000  1
  Mn  Mn3  1  0.45042200  0.73601900  0.75295000  1
  Fe  Fe0  1  0.00000000  0.50000000  0.00000000  1
  Fe  Fe1  1  0.50000000  0.50000000  0.50000000  1
  Sb  Sb0  1  0.00000000  0.00000000  0.50000000  1
  Sb  Sb1  1  0.50000000  0.00000000  0.00000000  1
  O  O0  1  0.69052700  0.37026500  0.94099700  1
  O  O1  1  0.80947300  0.37026500  0.44099700  1
  O  O2  1  0.30947300  0.62973500  0.05900300  1
  O  O3  1  0.19052700  0.62973500  0.55900300  1
  O  O4  1  0.69416200  0.74825800  0.56621500  1
  O  O5  1  0.80583800  0.74825800  0.06621500  1
  O  O6  1  0.30583800  0.25174200  0.43378500  1
  O  O7  1  0.19416200  0.25174200  0.93378500  1
  O  O8  1  0.55558700  0.12747500  0.75405000  1
  O  O9  1  0.94441300  0.12747500  0.25405000  1
  O  O10  1  0.44441300  0.87252500  0.24595000  1
  O  O11  1  0.05558700  0.87252500  0.74595000  1
loop_
_geom_bond_atom_site_label_1
_geom_bond_atom_site_label_2
_geom_bond_distance
_geom_bond_site_symmetry_2
Mn0 O11 2.165250 1_645
Mn0 O7 2.170571 1_655
Mn0 O3 2.180248 1_655
Mn0 O8 2.266243 1_555
Mn0 O4 2.560308 1_555
Mn0 O0 2.606591 1_555
Mn0 O1 2.703650 1_555
Mn0 O5 2.803342 1_546
Mn1 O10 2.165250 1_545
Mn1 O6 2.170571 1_555
Mn1 O2 2.180248 1_555
Mn1 O9 2.266243 1_555
Mn1 O5 2.560308 1_555
Mn1 O1 2.606591 1_555
Mn1 O0 2.703650 1_554
Mn1 O4 2.803342 1_545
Mn2 O9 2.165250 1_465
Mn2 O5 2.170571 1_455
Mn2 O1 2.180248 1_455
Mn2 O10 2.266243 1_555
Mn2 O6 2.560308 1_555
Mn2 O2 2.606591 1_555
Mn2 O3 2.703650 1_555
Mn2 O7 2.803342 1_564
Mn3 O8 2.165250 1_565
Mn3 O4 2.170571 1_555
Mn3 O0 2.180248 1_555
Mn3 O11 2.266243 1_555
Mn3 O7 2.560308 1_555
Mn3 O3 2.606591 1_555
Mn3 O2 2.703650 1_556
Mn3 O6 2.803342 1_565
Fe0 O2 2.018003 1_555
Fe0 O0 2.018003 1_454
Fe0 O5 2.043449 1_455
Fe0 O7 2.043449 1_554
Fe0 O11 2.091796 1_554
Fe0 O9 2.091796 1_455
Fe1 O3 2.018003 1_555
Fe1 O1 2.018003 1_555
Fe1 O4 2.043449 1_555
Fe1 O6 2.043449 1_555
Fe1 O8 2.091796 1_555
Fe1 O10 2.091796 1_555
O0 Sb1 2.010625 1_556
O1 Sb0 2.010625 1_655
O2 Sb1 2.010625 1_565
O3 Sb0 2.010625 1_565
O4 Sb0 2.009343 1_665
O5 Sb1 2.009343 1_565
O6 Sb0 2.009343 1_555
O7 Sb1 2.009343 1_556
O8 Sb1 2.025564 1_556
O9 Sb0 2.025564 1_655
O10 Sb1 2.025564 1_565
O11 Sb0 2.025564 1_565
