# generated using pymatgen
data_MgNi2O5
_symmetry_space_group_name_H-M   'P 1'
_cell_length_a   3.13121500
_cell_length_b   5.29491100
_cell_length_c   10.94083100
_cell_angle_alpha   90.00000000
_cell_angle_beta   90.00000000
_cell_angle_gamma   90.00000000
_symmetry_Int_Tables_number   1
_chemical_formula_structural   MgNi2O5
_chemical_formula_sum   'Mg2 Ni4 O10'
_cell_volume   181.39355950
_cell_formula_units_Z   2
loop_
 _symmetry_equiv_pos_site_id
 _symmetry_equiv_pos_as_xyz
  1  'x, y, z'
loop_
 _atom_site_type_symbol
 _atom_site_label
 _atom_site_symmetry_multiplicity
 _atom_site_fract_x
 _atom_site_fract_y
 _atom_site_fract_z
 _atom_site_occupancy
  Mg  Mg0  1  0.50000000  0.12254800  0.00000000  1
  Mg  Mg1  1  0.00000000  0.87745200  0.50000000  1
  Ni  Ni0  1  0.00000000  0.54555600  0.85434900  1
  Ni  Ni1  1  0.50000000  0.45444400  0.64565100  1
  Ni  Ni2  1  0.50000000  0.45444400  0.35434900  1
  Ni  Ni3  1  0.00000000  0.54555600  0.14565100  1
  O  O0  1  0.50000000  0.62343300  0.50000000  1
  O  O1  1  0.00000000  0.37656700  0.00000000  1
  O  O2  1  0.50000000  0.34082700  0.80681600  1
  O  O3  1  0.00000000  0.65917300  0.69318400  1
  O  O4  1  0.50000000  0.34082700  0.19318400  1
  O  O5  1  0.00000000  0.65917300  0.30681600  1
  O  O6  1  0.00000000  0.87765700  0.06893700  1
  O  O7  1  0.50000000  0.12234300  0.43106300  1
  O  O8  1  0.50000000  0.12234300  0.56893700  1
  O  O9  1  0.00000000  0.87765700  0.93106300  1
loop_
_geom_bond_atom_site_label_1
_geom_bond_atom_site_label_2
_geom_bond_distance
_geom_bond_site_symmetry_2
Mg0 O1 2.064019 1_655
Mg0 O1 2.064019 1_555
Mg0 O6 2.168261 1_645
Mg0 O9 2.168261 1_644
Mg0 O9 2.168261 1_544
Mg0 O6 2.168261 1_545
Mg0 O4 2.408958 1_555
Mg0 O2 2.408958 1_554
Mg1 O0 2.064019 1_455
Mg1 O0 2.064019 1_555
Mg1 O8 2.168261 1_465
Mg1 O7 2.168261 1_565
Mg1 O8 2.168261 1_565
Mg1 O7 2.168261 1_465
Mg1 O5 2.408958 1_555
Mg1 O3 2.408958 1_555
Ni0 O1 1.827570 1_556
Ni0 O3 1.863080 1_555
Ni0 O9 1.948481 1_555
Ni0 O2 1.974002 1_555
Ni0 O2 1.974002 1_455
Ni1 O0 1.827570 1_555
Ni1 O2 1.863080 1_555
Ni1 O8 1.948481 1_555
Ni1 O3 1.974002 1_555
Ni1 O3 1.974002 1_655
Ni2 O0 1.827570 1_555
Ni2 O4 1.863080 1_555
Ni2 O7 1.948481 1_555
Ni2 O5 1.974002 1_555
Ni2 O5 1.974002 1_655
Ni3 O1 1.827570 1_555
Ni3 O5 1.863080 1_555
Ni3 O6 1.948481 1_555
Ni3 O4 1.974002 1_455
Ni3 O4 1.974002 1_555
O6 O9 1.508456 1_554
O7 O8 1.508456 1_555
