# generated using pymatgen
data_NpP2H9C2NO11
_symmetry_space_group_name_H-M   'P 1'
_cell_length_a   9.68401800
_cell_length_b   10.61237000
_cell_length_c   11.29162100
_cell_angle_alpha   90.00000000
_cell_angle_beta   90.00000000
_cell_angle_gamma   90.00000000
_symmetry_Int_Tables_number   1
_chemical_formula_structural   NpP2H9C2NO11
_chemical_formula_sum   'Np4 P8 H36 C8 N4 O44'
_cell_volume   1160.44420473
_cell_formula_units_Z   4
loop_
 _symmetry_equiv_pos_site_id
 _symmetry_equiv_pos_as_xyz
  1  'x, y, z'
loop_
 _atom_site_type_symbol
 _atom_site_label
 _atom_site_symmetry_multiplicity
 _atom_site_fract_x
 _atom_site_fract_y
 _atom_site_fract_z
 _atom_site_occupancy
  Np  Np0  1  0.96629100  0.42909900  0.00642100  1
  Np  Np1  1  0.03370900  0.57090100  0.50642100  1
  Np  Np2  1  0.96629100  0.07090100  0.50642100  1
  Np  Np3  1  0.03370900  0.92909900  0.00642100  1
  P  P0  1  0.88509300  0.34734700  0.70681000  1
  P  P1  1  0.11490700  0.65265300  0.20681000  1
  P  P2  1  0.88509300  0.15265300  0.20681000  1
  P  P3  1  0.11490700  0.84734700  0.70681000  1
  P  P4  1  0.24572700  0.21411500  0.93757000  1
  P  P5  1  0.75427300  0.78588500  0.43757000  1
  P  P6  1  0.24572700  0.28588500  0.43757000  1
  P  P7  1  0.75427300  0.71411500  0.93757000  1
  H  H0  1  0.44081800  0.28571800  0.02560200  1
  H  H1  1  0.55918200  0.71428200  0.52560200  1
  H  H2  1  0.44081800  0.21428200  0.52560200  1
  H  H3  1  0.55918200  0.78571800  0.02560200  1
  H  H4  1  0.39635700  0.55336800  0.80566800  1
  H  H5  1  0.60364300  0.44663200  0.30566800  1
  H  H6  1  0.39635700  0.94663200  0.30566800  1
  H  H7  1  0.60364300  0.05336800  0.80566800  1
  H  H8  1  0.47050700  0.59069700  0.92282500  1
  H  H9  1  0.52949300  0.40930300  0.42282500  1
  H  H10  1  0.47050700  0.90930300  0.42282500  1
  H  H11  1  0.52949300  0.09069700  0.92282500  1
  H  H12  1  0.67329500  0.39956700  0.60940400  1
  H  H13  1  0.32670500  0.60043300  0.10940400  1
  H  H14  1  0.67329500  0.10043300  0.10940400  1
  H  H15  1  0.32670500  0.89956700  0.60940400  1
  H  H16  1  0.68138300  0.45926700  0.75850900  1
  H  H17  1  0.31861700  0.54073300  0.25850900  1
  H  H18  1  0.68138300  0.04073300  0.25850900  1
  H  H19  1  0.31861700  0.95926700  0.75850900  1
  H  H20  1  0.64743900  0.29735700  0.73550200  1
  H  H21  1  0.35256100  0.70264300  0.23550200  1
  H  H22  1  0.64743900  0.20264300  0.23550200  1
  H  H23  1  0.35256100  0.79735700  0.73550200  1
  H  H24  1  0.17114000  0.26617600  0.74080700  1
  H  H25  1  0.82886000  0.73382400  0.24080700  1
  H  H26  1  0.17114000  0.23382400  0.24080700  1
  H  H27  1  0.82886000  0.76617600  0.74080700  1
  H  H28  1  0.32940600  0.18025000  0.74289800  1
  H  H29  1  0.67059400  0.81975000  0.24289800  1
  H  H30  1  0.32940600  0.31975000  0.24289800  1
  H  H31  1  0.67059400  0.68025000  0.74289800  1
  H  H32  1  0.32848700  0.34385600  0.78209000  1
  H  H33  1  0.67151300  0.65614400  0.28209000  1
  H  H34  1  0.32848700  0.15614400  0.28209000  1
  H  H35  1  0.67151300  0.84385600  0.78209000  1
  C  C0  1  0.70425000  0.37881500  0.70084900  1
  C  C1  1  0.29575000  0.62118500  0.20084900  1
  C  C2  1  0.70425000  0.12118500  0.20084900  1
  C  C3  1  0.29575000  0.87881500  0.70084900  1
  C  C4  1  0.27024100  0.25541300  0.78614500  1
  C  C5  1  0.72975900  0.74458700  0.28614500  1
  C  C6  1  0.27024100  0.24458700  0.28614500  1
  C  C7  1  0.72975900  0.75541300  0.78614500  1
  N  N0  1  0.65598900  0.39989100  0.08153400  1
  N  N1  1  0.34401100  0.60010900  0.58153400  1
  N  N2  1  0.65598900  0.10010900  0.58153400  1
  N  N3  1  0.34401100  0.89989100  0.08153400  1
  O  O0  1  0.96491600  0.46582600  0.65974500  1
  O  O1  1  0.03508400  0.53417400  0.15974500  1
  O  O2  1  0.96491600  0.03417400  0.15974500  1
  O  O3  1  0.03508400  0.96582600  0.65974500  1
  O  O4  1  0.92416500  0.23026700  0.63339200  1
  O  O5  1  0.07583500  0.76973300  0.13339200  1
  O  O6  1  0.92416500  0.26973300  0.13339200  1
  O  O7  1  0.07583500  0.73026700  0.63339200  1
  O  O8  1  0.92668300  0.32848600  0.83880500  1
  O  O9  1  0.07331700  0.67151400  0.33880500  1
  O  O10  1  0.92668300  0.17151400  0.33880500  1
  O  O11  1  0.07331700  0.82848600  0.83880500  1
  O  O12  1  0.39454100  0.20639300  0.99600000  1
  O  O13  1  0.60545900  0.79360700  0.49600000  1
  O  O14  1  0.39454100  0.29360700  0.49600000  1
  O  O15  1  0.60545900  0.70639300  0.99600000  1
  O  O16  1  0.18453200  0.08092600  0.94501300  1
  O  O17  1  0.81546800  0.91907400  0.44501300  1
  O  O18  1  0.18453200  0.41907400  0.44501300  1
  O  O19  1  0.81546800  0.58092600  0.94501300  1
  O  O20  1  0.15830000  0.31207100  0.00486600  1
  O  O21  1  0.84170000  0.68792900  0.50486600  1
  O  O22  1  0.15830000  0.18792900  0.50486600  1
  O  O23  1  0.84170000  0.81207100  0.00486600  1
  O  O24  1  0.53088800  0.38860100  0.11083800  1
  O  O25  1  0.46911200  0.61139900  0.61083800  1
  O  O26  1  0.53088800  0.11139900  0.61083800  1
  O  O27  1  0.46911200  0.88860100  0.11083800  1
  O  O28  1  0.70346500  0.34667900  0.98956000  1
  O  O29  1  0.29653500  0.65332100  0.48956000  1
  O  O30  1  0.70346500  0.15332100  0.48956000  1
  O  O31  1  0.29653500  0.84667900  0.98956000  1
  O  O32  1  0.73823400  0.46343000  0.14575200  1
  O  O33  1  0.26176600  0.53657000  0.64575200  1
  O  O34  1  0.73823400  0.03657000  0.64575200  1
  O  O35  1  0.26176600  0.96343000  0.14575200  1
  O  O36  1  0.07794800  0.53314400  0.92369800  1
  O  O37  1  0.92205200  0.46685600  0.42369800  1
  O  O38  1  0.07794800  0.96685600  0.42369800  1
  O  O39  1  0.92205200  0.03314400  0.92369800  1
  O  O40  1  0.41140800  0.52609500  0.88704500  1
  O  O41  1  0.58859200  0.47390500  0.38704500  1
  O  O42  1  0.41140800  0.97390500  0.38704500  1
  O  O43  1  0.58859200  0.02609500  0.88704500  1
loop_
_geom_bond_atom_site_label_1
_geom_bond_atom_site_label_2
_geom_bond_distance
_geom_bond_site_symmetry_2
Np0 O36 1.805786 1_654
Np0 O1 2.164386 1_655
Np0 O8 2.206659 1_554
Np0 O20 2.236106 1_655
Np0 O6 2.254389 1_555
Np0 O19 2.282582 1_554
Np1 O37 1.805786 1_455
Np1 O0 2.164386 1_455
Np1 O9 2.206659 1_555
Np1 O21 2.236106 1_455
Np1 O7 2.254389 1_555
Np1 O18 2.282582 1_555
Np2 O38 1.805786 1_645
Np2 O3 2.164386 1_645
Np2 O10 2.206659 1_555
Np2 O22 2.236106 1_655
Np2 O4 2.254389 1_555
Np2 O17 2.282582 1_545
Np3 O39 1.805786 1_464
Np3 O2 2.164386 1_465
Np3 O11 2.206659 1_554
Np3 O23 2.236106 1_455
Np3 O5 2.254389 1_555
Np3 O16 2.282582 1_564
H0 O12 1.010561 1_554
H0 O24 1.696825 1_555
H1 O13 1.010561 1_555
H1 O25 1.696825 1_555
H2 O14 1.010561 1_555
H2 O26 1.696825 1_555
H3 O15 1.010561 1_554
H3 O27 1.696825 1_555
H4 O40 0.974347 1_555
H5 O41 0.974347 1_555
H6 O42 0.974347 1_555
H7 O43 0.974347 1_555
H8 O40 0.980201 1_555
H9 O41 0.980201 1_555
H10 O42 0.980201 1_555
H11 O43 0.980201 1_555
C0 H16 1.096306 1_555
C0 H20 1.096849 1_555
C0 H12 1.097518 1_555
C0 P0 1.784113 1_555
C1 H17 1.096306 1_555
C1 H21 1.096849 1_555
C1 H13 1.097518 1_555
C1 P1 1.784113 1_555
C2 H18 1.096306 1_555
C2 H22 1.096849 1_555
C2 H14 1.097518 1_555
C2 P2 1.784113 1_555
C3 H19 1.096306 1_555
C3 H23 1.096849 1_555
C3 H15 1.097518 1_555
C3 P3 1.784113 1_555
C4 H24 1.093684 1_555
C4 H32 1.095995 1_555
C4 H28 1.096814 1_555
C4 P4 1.781002 1_555
C5 H25 1.093684 1_555
C5 H33 1.095995 1_555
C5 H29 1.096814 1_555
C5 P5 1.781002 1_555
C6 H26 1.093684 1_555
C6 H34 1.095995 1_555
C6 H30 1.096814 1_555
C6 P6 1.781002 1_555
C7 H27 1.093684 1_555
C7 H35 1.095995 1_555
C7 H31 1.096814 1_555
C7 P7 1.781002 1_555
N0 O24 1.261558 1_555
N0 O28 1.268395 1_554
N0 O32 1.270763 1_555
N1 O25 1.261558 1_555
N1 O29 1.268395 1_555
N1 O33 1.270763 1_555
N2 O26 1.261558 1_555
N2 O30 1.268395 1_555
N2 O34 1.270763 1_555
N3 O27 1.261558 1_555
N3 O31 1.268395 1_554
N3 O35 1.270763 1_555
O0 P0 1.568719 1_555
O1 P1 1.568719 1_555
O2 P2 1.568719 1_555
O3 P3 1.568719 1_555
O4 P0 1.540850 1_555
O5 P1 1.540850 1_555
O6 P2 1.540850 1_555
O7 P3 1.540850 1_555
O8 P0 1.556818 1_555
O9 P1 1.556818 1_555
O10 P2 1.556818 1_555
O11 P3 1.556818 1_555
O12 P4 1.587082 1_555
O13 P5 1.587082 1_555
O14 P6 1.587082 1_555
O15 P7 1.587082 1_555
O16 P4 1.534959 1_555
O17 P5 1.534959 1_555
O18 P6 1.534959 1_555
O19 P7 1.534959 1_555
O20 P4 1.541065 1_554
O21 P5 1.541065 1_555
O22 P6 1.541065 1_555
O23 P7 1.541065 1_554
