# generated using pymatgen
data_Ca(YTe2)2
_symmetry_space_group_name_H-M   'P 1'
_cell_length_a   4.41607288
_cell_length_b   7.55306176
_cell_length_c   7.72213294
_cell_angle_alpha   71.99367356
_cell_angle_beta   90.00000000
_cell_angle_gamma   90.00000000
_symmetry_Int_Tables_number   1
_chemical_formula_structural   Ca(YTe2)2
_chemical_formula_sum   'Ca1 Y2 Te4'
_cell_volume   244.95554978
_cell_formula_units_Z   1
loop_
 _symmetry_equiv_pos_site_id
 _symmetry_equiv_pos_as_xyz
  1  'x, y, z'
loop_
 _atom_site_type_symbol
 _atom_site_label
 _atom_site_symmetry_multiplicity
 _atom_site_fract_x
 _atom_site_fract_y
 _atom_site_fract_z
 _atom_site_occupancy
  Ca  Ca0  1  -0.00000000  0.50000000  0.50000000  1
  Y  Y0  1  -0.00000000  -0.00000000  0.00000000  1
  Y  Y1  1  0.50000000  0.50000000  0.00000000  1
  Te  Te0  1  0.50000000  0.75960116  0.24512297  1
  Te  Te1  1  0.00000000  0.25473780  0.23779220  1
  Te  Te2  1  0.50000000  0.24039884  0.75487703  1
  Te  Te3  1  -0.00000000  0.74526220  0.76220780  1
loop_
_geom_bond_atom_site_label_1
_geom_bond_atom_site_label_2
_geom_bond_distance
_geom_bond_site_symmetry_2
Ca0 Te3 3.138549 1_555
Ca0 Te1 3.138549 1_555
Ca0 Te0 3.194989 1_555
Ca0 Te2 3.194989 1_555
Ca0 Te0 3.194989 1_455
Ca0 Te2 3.194989 1_455
Te0 Y0 3.103295 1_565
Te0 Y0 3.103295 1_665
Te0 Y1 3.118054 1_555
Te1 Y0 3.042717 1_555
Te1 Y1 3.094499 1_555
Te1 Y1 3.094499 1_455
Te2 Y0 3.103295 1_556
Te2 Y0 3.103295 1_656
Te2 Y1 3.118054 1_556
Te3 Y0 3.042717 1_566
Te3 Y1 3.094499 1_456
Te3 Y1 3.094499 1_556
