# generated using pymatgen
data_Nb
_symmetry_space_group_name_H-M   'P 1'
_cell_length_a   5.56228400
_cell_length_b   9.34400532
_cell_length_c   19.90620802
_cell_angle_alpha   78.86128322
_cell_angle_beta   85.62437262
_cell_angle_gamma   88.02595986
_symmetry_Int_Tables_number   1
_chemical_formula_structural   Nb
_chemical_formula_sum   Nb56
_cell_volume   1011.95178599
_cell_formula_units_Z   56
loop_
 _symmetry_equiv_pos_site_id
 _symmetry_equiv_pos_as_xyz
  1  'x, y, z'
loop_
 _atom_site_type_symbol
 _atom_site_label
 _atom_site_symmetry_multiplicity
 _atom_site_fract_x
 _atom_site_fract_y
 _atom_site_fract_z
 _atom_site_occupancy
  Nb  Nb0_0  1  0.32374850  0.10889250  0.28562450  1
  Nb  Nb0_1  1  0.32374850  0.10889250  0.78562450  1
  Nb  Nb0_2  1  0.32374850  0.60889250  0.28562450  1
  Nb  Nb0_3  1  0.32374850  0.60889250  0.78562450  1
  Nb  Nb0_4  1  0.82374850  0.10889250  0.28562450  1
  Nb  Nb0_5  1  0.82374850  0.10889250  0.78562450  1
  Nb  Nb0_6  1  0.82374850  0.60889250  0.28562450  1
  Nb  Nb0_7  1  0.82374850  0.60889250  0.78562450  1
  Nb  Nb1_0  1  0.17625150  0.39110750  0.21437550  1
  Nb  Nb1_1  1  0.17625150  0.39110750  0.71437550  1
  Nb  Nb1_2  1  0.17625150  0.89110750  0.21437550  1
  Nb  Nb1_3  1  0.17625150  0.89110750  0.71437550  1
  Nb  Nb1_4  1  0.67625150  0.39110750  0.21437550  1
  Nb  Nb1_5  1  0.67625150  0.39110750  0.71437550  1
  Nb  Nb1_6  1  0.67625150  0.89110750  0.21437550  1
  Nb  Nb1_7  1  0.67625150  0.89110750  0.71437550  1
  Nb  Nb2_0  1  0.46961850  0.32521900  0.35680050  1
  Nb  Nb2_1  1  0.46961850  0.32521900  0.85680050  1
  Nb  Nb2_2  1  0.46961850  0.82521900  0.35680050  1
  Nb  Nb2_3  1  0.46961850  0.82521900  0.85680050  1
  Nb  Nb2_4  1  0.96961850  0.32521900  0.35680050  1
  Nb  Nb2_5  1  0.96961850  0.32521900  0.85680050  1
  Nb  Nb2_6  1  0.96961850  0.82521900  0.35680050  1
  Nb  Nb2_7  1  0.96961850  0.82521900  0.85680050  1
  Nb  Nb3_0  1  0.03038150  0.17478100  0.14319950  1
  Nb  Nb3_1  1  0.03038150  0.17478100  0.64319950  1
  Nb  Nb3_2  1  0.03038150  0.67478100  0.14319950  1
  Nb  Nb3_3  1  0.03038150  0.67478100  0.64319950  1
  Nb  Nb3_4  1  0.53038150  0.17478100  0.14319950  1
  Nb  Nb3_5  1  0.53038150  0.17478100  0.64319950  1
  Nb  Nb3_6  1  0.53038150  0.67478100  0.14319950  1
  Nb  Nb3_7  1  0.53038150  0.67478100  0.64319950  1
  Nb  Nb4_0  1  0.11160450  0.03881500  0.42833450  1
  Nb  Nb4_1  1  0.11160450  0.03881500  0.92833450  1
  Nb  Nb4_2  1  0.11160450  0.53881500  0.42833450  1
  Nb  Nb4_3  1  0.11160450  0.53881500  0.92833450  1
  Nb  Nb4_4  1  0.61160450  0.03881500  0.42833450  1
  Nb  Nb4_5  1  0.61160450  0.03881500  0.92833450  1
  Nb  Nb4_6  1  0.61160450  0.53881500  0.42833450  1
  Nb  Nb4_7  1  0.61160450  0.53881500  0.92833450  1
  Nb  Nb5_0  1  0.38839550  0.46118500  0.07166550  1
  Nb  Nb5_1  1  0.38839550  0.46118500  0.57166550  1
  Nb  Nb5_2  1  0.38839550  0.96118500  0.07166550  1
  Nb  Nb5_3  1  0.38839550  0.96118500  0.57166550  1
  Nb  Nb5_4  1  0.88839550  0.46118500  0.07166550  1
  Nb  Nb5_5  1  0.88839550  0.46118500  0.57166550  1
  Nb  Nb5_6  1  0.88839550  0.96118500  0.07166550  1
  Nb  Nb5_7  1  0.88839550  0.96118500  0.57166550  1
  Nb  Nb6_0  1  0.25000000  0.25000000  0.00000000  1
  Nb  Nb6_1  1  0.25000000  0.25000000  0.50000000  1
  Nb  Nb6_2  1  0.25000000  0.75000000  0.00000000  1
  Nb  Nb6_3  1  0.25000000  0.75000000  0.50000000  1
  Nb  Nb6_4  1  0.75000000  0.25000000  0.00000000  1
  Nb  Nb6_5  1  0.75000000  0.25000000  0.50000000  1
  Nb  Nb6_6  1  0.75000000  0.75000000  0.00000000  1
  Nb  Nb6_7  1  0.75000000  0.75000000  0.50000000  1
loop_
_geom_bond_atom_site_label_1
_geom_bond_atom_site_label_2
_geom_bond_distance
_geom_bond_site_symmetry_2
Nb0_0 Nb0_4 2.781142 1_555
Nb0_0 Nb0_4 2.781142 1_455
Nb0_0 Nb2_0 2.854224 1_555
Nb0_0 Nb1_0 2.867399 1_555
Nb0_0 Nb1_2 2.869414 1_545
Nb0_0 Nb2_2 2.875398 1_545
Nb0_0 Nb3_4 2.935166 1_555
Nb0_0 Nb4_0 2.952019 1_555
Nb0_1 Nb0_5 2.781142 1_455
Nb0_1 Nb0_5 2.781142 1_555
Nb0_1 Nb2_1 2.854224 1_555
Nb0_1 Nb1_1 2.867399 1_555
Nb0_1 Nb1_3 2.869414 1_545
Nb0_1 Nb2_3 2.875398 1_545
Nb0_1 Nb3_5 2.935166 1_555
Nb0_1 Nb4_1 2.952019 1_555
Nb0_2 Nb0_6 2.781142 1_555
Nb0_2 Nb0_6 2.781142 1_455
Nb0_2 Nb2_2 2.854224 1_555
Nb0_2 Nb1_2 2.867399 1_555
Nb0_2 Nb1_0 2.869414 1_555
Nb0_2 Nb2_0 2.875398 1_555
Nb0_2 Nb3_6 2.935166 1_555
Nb0_2 Nb4_2 2.952019 1_555
Nb0_3 Nb0_7 2.781142 1_555
Nb0_3 Nb0_7 2.781142 1_455
Nb0_3 Nb2_3 2.854224 1_555
Nb0_3 Nb1_3 2.867399 1_555
Nb0_3 Nb1_1 2.869414 1_555
Nb0_3 Nb2_1 2.875398 1_555
Nb0_3 Nb3_7 2.935166 1_555
Nb0_3 Nb4_3 2.952019 1_555
Nb0_4 Nb2_4 2.854224 1_555
Nb0_4 Nb1_4 2.867399 1_555
Nb0_4 Nb1_6 2.869414 1_545
Nb0_4 Nb2_6 2.875398 1_545
Nb0_4 Nb3_0 2.935166 1_655
Nb0_4 Nb4_4 2.952019 1_555
Nb0_5 Nb2_5 2.854224 1_555
Nb0_5 Nb1_5 2.867399 1_555
Nb0_5 Nb1_7 2.869414 1_545
Nb0_5 Nb2_7 2.875398 1_545
Nb0_5 Nb3_1 2.935166 1_655
Nb0_5 Nb4_5 2.952019 1_555
Nb0_6 Nb2_6 2.854224 1_555
Nb0_6 Nb1_6 2.867399 1_555
Nb0_6 Nb1_4 2.869414 1_555
Nb0_6 Nb2_4 2.875398 1_555
Nb0_6 Nb3_2 2.935166 1_655
Nb0_6 Nb4_6 2.952019 1_555
Nb0_7 Nb2_7 2.854224 1_555
Nb0_7 Nb1_7 2.867399 1_555
Nb0_7 Nb1_5 2.869414 1_555
Nb0_7 Nb2_5 2.875398 1_555
Nb0_7 Nb3_3 2.935166 1_655
Nb0_7 Nb4_7 2.952019 1_555
Nb1_0 Nb1_4 2.781142 1_555
Nb1_0 Nb1_4 2.781142 1_455
Nb1_0 Nb3_0 2.854224 1_555
Nb1_0 Nb3_2 2.875398 1_555
Nb1_0 Nb2_4 2.935166 1_455
Nb1_0 Nb5_0 2.952019 1_555
Nb1_1 Nb1_5 2.781142 1_555
Nb1_1 Nb1_5 2.781142 1_455
Nb1_1 Nb3_1 2.854224 1_555
Nb1_1 Nb3_3 2.875398 1_555
Nb1_1 Nb2_5 2.935166 1_455
Nb1_1 Nb5_1 2.952019 1_555
Nb1_2 Nb1_6 2.781142 1_555
Nb1_2 Nb1_6 2.781142 1_455
Nb1_2 Nb3_2 2.854224 1_555
Nb1_2 Nb3_0 2.875398 1_565
Nb1_2 Nb2_6 2.935166 1_455
Nb1_2 Nb5_2 2.952019 1_555
Nb1_3 Nb1_7 2.781142 1_555
Nb1_3 Nb1_7 2.781142 1_455
Nb1_3 Nb3_3 2.854224 1_555
Nb1_3 Nb3_1 2.875398 1_565
Nb1_3 Nb2_7 2.935166 1_455
Nb1_3 Nb5_3 2.952019 1_555
Nb1_4 Nb3_4 2.854224 1_555
Nb1_4 Nb3_6 2.875398 1_555
Nb1_4 Nb2_0 2.935166 1_555
Nb1_4 Nb5_4 2.952019 1_555
Nb1_5 Nb3_5 2.854224 1_555
Nb1_5 Nb3_7 2.875398 1_555
Nb1_5 Nb2_1 2.935166 1_555
Nb1_5 Nb5_5 2.952019 1_555
Nb1_6 Nb3_6 2.854224 1_555
Nb1_6 Nb3_4 2.875398 1_565
Nb1_6 Nb2_2 2.935166 1_555
Nb1_6 Nb5_6 2.952019 1_555
Nb1_7 Nb3_7 2.854224 1_555
Nb1_7 Nb3_5 2.875398 1_565
Nb1_7 Nb2_3 2.935166 1_555
Nb1_7 Nb5_7 2.952019 1_555
Nb2_0 Nb2_4 2.781142 1_455
Nb2_0 Nb2_4 2.781142 1_555
Nb2_0 Nb4_6 2.830738 1_555
Nb2_0 Nb4_4 2.892557 1_555
Nb2_0 Nb6_1 2.977524 1_555
Nb2_1 Nb2_5 2.781142 1_555
Nb2_1 Nb2_5 2.781142 1_455
Nb2_1 Nb4_7 2.830738 1_555
Nb2_1 Nb4_5 2.892557 1_555
Nb2_1 Nb6_0 2.977524 1_556
Nb2_2 Nb2_6 2.781142 1_455
Nb2_2 Nb2_6 2.781142 1_555
Nb2_2 Nb4_4 2.830738 1_565
Nb2_2 Nb4_6 2.892557 1_555
Nb2_2 Nb6_3 2.977524 1_555
Nb2_3 Nb2_7 2.781142 1_455
Nb2_3 Nb2_7 2.781142 1_555
Nb2_3 Nb4_5 2.830738 1_565
Nb2_3 Nb4_7 2.892557 1_555
Nb2_3 Nb6_2 2.977524 1_556
Nb2_4 Nb4_2 2.830738 1_655
Nb2_4 Nb4_0 2.892557 1_655
Nb2_4 Nb6_5 2.977524 1_555
Nb2_5 Nb4_3 2.830738 1_655
Nb2_5 Nb4_1 2.892557 1_655
Nb2_5 Nb6_4 2.977524 1_556
Nb2_6 Nb4_0 2.830738 1_665
Nb2_6 Nb4_2 2.892557 1_655
Nb2_6 Nb6_7 2.977524 1_555
Nb2_7 Nb4_1 2.830738 1_665
Nb2_7 Nb4_3 2.892557 1_655
Nb2_7 Nb6_6 2.977524 1_556
Nb3_0 Nb3_4 2.781142 1_455
Nb3_0 Nb3_4 2.781142 1_555
Nb3_0 Nb5_6 2.830738 1_445
Nb3_0 Nb5_4 2.892557 1_455
Nb3_0 Nb6_0 2.977524 1_555
Nb3_1 Nb3_5 2.781142 1_555
Nb3_1 Nb3_5 2.781142 1_455
Nb3_1 Nb5_7 2.830738 1_445
Nb3_1 Nb5_5 2.892557 1_455
Nb3_1 Nb6_1 2.977524 1_555
Nb3_2 Nb3_6 2.781142 1_555
Nb3_2 Nb3_6 2.781142 1_455
Nb3_2 Nb5_4 2.830738 1_455
Nb3_2 Nb5_6 2.892557 1_455
Nb3_2 Nb6_2 2.977524 1_555
Nb3_3 Nb3_7 2.781142 1_555
Nb3_3 Nb3_7 2.781142 1_455
Nb3_3 Nb5_5 2.830738 1_455
Nb3_3 Nb5_7 2.892557 1_455
Nb3_3 Nb6_3 2.977524 1_555
Nb3_4 Nb5_2 2.830738 1_545
Nb3_4 Nb5_0 2.892557 1_555
Nb3_4 Nb6_4 2.977524 1_555
Nb3_5 Nb5_3 2.830738 1_545
Nb3_5 Nb5_1 2.892557 1_555
Nb3_5 Nb6_5 2.977524 1_555
Nb3_6 Nb5_0 2.830738 1_555
Nb3_6 Nb5_2 2.892557 1_555
Nb3_6 Nb6_6 2.977524 1_555
Nb3_7 Nb5_1 2.830738 1_555
Nb3_7 Nb5_3 2.892557 1_555
Nb3_7 Nb6_7 2.977524 1_555
Nb4_0 Nb4_4 2.781142 1_455
Nb4_0 Nb4_4 2.781142 1_555
Nb4_0 Nb6_1 2.807419 1_555
Nb4_0 Nb6_3 2.906478 1_545
Nb4_0 Nb5_7 2.988329 1_445
Nb4_1 Nb4_5 2.781142 1_555
Nb4_1 Nb4_5 2.781142 1_455
Nb4_1 Nb6_0 2.807419 1_556
Nb4_1 Nb6_2 2.906478 1_546
Nb4_1 Nb5_6 2.988329 1_446
Nb4_2 Nb4_6 2.781142 1_555
Nb4_2 Nb4_6 2.781142 1_455
Nb4_2 Nb6_3 2.807419 1_555
Nb4_2 Nb6_1 2.906478 1_555
Nb4_2 Nb5_5 2.988329 1_455
Nb4_3 Nb4_7 2.781142 1_555
Nb4_3 Nb4_7 2.781142 1_455
Nb4_3 Nb6_2 2.807419 1_556
Nb4_3 Nb6_0 2.906478 1_556
Nb4_3 Nb5_4 2.988329 1_456
Nb4_4 Nb6_5 2.807419 1_555
Nb4_4 Nb6_7 2.906478 1_545
Nb4_4 Nb5_3 2.988329 1_545
Nb4_5 Nb6_4 2.807419 1_556
Nb4_5 Nb6_6 2.906478 1_546
Nb4_5 Nb5_2 2.988329 1_546
Nb4_6 Nb6_7 2.807419 1_555
Nb4_6 Nb6_5 2.906478 1_555
Nb4_6 Nb5_1 2.988329 1_555
Nb4_7 Nb6_6 2.807419 1_556
Nb4_7 Nb6_4 2.906478 1_556
Nb4_7 Nb5_0 2.988329 1_556
Nb5_0 Nb5_4 2.781142 1_455
Nb5_0 Nb5_4 2.781142 1_555
Nb5_0 Nb6_0 2.807419 1_555
Nb5_0 Nb6_2 2.906478 1_555
Nb5_1 Nb5_5 2.781142 1_455
Nb5_1 Nb5_5 2.781142 1_555
Nb5_1 Nb6_1 2.807419 1_555
Nb5_1 Nb6_3 2.906478 1_555
Nb5_2 Nb5_6 2.781142 1_455
Nb5_2 Nb5_6 2.781142 1_555
Nb5_2 Nb6_2 2.807419 1_555
Nb5_2 Nb6_0 2.906478 1_565
Nb5_3 Nb5_7 2.781142 1_455
Nb5_3 Nb5_7 2.781142 1_555
Nb5_3 Nb6_3 2.807419 1_555
Nb5_3 Nb6_1 2.906478 1_565
Nb5_4 Nb6_4 2.807419 1_555
Nb5_4 Nb6_6 2.906478 1_555
Nb5_5 Nb6_5 2.807419 1_555
Nb5_5 Nb6_7 2.906478 1_555
Nb5_6 Nb6_6 2.807419 1_555
Nb5_6 Nb6_4 2.906478 1_565
Nb5_7 Nb6_7 2.807419 1_555
Nb5_7 Nb6_5 2.906478 1_565
Nb6_0 Nb6_4 2.781142 1_455
Nb6_0 Nb6_4 2.781142 1_555
Nb6_1 Nb6_5 2.781142 1_555
Nb6_1 Nb6_5 2.781142 1_455
Nb6_2 Nb6_6 2.781142 1_455
Nb6_2 Nb6_6 2.781142 1_555
Nb6_3 Nb6_7 2.781142 1_555
Nb6_3 Nb6_7 2.781142 1_455
