# generated using pymatgen
data_ErCuGe
_symmetry_space_group_name_H-M   'P 1'
_cell_length_a   4.21420069
_cell_length_b   4.21642568
_cell_length_c   3.66923300
_cell_angle_alpha   90.00000000
_cell_angle_beta   90.00000000
_cell_angle_gamma   119.95357542
_symmetry_Int_Tables_number   1
_chemical_formula_structural   ErCuGe
_chemical_formula_sum   'Er1 Cu1 Ge1'
_cell_volume   56.48960802
_cell_formula_units_Z   1
loop_
 _symmetry_equiv_pos_site_id
 _symmetry_equiv_pos_as_xyz
  1  'x, y, z'
loop_
 _atom_site_type_symbol
 _atom_site_label
 _atom_site_symmetry_multiplicity
 _atom_site_fract_x
 _atom_site_fract_y
 _atom_site_fract_z
 _atom_site_occupancy
  Er  Er0  1  0.99980700  0.99972200  0.00000000  1
  Cu  Cu0  1  0.33327800  0.66694900  0.50000000  1
  Ge  Ge0  1  0.66681500  0.33332900  0.50000000  1
loop_
_geom_bond_atom_site_label_1
_geom_bond_atom_site_label_2
_geom_bond_distance
_geom_bond_site_symmetry_2
Er0 Ge0 3.047098 1_565
Er0 Ge0 3.047098 1_564
Er0 Ge0 3.048372 1_555
Er0 Ge0 3.048372 1_554
Er0 Ge0 3.049141 1_664
Er0 Ge0 3.049141 1_665
Cu0 Ge0 2.433468 1_455
Cu0 Ge0 2.434447 1_565
Cu0 Ge0 2.434932 1_555
Cu0 Er0 3.046062 1_456
Cu0 Er0 3.046062 1_455
Cu0 Er0 3.047743 1_556
Cu0 Er0 3.047743 1_555
Cu0 Er0 3.050806 1_445
Cu0 Er0 3.050806 1_446
