# generated using pymatgen
data_Pm2AlZn
_symmetry_space_group_name_H-M   'P 1'
_cell_length_a   5.21071575
_cell_length_b   5.21071575
_cell_length_c   5.21071575
_cell_angle_alpha   60.00000000
_cell_angle_beta   60.00000000
_cell_angle_gamma   60.00000000
_symmetry_Int_Tables_number   1
_chemical_formula_structural   Pm2AlZn
_chemical_formula_sum   'Pm2 Al1 Zn1'
_cell_volume   100.04079847
_cell_formula_units_Z   1
loop_
 _symmetry_equiv_pos_site_id
 _symmetry_equiv_pos_as_xyz
  1  'x, y, z'
loop_
 _atom_site_type_symbol
 _atom_site_label
 _atom_site_symmetry_multiplicity
 _atom_site_fract_x
 _atom_site_fract_y
 _atom_site_fract_z
 _atom_site_occupancy
  Pm  Pm0  1  0.75000000  0.75000000  0.75000000  1
  Pm  Pm1  1  0.25000000  0.25000000  0.25000000  1
  Al  Al0  1  -0.00000000  0.00000000  -0.00000000  1
  Zn  Zn0  1  0.50000000  0.50000000  0.50000000  1
loop_
_geom_bond_atom_site_label_1
_geom_bond_atom_site_label_2
_geom_bond_distance
_geom_bond_site_symmetry_2
Pm0 Zn0 3.190899 1_655
Pm0 Zn0 3.190899 1_565
Pm0 Zn0 3.190899 1_555
Pm0 Zn0 3.190899 1_556
Pm1 Zn0 3.190899 1_554
Pm1 Zn0 3.190899 1_455
Pm1 Zn0 3.190899 1_555
Pm1 Zn0 3.190899 1_545
Al0 Pm0 3.190899 1_445
Al0 Pm1 3.190899 1_545
Al0 Pm1 3.190899 1_555
Al0 Pm1 3.190899 1_455
Al0 Pm0 3.190899 1_454
Al0 Pm0 3.190899 1_444
Al0 Pm0 3.190899 1_544
Al0 Pm1 3.190899 1_554
