# generated using pymatgen
data_Mg(SnO2)2
_symmetry_space_group_name_H-M   'P 1'
_cell_length_a   6.34891201
_cell_length_b   6.34891201
_cell_length_c   23.58681528
_cell_angle_alpha   81.99389232
_cell_angle_beta   81.99389232
_cell_angle_gamma   60.24749772
_symmetry_Int_Tables_number   1
_chemical_formula_structural   Mg(SnO2)2
_chemical_formula_sum   'Mg8 Sn16 O32'
_cell_volume   814.65076744
_cell_formula_units_Z   8
loop_
 _symmetry_equiv_pos_site_id
 _symmetry_equiv_pos_as_xyz
  1  'x, y, z'
loop_
 _atom_site_type_symbol
 _atom_site_label
 _atom_site_symmetry_multiplicity
 _atom_site_fract_x
 _atom_site_fract_y
 _atom_site_fract_z
 _atom_site_occupancy
  Mg  Mg0  1  0.64575500  0.64575500  0.04418300  1
  Mg  Mg1  1  0.12581000  0.12581000  0.12496900  1
  Mg  Mg2  1  0.89141100  0.89141100  0.29424900  1
  Mg  Mg3  1  0.37183400  0.37183400  0.37929300  1
  Mg  Mg4  1  0.62510500  0.62510500  0.62592000  1
  Mg  Mg5  1  0.49842100  0.49842100  0.50189200  1
  Mg  Mg6  1  0.88215400  0.88215400  0.86977000  1
  Mg  Mg7  1  0.75197600  0.75197600  0.74913000  1
  Sn  Sn0  1  0.62505500  0.12514500  0.12475600  1
  Sn  Sn1  1  0.24751600  0.24751600  0.25696200  1
  Sn  Sn2  1  0.12514500  0.62505500  0.12475600  1
  Sn  Sn3  1  0.14956300  0.14956300  0.53139500  1
  Sn  Sn4  1  0.86487900  0.37252000  0.37716900  1
  Sn  Sn5  1  0.60288000  0.60288000  0.21576000  1
  Sn  Sn6  1  0.40408100  0.40408100  0.78230300  1
  Sn  Sn7  1  0.37252000  0.86487900  0.37716900  1
  Sn  Sn8  1  0.12479900  0.62467100  0.62577000  1
  Sn  Sn9  1  0.84606900  0.84606900  0.47168700  1
  Sn  Sn10  1  0.62467100  0.12479900  0.62577000  1
  Sn  Sn11  1  0.87815300  0.38672100  0.87260200  1
  Sn  Sn12  1  0.38672100  0.87815300  0.87260200  1
  Sn  Sn13  1  0.09958800  0.09958800  0.72029900  1
  Sn  Sn14  1  0.00269700  0.00269700  0.00335100  1
  Sn  Sn15  1  0.36000600  0.36000600  0.96227700  1
  O  O0  1  0.28613600  0.81290200  0.07146100  1
  O  O1  1  0.93543200  0.93543200  0.17400900  1
  O  O2  1  0.81290200  0.28613600  0.07146100  1
  O  O3  1  0.81804300  0.81804300  0.07049100  1
  O  O4  1  0.43831600  0.43831600  0.17335300  1
  O  O5  1  0.54047300  0.04998400  0.32293600  1
  O  O6  1  0.44424600  0.95018500  0.17042600  1
  O  O7  1  0.18950500  0.18950500  0.41505200  1
  O  O8  1  0.04998400  0.54047300  0.32293600  1
  O  O9  1  0.30819000  0.30819000  0.08368300  1
  O  O10  1  0.05410500  0.05410500  0.32536500  1
  O  O11  1  0.95018500  0.44424600  0.17042600  1
  O  O12  1  0.77288000  0.31787700  0.56924300  1
  O  O13  1  0.67052700  0.67052700  0.43086300  1
  O  O14  1  0.67609500  0.22598300  0.43470500  1
  O  O15  1  0.44370100  0.44370100  0.66768900  1
  O  O16  1  0.31787700  0.77288000  0.56924300  1
  O  O17  1  0.54889800  0.54889800  0.33525200  1
  O  O18  1  0.32390900  0.32390900  0.57205100  1
  O  O19  1  0.22598300  0.67609500  0.43470500  1
  O  O20  1  0.92486500  0.92486500  0.67827500  1
  O  O21  1  0.01805300  0.58356200  0.81690800  1
  O  O22  1  0.93180400  0.47788300  0.68157000  1
  O  O23  1  0.68547900  0.68547900  0.92663100  1
  O  O24  1  0.58356200  0.01805300  0.81690800  1
  O  O25  1  0.80628500  0.80628500  0.58294000  1
  O  O26  1  0.58661000  0.58661000  0.81738300  1
  O  O27  1  0.47788300  0.93180400  0.68157000  1
  O  O28  1  0.19909300  0.19909300  0.91819800  1
  O  O29  1  0.19780500  0.70498400  0.91525300  1
  O  O30  1  0.06932700  0.06932700  0.82972200  1
  O  O31  1  0.70498400  0.19780500  0.91525300  1
loop_
_geom_bond_atom_site_label_1
_geom_bond_atom_site_label_2
_geom_bond_distance
_geom_bond_site_symmetry_2
Mg0 O0 2.032064 1_555
Mg0 O2 2.032064 1_555
Mg0 O3 2.084153 1_555
Mg0 O23 2.736513 1_554
Mg1 O9 2.081432 1_555
Mg1 O11 2.124533 1_455
Mg1 O6 2.124533 1_545
Mg1 O0 2.215668 1_545
Mg1 O2 2.215668 1_455
Mg1 O1 2.220569 1_445
Mg2 O5 1.994790 1_565
Mg2 O8 1.994790 1_655
Mg2 O10 2.038096 1_665
Mg3 O7 2.043883 1_555
Mg3 O17 2.051893 1_555
Mg3 O19 2.210894 1_555
Mg3 O14 2.210894 1_555
Mg3 O5 2.297295 1_555
Mg3 O8 2.297295 1_555
Mg4 O15 2.075548 1_555
Mg4 O25 2.082709 1_555
Mg4 O27 2.225308 1_555
Mg4 O22 2.225308 1_555
Mg4 O16 2.243369 1_555
Mg4 O12 2.243369 1_555
Mg5 O19 2.259357 1_555
Mg5 O14 2.259357 1_555
Mg5 O16 2.270539 1_555
Mg5 O12 2.270539 1_555
Mg5 O13 2.315138 1_555
Mg5 O18 2.321752 1_555
Mg6 O31 2.111336 1_565
Mg6 O29 2.111336 1_655
Mg6 O30 2.119627 1_665
Mg6 O24 2.151330 1_565
Mg6 O21 2.151330 1_655
Mg6 O23 2.351938 1_555
Mg7 O26 2.224551 1_555
Mg7 O24 2.244133 1_565
Mg7 O21 2.244133 1_655
Mg7 O27 2.272629 1_555
Mg7 O22 2.272629 1_555
Mg7 O20 2.318746 1_555
O0 Sn2 2.116985 1_555
O0 Sn14 2.320567 1_565
O1 Sn2 2.139077 1_655
O1 Sn0 2.139077 1_565
O2 Sn0 2.116985 1_555
O2 Sn14 2.320567 1_655
O3 Sn2 2.197345 1_655
O3 Sn0 2.197345 1_565
O3 Sn14 2.363570 1_665
O4 Sn2 2.142308 1_555
O4 Sn0 2.142308 1_555
O4 Sn5 2.202128 1_555
O4 Sn1 2.636179 1_555
O5 Sn7 2.144651 1_545
O5 Sn1 2.324055 1_555
O6 Sn0 2.073609 1_565
O6 Sn5 2.111600 1_555
O6 Sn1 2.704199 1_565
O7 Sn7 2.059919 1_545
O7 Sn4 2.059919 1_455
O7 Sn3 2.708352 1_555
O8 Sn4 2.144651 1_455
O8 Sn1 2.324055 1_555
O9 Sn0 2.060362 1_555
O9 Sn2 2.060362 1_555
O10 Sn4 2.211747 1_455
O10 Sn7 2.211747 1_545
O10 Sn1 2.451862 1_555
O11 Sn2 2.073609 1_655
O11 Sn5 2.111600 1_555
O11 Sn1 2.704199 1_655
O12 Sn10 2.122696 1_555
O12 Sn3 2.189253 1_655
O13 Sn4 2.149721 1_555
O13 Sn7 2.149721 1_555
O13 Sn9 2.289563 1_555
O14 Sn4 2.108500 1_555
O14 Sn9 2.199106 1_545
O15 Sn10 2.080716 1_555
O15 Sn8 2.080716 1_555
O15 Sn6 2.668100 1_555
O16 Sn8 2.122696 1_555
O16 Sn3 2.189253 1_565
O17 Sn7 2.066518 1_555
O17 Sn4 2.066518 1_555
O18 Sn8 2.163723 1_555
O18 Sn10 2.163723 1_555
O18 Sn3 2.275409 1_555
O19 Sn7 2.108500 1_555
O19 Sn9 2.199106 1_455
O20 Sn8 2.143801 1_655
O20 Sn10 2.143801 1_565
O20 Sn13 2.297282 1_665
O21 Sn11 2.096612 1_455
O21 Sn6 2.213909 1_555
O22 Sn8 2.108223 1_655
O22 Sn13 2.204152 1_655
O23 Sn11 2.157407 1_555
O23 Sn12 2.157407 1_555
O24 Sn12 2.096612 1_545
O24 Sn6 2.213909 1_555
O25 Sn8 2.090401 1_655
O25 Sn10 2.090401 1_565
O25 Sn9 2.589900 1_555
O26 Sn12 2.147723 1_555
O26 Sn11 2.147723 1_555
O26 Sn6 2.288591 1_555
O27 Sn10 2.108223 1_565
O27 Sn13 2.204152 1_565
O28 Sn12 2.138227 1_545
O28 Sn11 2.138227 1_455
O28 Sn15 2.189979 1_555
O28 Sn14 2.700265 1_556
O29 Sn12 2.079417 1_555
O29 Sn15 2.119124 1_555
O29 Sn14 2.734635 1_566
O30 Sn12 2.086872 1_545
O30 Sn11 2.086872 1_455
O30 Sn13 2.548619 1_555
O31 Sn11 2.079417 1_555
O31 Sn15 2.119124 1_555
O31 Sn14 2.734635 1_656
