# generated using pymatgen
data_SrCa7Mn6Al2O21
_symmetry_space_group_name_H-M   'P 1'
_cell_length_a   7.74768526
_cell_length_b   7.74768526
_cell_length_c   7.47009200
_cell_angle_alpha   90.00000000
_cell_angle_beta   90.00000000
_cell_angle_gamma   89.93456716
_symmetry_Int_Tables_number   1
_chemical_formula_structural   SrCa7Mn6Al2O21
_chemical_formula_sum   'Sr1 Ca7 Mn6 Al2 O21'
_cell_volume   448.40413325
_cell_formula_units_Z   1
loop_
 _symmetry_equiv_pos_site_id
 _symmetry_equiv_pos_as_xyz
  1  'x, y, z'
loop_
 _atom_site_type_symbol
 _atom_site_label
 _atom_site_symmetry_multiplicity
 _atom_site_fract_x
 _atom_site_fract_y
 _atom_site_fract_z
 _atom_site_occupancy
  Sr  Sr0  1  0.25769500  0.25769500  0.25000000  1
  Ca  Ca0  1  0.25212300  0.25212300  0.75000000  1
  Ca  Ca1  1  0.26256700  0.73868500  0.25000000  1
  Ca  Ca2  1  0.25243200  0.74856500  0.75000000  1
  Ca  Ca3  1  0.73868500  0.26256700  0.25000000  1
  Ca  Ca4  1  0.74856500  0.25243200  0.75000000  1
  Ca  Ca5  1  0.73841200  0.73841200  0.25000000  1
  Ca  Ca6  1  0.74761000  0.74761000  0.75000000  1
  Mn  Mn0  1  0.99950600  0.50123800  0.99665400  1
  Mn  Mn1  1  0.99950600  0.50123800  0.50334600  1
  Mn  Mn2  1  0.50123800  0.99950600  0.99665400  1
  Mn  Mn3  1  0.50123800  0.99950600  0.50334600  1
  Mn  Mn4  1  0.50063000  0.50063000  0.99844200  1
  Mn  Mn5  1  0.50063000  0.50063000  0.50155800  1
  Al  Al0  1  0.99907300  0.99907300  0.00061700  1
  Al  Al1  1  0.99907300  0.99907300  0.49938300  1
  O  O0  1  0.99629400  0.50151600  0.25000000  1
  O  O1  1  0.99909200  0.50093000  0.75000000  1
  O  O2  1  0.50151600  0.99629400  0.25000000  1
  O  O3  1  0.50093000  0.99909200  0.75000000  1
  O  O4  1  0.50413500  0.50413500  0.25000000  1
  O  O5  1  0.23377800  0.99795000  0.99656000  1
  O  O6  1  0.23377800  0.99795000  0.50344000  1
  O  O7  1  0.25617600  0.50225600  0.97648700  1
  O  O8  1  0.25617600  0.50225600  0.52351300  1
  O  O9  1  0.76522000  0.99928700  0.99994500  1
  O  O10  1  0.76522000  0.99928700  0.50005500  1
  O  O11  1  0.74430400  0.50055400  0.97778500  1
  O  O12  1  0.74430400  0.50055400  0.52221500  1
  O  O13  1  0.99795000  0.23377800  0.99656000  1
  O  O14  1  0.99795000  0.23377800  0.50344000  1
  O  O15  1  0.99928700  0.76522000  0.99994500  1
  O  O16  1  0.99928700  0.76522000  0.50005500  1
  O  O17  1  0.50225600  0.25617600  0.97648700  1
  O  O18  1  0.50225600  0.25617600  0.52351300  1
  O  O19  1  0.50055400  0.74430400  0.97778500  1
  O  O20  1  0.50055400  0.74430400  0.52221500  1
loop_
_geom_bond_atom_site_label_1
_geom_bond_atom_site_label_2
_geom_bond_distance
_geom_bond_site_symmetry_2
Ca0 O18 2.572788 1_555
Ca0 O8 2.572788 1_555
Ca0 O7 2.572788 1_555
Ca0 O17 2.572788 1_555
Ca0 O14 2.700207 1_455
Ca0 O6 2.700207 1_545
Ca0 O5 2.700207 1_545
Ca0 O13 2.700207 1_455
Ca0 O1 2.747817 1_455
Ca0 O3 2.747817 1_545
Ca1 O4 2.607178 1_555
Ca1 O2 2.723833 1_555
Ca1 O7 2.744558 1_554
Ca1 O8 2.744558 1_555
Ca1 O20 2.745334 1_555
Ca1 O19 2.745334 1_554
Ca1 O0 2.764249 1_455
Ca1 O5 2.769097 1_554
Ca1 O6 2.769097 1_555
Ca1 O15 2.773321 1_454
Ca1 O16 2.773321 1_455
Ca2 O8 2.550465 1_555
Ca2 O7 2.550465 1_555
Ca2 O19 2.567453 1_555
Ca2 O20 2.567453 1_555
Ca2 O6 2.673163 1_555
Ca2 O5 2.673163 1_555
Ca2 O15 2.710873 1_455
Ca2 O16 2.710873 1_455
Ca2 O3 2.735462 1_555
Ca2 O1 2.746306 1_455
Ca3 O4 2.607178 1_555
Ca3 O0 2.723833 1_555
Ca3 O17 2.744558 1_554
Ca3 O18 2.744558 1_555
Ca3 O12 2.745334 1_555
Ca3 O11 2.745334 1_554
Ca3 O2 2.764249 1_545
Ca3 O13 2.769097 1_554
Ca3 O14 2.769097 1_555
Ca3 O10 2.773321 1_545
Ca3 O9 2.773321 1_544
Ca4 O18 2.550465 1_555
Ca4 O17 2.550465 1_555
Ca4 O11 2.567453 1_555
Ca4 O12 2.567453 1_555
Ca4 O14 2.673163 1_555
Ca4 O13 2.673163 1_555
Ca4 O9 2.710873 1_545
Ca4 O10 2.710873 1_545
Ca4 O1 2.735462 1_555
Ca4 O3 2.746306 1_545
Ca5 O4 2.568411 1_555
Ca5 O0 2.711505 1_555
Ca5 O2 2.711505 1_555
Ca5 O20 2.744629 1_555
Ca5 O12 2.744629 1_555
Ca5 O19 2.744629 1_554
Ca5 O11 2.744629 1_554
Ca5 O16 2.760151 1_555
Ca5 O10 2.760151 1_555
Ca5 O9 2.760151 1_554
Ca5 O15 2.760151 1_554
Ca6 O11 2.561240 1_555
Ca6 O19 2.561240 1_555
Ca6 O20 2.561240 1_555
Ca6 O12 2.561240 1_555
Ca6 O15 2.703238 1_555
Ca6 O16 2.703238 1_555
Ca6 O9 2.703238 1_555
Ca6 O10 2.703238 1_555
Ca6 O3 2.727719 1_555
Ca6 O1 2.727719 1_555
Mn0 O1 1.842532 1_555
Mn0 O0 1.892683 1_556
Mn0 O11 1.982256 1_555
Mn0 O7 1.994321 1_655
Mn0 O15 2.045396 1_555
Mn0 O13 2.072245 1_555
Mn1 O1 1.842532 1_555
Mn1 O0 1.892683 1_555
Mn1 O12 1.982256 1_555
Mn1 O8 1.994321 1_655
Mn1 O16 2.045396 1_555
Mn1 O14 2.072245 1_555
Mn2 O3 1.842532 1_555
Mn2 O2 1.892683 1_556
Mn2 O19 1.982256 1_555
Mn2 O17 1.994321 1_565
Mn2 O9 2.045396 1_555
Mn2 O5 2.072245 1_555
Mn3 O3 1.842532 1_555
Mn3 O2 1.892683 1_555
Mn3 O20 1.982256 1_555
Mn3 O18 1.994321 1_565
Mn3 O10 2.045396 1_555
Mn3 O6 2.072245 1_555
Mn4 O4 1.879554 1_556
Mn4 O11 1.894205 1_555
Mn4 O19 1.894205 1_555
Mn4 O17 1.901068 1_555
Mn4 O7 1.901068 1_555
Mn5 O4 1.879554 1_555
Mn5 O20 1.894205 1_555
Mn5 O12 1.894205 1_555
Mn5 O18 1.901068 1_555
Mn5 O8 1.901068 1_555
Al0 O15 1.811825 1_554
Al0 O9 1.811825 1_554
Al0 O5 1.818684 1_654
Al0 O13 1.818684 1_564
Al1 O16 1.811825 1_555
Al1 O10 1.811825 1_555
Al1 O6 1.818684 1_655
Al1 O14 1.818684 1_565
O0 Sr0 2.767926 1_655
O2 Sr0 2.767926 1_565
O4 Sr0 2.701755 1_555
O5 Sr0 2.769353 1_566
O6 Sr0 2.769353 1_565
O7 Sr0 2.786542 1_556
O8 Sr0 2.786542 1_555
O13 Sr0 2.769353 1_656
O14 Sr0 2.769353 1_655
O17 Sr0 2.786542 1_556
O18 Sr0 2.786542 1_555
