# generated using pymatgen
data_SmEuNbVO6
_symmetry_space_group_name_H-M   'P 1'
_cell_length_a   5.69195069
_cell_length_b   5.69195069
_cell_length_c   5.69195069
_cell_angle_alpha   60.00000000
_cell_angle_beta   60.00000000
_cell_angle_gamma   60.00000000
_symmetry_Int_Tables_number   1
_chemical_formula_structural   SmEuNbVO6
_chemical_formula_sum   'Sm1 Eu1 Nb1 V1 O6'
_cell_volume   130.39723697
_cell_formula_units_Z   1
loop_
 _symmetry_equiv_pos_site_id
 _symmetry_equiv_pos_as_xyz
  1  'x, y, z'
loop_
 _atom_site_type_symbol
 _atom_site_label
 _atom_site_symmetry_multiplicity
 _atom_site_fract_x
 _atom_site_fract_y
 _atom_site_fract_z
 _atom_site_occupancy
  Sm  Sm0  1  0.25000000  0.25000000  0.25000000  1
  Eu  Eu0  1  0.75000000  0.75000000  0.75000000  1
  Nb  Nb0  1  -0.00000000  0.00000000  -0.00000000  1
  V  V0  1  0.50000000  0.50000000  0.50000000  1
  O  O0  1  0.75199670  0.24800330  0.24800330  1
  O  O1  1  0.24800330  0.75199670  0.75199670  1
  O  O2  1  0.75199670  0.24800330  0.75199670  1
  O  O3  1  0.24800330  0.75199670  0.24800330  1
  O  O4  1  0.75199670  0.75199670  0.24800330  1
  O  O5  1  0.24800330  0.24800330  0.75199670  1
loop_
_geom_bond_atom_site_label_1
_geom_bond_atom_site_label_2
_geom_bond_distance
_geom_bond_site_symmetry_2
Eu0 O2 2.846021 1_565
Eu0 O4 2.846021 1_556
Eu0 O1 2.846021 1_655
Eu0 O5 2.846021 1_565
Eu0 O5 2.846021 1_655
Eu0 O3 2.846021 1_556
Eu0 O0 2.846021 1_556
Eu0 O3 2.846021 1_655
Eu0 O0 2.846021 1_565
Eu0 O1 2.846021 1_555
Eu0 O2 2.846021 1_555
Eu0 O4 2.846021 1_555
Nb0 O5 1.996336 1_554
Nb0 O0 1.996336 1_455
Nb0 O3 1.996336 1_545
Nb0 O2 1.996336 1_454
Nb0 O4 1.996336 1_445
Nb0 O1 1.996336 1_544
O0 V0 2.028481 1_555
O0 Sm0 2.846021 1_555
O0 Sm0 2.846021 1_655
O1 V0 2.028481 1_555
O1 Sm0 2.846021 1_556
O1 Sm0 2.846021 1_565
O2 V0 2.028481 1_555
O2 Sm0 2.846021 1_556
O2 Sm0 2.846021 1_655
O3 V0 2.028481 1_555
O3 Sm0 2.846021 1_555
O3 Sm0 2.846021 1_565
O4 V0 2.028481 1_555
O4 Sm0 2.846021 1_655
O4 Sm0 2.846021 1_565
O5 V0 2.028481 1_555
O5 Sm0 2.846021 1_556
O5 Sm0 2.846021 1_555
