# generated using pymatgen
data_CoSbTe
_symmetry_space_group_name_H-M   'P 1'
_cell_length_a   3.81074597
_cell_length_b   5.26899857
_cell_length_c   6.23072862
_cell_angle_alpha   91.21877721
_cell_angle_beta   90.00000000
_cell_angle_gamma   90.00000000
_symmetry_Int_Tables_number   1
_chemical_formula_structural   CoSbTe
_chemical_formula_sum   'Co2 Sb2 Te2'
_cell_volume   125.07734472
_cell_formula_units_Z   2
loop_
 _symmetry_equiv_pos_site_id
 _symmetry_equiv_pos_as_xyz
  1  'x, y, z'
loop_
 _atom_site_type_symbol
 _atom_site_label
 _atom_site_symmetry_multiplicity
 _atom_site_fract_x
 _atom_site_fract_y
 _atom_site_fract_z
 _atom_site_occupancy
  Co  Co0  1  0.50000000  0.50000000  0.50000000  1
  Co  Co1  1  0.00000000  0.00000000  -0.00000000  1
  Sb  Sb0  1  0.50000000  0.71882758  0.13623961  1
  Sb  Sb1  1  0.50000000  0.28117242  0.86376039  1
  Te  Te0  1  0.00000000  0.22378335  0.35680238  1
  Te  Te1  1  0.00000000  0.77621665  0.64319762  1
loop_
_geom_bond_atom_site_label_1
_geom_bond_atom_site_label_2
_geom_bond_distance
_geom_bond_site_symmetry_2
Co0 Te1 2.547434 1_555
Co0 Te0 2.547434 1_655
Co0 Te1 2.547434 1_655
Co0 Te0 2.547434 1_555
Co0 Sb0 2.564677 1_555
Co0 Sb1 2.564677 1_555
Co1 Te0 2.494222 1_555
Co1 Te1 2.494222 1_544
Co1 Sb1 2.568922 1_554
Co1 Sb1 2.568922 1_454
Co1 Sb0 2.568922 1_445
Co1 Sb0 2.568922 1_545
Sb0 Sb1 2.834334 1_554
