# generated using pymatgen
data_Y(Fe5Mo)2
_symmetry_space_group_name_H-M   'P 1'
_cell_length_a   4.75172600
_cell_length_b   6.50489934
_cell_length_c   6.50489934
_cell_angle_alpha   97.09213936
_cell_angle_beta   111.42248180
_cell_angle_gamma   68.57751820
_symmetry_Int_Tables_number   1
_chemical_formula_structural   Y(Fe5Mo)2
_chemical_formula_sum   'Y1 Fe10 Mo2'
_cell_volume   174.22954119
_cell_formula_units_Z   1
loop_
 _symmetry_equiv_pos_site_id
 _symmetry_equiv_pos_as_xyz
  1  'x, y, z'
loop_
 _atom_site_type_symbol
 _atom_site_label
 _atom_site_symmetry_multiplicity
 _atom_site_fract_x
 _atom_site_fract_y
 _atom_site_fract_z
 _atom_site_occupancy
  Y  Y0  1  0.00000000  0.00000000  0.00000000  1
  Fe  Fe0  1  0.50000000  0.00000000  0.50000000  1
  Fe  Fe1  1  0.00000000  0.00000000  0.50000000  1
  Fe  Fe2  1  0.50000000  0.50000000  0.00000000  1
  Fe  Fe3  1  0.00000000  0.50000000  0.00000000  1
  Fe  Fe4  1  0.71906200  0.78093800  0.21906200  1
  Fe  Fe5  1  0.28093800  0.21906200  0.78093800  1
  Fe  Fe6  1  0.50000000  0.77522600  0.77522600  1
  Fe  Fe7  1  0.50000000  0.22477400  0.22477400  1
  Fe  Fe8  1  0.64055100  0.35944900  0.64055100  1
  Fe  Fe9  1  0.35944900  0.64055100  0.35944900  1
  Mo  Mo0  1  0.00000000  0.35807600  0.35807600  1
  Mo  Mo1  1  0.00000000  0.64192400  0.64192400  1
loop_
_geom_bond_atom_site_label_1
_geom_bond_atom_site_label_2
_geom_bond_distance
_geom_bond_site_symmetry_2
Fe0 Fe1 2.375863 1_655
Fe0 Fe1 2.375863 1_555
Fe0 Fe7 2.447336 1_555
Fe0 Fe6 2.447336 1_545
Fe0 Fe5 2.473207 1_555
Fe0 Fe4 2.473207 1_545
Fe0 Mo0 2.609347 1_555
Fe0 Mo1 2.609347 1_645
Fe0 Fe8 2.629793 1_555
Fe0 Fe9 2.629793 1_545
Fe0 Y0 3.252450 1_555
Fe0 Y0 3.252450 1_656
Fe1 Fe7 2.447336 1_455
Fe1 Fe6 2.447336 1_545
Fe1 Fe5 2.473207 1_555
Fe1 Fe4 2.473207 1_445
Fe1 Mo0 2.609347 1_555
Fe1 Mo1 2.609347 1_545
Fe1 Fe8 2.629793 1_455
Fe1 Fe9 2.629793 1_545
Fe1 Y0 3.252450 1_555
Fe1 Y0 3.252450 1_556
Fe2 Fe3 2.375863 1_655
Fe2 Fe3 2.375863 1_555
Fe2 Fe6 2.447336 1_554
Fe2 Fe7 2.447336 1_555
Fe2 Fe4 2.473207 1_555
Fe2 Fe5 2.473207 1_554
Fe2 Mo0 2.609347 1_655
Fe2 Mo1 2.609347 1_554
Fe2 Fe9 2.629793 1_555
Fe2 Fe8 2.629793 1_554
Fe2 Y0 3.252450 1_565
Fe2 Y0 3.252450 1_655
Fe3 Fe6 2.447336 1_454
Fe3 Fe7 2.447336 1_555
Fe3 Fe4 2.473207 1_455
Fe3 Fe5 2.473207 1_554
Fe3 Mo0 2.609347 1_555
Fe3 Mo1 2.609347 1_554
Fe3 Fe9 2.629793 1_555
Fe3 Fe8 2.629793 1_454
Fe3 Y0 3.252450 1_555
Fe3 Y0 3.252450 1_565
Fe4 Fe9 2.659612 1_655
Fe4 Fe9 2.659612 1_555
Fe4 Mo0 2.686272 1_655
Fe4 Mo1 2.686272 1_655
Fe4 Fe6 2.688265 1_554
Fe4 Fe7 2.688265 1_565
Fe4 Y0 3.020551 1_565
Fe4 Y0 3.020551 1_665
Fe5 Fe8 2.659612 1_455
Fe5 Fe8 2.659612 1_555
Fe5 Mo0 2.686272 1_555
Fe5 Mo1 2.686272 1_555
Fe5 Fe6 2.688265 1_545
Fe5 Fe7 2.688265 1_556
Fe5 Y0 3.020551 1_556
Fe5 Y0 3.020551 1_656
Fe6 Mo1 2.638720 1_555
Fe6 Mo1 2.638720 1_655
Fe6 Fe8 2.655400 1_555
Fe6 Fe9 2.655400 1_555
Fe6 Y0 3.064717 1_566
Fe6 Y0 3.064717 1_666
Fe7 Mo0 2.638720 1_555
Fe7 Mo0 2.638720 1_655
Fe7 Fe8 2.655400 1_555
Fe7 Fe9 2.655400 1_555
Fe7 Y0 3.064717 1_555
Fe7 Y0 3.064717 1_655
Fe8 Fe9 2.393449 1_555
Fe8 Mo1 2.927630 1_555
Fe8 Mo0 2.927630 1_555
Fe8 Mo0 2.927630 1_655
Fe8 Mo1 2.927630 1_655
Fe8 Y0 3.060536 1_656
Fe9 Mo0 2.927630 1_555
Fe9 Mo1 2.927630 1_555
Fe9 Mo1 2.927630 1_655
Fe9 Mo0 2.927630 1_655
Fe9 Y0 3.060536 1_565
Mo0 Mo1 2.444702 1_555
Mo0 Y0 3.084007 1_555
Mo1 Y0 3.084007 1_566
