# generated using pymatgen
data_SrRe3Se4O11
_symmetry_space_group_name_H-M   'P 1'
_cell_length_a   9.03120600
_cell_length_b   9.73202823
_cell_length_c   11.54593236
_cell_angle_alpha   68.70269226
_cell_angle_beta   79.45849149
_cell_angle_gamma   67.68251940
_symmetry_Int_Tables_number   1
_chemical_formula_structural   SrRe3Se4O11
_chemical_formula_sum   'Sr2 Re6 Se8 O22'
_cell_volume   873.47516031
_cell_formula_units_Z   2
loop_
 _symmetry_equiv_pos_site_id
 _symmetry_equiv_pos_as_xyz
  1  'x, y, z'
loop_
 _atom_site_type_symbol
 _atom_site_label
 _atom_site_symmetry_multiplicity
 _atom_site_fract_x
 _atom_site_fract_y
 _atom_site_fract_z
 _atom_site_occupancy
  Sr  Sr0  1  0.95194100  0.30424800  0.94726300  1
  Sr  Sr1  1  0.04805900  0.69575200  0.05273700  1
  Re  Re0  1  0.73259200  0.50375900  0.65214500  1
  Re  Re1  1  0.26740800  0.49624100  0.34785500  1
  Re  Re2  1  0.66844100  0.59721200  0.29578100  1
  Re  Re3  1  0.33155900  0.40278800  0.70421900  1
  Re  Re4  1  0.32269000  0.78187200  0.47517500  1
  Re  Re5  1  0.67731000  0.21812800  0.52482500  1
  Se  Se0  1  0.84811000  0.38599300  0.46083600  1
  Se  Se1  1  0.15189000  0.61400700  0.53916400  1
  Se  Se2  1  0.37685200  0.73940000  0.26921300  1
  Se  Se3  1  0.62314800  0.26060000  0.73078700  1
  Se  Se4  1  0.41027800  0.62612700  0.69453100  1
  Se  Se5  1  0.58972200  0.37387300  0.30546900  1
  Se  Se6  1  0.61898000  0.74564900  0.44164100  1
  Se  Se7  1  0.38102000  0.25435100  0.55835900  1
  O  O0  1  0.73274200  0.65406900  0.69808400  1
  O  O1  1  0.26725800  0.34593100  0.30191600  1
  O  O2  1  0.77581800  0.66580900  0.16322900  1
  O  O3  1  0.22418200  0.33419100  0.83677100  1
  O  O4  1  0.21093100  0.97117300  0.46259800  1
  O  O5  1  0.78906900  0.02882700  0.53740200  1
  O  O6  1  0.56976800  0.50201900  0.98893300  1
  O  O7  1  0.43023200  0.49798100  0.01106700  1
  O  O8  1  0.03096000  0.44502000  0.05495700  1
  O  O9  1  0.96904000  0.55498000  0.94504300  1
  O  O10  1  0.77270300  0.09166200  0.06958600  1
  O  O11  1  0.22729700  0.90833800  0.93041400  1
  O  O12  1  0.20410200  0.10118400  0.10084400  1
  O  O13  1  0.79589800  0.89881600  0.89915600  1
  O  O14  1  0.90411800  0.34503100  0.72249400  1
  O  O15  1  0.09588200  0.65496900  0.27750600  1
  O  O16  1  0.84333900  0.15254100  0.13393600  1
  O  O17  1  0.15666100  0.84745900  0.86606400  1
  O  O18  1  0.28610500  0.14446400  0.14596600  1
  O  O19  1  0.71389500  0.85553600  0.85403400  1
  O  O20  1  0.62923900  0.08743900  0.11395600  1
  O  O21  1  0.37076100  0.91256100  0.88604400  1
loop_
_geom_bond_atom_site_label_1
_geom_bond_atom_site_label_2
_geom_bond_distance
_geom_bond_site_symmetry_2
Re0 Se3 2.699739 1_555
Re0 Se0 2.714520 1_555
Re0 Se4 2.720354 1_555
Re0 Se6 2.724604 1_555
Re1 Se2 2.699739 1_555
Re1 Se1 2.714520 1_555
Re1 Se5 2.720354 1_555
Re1 Se7 2.724604 1_555
Re2 Se6 2.474762 1_555
Re2 Se2 2.482619 1_555
Re2 Se5 2.492002 1_555
Re2 Se0 2.498545 1_555
Re3 Se7 2.474762 1_555
Re3 Se3 2.482619 1_555
Re3 Se4 2.492002 1_555
Re3 Se1 2.498545 1_555
Re4 Se2 2.489972 1_555
Re4 Se1 2.492834 1_555
Re4 Se4 2.524165 1_555
Re4 Se6 2.537329 1_555
Re5 Se3 2.489972 1_555
Re5 Se0 2.492834 1_555
Re5 Se5 2.524165 1_555
Re5 Se7 2.537329 1_555
O0 Re0 1.728169 1_555
O1 Re1 1.728169 1_555
O2 Re2 1.713118 1_555
O2 Sr1 2.623713 1_655
O3 Re3 1.713118 1_555
O3 Sr0 2.623713 1_455
O4 Re4 1.697322 1_555
O5 Re5 1.697322 1_555
O6 O7 1.251952 1_556
O6 Sr0 3.296743 1_555
O7 Sr1 3.296743 1_555
O8 O9 1.373707 1_454
O8 Sr1 2.493601 1_555
O8 Sr0 2.497384 1_454
O9 Sr0 2.493601 1_555
O9 Sr1 2.497384 1_656
O10 O20 1.313443 1_555
O10 O16 1.445766 1_555
O10 Sr0 2.911996 1_554
O11 O21 1.313443 1_555
O11 O17 1.445766 1_555
O11 Sr1 2.911996 1_556
O12 O18 1.238861 1_555
O12 Sr0 2.783877 1_454
O13 O19 1.238861 1_555
O13 Sr1 2.783877 1_656
O14 Re0 1.782472 1_555
O14 Sr0 2.571121 1_555
O15 Re1 1.782472 1_555
O15 Sr1 2.571121 1_555
O16 Sr0 2.408716 1_554
O17 Sr1 2.408716 1_556
