# generated using pymatgen
data_Co2P2NO8
_symmetry_space_group_name_H-M   'P 1'
_cell_length_a   9.62963682
_cell_length_b   9.62963682
_cell_length_c   9.11977921
_cell_angle_alpha   83.34576972
_cell_angle_beta   83.34576972
_cell_angle_gamma   90.17004005
_symmetry_Int_Tables_number   1
_chemical_formula_structural   Co2P2NO8
_chemical_formula_sum   'Co8 P8 N4 O32'
_cell_volume   834.20568204
_cell_formula_units_Z   4
loop_
 _symmetry_equiv_pos_site_id
 _symmetry_equiv_pos_as_xyz
  1  'x, y, z'
loop_
 _atom_site_type_symbol
 _atom_site_label
 _atom_site_symmetry_multiplicity
 _atom_site_fract_x
 _atom_site_fract_y
 _atom_site_fract_z
 _atom_site_occupancy
  Co  Co0  1  0.54900300  0.28659200  0.05838600  1
  Co  Co1  1  0.45099700  0.71340800  0.94161400  1
  Co  Co2  1  0.71340800  0.45099700  0.44161400  1
  Co  Co3  1  0.28659200  0.54900300  0.55838600  1
  Co  Co4  1  0.80420100  0.92143000  0.39275800  1
  Co  Co5  1  0.19579900  0.07857000  0.60724200  1
  Co  Co6  1  0.07857000  0.19579900  0.10724200  1
  Co  Co7  1  0.92143000  0.80420100  0.89275800  1
  P  P0  1  0.79137400  0.05595600  0.04649900  1
  P  P1  1  0.20862600  0.94404400  0.95350100  1
  P  P2  1  0.94404400  0.20862600  0.45350100  1
  P  P3  1  0.05595600  0.79137400  0.54649900  1
  P  P4  1  0.42088000  0.29727600  0.40971600  1
  P  P5  1  0.57912000  0.70272400  0.59028400  1
  P  P6  1  0.70272400  0.57912000  0.09028400  1
  P  P7  1  0.29727600  0.42088000  0.90971600  1
  N  N0  1  0.42771200  0.92429400  0.27671700  1
  N  N1  1  0.57228800  0.07570600  0.72328300  1
  N  N2  1  0.07570600  0.57228800  0.22328300  1
  N  N3  1  0.92429400  0.42771200  0.77671700  1
  O  O0  1  0.64583500  0.83500200  0.49711200  1
  O  O1  1  0.35416500  0.16499800  0.50288800  1
  O  O2  1  0.16499800  0.35416500  0.00288800  1
  O  O3  1  0.83500200  0.64583500  0.99711200  1
  O  O4  1  0.55904800  0.32966700  0.47157400  1
  O  O5  1  0.44095200  0.67033300  0.52842600  1
  O  O6  1  0.67033300  0.44095200  0.02842600  1
  O  O7  1  0.32966700  0.55904800  0.97157400  1
  O  O8  1  0.82947300  0.09353700  0.46072700  1
  O  O9  1  0.17052700  0.90646300  0.53927300  1
  O  O10  1  0.90646300  0.17052700  0.03927300  1
  O  O11  1  0.09353700  0.82947300  0.96072700  1
  O  O12  1  0.78381900  0.95579700  0.19224600  1
  O  O13  1  0.21618100  0.04420300  0.80775400  1
  O  O14  1  0.04420300  0.21618100  0.30775400  1
  O  O15  1  0.95579700  0.78381900  0.69224600  1
  O  O16  1  0.17849600  0.03199200  0.08588000  1
  O  O17  1  0.82150400  0.96800800  0.91412000  1
  O  O18  1  0.96800800  0.82150400  0.41412000  1
  O  O19  1  0.03199200  0.17849600  0.58588000  1
  O  O20  1  0.44516300  0.26712700  0.24626800  1
  O  O21  1  0.55483700  0.73287300  0.75373200  1
  O  O22  1  0.73287300  0.55483700  0.25373200  1
  O  O23  1  0.26712700  0.44516300  0.74626800  1
  O  O24  1  0.34971500  0.87221500  0.96868800  1
  O  O25  1  0.65028500  0.12778500  0.03131200  1
  O  O26  1  0.12778500  0.65028500  0.53131200  1
  O  O27  1  0.87221500  0.34971500  0.46868800  1
  O  O28  1  0.57763500  0.68037600  0.07932300  1
  O  O29  1  0.42236500  0.31962400  0.92067700  1
  O  O30  1  0.31962400  0.42236500  0.42067700  1
  O  O31  1  0.68037600  0.57763500  0.57932300  1
loop_
_geom_bond_atom_site_label_1
_geom_bond_atom_site_label_2
_geom_bond_distance
_geom_bond_site_symmetry_2
Co0 O25 1.841564 1_555
Co0 O29 1.852076 1_554
Co0 O6 1.863005 1_555
Co0 O20 1.870369 1_555
Co1 O24 1.841564 1_555
Co1 O28 1.852076 1_556
Co1 O7 1.863005 1_555
Co1 O21 1.870369 1_555
Co2 O27 1.841564 1_555
Co2 O31 1.852076 1_555
Co2 O4 1.863005 1_555
Co2 O22 1.870369 1_555
Co3 O26 1.841564 1_555
Co3 O30 1.852076 1_555
Co3 O5 1.863005 1_555
Co3 O23 1.870369 1_555
Co4 O0 1.842980 1_555
Co4 O12 1.853437 1_555
Co4 O8 1.860333 1_565
Co4 O18 1.867849 1_555
Co5 O1 1.842980 1_555
Co5 O13 1.853437 1_555
Co5 O9 1.860333 1_545
Co5 O19 1.867849 1_555
Co6 O2 1.842980 1_555
Co6 O14 1.853437 1_555
Co6 O10 1.860333 1_455
Co6 O16 1.867849 1_555
Co7 O3 1.842980 1_555
Co7 O15 1.853437 1_555
Co7 O11 1.860333 1_655
Co7 O17 1.867849 1_555
O0 P5 1.541124 1_555
O1 P4 1.541124 1_555
O2 P7 1.541124 1_554
O3 P6 1.541124 1_556
O4 P4 1.548564 1_555
O5 P5 1.548564 1_555
O6 P6 1.548564 1_555
O7 P7 1.548564 1_555
O8 P2 1.552025 1_555
O9 P3 1.552025 1_555
O10 P0 1.552025 1_555
O11 P1 1.552025 1_555
O12 P0 1.543480 1_565
O13 P1 1.543480 1_545
O14 P2 1.543480 1_455
O15 P3 1.543480 1_655
O16 P1 1.554401 1_544
O17 P0 1.554401 1_566
O18 P3 1.554401 1_655
O19 P2 1.554401 1_455
O20 P4 1.542985 1_555
O21 P5 1.542985 1_555
O22 P6 1.542985 1_555
O23 P7 1.542985 1_555
O24 P1 1.539640 1_555
O25 P0 1.539640 1_555
O26 P3 1.539640 1_555
O27 P2 1.539640 1_555
O28 P6 1.556916 1_555
O29 P7 1.556916 1_555
O30 P4 1.556916 1_555
O31 P5 1.556916 1_555
