# generated using pymatgen
data_PWO4
_symmetry_space_group_name_H-M   'P 1'
_cell_length_a   9.79049194
_cell_length_b   9.79049194
_cell_length_c   16.60766784
_cell_angle_alpha   60.25239075
_cell_angle_beta   60.25239075
_cell_angle_gamma   31.09189362
_symmetry_Int_Tables_number   1
_chemical_formula_structural   PWO4
_chemical_formula_sum   'P8 W8 O32'
_cell_volume   704.66818613
_cell_formula_units_Z   8
loop_
 _symmetry_equiv_pos_site_id
 _symmetry_equiv_pos_as_xyz
  1  'x, y, z'
loop_
 _atom_site_type_symbol
 _atom_site_label
 _atom_site_symmetry_multiplicity
 _atom_site_fract_x
 _atom_site_fract_y
 _atom_site_fract_z
 _atom_site_occupancy
  P  P0  1  0.47751100  0.94450200  0.64261200  1
  P  P1  1  0.78526500  0.24408300  0.88029800  1
  P  P2  1  0.52248900  0.05549800  0.35738800  1
  P  P3  1  0.24408300  0.78526500  0.38029800  1
  P  P4  1  0.94450200  0.47751100  0.14261200  1
  P  P5  1  0.05549800  0.52248900  0.85738800  1
  P  P6  1  0.21473500  0.75591700  0.11970200  1
  P  P7  1  0.75591700  0.21473500  0.61970200  1
  W  W0  1  0.37717300  0.84468500  0.51242700  1
  W  W1  1  0.15531500  0.62282700  0.98757300  1
  W  W2  1  0.62282700  0.15531500  0.48757300  1
  W  W3  1  0.00000000  0.50000000  0.50000000  1
  W  W4  1  0.84468500  0.37717300  0.01242700  1
  W  W5  1  0.69023900  0.30976100  0.25000000  1
  W  W6  1  0.30976100  0.69023900  0.75000000  1
  W  W7  1  0.50000000  0.00000000  0.00000000  1
  O  O0  1  0.23846200  0.21270900  0.42600600  1
  O  O1  1  0.71219800  0.13603300  0.58601800  1
  O  O2  1  0.21270900  0.23846200  0.92600600  1
  O  O3  1  0.57785700  0.28404100  0.95470000  1
  O  O4  1  0.69717800  0.76815700  0.42585800  1
  O  O5  1  0.67156300  0.42689600  0.78822300  1
  O  O6  1  0.71595900  0.42214300  0.54530000  1
  O  O7  1  0.93747500  0.04617700  0.36693000  1
  O  O8  1  0.42214300  0.71595900  0.04530000  1
  O  O9  1  0.86396700  0.28780200  0.91398200  1
  O  O10  1  0.58199100  0.15223800  0.36819000  1
  O  O11  1  0.94199200  0.44701000  0.23864600  1
  O  O12  1  0.28780200  0.86396700  0.41398200  1
  O  O13  1  0.04617700  0.93747500  0.86693000  1
  O  O14  1  0.76153800  0.78729100  0.57399400  1
  O  O15  1  0.41800900  0.84776200  0.63181000  1
  O  O16  1  0.44701000  0.94199200  0.73864600  1
  O  O17  1  0.28404100  0.57785700  0.45470000  1
  O  O18  1  0.15223800  0.58199100  0.86819000  1
  O  O19  1  0.05800800  0.55299000  0.76135400  1
  O  O20  1  0.95382300  0.06252500  0.13307000  1
  O  O21  1  0.76815700  0.69717800  0.92585800  1
  O  O22  1  0.06252500  0.95382300  0.63307000  1
  O  O23  1  0.42689600  0.67156300  0.28822300  1
  O  O24  1  0.13603300  0.71219800  0.08601800  1
  O  O25  1  0.78729100  0.76153800  0.07399400  1
  O  O26  1  0.55299000  0.05800800  0.26135400  1
  O  O27  1  0.23184300  0.30282200  0.07414200  1
  O  O28  1  0.30282200  0.23184300  0.57414200  1
  O  O29  1  0.57310400  0.32843700  0.71177700  1
  O  O30  1  0.32843700  0.57310400  0.21177700  1
  O  O31  1  0.84776200  0.41800900  0.13181000  1
loop_
_geom_bond_atom_site_label_1
_geom_bond_atom_site_label_2
_geom_bond_distance
_geom_bond_site_symmetry_2
O0 P2 1.632747 1_555
O0 W3 2.051438 1_555
O0 W0 2.304048 1_545
O1 P7 1.523188 1_555
O1 W2 2.074779 1_555
O2 P5 1.632747 1_555
O2 W7 2.051438 1_556
O2 W4 2.304048 1_456
O3 P1 1.559645 1_555
O3 W1 2.113929 1_555
O4 P2 1.627059 1_565
O4 W3 2.069410 1_655
O4 W0 2.241160 1_555
O5 P1 1.530304 1_555
O5 W6 2.136224 1_555
O6 P7 1.559645 1_555
O6 W0 2.113929 1_555
O7 P3 1.597247 1_645
O7 W2 2.237844 1_555
O7 W5 2.298487 1_555
O8 P6 1.559645 1_555
O8 W4 2.113929 1_555
O9 P1 1.523188 1_555
O9 W4 2.074779 1_556
O10 P2 1.576679 1_555
O10 W2 2.226717 1_555
O10 W5 2.255075 1_555
O11 P4 1.461003 1_555
O12 P3 1.523188 1_555
O12 W0 2.074779 1_555
O13 P1 1.597247 1_465
O13 W1 2.237844 1_555
O13 W6 2.298487 1_555
O14 P0 1.632747 1_555
O14 W3 2.051438 1_655
O14 W2 2.304048 1_565
O15 P0 1.576679 1_555
O15 W0 2.226717 1_555
O15 W6 2.255075 1_555
O16 P0 1.461003 1_555
O17 P3 1.559645 1_555
O17 W2 2.113929 1_555
O18 P5 1.576679 1_555
O18 W1 2.226717 1_555
O18 W6 2.255075 1_555
O19 P5 1.461003 1_555
O20 P6 1.597247 1_645
O20 W4 2.237844 1_555
O20 W5 2.298487 1_555
O21 P5 1.627059 1_655
O21 W7 2.069410 1_566
O21 W4 2.241160 1_556
O22 P7 1.597247 1_465
O22 W0 2.237844 1_555
O22 W6 2.298487 1_555
O23 P3 1.530304 1_555
O23 W5 2.136224 1_555
O24 P6 1.523188 1_555
O24 W1 2.074779 1_554
O25 P4 1.632747 1_555
O25 W7 2.051438 1_565
O25 W1 2.304048 1_654
O26 P2 1.461003 1_555
O27 P4 1.627059 1_455
O27 W7 2.069410 1_555
O27 W1 2.241160 1_554
O28 P0 1.627059 1_545
O28 W3 2.069410 1_555
O28 W2 2.241160 1_555
O29 P7 1.530304 1_555
O29 W6 2.136224 1_555
O30 P6 1.530304 1_555
O30 W5 2.136224 1_555
O31 P4 1.576679 1_555
O31 W4 2.226717 1_555
O31 W5 2.255075 1_555
