# generated using pymatgen
data_NaPrDySbO6
_symmetry_space_group_name_H-M   'P 1'
_cell_length_a   5.87740665
_cell_length_b   5.87740665
_cell_length_c   5.87740665
_cell_angle_alpha   60.00000000
_cell_angle_beta   60.00000000
_cell_angle_gamma   60.00000000
_symmetry_Int_Tables_number   1
_chemical_formula_structural   NaPrDySbO6
_chemical_formula_sum   'Na1 Pr1 Dy1 Sb1 O6'
_cell_volume   143.56290008
_cell_formula_units_Z   1
loop_
 _symmetry_equiv_pos_site_id
 _symmetry_equiv_pos_as_xyz
  1  'x, y, z'
loop_
 _atom_site_type_symbol
 _atom_site_label
 _atom_site_symmetry_multiplicity
 _atom_site_fract_x
 _atom_site_fract_y
 _atom_site_fract_z
 _atom_site_occupancy
  Na  Na0  1  0.25000000  0.25000000  0.25000000  1
  Pr  Pr0  1  0.75000000  0.75000000  0.75000000  1
  Dy  Dy0  1  0.00000000  0.00000000  0.00000000  1
  Sb  Sb0  1  0.50000000  0.50000000  0.50000000  1
  O  O0  1  0.73773548  0.26226452  0.26226452  1
  O  O1  1  0.26226452  0.73773548  0.73773548  1
  O  O2  1  0.73773548  0.26226452  0.73773548  1
  O  O3  1  0.26226452  0.73773548  0.26226452  1
  O  O4  1  0.73773548  0.73773548  0.26226452  1
  O  O5  1  0.26226452  0.26226452  0.73773548  1
loop_
_geom_bond_atom_site_label_1
_geom_bond_atom_site_label_2
_geom_bond_distance
_geom_bond_site_symmetry_2
Na0 O2 2.940471 1_455
Na0 O3 2.940471 1_545
Na0 O5 2.940471 1_555
Na0 O5 2.940471 1_554
Na0 O2 2.940471 1_554
Na0 O4 2.940471 1_545
Na0 O3 2.940471 1_555
Na0 O1 2.940471 1_545
Na0 O0 2.940471 1_455
Na0 O0 2.940471 1_555
Na0 O4 2.940471 1_455
Na0 O1 2.940471 1_554
Dy0 O4 2.179919 1_445
Dy0 O3 2.179919 1_545
Dy0 O5 2.179919 1_554
Dy0 O2 2.179919 1_454
Dy0 O1 2.179919 1_544
Dy0 O0 2.179919 1_455
O0 Sb0 1.976035 1_555
O0 Pr0 2.940471 1_545
O0 Pr0 2.940471 1_554
O1 Sb0 1.976035 1_555
O1 Pr0 2.940471 1_455
O1 Pr0 2.940471 1_555
O2 Sb0 1.976035 1_555
O2 Pr0 2.940471 1_545
O2 Pr0 2.940471 1_555
O3 Sb0 1.976035 1_555
O3 Pr0 2.940471 1_455
O3 Pr0 2.940471 1_554
O4 Sb0 1.976035 1_555
O4 Pr0 2.940471 1_555
O4 Pr0 2.940471 1_554
O5 Sb0 1.976035 1_555
O5 Pr0 2.940471 1_455
O5 Pr0 2.940471 1_545
