# generated using pymatgen
data_In3Au
_symmetry_space_group_name_H-M   'P 1'
_cell_length_a   6.89310248
_cell_length_b   6.89310248
_cell_length_c   4.89466100
_cell_angle_alpha   90.00000000
_cell_angle_beta   90.00000000
_cell_angle_gamma   120.00000463
_symmetry_Int_Tables_number   1
_chemical_formula_structural   In3Au
_chemical_formula_sum   'In6 Au2'
_cell_volume   201.41077496
_cell_formula_units_Z   2
loop_
 _symmetry_equiv_pos_site_id
 _symmetry_equiv_pos_as_xyz
  1  'x, y, z'
loop_
 _atom_site_type_symbol
 _atom_site_label
 _atom_site_symmetry_multiplicity
 _atom_site_fract_x
 _atom_site_fract_y
 _atom_site_fract_z
 _atom_site_occupancy
  In  In0  1  0.17506100  0.35012300  0.25000000  1
  In  In1  1  0.64987700  0.82493900  0.25000000  1
  In  In2  1  0.17506100  0.82493900  0.25000000  1
  In  In3  1  0.82493900  0.64987700  0.75000000  1
  In  In4  1  0.35012300  0.17506100  0.75000000  1
  In  In5  1  0.82493900  0.17506100  0.75000000  1
  Au  Au0  1  0.33333300  0.66666700  0.75000000  1
  Au  Au1  1  0.66666700  0.33333300  0.25000000  1
loop_
_geom_bond_atom_site_label_1
_geom_bond_atom_site_label_2
_geom_bond_distance
_geom_bond_site_symmetry_2
Au0 In0 3.091953 1_556
Au0 In0 3.091953 1_555
Au0 In1 3.091953 1_556
Au0 In1 3.091953 1_555
Au0 In2 3.091953 1_556
Au0 In2 3.091953 1_555
Au0 In4 3.448001 1_565
Au0 In3 3.448001 1_455
Au0 In5 3.448008 1_565
Au0 In5 3.448008 1_455
Au0 In3 3.448015 1_555
Au0 In4 3.448015 1_555
Au1 In4 3.091953 1_554
Au1 In4 3.091953 1_555
Au1 In3 3.091953 1_554
Au1 In3 3.091953 1_555
Au1 In5 3.091953 1_555
Au1 In5 3.091953 1_554
Au1 In0 3.448001 1_655
Au1 In1 3.448001 1_545
Au1 In2 3.448008 1_655
Au1 In2 3.448008 1_545
Au1 In1 3.448015 1_555
Au1 In0 3.448015 1_555
