# generated using pymatgen
data_Ca2Ga2Si(HO4)2
_symmetry_space_group_name_H-M   'P 1'
_cell_length_a   7.79531100
_cell_length_b   7.82308399
_cell_length_c   7.84186142
_cell_angle_alpha   109.60534278
_cell_angle_beta   109.11096893
_cell_angle_gamma   109.49922230
_symmetry_Int_Tables_number   1
_chemical_formula_structural   Ca2Ga2Si(HO4)2
_chemical_formula_sum   'Ca4 Ga4 Si2 H4 O16'
_cell_volume   369.02805752
_cell_formula_units_Z   2
loop_
 _symmetry_equiv_pos_site_id
 _symmetry_equiv_pos_as_xyz
  1  'x, y, z'
loop_
 _atom_site_type_symbol
 _atom_site_label
 _atom_site_symmetry_multiplicity
 _atom_site_fract_x
 _atom_site_fract_y
 _atom_site_fract_z
 _atom_site_occupancy
  Ca  Ca0  1  0.01224600  0.72717000  0.98896200  1
  Ca  Ca1  1  0.26928900  0.28340400  0.71900600  1
  Ca  Ca2  1  0.70879100  0.98235800  0.01527100  1
  Ca  Ca3  1  0.00600600  0.00280700  0.27500700  1
  Ga  Ga0  1  0.50136200  0.74169100  0.73872400  1
  Ga  Ga1  1  0.50084000  0.26137100  0.25785000  1
  Ga  Ga2  1  0.75058800  0.48860000  0.75817800  1
  Ga  Ga3  1  0.75024100  0.24361200  0.50980500  1
  Si  Si0  1  0.24781300  0.75778500  0.48624900  1
  Si  Si1  1  0.24700500  0.51273100  0.24107900  1
  H  H0  1  0.67467500  0.62611500  0.35298400  1
  H  H1  1  0.37810100  0.04268400  0.95802900  1
  H  H2  1  0.95658000  0.33268500  0.00838200  1
  H  H3  1  0.96382600  0.99827400  0.66049700  1
  O  O0  1  0.98856700  0.22260500  0.00829500  1
  O  O1  1  0.28114300  0.58497000  0.41355100  1
  O  O2  1  0.26917600  0.30239900  0.28390800  1
  O  O3  1  0.26997700  0.71358700  0.69612400  1
  O  O4  1  0.42641400  0.71407000  0.00725300  1
  O  O5  1  0.42746200  0.99214000  0.28618700  1
  O  O6  1  0.23618500  0.01191200  0.98790800  1
  O  O7  1  0.74303900  0.45402900  0.00605000  1
  O  O8  1  0.77686400  0.76358700  0.23075000  1
  O  O9  1  0.54248600  0.52984100  0.72344600  1
  O  O10  1  0.54406500  0.28333300  0.46688100  1
  O  O11  1  0.72420700  0.24893800  0.74977600  1
  O  O12  1  0.74143600  0.99460500  0.54360300  1
  O  O13  1  0.01412400  0.72711800  0.53970200  1
  O  O14  1  0.01369900  0.46088500  0.27157600  1
  O  O15  1  0.99189100  0.99469200  0.77306700  1
loop_
_geom_bond_atom_site_label_1
_geom_bond_atom_site_label_2
_geom_bond_distance
_geom_bond_site_symmetry_2
Ca0 Ga2 1.921917 1_455
Ca0 O6 2.331372 1_565
Ca0 O7 2.523986 1_456
Ca0 O5 2.746748 1_556
Ca1 O9 2.327849 1_555
Ca1 H3 2.430644 1_445
Ca1 O4 2.877890 1_556
Ca2 Ga0 1.947777 1_554
Ca2 O0 2.388007 1_565
Ca2 O4 2.447650 1_555
Ca3 O8 1.933892 1_445
Ca3 O2 2.508618 1_555
Ga0 O3 1.644613 1_555
Ga0 O9 1.763638 1_555
Ga0 O1 2.140793 1_555
Ga0 O4 2.418459 1_556
Ga1 O10 1.496896 1_555
Ga1 O2 1.997648 1_555
Ga1 O5 2.098987 1_545
Ga2 O9 1.711412 1_555
Ga2 O11 1.792399 1_555
Ga2 O10 1.947561 1_555
Ga2 O7 2.066867 1_556
Ga3 O10 1.685923 1_555
Ga3 O11 1.946089 1_555
Ga3 O12 2.034404 1_545
Ga3 O5 2.183466 1_545
H1 O6 1.168973 1_555
H2 O0 0.973062 1_555
H3 O15 0.849791 1_555
H3 O12 1.659829 1_555
O1 Si1 1.170659 1_555
O1 Si0 1.426369 1_555
O2 Si1 1.836536 1_555
O3 Si0 1.758883 1_555
O10 O5 1.905666 1_545
O13 Si0 1.956399 1_555
O14 Si1 1.840324 1_555
O14 Si0 2.023333 1_555
