# generated using pymatgen
data_RbMg14W
_symmetry_space_group_name_H-M   'P 1'
_cell_length_a   6.44468939
_cell_length_b   6.67628619
_cell_length_c   10.28819593
_cell_angle_alpha   90.00000000
_cell_angle_beta   90.00000000
_cell_angle_gamma   121.19605530
_symmetry_Int_Tables_number   1
_chemical_formula_structural   RbMg14W
_chemical_formula_sum   'Rb1 Mg14 W1'
_cell_volume   378.65645956
_cell_formula_units_Z   1
loop_
 _symmetry_equiv_pos_site_id
 _symmetry_equiv_pos_as_xyz
  1  'x, y, z'
loop_
 _atom_site_type_symbol
 _atom_site_label
 _atom_site_symmetry_multiplicity
 _atom_site_fract_x
 _atom_site_fract_y
 _atom_site_fract_z
 _atom_site_occupancy
  Rb  Rb0  1  0.16104506  0.33052203  0.12500000  1
  Mg  Mg0  1  0.17345570  0.33672735  0.62500000  1
  Mg  Mg1  1  0.16699686  0.83349793  0.62500000  1
  Mg  Mg2  1  0.66189981  0.32599931  0.12500000  1
  Mg  Mg3  1  0.66673632  0.34058262  0.62500000  1
  Mg  Mg4  1  0.66189981  0.83589951  0.12500000  1
  Mg  Mg5  1  0.66673632  0.82615270  0.62500000  1
  Mg  Mg6  1  0.32965088  0.14397413  0.37601156  1
  Mg  Mg7  1  0.32965088  0.14397413  0.87398844  1
  Mg  Mg8  1  0.32965088  0.68567775  0.37601156  1
  Mg  Mg9  1  0.32965088  0.68567775  0.87398844  1
  Mg  Mg10  1  0.81716971  0.15858535  0.39335194  1
  Mg  Mg11  1  0.81716971  0.15858535  0.85664806  1
  Mg  Mg12  1  0.84528765  0.67264432  0.35894401  1
  Mg  Mg13  1  0.84528765  0.67264432  0.89105599  1
  W  W0  1  0.19771189  0.84885545  0.12500000  1
loop_
_geom_bond_atom_site_label_1
_geom_bond_atom_site_label_2
_geom_bond_distance
_geom_bond_site_symmetry_2
Rb0 W0 3.344258 1_545
Rb0 W0 3.344258 1_555
Mg0 Mg10 3.088307 1_455
Mg0 Mg11 3.088307 1_455
Mg0 Mg5 3.165785 1_555
Mg0 Mg3 3.165785 1_555
Mg0 Mg6 3.251664 1_555
Mg0 Mg7 3.251664 1_555
Mg0 Mg8 3.251671 1_555
Mg0 Mg9 3.251671 1_555
Mg0 Mg5 3.279055 1_445
Mg0 Mg3 3.279055 1_455
Mg0 Mg1 3.338333 1_545
Mg0 Mg1 3.338333 1_555
Mg1 Mg8 3.115523 1_555
Mg1 Mg9 3.115523 1_555
Mg1 Mg6 3.115530 1_565
Mg1 Mg7 3.115530 1_565
Mg1 Mg3 3.198898 1_455
Mg1 Mg5 3.198898 1_455
Mg1 Mg3 3.246337 1_565
Mg1 Mg5 3.246337 1_555
Mg1 Mg13 3.261566 1_455
Mg1 Mg12 3.261566 1_455
Mg2 W0 3.037251 1_545
Mg2 Mg7 3.167834 1_554
Mg2 Mg6 3.167834 1_555
Mg2 Rb0 3.201300 1_655
Mg2 Rb0 3.243596 1_555
Mg2 Mg4 3.272047 1_545
Mg2 Mg4 3.404240 1_555
Mg2 W0 3.409142 1_655
Mg3 Mg6 3.170225 1_555
Mg3 Mg7 3.170225 1_555
Mg3 Mg5 3.241805 1_555
Mg3 Mg5 3.434481 1_545
Mg4 W0 3.037251 1_555
Mg4 Mg8 3.167834 1_555
Mg4 Mg9 3.167834 1_554
Mg4 Rb0 3.201300 1_665
Mg4 Rb0 3.243596 1_555
Mg4 W0 3.409142 1_655
Mg5 Mg8 3.170225 1_555
Mg5 Mg9 3.170225 1_555
Mg6 Mg8 3.059718 1_545
Mg6 W0 3.088464 1_545
Mg6 Rb0 3.286776 1_555
Mg7 Mg9 3.059718 1_545
Mg7 W0 3.088464 1_546
Mg7 Rb0 3.286776 1_556
Mg8 W0 3.088457 1_555
Mg8 Rb0 3.286783 1_555
Mg9 W0 3.088457 1_556
Mg9 Rb0 3.286783 1_556
Mg10 Mg3 3.052291 1_555
Mg10 Mg5 3.052298 1_545
Mg10 Mg8 3.097648 1_545
Mg10 Mg6 3.097648 1_555
Mg10 Mg2 3.321380 1_555
Mg10 Mg4 3.321387 1_545
Mg10 Rb0 3.349038 1_655
Mg10 Mg8 3.359088 1_655
Mg10 Mg6 3.359088 1_655
Mg10 Mg12 3.360437 1_555
Mg10 Mg12 3.360437 1_545
Mg11 Mg3 3.052291 1_555
Mg11 Mg5 3.052298 1_545
Mg11 Mg9 3.097648 1_545
Mg11 Mg7 3.097648 1_555
Mg11 Mg2 3.321380 1_556
Mg11 Mg4 3.321387 1_546
Mg11 Rb0 3.349038 1_656
Mg11 Mg9 3.359088 1_655
Mg11 Mg7 3.359088 1_655
Mg11 Mg13 3.360437 1_555
Mg11 Mg13 3.360437 1_545
Mg12 Mg6 3.082405 1_665
Mg12 Mg8 3.082405 1_655
Mg12 W0 3.093155 1_655
Mg12 Mg4 3.116448 1_555
Mg12 Mg2 3.116455 1_555
Mg12 Mg5 3.329961 1_555
Mg12 Mg3 3.329968 1_555
Mg12 Mg6 3.373585 1_555
Mg12 Mg8 3.373585 1_555
Mg13 Mg7 3.082405 1_665
Mg13 Mg9 3.082405 1_655
Mg13 W0 3.093155 1_656
Mg13 Mg4 3.116448 1_556
Mg13 Mg2 3.116455 1_556
Mg13 Mg5 3.329961 1_555
Mg13 Mg3 3.329968 1_555
Mg13 Mg7 3.373585 1_555
Mg13 Mg9 3.373585 1_555
