# generated using pymatgen
data_ZnBiF5
_symmetry_space_group_name_H-M   'P 1'
_cell_length_a   10.77604300
_cell_length_b   5.56873900
_cell_length_c   8.58657924
_cell_angle_alpha   71.30174600
_cell_angle_beta   90.00000000
_cell_angle_gamma   90.00000000
_symmetry_Int_Tables_number   1
_chemical_formula_structural   ZnBiF5
_chemical_formula_sum   'Zn4 Bi4 F20'
_cell_volume   488.07576390
_cell_formula_units_Z   4
loop_
 _symmetry_equiv_pos_site_id
 _symmetry_equiv_pos_as_xyz
  1  'x, y, z'
loop_
 _atom_site_type_symbol
 _atom_site_label
 _atom_site_symmetry_multiplicity
 _atom_site_fract_x
 _atom_site_fract_y
 _atom_site_fract_z
 _atom_site_occupancy
  Zn  Zn0  1  0.99253200  0.49848500  0.77680800  1
  Zn  Zn1  1  0.49253200  0.50151500  0.72319200  1
  Zn  Zn2  1  0.00746800  0.50151500  0.22319200  1
  Zn  Zn3  1  0.50746800  0.49848500  0.27680800  1
  Bi  Bi0  1  0.75778900  0.09053600  0.60840600  1
  Bi  Bi1  1  0.25778900  0.90946400  0.89159400  1
  Bi  Bi2  1  0.24221100  0.90946400  0.39159400  1
  Bi  Bi3  1  0.74221100  0.09053600  0.10840600  1
  F  F0  1  0.89157300  0.39423200  0.61074800  1
  F  F1  1  0.39157300  0.60576800  0.88925200  1
  F  F2  1  0.10842700  0.60576800  0.38925200  1
  F  F3  1  0.60842700  0.39423200  0.11074800  1
  F  F4  1  0.60318700  0.36345300  0.48903400  1
  F  F5  1  0.10318700  0.63654700  0.01096600  1
  F  F6  1  0.39681300  0.63654700  0.51096600  1
  F  F7  1  0.89681300  0.36345300  0.98903400  1
  F  F8  1  0.42574700  0.16234400  0.79239400  1
  F  F9  1  0.92574700  0.83765600  0.70760600  1
  F  F10  1  0.57425300  0.83765600  0.20760600  1
  F  F11  1  0.07425300  0.16234400  0.29239400  1
  F  F12  1  0.12750800  0.26189400  0.81906800  1
  F  F13  1  0.62750800  0.73810600  0.68093200  1
  F  F14  1  0.87249200  0.73810600  0.18093200  1
  F  F15  1  0.37249200  0.26189400  0.31906800  1
  F  F16  1  0.68769500  0.17696700  0.83540900  1
  F  F17  1  0.18769500  0.82303300  0.66459100  1
  F  F18  1  0.31230500  0.82303300  0.16459100  1
  F  F19  1  0.81230500  0.17696700  0.33540900  1
loop_
_geom_bond_atom_site_label_1
_geom_bond_atom_site_label_2
_geom_bond_distance
_geom_bond_site_symmetry_2
Bi0 F0 2.227279 1_555
Bi0 F4 2.266531 1_555
Bi0 F16 2.281011 1_555
Bi0 F9 2.283718 1_545
Bi0 F19 2.312625 1_555
Bi0 F13 2.329574 1_545
Bi1 F1 2.227279 1_555
Bi1 F5 2.266531 1_556
Bi1 F17 2.281011 1_555
Bi1 F8 2.283718 1_565
Bi1 F18 2.312625 1_556
Bi1 F12 2.329574 1_565
Bi2 F2 2.227279 1_555
Bi2 F6 2.266531 1_555
Bi2 F18 2.281011 1_555
Bi2 F11 2.283718 1_565
Bi2 F17 2.312625 1_555
Bi2 F15 2.329574 1_565
Bi3 F3 2.227279 1_555
Bi3 F7 2.266531 1_554
Bi3 F19 2.281011 1_555
Bi3 F10 2.283718 1_545
Bi3 F16 2.312625 1_554
Bi3 F14 2.329574 1_545
F0 Zn0 2.021034 1_555
F1 Zn1 2.021034 1_555
F2 Zn2 2.021034 1_555
F3 Zn3 2.021034 1_555
F4 Zn3 2.017808 1_555
F5 Zn2 2.017808 1_555
F6 Zn1 2.017808 1_555
F7 Zn0 2.017808 1_555
F8 Zn1 1.928425 1_555
F9 Zn0 1.928425 1_555
F10 Zn3 1.928425 1_555
F11 Zn2 1.928425 1_555
F12 Zn0 1.917439 1_455
F13 Zn1 1.917439 1_555
F14 Zn2 1.917439 1_655
F15 Zn3 1.917439 1_555
