# generated using pymatgen
data_Tl5(C2O3)2
_symmetry_space_group_name_H-M   'P 1'
_cell_length_a   9.62589162
_cell_length_b   9.62589162
_cell_length_c   12.77386900
_cell_angle_alpha   90.00000000
_cell_angle_beta   90.00000000
_cell_angle_gamma   103.96616597
_symmetry_Int_Tables_number   1
_chemical_formula_structural   Tl5(C2O3)2
_chemical_formula_sum   'Tl20 C16 O24'
_cell_volume   1148.60941988
_cell_formula_units_Z   4
loop_
 _symmetry_equiv_pos_site_id
 _symmetry_equiv_pos_as_xyz
  1  'x, y, z'
loop_
 _atom_site_type_symbol
 _atom_site_label
 _atom_site_symmetry_multiplicity
 _atom_site_fract_x
 _atom_site_fract_y
 _atom_site_fract_z
 _atom_site_occupancy
  Tl  Tl0  1  0.23955800  0.23955800  0.29182400  1
  Tl  Tl1  1  0.76044200  0.76044200  0.70817600  1
  Tl  Tl2  1  0.26044200  0.26044200  0.79182400  1
  Tl  Tl3  1  0.73955800  0.73955800  0.20817600  1
  Tl  Tl4  1  0.18413400  0.50021900  0.03245600  1
  Tl  Tl5  1  0.81586600  0.49978100  0.96754400  1
  Tl  Tl6  1  0.31586600  0.99978100  0.53245600  1
  Tl  Tl7  1  0.00021900  0.68413400  0.46754400  1
  Tl  Tl8  1  0.68413400  0.00021900  0.46754400  1
  Tl  Tl9  1  0.99978100  0.31586600  0.53245600  1
  Tl  Tl10  1  0.49978100  0.81586600  0.96754400  1
  Tl  Tl11  1  0.50021900  0.18413400  0.03245600  1
  Tl  Tl12  1  0.86279600  0.17452500  0.15840900  1
  Tl  Tl13  1  0.13720400  0.82547500  0.84159100  1
  Tl  Tl14  1  0.63720400  0.32547500  0.65840900  1
  Tl  Tl15  1  0.67452500  0.36279600  0.34159100  1
  Tl  Tl16  1  0.36279600  0.67452500  0.34159100  1
  Tl  Tl17  1  0.32547500  0.63720400  0.65840900  1
  Tl  Tl18  1  0.82547500  0.13720400  0.84159100  1
  Tl  Tl19  1  0.17452500  0.86279600  0.15840900  1
  C  C0  1  0.13536100  0.13536100  0.02706600  1
  C  C1  1  0.86463900  0.86463900  0.97293400  1
  C  C2  1  0.36463900  0.36463900  0.52706600  1
  C  C3  1  0.63536100  0.63536100  0.47293400  1
  C  C4  1  0.02823900  0.45986200  0.22120900  1
  C  C5  1  0.97176100  0.54013800  0.77879100  1
  C  C6  1  0.47176100  0.04013800  0.72120900  1
  C  C7  1  0.95986200  0.52823900  0.27879100  1
  C  C8  1  0.52823900  0.95986200  0.27879100  1
  C  C9  1  0.04013800  0.47176100  0.72120900  1
  C  C10  1  0.54013800  0.97176100  0.77879100  1
  C  C11  1  0.45986200  0.02823900  0.22120900  1
  C  C12  1  0.48660500  0.48660500  0.12988900  1
  C  C13  1  0.51339500  0.51339500  0.87011100  1
  C  C14  1  0.01339500  0.01339500  0.62988900  1
  C  C15  1  0.98660500  0.98660500  0.37011100  1
  O  O0  1  0.38609200  0.38609200  0.08770500  1
  O  O1  1  0.61390800  0.61390800  0.91229500  1
  O  O2  1  0.11390800  0.11390800  0.58770500  1
  O  O3  1  0.88609200  0.88609200  0.41229500  1
  O  O4  1  0.08833300  0.08833300  0.11997200  1
  O  O5  1  0.91166700  0.91166700  0.88002800  1
  O  O6  1  0.41166700  0.41166700  0.61997200  1
  O  O7  1  0.58833300  0.58833300  0.38002800  1
  O  O8  1  0.91733300  0.76748300  0.01786500  1
  O  O9  1  0.08266700  0.23251700  0.98213500  1
  O  O10  1  0.58266700  0.73251700  0.51786500  1
  O  O11  1  0.26748300  0.41733300  0.48213500  1
  O  O12  1  0.41733300  0.26748300  0.48213500  1
  O  O13  1  0.73251700  0.58266700  0.51786500  1
  O  O14  1  0.23251700  0.08266700  0.98213500  1
  O  O15  1  0.76748300  0.91733300  0.01786500  1
  O  O16  1  0.96107100  0.11056000  0.34966000  1
  O  O17  1  0.03892900  0.88944000  0.65034000  1
  O  O18  1  0.53892900  0.38944000  0.84966000  1
  O  O19  1  0.61056000  0.46107100  0.15034000  1
  O  O20  1  0.46107100  0.61056000  0.15034000  1
  O  O21  1  0.38944000  0.53892900  0.84966000  1
  O  O22  1  0.88944000  0.03892900  0.65034000  1
  O  O23  1  0.11056000  0.96107100  0.34966000  1
loop_
_geom_bond_atom_site_label_1
_geom_bond_atom_site_label_2
_geom_bond_distance
_geom_bond_site_symmetry_2
C0 O14 1.300111 1_554
C0 O9 1.300111 1_554
C0 O4 1.311241 1_555
C1 O15 1.300111 1_556
C1 O8 1.300111 1_556
C1 O5 1.311241 1_555
C2 O11 1.300111 1_555
C2 O12 1.300111 1_555
C2 O6 1.311241 1_555
C3 O13 1.300111 1_555
C3 O10 1.300111 1_555
C3 O7 1.311241 1_555
C4 C7 1.271442 1_455
C4 Tl4 2.816885 1_555
C4 Tl12 2.934666 1_455
C5 C9 1.271442 1_655
C5 Tl5 2.816885 1_555
C5 Tl13 2.934666 1_655
C6 Tl6 2.816885 1_545
C6 Tl14 2.934666 1_555
C7 Tl7 2.816885 1_655
C7 Tl15 2.934666 1_555
C8 Tl8 2.816885 1_565
C8 Tl16 2.934666 1_555
C9 Tl9 2.816885 1_455
C9 Tl17 2.934666 1_555
C10 C6 1.271442 1_565
C10 Tl10 2.816885 1_555
C10 Tl18 2.934666 1_565
C11 C8 1.271442 1_545
C11 Tl11 2.816885 1_555
C11 Tl19 2.934666 1_545
C12 O20 1.301495 1_555
C12 O19 1.301495 1_555
C12 O0 1.307946 1_555
C13 O21 1.301495 1_555
C13 O18 1.301495 1_555
C13 O1 1.307946 1_555
C14 O17 1.301495 1_545
C14 O22 1.301495 1_455
C14 O2 1.307946 1_555
C15 O23 1.301495 1_655
C15 O16 1.301495 1_565
C15 O3 1.307946 1_555
O0 Tl11 2.552460 1_555
O0 Tl4 2.552460 1_555
O1 Tl10 2.552460 1_555
O1 Tl5 2.552460 1_555
O2 Tl9 2.552460 1_455
O2 Tl6 2.552460 1_545
O3 Tl7 2.552460 1_655
O3 Tl8 2.552460 1_565
O4 Tl12 2.551880 1_455
O4 Tl19 2.551880 1_545
O4 Tl0 2.834452 1_555
O5 Tl18 2.551880 1_565
O5 Tl13 2.551880 1_655
O5 Tl1 2.834452 1_555
O6 Tl17 2.551880 1_555
O6 Tl14 2.551880 1_555
O6 Tl2 2.834452 1_555
O7 Tl16 2.551880 1_555
O7 Tl15 2.551880 1_555
O7 Tl3 2.834452 1_555
O8 Tl5 2.606248 1_554
O9 Tl4 2.606248 1_556
O10 Tl8 2.606248 1_565
O11 Tl9 2.606248 1_455
O12 Tl6 2.606248 1_545
O13 Tl7 2.606248 1_655
O14 Tl11 2.606248 1_556
O15 Tl10 2.606248 1_554
O16 Tl12 2.742895 1_555
O16 Tl0 2.768938 1_655
O17 Tl13 2.742895 1_555
O17 Tl1 2.768938 1_455
O18 Tl14 2.742895 1_555
O18 Tl2 2.768938 1_555
O19 Tl15 2.742895 1_555
O19 Tl3 2.768938 1_555
O20 Tl16 2.742895 1_555
O20 Tl3 2.768938 1_555
O21 Tl17 2.742895 1_555
O21 Tl2 2.768938 1_555
O22 Tl18 2.742895 1_555
O22 Tl1 2.768938 1_545
O23 Tl19 2.742895 1_555
O23 Tl0 2.768938 1_565
