# generated using pymatgen
data_Dy2MgCu2
_symmetry_space_group_name_H-M   'P 1'
_cell_length_a   7.59663692
_cell_length_b   7.59663692
_cell_length_c   3.66583393
_cell_angle_alpha   90.00000000
_cell_angle_beta   90.00000000
_cell_angle_gamma   90.00005943
_symmetry_Int_Tables_number   1
_chemical_formula_structural   Dy2MgCu2
_chemical_formula_sum   'Dy4 Mg2 Cu4'
_cell_volume   211.55121617
_cell_formula_units_Z   2
loop_
 _symmetry_equiv_pos_site_id
 _symmetry_equiv_pos_as_xyz
  1  'x, y, z'
loop_
 _atom_site_type_symbol
 _atom_site_label
 _atom_site_symmetry_multiplicity
 _atom_site_fract_x
 _atom_site_fract_y
 _atom_site_fract_z
 _atom_site_occupancy
  Dy  Dy0  1  0.67009069  0.17009069  0.50000000  1
  Dy  Dy1  1  0.32990931  0.82990931  0.50000000  1
  Dy  Dy2  1  0.17008779  0.32991221  0.50000000  1
  Dy  Dy3  1  0.82991221  0.67008779  0.50000000  1
  Mg  Mg0  1  0.00000000  0.00000000  -0.00000000  1
  Mg  Mg1  1  0.50000000  0.50000000  -0.00000000  1
  Cu  Cu0  1  0.12277012  0.62277012  -0.00000000  1
  Cu  Cu1  1  0.87722988  0.37722988  0.00000000  1
  Cu  Cu2  1  0.62277025  0.87722975  -0.00000000  1
  Cu  Cu3  1  0.37722975  0.12277025  -0.00000000  1
loop_
_geom_bond_atom_site_label_1
_geom_bond_atom_site_label_2
_geom_bond_distance
_geom_bond_site_symmetry_2
Cu0 Cu1 2.637903 1_455
Cu0 Dy1 2.883014 1_555
Cu0 Dy1 2.883014 1_554
Cu0 Dy3 2.904865 1_454
Cu0 Dy2 2.904865 1_555
Cu0 Dy3 2.904865 1_455
Cu0 Dy2 2.904865 1_554
Cu0 Mg0 3.013625 1_565
Cu0 Mg1 3.013625 1_555
Cu1 Dy0 2.883014 1_554
Cu1 Dy0 2.883014 1_555
Cu1 Dy3 2.904865 1_555
Cu1 Dy3 2.904865 1_554
Cu1 Dy2 2.904865 1_655
Cu1 Dy2 2.904865 1_654
Cu1 Mg0 3.013625 1_655
Cu1 Mg1 3.013625 1_555
Cu2 Cu3 2.637909 1_565
Cu2 Dy3 2.883039 1_555
Cu2 Dy3 2.883039 1_554
Cu2 Dy0 2.904885 1_564
Cu2 Dy0 2.904885 1_565
Cu2 Dy1 2.904885 1_554
Cu2 Dy1 2.904885 1_555
Cu2 Mg1 3.013623 1_555
Cu2 Mg0 3.013623 1_665
Cu3 Dy2 2.883039 1_554
Cu3 Dy2 2.883039 1_555
Cu3 Dy0 2.904885 1_555
Cu3 Dy1 2.904885 1_544
Cu3 Dy1 2.904885 1_545
Cu3 Dy0 2.904885 1_554
Cu3 Mg0 3.013623 1_555
Cu3 Mg1 3.013623 1_555
