# generated using pymatgen
data_Sc5Ga3
_symmetry_space_group_name_H-M   'P 1'
_cell_length_a   8.06243527
_cell_length_b   8.06243527
_cell_length_c   5.96064848
_cell_angle_alpha   89.21861892
_cell_angle_beta   89.21861892
_cell_angle_gamma   119.97389151
_symmetry_Int_Tables_number   1
_chemical_formula_structural   Sc5Ga3
_chemical_formula_sum   'Sc10 Ga6'
_cell_volume   335.51300051
_cell_formula_units_Z   2
loop_
 _symmetry_equiv_pos_site_id
 _symmetry_equiv_pos_as_xyz
  1  'x, y, z'
loop_
 _atom_site_type_symbol
 _atom_site_label
 _atom_site_symmetry_multiplicity
 _atom_site_fract_x
 _atom_site_fract_y
 _atom_site_fract_z
 _atom_site_occupancy
  Sc  Sc0  1  0.81769226  0.18230774  0.50000000  1
  Sc  Sc1  1  0.18230774  0.81769226  0.50000000  1
  Sc  Sc2  1  0.25652134  0.49712569  0.24257936  1
  Sc  Sc3  1  0.49712569  0.25652134  0.24257936  1
  Sc  Sc4  1  0.74347866  0.50287431  0.75742064  1
  Sc  Sc5  1  0.50287431  0.74347866  0.75742064  1
  Sc  Sc6  1  0.26642657  0.26642657  0.73812232  1
  Sc  Sc7  1  0.73357343  0.73357343  0.26187768  1
  Sc  Sc8  1  0.84984424  0.15015576  -0.00000000  1
  Sc  Sc9  1  0.15015576  0.84984424  -0.00000000  1
  Ga  Ga0  1  0.09461948  0.09461948  0.30468397  1
  Ga  Ga1  1  0.90538052  0.90538052  0.69531603  1
  Ga  Ga2  1  0.90155736  0.49906113  0.21646574  1
  Ga  Ga3  1  0.49906113  0.90155736  0.21646574  1
  Ga  Ga4  1  0.09844264  0.50093887  0.78353426  1
  Ga  Ga5  1  0.50093887  0.09844264  0.78353426  1
loop_
_geom_bond_atom_site_label_1
_geom_bond_atom_site_label_2
_geom_bond_distance
_geom_bond_site_symmetry_2
Ga0 Sc2 2.844906 1_555
Ga0 Sc3 2.844906 1_555
Ga0 Sc8 2.889969 1_455
Ga0 Sc9 2.889969 1_545
Ga0 Sc0 2.892919 1_455
Ga0 Sc1 2.892919 1_545
Ga0 Sc7 2.930138 1_445
Ga0 Sc6 2.964847 1_555
Ga1 Sc5 2.844906 1_555
Ga1 Sc4 2.844906 1_555
Ga1 Sc9 2.889969 1_656
Ga1 Sc8 2.889969 1_566
Ga1 Sc1 2.892919 1_655
Ga1 Sc0 2.892919 1_565
Ga1 Sc6 2.930138 1_665
Ga1 Sc7 2.964847 1_555
Ga2 Sc9 2.801157 1_655
Ga2 Sc0 2.821537 1_555
Ga2 Sc7 2.836395 1_555
Ga2 Sc3 2.843757 1_555
Ga2 Sc2 2.876022 1_655
Ga2 Sc8 2.948477 1_555
Ga2 Sc1 2.998627 1_655
Ga2 Ga4 3.007064 1_654
Ga2 Sc4 3.040410 1_554
Ga2 Sc4 3.457179 1_555
Ga3 Sc8 2.801157 1_565
Ga3 Sc1 2.821537 1_555
Ga3 Sc7 2.836395 1_555
Ga3 Sc2 2.843757 1_555
Ga3 Sc3 2.876022 1_565
Ga3 Sc9 2.948477 1_555
Ga3 Sc0 2.998627 1_565
Ga3 Ga5 3.007064 1_564
Ga3 Sc5 3.040410 1_554
Ga3 Sc5 3.457179 1_555
Ga4 Sc8 2.801157 1_456
Ga4 Sc1 2.821537 1_555
Ga4 Sc6 2.836395 1_555
Ga4 Sc5 2.843757 1_555
Ga4 Sc4 2.876022 1_455
Ga4 Sc9 2.948477 1_556
Ga4 Sc0 2.998627 1_455
Ga4 Sc2 3.040410 1_556
Ga4 Sc2 3.457179 1_555
Ga5 Sc9 2.801157 1_546
Ga5 Sc0 2.821537 1_555
Ga5 Sc6 2.836395 1_555
Ga5 Sc4 2.843757 1_555
Ga5 Sc5 2.876022 1_545
Ga5 Sc8 2.948477 1_556
Ga5 Sc1 2.998627 1_545
Ga5 Sc3 3.040410 1_556
Ga5 Sc3 3.457179 1_555
