# generated using pymatgen
data_Rb3Au3I8
_symmetry_space_group_name_H-M   'P 1'
_cell_length_a   8.09441362
_cell_length_b   8.09441362
_cell_length_c   20.73222800
_cell_angle_alpha   84.28014178
_cell_angle_beta   84.28014178
_cell_angle_gamma   65.21071175
_symmetry_Int_Tables_number   1
_chemical_formula_structural   Rb3Au3I8
_chemical_formula_sum   'Rb6 Au6 I16'
_cell_volume   1224.53931429
_cell_formula_units_Z   2
loop_
 _symmetry_equiv_pos_site_id
 _symmetry_equiv_pos_as_xyz
  1  'x, y, z'
loop_
 _atom_site_type_symbol
 _atom_site_label
 _atom_site_symmetry_multiplicity
 _atom_site_fract_x
 _atom_site_fract_y
 _atom_site_fract_z
 _atom_site_occupancy
  Rb  Rb0  1  0.32312200  0.31360900  0.58503600  1
  Rb  Rb1  1  0.67687800  0.68639100  0.41496400  1
  Rb  Rb2  1  0.68639100  0.67687800  0.91496400  1
  Rb  Rb3  1  0.31360900  0.32312200  0.08503600  1
  Rb  Rb4  1  0.01558800  0.98441200  0.75000000  1
  Rb  Rb5  1  0.98441200  0.01558800  0.25000000  1
  Au  Au0  1  0.00000000  0.00000000  0.00000000  1
  Au  Au1  1  0.00000000  0.00000000  0.50000000  1
  Au  Au2  1  0.38431800  0.38008200  0.81071400  1
  Au  Au3  1  0.61568200  0.61991800  0.18928600  1
  Au  Au4  1  0.61991800  0.61568200  0.68928600  1
  Au  Au5  1  0.38008200  0.38431800  0.31071400  1
  I  I0  1  0.67323300  0.24389300  0.87667100  1
  I  I1  1  0.32676700  0.75610700  0.12332900  1
  I  I2  1  0.75610700  0.32676700  0.62332900  1
  I  I3  1  0.24389300  0.67323300  0.37667100  1
  I  I4  1  0.50105800  0.90439000  0.75507500  1
  I  I5  1  0.49894200  0.09561000  0.24492500  1
  I  I6  1  0.09561000  0.49894200  0.74492500  1
  I  I7  1  0.90439000  0.50105800  0.25507500  1
  I  I8  1  0.21234800  0.15237900  0.93472400  1
  I  I9  1  0.78765200  0.84762100  0.06527600  1
  I  I10  1  0.84762100  0.78765200  0.56527600  1
  I  I11  1  0.15237900  0.21234800  0.43472400  1
  I  I12  1  0.29283500  0.84095800  0.57286000  1
  I  I13  1  0.70716500  0.15904200  0.42714000  1
  I  I14  1  0.15904200  0.70716500  0.92714000  1
  I  I15  1  0.84095800  0.29283500  0.07286000  1
loop_
_geom_bond_atom_site_label_1
_geom_bond_atom_site_label_2
_geom_bond_distance
_geom_bond_site_symmetry_2
Au0 I8 2.699737 1_554
Au0 I9 2.699737 1_445
Au0 I15 2.706425 1_455
Au0 I14 2.706425 1_544
Au1 I11 2.699737 1_555
Au1 I10 2.699737 1_445
Au1 I12 2.706425 1_545
Au1 I13 2.706425 1_455
Au2 I0 2.594085 1_555
Au2 I6 2.595303 1_555
Au3 I1 2.594085 1_555
Au3 I7 2.595303 1_555
Au4 I2 2.594085 1_555
Au4 I4 2.595303 1_555
Au5 I3 2.594085 1_555
Au5 I5 2.595303 1_555
I0 Rb4 3.708860 1_645
I0 Rb2 3.716107 1_555
I1 Rb5 3.708860 1_465
I1 Rb3 3.716107 1_555
I2 Rb4 3.708860 1_645
I2 Rb0 3.716107 1_555
I3 Rb5 3.708860 1_465
I3 Rb1 3.716107 1_555
I4 Rb4 3.715744 1_555
I4 Rb2 3.753384 1_555
I5 Rb5 3.715744 1_555
I5 Rb3 3.753384 1_555
I6 Rb4 3.715744 1_555
I6 Rb0 3.753384 1_555
I7 Rb5 3.715744 1_555
I7 Rb1 3.753384 1_555
I8 Rb3 3.822413 1_556
I8 Rb2 4.161938 1_545
I9 Rb2 3.822413 1_554
I9 Rb3 4.161938 1_565
I10 Rb1 3.822413 1_555
I10 Rb0 4.161938 1_655
I11 Rb0 3.822413 1_555
I11 Rb1 4.161938 1_455
I12 Rb0 3.968901 1_565
I12 Rb4 4.110219 1_555
I12 Rb0 4.155073 1_555
I12 Rb1 4.179875 1_555
I13 Rb1 3.968901 1_545
I13 Rb5 4.110219 1_555
I13 Rb1 4.155073 1_555
I13 Rb0 4.179875 1_555
I14 Rb2 3.968901 1_455
I14 Rb4 4.110219 1_555
I14 Rb2 4.155073 1_555
I14 Rb3 4.179875 1_556
I15 Rb3 3.968901 1_655
I15 Rb5 4.110219 1_555
I15 Rb3 4.155073 1_555
I15 Rb2 4.179875 1_554
