# generated using pymatgen
data_Dy(Al5Fe)2
_symmetry_space_group_name_H-M   'P 1'
_cell_length_a   6.70331532
_cell_length_b   6.70331532
_cell_length_c   8.87948715
_cell_angle_alpha   90.00000000
_cell_angle_beta   90.00000000
_cell_angle_gamma   97.41379474
_symmetry_Int_Tables_number   1
_chemical_formula_structural   Dy(Al5Fe)2
_chemical_formula_sum   'Dy2 Al20 Fe4'
_cell_volume   395.65920270
_cell_formula_units_Z   2
loop_
 _symmetry_equiv_pos_site_id
 _symmetry_equiv_pos_as_xyz
  1  'x, y, z'
loop_
 _atom_site_type_symbol
 _atom_site_label
 _atom_site_symmetry_multiplicity
 _atom_site_fract_x
 _atom_site_fract_y
 _atom_site_fract_z
 _atom_site_occupancy
  Dy  Dy0  1  0.87466905  0.12533095  0.75000000  1
  Dy  Dy1  1  0.12533095  0.87466905  0.25000000  1
  Al  Al0  1  0.62541279  0.37458721  0.54920875  1
  Al  Al1  1  0.37458721  0.62541279  0.45079125  1
  Al  Al2  1  0.37458721  0.62541279  0.04920875  1
  Al  Al3  1  0.62541279  0.37458721  0.95079125  1
  Al  Al4  1  0.22807919  0.22807919  0.50000000  1
  Al  Al5  1  0.77192081  0.77192081  0.50000000  1
  Al  Al6  1  0.77192081  0.77192081  -0.00000000  1
  Al  Al7  1  0.22807919  0.22807919  -0.00000000  1
  Al  Al8  1  0.84095176  0.15904824  0.09713169  1
  Al  Al9  1  0.15904824  0.84095176  0.90286831  1
  Al  Al10  1  0.15904824  0.84095176  0.59713169  1
  Al  Al11  1  0.84095176  0.15904824  0.40286831  1
  Al  Al12  1  0.86620857  0.58662900  0.75000000  1
  Al  Al13  1  0.13379143  0.41337100  0.25000000  1
  Al  Al14  1  0.41337100  0.13379143  0.75000000  1
  Al  Al15  1  0.58662900  0.86620857  0.25000000  1
  Al  Al16  1  0.21895396  0.47905613  0.75000000  1
  Al  Al17  1  0.78104604  0.52094387  0.25000000  1
  Al  Al18  1  0.52094387  0.78104604  0.75000000  1
  Al  Al19  1  0.47905613  0.21895396  0.25000000  1
  Fe  Fe0  1  -0.00000000  0.50000000  0.50000000  1
  Fe  Fe1  1  -0.00000000  0.50000000  -0.00000000  1
  Fe  Fe2  1  0.50000000  0.00000000  -0.00000000  1
  Fe  Fe3  1  0.50000000  0.00000000  0.50000000  1
loop_
_geom_bond_atom_site_label_1
_geom_bond_atom_site_label_2
_geom_bond_distance
_geom_bond_site_symmetry_2
Dy0 Fe1 3.375927 1_656
Dy0 Fe0 3.375927 1_655
Dy0 Fe2 3.375927 1_556
Dy0 Fe3 3.375927 1_555
Dy1 Fe1 3.375927 1_555
Dy1 Fe2 3.375927 1_565
Dy1 Fe3 3.375927 1_565
Dy1 Fe0 3.375927 1_555
Al0 Al11 2.530273 1_555
Al0 Fe0 2.580292 1_655
Al0 Fe3 2.580292 1_555
Al0 Al1 2.673427 1_555
Al0 Al12 2.685605 1_555
Al0 Al14 2.685605 1_555
Al0 Al5 2.752155 1_555
Al0 Al4 2.752155 1_555
Al0 Al17 2.974131 1_555
Al0 Al19 2.974131 1_555
Al0 Dy0 3.079400 1_555
Al1 Al10 2.530273 1_555
Al1 Fe0 2.580292 1_555
Al1 Fe3 2.580292 1_565
Al1 Al15 2.685605 1_555
Al1 Al13 2.685605 1_555
Al1 Al5 2.752155 1_555
Al1 Al4 2.752155 1_555
Al1 Al16 2.974131 1_555
Al1 Al18 2.974131 1_555
Al1 Dy1 3.079400 1_555
Al2 Al9 2.530273 1_554
Al2 Fe2 2.580292 1_565
Al2 Fe1 2.580292 1_555
Al2 Al3 2.673427 1_554
Al2 Al6 2.752155 1_555
Al2 Al7 2.752155 1_555
Al2 Dy1 3.079400 1_555
Al3 Al8 2.530273 1_556
Al3 Fe1 2.580292 1_656
Al3 Fe2 2.580292 1_556
Al3 Al6 2.752155 1_556
Al3 Al7 2.752155 1_556
Al3 Dy0 3.079400 1_555
Al4 Fe0 2.525703 1_555
Al4 Fe3 2.525703 1_555
Al4 Dy0 3.254748 1_455
Al4 Dy1 3.254748 1_545
Al5 Fe3 2.525703 1_565
Al5 Fe0 2.525703 1_655
Al5 Dy1 3.254748 1_655
Al5 Dy0 3.254748 1_565
Al6 Fe2 2.525703 1_565
Al6 Fe1 2.525703 1_655
Al6 Al9 2.717043 1_654
Al6 Al8 2.717043 1_565
Al6 Dy0 3.254748 1_564
Al6 Dy1 3.254748 1_655
Al7 Fe1 2.525703 1_555
Al7 Fe2 2.525703 1_555
Al7 Al9 2.717043 1_544
Al7 Al8 2.717043 1_455
Al7 Dy0 3.254748 1_454
Al7 Dy1 3.254748 1_545
Al8 Fe1 2.544652 1_655
Al8 Fe2 2.544652 1_555
Al8 Dy0 3.101006 1_554
Al8 Dy1 3.169881 1_645
Al9 Fe2 2.544652 1_566
Al9 Fe1 2.544652 1_556
Al9 Dy1 3.101006 1_556
Al9 Dy0 3.169881 1_465
Al10 Fe3 2.544652 1_565
Al10 Fe0 2.544652 1_555
Al10 Al9 2.714784 1_555
Al10 Al5 2.717043 1_455
Al10 Al4 2.717043 1_565
Al10 Al12 2.781834 1_455
Al10 Al14 2.781834 1_565
Al10 Al18 2.853097 1_555
Al10 Al16 2.853097 1_555
Al10 Dy1 3.101006 1_555
Al10 Dy0 3.169881 1_465
Al11 Fe0 2.544652 1_655
Al11 Fe3 2.544652 1_555
Al11 Al8 2.714784 1_555
Al11 Al5 2.717043 1_545
Al11 Al4 2.717043 1_655
Al11 Al15 2.781834 1_545
Al11 Al13 2.781834 1_655
Al11 Al19 2.853097 1_555
Al11 Al17 2.853097 1_555
Al11 Dy0 3.101006 1_555
Al11 Dy1 3.169881 1_645
Al12 Fe1 2.490739 1_656
Al12 Fe0 2.490739 1_655
Al12 Al16 2.559524 1_655
Al12 Al6 2.659443 1_556
Al12 Al5 2.659443 1_555
Al12 Al3 2.685605 1_555
Al12 Al9 2.781834 1_655
Al12 Al18 2.798814 1_555
Al12 Dy0 3.100054 1_555
Al12 Dy0 3.604210 1_565
Al13 Fe0 2.490739 1_555
Al13 Fe1 2.490739 1_555
Al13 Al17 2.559524 1_455
Al13 Al7 2.659443 1_555
Al13 Al4 2.659443 1_555
Al13 Al2 2.685605 1_555
Al13 Al8 2.781834 1_455
Al13 Al19 2.798814 1_555
Al13 Dy1 3.100054 1_555
Al13 Dy1 3.604210 1_545
Al14 Fe2 2.490739 1_556
Al14 Fe3 2.490739 1_555
Al14 Al18 2.559524 1_545
Al14 Al7 2.659443 1_556
Al14 Al4 2.659443 1_555
Al14 Al3 2.685605 1_555
Al14 Al9 2.781834 1_545
Al14 Al16 2.798814 1_555
Al14 Dy0 3.100054 1_555
Al14 Dy0 3.604210 1_455
Al15 Fe3 2.490739 1_565
Al15 Fe2 2.490739 1_565
Al15 Al19 2.559524 1_565
Al15 Al6 2.659443 1_555
Al15 Al5 2.659443 1_555
Al15 Al2 2.685605 1_555
Al15 Al8 2.781834 1_565
Al15 Al17 2.798814 1_555
Al15 Dy1 3.100054 1_555
Al15 Dy1 3.604210 1_655
Al16 Al18 2.671761 1_555
Al16 Fe0 2.674867 1_555
Al16 Fe1 2.674867 1_556
Al16 Al7 2.790793 1_556
Al16 Al4 2.790793 1_555
Al16 Al9 2.853097 1_555
Al16 Al2 2.974131 1_556
Al16 Dy0 3.088079 1_455
Al17 Al19 2.671761 1_555
Al17 Fe0 2.674867 1_655
Al17 Fe1 2.674867 1_655
Al17 Al5 2.790793 1_555
Al17 Al6 2.790793 1_555
Al17 Al8 2.853097 1_555
Al17 Al3 2.974131 1_554
Al17 Dy1 3.088079 1_655
Al18 Fe3 2.674867 1_565
Al18 Fe2 2.674867 1_566
Al18 Al5 2.790793 1_555
Al18 Al6 2.790793 1_556
Al18 Al9 2.853097 1_555
Al18 Al2 2.974131 1_556
Al18 Dy0 3.088079 1_565
Al19 Fe3 2.674867 1_555
Al19 Fe2 2.674867 1_555
Al19 Al7 2.790793 1_555
Al19 Al4 2.790793 1_555
Al19 Al8 2.853097 1_555
Al19 Al3 2.974131 1_554
Al19 Dy1 3.088079 1_545
