# generated using pymatgen
data_TcMo
_symmetry_space_group_name_H-M   'P 1'
_cell_length_a   5.44748782
_cell_length_b   5.44748782
_cell_length_c   8.84498200
_cell_angle_alpha   90.00000000
_cell_angle_beta   90.00000000
_cell_angle_gamma   110.67779676
_symmetry_Int_Tables_number   1
_chemical_formula_structural   TcMo
_chemical_formula_sum   'Tc8 Mo8'
_cell_volume   245.56748061
_cell_formula_units_Z   8
loop_
 _symmetry_equiv_pos_site_id
 _symmetry_equiv_pos_as_xyz
  1  'x, y, z'
loop_
 _atom_site_type_symbol
 _atom_site_label
 _atom_site_symmetry_multiplicity
 _atom_site_fract_x
 _atom_site_fract_y
 _atom_site_fract_z
 _atom_site_occupancy
  Tc  Tc0_0  1  0.25000000  0.25000000  0.25000000  1
  Tc  Tc0_1  1  0.25000000  0.25000000  0.75000000  1
  Tc  Tc0_2  1  0.25000000  0.75000000  0.25000000  1
  Tc  Tc0_3  1  0.25000000  0.75000000  0.75000000  1
  Tc  Tc0_4  1  0.75000000  0.25000000  0.25000000  1
  Tc  Tc0_5  1  0.75000000  0.25000000  0.75000000  1
  Tc  Tc0_6  1  0.75000000  0.75000000  0.25000000  1
  Tc  Tc0_7  1  0.75000000  0.75000000  0.75000000  1
  Mo  Mo0_0  1  0.00000000  0.00000000  0.00000000  1
  Mo  Mo0_1  1  0.00000000  0.00000000  0.50000000  1
  Mo  Mo0_2  1  0.00000000  0.50000000  0.00000000  1
  Mo  Mo0_3  1  0.00000000  0.50000000  0.50000000  1
  Mo  Mo0_4  1  0.50000000  0.00000000  0.00000000  1
  Mo  Mo0_5  1  0.50000000  0.00000000  0.50000000  1
  Mo  Mo0_6  1  0.50000000  0.50000000  0.00000000  1
  Mo  Mo0_7  1  0.50000000  0.50000000  0.50000000  1
loop_
_geom_bond_atom_site_label_1
_geom_bond_atom_site_label_2
_geom_bond_distance
_geom_bond_site_symmetry_2
Tc0_0 Tc0_2 2.723744 1_555
Tc0_0 Tc0_2 2.723744 1_545
Tc0_0 Tc0_4 2.723744 1_455
Tc0_0 Tc0_4 2.723744 1_555
Tc0_1 Tc0_3 2.723744 1_555
Tc0_1 Tc0_3 2.723744 1_545
Tc0_1 Tc0_5 2.723744 1_455
Tc0_1 Tc0_5 2.723744 1_555
Tc0_2 Tc0_6 2.723744 1_555
Tc0_2 Tc0_6 2.723744 1_455
Tc0_3 Tc0_7 2.723744 1_555
Tc0_3 Tc0_7 2.723744 1_455
Tc0_4 Tc0_6 2.723744 1_555
Tc0_4 Tc0_6 2.723744 1_545
Tc0_5 Tc0_7 2.723744 1_555
Tc0_5 Tc0_7 2.723744 1_545
Mo0_0 Tc0_0 2.699845 1_555
Mo0_0 Tc0_6 2.699845 1_445
Mo0_0 Tc0_1 2.699845 1_554
Mo0_0 Tc0_7 2.699845 1_444
Mo0_0 Mo0_4 2.723744 1_555
Mo0_0 Mo0_4 2.723744 1_455
Mo0_0 Mo0_2 2.723744 1_545
Mo0_0 Mo0_2 2.723744 1_555
Mo0_1 Tc0_1 2.699845 1_555
Mo0_1 Tc0_7 2.699845 1_445
Mo0_1 Tc0_0 2.699845 1_555
Mo0_1 Tc0_6 2.699845 1_445
Mo0_1 Mo0_3 2.723744 1_555
Mo0_1 Mo0_5 2.723744 1_455
Mo0_1 Mo0_5 2.723744 1_555
Mo0_1 Mo0_3 2.723744 1_545
Mo0_2 Tc0_2 2.699845 1_555
Mo0_2 Tc0_4 2.699845 1_455
Mo0_2 Tc0_5 2.699845 1_454
Mo0_2 Tc0_3 2.699845 1_554
Mo0_2 Mo0_6 2.723744 1_555
Mo0_2 Mo0_6 2.723744 1_455
Mo0_3 Tc0_3 2.699845 1_555
Mo0_3 Tc0_5 2.699845 1_455
Mo0_3 Tc0_2 2.699845 1_555
Mo0_3 Tc0_4 2.699845 1_455
Mo0_3 Mo0_7 2.723744 1_555
Mo0_3 Mo0_7 2.723744 1_455
Mo0_4 Tc0_2 2.699845 1_545
Mo0_4 Tc0_4 2.699845 1_555
Mo0_4 Tc0_5 2.699845 1_554
Mo0_4 Tc0_3 2.699845 1_544
Mo0_4 Mo0_6 2.723744 1_555
Mo0_4 Mo0_6 2.723744 1_545
Mo0_5 Tc0_3 2.699845 1_545
Mo0_5 Tc0_5 2.699845 1_555
Mo0_5 Tc0_2 2.699845 1_545
Mo0_5 Tc0_4 2.699845 1_555
Mo0_5 Mo0_7 2.723744 1_545
Mo0_5 Mo0_7 2.723744 1_555
Mo0_6 Tc0_6 2.699845 1_555
Mo0_6 Tc0_0 2.699845 1_555
Mo0_6 Tc0_1 2.699845 1_554
Mo0_6 Tc0_7 2.699845 1_554
Mo0_7 Tc0_7 2.699845 1_555
Mo0_7 Tc0_1 2.699845 1_555
Mo0_7 Tc0_6 2.699845 1_555
Mo0_7 Tc0_0 2.699845 1_555
