# generated using pymatgen
data_Dy2SiPd2
_symmetry_space_group_name_H-M   'P 1'
_cell_length_a   4.15034300
_cell_length_b   7.51805200
_cell_length_c   13.92982000
_cell_angle_alpha   90.00000000
_cell_angle_beta   90.00000000
_cell_angle_gamma   90.00000000
_symmetry_Int_Tables_number   1
_chemical_formula_structural   Dy2SiPd2
_chemical_formula_sum   'Dy8 Si4 Pd8'
_cell_volume   434.64513182
_cell_formula_units_Z   4
loop_
 _symmetry_equiv_pos_site_id
 _symmetry_equiv_pos_as_xyz
  1  'x, y, z'
loop_
 _atom_site_type_symbol
 _atom_site_label
 _atom_site_symmetry_multiplicity
 _atom_site_fract_x
 _atom_site_fract_y
 _atom_site_fract_z
 _atom_site_occupancy
  Dy  Dy0  1  0.50000000  0.03514200  0.37447000  1
  Dy  Dy1  1  0.50000000  0.96485800  0.62553000  1
  Dy  Dy2  1  0.00000000  0.53514200  0.12553000  1
  Dy  Dy3  1  0.00000000  0.46485800  0.87447000  1
  Dy  Dy4  1  0.50000000  0.95189000  0.13094400  1
  Dy  Dy5  1  0.50000000  0.04811000  0.86905600  1
  Dy  Dy6  1  0.00000000  0.45189000  0.36905600  1
  Dy  Dy7  1  0.00000000  0.54811000  0.63094400  1
  Si  Si0  1  0.50000000  0.65361900  0.47109000  1
  Si  Si1  1  0.50000000  0.34638100  0.52891000  1
  Si  Si2  1  0.00000000  0.15361900  0.02891000  1
  Si  Si3  1  0.00000000  0.84638100  0.97109000  1
  Pd  Pd0  1  0.50000000  0.67120700  0.28109700  1
  Pd  Pd1  1  0.50000000  0.32879300  0.71890300  1
  Pd  Pd2  1  0.00000000  0.17120700  0.21890300  1
  Pd  Pd3  1  0.00000000  0.82879300  0.78109700  1
  Pd  Pd4  1  0.50000000  0.67950400  0.98621400  1
  Pd  Pd5  1  0.50000000  0.32049600  0.01378600  1
  Pd  Pd6  1  0.00000000  0.17950400  0.51378600  1
  Pd  Pd7  1  0.00000000  0.82049600  0.48621400  1
loop_
_geom_bond_atom_site_label_1
_geom_bond_atom_site_label_2
_geom_bond_distance
_geom_bond_site_symmetry_2
Dy0 Pd0 3.029503 1_545
Dy0 Pd6 3.041442 1_555
Dy0 Pd6 3.041442 1_655
Dy0 Pd7 3.055053 1_645
Dy0 Pd7 3.055053 1_545
Dy0 Si0 3.168382 1_545
Dy0 Pd2 3.169973 1_655
Dy0 Pd2 3.169973 1_555
Dy0 Si1 3.178579 1_555
Dy1 Pd1 3.029503 1_565
Dy1 Pd7 3.041442 1_655
Dy1 Pd7 3.041442 1_555
Dy1 Pd6 3.055053 1_565
Dy1 Pd6 3.055053 1_665
Dy1 Si1 3.168382 1_565
Dy1 Pd3 3.169973 1_555
Dy1 Pd3 3.169973 1_655
Dy1 Si0 3.178579 1_555
Dy2 Pd2 3.029503 1_555
Dy2 Pd4 3.041442 1_554
Dy2 Pd4 3.041442 1_454
Dy2 Pd5 3.055053 1_555
Dy2 Pd5 3.055053 1_455
Dy2 Si2 3.168382 1_555
Dy2 Pd0 3.169973 1_455
Dy2 Pd0 3.169973 1_555
Dy2 Si3 3.178579 1_554
Dy3 Pd3 3.029503 1_555
Dy3 Pd5 3.041442 1_556
Dy3 Pd5 3.041442 1_456
Dy3 Pd4 3.055053 1_455
Dy3 Pd4 3.055053 1_555
Dy3 Si3 3.168382 1_555
Dy3 Pd1 3.169973 1_555
Dy3 Pd1 3.169973 1_455
Dy3 Si2 3.178579 1_556
Dy4 Pd4 2.873681 1_554
Dy4 Pd2 2.919973 1_565
Dy4 Pd2 2.919973 1_665
Dy4 Si2 2.937104 1_565
Dy4 Si2 2.937104 1_665
Dy4 Pd0 2.971146 1_555
Dy4 Si3 3.145457 1_654
Dy4 Si3 3.145457 1_554
Dy4 Pd5 3.216043 1_565
Dy5 Pd5 2.873681 1_556
Dy5 Pd3 2.919973 1_545
Dy5 Pd3 2.919973 1_645
Dy5 Si3 2.937104 1_645
Dy5 Si3 2.937104 1_545
Dy5 Pd1 2.971146 1_555
Dy5 Si2 3.145457 1_556
Dy5 Si2 3.145457 1_656
Dy5 Pd4 3.216043 1_545
Dy6 Pd6 2.873681 1_555
Dy6 Pd0 2.919973 1_455
Dy6 Pd0 2.919973 1_555
Dy6 Si0 2.937104 1_455
Dy6 Si0 2.937104 1_555
Dy6 Pd2 2.971146 1_555
Dy6 Si1 3.145457 1_555
Dy6 Si1 3.145457 1_455
Dy6 Pd7 3.216043 1_555
Dy7 Pd7 2.873681 1_555
Dy7 Pd1 2.919973 1_555
Dy7 Pd1 2.919973 1_455
Dy7 Si1 2.937104 1_455
Dy7 Si1 2.937104 1_555
Dy7 Pd3 2.971146 1_555
Dy7 Si0 3.145457 1_455
Dy7 Si0 3.145457 1_555
Dy7 Pd6 3.216043 1_555
Si0 Si1 2.446227 1_555
Si2 Si3 2.446227 1_544
Pd0 Si0 2.649869 1_555
Pd1 Si1 2.649869 1_555
Pd2 Si2 2.649869 1_555
Pd3 Si3 2.649869 1_555
Pd4 Si3 2.434074 1_655
Pd4 Si3 2.434074 1_555
Pd4 Pd5 2.726231 1_556
Pd5 Si2 2.434074 1_655
Pd5 Si2 2.434074 1_555
Pd6 Si1 2.434074 1_555
Pd6 Si1 2.434074 1_455
Pd6 Pd7 2.726231 1_545
Pd7 Si0 2.434074 1_555
Pd7 Si0 2.434074 1_455
