# generated using pymatgen
data_GaCoN2
_symmetry_space_group_name_H-M   'P 1'
_cell_length_a   5.49797000
_cell_length_b   6.31361100
_cell_length_c   5.02931300
_cell_angle_alpha   90.00000000
_cell_angle_beta   90.00000000
_cell_angle_gamma   90.00000000
_symmetry_Int_Tables_number   1
_chemical_formula_structural   GaCoN2
_chemical_formula_sum   'Ga4 Co4 N8'
_cell_volume   174.57773349
_cell_formula_units_Z   4
loop_
 _symmetry_equiv_pos_site_id
 _symmetry_equiv_pos_as_xyz
  1  'x, y, z'
loop_
 _atom_site_type_symbol
 _atom_site_label
 _atom_site_symmetry_multiplicity
 _atom_site_fract_x
 _atom_site_fract_y
 _atom_site_fract_z
 _atom_site_occupancy
  Ga  Ga0  1  0.58322200  0.37392800  0.00463200  1
  Ga  Ga1  1  0.41677800  0.62607200  0.50463200  1
  Ga  Ga2  1  0.91677800  0.87392800  0.50463200  1
  Ga  Ga3  1  0.08322200  0.12607200  0.00463200  1
  Co  Co0  1  0.58199000  0.88002100  0.99759600  1
  Co  Co1  1  0.41801000  0.11997900  0.49759600  1
  Co  Co2  1  0.91801000  0.38002100  0.49759600  1
  Co  Co3  1  0.08199000  0.61997900  0.99759600  1
  N  N0  1  0.59023300  0.36664500  0.40003100  1
  N  N1  1  0.40976700  0.63335500  0.90003100  1
  N  N2  1  0.90976700  0.86664500  0.90003100  1
  N  N3  1  0.09023300  0.13335500  0.40003100  1
  N  N4  1  0.58471200  0.87847200  0.36774000  1
  N  N5  1  0.41528800  0.12152800  0.86774000  1
  N  N6  1  0.91528800  0.37847200  0.86774000  1
  N  N7  1  0.08471200  0.62152800  0.36774000  1
loop_
_geom_bond_atom_site_label_1
_geom_bond_atom_site_label_2
_geom_bond_distance
_geom_bond_site_symmetry_2
Ga0 N6 1.951399 1_554
Ga0 N5 1.966186 1_554
Ga0 N1 1.966974 1_554
Ga0 N0 1.989490 1_555
Ga1 N7 1.951399 1_555
Ga1 N4 1.966186 1_555
Ga1 N0 1.966974 1_555
Ga1 N1 1.989490 1_555
Ga2 N4 1.951399 1_555
Ga2 N7 1.966186 1_655
Ga2 N3 1.966974 1_665
Ga2 N2 1.989490 1_555
Ga3 N5 1.951399 1_554
Ga3 N6 1.966186 1_454
Ga3 N2 1.966974 1_444
Ga3 N3 1.989490 1_555
Co0 N4 1.861656 1_556
Co0 N2 1.869625 1_555
Co0 N1 1.887511 1_555
Co0 N5 1.895124 1_565
Co1 N5 1.861656 1_555
Co1 N3 1.869625 1_555
Co1 N0 1.887511 1_555
Co1 N4 1.895124 1_545
Co2 N6 1.861656 1_555
Co2 N0 1.869625 1_555
Co2 N3 1.887511 1_655
Co2 N7 1.895124 1_655
Co3 N7 1.861656 1_556
Co3 N1 1.869625 1_555
Co3 N2 1.887511 1_455
Co3 N6 1.895124 1_455
