# generated using pymatgen
data_ErIn2Pd
_symmetry_space_group_name_H-M   'P 1'
_cell_length_a   10.70490686
_cell_length_b   10.70489937
_cell_length_c   10.70690720
_cell_angle_alpha   100.46621517
_cell_angle_beta   100.46621255
_cell_angle_gamma   129.54650671
_symmetry_Int_Tables_number   1
_chemical_formula_structural   ErIn2Pd
_chemical_formula_sum   'Er10 In20 Pd10'
_cell_volume   855.87569629
_cell_formula_units_Z   10
loop_
 _symmetry_equiv_pos_site_id
 _symmetry_equiv_pos_as_xyz
  1  'x, y, z'
loop_
 _atom_site_type_symbol
 _atom_site_label
 _atom_site_symmetry_multiplicity
 _atom_site_fract_x
 _atom_site_fract_y
 _atom_site_fract_z
 _atom_site_occupancy
  Er  Er0  1  0.88882612  0.60939816  0.27929433  1
  Er  Er1  1  0.33021516  0.60940720  0.72090048  1
  Er  Er2  1  0.60940839  0.33021586  0.72090085  1
  Er  Er3  1  0.60939816  0.88882586  0.27929447  1
  Er  Er4  1  0.92130269  0.32483176  0.99995555  1
  Er  Er5  1  0.32483378  0.92130519  0.99995666  1
  Er  Er6  1  0.32479982  0.32479924  0.40343345  1
  Er  Er7  1  0.92146224  0.92146236  0.59653916  1
  Er  Er8  1  0.53801233  0.53801270  0.99993801  1
  Er  Er9  1  0.00952631  0.00952648  0.00004982  1
  In  In0  1  0.01525462  0.52305248  0.79216159  1
  In  In1  1  0.73064126  0.22284844  0.20761461  1
  In  In2  1  0.52322519  0.73082581  0.50801574  1
  In  In3  1  0.01515624  0.22285717  0.49204089  1
  In  In4  1  0.22285758  0.01515581  0.49204084  1
  In  In5  1  0.73082586  0.52322460  0.50801535  1
  In  In6  1  0.52304758  0.01525074  0.79215701  1
  In  In7  1  0.22284730  0.73064044  0.20761404  1
  In  In8  1  0.51779024  0.13512491  0.38279360  1
  In  In9  1  0.75217822  0.13497122  0.61720923  1
  In  In10  1  0.13497062  0.75217623  0.61720662  1
  In  In11  1  0.13512429  0.51778946  0.38279323  1
  In  In12  1  0.90563232  0.64478062  0.99997215  1
  In  In13  1  0.64478042  0.90563196  0.99997201  1
  In  In14  1  0.64485028  0.64484971  0.73937422  1
  In  In15  1  0.90528659  0.90528607  0.26061134  1
  In  In16  1  0.44369407  0.28145422  0.16231428  1
  In  In17  1  0.11916777  0.28135419  0.83775235  1
  In  In18  1  0.28135619  0.11916762  0.83775059  1
  In  In19  1  0.28145425  0.44369429  0.16231362  1
  Pd  Pd0  1  0.88490191  0.38490899  0.49984031  1
  Pd  Pd1  1  0.38490758  0.88489946  0.49983824  1
  Pd  Pd2  1  0.30656386  0.62869385  0.00004039  1
  Pd  Pd3  1  0.62869111  0.30656521  0.00003870  1
  Pd  Pd4  1  0.62886681  0.62886924  0.32225145  1
  Pd  Pd5  1  0.30647762  0.30647542  0.67767088  1
  Pd  Pd6  1  0.18807213  0.97449538  0.21355100  1
  Pd  Pd7  1  0.76126063  0.97473605  0.78661588  1
  Pd  Pd8  1  0.97473736  0.76126164  0.78661569  1
  Pd  Pd9  1  0.97449411  0.18806993  0.21355135  1
loop_
_geom_bond_atom_site_label_1
_geom_bond_atom_site_label_2
_geom_bond_distance
_geom_bond_site_symmetry_2
Er0 Pd3 3.026809 1_555
Er0 Pd4 3.027871 1_555
Er0 In15 3.104204 1_555
Er0 In12 3.104872 1_554
Er0 In1 3.167097 1_555
Er0 In5 3.169786 1_555
Er0 In7 3.241630 1_655
Er0 In4 3.241843 1_665
Er0 In16 3.395786 1_555
Er0 In11 3.430336 1_655
Er0 In10 3.430442 1_655
Er0 Pd6 3.450801 1_655
Er0 Pd0 3.649935 1_555
Er1 Pd2 3.025972 1_556
Er1 Pd5 3.026140 1_555
Er1 In13 3.102801 1_555
Er1 In14 3.103360 1_555
Er1 In0 3.166459 1_555
Er1 In3 3.169232 1_555
Er1 In2 3.243664 1_555
Er1 In6 3.243680 1_565
Er1 In17 3.394419 1_555
Er1 In10 3.431897 1_555
Er1 In11 3.432714 1_555
Er1 Pd7 3.452900 1_555
Er1 Pd0 3.653478 1_455
Er2 Pd3 3.025950 1_556
Er2 Pd5 3.026112 1_555
Er2 In12 3.102797 1_555
Er2 In14 3.103348 1_555
Er2 In6 3.166453 1_555
Er2 In4 3.169240 1_555
Er2 In5 3.243662 1_555
Er2 In0 3.243691 1_655
Er2 In18 3.394400 1_555
Er2 In9 3.431899 1_555
Er2 In8 3.432712 1_555
Er2 Pd8 3.452902 1_555
Er2 Pd1 3.653501 1_545
Er3 Pd2 3.026802 1_555
Er3 Pd4 3.027824 1_555
Er3 In15 3.104214 1_555
Er3 In13 3.104874 1_554
Er3 In7 3.167108 1_555
Er3 In2 3.169786 1_555
Er3 In1 3.241637 1_565
Er3 In3 3.241847 1_665
Er3 In19 3.395780 1_555
Er3 In8 3.430337 1_565
Er3 In9 3.430461 1_565
Er3 Pd9 3.450788 1_565
Er3 Pd1 3.649923 1_555
Er4 Pd3 3.011833 1_556
Er4 Pd7 3.080606 1_545
Er4 Pd9 3.082627 1_556
Er4 In6 3.161013 1_555
Er4 In1 3.161356 1_556
Er4 In17 3.165018 1_655
Er4 In19 3.165361 1_656
Er4 In7 3.203355 1_656
Er4 In0 3.205387 1_655
Er4 Pd2 3.241022 1_656
Er4 In13 3.461941 1_545
Er4 In12 3.534166 1_555
Er5 Pd2 3.011808 1_556
Er5 Pd8 3.080614 1_455
Er5 Pd6 3.082609 1_556
Er5 In0 3.160986 1_555
Er5 In7 3.161361 1_556
Er5 In18 3.165012 1_565
Er5 In16 3.165345 1_566
Er5 In1 3.203347 1_566
Er5 In6 3.205396 1_565
Er5 Pd3 3.241016 1_566
Er5 In12 3.461953 1_455
Er5 In13 3.534167 1_555
Er6 Pd5 3.011298 1_555
Er6 Pd6 3.081816 1_545
Er6 Pd9 3.081826 1_455
Er6 In4 3.160787 1_555
Er6 In3 3.160791 1_555
Er6 In16 3.163961 1_555
Er6 In19 3.163974 1_555
Er6 In5 3.204454 1_555
Er6 In2 3.204456 1_555
Er6 Pd4 3.241869 1_555
Er6 In15 3.464409 1_445
Er6 In14 3.537241 1_555
Er7 Pd4 3.011493 1_555
Er7 Pd8 3.082169 1_555
Er7 Pd7 3.082172 1_555
Er7 In2 3.160331 1_555
Er7 In5 3.160335 1_555
Er7 In17 3.163554 1_665
Er7 In18 3.163562 1_665
Er7 In3 3.204044 1_665
Er7 In4 3.204053 1_665
Er7 Pd5 3.239717 1_665
Er7 In14 3.464130 1_555
Er7 In15 3.536358 1_555
Er8 Pd3 3.184978 1_556
Er8 Pd2 3.185011 1_556
Er8 Pd5 3.186730 1_555
Er8 Pd4 3.187119 1_556
Er8 In17 3.227777 1_555
Er8 In18 3.227785 1_555
Er8 In19 3.228957 1_556
Er8 In16 3.228964 1_556
Er8 In15 3.323820 1_556
Er8 In14 3.324452 1_555
Er8 In13 3.326386 1_555
Er8 In12 3.326397 1_555
Er9 Pd7 2.940742 1_444
Er9 Pd8 2.940745 1_444
Er9 Pd9 2.942115 1_455
Er9 Pd6 2.942120 1_545
Er9 In14 3.308464 1_444
Er9 In15 3.309050 1_445
Er9 In12 3.309261 1_444
Er9 In13 3.309262 1_444
Er9 In17 3.330706 1_554
Er9 In18 3.330739 1_554
Er9 In19 3.330764 1_555
Er9 In16 3.330767 1_555
In0 Pd2 2.833819 1_556
In0 Pd0 2.834431 1_455
In0 Pd8 2.854514 1_455
In0 In12 3.141384 1_455
In1 Pd3 2.832238 1_555
In1 Pd0 2.833533 1_555
In1 Pd9 2.853566 1_555
In1 In13 3.139902 1_544
In2 Pd4 2.833081 1_555
In2 Pd1 2.834716 1_555
In2 Pd7 2.853936 1_555
In3 Pd5 2.832664 1_555
In3 Pd0 2.833804 1_455
In3 Pd9 2.852661 1_455
In4 Pd5 2.832638 1_555
In4 Pd1 2.833805 1_545
In4 Pd6 2.852669 1_545
In5 Pd4 2.833117 1_555
In5 Pd0 2.834720 1_555
In5 Pd8 2.853941 1_555
In6 Pd3 2.833862 1_556
In6 Pd1 2.834407 1_545
In6 Pd7 2.854529 1_545
In7 Pd2 2.832201 1_555
In7 Pd1 2.833519 1_555
In7 Pd6 2.853561 1_555
In8 Pd6 2.741183 1_545
In8 Pd0 2.788628 1_555
In8 Pd1 2.790013 1_545
In9 Pd7 2.742319 1_545
In9 Pd1 2.789855 1_545
In9 Pd0 2.790327 1_555
In10 Pd8 2.742334 1_455
In10 Pd0 2.789827 1_455
In10 Pd1 2.790318 1_555
In11 Pd9 2.741188 1_455
In11 Pd1 2.788613 1_555
In11 Pd0 2.790010 1_455
In12 Pd8 2.791898 1_555
In12 Pd6 2.791949 1_656
In12 Pd3 2.868957 1_556
In12 In7 3.139894 1_656
In13 Pd7 2.791890 1_555
In13 Pd9 2.791944 1_566
In13 Pd2 2.868966 1_556
In13 In6 3.141415 1_565
In14 Pd7 2.792438 1_555
In14 Pd8 2.792441 1_555
In14 Pd5 2.868977 1_555
In14 In5 3.140208 1_555
In14 In2 3.140209 1_555
In15 Pd9 2.792923 1_565
In15 Pd6 2.792937 1_655
In15 Pd4 2.866446 1_555
In15 In3 3.141574 1_665
In15 In4 3.141574 1_665
In16 Pd3 2.784751 1_555
In16 Pd4 2.785374 1_555
In16 Pd6 2.887314 1_545
In17 Pd2 2.785097 1_556
In17 Pd5 2.785682 1_555
In17 Pd7 2.885067 1_445
In18 Pd3 2.785057 1_556
In18 Pd5 2.785649 1_555
In18 Pd8 2.885065 1_445
In19 Pd2 2.784755 1_555
In19 Pd4 2.785352 1_555
In19 Pd9 2.887336 1_455
