# generated using pymatgen
data_ThV2TeO12
_symmetry_space_group_name_H-M   'P 1'
_cell_length_a   11.71663700
_cell_length_b   12.72939600
_cell_length_c   13.27235900
_cell_angle_alpha   90.00000000
_cell_angle_beta   90.00000000
_cell_angle_gamma   90.00000000
_symmetry_Int_Tables_number   1
_chemical_formula_structural   ThV2TeO12
_chemical_formula_sum   'Th8 V16 Te8 O96'
_cell_volume   1979.51543511
_cell_formula_units_Z   8
loop_
 _symmetry_equiv_pos_site_id
 _symmetry_equiv_pos_as_xyz
  1  'x, y, z'
loop_
 _atom_site_type_symbol
 _atom_site_label
 _atom_site_symmetry_multiplicity
 _atom_site_fract_x
 _atom_site_fract_y
 _atom_site_fract_z
 _atom_site_occupancy
  Th  Th0  1  0.94086000  0.34293700  0.32781200  1
  Th  Th1  1  0.55914000  0.84293700  0.67218800  1
  Th  Th2  1  0.44086000  0.65706300  0.17218800  1
  Th  Th3  1  0.05914000  0.15706300  0.82781200  1
  Th  Th4  1  0.05914000  0.65706300  0.67218800  1
  Th  Th5  1  0.44086000  0.15706300  0.32781200  1
  Th  Th6  1  0.55914000  0.34293700  0.82781200  1
  Th  Th7  1  0.94086000  0.84293700  0.17218800  1
  V  V0  1  0.57694600  0.41996100  0.29555100  1
  V  V1  1  0.92305400  0.91996100  0.70444900  1
  V  V2  1  0.07694600  0.58003900  0.20444900  1
  V  V3  1  0.42305400  0.08003900  0.79555100  1
  V  V4  1  0.42305400  0.58003900  0.70444900  1
  V  V5  1  0.07694600  0.08003900  0.29555100  1
  V  V6  1  0.92305400  0.41996100  0.79555100  1
  V  V7  1  0.57694600  0.91996100  0.20444900  1
  V  V8  1  0.18396600  0.43539700  0.50172600  1
  V  V9  1  0.31603400  0.93539700  0.49827400  1
  V  V10  1  0.68396600  0.56460300  0.99827400  1
  V  V11  1  0.81603400  0.06460300  0.00172600  1
  V  V12  1  0.81603400  0.56460300  0.49827400  1
  V  V13  1  0.68396600  0.06460300  0.50172600  1
  V  V14  1  0.31603400  0.43539700  0.00172600  1
  V  V15  1  0.18396600  0.93539700  0.99827400  1
  Te  Te0  1  0.77391600  0.57452900  0.24219000  1
  Te  Te1  1  0.72608400  0.07452900  0.75781000  1
  Te  Te2  1  0.27391600  0.42547100  0.25781000  1
  Te  Te3  1  0.22608400  0.92547100  0.74219000  1
  Te  Te4  1  0.22608400  0.42547100  0.75781000  1
  Te  Te5  1  0.27391600  0.92547100  0.24219000  1
  Te  Te6  1  0.72608400  0.57452900  0.74219000  1
  Te  Te7  1  0.77391600  0.07452900  0.25781000  1
  O  O0  1  0.55721700  0.42013800  0.41812500  1
  O  O1  1  0.94278300  0.92013800  0.58187500  1
  O  O2  1  0.05721700  0.57986200  0.08187500  1
  O  O3  1  0.44278300  0.07986200  0.91812500  1
  O  O4  1  0.44278300  0.57986200  0.58187500  1
  O  O5  1  0.05721700  0.07986200  0.41812500  1
  O  O6  1  0.94278300  0.42013800  0.91812500  1
  O  O7  1  0.55721700  0.92013800  0.08187500  1
  O  O8  1  0.55439800  0.29311700  0.25903900  1
  O  O9  1  0.94560200  0.79311700  0.74096100  1
  O  O10  1  0.05439800  0.70688300  0.24096100  1
  O  O11  1  0.44560200  0.20688300  0.75903900  1
  O  O12  1  0.44560200  0.70688300  0.74096100  1
  O  O13  1  0.05439800  0.20688300  0.25903900  1
  O  O14  1  0.94560200  0.29311700  0.75903900  1
  O  O15  1  0.55439800  0.79311700  0.24096100  1
  O  O16  1  0.43120600  0.47290400  0.24156400  1
  O  O17  1  0.06879400  0.97290400  0.75843600  1
  O  O18  1  0.93120600  0.52709600  0.25843600  1
  O  O19  1  0.56879400  0.02709600  0.74156400  1
  O  O20  1  0.56879400  0.52709600  0.75843600  1
  O  O21  1  0.93120600  0.02709600  0.24156400  1
  O  O22  1  0.06879400  0.47290400  0.74156400  1
  O  O23  1  0.43120600  0.97290400  0.25843600  1
  O  O24  1  0.60822500  0.56925600  0.23859800  1
  O  O25  1  0.89177500  0.06925600  0.76140200  1
  O  O26  1  0.10822500  0.43074400  0.26140200  1
  O  O27  1  0.39177500  0.93074400  0.73859800  1
  O  O28  1  0.39177500  0.43074400  0.76140200  1
  O  O29  1  0.10822500  0.93074400  0.23859800  1
  O  O30  1  0.89177500  0.56925600  0.73859800  1
  O  O31  1  0.60822500  0.06925600  0.26140200  1
  O  O32  1  0.74348100  0.42767100  0.27967700  1
  O  O33  1  0.75651900  0.92767100  0.72032300  1
  O  O34  1  0.24348100  0.57232900  0.22032300  1
  O  O35  1  0.25651900  0.07232900  0.77967700  1
  O  O36  1  0.25651900  0.57232900  0.72032300  1
  O  O37  1  0.24348100  0.07232900  0.27967700  1
  O  O38  1  0.75651900  0.42767100  0.77967700  1
  O  O39  1  0.74348100  0.92767100  0.22032300  1
  O  O40  1  0.08532000  0.34919100  0.45474900  1
  O  O41  1  0.41468000  0.84919100  0.54525100  1
  O  O42  1  0.58532000  0.65080900  0.04525100  1
  O  O43  1  0.91468000  0.15080900  0.95474900  1
  O  O44  1  0.91468000  0.65080900  0.54525100  1
  O  O45  1  0.58532000  0.15080900  0.45474900  1
  O  O46  1  0.41468000  0.34919100  0.95474900  1
  O  O47  1  0.08532000  0.84919100  0.04525100  1
  O  O48  1  0.12346100  0.55116400  0.53324500  1
  O  O49  1  0.37653900  0.05116400  0.46675500  1
  O  O50  1  0.62346100  0.44883600  0.96675500  1
  O  O51  1  0.87653900  0.94883600  0.03324500  1
  O  O52  1  0.87653900  0.44883600  0.46675500  1
  O  O53  1  0.62346100  0.94883600  0.53324500  1
  O  O54  1  0.37653900  0.55116400  0.03324500  1
  O  O55  1  0.12346100  0.05116400  0.96675500  1
  O  O56  1  0.24102100  0.38278700  0.61491700  1
  O  O57  1  0.25897900  0.88278700  0.38508300  1
  O  O58  1  0.74102100  0.61721300  0.88508300  1
  O  O59  1  0.75897900  0.11721300  0.11491700  1
  O  O60  1  0.75897900  0.61721300  0.38508300  1
  O  O61  1  0.74102100  0.11721300  0.61491700  1
  O  O62  1  0.25897900  0.38278700  0.11491700  1
  O  O63  1  0.24102100  0.88278700  0.88508300  1
  O  O64  1  0.28412100  0.45935100  0.40221200  1
  O  O65  1  0.21587900  0.95935100  0.59778800  1
  O  O66  1  0.78412100  0.54064900  0.09778800  1
  O  O67  1  0.71587900  0.04064900  0.90221200  1
  O  O68  1  0.71587900  0.54064900  0.59778800  1
  O  O69  1  0.78412100  0.04064900  0.40221200  1
  O  O70  1  0.21587900  0.45935100  0.90221200  1
  O  O71  1  0.28412100  0.95935100  0.09778800  1
  O  O72  1  0.80669200  0.71556800  0.20976300  1
  O  O73  1  0.69330800  0.21556800  0.79023700  1
  O  O74  1  0.30669200  0.28443200  0.29023700  1
  O  O75  1  0.19330800  0.78443200  0.70976300  1
  O  O76  1  0.19330800  0.28443200  0.79023700  1
  O  O77  1  0.30669200  0.78443200  0.20976300  1
  O  O78  1  0.69330800  0.71556800  0.70976300  1
  O  O79  1  0.80669200  0.21556800  0.29023700  1
  O  O80  1  0.95693700  0.22015100  0.48619100  1
  O  O81  1  0.54306300  0.72015100  0.51380900  1
  O  O82  1  0.45693700  0.77984900  0.01380900  1
  O  O83  1  0.04306300  0.27984900  0.98619100  1
  O  O84  1  0.04306300  0.77984900  0.51380900  1
  O  O85  1  0.45693700  0.27984900  0.48619100  1
  O  O86  1  0.54306300  0.22015100  0.98619100  1
  O  O87  1  0.95693700  0.72015100  0.01380900  1
  O  O88  1  0.89325300  0.31322500  0.14354100  1
  O  O89  1  0.60674700  0.81322500  0.85645900  1
  O  O90  1  0.39325300  0.68677500  0.35645900  1
  O  O91  1  0.10674700  0.18677500  0.64354100  1
  O  O92  1  0.10674700  0.68677500  0.85645900  1
  O  O93  1  0.39325300  0.18677500  0.14354100  1
  O  O94  1  0.60674700  0.31322500  0.64354100  1
  O  O95  1  0.89325300  0.81322500  0.35645900  1
loop_
_geom_bond_atom_site_label_1
_geom_bond_atom_site_label_2
_geom_bond_distance
_geom_bond_site_symmetry_2
O0 V0 1.643188 1_555
O1 V1 1.643188 1_555
O2 V2 1.643188 1_555
O3 V3 1.643188 1_555
O4 V4 1.643188 1_555
O5 V5 1.643188 1_555
O6 V6 1.643188 1_555
O7 V7 1.643188 1_555
O8 V0 1.706376 1_555
O8 Th5 2.366907 1_555
O9 V1 1.706376 1_555
O9 Th4 2.366907 1_655
O10 V2 1.706376 1_555
O10 Th7 2.366907 1_455
O11 V3 1.706376 1_555
O11 Th6 2.366907 1_555
O12 V4 1.706376 1_555
O12 Th1 2.366907 1_555
O13 V5 1.706376 1_555
O13 Th0 2.366907 1_455
O14 V6 1.706376 1_555
O14 Th3 2.366907 1_655
O15 V7 1.706376 1_555
O15 Th2 2.366907 1_555
O16 Te2 1.951250 1_555
O16 V0 1.970646 1_555
O16 Th2 2.521123 1_555
O17 Te3 1.951250 1_555
O17 V1 1.970646 1_455
O17 Th3 2.521123 1_565
O18 Te0 1.951250 1_555
O18 V2 1.970646 1_655
O18 Th0 2.521123 1_555
O19 Te1 1.951250 1_555
O19 V3 1.970646 1_555
O19 Th1 2.521123 1_545
O20 Te6 1.951250 1_555
O20 V4 1.970646 1_555
O20 Th6 2.521123 1_555
O21 Te7 1.951250 1_555
O21 V5 1.970646 1_655
O21 Th7 2.521123 1_545
O22 Te4 1.951250 1_555
O22 V6 1.970646 1_455
O22 Th4 2.521123 1_555
O23 Te5 1.951250 1_555
O23 V7 1.970646 1_555
O23 Th5 2.521123 1_565
O24 Te0 1.943086 1_555
O24 V0 2.077824 1_555
O24 Th2 2.423130 1_555
O25 Te1 1.943086 1_555
O25 V1 2.077824 1_545
O25 Th3 2.423130 1_655
O26 Te2 1.943086 1_555
O26 V2 2.077824 1_555
O26 Th0 2.423130 1_455
O27 Te3 1.943086 1_555
O27 V3 2.077824 1_565
O27 Th1 2.423130 1_555
O28 Te4 1.943086 1_555
O28 V4 2.077824 1_555
O28 Th6 2.423130 1_555
O29 Te5 1.943086 1_555
O29 V5 2.077824 1_565
O29 Th7 2.423130 1_455
O30 Te6 1.943086 1_555
O30 V6 2.077824 1_555
O30 Th4 2.423130 1_655
O31 Te7 1.943086 1_555
O31 V7 2.077824 1_545
O31 Th5 2.423130 1_555
O32 V0 1.965024 1_555
O32 Te0 1.967083 1_555
O32 Th0 2.630543 1_555
O33 V1 1.965024 1_555
O33 Te1 1.967083 1_565
O33 Th1 2.630543 1_555
O34 V2 1.965024 1_555
O34 Te2 1.967083 1_555
O34 Th2 2.630543 1_555
O35 V3 1.965024 1_555
O35 Te3 1.967083 1_545
O35 Th3 2.630543 1_555
O36 V4 1.965024 1_555
O36 Te4 1.967083 1_555
O36 Th4 2.630543 1_555
O37 V5 1.965024 1_555
O37 Te5 1.967083 1_545
O37 Th5 2.630543 1_555
O38 V6 1.965024 1_555
O38 Te6 1.967083 1_555
O38 Th6 2.630543 1_555
O39 V7 1.965024 1_555
O39 Te7 1.967083 1_565
O39 Th7 2.630543 1_555
O40 V8 1.711373 1_555
O40 Th0 2.389472 1_455
O41 V9 1.711373 1_555
O41 Th1 2.389472 1_555
O42 V10 1.711373 1_554
O42 Th2 2.389472 1_555
O43 V11 1.711373 1_556
O43 Th3 2.389472 1_655
O44 V12 1.711373 1_555
O44 Th4 2.389472 1_655
O45 V13 1.711373 1_555
O45 Th5 2.389472 1_555
O46 V14 1.711373 1_556
O46 Th6 2.389472 1_555
O47 V15 1.711373 1_554
O47 Th7 2.389472 1_455
O48 V8 1.687954 1_555
O48 Th4 2.405379 1_555
O49 V9 1.687954 1_545
O49 Th5 2.405379 1_555
O50 V10 1.687954 1_555
O50 Th6 2.405379 1_555
O51 V11 1.687954 1_565
O51 Th7 2.405379 1_555
O52 V12 1.687954 1_555
O52 Th0 2.405379 1_555
O53 V13 1.687954 1_565
O53 Th1 2.405379 1_555
O54 V14 1.687954 1_555
O54 Th2 2.405379 1_555
O55 V15 1.687954 1_545
O55 Th3 2.405379 1_555
O56 V8 1.775475 1_555
O56 Te4 1.980572 1_555
O57 V9 1.775475 1_555
O57 Te5 1.980572 1_555
O58 V10 1.775475 1_555
O58 Te6 1.980572 1_555
O59 V11 1.775475 1_555
O59 Te7 1.980572 1_555
O60 V12 1.775475 1_555
O60 Te0 1.980572 1_555
O61 V13 1.775475 1_555
O61 Te1 1.980572 1_555
O62 V14 1.775475 1_555
O62 Te2 1.980572 1_555
O63 V15 1.775475 1_555
O63 Te3 1.980572 1_555
O64 V8 1.792904 1_555
O64 Te2 1.968115 1_555
O65 V9 1.792904 1_555
O65 Te3 1.968115 1_555
O66 V10 1.792904 1_554
O66 Te0 1.968115 1_555
O67 V11 1.792904 1_556
O67 Te1 1.968115 1_555
O68 V12 1.792904 1_555
O68 Te6 1.968115 1_555
O69 V13 1.792904 1_555
O69 Te7 1.968115 1_555
O70 V14 1.792904 1_556
O70 Te4 1.968115 1_555
O71 V15 1.792904 1_554
O71 Te5 1.968115 1_555
O72 Te0 1.885724 1_555
O72 Th7 2.312704 1_555
O73 Te1 1.885724 1_555
O73 Th6 2.312704 1_555
O74 Te2 1.885724 1_555
O74 Th5 2.312704 1_555
O75 Te3 1.885724 1_555
O75 Th4 2.312704 1_555
O76 Te4 1.885724 1_555
O76 Th3 2.312704 1_555
O77 Te5 1.885724 1_555
O77 Th2 2.312704 1_555
O78 Te6 1.885724 1_555
O78 Th1 2.312704 1_555
O79 Te7 1.885724 1_555
O79 Th0 2.312704 1_555
O80 Th0 2.626232 1_555
O81 Th1 2.626232 1_555
O82 Th2 2.626232 1_555
O83 Th3 2.626232 1_555
O84 Th4 2.626232 1_555
O85 Th5 2.626232 1_555
O86 Th6 2.626232 1_555
O87 Th7 2.626232 1_555
O88 Th0 2.536865 1_555
O89 Th1 2.536865 1_555
O90 Th2 2.536865 1_555
O91 Th3 2.536865 1_555
O92 Th4 2.536865 1_555
O93 Th5 2.536865 1_555
O94 Th6 2.536865 1_555
O95 Th7 2.536865 1_555
