# generated using pymatgen
data_Ti2CrN3
_symmetry_space_group_name_H-M   'P 1'
_cell_length_a   6.14592290
_cell_length_b   2.82402294
_cell_length_c   11.41812826
_cell_angle_alpha   90.00000431
_cell_angle_beta   21.73307624
_cell_angle_gamma   76.71778626
_symmetry_Int_Tables_number   1
_chemical_formula_structural   Ti2CrN3
_chemical_formula_sum   'Ti2 Cr1 N3'
_cell_volume   57.54794782
_cell_formula_units_Z   1
loop_
 _symmetry_equiv_pos_site_id
 _symmetry_equiv_pos_as_xyz
  1  'x, y, z'
loop_
 _atom_site_type_symbol
 _atom_site_label
 _atom_site_symmetry_multiplicity
 _atom_site_fract_x
 _atom_site_fract_y
 _atom_site_fract_z
 _atom_site_occupancy
  Ti  Ti0  1  0.00000000  0.00000000  0.65432800  1
  Ti  Ti1  1  0.00000000  0.00000000  0.34567200  1
  Cr  Cr0  1  0.00000000  0.00000000  0.00000000  1
  N  N0  1  0.00000000  0.50000000  0.50000000  1
  N  N1  1  0.00000000  0.00000000  0.82963300  1
  N  N2  1  0.00000000  0.00000000  0.17036700  1
loop_
_geom_bond_atom_site_label_1
_geom_bond_atom_site_label_2
_geom_bond_distance
_geom_bond_site_symmetry_2
Cr0 N0 1.784706 1_455
Cr0 N0 1.784706 1_644
Cr0 N2 1.945272 1_555
Cr0 N1 1.945272 1_554
N0 Ti1 2.258075 1_555
N0 Ti0 2.258075 1_565
N0 Ti1 2.258075 1_565
N0 Ti0 2.258075 1_555
N1 Ti0 2.001655 1_555
N1 Ti1 2.283088 1_466
N1 Ti1 2.283088 1_645
N1 Ti1 2.283088 1_456
N1 Ti1 2.283088 1_655
N2 Ti1 2.001655 1_555
N2 Ti0 2.283088 1_644
N2 Ti0 2.283088 1_465
N2 Ti0 2.283088 1_654
N2 Ti0 2.283088 1_455
