# generated using pymatgen
data_CaCd2
_symmetry_space_group_name_H-M   'P 1'
_cell_length_a   4.93786668
_cell_length_b   6.17033498
_cell_length_c   6.17033549
_cell_angle_alpha   75.76451455
_cell_angle_beta   66.41370859
_cell_angle_gamma   66.41372371
_symmetry_Int_Tables_number   1
_chemical_formula_structural   CaCd2
_chemical_formula_sum   'Ca2 Cd4'
_cell_volume   157.07400425
_cell_formula_units_Z   2
loop_
 _symmetry_equiv_pos_site_id
 _symmetry_equiv_pos_as_xyz
  1  'x, y, z'
loop_
 _atom_site_type_symbol
 _atom_site_label
 _atom_site_symmetry_multiplicity
 _atom_site_fract_x
 _atom_site_fract_y
 _atom_site_fract_z
 _atom_site_occupancy
  Ca  Ca0  1  0.45855310  0.29144690  0.79144690  1
  Ca  Ca1  1  0.54144690  0.70855310  0.20855310  1
  Cd  Cd0  1  0.83544975  0.11667550  0.21242799  1
  Cd  Cd1  1  0.16455025  0.88332450  0.78757201  1
  Cd  Cd2  1  0.16455025  0.28757201  0.38332450  1
  Cd  Cd3  1  0.83544975  0.71242799  0.61667550  1
loop_
_geom_bond_atom_site_label_1
_geom_bond_atom_site_label_2
_geom_bond_distance
_geom_bond_site_symmetry_2
Ca0 Cd2 3.344815 1_556
Ca0 Cd1 3.344815 1_555
Ca0 Cd2 3.381225 1_655
Ca0 Cd1 3.381226 1_645
Ca0 Cd1 3.381237 1_545
Ca0 Cd2 3.381237 1_555
Ca0 Cd0 3.501260 1_456
Ca0 Cd3 3.501261 1_455
Ca0 Cd3 3.501271 1_555
Ca0 Cd0 3.501272 1_556
Ca0 Cd0 3.515503 1_555
Ca0 Cd3 3.515504 1_545
Ca0 Ca1 3.852226 1_555
Ca0 Ca1 3.852226 1_546
Ca1 Cd3 3.344815 1_554
Ca1 Cd0 3.344815 1_555
Ca1 Cd3 3.381225 1_455
Ca1 Cd0 3.381226 1_465
Ca1 Cd0 3.381237 1_565
Ca1 Cd3 3.381237 1_555
Ca1 Cd1 3.501260 1_654
Ca1 Cd2 3.501261 1_655
Ca1 Cd2 3.501271 1_555
Ca1 Cd1 3.501272 1_554
Ca1 Cd1 3.515503 1_555
Ca1 Cd2 3.515504 1_565
Cd0 Cd2 2.855559 1_655
Cd0 Cd2 2.855584 1_555
Cd0 Cd1 2.856748 1_644
Cd0 Cd3 3.063256 1_545
Cd1 Cd3 2.855559 1_455
Cd1 Cd3 2.855584 1_555
Cd1 Cd2 3.063256 1_565
Cd2 Cd3 2.856748 1_455
