# generated using pymatgen
data_Zr8AgPd3
_symmetry_space_group_name_H-M   'P 1'
_cell_length_a   6.64785192
_cell_length_b   6.64785192
_cell_length_c   44.20191792
_cell_angle_alpha   90.00000000
_cell_angle_beta   90.00000000
_cell_angle_gamma   90.00000000
_symmetry_Int_Tables_number   1
_chemical_formula_structural   Zr8AgPd3
_chemical_formula_sum   'Zr64 Ag8 Pd24'
_cell_volume   1953.45669407
_cell_formula_units_Z   8
loop_
 _symmetry_equiv_pos_site_id
 _symmetry_equiv_pos_as_xyz
  1  'x, y, z'
loop_
 _atom_site_type_symbol
 _atom_site_label
 _atom_site_symmetry_multiplicity
 _atom_site_fract_x
 _atom_site_fract_y
 _atom_site_fract_z
 _atom_site_occupancy
  Zr  Zr0_0  1  0.25000000  0.25000000  0.04256420  1
  Zr  Zr0_1  1  0.25000000  0.25000000  0.54256420  1
  Zr  Zr0_2  1  0.25000000  0.75000000  0.04256420  1
  Zr  Zr0_3  1  0.25000000  0.75000000  0.54256420  1
  Zr  Zr0_4  1  0.75000000  0.25000000  0.04256420  1
  Zr  Zr0_5  1  0.75000000  0.25000000  0.54256420  1
  Zr  Zr0_6  1  0.75000000  0.75000000  0.04256420  1
  Zr  Zr0_7  1  0.75000000  0.75000000  0.54256420  1
  Zr  Zr1_0  1  0.00000000  0.00000000  0.16550284  1
  Zr  Zr1_1  1  0.00000000  0.00000000  0.66550284  1
  Zr  Zr1_2  1  0.00000000  0.50000000  0.16550284  1
  Zr  Zr1_3  1  0.00000000  0.50000000  0.66550284  1
  Zr  Zr1_4  1  0.50000000  0.00000000  0.16550284  1
  Zr  Zr1_5  1  0.50000000  0.00000000  0.66550284  1
  Zr  Zr1_6  1  0.50000000  0.50000000  0.16550284  1
  Zr  Zr1_7  1  0.50000000  0.50000000  0.66550284  1
  Zr  Zr2_0  1  0.25000000  0.25000000  0.28847581  1
  Zr  Zr2_1  1  0.25000000  0.25000000  0.78847581  1
  Zr  Zr2_2  1  0.25000000  0.75000000  0.28847581  1
  Zr  Zr2_3  1  0.25000000  0.75000000  0.78847581  1
  Zr  Zr2_4  1  0.75000000  0.25000000  0.28847581  1
  Zr  Zr2_5  1  0.75000000  0.25000000  0.78847581  1
  Zr  Zr2_6  1  0.75000000  0.75000000  0.28847581  1
  Zr  Zr2_7  1  0.75000000  0.75000000  0.78847581  1
  Zr  Zr3_0  1  0.00000000  0.00000000  0.41136463  1
  Zr  Zr3_1  1  0.00000000  0.00000000  0.91136463  1
  Zr  Zr3_2  1  0.00000000  0.50000000  0.41136463  1
  Zr  Zr3_3  1  0.00000000  0.50000000  0.91136463  1
  Zr  Zr3_4  1  0.50000000  0.00000000  0.41136463  1
  Zr  Zr3_5  1  0.50000000  0.00000000  0.91136463  1
  Zr  Zr3_6  1  0.50000000  0.50000000  0.41136463  1
  Zr  Zr3_7  1  0.50000000  0.50000000  0.91136463  1
  Zr  Zr4_0  1  0.00000000  0.00000000  0.08863537  1
  Zr  Zr4_1  1  0.00000000  0.00000000  0.58863537  1
  Zr  Zr4_2  1  0.00000000  0.50000000  0.08863537  1
  Zr  Zr4_3  1  0.00000000  0.50000000  0.58863537  1
  Zr  Zr4_4  1  0.50000000  0.00000000  0.08863537  1
  Zr  Zr4_5  1  0.50000000  0.00000000  0.58863537  1
  Zr  Zr4_6  1  0.50000000  0.50000000  0.08863537  1
  Zr  Zr4_7  1  0.50000000  0.50000000  0.58863537  1
  Zr  Zr5_0  1  0.25000000  0.25000000  0.21152419  1
  Zr  Zr5_1  1  0.25000000  0.25000000  0.71152419  1
  Zr  Zr5_2  1  0.25000000  0.75000000  0.21152419  1
  Zr  Zr5_3  1  0.25000000  0.75000000  0.71152419  1
  Zr  Zr5_4  1  0.75000000  0.25000000  0.21152419  1
  Zr  Zr5_5  1  0.75000000  0.25000000  0.71152419  1
  Zr  Zr5_6  1  0.75000000  0.75000000  0.21152419  1
  Zr  Zr5_7  1  0.75000000  0.75000000  0.71152419  1
  Zr  Zr6_0  1  0.00000000  0.00000000  0.33449716  1
  Zr  Zr6_1  1  0.00000000  0.00000000  0.83449716  1
  Zr  Zr6_2  1  0.00000000  0.50000000  0.33449716  1
  Zr  Zr6_3  1  0.00000000  0.50000000  0.83449716  1
  Zr  Zr6_4  1  0.50000000  0.00000000  0.33449716  1
  Zr  Zr6_5  1  0.50000000  0.00000000  0.83449716  1
  Zr  Zr6_6  1  0.50000000  0.50000000  0.33449716  1
  Zr  Zr6_7  1  0.50000000  0.50000000  0.83449716  1
  Zr  Zr7_0  1  0.25000000  0.25000000  0.45743580  1
  Zr  Zr7_1  1  0.25000000  0.25000000  0.95743580  1
  Zr  Zr7_2  1  0.25000000  0.75000000  0.45743580  1
  Zr  Zr7_3  1  0.25000000  0.75000000  0.95743580  1
  Zr  Zr7_4  1  0.75000000  0.25000000  0.45743580  1
  Zr  Zr7_5  1  0.75000000  0.25000000  0.95743580  1
  Zr  Zr7_6  1  0.75000000  0.75000000  0.45743580  1
  Zr  Zr7_7  1  0.75000000  0.75000000  0.95743580  1
  Ag  Ag0_0  1  0.00000000  0.00000000  0.00000000  1
  Ag  Ag0_1  1  0.00000000  0.00000000  0.50000000  1
  Ag  Ag0_2  1  0.00000000  0.50000000  0.00000000  1
  Ag  Ag0_3  1  0.00000000  0.50000000  0.50000000  1
  Ag  Ag0_4  1  0.50000000  0.00000000  0.00000000  1
  Ag  Ag0_5  1  0.50000000  0.00000000  0.50000000  1
  Ag  Ag0_6  1  0.50000000  0.50000000  0.00000000  1
  Ag  Ag0_7  1  0.50000000  0.50000000  0.50000000  1
  Pd  Pd0_0  1  0.25000000  0.25000000  0.12681132  1
  Pd  Pd0_1  1  0.25000000  0.25000000  0.62681131  1
  Pd  Pd0_2  1  0.25000000  0.75000000  0.12681132  1
  Pd  Pd0_3  1  0.25000000  0.75000000  0.62681131  1
  Pd  Pd0_4  1  0.75000000  0.25000000  0.12681132  1
  Pd  Pd0_5  1  0.75000000  0.25000000  0.62681131  1
  Pd  Pd0_6  1  0.75000000  0.75000000  0.12681132  1
  Pd  Pd0_7  1  0.75000000  0.75000000  0.62681131  1
  Pd  Pd1_0  1  0.00000000  0.00000000  0.25000000  1
  Pd  Pd1_1  1  0.00000000  0.00000000  0.75000000  1
  Pd  Pd1_2  1  0.00000000  0.50000000  0.25000000  1
  Pd  Pd1_3  1  0.00000000  0.50000000  0.75000000  1
  Pd  Pd1_4  1  0.50000000  0.00000000  0.25000000  1
  Pd  Pd1_5  1  0.50000000  0.00000000  0.75000000  1
  Pd  Pd1_6  1  0.50000000  0.50000000  0.25000000  1
  Pd  Pd1_7  1  0.50000000  0.50000000  0.75000000  1
  Pd  Pd2_0  1  0.25000000  0.25000000  0.37318869  1
  Pd  Pd2_1  1  0.25000000  0.25000000  0.87318869  1
  Pd  Pd2_2  1  0.25000000  0.75000000  0.37318869  1
  Pd  Pd2_3  1  0.25000000  0.75000000  0.87318869  1
  Pd  Pd2_4  1  0.75000000  0.25000000  0.37318869  1
  Pd  Pd2_5  1  0.75000000  0.25000000  0.87318869  1
  Pd  Pd2_6  1  0.75000000  0.75000000  0.37318869  1
  Pd  Pd2_7  1  0.75000000  0.75000000  0.87318869  1
loop_
_geom_bond_atom_site_label_1
_geom_bond_atom_site_label_2
_geom_bond_distance
_geom_bond_site_symmetry_2
Zr0_0 Zr4_2 3.109872 1_555
Zr0_0 Zr4_6 3.109872 1_555
Zr0_0 Zr4_0 3.109872 1_555
Zr0_0 Zr4_4 3.109872 1_555
Zr0_0 Zr0_2 3.323926 1_555
Zr0_0 Zr0_4 3.323926 1_455
Zr0_0 Zr0_2 3.323926 1_545
Zr0_0 Zr0_4 3.323926 1_555
Zr0_1 Zr4_3 3.109872 1_555
Zr0_1 Zr4_1 3.109872 1_555
Zr0_1 Zr4_7 3.109872 1_555
Zr0_1 Zr4_5 3.109872 1_555
Zr0_1 Zr0_5 3.323926 1_555
Zr0_1 Zr0_3 3.323926 1_555
Zr0_1 Zr0_3 3.323926 1_545
Zr0_1 Zr0_5 3.323926 1_455
Zr0_2 Zr4_4 3.109872 1_565
Zr0_2 Zr4_2 3.109872 1_555
Zr0_2 Zr4_6 3.109872 1_555
Zr0_2 Zr4_0 3.109872 1_565
Zr0_2 Zr0_6 3.323926 1_455
Zr0_2 Zr0_6 3.323926 1_555
Zr0_3 Zr4_3 3.109872 1_555
Zr0_3 Zr4_7 3.109872 1_555
Zr0_3 Zr4_5 3.109872 1_565
Zr0_3 Zr4_1 3.109872 1_565
Zr0_3 Zr0_7 3.323926 1_555
Zr0_3 Zr0_7 3.323926 1_455
Zr0_4 Zr4_2 3.109872 1_655
Zr0_4 Zr4_6 3.109872 1_555
Zr0_4 Zr4_0 3.109872 1_655
Zr0_4 Zr4_4 3.109872 1_555
Zr0_4 Zr0_6 3.323926 1_545
Zr0_4 Zr0_6 3.323926 1_555
Zr0_5 Zr4_3 3.109872 1_655
Zr0_5 Zr4_7 3.109872 1_555
Zr0_5 Zr4_5 3.109872 1_555
Zr0_5 Zr4_1 3.109872 1_655
Zr0_5 Zr0_7 3.323926 1_545
Zr0_5 Zr0_7 3.323926 1_555
Zr0_6 Zr4_4 3.109872 1_565
Zr0_6 Zr4_6 3.109872 1_555
Zr0_6 Zr4_2 3.109872 1_655
Zr0_6 Zr4_0 3.109872 1_665
Zr0_7 Zr4_7 3.109872 1_555
Zr0_7 Zr4_3 3.109872 1_655
Zr0_7 Zr4_5 3.109872 1_565
Zr0_7 Zr4_1 3.109872 1_665
Zr1_0 Zr5_0 3.108431 1_555
Zr1_0 Zr5_4 3.108431 1_455
Zr1_0 Zr5_6 3.108431 1_445
Zr1_0 Zr5_2 3.108431 1_545
Zr1_1 Zr5_3 3.108431 1_545
Zr1_1 Zr5_1 3.108431 1_555
Zr1_1 Zr5_5 3.108431 1_455
Zr1_1 Zr5_7 3.108431 1_445
Zr1_2 Zr5_0 3.108431 1_555
Zr1_2 Zr5_4 3.108431 1_455
Zr1_2 Zr5_6 3.108431 1_455
Zr1_2 Zr5_2 3.108431 1_555
Zr1_3 Zr5_3 3.108431 1_555
Zr1_3 Zr5_7 3.108431 1_455
Zr1_3 Zr5_1 3.108431 1_555
Zr1_3 Zr5_5 3.108431 1_455
Zr1_4 Zr5_0 3.108431 1_555
Zr1_4 Zr5_4 3.108431 1_555
Zr1_4 Zr5_2 3.108431 1_545
Zr1_4 Zr5_6 3.108431 1_545
Zr1_5 Zr5_3 3.108431 1_545
Zr1_5 Zr5_7 3.108431 1_545
Zr1_5 Zr5_1 3.108431 1_555
Zr1_5 Zr5_5 3.108431 1_555
Zr1_6 Zr5_0 3.108431 1_555
Zr1_6 Zr5_4 3.108431 1_555
Zr1_6 Zr5_2 3.108431 1_555
Zr1_6 Zr5_6 3.108431 1_555
Zr1_7 Zr5_3 3.108431 1_555
Zr1_7 Zr5_7 3.108431 1_555
Zr1_7 Zr5_1 3.108431 1_555
Zr1_7 Zr5_5 3.108431 1_555
Zr2_0 Zr6_4 3.108431 1_555
Zr2_0 Zr6_2 3.108431 1_555
Zr2_0 Zr6_0 3.108431 1_555
Zr2_0 Zr6_6 3.108431 1_555
Zr2_1 Zr6_1 3.108431 1_555
Zr2_1 Zr6_5 3.108431 1_555
Zr2_1 Zr6_7 3.108431 1_555
Zr2_1 Zr6_3 3.108431 1_555
Zr2_2 Zr6_4 3.108431 1_565
Zr2_2 Zr6_2 3.108431 1_555
Zr2_2 Zr6_6 3.108431 1_555
Zr2_2 Zr6_0 3.108431 1_565
Zr2_3 Zr6_1 3.108431 1_565
Zr2_3 Zr6_5 3.108431 1_565
Zr2_3 Zr6_3 3.108431 1_555
Zr2_3 Zr6_7 3.108431 1_555
Zr2_4 Zr6_2 3.108431 1_655
Zr2_4 Zr6_6 3.108431 1_555
Zr2_4 Zr6_0 3.108431 1_655
Zr2_4 Zr6_4 3.108431 1_555
Zr2_5 Zr6_3 3.108431 1_655
Zr2_5 Zr6_1 3.108431 1_655
Zr2_5 Zr6_5 3.108431 1_555
Zr2_5 Zr6_7 3.108431 1_555
Zr2_6 Zr6_4 3.108431 1_565
Zr2_6 Zr6_2 3.108431 1_655
Zr2_6 Zr6_6 3.108431 1_555
Zr2_6 Zr6_0 3.108431 1_665
Zr2_7 Zr6_5 3.108431 1_565
Zr2_7 Zr6_1 3.108431 1_665
Zr2_7 Zr6_7 3.108431 1_555
Zr2_7 Zr6_3 3.108431 1_655
Zr3_0 Zr7_0 3.109872 1_555
Zr3_0 Zr7_2 3.109872 1_545
Zr3_0 Zr7_6 3.109872 1_445
Zr3_0 Zr7_4 3.109872 1_455
Zr3_1 Zr7_1 3.109872 1_555
Zr3_1 Zr7_3 3.109872 1_545
Zr3_1 Zr7_5 3.109872 1_455
Zr3_1 Zr7_7 3.109872 1_445
Zr3_2 Zr7_0 3.109872 1_555
Zr3_2 Zr7_6 3.109872 1_455
Zr3_2 Zr7_2 3.109872 1_555
Zr3_2 Zr7_4 3.109872 1_455
Zr3_3 Zr7_3 3.109872 1_555
Zr3_3 Zr7_7 3.109872 1_455
Zr3_3 Zr7_1 3.109872 1_555
Zr3_3 Zr7_5 3.109872 1_455
Zr3_4 Zr7_0 3.109872 1_555
Zr3_4 Zr7_4 3.109872 1_555
Zr3_4 Zr7_2 3.109872 1_545
Zr3_4 Zr7_6 3.109872 1_545
Zr3_5 Zr7_5 3.109872 1_555
Zr3_5 Zr7_1 3.109872 1_555
Zr3_5 Zr7_3 3.109872 1_545
Zr3_5 Zr7_7 3.109872 1_545
Zr3_6 Zr7_0 3.109872 1_555
Zr3_6 Zr7_4 3.109872 1_555
Zr3_6 Zr7_2 3.109872 1_555
Zr3_6 Zr7_6 3.109872 1_555
Zr3_7 Zr7_3 3.109872 1_555
Zr3_7 Zr7_5 3.109872 1_555
Zr3_7 Zr7_1 3.109872 1_555
Zr3_7 Zr7_7 3.109872 1_555
Zr7_0 Zr7_2 3.323926 1_555
Zr7_0 Zr7_4 3.323926 1_455
Zr7_0 Zr7_4 3.323926 1_555
Zr7_0 Zr7_2 3.323926 1_545
Zr7_1 Zr7_5 3.323926 1_555
Zr7_1 Zr7_3 3.323926 1_545
Zr7_1 Zr7_5 3.323926 1_455
Zr7_1 Zr7_3 3.323926 1_555
Zr7_2 Zr7_6 3.323926 1_555
Zr7_2 Zr7_6 3.323926 1_455
Zr7_3 Zr7_7 3.323926 1_455
Zr7_3 Zr7_7 3.323926 1_555
Zr7_4 Zr7_6 3.323926 1_555
Zr7_4 Zr7_6 3.323926 1_545
Zr7_5 Zr7_7 3.323926 1_555
Zr7_5 Zr7_7 3.323926 1_545
Ag0_0 Zr0_2 3.010645 1_545
Ag0_0 Zr0_0 3.010645 1_555
Ag0_0 Zr0_4 3.010645 1_455
Ag0_0 Zr0_6 3.010645 1_445
Ag0_0 Zr7_1 3.010645 1_554
Ag0_0 Zr7_7 3.010645 1_444
Ag0_0 Zr7_3 3.010645 1_544
Ag0_0 Zr7_5 3.010645 1_454
Ag0_0 Ag0_2 3.323926 1_545
Ag0_0 Ag0_2 3.323926 1_555
Ag0_0 Ag0_4 3.323926 1_455
Ag0_0 Ag0_4 3.323926 1_555
Ag0_1 Zr0_3 3.010645 1_545
Ag0_1 Zr0_5 3.010645 1_455
Ag0_1 Zr0_7 3.010645 1_445
Ag0_1 Zr0_1 3.010645 1_555
Ag0_1 Zr7_2 3.010645 1_545
Ag0_1 Zr7_6 3.010645 1_445
Ag0_1 Zr7_4 3.010645 1_455
Ag0_1 Zr7_0 3.010645 1_555
Ag0_1 Ag0_3 3.323926 1_555
Ag0_1 Ag0_3 3.323926 1_545
Ag0_1 Ag0_5 3.323926 1_455
Ag0_1 Ag0_5 3.323926 1_555
Ag0_2 Zr0_2 3.010645 1_555
Ag0_2 Zr0_0 3.010645 1_555
Ag0_2 Zr0_4 3.010645 1_455
Ag0_2 Zr0_6 3.010645 1_455
Ag0_2 Zr7_1 3.010645 1_554
Ag0_2 Zr7_3 3.010645 1_554
Ag0_2 Zr7_7 3.010645 1_454
Ag0_2 Zr7_5 3.010645 1_454
Ag0_2 Ag0_6 3.323926 1_455
Ag0_2 Ag0_6 3.323926 1_555
Ag0_3 Zr0_5 3.010645 1_455
Ag0_3 Zr0_3 3.010645 1_555
Ag0_3 Zr0_7 3.010645 1_455
Ag0_3 Zr0_1 3.010645 1_555
Ag0_3 Zr7_6 3.010645 1_455
Ag0_3 Zr7_2 3.010645 1_555
Ag0_3 Zr7_4 3.010645 1_455
Ag0_3 Zr7_0 3.010645 1_555
Ag0_3 Ag0_7 3.323926 1_555
Ag0_3 Ag0_7 3.323926 1_455
Ag0_4 Zr0_2 3.010645 1_545
Ag0_4 Zr0_6 3.010645 1_545
Ag0_4 Zr0_0 3.010645 1_555
Ag0_4 Zr0_4 3.010645 1_555
Ag0_4 Zr7_7 3.010645 1_544
Ag0_4 Zr7_1 3.010645 1_554
Ag0_4 Zr7_5 3.010645 1_554
Ag0_4 Zr7_3 3.010645 1_544
Ag0_4 Ag0_6 3.323926 1_545
Ag0_4 Ag0_6 3.323926 1_555
Ag0_5 Zr0_3 3.010645 1_545
Ag0_5 Zr0_5 3.010645 1_555
Ag0_5 Zr0_7 3.010645 1_545
Ag0_5 Zr0_1 3.010645 1_555
Ag0_5 Zr7_2 3.010645 1_545
Ag0_5 Zr7_4 3.010645 1_555
Ag0_5 Zr7_6 3.010645 1_545
Ag0_5 Zr7_0 3.010645 1_555
Ag0_5 Ag0_7 3.323926 1_555
Ag0_5 Ag0_7 3.323926 1_545
Ag0_6 Zr0_2 3.010645 1_555
Ag0_6 Zr0_0 3.010645 1_555
Ag0_6 Zr0_4 3.010645 1_555
Ag0_6 Zr0_6 3.010645 1_555
Ag0_6 Zr7_1 3.010645 1_554
Ag0_6 Zr7_3 3.010645 1_554
Ag0_6 Zr7_5 3.010645 1_554
Ag0_6 Zr7_7 3.010645 1_554
Ag0_7 Zr0_7 3.010645 1_555
Ag0_7 Zr0_5 3.010645 1_555
Ag0_7 Zr0_3 3.010645 1_555
Ag0_7 Zr0_1 3.010645 1_555
Ag0_7 Zr7_4 3.010645 1_555
Ag0_7 Zr7_6 3.010645 1_555
Ag0_7 Zr7_2 3.010645 1_555
Ag0_7 Zr7_0 3.010645 1_555
Pd0_0 Zr4_0 2.893394 1_555
Pd0_0 Zr4_4 2.893394 1_555
Pd0_0 Zr4_2 2.893394 1_555
Pd0_0 Zr4_6 2.893394 1_555
Pd0_0 Zr1_2 2.906744 1_555
Pd0_0 Zr1_6 2.906744 1_555
Pd0_0 Zr1_0 2.906744 1_555
Pd0_0 Zr1_4 2.906744 1_555
Pd0_1 Zr4_7 2.893394 1_555
Pd0_1 Zr4_1 2.893394 1_555
Pd0_1 Zr4_5 2.893394 1_555
Pd0_1 Zr4_3 2.893394 1_555
Pd0_1 Zr1_1 2.906744 1_555
Pd0_1 Zr1_7 2.906744 1_555
Pd0_1 Zr1_5 2.906744 1_555
Pd0_1 Zr1_3 2.906744 1_555
Pd0_2 Zr4_2 2.893394 1_555
Pd0_2 Zr4_4 2.893394 1_565
Pd0_2 Zr4_6 2.893394 1_555
Pd0_2 Zr4_0 2.893394 1_565
Pd0_2 Zr1_2 2.906744 1_555
Pd0_2 Zr1_6 2.906744 1_555
Pd0_2 Zr1_0 2.906744 1_565
Pd0_2 Zr1_4 2.906744 1_565
Pd0_3 Zr4_7 2.893394 1_555
Pd0_3 Zr4_1 2.893394 1_565
Pd0_3 Zr4_5 2.893394 1_565
Pd0_3 Zr4_3 2.893394 1_555
Pd0_3 Zr1_7 2.906744 1_555
Pd0_3 Zr1_5 2.906744 1_565
Pd0_3 Zr1_1 2.906744 1_565
Pd0_3 Zr1_3 2.906744 1_555
Pd0_4 Zr4_4 2.893394 1_555
Pd0_4 Zr4_6 2.893394 1_555
Pd0_4 Zr4_2 2.893394 1_655
Pd0_4 Zr4_0 2.893394 1_655
Pd0_4 Zr1_2 2.906744 1_655
Pd0_4 Zr1_6 2.906744 1_555
Pd0_4 Zr1_4 2.906744 1_555
Pd0_4 Zr1_0 2.906744 1_655
Pd0_5 Zr4_7 2.893394 1_555
Pd0_5 Zr4_3 2.893394 1_655
Pd0_5 Zr4_5 2.893394 1_555
Pd0_5 Zr4_1 2.893394 1_655
Pd0_5 Zr1_3 2.906744 1_655
Pd0_5 Zr1_7 2.906744 1_555
Pd0_5 Zr1_5 2.906744 1_555
Pd0_5 Zr1_1 2.906744 1_655
Pd0_6 Zr4_0 2.893394 1_665
Pd0_6 Zr4_6 2.893394 1_555
Pd0_6 Zr4_4 2.893394 1_565
Pd0_6 Zr4_2 2.893394 1_655
Pd0_6 Zr1_6 2.906744 1_555
Pd0_6 Zr1_2 2.906744 1_655
Pd0_6 Zr1_0 2.906744 1_665
Pd0_6 Zr1_4 2.906744 1_565
Pd0_7 Zr4_7 2.893394 1_555
Pd0_7 Zr4_3 2.893394 1_655
Pd0_7 Zr4_5 2.893394 1_565
Pd0_7 Zr4_1 2.893394 1_665
Pd0_7 Zr1_3 2.906744 1_655
Pd0_7 Zr1_7 2.906744 1_555
Pd0_7 Zr1_5 2.906744 1_565
Pd0_7 Zr1_1 2.906744 1_665
Pd1_0 Zr5_6 2.901144 1_445
Pd1_0 Zr2_4 2.901144 1_455
Pd1_0 Zr2_2 2.901144 1_545
Pd1_0 Zr2_0 2.901144 1_555
Pd1_0 Zr2_6 2.901144 1_445
Pd1_0 Zr5_2 2.901144 1_545
Pd1_0 Zr5_0 2.901144 1_555
Pd1_0 Zr5_4 2.901144 1_455
Pd1_1 Zr2_7 2.901144 1_445
Pd1_1 Zr5_3 2.901144 1_545
Pd1_1 Zr5_1 2.901144 1_555
Pd1_1 Zr5_7 2.901144 1_445
Pd1_1 Zr5_5 2.901144 1_455
Pd1_1 Zr2_5 2.901144 1_455
Pd1_1 Zr2_1 2.901144 1_555
Pd1_1 Zr2_3 2.901144 1_545
Pd1_2 Zr2_4 2.901144 1_455
Pd1_2 Zr5_6 2.901144 1_455
Pd1_2 Zr2_0 2.901144 1_555
Pd1_2 Zr5_2 2.901144 1_555
Pd1_2 Zr5_0 2.901144 1_555
Pd1_2 Zr2_6 2.901144 1_455
Pd1_2 Zr5_4 2.901144 1_455
Pd1_2 Zr2_2 2.901144 1_555
Pd1_3 Zr5_3 2.901144 1_555
Pd1_3 Zr5_1 2.901144 1_555
Pd1_3 Zr2_3 2.901144 1_555
Pd1_3 Zr5_5 2.901144 1_455
Pd1_3 Zr2_7 2.901144 1_455
Pd1_3 Zr2_1 2.901144 1_555
Pd1_3 Zr5_7 2.901144 1_455
Pd1_3 Zr2_5 2.901144 1_455
Pd1_4 Zr5_4 2.901144 1_555
Pd1_4 Zr2_6 2.901144 1_545
Pd1_4 Zr2_2 2.901144 1_545
Pd1_4 Zr2_0 2.901144 1_555
Pd1_4 Zr5_2 2.901144 1_545
Pd1_4 Zr2_4 2.901144 1_555
Pd1_4 Zr5_0 2.901144 1_555
Pd1_4 Zr5_6 2.901144 1_545
Pd1_5 Zr5_3 2.901144 1_545
Pd1_5 Zr2_7 2.901144 1_545
Pd1_5 Zr2_5 2.901144 1_555
Pd1_5 Zr5_7 2.901144 1_545
Pd1_5 Zr5_1 2.901144 1_555
Pd1_5 Zr5_5 2.901144 1_555
Pd1_5 Zr2_1 2.901144 1_555
Pd1_5 Zr2_3 2.901144 1_545
Pd1_6 Zr2_6 2.901144 1_555
Pd1_6 Zr5_4 2.901144 1_555
Pd1_6 Zr2_0 2.901144 1_555
Pd1_6 Zr5_2 2.901144 1_555
Pd1_6 Zr2_4 2.901144 1_555
Pd1_6 Zr5_0 2.901144 1_555
Pd1_6 Zr5_6 2.901144 1_555
Pd1_6 Zr2_2 2.901144 1_555
Pd1_7 Zr5_3 2.901144 1_555
Pd1_7 Zr2_5 2.901144 1_555
Pd1_7 Zr5_7 2.901144 1_555
Pd1_7 Zr5_1 2.901144 1_555
Pd1_7 Zr2_3 2.901144 1_555
Pd1_7 Zr5_5 2.901144 1_555
Pd1_7 Zr2_7 2.901144 1_555
Pd1_7 Zr2_1 2.901144 1_555
Pd2_0 Zr3_6 2.893394 1_555
Pd2_0 Zr3_0 2.893394 1_555
Pd2_0 Zr3_2 2.893394 1_555
Pd2_0 Zr3_4 2.893394 1_555
Pd2_0 Zr6_0 2.906744 1_555
Pd2_0 Zr6_6 2.906744 1_555
Pd2_0 Zr6_4 2.906744 1_555
Pd2_0 Zr6_2 2.906744 1_555
Pd2_1 Zr3_1 2.893394 1_555
Pd2_1 Zr3_5 2.893394 1_555
Pd2_1 Zr3_3 2.893394 1_555
Pd2_1 Zr3_7 2.893394 1_555
Pd2_1 Zr6_1 2.906744 1_555
Pd2_1 Zr6_3 2.906744 1_555
Pd2_1 Zr6_5 2.906744 1_555
Pd2_1 Zr6_7 2.906744 1_555
Pd2_2 Zr3_6 2.893394 1_555
Pd2_2 Zr3_0 2.893394 1_565
Pd2_2 Zr3_2 2.893394 1_555
Pd2_2 Zr3_4 2.893394 1_565
Pd2_2 Zr6_6 2.906744 1_555
Pd2_2 Zr6_0 2.906744 1_565
Pd2_2 Zr6_4 2.906744 1_565
Pd2_2 Zr6_2 2.906744 1_555
Pd2_3 Zr3_7 2.893394 1_555
Pd2_3 Zr3_1 2.893394 1_565
Pd2_3 Zr3_3 2.893394 1_555
Pd2_3 Zr3_5 2.893394 1_565
Pd2_3 Zr6_1 2.906744 1_565
Pd2_3 Zr6_3 2.906744 1_555
Pd2_3 Zr6_5 2.906744 1_565
Pd2_3 Zr6_7 2.906744 1_555
Pd2_4 Zr3_6 2.893394 1_555
Pd2_4 Zr3_0 2.893394 1_655
Pd2_4 Zr3_4 2.893394 1_555
Pd2_4 Zr3_2 2.893394 1_655
Pd2_4 Zr6_6 2.906744 1_555
Pd2_4 Zr6_0 2.906744 1_655
Pd2_4 Zr6_4 2.906744 1_555
Pd2_4 Zr6_2 2.906744 1_655
Pd2_5 Zr3_3 2.893394 1_655
Pd2_5 Zr3_5 2.893394 1_555
Pd2_5 Zr3_1 2.893394 1_655
Pd2_5 Zr3_7 2.893394 1_555
Pd2_5 Zr6_3 2.906744 1_655
Pd2_5 Zr6_1 2.906744 1_655
Pd2_5 Zr6_5 2.906744 1_555
Pd2_5 Zr6_7 2.906744 1_555
Pd2_6 Zr3_6 2.893394 1_555
Pd2_6 Zr3_0 2.893394 1_665
Pd2_6 Zr3_4 2.893394 1_565
Pd2_6 Zr3_2 2.893394 1_655
Pd2_6 Zr6_6 2.906744 1_555
Pd2_6 Zr6_4 2.906744 1_565
Pd2_6 Zr6_0 2.906744 1_665
Pd2_6 Zr6_2 2.906744 1_655
Pd2_7 Zr3_3 2.893394 1_655
Pd2_7 Zr3_7 2.893394 1_555
Pd2_7 Zr3_1 2.893394 1_665
Pd2_7 Zr3_5 2.893394 1_565
Pd2_7 Zr6_3 2.906744 1_655
Pd2_7 Zr6_1 2.906744 1_665
Pd2_7 Zr6_5 2.906744 1_565
Pd2_7 Zr6_7 2.906744 1_555
