# generated using pymatgen
data_Ca24Mg8B16C8O73
_symmetry_space_group_name_H-M   'P 1'
_cell_length_a   10.52028238
_cell_length_b   14.87384415
_cell_length_c   10.52028238
_cell_angle_alpha   90.00000000
_cell_angle_beta   89.97710445
_cell_angle_gamma   90.00000000
_symmetry_Int_Tables_number   1
_chemical_formula_structural   Ca24Mg8B16C8O73
_chemical_formula_sum   'Ca24 Mg8 B16 C8 O73'
_cell_volume   1646.18252212
_cell_formula_units_Z   1
loop_
 _symmetry_equiv_pos_site_id
 _symmetry_equiv_pos_as_xyz
  1  'x, y, z'
loop_
 _atom_site_type_symbol
 _atom_site_label
 _atom_site_symmetry_multiplicity
 _atom_site_fract_x
 _atom_site_fract_y
 _atom_site_fract_z
 _atom_site_occupancy
  Ca  Ca0  1  0.50000000  0.98796607  0.00000000  1
  Ca  Ca1  1  -0.00000000  0.48783162  0.50000000  1
  Ca  Ca2  1  0.26226416  0.74995320  0.76208054  1
  Ca  Ca3  1  0.76208054  0.25004680  0.26226416  1
  Ca  Ca4  1  0.26209195  0.75005255  0.23786867  1
  Ca  Ca5  1  0.76213133  0.24994745  0.73790805  1
  Ca  Ca6  1  -0.00000000  0.76197170  0.00000000  1
  Ca  Ca7  1  0.50000000  0.26214619  0.50000000  1
  Ca  Ca8  1  0.73782954  0.50000000  0.73782954  1
  Ca  Ca9  1  0.23769713  -0.00000000  0.23769713  1
  Ca  Ca10  1  0.73781925  0.50000000  0.26218075  1
  Ca  Ca11  1  0.23802973  -0.00000000  0.76197027  1
  Ca  Ca12  1  0.50000000  0.51216838  0.00000000  1
  Ca  Ca13  1  -0.00000000  0.01203393  0.50000000  1
  Ca  Ca14  1  0.73790805  0.75005255  0.76213133  1
  Ca  Ca15  1  0.23786867  0.24994745  0.26209195  1
  Ca  Ca16  1  -0.00000000  0.23802830  0.00000000  1
  Ca  Ca17  1  0.50000000  0.73785381  0.50000000  1
  Ca  Ca18  1  0.26218075  0.50000000  0.73781925  1
  Ca  Ca19  1  0.76197027  -0.00000000  0.23802973  1
  Ca  Ca20  1  0.73773584  0.74995320  0.23791946  1
  Ca  Ca21  1  0.23791946  0.25004680  0.73773584  1
  Ca  Ca22  1  0.26217046  0.50000000  0.26217046  1
  Ca  Ca23  1  0.76230287  -0.00000000  0.76230287  1
  Mg  Mg0  1  0.24987101  0.87520115  0.00019988  1
  Mg  Mg1  1  0.74999980  0.37498749  0.50000687  1
  Mg  Mg2  1  0.50000687  0.62501251  0.74999980  1
  Mg  Mg3  1  0.00019988  0.12479885  0.24987101  1
  Mg  Mg4  1  0.49999313  0.62501251  0.25000020  1
  Mg  Mg5  1  0.99980012  0.12479885  0.75012899  1
  Mg  Mg6  1  0.75012899  0.87520115  0.99980012  1
  Mg  Mg7  1  0.25000020  0.37498749  0.49999313  1
  B  B0  1  0.81805544  0.09062690  0.99931921  1
  B  B1  1  0.31699067  0.59150314  0.49999615  1
  B  B2  1  0.68301571  0.65847732  0.99998540  1
  B  B3  1  0.18301835  0.15848653  0.49999385  1
  B  B4  1  0.49999615  0.40849686  0.31699067  1
  B  B5  1  0.99931921  0.90937310  0.81805544  1
  B  B6  1  0.99998540  0.34152268  0.68301571  1
  B  B7  1  0.49999385  0.84151347  0.18301835  1
  B  B8  1  0.50000385  0.40849686  0.68300933  1
  B  B9  1  0.00068079  0.90937310  0.18194456  1
  B  B10  1  0.00001460  0.34152268  0.31698429  1
  B  B11  1  0.50000615  0.84151347  0.81698165  1
  B  B12  1  0.18194456  0.09062690  0.00068079  1
  B  B13  1  0.68300933  0.59150314  0.50000385  1
  B  B14  1  0.31698429  0.65847732  0.00001460  1
  B  B15  1  0.81698165  0.15848653  0.50000615  1
  C  C0  1  0.24998152  0.37502070  -0.00002835  1
  C  C1  1  0.75002402  0.87510271  0.50002057  1
  C  C2  1  -0.00002835  0.62497930  0.24998152  1
  C  C3  1  0.50002057  0.12489729  0.75002402  1
  C  C4  1  0.00002835  0.62497930  0.75001848  1
  C  C5  1  0.49997943  0.12489729  0.24997598  1
  C  C6  1  0.75001848  0.37502070  0.00002835  1
  C  C7  1  0.24997598  0.87510271  0.49997943  1
  O  O0  1  0.31148097  0.43646634  0.06142813  1
  O  O1  1  0.81119635  0.93643670  0.56131765  1
  O  O2  1  0.25002619  0.37502990  0.87707958  1
  O  O3  1  0.74982491  0.87496149  0.37707134  1
  O  O4  1  0.18849450  0.31367859  0.06141376  1
  O  O5  1  0.68846411  0.81347163  0.56142920  1
  O  O6  1  0.06142813  0.56353366  0.31148097  1
  O  O7  1  0.56131765  0.06356330  0.81119635  1
  O  O8  1  0.87707958  0.62497010  0.25002619  1
  O  O9  1  0.37707134  0.12503851  0.74982491  1
  O  O10  1  0.06141376  0.68632141  0.18849450  1
  O  O11  1  0.56142920  0.18652837  0.68846411  1
  O  O12  1  0.93857187  0.56353366  0.68851903  1
  O  O13  1  0.43868235  0.06356330  0.18880365  1
  O  O14  1  0.12292042  0.62497010  0.74997381  1
  O  O15  1  0.62292866  0.12503851  0.25017509  1
  O  O16  1  0.93858624  0.68632141  0.81150550  1
  O  O17  1  0.43857080  0.18652837  0.31153589  1
  O  O18  1  0.68851903  0.43646634  0.93857187  1
  O  O19  1  0.18880365  0.93643670  0.43868235  1
  O  O20  1  0.74997381  0.37502990  0.12292042  1
  O  O21  1  0.25017509  0.87496149  0.62292866  1
  O  O22  1  0.81150550  0.31367859  0.93858624  1
  O  O23  1  0.31153589  0.81347163  0.43857080  1
  O  O24  1  -0.00000000  -0.00000000  0.00000000  1
  O  O25  1  0.26092242  0.01550867  0.99161209  1
  O  O26  1  0.75864223  0.51491985  0.49189435  1
  O  O27  1  0.61033578  0.36663721  0.35981304  1
  O  O28  1  0.11045556  0.86619236  0.85902232  1
  O  O29  1  0.61843831  0.37474486  0.64826224  1
  O  O30  1  0.11895091  0.87359901  0.14984207  1
  O  O31  1  0.24137007  0.73505257  0.99188291  1
  O  O32  1  0.74128715  0.23512558  0.49190386  1
  O  O33  1  0.88156188  0.37531455  0.64825513  1
  O  O34  1  0.38158858  0.87522831  0.14831989  1
  O  O35  1  0.88965306  0.38341232  0.35981983  1
  O  O36  1  0.38960113  0.88329131  0.85973540  1
  O  O37  1  0.49189435  0.48508015  0.75864223  1
  O  O38  1  0.99161209  0.98449133  0.26092242  1
  O  O39  1  0.85902232  0.13380764  0.11045556  1
  O  O40  1  0.35981304  0.63336279  0.61033578  1
  O  O41  1  0.14984207  0.12640099  0.11895091  1
  O  O42  1  0.64826224  0.62525514  0.61843831  1
  O  O43  1  0.99188291  0.26494743  0.24137007  1
  O  O44  1  0.49190386  0.76487442  0.74128715  1
  O  O45  1  0.64825513  0.62468545  0.88156188  1
  O  O46  1  0.14831989  0.12477169  0.38158858  1
  O  O47  1  0.35981983  0.61658768  0.88965306  1
  O  O48  1  0.85973540  0.11670869  0.38960113  1
  O  O49  1  0.50810565  0.48508015  0.24135777  1
  O  O50  1  0.00838791  0.98449133  0.73907758  1
  O  O51  1  0.14097768  0.13380764  0.88954444  1
  O  O52  1  0.64018696  0.63336279  0.38966422  1
  O  O53  1  0.85015793  0.12640099  0.88104909  1
  O  O54  1  0.35173776  0.62525514  0.38156169  1
  O  O55  1  0.00811709  0.26494743  0.75862993  1
  O  O56  1  0.50809614  0.76487442  0.25871285  1
  O  O57  1  0.35174487  0.62468545  0.11843812  1
  O  O58  1  0.85168011  0.12477169  0.61841142  1
  O  O59  1  0.64018017  0.61658768  0.11034694  1
  O  O60  1  0.14026460  0.11670869  0.61039887  1
  O  O61  1  0.73907758  0.01550867  0.00838791  1
  O  O62  1  0.24135777  0.51491985  0.50810565  1
  O  O63  1  0.38966422  0.36663721  0.64018696  1
  O  O64  1  0.88954444  0.86619236  0.14097768  1
  O  O65  1  0.38156169  0.37474486  0.35173776  1
  O  O66  1  0.88104909  0.87359901  0.85015793  1
  O  O67  1  0.75862993  0.73505257  0.00811709  1
  O  O68  1  0.25871285  0.23512558  0.50809614  1
  O  O69  1  0.11843812  0.37531455  0.35174487  1
  O  O70  1  0.61841142  0.87522831  0.85168011  1
  O  O71  1  0.11034694  0.38341232  0.64018017  1
  O  O72  1  0.61039887  0.88329131  0.14026460  1
loop_
_geom_bond_atom_site_label_1
_geom_bond_atom_site_label_2
_geom_bond_distance
_geom_bond_site_symmetry_2
Ca0 O13 2.371642 1_565
Ca0 O7 2.371642 1_564
Ca0 O36 2.439618 1_554
Ca0 O72 2.439618 1_555
Ca0 O25 2.549870 1_564
Ca0 O61 2.549870 1_565
Ca0 O34 2.607071 1_555
Ca0 O70 2.607071 1_554
Ca1 O6 2.370192 1_555
Ca1 O12 2.370192 1_455
Ca1 O71 2.436396 1_555
Ca1 O35 2.436396 1_455
Ca1 O62 2.572367 1_555
Ca1 O26 2.572367 1_455
Ca1 O69 2.604687 1_555
Ca1 O33 2.604687 1_455
Ca2 O21 2.369931 1_555
Ca2 O14 2.370895 1_555
Ca2 O44 2.435803 1_555
Ca2 O31 2.437567 1_555
Ca2 O28 2.564880 1_555
Ca2 O40 2.570528 1_555
Ca2 O36 2.604693 1_555
Ca2 O47 2.605868 1_555
Ca3 O15 2.369931 1_555
Ca3 O20 2.370895 1_555
Ca3 O32 2.435803 1_555
Ca3 O43 2.437567 1_555
Ca3 O39 2.564880 1_555
Ca3 O27 2.570528 1_555
Ca3 O48 2.604693 1_555
Ca3 O35 2.605868 1_555
Ca4 O23 2.370533 1_555
Ca4 O10 2.371999 1_555
Ca4 O34 2.435863 1_555
Ca4 O57 2.438104 1_555
Ca4 O30 2.550139 1_555
Ca4 O54 2.573194 1_555
Ca4 O31 2.606658 1_554
Ca4 O56 2.606734 1_555
Ca5 O11 2.370533 1_555
Ca5 O22 2.371999 1_555
Ca5 O58 2.435863 1_555
Ca5 O33 2.438104 1_555
Ca5 O53 2.550139 1_555
Ca5 O29 2.573194 1_555
Ca5 O55 2.606658 1_655
Ca5 O32 2.606734 1_555
Ca6 O16 2.370001 1_454
Ca6 O10 2.370001 1_555
Ca6 O28 2.439587 1_554
Ca6 O64 2.439587 1_455
Ca6 O67 2.572038 1_455
Ca6 O31 2.572038 1_554
Ca6 O30 2.609451 1_555
Ca6 O66 2.609451 1_454
Ca7 O11 2.369549 1_555
Ca7 O17 2.369549 1_555
Ca7 O27 2.436502 1_555
Ca7 O63 2.436502 1_555
Ca7 O32 2.571405 1_555
Ca7 O68 2.571405 1_555
Ca7 O65 2.606109 1_555
Ca7 O29 2.606109 1_555
Ca8 O18 2.370911 1_555
Ca8 O12 2.370911 1_555
Ca8 O29 2.436657 1_555
Ca8 O42 2.436657 1_555
Ca8 O45 2.571518 1_555
Ca8 O33 2.571518 1_555
Ca8 O26 2.605935 1_555
Ca8 O37 2.605935 1_555
Ca9 O13 2.372410 1_555
Ca9 O19 2.372410 1_545
Ca9 O41 2.439354 1_555
Ca9 O30 2.439354 1_545
Ca9 O34 2.572669 1_545
Ca9 O46 2.572669 1_555
Ca9 O25 2.610503 1_554
Ca9 O38 2.610503 1_445
Ca10 O8 2.370165 1_555
Ca10 O20 2.370165 1_555
Ca10 O26 2.436773 1_555
Ca10 O49 2.436773 1_555
Ca10 O35 2.571971 1_555
Ca10 O59 2.571971 1_555
Ca10 O52 2.605250 1_555
Ca10 O27 2.605250 1_555
Ca11 O21 2.369536 1_545
Ca11 O9 2.369536 1_555
Ca11 O50 2.438900 1_545
Ca11 O25 2.438900 1_555
Ca11 O60 2.572002 1_555
Ca11 O36 2.572002 1_545
Ca11 O51 2.608387 1_555
Ca11 O28 2.608387 1_545
Ca12 O0 2.370192 1_555
Ca12 O18 2.370192 1_554
Ca12 O47 2.436396 1_554
Ca12 O59 2.436396 1_555
Ca12 O37 2.572367 1_554
Ca12 O49 2.572367 1_555
Ca12 O45 2.604687 1_554
Ca12 O57 2.604687 1_555
Ca13 O19 2.371642 1_545
Ca13 O1 2.371642 1_445
Ca13 O48 2.439618 1_455
Ca13 O60 2.439618 1_555
Ca13 O38 2.549870 1_445
Ca13 O50 2.549870 1_545
Ca13 O46 2.607071 1_555
Ca13 O58 2.607071 1_455
Ca14 O5 2.370533 1_555
Ca14 O16 2.371999 1_555
Ca14 O70 2.435863 1_555
Ca14 O45 2.438104 1_555
Ca14 O66 2.550139 1_555
Ca14 O42 2.573194 1_555
Ca14 O67 2.606658 1_556
Ca14 O44 2.606734 1_555
Ca15 O17 2.370533 1_555
Ca15 O4 2.371999 1_555
Ca15 O46 2.435863 1_555
Ca15 O69 2.438104 1_555
Ca15 O41 2.550139 1_555
Ca15 O65 2.573194 1_555
Ca15 O43 2.606658 1_455
Ca15 O68 2.606734 1_555
Ca16 O22 2.370001 1_454
Ca16 O4 2.370001 1_555
Ca16 O39 2.439587 1_455
Ca16 O51 2.439587 1_554
Ca16 O55 2.572038 1_554
Ca16 O43 2.572038 1_455
Ca16 O41 2.609451 1_555
Ca16 O53 2.609451 1_454
Ca17 O5 2.369549 1_555
Ca17 O23 2.369549 1_555
Ca17 O52 2.436502 1_555
Ca17 O40 2.436502 1_555
Ca17 O44 2.571405 1_555
Ca17 O56 2.571405 1_555
Ca17 O54 2.606109 1_555
Ca17 O42 2.606109 1_555
Ca18 O2 2.370165 1_555
Ca18 O14 2.370165 1_555
Ca18 O37 2.436773 1_555
Ca18 O62 2.436773 1_555
Ca18 O47 2.571971 1_555
Ca18 O71 2.571971 1_555
Ca18 O40 2.605250 1_555
Ca18 O63 2.605250 1_555
Ca19 O3 2.369536 1_545
Ca19 O15 2.369536 1_555
Ca19 O38 2.438900 1_545
Ca19 O61 2.438900 1_555
Ca19 O72 2.572002 1_545
Ca19 O48 2.572002 1_555
Ca19 O39 2.608387 1_555
Ca19 O64 2.608387 1_545
Ca20 O3 2.369931 1_555
Ca20 O8 2.370895 1_555
Ca20 O56 2.435803 1_555
Ca20 O67 2.437567 1_555
Ca20 O64 2.564880 1_555
Ca20 O52 2.570528 1_555
Ca20 O72 2.604693 1_555
Ca20 O59 2.605868 1_555
Ca21 O9 2.369931 1_555
Ca21 O2 2.370895 1_555
Ca21 O68 2.435803 1_555
Ca21 O55 2.437567 1_555
Ca21 O51 2.564880 1_555
Ca21 O63 2.570528 1_555
Ca21 O60 2.604693 1_555
Ca21 O71 2.605868 1_555
Ca22 O0 2.370911 1_555
Ca22 O6 2.370911 1_555
Ca22 O65 2.436657 1_555
Ca22 O54 2.436657 1_555
Ca22 O57 2.571518 1_555
Ca22 O69 2.571518 1_555
Ca22 O49 2.605935 1_555
Ca22 O62 2.605935 1_555
Ca23 O1 2.372410 1_545
Ca23 O7 2.372410 1_555
Ca23 O53 2.439354 1_555
Ca23 O66 2.439354 1_545
Ca23 O58 2.572669 1_555
Ca23 O70 2.572669 1_545
Ca23 O61 2.610503 1_556
Ca23 O50 2.610503 1_645
Mg0 O34 2.085688 1_555
Mg0 O36 2.087419 1_554
Mg0 O31 2.088301 1_554
Mg0 O30 2.091456 1_555
Mg0 O28 2.092075 1_554
Mg0 O25 2.092098 1_564
Mg1 O32 2.084048 1_555
Mg1 O29 2.084838 1_555
Mg1 O26 2.085063 1_555
Mg1 O35 2.085078 1_555
Mg1 O33 2.085616 1_555
Mg1 O27 2.085973 1_555
Mg2 O44 2.084048 1_555
Mg2 O42 2.084838 1_555
Mg2 O37 2.085063 1_555
Mg2 O47 2.085078 1_555
Mg2 O45 2.085616 1_555
Mg2 O40 2.085973 1_555
Mg3 O46 2.085688 1_555
Mg3 O48 2.087419 1_455
Mg3 O43 2.088301 1_455
Mg3 O41 2.091456 1_555
Mg3 O39 2.092075 1_455
Mg3 O38 2.092098 1_445
Mg4 O56 2.084048 1_555
Mg4 O54 2.084838 1_555
Mg4 O49 2.085063 1_555
Mg4 O59 2.085078 1_555
Mg4 O57 2.085616 1_555
Mg4 O52 2.085973 1_555
Mg5 O58 2.085688 1_555
Mg5 O60 2.087419 1_655
Mg5 O55 2.088301 1_655
Mg5 O53 2.091456 1_555
Mg5 O51 2.092075 1_655
Mg5 O50 2.092098 1_645
Mg6 O70 2.085688 1_555
Mg6 O72 2.087419 1_556
Mg6 O67 2.088301 1_556
Mg6 O66 2.091456 1_555
Mg6 O64 2.092075 1_556
Mg6 O61 2.092098 1_566
Mg7 O68 2.084048 1_555
Mg7 O65 2.084838 1_555
Mg7 O62 2.085063 1_555
Mg7 O71 2.085078 1_555
Mg7 O69 2.085616 1_555
Mg7 O63 2.085973 1_555
B0 O53 1.394623 1_555
B0 O61 1.395613 1_556
B0 O39 1.402015 1_556
B1 O54 1.392018 1_555
B1 O62 1.392067 1_555
B1 O40 1.392295 1_555
B2 O67 1.391910 1_556
B2 O45 1.392428 1_555
B2 O59 1.392431 1_556
B3 O46 1.391671 1_555
B3 O60 1.391792 1_555
B3 O68 1.393151 1_555
B4 O65 1.392018 1_555
B4 O49 1.392067 1_555
B4 O27 1.392295 1_555
B5 O66 1.394623 1_555
B5 O50 1.395613 1_655
B5 O28 1.402015 1_655
B6 O55 1.391910 1_655
B6 O33 1.392428 1_555
B6 O71 1.392431 1_655
B7 O34 1.391671 1_555
B7 O72 1.391792 1_555
B7 O56 1.393151 1_555
B8 O29 1.392018 1_555
B8 O37 1.392067 1_555
B8 O63 1.392295 1_555
B9 O30 1.394623 1_555
B9 O38 1.395613 1_455
B9 O64 1.402015 1_455
B10 O43 1.391910 1_455
B10 O69 1.392428 1_555
B10 O35 1.392431 1_455
B11 O70 1.391671 1_555
B11 O36 1.391792 1_555
B11 O44 1.393151 1_555
B12 O41 1.394623 1_555
B12 O25 1.395613 1_554
B12 O51 1.402015 1_554
B13 O42 1.392018 1_555
B13 O26 1.392067 1_555
B13 O52 1.392295 1_555
B14 O31 1.391910 1_554
B14 O57 1.392428 1_555
B14 O47 1.392431 1_554
B15 O58 1.391671 1_555
B15 O48 1.391792 1_555
B15 O32 1.393151 1_555
C0 O4 1.291655 1_555
C0 O2 1.292859 1_554
C0 O0 1.293143 1_555
C1 O1 1.289409 1_555
C1 O3 1.293465 1_555
C1 O5 1.294902 1_555
C2 O10 1.291655 1_555
C2 O8 1.292859 1_455
C2 O6 1.293143 1_555
C3 O7 1.289409 1_555
C3 O9 1.293465 1_555
C3 O11 1.294902 1_555
C4 O16 1.291655 1_455
C4 O14 1.292859 1_555
C4 O12 1.293143 1_455
C5 O13 1.289409 1_555
C5 O15 1.293465 1_555
C5 O17 1.294902 1_555
C6 O22 1.291655 1_554
C6 O20 1.292859 1_555
C6 O18 1.293143 1_554
C7 O19 1.289409 1_555
C7 O21 1.293465 1_555
C7 O23 1.294902 1_555
