# generated using pymatgen
data_K3NdV2O8
_symmetry_space_group_name_H-M   'P 1'
_cell_length_a   6.06988700
_cell_length_b   7.68588800
_cell_length_c   10.04907714
_cell_angle_alpha   89.01792610
_cell_angle_beta   90.00000000
_cell_angle_gamma   90.00000000
_symmetry_Int_Tables_number   1
_chemical_formula_structural   K3NdV2O8
_chemical_formula_sum   'K6 Nd2 V4 O16'
_cell_volume   468.74542085
_cell_formula_units_Z   2
loop_
 _symmetry_equiv_pos_site_id
 _symmetry_equiv_pos_as_xyz
  1  'x, y, z'
loop_
 _atom_site_type_symbol
 _atom_site_label
 _atom_site_symmetry_multiplicity
 _atom_site_fract_x
 _atom_site_fract_y
 _atom_site_fract_z
 _atom_site_occupancy
  K  K0  1  0.25000000  0.14102800  0.08382600  1
  K  K1  1  0.75000000  0.85897200  0.91617400  1
  K  K2  1  0.25000000  0.69238800  0.41809400  1
  K  K3  1  0.75000000  0.30761200  0.58190600  1
  K  K4  1  0.25000000  0.99837100  0.69271600  1
  K  K5  1  0.75000000  0.00162900  0.30728400  1
  Nd  Nd0  1  0.75000000  0.50629000  0.21139400  1
  Nd  Nd1  1  0.25000000  0.49371000  0.78860600  1
  V  V0  1  0.25000000  0.26104500  0.41265400  1
  V  V1  1  0.75000000  0.73895500  0.58734600  1
  V  V2  1  0.25000000  0.68999200  0.07480600  1
  V  V3  1  0.75000000  0.31000800  0.92519400  1
  O  O0  1  0.98693700  0.65950200  0.66862900  1
  O  O1  1  0.48693700  0.34049800  0.33137100  1
  O  O2  1  0.01306300  0.34049800  0.33137100  1
  O  O3  1  0.51306300  0.65950200  0.66862900  1
  O  O4  1  0.25000000  0.32926900  0.57806000  1
  O  O5  1  0.75000000  0.67073100  0.42194000  1
  O  O6  1  0.25000000  0.03898300  0.40753400  1
  O  O7  1  0.75000000  0.96101700  0.59246600  1
  O  O8  1  0.98629000  0.25863000  0.83367200  1
  O  O9  1  0.48629000  0.74137000  0.16632800  1
  O  O10  1  0.01371000  0.74137000  0.16632800  1
  O  O11  1  0.51371000  0.25863000  0.83367200  1
  O  O12  1  0.75000000  0.52755800  0.96512200  1
  O  O13  1  0.25000000  0.47244200  0.03487800  1
  O  O14  1  0.75000000  0.20595900  0.08055800  1
  O  O15  1  0.25000000  0.79404100  0.91944200  1
loop_
_geom_bond_atom_site_label_1
_geom_bond_atom_site_label_2
_geom_bond_distance
_geom_bond_site_symmetry_2
K0 O13 2.585978 1_555
K1 O12 2.585978 1_555
K2 O6 2.664185 1_565
K2 O10 2.926968 1_555
K2 O9 2.926968 1_555
K2 O3 2.988355 1_555
K2 O0 2.988355 1_455
K2 O5 3.039714 1_555
K2 O5 3.039714 1_455
K2 O4 3.196776 1_555
K2 O1 3.197411 1_555
K2 O2 3.197411 1_555
K3 O7 2.664185 1_545
K3 O11 2.926968 1_555
K3 O8 2.926968 1_555
K3 O2 2.988355 1_655
K3 O1 2.988355 1_555
K3 O4 3.039714 1_555
K3 O4 3.039714 1_655
K3 O5 3.196776 1_555
K3 O0 3.197411 1_555
K3 O3 3.197411 1_555
K4 O15 2.744946 1_555
K4 O4 2.774019 1_565
K4 O6 2.877441 1_565
K4 O8 2.943982 1_465
K4 O11 2.943982 1_565
K4 O3 3.068113 1_555
K4 O0 3.068113 1_455
K4 O7 3.212183 1_455
K4 O7 3.212183 1_555
K5 O14 2.744946 1_555
K5 O5 2.774019 1_545
K5 O7 2.877441 1_545
K5 O9 2.943982 1_545
K5 O10 2.943982 1_645
K5 O2 3.068113 1_655
K5 O1 3.068113 1_555
K5 O6 3.212183 1_655
K5 O6 3.212183 1_555
Nd0 O2 2.361003 1_655
Nd0 O1 2.361003 1_555
Nd0 O9 2.450260 1_555
Nd0 O10 2.450260 1_655
Nd0 O12 2.477402 1_554
Nd0 O5 2.483068 1_555
Nd0 O14 2.676001 1_555
Nd1 O3 2.361003 1_555
Nd1 O0 2.361003 1_455
Nd1 O11 2.450260 1_555
Nd1 O8 2.450260 1_455
Nd1 O13 2.477402 1_556
Nd1 O4 2.483068 1_555
Nd1 O15 2.676001 1_555
O0 V1 1.758230 1_555
O1 V0 1.758230 1_555
O2 V0 1.758230 1_555
O3 V1 1.758230 1_555
O4 V0 1.751476 1_555
O5 V1 1.751476 1_555
O6 V0 1.708400 1_555
O7 V1 1.708400 1_555
O8 V3 1.752523 1_555
O9 V2 1.752523 1_555
O10 V2 1.752523 1_555
O11 V3 1.752523 1_555
O12 V3 1.726207 1_555
O13 V2 1.726207 1_555
O14 V3 1.741919 1_554
O15 V2 1.741919 1_556
