# generated using pymatgen
data_MgSn
_symmetry_space_group_name_H-M   'P 1'
_cell_length_a   13.67414071
_cell_length_b   13.67414071
_cell_length_c   14.16214953
_cell_angle_alpha   74.70180336
_cell_angle_beta   74.70180336
_cell_angle_gamma   27.82035652
_symmetry_Int_Tables_number   1
_chemical_formula_structural   MgSn
_chemical_formula_sum   'Mg24 Sn24'
_cell_volume   1189.32586354
_cell_formula_units_Z   24
loop_
 _symmetry_equiv_pos_site_id
 _symmetry_equiv_pos_as_xyz
  1  'x, y, z'
loop_
 _atom_site_type_symbol
 _atom_site_label
 _atom_site_symmetry_multiplicity
 _atom_site_fract_x
 _atom_site_fract_y
 _atom_site_fract_z
 _atom_site_occupancy
  Mg  Mg0_0  1  0.30679100  0.30679100  0.13950700  1
  Mg  Mg0_1  1  0.30679100  0.30679100  0.63950700  1
  Mg  Mg0_2  1  0.30679100  0.80679100  0.13950700  1
  Mg  Mg0_3  1  0.30679100  0.80679100  0.63950700  1
  Mg  Mg0_4  1  0.80679100  0.30679100  0.13950700  1
  Mg  Mg0_5  1  0.80679100  0.30679100  0.63950700  1
  Mg  Mg0_6  1  0.80679100  0.80679100  0.13950700  1
  Mg  Mg0_7  1  0.80679100  0.80679100  0.63950700  1
  Mg  Mg1_0  1  0.16399650  0.16399650  0.16782800  1
  Mg  Mg1_1  1  0.16399650  0.16399650  0.66782800  1
  Mg  Mg1_2  1  0.16399650  0.66399650  0.16782800  1
  Mg  Mg1_3  1  0.16399650  0.66399650  0.66782800  1
  Mg  Mg1_4  1  0.66399650  0.16399650  0.16782800  1
  Mg  Mg1_5  1  0.66399650  0.16399650  0.66782800  1
  Mg  Mg1_6  1  0.66399650  0.66399650  0.16782800  1
  Mg  Mg1_7  1  0.66399650  0.66399650  0.66782800  1
  Mg  Mg2_0  1  0.13902050  0.13902050  0.46847800  1
  Mg  Mg2_1  1  0.13902050  0.13902050  0.96847800  1
  Mg  Mg2_2  1  0.13902050  0.63902050  0.46847800  1
  Mg  Mg2_3  1  0.13902050  0.63902050  0.96847800  1
  Mg  Mg2_4  1  0.63902050  0.13902050  0.46847800  1
  Mg  Mg2_5  1  0.63902050  0.13902050  0.96847800  1
  Mg  Mg2_6  1  0.63902050  0.63902050  0.46847800  1
  Mg  Mg2_7  1  0.63902050  0.63902050  0.96847800  1
  Sn  Sn0_0  1  0.49710200  0.49710200  0.00850900  1
  Sn  Sn0_1  1  0.49710200  0.49710200  0.50850900  1
  Sn  Sn0_2  1  0.49710200  0.99710200  0.00850900  1
  Sn  Sn0_3  1  0.49710200  0.99710200  0.50850900  1
  Sn  Sn0_4  1  0.99710200  0.49710200  0.00850900  1
  Sn  Sn0_5  1  0.99710200  0.49710200  0.50850900  1
  Sn  Sn0_6  1  0.99710200  0.99710200  0.00850900  1
  Sn  Sn0_7  1  0.99710200  0.99710200  0.50850900  1
  Sn  Sn1_0  1  0.47193600  0.47193600  0.30056450  1
  Sn  Sn1_1  1  0.47193600  0.47193600  0.80056450  1
  Sn  Sn1_2  1  0.47193600  0.97193600  0.30056450  1
  Sn  Sn1_3  1  0.47193600  0.97193600  0.80056450  1
  Sn  Sn1_4  1  0.97193600  0.47193600  0.30056450  1
  Sn  Sn1_5  1  0.97193600  0.47193600  0.80056450  1
  Sn  Sn1_6  1  0.97193600  0.97193600  0.30056450  1
  Sn  Sn1_7  1  0.97193600  0.97193600  0.80056450  1
  Sn  Sn2_0  1  0.33782050  0.33782050  0.33178000  1
  Sn  Sn2_1  1  0.33782050  0.33782050  0.83178000  1
  Sn  Sn2_2  1  0.33782050  0.83782050  0.33178000  1
  Sn  Sn2_3  1  0.33782050  0.83782050  0.83178000  1
  Sn  Sn2_4  1  0.83782050  0.33782050  0.33178000  1
  Sn  Sn2_5  1  0.83782050  0.33782050  0.83178000  1
  Sn  Sn2_6  1  0.83782050  0.83782050  0.33178000  1
  Sn  Sn2_7  1  0.83782050  0.83782050  0.83178000  1
loop_
_geom_bond_atom_site_label_1
_geom_bond_atom_site_label_2
_geom_bond_distance
_geom_bond_site_symmetry_2
Mg0_0 Sn2_0 3.051652 1_555
Mg0_0 Sn1_2 3.191414 1_545
Mg0_0 Sn1_4 3.191414 1_455
Mg0_0 Sn0_2 3.201893 1_545
Mg0_0 Sn0_4 3.201893 1_455
Mg0_0 Mg2_5 3.234035 1_554
Mg0_0 Mg2_3 3.234035 1_554
Mg0_0 Mg0_6 3.287270 1_545
Mg0_0 Mg0_6 3.287270 1_455
Mg0_0 Mg1_4 3.403250 1_555
Mg0_0 Mg1_2 3.403250 1_555
Mg0_1 Sn2_1 3.051652 1_555
Mg0_1 Sn1_3 3.191414 1_545
Mg0_1 Sn1_5 3.191414 1_455
Mg0_1 Sn0_3 3.201893 1_545
Mg0_1 Sn0_5 3.201893 1_455
Mg0_1 Mg2_4 3.234035 1_555
Mg0_1 Mg2_2 3.234035 1_555
Mg0_1 Mg0_7 3.287270 1_455
Mg0_1 Mg0_7 3.287270 1_545
Mg0_1 Mg1_5 3.403250 1_555
Mg0_1 Mg1_3 3.403250 1_555
Mg0_2 Sn2_2 3.051652 1_555
Mg0_2 Sn1_6 3.191414 1_455
Mg0_2 Sn1_0 3.191414 1_555
Mg0_2 Sn0_6 3.201893 1_455
Mg0_2 Sn0_0 3.201893 1_555
Mg0_2 Mg2_1 3.234035 1_564
Mg0_2 Mg2_7 3.234035 1_554
Mg0_2 Mg0_4 3.287270 1_555
Mg0_2 Mg0_4 3.287270 1_465
Mg0_2 Mg1_6 3.403250 1_555
Mg0_2 Mg1_0 3.403250 1_565
Mg0_3 Sn2_3 3.051652 1_555
Mg0_3 Sn1_1 3.191414 1_555
Mg0_3 Sn1_7 3.191414 1_455
Mg0_3 Sn0_1 3.201893 1_555
Mg0_3 Sn0_7 3.201893 1_455
Mg0_3 Mg2_0 3.234035 1_565
Mg0_3 Mg2_6 3.234035 1_555
Mg0_3 Mg0_5 3.287270 1_555
Mg0_3 Mg0_5 3.287270 1_465
Mg0_3 Mg1_7 3.403250 1_555
Mg0_3 Mg1_1 3.403250 1_565
Mg0_4 Sn2_4 3.051652 1_555
Mg0_4 Sn1_6 3.191414 1_545
Mg0_4 Sn1_0 3.191414 1_555
Mg0_4 Sn0_6 3.201893 1_545
Mg0_4 Sn0_0 3.201893 1_555
Mg0_4 Mg2_7 3.234035 1_554
Mg0_4 Mg2_1 3.234035 1_654
Mg0_4 Mg1_6 3.403250 1_555
Mg0_4 Mg1_0 3.403250 1_655
Mg0_5 Sn2_5 3.051652 1_555
Mg0_5 Sn1_1 3.191414 1_555
Mg0_5 Sn1_7 3.191414 1_545
Mg0_5 Sn0_1 3.201893 1_555
Mg0_5 Sn0_7 3.201893 1_545
Mg0_5 Mg2_6 3.234035 1_555
Mg0_5 Mg2_0 3.234035 1_655
Mg0_5 Mg1_7 3.403250 1_555
Mg0_5 Mg1_1 3.403250 1_655
Mg0_6 Sn2_6 3.051652 1_555
Mg0_6 Sn1_2 3.191414 1_555
Mg0_6 Sn1_4 3.191414 1_555
Mg0_6 Sn0_2 3.201893 1_555
Mg0_6 Sn0_4 3.201893 1_555
Mg0_6 Mg2_5 3.234035 1_564
Mg0_6 Mg2_3 3.234035 1_654
Mg0_6 Mg1_4 3.403250 1_565
Mg0_6 Mg1_2 3.403250 1_655
Mg0_7 Sn2_7 3.051652 1_555
Mg0_7 Sn1_3 3.191414 1_555
Mg0_7 Sn1_5 3.191414 1_555
Mg0_7 Sn0_3 3.201893 1_555
Mg0_7 Sn0_5 3.201893 1_555
Mg0_7 Mg2_4 3.234035 1_565
Mg0_7 Mg2_2 3.234035 1_655
Mg0_7 Mg1_5 3.403250 1_565
Mg0_7 Mg1_3 3.403250 1_655
Mg1_0 Mg2_1 3.070469 1_554
Mg1_0 Sn2_2 3.103150 1_545
Mg1_0 Sn2_4 3.103150 1_455
Mg1_0 Sn0_4 3.154910 1_455
Mg1_0 Sn0_2 3.154910 1_545
Mg1_0 Sn1_4 3.189483 1_455
Mg1_0 Sn1_2 3.189483 1_545
Mg1_0 Mg1_6 3.287270 1_455
Mg1_0 Mg1_6 3.287270 1_545
Mg1_1 Mg2_0 3.070469 1_555
Mg1_1 Sn2_3 3.103150 1_545
Mg1_1 Sn2_5 3.103150 1_455
Mg1_1 Sn0_5 3.154910 1_455
Mg1_1 Sn0_3 3.154910 1_545
Mg1_1 Sn1_5 3.189483 1_455
Mg1_1 Sn1_3 3.189483 1_545
Mg1_1 Mg1_7 3.287270 1_455
Mg1_1 Mg1_7 3.287270 1_545
Mg1_2 Mg2_3 3.070469 1_554
Mg1_2 Sn2_0 3.103150 1_555
Mg1_2 Sn2_6 3.103150 1_455
Mg1_2 Sn0_0 3.154910 1_555
Mg1_2 Sn0_6 3.154910 1_455
Mg1_2 Sn1_0 3.189483 1_555
Mg1_2 Sn1_6 3.189483 1_455
Mg1_2 Mg1_4 3.287270 1_555
Mg1_2 Mg1_4 3.287270 1_465
Mg1_3 Mg2_2 3.070469 1_555
Mg1_3 Sn2_7 3.103150 1_455
Mg1_3 Sn2_1 3.103150 1_555
Mg1_3 Sn0_1 3.154910 1_555
Mg1_3 Sn0_7 3.154910 1_455
Mg1_3 Sn1_7 3.189483 1_455
Mg1_3 Sn1_1 3.189483 1_555
Mg1_3 Mg1_5 3.287270 1_555
Mg1_3 Mg1_5 3.287270 1_465
Mg1_4 Mg2_5 3.070469 1_554
Mg1_4 Sn2_6 3.103150 1_545
Mg1_4 Sn2_0 3.103150 1_555
Mg1_4 Sn0_0 3.154910 1_555
Mg1_4 Sn0_6 3.154910 1_545
Mg1_4 Sn1_0 3.189483 1_555
Mg1_4 Sn1_6 3.189483 1_545
Mg1_5 Mg2_4 3.070469 1_555
Mg1_5 Sn2_7 3.103150 1_545
Mg1_5 Sn2_1 3.103150 1_555
Mg1_5 Sn0_7 3.154910 1_545
Mg1_5 Sn0_1 3.154910 1_555
Mg1_5 Sn1_7 3.189483 1_545
Mg1_5 Sn1_1 3.189483 1_555
Mg1_6 Mg2_7 3.070469 1_554
Mg1_6 Sn2_2 3.103150 1_555
Mg1_6 Sn2_4 3.103150 1_555
Mg1_6 Sn0_4 3.154910 1_555
Mg1_6 Sn0_2 3.154910 1_555
Mg1_6 Sn1_4 3.189483 1_555
Mg1_6 Sn1_2 3.189483 1_555
Mg1_7 Mg2_6 3.070469 1_555
Mg1_7 Sn2_3 3.103150 1_555
Mg1_7 Sn2_5 3.103150 1_555
Mg1_7 Sn0_5 3.154910 1_555
Mg1_7 Sn0_3 3.154910 1_555
Mg1_7 Sn1_5 3.189483 1_555
Mg1_7 Sn1_3 3.189483 1_555
Mg2_0 Sn2_2 3.118839 1_545
Mg2_0 Sn2_4 3.118839 1_455
Mg2_0 Sn1_4 3.218049 1_455
Mg2_0 Sn1_2 3.218049 1_545
Mg2_0 Mg2_6 3.287270 1_545
Mg2_0 Mg2_6 3.287270 1_455
Mg2_0 Sn0_5 3.484147 1_455
Mg2_0 Sn0_3 3.484147 1_545
Mg2_1 Sn2_3 3.118839 1_545
Mg2_1 Sn2_5 3.118839 1_455
Mg2_1 Sn1_5 3.218049 1_455
Mg2_1 Sn1_3 3.218049 1_545
Mg2_1 Mg2_7 3.287270 1_545
Mg2_1 Mg2_7 3.287270 1_455
Mg2_1 Sn0_4 3.484147 1_456
Mg2_1 Sn0_2 3.484147 1_546
Mg2_2 Sn2_6 3.118839 1_455
Mg2_2 Sn2_0 3.118839 1_555
Mg2_2 Sn1_0 3.218049 1_555
Mg2_2 Sn1_6 3.218049 1_455
Mg2_2 Mg2_4 3.287270 1_555
Mg2_2 Mg2_4 3.287270 1_465
Mg2_2 Sn0_7 3.484147 1_455
Mg2_2 Sn0_1 3.484147 1_555
Mg2_3 Sn2_7 3.118839 1_455
Mg2_3 Sn2_1 3.118839 1_555
Mg2_3 Sn1_7 3.218049 1_455
Mg2_3 Sn1_1 3.218049 1_555
Mg2_3 Mg2_5 3.287270 1_555
Mg2_3 Mg2_5 3.287270 1_465
Mg2_3 Sn0_0 3.484147 1_556
Mg2_3 Sn0_6 3.484147 1_456
Mg2_4 Sn2_0 3.118839 1_555
Mg2_4 Sn2_6 3.118839 1_545
Mg2_4 Sn1_0 3.218049 1_555
Mg2_4 Sn1_6 3.218049 1_545
Mg2_4 Sn0_7 3.484147 1_545
Mg2_4 Sn0_1 3.484147 1_555
Mg2_5 Sn2_7 3.118839 1_545
Mg2_5 Sn2_1 3.118839 1_555
Mg2_5 Sn1_7 3.218049 1_545
Mg2_5 Sn1_1 3.218049 1_555
Mg2_5 Sn0_0 3.484147 1_556
Mg2_5 Sn0_6 3.484147 1_546
Mg2_6 Sn2_2 3.118839 1_555
Mg2_6 Sn2_4 3.118839 1_555
Mg2_6 Sn1_4 3.218049 1_555
Mg2_6 Sn1_2 3.218049 1_555
Mg2_6 Sn0_5 3.484147 1_555
Mg2_6 Sn0_3 3.484147 1_555
Mg2_7 Sn2_3 3.118839 1_555
Mg2_7 Sn2_5 3.118839 1_555
Mg2_7 Sn1_5 3.218049 1_555
Mg2_7 Sn1_3 3.218049 1_555
Mg2_7 Sn0_4 3.484147 1_556
Mg2_7 Sn0_2 3.484147 1_556
Sn0_0 Sn1_1 3.191947 1_554
Sn0_0 Sn0_6 3.287270 1_545
Sn0_0 Sn0_6 3.287270 1_455
Sn0_0 Sn2_5 3.389506 1_554
Sn0_0 Sn2_3 3.389506 1_554
Sn0_1 Sn1_0 3.191947 1_555
Sn0_1 Sn0_7 3.287270 1_545
Sn0_1 Sn0_7 3.287270 1_455
Sn0_1 Sn2_4 3.389506 1_555
Sn0_1 Sn2_2 3.389506 1_555
Sn0_2 Sn1_3 3.191947 1_554
Sn0_2 Sn0_4 3.287270 1_555
Sn0_2 Sn0_4 3.287270 1_465
Sn0_2 Sn2_1 3.389506 1_564
Sn0_2 Sn2_7 3.389506 1_554
Sn0_3 Sn1_2 3.191947 1_555
Sn0_3 Sn0_5 3.287270 1_555
Sn0_3 Sn0_5 3.287270 1_465
Sn0_3 Sn2_0 3.389506 1_565
Sn0_3 Sn2_6 3.389506 1_555
Sn0_4 Sn1_5 3.191947 1_554
Sn0_4 Sn2_1 3.389506 1_654
Sn0_4 Sn2_7 3.389506 1_554
Sn0_5 Sn1_4 3.191947 1_555
Sn0_5 Sn2_6 3.389506 1_555
Sn0_5 Sn2_0 3.389506 1_655
Sn0_6 Sn1_7 3.191947 1_554
Sn0_6 Sn2_5 3.389506 1_564
Sn0_6 Sn2_3 3.389506 1_654
Sn0_7 Sn1_6 3.191947 1_555
Sn0_7 Sn2_4 3.389506 1_565
Sn0_7 Sn2_2 3.389506 1_655
Sn1_0 Sn1_6 3.287270 1_455
Sn1_0 Sn1_6 3.287270 1_545
Sn1_1 Sn1_7 3.287270 1_545
Sn1_1 Sn1_7 3.287270 1_455
Sn1_2 Sn1_4 3.287270 1_555
Sn1_2 Sn1_4 3.287270 1_465
Sn1_3 Sn1_5 3.287270 1_555
Sn1_3 Sn1_5 3.287270 1_465
Sn2_0 Sn2_6 3.287270 1_455
Sn2_0 Sn2_6 3.287270 1_545
Sn2_1 Sn2_7 3.287270 1_455
Sn2_1 Sn2_7 3.287270 1_545
Sn2_2 Sn2_4 3.287270 1_555
Sn2_2 Sn2_4 3.287270 1_465
Sn2_3 Sn2_5 3.287270 1_555
Sn2_3 Sn2_5 3.287270 1_465
