# generated using pymatgen
data_Y(FeO2)2
_symmetry_space_group_name_H-M   'P 1'
_cell_length_a   3.52179180
_cell_length_b   8.78268162
_cell_length_c   6.08813628
_cell_angle_alpha   96.12671624
_cell_angle_beta   90.44531976
_cell_angle_gamma   77.73221221
_symmetry_Int_Tables_number   1
_chemical_formula_structural   Y(FeO2)2
_chemical_formula_sum   'Y2 Fe4 O8'
_cell_volume   182.93819042
_cell_formula_units_Z   2
loop_
 _symmetry_equiv_pos_site_id
 _symmetry_equiv_pos_as_xyz
  1  'x, y, z'
loop_
 _atom_site_type_symbol
 _atom_site_label
 _atom_site_symmetry_multiplicity
 _atom_site_fract_x
 _atom_site_fract_y
 _atom_site_fract_z
 _atom_site_occupancy
  Y  Y0  1  0.50679600  0.98413900  0.49482300  1
  Y  Y1  1  0.99346600  0.01582000  0.00531000  1
  Fe  Fe0  1  0.32084000  0.36039500  0.88626200  1
  Fe  Fe1  1  0.17900500  0.63962000  0.61363800  1
  Fe  Fe2  1  0.81685600  0.35509200  0.39368700  1
  Fe  Fe3  1  0.68306500  0.64486400  0.10634500  1
  O  O0  1  0.19308000  0.60447400  0.92776200  1
  O  O1  1  0.68396300  0.62669900  0.44890200  1
  O  O2  1  0.30669400  0.39549000  0.57200900  1
  O  O3  1  0.81577300  0.37343300  0.05097300  1
  O  O4  1  0.43241100  0.13265100  0.84007700  1
  O  O5  1  0.93563300  0.11556300  0.36457900  1
  O  O6  1  0.06777400  0.86735900  0.66007500  1
  O  O7  1  0.56464400  0.88440000  0.13556000  1
loop_
_geom_bond_atom_site_label_1
_geom_bond_atom_site_label_2
_geom_bond_distance
_geom_bond_site_symmetry_2
Fe0 O4 1.944721 1_555
Fe0 O2 1.968692 1_555
Fe0 O3 2.022388 1_556
Fe0 O3 2.024664 1_456
Fe0 O0 2.082754 1_555
Fe1 O6 1.944754 1_555
Fe1 O0 1.968034 1_555
Fe1 O1 2.022604 1_455
Fe1 O1 2.024594 1_555
Fe1 O2 2.083200 1_555
Fe2 O5 2.044402 1_555
Fe2 O2 2.051778 1_555
Fe2 O2 2.104587 1_655
Fe2 O3 2.109682 1_555
Fe2 O1 2.319309 1_555
Fe3 O7 2.044465 1_555
Fe3 O0 2.052169 1_654
Fe3 O0 2.105789 1_554
Fe3 O1 2.108463 1_555
Fe3 O3 2.317855 1_555
O4 Y1 2.301501 1_556
O4 Y1 2.317999 1_456
O4 Y0 2.338002 1_545
O5 Y1 2.261675 1_555
O5 Y0 2.278412 1_645
O5 Y0 2.279646 1_545
O6 Y0 2.301211 1_455
O6 Y0 2.317980 1_555
O6 Y1 2.337709 1_466
O7 Y0 2.261632 1_555
O7 Y1 2.278454 1_465
O7 Y1 2.279596 1_565
