# generated using pymatgen
data_SrMg6Si
_symmetry_space_group_name_H-M   'P 1'
_cell_length_a   6.75277847
_cell_length_b   6.75277847
_cell_length_c   4.96584000
_cell_angle_alpha   90.00000000
_cell_angle_beta   90.00000000
_cell_angle_gamma   119.69181404
_symmetry_Int_Tables_number   1
_chemical_formula_structural   SrMg6Si
_chemical_formula_sum   'Sr1 Mg6 Si1'
_cell_volume   196.71102225
_cell_formula_units_Z   1
loop_
 _symmetry_equiv_pos_site_id
 _symmetry_equiv_pos_as_xyz
  1  'x, y, z'
loop_
 _atom_site_type_symbol
 _atom_site_label
 _atom_site_symmetry_multiplicity
 _atom_site_fract_x
 _atom_site_fract_y
 _atom_site_fract_z
 _atom_site_occupancy
  Sr  Sr0  1  0.67500400  0.32499600  0.50000000  1
  Mg  Mg0  1  0.84694000  0.71195100  0.00000000  1
  Mg  Mg1  1  0.28804900  0.15306000  0.00000000  1
  Mg  Mg2  1  0.33204900  0.66795100  0.00000000  1
  Mg  Mg3  1  0.68710700  0.84815400  0.50000000  1
  Mg  Mg4  1  0.15184600  0.31289300  0.50000000  1
  Mg  Mg5  1  0.16409200  0.83590800  0.50000000  1
  Si  Si0  1  0.85491300  0.14508700  0.00000000  1
loop_
_geom_bond_atom_site_label_1
_geom_bond_atom_site_label_2
_geom_bond_distance
_geom_bond_site_symmetry_2
Mg0 Si0 2.898580 1_565
Mg0 Mg5 3.110674 1_654
Mg0 Mg5 3.110674 1_655
Mg0 Mg2 3.339759 1_555
Mg0 Sr0 3.366789 1_555
Mg0 Sr0 3.366789 1_554
Mg0 Mg2 3.432726 1_655
Mg1 Si0 2.898580 1_455
Mg1 Mg5 3.110674 1_544
Mg1 Mg5 3.110674 1_545
Mg1 Mg2 3.339759 1_555
Mg1 Sr0 3.366789 1_554
Mg1 Sr0 3.366789 1_555
Mg1 Mg2 3.432726 1_545
Mg2 Mg5 3.164168 1_554
Mg2 Mg5 3.164168 1_555
Mg2 Mg4 3.240973 1_554
Mg2 Mg4 3.240973 1_555
Mg2 Mg3 3.240973 1_555
Mg2 Mg3 3.240973 1_554
Mg3 Si0 3.036204 1_565
Mg3 Si0 3.036204 1_566
Mg3 Sr0 3.261264 1_565
Mg3 Mg5 3.262726 1_655
Mg3 Mg5 3.491582 1_555
Mg3 Sr0 3.493009 1_555
Mg4 Si0 3.036204 1_455
Mg4 Si0 3.036204 1_456
Mg4 Sr0 3.261264 1_455
Mg4 Mg5 3.262726 1_545
Mg4 Mg5 3.491582 1_555
Mg4 Sr0 3.493009 1_555
Mg5 Sr0 3.394498 1_455
Mg5 Sr0 3.394498 1_565
Si0 Sr0 3.252531 1_554
Si0 Sr0 3.252531 1_555
