# generated using pymatgen
data_Ca4SeN4
_symmetry_space_group_name_H-M   'P 1'
_cell_length_a   6.35412040
_cell_length_b   6.32013079
_cell_length_c   8.91579142
_cell_angle_alpha   82.76934550
_cell_angle_beta   69.68290799
_cell_angle_gamma   71.07897420
_symmetry_Int_Tables_number   1
_chemical_formula_structural   Ca4SeN4
_chemical_formula_sum   'Ca8 Se2 N8'
_cell_volume   317.59376530
_cell_formula_units_Z   2
loop_
 _symmetry_equiv_pos_site_id
 _symmetry_equiv_pos_as_xyz
  1  'x, y, z'
loop_
 _atom_site_type_symbol
 _atom_site_label
 _atom_site_symmetry_multiplicity
 _atom_site_fract_x
 _atom_site_fract_y
 _atom_site_fract_z
 _atom_site_occupancy
  Ca  Ca0  1  0.82372600  0.59856400  0.16323000  1
  Ca  Ca1  1  0.17627400  0.40143600  0.83677000  1
  Ca  Ca2  1  0.70506000  0.20712000  0.99997700  1
  Ca  Ca3  1  0.29494000  0.79288000  0.00002300  1
  Ca  Ca4  1  0.70940600  0.49139100  0.57768600  1
  Ca  Ca5  1  0.29059400  0.50860900  0.42231400  1
  Ca  Ca6  1  0.23665100  0.98533800  0.57519800  1
  Ca  Ca7  1  0.76334900  0.01466200  0.42480200  1
  Se  Se0  1  0.79876900  0.80673900  0.79592000  1
  Se  Se1  1  0.20123100  0.19326100  0.20408000  1
  N  N0  1  0.95118300  0.75539500  0.58954600  1
  N  N1  1  0.04881700  0.24460500  0.41045400  1
  N  N2  1  0.01710000  0.82621400  0.88126600  1
  N  N3  1  0.98290000  0.17378600  0.11873400  1
  N  N4  1  0.72890200  0.54755400  0.88153700  1
  N  N5  1  0.27109800  0.45244600  0.11846300  1
  N  N6  1  0.56197800  0.74139800  0.39732200  1
  N  N7  1  0.43802200  0.25860200  0.60267800  1
loop_
_geom_bond_atom_site_label_1
_geom_bond_atom_site_label_2
_geom_bond_distance
_geom_bond_site_symmetry_2
Ca0 N6 2.242136 1_555
Ca0 N3 2.572201 1_555
Ca0 N5 2.587513 1_655
Ca0 N2 2.826775 1_654
Ca0 N4 2.855753 1_554
Ca1 N7 2.242136 1_555
Ca1 N2 2.572201 1_555
Ca1 N4 2.587513 1_455
Ca1 N3 2.826775 1_456
Ca1 N5 2.855753 1_556
Ca2 N3 2.298460 1_556
Ca2 N4 2.301249 1_555
Ca2 N5 2.596201 1_556
Ca2 N2 2.633530 1_645
Ca3 N2 2.298460 1_554
Ca3 N5 2.301249 1_555
Ca3 N4 2.596201 1_554
Ca3 N3 2.633530 1_465
Ca4 N6 2.325228 1_555
Ca4 N1 2.340489 1_655
Ca4 N7 2.546335 1_555
Ca4 N0 2.641020 1_555
Ca4 N4 2.825605 1_555
Ca5 N7 2.325228 1_555
Ca5 N0 2.340489 1_455
Ca5 N6 2.546335 1_555
Ca5 N1 2.641020 1_555
Ca5 N5 2.825605 1_555
Ca6 N6 2.331791 1_555
Ca6 N1 2.368573 1_565
Ca6 N7 2.537194 1_565
Ca6 N0 2.630632 1_455
Ca6 N2 2.824813 1_555
Ca7 N7 2.331791 1_555
Ca7 N0 2.368573 1_545
Ca7 N6 2.537194 1_545
Ca7 N1 2.630632 1_655
Ca7 N3 2.824813 1_555
N0 Se0 1.771388 1_555
N1 Se1 1.771388 1_555
N2 Se0 1.840149 1_455
N3 Se1 1.840149 1_655
N4 Se0 1.839734 1_555
N5 Se1 1.839734 1_555
