# generated using pymatgen
data_C2S3
_symmetry_space_group_name_H-M   'P 1'
_cell_length_a   6.11475404
_cell_length_b   6.70017000
_cell_length_c   11.14572829
_cell_angle_alpha   90.00000000
_cell_angle_beta   103.48484315
_cell_angle_gamma   90.00000000
_symmetry_Int_Tables_number   1
_chemical_formula_structural   C2S3
_chemical_formula_sum   'C8 S12'
_cell_volume   444.05048456
_cell_formula_units_Z   4
loop_
 _symmetry_equiv_pos_site_id
 _symmetry_equiv_pos_as_xyz
  1  'x, y, z'
loop_
 _atom_site_type_symbol
 _atom_site_label
 _atom_site_symmetry_multiplicity
 _atom_site_fract_x
 _atom_site_fract_y
 _atom_site_fract_z
 _atom_site_occupancy
  C  C0  1  0.39335700  0.99538500  0.46264700  1
  C  C1  1  0.60664300  0.00461500  0.53735300  1
  C  C2  1  0.10664300  0.49538500  0.03735300  1
  C  C3  1  0.89335700  0.50461500  0.96264700  1
  C  C4  1  0.89159800  0.19379700  0.10229800  1
  C  C5  1  0.10840200  0.80620300  0.89770200  1
  C  C6  1  0.60840200  0.69379700  0.39770200  1
  C  C7  1  0.39159800  0.30620300  0.60229800  1
  S  S0  1  0.33966600  0.79931800  0.35861500  1
  S  S1  1  0.66033400  0.20068200  0.64138600  1
  S  S2  1  0.16033400  0.29931800  0.14138500  1
  S  S3  1  0.83966600  0.70068200  0.85861400  1
  S  S4  1  0.81928800  0.99732000  0.17334600  1
  S  S5  1  0.18071200  0.00268000  0.82665400  1
  S  S6  1  0.68071200  0.49732000  0.32665400  1
  S  S7  1  0.31928800  0.50268000  0.67334600  1
  S  S8  1  0.29269100  0.68111000  0.01778800  1
  S  S9  1  0.70730900  0.31889000  0.98221200  1
  S  S10  1  0.20730900  0.18111000  0.48221200  1
  S  S11  1  0.79269100  0.81889000  0.51778800  1
loop_
_geom_bond_atom_site_label_1
_geom_bond_atom_site_label_2
_geom_bond_distance
_geom_bond_site_symmetry_2
C0 C1 1.375352 1_565
C0 S0 1.732189 1_555
C0 S10 1.733775 1_565
C1 S1 1.732196 1_555
C1 S11 1.733775 1_545
C2 C3 1.375352 1_454
C2 S2 1.732189 1_555
C2 S8 1.733775 1_555
C3 S3 1.732196 1_555
C3 S9 1.733775 1_555
C4 S4 1.648897 1_545
C4 S2 1.748161 1_655
C4 S9 1.749390 1_554
C5 S5 1.648897 1_565
C5 S3 1.748161 1_455
C5 S8 1.749390 1_556
C6 S6 1.648897 1_555
C6 S0 1.748161 1_555
C6 S11 1.749390 1_555
C7 S7 1.648897 1_555
C7 S1 1.748161 1_555
C7 S10 1.749390 1_555
