# generated using pymatgen
data_LaAlPt
_symmetry_space_group_name_H-M   'P 1'
_cell_length_a   4.57807390
_cell_length_b   7.31232052
_cell_length_c   7.78403493
_cell_angle_alpha   90.00000000
_cell_angle_beta   90.00000000
_cell_angle_gamma   90.00000000
_symmetry_Int_Tables_number   1
_chemical_formula_structural   LaAlPt
_chemical_formula_sum   'La4 Al4 Pt4'
_cell_volume   260.58102885
_cell_formula_units_Z   4
loop_
 _symmetry_equiv_pos_site_id
 _symmetry_equiv_pos_as_xyz
  1  'x, y, z'
loop_
 _atom_site_type_symbol
 _atom_site_label
 _atom_site_symmetry_multiplicity
 _atom_site_fract_x
 _atom_site_fract_y
 _atom_site_fract_z
 _atom_site_occupancy
  La  La0  1  0.25000000  0.03955617  0.67413940  1
  La  La1  1  0.25000000  0.53955617  0.82586060  1
  La  La2  1  0.75000000  0.96044383  0.32586060  1
  La  La3  1  0.75000000  0.46044383  0.17413940  1
  Al  Al0  1  0.25000000  0.13903973  0.06647470  1
  Al  Al1  1  0.25000000  0.63903973  0.43352530  1
  Al  Al2  1  0.75000000  0.86096027  0.93352530  1
  Al  Al3  1  0.75000000  0.36096027  0.56647470  1
  Pt  Pt0  1  0.25000000  0.28917470  0.38101423  1
  Pt  Pt1  1  0.25000000  0.78917470  0.11898577  1
  Pt  Pt2  1  0.75000000  0.71082530  0.61898577  1
  Pt  Pt3  1  0.75000000  0.21082530  0.88101423  1
loop_
_geom_bond_atom_site_label_1
_geom_bond_atom_site_label_2
_geom_bond_distance
_geom_bond_site_symmetry_2
La0 Pt0 2.921956 1_555
La0 Pt3 3.066148 1_455
La0 Pt3 3.066148 1_555
La0 Pt2 3.346967 1_445
La0 Pt2 3.346967 1_545
La1 Pt1 2.921956 1_556
La1 Pt2 3.066148 1_455
La1 Pt2 3.066148 1_555
La1 Pt3 3.346967 1_455
La1 Pt3 3.346967 1_555
La2 Pt2 2.921956 1_555
La2 Pt1 3.066148 1_555
La2 Pt1 3.066148 1_655
La2 Pt0 3.346967 1_565
La2 Pt0 3.346967 1_665
La3 Pt3 2.921956 1_554
La3 Pt0 3.066148 1_655
La3 Pt0 3.066148 1_555
La3 Pt1 3.346967 1_555
La3 Pt1 3.346967 1_655
Al0 Pt1 2.590773 1_545
Al0 Pt0 2.683252 1_555
Al0 Pt3 2.756683 1_454
Al0 Pt3 2.756683 1_554
Al0 La0 3.139397 1_554
Al0 La2 3.319915 1_545
Al0 La2 3.319915 1_445
Al0 La3 3.386079 1_455
Al0 La3 3.386079 1_555
Al0 La1 3.476384 1_554
Al1 Pt0 2.590773 1_555
Al1 Pt1 2.683252 1_555
Al1 Pt2 2.756683 1_555
Al1 Pt2 2.756683 1_455
Al1 La1 3.139397 1_555
Al1 La3 3.319915 1_455
Al1 La3 3.319915 1_555
Al1 La2 3.386079 1_455
Al1 La2 3.386079 1_555
Al1 La0 3.476384 1_565
Al2 Pt3 2.590773 1_565
Al2 Pt2 2.683252 1_555
Al2 Pt1 2.756683 1_556
Al2 Pt1 2.756683 1_656
Al2 La2 3.139397 1_556
Al2 La0 3.319915 1_565
Al2 La0 3.319915 1_665
Al2 La1 3.386079 1_655
Al2 La1 3.386079 1_555
Al2 La3 3.476384 1_556
Al3 Pt2 2.590773 1_555
Al3 Pt3 2.683252 1_555
Al3 Pt0 2.756683 1_555
Al3 Pt0 2.756683 1_655
Al3 La3 3.139397 1_555
Al3 La1 3.319915 1_555
Al3 La1 3.319915 1_655
Al3 La0 3.386079 1_655
Al3 La0 3.386079 1_555
Al3 La2 3.476384 1_545
