# generated using pymatgen
data_RbSc(WO4)2
_symmetry_space_group_name_H-M   'P 1'
_cell_length_a   5.93645849
_cell_length_b   5.93645849
_cell_length_c   7.84007600
_cell_angle_alpha   90.00000000
_cell_angle_beta   90.00000000
_cell_angle_gamma   120.00000544
_symmetry_Int_Tables_number   1
_chemical_formula_structural   RbSc(WO4)2
_chemical_formula_sum   'Rb1 Sc1 W2 O8'
_cell_volume   239.27964244
_cell_formula_units_Z   1
loop_
 _symmetry_equiv_pos_site_id
 _symmetry_equiv_pos_as_xyz
  1  'x, y, z'
loop_
 _atom_site_type_symbol
 _atom_site_label
 _atom_site_symmetry_multiplicity
 _atom_site_fract_x
 _atom_site_fract_y
 _atom_site_fract_z
 _atom_site_occupancy
  Rb  Rb0  1  0.00000000  0.00000000  0.00000000  1
  Sc  Sc0  1  0.00000000  0.00000000  0.50000000  1
  W  W0  1  0.33333300  0.66666700  0.26791900  1
  W  W1  1  0.66666700  0.33333300  0.73208100  1
  O  O0  1  0.16411600  0.83588400  0.33923600  1
  O  O1  1  0.83588400  0.16411600  0.66076400  1
  O  O2  1  0.16411600  0.32823200  0.33923600  1
  O  O3  1  0.83588400  0.67176800  0.66076400  1
  O  O4  1  0.67176800  0.83588400  0.33923600  1
  O  O5  1  0.32823200  0.16411600  0.66076400  1
  O  O6  1  0.33333300  0.66666700  0.04150700  1
  O  O7  1  0.66666700  0.33333300  0.95849300  1
loop_
_geom_bond_atom_site_label_1
_geom_bond_atom_site_label_2
_geom_bond_distance
_geom_bond_site_symmetry_2
O0 W0 1.827563 1_555
O0 Sc0 2.106230 1_565
O0 Rb0 3.149803 1_565
O1 W1 1.827563 1_555
O1 Sc0 2.106230 1_655
O1 Rb0 3.149803 1_656
O2 W0 1.827568 1_555
O2 Sc0 2.106230 1_555
O2 Rb0 3.149803 1_555
O3 W1 1.827568 1_555
O3 Sc0 2.106230 1_665
O3 Rb0 3.149803 1_666
O4 W0 1.827568 1_555
O4 Sc0 2.106230 1_665
O4 Rb0 3.149803 1_665
O5 W1 1.827568 1_555
O5 Sc0 2.106230 1_555
O5 Rb0 3.149803 1_556
O6 W0 1.775087 1_555
O6 Rb0 3.442826 1_565
O6 Rb0 3.442831 1_555
O6 Rb0 3.442831 1_665
O7 W1 1.775087 1_555
O7 Rb0 3.442826 1_656
O7 Rb0 3.442831 1_666
O7 Rb0 3.442831 1_556
