# generated using pymatgen
data_Ca3Ag2(GeO4)3
_symmetry_space_group_name_H-M   'P 1'
_cell_length_a   11.06258946
_cell_length_b   11.06258946
_cell_length_c   11.06258946
_cell_angle_alpha   109.47122063
_cell_angle_beta   109.47122063
_cell_angle_gamma   109.47122063
_symmetry_Int_Tables_number   1
_chemical_formula_structural   Ca3Ag2(GeO4)3
_chemical_formula_sum   'Ca12 Ag8 Ge12 O48'
_cell_volume   1042.19382564
_cell_formula_units_Z   4
loop_
 _symmetry_equiv_pos_site_id
 _symmetry_equiv_pos_as_xyz
  1  'x, y, z'
loop_
 _atom_site_type_symbol
 _atom_site_label
 _atom_site_symmetry_multiplicity
 _atom_site_fract_x
 _atom_site_fract_y
 _atom_site_fract_z
 _atom_site_occupancy
  Ca  Ca0  1  0.25000000  0.87500000  0.62500000  1
  Ca  Ca1  1  0.75000000  0.62500000  0.87500000  1
  Ca  Ca2  1  0.62500000  0.87500000  0.75000000  1
  Ca  Ca3  1  0.87500000  0.62500000  0.25000000  1
  Ca  Ca4  1  0.62500000  0.25000000  0.87500000  1
  Ca  Ca5  1  0.87500000  0.75000000  0.62500000  1
  Ca  Ca6  1  0.75000000  0.12500000  0.37500000  1
  Ca  Ca7  1  0.25000000  0.37500000  0.12500000  1
  Ca  Ca8  1  0.37500000  0.12500000  0.25000000  1
  Ca  Ca9  1  0.12500000  0.37500000  0.75000000  1
  Ca  Ca10  1  0.37500000  0.75000000  0.12500000  1
  Ca  Ca11  1  0.12500000  0.25000000  0.37500000  1
  Ag  Ag0  1  0.50000000  0.50000000  0.50000000  1
  Ag  Ag1  1  0.50000000  0.00000000  0.50000000  1
  Ag  Ag2  1  0.00000000  0.50000000  0.50000000  1
  Ag  Ag3  1  0.50000000  0.50000000  0.00000000  1
  Ag  Ag4  1  0.00000000  0.00000000  0.50000000  1
  Ag  Ag5  1  0.00000000  0.50000000  0.00000000  1
  Ag  Ag6  1  0.50000000  0.00000000  0.00000000  1
  Ag  Ag7  1  0.00000000  0.00000000  0.00000000  1
  Ge  Ge0  1  0.12500000  0.75000000  0.87500000  1
  Ge  Ge1  1  0.87500000  0.25000000  0.12500000  1
  Ge  Ge2  1  0.62500000  0.37500000  0.25000000  1
  Ge  Ge3  1  0.75000000  0.87500000  0.12500000  1
  Ge  Ge4  1  0.87500000  0.12500000  0.75000000  1
  Ge  Ge5  1  0.25000000  0.62500000  0.37500000  1
  Ge  Ge6  1  0.75000000  0.37500000  0.62500000  1
  Ge  Ge7  1  0.25000000  0.12500000  0.87500000  1
  Ge  Ge8  1  0.12500000  0.87500000  0.25000000  1
  Ge  Ge9  1  0.37500000  0.62500000  0.75000000  1
  Ge  Ge10  1  0.62500000  0.75000000  0.37500000  1
  Ge  Ge11  1  0.37500000  0.25000000  0.62500000  1
  O  O0  1  0.41018600  0.80647200  0.78315400  1
  O  O1  1  0.87296900  0.39628700  0.08981400  1
  O  O2  1  0.10371300  0.97668200  0.69352800  1
  O  O3  1  0.52331800  0.62703100  0.71684600  1
  O  O4  1  0.69352800  0.08981400  0.71684600  1
  O  O5  1  0.62703100  0.71684600  0.52331800  1
  O  O6  1  0.62703100  0.41018600  0.10371300  1
  O  O7  1  0.71684600  0.52331800  0.62703100  1
  O  O8  1  0.80647200  0.52331800  0.39628700  1
  O  O9  1  0.97668200  0.78315400  0.87296900  1
  O  O10  1  0.78315400  0.87296900  0.97668200  1
  O  O11  1  0.71684600  0.69352800  0.08981400  1
  O  O12  1  0.41018600  0.10371300  0.62703100  1
  O  O13  1  0.39628700  0.80647200  0.52331800  1
  O  O14  1  0.08981400  0.71684600  0.69352800  1
  O  O15  1  0.10371300  0.62703100  0.41018600  1
  O  O16  1  0.52331800  0.39628700  0.80647200  1
  O  O17  1  0.08981400  0.87296900  0.39628700  1
  O  O18  1  0.97668200  0.69352800  0.10371300  1
  O  O19  1  0.19352800  0.47668200  0.60371300  1
  O  O20  1  0.69352800  0.10371300  0.97668200  1
  O  O21  1  0.78315400  0.41018600  0.80647200  1
  O  O22  1  0.39628700  0.08981400  0.87296900  1
  O  O23  1  0.87296900  0.97668200  0.78315400  1
  O  O24  1  0.58981400  0.19352800  0.21684600  1
  O  O25  1  0.12703100  0.60371300  0.91018600  1
  O  O26  1  0.89628700  0.02331800  0.30647200  1
  O  O27  1  0.47668200  0.37296900  0.28315400  1
  O  O28  1  0.30647200  0.91018600  0.28315400  1
  O  O29  1  0.37296900  0.28315400  0.47668200  1
  O  O30  1  0.37296900  0.58981400  0.89628700  1
  O  O31  1  0.28315400  0.47668200  0.37296900  1
  O  O32  1  0.12703100  0.02331800  0.21684600  1
  O  O33  1  0.60371300  0.91018600  0.12703100  1
  O  O34  1  0.21684600  0.58981400  0.19352800  1
  O  O35  1  0.19352800  0.21684600  0.58981400  1
  O  O36  1  0.30647200  0.89628700  0.02331800  1
  O  O37  1  0.02331800  0.30647200  0.89628700  1
  O  O38  1  0.91018600  0.12703100  0.60371300  1
  O  O39  1  0.47668200  0.60371300  0.19352800  1
  O  O40  1  0.89628700  0.37296900  0.58981400  1
  O  O41  1  0.91018600  0.28315400  0.30647200  1
  O  O42  1  0.60371300  0.19352800  0.47668200  1
  O  O43  1  0.58981400  0.89628700  0.37296900  1
  O  O44  1  0.28315400  0.30647200  0.91018600  1
  O  O45  1  0.21684600  0.12703100  0.02331800  1
  O  O46  1  0.02331800  0.21684600  0.12703100  1
  O  O47  1  0.80647200  0.78315400  0.41018600  1
loop_
_geom_bond_atom_site_label_1
_geom_bond_atom_site_label_2
_geom_bond_distance
_geom_bond_site_symmetry_2
Ca0 O22 2.433501 1_565
Ca0 O15 2.433501 1_555
Ca0 O2 2.433506 1_555
Ca0 O13 2.433506 1_555
Ca0 O12 2.547336 1_565
Ca0 O17 2.547336 1_555
Ca0 O14 2.547338 1_555
Ca0 O0 2.547338 1_555
Ca1 O11 2.433495 1_556
Ca1 O21 2.433495 1_555
Ca1 O10 2.433506 1_555
Ca1 O7 2.433506 1_555
Ca1 O9 2.547332 1_555
Ca1 O18 2.547332 1_556
Ca1 O16 2.547332 1_555
Ca1 O3 2.547332 1_555
Ca2 O4 2.433495 1_565
Ca2 O0 2.433495 1_555
Ca2 O23 2.433506 1_555
Ca2 O3 2.433506 1_555
Ca2 O10 2.547332 1_555
Ca2 O20 2.547332 1_565
Ca2 O13 2.547332 1_555
Ca2 O5 2.547332 1_555
Ca3 O17 2.433501 1_655
Ca3 O6 2.433501 1_555
Ca3 O18 2.433506 1_555
Ca3 O8 2.433506 1_555
Ca3 O15 2.547336 1_655
Ca3 O1 2.547336 1_555
Ca3 O11 2.547338 1_555
Ca3 O47 2.547338 1_555
Ca4 O1 2.433501 1_556
Ca4 O12 2.433501 1_555
Ca4 O20 2.433506 1_555
Ca4 O16 2.433506 1_555
Ca4 O6 2.547336 1_556
Ca4 O22 2.547336 1_555
Ca4 O4 2.547338 1_555
Ca4 O21 2.547338 1_555
Ca5 O14 2.433495 1_655
Ca5 O47 2.433495 1_555
Ca5 O9 2.433506 1_555
Ca5 O5 2.433506 1_555
Ca5 O23 2.547332 1_555
Ca5 O2 2.547332 1_655
Ca5 O8 2.547332 1_555
Ca5 O7 2.547332 1_555
Ca6 O40 2.433501 1_555
Ca6 O33 2.433501 1_545
Ca6 O26 2.433506 1_555
Ca6 O42 2.433506 1_555
Ca6 O38 2.547336 1_555
Ca6 O43 2.547336 1_545
Ca6 O41 2.547338 1_555
Ca6 O24 2.547338 1_555
Ca7 O44 2.433495 1_554
Ca7 O34 2.433495 1_555
Ca7 O45 2.433506 1_555
Ca7 O31 2.433506 1_555
Ca7 O37 2.547332 1_554
Ca7 O27 2.547332 1_555
Ca7 O39 2.547332 1_555
Ca7 O46 2.547332 1_555
Ca8 O28 2.433495 1_545
Ca8 O24 2.433495 1_555
Ca8 O32 2.433506 1_555
Ca8 O27 2.433506 1_555
Ca8 O29 2.547332 1_555
Ca8 O36 2.547332 1_545
Ca8 O42 2.547332 1_555
Ca8 O45 2.547332 1_555
Ca9 O30 2.433501 1_555
Ca9 O38 2.433501 1_455
Ca9 O37 2.433506 1_555
Ca9 O19 2.433506 1_555
Ca9 O25 2.547336 1_555
Ca9 O40 2.547336 1_455
Ca9 O44 2.547338 1_555
Ca9 O35 2.547338 1_555
Ca10 O43 2.433501 1_555
Ca10 O25 2.433501 1_554
Ca10 O36 2.433506 1_555
Ca10 O39 2.433506 1_555
Ca10 O33 2.547336 1_555
Ca10 O30 2.547336 1_554
Ca10 O28 2.547338 1_555
Ca10 O34 2.547338 1_555
Ca11 O41 2.433495 1_455
Ca11 O35 2.433495 1_555
Ca11 O46 2.433506 1_555
Ca11 O29 2.433506 1_555
Ca11 O31 2.547332 1_555
Ca11 O26 2.547332 1_455
Ca11 O19 2.547332 1_555
Ca11 O32 2.547332 1_555
Ag0 O3 2.212324 1_555
Ag0 O7 2.212324 1_555
Ag0 O5 2.212324 1_555
Ag0 O29 2.212324 1_555
Ag0 O27 2.212324 1_555
Ag0 O31 2.212324 1_555
Ag1 O43 2.212315 1_545
Ag1 O12 2.212315 1_555
Ag1 O42 2.212324 1_555
Ag1 O13 2.212324 1_545
Ag1 O4 2.212327 1_555
Ag1 O28 2.212327 1_545
Ag2 O40 2.212315 1_455
Ag2 O15 2.212315 1_555
Ag2 O19 2.212324 1_555
Ag2 O8 2.212324 1_455
Ag2 O14 2.212327 1_555
Ag2 O41 2.212327 1_455
Ag3 O30 2.212315 1_554
Ag3 O6 2.212315 1_555
Ag3 O39 2.212324 1_555
Ag3 O16 2.212324 1_554
Ag3 O11 2.212327 1_555
Ag3 O44 2.212327 1_554
Ag4 O17 2.212315 1_545
Ag4 O38 2.212315 1_455
Ag4 O2 2.212324 1_545
Ag4 O26 2.212324 1_455
Ag4 O35 2.212327 1_555
Ag4 O47 2.212327 1_445
Ag5 O1 2.212315 1_455
Ag5 O25 2.212315 1_554
Ag5 O18 2.212324 1_455
Ag5 O37 2.212324 1_554
Ag5 O34 2.212327 1_555
Ag5 O21 2.212327 1_454
Ag6 O22 2.212315 1_554
Ag6 O33 2.212315 1_545
Ag6 O20 2.212324 1_554
Ag6 O36 2.212324 1_545
Ag6 O24 2.212327 1_555
Ag6 O0 2.212327 1_544
Ag7 O32 2.212324 1_555
Ag7 O46 2.212324 1_555
Ag7 O45 2.212324 1_555
Ag7 O10 2.212324 1_444
Ag7 O9 2.212324 1_444
Ag7 O23 2.212324 1_444
Ge0 O14 1.791448 1_555
Ge0 O36 1.791451 1_556
Ge0 O9 1.791451 1_455
Ge0 O25 1.791456 1_555
Ge1 O41 1.791448 1_555
Ge1 O46 1.791451 1_655
Ge1 O20 1.791451 1_554
Ge1 O1 1.791456 1_555
Ge2 O24 1.791448 1_555
Ge2 O27 1.791451 1_555
Ge2 O8 1.791451 1_555
Ge2 O6 1.791456 1_555
Ge3 O11 1.791448 1_555
Ge3 O26 1.791451 1_565
Ge3 O10 1.791451 1_554
Ge3 O33 1.791456 1_555
Ge4 O4 1.791448 1_555
Ge4 O37 1.791451 1_655
Ge4 O23 1.791451 1_545
Ge4 O38 1.791456 1_555
Ge5 O34 1.791448 1_555
Ge5 O31 1.791451 1_555
Ge5 O13 1.791451 1_555
Ge5 O15 1.791456 1_555
Ge6 O21 1.791448 1_555
Ge6 O7 1.791451 1_555
Ge6 O42 1.791451 1_555
Ge6 O40 1.791456 1_555
Ge7 O44 1.791448 1_555
Ge7 O45 1.791451 1_556
Ge7 O2 1.791451 1_545
Ge7 O22 1.791456 1_555
Ge8 O28 1.791448 1_555
Ge8 O32 1.791451 1_565
Ge8 O18 1.791451 1_455
Ge8 O17 1.791456 1_555
Ge9 O0 1.791448 1_555
Ge9 O3 1.791451 1_555
Ge9 O19 1.791451 1_555
Ge9 O30 1.791456 1_555
Ge10 O47 1.791448 1_555
Ge10 O5 1.791451 1_555
Ge10 O39 1.791451 1_555
Ge10 O43 1.791456 1_555
Ge11 O35 1.791448 1_555
Ge11 O29 1.791451 1_555
Ge11 O16 1.791451 1_555
Ge11 O12 1.791456 1_555
