# generated using pymatgen
data_Zn3Fe2Cu10(SnSe4)5
_symmetry_space_group_name_H-M   'P 1'
_cell_length_a   7.04413780
_cell_length_b   7.04413780
_cell_length_c   25.80214930
_cell_angle_alpha   89.68406512
_cell_angle_beta   89.68406512
_cell_angle_gamma   48.34968647
_symmetry_Int_Tables_number   1
_chemical_formula_structural   Zn3Fe2Cu10(SnSe4)5
_chemical_formula_sum   'Zn3 Fe2 Cu10 Sn5 Se20'
_cell_volume   956.64122719
_cell_formula_units_Z   1
loop_
 _symmetry_equiv_pos_site_id
 _symmetry_equiv_pos_as_xyz
  1  'x, y, z'
loop_
 _atom_site_type_symbol
 _atom_site_label
 _atom_site_symmetry_multiplicity
 _atom_site_fract_x
 _atom_site_fract_y
 _atom_site_fract_z
 _atom_site_occupancy
  Zn  Zn0  1  0.00017700  0.59989300  0.80001300  1
  Zn  Zn1  1  0.19999400  0.80000600  0.00000000  1
  Zn  Zn2  1  0.40010700  0.99982300  0.19998700  1
  Fe  Fe0  1  0.59964300  0.20033800  0.40003400  1
  Fe  Fe1  1  0.79966200  0.40035700  0.59996600  1
  Cu  Cu0  1  0.29996700  0.90003100  0.85003200  1
  Cu  Cu1  1  0.69909700  0.30052000  0.25012500  1
  Cu  Cu2  1  0.50004100  0.10004500  0.04998700  1
  Cu  Cu3  1  0.10132600  0.69893000  0.64989900  1
  Cu  Cu4  1  0.89995400  0.49991700  0.45000300  1
  Cu  Cu5  1  0.69948000  0.30090300  0.74987500  1
  Cu  Cu6  1  0.09996900  0.70003300  0.14996800  1
  Cu  Cu7  1  0.89995500  0.49995900  0.95001300  1
  Cu  Cu8  1  0.50008300  0.10004600  0.54999700  1
  Cu  Cu9  1  0.30107000  0.89867400  0.35010100  1
  Sn  Sn0  1  0.39978900  0.99971700  0.69970400  1
  Sn  Sn1  1  0.80020300  0.39967700  0.10008200  1
  Sn  Sn2  1  0.60032300  0.19979700  0.89991800  1
  Sn  Sn3  1  0.19938000  0.80062000  0.50000000  1
  Sn  Sn4  1  0.00028300  0.60021100  0.30029600  1
  Se  Se0  1  0.50749300  0.57276700  0.67311300  1
  Se  Se1  1  0.69924100  0.77969300  0.87519600  1
  Se  Se2  1  0.89935400  0.97966100  0.07513500  1
  Se  Se3  1  0.10099600  0.17627500  0.27494000  1
  Se  Se4  1  0.30779300  0.37054800  0.47310400  1
  Se  Se5  1  0.08173200  0.20510300  0.77953600  1
  Se  Se6  1  0.28341500  0.40333700  0.97910400  1
  Se  Se7  1  0.48304500  0.60361600  0.17932800  1
  Se  Se8  1  0.67923800  0.81445600  0.38018900  1
  Se  Se9  1  0.87818000  0.01553300  0.58042800  1
  Se  Se10  1  0.39638400  0.51695500  0.82067200  1
  Se  Se11  1  0.59666300  0.71658500  0.02089600  1
  Se  Se12  1  0.79489700  0.91826800  0.22046400  1
  Se  Se13  1  0.98446700  0.12182000  0.41957200  1
  Se  Se14  1  0.18554400  0.32076200  0.61981100  1
  Se  Se15  1  0.02033900  0.10064600  0.92486500  1
  Se  Se16  1  0.22030700  0.30075900  0.12480400  1
  Se  Se17  1  0.42723300  0.49250700  0.32688700  1
  Se  Se18  1  0.62945200  0.69220700  0.52689600  1
  Se  Se19  1  0.82372500  0.89900400  0.72506000  1
loop_
_geom_bond_atom_site_label_1
_geom_bond_atom_site_label_2
_geom_bond_distance
_geom_bond_site_symmetry_2
Fe0 Se4 2.434032 1_555
Fe0 Se13 2.434629 1_555
Fe0 Se17 2.435762 1_555
Fe0 Se8 2.439606 1_545
Fe1 Se18 2.434032 1_555
Fe1 Se9 2.434629 1_555
Fe1 Se0 2.435762 1_555
Fe1 Se14 2.439606 1_655
Cu0 Se5 2.426234 1_565
Cu0 Se15 2.427637 1_565
Cu0 Se1 2.428103 1_555
Cu0 Se10 2.428504 1_555
Cu1 Se7 2.424923 1_555
Cu1 Se12 2.427600 1_545
Cu1 Se3 2.431294 1_655
Cu1 Se17 2.442244 1_555
Cu2 Se6 2.427416 1_554
Cu2 Se16 2.427656 1_555
Cu2 Se2 2.428109 1_545
Cu2 Se11 2.428161 1_545
Cu3 Se19 2.428224 1_455
Cu3 Se0 2.442913 1_555
Cu3 Se14 2.442958 1_555
Cu3 Se9 2.446447 1_465
Cu4 Se18 2.441138 1_555
Cu4 Se4 2.443817 1_655
Cu4 Se13 2.444358 1_555
Cu4 Se8 2.445285 1_555
Cu5 Se10 2.424923 1_555
Cu5 Se5 2.427600 1_655
Cu5 Se19 2.431294 1_545
Cu5 Se0 2.442244 1_555
Cu6 Se12 2.426234 1_455
Cu6 Se2 2.427637 1_455
Cu6 Se16 2.428103 1_555
Cu6 Se7 2.428504 1_555
Cu7 Se11 2.427416 1_556
Cu7 Se1 2.427656 1_555
Cu7 Se15 2.428109 1_655
Cu7 Se6 2.428161 1_655
Cu8 Se4 2.441138 1_555
Cu8 Se18 2.443817 1_545
Cu8 Se9 2.444358 1_555
Cu8 Se14 2.445285 1_555
Cu9 Se3 2.428224 1_565
Cu9 Se17 2.442913 1_555
Cu9 Se8 2.442958 1_555
Cu9 Se13 2.446447 1_465
Se0 Sn0 2.659996 1_555
Se1 Zn0 2.504815 1_655
Se1 Sn2 2.631516 1_565
Se2 Zn1 2.502857 1_655
Se2 Sn1 2.631575 1_565
Se3 Zn2 2.495016 1_545
Se3 Sn4 2.655109 1_555
Se4 Sn3 2.680456 1_555
Se5 Zn0 2.496449 1_555
Se5 Sn0 2.651273 1_545
Se6 Zn1 2.504837 1_556
Se6 Sn2 2.634651 1_555
Se7 Zn2 2.502100 1_555
Se7 Sn1 2.636656 1_555
Se8 Sn4 2.662297 1_655
Se9 Sn3 2.673522 1_645
Se10 Zn0 2.502100 1_555
Se10 Sn2 2.636656 1_555
Se11 Zn1 2.504837 1_555
Se11 Sn1 2.634651 1_555
Se12 Zn2 2.496449 1_555
Se12 Sn4 2.651273 1_655
Se13 Sn3 2.673522 1_645
Se14 Sn0 2.662297 1_545
Se15 Zn1 2.502857 1_546
Se15 Sn2 2.631575 1_455
Se16 Zn2 2.504815 1_545
Se16 Sn1 2.631516 1_455
Se17 Sn4 2.659996 1_555
Se18 Sn3 2.680456 1_555
Se19 Zn0 2.495016 1_655
Se19 Sn0 2.655109 1_555
