# generated using pymatgen
data_Pr2Al2Co15
_symmetry_space_group_name_H-M   'P 1'
_cell_length_a   6.37292312
_cell_length_b   6.37292312
_cell_length_c   6.37292302
_cell_angle_alpha   82.54571865
_cell_angle_beta   82.54571865
_cell_angle_gamma   82.54573092
_symmetry_Int_Tables_number   1
_chemical_formula_structural   Pr2Al2Co15
_chemical_formula_sum   'Pr2 Al2 Co15'
_cell_volume   252.79091809
_cell_formula_units_Z   1
loop_
 _symmetry_equiv_pos_site_id
 _symmetry_equiv_pos_as_xyz
  1  'x, y, z'
loop_
 _atom_site_type_symbol
 _atom_site_label
 _atom_site_symmetry_multiplicity
 _atom_site_fract_x
 _atom_site_fract_y
 _atom_site_fract_z
 _atom_site_occupancy
  Pr  Pr0  1  0.64792900  0.64792900  0.64792900  1
  Pr  Pr1  1  0.35207100  0.35207100  0.35207100  1
  Al  Al0  1  0.89514100  0.89514100  0.89514100  1
  Al  Al1  1  0.10485900  0.10485900  0.10485900  1
  Co  Co0  1  0.00000000  0.00000000  0.50000000  1
  Co  Co1  1  0.50000000  0.00000000  0.00000000  1
  Co  Co2  1  0.00000000  0.50000000  0.00000000  1
  Co  Co3  1  0.71664300  0.28335700  0.00000000  1
  Co  Co4  1  0.00000000  0.71664300  0.28335700  1
  Co  Co5  1  0.28335700  0.00000000  0.71664300  1
  Co  Co6  1  0.00000000  0.28335700  0.71664300  1
  Co  Co7  1  0.71664300  0.00000000  0.28335700  1
  Co  Co8  1  0.28335700  0.71664300  0.00000000  1
  Co  Co9  1  0.34631900  0.34631900  0.85310700  1
  Co  Co10  1  0.85310700  0.34631900  0.34631900  1
  Co  Co11  1  0.34631900  0.85310700  0.34631900  1
  Co  Co12  1  0.65368100  0.65368100  0.14689300  1
  Co  Co13  1  0.14689300  0.65368100  0.65368100  1
  Co  Co14  1  0.65368100  0.14689300  0.65368100  1
loop_
_geom_bond_atom_site_label_1
_geom_bond_atom_site_label_2
_geom_bond_distance
_geom_bond_site_symmetry_2
Pr0 Pr1 3.665021 1_555
Al0 Co0 2.545011 1_665
Al0 Co1 2.545011 1_566
Al0 Co2 2.545011 1_656
Al0 Co12 2.577431 1_556
Al0 Co13 2.577432 1_655
Al0 Co14 2.577432 1_565
Al0 Al1 2.597939 1_666
Al0 Co5 2.713506 1_665
Al0 Co6 2.713506 1_665
Al0 Co7 2.713506 1_566
Al0 Co4 2.713506 1_656
Al0 Co3 2.713507 1_566
Al0 Co8 2.713507 1_656
Al0 Pr0 3.062406 1_555
Al1 Co0 2.545011 1_555
Al1 Co1 2.545011 1_555
Al1 Co2 2.545011 1_555
Al1 Co9 2.577431 1_554
Al1 Co10 2.577432 1_455
Al1 Co11 2.577432 1_545
Al1 Co7 2.713506 1_455
Al1 Co4 2.713506 1_545
Al1 Co6 2.713506 1_554
Al1 Co5 2.713506 1_554
Al1 Co8 2.713507 1_545
Al1 Co3 2.713507 1_455
Al1 Pr1 3.062406 1_555
Co0 Co6 2.411236 1_555
Co0 Co5 2.411236 1_555
Co0 Co4 2.411236 1_545
Co0 Co7 2.411236 1_455
Co0 Co14 2.418189 1_455
Co0 Co11 2.418189 1_545
Co0 Co10 2.418189 1_455
Co0 Co13 2.418189 1_545
Co0 Pr1 3.341540 1_555
Co0 Pr0 3.341540 1_445
Co1 Co3 2.411236 1_555
Co1 Co8 2.411236 1_545
Co1 Co7 2.411236 1_555
Co1 Co5 2.411236 1_554
Co1 Co11 2.418189 1_545
Co1 Co14 2.418189 1_554
Co1 Co12 2.418189 1_545
Co1 Co9 2.418189 1_554
Co1 Pr1 3.341540 1_555
Co1 Pr0 3.341540 1_544
Co2 Co8 2.411236 1_555
Co2 Co3 2.411236 1_455
Co2 Co4 2.411236 1_555
Co2 Co6 2.411236 1_554
Co2 Co9 2.418189 1_554
Co2 Pr1 3.341540 1_555
Co2 Pr0 3.341540 1_454
Co3 Co7 2.382393 1_555
Co3 Co6 2.382393 1_654
Co3 Co9 2.614815 1_554
Co3 Pr1 3.043437 1_555
Co3 Pr0 3.043437 1_554
Co4 Co8 2.382393 1_555
Co4 Co7 2.382393 1_465
Co4 Pr0 3.043437 1_455
Co4 Pr1 3.043437 1_555
Co5 Co8 2.382393 1_546
Co5 Co6 2.382393 1_555
Co5 Co9 2.570376 1_555
Co5 Pr1 3.043437 1_555
Co5 Pr0 3.043437 1_545
Co6 Co9 2.570376 1_555
Co6 Pr1 3.043437 1_555
Co6 Pr0 3.043437 1_455
Co7 Pr0 3.043437 1_545
Co7 Pr1 3.043437 1_555
Co8 Co9 2.614815 1_554
Co8 Pr1 3.043437 1_555
Co8 Pr0 3.043437 1_554
Co9 Pr0 2.958607 1_555
Co9 Pr1 3.184015 1_555
Co9 Pr1 3.189832 1_556
Co10 Co2 2.418189 1_655
Co10 Co14 2.488895 1_555
Co10 Co12 2.488896 1_555
Co10 Co7 2.570376 1_555
Co10 Co3 2.570376 1_555
Co10 Co4 2.614814 1_655
Co10 Co6 2.614815 1_655
Co10 Pr0 2.958608 1_555
Co10 Pr1 3.184015 1_555
Co10 Pr1 3.189832 1_655
Co11 Co13 2.488895 1_555
Co11 Co12 2.488896 1_555
Co11 Co4 2.570376 1_555
Co11 Co8 2.570376 1_555
Co11 Co7 2.614814 1_565
Co11 Co5 2.614815 1_565
Co11 Pr0 2.958608 1_555
Co11 Pr1 3.184015 1_555
Co11 Pr1 3.189832 1_565
Co12 Co2 2.418189 1_655
Co12 Co7 2.570376 1_565
Co12 Co4 2.570376 1_655
Co12 Co8 2.614815 1_555
Co12 Co3 2.614815 1_555
Co12 Pr1 2.958607 1_555
Co12 Pr0 3.184015 1_555
Co12 Pr0 3.189832 1_554
Co13 Co2 2.418189 1_556
Co13 Co9 2.488896 1_555
Co13 Co5 2.570376 1_565
Co13 Co8 2.570376 1_556
Co13 Co6 2.614814 1_555
Co13 Co4 2.614815 1_555
Co13 Pr1 2.958608 1_555
Co13 Pr0 3.184015 1_555
Co13 Pr0 3.189832 1_455
Co14 Co9 2.488896 1_555
Co14 Co6 2.570376 1_655
Co14 Co3 2.570376 1_556
Co14 Co5 2.614814 1_555
Co14 Co7 2.614815 1_555
Co14 Pr1 2.958608 1_555
Co14 Pr0 3.184015 1_555
Co14 Pr0 3.189832 1_545
