# generated using pymatgen
data_MoWSe3S
_symmetry_space_group_name_H-M   'P 1'
_cell_length_a   3.28673611
_cell_length_b   3.28673611
_cell_length_c   37.36497800
_cell_angle_alpha   90.00000000
_cell_angle_beta   90.00000000
_cell_angle_gamma   120.00000224
_symmetry_Int_Tables_number   1
_chemical_formula_structural   MoWSe3S
_chemical_formula_sum   'Mo2 W2 Se6 S2'
_cell_volume   349.56265207
_cell_formula_units_Z   2
loop_
 _symmetry_equiv_pos_site_id
 _symmetry_equiv_pos_as_xyz
  1  'x, y, z'
loop_
 _atom_site_type_symbol
 _atom_site_label
 _atom_site_symmetry_multiplicity
 _atom_site_fract_x
 _atom_site_fract_y
 _atom_site_fract_z
 _atom_site_occupancy
  Mo  Mo0  1  0.00000000  0.00000000  0.09390800  1
  Mo  Mo1  1  0.00000000  0.00000000  0.46965200  1
  W  W0  1  0.33333300  0.66666700  0.28178800  1
  W  W1  1  0.33333300  0.66666700  0.65753700  1
  Se  Se0  1  0.00000000  0.00000000  0.32720900  1
  Se  Se1  1  0.33333300  0.66666700  0.04878500  1
  Se  Se2  1  0.33333300  0.66666700  0.42454500  1
  Se  Se3  1  0.33333300  0.66666700  0.13904800  1
  Se  Se4  1  0.33333300  0.66666700  0.51480400  1
  Se  Se5  1  0.00000000  0.00000000  0.23639600  1
  S  S0  1  0.00000000  0.00000000  0.69879200  1
  S  S1  1  0.00000000  0.00000000  0.61628400  1
loop_
_geom_bond_atom_site_label_1
_geom_bond_atom_site_label_2
_geom_bond_distance
_geom_bond_site_symmetry_2
Mo0 Se1 2.538412 1_545
Mo0 Se1 2.538414 1_555
Mo0 Se1 2.538414 1_445
Mo0 Se3 2.538834 1_545
Mo0 Se3 2.538836 1_445
Mo0 Se3 2.538836 1_555
Mo1 Se2 2.538015 1_545
Mo1 Se2 2.538017 1_445
Mo1 Se2 2.538017 1_555
Mo1 Se4 2.539132 1_545
Mo1 Se4 2.539134 1_555
Mo1 Se4 2.539134 1_445
Se0 W0 2.545821 1_545
Se0 W0 2.545823 1_555
Se0 W0 2.545823 1_445
Se5 W0 2.545099 1_545
Se5 W0 2.545101 1_445
Se5 W0 2.545101 1_555
S0 W1 2.444805 1_545
S0 W1 2.444807 1_555
S0 W1 2.444807 1_445
S1 W1 2.444757 1_545
S1 W1 2.444760 1_555
S1 W1 2.444760 1_445
