# generated using pymatgen
data_Zn3H24C4Se5(N4O5)3
_symmetry_space_group_name_H-M   'P 1'
_cell_length_a   9.08943706
_cell_length_b   15.52156616
_cell_length_c   20.95514476
_cell_angle_alpha   90.00000000
_cell_angle_beta   90.00000000
_cell_angle_gamma   90.00000000
_symmetry_Int_Tables_number   1
_chemical_formula_structural   Zn3H24C4Se5(N4O5)3
_chemical_formula_sum   'Zn12 H96 C16 Se20 N48 O60'
_cell_volume   2956.39999200
_cell_formula_units_Z   4
loop_
 _symmetry_equiv_pos_site_id
 _symmetry_equiv_pos_as_xyz
  1  'x, y, z'
loop_
 _atom_site_type_symbol
 _atom_site_label
 _atom_site_symmetry_multiplicity
 _atom_site_fract_x
 _atom_site_fract_y
 _atom_site_fract_z
 _atom_site_occupancy
  Zn  Zn0  1  0.53479258  0.26122955  0.90092490  1
  Zn  Zn1  1  0.46520742  0.73877045  0.40092490  1
  Zn  Zn2  1  0.53479258  0.23877045  0.09907510  1
  Zn  Zn3  1  0.46520742  0.76122955  0.59907510  1
  Zn  Zn4  1  0.46520742  0.73877045  0.09907510  1
  Zn  Zn5  1  0.53479258  0.26122955  0.59907510  1
  Zn  Zn6  1  0.46520742  0.76122955  0.90092490  1
  Zn  Zn7  1  0.53479258  0.23877045  0.40092490  1
  Zn  Zn8  1  0.91873384  0.25000000  0.00000000  1
  Zn  Zn9  1  0.08126616  0.75000000  0.50000000  1
  Zn  Zn10  1  0.08126616  0.75000000  0.00000000  1
  Zn  Zn11  1  0.91873384  0.25000000  0.50000000  1
  H  H0  1  0.97623708  0.44177802  0.64574644  1
  H  H1  1  0.02376292  0.55822198  0.14574644  1
  H  H2  1  0.97623708  0.05822198  0.35425356  1
  H  H3  1  0.02376292  0.94177802  0.85425356  1
  H  H4  1  0.02376292  0.55822198  0.35425356  1
  H  H5  1  0.97623708  0.44177802  0.85425356  1
  H  H6  1  0.02376292  0.94177802  0.64574644  1
  H  H7  1  0.97623708  0.05822198  0.14574644  1
  H  H8  1  0.81191467  0.42048459  0.68993841  1
  H  H9  1  0.18808533  0.57951541  0.18993841  1
  H  H10  1  0.81191467  0.07951541  0.31006159  1
  H  H11  1  0.18808533  0.92048459  0.81006159  1
  H  H12  1  0.18808533  0.57951541  0.31006159  1
  H  H13  1  0.81191467  0.42048459  0.81006159  1
  H  H14  1  0.18808533  0.92048459  0.68993841  1
  H  H15  1  0.81191467  0.07951541  0.18993841  1
  H  H16  1  0.98619990  0.57005552  0.58450284  1
  H  H17  1  0.01380010  0.42994448  0.08450284  1
  H  H18  1  0.98619990  0.92994448  0.41549716  1
  H  H19  1  0.01380010  0.07005552  0.91549716  1
  H  H20  1  0.01380010  0.42994448  0.41549716  1
  H  H21  1  0.98619990  0.57005552  0.91549716  1
  H  H22  1  0.01380010  0.07005552  0.58450284  1
  H  H23  1  0.98619990  0.92994448  0.08450284  1
  H  H24  1  0.83532992  0.63602994  0.58197485  1
  H  H25  1  0.16467008  0.36397006  0.08197485  1
  H  H26  1  0.83532992  0.86397006  0.41802515  1
  H  H27  1  0.16467008  0.13602994  0.91802515  1
  H  H28  1  0.16467008  0.36397006  0.41802515  1
  H  H29  1  0.83532992  0.63602994  0.91802515  1
  H  H30  1  0.16467008  0.13602994  0.58197485  1
  H  H31  1  0.83532992  0.86397006  0.08197485  1
  H  H32  1  0.61458714  0.50526863  0.68156866  1
  H  H33  1  0.38541286  0.49473137  0.18156866  1
  H  H34  1  0.61458714  0.99473137  0.31843134  1
  H  H35  1  0.38541286  0.00526863  0.81843134  1
  H  H36  1  0.38541286  0.49473137  0.31843134  1
  H  H37  1  0.61458714  0.50526863  0.81843134  1
  H  H38  1  0.38541286  0.00526863  0.68156866  1
  H  H39  1  0.61458714  0.99473137  0.18156866  1
  H  H40  1  0.60792023  0.58849213  0.62569429  1
  H  H41  1  0.39207977  0.41150787  0.12569429  1
  H  H42  1  0.60792023  0.91150787  0.37430571  1
  H  H43  1  0.39207977  0.08849213  0.87430571  1
  H  H44  1  0.39207977  0.41150787  0.37430571  1
  H  H45  1  0.60792023  0.58849213  0.87430571  1
  H  H46  1  0.39207977  0.08849213  0.62569429  1
  H  H47  1  0.60792023  0.91150787  0.12569429  1
  H  H48  1  0.21449638  0.23859547  0.79188602  1
  H  H49  1  0.78550362  0.76140453  0.29188602  1
  H  H50  1  0.21449638  0.26140453  0.20811398  1
  H  H51  1  0.78550362  0.73859547  0.70811398  1
  H  H52  1  0.78550362  0.76140453  0.20811398  1
  H  H53  1  0.21449638  0.23859547  0.70811398  1
  H  H54  1  0.78550362  0.73859547  0.79188602  1
  H  H55  1  0.21449638  0.26140453  0.29188602  1
  H  H56  1  0.82443267  0.24365294  0.80616281  1
  H  H57  1  0.17556733  0.75634706  0.30616281  1
  H  H58  1  0.82443267  0.25634706  0.19383719  1
  H  H59  1  0.17556733  0.74365294  0.69383719  1
  H  H60  1  0.17556733  0.75634706  0.19383719  1
  H  H61  1  0.82443267  0.24365294  0.69383719  1
  H  H62  1  0.17556733  0.74365294  0.80616281  1
  H  H63  1  0.82443267  0.25634706  0.30616281  1
  H  H64  1  0.99119142  0.24666475  0.84836149  1
  H  H65  1  0.00880858  0.75333525  0.34836149  1
  H  H66  1  0.99119142  0.25333525  0.15163851  1
  H  H67  1  0.00880858  0.74666475  0.65163851  1
  H  H68  1  0.00880858  0.75333525  0.15163851  1
  H  H69  1  0.99119142  0.24666475  0.65163851  1
  H  H70  1  0.00880858  0.74666475  0.84836149  1
  H  H71  1  0.99119142  0.25333525  0.34836149  1
  H  H72  1  0.20233229  0.41257996  0.79306646  1
  H  H73  1  0.79766771  0.58742004  0.29306646  1
  H  H74  1  0.20233229  0.08742004  0.20693354  1
  H  H75  1  0.79766771  0.91257996  0.70693354  1
  H  H76  1  0.79766771  0.58742004  0.20693354  1
  H  H77  1  0.20233229  0.41257996  0.70693354  1
  H  H78  1  0.79766771  0.91257996  0.79306646  1
  H  H79  1  0.20233229  0.08742004  0.29306646  1
  H  H80  1  0.27970643  0.52684330  0.65412663  1
  H  H81  1  0.72029357  0.47315670  0.15412663  1
  H  H82  1  0.27970643  0.97315670  0.34587337  1
  H  H83  1  0.72029357  0.02684330  0.84587337  1
  H  H84  1  0.72029357  0.47315670  0.34587337  1
  H  H85  1  0.27970643  0.52684330  0.84587337  1
  H  H86  1  0.72029357  0.02684330  0.65412663  1
  H  H87  1  0.27970643  0.97315670  0.15412663  1
  H  H88  1  0.34547101  0.62074891  0.69268662  1
  H  H89  1  0.65452899  0.37925109  0.19268662  1
  H  H90  1  0.34547101  0.87925109  0.30731338  1
  H  H91  1  0.65452899  0.12074891  0.80731338  1
  H  H92  1  0.65452899  0.37925109  0.30731338  1
  H  H93  1  0.34547101  0.62074891  0.80731338  1
  H  H94  1  0.65452899  0.12074891  0.69268662  1
  H  H95  1  0.34547101  0.87925109  0.19268662  1
  C  C0  1  0.80697339  0.52795483  0.63598405  1
  C  C1  1  0.19302661  0.47204517  0.13598405  1
  C  C2  1  0.80697339  0.97204517  0.36401595  1
  C  C3  1  0.19302661  0.02795483  0.86401595  1
  C  C4  1  0.19302661  0.47204517  0.36401595  1
  C  C5  1  0.80697339  0.52795483  0.86401595  1
  C  C6  1  0.19302661  0.02795483  0.63598405  1
  C  C7  1  0.80697339  0.97204517  0.13598405  1
  C  C8  1  0.00993058  0.23789713  0.75000000  1
  C  C9  1  0.99006942  0.76210287  0.25000000  1
  C  C10  1  0.00993058  0.26210287  0.25000000  1
  C  C11  1  0.99006942  0.73789713  0.75000000  1
  C  C12  1  0.28759836  0.51824734  0.75000000  1
  C  C13  1  0.71240164  0.48175266  0.25000000  1
  C  C14  1  0.28759836  0.98175266  0.25000000  1
  C  C15  1  0.71240164  0.01824734  0.75000000  1
  Se  Se0  1  0.21166223  0.34342606  0.93035952  1
  Se  Se1  1  0.78833777  0.65657394  0.43035952  1
  Se  Se2  1  0.21166223  0.15657394  0.06964048  1
  Se  Se3  1  0.78833777  0.84342606  0.56964048  1
  Se  Se4  1  0.78833777  0.65657394  0.06964048  1
  Se  Se5  1  0.21166223  0.34342606  0.56964048  1
  Se  Se6  1  0.78833777  0.84342606  0.93035952  1
  Se  Se7  1  0.21166223  0.15657394  0.43035952  1
  Se  Se8  1  0.66880635  0.10159322  0.98718000  1
  Se  Se9  1  0.33119365  0.89840678  0.48718000  1
  Se  Se10  1  0.66880635  0.39840678  0.01282000  1
  Se  Se11  1  0.33119365  0.60159322  0.51282000  1
  Se  Se12  1  0.33119365  0.89840678  0.01282000  1
  Se  Se13  1  0.66880635  0.10159322  0.51282000  1
  Se  Se14  1  0.33119365  0.60159322  0.98718000  1
  Se  Se15  1  0.66880635  0.39840678  0.48718000  1
  Se  Se16  1  0.54136142  0.30370937  0.75000000  1
  Se  Se17  1  0.45863858  0.69629063  0.25000000  1
  Se  Se18  1  0.54136142  0.19629063  0.25000000  1
  Se  Se19  1  0.45863858  0.80370937  0.75000000  1
  N  N0  1  0.87408481  0.46073374  0.66218091  1
  N  N1  1  0.12591519  0.53926626  0.16218091  1
  N  N2  1  0.87408481  0.03926626  0.33781909  1
  N  N3  1  0.12591519  0.96073374  0.83781909  1
  N  N4  1  0.12591519  0.53926626  0.33781909  1
  N  N5  1  0.87408481  0.46073374  0.83781909  1
  N  N6  1  0.12591519  0.96073374  0.66218091  1
  N  N7  1  0.87408481  0.03926626  0.16218091  1
  N  N8  1  0.87582412  0.57641826  0.59169305  1
  N  N9  1  0.12417588  0.42358174  0.09169305  1
  N  N10  1  0.87582412  0.92358174  0.40830695  1
  N  N11  1  0.12417588  0.07641826  0.90830695  1
  N  N12  1  0.12417588  0.42358174  0.40830695  1
  N  N13  1  0.87582412  0.57641826  0.90830695  1
  N  N14  1  0.12417588  0.07641826  0.59169305  1
  N  N15  1  0.87582412  0.92358174  0.09169305  1
  N  N16  1  0.66942957  0.54868543  0.65387150  1
  N  N17  1  0.33057043  0.45131457  0.15387150  1
  N  N18  1  0.66942957  0.95131457  0.34612850  1
  N  N19  1  0.33057043  0.04868543  0.84612850  1
  N  N20  1  0.33057043  0.45131457  0.34612850  1
  N  N21  1  0.66942957  0.54868543  0.84612850  1
  N  N22  1  0.33057043  0.04868543  0.65387150  1
  N  N23  1  0.66942957  0.95131457  0.15387150  1
  N  N24  1  0.15792046  0.23333683  0.75000000  1
  N  N25  1  0.84207954  0.76666317  0.25000000  1
  N  N26  1  0.15792046  0.26666317  0.25000000  1
  N  N27  1  0.84207954  0.73333683  0.75000000  1
  N  N28  1  0.93725669  0.23944165  0.80540266  1
  N  N29  1  0.06274331  0.76055835  0.30540266  1
  N  N30  1  0.93725669  0.26055835  0.19459734  1
  N  N31  1  0.06274331  0.73944165  0.69459734  1
  N  N32  1  0.06274331  0.76055835  0.19459734  1
  N  N33  1  0.93725669  0.23944165  0.69459734  1
  N  N34  1  0.06274331  0.73944165  0.80540266  1
  N  N35  1  0.93725669  0.26055835  0.30540266  1
  N  N36  1  0.23099913  0.43890744  0.75000000  1
  N  N37  1  0.76900087  0.56109256  0.25000000  1
  N  N38  1  0.23099913  0.06109256  0.25000000  1
  N  N39  1  0.76900087  0.93890744  0.75000000  1
  N  N40  1  0.31899133  0.55651092  0.69423121  1
  N  N41  1  0.68100867  0.44348908  0.19423121  1
  N  N42  1  0.31899133  0.94348908  0.30576879  1
  N  N43  1  0.68100867  0.05651092  0.80576879  1
  N  N44  1  0.68100867  0.44348908  0.30576879  1
  N  N45  1  0.31899133  0.55651092  0.80576879  1
  N  N46  1  0.68100867  0.05651092  0.69423121  1
  N  N47  1  0.31899133  0.94348908  0.19423121  1
  O  O0  1  0.52767336  0.14685066  0.94216815  1
  O  O1  1  0.47232664  0.85314934  0.44216815  1
  O  O2  1  0.52767336  0.35314934  0.05783185  1
  O  O3  1  0.47232664  0.64685066  0.55783185  1
  O  O4  1  0.47232664  0.85314934  0.05783185  1
  O  O5  1  0.52767336  0.14685066  0.55783185  1
  O  O6  1  0.47232664  0.64685066  0.94216815  1
  O  O7  1  0.52767336  0.35314934  0.44216815  1
  O  O8  1  0.61824683  0.24329190  0.81280289  1
  O  O9  1  0.38175317  0.75670810  0.31280289  1
  O  O10  1  0.61824683  0.25670810  0.18719711  1
  O  O11  1  0.38175317  0.74329190  0.68719711  1
  O  O12  1  0.38175317  0.75670810  0.18719711  1
  O  O13  1  0.61824683  0.24329190  0.68719711  1
  O  O14  1  0.38175317  0.74329190  0.81280289  1
  O  O15  1  0.61824683  0.25670810  0.31280289  1
  O  O16  1  0.32448833  0.28306833  0.87962978  1
  O  O17  1  0.67551167  0.71693167  0.37962978  1
  O  O18  1  0.32448833  0.21693167  0.12037022  1
  O  O19  1  0.67551167  0.78306833  0.62037022  1
  O  O20  1  0.67551167  0.71693167  0.12037022  1
  O  O21  1  0.32448833  0.28306833  0.62037022  1
  O  O22  1  0.67551167  0.78306833  0.87962978  1
  O  O23  1  0.32448833  0.21693167  0.37962978  1
  O  O24  1  0.65328589  0.35266010  0.93851057  1
  O  O25  1  0.34671411  0.64733990  0.43851057  1
  O  O26  1  0.65328589  0.14733990  0.06148943  1
  O  O27  1  0.34671411  0.85266010  0.56148943  1
  O  O28  1  0.34671411  0.64733990  0.06148943  1
  O  O29  1  0.65328589  0.35266010  0.56148943  1
  O  O30  1  0.34671411  0.85266010  0.93851057  1
  O  O31  1  0.65328589  0.14733990  0.43851057  1
  O  O32  1  0.82581335  0.15029959  0.95726549  1
  O  O33  1  0.17418665  0.84970041  0.45726549  1
  O  O34  1  0.82581335  0.34970041  0.04273451  1
  O  O35  1  0.17418665  0.65029959  0.54273451  1
  O  O36  1  0.17418665  0.84970041  0.04273451  1
  O  O37  1  0.82581335  0.15029959  0.54273451  1
  O  O38  1  0.17418665  0.65029959  0.95726549  1
  O  O39  1  0.82581335  0.34970041  0.45726549  1
  O  O40  1  0.05743098  0.27667566  0.92776449  1
  O  O41  1  0.94256902  0.72332434  0.42776449  1
  O  O42  1  0.05743098  0.22332434  0.07223551  1
  O  O43  1  0.94256902  0.77667566  0.57223551  1
  O  O44  1  0.94256902  0.72332434  0.07223551  1
  O  O45  1  0.05743098  0.27667566  0.57223551  1
  O  O46  1  0.94256902  0.77667566  0.92776449  1
  O  O47  1  0.05743098  0.22332434  0.42776449  1
  O  O48  1  0.16231567  0.42813016  0.88341864  1
  O  O49  1  0.83768433  0.57186984  0.38341864  1
  O  O50  1  0.16231567  0.07186984  0.11658136  1
  O  O51  1  0.83768433  0.92813016  0.61658136  1
  O  O52  1  0.83768433  0.57186984  0.11658136  1
  O  O53  1  0.16231567  0.42813016  0.61658136  1
  O  O54  1  0.83768433  0.92813016  0.88341864  1
  O  O55  1  0.16231567  0.07186984  0.38341864  1
  O  O56  1  0.64200194  0.39581005  0.75000000  1
  O  O57  1  0.35799806  0.60418995  0.25000000  1
  O  O58  1  0.64200194  0.10418995  0.25000000  1
  O  O59  1  0.35799806  0.89581005  0.75000000  1
loop_
_geom_bond_atom_site_label_1
_geom_bond_atom_site_label_2
_geom_bond_distance
_geom_bond_site_symmetry_2
H0 N0 1.033099 1_555
H1 N1 1.033099 1_555
H2 N2 1.033099 1_555
H3 N3 1.033099 1_555
H4 N4 1.033099 1_555
H5 N5 1.033099 1_555
H6 N6 1.033099 1_555
H7 N7 1.033099 1_555
H8 N0 1.023693 1_555
H9 N1 1.023693 1_555
H10 N2 1.023693 1_555
H11 N3 1.023693 1_555
H12 N4 1.023693 1_555
H13 N5 1.023693 1_555
H14 N6 1.023693 1_555
H15 N7 1.023693 1_555
H16 N8 1.019300 1_555
H17 N9 1.019300 1_555
H18 N10 1.019300 1_555
H19 N11 1.019300 1_555
H20 N12 1.019300 1_555
H21 N13 1.019300 1_555
H22 N14 1.019300 1_555
H23 N15 1.019300 1_555
H24 N8 1.016398 1_555
H25 N9 1.016398 1_555
H26 N10 1.016398 1_555
H27 N11 1.016398 1_555
H28 N12 1.016398 1_555
H29 N13 1.016398 1_555
H30 N14 1.016398 1_555
H31 N15 1.016398 1_555
H32 N16 1.019553 1_555
H33 N17 1.019553 1_555
H34 N18 1.019553 1_555
H35 N19 1.019553 1_555
H36 N20 1.019553 1_555
H37 N21 1.019553 1_555
H38 N22 1.019553 1_555
H39 N23 1.019553 1_555
H40 N16 1.021259 1_555
H41 N17 1.021259 1_555
H42 N18 1.021259 1_555
H43 N19 1.021259 1_555
H44 N20 1.021259 1_555
H45 N21 1.021259 1_555
H46 N22 1.021259 1_555
H47 N23 1.021259 1_555
H48 N24 1.020546 1_555
H49 N25 1.020546 1_555
H50 N26 1.020546 1_555
H51 N27 1.020546 1_555
H52 N25 1.020546 1_555
H53 N24 1.020546 1_555
H54 N27 1.020546 1_555
H55 N26 1.020546 1_555
H56 N28 1.027711 1_555
H57 N29 1.027711 1_555
H58 N30 1.027711 1_555
H59 N31 1.027711 1_555
H60 N32 1.027711 1_555
H61 N33 1.027711 1_555
H62 N34 1.027711 1_555
H63 N35 1.027711 1_555
H64 N28 1.031153 1_555
H65 N29 1.031153 1_555
H66 N30 1.031153 1_555
H67 N31 1.031153 1_555
H68 N32 1.031153 1_555
H69 N33 1.031153 1_555
H70 N34 1.031153 1_555
H71 N35 1.031153 1_555
H72 N36 1.024366 1_555
H73 N37 1.024366 1_555
H74 N38 1.024366 1_555
H75 N39 1.024366 1_555
H76 N37 1.024366 1_555
H77 N36 1.024366 1_555
H78 N39 1.024366 1_555
H79 N38 1.024366 1_555
H80 N40 1.022654 1_555
H81 N41 1.022654 1_555
H82 N42 1.022654 1_555
H83 N43 1.022654 1_555
H84 N44 1.022654 1_555
H85 N45 1.022654 1_555
H86 N46 1.022654 1_555
H87 N47 1.022654 1_555
H88 N40 1.026223 1_555
H89 N41 1.026223 1_555
H90 N42 1.026223 1_555
H91 N43 1.026223 1_555
H92 N44 1.026223 1_555
H93 N45 1.026223 1_555
H94 N46 1.026223 1_555
H95 N47 1.026223 1_555
C0 N0 1.327440 1_555
C0 N16 1.344257 1_555
C0 N8 1.348668 1_555
C1 N1 1.327440 1_555
C1 N17 1.344257 1_555
C1 N9 1.348668 1_555
C2 N2 1.327440 1_565
C2 N18 1.344257 1_555
C2 N10 1.348668 1_555
C3 N3 1.327440 1_545
C3 N19 1.344257 1_555
C3 N11 1.348668 1_555
C4 N4 1.327440 1_555
C4 N20 1.344257 1_555
C4 N12 1.348668 1_555
C5 N5 1.327440 1_555
C5 N21 1.344257 1_555
C5 N13 1.348668 1_555
C6 N6 1.327440 1_545
C6 N22 1.344257 1_555
C6 N14 1.348668 1_555
C7 N7 1.327440 1_565
C7 N23 1.344257 1_555
C7 N15 1.348668 1_555
C8 N33 1.335954 1_455
C8 N28 1.335954 1_455
C8 N24 1.347006 1_555
C9 N29 1.335954 1_655
C9 N32 1.335954 1_655
C9 N25 1.347006 1_555
C10 N30 1.335954 1_455
C10 N35 1.335954 1_455
C10 N26 1.347006 1_555
C11 N31 1.335954 1_655
C11 N34 1.335954 1_655
C11 N27 1.347006 1_555
C12 N36 1.334618 1_555
C12 N45 1.341595 1_555
C12 N40 1.341595 1_555
C13 N37 1.334618 1_555
C13 N41 1.341595 1_555
C13 N44 1.341595 1_555
C14 N38 1.334618 1_565
C14 N47 1.341595 1_555
C14 N42 1.341595 1_555
C15 N39 1.334618 1_545
C15 N46 1.341595 1_555
C15 N43 1.341595 1_555
O0 Se8 1.740335 1_555
O0 Zn0 1.975591 1_555
O1 Se9 1.740335 1_555
O1 Zn1 1.975591 1_555
O2 Se10 1.740335 1_555
O2 Zn2 1.975591 1_555
O3 Se11 1.740335 1_555
O3 Zn3 1.975591 1_555
O4 Se12 1.740335 1_555
O4 Zn4 1.975591 1_555
O5 Se13 1.740335 1_555
O5 Zn5 1.975591 1_555
O6 Se14 1.740335 1_555
O6 Zn6 1.975591 1_555
O7 Se15 1.740335 1_555
O7 Zn7 1.975591 1_555
O8 Se16 1.760618 1_555
O8 Zn0 2.015660 1_555
O9 Se17 1.760618 1_555
O9 Zn1 2.015660 1_555
O10 Se18 1.760618 1_555
O10 Zn2 2.015660 1_555
O11 Se19 1.760618 1_555
O11 Zn3 2.015660 1_555
O12 Se17 1.760618 1_555
O12 Zn4 2.015660 1_555
O13 Se16 1.760618 1_555
O13 Zn5 2.015660 1_555
O14 Se19 1.760618 1_555
O14 Zn6 2.015660 1_555
O15 Se18 1.760618 1_555
O15 Zn7 2.015660 1_555
O16 Se0 1.749131 1_555
O16 Zn0 1.991996 1_555
O17 Se1 1.749131 1_555
O17 Zn1 1.991996 1_555
O18 Se2 1.749131 1_555
O18 Zn2 1.991996 1_555
O19 Se3 1.749131 1_555
O19 Zn3 1.991996 1_555
O20 Se4 1.749131 1_555
O20 Zn4 1.991996 1_555
O21 Se5 1.749131 1_555
O21 Zn5 1.991996 1_555
O22 Se6 1.749131 1_555
O22 Zn6 1.991996 1_555
O23 Se7 1.749131 1_555
O23 Zn7 1.991996 1_555
O24 Se10 1.717221 1_556
O24 Zn0 1.947901 1_555
O25 Se11 1.717221 1_555
O25 Zn1 1.947901 1_555
O26 Se8 1.717221 1_554
O26 Zn2 1.947901 1_555
O27 Se9 1.717221 1_555
O27 Zn3 1.947901 1_555
O28 Se14 1.717221 1_554
O28 Zn4 1.947901 1_555
O29 Se15 1.717221 1_555
O29 Zn5 1.947901 1_555
O30 Se12 1.717221 1_556
O30 Zn6 1.947901 1_555
O31 Se13 1.717221 1_555
O31 Zn7 1.947901 1_555
O32 Se8 1.732374 1_555
O32 Zn8 1.977385 1_556
O33 Se9 1.732374 1_555
O33 Zn9 1.977385 1_555
O34 Se10 1.732374 1_555
O34 Zn8 1.977385 1_555
O35 Se11 1.732374 1_555
O35 Zn9 1.977385 1_555
O36 Se12 1.732374 1_555
O36 Zn10 1.977385 1_555
O37 Se13 1.732374 1_555
O37 Zn11 1.977385 1_555
O38 Se14 1.732374 1_555
O38 Zn10 1.977385 1_556
O39 Se15 1.732374 1_555
O39 Zn11 1.977385 1_555
O40 Se0 1.744034 1_555
O40 Zn8 2.012971 1_456
O41 Se1 1.744034 1_555
O41 Zn9 2.012971 1_655
O42 Se2 1.744034 1_555
O42 Zn8 2.012971 1_455
O43 Se3 1.744034 1_555
O43 Zn9 2.012971 1_655
O44 Se4 1.744034 1_555
O44 Zn10 2.012971 1_655
O45 Se5 1.744034 1_555
O45 Zn11 2.012971 1_455
O46 Se6 1.744034 1_555
O46 Zn10 2.012971 1_656
O47 Se7 1.744034 1_555
O47 Zn11 2.012971 1_455
O48 Se0 1.702145 1_555
O49 Se1 1.702145 1_555
O50 Se2 1.702145 1_555
O51 Se3 1.702145 1_555
O52 Se4 1.702145 1_555
O53 Se5 1.702145 1_555
O54 Se6 1.702145 1_555
O55 Se7 1.702145 1_555
O56 Se16 1.697174 1_555
O57 Se17 1.697174 1_555
O58 Se18 1.697174 1_555
O59 Se19 1.697174 1_555
