# generated using pymatgen
data_CsTmP2O7
_symmetry_space_group_name_H-M   'P 1'
_cell_length_a   10.93722600
_cell_length_b   7.94330400
_cell_length_c   8.81779748
_cell_angle_alpha   74.88528745
_cell_angle_beta   90.00000000
_cell_angle_gamma   90.00000000
_symmetry_Int_Tables_number   1
_chemical_formula_structural   CsTmP2O7
_chemical_formula_sum   'Cs4 Tm4 P8 O28'
_cell_volume   739.56840837
_cell_formula_units_Z   4
loop_
 _symmetry_equiv_pos_site_id
 _symmetry_equiv_pos_as_xyz
  1  'x, y, z'
loop_
 _atom_site_type_symbol
 _atom_site_label
 _atom_site_symmetry_multiplicity
 _atom_site_fract_x
 _atom_site_fract_y
 _atom_site_fract_z
 _atom_site_occupancy
  Cs  Cs0  1  0.81425400  0.81240400  0.55518900  1
  Cs  Cs1  1  0.18574600  0.18759600  0.44481100  1
  Cs  Cs2  1  0.31425400  0.18759600  0.94481100  1
  Cs  Cs3  1  0.68574600  0.81240400  0.05518900  1
  Tm  Tm0  1  0.40097100  0.76161400  0.75773500  1
  Tm  Tm1  1  0.59902900  0.23838600  0.24226500  1
  Tm  Tm2  1  0.90097100  0.23838600  0.74226500  1
  Tm  Tm3  1  0.09902900  0.76161400  0.25773500  1
  P  P0  1  0.13169900  0.57025900  0.68875300  1
  P  P1  1  0.86830100  0.42974100  0.31124700  1
  P  P2  1  0.63169900  0.42974100  0.81124700  1
  P  P3  1  0.36830100  0.57025900  0.18875300  1
  P  P4  1  0.09760300  0.86587600  0.82727200  1
  P  P5  1  0.90239700  0.13412400  0.17272800  1
  P  P6  1  0.59760300  0.13412400  0.67272800  1
  P  P7  1  0.40239700  0.86587600  0.32727200  1
  O  O0  1  0.07213600  0.38945200  0.73253400  1
  O  O1  1  0.92786400  0.61054800  0.26746600  1
  O  O2  1  0.57213600  0.61054800  0.76746600  1
  O  O3  1  0.42786400  0.38945200  0.23253400  1
  O  O4  1  0.22756200  0.91155700  0.76258100  1
  O  O5  1  0.77243800  0.08844300  0.23741900  1
  O  O6  1  0.72756200  0.08844300  0.73741900  1
  O  O7  1  0.27243800  0.91155700  0.26258100  1
  O  O8  1  0.26705100  0.55877600  0.73553400  1
  O  O9  1  0.73294900  0.44122400  0.26446600  1
  O  O10  1  0.76705100  0.44122400  0.76446600  1
  O  O11  1  0.23294900  0.55877600  0.23553400  1
  O  O12  1  0.10722000  0.67104800  0.51878200  1
  O  O13  1  0.89278000  0.32895200  0.48121800  1
  O  O14  1  0.60722000  0.32895200  0.98121800  1
  O  O15  1  0.39278000  0.67104800  0.01878200  1
  O  O16  1  0.41061000  0.84634000  0.50257000  1
  O  O17  1  0.58939000  0.15366000  0.49743000  1
  O  O18  1  0.91061000  0.15366000  0.99743000  1
  O  O19  1  0.08939000  0.84634000  0.00257000  1
  O  O20  1  0.06147100  0.67657300  0.79981700  1
  O  O21  1  0.93852900  0.32342700  0.20018300  1
  O  O22  1  0.56147100  0.32342700  0.70018300  1
  O  O23  1  0.43852900  0.67657300  0.29981700  1
  O  O24  1  0.50362300  0.00392500  0.76701400  1
  O  O25  1  0.49637700  0.99607500  0.23298600  1
  O  O26  1  0.00362300  0.99607500  0.73298600  1
  O  O27  1  0.99637700  0.00392500  0.26701400  1
loop_
_geom_bond_atom_site_label_1
_geom_bond_atom_site_label_2
_geom_bond_distance
_geom_bond_site_symmetry_2
Cs0 O10 3.086665 1_555
Cs0 O5 3.108736 1_565
Cs0 O26 3.173181 1_655
Cs0 O6 3.182175 1_565
Cs0 O27 3.274622 1_565
Cs0 O2 3.394385 1_555
Cs0 O12 3.437866 1_655
Cs0 O20 3.451708 1_655
Cs0 O1 3.559938 1_555
Cs0 O17 3.596651 1_565
Cs1 O11 3.086665 1_555
Cs1 O4 3.108736 1_545
Cs1 O27 3.173181 1_455
Cs1 O7 3.182175 1_545
Cs1 O26 3.274622 1_545
Cs1 O3 3.394385 1_555
Cs1 O13 3.437866 1_455
Cs1 O21 3.451708 1_455
Cs1 O0 3.559938 1_555
Cs1 O16 3.596651 1_545
Cs2 O8 3.086665 1_555
Cs2 O7 3.108736 1_546
Cs2 O24 3.173181 1_555
Cs2 O4 3.182175 1_545
Cs2 O25 3.274622 1_546
Cs2 O0 3.394385 1_555
Cs2 O14 3.437866 1_555
Cs2 O22 3.451708 1_555
Cs2 O3 3.559938 1_556
Cs2 O19 3.596651 1_546
Cs3 O9 3.086665 1_555
Cs3 O6 3.108736 1_564
Cs3 O25 3.173181 1_555
Cs3 O5 3.182175 1_565
Cs3 O24 3.274622 1_564
Cs3 O1 3.394385 1_555
Cs3 O15 3.437866 1_555
Cs3 O23 3.451708 1_555
Cs3 O2 3.559938 1_554
Cs3 O18 3.596651 1_564
O0 P0 1.531981 1_555
O0 Tm2 2.213193 1_455
O1 P1 1.531981 1_555
O1 Tm3 2.213193 1_655
O2 P2 1.531981 1_555
O2 Tm0 2.213193 1_555
O3 P3 1.531981 1_555
O3 Tm1 2.213193 1_555
O4 P4 1.539307 1_555
O4 Tm0 2.245906 1_555
O5 P5 1.539307 1_555
O5 Tm1 2.245906 1_555
O6 P6 1.539307 1_555
O6 Tm2 2.245906 1_555
O7 P7 1.539307 1_555
O7 Tm3 2.245906 1_555
O8 P0 1.533092 1_555
O8 Tm0 2.223551 1_555
O9 P1 1.533092 1_555
O9 Tm1 2.223551 1_555
O10 P2 1.533092 1_555
O10 Tm2 2.223551 1_555
O11 P3 1.533092 1_555
O11 Tm3 2.223551 1_555
O12 P0 1.527478 1_555
O12 Tm3 2.227224 1_555
O13 P1 1.527478 1_555
O13 Tm2 2.227224 1_555
O14 P2 1.527478 1_555
O14 Tm1 2.227224 1_556
O15 P3 1.527478 1_555
O15 Tm0 2.227224 1_554
O16 P7 1.515380 1_555
O16 Tm0 2.176425 1_555
O17 P6 1.515380 1_555
O17 Tm1 2.176425 1_555
O18 P5 1.515380 1_556
O18 Tm2 2.176425 1_555
O19 P4 1.515380 1_554
O19 Tm3 2.176425 1_555
O20 P4 1.632701 1_555
O20 P0 1.641201 1_555
O21 P5 1.632701 1_555
O21 P1 1.641201 1_555
O22 P6 1.632701 1_555
O22 P2 1.641201 1_555
O23 P7 1.632701 1_555
O23 P3 1.641201 1_555
O24 P6 1.539135 1_555
O24 Tm0 2.248111 1_545
O25 P7 1.539135 1_555
O25 Tm1 2.248111 1_565
O26 P4 1.539135 1_555
O26 Tm2 2.248111 1_465
O27 P5 1.539135 1_555
O27 Tm3 2.248111 1_645
