# generated using pymatgen
data_NaAl3(SiO4)3
_symmetry_space_group_name_H-M   'P 1'
_cell_length_a   5.26807925
_cell_length_b   5.26852894
_cell_length_c   19.77073129
_cell_angle_alpha   91.80690181
_cell_angle_beta   86.38408709
_cell_angle_gamma   119.99717026
_symmetry_Int_Tables_number   1
_chemical_formula_structural   NaAl3(SiO4)3
_chemical_formula_sum   'Na2 Al6 Si6 O24'
_cell_volume   474.28783397
_cell_formula_units_Z   2
loop_
 _symmetry_equiv_pos_site_id
 _symmetry_equiv_pos_as_xyz
  1  'x, y, z'
loop_
 _atom_site_type_symbol
 _atom_site_label
 _atom_site_symmetry_multiplicity
 _atom_site_fract_x
 _atom_site_fract_y
 _atom_site_fract_z
 _atom_site_occupancy
  Na  Na0  1  0.04431600  0.18408600  0.27258600  1
  Na  Na1  1  0.86023100  0.81591400  0.77258600  1
  Al  Al0  1  0.37613400  0.18170900  0.49707100  1
  Al  Al1  1  0.81816600  0.18467300  0.99666700  1
  Al  Al2  1  0.63349300  0.81532700  0.49666700  1
  Al  Al3  1  0.19442500  0.81829100  0.99707100  1
  Al  Al4  1  0.36318000  0.84790700  0.35879800  1
  Al  Al5  1  0.51527300  0.15209300  0.85879800  1
  Si  Si0  1  0.49074600  0.85430500  0.13778500  1
  Si  Si1  1  0.63644100  0.14569500  0.63778500  1
  Si  Si2  1  0.67923700  0.50663500  0.35685600  1
  Si  Si3  1  0.83639100  0.51118500  0.13736900  1
  Si  Si4  1  0.32520600  0.48881500  0.63736900  1
  Si  Si5  1  0.17260200  0.49336500  0.85685600  1
  O  O0  1  0.63022800  0.76087300  0.32463200  1
  O  O1  1  0.15344400  0.72067100  0.17204000  1
  O  O2  1  0.43277300  0.27932900  0.67204000  1
  O  O3  1  0.86935500  0.23912700  0.82463200  1
  O  O4  1  0.61192600  0.50270400  0.44085700  1
  O  O5  1  0.89471500  0.49549100  0.05604100  1
  O  O6  1  0.39922400  0.50450900  0.55604100  1
  O  O7  1  0.10922200  0.49729600  0.94085700  1
  O  O8  1  0.01235100  0.09446000  0.46832700  1
  O  O9  1  0.06621100  0.07256300  0.03524400  1
  O  O10  1  0.99364800  0.92743700  0.53524400  1
  O  O11  1  0.91789100  0.90554000  0.96832700  1
  O  O12  1  0.44117700  0.18873400  0.32575800  1
  O  O13  1  0.70142100  0.18108300  0.17104400  1
  O  O14  1  0.52033800  0.81891700  0.67104400  1
  O  O15  1  0.25244300  0.81126600  0.82575800  1
  O  O16  1  0.41614300  0.90415700  0.44592900  1
  O  O17  1  0.48562000  0.89436700  0.05715200  1
  O  O18  1  0.59125200  0.10563300  0.55715200  1
  O  O19  1  0.51198600  0.09584300  0.94592900  1
  O  O20  1  0.01200300  0.56935300  0.33740200  1
  O  O21  1  0.61192600  0.63571500  0.15844300  1
  O  O22  1  0.97621000  0.36428500  0.65844300  1
  O  O23  1  0.44265000  0.43064700  0.83740200  1
loop_
_geom_bond_atom_site_label_1
_geom_bond_atom_site_label_2
_geom_bond_distance
_geom_bond_site_symmetry_2
Na0 O12 2.387706 1_555
Na0 O0 2.405641 1_445
Na0 O20 2.438261 1_555
Na0 O13 2.778572 1_455
Na1 O15 2.387701 1_655
Na1 O3 2.405643 1_565
Na1 O23 2.438263 1_555
Na1 O14 2.778576 1_555
Al0 O16 1.842045 1_545
Al0 O8 1.856617 1_555
Al0 O4 1.866036 1_555
Al0 O18 1.873473 1_555
Al0 O10 1.896616 1_445
Al0 O6 1.988061 1_555
Al1 O19 1.801851 1_555
Al1 O11 1.853675 1_545
Al1 O5 1.870921 1_556
Al1 O9 1.887848 1_656
Al1 O7 1.912411 1_655
Al1 O17 2.002566 1_546
Al2 O16 1.801851 1_555
Al2 O8 1.853675 1_665
Al2 O6 1.870921 1_555
Al2 O10 1.887848 1_555
Al2 O4 1.912411 1_555
Al2 O18 2.002568 1_565
Al3 O19 1.842046 1_565
Al3 O11 1.856617 1_455
Al3 O7 1.866036 1_555
Al3 O17 1.873477 1_556
Al3 O9 1.896616 1_566
Al3 O5 1.988061 1_456
Al4 O16 1.754687 1_555
Al4 O20 1.760698 1_555
Al4 O12 1.766995 1_565
Al4 O0 1.775204 1_555
Al5 O19 1.754687 1_555
Al5 O23 1.760698 1_555
Al5 O15 1.766996 1_545
Al5 O3 1.775204 1_555
O0 Si2 1.639225 1_555
O1 Si3 1.652629 1_455
O1 Si0 1.655045 1_555
O2 Si4 1.652628 1_555
O2 Si1 1.655045 1_555
O3 Si5 1.639225 1_655
O4 Si2 1.674766 1_555
O5 Si3 1.625218 1_555
O6 Si4 1.625218 1_555
O7 Si5 1.674766 1_555
O10 O8 1.582609 1_665
O11 O9 1.582609 1_666
O12 Si2 1.639523 1_555
O13 Si0 1.654766 1_545
O13 Si3 1.658403 1_555
O14 Si1 1.654766 1_565
O14 Si4 1.658403 1_555
O15 Si5 1.639523 1_555
O17 Si0 1.618337 1_555
O18 Si1 1.618338 1_555
O20 Si2 1.635242 1_455
O21 Si0 1.642657 1_555
O21 Si3 1.642781 1_555
O22 Si1 1.642653 1_555
O22 Si4 1.642786 1_655
O23 Si5 1.635242 1_555
