# generated using pymatgen
data_Li7Mn2(CoO4)3
_symmetry_space_group_name_H-M   'P 1'
_cell_length_a   4.98756100
_cell_length_b   5.03572869
_cell_length_c   9.88114378
_cell_angle_alpha   86.40768831
_cell_angle_beta   101.82218573
_cell_angle_gamma   117.21148639
_symmetry_Int_Tables_number   1
_chemical_formula_structural   Li7Mn2(CoO4)3
_chemical_formula_sum   'Li7 Mn2 Co3 O12'
_cell_volume   215.88911171
_cell_formula_units_Z   1
loop_
 _symmetry_equiv_pos_site_id
 _symmetry_equiv_pos_as_xyz
  1  'x, y, z'
loop_
 _atom_site_type_symbol
 _atom_site_label
 _atom_site_symmetry_multiplicity
 _atom_site_fract_x
 _atom_site_fract_y
 _atom_site_fract_z
 _atom_site_occupancy
  Li  Li0  1  0.75157500  0.99381700  0.25828200  1
  Li  Li1  1  0.57937000  0.66191300  0.74300100  1
  Li  Li2  1  0.43176100  0.34076300  0.26029800  1
  Li  Li3  1  0.07049000  0.65195400  0.25939900  1
  Li  Li4  1  0.91376400  0.34096700  0.74146800  1
  Li  Li5  1  0.24884900  0.00532200  0.73798700  1
  Li  Li6  1  0.83343700  0.66747800  0.50013200  1
  Mn  Mn0  1  0.99795400  0.00351300  0.99961500  1
  Mn  Mn1  1  0.33651200  0.66442700  0.00033500  1
  Co  Co0  1  0.66677400  0.33304700  0.00038800  1
  Co  Co1  1  0.49894700  0.98622300  0.50349800  1
  Co  Co2  1  0.16748500  0.34611500  0.49650800  1
  O  O0  1  0.02556000  0.31818300  0.11487400  1
  O  O1  1  0.84156000  0.00253800  0.61751400  1
  O  O2  1  0.69581600  0.64872400  0.11710500  1
  O  O3  1  0.38731000  0.01523800  0.10470400  1
  O  O4  1  0.21124500  0.65469700  0.61591800  1
  O  O5  1  0.49649600  0.30777000  0.61134300  1
  O  O6  1  0.45390500  0.68129400  0.38305800  1
  O  O7  1  0.30955800  0.34776300  0.88515700  1
  O  O8  1  0.17141700  0.02673100  0.38649900  1
  O  O9  1  0.82577900  0.32935900  0.38397900  1
  O  O10  1  0.63717100  0.01923500  0.88499400  1
  O  O11  1  0.94726500  0.65292700  0.89394400  1
loop_
_geom_bond_atom_site_label_1
_geom_bond_atom_site_label_2
_geom_bond_distance
_geom_bond_site_symmetry_2
Li0 O9 2.009331 1_565
Li0 O6 2.138013 1_555
Li0 O8 2.153887 1_665
Li0 O3 2.155061 1_565
Li0 O2 2.178555 1_555
Li0 O0 2.237283 1_665
Li1 O4 1.987266 1_555
Li1 O5 2.107112 1_555
Li1 O1 2.129845 1_565
Li1 O11 2.130621 1_555
Li1 O7 2.199034 1_555
Li1 O10 2.228373 1_565
Li2 O8 2.068882 1_555
Li2 O6 2.111105 1_555
Li2 O9 2.114036 1_555
Li2 O2 2.182230 1_555
Li2 O0 2.190703 1_555
Li2 O3 2.223474 1_555
Li3 O6 1.994631 1_555
Li3 O9 2.048346 1_455
Li3 O2 2.089909 1_455
Li3 O8 2.135792 1_565
Li3 O0 2.177114 1_555
Li3 O3 2.485087 1_565
Li4 O1 2.013408 1_555
Li4 O4 2.145045 1_655
Li4 O5 2.150505 1_555
Li4 O7 2.170199 1_655
Li4 O11 2.172357 1_555
Li4 O10 2.238066 1_555
Li5 O5 2.021210 1_555
Li5 O4 2.116343 1_545
Li5 O1 2.128138 1_455
Li5 O10 2.145214 1_555
Li5 O7 2.199180 1_555
Li5 O11 2.439739 1_445
Li6 O4 2.020436 1_655
Li6 O6 2.034550 1_555
Li6 O1 2.087412 1_565
Li6 O9 2.094107 1_555
Li6 O5 2.244130 1_555
Li6 O8 2.259898 1_665
Mn0 O0 1.946619 1_656
Mn0 O10 1.952163 1_555
Mn0 O3 1.982280 1_656
Mn0 O11 1.996408 1_545
Mn0 O7 2.170304 1_655
Mn0 O2 2.192096 1_546
Mn1 O2 1.954463 1_555
Mn1 O7 1.955724 1_554
Mn1 O11 1.986469 1_454
Mn1 O3 1.990096 1_565
Mn1 O0 2.173744 1_555
Mn1 O10 2.175937 1_564
Co0 O7 1.937813 1_554
Co0 O10 1.939743 1_554
Co0 O0 1.941634 1_655
Co0 O2 1.956736 1_555
Co0 O3 1.976974 1_555
Co0 O11 1.996947 1_554
Co1 O1 1.813940 1_565
Co1 O8 1.883635 1_565
Co1 O6 1.904894 1_555
Co1 O5 1.999318 1_565
Co1 O4 2.076051 1_555
Co1 O9 2.234900 1_565
Co2 O9 1.803275 1_455
Co2 O5 1.875357 1_555
Co2 O4 1.915359 1_555
Co2 O8 2.006335 1_555
Co2 O6 2.088113 1_555
Co2 O1 2.242896 1_455
