# generated using pymatgen
data_NaHfMg30O31
_symmetry_space_group_name_H-M   'P 1'
_cell_length_a   8.57252400
_cell_length_b   8.59732000
_cell_length_c   8.59878400
_cell_angle_alpha   90.00000000
_cell_angle_beta   90.00000000
_cell_angle_gamma   90.00000000
_symmetry_Int_Tables_number   1
_chemical_formula_structural   NaHfMg30O31
_chemical_formula_sum   'Na1 Hf1 Mg30 O31'
_cell_volume   633.73667542
_cell_formula_units_Z   1
loop_
 _symmetry_equiv_pos_site_id
 _symmetry_equiv_pos_as_xyz
  1  'x, y, z'
loop_
 _atom_site_type_symbol
 _atom_site_label
 _atom_site_symmetry_multiplicity
 _atom_site_fract_x
 _atom_site_fract_y
 _atom_site_fract_z
 _atom_site_occupancy
  Na  Na0  1  0.00000000  0.00025400  0.00000000  1
  Hf  Hf0  1  0.50000000  0.00010500  0.50000000  1
  Mg  Mg0  1  0.50000000  0.00222600  0.00000000  1
  Mg  Mg1  1  0.00000000  0.00009800  0.50000000  1
  Mg  Mg2  1  0.00000000  0.49962700  0.00000000  1
  Mg  Mg3  1  0.50000000  0.49855400  0.00000000  1
  Mg  Mg4  1  0.00000000  0.49991700  0.50000000  1
  Mg  Mg5  1  0.50000000  0.49953100  0.50000000  1
  Mg  Mg6  1  0.24329500  0.99988800  0.24136700  1
  Mg  Mg7  1  0.75670500  0.99988800  0.24136700  1
  Mg  Mg8  1  0.24329500  0.99988800  0.75863300  1
  Mg  Mg9  1  0.75670500  0.99988800  0.75863300  1
  Mg  Mg10  1  0.24884500  0.50005600  0.24803200  1
  Mg  Mg11  1  0.75115500  0.50005600  0.24803200  1
  Mg  Mg12  1  0.24884500  0.50005600  0.75196800  1
  Mg  Mg13  1  0.75115500  0.50005600  0.75196800  1
  Mg  Mg14  1  0.24583200  0.75010700  0.00000000  1
  Mg  Mg15  1  0.75416800  0.75010700  0.00000000  1
  Mg  Mg16  1  0.24382500  0.74372900  0.50000000  1
  Mg  Mg17  1  0.75617500  0.74372900  0.50000000  1
  Mg  Mg18  1  0.24752300  0.24980900  0.00000000  1
  Mg  Mg19  1  0.75247700  0.24980900  0.00000000  1
  Mg  Mg20  1  0.24414400  0.25630400  0.50000000  1
  Mg  Mg21  1  0.75585600  0.25630400  0.50000000  1
  Mg  Mg22  1  0.00000000  0.75038500  0.24798300  1
  Mg  Mg23  1  0.50000000  0.74592000  0.24604600  1
  Mg  Mg24  1  0.00000000  0.75038500  0.75201700  1
  Mg  Mg25  1  0.50000000  0.74592000  0.75395400  1
  Mg  Mg26  1  0.00000000  0.24958800  0.24750100  1
  Mg  Mg27  1  0.50000000  0.25360800  0.24534800  1
  Mg  Mg28  1  0.00000000  0.24958800  0.75249900  1
  Mg  Mg29  1  0.50000000  0.25360800  0.75465200  1
  O  O0  1  0.00000000  0.73684700  0.00000000  1
  O  O1  1  0.00000000  0.74881900  0.50000000  1
  O  O2  1  0.50000000  0.74681300  0.50000000  1
  O  O3  1  0.00000000  0.26288400  0.00000000  1
  O  O4  1  0.50000000  0.25243000  0.00000000  1
  O  O5  1  0.00000000  0.25119700  0.50000000  1
  O  O6  1  0.50000000  0.25330300  0.50000000  1
  O  O7  1  0.24974300  0.75092200  0.25209000  1
  O  O8  1  0.75025700  0.75092200  0.25209000  1
  O  O9  1  0.24974300  0.75092200  0.74791000  1
  O  O10  1  0.75025700  0.75092200  0.74791000  1
  O  O11  1  0.25065900  0.24903200  0.25110600  1
  O  O12  1  0.74934100  0.24903200  0.25110600  1
  O  O13  1  0.25065900  0.24903200  0.74889400  1
  O  O14  1  0.74934100  0.24903200  0.74889400  1
  O  O15  1  0.26290400  0.00025200  0.00000000  1
  O  O16  1  0.73709600  0.00025200  0.00000000  1
  O  O17  1  0.25573200  0.99998400  0.50000000  1
  O  O18  1  0.74426800  0.99998400  0.50000000  1
  O  O19  1  0.25191200  0.49921500  0.00000000  1
  O  O20  1  0.74808800  0.49921500  0.00000000  1
  O  O21  1  0.25074200  0.50002200  0.50000000  1
  O  O22  1  0.74925800  0.50002200  0.50000000  1
  O  O23  1  0.00000000  0.99998200  0.26435600  1
  O  O24  1  0.50000000  0.00097600  0.24915700  1
  O  O25  1  0.00000000  0.99998200  0.73564400  1
  O  O26  1  0.50000000  0.00097600  0.75084300  1
  O  O27  1  0.00000000  0.50002100  0.25309300  1
  O  O28  1  0.50000000  0.49900100  0.25180200  1
  O  O29  1  0.00000000  0.50002100  0.74690700  1
  O  O30  1  0.50000000  0.49900100  0.74819800  1
loop_
_geom_bond_atom_site_label_1
_geom_bond_atom_site_label_2
_geom_bond_distance
_geom_bond_site_symmetry_2
Na0 O15 2.253751 1_555
Na0 O16 2.253751 1_455
Na0 O3 2.257914 1_555
Na0 O0 2.264594 1_545
Na0 O23 2.273141 1_545
Na0 O25 2.273141 1_544
Hf0 O18 2.093994 1_545
Hf0 O17 2.093994 1_545
Hf0 O26 2.156958 1_555
Hf0 O24 2.156958 1_555
Hf0 O6 2.176824 1_555
Hf0 O2 2.177632 1_545
Mg0 O16 2.032582 1_555
Mg0 O15 2.032582 1_555
Mg0 O24 2.142474 1_555
Mg0 O26 2.142474 1_554
Mg0 O4 2.151084 1_555
Mg1 O25 2.026252 1_545
Mg1 O23 2.026252 1_545
Mg1 O5 2.158778 1_555
Mg1 O1 2.160326 1_545
Mg1 O17 2.192269 1_545
Mg1 O18 2.192269 1_445
Mg2 O3 2.035355 1_555
Mg2 O0 2.039456 1_555
Mg2 O19 2.159525 1_555
Mg2 O20 2.159525 1_455
Mg2 O27 2.176295 1_555
Mg2 O29 2.176295 1_554
Mg3 O4 2.116007 1_555
Mg3 O20 2.126748 1_555
Mg3 O19 2.126748 1_555
Mg3 O28 2.165194 1_555
Mg3 O30 2.165194 1_554
Mg4 O29 2.123100 1_555
Mg4 O27 2.123100 1_555
Mg4 O5 2.138325 1_555
Mg4 O1 2.139890 1_555
Mg4 O21 2.149492 1_555
Mg4 O22 2.149492 1_455
Mg5 O6 2.116901 1_555
Mg5 O2 2.125962 1_555
Mg5 O30 2.134206 1_555
Mg5 O28 2.134206 1_555
Mg5 O22 2.136774 1_555
Mg5 O21 2.136774 1_555
Mg6 O15 2.082261 1_565
Mg6 O23 2.094999 1_555
Mg6 O7 2.143138 1_555
Mg6 O11 2.144536 1_565
Mg6 O24 2.201649 1_565
Mg6 O17 2.226484 1_555
Mg7 O16 2.082261 1_565
Mg7 O23 2.094999 1_655
Mg7 O8 2.143138 1_555
Mg7 O12 2.144536 1_565
Mg7 O24 2.201649 1_565
Mg7 O18 2.226484 1_555
Mg8 O15 2.082261 1_566
Mg8 O25 2.094999 1_555
Mg8 O9 2.143138 1_555
Mg8 O13 2.144536 1_565
Mg8 O26 2.201649 1_565
Mg8 O17 2.226484 1_555
Mg9 O16 2.082261 1_566
Mg9 O25 2.094999 1_655
Mg9 O10 2.143138 1_555
Mg9 O14 2.144536 1_565
Mg9 O26 2.201649 1_565
Mg9 O18 2.226484 1_555
Mg10 O19 2.132948 1_555
Mg10 O27 2.133674 1_555
Mg10 O28 2.153295 1_555
Mg10 O7 2.157071 1_555
Mg10 O11 2.158352 1_555
Mg10 O21 2.166679 1_555
Mg11 O20 2.132948 1_555
Mg11 O27 2.133674 1_655
Mg11 O28 2.153295 1_555
Mg11 O8 2.157071 1_555
Mg11 O12 2.158352 1_555
Mg11 O22 2.166679 1_555
Mg12 O19 2.132948 1_556
Mg12 O29 2.133674 1_555
Mg12 O30 2.153295 1_555
Mg12 O9 2.157071 1_555
Mg12 O13 2.158352 1_555
Mg12 O21 2.166679 1_555
Mg13 O20 2.132948 1_556
Mg13 O29 2.133674 1_655
Mg13 O30 2.153295 1_555
Mg13 O10 2.157071 1_555
Mg13 O14 2.158352 1_555
Mg13 O22 2.166679 1_555
Mg14 O0 2.110482 1_555
Mg14 O15 2.155551 1_565
Mg14 O19 2.157628 1_555
Mg14 O9 2.167938 1_554
Mg14 O7 2.167938 1_555
Mg15 O0 2.110482 1_655
Mg15 O16 2.155551 1_565
Mg15 O20 2.157628 1_555
Mg15 O10 2.167938 1_554
Mg15 O8 2.167938 1_555
Mg16 O1 2.090654 1_555
Mg16 O21 2.096066 1_555
Mg16 O7 2.133225 1_555
Mg16 O9 2.133225 1_555
Mg16 O2 2.196226 1_555
Mg16 O17 2.205470 1_555
Mg17 O1 2.090654 1_655
Mg17 O22 2.096066 1_555
Mg17 O8 2.133225 1_555
Mg17 O10 2.133225 1_555
Mg17 O2 2.196226 1_555
Mg17 O18 2.205470 1_555
Mg18 O3 2.124872 1_555
Mg18 O19 2.144553 1_555
Mg18 O15 2.149569 1_555
Mg18 O11 2.159384 1_555
Mg18 O13 2.159384 1_554
Mg18 O4 2.164482 1_555
Mg19 O3 2.124872 1_655
Mg19 O20 2.144553 1_555
Mg19 O16 2.149569 1_555
Mg19 O12 2.159384 1_555
Mg19 O14 2.159384 1_554
Mg19 O4 2.164482 1_555
Mg20 O5 2.093391 1_555
Mg20 O21 2.096085 1_555
Mg20 O13 2.141827 1_555
Mg20 O11 2.141827 1_555
Mg20 O6 2.193483 1_555
Mg20 O17 2.205903 1_545
Mg21 O5 2.093391 1_655
Mg21 O22 2.096085 1_555
Mg21 O14 2.141827 1_555
Mg21 O12 2.141827 1_555
Mg21 O6 2.193483 1_555
Mg21 O18 2.205903 1_545
Mg22 O0 2.135526 1_555
Mg22 O7 2.141224 1_555
Mg22 O8 2.141224 1_455
Mg22 O23 2.150479 1_555
Mg22 O27 2.152908 1_555
Mg22 O1 2.167082 1_555
Mg23 O28 2.123419 1_555
Mg23 O8 2.146394 1_555
Mg23 O7 2.146394 1_555
Mg23 O2 2.183709 1_555
Mg23 O24 2.192961 1_565
Mg24 O0 2.135526 1_556
Mg24 O9 2.141224 1_555
Mg24 O10 2.141224 1_455
Mg24 O25 2.150479 1_555
Mg24 O29 2.152908 1_555
Mg24 O1 2.167082 1_555
Mg25 O30 2.123419 1_555
Mg25 O10 2.146394 1_555
Mg25 O9 2.146394 1_555
Mg25 O2 2.183709 1_555
Mg25 O26 2.192961 1_565
Mg26 O3 2.131275 1_555
Mg26 O11 2.149009 1_555
Mg26 O12 2.149009 1_455
Mg26 O23 2.150831 1_545
Mg26 O27 2.153590 1_555
Mg26 O5 2.171228 1_555
Mg27 O4 2.109719 1_555
Mg27 O28 2.110452 1_555
Mg27 O12 2.138417 1_555
Mg27 O11 2.138417 1_555
Mg27 O24 2.172205 1_555
Mg27 O6 2.189699 1_555
Mg28 O3 2.131275 1_556
Mg28 O13 2.149009 1_555
Mg28 O14 2.149009 1_455
Mg28 O25 2.150831 1_545
Mg28 O29 2.153590 1_555
Mg28 O5 2.171228 1_555
Mg29 O4 2.109719 1_556
Mg29 O30 2.110452 1_555
Mg29 O14 2.138417 1_555
Mg29 O13 2.138417 1_555
Mg29 O26 2.172205 1_555
Mg29 O6 2.189699 1_555
