# generated using pymatgen
data_LiMg2
_symmetry_space_group_name_H-M   'P 1'
_cell_length_a   16.49559598
_cell_length_b   16.49559598
_cell_length_c   10.03475260
_cell_angle_alpha   90.00000000
_cell_angle_beta   90.00000000
_cell_angle_gamma   158.04731751
_symmetry_Int_Tables_number   1
_chemical_formula_structural   LiMg2
_chemical_formula_sum   'Li16 Mg32'
_cell_volume   1020.77338085
_cell_formula_units_Z   16
loop_
 _symmetry_equiv_pos_site_id
 _symmetry_equiv_pos_as_xyz
  1  'x, y, z'
loop_
 _atom_site_type_symbol
 _atom_site_label
 _atom_site_symmetry_multiplicity
 _atom_site_fract_x
 _atom_site_fract_y
 _atom_site_fract_z
 _atom_site_occupancy
  Li  Li0_0  1  0.22221857  0.27778143  0.12500000  1
  Li  Li0_1  1  0.22221857  0.27778143  0.62500000  1
  Li  Li0_2  1  0.22221857  0.77778143  0.12500000  1
  Li  Li0_3  1  0.22221857  0.77778143  0.62500000  1
  Li  Li0_4  1  0.72221857  0.27778143  0.12500000  1
  Li  Li0_5  1  0.72221857  0.27778143  0.62500000  1
  Li  Li0_6  1  0.72221857  0.77778143  0.12500000  1
  Li  Li0_7  1  0.72221857  0.77778143  0.62500000  1
  Li  Li1_0  1  0.27778143  0.22221857  0.37500000  1
  Li  Li1_1  1  0.27778143  0.22221857  0.87500000  1
  Li  Li1_2  1  0.27778143  0.72221857  0.37500000  1
  Li  Li1_3  1  0.27778143  0.72221857  0.87500000  1
  Li  Li1_4  1  0.77778143  0.22221857  0.37500000  1
  Li  Li1_5  1  0.77778143  0.22221857  0.87500000  1
  Li  Li1_6  1  0.77778143  0.72221857  0.37500000  1
  Li  Li1_7  1  0.77778143  0.72221857  0.87500000  1
  Mg  Mg0_0  1  0.05294034  0.44705966  0.12500000  1
  Mg  Mg0_1  1  0.05294034  0.44705966  0.62500000  1
  Mg  Mg0_2  1  0.05294034  0.94705966  0.12500000  1
  Mg  Mg0_3  1  0.05294034  0.94705966  0.62500000  1
  Mg  Mg0_4  1  0.55294033  0.44705966  0.12500000  1
  Mg  Mg0_5  1  0.55294033  0.44705966  0.62500000  1
  Mg  Mg0_6  1  0.55294034  0.94705966  0.12500000  1
  Mg  Mg0_7  1  0.55294034  0.94705966  0.62500000  1
  Mg  Mg1_0  1  0.38961379  0.11038620  0.12500000  1
  Mg  Mg1_1  1  0.38961379  0.11038620  0.62500000  1
  Mg  Mg1_2  1  0.38961379  0.61038620  0.12500000  1
  Mg  Mg1_3  1  0.38961379  0.61038620  0.62500000  1
  Mg  Mg1_4  1  0.88961379  0.11038621  0.12500000  1
  Mg  Mg1_5  1  0.88961379  0.11038621  0.62500000  1
  Mg  Mg1_6  1  0.88961379  0.61038620  0.12500000  1
  Mg  Mg1_7  1  0.88961379  0.61038620  0.62500000  1
  Mg  Mg2_0  1  0.11038621  0.38961379  0.37500000  1
  Mg  Mg2_1  1  0.11038621  0.38961379  0.87500000  1
  Mg  Mg2_2  1  0.11038621  0.88961379  0.37500000  1
  Mg  Mg2_3  1  0.11038621  0.88961379  0.87500000  1
  Mg  Mg2_4  1  0.61038620  0.38961379  0.37500000  1
  Mg  Mg2_5  1  0.61038620  0.38961379  0.87500000  1
  Mg  Mg2_6  1  0.61038621  0.88961379  0.37500000  1
  Mg  Mg2_7  1  0.61038621  0.88961379  0.87500000  1
  Mg  Mg3_0  1  0.44705966  0.05294034  0.37500000  1
  Mg  Mg3_1  1  0.44705966  0.05294034  0.87500000  1
  Mg  Mg3_2  1  0.44705966  0.55294033  0.37500000  1
  Mg  Mg3_3  1  0.44705966  0.55294033  0.87500000  1
  Mg  Mg3_4  1  0.94705966  0.05294034  0.37500000  1
  Mg  Mg3_5  1  0.94705966  0.05294034  0.87500000  1
  Mg  Mg3_6  1  0.94705966  0.55294034  0.37500000  1
  Mg  Mg3_7  1  0.94705966  0.55294034  0.87500000  1
loop_
_geom_bond_atom_site_label_1
_geom_bond_atom_site_label_2
_geom_bond_distance
_geom_bond_site_symmetry_2
Li0_0 Mg0_4 3.049789 1_555
Li0_0 Mg0_2 3.049789 1_545
Li0_0 Mg3_2 3.069799 1_555
Li0_0 Mg3_4 3.069799 1_455
Li0_0 Mg3_3 3.069799 1_554
Li0_0 Mg3_5 3.069799 1_454
Li0_0 Li1_0 3.087377 1_555
Li0_0 Li1_1 3.087377 1_554
Li0_0 Mg1_2 3.102228 1_555
Li0_0 Mg1_4 3.102228 1_455
Li0_0 Li0_6 3.140822 1_555
Li0_0 Li0_6 3.140822 1_445
Li0_1 Mg0_5 3.049789 1_555
Li0_1 Mg0_3 3.049789 1_545
Li0_1 Mg3_3 3.069799 1_555
Li0_1 Mg3_5 3.069799 1_455
Li0_1 Mg3_2 3.069799 1_555
Li0_1 Mg3_4 3.069799 1_455
Li0_1 Li1_1 3.087377 1_555
Li0_1 Li1_0 3.087377 1_555
Li0_1 Mg1_3 3.102228 1_555
Li0_1 Mg1_5 3.102228 1_455
Li0_1 Li0_7 3.140822 1_555
Li0_1 Li0_7 3.140822 1_445
Li0_2 Mg0_0 3.049789 1_555
Li0_2 Mg0_6 3.049789 1_555
Li0_2 Mg3_0 3.069799 1_565
Li0_2 Mg3_1 3.069799 1_564
Li0_2 Mg3_6 3.069799 1_455
Li0_2 Mg3_7 3.069799 1_454
Li0_2 Li1_2 3.087377 1_555
Li0_2 Li1_3 3.087377 1_554
Li0_2 Mg1_0 3.102228 1_565
Li0_2 Mg1_6 3.102228 1_455
Li0_2 Li0_4 3.140822 1_455
Li0_2 Li0_4 3.140822 1_565
Li0_3 Mg0_1 3.049789 1_555
Li0_3 Mg0_7 3.049789 1_555
Li0_3 Mg3_1 3.069799 1_565
Li0_3 Mg3_7 3.069799 1_455
Li0_3 Mg3_0 3.069799 1_565
Li0_3 Mg3_6 3.069799 1_455
Li0_3 Li1_3 3.087377 1_555
Li0_3 Li1_2 3.087377 1_555
Li0_3 Mg1_1 3.102228 1_565
Li0_3 Mg1_7 3.102228 1_455
Li0_3 Li0_5 3.140822 1_455
Li0_3 Li0_5 3.140822 1_565
Li0_4 Mg0_0 3.049789 1_655
Li0_4 Mg0_6 3.049789 1_545
Li0_4 Mg3_0 3.069799 1_555
Li0_4 Mg3_6 3.069799 1_555
Li0_4 Mg3_1 3.069799 1_554
Li0_4 Mg3_7 3.069799 1_554
Li0_4 Li1_4 3.087377 1_555
Li0_4 Li1_5 3.087377 1_554
Li0_4 Mg1_0 3.102228 1_555
Li0_4 Mg1_6 3.102228 1_555
Li0_5 Mg0_1 3.049789 1_655
Li0_5 Mg0_7 3.049789 1_545
Li0_5 Mg3_1 3.069799 1_555
Li0_5 Mg3_0 3.069799 1_555
Li0_5 Mg3_7 3.069799 1_555
Li0_5 Mg3_6 3.069799 1_555
Li0_5 Li1_5 3.087377 1_555
Li0_5 Li1_4 3.087377 1_555
Li0_5 Mg1_1 3.102228 1_555
Li0_5 Mg1_7 3.102228 1_555
Li0_6 Mg0_4 3.049789 1_555
Li0_6 Mg0_2 3.049789 1_655
Li0_6 Mg3_4 3.069799 1_565
Li0_6 Mg3_2 3.069799 1_555
Li0_6 Mg3_3 3.069799 1_554
Li0_6 Mg3_5 3.069799 1_564
Li0_6 Li1_6 3.087377 1_555
Li0_6 Li1_7 3.087377 1_554
Li0_6 Mg1_2 3.102228 1_555
Li0_6 Mg1_4 3.102228 1_565
Li0_7 Mg0_5 3.049789 1_555
Li0_7 Mg0_3 3.049789 1_655
Li0_7 Mg3_3 3.069799 1_555
Li0_7 Mg3_5 3.069799 1_565
Li0_7 Mg3_4 3.069799 1_565
Li0_7 Mg3_2 3.069799 1_555
Li0_7 Li1_7 3.087377 1_555
Li0_7 Li1_6 3.087377 1_555
Li0_7 Mg1_3 3.102228 1_555
Li0_7 Mg1_5 3.102228 1_565
Li1_0 Mg3_2 3.049789 1_555
Li1_0 Mg3_4 3.049789 1_455
Li1_0 Mg0_5 3.069799 1_555
Li1_0 Mg0_4 3.069799 1_555
Li1_0 Mg0_2 3.069799 1_545
Li1_0 Mg0_3 3.069799 1_545
Li1_0 Mg2_4 3.102228 1_555
Li1_0 Mg2_2 3.102228 1_545
Li1_0 Li1_6 3.140822 1_445
Li1_0 Li1_6 3.140822 1_555
Li1_1 Mg3_3 3.049789 1_555
Li1_1 Mg3_5 3.049789 1_455
Li1_1 Mg0_5 3.069799 1_555
Li1_1 Mg0_3 3.069799 1_545
Li1_1 Mg0_4 3.069799 1_556
Li1_1 Mg0_2 3.069799 1_546
Li1_1 Mg2_5 3.102228 1_555
Li1_1 Mg2_3 3.102228 1_545
Li1_1 Li1_7 3.140822 1_445
Li1_1 Li1_7 3.140822 1_555
Li1_2 Mg3_0 3.049789 1_565
Li1_2 Mg3_6 3.049789 1_455
Li1_2 Mg0_0 3.069799 1_555
Li1_2 Mg0_1 3.069799 1_555
Li1_2 Mg0_7 3.069799 1_555
Li1_2 Mg0_6 3.069799 1_555
Li1_2 Mg2_0 3.102228 1_555
Li1_2 Mg2_6 3.102228 1_555
Li1_2 Li1_4 3.140822 1_565
Li1_2 Li1_4 3.140822 1_455
Li1_3 Mg3_1 3.049789 1_565
Li1_3 Mg3_7 3.049789 1_455
Li1_3 Mg0_1 3.069799 1_555
Li1_3 Mg0_7 3.069799 1_555
Li1_3 Mg0_0 3.069799 1_556
Li1_3 Mg0_6 3.069799 1_556
Li1_3 Mg2_1 3.102228 1_555
Li1_3 Mg2_7 3.102228 1_555
Li1_3 Li1_5 3.140822 1_565
Li1_3 Li1_5 3.140822 1_455
Li1_4 Mg3_0 3.049789 1_555
Li1_4 Mg3_6 3.049789 1_555
Li1_4 Mg0_0 3.069799 1_655
Li1_4 Mg0_1 3.069799 1_655
Li1_4 Mg0_6 3.069799 1_545
Li1_4 Mg0_7 3.069799 1_545
Li1_4 Mg2_0 3.102228 1_655
Li1_4 Mg2_6 3.102228 1_545
Li1_5 Mg3_1 3.049789 1_555
Li1_5 Mg3_7 3.049789 1_555
Li1_5 Mg0_1 3.069799 1_655
Li1_5 Mg0_7 3.069799 1_545
Li1_5 Mg0_0 3.069799 1_656
Li1_5 Mg0_6 3.069799 1_546
Li1_5 Mg2_1 3.102228 1_655
Li1_5 Mg2_7 3.102228 1_545
Li1_6 Mg3_4 3.049789 1_565
Li1_6 Mg3_2 3.049789 1_555
Li1_6 Mg0_5 3.069799 1_555
Li1_6 Mg0_2 3.069799 1_655
Li1_6 Mg0_3 3.069799 1_655
Li1_6 Mg0_4 3.069799 1_555
Li1_6 Mg2_2 3.102228 1_655
Li1_6 Mg2_4 3.102228 1_555
Li1_7 Mg3_5 3.049789 1_565
Li1_7 Mg3_3 3.049789 1_555
Li1_7 Mg0_5 3.069799 1_555
Li1_7 Mg0_3 3.069799 1_655
Li1_7 Mg0_2 3.069799 1_656
Li1_7 Mg0_4 3.069799 1_556
Li1_7 Mg2_3 3.102228 1_655
Li1_7 Mg2_5 3.102228 1_555
Mg0_0 Mg2_0 3.123318 1_555
Mg0_0 Mg2_1 3.123318 1_554
Mg0_0 Mg0_6 3.140822 1_555
Mg0_0 Mg0_6 3.140822 1_445
Mg0_0 Mg1_4 3.216563 1_455
Mg0_0 Mg1_2 3.216563 1_555
Mg0_1 Mg2_1 3.123318 1_555
Mg0_1 Mg2_0 3.123318 1_555
Mg0_1 Mg0_7 3.140822 1_445
Mg0_1 Mg0_7 3.140822 1_555
Mg0_1 Mg1_5 3.216563 1_455
Mg0_1 Mg1_3 3.216563 1_555
Mg0_2 Mg2_2 3.123318 1_555
Mg0_2 Mg2_3 3.123318 1_554
Mg0_2 Mg0_4 3.140822 1_565
Mg0_2 Mg0_4 3.140822 1_455
Mg0_2 Mg1_6 3.216563 1_455
Mg0_2 Mg1_0 3.216563 1_565
Mg0_3 Mg2_3 3.123318 1_555
Mg0_3 Mg2_2 3.123318 1_555
Mg0_3 Mg0_5 3.140822 1_565
Mg0_3 Mg0_5 3.140822 1_455
Mg0_3 Mg1_7 3.216563 1_455
Mg0_3 Mg1_1 3.216563 1_565
Mg0_4 Mg2_4 3.123318 1_555
Mg0_4 Mg2_5 3.123318 1_554
Mg0_4 Mg1_6 3.216563 1_555
Mg0_4 Mg1_0 3.216563 1_555
Mg0_5 Mg2_5 3.123318 1_555
Mg0_5 Mg2_4 3.123318 1_555
Mg0_5 Mg1_7 3.216563 1_555
Mg0_5 Mg1_1 3.216563 1_555
Mg0_6 Mg2_6 3.123318 1_555
Mg0_6 Mg2_7 3.123318 1_554
Mg0_6 Mg1_4 3.216563 1_565
Mg0_6 Mg1_2 3.216563 1_555
Mg0_7 Mg2_7 3.123318 1_555
Mg0_7 Mg2_6 3.123318 1_555
Mg0_7 Mg1_5 3.216563 1_565
Mg0_7 Mg1_3 3.216563 1_555
Mg1_0 Mg2_2 3.107375 1_545
Mg1_0 Mg2_4 3.107375 1_555
Mg1_0 Mg2_3 3.107375 1_544
Mg1_0 Mg2_5 3.107375 1_554
Mg1_0 Mg3_0 3.123318 1_555
Mg1_0 Mg3_1 3.123318 1_554
Mg1_0 Mg1_6 3.140822 1_555
Mg1_0 Mg1_6 3.140822 1_445
Mg1_1 Mg2_3 3.107375 1_545
Mg1_1 Mg2_5 3.107375 1_555
Mg1_1 Mg2_2 3.107375 1_545
Mg1_1 Mg2_4 3.107375 1_555
Mg1_1 Mg3_1 3.123318 1_555
Mg1_1 Mg3_0 3.123318 1_555
Mg1_1 Mg1_7 3.140822 1_555
Mg1_1 Mg1_7 3.140822 1_445
Mg1_2 Mg2_6 3.107375 1_555
Mg1_2 Mg2_0 3.107375 1_555
Mg1_2 Mg2_7 3.107375 1_554
Mg1_2 Mg2_1 3.107375 1_554
Mg1_2 Mg3_2 3.123318 1_555
Mg1_2 Mg3_3 3.123318 1_554
Mg1_2 Mg1_4 3.140822 1_455
Mg1_2 Mg1_4 3.140822 1_565
Mg1_3 Mg2_7 3.107375 1_555
Mg1_3 Mg2_1 3.107375 1_555
Mg1_3 Mg2_6 3.107375 1_555
Mg1_3 Mg2_0 3.107375 1_555
Mg1_3 Mg3_3 3.123318 1_555
Mg1_3 Mg3_2 3.123318 1_555
Mg1_3 Mg1_5 3.140822 1_455
Mg1_3 Mg1_5 3.140822 1_565
Mg1_4 Mg2_6 3.107375 1_545
Mg1_4 Mg2_7 3.107375 1_544
Mg1_4 Mg2_0 3.107375 1_655
Mg1_4 Mg2_1 3.107375 1_654
Mg1_4 Mg3_4 3.123318 1_555
Mg1_4 Mg3_5 3.123318 1_554
Mg1_5 Mg2_7 3.107375 1_545
Mg1_5 Mg2_1 3.107375 1_655
Mg1_5 Mg2_6 3.107375 1_545
Mg1_5 Mg2_0 3.107375 1_655
Mg1_5 Mg3_5 3.123318 1_555
Mg1_5 Mg3_4 3.123318 1_555
Mg1_6 Mg2_4 3.107375 1_555
Mg1_6 Mg2_2 3.107375 1_655
Mg1_6 Mg2_5 3.107375 1_554
Mg1_6 Mg2_3 3.107375 1_654
Mg1_6 Mg3_6 3.123318 1_555
Mg1_6 Mg3_7 3.123318 1_554
Mg1_7 Mg2_5 3.107375 1_555
Mg1_7 Mg2_3 3.107375 1_655
Mg1_7 Mg2_4 3.107375 1_555
Mg1_7 Mg2_2 3.107375 1_655
Mg1_7 Mg3_7 3.123318 1_555
Mg1_7 Mg3_6 3.123318 1_555
Mg2_0 Mg2_6 3.140822 1_555
Mg2_0 Mg2_6 3.140822 1_445
Mg2_0 Mg3_4 3.216563 1_455
Mg2_0 Mg3_2 3.216563 1_555
Mg2_1 Mg2_7 3.140822 1_445
Mg2_1 Mg2_7 3.140822 1_555
Mg2_1 Mg3_5 3.216563 1_455
Mg2_1 Mg3_3 3.216563 1_555
Mg2_2 Mg2_4 3.140822 1_565
Mg2_2 Mg2_4 3.140822 1_455
Mg2_2 Mg3_6 3.216563 1_455
Mg2_2 Mg3_0 3.216563 1_565
Mg2_3 Mg2_5 3.140822 1_565
Mg2_3 Mg2_5 3.140822 1_455
Mg2_3 Mg3_7 3.216563 1_455
Mg2_3 Mg3_1 3.216563 1_565
Mg2_4 Mg3_6 3.216563 1_555
Mg2_4 Mg3_0 3.216563 1_555
Mg2_5 Mg3_7 3.216563 1_555
Mg2_5 Mg3_1 3.216563 1_555
Mg2_6 Mg3_4 3.216563 1_565
Mg2_6 Mg3_2 3.216563 1_555
Mg2_7 Mg3_5 3.216563 1_565
Mg2_7 Mg3_3 3.216563 1_555
Mg3_0 Mg3_6 3.140822 1_445
Mg3_0 Mg3_6 3.140822 1_555
Mg3_1 Mg3_7 3.140822 1_555
Mg3_1 Mg3_7 3.140822 1_445
Mg3_2 Mg3_4 3.140822 1_565
Mg3_2 Mg3_4 3.140822 1_455
Mg3_3 Mg3_5 3.140822 1_565
Mg3_3 Mg3_5 3.140822 1_455
