# generated using pymatgen
data_Ca3Hf2AlFeSiO12
_symmetry_space_group_name_H-M   'P 1'
_cell_length_a   10.93064891
_cell_length_b   10.93064891
_cell_length_c   10.93064891
_cell_angle_alpha   109.13487215
_cell_angle_beta   109.13487215
_cell_angle_gamma   110.14603238
_symmetry_Int_Tables_number   1
_chemical_formula_structural   Ca3Hf2AlFeSiO12
_chemical_formula_sum   'Ca12 Hf8 Al4 Fe4 Si4 O48'
_cell_volume   1005.24216913
_cell_formula_units_Z   4
loop_
 _symmetry_equiv_pos_site_id
 _symmetry_equiv_pos_as_xyz
  1  'x, y, z'
loop_
 _atom_site_type_symbol
 _atom_site_label
 _atom_site_symmetry_multiplicity
 _atom_site_fract_x
 _atom_site_fract_y
 _atom_site_fract_z
 _atom_site_occupancy
  Ca  Ca0  1  0.49983200  0.37500000  0.62483200  1
  Ca  Ca1  1  0.75016800  0.87500000  0.37516800  1
  Ca  Ca2  1  0.62500000  0.75092800  0.62592800  1
  Ca  Ca3  1  0.12500000  0.99907200  0.37407200  1
  Ca  Ca4  1  0.49901200  0.99901200  0.50000000  1
  Ca  Ca5  1  0.75098800  0.75098800  0.00000000  1
  Ca  Ca6  1  0.24907200  0.87500000  0.87407200  1
  Ca  Ca7  1  0.00092800  0.37500000  0.12592800  1
  Ca  Ca8  1  0.12500000  0.50016800  0.87516800  1
  Ca  Ca9  1  0.62500000  0.24983200  0.12483200  1
  Ca  Ca10  1  0.24901200  0.24901200  0.00000000  1
  Ca  Ca11  1  0.00098800  0.50098800  0.50000000  1
  Hf  Hf0  1  0.87680000  0.62748700  0.75185200  1
  Hf  Hf1  1  0.37436500  0.12251300  0.74931300  1
  Hf  Hf2  1  0.37320000  0.62505200  0.25068700  1
  Hf  Hf3  1  0.87563500  0.12494800  0.24814800  1
  Hf  Hf4  1  0.37494800  0.62563500  0.74814800  1
  Hf  Hf5  1  0.87505200  0.12320000  0.75068700  1
  Hf  Hf6  1  0.37251300  0.12436500  0.24931300  1
  Hf  Hf7  1  0.87748700  0.62680000  0.25185200  1
  Al  Al0  1  0.99952100  0.87500000  0.62452100  1
  Al  Al1  1  0.25047900  0.37500000  0.37547900  1
  Al  Al2  1  0.12500000  0.74952100  0.12452100  1
  Al  Al3  1  0.62500000  0.00047900  0.87547900  1
  Fe  Fe0  1  0.75076700  0.37500000  0.87576700  1
  Fe  Fe1  1  0.49923300  0.87500000  0.12423300  1
  Fe  Fe2  1  0.62500000  0.50076700  0.37576700  1
  Fe  Fe3  1  0.12500000  0.24923300  0.62423300  1
  Si  Si0  1  0.50000000  0.50000000  0.00000000  1
  Si  Si1  1  0.75000000  0.25000000  0.50000000  1
  Si  Si2  1  0.25000000  0.75000000  0.50000000  1
  Si  Si3  1  0.00000000  0.00000000  0.00000000  1
  O  O0  1  0.75042500  0.53217800  0.83594800  1
  O  O1  1  0.55377000  0.21782200  0.71824600  1
  O  O2  1  0.49957500  0.83552300  0.28175400  1
  O  O3  1  0.69623000  0.91447700  0.16405200  1
  O  O4  1  0.57882500  0.65329800  0.37661300  1
  O  O5  1  0.67117500  0.54778800  0.57447300  1
  O  O6  1  0.27668500  0.20221200  0.62338700  1
  O  O7  1  0.97331500  0.09670200  0.42552700  1
  O  O8  1  0.28656800  0.92428600  0.54824100  1
  O  O9  1  0.37604500  0.73832700  0.45175900  1
  O  O10  1  0.87395500  0.82571400  0.86228200  1
  O  O11  1  0.96343200  0.01167300  0.13771800  1
  O  O12  1  0.99566200  0.72703900  0.66471100  1
  O  O13  1  0.18767200  0.02296100  0.76862400  1
  O  O14  1  0.25433800  0.41904900  0.23137600  1
  O  O15  1  0.06232800  0.33095100  0.33528900  1
  O  O16  1  0.17325500  0.60934600  0.12947500  1
  O  O17  1  0.07674500  0.70622000  0.93609100  1
  O  O18  1  0.47987100  0.04378000  0.87052500  1
  O  O19  1  0.77012900  0.14065400  0.06390900  1
  O  O20  1  0.46170500  0.32428200  0.94859700  1
  O  O21  1  0.37568500  0.51310800  0.05140300  1
  O  O22  1  0.87431500  0.42571800  0.63742300  1
  O  O23  1  0.78829500  0.23689200  0.36257700  1
  O  O24  1  0.16447700  0.44623000  0.66405200  1
  O  O25  1  0.08552300  0.24957500  0.78175400  1
  O  O26  1  0.46782200  0.30377000  0.21824600  1
  O  O27  1  0.78217800  0.50042500  0.33594800  1
  O  O28  1  0.45221200  0.02668500  0.12338700  1
  O  O29  1  0.34670200  0.72331500  0.92552700  1
  O  O30  1  0.90329800  0.32882500  0.87661300  1
  O  O31  1  0.79778800  0.42117500  0.07447300  1
  O  O32  1  0.98832700  0.12604500  0.95175900  1
  O  O33  1  0.17428600  0.03656800  0.04824100  1
  O  O34  1  0.26167300  0.71343200  0.63771800  1
  O  O35  1  0.07571400  0.62395500  0.36228200  1
  O  O36  1  0.58095100  0.81232800  0.83528900  1
  O  O37  1  0.66904900  0.00433800  0.73137600  1
  O  O38  1  0.27296100  0.93767200  0.26862400  1
  O  O39  1  0.97703900  0.74566200  0.16471100  1
  O  O40  1  0.29378000  0.22987100  0.37052500  1
  O  O41  1  0.39065400  0.52012900  0.56390900  1
  O  O42  1  0.85934600  0.92325500  0.62947500  1
  O  O43  1  0.95622000  0.82674500  0.43609100  1
  O  O44  1  0.76310800  0.12568500  0.55140300  1
  O  O45  1  0.57428200  0.21170500  0.44859700  1
  O  O46  1  0.48689200  0.53829500  0.86257700  1
  O  O47  1  0.67571800  0.62431500  0.13742300  1
loop_
_geom_bond_atom_site_label_1
_geom_bond_atom_site_label_2
_geom_bond_distance
_geom_bond_site_symmetry_2
Ca0 O1 2.407293 1_555
Ca0 O0 2.407299 1_555
Ca0 O40 2.420693 1_555
Ca0 O41 2.420693 1_555
Ca0 O5 2.509722 1_555
Ca0 O6 2.509722 1_555
Ca0 O46 2.707984 1_555
Ca0 O45 2.707984 1_555
Ca1 O3 2.407299 1_555
Ca1 O2 2.407299 1_555
Ca1 O43 2.420693 1_555
Ca1 O42 2.420693 1_555
Ca1 O7 2.509722 1_565
Ca1 O4 2.509722 1_555
Ca1 O47 2.707984 1_555
Ca1 O44 2.707984 1_565
Ca2 O4 2.375044 1_555
Ca2 O5 2.375044 1_555
Ca2 O37 2.420190 1_565
Ca2 O36 2.420190 1_555
Ca2 O42 2.583517 1_555
Ca2 O41 2.583517 1_555
Ca2 O10 2.687387 1_555
Ca2 O9 2.687387 1_555
Ca3 O6 2.375044 1_565
Ca3 O7 2.375044 1_465
Ca3 O38 2.420184 1_555
Ca3 O39 2.420190 1_455
Ca3 O40 2.583517 1_565
Ca3 O43 2.583517 1_455
Ca3 O11 2.687387 1_465
Ca3 O8 2.687387 1_555
Ca4 O2 2.471207 1_555
Ca4 O1 2.471208 1_565
Ca4 O9 2.473094 1_555
Ca4 O8 2.473094 1_555
Ca4 O44 2.497899 1_565
Ca4 O45 2.497899 1_565
Ca4 O37 2.569324 1_565
Ca4 O38 2.569326 1_555
Ca5 O3 2.471215 1_555
Ca5 O0 2.471215 1_554
Ca5 O10 2.473094 1_554
Ca5 O11 2.473094 1_565
Ca5 O46 2.497899 1_554
Ca5 O47 2.497899 1_555
Ca5 O36 2.569332 1_554
Ca5 O39 2.569332 1_555
Ca6 O28 2.375044 1_566
Ca6 O29 2.375044 1_555
Ca6 O13 2.420184 1_565
Ca6 O12 2.420190 1_455
Ca6 O17 2.583517 1_555
Ca6 O18 2.583517 1_565
Ca6 O33 2.687387 1_566
Ca6 O34 2.687387 1_555
Ca7 O30 2.375044 1_454
Ca7 O31 2.375044 1_455
Ca7 O14 2.420190 1_555
Ca7 O15 2.420190 1_555
Ca7 O16 2.583517 1_555
Ca7 O19 2.583517 1_455
Ca7 O32 2.687387 1_454
Ca7 O35 2.687387 1_555
Ca8 O24 2.407299 1_555
Ca8 O25 2.407299 1_555
Ca8 O16 2.420693 1_556
Ca8 O17 2.420693 1_555
Ca8 O29 2.509722 1_555
Ca8 O30 2.509722 1_455
Ca8 O21 2.707984 1_556
Ca8 O22 2.707984 1_455
Ca9 O26 2.407293 1_555
Ca9 O27 2.407299 1_555
Ca9 O19 2.420693 1_555
Ca9 O18 2.420693 1_554
Ca9 O31 2.509722 1_555
Ca9 O28 2.509722 1_555
Ca9 O20 2.707984 1_554
Ca9 O23 2.707984 1_555
Ca10 O25 2.471207 1_554
Ca10 O26 2.471208 1_555
Ca10 O32 2.473094 1_454
Ca10 O33 2.473094 1_555
Ca10 O21 2.497899 1_555
Ca10 O20 2.497899 1_554
Ca10 O14 2.569324 1_555
Ca10 O13 2.569326 1_554
Ca11 O24 2.471215 1_555
Ca11 O27 2.471215 1_455
Ca11 O35 2.473094 1_555
Ca11 O34 2.473094 1_555
Ca11 O23 2.497899 1_455
Ca11 O22 2.497899 1_455
Ca11 O15 2.569332 1_555
Ca11 O12 2.569332 1_455
Hf0 O17 2.062889 1_655
Hf0 O5 2.063224 1_555
Hf0 O12 2.072767 1_555
Hf0 O0 2.075436 1_555
Hf0 O10 2.123483 1_555
Hf0 O22 2.134775 1_555
Hf1 O18 2.062889 1_555
Hf1 O6 2.063224 1_555
Hf1 O13 2.072773 1_555
Hf1 O1 2.075443 1_555
Hf1 O8 2.123483 1_545
Hf1 O20 2.134775 1_555
Hf2 O16 2.062889 1_555
Hf2 O4 2.063224 1_555
Hf2 O14 2.072762 1_555
Hf2 O2 2.075431 1_555
Hf2 O9 2.123483 1_555
Hf2 O21 2.134775 1_555
Hf3 O19 2.062889 1_555
Hf3 O7 2.063224 1_555
Hf3 O15 2.072767 1_655
Hf3 O3 2.075436 1_545
Hf3 O11 2.123483 1_555
Hf3 O23 2.134775 1_555
Hf4 O41 2.062889 1_555
Hf4 O29 2.063224 1_555
Hf4 O36 2.072767 1_555
Hf4 O24 2.075436 1_555
Hf4 O34 2.123483 1_555
Hf4 O46 2.134775 1_555
Hf5 O42 2.062889 1_545
Hf5 O30 2.063224 1_555
Hf5 O37 2.072762 1_555
Hf5 O25 2.075431 1_655
Hf5 O32 2.123483 1_555
Hf5 O44 2.134775 1_555
Hf6 O40 2.062889 1_555
Hf6 O28 2.063224 1_555
Hf6 O38 2.072773 1_545
Hf6 O26 2.075443 1_555
Hf6 O33 2.123483 1_555
Hf6 O45 2.134775 1_555
Hf7 O43 2.062889 1_555
Hf7 O31 2.063224 1_555
Hf7 O39 2.072767 1_555
Hf7 O27 2.075436 1_555
Hf7 O35 2.123483 1_655
Hf7 O47 2.134775 1_555
Al0 O43 1.794758 1_555
Al0 O42 1.794758 1_555
Al0 O12 1.800389 1_555
Al0 O13 1.800391 1_665
Al1 O41 1.794758 1_555
Al1 O40 1.794758 1_555
Al1 O15 1.800389 1_555
Al1 O14 1.800399 1_555
Al2 O17 1.794758 1_554
Al2 O16 1.794758 1_555
Al2 O39 1.800389 1_455
Al2 O38 1.800391 1_555
Al3 O19 1.794758 1_556
Al3 O18 1.794758 1_555
Al3 O36 1.800389 1_545
Al3 O37 1.800399 1_555
Fe0 O30 1.899263 1_555
Fe0 O31 1.899263 1_556
Fe0 O0 1.906507 1_555
Fe0 O1 1.906509 1_555
Fe1 O28 1.899263 1_565
Fe1 O29 1.899263 1_554
Fe1 O3 1.906507 1_555
Fe1 O2 1.906517 1_555
Fe2 O4 1.899263 1_555
Fe2 O5 1.899263 1_555
Fe2 O27 1.906507 1_555
Fe2 O26 1.906509 1_555
Fe3 O6 1.899263 1_555
Fe3 O7 1.899263 1_455
Fe3 O24 1.906507 1_555
Fe3 O25 1.906517 1_555
O8 Si2 1.657046 1_555
O9 Si2 1.657046 1_555
O10 Si3 1.657046 1_666
O11 Si3 1.657046 1_655
O20 Si0 1.662693 1_556
O21 Si0 1.662693 1_555
O22 Si1 1.662693 1_555
O23 Si1 1.662693 1_555
O32 Si3 1.657046 1_656
O33 Si3 1.657046 1_555
O34 Si2 1.657046 1_555
O35 Si2 1.657046 1_555
O44 Si1 1.662693 1_555
O45 Si1 1.662693 1_555
O46 Si0 1.662693 1_556
O47 Si0 1.662693 1_555
