# generated using pymatgen
data_HfBeAu2
_symmetry_space_group_name_H-M   'P 1'
_cell_length_a   11.41559371
_cell_length_b   11.41559371
_cell_length_c   11.41559371
_cell_angle_alpha   128.24963832
_cell_angle_beta   116.23481017
_cell_angle_gamma   86.49475595
_symmetry_Int_Tables_number   1
_chemical_formula_structural   HfBeAu2
_chemical_formula_sum   'Hf1 Be1 Au2'
_cell_volume   999.09291880
_cell_formula_units_Z   1
loop_
 _symmetry_equiv_pos_site_id
 _symmetry_equiv_pos_as_xyz
  1  'x, y, z'
loop_
 _atom_site_type_symbol
 _atom_site_label
 _atom_site_symmetry_multiplicity
 _atom_site_fract_x
 _atom_site_fract_y
 _atom_site_fract_z
 _atom_site_occupancy
  Hf  Hf0  1  0.00000000  0.50000000  0.50000000  1
  Be  Be0  1  0.00000000  0.00000000  0.00000000  1
  Au  Au0  1  0.00000000  0.22625500  0.22625500  1
  Au  Au1  1  0.00000000  0.77374500  0.77374500  1
loop_
_geom_bond_atom_site_label_1
_geom_bond_atom_site_label_2
_geom_bond_distance
_geom_bond_site_symmetry_2
Au0 Be0 2.254361 1_555
Au0 Hf0 2.727542 1_555
Au1 Be0 2.254361 1_566
Au1 Hf0 2.727542 1_555
