# generated using pymatgen
data_Al12Ru
_symmetry_space_group_name_H-M   'P 1'
_cell_length_a   9.49450200
_cell_length_b   9.49450200
_cell_length_c   9.49450200
_cell_angle_alpha   90.00000000
_cell_angle_beta   90.00000000
_cell_angle_gamma   90.00000000
_symmetry_Int_Tables_number   1
_chemical_formula_structural   Al12Ru
_chemical_formula_sum   'Al48 Ru4'
_cell_volume   855.88727783
_cell_formula_units_Z   4
loop_
 _symmetry_equiv_pos_site_id
 _symmetry_equiv_pos_as_xyz
  1  'x, y, z'
loop_
 _atom_site_type_symbol
 _atom_site_label
 _atom_site_symmetry_multiplicity
 _atom_site_fract_x
 _atom_site_fract_y
 _atom_site_fract_z
 _atom_site_occupancy
  Al  Al0  1  0.44658500  0.19714500  0.80285500  1
  Al  Al1  1  0.19714500  0.19714500  0.55341500  1
  Al  Al2  1  0.19714500  0.44658500  0.80285500  1
  Al  Al3  1  0.44658500  0.80285500  0.19714500  1
  Al  Al4  1  0.19714500  0.80285500  0.44658500  1
  Al  Al5  1  0.19714500  0.55341500  0.19714500  1
  Al  Al6  1  0.55341500  0.19714500  0.19714500  1
  Al  Al7  1  0.80285500  0.19714500  0.44658500  1
  Al  Al8  1  0.80285500  0.44658500  0.19714500  1
  Al  Al9  1  0.55341500  0.80285500  0.80285500  1
  Al  Al10  1  0.80285500  0.80285500  0.55341500  1
  Al  Al11  1  0.80285500  0.55341500  0.80285500  1
  Al  Al12  1  0.15305500  0.15305500  0.84694500  1
  Al  Al13  1  0.15305500  0.84694500  0.15305500  1
  Al  Al14  1  0.84694500  0.15305500  0.15305500  1
  Al  Al15  1  0.84694500  0.84694500  0.84694500  1
  Al  Al16  1  0.39895800  0.39895800  0.60104200  1
  Al  Al17  1  0.39895800  0.60104200  0.39895800  1
  Al  Al18  1  0.60104200  0.39895800  0.39895800  1
  Al  Al19  1  0.60104200  0.60104200  0.60104200  1
  Al  Al20  1  0.66982900  0.66982900  0.33017100  1
  Al  Al21  1  0.66982900  0.33017100  0.66982900  1
  Al  Al22  1  0.33017100  0.66982900  0.66982900  1
  Al  Al23  1  0.33017100  0.33017100  0.33017100  1
  Al  Al24  1  0.00000000  0.00000000  0.35212700  1
  Al  Al25  1  0.00000000  0.64787300  0.00000000  1
  Al  Al26  1  0.64787300  0.00000000  0.00000000  1
  Al  Al27  1  0.00000000  0.00000000  0.64787300  1
  Al  Al28  1  0.00000000  0.35212700  0.00000000  1
  Al  Al29  1  0.35212700  0.00000000  0.00000000  1
  Al  Al30  1  0.50000000  0.50000000  0.86165600  1
  Al  Al31  1  0.50000000  0.13834400  0.50000000  1
  Al  Al32  1  0.13834400  0.50000000  0.50000000  1
  Al  Al33  1  0.50000000  0.50000000  0.13834400  1
  Al  Al34  1  0.50000000  0.86165600  0.50000000  1
  Al  Al35  1  0.86165600  0.50000000  0.50000000  1
  Al  Al36  1  0.95597800  0.69562200  0.30437800  1
  Al  Al37  1  0.69562200  0.69562200  0.04402200  1
  Al  Al38  1  0.69562200  0.95597800  0.30437800  1
  Al  Al39  1  0.95597800  0.30437800  0.69562200  1
  Al  Al40  1  0.69562200  0.30437800  0.95597800  1
  Al  Al41  1  0.69562200  0.04402200  0.69562200  1
  Al  Al42  1  0.04402200  0.69562200  0.69562200  1
  Al  Al43  1  0.30437800  0.69562200  0.95597800  1
  Al  Al44  1  0.30437800  0.95597800  0.69562200  1
  Al  Al45  1  0.04402200  0.30437800  0.30437800  1
  Al  Al46  1  0.30437800  0.30437800  0.04402200  1
  Al  Al47  1  0.30437800  0.04402200  0.30437800  1
  Ru  Ru0  1  0.88301000  0.88301000  0.11699000  1
  Ru  Ru1  1  0.88301000  0.11699000  0.88301000  1
  Ru  Ru2  1  0.11699000  0.88301000  0.88301000  1
  Ru  Ru3  1  0.11699000  0.11699000  0.11699000  1
loop_
_geom_bond_atom_site_label_1
_geom_bond_atom_site_label_2
_geom_bond_distance
_geom_bond_site_symmetry_2
Al0 Al16 2.747265 1_555
Al0 Al21 2.771837 1_555
Al0 Al29 2.794911 1_556
Al0 Al46 2.846503 1_556
Al0 Al44 2.846503 1_545
Al0 Al12 2.849106 1_555
Al0 Al40 2.956512 1_555
Al0 Al41 2.956512 1_555
Al0 Al31 2.972733 1_555
Al0 Al30 2.972733 1_555
Al1 Al16 2.747265 1_555
Al1 Al23 2.771837 1_555
Al1 Al27 2.794911 1_555
Al1 Al44 2.846503 1_545
Al1 Al39 2.846503 1_455
Al1 Al12 2.849106 1_555
Al1 Al47 2.956512 1_555
Al1 Al45 2.956512 1_555
Al1 Al32 2.972733 1_555
Al1 Al31 2.972733 1_555
Al2 Al22 2.771837 1_555
Al2 Al28 2.794911 1_556
Al2 Al46 2.846503 1_556
Al2 Al39 2.846503 1_455
Al2 Al42 2.956512 1_555
Al2 Al43 2.956512 1_555
Al2 Al32 2.972733 1_555
Al2 Al30 2.972733 1_555
Al3 Al43 2.846503 1_554
Al3 Al47 2.846503 1_565
Al3 Al37 2.956512 1_555
Al3 Al38 2.956512 1_555
Al3 Al34 2.972733 1_555
Al3 Al33 2.972733 1_555
Al4 Al47 2.846503 1_565
Al4 Al44 2.956512 1_555
Al4 Al42 2.956512 1_555
Al10 Al19 2.747265 1_555
Al10 Al20 2.771837 1_555
Al10 Al27 2.794911 1_665
Al10 Al42 2.846503 1_655
Al10 Al41 2.846503 1_565
Al10 Al15 2.849106 1_555
Al10 Al36 2.956512 1_555
Al10 Al38 2.956512 1_555
Al10 Al34 2.972733 1_555
Al10 Al35 2.972733 1_555
Al11 Al19 2.747265 1_555
Al11 Al21 2.771837 1_555
Al11 Al25 2.794911 1_656
Al11 Al42 2.846503 1_655
Al11 Al37 2.846503 1_556
Al11 Al15 2.849106 1_555
Al11 Al40 2.956512 1_555
Al11 Al39 2.956512 1_555
Al11 Al35 2.972733 1_555
Al11 Al30 2.972733 1_555
Al12 Ru3 2.609273 1_556
Al12 Ru2 2.609273 1_545
Al12 Ru1 2.609273 1_455
Al12 Al2 2.849106 1_555
Al13 Ru3 2.609273 1_565
Al13 Ru0 2.609273 1_455
Al13 Ru2 2.609273 1_554
Al13 Al5 2.849106 1_555
Al13 Al3 2.849106 1_555
Al13 Al4 2.849106 1_555
Al14 Ru3 2.609273 1_655
Al14 Ru0 2.609273 1_545
Al14 Ru1 2.609273 1_554
Al14 Al6 2.849106 1_555
Al14 Al7 2.849106 1_555
Al14 Al8 2.849106 1_555
Al15 Ru2 2.609273 1_655
Al15 Ru1 2.609273 1_565
Al15 Ru0 2.609273 1_556
Al15 Al9 2.849106 1_555
Al16 Al19 2.713433 1_555
Al16 Al18 2.713433 1_555
Al16 Al17 2.713433 1_555
Al16 Al23 2.732609 1_555
Al16 Al21 2.732609 1_555
Al16 Al22 2.732609 1_555
Al16 Al2 2.747265 1_555
Al16 Al31 2.821938 1_555
Al16 Al30 2.821938 1_555
Al16 Al32 2.821938 1_555
Al17 Al19 2.713433 1_555
Al17 Al18 2.713433 1_555
Al17 Al23 2.732609 1_555
Al17 Al20 2.732609 1_555
Al17 Al22 2.732609 1_555
Al17 Al5 2.747265 1_555
Al17 Al3 2.747265 1_555
Al17 Al4 2.747265 1_555
Al17 Al33 2.821938 1_555
Al17 Al34 2.821938 1_555
Al17 Al32 2.821938 1_555
Al18 Al19 2.713433 1_555
Al18 Al23 2.732609 1_555
Al18 Al21 2.732609 1_555
Al18 Al20 2.732609 1_555
Al18 Al6 2.747265 1_555
Al18 Al8 2.747265 1_555
Al18 Al7 2.747265 1_555
Al18 Al31 2.821938 1_555
Al18 Al35 2.821938 1_555
Al18 Al33 2.821938 1_555
Al19 Al22 2.732609 1_555
Al19 Al21 2.732609 1_555
Al19 Al20 2.732609 1_555
Al19 Al9 2.747265 1_555
Al19 Al30 2.821938 1_555
Al19 Al34 2.821938 1_555
Al19 Al35 2.821938 1_555
Al20 Al36 2.738827 1_555
Al20 Al38 2.738827 1_555
Al20 Al37 2.738827 1_555
Al20 Al8 2.771837 1_555
Al20 Al3 2.771837 1_555
Al20 Al35 2.918403 1_555
Al20 Al33 2.918403 1_555
Al20 Al34 2.918403 1_555
Al21 Al40 2.738827 1_555
Al21 Al41 2.738827 1_555
Al21 Al39 2.738827 1_555
Al21 Al7 2.771837 1_555
Al21 Al31 2.918403 1_555
Al21 Al35 2.918403 1_555
Al21 Al30 2.918403 1_555
Al22 Al44 2.738827 1_555
Al22 Al43 2.738827 1_555
Al22 Al42 2.738827 1_555
Al22 Al9 2.771837 1_555
Al22 Al4 2.771837 1_555
Al22 Al30 2.918403 1_555
Al22 Al34 2.918403 1_555
Al22 Al32 2.918403 1_555
Al23 Al45 2.738827 1_555
Al23 Al46 2.738827 1_555
Al23 Al47 2.738827 1_555
Al23 Al5 2.771837 1_555
Al23 Al6 2.771837 1_555
Al23 Al31 2.918403 1_555
Al23 Al33 2.918403 1_555
Al23 Al32 2.918403 1_555
Al24 Ru3 2.729776 1_555
Al24 Ru0 2.729776 1_445
Al24 Al7 2.794911 1_455
Al24 Al4 2.794911 1_545
Al25 Ru2 2.729776 1_554
Al25 Ru0 2.729776 1_455
Al25 Al5 2.794911 1_555
Al26 Ru0 2.729776 1_545
Al26 Ru1 2.729776 1_554
Al26 Al6 2.794911 1_555
Al26 Al9 2.794911 1_544
Al27 Ru2 2.729776 1_545
Al27 Ru1 2.729776 1_455
Al28 Ru3 2.729776 1_555
Al28 Ru1 2.729776 1_454
Al28 Al8 2.794911 1_455
Al29 Ru3 2.729776 1_555
Al29 Ru2 2.729776 1_544
Al29 Al3 2.794911 1_545
Al30 Al33 2.627015 1_556
Al30 Al40 2.775134 1_555
Al30 Al43 2.775134 1_555
Al30 Al9 2.972733 1_555
Al31 Al34 2.627015 1_545
Al31 Al41 2.775134 1_555
Al31 Al47 2.775134 1_555
Al31 Al6 2.972733 1_555
Al31 Al7 2.972733 1_555
Al32 Al35 2.627015 1_455
Al32 Al42 2.775134 1_555
Al32 Al45 2.775134 1_555
Al32 Al5 2.972733 1_555
Al32 Al4 2.972733 1_555
Al33 Al37 2.775134 1_555
Al33 Al46 2.775134 1_555
Al33 Al8 2.972733 1_555
Al33 Al5 2.972733 1_555
Al33 Al6 2.972733 1_555
Al34 Al44 2.775134 1_555
Al34 Al38 2.775134 1_555
Al34 Al9 2.972733 1_555
Al34 Al4 2.972733 1_555
Al35 Al39 2.775134 1_555
Al35 Al36 2.775134 1_555
Al35 Al8 2.972733 1_555
Al35 Al7 2.972733 1_555
Al36 Ru0 2.609742 1_555
Al36 Al5 2.846503 1_655
Al36 Al4 2.846503 1_655
Al36 Al8 2.956512 1_555
Al37 Ru0 2.609742 1_555
Al37 Al9 2.846503 1_554
Al37 Al8 2.956512 1_555
Al38 Ru0 2.609742 1_555
Al38 Al6 2.846503 1_565
Al38 Al7 2.846503 1_565
Al39 Ru1 2.609742 1_555
Al39 Al7 2.956512 1_555
Al40 Ru1 2.609742 1_555
Al40 Al6 2.846503 1_556
Al40 Al8 2.846503 1_556
Al41 Ru1 2.609742 1_555
Al41 Al9 2.846503 1_545
Al41 Al7 2.956512 1_555
Al42 Ru2 2.609742 1_555
Al43 Ru2 2.609742 1_555
Al43 Al5 2.846503 1_556
Al43 Al9 2.956512 1_555
Al44 Ru2 2.609742 1_555
Al44 Al9 2.956512 1_555
Al45 Ru3 2.609742 1_555
Al45 Al7 2.846503 1_455
Al45 Al8 2.846503 1_455
Al45 Al5 2.956512 1_555
Al46 Ru3 2.609742 1_555
Al46 Al5 2.956512 1_555
Al46 Al6 2.956512 1_555
Al47 Ru3 2.609742 1_555
Al47 Al6 2.956512 1_555
