# generated using pymatgen
data_Nd3RuO7
_symmetry_space_group_name_H-M   'P 1'
_cell_length_a   7.50389400
_cell_length_b   7.60297700
_cell_length_c   10.96906900
_cell_angle_alpha   90.00000000
_cell_angle_beta   90.00000000
_cell_angle_gamma   90.00000000
_symmetry_Int_Tables_number   1
_chemical_formula_structural   Nd3RuO7
_chemical_formula_sum   'Nd12 Ru4 O28'
_cell_volume   625.80659506
_cell_formula_units_Z   4
loop_
 _symmetry_equiv_pos_site_id
 _symmetry_equiv_pos_as_xyz
  1  'x, y, z'
loop_
 _atom_site_type_symbol
 _atom_site_label
 _atom_site_symmetry_multiplicity
 _atom_site_fract_x
 _atom_site_fract_y
 _atom_site_fract_z
 _atom_site_occupancy
  Nd  Nd0  1  0.00000000  0.50000000  0.00000000  1
  Nd  Nd1  1  0.00000000  0.00000000  0.00000000  1
  Nd  Nd2  1  0.50000000  0.50000000  0.50000000  1
  Nd  Nd3  1  0.50000000  0.00000000  0.50000000  1
  Nd  Nd4  1  0.30361400  0.25000000  0.21831200  1
  Nd  Nd5  1  0.69638600  0.75000000  0.78168800  1
  Nd  Nd6  1  0.30869100  0.25000000  0.77560300  1
  Nd  Nd7  1  0.69130900  0.75000000  0.22439700  1
  Nd  Nd8  1  0.80869100  0.25000000  0.72439700  1
  Nd  Nd9  1  0.19130900  0.75000000  0.27560300  1
  Nd  Nd10  1  0.80361400  0.25000000  0.28168800  1
  Nd  Nd11  1  0.19638600  0.75000000  0.71831200  1
  Ru  Ru0  1  0.50000000  0.50000000  0.00000000  1
  Ru  Ru1  1  0.50000000  0.00000000  0.00000000  1
  Ru  Ru2  1  0.00000000  0.50000000  0.50000000  1
  Ru  Ru3  1  0.00000000  0.00000000  0.50000000  1
  O  O0  1  0.41860500  0.25000000  0.99425600  1
  O  O1  1  0.58139500  0.75000000  0.00574400  1
  O  O2  1  0.91860500  0.25000000  0.50574400  1
  O  O3  1  0.08139500  0.75000000  0.49425600  1
  O  O4  1  0.01930900  0.25000000  0.13216800  1
  O  O5  1  0.98069100  0.75000000  0.86783200  1
  O  O6  1  0.03351200  0.25000000  0.86877700  1
  O  O7  1  0.96648800  0.75000000  0.13122300  1
  O  O8  1  0.53351200  0.25000000  0.63122300  1
  O  O9  1  0.46648800  0.75000000  0.36877700  1
  O  O10  1  0.51930900  0.25000000  0.36783200  1
  O  O11  1  0.48069100  0.75000000  0.63216800  1
  O  O12  1  0.29979100  0.53627300  0.11726300  1
  O  O13  1  0.70020900  0.03627300  0.88273700  1
  O  O14  1  0.70020900  0.46372700  0.88273700  1
  O  O15  1  0.29979100  0.96372700  0.11726300  1
  O  O16  1  0.33181600  0.54155600  0.86510100  1
  O  O17  1  0.66818400  0.04155600  0.13489900  1
  O  O18  1  0.66818400  0.45844400  0.13489900  1
  O  O19  1  0.33181600  0.95844400  0.86510100  1
  O  O20  1  0.83181600  0.54155600  0.63489900  1
  O  O21  1  0.16818400  0.04155600  0.36510100  1
  O  O22  1  0.16818400  0.45844400  0.36510100  1
  O  O23  1  0.83181600  0.95844400  0.63489900  1
  O  O24  1  0.79979100  0.53627300  0.38273700  1
  O  O25  1  0.20020900  0.03627300  0.61726300  1
  O  O26  1  0.20020900  0.46372700  0.61726300  1
  O  O27  1  0.79979100  0.96372700  0.38273700  1
loop_
_geom_bond_atom_site_label_1
_geom_bond_atom_site_label_2
_geom_bond_distance
_geom_bond_site_symmetry_2
Nd0 O4 2.394917 1_555
Nd0 O5 2.394917 1_454
Nd0 O6 2.397482 1_554
Nd0 O7 2.397482 1_455
Nd0 O12 2.606000 1_555
Nd0 O14 2.606000 1_454
Nd0 O18 2.913597 1_455
Nd0 O16 2.913597 1_554
Nd1 O4 2.394917 1_555
Nd1 O5 2.394917 1_444
Nd1 O6 2.397482 1_554
Nd1 O7 2.397482 1_445
Nd1 O15 2.606000 1_545
Nd1 O13 2.606000 1_454
Nd1 O17 2.913597 1_455
Nd1 O19 2.913597 1_544
Nd2 O11 2.394917 1_555
Nd2 O10 2.394917 1_555
Nd2 O8 2.397482 1_555
Nd2 O9 2.397482 1_555
Nd2 O24 2.606000 1_555
Nd2 O26 2.606000 1_555
Nd2 O22 2.913597 1_555
Nd2 O20 2.913597 1_555
Nd3 O11 2.394917 1_545
Nd3 O10 2.394917 1_555
Nd3 O8 2.397482 1_555
Nd3 O9 2.397482 1_545
Nd3 O25 2.606000 1_555
Nd3 O27 2.606000 1_545
Nd3 O21 2.913597 1_555
Nd3 O23 2.913597 1_545
Nd4 O10 2.304262 1_555
Nd4 O4 2.333291 1_555
Nd4 O15 2.442677 1_545
Nd4 O12 2.442677 1_555
Nd4 O21 2.477275 1_555
Nd4 O22 2.477275 1_555
Nd4 O0 2.604761 1_554
Nd5 O11 2.304262 1_555
Nd5 O5 2.333291 1_555
Nd5 O13 2.442677 1_565
Nd5 O14 2.442677 1_555
Nd5 O20 2.477275 1_555
Nd5 O23 2.477275 1_555
Nd5 O1 2.604761 1_556
Nd6 O6 2.304001 1_555
Nd6 O8 2.313921 1_555
Nd6 O16 2.430555 1_555
Nd6 O19 2.430555 1_545
Nd6 O25 2.513917 1_555
Nd6 O26 2.513917 1_555
Nd6 O0 2.536274 1_555
Nd7 O7 2.304001 1_555
Nd7 O9 2.313921 1_555
Nd7 O17 2.430555 1_565
Nd7 O18 2.430555 1_555
Nd7 O27 2.513917 1_555
Nd7 O24 2.513917 1_555
Nd7 O1 2.536274 1_555
Nd8 O8 2.304001 1_555
Nd8 O6 2.313921 1_655
Nd8 O23 2.430555 1_545
Nd8 O20 2.430555 1_555
Nd8 O13 2.513917 1_555
Nd8 O14 2.513917 1_555
Nd8 O2 2.536274 1_555
Nd9 O9 2.304001 1_555
Nd9 O7 2.313921 1_455
Nd9 O21 2.430555 1_565
Nd9 O22 2.430555 1_555
Nd9 O12 2.513917 1_555
Nd9 O15 2.513917 1_555
Nd9 O3 2.536274 1_555
Nd10 O4 2.304262 1_655
Nd10 O10 2.333291 1_555
Nd10 O24 2.442677 1_555
Nd10 O27 2.442677 1_545
Nd10 O18 2.477275 1_555
Nd10 O17 2.477275 1_555
Nd10 O2 2.604761 1_555
Nd11 O5 2.304262 1_455
Nd11 O11 2.333291 1_555
Nd11 O26 2.442677 1_555
Nd11 O25 2.442677 1_565
Nd11 O19 2.477275 1_555
Nd11 O16 2.477275 1_555
Nd11 O3 2.604761 1_555
O0 Ru0 1.997461 1_556
O0 Ru1 1.997461 1_556
O1 Ru0 1.997461 1_555
O1 Ru1 1.997461 1_565
O2 Ru2 1.997461 1_655
O2 Ru3 1.997461 1_655
O3 Ru2 1.997461 1_555
O3 Ru3 1.997461 1_565
O12 Ru0 1.996893 1_555
O13 Ru1 1.996893 1_556
O14 Ru0 1.996893 1_556
O15 Ru1 1.996893 1_565
O16 Ru0 1.970309 1_556
O17 Ru1 1.970309 1_555
O18 Ru0 1.970309 1_555
O19 Ru1 1.970309 1_566
O20 Ru2 1.970309 1_655
O21 Ru3 1.970309 1_555
O22 Ru2 1.970309 1_555
O23 Ru3 1.970309 1_665
O24 Ru2 1.996893 1_655
O25 Ru3 1.996893 1_555
O26 Ru2 1.996893 1_555
O27 Ru3 1.996893 1_665
