# generated using pymatgen
data_AlFe3(SiO4)3
_symmetry_space_group_name_H-M   'P 1'
_cell_length_a   9.97182526
_cell_length_b   9.97182526
_cell_length_c   9.97182526
_cell_angle_alpha   109.47122063
_cell_angle_beta   109.47122063
_cell_angle_gamma   109.47122063
_symmetry_Int_Tables_number   1
_chemical_formula_structural   AlFe3(SiO4)3
_chemical_formula_sum   'Al4 Fe12 Si12 O48'
_cell_volume   763.31199733
_cell_formula_units_Z   4
loop_
 _symmetry_equiv_pos_site_id
 _symmetry_equiv_pos_as_xyz
  1  'x, y, z'
loop_
 _atom_site_type_symbol
 _atom_site_label
 _atom_site_symmetry_multiplicity
 _atom_site_fract_x
 _atom_site_fract_y
 _atom_site_fract_z
 _atom_site_occupancy
  Al  Al0  1  0.00000000  0.00000000  0.50000000  1
  Al  Al1  1  0.50000000  0.00000000  0.00000000  1
  Al  Al2  1  0.00000000  0.50000000  0.00000000  1
  Al  Al3  1  0.50000000  0.50000000  0.50000000  1
  Fe  Fe0  1  0.25000000  0.86344200  0.61344200  1
  Fe  Fe1  1  0.75000000  0.63655800  0.88655800  1
  Fe  Fe2  1  0.63655800  0.88655800  0.75000000  1
  Fe  Fe3  1  0.86344200  0.61344200  0.25000000  1
  Fe  Fe4  1  0.61344200  0.25000000  0.86344200  1
  Fe  Fe5  1  0.88655800  0.75000000  0.63655800  1
  Fe  Fe6  1  0.75000000  0.13655800  0.38655800  1
  Fe  Fe7  1  0.25000000  0.36344200  0.11344200  1
  Fe  Fe8  1  0.36344200  0.11344200  0.25000000  1
  Fe  Fe9  1  0.13655800  0.38655800  0.75000000  1
  Fe  Fe10  1  0.38655800  0.75000000  0.13655800  1
  Fe  Fe11  1  0.11344200  0.25000000  0.36344200  1
  Si  Si0  1  0.12471600  0.87471600  0.25000000  1
  Si  Si1  1  0.25000000  0.12471600  0.87471600  1
  Si  Si2  1  0.75000000  0.37528400  0.62528400  1
  Si  Si3  1  0.62471600  0.37471600  0.25000000  1
  Si  Si4  1  0.62528400  0.75000000  0.37528400  1
  Si  Si5  1  0.37528400  0.62528400  0.75000000  1
  Si  Si6  1  0.12528400  0.75000000  0.87528400  1
  Si  Si7  1  0.75000000  0.87528400  0.12528400  1
  Si  Si8  1  0.87471600  0.25000000  0.12471600  1
  Si  Si9  1  0.37471600  0.25000000  0.62471600  1
  Si  Si10  1  0.25000000  0.62471600  0.37471600  1
  Si  Si11  1  0.87528400  0.12528400  0.75000000  1
  O  O0  1  0.47896400  0.37750500  0.29574500  1
  O  O1  1  0.31678100  0.89854100  0.02103600  1
  O  O2  1  0.60145900  0.91824000  0.12249500  1
  O  O3  1  0.58176000  0.18321900  0.20425500  1
  O  O4  1  0.13269300  0.03464400  0.23252500  1
  O  O5  1  0.18321900  0.20425500  0.58176000  1
  O  O6  1  0.19788000  0.46535600  0.59804900  1
  O  O7  1  0.20425500  0.58176000  0.18321900  1
  O  O8  1  0.36730700  0.59983100  0.90195100  1
  O  O9  1  0.90016900  0.26747500  0.30212000  1
  O  O10  1  0.26747500  0.30212000  0.90016900  1
  O  O11  1  0.23252400  0.13269300  0.03464400  1
  O  O12  1  0.46535600  0.59804900  0.19788000  1
  O  O13  1  0.90195100  0.36730700  0.59983100  1
  O  O14  1  0.03464400  0.23252400  0.13269300  1
  O  O15  1  0.59804900  0.19788000  0.46535600  1
  O  O16  1  0.59983100  0.90195100  0.36730700  1
  O  O17  1  0.02103600  0.31678100  0.89854100  1
  O  O18  1  0.91824000  0.12249500  0.60145900  1
  O  O19  1  0.63269300  0.40016900  0.09804900  1
  O  O20  1  0.12249500  0.60145900  0.91824000  1
  O  O21  1  0.29574500  0.47896400  0.37750500  1
  O  O22  1  0.89854100  0.02103600  0.31678100  1
  O  O23  1  0.30212000  0.90016900  0.26747500  1
  O  O24  1  0.52103600  0.62249500  0.70425500  1
  O  O25  1  0.68321900  0.10145900  0.97896400  1
  O  O26  1  0.39854100  0.08176000  0.87750500  1
  O  O27  1  0.41824000  0.81678100  0.79574500  1
  O  O28  1  0.86730700  0.96535600  0.76747500  1
  O  O29  1  0.81678100  0.79574500  0.41824000  1
  O  O30  1  0.80212000  0.53464400  0.40195100  1
  O  O31  1  0.79574500  0.41824000  0.81678100  1
  O  O32  1  0.69788000  0.09983100  0.73252500  1
  O  O33  1  0.10145900  0.97896400  0.68321900  1
  O  O34  1  0.70425500  0.52103600  0.62249500  1
  O  O35  1  0.62249500  0.70425500  0.52103600  1
  O  O36  1  0.87750500  0.39854100  0.08176000  1
  O  O37  1  0.08176000  0.87750500  0.39854100  1
  O  O38  1  0.97896400  0.68321900  0.10145900  1
  O  O39  1  0.40016900  0.09804900  0.63269300  1
  O  O40  1  0.40195100  0.80212000  0.53464400  1
  O  O41  1  0.96535600  0.76747500  0.86730700  1
  O  O42  1  0.09804900  0.63269300  0.40016900  1
  O  O43  1  0.53464400  0.40195100  0.80212000  1
  O  O44  1  0.76747500  0.86730700  0.96535600  1
  O  O45  1  0.73252400  0.69788000  0.09983100  1
  O  O46  1  0.09983100  0.73252500  0.69788000  1
  O  O47  1  0.37750500  0.29574500  0.47896400  1
loop_
_geom_bond_atom_site_label_1
_geom_bond_atom_site_label_2
_geom_bond_distance
_geom_bond_site_symmetry_2
Al0 O18 1.889527 1_455
Al0 O5 1.889527 1_555
Al0 O33 1.889527 1_545
Al0 O37 1.889527 1_545
Al0 O22 1.889527 1_455
Al0 O29 1.889527 1_445
Al1 O2 1.889527 1_545
Al1 O3 1.889527 1_555
Al1 O25 1.889527 1_554
Al1 O26 1.889527 1_554
Al1 O1 1.889527 1_545
Al1 O27 1.889527 1_544
Al2 O20 1.889527 1_554
Al2 O7 1.889527 1_555
Al2 O36 1.889527 1_455
Al2 O38 1.889527 1_455
Al2 O17 1.889527 1_554
Al2 O31 1.889527 1_454
Al3 O47 1.889527 1_555
Al3 O0 1.889527 1_555
Al3 O21 1.889527 1_555
Al3 O24 1.889527 1_555
Al3 O34 1.889527 1_555
Al3 O35 1.889527 1_555
Fe0 O40 2.092456 1_555
Fe0 O42 2.092456 1_555
Fe0 O46 2.219402 1_555
Fe0 O39 2.219407 1_565
Fe0 O26 2.301190 1_565
Fe0 O33 2.301190 1_555
Fe0 O27 2.320966 1_555
Fe0 O37 2.320966 1_555
Fe1 O45 2.092456 1_556
Fe1 O44 2.092460 1_555
Fe1 O41 2.219404 1_555
Fe1 O43 2.219407 1_555
Fe1 O31 2.301190 1_555
Fe1 O34 2.301190 1_555
Fe1 O38 2.320966 1_556
Fe1 O24 2.320966 1_555
Fe2 O32 2.092451 1_565
Fe2 O28 2.092460 1_555
Fe2 O44 2.219404 1_555
Fe2 O40 2.219407 1_555
Fe2 O27 2.301190 1_555
Fe2 O24 2.301190 1_555
Fe2 O25 2.320966 1_565
Fe2 O35 2.320966 1_555
Fe3 O30 2.092456 1_555
Fe3 O19 2.092456 1_555
Fe3 O42 2.219407 1_655
Fe3 O45 2.219407 1_555
Fe3 O38 2.301190 1_555
Fe3 O37 2.301190 1_655
Fe3 O29 2.320966 1_555
Fe3 O36 2.320966 1_555
Fe4 O43 2.092456 1_555
Fe4 O39 2.092456 1_555
Fe4 O32 2.219402 1_555
Fe4 O19 2.219407 1_556
Fe4 O25 2.301190 1_555
Fe4 O36 2.301190 1_556
Fe4 O31 2.320966 1_555
Fe4 O26 2.320966 1_555
Fe5 O46 2.092451 1_655
Fe5 O41 2.092460 1_555
Fe5 O28 2.219404 1_555
Fe5 O30 2.219407 1_555
Fe5 O29 2.301190 1_555
Fe5 O35 2.301190 1_555
Fe5 O33 2.320966 1_655
Fe5 O34 2.320966 1_555
Fe6 O13 2.092456 1_555
Fe6 O15 2.092456 1_555
Fe6 O9 2.219402 1_555
Fe6 O16 2.219407 1_545
Fe6 O22 2.301190 1_555
Fe6 O2 2.301190 1_545
Fe6 O3 2.320966 1_555
Fe6 O18 2.320966 1_555
Fe7 O10 2.092451 1_554
Fe7 O11 2.092456 1_555
Fe7 O12 2.219407 1_555
Fe7 O14 2.219407 1_555
Fe7 O21 2.301190 1_555
Fe7 O7 2.301190 1_555
Fe7 O0 2.320966 1_555
Fe7 O17 2.320966 1_554
Fe8 O23 2.092451 1_545
Fe8 O4 2.092460 1_555
Fe8 O15 2.219407 1_555
Fe8 O11 2.219407 1_555
Fe8 O0 2.301190 1_555
Fe8 O3 2.301190 1_555
Fe8 O47 2.320966 1_555
Fe8 O1 2.320966 1_545
Fe9 O8 2.092456 1_555
Fe9 O6 2.092456 1_555
Fe9 O10 2.219402 1_555
Fe9 O13 2.219407 1_455
Fe9 O17 2.301190 1_555
Fe9 O18 2.301190 1_455
Fe9 O5 2.320966 1_555
Fe9 O20 2.320966 1_555
Fe10 O16 2.092456 1_555
Fe10 O12 2.092456 1_555
Fe10 O23 2.219402 1_555
Fe10 O8 2.219407 1_554
Fe10 O1 2.301190 1_555
Fe10 O20 2.301190 1_554
Fe10 O7 2.320966 1_555
Fe10 O2 2.320966 1_555
Fe11 O9 2.092451 1_455
Fe11 O14 2.092456 1_555
Fe11 O4 2.219404 1_555
Fe11 O6 2.219407 1_555
Fe11 O5 2.301190 1_555
Fe11 O47 2.301190 1_555
Fe11 O21 2.320966 1_555
Fe11 O22 2.320966 1_455
O0 Si3 1.667858 1_555
O1 Si6 1.667858 1_554
O2 Si7 1.667858 1_555
O3 Si3 1.667858 1_555
O4 Si0 1.640102 1_545
O5 Si9 1.667858 1_555
O6 Si5 1.640107 1_555
O7 Si10 1.667858 1_555
O8 Si5 1.640107 1_555
O9 Si8 1.640110 1_555
O10 Si1 1.640110 1_555
O11 Si1 1.640107 1_554
O12 Si4 1.640107 1_555
O13 Si2 1.640107 1_555
O14 Si8 1.640107 1_455
O15 Si2 1.640107 1_555
O16 Si4 1.640107 1_555
O17 Si11 1.667858 1_455
O18 Si11 1.667858 1_555
O19 Si3 1.640107 1_555
O20 Si6 1.667858 1_555
O21 Si10 1.667858 1_555
O22 Si7 1.667858 1_545
O23 Si0 1.640110 1_555
O24 Si5 1.667858 1_555
O25 Si8 1.667858 1_556
O26 Si1 1.667858 1_555
O27 Si5 1.667858 1_555
O28 Si11 1.640102 1_565
O29 Si4 1.667858 1_555
O30 Si3 1.640107 1_555
O31 Si2 1.667858 1_555
O32 Si11 1.640110 1_555
O33 Si1 1.667858 1_565
O34 Si2 1.667858 1_555
O35 Si4 1.667858 1_555
O36 Si8 1.667858 1_555
O37 Si0 1.667858 1_555
O38 Si0 1.667858 1_655
O39 Si9 1.640107 1_555
O40 Si10 1.640107 1_555
O41 Si6 1.640102 1_655
O42 Si10 1.640107 1_555
O43 Si9 1.640107 1_555
O44 Si7 1.640102 1_556
O45 Si7 1.640107 1_555
O46 Si6 1.640110 1_555
O47 Si9 1.667858 1_555
