# generated using pymatgen
data_Na2Ge2S5
_symmetry_space_group_name_H-M   'P 1'
_cell_length_a   9.12029607
_cell_length_b   9.12029472
_cell_length_c   10.57744969
_cell_angle_alpha   90.00003322
_cell_angle_beta   89.99996423
_cell_angle_gamma   90.48059905
_symmetry_Int_Tables_number   1
_chemical_formula_structural   Na2Ge2S5
_chemical_formula_sum   'Na8 Ge8 S20'
_cell_volume   879.79907208
_cell_formula_units_Z   4
loop_
 _symmetry_equiv_pos_site_id
 _symmetry_equiv_pos_as_xyz
  1  'x, y, z'
loop_
 _atom_site_type_symbol
 _atom_site_label
 _atom_site_symmetry_multiplicity
 _atom_site_fract_x
 _atom_site_fract_y
 _atom_site_fract_z
 _atom_site_occupancy
  Na  Na0  1  0.90935557  0.41836807  0.75000012  1
  Na  Na1  1  0.09064446  0.58163186  0.24999993  1
  Na  Na2  1  0.41836810  0.90935569  0.24999966  1
  Na  Na3  1  0.58163204  0.09064463  0.75000031  1
  Na  Na4  1  0.14889923  0.14889787  0.50000047  1
  Na  Na5  1  0.85110060  0.85110250  -0.00000049  1
  Na  Na6  1  0.85110167  0.85110189  0.50000053  1
  Na  Na7  1  0.14889825  0.14889942  0.00000026  1
  Ge  Ge0  1  0.31390746  0.40791600  0.75000041  1
  Ge  Ge1  1  0.68609334  0.59208463  0.24999991  1
  Ge  Ge2  1  0.40791505  0.31390760  0.25000022  1
  Ge  Ge3  1  0.59208344  0.68609220  0.74999979  1
  Ge  Ge4  1  0.25510595  0.74489335  0.58036490  1
  Ge  Ge5  1  0.74489426  0.25510567  0.08036387  1
  Ge  Ge6  1  0.74489400  0.25510631  0.41963503  1
  Ge  Ge7  1  0.25510552  0.74489432  0.91963633  1
  S  S0  1  0.55500368  0.44499582  0.75000033  1
  S  S1  1  0.44499715  0.55500347  0.24999989  1
  S  S2  1  0.49704376  0.79378230  0.92227439  1
  S  S3  1  0.50295546  0.20621781  0.42227495  1
  S  S4  1  0.79378252  0.49704438  0.07772514  1
  S  S5  1  0.20621770  0.50295531  0.57772563  1
  S  S6  1  0.50295558  0.20621797  0.07772535  1
  S  S7  1  0.49704402  0.79378219  0.57772540  1
  S  S8  1  0.20621771  0.50295574  0.92227459  1
  S  S9  1  0.79378254  0.49704470  0.42227497  1
  S  S10  1  0.15417245  0.84582732  0.74999966  1
  S  S11  1  0.84582798  0.15417222  0.25000018  1
  S  S12  1  0.15711205  0.84288770  0.08333565  1
  S  S13  1  0.84288658  0.15711368  0.58333433  1
  S  S14  1  0.84288749  0.15711267  0.91666394  1
  S  S15  1  0.15711352  0.84288612  0.41666573  1
  S  S16  1  0.82249711  0.72834267  0.75000006  1
  S  S17  1  0.17749994  0.27165733  0.25000022  1
  S  S18  1  0.72834333  0.82249960  0.25000007  1
  S  S19  1  0.27165751  0.17750199  0.75000029  1
loop_
_geom_bond_atom_site_label_1
_geom_bond_atom_site_label_2
_geom_bond_distance
_geom_bond_site_symmetry_2
Na0 S16 2.942342 1_555
Na0 S14 3.021322 1_555
Na0 S13 3.021327 1_555
Na0 S0 3.242937 1_555
Na0 S5 3.348284 1_655
Na0 S8 3.348286 1_655
Na1 S17 2.942334 1_555
Na1 S15 3.021326 1_555
Na1 S12 3.021327 1_555
Na1 S1 3.242944 1_555
Na1 S9 3.348286 1_455
Na1 S4 3.348286 1_455
Na2 S18 2.942342 1_555
Na2 S12 3.021328 1_555
Na2 S15 3.021331 1_555
Na2 S1 3.242940 1_555
Na2 S6 3.348286 1_565
Na2 S3 3.348289 1_565
Na3 S19 2.942339 1_555
Na3 S14 3.021321 1_555
Na3 S13 3.021330 1_555
Na3 S0 3.242930 1_555
Na3 S2 3.348286 1_545
Na3 S7 3.348290 1_545
Na4 S19 2.882584 1_555
Na4 S17 2.882589 1_555
Na4 S15 2.928365 1_545
Na4 S13 2.928371 1_455
Na4 S3 3.368672 1_555
Na4 S5 3.368680 1_555
Na5 S16 2.882584 1_554
Na5 S18 2.882585 1_555
Na5 S14 2.928355 1_564
Na5 S12 2.928369 1_655
Na5 S2 3.368678 1_554
Na5 S4 3.368687 1_555
Na6 S16 2.882584 1_555
Na6 S18 2.882589 1_555
Na6 S13 2.928363 1_565
Na6 S15 2.928367 1_655
Na6 S9 3.368679 1_555
Na6 S7 3.368683 1_555
Na7 S17 2.882581 1_555
Na7 S19 2.882586 1_554
Na7 S14 2.928363 1_454
Na7 S12 2.928368 1_545
Na7 S8 3.368673 1_554
Na7 S6 3.368680 1_555
Ge0 S19 2.133298 1_555
Ge0 S0 2.221917 1_555
Ge0 S8 2.247385 1_555
Ge0 S5 2.247390 1_555
Ge1 S18 2.133307 1_555
Ge1 S1 2.221918 1_555
Ge1 S4 2.247389 1_555
Ge1 S9 2.247392 1_555
Ge2 S17 2.133309 1_555
Ge2 S1 2.221916 1_555
Ge2 S6 2.247393 1_555
Ge2 S3 2.247394 1_555
Ge3 S16 2.133296 1_555
Ge3 S0 2.221918 1_555
Ge3 S7 2.247388 1_555
Ge3 S2 2.247389 1_555
Ge4 S15 2.146867 1_555
Ge4 S10 2.220032 1_555
Ge4 S5 2.247649 1_555
Ge4 S7 2.247651 1_555
Ge5 S14 2.146876 1_554
Ge5 S11 2.220046 1_555
Ge5 S6 2.247654 1_555
Ge5 S4 2.247655 1_555
Ge6 S13 2.146869 1_555
Ge6 S11 2.220035 1_555
Ge6 S9 2.247653 1_555
Ge6 S3 2.247654 1_555
Ge7 S12 2.146873 1_556
Ge7 S10 2.220045 1_555
Ge7 S2 2.247650 1_555
Ge7 S8 2.247653 1_555
