# generated using pymatgen
data_NbCoAs
_symmetry_space_group_name_H-M   'P 1'
_cell_length_a   3.72539937
_cell_length_b   6.30286285
_cell_length_c   7.12481608
_cell_angle_alpha   90.00000000
_cell_angle_beta   90.00000000
_cell_angle_gamma   90.00000000
_symmetry_Int_Tables_number   1
_chemical_formula_structural   NbCoAs
_chemical_formula_sum   'Nb4 Co4 As4'
_cell_volume   167.29553563
_cell_formula_units_Z   4
loop_
 _symmetry_equiv_pos_site_id
 _symmetry_equiv_pos_as_xyz
  1  'x, y, z'
loop_
 _atom_site_type_symbol
 _atom_site_label
 _atom_site_symmetry_multiplicity
 _atom_site_fract_x
 _atom_site_fract_y
 _atom_site_fract_z
 _atom_site_occupancy
  Nb  Nb0  1  0.25000000  0.02347515  0.32983758  1
  Nb  Nb1  1  0.25000000  0.52341949  0.17016636  1
  Nb  Nb2  1  0.75000000  0.97658051  0.67016636  1
  Nb  Nb3  1  0.75000000  0.47652485  0.82983758  1
  Co  Co0  1  0.25000000  0.15055710  0.93606279  1
  Co  Co1  1  0.25000000  0.65052452  0.56393674  1
  Co  Co2  1  0.75000000  0.84947548  0.06393674  1
  Co  Co3  1  0.75000000  0.34944290  0.43606279  1
  As  As0  1  0.25000000  0.28170224  0.62139431  1
  As  As1  1  0.25000000  0.78173441  0.87860323  1
  As  As2  1  0.75000000  0.71826559  0.37860323  1
  As  As3  1  0.75000000  0.21829776  0.12139431  1
loop_
_geom_bond_atom_site_label_1
_geom_bond_atom_site_label_2
_geom_bond_distance
_geom_bond_site_symmetry_2
As0 Co3 2.322830 1_455
As0 Co3 2.322830 1_555
As0 Co1 2.360407 1_555
As0 Co0 2.389480 1_555
As0 Nb0 2.638960 1_555
As0 Nb3 2.680125 1_555
As0 Nb3 2.680125 1_455
As0 Nb2 2.699791 1_545
As0 Nb2 2.699791 1_445
As1 Co2 2.322839 1_556
As1 Co2 2.322839 1_456
As1 Co0 2.360412 1_565
As1 Co1 2.389608 1_555
As1 Nb1 2.639337 1_556
As1 Nb2 2.680167 1_555
As1 Nb2 2.680167 1_455
As1 Nb3 2.700179 1_455
As1 Nb3 2.700179 1_555
As2 Co1 2.322839 1_655
As2 Co1 2.322839 1_555
As2 Co3 2.360412 1_555
As2 Co2 2.389608 1_555
As2 Nb2 2.639337 1_555
As2 Nb1 2.680167 1_555
As2 Nb1 2.680167 1_655
As2 Nb0 2.700179 1_665
As2 Nb0 2.700179 1_565
As3 Co0 2.322830 1_654
As3 Co0 2.322830 1_554
As3 Co2 2.360407 1_545
As3 Co3 2.389480 1_555
As3 Nb3 2.638960 1_554
As3 Nb0 2.680125 1_555
As3 Nb0 2.680125 1_655
As3 Nb1 2.699791 1_555
As3 Nb1 2.699791 1_655
