# generated using pymatgen
data_CeScPd6
_symmetry_space_group_name_H-M   'P 1'
_cell_length_a   4.06418608
_cell_length_b   4.06418608
_cell_length_c   8.07429853
_cell_angle_alpha   90.00000000
_cell_angle_beta   90.00000000
_cell_angle_gamma   90.00000000
_symmetry_Int_Tables_number   1
_chemical_formula_structural   CeScPd6
_chemical_formula_sum   'Ce1 Sc1 Pd6'
_cell_volume   133.36810197
_cell_formula_units_Z   1
loop_
 _symmetry_equiv_pos_site_id
 _symmetry_equiv_pos_as_xyz
  1  'x, y, z'
loop_
 _atom_site_type_symbol
 _atom_site_label
 _atom_site_symmetry_multiplicity
 _atom_site_fract_x
 _atom_site_fract_y
 _atom_site_fract_z
 _atom_site_occupancy
  Ce  Ce0  1  -0.00000000  0.00000000  0.00000000  1
  Sc  Sc0  1  -0.00000000  0.00000000  0.50000000  1
  Pd  Pd0  1  0.50000000  0.50000000  0.00000000  1
  Pd  Pd1  1  0.50000000  0.50000000  0.50000000  1
  Pd  Pd2  1  0.50000000  0.00000000  0.25684298  1
  Pd  Pd3  1  0.50000000  0.00000000  0.74315702  1
  Pd  Pd4  1  -0.00000000  0.50000000  0.25684298  1
  Pd  Pd5  1  -0.00000000  0.50000000  0.74315702  1
loop_
_geom_bond_atom_site_label_1
_geom_bond_atom_site_label_2
_geom_bond_distance
_geom_bond_site_symmetry_2
Ce0 Pd0 2.873814 1_555
Ce0 Pd0 2.873814 1_445
Ce0 Pd0 2.873814 1_545
Ce0 Pd0 2.873814 1_455
Ce0 Pd5 2.903474 1_554
Ce0 Pd3 2.903474 1_554
Ce0 Pd5 2.903474 1_544
Ce0 Pd3 2.903474 1_454
Ce0 Pd4 2.903474 1_545
Ce0 Pd4 2.903474 1_555
Ce0 Pd2 2.903474 1_455
Ce0 Pd2 2.903474 1_555
Pd1 Pd4 2.825604 1_655
Pd1 Pd2 2.825604 1_565
Pd1 Pd2 2.825604 1_555
Pd1 Pd4 2.825604 1_555
Pd1 Pd3 2.825604 1_555
Pd1 Pd5 2.825604 1_555
Pd1 Pd5 2.825604 1_655
Pd1 Pd3 2.825604 1_565
Pd1 Sc0 2.873814 1_665
Pd1 Sc0 2.873814 1_555
Pd1 Sc0 2.873814 1_655
Pd1 Sc0 2.873814 1_565
Pd2 Sc0 2.825604 1_655
Pd2 Sc0 2.825604 1_555
Pd3 Sc0 2.825604 1_555
Pd3 Sc0 2.825604 1_655
Pd4 Sc0 2.825604 1_555
Pd4 Sc0 2.825604 1_565
Pd5 Sc0 2.825604 1_565
Pd5 Sc0 2.825604 1_555
