# generated using pymatgen
data_Na2Zn3(PO3)4
_symmetry_space_group_name_H-M   'P 1'
_cell_length_a   8.52012600
_cell_length_b   12.47276700
_cell_length_c   12.93101700
_cell_angle_alpha   90.00000000
_cell_angle_beta   90.00000000
_cell_angle_gamma   90.00000000
_symmetry_Int_Tables_number   1
_chemical_formula_structural   Na2Zn3(PO3)4
_chemical_formula_sum   'Na8 Zn12 P16 O48'
_cell_volume   1374.17331119
_cell_formula_units_Z   4
loop_
 _symmetry_equiv_pos_site_id
 _symmetry_equiv_pos_as_xyz
  1  'x, y, z'
loop_
 _atom_site_type_symbol
 _atom_site_label
 _atom_site_symmetry_multiplicity
 _atom_site_fract_x
 _atom_site_fract_y
 _atom_site_fract_z
 _atom_site_occupancy
  Na  Na0  1  0.27064900  0.96385200  0.93163200  1
  Na  Na1  1  0.77064900  0.53614800  0.56836800  1
  Na  Na2  1  0.72935100  0.46385200  0.06836800  1
  Na  Na3  1  0.22935100  0.03614800  0.43163200  1
  Na  Na4  1  0.72935100  0.03614800  0.06836800  1
  Na  Na5  1  0.22935100  0.46385200  0.43163200  1
  Na  Na6  1  0.27064900  0.53614800  0.93163200  1
  Na  Na7  1  0.77064900  0.96385200  0.56836800  1
  Zn  Zn0  1  0.42523500  0.25000000  0.93243100  1
  Zn  Zn1  1  0.92523500  0.25000000  0.56756900  1
  Zn  Zn2  1  0.57476500  0.75000000  0.06756900  1
  Zn  Zn3  1  0.07476500  0.75000000  0.43243100  1
  Zn  Zn4  1  0.08674300  0.43063400  0.16229100  1
  Zn  Zn5  1  0.58674300  0.06936600  0.33770900  1
  Zn  Zn6  1  0.91325700  0.93063400  0.83770900  1
  Zn  Zn7  1  0.41325700  0.56936600  0.66229100  1
  Zn  Zn8  1  0.91325700  0.56936600  0.83770900  1
  Zn  Zn9  1  0.41325700  0.93063400  0.66229100  1
  Zn  Zn10  1  0.08674300  0.06936600  0.16229100  1
  Zn  Zn11  1  0.58674300  0.43063400  0.33770900  1
  P  P0  1  0.03255500  0.25000000  0.99463700  1
  P  P1  1  0.53255500  0.25000000  0.50536300  1
  P  P2  1  0.96744500  0.75000000  0.00536300  1
  P  P3  1  0.46744500  0.75000000  0.49463700  1
  P  P4  1  0.55949000  0.25000000  0.16354100  1
  P  P5  1  0.05949000  0.25000000  0.33645900  1
  P  P6  1  0.44051000  0.75000000  0.83645900  1
  P  P7  1  0.94051000  0.75000000  0.66354100  1
  P  P8  1  0.62075100  0.07824300  0.80837700  1
  P  P9  1  0.12075100  0.42175700  0.69162300  1
  P  P10  1  0.37924900  0.57824300  0.19162300  1
  P  P11  1  0.87924900  0.92175700  0.30837700  1
  P  P12  1  0.37924900  0.92175700  0.19162300  1
  P  P13  1  0.87924900  0.57824300  0.30837700  1
  P  P14  1  0.62075100  0.42175700  0.80837700  1
  P  P15  1  0.12075100  0.07824300  0.69162300  1
  O  O0  1  0.46511400  0.11137200  0.86314700  1
  O  O1  1  0.96511400  0.38862800  0.63685300  1
  O  O2  1  0.53488600  0.61137200  0.13685300  1
  O  O3  1  0.03488600  0.88862800  0.36314700  1
  O  O4  1  0.53488600  0.88862800  0.13685300  1
  O  O5  1  0.03488600  0.61137200  0.36314700  1
  O  O6  1  0.46511400  0.38862800  0.86314700  1
  O  O7  1  0.96511400  0.11137200  0.63685300  1
  O  O8  1  0.58240100  0.25000000  0.04479600  1
  O  O9  1  0.08240100  0.25000000  0.45520400  1
  O  O10  1  0.41759900  0.75000000  0.95520400  1
  O  O11  1  0.91759900  0.75000000  0.54479600  1
  O  O12  1  0.21093400  0.25000000  0.97801800  1
  O  O13  1  0.71093400  0.25000000  0.52198200  1
  O  O14  1  0.78906600  0.75000000  0.02198200  1
  O  O15  1  0.28906600  0.75000000  0.47801800  1
  O  O16  1  0.90941800  0.52730900  0.20105400  1
  O  O17  1  0.40941800  0.97269100  0.29894600  1
  O  O18  1  0.09058200  0.02730900  0.79894600  1
  O  O19  1  0.59058200  0.47269100  0.70105400  1
  O  O20  1  0.09058200  0.47269100  0.79894600  1
  O  O21  1  0.59058200  0.02730900  0.70105400  1
  O  O22  1  0.90941800  0.97269100  0.20105400  1
  O  O23  1  0.40941800  0.52730900  0.29894600  1
  O  O24  1  0.97734000  0.35439500  0.05008100  1
  O  O25  1  0.47734000  0.14560500  0.44991900  1
  O  O26  1  0.02266000  0.85439500  0.94991900  1
  O  O27  1  0.52266000  0.64560500  0.55008100  1
  O  O28  1  0.02266000  0.64560500  0.94991900  1
  O  O29  1  0.52266000  0.85439500  0.55008100  1
  O  O30  1  0.97734000  0.14560500  0.05008100  1
  O  O31  1  0.47734000  0.35439500  0.44991900  1
  O  O32  1  0.28032200  0.50476800  0.11782700  1
  O  O33  1  0.78032200  0.99523200  0.38217300  1
  O  O34  1  0.71967800  0.00476800  0.88217300  1
  O  O35  1  0.21967800  0.49523200  0.61782700  1
  O  O36  1  0.71967800  0.49523200  0.88217300  1
  O  O37  1  0.21967800  0.00476800  0.61782700  1
  O  O38  1  0.28032200  0.99523200  0.11782700  1
  O  O39  1  0.78032200  0.50476800  0.38217300  1
  O  O40  1  0.63321100  0.35380700  0.20931300  1
  O  O41  1  0.13321100  0.14619300  0.29068700  1
  O  O42  1  0.36678900  0.85380700  0.79068700  1
  O  O43  1  0.86678900  0.64619300  0.70931300  1
  O  O44  1  0.36678900  0.64619300  0.79068700  1
  O  O45  1  0.86678900  0.85380700  0.70931300  1
  O  O46  1  0.63321100  0.14619300  0.20931300  1
  O  O47  1  0.13321100  0.35380700  0.29068700  1
loop_
_geom_bond_atom_site_label_1
_geom_bond_atom_site_label_2
_geom_bond_distance
_geom_bond_site_symmetry_2
Na0 O42 2.424177 1_555
Na0 O18 2.433936 1_565
Na0 O38 2.440688 1_556
Na0 O26 2.526680 1_555
Na0 O0 2.629638 1_565
Na0 O10 2.962283 1_555
Na1 O43 2.424177 1_555
Na1 O19 2.433936 1_555
Na1 O39 2.440688 1_555
Na1 O27 2.526680 1_555
Na1 O1 2.629638 1_555
Na1 O11 2.962283 1_555
Na2 O40 2.424177 1_555
Na2 O16 2.433936 1_555
Na2 O36 2.440688 1_554
Na2 O24 2.526680 1_555
Na2 O2 2.629638 1_555
Na2 O8 2.962283 1_555
Na3 O41 2.424177 1_555
Na3 O17 2.433936 1_545
Na3 O37 2.440688 1_555
Na3 O25 2.526680 1_555
Na3 O3 2.629638 1_545
Na3 O9 2.962283 1_555
Na4 O46 2.424177 1_555
Na4 O22 2.433936 1_545
Na4 O34 2.440688 1_554
Na4 O30 2.526680 1_555
Na4 O4 2.629638 1_545
Na4 O8 2.962283 1_555
Na5 O47 2.424177 1_555
Na5 O23 2.433936 1_555
Na5 O35 2.440688 1_555
Na5 O31 2.526680 1_555
Na5 O5 2.629638 1_555
Na5 O9 2.962283 1_555
Na6 O44 2.424177 1_555
Na6 O20 2.433936 1_555
Na6 O32 2.440688 1_556
Na6 O28 2.526680 1_555
Na6 O6 2.629638 1_555
Na6 O10 2.962283 1_555
Na7 O45 2.424177 1_555
Na7 O21 2.433936 1_565
Na7 O33 2.440688 1_555
Na7 O29 2.526680 1_555
Na7 O7 2.629638 1_565
Na7 O11 2.962283 1_555
O0 P8 1.559082 1_555
O0 Zn0 1.976817 1_555
O1 P9 1.559082 1_655
O1 Zn1 1.976817 1_555
O2 P10 1.559082 1_555
O2 Zn2 1.976817 1_555
O3 P11 1.559082 1_455
O3 Zn3 1.976817 1_555
O4 P12 1.559082 1_555
O4 Zn2 1.976817 1_555
O5 P13 1.559082 1_455
O5 Zn3 1.976817 1_555
O6 P14 1.559082 1_555
O6 Zn0 1.976817 1_555
O7 P15 1.559082 1_655
O7 Zn1 1.976817 1_555
O8 P4 1.547852 1_555
O8 Zn0 1.975933 1_554
O9 P5 1.547852 1_555
O9 Zn1 1.975933 1_455
O10 P6 1.547852 1_555
O10 Zn2 1.975933 1_556
O11 P7 1.547852 1_555
O11 Zn3 1.975933 1_655
O12 P0 1.534930 1_555
O12 Zn0 1.918672 1_555
O13 P1 1.534930 1_555
O13 Zn1 1.918672 1_555
O14 P2 1.534930 1_555
O14 Zn2 1.918672 1_555
O15 P3 1.534930 1_555
O15 Zn3 1.918672 1_555
O16 P13 1.547785 1_555
O16 Zn4 1.996953 1_655
O17 P12 1.547785 1_555
O17 Zn5 1.996953 1_565
O18 P15 1.547785 1_555
O18 Zn6 1.996953 1_445
O19 P14 1.547785 1_555
O19 Zn7 1.996953 1_555
O20 P9 1.547785 1_555
O20 Zn8 1.996953 1_455
O21 P8 1.547785 1_555
O21 Zn9 1.996953 1_545
O22 P11 1.547785 1_555
O22 Zn10 1.996953 1_665
O23 P10 1.547785 1_555
O23 Zn11 1.996953 1_555
O24 P0 1.559095 1_654
O24 Zn4 1.969382 1_655
O25 P1 1.559095 1_555
O25 Zn5 1.969382 1_555
O26 P2 1.559095 1_456
O26 Zn6 1.969382 1_455
O27 P3 1.559095 1_555
O27 Zn7 1.969382 1_555
O28 P2 1.559095 1_456
O28 Zn8 1.969382 1_455
O29 P3 1.559095 1_555
O29 Zn9 1.969382 1_555
O30 P0 1.559095 1_654
O30 Zn10 1.969382 1_655
O31 P1 1.559095 1_555
O31 Zn11 1.969382 1_555
O32 P10 1.568724 1_555
O32 Zn4 1.976315 1_555
O33 P11 1.568724 1_555
O33 Zn5 1.976315 1_565
O34 P8 1.568724 1_555
O34 Zn6 1.976315 1_545
O35 P9 1.568724 1_555
O35 Zn7 1.976315 1_555
O36 P14 1.568724 1_555
O36 Zn8 1.976315 1_555
O37 P15 1.568724 1_555
O37 Zn9 1.976315 1_545
O38 P12 1.568724 1_555
O38 Zn10 1.976315 1_565
O39 P13 1.568724 1_555
O39 Zn11 1.976315 1_555
O40 P4 1.556037 1_555
O40 Zn11 1.957434 1_555
O41 P5 1.556037 1_555
O41 Zn10 1.957434 1_555
O42 P6 1.556037 1_555
O42 Zn9 1.957434 1_555
O43 P7 1.556037 1_555
O43 Zn8 1.957434 1_555
O44 P6 1.556037 1_555
O44 Zn7 1.957434 1_555
O45 P7 1.556037 1_555
O45 Zn6 1.957434 1_555
O46 P4 1.556037 1_555
O46 Zn5 1.957434 1_555
O47 P5 1.556037 1_555
O47 Zn4 1.957434 1_555
