# generated using pymatgen
data_NaCa4TaTi4O15
_symmetry_space_group_name_H-M   'P 1'
_cell_length_a   5.42961679
_cell_length_b   5.52746728
_cell_length_c   38.74305765
_cell_angle_alpha   90.06442707
_cell_angle_beta   89.94067398
_cell_angle_gamma   90.09912165
_symmetry_Int_Tables_number   1
_chemical_formula_structural   NaCa4TaTi4O15
_chemical_formula_sum   'Na4 Ca16 Ta4 Ti16 O60'
_cell_volume   1162.75467837
_cell_formula_units_Z   4
loop_
 _symmetry_equiv_pos_site_id
 _symmetry_equiv_pos_as_xyz
  1  'x, y, z'
loop_
 _atom_site_type_symbol
 _atom_site_label
 _atom_site_symmetry_multiplicity
 _atom_site_fract_x
 _atom_site_fract_y
 _atom_site_fract_z
 _atom_site_occupancy
  Na  Na0  1  0.00531500  0.97111000  0.34784900  1
  Na  Na1  1  0.00456600  0.97143500  0.74812300  1
  Na  Na2  1  0.49430800  0.47452000  0.14748100  1
  Na  Na3  1  0.49472100  0.47399300  0.54818500  1
  Ca  Ca0  1  0.00625000  0.95692100  0.14704400  1
  Ca  Ca1  1  0.00747700  0.95597000  0.54793800  1
  Ca  Ca2  1  0.00977400  0.95524900  0.95081300  1
  Ca  Ca3  1  0.49351200  0.46194400  0.34759200  1
  Ca  Ca4  1  0.49443900  0.46254700  0.74790000  1
  Ca  Ca5  1  0.49444200  0.45836100  0.95085200  1
  Ca  Ca6  1  0.50801400  0.54192600  0.05082000  1
  Ca  Ca7  1  0.50674000  0.54101500  0.25188600  1
  Ca  Ca8  1  0.50722400  0.54049400  0.65226600  1
  Ca  Ca9  1  0.50900100  0.54189900  0.45211600  1
  Ca  Ca10  1  0.50707000  0.54150400  0.85189900  1
  Ca  Ca11  1  0.99026600  0.04838800  0.25171900  1
  Ca  Ca12  1  0.98926100  0.04309000  0.05043200  1
  Ca  Ca13  1  0.99028700  0.04819500  0.65214800  1
  Ca  Ca14  1  0.99090800  0.04649700  0.45194100  1
  Ca  Ca15  1  0.99266900  0.04853800  0.85198000  1
  Ta  Ta0  1  0.50100300  0.00663200  0.19896100  1
  Ta  Ta1  1  0.49691500  0.00117600  0.39920300  1
  Ta  Ta2  1  0.50017200  0.00540700  0.59968400  1
  Ta  Ta3  1  0.49545100  0.00191500  0.79987700  1
  Ti  Ti0  1  0.00009700  0.50024900  0.00066000  1
  Ti  Ti1  1  0.00589700  0.50386500  0.19911300  1
  Ti  Ti2  1  0.99863500  0.50829800  0.39918700  1
  Ti  Ti3  1  0.00308000  0.50222100  0.59857200  1
  Ti  Ti4  1  0.99749200  0.50959000  0.79912700  1
  Ti  Ti5  1  0.49166600  0.01019300  0.09894200  1
  Ti  Ti6  1  0.48779700  0.00696000  0.30018900  1
  Ti  Ti7  1  0.49803900  0.99985000  0.00038200  1
  Ti  Ti8  1  0.50044000  0.01572900  0.50005300  1
  Ti  Ti9  1  0.50962300  0.00209100  0.90144000  1
  Ti  Ti10  1  0.49101900  0.00874400  0.70085800  1
  Ti  Ti11  1  0.99748300  0.50719800  0.10048000  1
  Ti  Ti12  1  0.99437400  0.51599800  0.29973900  1
  Ti  Ti13  1  0.00897700  0.51017900  0.50002800  1
  Ti  Ti14  1  0.99891300  0.51651800  0.69952700  1
  Ti  Ti15  1  0.00907200  0.49940200  0.90059900  1
  O  O0  1  0.07657800  0.48019100  0.04933000  1
  O  O1  1  0.07657100  0.47845800  0.24967500  1
  O  O2  1  0.07687000  0.47887500  0.45009500  1
  O  O3  1  0.07637700  0.47901600  0.65004400  1
  O  O4  1  0.07442000  0.47916100  0.85051300  1
  O  O5  1  0.20991900  0.20688500  0.39273400  1
  O  O6  1  0.19519300  0.19831200  0.59275800  1
  O  O7  1  0.19380300  0.19631100  0.19265200  1
  O  O8  1  0.20714400  0.20573800  0.79322100  1
  O  O9  1  0.20779900  0.20247300  0.10604800  1
  O  O10  1  0.22211900  0.21118600  0.30673000  1
  O  O11  1  0.20569200  0.20204400  0.50670200  1
  O  O12  1  0.22127400  0.21070100  0.70683200  1
  O  O13  1  0.21008100  0.20919800  0.99186600  1
  O  O14  1  0.20443900  0.20641100  0.90809500  1
  O  O15  1  0.28407600  0.71338800  0.10629300  1
  O  O16  1  0.28919000  0.70517600  0.19269500  1
  O  O17  1  0.29751400  0.70401600  0.30659700  1
  O  O18  1  0.30366900  0.69515500  0.39254400  1
  O  O19  1  0.28728700  0.70726600  0.59252100  1
  O  O20  1  0.27921400  0.71213000  0.50715000  1
  O  O21  1  0.29119600  0.70608800  0.90813500  1
  O  O22  1  0.29258700  0.71067300  0.99172200  1
  O  O23  1  0.29638300  0.70335300  0.70680200  1
  O  O24  1  0.30431500  0.69357700  0.79305000  1
  O  O25  1  0.42570000  0.97971100  0.04944400  1
  O  O26  1  0.42107200  0.97767000  0.65015400  1
  O  O27  1  0.42271200  0.97835500  0.25010800  1
  O  O28  1  0.41973700  0.97741700  0.85035900  1
  O  O29  1  0.42004600  0.97622500  0.44993200  1
  O  O30  1  0.57645700  0.01636200  0.34989700  1
  O  O31  1  0.57702600  0.01806600  0.14970700  1
  O  O32  1  0.57750700  0.01855100  0.54998900  1
  O  O33  1  0.57396400  0.01596300  0.75009600  1
  O  O34  1  0.57624900  0.02005100  0.94992800  1
  O  O35  1  0.70736000  0.29272100  0.00756800  1
  O  O36  1  0.71448000  0.28006400  0.09058000  1
  O  O37  1  0.70493000  0.29041900  0.20973200  1
  O  O38  1  0.71600600  0.28378300  0.29239400  1
  O  O39  1  0.70514600  0.28960500  0.61003900  1
  O  O40  1  0.71008700  0.28905000  0.40869300  1
  O  O41  1  0.71057500  0.27657000  0.49077100  1
  O  O42  1  0.71455300  0.28219400  0.69257200  1
  O  O43  1  0.70815400  0.29080100  0.80873700  1
  O  O44  1  0.70420800  0.28837200  0.89227300  1
  O  O45  1  0.79288300  0.79290600  0.00755000  1
  O  O46  1  0.79288000  0.79003600  0.20806900  1
  O  O47  1  0.78926600  0.78299700  0.09195000  1
  O  O48  1  0.79011600  0.77968200  0.29093000  1
  O  O49  1  0.78831600  0.77906000  0.69115600  1
  O  O50  1  0.79498500  0.78593700  0.40981500  1
  O  O51  1  0.79170300  0.79047300  0.60833600  1
  O  O52  1  0.78311600  0.78120500  0.49236700  1
  O  O53  1  0.78792300  0.79177300  0.89242400  1
  O  O54  1  0.79559700  0.78796800  0.80993800  1
  O  O55  1  0.93238800  0.51596400  0.15015000  1
  O  O56  1  0.92779500  0.51642500  0.35056900  1
  O  O57  1  0.92887700  0.51536600  0.55064600  1
  O  O58  1  0.92789900  0.51650500  0.75082800  1
  O  O59  1  0.92418800  0.52016200  0.94989100  1
loop_
_geom_bond_atom_site_label_1
_geom_bond_atom_site_label_2
_geom_bond_distance
_geom_bond_site_symmetry_2
Na0 O30 2.343613 1_465
Na0 O10 2.383281 1_565
Na0 O5 2.439371 1_565
Na0 O56 2.549817 1_455
Na0 O17 2.692318 1_555
Na0 O48 2.709919 1_455
Na0 O18 2.823062 1_555
Na0 O50 2.848023 1_455
Na1 O33 2.352501 1_465
Na1 O12 2.385000 1_565
Na1 O8 2.435961 1_565
Na1 O58 2.550375 1_455
Na1 O23 2.695680 1_555
Na1 O49 2.715934 1_455
Na1 O54 2.836757 1_455
Na1 O24 2.838647 1_555
Na2 O15 2.367784 1_555
Na2 O55 2.391550 1_555
Na2 O16 2.435208 1_555
Na2 O31 2.565024 1_555
Na2 O9 2.692518 1_555
Na2 O36 2.727263 1_555
Na2 O7 2.842743 1_555
Na2 O37 2.859258 1_555
Na3 O57 2.369980 1_555
Na3 O20 2.375549 1_555
Na3 O19 2.424391 1_555
Na3 O32 2.559065 1_555
Na3 O11 2.701293 1_555
Na3 O41 2.739693 1_555
Na3 O6 2.817913 1_555
Na3 O39 2.846423 1_555
Ca0 O31 2.357616 1_465
Ca0 O9 2.357672 1_565
Ca0 O7 2.429815 1_565
Ca0 O55 2.472507 1_455
Ca0 O15 2.564676 1_555
Ca0 O47 2.620121 1_455
Ca0 O16 2.728205 1_555
Ca0 O46 2.788997 1_455
Ca1 O11 2.357316 1_565
Ca1 O32 2.361895 1_465
Ca1 O6 2.417064 1_565
Ca1 O57 2.474129 1_455
Ca1 O20 2.547147 1_555
Ca1 O52 2.655036 1_455
Ca1 O19 2.683182 1_555
Ca1 O51 2.771361 1_455
Ca2 O34 2.381872 1_465
Ca2 O13 2.382486 1_565
Ca2 O14 2.404180 1_565
Ca2 O59 2.448853 1_455
Ca2 O22 2.591261 1_555
Ca2 O21 2.638654 1_555
Ca2 O45 2.649415 1_456
Ca2 O53 2.717015 1_455
Ca3 O17 2.336383 1_555
Ca3 O56 2.379524 1_555
Ca3 O18 2.398565 1_555
Ca3 O30 2.506250 1_555
Ca3 O10 2.567416 1_555
Ca3 O38 2.645103 1_555
Ca3 O5 2.722105 1_555
Ca3 O40 2.813298 1_555
Ca4 O23 2.340228 1_555
Ca4 O58 2.374644 1_555
Ca4 O24 2.398348 1_555
Ca4 O33 2.508247 1_555
Ca4 O12 2.581094 1_555
Ca4 O42 2.647844 1_555
Ca4 O8 2.742927 1_555
Ca4 O43 2.796020 1_555
Ca5 O59 2.357906 1_555
Ca5 O22 2.377019 1_555
Ca5 O21 2.417829 1_555
Ca5 O34 2.464095 1_555
Ca5 O13 2.607310 1_555
Ca5 O35 2.648877 1_556
Ca5 O14 2.674992 1_555
Ca5 O44 2.706361 1_555
Ca6 O0 2.367425 1_555
Ca6 O36 2.395597 1_555
Ca6 O35 2.423467 1_555
Ca6 O25 2.462176 1_555
Ca6 O47 2.576833 1_555
Ca6 O15 2.643798 1_555
Ca6 O45 2.668281 1_555
Ca6 O22 2.737652 1_554
Ca7 O1 2.362145 1_555
Ca7 O37 2.395902 1_555
Ca7 O38 2.406240 1_555
Ca7 O27 2.461888 1_555
Ca7 O48 2.527694 1_555
Ca7 O17 2.567016 1_555
Ca7 O46 2.680047 1_555
Ca7 O16 2.737075 1_555
Ca8 O3 2.364946 1_555
Ca8 O39 2.398110 1_555
Ca8 O42 2.399674 1_555
Ca8 O26 2.463594 1_555
Ca8 O49 2.516299 1_555
Ca8 O23 2.565050 1_555
Ca8 O51 2.680348 1_555
Ca8 O19 2.765502 1_555
Ca9 O41 2.367594 1_555
Ca9 O2 2.372789 1_555
Ca9 O40 2.443737 1_555
Ca9 O29 2.451217 1_555
Ca9 O52 2.527858 1_555
Ca9 O50 2.628507 1_555
Ca9 O20 2.642400 1_555
Ca9 O18 2.701928 1_555
Ca10 O44 2.358761 1_555
Ca10 O4 2.374328 1_555
Ca10 O43 2.430009 1_555
Ca10 O28 2.457318 1_555
Ca10 O53 2.587843 1_555
Ca10 O21 2.634839 1_555
Ca10 O54 2.635402 1_555
Ca10 O24 2.670127 1_555
Ca11 O27 2.381116 1_645
Ca11 O48 2.385562 1_545
Ca11 O1 2.423514 1_655
Ca11 O46 2.457813 1_545
Ca11 O38 2.528057 1_555
Ca11 O37 2.617906 1_555
Ca11 O10 2.633296 1_655
Ca11 O7 2.668825 1_655
Ca12 O25 2.396312 1_645
Ca12 O45 2.408912 1_545
Ca12 O47 2.414454 1_545
Ca12 O0 2.461742 1_655
Ca12 O36 2.521606 1_555
Ca12 O9 2.612353 1_655
Ca12 O35 2.649961 1_555
Ca12 O13 2.724749 1_654
Ca13 O26 2.373089 1_645
Ca13 O49 2.386550 1_545
Ca13 O3 2.427441 1_655
Ca13 O51 2.462960 1_545
Ca13 O42 2.522786 1_555
Ca13 O39 2.618467 1_555
Ca13 O12 2.620246 1_655
Ca13 O6 2.686350 1_655
Ca14 O29 2.364059 1_645
Ca14 O50 2.421291 1_545
Ca14 O52 2.423234 1_545
Ca14 O2 2.435427 1_655
Ca14 O41 2.488959 1_555
Ca14 O11 2.568659 1_655
Ca14 O40 2.635767 1_555
Ca14 O5 2.730768 1_655
Ca15 O28 2.353336 1_645
Ca15 O53 2.387749 1_545
Ca15 O4 2.421253 1_655
Ca15 O54 2.421880 1_545
Ca15 O44 2.577774 1_555
Ca15 O14 2.609140 1_655
Ca15 O43 2.646514 1_555
Ca15 O8 2.699823 1_655
O0 Ti0 1.934571 1_555
O0 Ti11 2.032652 1_455
O1 Ti12 2.000509 1_455
O1 Ti1 2.001681 1_555
O2 Ti13 1.976444 1_555
O2 Ti2 2.024767 1_455
O3 Ti14 1.973061 1_455
O3 Ti3 2.038135 1_555
O4 Ti15 1.975377 1_555
O4 Ti4 2.041803 1_455
O5 Ta1 1.947180 1_555
O5 Ti2 2.039451 1_455
O6 Ta2 1.989645 1_555
O6 Ti3 1.991333 1_555
O7 Ta0 1.987110 1_555
O7 Ti1 1.999520 1_555
O8 Ta3 1.947778 1_555
O8 Ti4 2.043084 1_455
O9 Ti5 1.893433 1_555
O9 Ti11 2.048315 1_455
O10 Ti6 1.850312 1_555
O10 Ti12 2.109519 1_455
O11 Ti8 1.921557 1_555
O11 Ti13 2.028900 1_555
O12 Ti10 1.857197 1_555
O12 Ti14 2.098579 1_455
O13 Ti7 1.974996 1_546
O13 Ti0 2.002111 1_556
O14 Ti15 1.959588 1_555
O14 Ti9 2.023030 1_555
O15 Ti11 1.940383 1_455
O15 Ti5 2.009237 1_565
O16 Ti1 1.913087 1_555
O16 Ta0 2.037433 1_565
O17 Ti12 1.963194 1_455
O17 Ti6 1.981786 1_565
O18 Ti2 1.967197 1_455
O18 Ta1 2.005535 1_565
O19 Ti3 1.927322 1_555
O19 Ta2 2.030250 1_565
O20 Ti13 1.862689 1_555
O20 Ti8 2.080368 1_565
O21 Ti15 1.931592 1_555
O21 Ti9 2.035779 1_565
O22 Ti7 1.976184 1_556
O22 Ti0 1.997050 1_556
O23 Ti14 1.936281 1_455
O23 Ti10 2.003380 1_565
O24 Ti4 1.964402 1_455
O24 Ta3 2.011255 1_565
O25 Ti7 1.943843 1_555
O25 Ti5 1.958252 1_565
O26 Ta2 2.007513 1_565
O26 Ti10 2.008302 1_565
O27 Ti6 1.978673 1_565
O27 Ta0 2.032377 1_565
O28 Ta3 2.002832 1_565
O28 Ti9 2.043166 1_565
O29 Ti8 2.002358 1_565
O29 Ta1 2.013632 1_565
O30 Ta1 1.959900 1_555
O30 Ti6 1.986178 1_555
O31 Ta0 1.953036 1_555
O31 Ti5 2.021533 1_555
O32 Ta2 1.971560 1_555
O32 Ti8 1.979870 1_555
O33 Ti10 1.960871 1_555
O33 Ta3 1.976370 1_555
O34 Ti9 1.915887 1_555
O34 Ti7 2.003103 1_546
O35 Ti0 1.976697 1_655
O35 Ti7 1.995775 1_545
O36 Ti5 1.946219 1_555
O36 Ti11 2.019389 1_555
O37 Ta0 1.963208 1_555
O37 Ti1 2.055396 1_655
O38 Ti6 1.990363 1_555
O38 Ti12 2.001572 1_555
O39 Ta2 1.964875 1_555
O39 Ti3 2.046580 1_655
O40 Ta1 2.000003 1_555
O40 Ti2 2.012986 1_555
O41 Ti8 1.872025 1_555
O41 Ti13 2.100950 1_655
O42 Ti10 1.963329 1_555
O42 Ti14 2.031548 1_555
O43 Ta3 1.998654 1_555
O43 Ti4 2.015539 1_555
O44 Ti9 1.934191 1_555
O44 Ti15 2.048967 1_655
O45 Ti7 1.989069 1_555
O45 Ti0 1.989621 1_655
O46 Ti1 1.991100 1_655
O46 Ta0 2.019424 1_565
O47 Ti11 1.928526 1_555
O47 Ti5 2.065622 1_565
O48 Ti12 1.865012 1_555
O48 Ti6 2.099106 1_565
O49 Ti14 1.877821 1_555
O49 Ti10 2.088907 1_565
O50 Ti2 1.936709 1_555
O50 Ta1 2.052526 1_565
O51 Ti3 2.000749 1_655
O51 Ta2 2.009448 1_565
O52 Ti13 1.960709 1_655
O52 Ti8 2.032210 1_565
O53 Ti9 1.939295 1_565
O53 Ti15 2.040212 1_655
O54 Ti4 1.936035 1_555
O54 Ta3 2.053124 1_565
O55 Ti1 1.940165 1_655
O55 Ti11 1.956758 1_555
O56 Ti2 1.923460 1_555
O56 Ti12 2.001845 1_555
O57 Ti3 1.901910 1_655
O57 Ti13 2.008487 1_655
O58 Ti4 1.909842 1_555
O58 Ti14 2.024221 1_555
O59 Ti15 1.967357 1_655
O59 Ti0 2.013253 1_656
