# generated using pymatgen
data_MgFe7(Ni3O8)2
_symmetry_space_group_name_H-M   'P 1'
_cell_length_a   6.03457945
_cell_length_b   6.04644585
_cell_length_c   10.57622002
_cell_angle_alpha   106.48248650
_cell_angle_beta   72.18024229
_cell_angle_gamma   119.76438160
_symmetry_Int_Tables_number   1
_chemical_formula_structural   MgFe7(Ni3O8)2
_chemical_formula_sum   'Mg1 Fe7 Ni6 O16'
_cell_volume   314.83846308
_cell_formula_units_Z   1
loop_
 _symmetry_equiv_pos_site_id
 _symmetry_equiv_pos_as_xyz
  1  'x, y, z'
loop_
 _atom_site_type_symbol
 _atom_site_label
 _atom_site_symmetry_multiplicity
 _atom_site_fract_x
 _atom_site_fract_y
 _atom_site_fract_z
 _atom_site_occupancy
  Mg  Mg0  1  0.06611072  0.46161644  0.34153583  1
  Fe  Fe0  1  0.32563133  0.71158465  0.08177547  1
  Fe  Fe1  1  0.02355427  0.93492202  0.83513390  1
  Fe  Fe2  1  0.57959836  0.96448458  0.33088773  1
  Fe  Fe3  1  0.20625283  0.15168262  0.07633631  1
  Fe  Fe4  1  0.65728862  0.41789550  0.15853682  1
  Fe  Fe5  1  0.53988703  0.94323367  0.82761144  1
  Fe  Fe6  1  0.02424071  0.43839289  0.83970627  1
  Ni  Ni0  1  0.06732645  0.96609772  0.33890290  1
  Ni  Ni1  1  0.30806205  0.69110537  0.57394772  1
  Ni  Ni2  1  0.79544286  0.69220091  0.57122597  1
  Ni  Ni3  1  0.30808452  0.20733914  0.57504076  1
  Ni  Ni4  1  0.80063240  0.20204216  0.58314476  1
  Ni  Ni5  1  0.53719599  0.43940785  0.82901383  1
  O  O0  1  0.44545922  0.59961605  0.21740605  1
  O  O1  1  0.19158251  0.83350722  0.45866760  1
  O  O2  1  0.68395993  0.85041716  0.46419898  1
  O  O3  1  0.16119198  0.32459173  0.47255846  1
  O  O4  1  0.97748734  0.60744875  0.21417532  1
  O  O5  1  0.44576731  0.08502034  0.21691825  1
  O  O6  1  0.68272833  0.31995163  0.46536981  1
  O  O7  1  0.93938681  0.10011255  0.23481925  1
  O  O8  1  0.17491814  0.82207040  0.93991469  1
  O  O9  1  0.42958894  0.57887884  0.70201271  1
  O  O10  1  0.65350657  0.80481857  0.93202479  1
  O  O11  1  0.16401664  0.30175451  0.93790212  1
  O  O12  1  0.92310864  0.57949996  0.71176114  1
  O  O13  1  0.41176394  0.06372136  0.71136620  1
  O  O14  1  0.91282709  0.05692143  0.70916726  1
  O  O15  1  0.62589848  0.29758097  0.96143770  1
loop_
_geom_bond_atom_site_label_1
_geom_bond_atom_site_label_2
_geom_bond_distance
_geom_bond_site_symmetry_2
Mg0 O7 2.026126 1_455
Mg0 O4 2.112110 1_455
Mg0 O1 2.113578 1_555
Mg0 O0 2.132112 1_555
Mg0 O3 2.132132 1_555
Mg0 O6 2.148488 1_455
Fe0 O4 2.038973 1_455
Fe0 O10 2.054812 1_554
Fe0 O0 2.170461 1_555
Fe0 O5 2.201015 1_565
Fe0 O8 2.351953 1_554
Fe0 O11 2.403382 1_554
Fe1 O10 1.992058 1_455
Fe1 O11 2.036841 1_565
Fe1 O8 2.048281 1_555
Fe1 O12 2.070723 1_455
Fe1 O14 2.087440 1_465
Fe1 O13 2.167553 1_565
Fe2 O7 1.942591 1_565
Fe2 O0 2.069277 1_555
Fe2 O5 2.077263 1_565
Fe2 O2 2.094454 1_555
Fe2 O6 2.123404 1_565
Fe2 O1 2.183036 1_555
Fe3 O7 1.909468 1_455
Fe3 O11 2.060062 1_554
Fe3 O8 2.061696 1_544
Fe3 O15 2.274787 1_554
Fe3 O5 2.587663 1_555
Fe3 O0 2.605503 1_555
Fe4 O4 1.872941 1_555
Fe4 O5 1.932250 1_555
Fe4 O0 1.936028 1_555
Fe4 O15 2.038346 1_554
Fe5 O10 1.986860 1_555
Fe5 O8 2.022088 1_555
Fe5 O13 2.071070 1_565
Fe5 O14 2.081780 1_565
Fe5 O9 2.117937 1_555
Fe5 O15 2.118466 1_565
Fe6 O11 2.046348 1_555
Fe6 O8 2.105270 1_555
Fe6 O12 2.146868 1_455
Fe6 O15 2.203773 1_455
Fe6 O14 2.213524 1_455
Fe6 O9 2.298788 1_555
Ni0 O7 2.027797 1_465
Ni0 O4 2.093768 1_455
Ni0 O5 2.118872 1_565
Ni0 O3 2.133049 1_565
Ni0 O1 2.136303 1_555
Ni0 O2 2.154147 1_455
Ni1 O3 2.032145 1_555
Ni1 O2 2.067417 1_555
Ni1 O1 2.107861 1_555
Ni1 O9 2.111011 1_555
Ni1 O13 2.208768 1_565
Ni1 O12 2.214866 1_455
Ni2 O6 2.073221 1_555
Ni2 O2 2.090121 1_555
Ni2 O9 2.103289 1_555
Ni2 O1 2.160857 1_655
Ni2 O14 2.179278 1_565
Ni2 O12 2.250310 1_555
Ni3 O3 2.027617 1_555
Ni3 O6 2.057924 1_555
Ni3 O1 2.119311 1_545
Ni3 O9 2.154772 1_555
Ni3 O13 2.241953 1_555
Ni3 O14 2.244113 1_455
Ni4 O3 1.996165 1_655
Ni4 O6 2.028803 1_555
Ni4 O2 2.033880 1_545
Ni4 O12 2.187305 1_555
Ni4 O13 2.189182 1_555
Ni4 O14 2.193309 1_555
Ni5 O10 2.030664 1_555
Ni5 O11 2.045975 1_555
Ni5 O13 2.132276 1_555
Ni5 O12 2.132758 1_555
Ni5 O15 2.139991 1_555
Ni5 O9 2.158077 1_555
