# generated using pymatgen
data_Fe4Si
_symmetry_space_group_name_H-M   'P 1'
_cell_length_a   19.36210879
_cell_length_b   19.17579763
_cell_length_c   5.07046116
_cell_angle_alpha   84.53216192
_cell_angle_beta   80.35719269
_cell_angle_gamma   15.11064539
_symmetry_Int_Tables_number   1
_chemical_formula_structural   Fe4Si
_chemical_formula_sum   'Fe32 Si8'
_cell_volume   467.38396692
_cell_formula_units_Z   8
loop_
 _symmetry_equiv_pos_site_id
 _symmetry_equiv_pos_as_xyz
  1  'x, y, z'
loop_
 _atom_site_type_symbol
 _atom_site_label
 _atom_site_symmetry_multiplicity
 _atom_site_fract_x
 _atom_site_fract_y
 _atom_site_fract_z
 _atom_site_occupancy
  Fe  Fe0_0  1  0.20296550  0.20296550  0.29703450  1
  Fe  Fe0_1  1  0.20296550  0.20296550  0.79703450  1
  Fe  Fe0_2  1  0.20296550  0.70296550  0.29703450  1
  Fe  Fe0_3  1  0.20296550  0.70296550  0.79703450  1
  Fe  Fe0_4  1  0.70296550  0.20296550  0.29703450  1
  Fe  Fe0_5  1  0.70296550  0.20296550  0.79703450  1
  Fe  Fe0_6  1  0.70296550  0.70296550  0.29703450  1
  Fe  Fe0_7  1  0.70296550  0.70296550  0.79703450  1
  Fe  Fe1_0  1  0.40101450  0.40101450  0.09898550  1
  Fe  Fe1_1  1  0.40101450  0.40101450  0.59898550  1
  Fe  Fe1_2  1  0.40101450  0.90101450  0.09898550  1
  Fe  Fe1_3  1  0.40101450  0.90101450  0.59898550  1
  Fe  Fe1_4  1  0.90101450  0.40101450  0.09898550  1
  Fe  Fe1_5  1  0.90101450  0.40101450  0.59898550  1
  Fe  Fe1_6  1  0.90101450  0.90101450  0.09898550  1
  Fe  Fe1_7  1  0.90101450  0.90101450  0.59898550  1
  Fe  Fe2_0  1  0.09898550  0.09898550  0.40101450  1
  Fe  Fe2_1  1  0.09898550  0.09898550  0.90101450  1
  Fe  Fe2_2  1  0.09898550  0.59898550  0.40101450  1
  Fe  Fe2_3  1  0.09898550  0.59898550  0.90101450  1
  Fe  Fe2_4  1  0.59898550  0.09898550  0.40101450  1
  Fe  Fe2_5  1  0.59898550  0.09898550  0.90101450  1
  Fe  Fe2_6  1  0.59898550  0.59898550  0.40101450  1
  Fe  Fe2_7  1  0.59898550  0.59898550  0.90101450  1
  Fe  Fe3_0  1  0.29703450  0.29703450  0.20296550  1
  Fe  Fe3_1  1  0.29703450  0.29703450  0.70296550  1
  Fe  Fe3_2  1  0.29703450  0.79703450  0.20296550  1
  Fe  Fe3_3  1  0.29703450  0.79703450  0.70296550  1
  Fe  Fe3_4  1  0.79703450  0.29703450  0.20296550  1
  Fe  Fe3_5  1  0.79703450  0.29703450  0.70296550  1
  Fe  Fe3_6  1  0.79703450  0.79703450  0.20296550  1
  Fe  Fe3_7  1  0.79703450  0.79703450  0.70296550  1
  Si  Si0_0  1  0.00000000  0.00000000  0.00000000  1
  Si  Si0_1  1  0.00000000  0.00000000  0.50000000  1
  Si  Si0_2  1  0.00000000  0.50000000  0.00000000  1
  Si  Si0_3  1  0.00000000  0.50000000  0.50000000  1
  Si  Si0_4  1  0.50000000  0.00000000  0.00000000  1
  Si  Si0_5  1  0.50000000  0.00000000  0.50000000  1
  Si  Si0_6  1  0.50000000  0.50000000  0.00000000  1
  Si  Si0_7  1  0.50000000  0.50000000  0.50000000  1
loop_
_geom_bond_atom_site_label_1
_geom_bond_atom_site_label_2
_geom_bond_distance
_geom_bond_site_symmetry_2
Fe0_0 Si0_4 2.342664 1_555
Fe0_0 Si0_3 2.342664 1_555
Fe0_0 Fe1_5 2.487136 1_455
Fe0_0 Fe1_2 2.487136 1_545
Fe0_0 Si0_5 2.698719 1_555
Fe0_0 Si0_2 2.698719 1_555
Fe0_1 Si0_2 2.342664 1_556
Fe0_1 Si0_5 2.342664 1_555
Fe0_1 Fe1_3 2.487136 1_545
Fe0_1 Fe1_4 2.487136 1_456
Fe0_1 Si0_3 2.698719 1_555
Fe0_1 Si0_4 2.698719 1_556
Fe0_2 Si0_6 2.342664 1_555
Fe0_2 Si0_1 2.342664 1_565
Fe0_2 Fe1_7 2.487136 1_455
Fe0_2 Fe1_0 2.487136 1_555
Fe0_2 Si0_0 2.698719 1_565
Fe0_2 Si0_7 2.698719 1_555
Fe0_3 Si0_7 2.342664 1_555
Fe0_3 Si0_0 2.342664 1_566
Fe0_3 Fe1_6 2.487136 1_456
Fe0_3 Fe1_1 2.487136 1_555
Fe0_3 Si0_6 2.698719 1_556
Fe0_3 Si0_1 2.698719 1_565
Fe0_4 Si0_7 2.342664 1_555
Fe0_4 Si0_0 2.342664 1_655
Fe0_4 Fe1_6 2.487136 1_545
Fe0_4 Fe1_1 2.487136 1_555
Fe0_4 Si0_6 2.698719 1_555
Fe0_4 Si0_1 2.698719 1_655
Fe0_5 Si0_6 2.342664 1_556
Fe0_5 Si0_1 2.342664 1_655
Fe0_5 Fe1_7 2.487136 1_545
Fe0_5 Fe1_0 2.487136 1_556
Fe0_5 Si0_0 2.698719 1_656
Fe0_5 Si0_7 2.698719 1_555
Fe0_6 Si0_2 2.342664 1_655
Fe0_6 Si0_5 2.342664 1_565
Fe0_6 Fe1_3 2.487136 1_555
Fe0_6 Fe1_4 2.487136 1_555
Fe0_6 Si0_3 2.698719 1_655
Fe0_6 Si0_4 2.698719 1_565
Fe0_7 Si0_3 2.342664 1_655
Fe0_7 Si0_4 2.342664 1_566
Fe0_7 Fe1_5 2.487136 1_555
Fe0_7 Fe1_2 2.487136 1_556
Fe0_7 Si0_2 2.698719 1_656
Fe0_7 Si0_5 2.698719 1_565
Fe1_0 Fe2_2 2.489473 1_555
Fe1_0 Fe2_5 2.489473 1_554
Fe1_0 Fe1_1 2.535231 1_555
Fe1_0 Fe1_1 2.535231 1_554
Fe1_0 Fe1_6 2.535231 1_455
Fe1_0 Fe1_6 2.535231 1_545
Fe1_1 Fe2_4 2.489473 1_555
Fe1_1 Fe2_3 2.489473 1_555
Fe1_1 Fe1_7 2.535231 1_455
Fe1_1 Fe1_7 2.535231 1_545
Fe1_2 Fe2_7 2.489473 1_554
Fe1_2 Fe2_0 2.489473 1_565
Fe1_2 Fe1_3 2.535231 1_554
Fe1_2 Fe1_4 2.535231 1_465
Fe1_2 Fe1_4 2.535231 1_555
Fe1_2 Fe1_3 2.535231 1_555
Fe1_3 Fe2_1 2.489473 1_565
Fe1_3 Fe2_6 2.489473 1_555
Fe1_3 Fe1_5 2.535231 1_555
Fe1_3 Fe1_5 2.535231 1_465
Fe1_4 Fe2_1 2.489473 1_654
Fe1_4 Fe2_6 2.489473 1_555
Fe1_4 Fe1_5 2.535231 1_554
Fe1_4 Fe1_5 2.535231 1_555
Fe1_5 Fe2_7 2.489473 1_555
Fe1_5 Fe2_0 2.489473 1_655
Fe1_6 Fe2_3 2.489473 1_654
Fe1_6 Fe2_4 2.489473 1_565
Fe1_6 Fe1_7 2.535231 1_554
Fe1_6 Fe1_7 2.535231 1_555
Fe1_7 Fe2_5 2.489473 1_565
Fe1_7 Fe2_2 2.489473 1_655
Fe2_0 Fe3_5 2.487136 1_455
Fe2_0 Fe3_2 2.487136 1_545
Fe2_0 Fe2_6 2.535231 1_455
Fe2_0 Fe2_1 2.535231 1_554
Fe2_0 Fe2_1 2.535231 1_555
Fe2_0 Fe2_6 2.535231 1_545
Fe2_1 Fe3_4 2.487136 1_456
Fe2_1 Fe3_3 2.487136 1_545
Fe2_1 Fe2_7 2.535231 1_455
Fe2_1 Fe2_7 2.535231 1_545
Fe2_2 Fe3_0 2.487136 1_555
Fe2_2 Fe3_7 2.487136 1_455
Fe2_2 Fe2_4 2.535231 1_555
Fe2_2 Fe2_3 2.535231 1_554
Fe2_2 Fe2_4 2.535231 1_465
Fe2_2 Fe2_3 2.535231 1_555
Fe2_3 Fe3_6 2.487136 1_456
Fe2_3 Fe3_1 2.487136 1_555
Fe2_3 Fe2_5 2.535231 1_555
Fe2_3 Fe2_5 2.535231 1_465
Fe2_4 Fe3_1 2.487136 1_555
Fe2_4 Fe3_6 2.487136 1_545
Fe2_4 Fe2_5 2.535231 1_554
Fe2_4 Fe2_5 2.535231 1_555
Fe2_5 Fe3_0 2.487136 1_556
Fe2_5 Fe3_7 2.487136 1_545
Fe2_6 Fe3_3 2.487136 1_555
Fe2_6 Fe3_4 2.487136 1_555
Fe2_6 Fe2_7 2.535231 1_554
Fe2_6 Fe2_7 2.535231 1_555
Fe2_7 Fe3_5 2.487136 1_555
Fe2_7 Fe3_2 2.487136 1_556
Fe3_0 Si0_3 2.342664 1_555
Fe3_0 Si0_4 2.342664 1_555
Fe3_0 Si0_5 2.698719 1_555
Fe3_0 Si0_2 2.698719 1_555
Fe3_1 Si0_5 2.342664 1_555
Fe3_1 Si0_2 2.342664 1_556
Fe3_1 Si0_4 2.698719 1_556
Fe3_1 Si0_3 2.698719 1_555
Fe3_2 Si0_1 2.342664 1_565
Fe3_2 Si0_6 2.342664 1_555
Fe3_2 Si0_0 2.698719 1_565
Fe3_2 Si0_7 2.698719 1_555
Fe3_3 Si0_7 2.342664 1_555
Fe3_3 Si0_0 2.342664 1_566
Fe3_3 Si0_1 2.698719 1_565
Fe3_3 Si0_6 2.698719 1_556
Fe3_4 Si0_0 2.342664 1_655
Fe3_4 Si0_7 2.342664 1_555
Fe3_4 Si0_1 2.698719 1_655
Fe3_4 Si0_6 2.698719 1_555
Fe3_5 Si0_1 2.342664 1_655
Fe3_5 Si0_6 2.342664 1_556
Fe3_5 Si0_0 2.698719 1_656
Fe3_5 Si0_7 2.698719 1_555
Fe3_6 Si0_2 2.342664 1_655
Fe3_6 Si0_5 2.342664 1_565
Fe3_6 Si0_4 2.698719 1_565
Fe3_6 Si0_3 2.698719 1_655
Fe3_7 Si0_3 2.342664 1_655
Fe3_7 Si0_4 2.342664 1_566
Fe3_7 Si0_5 2.698719 1_565
Fe3_7 Si0_2 2.698719 1_656
Si0_0 Si0_1 2.535231 1_554
Si0_0 Si0_6 2.535231 1_455
Si0_0 Si0_1 2.535231 1_555
Si0_0 Si0_6 2.535231 1_545
Si0_1 Si0_7 2.535231 1_455
Si0_1 Si0_7 2.535231 1_545
Si0_2 Si0_4 2.535231 1_555
Si0_2 Si0_4 2.535231 1_465
Si0_2 Si0_3 2.535231 1_554
Si0_2 Si0_3 2.535231 1_555
Si0_3 Si0_5 2.535231 1_555
Si0_3 Si0_5 2.535231 1_465
Si0_4 Si0_5 2.535231 1_554
Si0_4 Si0_5 2.535231 1_555
Si0_6 Si0_7 2.535231 1_554
Si0_6 Si0_7 2.535231 1_555
