# generated using pymatgen
data_Tb2B4C
_symmetry_space_group_name_H-M   'P 1'
_cell_length_a   3.28295061
_cell_length_b   5.29377762
_cell_length_c   5.29377762
_cell_angle_alpha   76.93234789
_cell_angle_beta   71.93616749
_cell_angle_gamma   71.93616749
_symmetry_Int_Tables_number   1
_chemical_formula_structural   Tb2B4C
_chemical_formula_sum   'Tb2 B4 C1'
_cell_volume   82.29196628
_cell_formula_units_Z   1
loop_
 _symmetry_equiv_pos_site_id
 _symmetry_equiv_pos_as_xyz
  1  'x, y, z'
loop_
 _atom_site_type_symbol
 _atom_site_label
 _atom_site_symmetry_multiplicity
 _atom_site_fract_x
 _atom_site_fract_y
 _atom_site_fract_z
 _atom_site_occupancy
  Tb  Tb0  1  0.26631949  0.23368051  0.23368051  1
  Tb  Tb1  1  0.73368051  0.76631949  0.76631949  1
  B  B0  1  0.50000000  0.36584634  0.63415366  1
  B  B1  1  0.50000000  0.63415366  0.36584634  1
  B  B2  1  -0.00000000  0.77363815  0.22636185  1
  B  B3  1  0.00000000  0.22636185  0.77363815  1
  C  C0  1  -0.00000000  0.00000000  -0.00000000  1
loop_
_geom_bond_atom_site_label_1
_geom_bond_atom_site_label_2
_geom_bond_distance
_geom_bond_site_symmetry_2
B0 B1 1.767076 1_555
B0 B3 1.881051 1_655
B0 B3 1.881051 1_555
B0 Tb0 2.754042 1_655
B0 Tb1 2.754042 1_455
B0 Tb0 2.754042 1_555
B0 Tb1 2.754042 1_555
B0 Tb1 2.994931 1_545
B0 Tb0 2.994931 1_556
B1 B2 1.881051 1_655
B1 B2 1.881051 1_555
B1 Tb0 2.754042 1_655
B1 Tb1 2.754042 1_455
B1 Tb0 2.754042 1_555
B1 Tb1 2.754042 1_555
B1 Tb1 2.994931 1_554
B1 Tb0 2.994931 1_565
B2 C0 1.490823 1_565
B3 C0 1.490823 1_556
C0 Tb1 2.420436 1_544
C0 Tb0 2.420436 1_455
C0 Tb0 2.420436 1_555
C0 Tb1 2.420436 1_444
