# generated using pymatgen
data_CaTiMn(PO4)3
_symmetry_space_group_name_H-M   'P 1'
_cell_length_a   8.87469380
_cell_length_b   8.87469435
_cell_length_c   8.87469428
_cell_angle_alpha   58.43259854
_cell_angle_beta   58.43260038
_cell_angle_gamma   58.43260790
_symmetry_Int_Tables_number   1
_chemical_formula_structural   CaTiMn(PO4)3
_chemical_formula_sum   'Ca2 Ti2 Mn2 P6 O24'
_cell_volume   476.52006067
_cell_formula_units_Z   2
loop_
 _symmetry_equiv_pos_site_id
 _symmetry_equiv_pos_as_xyz
  1  'x, y, z'
loop_
 _atom_site_type_symbol
 _atom_site_label
 _atom_site_symmetry_multiplicity
 _atom_site_fract_x
 _atom_site_fract_y
 _atom_site_fract_z
 _atom_site_occupancy
  Ca  Ca0  1  0.99791200  0.99791200  0.99791200  1
  Ca  Ca1  1  0.49791200  0.49791200  0.49791200  1
  Ti  Ti0  1  0.14644800  0.14644800  0.14644800  1
  Ti  Ti1  1  0.64644800  0.64644800  0.64644800  1
  Mn  Mn0  1  0.35357400  0.35357400  0.35357400  1
  Mn  Mn1  1  0.85357400  0.85357400  0.85357400  1
  P  P0  1  0.03972100  0.46058700  0.75113400  1
  P  P1  1  0.46058700  0.75113400  0.03972100  1
  P  P2  1  0.75113400  0.03972100  0.46058700  1
  P  P3  1  0.25113400  0.96058700  0.53972100  1
  P  P4  1  0.53972100  0.25113400  0.96058700  1
  P  P5  1  0.96058700  0.53972100  0.25113400  1
  O  O0  1  0.12055900  0.51287300  0.29295800  1
  O  O1  1  0.29295800  0.12055900  0.51287300  1
  O  O2  1  0.05577400  0.27223700  0.92213100  1
  O  O3  1  0.51287300  0.29295800  0.12055900  1
  O  O4  1  0.01287300  0.62055900  0.79295800  1
  O  O5  1  0.22647900  0.43748200  0.58360800  1
  O  O6  1  0.27223700  0.92213100  0.05577400  1
  O  O7  1  0.43748200  0.58360800  0.22647900  1
  O  O8  1  0.20609300  0.99858100  0.37184400  1
  O  O9  1  0.58360800  0.22647900  0.43748200  1
  O  O10  1  0.08360800  0.93748200  0.72647900  1
  O  O11  1  0.37184400  0.20609300  0.99858100  1
  O  O12  1  0.62055900  0.79295800  0.01287300  1
  O  O13  1  0.92213100  0.05577400  0.27223700  1
  O  O14  1  0.42213100  0.77223700  0.55577400  1
  O  O15  1  0.79295800  0.01287300  0.62055900  1
  O  O16  1  0.55577400  0.42213100  0.77223700  1
  O  O17  1  0.72647900  0.08360800  0.93748200  1
  O  O18  1  0.77223700  0.55577400  0.42213100  1
  O  O19  1  0.99858100  0.37184400  0.20609300  1
  O  O20  1  0.49858100  0.70609300  0.87184400  1
  O  O21  1  0.93748200  0.72647900  0.08360800  1
  O  O22  1  0.70609300  0.87184400  0.49858100  1
  O  O23  1  0.87184400  0.49858100  0.70609300  1
loop_
_geom_bond_atom_site_label_1
_geom_bond_atom_site_label_2
_geom_bond_distance
_geom_bond_site_symmetry_2
Ca0 O21 2.382472 1_556
Ca0 O17 2.382472 1_565
Ca0 O10 2.382472 1_655
Ca0 O2 2.424065 1_665
Ca0 O6 2.424065 1_656
Ca0 O13 2.424065 1_566
Ca1 O5 2.382472 1_555
Ca1 O7 2.382472 1_555
Ca1 O9 2.382473 1_555
Ca1 O18 2.424065 1_555
Ca1 O16 2.424065 1_555
Ca1 O14 2.424065 1_555
Mn0 O1 1.967724 1_555
Mn0 O3 1.967724 1_555
Mn0 O0 1.967724 1_555
Mn0 O7 2.072623 1_555
Mn0 O9 2.072624 1_555
Mn0 O5 2.072624 1_555
Mn1 O12 1.967724 1_556
Mn1 O15 1.967724 1_565
Mn1 O4 1.967725 1_655
Mn1 O10 2.072623 1_655
Mn1 O21 2.072624 1_556
Mn1 O17 2.072624 1_565
O0 P5 1.521532 1_455
O1 P3 1.521532 1_545
O2 P0 1.561559 1_555
O2 Ti0 2.065608 1_556
O3 P4 1.521532 1_554
O4 P0 1.521532 1_555
O5 P0 1.543654 1_555
O6 P1 1.561559 1_555
O6 Ti0 2.065608 1_565
O7 P1 1.543654 1_555
O8 P3 1.565116 1_555
O8 Ti0 1.906964 1_565
O9 P2 1.543655 1_555
O10 P3 1.543654 1_555
O11 P4 1.565115 1_555
O11 Ti0 1.906964 1_556
O12 P1 1.521532 1_555
O13 P2 1.561559 1_555
O13 Ti0 2.065607 1_655
O14 P3 1.561559 1_555
O14 Ti1 2.065608 1_555
O15 P2 1.521532 1_555
O16 P4 1.561559 1_555
O16 Ti1 2.065608 1_555
O17 P4 1.543655 1_555
O18 P5 1.561559 1_555
O18 Ti1 2.065608 1_555
O19 P5 1.565116 1_555
O19 Ti0 1.906964 1_655
O20 P1 1.565116 1_556
O20 Ti1 1.906964 1_555
O21 P5 1.543654 1_555
O22 P2 1.565115 1_565
O22 Ti1 1.906964 1_555
O23 P0 1.565116 1_655
O23 Ti1 1.906964 1_555
