# generated using pymatgen
data_ZnH7C3NO7
_symmetry_space_group_name_H-M   'P 1'
_cell_length_a   7.77668300
_cell_length_b   7.77797400
_cell_length_c   13.46625200
_cell_angle_alpha   90.00000000
_cell_angle_beta   90.00000000
_cell_angle_gamma   90.00000000
_symmetry_Int_Tables_number   1
_chemical_formula_structural   ZnH7C3NO7
_chemical_formula_sum   'Zn4 H28 C12 N4 O28'
_cell_volume   814.53100562
_cell_formula_units_Z   4
loop_
 _symmetry_equiv_pos_site_id
 _symmetry_equiv_pos_as_xyz
  1  'x, y, z'
loop_
 _atom_site_type_symbol
 _atom_site_label
 _atom_site_symmetry_multiplicity
 _atom_site_fract_x
 _atom_site_fract_y
 _atom_site_fract_z
 _atom_site_occupancy
  Zn  Zn0  1  0.45056500  0.99521400  0.41799200  1
  Zn  Zn1  1  0.04943500  0.00478600  0.91799200  1
  Zn  Zn2  1  0.95056500  0.50478600  0.58200800  1
  Zn  Zn3  1  0.54943500  0.49521400  0.08200800  1
  H  H0  1  0.45134800  0.67249000  0.27642300  1
  H  H1  1  0.04865200  0.32751000  0.77642300  1
  H  H2  1  0.95134800  0.82751000  0.72357700  1
  H  H3  1  0.54865200  0.17249000  0.22357700  1
  H  H4  1  0.63447300  0.27831000  0.54296400  1
  H  H5  1  0.86552700  0.72169000  0.04296400  1
  H  H6  1  0.13447300  0.22169000  0.45703600  1
  H  H7  1  0.36552700  0.77831000  0.95703600  1
  H  H8  1  0.76769000  0.77440800  0.46889500  1
  H  H9  1  0.73231000  0.22559200  0.96889500  1
  H  H10  1  0.26769000  0.72559200  0.53110500  1
  H  H11  1  0.23231000  0.27440800  0.03110500  1
  H  H12  1  0.79928400  0.97437200  0.29028400  1
  H  H13  1  0.70071600  0.02562800  0.79028400  1
  H  H14  1  0.29928400  0.52562800  0.70971600  1
  H  H15  1  0.20071600  0.47437200  0.20971600  1
  H  H16  1  0.90844100  0.77000400  0.22467600  1
  H  H17  1  0.59155900  0.22999600  0.72467600  1
  H  H18  1  0.40844100  0.72999600  0.77532400  1
  H  H19  1  0.09155900  0.27000400  0.27532400  1
  H  H20  1  0.09226800  0.82773600  0.28867200  1
  H  H21  1  0.40773200  0.17226400  0.78867200  1
  H  H22  1  0.59226800  0.67226400  0.71132800  1
  H  H23  1  0.90773200  0.32773600  0.21132800  1
  H  H24  1  0.05961400  0.88881700  0.16612000  1
  H  H25  1  0.44038600  0.11118300  0.66612000  1
  H  H26  1  0.55961400  0.61118300  0.83388000  1
  H  H27  1  0.94038600  0.38881700  0.33388000  1
  C  C0  1  0.57788700  0.73048000  0.26142300  1
  C  C1  1  0.92211300  0.26952000  0.76142300  1
  C  C2  1  0.07788700  0.76952000  0.73857700  1
  C  C3  1  0.42211300  0.23048000  0.23857700  1
  C  C4  1  0.70783900  0.26943200  0.47289800  1
  C  C5  1  0.79216100  0.73056800  0.97289800  1
  C  C6  1  0.20783900  0.23056800  0.52710200  1
  C  C7  1  0.29216100  0.76943200  0.02710200  1
  C  C8  1  0.68614100  0.76591800  0.53584100  1
  C  C9  1  0.81385900  0.23408200  0.03584100  1
  C  C10  1  0.18614100  0.73408200  0.46415900  1
  C  C11  1  0.31385900  0.26591800  0.96415900  1
  N  N0  1  0.00074300  0.86543800  0.23496700  1
  N  N1  1  0.49925700  0.13456200  0.73496700  1
  N  N2  1  0.50074300  0.63456200  0.76503300  1
  N  N3  1  0.99925700  0.36543800  0.26503300  1
  O  O0  1  0.61688400  0.86560800  0.31083200  1
  O  O1  1  0.88311600  0.13439200  0.81083200  1
  O  O2  1  0.11688400  0.63439200  0.68916800  1
  O  O3  1  0.38311600  0.36560800  0.18916800  1
  O  O4  1  0.67582700  0.66072200  0.19781300  1
  O  O5  1  0.82417300  0.33927800  0.69781300  1
  O  O6  1  0.17582700  0.83927800  0.80218700  1
  O  O7  1  0.32417300  0.16072200  0.30218700  1
  O  O8  1  0.65728100  0.16585200  0.40704000  1
  O  O9  1  0.84271900  0.83414800  0.90704000  1
  O  O10  1  0.15728100  0.33414800  0.59296000  1
  O  O11  1  0.34271900  0.66585200  0.09296000  1
  O  O12  1  0.83880200  0.36673500  0.46307600  1
  O  O13  1  0.66119800  0.63326500  0.96307600  1
  O  O14  1  0.33880200  0.13326500  0.53692400  1
  O  O15  1  0.16119800  0.86673500  0.03692400  1
  O  O16  1  0.54763100  0.84948500  0.53901100  1
  O  O17  1  0.95236900  0.15051500  0.03901100  1
  O  O18  1  0.04763100  0.65051500  0.46098900  1
  O  O19  1  0.45236900  0.34948500  0.96098900  1
  O  O20  1  0.73989200  0.66973200  0.60680500  1
  O  O21  1  0.76010800  0.33026800  0.10680500  1
  O  O22  1  0.23989200  0.83026800  0.39319500  1
  O  O23  1  0.26010800  0.16973200  0.89319500  1
  O  O24  1  0.91761500  0.01630000  0.26995400  1
  O  O25  1  0.58238500  0.98370000  0.76995400  1
  O  O26  1  0.41761500  0.48370000  0.73004600  1
  O  O27  1  0.08238500  0.51630000  0.23004600  1
loop_
_geom_bond_atom_site_label_1
_geom_bond_atom_site_label_2
_geom_bond_distance
_geom_bond_site_symmetry_2
H12 O24 1.013958 1_565
H12 O0 1.674595 1_555
H13 O25 1.013958 1_545
H13 O1 1.674595 1_555
H14 O26 1.013958 1_555
H14 O2 1.674595 1_555
H15 O27 1.013958 1_555
H15 O3 1.674595 1_555
H16 N0 1.041840 1_655
H17 N1 1.041840 1_555
H18 N2 1.041840 1_555
H19 N3 1.041840 1_455
H20 N0 1.056230 1_555
H21 N1 1.056230 1_555
H22 N2 1.056230 1_555
H23 N3 1.056230 1_555
H24 N0 1.049858 1_555
H25 N1 1.049858 1_555
H26 N2 1.049858 1_555
H27 N3 1.049858 1_555
C0 H0 1.101183 1_555
C0 O4 1.268164 1_555
C0 O0 1.280357 1_555
C1 H1 1.101183 1_655
C1 O5 1.268164 1_555
C1 O1 1.280357 1_555
C2 H2 1.101183 1_455
C2 O6 1.268164 1_555
C2 O2 1.280357 1_555
C3 H3 1.101183 1_555
C3 O7 1.268164 1_555
C3 O3 1.280357 1_555
C4 H4 1.104776 1_555
C4 O8 1.261018 1_555
C4 O12 1.275746 1_555
C5 H5 1.104776 1_556
C5 O9 1.261018 1_555
C5 O13 1.275746 1_555
C6 H6 1.104776 1_555
C6 O10 1.261018 1_555
C6 O14 1.275746 1_555
C7 H7 1.104776 1_554
C7 O11 1.261018 1_555
C7 O15 1.275746 1_555
C8 H8 1.104205 1_555
C8 O16 1.258788 1_555
C8 O20 1.283603 1_555
C9 H9 1.104205 1_554
C9 O17 1.258788 1_555
C9 O21 1.283603 1_555
C10 H10 1.104205 1_555
C10 O18 1.258788 1_555
C10 O22 1.283603 1_555
C11 H11 1.104205 1_556
C11 O19 1.258788 1_555
C11 O23 1.283603 1_555
N0 O24 1.420125 1_465
N1 O25 1.420125 1_545
N2 O26 1.420125 1_555
N3 O27 1.420125 1_655
O0 Zn0 2.184375 1_555
O1 Zn1 2.184375 1_655
O2 Zn2 2.184375 1_455
O3 Zn3 2.184375 1_555
O4 Zn3 2.248380 1_555
O5 Zn2 2.248380 1_555
O6 Zn1 2.248380 1_565
O7 Zn0 2.248380 1_545
O8 Zn0 2.089862 1_545
O9 Zn1 2.089862 1_665
O10 Zn2 2.089862 1_455
O11 Zn3 2.089862 1_555
O12 Zn2 2.115039 1_555
O13 Zn3 2.115039 1_556
O14 Zn0 2.115039 1_545
O15 Zn1 2.115039 1_564
O16 Zn0 2.123771 1_555
O17 Zn1 2.123771 1_654
O18 Zn2 2.123771 1_455
O19 Zn3 2.123771 1_556
O20 Zn2 2.107511 1_555
O21 Zn3 2.107511 1_555
O22 Zn0 2.107511 1_555
O23 Zn1 2.107511 1_555
