# generated using pymatgen
data_Li2CrNiO4
_symmetry_space_group_name_H-M   'P 1'
_cell_length_a   4.05029822
_cell_length_b   7.71588632
_cell_length_c   5.13509744
_cell_angle_alpha   92.53962204
_cell_angle_beta   113.22595573
_cell_angle_gamma   105.21790017
_symmetry_Int_Tables_number   1
_chemical_formula_structural   Li2CrNiO4
_chemical_formula_sum   'Li4 Cr2 Ni2 O8'
_cell_volume   140.31177992
_cell_formula_units_Z   2
loop_
 _symmetry_equiv_pos_site_id
 _symmetry_equiv_pos_as_xyz
  1  'x, y, z'
loop_
 _atom_site_type_symbol
 _atom_site_label
 _atom_site_symmetry_multiplicity
 _atom_site_fract_x
 _atom_site_fract_y
 _atom_site_fract_z
 _atom_site_occupancy
  Li  Li0  1  0.62592200  0.87444500  0.37743700  1
  Li  Li1  1  0.12550600  0.37527700  0.87580000  1
  Li  Li2  1  0.25327500  0.74892200  0.75761500  1
  Li  Li3  1  0.74511900  0.25201700  0.23822200  1
  Cr  Cr0  1  0.87318800  0.62666600  0.11967700  1
  Cr  Cr1  1  0.37759200  0.12582400  0.62944100  1
  Ni  Ni0  1  0.00250300  0.99850300  0.00648800  1
  Ni  Ni1  1  0.49610300  0.50029000  0.49190800  1
  O  O0  1  0.24568000  0.22694100  0.26434700  1
  O  O1  1  0.77124600  0.75743800  0.78504300  1
  O  O2  1  0.49316800  0.00668300  0.97963500  1
  O  O3  1  0.98955600  0.50827100  0.47081900  1
  O  O4  1  0.11470000  0.88585000  0.34353400  1
  O  O5  1  0.61484300  0.38301100  0.84669700  1
  O  O6  1  0.38195900  0.61827700  0.14560600  1
  O  O7  1  0.88964200  0.11158500  0.66773100  1
loop_
_geom_bond_atom_site_label_1
_geom_bond_atom_site_label_2
_geom_bond_distance
_geom_bond_site_symmetry_2
Li0 O4 2.034242 1_555
Li0 O6 2.034395 1_555
Li0 O4 2.034450 1_655
Li0 O7 2.046324 1_565
Li0 O1 2.239936 1_555
Li0 O2 2.260410 1_564
Li1 O5 2.031183 1_455
Li1 O6 2.031321 1_556
Li1 O5 2.031349 1_555
Li1 O7 2.043473 1_455
Li1 O0 2.292749 1_556
Li1 O3 2.294256 1_455
Li2 O2 2.027384 1_565
Li2 O1 2.029594 1_555
Li2 O1 2.029601 1_455
Li2 O3 2.057523 1_455
Li2 O6 2.211815 1_556
Li2 O4 2.349832 1_555
Li3 O2 2.020471 1_554
Li3 O3 2.036318 1_555
Li3 O0 2.039198 1_555
Li3 O0 2.039506 1_655
Li3 O5 2.228350 1_554
Li3 O7 2.430593 1_555
Cr0 O1 1.988518 1_554
Cr0 O3 2.002430 1_555
Cr0 O6 2.030423 1_555
Cr0 O6 2.030439 1_655
Cr0 O4 2.039614 1_655
Cr0 O5 2.042344 1_554
Cr1 O0 1.991850 1_555
Cr1 O2 2.001621 1_555
Cr1 O5 2.015725 1_555
Cr1 O7 2.037419 1_455
Cr1 O7 2.037628 1_555
Cr1 O4 2.051536 1_545
Ni0 O4 1.917797 1_555
Ni0 O0 1.919200 1_565
Ni0 O1 1.920413 1_454
Ni0 O7 1.926920 1_464
Ni0 O2 2.030655 1_464
Ni0 O2 2.030659 1_564
Ni1 O6 1.980111 1_555
Ni1 O5 2.013181 1_555
Ni1 O3 2.028924 1_455
Ni1 O3 2.028974 1_555
Ni1 O0 2.136914 1_555
Ni1 O1 2.167019 1_555
