# generated using pymatgen
data_Na5Mn4(SiO3)6
_symmetry_space_group_name_H-M   'P 1'
_cell_length_a   7.50376400
_cell_length_b   10.42415100
_cell_length_c   10.45880600
_cell_angle_alpha   90.00000000
_cell_angle_beta   90.00000000
_cell_angle_gamma   90.00000000
_symmetry_Int_Tables_number   1
_chemical_formula_structural   Na5Mn4(SiO3)6
_chemical_formula_sum   'Na10 Mn8 Si12 O36'
_cell_volume   818.09166467
_cell_formula_units_Z   2
loop_
 _symmetry_equiv_pos_site_id
 _symmetry_equiv_pos_as_xyz
  1  'x, y, z'
loop_
 _atom_site_type_symbol
 _atom_site_label
 _atom_site_symmetry_multiplicity
 _atom_site_fract_x
 _atom_site_fract_y
 _atom_site_fract_z
 _atom_site_occupancy
  Na  Na0  1  0.24966000  0.30254200  0.00000000  1
  Na  Na1  1  0.75034000  0.80254200  0.50000000  1
  Na  Na2  1  0.27295000  0.53131700  0.26462100  1
  Na  Na3  1  0.72705000  0.03131700  0.23537900  1
  Na  Na4  1  0.72705000  0.03131700  0.76462100  1
  Na  Na5  1  0.27295000  0.53131700  0.73537900  1
  Na  Na6  1  0.23138300  0.06255800  0.26199600  1
  Na  Na7  1  0.76861700  0.56255800  0.23800400  1
  Na  Na8  1  0.76861700  0.56255800  0.76199600  1
  Na  Na9  1  0.23138300  0.06255800  0.73800400  1
  Mn  Mn0  1  0.49001500  0.03880600  0.00000000  1
  Mn  Mn1  1  0.50998500  0.53880600  0.50000000  1
  Mn  Mn2  1  0.74519300  0.79770700  0.00000000  1
  Mn  Mn3  1  0.25480700  0.29770800  0.50000000  1
  Mn  Mn4  1  0.22967700  0.79477000  0.00000000  1
  Mn  Mn5  1  0.77032300  0.29477000  0.50000000  1
  Mn  Mn6  1  0.00490800  0.55257500  0.00000000  1
  Mn  Mn7  1  0.99509200  0.05257500  0.50000000  1
  Si  Si0  1  0.99553300  0.07474100  0.00000000  1
  Si  Si1  1  0.00446700  0.57474100  0.50000000  1
  Si  Si2  1  0.03009700  0.79177600  0.27459600  1
  Si  Si3  1  0.96990300  0.29177600  0.22540400  1
  Si  Si4  1  0.96990300  0.29177600  0.77459600  1
  Si  Si5  1  0.03009700  0.79177600  0.72540400  1
  Si  Si6  1  0.53308000  0.30514600  0.22647500  1
  Si  Si7  1  0.46692000  0.80514600  0.27352500  1
  Si  Si8  1  0.46692000  0.80514600  0.72647500  1
  Si  Si9  1  0.53308000  0.30514600  0.77352500  1
  Si  Si10  1  0.50357200  0.52121000  0.00000000  1
  Si  Si11  1  0.49642800  0.02121000  0.50000000  1
  O  O0  1  0.46524400  0.17077300  0.16426400  1
  O  O1  1  0.53475600  0.67077300  0.33573600  1
  O  O2  1  0.53475600  0.67077300  0.66426400  1
  O  O3  1  0.46524400  0.17077300  0.83573600  1
  O  O4  1  0.31617600  0.60327900  0.00000000  1
  O  O5  1  0.68382400  0.10327900  0.50000000  1
  O  O6  1  0.80196200  0.00620200  0.00000000  1
  O  O7  1  0.19803800  0.50620200  0.50000000  1
  O  O8  1  0.75156100  0.30059500  0.24764300  1
  O  O9  1  0.24843900  0.80059500  0.25235700  1
  O  O10  1  0.24843900  0.80059500  0.74764300  1
  O  O11  1  0.75156100  0.30059500  0.75235700  1
  O  O12  1  0.04163800  0.42298600  0.16048700  1
  O  O13  1  0.95836200  0.92298600  0.33951300  1
  O  O14  1  0.95836200  0.92298600  0.66048700  1
  O  O15  1  0.04163800  0.42298600  0.83951300  1
  O  O16  1  0.18314600  0.99267600  0.00000000  1
  O  O17  1  0.81685400  0.49267600  0.50000000  1
  O  O18  1  0.04075800  0.24322100  0.36517600  1
  O  O19  1  0.95924200  0.74322100  0.13482400  1
  O  O20  1  0.95924200  0.74322100  0.86517600  1
  O  O21  1  0.04075800  0.24322100  0.63482400  1
  O  O22  1  0.45986400  0.35777800  0.36337400  1
  O  O23  1  0.54013600  0.85777800  0.13662600  1
  O  O24  1  0.54013600  0.85777800  0.86337400  1
  O  O25  1  0.45986400  0.35777800  0.63662600  1
  O  O26  1  0.69735500  0.58953300  0.00000000  1
  O  O27  1  0.30264500  0.08953300  0.50000000  1
  O  O28  1  0.01131700  0.16967600  0.12715300  1
  O  O29  1  0.98868300  0.66967600  0.37284700  1
  O  O30  1  0.98868300  0.66967600  0.62715300  1
  O  O31  1  0.01131700  0.16967600  0.87284700  1
  O  O32  1  0.48859600  0.42430100  0.12561800  1
  O  O33  1  0.51140400  0.92430100  0.37438200  1
  O  O34  1  0.51140400  0.92430100  0.62561800  1
  O  O35  1  0.48859600  0.42430100  0.87438200  1
loop_
_geom_bond_atom_site_label_1
_geom_bond_atom_site_label_2
_geom_bond_distance
_geom_bond_site_symmetry_2
Na0 O35 2.559614 1_554
Na0 O32 2.559614 1_555
Na0 O12 2.613480 1_555
Na0 O15 2.613480 1_554
Na0 O28 2.624012 1_555
Na0 O31 2.624012 1_554
Na0 O0 2.730419 1_555
Na0 O3 2.730419 1_554
Na1 O34 2.559614 1_555
Na1 O33 2.559614 1_555
Na1 O14 2.613480 1_555
Na1 O13 2.613480 1_555
Na1 O29 2.624012 1_555
Na1 O30 2.624012 1_555
Na1 O2 2.730419 1_555
Na1 O1 2.730419 1_555
Na2 O12 2.339678 1_555
Na2 O32 2.444675 1_555
Na2 O22 2.511254 1_555
Na2 O7 2.538681 1_555
Na2 O1 2.554576 1_555
Na2 O29 2.812719 1_455
Na2 O9 2.815937 1_555
Na2 O4 2.885765 1_555
Na3 O13 2.339678 1_545
Na3 O33 2.444675 1_545
Na3 O23 2.511254 1_545
Na3 O6 2.538681 1_555
Na3 O0 2.554576 1_555
Na3 O28 2.812719 1_655
Na3 O8 2.815937 1_555
Na3 O5 2.885765 1_555
Na4 O14 2.339678 1_545
Na4 O34 2.444675 1_545
Na4 O24 2.511254 1_545
Na4 O6 2.538681 1_556
Na4 O3 2.554576 1_555
Na4 O31 2.812719 1_655
Na4 O11 2.815937 1_555
Na4 O5 2.885765 1_555
Na5 O15 2.339678 1_555
Na5 O35 2.444675 1_555
Na5 O25 2.511254 1_555
Na5 O7 2.538681 1_555
Na5 O2 2.554576 1_555
Na5 O30 2.812719 1_455
Na5 O10 2.815937 1_555
Na5 O4 2.885765 1_556
Na6 O0 2.323093 1_555
Na6 O28 2.441850 1_555
Na6 O27 2.561506 1_555
Na6 O18 2.599474 1_555
Na6 O13 2.640302 1_445
Na6 O9 2.735598 1_545
Na6 O33 2.806029 1_545
Na6 O16 2.858352 1_545
Na7 O1 2.323093 1_555
Na7 O29 2.441850 1_555
Na7 O26 2.561506 1_555
Na7 O19 2.599474 1_555
Na7 O12 2.640302 1_655
Na7 O8 2.735598 1_555
Na7 O32 2.806029 1_555
Na7 O17 2.858352 1_555
Na8 O2 2.323093 1_555
Na8 O30 2.441850 1_555
Na8 O26 2.561506 1_556
Na8 O20 2.599474 1_555
Na8 O15 2.640302 1_655
Na8 O11 2.735598 1_555
Na8 O35 2.806029 1_555
Na8 O17 2.858352 1_555
Na9 O3 2.323093 1_555
Na9 O31 2.441850 1_555
Na9 O27 2.561506 1_555
Na9 O21 2.599474 1_555
Na9 O14 2.640302 1_445
Na9 O10 2.735598 1_545
Na9 O34 2.806029 1_545
Na9 O16 2.858352 1_546
Mn0 O0 2.208730 1_555
Mn0 O3 2.208730 1_554
Mn0 O16 2.352346 1_545
Mn0 O6 2.365322 1_555
Mn0 O23 2.396735 1_545
Mn0 O24 2.396735 1_544
Mn1 O2 2.208730 1_555
Mn1 O1 2.208730 1_555
Mn1 O17 2.352346 1_555
Mn1 O7 2.365322 1_555
Mn1 O22 2.396735 1_555
Mn1 O25 2.396735 1_555
Mn2 O24 2.191253 1_554
Mn2 O23 2.191253 1_555
Mn2 O26 2.199527 1_555
Mn2 O19 2.211506 1_555
Mn2 O20 2.211506 1_554
Mn2 O6 2.214736 1_565
Mn3 O22 2.191251 1_555
Mn3 O25 2.191251 1_555
Mn3 O27 2.199537 1_555
Mn3 O21 2.211509 1_555
Mn3 O18 2.211509 1_555
Mn3 O7 2.214726 1_555
Mn4 O16 2.092340 1_555
Mn4 O4 2.099007 1_555
Mn4 O19 2.528855 1_455
Mn4 O20 2.528855 1_454
Mn4 O9 2.643802 1_555
Mn4 O10 2.643802 1_554
Mn4 O23 2.810759 1_555
Mn4 O24 2.810759 1_554
Mn5 O17 2.092340 1_555
Mn5 O5 2.099007 1_555
Mn5 O21 2.528855 1_655
Mn5 O18 2.528855 1_655
Mn5 O11 2.643802 1_555
Mn5 O8 2.643802 1_555
Mn5 O22 2.810759 1_555
Mn5 O25 2.810759 1_555
Mn6 O12 2.172129 1_555
Mn6 O15 2.172129 1_554
Mn6 O26 2.339741 1_455
Mn6 O4 2.394738 1_555
Mn6 O19 2.460741 1_455
Mn6 O20 2.460741 1_454
Mn7 O14 2.172129 1_545
Mn7 O13 2.172129 1_545
Mn7 O27 2.339741 1_655
Mn7 O5 2.394738 1_555
Mn7 O21 2.460741 1_655
Mn7 O18 2.460741 1_655
O0 Si6 1.626187 1_555
O1 Si7 1.626187 1_555
O2 Si8 1.626187 1_555
O3 Si9 1.626187 1_555
O4 Si10 1.645967 1_555
O5 Si11 1.645967 1_555
O6 Si0 1.618716 1_555
O7 Si1 1.618716 1_555
O8 Si6 1.654991 1_555
O8 Si3 1.657366 1_555
O9 Si7 1.654991 1_555
O9 Si2 1.657366 1_555
O10 Si8 1.654991 1_555
O10 Si5 1.657366 1_555
O11 Si9 1.654991 1_555
O11 Si4 1.657366 1_555
O12 Si3 1.619097 1_455
O13 Si2 1.619097 1_655
O14 Si5 1.619097 1_655
O15 Si4 1.619097 1_455
O16 Si0 1.647337 1_465
O17 Si1 1.647337 1_655
O18 Si3 1.635807 1_455
O19 Si2 1.635807 1_655
O20 Si5 1.635807 1_655
O21 Si4 1.635807 1_455
O22 Si6 1.628772 1_555
O23 Si7 1.628772 1_555
O24 Si8 1.628772 1_555
O25 Si9 1.628772 1_555
O26 Si10 1.619152 1_555
O27 Si11 1.619152 1_555
O28 Si0 1.661902 1_455
O28 Si3 1.665083 1_455
O29 Si1 1.661902 1_655
O29 Si2 1.665083 1_655
O30 Si1 1.661902 1_655
O30 Si5 1.665083 1_655
O31 Si0 1.661902 1_456
O31 Si4 1.665083 1_455
O32 Si10 1.661093 1_555
O32 Si6 1.663401 1_555
O33 Si11 1.661093 1_565
O33 Si7 1.663401 1_555
O34 Si11 1.661093 1_565
O34 Si8 1.663401 1_555
O35 Si10 1.661093 1_556
O35 Si9 1.663401 1_555
