# generated using pymatgen
data_Sr2PrMn3O9
_symmetry_space_group_name_H-M   'P 1'
_cell_length_a   5.53925649
_cell_length_b   5.53925649
_cell_length_c   13.50441192
_cell_angle_alpha   88.76048650
_cell_angle_beta   88.76048650
_cell_angle_gamma   59.05490346
_symmetry_Int_Tables_number   1
_chemical_formula_structural   Sr2PrMn3O9
_chemical_formula_sum   'Sr4 Pr2 Mn6 O18'
_cell_volume   355.27099649
_cell_formula_units_Z   2
loop_
 _symmetry_equiv_pos_site_id
 _symmetry_equiv_pos_as_xyz
  1  'x, y, z'
loop_
 _atom_site_type_symbol
 _atom_site_label
 _atom_site_symmetry_multiplicity
 _atom_site_fract_x
 _atom_site_fract_y
 _atom_site_fract_z
 _atom_site_occupancy
  Sr  Sr0  1  0.83136200  0.83477300  0.91720100  1
  Sr  Sr1  1  0.16522700  0.16863800  0.58279900  1
  Sr  Sr2  1  0.83477300  0.83136200  0.41720100  1
  Sr  Sr3  1  0.16863800  0.16522700  0.08279900  1
  Pr  Pr0  1  0.50464500  0.49535500  0.25000000  1
  Pr  Pr1  1  0.49535500  0.50464500  0.75000000  1
  Mn  Mn0  1  0.83282600  0.83324000  0.66603700  1
  Mn  Mn1  1  0.16717400  0.16676000  0.33396300  1
  Mn  Mn2  1  0.50000000  0.50000000  0.00000000  1
  Mn  Mn3  1  0.16676000  0.16717400  0.83396300  1
  Mn  Mn4  1  0.50000000  0.50000000  0.50000000  1
  Mn  Mn5  1  0.83324000  0.83282600  0.16603700  1
  O  O0  1  0.19933600  0.61245500  0.10040200  1
  O  O1  1  0.52286000  0.93681000  0.76157700  1
  O  O2  1  0.85596900  0.28500300  0.42753100  1
  O  O3  1  0.80066400  0.38754500  0.89959800  1
  O  O4  1  0.14403100  0.71499700  0.57246900  1
  O  O5  1  0.47714000  0.06319000  0.23842300  1
  O  O6  1  0.61245500  0.19933600  0.60040200  1
  O  O7  1  0.93681000  0.52286000  0.26157700  1
  O  O8  1  0.28500300  0.85596900  0.92753100  1
  O  O9  1  0.71499700  0.14403100  0.07246900  1
  O  O10  1  0.06319000  0.47714000  0.73842300  1
  O  O11  1  0.38754500  0.80066400  0.39959800  1
  O  O12  1  0.33693900  0.33620900  0.91149900  1
  O  O13  1  0.66379100  0.66306100  0.58850100  1
  O  O14  1  0.00704700  0.99295300  0.25000000  1
  O  O15  1  0.99295300  0.00704700  0.75000000  1
  O  O16  1  0.33620900  0.33693900  0.41149900  1
  O  O17  1  0.66306100  0.66379100  0.08850100  1
loop_
_geom_bond_atom_site_label_1
_geom_bond_atom_site_label_2
_geom_bond_distance
_geom_bond_site_symmetry_2
Mn0 O4 1.943619 1_655
Mn0 O6 1.952261 1_565
Mn0 O13 1.963303 1_555
Mn0 O10 1.963841 1_655
Mn0 O1 1.965946 1_555
Mn0 O15 1.992057 1_565
Mn1 O2 1.943619 1_455
Mn1 O11 1.952261 1_545
Mn1 O16 1.963303 1_555
Mn1 O7 1.963841 1_455
Mn1 O5 1.965946 1_555
Mn1 O14 1.992057 1_545
Mn2 O9 1.953450 1_555
Mn2 O8 1.953450 1_554
Mn2 O0 1.967754 1_555
Mn2 O3 1.967754 1_554
Mn2 O17 2.000948 1_555
Mn2 O12 2.000948 1_554
Mn3 O8 1.943619 1_545
Mn3 O3 1.952261 1_455
Mn3 O12 1.963303 1_555
Mn3 O1 1.963841 1_545
Mn3 O10 1.965946 1_555
Mn3 O15 1.992057 1_455
Mn4 O2 1.953450 1_555
Mn4 O4 1.953450 1_555
Mn4 O11 1.967754 1_555
Mn4 O6 1.967754 1_555
Mn4 O13 2.000948 1_555
Mn4 O16 2.000948 1_555
Mn5 O9 1.943619 1_565
Mn5 O0 1.952261 1_655
Mn5 O17 1.963303 1_555
Mn5 O5 1.963841 1_565
Mn5 O7 1.965946 1_555
Mn5 O14 1.992057 1_655
O0 Pr0 2.514983 1_555
O0 Sr3 2.585140 1_555
O0 Sr3 2.982570 1_565
O0 Sr0 3.049076 1_454
O1 Pr1 2.484069 1_555
O1 Sr0 2.601370 1_555
O1 Sr1 2.976377 1_565
O1 Pr1 3.070505 1_565
O2 Sr2 2.582029 1_545
O2 Sr1 2.589975 1_655
O2 Pr0 2.939664 1_555
O2 Sr2 2.968078 1_555
O3 Pr1 2.514983 1_555
O3 Sr0 2.585140 1_555
O3 Sr0 2.982570 1_545
O3 Sr3 3.049076 1_656
O4 Sr1 2.582029 1_565
O4 Sr2 2.589975 1_455
O4 Pr1 2.939664 1_555
O4 Sr1 2.968078 1_555
O5 Pr0 2.484069 1_555
O5 Sr3 2.601370 1_555
O5 Sr2 2.976377 1_545
O5 Pr0 3.070505 1_545
O6 Pr1 2.514983 1_555
O6 Sr1 2.585140 1_555
O6 Sr1 2.982570 1_655
O6 Sr2 3.049076 1_545
O7 Pr0 2.484069 1_555
O7 Sr2 2.601370 1_555
O7 Sr3 2.976377 1_655
O7 Pr0 3.070505 1_655
O8 Sr0 2.582029 1_455
O8 Sr3 2.589975 1_566
O8 Pr1 2.939664 1_555
O8 Sr0 2.968078 1_555
O9 Sr3 2.582029 1_655
O9 Sr0 2.589975 1_544
O9 Pr0 2.939664 1_555
O9 Sr3 2.968078 1_555
O10 Pr1 2.484069 1_555
O10 Sr1 2.601370 1_555
O10 Sr0 2.976377 1_455
O10 Pr1 3.070505 1_455
O11 Pr0 2.514983 1_555
O11 Sr2 2.585140 1_555
O11 Sr2 2.982570 1_455
O11 Sr1 3.049076 1_565
O12 Pr1 2.658615 1_555
O12 Sr0 2.719942 1_545
O12 Sr0 2.742541 1_455
O12 Sr3 2.799552 1_556
O13 Pr1 2.658615 1_555
O13 Sr1 2.719942 1_655
O13 Sr1 2.742541 1_565
O13 Sr2 2.799552 1_555
O14 Pr0 2.716855 1_555
O14 Sr3 2.740065 1_565
O14 Sr2 2.740065 1_455
O14 Pr0 2.743085 1_465
O15 Pr1 2.716855 1_555
O15 Sr0 2.740065 1_545
O15 Sr1 2.740065 1_655
O15 Pr1 2.743085 1_645
O16 Pr0 2.658615 1_555
O16 Sr2 2.719942 1_455
O16 Sr2 2.742541 1_545
O16 Sr1 2.799552 1_555
O17 Pr0 2.658615 1_555
O17 Sr3 2.719942 1_565
O17 Sr3 2.742541 1_655
O17 Sr0 2.799552 1_554
