# generated using pymatgen
data_Na2BeCl4
_symmetry_space_group_name_H-M   'P 1'
_cell_length_a   6.07676334
_cell_length_b   7.98840777
_cell_length_c   13.34061348
_cell_angle_alpha   90.00000000
_cell_angle_beta   90.00000000
_cell_angle_gamma   90.00000000
_symmetry_Int_Tables_number   1
_chemical_formula_structural   Na2BeCl4
_chemical_formula_sum   'Na8 Be4 Cl16'
_cell_volume   647.60225141
_cell_formula_units_Z   4
loop_
 _symmetry_equiv_pos_site_id
 _symmetry_equiv_pos_as_xyz
  1  'x, y, z'
loop_
 _atom_site_type_symbol
 _atom_site_label
 _atom_site_symmetry_multiplicity
 _atom_site_fract_x
 _atom_site_fract_y
 _atom_site_fract_z
 _atom_site_occupancy
  Na  Na0  1  0.01456976  0.75000000  0.72843103  1
  Na  Na1  1  0.98543024  0.25000000  0.27156897  1
  Na  Na2  1  0.51456976  0.25000000  0.77156897  1
  Na  Na3  1  0.48543024  0.75000000  0.22843103  1
  Na  Na4  1  0.50000000  0.50000000  0.50000000  1
  Na  Na5  1  -0.00000000  0.50000000  0.00000000  1
  Na  Na6  1  0.50000000  0.00000000  0.50000000  1
  Na  Na7  1  -0.00000000  0.00000000  0.00000000  1
  Be  Be0  1  0.59290306  0.75000000  0.90854162  1
  Be  Be1  1  0.40709694  0.25000000  0.09145838  1
  Be  Be2  1  0.09290306  0.25000000  0.59145838  1
  Be  Be3  1  0.90709694  0.75000000  0.40854162  1
  Cl  Cl0  1  0.26136637  0.75000000  0.90817823  1
  Cl  Cl1  1  0.73863363  0.25000000  0.09182177  1
  Cl  Cl2  1  0.76136637  0.25000000  0.59182177  1
  Cl  Cl3  1  0.23863363  0.75000000  0.40817823  1
  Cl  Cl4  1  0.78340522  0.75000000  0.55144415  1
  Cl  Cl5  1  0.21659478  0.25000000  0.44855585  1
  Cl  Cl6  1  0.28340522  0.25000000  0.94855585  1
  Cl  Cl7  1  0.71659478  0.75000000  0.05144415  1
  Cl  Cl8  1  0.72018189  0.54503210  0.83700180  1
  Cl  Cl9  1  0.27981811  0.45496790  0.16299820  1
  Cl  Cl10  1  0.22018189  0.45496790  0.66299820  1
  Cl  Cl11  1  0.27981811  0.04503210  0.16299820  1
  Cl  Cl12  1  0.77981811  0.54503210  0.33700180  1
  Cl  Cl13  1  0.72018189  0.95496790  0.83700180  1
  Cl  Cl14  1  0.77981811  0.95496790  0.33700180  1
  Cl  Cl15  1  0.22018189  0.04503210  0.66299820  1
loop_
_geom_bond_atom_site_label_1
_geom_bond_atom_site_label_2
_geom_bond_distance
_geom_bond_site_symmetry_2
Be0 Cl0 2.014676 1_555
Be0 Cl13 2.046958 1_555
Be0 Cl8 2.046958 1_555
Be0 Cl7 2.049234 1_556
Be1 Cl1 2.014676 1_555
Be1 Cl11 2.046958 1_555
Be1 Cl9 2.046958 1_555
Be1 Cl6 2.049234 1_554
Be2 Cl2 2.014676 1_455
Be2 Cl10 2.046958 1_555
Be2 Cl15 2.046958 1_555
Be2 Cl5 2.049234 1_555
Be3 Cl3 2.014676 1_655
Be3 Cl12 2.046958 1_555
Be3 Cl14 2.046958 1_555
Be3 Cl4 2.049234 1_555
Cl0 Na0 2.828300 1_555
Cl0 Na7 2.830462 1_566
Cl0 Na5 2.830462 1_556
Cl1 Na1 2.828300 1_555
Cl1 Na7 2.830462 1_655
Cl1 Na5 2.830462 1_655
Cl2 Na2 2.828300 1_555
Cl2 Na6 2.830462 1_555
Cl2 Na4 2.830462 1_555
Cl3 Na3 2.828300 1_555
Cl3 Na4 2.830462 1_555
Cl3 Na6 2.830462 1_565
Cl4 Na6 2.724949 1_565
Cl4 Na4 2.724949 1_555
Cl4 Na0 2.747386 1_655
Cl5 Na6 2.724949 1_555
Cl5 Na4 2.724949 1_555
Cl5 Na1 2.747386 1_455
Cl6 Na7 2.724949 1_556
Cl6 Na5 2.724949 1_556
Cl6 Na2 2.747386 1_555
Cl7 Na7 2.724949 1_665
Cl7 Na5 2.724949 1_655
Cl7 Na3 2.747386 1_555
Cl8 Na5 2.783732 1_656
Cl8 Na2 2.806742 1_555
Cl8 Na0 2.824728 1_655
Cl9 Na5 2.783732 1_555
Cl9 Na3 2.806742 1_555
Cl9 Na1 2.824728 1_455
Cl10 Na4 2.783732 1_555
Cl10 Na0 2.806742 1_555
Cl10 Na2 2.824728 1_555
Cl11 Na7 2.783732 1_555
Cl11 Na3 2.806742 1_545
Cl11 Na1 2.824728 1_455
Cl12 Na4 2.783732 1_555
Cl12 Na1 2.806742 1_555
Cl12 Na3 2.824728 1_555
Cl13 Na7 2.783732 1_666
Cl13 Na2 2.806742 1_565
Cl13 Na0 2.824728 1_655
Cl14 Na6 2.783732 1_565
Cl14 Na1 2.806742 1_565
Cl14 Na3 2.824728 1_555
Cl15 Na6 2.783732 1_555
Cl15 Na0 2.806742 1_545
Cl15 Na2 2.824728 1_555
