# generated using pymatgen
data_Tb(Al5Re)2
_symmetry_space_group_name_H-M   'P 1'
_cell_length_a   6.90598078
_cell_length_b   6.90598078
_cell_length_c   17.99022895
_cell_angle_alpha   90.00000000
_cell_angle_beta   90.00000000
_cell_angle_gamma   96.44702466
_symmetry_Int_Tables_number   1
_chemical_formula_structural   Tb(Al5Re)2
_chemical_formula_sum   'Tb4 Al40 Re8'
_cell_volume   852.57435383
_cell_formula_units_Z   4
loop_
 _symmetry_equiv_pos_site_id
 _symmetry_equiv_pos_as_xyz
  1  'x, y, z'
loop_
 _atom_site_type_symbol
 _atom_site_label
 _atom_site_symmetry_multiplicity
 _atom_site_fract_x
 _atom_site_fract_y
 _atom_site_fract_z
 _atom_site_occupancy
  Tb  Tb0  1  0.25628323  0.74371677  0.75000000  1
  Tb  Tb1  1  0.74371677  0.25628323  0.25000000  1
  Tb  Tb2  1  0.00000000  -0.00000000  0.50000000  1
  Tb  Tb3  1  0.00000000  -0.00000000  -0.00000000  1
  Al  Al0  1  0.35035847  0.35035847  0.50000000  1
  Al  Al1  1  0.64964153  0.64964153  0.50000000  1
  Al  Al2  1  0.64964153  0.64964153  -0.00000000  1
  Al  Al3  1  0.35035847  0.35035847  -0.00000000  1
  Al  Al4  1  0.90736755  0.65209761  0.63013690  1
  Al  Al5  1  0.09263245  0.34790239  0.36986310  1
  Al  Al6  1  0.09263245  0.34790239  0.13013690  1
  Al  Al7  1  0.34790239  0.09263245  0.86986310  1
  Al  Al8  1  0.90736755  0.65209761  0.86986310  1
  Al  Al9  1  0.65209761  0.90736755  0.13013690  1
  Al  Al10  1  0.65209761  0.90736755  0.36986310  1
  Al  Al11  1  0.34790239  0.09263245  0.63013690  1
  Al  Al12  1  0.90977171  0.38861541  0.75000000  1
  Al  Al13  1  0.09022829  0.61138459  0.25000000  1
  Al  Al14  1  0.61138459  0.09022829  0.75000000  1
  Al  Al15  1  0.38861541  0.90977171  0.25000000  1
  Al  Al16  1  0.71672519  0.28327481  0.07420967  1
  Al  Al17  1  0.28327481  0.71672519  0.92579033  1
  Al  Al18  1  0.28327481  0.71672519  0.57420967  1
  Al  Al19  1  0.71672519  0.28327481  0.42579033  1
  Al  Al20  1  0.96467033  0.03532967  0.67459895  1
  Al  Al21  1  0.03532967  0.96467033  0.32540105  1
  Al  Al22  1  0.03532967  0.96467033  0.17459895  1
  Al  Al23  1  0.96467033  0.03532967  0.82540105  1
  Al  Al24  1  0.00000000  0.50000000  0.50000000  1
  Al  Al25  1  0.00000000  0.50000000  -0.00000000  1
  Al  Al26  1  0.50000000  -0.00000000  -0.00000000  1
  Al  Al27  1  0.50000000  -0.00000000  0.50000000  1
  Al  Al28  1  0.75025364  0.24974636  0.59248909  1
  Al  Al29  1  0.24974636  0.75025364  0.40751091  1
  Al  Al30  1  0.24974636  0.75025364  0.09248909  1
  Al  Al31  1  0.75025364  0.24974636  0.90751091  1
  Al  Al32  1  0.26698371  0.29098619  0.75000000  1
  Al  Al33  1  0.73301629  0.70901381  0.25000000  1
  Al  Al34  1  0.70901381  0.73301629  0.75000000  1
  Al  Al35  1  0.29098619  0.26698371  0.25000000  1
  Al  Al36  1  0.50538508  0.49461492  0.64345232  1
  Al  Al37  1  0.49461492  0.50538508  0.35654768  1
  Al  Al38  1  0.49461492  0.50538508  0.14345232  1
  Al  Al39  1  0.50538508  0.49461492  0.85654768  1
  Re  Re0  1  0.12956785  0.37412294  0.62116100  1
  Re  Re1  1  0.87043215  0.62587706  0.37883900  1
  Re  Re2  1  0.87043215  0.62587706  0.12116100  1
  Re  Re3  1  0.62587706  0.87043215  0.87883900  1
  Re  Re4  1  0.12956785  0.37412294  0.87883900  1
  Re  Re5  1  0.37412294  0.12956785  0.12116100  1
  Re  Re6  1  0.37412294  0.12956785  0.37883900  1
  Re  Re7  1  0.62587706  0.87043215  0.62116100  1
loop_
_geom_bond_atom_site_label_1
_geom_bond_atom_site_label_2
_geom_bond_distance
_geom_bond_site_symmetry_2
Al0 Re0 2.675673 1_555
Al0 Re6 2.675673 1_555
Al0 Al24 2.735652 1_555
Al0 Al27 2.735652 1_555
Al0 Al1 2.753971 1_555
Al0 Al36 2.925643 1_555
Al0 Al37 2.925643 1_555
Al0 Al5 2.939823 1_555
Al0 Al11 2.939823 1_555
Al0 Al18 2.943081 1_555
Al0 Al19 2.943081 1_555
Al0 Tb2 3.223962 1_555
Al1 Re7 2.675673 1_555
Al1 Re1 2.675673 1_555
Al1 Al27 2.735652 1_565
Al1 Al24 2.735652 1_655
Al1 Al36 2.925643 1_555
Al1 Al37 2.925643 1_555
Al1 Al10 2.939823 1_555
Al1 Al4 2.939823 1_555
Al1 Al18 2.943081 1_555
Al1 Al19 2.943081 1_555
Al1 Tb2 3.223962 1_665
Al2 Re3 2.675673 1_554
Al2 Re2 2.675673 1_555
Al2 Al25 2.735652 1_655
Al2 Al26 2.735652 1_565
Al2 Al3 2.753971 1_555
Al2 Al39 2.925643 1_554
Al2 Al38 2.925643 1_555
Al2 Al9 2.939823 1_555
Al2 Al8 2.939823 1_554
Al2 Tb3 3.223962 1_665
Al3 Re4 2.675673 1_554
Al3 Re5 2.675673 1_555
Al3 Al39 2.925643 1_554
Al3 Al38 2.925643 1_555
Al3 Al6 2.939823 1_555
Al3 Al7 2.939823 1_554
Al3 Tb3 3.223962 1_555
Al4 Re0 2.593749 1_655
Al4 Re7 2.595541 1_555
Al4 Tb0 3.242539 1_655
Al4 Tb2 3.364191 1_665
Al5 Re1 2.593749 1_455
Al5 Re6 2.595541 1_555
Al5 Tb1 3.242539 1_455
Al5 Tb2 3.364191 1_555
Al6 Re2 2.593749 1_455
Al6 Re5 2.595541 1_555
Al6 Tb1 3.242539 1_455
Al6 Tb3 3.364191 1_555
Al7 Re3 2.593749 1_545
Al7 Re4 2.595541 1_555
Al7 Tb0 3.242539 1_545
Al7 Tb3 3.364191 1_556
Al8 Re4 2.593749 1_655
Al8 Re3 2.595541 1_555
Al8 Tb0 3.242539 1_655
Al8 Tb3 3.364191 1_666
Al9 Re5 2.593749 1_565
Al9 Re2 2.595541 1_555
Al9 Tb1 3.242539 1_565
Al9 Tb3 3.364191 1_665
Al10 Re6 2.593749 1_565
Al10 Re1 2.595541 1_555
Al10 Al33 2.647739 1_555
Al10 Al27 2.672943 1_565
Al10 Al21 2.750576 1_655
Al10 Al19 2.773191 1_565
Al10 Al15 2.822751 1_555
Al10 Al37 2.875555 1_555
Al10 Al29 2.946140 1_555
Al10 Tb1 3.242539 1_565
Al10 Tb2 3.364191 1_665
Al11 Re7 2.593749 1_545
Al11 Re0 2.595541 1_555
Al11 Al32 2.647739 1_555
Al11 Al27 2.672943 1_555
Al11 Al20 2.750576 1_455
Al11 Al18 2.773191 1_545
Al11 Al14 2.822751 1_555
Al11 Al36 2.875555 1_555
Al11 Al28 2.946140 1_555
Al11 Tb0 3.242539 1_545
Al11 Tb2 3.364191 1_555
Al12 Al32 2.629389 1_655
Al12 Al14 2.745727 1_555
Al12 Re4 2.778592 1_655
Al12 Re0 2.778592 1_655
Al12 Al4 2.822751 1_555
Al12 Al8 2.822751 1_555
Al12 Al23 2.853779 1_555
Al12 Al20 2.853779 1_555
Al12 Al34 2.884375 1_555
Al12 Tb0 3.228387 1_655
Al13 Al33 2.629389 1_455
Al13 Al15 2.745727 1_555
Al13 Re1 2.778592 1_455
Al13 Re2 2.778592 1_455
Al13 Al5 2.822751 1_555
Al13 Al6 2.822751 1_555
Al13 Al22 2.853779 1_555
Al13 Al21 2.853779 1_555
Al13 Al35 2.884375 1_555
Al13 Tb1 3.228387 1_455
Al14 Al34 2.629389 1_545
Al14 Re3 2.778592 1_545
Al14 Re7 2.778592 1_545
Al14 Al7 2.822751 1_555
Al14 Al23 2.853779 1_555
Al14 Al20 2.853779 1_555
Al14 Al32 2.884375 1_555
Al14 Tb0 3.228387 1_545
Al15 Al35 2.629389 1_565
Al15 Re6 2.778592 1_565
Al15 Re5 2.778592 1_565
Al15 Al9 2.822751 1_555
Al15 Al22 2.853779 1_555
Al15 Al21 2.853779 1_555
Al15 Al33 2.884375 1_555
Al15 Tb1 3.228387 1_565
Al16 Al38 2.604947 1_555
Al16 Re5 2.621871 1_555
Al16 Re2 2.621871 1_555
Al16 Al26 2.681791 1_555
Al16 Al25 2.681791 1_655
Al16 Al9 2.773191 1_545
Al16 Al6 2.773191 1_655
Al16 Al2 2.943081 1_555
Al16 Al3 2.943081 1_555
Al16 Al31 3.018768 1_554
Al16 Tb1 3.174705 1_555
Al16 Tb3 3.208729 1_655
Al17 Al39 2.604947 1_555
Al17 Re3 2.621871 1_555
Al17 Re4 2.621871 1_555
Al17 Al26 2.681791 1_566
Al17 Al25 2.681791 1_556
Al17 Al8 2.773191 1_455
Al17 Al7 2.773191 1_565
Al17 Al3 2.943081 1_556
Al17 Al2 2.943081 1_556
Al17 Al30 3.018768 1_556
Al17 Tb0 3.174705 1_555
Al17 Tb3 3.208729 1_566
Al18 Al36 2.604947 1_555
Al18 Re0 2.621871 1_555
Al18 Re7 2.621871 1_555
Al18 Al24 2.681791 1_555
Al18 Al27 2.681791 1_565
Al18 Al4 2.773191 1_455
Al18 Al29 3.018768 1_555
Al18 Tb0 3.174705 1_555
Al18 Tb2 3.208729 1_565
Al19 Al37 2.604947 1_555
Al19 Re6 2.621871 1_555
Al19 Re1 2.621871 1_555
Al19 Al27 2.681791 1_555
Al19 Al24 2.681791 1_655
Al19 Al5 2.773191 1_655
Al19 Al28 3.018768 1_555
Al19 Tb1 3.174705 1_555
Al19 Tb2 3.208729 1_655
Al20 Al28 2.657016 1_555
Al20 Re0 2.663998 1_655
Al20 Re7 2.663998 1_545
Al20 Al23 2.712964 1_555
Al20 Al4 2.750576 1_545
Al20 Al32 2.913460 1_655
Al20 Al34 2.913460 1_545
Al20 Tb2 3.162085 1_655
Al20 Tb0 3.295784 1_645
Al21 Al29 2.657016 1_555
Al21 Re6 2.663998 1_565
Al21 Re1 2.663998 1_455
Al21 Al22 2.712964 1_555
Al21 Al5 2.750576 1_565
Al21 Al33 2.913460 1_455
Al21 Al35 2.913460 1_565
Al21 Tb2 3.162085 1_565
Al21 Tb1 3.295784 1_465
Al22 Al30 2.657016 1_555
Al22 Re2 2.663998 1_455
Al22 Re5 2.663998 1_565
Al22 Al9 2.750576 1_455
Al22 Al6 2.750576 1_565
Al22 Al35 2.913460 1_565
Al22 Al33 2.913460 1_455
Al22 Tb3 3.162085 1_565
Al22 Tb1 3.295784 1_465
Al23 Al31 2.657016 1_555
Al23 Re4 2.663998 1_655
Al23 Re3 2.663998 1_545
Al23 Al8 2.750576 1_545
Al23 Al7 2.750576 1_655
Al23 Al32 2.913460 1_655
Al23 Al34 2.913460 1_545
Al23 Tb3 3.162085 1_656
Al23 Tb0 3.295784 1_645
Al24 Re0 2.546012 1_555
Al24 Re1 2.546012 1_455
Al24 Al4 2.672943 1_455
Al24 Al5 2.672943 1_555
Al24 Al29 2.839146 1_555
Al24 Al28 2.839146 1_455
Al24 Tb2 3.452990 1_555
Al24 Tb2 3.452990 1_565
Al25 Re4 2.546012 1_554
Al25 Re2 2.546012 1_455
Al25 Al6 2.672943 1_555
Al25 Al8 2.672943 1_454
Al25 Al3 2.735652 1_555
Al25 Al31 2.839146 1_454
Al25 Al30 2.839146 1_555
Al25 Tb3 3.452990 1_565
Al25 Tb3 3.452990 1_555
Al26 Re3 2.546012 1_544
Al26 Re5 2.546012 1_555
Al26 Al7 2.672943 1_554
Al26 Al9 2.672943 1_545
Al26 Al3 2.735652 1_555
Al26 Al30 2.839146 1_545
Al26 Al31 2.839146 1_554
Al26 Tb3 3.452990 1_655
Al26 Tb3 3.452990 1_555
Al27 Re7 2.546012 1_545
Al27 Re6 2.546012 1_555
Al27 Al29 2.839146 1_545
Al27 Al28 2.839146 1_555
Al27 Tb2 3.452990 1_555
Al27 Tb2 3.452990 1_655
Al28 Al36 2.683681 1_555
Al28 Re0 2.713030 1_655
Al28 Re7 2.713030 1_545
Al28 Al4 2.946140 1_555
Al28 Tb2 3.063671 1_655
Al29 Al37 2.683681 1_555
Al29 Re6 2.713030 1_565
Al29 Re1 2.713030 1_455
Al29 Al5 2.946140 1_555
Al29 Tb2 3.063671 1_565
Al30 Al38 2.683681 1_555
Al30 Re5 2.713030 1_565
Al30 Re2 2.713030 1_455
Al30 Al9 2.946140 1_555
Al30 Al6 2.946140 1_555
Al30 Tb3 3.063671 1_565
Al31 Al39 2.683681 1_555
Al31 Re4 2.713030 1_655
Al31 Re3 2.713030 1_545
Al31 Al8 2.946140 1_555
Al31 Al7 2.946140 1_555
Al31 Tb3 3.063671 1_656
Al32 Re0 2.593256 1_555
Al32 Re4 2.593256 1_555
Al32 Al7 2.647739 1_555
Al32 Al36 2.800433 1_555
Al32 Al39 2.800433 1_555
Al32 Tb0 3.135706 1_555
Al33 Re2 2.593256 1_555
Al33 Re1 2.593256 1_555
Al33 Al9 2.647739 1_555
Al33 Al37 2.800433 1_555
Al33 Al38 2.800433 1_555
Al33 Tb1 3.135706 1_555
Al34 Re3 2.593256 1_555
Al34 Re7 2.593256 1_555
Al34 Al4 2.647739 1_555
Al34 Al8 2.647739 1_555
Al34 Al36 2.800433 1_555
Al34 Al39 2.800433 1_555
Al34 Tb0 3.135706 1_555
Al35 Re5 2.593256 1_555
Al35 Re6 2.593256 1_555
Al35 Al6 2.647739 1_555
Al35 Al5 2.647739 1_555
Al35 Al38 2.800433 1_555
Al35 Al37 2.800433 1_555
Al35 Tb1 3.135706 1_555
Al36 Re7 2.665385 1_555
Al36 Re0 2.665385 1_555
Al36 Al4 2.875555 1_555
Al36 Tb0 3.202748 1_555
Al37 Re1 2.665385 1_555
Al37 Re6 2.665385 1_555
Al37 Al5 2.875555 1_555
Al37 Tb1 3.202748 1_555
Al38 Re2 2.665385 1_555
Al38 Re5 2.665385 1_555
Al38 Al9 2.875555 1_555
Al38 Al6 2.875555 1_555
Al38 Tb1 3.202748 1_555
Al39 Re3 2.665385 1_555
Al39 Re4 2.665385 1_555
Al39 Al7 2.875555 1_555
Al39 Al8 2.875555 1_555
Al39 Tb0 3.202748 1_555
Re0 Tb2 3.421705 1_555
Re1 Tb2 3.421705 1_665
Re2 Tb3 3.421705 1_665
Re3 Tb3 3.421705 1_666
Re4 Tb3 3.421705 1_556
Re5 Tb3 3.421705 1_555
Re6 Tb2 3.421705 1_555
Re7 Tb2 3.421705 1_665
