# generated using pymatgen
data_Er11(In3Si2)2
_symmetry_space_group_name_H-M   'P 1'
_cell_length_a   11.32997392
_cell_length_b   11.32997392
_cell_length_c   11.32997971
_cell_angle_alpha   120.03501721
_cell_angle_beta   120.03476289
_cell_angle_gamma   89.93954993
_symmetry_Int_Tables_number   1
_chemical_formula_structural   Er11(In3Si2)2
_chemical_formula_sum   'Er22 In12 Si8'
_cell_volume   1027.88070268
_cell_formula_units_Z   2
loop_
 _symmetry_equiv_pos_site_id
 _symmetry_equiv_pos_as_xyz
  1  'x, y, z'
loop_
 _atom_site_type_symbol
 _atom_site_label
 _atom_site_symmetry_multiplicity
 _atom_site_fract_x
 _atom_site_fract_y
 _atom_site_fract_z
 _atom_site_occupancy
  Er  Er0  1  0.68631093  0.93662772  0.25031603  1
  Er  Er1  1  0.68631070  0.43599491  0.74968397  1
  Er  Er2  1  0.93662767  0.68630991  0.25031699  1
  Er  Er3  1  0.43599292  0.68630967  0.74968301  1
  Er  Er4  1  0.31368926  0.06337244  0.74968417  1
  Er  Er5  1  0.31368927  0.56400509  0.25031583  1
  Er  Er6  1  0.06337213  0.31369012  0.74968287  1
  Er  Er7  1  0.56400724  0.31369026  0.25031713  1
  Er  Er8  1  0.89896561  0.24616779  0.34720223  1
  Er  Er9  1  0.89896556  0.55176238  0.65279777  1
  Er  Er10  1  0.24616690  0.89896592  0.34720158  1
  Er  Er11  1  0.55176334  0.89896532  0.65279842  1
  Er  Er12  1  0.10103315  0.75383156  0.65279737  1
  Er  Er13  1  0.10103419  0.44823678  0.34720263  1
  Er  Er14  1  0.75383433  0.10103392  0.65279870  1
  Er  Er15  1  0.44823622  0.10103563  0.34720130  1
  Er  Er16  1  0.33260678  0.33260872  0.66521455  1
  Er  Er17  1  0.66739317  0.66739123  0.33478545  1
  Er  Er18  1  0.33260637  0.66739134  0.99999796  1
  Er  Er19  1  0.66739339  0.33260841  0.00000204  1
  Er  Er20  1  0.83035082  0.83035082  0.00000000  1
  Er  Er21  1  0.16964886  0.16964886  -0.00000000  1
  In  In0  1  0.03550359  0.03550557  0.41210137  1
  In  In1  1  0.62340420  0.62340222  0.58789863  1
  In  In2  1  0.03550337  0.62340114  0.99999805  1
  In  In3  1  0.62340309  0.03550533  0.00000195  1
  In  In4  1  0.96449623  0.96449595  0.58789829  1
  In  In5  1  0.37659766  0.37659794  0.41210171  1
  In  In6  1  0.96449545  0.37659775  0.00000008  1
  In  In7  1  0.37659766  0.96449536  0.99999992  1
  In  In8  1  0.12865003  0.12865230  0.25730260  1
  In  In9  1  0.87135070  0.87134843  0.74269740  1
  In  In10  1  0.12864973  0.87134773  0.99999767  1
  In  In11  1  0.87135006  0.12865206  0.00000233  1
  Si  Si0  1  0.15321945  0.49999960  0.65321995  1
  Si  Si1  1  0.84677966  0.49999950  0.34678005  1
  Si  Si2  1  0.50000037  0.84677817  0.34677792  1
  Si  Si3  1  0.50000025  0.15322245  0.65322208  1
  Si  Si4  1  0.62158003  0.62158003  -0.00000000  1
  Si  Si5  1  0.37841979  0.37841979  0.00000000  1
  Si  Si6  1  0.75000100  0.25000100  0.50000000  1
  Si  Si7  1  0.24999887  0.74999887  0.50000000  1
loop_
_geom_bond_atom_site_label_1
_geom_bond_atom_site_label_2
_geom_bond_distance
_geom_bond_site_symmetry_2
Er0 Si6 3.006123 1_565
Er0 Si4 3.018564 1_555
Er0 Si2 3.180310 1_555
Er0 In3 3.310828 1_565
Er0 In0 3.310838 1_665
Er0 In7 3.374627 1_554
Er0 In4 3.374641 1_555
Er1 Si6 3.006131 1_555
Er1 Si4 3.018556 1_556
Er1 Si3 3.180304 1_555
Er1 In2 3.310836 1_655
Er1 In1 3.310838 1_555
Er1 In6 3.374633 1_556
Er1 In5 3.374635 1_555
Er2 Si7 3.006117 1_655
Er2 Si4 3.018579 1_555
Er2 Si1 3.180312 1_555
Er2 In2 3.310854 1_654
Er2 In0 3.310864 1_665
Er2 In6 3.374611 1_555
Er2 In4 3.374623 1_555
Er3 Si7 3.006125 1_555
Er3 Si4 3.018571 1_556
Er3 Si0 3.180306 1_555
Er3 In3 3.310863 1_566
Er3 In1 3.310865 1_555
Er3 In7 3.374617 1_555
Er3 In5 3.374617 1_555
Er4 Si7 3.006125 1_545
Er4 Si5 3.018562 1_556
Er4 Si3 3.180318 1_555
Er4 In4 3.310839 1_445
Er4 In7 3.310839 1_545
Er4 In3 3.374635 1_556
Er4 In0 3.374653 1_555
Er5 Si7 3.006133 1_555
Er5 Si5 3.018554 1_555
Er5 Si2 3.180313 1_555
Er5 In5 3.310840 1_555
Er5 In6 3.310848 1_455
Er5 In2 3.374640 1_554
Er5 In1 3.374648 1_555
Er6 Si6 3.006116 1_455
Er6 Si5 3.018580 1_556
Er6 Si0 3.180298 1_555
Er6 In6 3.310847 1_456
Er6 In4 3.310848 1_445
Er6 In2 3.374601 1_555
Er6 In0 3.374618 1_555
Er7 Si6 3.006124 1_555
Er7 Si5 3.018572 1_555
Er7 Si1 3.180293 1_555
Er7 In5 3.310849 1_555
Er7 In7 3.310856 1_544
Er7 In3 3.374607 1_555
Er7 In1 3.374613 1_555
Er8 Si1 2.937313 1_555
Er8 Si0 2.937316 1_655
Er8 Si6 2.949064 1_555
Er8 In0 3.039901 1_655
Er8 In3 3.039909 1_555
Er8 In8 3.297086 1_655
Er8 In11 3.297090 1_555
Er9 Si0 2.937311 1_655
Er9 Si1 2.937320 1_555
Er9 Si6 2.949054 1_555
Er9 In2 3.039905 1_655
Er9 In1 3.039905 1_555
Er9 In10 3.297095 1_655
Er9 In9 3.297105 1_555
Er10 Si3 2.937341 1_565
Er10 Si2 2.937343 1_555
Er10 Si7 2.949102 1_555
Er10 In0 3.039919 1_565
Er10 In2 3.039931 1_554
Er10 In8 3.297112 1_565
Er10 In10 3.297119 1_554
Er11 Si3 2.937341 1_565
Er11 Si2 2.937345 1_555
Er11 Si7 2.949092 1_555
Er11 In1 3.039923 1_555
Er11 In3 3.039927 1_566
Er11 In11 3.297125 1_566
Er11 In9 3.297131 1_555
Er12 Si1 2.937314 1_455
Er12 Si0 2.937318 1_555
Er12 Si7 2.949072 1_555
Er12 In4 3.039918 1_455
Er12 In7 3.039930 1_555
Er12 In9 3.297071 1_455
Er12 In10 3.297087 1_555
Er13 Si1 2.937316 1_455
Er13 Si0 2.937319 1_555
Er13 Si7 2.949063 1_555
Er13 In5 3.039923 1_555
Er13 In6 3.039926 1_455
Er13 In8 3.297090 1_555
Er13 In11 3.297093 1_455
Er14 Si2 2.937340 1_545
Er14 Si3 2.937351 1_555
Er14 Si6 2.949101 1_555
Er14 In4 3.039900 1_545
Er14 In6 3.039914 1_556
Er14 In9 3.297100 1_545
Er14 In11 3.297120 1_556
Er15 Si3 2.937345 1_555
Er15 Si2 2.937348 1_545
Er15 Si6 2.949091 1_555
Er15 In5 3.039904 1_555
Er15 In7 3.039910 1_544
Er15 In8 3.297118 1_555
Er15 In10 3.297125 1_544
Er16 Si0 2.778409 1_555
Er16 Si3 2.778420 1_555
Er16 In8 3.266266 1_555
Er16 Si4 3.314400 1_556
Er16 Si5 3.314411 1_556
Er16 In5 3.403387 1_555
Er16 In0 3.403390 1_555
Er17 Si1 2.778409 1_555
Er17 Si2 2.778420 1_555
Er17 In9 3.266266 1_555
Er17 Si5 3.314401 1_555
Er17 Si4 3.314409 1_555
Er17 In1 3.403377 1_555
Er17 In4 3.403400 1_555
Er18 Si0 2.778410 1_555
Er18 Si2 2.778425 1_556
Er18 In10 3.266271 1_555
Er18 Si5 3.314400 1_556
Er18 Si4 3.314400 1_556
Er18 In2 3.403388 1_555
Er18 In7 3.403388 1_555
Er19 Si1 2.778410 1_555
Er19 Si3 2.778425 1_554
Er19 In11 3.266271 1_555
Er19 Si5 3.314400 1_555
Er19 Si4 3.314400 1_555
Er19 In3 3.403388 1_555
Er19 In6 3.403388 1_555
Er20 In0 3.299843 1_665
Er20 In1 3.299843 1_554
Er20 In2 3.299847 1_654
Er20 In3 3.299847 1_565
Er20 Si4 3.346899 1_555
Er20 In10 3.411989 1_654
Er20 In11 3.411989 1_565
Er20 In8 3.411993 1_665
Er20 In9 3.412005 1_554
Er21 In4 3.299846 1_444
Er21 In5 3.299846 1_555
Er21 In7 3.299847 1_544
Er21 In6 3.299847 1_455
Er21 Si5 3.346901 1_555
Er21 In9 3.411979 1_444
Er21 In11 3.411988 1_455
Er21 In10 3.411988 1_544
Er21 In8 3.411992 1_555
In0 In4 2.910549 1_445
In0 In8 3.001950 1_555
In1 In5 2.910549 1_555
In1 In9 3.001965 1_555
In2 In6 2.910539 1_456
In3 In7 2.910539 1_544
In4 In9 3.001953 1_555
In5 In8 3.001967 1_555
In10 In9 2.913671 1_455
In10 In8 2.913712 1_566
In10 In2 3.001965 1_555
In10 In7 3.001965 1_555
In11 In8 2.913671 1_655
In11 In9 2.913712 1_544
In11 In3 3.001965 1_555
In11 In6 3.001965 1_555
