# generated using pymatgen
data_Ce6MnSb15
_symmetry_space_group_name_H-M   'P 1'
_cell_length_a   12.44658639
_cell_length_b   12.44658639
_cell_length_c   4.34513708
_cell_angle_alpha   79.95129462
_cell_angle_beta   79.95129462
_cell_angle_gamma   102.24775522
_symmetry_Int_Tables_number   1
_chemical_formula_structural   Ce6MnSb15
_chemical_formula_sum   'Ce6 Mn1 Sb15'
_cell_volume   631.88586683
_cell_formula_units_Z   1
loop_
 _symmetry_equiv_pos_site_id
 _symmetry_equiv_pos_as_xyz
  1  'x, y, z'
loop_
 _atom_site_type_symbol
 _atom_site_label
 _atom_site_symmetry_multiplicity
 _atom_site_fract_x
 _atom_site_fract_y
 _atom_site_fract_z
 _atom_site_occupancy
  Ce  Ce0  1  0.32499000  0.67870000  0.92008800  1
  Ce  Ce1  1  0.67870000  0.32499000  0.92008800  1
  Ce  Ce2  1  0.27099900  0.00904900  0.78444400  1
  Ce  Ce3  1  0.72583600  0.98986300  0.06824800  1
  Ce  Ce4  1  0.98986300  0.72583600  0.06824800  1
  Ce  Ce5  1  0.00904900  0.27099900  0.78444400  1
  Mn  Mn0  1  0.27717400  0.27717400  0.64840100  1
  Sb  Sb0  1  0.16210300  0.16210300  0.26131500  1
  Sb  Sb1  1  0.84358900  0.84358900  0.58909300  1
  Sb  Sb2  1  0.47996300  0.24557300  0.55820100  1
  Sb  Sb3  1  0.53579000  0.74892700  0.27900400  1
  Sb  Sb4  1  0.74892700  0.53579000  0.27900400  1
  Sb  Sb5  1  0.24557300  0.47996300  0.55820100  1
  Sb  Sb6  1  0.40024900  0.40024900  0.02355500  1
  Sb  Sb7  1  0.59684800  0.59684800  0.82358900  1
  Sb  Sb8  1  0.51262000  0.91516600  0.70804700  1
  Sb  Sb9  1  0.48866300  0.07845000  0.13815800  1
  Sb  Sb10  1  0.07845000  0.48866300  0.13815800  1
  Sb  Sb11  1  0.91516600  0.51262000  0.70804700  1
  Sb  Sb12  1  0.19679500  0.80145300  0.42455700  1
  Sb  Sb13  1  0.80145300  0.19679500  0.42455700  1
  Sb  Sb14  1  0.99229900  0.99229900  0.96475200  1
loop_
_geom_bond_atom_site_label_1
_geom_bond_atom_site_label_2
_geom_bond_distance
_geom_bond_site_symmetry_2
Ce0 Sb8 3.217411 1_555
Ce0 Sb5 3.224331 1_556
Ce0 Sb5 3.229663 1_555
Ce0 Sb12 3.255998 1_555
Ce0 Sb12 3.266124 1_556
Ce0 Sb3 3.318254 1_556
Ce0 Sb10 3.321514 1_556
Ce0 Sb3 3.321800 1_555
Ce0 Sb7 3.712105 1_555
Ce0 Sb6 3.751226 1_556
Ce1 Sb11 3.217411 1_555
Ce1 Sb2 3.224331 1_556
Ce1 Sb2 3.229663 1_555
Ce1 Sb13 3.255998 1_555
Ce1 Sb13 3.266124 1_556
Ce1 Sb4 3.318254 1_556
Ce1 Sb9 3.321514 1_556
Ce1 Sb4 3.321800 1_555
Ce1 Sb7 3.712105 1_555
Ce1 Sb6 3.751226 1_556
Ce2 Mn0 3.267937 1_555
Ce2 Sb12 3.293709 1_546
Ce2 Sb12 3.297911 1_545
Ce2 Sb2 3.353634 1_555
Ce2 Sb0 3.354471 1_556
Ce2 Sb0 3.360422 1_555
Ce2 Sb9 3.372152 1_556
Ce2 Sb14 3.373137 1_445
Ce2 Sb9 3.387836 1_555
Ce2 Sb8 3.434793 1_545
Ce3 Sb14 3.261102 1_554
Ce3 Sb3 3.271534 1_555
Ce3 Sb13 3.284512 1_565
Ce3 Sb13 3.298680 1_564
Ce3 Sb8 3.333498 1_555
Ce3 Sb1 3.344759 1_554
Ce3 Sb9 3.347718 1_565
Ce3 Sb8 3.356656 1_554
Ce3 Sb1 3.381753 1_555
Ce4 Sb14 3.261102 1_554
Ce4 Sb4 3.271534 1_555
Ce4 Sb12 3.284512 1_655
Ce4 Sb12 3.298680 1_654
Ce4 Sb11 3.333498 1_555
Ce4 Sb1 3.344759 1_554
Ce4 Sb10 3.347718 1_655
Ce4 Sb11 3.356656 1_554
Ce4 Sb1 3.381753 1_555
Ce5 Mn0 3.267937 1_555
Ce5 Sb13 3.293709 1_456
Ce5 Sb13 3.297911 1_455
Ce5 Sb5 3.353634 1_555
Ce5 Sb0 3.354471 1_556
Ce5 Sb0 3.360422 1_555
Ce5 Sb10 3.372152 1_556
Ce5 Sb14 3.373137 1_445
Ce5 Sb10 3.387836 1_555
Ce5 Sb11 3.434793 1_455
Mn0 Sb2 2.609374 1_555
Mn0 Sb5 2.609374 1_555
Mn0 Sb0 2.768163 1_556
Mn0 Sb0 2.782540 1_555
Mn0 Sb6 2.845633 1_556
Mn0 Sb6 2.857667 1_555
Sb1 Sb14 3.041926 1_554
Sb1 Sb14 3.189259 1_555
Sb2 Sb9 3.003532 1_555
Sb2 Sb9 3.008403 1_556
Sb2 Sb6 3.184589 1_555
Sb2 Sb6 3.201269 1_556
Sb3 Sb8 3.038202 1_554
Sb3 Sb8 3.041621 1_555
Sb3 Sb7 3.071588 1_555
Sb3 Sb7 3.077166 1_554
Sb4 Sb7 3.071588 1_555
Sb4 Sb7 3.077166 1_554
Sb5 Sb6 3.184589 1_555
Sb5 Sb6 3.201269 1_556
Sb6 Sb7 2.950601 1_554
Sb8 Sb9 3.016642 1_566
Sb8 Sb9 3.018218 1_565
Sb10 Sb5 3.003532 1_555
Sb10 Sb5 3.008403 1_554
Sb10 Sb11 3.016642 1_454
Sb10 Sb11 3.018218 1_455
Sb11 Sb4 3.038202 1_556
Sb11 Sb4 3.041621 1_555
