# generated using pymatgen
data_ZnCo3O7
_symmetry_space_group_name_H-M   'P 1'
_cell_length_a   13.69279000
_cell_length_b   6.54245000
_cell_length_c   11.57323970
_cell_angle_alpha   76.51739741
_cell_angle_beta   90.00000000
_cell_angle_gamma   90.00000000
_symmetry_Int_Tables_number   1
_chemical_formula_structural   ZnCo3O7
_chemical_formula_sum   'Zn8 Co24 O56'
_cell_volume   1008.20874882
_cell_formula_units_Z   8
loop_
 _symmetry_equiv_pos_site_id
 _symmetry_equiv_pos_as_xyz
  1  'x, y, z'
loop_
 _atom_site_type_symbol
 _atom_site_label
 _atom_site_symmetry_multiplicity
 _atom_site_fract_x
 _atom_site_fract_y
 _atom_site_fract_z
 _atom_site_occupancy
  Zn  Zn0  1  0.51031800  0.92329000  0.76425800  1
  Zn  Zn1  1  0.88471800  0.68673100  0.92512200  1
  Zn  Zn2  1  0.38471800  0.31326900  0.57487800  1
  Zn  Zn3  1  0.11528200  0.31326900  0.07487800  1
  Zn  Zn4  1  0.61528200  0.68673100  0.42512200  1
  Zn  Zn5  1  0.98968200  0.92329000  0.26425800  1
  Zn  Zn6  1  0.48968200  0.07671000  0.23574200  1
  Zn  Zn7  1  0.01031800  0.07671000  0.73574200  1
  Co  Co0  1  0.88797100  0.16894400  0.99163800  1
  Co  Co1  1  0.01321600  0.59269600  0.67859000  1
  Co  Co2  1  0.48678400  0.59269600  0.17859000  1
  Co  Co3  1  0.98678400  0.40730400  0.32141000  1
  Co  Co4  1  0.70687800  0.49988200  0.79620800  1
  Co  Co5  1  0.20687800  0.50011800  0.70379200  1
  Co  Co6  1  0.29312200  0.50011800  0.20379200  1
  Co  Co7  1  0.79312200  0.49988200  0.29620800  1
  Co  Co8  1  0.51321600  0.40730400  0.82141000  1
  Co  Co9  1  0.14525000  0.11984900  0.48263200  1
  Co  Co10  1  0.64525000  0.88015100  0.01736800  1
  Co  Co11  1  0.85475000  0.88015100  0.51736800  1
  Co  Co12  1  0.38797100  0.83105600  0.50836200  1
  Co  Co13  1  0.61202900  0.16894400  0.49163800  1
  Co  Co14  1  0.11202900  0.83105600  0.00836200  1
  Co  Co15  1  0.35475000  0.11984900  0.98263200  1
  Co  Co16  1  0.67870800  0.36883000  0.07676700  1
  Co  Co17  1  0.17870800  0.63117000  0.42323300  1
  Co  Co18  1  0.32129200  0.63117000  0.92323300  1
  Co  Co19  1  0.82129200  0.36883000  0.57676700  1
  Co  Co20  1  0.76373900  0.00629000  0.24468000  1
  Co  Co21  1  0.26373900  0.99371000  0.25532000  1
  Co  Co22  1  0.23626100  0.99371000  0.75532000  1
  Co  Co23  1  0.73626100  0.00629000  0.74468000  1
  O  O0  1  0.00290200  0.27879400  0.97236100  1
  O  O1  1  0.50290200  0.72120600  0.52763900  1
  O  O2  1  0.99709800  0.72120600  0.02763900  1
  O  O3  1  0.49709800  0.27879400  0.47236100  1
  O  O4  1  0.85420100  0.00711900  0.89466900  1
  O  O5  1  0.35420100  0.99288100  0.60533100  1
  O  O6  1  0.14579900  0.99288100  0.10533100  1
  O  O7  1  0.64579900  0.00711900  0.39466900  1
  O  O8  1  0.87718800  0.00965600  0.14118400  1
  O  O9  1  0.37718800  0.99034400  0.35881600  1
  O  O10  1  0.12281200  0.99034400  0.85881600  1
  O  O11  1  0.62281200  0.00965600  0.64118400  1
  O  O12  1  0.28695500  0.34831100  0.94004700  1
  O  O13  1  0.78695500  0.65168900  0.55995300  1
  O  O14  1  0.71304500  0.65168900  0.05995300  1
  O  O15  1  0.21304500  0.34831100  0.44004700  1
  O  O16  1  0.36495300  0.02056000  0.13971500  1
  O  O17  1  0.86495300  0.97944000  0.36028500  1
  O  O18  1  0.63504700  0.97944000  0.86028500  1
  O  O19  1  0.13504700  0.02056000  0.63971500  1
  O  O20  1  0.33050000  0.93182100  0.89008100  1
  O  O21  1  0.44061000  0.64855000  0.83572500  1
  O  O22  1  0.83050000  0.06817900  0.60991900  1
  O  O23  1  0.16950000  0.93182100  0.39008100  1
  O  O24  1  0.47967400  0.24878800  0.72666900  1
  O  O25  1  0.97967400  0.75121200  0.77333100  1
  O  O26  1  0.52032600  0.75121200  0.27333100  1
  O  O27  1  0.02032600  0.24878800  0.22666900  1
  O  O28  1  0.47138400  0.21613900  0.95190100  1
  O  O29  1  0.97138400  0.78386100  0.54809900  1
  O  O30  1  0.52861600  0.78386100  0.04809900  1
  O  O31  1  0.02861600  0.21613900  0.45190100  1
  O  O32  1  0.90706500  0.59175600  0.21898600  1
  O  O33  1  0.40706500  0.40824400  0.28101400  1
  O  O34  1  0.09293500  0.40824400  0.78101400  1
  O  O35  1  0.59293500  0.59175600  0.71898600  1
  O  O36  1  0.75053700  0.30298800  0.21872700  1
  O  O37  1  0.25053700  0.69701200  0.28127300  1
  O  O38  1  0.24946300  0.69701200  0.78127300  1
  O  O39  1  0.74946300  0.30298800  0.71872700  1
  O  O40  1  0.69044800  0.40052000  0.46941300  1
  O  O41  1  0.19044800  0.59948000  0.03058700  1
  O  O42  1  0.30955200  0.59948000  0.53058700  1
  O  O43  1  0.80955200  0.40052000  0.96941300  1
  O  O44  1  0.72215300  0.73598700  0.29308400  1
  O  O45  1  0.22215300  0.26401300  0.20691600  1
  O  O46  1  0.27784700  0.26401300  0.70691600  1
  O  O47  1  0.77784700  0.73598700  0.79308400  1
  O  O48  1  0.87538800  0.41673000  0.42495800  1
  O  O49  1  0.37538800  0.58327000  0.07504200  1
  O  O50  1  0.12461200  0.58327000  0.57504200  1
  O  O51  1  0.62461200  0.41673000  0.92495800  1
  O  O52  1  0.05939000  0.64855000  0.33572500  1
  O  O53  1  0.55939000  0.35145000  0.16427500  1
  O  O54  1  0.94061000  0.35145000  0.66427500  1
  O  O55  1  0.66950000  0.06817900  0.10991900  1
loop_
_geom_bond_atom_site_label_1
_geom_bond_atom_site_label_2
_geom_bond_distance
_geom_bond_site_symmetry_2
Co0 O0 1.722827 1_655
Co0 O4 1.774318 1_555
Co0 O8 1.806165 1_556
Co0 O43 1.825619 1_555
Co1 O25 1.737512 1_455
Co1 O29 1.814466 1_455
Co1 O34 1.840086 1_555
Co1 O54 1.904974 1_455
Co1 O50 1.949615 1_555
Co2 O26 1.737512 1_555
Co2 O30 1.814466 1_555
Co2 O33 1.840086 1_555
Co2 O53 1.904974 1_555
Co2 O49 1.949615 1_555
Co3 O27 1.737512 1_655
Co3 O31 1.814466 1_655
Co3 O32 1.840086 1_555
Co3 O52 1.904974 1_655
Co3 O48 1.949615 1_555
Co4 O47 1.818159 1_555
Co4 O39 1.828142 1_555
Co4 O35 1.828589 1_555
Co4 O51 1.845838 1_555
Co4 O43 2.410329 1_555
Co5 O46 1.818159 1_555
Co5 O38 1.828142 1_555
Co5 O34 1.828589 1_555
Co5 O50 1.845838 1_555
Co5 O42 2.410329 1_555
Co6 O45 1.818159 1_555
Co6 O37 1.828142 1_555
Co6 O33 1.828589 1_555
Co6 O49 1.845838 1_555
Co6 O41 2.410329 1_555
Co7 O44 1.818159 1_555
Co7 O36 1.828142 1_555
Co7 O32 1.828589 1_555
Co7 O48 1.845838 1_555
Co7 O40 2.410329 1_555
Co8 O24 1.737512 1_555
Co8 O28 1.814466 1_555
Co8 O35 1.840086 1_555
Co8 O21 1.904974 1_555
Co8 O51 1.949615 1_555
Co9 O31 1.723204 1_555
Co9 O15 1.730685 1_555
Co9 O19 1.787679 1_555
Co9 O23 1.839909 1_545
Co10 O30 1.723204 1_555
Co10 O14 1.730685 1_555
Co10 O18 1.787679 1_554
Co10 O55 1.839909 1_565
Co11 O29 1.723204 1_555
Co11 O13 1.730685 1_555
Co11 O17 1.787679 1_555
Co11 O22 1.839909 1_565
Co12 O1 1.722827 1_555
Co12 O5 1.774318 1_555
Co12 O9 1.806165 1_555
Co12 O42 1.825619 1_555
Co13 O3 1.722827 1_555
Co13 O7 1.774318 1_555
Co13 O11 1.806165 1_555
Co13 O40 1.825619 1_555
Co14 O2 1.722827 1_455
Co14 O6 1.774318 1_555
Co14 O10 1.806165 1_554
Co14 O41 1.825619 1_555
Co15 O28 1.723204 1_555
Co15 O12 1.730685 1_555
Co15 O16 1.787679 1_556
Co15 O20 1.839909 1_545
Co16 O51 1.864649 1_554
Co16 O14 1.875018 1_555
Co16 O36 1.876737 1_555
Co16 O53 1.911593 1_555
Co16 O55 1.918400 1_555
Co16 O43 2.162501 1_554
Co17 O50 1.864649 1_555
Co17 O15 1.875018 1_555
Co17 O37 1.876737 1_555
Co17 O52 1.911593 1_555
Co17 O23 1.918400 1_555
Co17 O42 2.162501 1_555
Co18 O49 1.864649 1_556
Co18 O12 1.875018 1_555
Co18 O38 1.876737 1_555
Co18 O21 1.911593 1_555
Co18 O20 1.918400 1_555
Co18 O41 2.162501 1_556
Co19 O48 1.864649 1_555
Co19 O13 1.875018 1_555
Co19 O39 1.876737 1_555
Co19 O54 1.911593 1_555
Co19 O22 1.918400 1_555
Co19 O40 2.162501 1_555
Co20 O44 1.817556 1_545
Co20 O36 1.902371 1_555
Co20 O17 1.905789 1_545
Co20 O8 1.958578 1_555
Co20 O55 1.991737 1_555
Co20 O7 2.371838 1_555
Co21 O45 1.817556 1_565
Co21 O37 1.902371 1_555
Co21 O16 1.905789 1_565
Co21 O9 1.958578 1_555
Co21 O23 1.991737 1_555
Co21 O6 2.371838 1_555
Co22 O46 1.817556 1_565
Co22 O38 1.902371 1_555
Co22 O19 1.905789 1_565
Co22 O10 1.958578 1_555
Co22 O20 1.991737 1_555
Co22 O5 2.371838 1_555
Co23 O47 1.817556 1_545
Co23 O39 1.902371 1_555
Co23 O18 1.905789 1_545
Co23 O11 1.958578 1_555
Co23 O22 1.991737 1_555
Co23 O4 2.371838 1_555
O0 Zn3 1.987768 1_556
O1 Zn4 1.987768 1_555
O2 Zn1 1.987768 1_554
O3 Zn2 1.987768 1_555
O4 Zn1 2.085203 1_545
O5 Zn2 2.085203 1_565
O6 Zn3 2.085203 1_565
O7 Zn4 2.085203 1_545
O8 Zn5 2.084586 1_545
O9 Zn6 2.084586 1_565
O10 Zn7 2.084586 1_565
O11 Zn0 2.084586 1_545
O16 Zn6 2.115961 1_555
O17 Zn5 2.115961 1_555
O18 Zn0 2.115961 1_555
O19 Zn7 2.115961 1_555
O21 Zn0 2.032936 1_555
O24 Zn0 2.113842 1_545
O24 Zn2 2.146856 1_555
O25 Zn7 2.113842 1_665
O25 Zn1 2.146856 1_555
O26 Zn6 2.113842 1_565
O26 Zn4 2.146856 1_555
O27 Zn5 2.113842 1_445
O27 Zn3 2.146856 1_555
O40 Zn4 2.093044 1_555
O41 Zn3 2.093044 1_555
O42 Zn2 2.093044 1_555
O43 Zn1 2.093044 1_555
O44 Zn4 2.085849 1_555
O45 Zn3 2.085849 1_555
O46 Zn2 2.085849 1_555
O47 Zn1 2.085849 1_555
O52 Zn5 2.032936 1_455
O53 Zn6 2.032936 1_555
O54 Zn7 2.032936 1_655
