# generated using pymatgen
data_SmCu5Sn
_symmetry_space_group_name_H-M   'P 1'
_cell_length_a   5.03052400
_cell_length_b   8.25565500
_cell_length_c   10.56555300
_cell_angle_alpha   90.00000000
_cell_angle_beta   90.00000000
_cell_angle_gamma   90.00000000
_symmetry_Int_Tables_number   1
_chemical_formula_structural   SmCu5Sn
_chemical_formula_sum   'Sm4 Cu20 Sn4'
_cell_volume   438.79027527
_cell_formula_units_Z   4
loop_
 _symmetry_equiv_pos_site_id
 _symmetry_equiv_pos_as_xyz
  1  'x, y, z'
loop_
 _atom_site_type_symbol
 _atom_site_label
 _atom_site_symmetry_multiplicity
 _atom_site_fract_x
 _atom_site_fract_y
 _atom_site_fract_z
 _atom_site_occupancy
  Sm  Sm0  1  0.25000000  0.75366500  0.06124100  1
  Sm  Sm1  1  0.75000000  0.24633500  0.93875900  1
  Sm  Sm2  1  0.75000000  0.74633500  0.56124100  1
  Sm  Sm3  1  0.25000000  0.25366500  0.43875900  1
  Cu  Cu0  1  0.25000000  0.81472400  0.74561300  1
  Cu  Cu1  1  0.75000000  0.18527600  0.25438700  1
  Cu  Cu2  1  0.75000000  0.68527600  0.24561300  1
  Cu  Cu3  1  0.25000000  0.31472400  0.75438700  1
  Cu  Cu4  1  0.50166000  0.56578900  0.81265000  1
  Cu  Cu5  1  0.49834000  0.43421100  0.18735000  1
  Cu  Cu6  1  0.49834000  0.93421100  0.31265000  1
  Cu  Cu7  1  0.00166000  0.43421100  0.18735000  1
  Cu  Cu8  1  0.50166000  0.06578900  0.68735000  1
  Cu  Cu9  1  0.99834000  0.56578900  0.81265000  1
  Cu  Cu10  1  0.99834000  0.06578900  0.68735000  1
  Cu  Cu11  1  0.00166000  0.93421100  0.31265000  1
  Cu  Cu12  1  0.25000000  0.91417500  0.51692400  1
  Cu  Cu13  1  0.75000000  0.08582500  0.48307600  1
  Cu  Cu14  1  0.75000000  0.58582500  0.01692400  1
  Cu  Cu15  1  0.25000000  0.41417500  0.98307600  1
  Cu  Cu16  1  0.25000000  0.55989200  0.60350100  1
  Cu  Cu17  1  0.75000000  0.44010800  0.39649900  1
  Cu  Cu18  1  0.75000000  0.94010800  0.10350100  1
  Cu  Cu19  1  0.25000000  0.05989200  0.89649900  1
  Sn  Sn0  1  0.25000000  0.64087200  0.36052800  1
  Sn  Sn1  1  0.75000000  0.35912800  0.63947200  1
  Sn  Sn2  1  0.75000000  0.85912800  0.86052800  1
  Sn  Sn3  1  0.25000000  0.14087200  0.13947200  1
loop_
_geom_bond_atom_site_label_1
_geom_bond_atom_site_label_2
_geom_bond_distance
_geom_bond_site_symmetry_2
Sm0 Sn0 3.296389 1_555
Sm0 Sn3 3.301779 1_565
Sm0 Sn2 3.403194 1_454
Sm0 Sn2 3.403194 1_554
Sm1 Sn1 3.296389 1_555
Sm1 Sn2 3.301779 1_545
Sm1 Sn3 3.403194 1_556
Sm1 Sn3 3.403194 1_656
Sm2 Sn2 3.296389 1_555
Sm2 Sn1 3.301779 1_555
Sm2 Sn0 3.403194 1_555
Sm2 Sn0 3.403194 1_655
Sm3 Sn3 3.296389 1_555
Sm3 Sn0 3.301779 1_555
Sm3 Sn1 3.403194 1_555
Sm3 Sn1 3.403194 1_455
Cu0 Cu10 2.505546 1_465
Cu0 Cu8 2.505546 1_565
Cu0 Cu4 2.515531 1_555
Cu0 Cu9 2.515531 1_455
Cu0 Cu12 2.551910 1_555
Cu0 Cu19 2.576455 1_565
Cu0 Cu16 2.584661 1_555
Cu0 Sn2 2.816925 1_555
Cu0 Sn2 2.816925 1_455
Cu0 Sm2 3.231097 1_455
Cu0 Sm2 3.231097 1_555
Cu0 Sm0 3.372667 1_556
Cu1 Cu6 2.505546 1_545
Cu1 Cu11 2.505546 1_645
Cu1 Cu7 2.515531 1_655
Cu1 Cu5 2.515531 1_555
Cu1 Cu13 2.551910 1_555
Cu1 Cu18 2.576455 1_545
Cu1 Cu17 2.584661 1_555
Cu1 Sn3 2.816925 1_655
Cu1 Sn3 2.816925 1_555
Cu1 Sm3 3.231097 1_655
Cu1 Sm3 3.231097 1_555
Cu1 Sm1 3.372667 1_554
Cu2 Cu7 2.505546 1_655
Cu2 Cu5 2.505546 1_555
Cu2 Cu6 2.515531 1_555
Cu2 Sn0 2.816925 1_555
Cu2 Sn0 2.816925 1_655
Cu2 Sm0 3.231097 1_555
Cu2 Sm0 3.231097 1_655
Cu2 Sm2 3.372667 1_555
Cu3 Cu4 2.505546 1_555
Cu3 Cu9 2.505546 1_455
Cu3 Cu8 2.515531 1_555
Cu3 Sn1 2.816925 1_555
Cu3 Sn1 2.816925 1_455
Cu3 Sm1 3.231097 1_555
Cu3 Sm1 3.231097 1_455
Cu3 Sm3 3.372667 1_555
Cu4 Cu9 2.498561 1_555
Cu4 Cu9 2.531963 1_455
Cu4 Sn2 2.771507 1_555
Cu4 Sn1 2.796325 1_555
Cu4 Sm1 3.208019 1_555
Cu4 Sm2 3.292137 1_555
Cu4 Sm0 3.302566 1_556
Cu5 Cu7 2.498561 1_555
Cu5 Cu7 2.531963 1_655
Cu5 Sn3 2.771507 1_555
Cu5 Sn0 2.796325 1_555
Cu5 Sm0 3.208019 1_555
Cu5 Sm3 3.292137 1_555
Cu5 Sm1 3.302566 1_554
Cu6 Sn0 2.771507 1_555
Cu6 Sn3 2.796325 1_565
Cu6 Sm3 3.208019 1_565
Cu6 Sm0 3.292137 1_555
Cu6 Sm2 3.302566 1_555
Cu7 Sn3 2.771507 1_555
Cu7 Sn0 2.796325 1_555
Cu7 Sm0 3.208019 1_555
Cu7 Sm3 3.292137 1_555
Cu7 Sm1 3.302566 1_454
Cu8 Sn1 2.771507 1_555
Cu8 Sn2 2.796325 1_545
Cu8 Sm2 3.208019 1_545
Cu8 Sm1 3.292137 1_555
Cu8 Sm3 3.302566 1_555
Cu9 Sn2 2.771507 1_555
Cu9 Sn1 2.796325 1_555
Cu9 Sm1 3.208019 1_555
Cu9 Sm2 3.292137 1_555
Cu9 Sm0 3.302566 1_656
Cu10 Cu8 2.498561 1_555
Cu10 Cu13 2.499236 1_555
Cu10 Cu3 2.515531 1_655
Cu10 Cu8 2.531963 1_655
Cu10 Cu12 2.532137 1_645
Cu10 Cu19 2.547192 1_655
Cu10 Sn1 2.771507 1_555
Cu10 Sn2 2.796325 1_545
Cu10 Sm2 3.208019 1_545
Cu10 Sm1 3.292137 1_555
Cu10 Sm3 3.302566 1_655
Cu11 Cu6 2.498561 1_555
Cu11 Cu12 2.499236 1_555
Cu11 Cu2 2.515531 1_455
Cu11 Cu6 2.531963 1_455
Cu11 Cu13 2.532137 1_465
Cu11 Cu18 2.547192 1_455
Cu11 Sn0 2.771507 1_555
Cu11 Sn3 2.796325 1_565
Cu11 Sm3 3.208019 1_565
Cu11 Sm0 3.292137 1_555
Cu11 Sm2 3.302566 1_455
Cu12 Cu6 2.499236 1_555
Cu12 Cu8 2.532137 1_565
Cu12 Sn0 2.796664 1_555
Cu12 Sm2 2.909597 1_455
Cu12 Sm2 2.909597 1_555
Cu12 Sm3 2.921855 1_565
Cu12 Cu16 3.064542 1_555
Cu13 Cu8 2.499236 1_555
Cu13 Cu6 2.532137 1_545
Cu13 Sn1 2.796664 1_555
Cu13 Sm3 2.909597 1_655
Cu13 Sm3 2.909597 1_555
Cu13 Sm2 2.921855 1_545
Cu13 Cu17 3.064542 1_555
Cu14 Cu4 2.499236 1_554
Cu14 Cu9 2.499236 1_554
Cu14 Cu7 2.532137 1_655
Cu14 Cu5 2.532137 1_555
Cu14 Cu2 2.551910 1_555
Cu14 Sn2 2.796664 1_554
Cu14 Sm0 2.909597 1_555
Cu14 Sm0 2.909597 1_655
Cu14 Sm1 2.921855 1_554
Cu14 Cu18 3.064542 1_555
Cu15 Cu5 2.499236 1_556
Cu15 Cu7 2.499236 1_556
Cu15 Cu9 2.532137 1_455
Cu15 Cu4 2.532137 1_555
Cu15 Cu3 2.551910 1_555
Cu15 Sn3 2.796664 1_556
Cu15 Sm1 2.909597 1_555
Cu15 Sm1 2.909597 1_455
Cu15 Sm0 2.921855 1_556
Cu15 Cu19 3.064542 1_555
Cu16 Cu9 2.547192 1_455
Cu16 Cu4 2.547192 1_555
Cu16 Cu3 2.576455 1_555
Cu16 Sn0 2.652768 1_555
Cu16 Sm2 2.982460 1_555
Cu16 Sm2 2.982460 1_455
Cu16 Sn1 3.036130 1_555
Cu16 Sn1 3.036130 1_455
Cu16 Sm3 3.069359 1_555
Cu17 Cu7 2.547192 1_655
Cu17 Cu5 2.547192 1_555
Cu17 Cu2 2.576455 1_555
Cu17 Sn1 2.652768 1_555
Cu17 Sm3 2.982460 1_555
Cu17 Sm3 2.982460 1_655
Cu17 Sn0 3.036130 1_555
Cu17 Sn0 3.036130 1_655
Cu17 Sm2 3.069359 1_555
Cu18 Cu6 2.547192 1_555
Cu18 Cu2 2.584661 1_555
Cu18 Sn2 2.652768 1_554
Cu18 Sm0 2.982460 1_655
Cu18 Sm0 2.982460 1_555
Cu18 Sn3 3.036130 1_665
Cu18 Sn3 3.036130 1_565
Cu18 Sm1 3.069359 1_564
Cu19 Cu8 2.547192 1_555
Cu19 Cu3 2.584661 1_555
Cu19 Sn3 2.652768 1_556
Cu19 Sm1 2.982460 1_555
Cu19 Sm1 2.982460 1_455
Cu19 Sn2 3.036130 1_545
Cu19 Sn2 3.036130 1_445
Cu19 Sm0 3.069359 1_546
