# generated using pymatgen
data_Nd3Sm(GaO3)4
_symmetry_space_group_name_H-M   'P 1'
_cell_length_a   7.79251600
_cell_length_b   5.46171400
_cell_length_c   5.61136273
_cell_angle_alpha   89.92557440
_cell_angle_beta   90.00000000
_cell_angle_gamma   90.00000000
_symmetry_Int_Tables_number   1
_chemical_formula_structural   Nd3Sm(GaO3)4
_chemical_formula_sum   'Nd3 Sm1 Ga4 O12'
_cell_volume   238.82216699
_cell_formula_units_Z   1
loop_
 _symmetry_equiv_pos_site_id
 _symmetry_equiv_pos_as_xyz
  1  'x, y, z'
loop_
 _atom_site_type_symbol
 _atom_site_label
 _atom_site_symmetry_multiplicity
 _atom_site_fract_x
 _atom_site_fract_y
 _atom_site_fract_z
 _atom_site_occupancy
  Nd  Nd0  1  0.00000000  0.01329600  0.94772800  1
  Nd  Nd1  1  0.50000000  0.51320100  0.55135300  1
  Nd  Nd2  1  0.50000000  0.98616800  0.05294100  1
  Sm  Sm0  1  0.00000000  0.48547400  0.44425900  1
  Ga  Ga0  1  0.24901700  0.99969700  0.50007700  1
  Ga  Ga1  1  0.75071200  0.50026600  0.99915200  1
  Ga  Ga2  1  0.75098300  0.99969700  0.50007700  1
  Ga  Ga3  1  0.24928800  0.50026600  0.99915200  1
  O  O0  1  0.00000000  0.58773300  0.02761500  1
  O  O1  1  0.00000000  0.90544900  0.52333700  1
  O  O2  1  0.50000000  0.41237900  0.97651800  1
  O  O3  1  0.50000000  0.08699400  0.47815700  1
  O  O4  1  0.20201000  0.20900100  0.20820200  1
  O  O5  1  0.79976200  0.29446400  0.70452400  1
  O  O6  1  0.70373200  0.79344400  0.79401300  1
  O  O7  1  0.29613400  0.70778100  0.29308000  1
  O  O8  1  0.29626800  0.79344400  0.79401300  1
  O  O9  1  0.70386600  0.70778100  0.29308000  1
  O  O10  1  0.79799000  0.20900100  0.20820200  1
  O  O11  1  0.20023800  0.29446400  0.70452400  1
loop_
_geom_bond_atom_site_label_1
_geom_bond_atom_site_label_2
_geom_bond_distance
_geom_bond_site_symmetry_2
Nd0 O0 2.366565 1_546
Nd0 O10 2.400185 1_456
Nd0 O4 2.400185 1_556
Nd0 O1 2.453920 1_545
Nd0 O11 2.578748 1_555
Nd0 O5 2.578748 1_455
Nd0 O8 2.741989 1_545
Nd0 O6 2.741989 1_445
Nd1 O3 2.364304 1_555
Nd1 O7 2.397816 1_555
Nd1 O9 2.397816 1_555
Nd1 O2 2.447783 1_555
Nd1 O6 2.592817 1_555
Nd1 O8 2.592817 1_555
Nd1 O11 2.760391 1_555
Nd1 O5 2.760391 1_555
Nd2 O2 2.366466 1_564
Nd2 O6 2.396540 1_554
Nd2 O8 2.396540 1_554
Nd2 O3 2.449461 1_565
Nd2 O9 2.577988 1_555
Nd2 O7 2.577988 1_555
Nd2 O4 2.763170 1_565
Nd2 O10 2.763170 1_565
Ga0 O7 2.007678 1_555
Ga0 O1 2.011779 1_555
Ga0 O11 2.014273 1_565
Ga0 O3 2.016784 1_565
Ga0 O4 2.029426 1_565
Ga0 O8 2.029827 1_555
Ga1 O6 2.004571 1_555
Ga1 O0 2.006874 1_656
Ga1 O10 2.009379 1_556
Ga1 O2 2.015827 1_555
Ga1 O9 2.035435 1_556
Ga1 O5 2.036579 1_555
Ga2 O9 2.007678 1_555
Ga2 O1 2.011779 1_655
Ga2 O5 2.014273 1_565
Ga2 O3 2.016784 1_565
Ga2 O10 2.029426 1_565
Ga2 O6 2.029827 1_555
Ga3 O8 2.004571 1_555
Ga3 O0 2.006874 1_556
Ga3 O4 2.009379 1_556
Ga3 O2 2.015827 1_555
Ga3 O7 2.035435 1_556
Ga3 O11 2.036579 1_555
O0 Sm0 2.403020 1_555
O1 Sm0 2.336876 1_555
O4 Sm0 2.553021 1_555
O5 Sm0 2.377394 1_655
O7 Sm0 2.741596 1_555
O9 Sm0 2.741596 1_655
O10 Sm0 2.553021 1_655
O11 Sm0 2.377394 1_555
