# generated using pymatgen
data_K2BaNa2Ti4(SiO4)8
_symmetry_space_group_name_H-M   'P 1'
_cell_length_a   10.08523154
_cell_length_b   10.08523154
_cell_length_c   7.86619856
_cell_angle_alpha   70.55125357
_cell_angle_beta   70.55125357
_cell_angle_gamma   88.59095315
_symmetry_Int_Tables_number   1
_chemical_formula_structural   K2BaNa2Ti4(SiO4)8
_chemical_formula_sum   'K2 Ba1 Na2 Ti4 Si8 O32'
_cell_volume   708.02783987
_cell_formula_units_Z   1
loop_
 _symmetry_equiv_pos_site_id
 _symmetry_equiv_pos_as_xyz
  1  'x, y, z'
loop_
 _atom_site_type_symbol
 _atom_site_label
 _atom_site_symmetry_multiplicity
 _atom_site_fract_x
 _atom_site_fract_y
 _atom_site_fract_z
 _atom_site_occupancy
  K  K0  1  0.58147200  0.58147200  0.68752900  1
  K  K1  1  0.41994200  0.41994200  0.29717300  1
  Ba  Ba0  1  0.91305800  0.91305800  0.36717900  1
  Na  Na0  1  0.68918200  0.19036100  0.96758400  1
  Na  Na1  1  0.19036100  0.68918200  0.96758400  1
  Ti  Ti0  1  0.99368700  0.47895800  0.50196400  1
  Ti  Ti1  1  0.47895800  0.99368700  0.50196400  1
  Ti  Ti2  1  0.23204200  0.77600300  0.49721800  1
  Ti  Ti3  1  0.77600300  0.23204200  0.49721800  1
  Si  Si0  1  0.88979500  0.66607600  0.80844800  1
  Si  Si1  1  0.66607600  0.88979500  0.80844800  1
  Si  Si2  1  0.31809500  0.10179000  0.19036700  1
  Si  Si3  1  0.10179000  0.31809500  0.19036700  1
  Si  Si4  1  0.78880900  0.56648400  0.24944500  1
  Si  Si5  1  0.56648400  0.78880900  0.24944500  1
  Si  Si6  1  0.43992700  0.21826400  0.73906400  1
  Si  Si7  1  0.21826400  0.43992700  0.73906400  1
  O  O0  1  0.02813500  0.77541700  0.65450200  1
  O  O1  1  0.77541700  0.02813500  0.65450200  1
  O  O2  1  0.20365800  0.96165400  0.31303400  1
  O  O3  1  0.96165400  0.20365800  0.31303400  1
  O  O4  1  0.11790000  0.68136400  0.39003400  1
  O  O5  1  0.68136400  0.11790000  0.39003400  1
  O  O6  1  0.31253400  0.88314500  0.59729000  1
  O  O7  1  0.88314500  0.31253400  0.59729000  1
  O  O8  1  0.75160900  0.39749000  0.30814600  1
  O  O9  1  0.39749000  0.75160900  0.30814600  1
  O  O10  1  0.60720300  0.24905700  0.69938400  1
  O  O11  1  0.24905700  0.60720300  0.69938400  1
  O  O12  1  0.85817700  0.60242800  0.39048800  1
  O  O13  1  0.60242800  0.85817700  0.39048800  1
  O  O14  1  0.41602900  0.14530600  0.59474200  1
  O  O15  1  0.14530600  0.41602900  0.59474200  1
  O  O16  1  0.63641900  0.63641900  0.27153100  1
  O  O17  1  0.37479500  0.37479500  0.69641800  1
  O  O18  1  0.89478100  0.63787800  0.02328600  1
  O  O19  1  0.63787800  0.89478100  0.02328600  1
  O  O20  1  0.36215200  0.12250600  0.96347600  1
  O  O21  1  0.12250600  0.36215200  0.96347600  1
  O  O22  1  0.74998500  0.74998500  0.78065300  1
  O  O23  1  0.24409400  0.24409400  0.22240800  1
  O  O24  1  0.88980200  0.52669000  0.74752500  1
  O  O25  1  0.52669000  0.88980200  0.74752500  1
  O  O26  1  0.45782600  0.09285100  0.25372600  1
  O  O27  1  0.09285100  0.45782600  0.25372600  1
  O  O28  1  0.14139000  0.84339900  0.14028700  1
  O  O29  1  0.84339900  0.14139000  0.14028700  1
  O  O30  1  0.68842000  0.42596100  0.98219400  1
  O  O31  1  0.42596100  0.68842000  0.98219400  1
loop_
_geom_bond_atom_site_label_1
_geom_bond_atom_site_label_2
_geom_bond_distance
_geom_bond_site_symmetry_2
K0 O22 2.848380 1_555
K0 O30 2.855974 1_555
K0 O31 2.855974 1_555
K0 O12 2.941066 1_555
K0 O13 2.941066 1_555
K0 O17 2.951910 1_555
K0 O16 2.987010 1_555
K1 O23 2.860082 1_555
K1 O17 2.895400 1_555
K1 O14 2.962883 1_555
K1 O15 2.962883 1_555
K1 O31 2.985708 1_554
K1 O30 2.985708 1_554
K1 O16 3.036692 1_555
Ba0 O28 2.645801 1_655
Ba0 O29 2.645801 1_565
Ba0 O0 2.821414 1_655
Ba0 O1 2.821414 1_565
Ba0 O2 2.848050 1_655
Ba0 O3 2.848050 1_565
Ba0 O22 2.999493 1_555
Ba0 O4 3.080659 1_655
Ba0 O5 3.080659 1_565
Ba0 O13 3.128807 1_555
Ba0 O12 3.128807 1_555
Na0 O29 2.330442 1_556
Na0 O10 2.406387 1_555
Na0 O30 2.416482 1_555
Na0 O26 2.572755 1_556
Na0 O7 2.786273 1_555
Na0 O19 2.898464 1_546
Na1 O28 2.330442 1_556
Na1 O11 2.406387 1_555
Na1 O31 2.416482 1_555
Na1 O27 2.572755 1_556
Na1 O6 2.786273 1_555
Na1 O18 2.898464 1_456
O0 Si0 1.640218 1_455
O0 Ti2 2.015233 1_555
O1 Si1 1.640218 1_545
O1 Ti3 2.015233 1_555
O2 Si2 1.640420 1_565
O2 Ti2 2.032253 1_555
O3 Si3 1.640420 1_655
O3 Ti3 2.032253 1_555
O4 Ti2 2.045300 1_555
O4 Ti0 2.169300 1_455
O5 Ti3 2.045300 1_555
O5 Ti1 2.169300 1_545
O6 Ti1 1.821943 1_555
O6 Ti2 1.865840 1_555
O7 Ti0 1.821943 1_555
O7 Ti3 1.865840 1_555
O8 Si4 1.628117 1_555
O8 Ti3 1.904617 1_555
O9 Si5 1.628117 1_555
O9 Ti2 1.904617 1_555
O10 Si6 1.628022 1_555
O10 Ti3 1.954755 1_555
O11 Si7 1.628022 1_555
O11 Ti2 1.954755 1_555
O12 Si4 1.627558 1_555
O12 Ti0 2.043151 1_555
O13 Si5 1.627558 1_555
O13 Ti1 2.043151 1_555
O14 Si6 1.623427 1_555
O14 Ti1 1.913263 1_545
O15 Si7 1.623427 1_555
O15 Ti0 1.913263 1_455
O16 Si5 1.655341 1_555
O16 Si4 1.655341 1_555
O17 Si7 1.667104 1_555
O17 Si6 1.667104 1_555
O18 Si0 1.635606 1_554
O18 Si4 1.656576 1_555
O19 Si1 1.635606 1_554
O19 Si5 1.656576 1_555
O20 Si6 1.626038 1_555
O20 Si2 1.629306 1_556
O21 Si7 1.626038 1_555
O21 Si3 1.629306 1_556
O22 Si0 1.665976 1_555
O22 Si1 1.665976 1_555
O23 Si2 1.656250 1_555
O23 Si3 1.656250 1_555
O24 Si0 1.629221 1_555
O24 Ti0 2.075415 1_555
O25 Si1 1.629221 1_555
O25 Ti1 2.075415 1_555
O26 Si2 1.635227 1_555
O26 Ti1 1.955705 1_545
O27 Si3 1.635227 1_555
O27 Ti0 1.955705 1_455
