# generated using pymatgen
data_SnC8(S3N)2
_symmetry_space_group_name_H-M   'P 1'
_cell_length_a   14.08907971
_cell_length_b   14.08907971
_cell_length_c   9.55705522
_cell_angle_alpha   85.73861213
_cell_angle_beta   85.73861213
_cell_angle_gamma   57.14793763
_symmetry_Int_Tables_number   1
_chemical_formula_structural   SnC8(S3N)2
_chemical_formula_sum   'Sn4 C32 S24 N8'
_cell_volume   1587.98610743
_cell_formula_units_Z   4
loop_
 _symmetry_equiv_pos_site_id
 _symmetry_equiv_pos_as_xyz
  1  'x, y, z'
loop_
 _atom_site_type_symbol
 _atom_site_label
 _atom_site_symmetry_multiplicity
 _atom_site_fract_x
 _atom_site_fract_y
 _atom_site_fract_z
 _atom_site_occupancy
  Sn  Sn0  1  0.00000000  0.00000000  0.00000000  1
  Sn  Sn1  1  0.50000000  0.50000000  0.00000000  1
  Sn  Sn2  1  0.00000000  0.50000000  0.50000000  1
  Sn  Sn3  1  0.50000000  0.00000000  0.50000000  1
  C  C0  1  0.92924800  0.79813700  0.58176400  1
  C  C1  1  0.79813700  0.92924800  0.58176400  1
  C  C2  1  0.07075200  0.20186300  0.41823600  1
  C  C3  1  0.20186300  0.07075200  0.41823600  1
  C  C4  1  0.87877000  0.87877000  0.69169900  1
  C  C5  1  0.12123000  0.12123000  0.30830100  1
  C  C6  1  0.83281300  0.83281300  0.50299400  1
  C  C7  1  0.16718700  0.16718700  0.49700600  1
  C  C8  1  0.55701900  0.72970000  0.47288000  1
  C  C9  1  0.72970000  0.55701900  0.47288000  1
  C  C10  1  0.44298100  0.27030000  0.52712000  1
  C  C11  1  0.27030000  0.44298100  0.52712000  1
  C  C12  1  0.65718800  0.65718800  0.56390300  1
  C  C13  1  0.34281200  0.34281200  0.43609700  1
  C  C14  1  0.60987600  0.60987600  0.44447400  1
  C  C15  1  0.39012400  0.39012400  0.55552600  1
  C  C16  1  0.90130600  0.48689800  0.87546700  1
  C  C17  1  0.48689800  0.90130600  0.87546700  1
  C  C18  1  0.09869400  0.51310200  0.12453300  1
  C  C19  1  0.51310200  0.09869400  0.12453300  1
  C  C20  1  0.87799300  0.39910700  0.11645000  1
  C  C21  1  0.39910700  0.87799300  0.11645000  1
  C  C22  1  0.12200700  0.60089300  0.88355000  1
  C  C23  1  0.60089300  0.12200700  0.88355000  1
  C  C24  1  0.86135000  0.32937100  0.95126200  1
  C  C25  1  0.32937100  0.86135000  0.95126200  1
  C  C26  1  0.13865000  0.67062900  0.04873800  1
  C  C27  1  0.67062900  0.13865000  0.04873800  1
  C  C28  1  0.89086100  0.41522100  0.96017500  1
  C  C29  1  0.41522100  0.89086100  0.96017500  1
  C  C30  1  0.10913900  0.58477900  0.03982500  1
  C  C31  1  0.58477900  0.10913900  0.03982500  1
  S  S0  1  0.90753100  0.22381500  0.84711000  1
  S  S1  1  0.22381500  0.90753100  0.84711000  1
  S  S2  1  0.09246900  0.77618500  0.15289000  1
  S  S3  1  0.77618500  0.09246900  0.15289000  1
  S  S4  1  0.89788600  0.89788600  0.85132800  1
  S  S5  1  0.10211400  0.10211400  0.14867200  1
  S  S6  1  0.27174000  0.66796600  0.80667600  1
  S  S7  1  0.66796600  0.27174000  0.80667600  1
  S  S8  1  0.72826000  0.33203400  0.19332400  1
  S  S9  1  0.33203400  0.72826000  0.19332400  1
  S  S10  1  0.58951300  0.58951300  0.94212900  1
  S  S11  1  0.41048700  0.41048700  0.05787100  1
  S  S12  1  0.14957900  0.56524900  0.53027000  1
  S  S13  1  0.56524900  0.14957900  0.53027000  1
  S  S14  1  0.85042100  0.43475100  0.46973000  1
  S  S15  1  0.43475100  0.85042100  0.46973000  1
  S  S16  1  0.11808900  0.32559300  0.68072700  1
  S  S17  1  0.32559300  0.11808900  0.68072700  1
  S  S18  1  0.88191100  0.67440700  0.31927300  1
  S  S19  1  0.67440700  0.88191100  0.31927300  1
  S  S20  1  0.10076500  0.41536600  0.21696100  1
  S  S21  1  0.41536600  0.10076500  0.21696100  1
  S  S22  1  0.89923500  0.58463400  0.78303900  1
  S  S23  1  0.58463400  0.89923500  0.78303900  1
  N  N0  1  0.79977600  0.79977600  0.40363600  1
  N  N1  1  0.20022400  0.20022400  0.59636400  1
  N  N2  1  0.59831500  0.59831500  0.60492300  1
  N  N3  1  0.40168500  0.40168500  0.39507700  1
  N  N4  1  0.81869200  0.34871500  0.09339900  1
  N  N5  1  0.34871500  0.81869200  0.09339900  1
  N  N6  1  0.18130800  0.65128500  0.90660100  1
  N  N7  1  0.65128500  0.18130800  0.90660100  1
loop_
_geom_bond_atom_site_label_1
_geom_bond_atom_site_label_2
_geom_bond_distance
_geom_bond_site_symmetry_2
C0 C6 1.424287 1_555
C0 C4 1.445693 1_555
C1 C6 1.424287 1_555
C1 C4 1.445693 1_555
C2 C7 1.424287 1_555
C2 C5 1.445693 1_555
C3 C7 1.424287 1_555
C3 C5 1.445693 1_555
C4 S4 1.635023 1_555
C5 S5 1.635023 1_555
C6 N0 1.304384 1_555
C7 N1 1.304384 1_555
C8 S15 1.637850 1_555
C8 N2 1.987720 1_555
C9 S14 1.637850 1_555
C9 N2 1.987720 1_555
C10 C15 1.467104 1_555
C10 C13 1.509403 1_555
C10 S13 1.637850 1_555
C10 N3 1.987720 1_555
C11 C15 1.467104 1_555
C11 C13 1.509403 1_555
C11 S12 1.637850 1_555
C11 N3 1.987720 1_555
C12 N2 1.476321 1_555
C12 C8 1.509403 1_555
C12 C9 1.509403 1_555
C12 C14 1.702836 1_555
C13 N3 1.476321 1_555
C13 C15 1.702836 1_555
C14 C8 1.467104 1_555
C14 C9 1.467104 1_555
C14 N2 1.535899 1_555
C15 N3 1.535899 1_555
C16 C28 1.311067 1_555
C16 S22 1.567408 1_555
C17 C29 1.311067 1_555
C17 S23 1.567408 1_555
C18 C30 1.311067 1_555
C18 S20 1.567408 1_555
C19 C31 1.311067 1_555
C19 S21 1.567408 1_555
C20 N4 1.394569 1_555
C20 C28 1.506342 1_554
C21 N5 1.394569 1_555
C21 C29 1.506342 1_554
C22 N6 1.394569 1_555
C22 C30 1.506342 1_556
C23 N7 1.394569 1_555
C23 C31 1.506342 1_556
C24 N4 1.427147 1_556
C24 C28 1.486385 1_555
C24 S0 1.643101 1_555
C25 N5 1.427147 1_556
C25 C29 1.486385 1_555
C25 S1 1.643101 1_555
C26 N6 1.427147 1_554
C26 C30 1.486385 1_555
C26 S2 1.643101 1_555
C27 N7 1.427147 1_554
C27 C31 1.486385 1_555
C27 S3 1.643101 1_555
S0 Sn0 2.986124 1_656
S1 Sn0 2.986124 1_566
S2 Sn0 2.986124 1_565
S3 Sn0 2.986124 1_655
S4 Sn0 3.001962 1_666
S5 Sn0 3.001962 1_555
S10 Sn1 2.237235 1_556
S11 Sn1 2.237235 1_555
S12 Sn2 2.757193 1_555
S13 Sn3 2.757193 1_555
S14 Sn2 2.757193 1_655
S15 Sn3 2.757193 1_565
S16 Sn2 2.673984 1_555
S17 Sn3 2.673984 1_555
S18 Sn2 2.673984 1_655
S19 Sn3 2.673984 1_565
S20 Sn2 2.970939 1_555
S21 Sn3 2.970939 1_555
S22 Sn2 2.970939 1_655
S23 Sn3 2.970939 1_565
N0 S18 1.721763 1_555
N0 S19 1.721763 1_555
N1 S17 1.721763 1_555
N1 S16 1.721763 1_555
N4 S8 1.643555 1_555
N5 S9 1.643555 1_555
N6 S6 1.643555 1_555
N7 S7 1.643555 1_555
