# generated using pymatgen
data_Ba6CaNb2Ir(ClO6)2
_symmetry_space_group_name_H-M   'P 1'
_cell_length_a   6.23028915
_cell_length_b   5.95773615
_cell_length_c   15.82345669
_cell_angle_alpha   90.75275796
_cell_angle_beta   81.60543374
_cell_angle_gamma   118.68816277
_symmetry_Int_Tables_number   1
_chemical_formula_structural   Ba6CaNb2Ir(ClO6)2
_chemical_formula_sum   'Ba6 Ca1 Nb2 Ir1 Cl2 O12'
_cell_volume   508.62413125
_cell_formula_units_Z   1
loop_
 _symmetry_equiv_pos_site_id
 _symmetry_equiv_pos_as_xyz
  1  'x, y, z'
loop_
 _atom_site_type_symbol
 _atom_site_label
 _atom_site_symmetry_multiplicity
 _atom_site_fract_x
 _atom_site_fract_y
 _atom_site_fract_z
 _atom_site_occupancy
  Ba  Ba0  1  0.41524307  0.70507975  0.36850657  1
  Ba  Ba1  1  0.17060624  0.59795229  0.77631229  1
  Ba  Ba2  1  0.56684277  0.28738074  0.63573857  1
  Ba  Ba3  1  0.47331277  0.25945271  0.87943632  1
  Ba  Ba4  1  0.46319950  0.72531638  0.11424197  1
  Ba  Ba5  1  0.79254245  0.38941968  0.23446623  1
  Ca  Ca0  1  0.88872785  0.43749759  0.01660369  1
  Nb  Nb0  1  0.82163105  0.92355343  0.81314229  1
  Nb  Nb1  1  0.15216120  0.06893673  0.19176247  1
  Ir  Ir0  1  0.98592894  0.98099662  0.00521160  1
  Cl  Cl0  1  0.62130800  0.31193235  0.42981882  1
  Cl  Cl1  1  0.35968813  0.68192254  0.57518473  1
  O  O0  1  0.95312723  0.19815305  0.90950824  1
  O  O1  1  0.19855929  0.09270925  0.76003080  1
  O  O2  1  0.23830309  0.37366447  0.25377731  1
  O  O3  1  0.74685262  0.62708591  0.74735757  1
  O  O4  1  0.75295968  0.14140805  0.74812557  1
  O  O5  1  0.04594094  0.77939357  0.09960604  1
  O  O6  1  0.25280372  0.87916813  0.25721155  1
  O  O7  1  0.50270638  0.24772419  0.11272747  1
  O  O8  1  0.04392687  0.24290923  0.09505845  1
  O  O9  1  0.49752343  0.75614183  0.88579519  1
  O  O10  1  0.79320533  0.89307358  0.24457947  1
  O  O11  1  0.92956648  0.73246092  0.91276079  1
loop_
_geom_bond_atom_site_label_1
_geom_bond_atom_site_label_2
_geom_bond_distance
_geom_bond_site_symmetry_2
Ba0 O6 2.603360 1_555
Ba0 O2 2.609590 1_555
Ba0 O10 2.611938 1_555
Ba0 Cl1 3.235678 1_555
Ba0 Cl0 3.374340 1_555
Ba0 Cl0 3.387652 1_565
Ba1 O9 2.679986 1_555
Ba1 O11 2.778908 1_455
Ba1 O4 2.807104 1_455
Ba1 O3 2.829387 1_455
Ba1 O0 2.854988 1_455
Ba1 O1 2.880839 1_565
Ba1 O1 3.102782 1_555
Ba1 Cl1 3.185578 1_555
Ba2 O1 2.581731 1_555
Ba2 O3 2.603564 1_555
Ba2 O4 2.621897 1_555
Ba2 Cl0 3.224206 1_555
Ba2 Cl1 3.375796 1_545
Ba2 Cl1 3.382592 1_555
Ba3 O1 2.597951 1_555
Ba3 O3 2.750657 1_555
Ba3 O4 2.815736 1_555
Ba3 O9 2.890929 1_555
Ba3 O11 3.001267 1_555
Ba3 O0 3.046507 1_455
Ba3 Ir0 3.069111 1_446
Ba3 O9 3.077507 1_545
Ba3 O0 3.280896 1_555
Ba3 O11 3.304893 1_445
Ba4 O2 2.761770 1_555
Ba4 O5 2.810237 1_555
Ba4 O6 2.812390 1_555
Ba4 O8 2.859468 1_555
Ba4 O10 2.947994 1_555
Ba4 O7 2.970887 1_555
Ba4 O7 3.002121 1_565
Ba4 Ir0 3.093359 1_555
Ba5 O7 2.682076 1_555
Ba5 O5 2.840638 1_655
Ba5 O2 2.883389 1_655
Ba5 O8 2.886885 1_655
Ba5 O10 2.965537 1_545
Ba5 O10 3.000854 1_555
Ba5 O6 3.017735 1_655
Ba5 Cl0 3.083548 1_555
Ba5 O6 3.246481 1_545
Ba5 O2 3.377480 1_555
Ca0 O5 2.285444 1_655
Ca0 O8 2.298830 1_655
Ca0 O0 2.313727 1_554
Ca0 O11 2.318915 1_554
Ca0 O7 2.396330 1_555
Nb0 O4 1.903364 1_565
Nb0 O3 1.929660 1_555
Nb0 O9 1.952594 1_555
Nb0 O1 2.100140 1_665
Nb0 O0 2.164533 1_565
Nb0 O11 2.307550 1_555
Nb1 O6 1.909169 1_545
Nb1 O2 1.928330 1_555
Nb1 O10 2.006329 1_445
Nb1 O7 2.114827 1_555
Nb1 O5 2.158646 1_545
Nb1 O8 2.210089 1_555
Ir0 O11 2.012395 1_554
Ir0 O8 2.033962 1_665
Ir0 O0 2.098701 1_564
Ir0 O5 2.110631 1_655
