# generated using pymatgen
data_SrMnO3
_symmetry_space_group_name_H-M   'P 1'
_cell_length_a   5.45233120
_cell_length_b   5.45233131
_cell_length_c   9.09318312
_cell_angle_alpha   90.00000347
_cell_angle_beta   89.99999533
_cell_angle_gamma   120.00007155
_symmetry_Int_Tables_number   1
_chemical_formula_structural   SrMnO3
_chemical_formula_sum   'Sr4 Mn4 O12'
_cell_volume   234.10501794
_cell_formula_units_Z   4
loop_
 _symmetry_equiv_pos_site_id
 _symmetry_equiv_pos_as_xyz
  1  'x, y, z'
loop_
 _atom_site_type_symbol
 _atom_site_label
 _atom_site_symmetry_multiplicity
 _atom_site_fract_x
 _atom_site_fract_y
 _atom_site_fract_z
 _atom_site_occupancy
  Sr  Sr0  1  0.33333356  0.66666703  0.24860604  1
  Sr  Sr1  1  0.66666623  0.33333402  0.74860618  1
  Sr  Sr2  1  -0.00000026  0.00000036  0.49783367  1
  Sr  Sr3  1  -0.00000047  -0.00000017  0.99783340  1
  Mn  Mn0  1  0.33333370  0.66666669  0.88570961  1
  Mn  Mn1  1  0.66666650  0.33333292  0.11207563  1
  Mn  Mn2  1  0.66666642  0.33333364  0.38570820  1
  Mn  Mn3  1  0.33333346  0.66666736  0.61207482  1
  O  O0  1  0.50001164  0.49997863  0.49898311  1
  O  O1  1  0.50002112  0.00003343  0.49898296  1
  O  O2  1  -0.00003344  0.49998850  0.49898319  1
  O  O3  1  0.49997805  0.50001246  0.99898336  1
  O  O4  1  0.49998792  -0.00003405  0.99898292  1
  O  O5  1  0.00003390  0.50002208  0.99898288  1
  O  O6  1  0.18109154  0.36219079  0.74894678  1
  O  O7  1  0.63780941  0.81890003  0.74894678  1
  O  O8  1  0.18110048  0.81890869  0.74894690  1
  O  O9  1  0.81889983  0.63780896  0.24894688  1
  O  O10  1  0.36219120  0.18109150  0.24894680  1
  O  O11  1  0.81890821  0.18110014  0.24894690  1
loop_
_geom_bond_atom_site_label_1
_geom_bond_atom_site_label_2
_geom_bond_distance
_geom_bond_site_symmetry_2
Mn0 O4 1.880890 1_565
Mn0 O3 1.880891 1_555
Mn0 O5 1.880892 1_555
Mn0 O8 1.900924 1_555
Mn0 O7 1.900925 1_555
Mn0 O6 1.900926 1_555
Mn1 O4 1.880259 1_554
Mn1 O5 1.880261 1_654
Mn1 O3 1.880262 1_554
Mn1 O11 1.901567 1_555
Mn1 O10 1.901568 1_555
Mn1 O9 1.901571 1_555
Mn2 O1 1.880901 1_555
Mn2 O0 1.880901 1_555
Mn2 O2 1.880902 1_655
Mn2 O9 1.900915 1_555
Mn2 O10 1.900915 1_555
Mn2 O11 1.900916 1_555
Mn3 O1 1.880251 1_565
Mn3 O2 1.880253 1_555
Mn3 O0 1.880255 1_555
Mn3 O8 1.901571 1_555
Mn3 O7 1.901575 1_555
Mn3 O6 1.901578 1_555
O0 Sr2 2.726156 1_555
O0 Sr2 2.726210 1_665
O0 Sr1 2.762087 1_555
O0 Sr0 2.767905 1_555
O1 Sr2 2.726159 1_655
O1 Sr2 2.726212 1_555
O1 Sr1 2.762091 1_555
O1 Sr0 2.767902 1_545
O2 Sr2 2.726160 1_565
O2 Sr2 2.726211 1_555
O2 Sr1 2.762088 1_455
O2 Sr0 2.767905 1_555
O3 Sr3 2.726159 1_555
O3 Sr3 2.726207 1_665
O3 Sr0 2.762083 1_556
O3 Sr1 2.767906 1_555
O4 Sr3 2.726157 1_655
O4 Sr3 2.726215 1_555
O4 Sr0 2.762085 1_546
O4 Sr1 2.767905 1_555
O5 Sr3 2.726158 1_565
O5 Sr3 2.726213 1_555
O5 Sr0 2.762088 1_556
O5 Sr1 2.767904 1_455
O6 Sr1 2.729553 1_455
O6 Sr1 2.729587 1_555
O6 Sr3 2.836684 1_555
O6 Sr2 2.852861 1_555
O7 Sr1 2.729540 1_555
O7 Sr1 2.729601 1_565
O7 Sr3 2.836681 1_665
O7 Sr2 2.852860 1_665
O8 Sr1 2.729544 1_565
O8 Sr1 2.729592 1_455
O8 Sr3 2.836687 1_565
O8 Sr2 2.852869 1_565
O9 Sr0 2.729545 1_555
O9 Sr0 2.729596 1_655
O9 Sr2 2.836686 1_665
O9 Sr3 2.852865 1_664
O10 Sr0 2.729547 1_545
O10 Sr0 2.729595 1_555
O10 Sr2 2.836687 1_555
O10 Sr3 2.852866 1_554
O11 Sr0 2.729547 1_655
O11 Sr0 2.729589 1_545
O11 Sr2 2.836687 1_655
O11 Sr3 2.852868 1_654
