# generated using pymatgen
data_RbFeN
_symmetry_space_group_name_H-M   'P 1'
_cell_length_a   10.76312500
_cell_length_b   3.54616200
_cell_length_c   6.60890200
_cell_angle_alpha   90.00000000
_cell_angle_beta   90.00000000
_cell_angle_gamma   90.00000000
_symmetry_Int_Tables_number   1
_chemical_formula_structural   RbFeN
_chemical_formula_sum   'Rb4 Fe4 N4'
_cell_volume   252.24714980
_cell_formula_units_Z   4
loop_
 _symmetry_equiv_pos_site_id
 _symmetry_equiv_pos_as_xyz
  1  'x, y, z'
loop_
 _atom_site_type_symbol
 _atom_site_label
 _atom_site_symmetry_multiplicity
 _atom_site_fract_x
 _atom_site_fract_y
 _atom_site_fract_z
 _atom_site_occupancy
  Rb  Rb0  1  0.66706500  0.25000000  0.07151100  1
  Rb  Rb1  1  0.16706500  0.25000000  0.42848900  1
  Rb  Rb2  1  0.33293500  0.75000000  0.92848900  1
  Rb  Rb3  1  0.83293500  0.75000000  0.57151100  1
  Fe  Fe0  1  0.53873700  0.25000000  0.59511500  1
  Fe  Fe1  1  0.03873700  0.25000000  0.90488500  1
  Fe  Fe2  1  0.46126300  0.75000000  0.40488500  1
  Fe  Fe3  1  0.96126300  0.75000000  0.09511500  1
  N  N0  1  0.94443200  0.25000000  0.14060800  1
  N  N1  1  0.44443200  0.25000000  0.35939200  1
  N  N2  1  0.05556800  0.75000000  0.85939200  1
  N  N3  1  0.55556800  0.75000000  0.64060800  1
loop_
_geom_bond_atom_site_label_1
_geom_bond_atom_site_label_2
_geom_bond_distance
_geom_bond_site_symmetry_2
Fe0 N3 1.807492 1_555
Fe0 N3 1.807492 1_545
Fe0 N1 1.859360 1_555
Fe1 N2 1.807492 1_545
Fe1 N2 1.807492 1_555
Fe1 N0 1.859360 1_456
Fe2 N1 1.807492 1_555
Fe2 N1 1.807492 1_565
Fe2 N3 1.859360 1_555
Fe3 N0 1.807492 1_565
Fe3 N0 1.807492 1_555
Fe3 N2 1.859360 1_654
N0 Rb0 3.020060 1_555
N0 Rb1 3.059690 1_655
N1 Rb1 3.020060 1_555
N1 Rb0 3.059690 1_555
N2 Rb2 3.020060 1_555
N2 Rb3 3.059690 1_455
N3 Rb3 3.020060 1_555
N3 Rb2 3.059690 1_555
