# generated using pymatgen
data_Li2TeO4
_symmetry_space_group_name_H-M   'P 1'
_cell_length_a   6.02607640
_cell_length_b   6.02607640
_cell_length_c   8.25292853
_cell_angle_alpha   90.00000000
_cell_angle_beta   90.00000000
_cell_angle_gamma   90.00000000
_symmetry_Int_Tables_number   1
_chemical_formula_structural   Li2TeO4
_chemical_formula_sum   'Li8 Te4 O16'
_cell_volume   299.69351888
_cell_formula_units_Z   4
loop_
 _symmetry_equiv_pos_site_id
 _symmetry_equiv_pos_as_xyz
  1  'x, y, z'
loop_
 _atom_site_type_symbol
 _atom_site_label
 _atom_site_symmetry_multiplicity
 _atom_site_fract_x
 _atom_site_fract_y
 _atom_site_fract_z
 _atom_site_occupancy
  Li  Li0  1  0.74603733  0.74603733  0.87500000  1
  Li  Li1  1  0.25396267  0.74603733  0.12500000  1
  Li  Li2  1  0.74603733  0.25396267  0.62500000  1
  Li  Li3  1  0.25396267  0.25396267  0.37500000  1
  Li  Li4  1  0.70644815  0.50000000  0.25000000  1
  Li  Li5  1  0.50000000  0.29355185  0.00000000  1
  Li  Li6  1  0.50000000  0.70644815  0.50000000  1
  Li  Li7  1  0.29355185  0.50000000  0.75000000  1
  Te  Te0  1  -0.00000000  0.72939468  0.50000000  1
  Te  Te1  1  0.27060532  -0.00000000  0.75000000  1
  Te  Te2  1  0.72939468  -0.00000000  0.25000000  1
  Te  Te3  1  -0.00000000  0.27060532  0.00000000  1
  O  O0  1  0.22478961  0.98009515  0.51500057  1
  O  O1  1  0.77521039  0.98009515  0.48499943  1
  O  O2  1  0.01990485  0.22478961  0.76500057  1
  O  O3  1  0.77521039  0.01990485  0.01500057  1
  O  O4  1  0.23179578  0.47022843  0.00521457  1
  O  O5  1  0.52977157  0.23179578  0.25521457  1
  O  O6  1  0.47022843  0.76820422  0.75521457  1
  O  O7  1  0.23179578  0.52977157  0.49478543  1
  O  O8  1  0.76820422  0.47022843  0.99478543  1
  O  O9  1  0.76820422  0.52977157  0.50521457  1
  O  O10  1  0.47022843  0.23179578  0.74478543  1
  O  O11  1  0.52977157  0.76820422  0.24478543  1
  O  O12  1  0.98009515  0.22478961  0.23499943  1
  O  O13  1  0.22478961  0.01990485  0.98499943  1
  O  O14  1  0.98009515  0.77521039  0.26500057  1
  O  O15  1  0.01990485  0.77521039  0.73499943  1
loop_
_geom_bond_atom_site_label_1
_geom_bond_atom_site_label_2
_geom_bond_distance
_geom_bond_site_symmetry_2
Li0 O6 1.938435 1_555
Li0 O8 1.938435 1_555
Li0 O15 2.022259 1_655
Li0 O3 2.022259 1_566
Li1 O11 1.938435 1_555
Li1 O4 1.938435 1_555
Li1 O14 2.022259 1_455
Li1 O13 2.022259 1_564
Li2 O9 1.938435 1_555
Li2 O10 1.938435 1_555
Li2 O1 2.022259 1_545
Li2 O2 2.022259 1_655
Li3 O5 1.938435 1_555
Li3 O7 1.938435 1_555
Li3 O12 2.022259 1_455
Li3 O0 2.022259 1_545
Li4 O5 1.935854 1_555
Li4 O11 1.935854 1_555
Li4 O9 2.146402 1_555
Li4 O8 2.146402 1_554
Li4 O12 2.342009 1_555
Li4 O14 2.342009 1_555
Li5 O4 1.935854 1_555
Li5 O8 1.935854 1_554
Li5 O5 2.146402 1_555
Li5 O10 2.146402 1_554
Li5 O13 2.342009 1_554
Li5 O3 2.342009 1_555
Li6 O9 1.935854 1_555
Li6 O7 1.935854 1_555
Li6 O11 2.146402 1_555
Li6 O6 2.146402 1_555
Li6 O0 2.342009 1_555
Li6 O1 2.342009 1_555
Li7 O10 1.935854 1_555
Li7 O6 1.935854 1_555
Li7 O4 2.146402 1_556
Li7 O7 2.146402 1_555
Li7 O2 2.342009 1_555
Li7 O15 2.342009 1_555
O0 Te1 1.962655 1_565
O0 Te0 2.032880 1_555
O1 Te2 1.962655 1_565
O1 Te0 2.032880 1_655
O2 Te3 1.962655 1_556
O2 Te1 2.032880 1_555
O3 Te2 1.962655 1_555
O3 Te3 2.032880 1_655
O4 Te3 1.843917 1_555
O5 Te2 1.843917 1_555
O6 Te1 1.843917 1_565
O7 Te0 1.843917 1_555
O8 Te3 1.843917 1_656
O9 Te0 1.843917 1_655
O10 Te1 1.843917 1_555
O11 Te2 1.843917 1_565
O12 Te3 1.962655 1_655
O12 Te2 2.032880 1_555
O13 Te1 1.962655 1_555
O13 Te3 2.032880 1_556
O14 Te0 1.962655 1_655
O14 Te2 2.032880 1_565
O15 Te0 1.962655 1_555
O15 Te1 2.032880 1_565
