# generated using pymatgen
data_Nb(BMo)2
_symmetry_space_group_name_H-M   'P 1'
_cell_length_a   6.14003300
_cell_length_b   6.14003300
_cell_length_c   3.18683400
_cell_angle_alpha   90.00000000
_cell_angle_beta   90.00000000
_cell_angle_gamma   90.00000000
_symmetry_Int_Tables_number   1
_chemical_formula_structural   Nb(BMo)2
_chemical_formula_sum   'Nb2 B4 Mo4'
_cell_volume   120.14365850
_cell_formula_units_Z   2
loop_
 _symmetry_equiv_pos_site_id
 _symmetry_equiv_pos_as_xyz
  1  'x, y, z'
loop_
 _atom_site_type_symbol
 _atom_site_label
 _atom_site_symmetry_multiplicity
 _atom_site_fract_x
 _atom_site_fract_y
 _atom_site_fract_z
 _atom_site_occupancy
  Nb  Nb0  1  0.50000000  0.50000000  0.00000000  1
  Nb  Nb1  1  0.00000000  0.00000000  0.00000000  1
  B  B0  1  0.10895600  0.60895600  0.00000000  1
  B  B1  1  0.89104400  0.39104400  0.00000000  1
  B  B2  1  0.60895600  0.89104400  0.00000000  1
  B  B3  1  0.39104400  0.10895600  0.00000000  1
  Mo  Mo0  1  0.67395500  0.17395500  0.50000000  1
  Mo  Mo1  1  0.32604500  0.82604500  0.50000000  1
  Mo  Mo2  1  0.17395500  0.32604500  0.50000000  1
  Mo  Mo3  1  0.82604500  0.67395500  0.50000000  1
loop_
_geom_bond_atom_site_label_1
_geom_bond_atom_site_label_2
_geom_bond_distance
_geom_bond_site_symmetry_2
B0 B1 1.892199 1_455
B0 Mo2 2.390756 1_555
B0 Mo2 2.390756 1_554
B0 Mo3 2.390756 1_455
B0 Mo3 2.390756 1_454
B0 Mo1 2.468279 1_554
B0 Mo1 2.468279 1_555
B0 Nb0 2.492481 1_555
B0 Nb1 2.492481 1_565
B1 Mo3 2.390756 1_554
B1 Mo3 2.390756 1_555
B1 Mo2 2.390756 1_655
B1 Mo2 2.390756 1_654
B1 Mo0 2.468279 1_555
B1 Mo0 2.468279 1_554
B1 Nb1 2.492481 1_655
B1 Nb0 2.492481 1_555
B2 B3 1.892199 1_565
B2 Mo1 2.390756 1_555
B2 Mo1 2.390756 1_554
B2 Mo0 2.390756 1_564
B2 Mo0 2.390756 1_565
B2 Mo3 2.468279 1_555
B2 Mo3 2.468279 1_554
B2 Nb0 2.492481 1_555
B2 Nb1 2.492481 1_665
B3 Mo0 2.390756 1_555
B3 Mo0 2.390756 1_554
B3 Mo1 2.390756 1_545
B3 Mo1 2.390756 1_544
B3 Mo2 2.468279 1_554
B3 Mo2 2.468279 1_555
B3 Nb0 2.492481 1_555
B3 Nb1 2.492481 1_555
Mo0 Nb1 2.772635 1_656
Mo0 Nb1 2.772635 1_655
Mo0 Nb0 2.772635 1_556
Mo0 Nb0 2.772635 1_555
Mo1 Nb0 2.772635 1_556
Mo1 Nb0 2.772635 1_555
Mo1 Nb1 2.772635 1_565
Mo1 Nb1 2.772635 1_566
Mo2 Nb1 2.772635 1_556
Mo2 Nb1 2.772635 1_555
Mo2 Nb0 2.772635 1_556
Mo2 Nb0 2.772635 1_555
Mo3 Nb0 2.772635 1_556
Mo3 Nb0 2.772635 1_555
Mo3 Nb1 2.772635 1_665
Mo3 Nb1 2.772635 1_666
