# generated using pymatgen
data_YbCu2
_symmetry_space_group_name_H-M   'P 1'
_cell_length_a   5.12748279
_cell_length_b   5.12748229
_cell_length_c   8.44622500
_cell_angle_alpha   90.00000000
_cell_angle_beta   90.00000000
_cell_angle_gamma   119.99999402
_symmetry_Int_Tables_number   1
_chemical_formula_structural   YbCu2
_chemical_formula_sum   'Yb4 Cu8'
_cell_volume   192.30991863
_cell_formula_units_Z   4
loop_
 _symmetry_equiv_pos_site_id
 _symmetry_equiv_pos_as_xyz
  1  'x, y, z'
loop_
 _atom_site_type_symbol
 _atom_site_label
 _atom_site_symmetry_multiplicity
 _atom_site_fract_x
 _atom_site_fract_y
 _atom_site_fract_z
 _atom_site_occupancy
  Yb  Yb0  1  0.66666700  0.33333400  0.56056200  1
  Yb  Yb1  1  0.33333300  0.66666600  0.43943800  1
  Yb  Yb2  1  0.33333300  0.66666600  0.06056200  1
  Yb  Yb3  1  0.66666700  0.33333400  0.93943800  1
  Cu  Cu0  1  0.00000000  0.00000000  0.50000000  1
  Cu  Cu1  1  0.00000000  0.00000000  0.00000000  1
  Cu  Cu2  1  0.16695000  0.33390000  0.75000000  1
  Cu  Cu3  1  0.16695000  0.83305000  0.75000000  1
  Cu  Cu4  1  0.66610000  0.83305000  0.75000000  1
  Cu  Cu5  1  0.83305000  0.66610000  0.25000000  1
  Cu  Cu6  1  0.83305000  0.16695000  0.25000000  1
  Cu  Cu7  1  0.33390000  0.16695000  0.25000000  1
loop_
_geom_bond_atom_site_label_1
_geom_bond_atom_site_label_2
_geom_bond_distance
_geom_bond_site_symmetry_2
Cu0 Cu3 2.580126 1_545
Cu0 Cu6 2.580126 1_455
Cu0 Cu5 2.580126 1_445
Cu0 Cu2 2.580126 1_555
Cu0 Cu7 2.580126 1_555
Cu0 Cu4 2.580126 1_445
Cu0 Yb1 3.004218 1_555
Cu0 Yb0 3.004218 1_445
Cu0 Yb1 3.004223 1_545
Cu0 Yb0 3.004223 1_455
Cu0 Yb1 3.004223 1_445
Cu0 Yb0 3.004223 1_555
Cu1 Cu6 2.580126 1_455
Cu1 Cu3 2.580126 1_544
Cu1 Cu5 2.580126 1_445
Cu1 Cu2 2.580126 1_554
Cu1 Cu7 2.580126 1_555
Cu1 Cu4 2.580126 1_444
Cu1 Yb3 3.004218 1_444
Cu1 Yb2 3.004218 1_555
Cu1 Yb3 3.004223 1_454
Cu1 Yb2 3.004223 1_545
Cu1 Yb3 3.004223 1_554
Cu1 Yb2 3.004223 1_445
Cu2 Cu3 2.559383 1_555
Cu2 Cu4 2.559383 1_555
Cu2 Cu3 2.568100 1_545
Cu2 Cu4 2.568100 1_445
Cu2 Yb1 3.010648 1_555
Cu2 Yb2 3.010648 1_556
Cu2 Yb3 3.022067 1_555
Cu2 Yb0 3.022067 1_555
Cu2 Yb0 3.022067 1_455
Cu2 Yb3 3.022067 1_455
Cu3 Cu4 2.559383 1_555
Cu3 Cu4 2.568100 1_455
Cu3 Yb1 3.010650 1_555
Cu3 Yb2 3.010650 1_556
Cu3 Yb3 3.022065 1_455
Cu3 Yb0 3.022065 1_455
Cu3 Yb0 3.022070 1_565
Cu3 Yb3 3.022070 1_565
Cu4 Yb1 3.010650 1_555
Cu4 Yb2 3.010650 1_556
Cu4 Yb3 3.022065 1_555
Cu4 Yb0 3.022065 1_555
Cu4 Yb3 3.022069 1_565
Cu4 Yb0 3.022069 1_565
Cu5 Cu6 2.559383 1_555
Cu5 Cu7 2.559383 1_555
Cu5 Cu6 2.568100 1_565
Cu5 Cu7 2.568100 1_665
Cu5 Yb3 3.010648 1_554
Cu5 Yb0 3.010648 1_555
Cu5 Yb2 3.022067 1_555
Cu5 Yb1 3.022067 1_555
Cu5 Yb2 3.022067 1_655
Cu5 Yb1 3.022067 1_655
Cu6 Cu7 2.559383 1_555
Cu6 Cu7 2.568100 1_655
Cu6 Yb0 3.010650 1_555
Cu6 Yb3 3.010650 1_554
Cu6 Yb2 3.022065 1_655
Cu6 Yb1 3.022065 1_655
Cu6 Yb2 3.022070 1_545
Cu6 Yb1 3.022070 1_545
Cu7 Yb0 3.010650 1_555
Cu7 Yb3 3.010650 1_554
Cu7 Yb2 3.022065 1_555
Cu7 Yb1 3.022065 1_555
Cu7 Yb2 3.022069 1_545
Cu7 Yb1 3.022069 1_545
