# generated using pymatgen
data_V4(PO5)3
_symmetry_space_group_name_H-M   'P 1'
_cell_length_a   7.38917934
_cell_length_b   11.69752648
_cell_length_c   19.95737775
_cell_angle_alpha   93.35201004
_cell_angle_beta   79.33163784
_cell_angle_gamma   108.41175277
_symmetry_Int_Tables_number   1
_chemical_formula_structural   V4(PO5)3
_chemical_formula_sum   'V24 P18 O90'
_cell_volume   1608.42644300
_cell_formula_units_Z   6
loop_
 _symmetry_equiv_pos_site_id
 _symmetry_equiv_pos_as_xyz
  1  'x, y, z'
loop_
 _atom_site_type_symbol
 _atom_site_label
 _atom_site_symmetry_multiplicity
 _atom_site_fract_x
 _atom_site_fract_y
 _atom_site_fract_z
 _atom_site_occupancy
  V  V0  1  0.87507202  0.39415826  0.73688174  1
  V  V1  1  0.21779550  0.60584174  0.26311826  1
  V  V2  1  0.86195376  0.89415826  0.76311826  1
  V  V3  1  0.73091376  0.10584174  0.23688174  1
  V  V4  1  0.42157180  0.72903311  0.59365039  1
  V  V5  1  0.28618908  0.27096689  0.40634961  1
  V  V6  1  0.26522219  0.22903311  0.90634961  1
  V  V7  1  0.94253869  0.77096689  0.09365039  1
  V  V8  1  0.92476534  0.23341235  0.56567240  1
  V  V9  1  0.25702539  0.76658765  0.43432760  1
  V  V10  1  0.74043774  0.73341235  0.93432760  1
  V  V11  1  0.94135300  0.26658765  0.06567240  1
  V  V12  1  0.25954357  0.58512388  0.75135803  1
  V  V13  1  0.42577772  0.41487612  0.24864197  1
  V  V14  1  0.26090160  0.08512388  0.74864197  1
  V  V15  1  0.92441969  0.91487612  0.25135803  1
  V  V16  1  0.89602737  0.07517082  0.40492372  1
  V  V17  1  0.22578027  0.92482918  0.59507628  1
  V  V18  1  0.55095109  0.57517082  0.09507628  1
  V  V19  1  0.07085656  0.42482918  0.90492372  1
  V  V20  1  0.72322547  0.43022005  0.57871217  1
  V  V21  1  0.87171759  0.56977995  0.42128783  1
  V  V22  1  0.55193764  0.93022005  0.92128783  1
  V  V23  1  0.54300542  0.06977995  0.07871217  1
  P  P0  1  0.87205151  0.16295457  0.82924491  1
  P  P1  1  0.53834186  0.83704543  0.17075509  1
  P  P2  1  0.95129643  0.66295457  0.67075509  1
  P  P3  1  0.95909695  0.33704543  0.32924491  1
  P  P4  1  0.62357360  0.99751042  0.66416870  1
  P  P5  1  0.29023188  0.00248958  0.33583130  1
  P  P6  1  0.53774230  0.49751042  0.83583130  1
  P  P7  1  0.87606318  0.50248958  0.16416870  1
  P  P8  1  0.26899001  0.32640713  0.66354136  1
  P  P9  1  0.60612423  0.67359287  0.33645864  1
  P  P10  1  0.18253136  0.82640713  0.83645864  1
  P  P11  1  0.19258288  0.17359287  0.16354136  1
  P  P12  1  0.86959640  0.83692551  0.50082592  1
  P  P13  1  0.53349681  0.16307449  0.49917408  1
  P  P14  1  0.62042232  0.33692551  0.99917408  1
  P  P15  1  0.28267089  0.66307449  0.00082592  1
  P  P16  1  0.19111613  0.50000000  0.50000000  1
  P  P17  1  0.94111613  0.00000000  0.00000000  1
  O  O0  1  0.97002565  0.07465680  0.78491861  1
  O  O1  1  0.68028747  0.92534320  0.21508139  1
  O  O2  1  0.00494427  0.57465680  0.71508139  1
  O  O3  1  0.14536885  0.42534320  0.28491861  1
  O  O4  1  0.14088512  0.98179986  0.67109671  1
  O  O5  1  0.83018196  0.01820014  0.32890329  1
  O  O6  1  0.06198183  0.48179986  0.82890329  1
  O  O7  1  0.40908526  0.51820014  0.17109671  1
  O  O8  1  0.79713997  0.35221107  0.66099505  1
  O  O9  1  0.10592395  0.64778893  0.33900495  1
  O  O10  1  0.70813502  0.85221107  0.83900495  1
  O  O11  1  0.69492890  0.14778893  0.16099505  1
  O  O12  1  0.77952859  0.08962332  0.61605339  1
  O  O13  1  0.30595866  0.91037668  0.38394661  1
  O  O14  1  0.64558198  0.58962332  0.88394661  1
  O  O15  1  0.93990527  0.41037668  0.11605339  1
  O  O16  1  0.02665223  0.24630901  0.87011636  1
  O  O17  1  0.65045959  0.75369099  0.12988364  1
  O  O18  1  0.14676859  0.74630901  0.62988364  1
  O  O19  1  0.03034323  0.25369099  0.37011636  1
  O  O20  1  0.82483428  0.24390545  0.78250274  1
  O  O21  1  0.36343157  0.75609455  0.21749726  1
  O  O22  1  0.85733702  0.74390545  0.71749726  1
  O  O23  1  0.83092883  0.25609455  0.28250274  1
  O  O24  1  0.02047656  0.18525987  0.48880070  1
  O  O25  1  0.32401739  0.81474013  0.51119930  1
  O  O26  1  0.75927726  0.68525987  0.01119930  1
  O  O27  1  0.08521669  0.31474013  0.98880070  1
  O  O28  1  0.99885344  0.41432903  0.54233306  1
  O  O29  1  0.12685746  0.58567097  0.45766694  1
  O  O30  1  0.79118650  0.91432903  0.95766694  1
  O  O31  1  0.83452440  0.08567097  0.04233306  1
  O  O32  1  0.00333169  0.89788154  0.55129371  1
  O  O33  1  0.65674386  0.10211846  0.44870629  1
  O  O34  1  0.80462541  0.39788154  0.94870629  1
  O  O35  1  0.35545015  0.60211846  0.05129371  1
  O  O36  1  0.69428607  0.08917259  0.87665078  1
  O  O37  1  0.48176426  0.91082741  0.12334922  1
  O  O38  1  0.82093684  0.58917259  0.62334922  1
  O  O39  1  0.85511348  0.41082741  0.37665078  1
  O  O40  1  0.16524244  0.41261849  0.70725602  1
  O  O41  1  0.45987998  0.58738151  0.29274398  1
  O  O42  1  0.12249847  0.91261849  0.79274398  1
  O  O43  1  0.00262396  0.08738151  0.20725602  1
  O  O44  1  0.32101847  0.57779798  0.54616414  1
  O  O45  1  0.28938463  0.42220202  0.45383586  1
  O  O46  1  0.11718261  0.07779798  0.95383586  1
  O  O47  1  0.99322049  0.92220202  0.04616414  1
  O  O48  1  0.46202473  0.40714651  0.62498863  1
  O  O49  1  0.67986685  0.59285349  0.37501137  1
  O  O50  1  0.33701336  0.90714651  0.87501137  1
  O  O51  1  0.30487822  0.09285349  0.12498863  1
  O  O52  1  0.13069956  0.25562365  0.61631892  1
  O  O53  1  0.49139483  0.74437635  0.38368108  1
  O  O54  1  0.99701848  0.75562365  0.88368108  1
  O  O55  1  0.12507591  0.24437635  0.11631892  1
  O  O56  1  0.47983863  0.90892906  0.61995253  1
  O  O57  1  0.19086210  0.09107094  0.38004747  1
  O  O58  1  0.34979116  0.40892906  0.88004747  1
  O  O59  1  0.82090957  0.59107094  0.11995253  1
  O  O60  1  0.67222404  0.75646603  0.53548749  1
  O  O61  1  0.45124550  0.24353397  0.46451251  1
  O  O62  1  0.45771153  0.25646603  0.96451251  1
  O  O63  1  0.16575801  0.74353397  0.03548749  1
  O  O64  1  0.50868795  0.06079916  0.71680399  1
  O  O65  1  0.16469278  0.93920084  0.28319601  1
  O  O66  1  0.47549194  0.56079916  0.78319601  1
  O  O67  1  0.69788879  0.43920084  0.21680399  1
  O  O68  1  0.27014776  0.74333134  0.78860820  1
  O  O69  1  0.31542462  0.25666866  0.21139180  1
  O  O70  1  0.30875596  0.24333134  0.71139180  1
  O  O71  1  0.77681642  0.75666866  0.28860820  1
  O  O72  1  0.72934116  0.50000000  0.50000000  1
  O  O73  1  0.47934116  -0.00000000  0.00000000  1
  O  O74  1  0.96851794  0.75011490  0.45418141  1
  O  O75  1  0.67258445  0.24988510  0.54581859  1
  O  O76  1  0.67269935  0.25011490  0.04581859  1
  O  O77  1  0.46840304  0.74988510  0.95418141  1
  O  O78  1  0.71211051  0.92046655  0.69918799  1
  O  O79  1  0.49083195  0.07953345  0.30081201  1
  O  O80  1  0.66129850  0.42046655  0.80081201  1
  O  O81  1  0.04164396  0.57953345  0.19918799  1
  O  O82  1  0.42938078  0.66819546  0.66625669  1
  O  O83  1  0.42744202  0.33180454  0.33374331  1
  O  O84  1  0.34563748  0.16819546  0.83374331  1
  O  O85  1  0.01118533  0.83180454  0.16625669  1
  O  O86  1  0.84569253  0.93088822  0.45580615  1
  O  O87  1  0.37061046  0.06911178  0.54419385  1
  O  O88  1  0.55149868  0.43088822  0.04419385  1
  O  O89  1  0.16480431  0.56911178  0.95580615  1
loop_
_geom_bond_atom_site_label_1
_geom_bond_atom_site_label_2
_geom_bond_distance
_geom_bond_site_symmetry_2
O0 P0 1.581729 1_555
O0 V2 2.059391 1_545
O0 V14 2.103991 1_655
O1 P1 1.581729 1_555
O1 V3 2.059391 1_565
O1 V15 2.103991 1_555
O2 P2 1.581729 1_455
O2 V0 2.059391 1_455
O2 V12 2.103991 1_555
O3 P3 1.581729 1_455
O3 V1 2.059391 1_555
O3 V13 2.103991 1_555
O4 V17 1.712567 1_555
O4 V14 2.062683 1_565
O4 V2 2.481083 1_455
O5 V16 1.712567 1_555
O5 V15 2.062683 1_545
O5 V3 2.481083 1_555
O6 V19 1.712567 1_555
O6 V12 2.062683 1_555
O6 V0 2.481083 1_455
O7 V18 1.712567 1_555
O7 V13 2.062683 1_555
O7 V1 2.481083 1_555
O8 V0 1.709852 1_555
O8 V20 2.156331 1_555
O8 V8 2.508783 1_555
O9 V1 1.709852 1_555
O9 V21 2.156331 1_455
O9 V9 2.508783 1_555
O10 V2 1.709852 1_555
O10 V22 2.156331 1_555
O10 V10 2.508783 1_555
O11 V3 1.709852 1_555
O11 V23 2.156331 1_555
O11 V11 2.508783 1_555
O12 P4 1.529049 1_545
O12 V8 1.910431 1_555
O13 P5 1.529049 1_565
O13 V9 1.910431 1_555
O14 P6 1.529049 1_555
O14 V10 1.910431 1_555
O15 P7 1.529049 1_555
O15 V11 1.910432 1_555
O16 P0 1.571449 1_455
O16 V6 2.094141 1_555
O16 V19 2.105592 1_555
O17 P1 1.571449 1_555
O17 V7 2.094141 1_555
O17 V18 2.105592 1_555
O18 P2 1.571449 1_455
O18 V4 2.094141 1_555
O18 V17 2.105592 1_555
O19 P3 1.571449 1_455
O19 V5 2.094141 1_555
O19 V16 2.105592 1_455
O20 P0 1.523518 1_555
O20 V0 1.925028 1_555
O21 P1 1.523518 1_555
O21 V1 1.925028 1_555
O22 P2 1.523518 1_555
O22 V2 1.925028 1_555
O23 P3 1.523518 1_555
O23 V3 1.925028 1_555
O24 V8 1.708784 1_455
O24 V16 2.208152 1_455
O24 V5 2.306740 1_555
O25 V9 1.708784 1_555
O25 V17 2.208152 1_555
O25 V4 2.306740 1_555
O26 V10 1.708784 1_554
O26 V18 2.208152 1_555
O26 V7 2.306740 1_555
O27 V11 1.708784 1_456
O27 V19 2.208152 1_555
O27 V6 2.306740 1_555
O28 P16 1.578490 1_655
O28 V8 2.069858 1_555
O28 V20 2.094174 1_555
O29 P16 1.578490 1_555
O29 V9 2.069858 1_555
O29 V21 2.094174 1_455
O30 P17 1.578490 1_566
O30 V10 2.069858 1_555
O30 V22 2.094174 1_555
O31 P17 1.578490 1_555
O31 V11 2.069858 1_555
O31 V23 2.094174 1_555
O32 P12 1.529327 1_455
O32 V17 1.933111 1_555
O33 P13 1.529327 1_555
O33 V16 1.933111 1_555
O34 P14 1.529327 1_555
O34 V19 1.933111 1_655
O35 P15 1.529327 1_555
O35 V18 1.933111 1_555
O36 P0 1.511493 1_555
O36 V22 1.992109 1_545
O37 P1 1.511493 1_555
O37 V23 1.992109 1_565
O38 P2 1.511493 1_555
O38 V20 1.992109 1_555
O39 P3 1.511493 1_555
O39 V21 1.992109 1_555
O40 P8 1.582295 1_555
O40 V0 2.060717 1_455
O40 V12 2.112645 1_555
O41 P9 1.582295 1_555
O41 V1 2.060717 1_555
O41 V13 2.112645 1_555
O42 P10 1.582295 1_555
O42 V2 2.060717 1_455
O42 V14 2.112645 1_565
O43 P11 1.582295 1_555
O43 V3 2.060717 1_455
O43 V15 2.112645 1_445
O44 P16 1.508622 1_555
O44 V4 1.952990 1_555
O45 P16 1.508622 1_555
O45 V5 1.952990 1_555
O46 P17 1.508622 1_456
O46 V6 1.952990 1_555
O47 P17 1.508622 1_565
O47 V7 1.952990 1_555
O48 P8 1.531726 1_555
O48 V20 1.921209 1_555
O49 P9 1.531726 1_555
O49 V21 1.921209 1_555
O50 P10 1.531726 1_555
O50 V22 1.921209 1_555
O51 P11 1.531726 1_555
O51 V23 1.921209 1_555
O52 P8 1.532575 1_555
O52 V8 1.921901 1_455
O53 P9 1.532575 1_555
O53 V9 1.921901 1_555
O54 P10 1.532575 1_655
O54 V10 1.921901 1_555
O55 P11 1.532575 1_555
O55 V11 1.921901 1_455
O56 P4 1.589117 1_555
O56 V4 2.066721 1_555
O56 V17 2.093249 1_555
O57 P5 1.589117 1_555
O57 V5 2.066721 1_555
O57 V16 2.093249 1_455
O58 P6 1.589117 1_555
O58 V6 2.066721 1_555
O58 V19 2.093249 1_555
O59 P7 1.589117 1_555
O59 V7 2.066721 1_555
O59 V18 2.093249 1_555
O60 P12 1.525404 1_555
O60 V4 1.937225 1_555
O61 P13 1.525404 1_555
O61 V5 1.937225 1_555
O62 P14 1.525404 1_555
O62 V6 1.937225 1_555
O63 P15 1.525404 1_555
O63 V7 1.937225 1_455
O64 P4 1.532345 1_545
O64 V14 1.927237 1_555
O65 P5 1.532345 1_565
O65 V15 1.927237 1_455
O66 P6 1.532345 1_555
O66 V12 1.927237 1_555
O67 P7 1.532345 1_555
O67 V13 1.927237 1_555
O68 P10 1.528221 1_555
O68 V12 1.937199 1_555
O69 P11 1.528221 1_555
O69 V13 1.937199 1_555
O70 P8 1.528221 1_555
O70 V14 1.937199 1_555
O71 P9 1.528221 1_555
O71 V15 1.937199 1_555
O72 V20 1.798990 1_555
O72 V21 1.798990 1_555
O73 V22 1.798990 1_544
O73 V23 1.798990 1_555
O74 P12 1.593249 1_555
O74 V9 2.043413 1_655
O74 V21 2.109795 1_555
O75 P13 1.593249 1_555
O75 V8 2.043413 1_555
O75 V20 2.109795 1_555
O76 P14 1.593249 1_554
O76 V11 2.043413 1_555
O76 V23 2.109795 1_555
O77 P15 1.593249 1_556
O77 V10 2.043413 1_555
O77 V22 2.109795 1_555
O78 P4 1.531024 1_555
O78 V2 1.932021 1_555
O79 P5 1.531024 1_555
O79 V3 1.932021 1_555
O80 P6 1.531024 1_555
O80 V0 1.932021 1_555
O81 P7 1.531024 1_455
O81 V1 1.932021 1_555
O82 V4 1.669417 1_555
O82 V12 2.009292 1_555
O83 V5 1.669417 1_555
O83 V13 2.009292 1_555
O84 V6 1.669417 1_555
O84 V14 2.009292 1_555
O85 V7 1.669417 1_455
O85 V15 2.009292 1_455
O86 P12 1.530825 1_555
O86 V16 1.918876 1_565
O87 P13 1.530825 1_555
O87 V17 1.918876 1_545
O88 P14 1.530825 1_554
O88 V18 1.918876 1_555
O89 P15 1.530825 1_556
O89 V19 1.918876 1_555
