# generated using pymatgen
data_Ba2CaGa2CuF14
_symmetry_space_group_name_H-M   'P 1'
_cell_length_a   7.38812469
_cell_length_b   7.38812469
_cell_length_c   14.70236676
_cell_angle_alpha   88.37155593
_cell_angle_beta   88.37155593
_cell_angle_gamma   42.31194036
_symmetry_Int_Tables_number   1
_chemical_formula_structural   Ba2CaGa2CuF14
_chemical_formula_sum   'Ba4 Ca2 Ga4 Cu2 F28'
_cell_volume   539.97860067
_cell_formula_units_Z   2
loop_
 _symmetry_equiv_pos_site_id
 _symmetry_equiv_pos_as_xyz
  1  'x, y, z'
loop_
 _atom_site_type_symbol
 _atom_site_label
 _atom_site_symmetry_multiplicity
 _atom_site_fract_x
 _atom_site_fract_y
 _atom_site_fract_z
 _atom_site_occupancy
  Ba  Ba0  1  0.62934849  0.75317856  0.87988641  1
  Ba  Ba1  1  0.37065151  0.24682144  0.12011359  1
  Ba  Ba2  1  0.24682144  0.37065151  0.62011359  1
  Ba  Ba3  1  0.75317856  0.62934849  0.37988641  1
  Ca  Ca0  1  0.92206315  0.07793685  0.75000000  1
  Ca  Ca1  1  0.07793685  0.92206315  0.25000000  1
  Ga  Ga0  1  0.59931226  0.63998042  0.62413693  1
  Ga  Ga1  1  0.40068774  0.36001958  0.37586307  1
  Ga  Ga2  1  0.36001958  0.40068774  0.87586307  1
  Ga  Ga3  1  0.63998042  0.59931226  0.12413693  1
  Cu  Cu0  1  -0.00000000  0.00000000  0.50000000  1
  Cu  Cu1  1  -0.00000000  0.00000000  0.00000000  1
  F  F0  1  0.88395929  0.00565932  0.11569818  1
  F  F1  1  0.11604071  0.99434068  0.88430182  1
  F  F2  1  0.99434068  0.11604071  0.38430182  1
  F  F3  1  0.00565932  0.88395929  0.61569818  1
  F  F4  1  0.63808026  0.09766684  0.95301930  1
  F  F5  1  0.36191974  0.90233316  0.04698070  1
  F  F6  1  0.90233316  0.36191974  0.54698070  1
  F  F7  1  0.09766684  0.63808026  0.45301930  1
  F  F8  1  0.37930851  0.78923808  0.51886485  1
  F  F9  1  0.62069149  0.21076192  0.48113515  1
  F  F10  1  0.21076192  0.62069149  0.98113515  1
  F  F11  1  0.78923808  0.37930851  0.01886485  1
  F  F12  1  0.32959518  0.91566594  0.70585377  1
  F  F13  1  0.67040482  0.08433406  0.29414623  1
  F  F14  1  0.08433406  0.67040482  0.79414623  1
  F  F15  1  0.91566594  0.32959518  0.20585377  1
  F  F16  1  0.56028363  0.42336731  0.65522979  1
  F  F17  1  0.43971637  0.57663269  0.34477021  1
  F  F18  1  0.57663269  0.43971637  0.84477021  1
  F  F19  1  0.42336731  0.56028363  0.15522979  1
  F  F20  1  0.54170866  0.14192347  0.77791350  1
  F  F21  1  0.45829134  0.85807653  0.22208650  1
  F  F22  1  0.85807653  0.45829134  0.72208650  1
  F  F23  1  0.14192347  0.54170866  0.27791350  1
  F  F24  1  0.67328077  0.82794859  0.59216185  1
  F  F25  1  0.32671923  0.17205141  0.40783815  1
  F  F26  1  0.17205141  0.32671923  0.90783815  1
  F  F27  1  0.82794859  0.67328077  0.09216185  1
loop_
_geom_bond_atom_site_label_1
_geom_bond_atom_site_label_2
_geom_bond_distance
_geom_bond_site_symmetry_2
Ba0 F18 2.682353 1_555
Ba0 F26 2.740177 1_655
Ba0 F1 2.749550 1_555
Ba0 F22 2.757559 1_555
Ba0 F5 2.794860 1_556
Ba0 F20 2.824171 1_565
Ba0 F4 2.835530 1_565
Ba0 F11 2.861970 1_556
Ba0 F26 2.895787 1_565
Ba0 F12 3.017952 1_555
Ba0 F14 3.166277 1_655
Ba0 F27 3.334108 1_556
Ba1 F19 2.682353 1_555
Ba1 F27 2.740177 1_455
Ba1 F0 2.749550 1_555
Ba1 F23 2.757559 1_555
Ba1 F4 2.794860 1_554
Ba1 F21 2.824171 1_545
Ba1 F5 2.835530 1_545
Ba1 F10 2.861970 1_554
Ba1 F27 2.895787 1_545
Ba1 F13 3.017952 1_555
Ba1 F15 3.166277 1_455
Ba1 F26 3.334108 1_554
Ba2 F16 2.682353 1_555
Ba2 F24 2.740177 1_545
Ba2 F3 2.749550 1_555
Ba2 F20 2.757559 1_555
Ba2 F7 2.794860 1_555
Ba2 F22 2.824171 1_455
Ba2 F6 2.835530 1_455
Ba2 F9 2.861970 1_555
Ba2 F24 2.895787 1_455
Ba2 F14 3.017952 1_555
Ba2 F12 3.166277 1_545
Ba2 F25 3.334108 1_555
Ba3 F17 2.682353 1_555
Ba3 F25 2.740177 1_565
Ba3 F2 2.749550 1_555
Ba3 F21 2.757559 1_555
Ba3 F6 2.794860 1_555
Ba3 F23 2.824171 1_655
Ba3 F7 2.835530 1_655
Ba3 F8 2.861970 1_555
Ba3 F25 2.895787 1_655
Ba3 F15 3.017952 1_555
Ba3 F13 3.166277 1_565
Ba3 F24 3.334108 1_555
Ca0 F1 2.261993 1_645
Ca0 F3 2.261993 1_645
Ca0 F12 2.349162 1_645
Ca0 F14 2.349162 1_645
Ca0 F16 2.349391 1_555
Ca0 F18 2.349391 1_555
Ca0 F22 2.503863 1_555
Ca0 F20 2.503863 1_555
Ca1 F2 2.261993 1_465
Ca1 F0 2.261993 1_465
Ca1 F15 2.349162 1_465
Ca1 F13 2.349162 1_465
Ca1 F19 2.349391 1_555
Ca1 F17 2.349391 1_555
Ca1 F21 2.503863 1_555
Ca1 F23 2.503863 1_555
Cu0 F2 1.870406 1_455
Cu0 F3 1.870406 1_545
Cu0 F9 1.980088 1_455
Cu0 F8 1.980088 1_545
Cu0 F6 2.317460 1_455
Cu0 F7 2.317460 1_545
Cu1 F1 1.870406 1_544
Cu1 F0 1.870406 1_455
Cu1 F11 1.980088 1_455
Cu1 F10 1.980088 1_544
Cu1 F5 2.317460 1_545
Cu1 F4 2.317460 1_454
F4 Ga2 1.924887 1_555
F5 Ga3 1.924887 1_555
F6 Ga0 1.924887 1_555
F7 Ga1 1.924887 1_555
F8 Ga0 1.910124 1_555
F9 Ga1 1.910124 1_555
F10 Ga2 1.910124 1_555
F11 Ga3 1.910124 1_555
F12 Ga0 1.887609 1_555
F13 Ga1 1.887609 1_555
F14 Ga2 1.887609 1_555
F15 Ga3 1.887609 1_555
F16 Ga0 1.867273 1_555
F17 Ga1 1.867273 1_555
F18 Ga2 1.867273 1_555
F19 Ga3 1.867273 1_555
F20 Ga2 1.944686 1_555
F21 Ga3 1.944686 1_555
F22 Ga0 1.944686 1_555
F23 Ga1 1.944686 1_555
F24 Ga0 1.875889 1_555
F25 Ga1 1.875889 1_555
F26 Ga2 1.875889 1_555
F27 Ga3 1.875889 1_555
