# generated using pymatgen
data_Pr2MnSn4
_symmetry_space_group_name_H-M   'P 1'
_cell_length_a   4.65317900
_cell_length_b   4.68921100
_cell_length_c   8.95272514
_cell_angle_alpha   74.81791610
_cell_angle_beta   90.00000000
_cell_angle_gamma   90.00000000
_symmetry_Int_Tables_number   1
_chemical_formula_structural   Pr2MnSn4
_chemical_formula_sum   'Pr2 Mn1 Sn4'
_cell_volume   188.52823258
_cell_formula_units_Z   1
loop_
 _symmetry_equiv_pos_site_id
 _symmetry_equiv_pos_as_xyz
  1  'x, y, z'
loop_
 _atom_site_type_symbol
 _atom_site_label
 _atom_site_symmetry_multiplicity
 _atom_site_fract_x
 _atom_site_fract_y
 _atom_site_fract_z
 _atom_site_occupancy
  Pr  Pr0  1  0.25000000  0.89650100  0.20699900  1
  Pr  Pr1  1  0.75000000  0.10061500  0.79877100  1
  Mn  Mn0  1  0.25000000  0.69387700  0.61224600  1
  Sn  Sn0  1  0.25000000  0.54312000  0.91376000  1
  Sn  Sn1  1  0.75000000  0.43430600  0.13138900  1
  Sn  Sn2  1  0.25000000  0.25885400  0.48229100  1
  Sn  Sn3  1  0.75000000  0.75672800  0.48654400  1
loop_
_geom_bond_atom_site_label_1
_geom_bond_atom_site_label_2
_geom_bond_distance
_geom_bond_site_symmetry_2
Pr0 Sn2 3.339890 1_565
Pr0 Sn2 3.339897 1_555
Pr0 Sn3 3.353639 1_455
Pr0 Sn3 3.353639 1_555
Pr0 Sn1 3.367043 1_565
Pr0 Sn1 3.367043 1_465
Pr0 Sn1 3.367043 1_455
Pr0 Sn1 3.367043 1_555
Pr0 Sn0 3.452043 1_564
Pr0 Sn0 3.452047 1_554
Pr1 Sn0 3.449246 1_555
Pr1 Sn0 3.449246 1_655
Pr1 Sn0 3.449249 1_645
Pr1 Sn0 3.449249 1_545
Pr1 Sn3 3.574195 1_555
Pr1 Sn3 3.574198 1_545
Pr1 Sn2 3.590312 1_555
Pr1 Sn2 3.590312 1_655
Pr1 Sn1 3.708977 1_546
Pr1 Sn1 3.708977 1_556
Mn0 Sn3 2.567611 1_555
Mn0 Sn3 2.567611 1_455
Mn0 Sn2 2.599605 1_565
Mn0 Sn2 2.599609 1_555
Mn0 Sn0 2.605160 1_555
Mn0 Pr1 3.675257 1_555
Mn0 Pr1 3.675257 1_455
Mn0 Pr1 3.675260 1_565
Mn0 Pr1 3.675260 1_465
Sn0 Sn1 2.991457 1_556
Sn0 Sn1 2.991457 1_456
