# generated using pymatgen
data_Lu5B4Rh15
_symmetry_space_group_name_H-M   'P 1'
_cell_length_a   4.18499300
_cell_length_b   4.18499300
_cell_length_c   20.48191700
_cell_angle_alpha   90.00000000
_cell_angle_beta   90.00000000
_cell_angle_gamma   90.00000000
_symmetry_Int_Tables_number   1
_chemical_formula_structural   Lu5B4Rh15
_chemical_formula_sum   'Lu5 B4 Rh15'
_cell_volume   358.72370273
_cell_formula_units_Z   1
loop_
 _symmetry_equiv_pos_site_id
 _symmetry_equiv_pos_as_xyz
  1  'x, y, z'
loop_
 _atom_site_type_symbol
 _atom_site_label
 _atom_site_symmetry_multiplicity
 _atom_site_fract_x
 _atom_site_fract_y
 _atom_site_fract_z
 _atom_site_occupancy
  Lu  Lu0  1  0.00000000  0.00000000  0.90275200  1
  Lu  Lu1  1  0.00000000  0.00000000  0.09724800  1
  Lu  Lu2  1  0.00000000  0.00000000  0.29925900  1
  Lu  Lu3  1  0.00000000  0.00000000  0.50000000  1
  Lu  Lu4  1  0.00000000  0.00000000  0.70074100  1
  B  B0  1  0.50000000  0.50000000  0.19092900  1
  B  B1  1  0.50000000  0.50000000  0.39805500  1
  B  B2  1  0.50000000  0.50000000  0.60194500  1
  B  B3  1  0.50000000  0.50000000  0.80907100  1
  Rh  Rh0  1  0.50000000  0.50000000  0.90861800  1
  Rh  Rh1  1  0.50000000  0.50000000  0.09138200  1
  Rh  Rh2  1  0.50000000  0.50000000  0.29689400  1
  Rh  Rh3  1  0.50000000  0.50000000  0.50000000  1
  Rh  Rh4  1  0.50000000  0.50000000  0.70310600  1
  Rh  Rh5  1  0.50000000  0.00000000  0.00000000  1
  Rh  Rh6  1  0.50000000  0.00000000  0.19832700  1
  Rh  Rh7  1  0.50000000  0.00000000  0.39954300  1
  Rh  Rh8  1  0.50000000  0.00000000  0.60045700  1
  Rh  Rh9  1  0.50000000  0.00000000  0.80167300  1
  Rh  Rh10  1  0.00000000  0.50000000  0.00000000  1
  Rh  Rh11  1  0.00000000  0.50000000  0.19832700  1
  Rh  Rh12  1  0.00000000  0.50000000  0.39954300  1
  Rh  Rh13  1  0.00000000  0.50000000  0.60045700  1
  Rh  Rh14  1  0.00000000  0.50000000  0.80167300  1
loop_
_geom_bond_atom_site_label_1
_geom_bond_atom_site_label_2
_geom_bond_distance
_geom_bond_site_symmetry_2
Lu0 Rh5 2.888929 1_556
Lu0 Rh10 2.888929 1_546
Lu0 Rh10 2.888929 1_556
Lu0 Rh5 2.888929 1_456
Lu0 Rh9 2.943578 1_455
Lu0 Rh9 2.943578 1_555
Lu0 Rh14 2.943578 1_555
Lu0 Rh14 2.943578 1_545
Lu0 Rh0 2.961675 1_445
Lu0 Rh0 2.961675 1_555
Lu0 Rh0 2.961675 1_545
Lu0 Rh0 2.961675 1_455
Lu1 Rh10 2.888929 1_555
Lu1 Rh5 2.888929 1_455
Lu1 Rh10 2.888929 1_545
Lu1 Rh5 2.888929 1_555
Lu1 Rh6 2.943578 1_455
Lu1 Rh11 2.943578 1_545
Lu1 Rh6 2.943578 1_555
Lu1 Rh11 2.943578 1_555
Lu1 Rh1 2.961675 1_455
Lu1 Rh1 2.961675 1_555
Lu1 Rh1 2.961675 1_445
Lu1 Rh1 2.961675 1_545
Lu2 Rh12 2.932148 1_545
Lu2 Rh7 2.932148 1_555
Lu2 Rh12 2.932148 1_555
Lu2 Rh7 2.932148 1_455
Lu2 Rh6 2.941461 1_455
Lu2 Rh11 2.941461 1_545
Lu2 Rh11 2.941461 1_555
Lu2 Rh6 2.941461 1_555
Lu2 Rh2 2.959633 1_445
Lu2 Rh2 2.959633 1_555
Lu2 Rh2 2.959633 1_545
Lu2 Rh2 2.959633 1_455
Lu3 Rh12 2.934631 1_545
Lu3 Rh7 2.934631 1_555
Lu3 Rh13 2.934631 1_545
Lu3 Rh13 2.934631 1_555
Lu3 Rh12 2.934631 1_555
Lu3 Rh7 2.934631 1_455
Lu3 Rh8 2.934631 1_455
Lu3 Rh8 2.934631 1_555
Lu3 Rh3 2.959237 1_455
Lu3 Rh3 2.959237 1_545
Lu3 Rh3 2.959237 1_555
Lu3 Rh3 2.959237 1_445
Lu4 Rh13 2.932148 1_555
Lu4 Rh8 2.932148 1_455
Lu4 Rh8 2.932148 1_555
Lu4 Rh13 2.932148 1_545
Lu4 Rh14 2.941461 1_545
Lu4 Rh9 2.941461 1_555
Lu4 Rh14 2.941461 1_555
Lu4 Rh9 2.941461 1_455
Lu4 Rh4 2.959633 1_555
Lu4 Rh4 2.959633 1_455
Lu4 Rh4 2.959633 1_545
Lu4 Rh4 2.959633 1_445
B0 Rh1 2.038913 1_555
B0 Rh11 2.097976 1_655
B0 Rh6 2.097976 1_555
B0 Rh11 2.097976 1_555
B0 Rh6 2.097976 1_565
B0 Rh2 2.170366 1_555
B1 Rh2 2.071971 1_555
B1 Rh3 2.088029 1_555
B1 Rh12 2.092718 1_655
B1 Rh12 2.092718 1_555
B1 Rh7 2.092718 1_565
B1 Rh7 2.092718 1_555
B2 Rh4 2.071971 1_555
B2 Rh3 2.088029 1_555
B2 Rh8 2.092718 1_555
B2 Rh13 2.092718 1_655
B2 Rh8 2.092718 1_565
B2 Rh13 2.092718 1_555
B3 Rh0 2.038913 1_555
B3 Rh9 2.097976 1_565
B3 Rh9 2.097976 1_555
B3 Rh14 2.097976 1_555
B3 Rh14 2.097976 1_655
B3 Rh4 2.170366 1_555
