# generated using pymatgen
data_Li3Mn2(CoO4)2
_symmetry_space_group_name_H-M   'P 1'
_cell_length_a   5.79480100
_cell_length_b   5.80973247
_cell_length_c   5.85429586
_cell_angle_alpha   119.54427468
_cell_angle_beta   90.96421800
_cell_angle_gamma   118.07145026
_symmetry_Int_Tables_number   1
_chemical_formula_structural   Li3Mn2(CoO4)2
_chemical_formula_sum   'Li3 Mn2 Co2 O8'
_cell_volume   143.12276109
_cell_formula_units_Z   1
loop_
 _symmetry_equiv_pos_site_id
 _symmetry_equiv_pos_as_xyz
  1  'x, y, z'
loop_
 _atom_site_type_symbol
 _atom_site_label
 _atom_site_symmetry_multiplicity
 _atom_site_fract_x
 _atom_site_fract_y
 _atom_site_fract_z
 _atom_site_occupancy
  Li  Li0  1  0.00000000  0.50000000  0.50000000  1
  Li  Li1  1  0.50000000  0.50000000  0.00000000  1
  Li  Li2  1  0.50000000  0.00000000  0.50000000  1
  Mn  Mn0  1  0.00000000  0.50000000  0.00000000  1
  Mn  Mn1  1  0.50000000  0.00000000  0.00000000  1
  Co  Co0  1  0.00000000  0.00000000  0.00000000  1
  Co  Co1  1  0.00000000  0.00000000  0.50000000  1
  O  O0  1  0.76889900  0.79329100  0.23461000  1
  O  O1  1  0.77347600  0.27099500  0.24352900  1
  O  O2  1  0.78453400  0.76240500  0.77707800  1
  O  O3  1  0.77141800  0.24565400  0.78896000  1
  O  O4  1  0.22858200  0.75434500  0.21104000  1
  O  O5  1  0.21546600  0.23759500  0.22292200  1
  O  O6  1  0.22652400  0.72900500  0.75647100  1
  O  O7  1  0.23110100  0.20670900  0.76539000  1
loop_
_geom_bond_atom_site_label_1
_geom_bond_atom_site_label_2
_geom_bond_distance
_geom_bond_site_symmetry_2
Li0 O6 1.437896 1_555
Li0 O1 1.437896 1_455
Li1 O7 1.529383 1_554
Li1 O0 1.529383 1_555
Li2 O4 1.670090 1_545
Li2 O3 1.670091 1_555
Mn0 O4 1.329232 1_555
Mn0 O3 1.329233 1_454
Mn1 O1 1.544314 1_555
Mn1 O6 1.544314 1_544
Co0 O5 1.309217 1_555
Co0 O2 1.309217 1_444
Co1 O7 1.491918 1_555
Co1 O0 1.491918 1_445
