# generated using pymatgen
data_HfMg6Sn
_symmetry_space_group_name_H-M   'P 1'
_cell_length_a   5.19760300
_cell_length_b   6.12750800
_cell_length_c   11.23115400
_cell_angle_alpha   90.00000000
_cell_angle_beta   90.00000000
_cell_angle_gamma   90.00000000
_symmetry_Int_Tables_number   1
_chemical_formula_structural   HfMg6Sn
_chemical_formula_sum   'Hf2 Mg12 Sn2'
_cell_volume   357.69376801
_cell_formula_units_Z   2
loop_
 _symmetry_equiv_pos_site_id
 _symmetry_equiv_pos_as_xyz
  1  'x, y, z'
loop_
 _atom_site_type_symbol
 _atom_site_label
 _atom_site_symmetry_multiplicity
 _atom_site_fract_x
 _atom_site_fract_y
 _atom_site_fract_z
 _atom_site_occupancy
  Hf  Hf0  1  0.50000000  0.50000000  0.17002500  1
  Hf  Hf1  1  0.50000000  0.00000000  0.67002500  1
  Mg  Mg0  1  0.50000000  0.25126900  0.41771000  1
  Mg  Mg1  1  0.50000000  0.74873100  0.41771000  1
  Mg  Mg2  1  0.00000000  0.74326000  0.08114200  1
  Mg  Mg3  1  0.00000000  0.25674000  0.08114200  1
  Mg  Mg4  1  0.00000000  0.00000000  0.33474800  1
  Mg  Mg5  1  0.00000000  0.50000000  0.33055100  1
  Mg  Mg6  1  0.50000000  0.75126900  0.91771000  1
  Mg  Mg7  1  0.50000000  0.24873100  0.91771000  1
  Mg  Mg8  1  0.00000000  0.24326000  0.58114200  1
  Mg  Mg9  1  0.00000000  0.75674000  0.58114200  1
  Mg  Mg10  1  0.00000000  0.50000000  0.83474800  1
  Mg  Mg11  1  0.00000000  0.00000000  0.83055100  1
  Sn  Sn0  1  0.50000000  0.00000000  0.16696800  1
  Sn  Sn1  1  0.50000000  0.50000000  0.66696800  1
loop_
_geom_bond_atom_site_label_1
_geom_bond_atom_site_label_2
_geom_bond_distance
_geom_bond_site_symmetry_2
Hf0 Sn0 3.063946 1_555
Hf0 Sn0 3.063946 1_565
Hf0 Mg3 3.157865 1_555
Hf0 Mg3 3.157865 1_655
Hf0 Mg2 3.157865 1_555
Hf0 Mg2 3.157865 1_655
Hf0 Mg5 3.162940 1_555
Hf0 Mg5 3.162940 1_655
Hf0 Mg0 3.171944 1_555
Hf0 Mg1 3.171944 1_555
Hf0 Mg7 3.225041 1_554
Hf0 Mg6 3.225041 1_554
Hf1 Sn1 3.063946 1_545
Hf1 Sn1 3.063946 1_555
Hf1 Mg9 3.157865 1_545
Hf1 Mg8 3.157865 1_555
Hf1 Mg8 3.157865 1_655
Hf1 Mg9 3.157865 1_645
Hf1 Mg11 3.162940 1_555
Hf1 Mg11 3.162940 1_655
Hf1 Mg7 3.171944 1_555
Hf1 Mg6 3.171944 1_545
Hf1 Mg1 3.225041 1_545
Hf1 Mg0 3.225041 1_555
Mg0 Mg1 3.048202 1_555
Mg0 Mg1 3.079306 1_545
Mg0 Mg4 3.161088 1_555
Mg0 Mg4 3.161088 1_655
Mg0 Mg5 3.167790 1_655
Mg0 Mg5 3.167790 1_555
Mg0 Mg8 3.182035 1_555
Mg0 Mg8 3.182035 1_655
Mg0 Sn1 3.187449 1_555
Mg0 Sn0 3.209529 1_555
Mg1 Mg4 3.161088 1_665
Mg1 Mg4 3.161088 1_565
Mg1 Mg5 3.167790 1_655
Mg1 Mg5 3.167790 1_555
Mg1 Mg9 3.182035 1_555
Mg1 Mg9 3.182035 1_655
Mg1 Sn1 3.187449 1_555
Mg1 Sn0 3.209529 1_565
Mg2 Mg3 2.981155 1_555
Mg2 Mg3 3.146353 1_565
Mg2 Mg5 3.173053 1_555
Mg2 Mg6 3.182035 1_554
Mg2 Mg6 3.182035 1_454
Mg2 Sn0 3.187131 1_465
Mg2 Sn0 3.187131 1_565
Mg2 Mg4 3.253864 1_565
Mg3 Mg5 3.173053 1_555
Mg3 Mg7 3.182035 1_554
Mg3 Mg7 3.182035 1_454
Mg3 Sn0 3.187131 1_555
Mg3 Sn0 3.187131 1_455
Mg3 Mg4 3.253864 1_555
Mg4 Mg5 3.064117 1_545
Mg4 Mg5 3.064117 1_555
Mg4 Mg8 3.143201 1_555
Mg4 Mg9 3.143201 1_545
Mg4 Sn0 3.210077 1_455
Mg4 Sn0 3.210077 1_555
Mg5 Mg9 3.224264 1_555
Mg5 Mg8 3.224264 1_555
Mg6 Mg7 3.048202 1_565
Mg6 Mg7 3.079306 1_555
Mg6 Sn0 3.187449 1_566
Mg6 Sn1 3.209529 1_555
Mg7 Sn0 3.187449 1_556
Mg7 Sn1 3.209529 1_555
Mg8 Mg9 2.981155 1_545
Mg8 Mg9 3.146353 1_555
Mg8 Sn1 3.187131 1_555
Mg8 Sn1 3.187131 1_455
Mg9 Sn1 3.187131 1_555
Mg9 Sn1 3.187131 1_455
Mg10 Mg11 3.064117 1_565
Mg10 Mg11 3.064117 1_555
Mg10 Mg3 3.143201 1_556
Mg10 Mg2 3.143201 1_556
Mg10 Mg7 3.161088 1_555
Mg10 Mg6 3.161088 1_455
Mg10 Mg6 3.161088 1_555
Mg10 Mg7 3.161088 1_455
Mg10 Sn1 3.210077 1_555
Mg10 Sn1 3.210077 1_455
Mg10 Mg8 3.253864 1_555
Mg10 Mg9 3.253864 1_555
Mg11 Mg6 3.167790 1_545
Mg11 Mg7 3.167790 1_455
Mg11 Mg7 3.167790 1_555
Mg11 Mg6 3.167790 1_445
Mg11 Mg9 3.173053 1_545
Mg11 Mg8 3.173053 1_555
Mg11 Mg3 3.224264 1_556
Mg11 Mg2 3.224264 1_546
