# generated using pymatgen
data_Er9MnS14
_symmetry_space_group_name_H-M   'P 1'
_cell_length_a   6.54947122
_cell_length_b   6.54947122
_cell_length_c   22.88575421
_cell_angle_alpha   76.03334218
_cell_angle_beta   76.03334218
_cell_angle_gamma   33.35929554
_symmetry_Int_Tables_number   1
_chemical_formula_structural   Er9MnS14
_chemical_formula_sum   'Er9 Mn1 S14'
_cell_volume   522.40745921
_cell_formula_units_Z   1
loop_
 _symmetry_equiv_pos_site_id
 _symmetry_equiv_pos_as_xyz
  1  'x, y, z'
loop_
 _atom_site_type_symbol
 _atom_site_label
 _atom_site_symmetry_multiplicity
 _atom_site_fract_x
 _atom_site_fract_y
 _atom_site_fract_z
 _atom_site_occupancy
  Er  Er0  1  0.69434700  0.69434700  0.10222800  1
  Er  Er1  1  0.69881500  0.69881500  0.59360900  1
  Er  Er2  1  0.30411800  0.30411800  0.40033000  1
  Er  Er3  1  0.30222700  0.30222700  0.90676400  1
  Er  Er4  1  0.00013400  0.00013400  0.00365600  1
  Er  Er5  1  0.99977800  0.99977800  0.49885600  1
  Er  Er6  1  0.88749200  0.88749200  0.71062000  1
  Er  Er7  1  0.11348400  0.11348400  0.28307700  1
  Er  Er8  1  0.11199900  0.11199900  0.78981900  1
  Mn  Mn0  1  0.88678500  0.88678500  0.21067800  1
  S  S0  1  0.26673100  0.26673100  0.17692900  1
  S  S1  1  0.25914900  0.25914900  0.67637500  1
  S  S2  1  0.74191000  0.74191000  0.32088700  1
  S  S3  1  0.74102300  0.74102300  0.82359800  1
  S  S4  1  0.33921500  0.33921500  0.02567600  1
  S  S5  1  0.34106800  0.34106800  0.52567100  1
  S  S6  1  0.66047600  0.66047600  0.47405300  1
  S  S7  1  0.65864100  0.65864100  0.97472200  1
  S  S8  1  0.03672100  0.03672100  0.11188800  1
  S  S9  1  0.04041800  0.04041800  0.60745800  1
  S  S10  1  0.96082500  0.96082500  0.39130800  1
  S  S11  1  0.96031000  0.96031000  0.89324900  1
  S  S12  1  0.49409000  0.49409000  0.24868300  1
  S  S13  1  0.50024300  0.50024300  0.74986700  1
loop_
_geom_bond_atom_site_label_1
_geom_bond_atom_site_label_2
_geom_bond_distance
_geom_bond_site_symmetry_2
Er0 S8 2.697077 1_565
Er0 S8 2.697077 1_655
Er0 S0 2.839692 1_565
Er0 S0 2.839692 1_655
Er0 S4 2.881423 1_655
Er0 S4 2.881423 1_565
Er0 S7 3.061811 1_554
Er1 S9 2.695751 1_565
Er1 S9 2.695751 1_655
Er1 S5 2.781867 1_655
Er1 S5 2.781867 1_565
Er1 S6 2.895017 1_555
Er1 S1 2.901270 1_565
Er1 S1 2.901270 1_655
Er2 S10 2.690400 1_455
Er2 S10 2.690400 1_545
Er2 S6 2.845458 1_455
Er2 S6 2.845458 1_545
Er2 S2 2.857226 1_455
Er2 S2 2.857226 1_545
Er2 S5 3.018871 1_555
Er3 S11 2.693494 1_545
Er3 S11 2.693494 1_455
Er3 S7 2.790462 1_545
Er3 S7 2.790462 1_455
Er3 S4 2.873646 1_556
Er3 S3 2.912514 1_545
Er3 S3 2.912514 1_455
Er4 S8 2.630432 1_555
Er4 S7 2.695247 1_454
Er4 S7 2.695247 1_544
Er4 S11 2.696371 1_444
Er4 S4 2.711466 1_545
Er4 S4 2.711466 1_455
Er5 S10 2.627396 1_555
Er5 S9 2.660099 1_665
Er5 S5 2.694520 1_565
Er5 S5 2.694520 1_655
Er5 S6 2.710183 1_565
Er5 S6 2.710183 1_655
Er6 S9 2.640687 1_665
Er6 S13 2.642436 1_655
Er6 S13 2.642436 1_565
Er6 S1 2.716146 1_565
Er6 S1 2.716146 1_655
Er6 S3 2.769189 1_555
Er7 S12 2.644234 1_545
Er7 S12 2.644234 1_455
Er7 S0 2.691661 1_555
Er7 S10 2.722796 1_445
Er7 S2 2.753545 1_455
Er7 S2 2.753545 1_545
Er8 S11 2.637324 1_445
Er8 S13 2.642403 1_545
Er8 S13 2.642403 1_455
Er8 S3 2.717189 1_545
Er8 S3 2.717189 1_455
Er8 S1 2.781025 1_555
Mn0 S8 2.551019 1_665
Mn0 S12 2.587143 1_655
Mn0 S12 2.587143 1_565
Mn0 S0 2.643088 1_655
Mn0 S0 2.643088 1_565
Mn0 S2 2.712142 1_555
