# generated using pymatgen
data_Mg14CdNi
_symmetry_space_group_name_H-M   'P 1'
_cell_length_a   6.29048310
_cell_length_b   6.29048260
_cell_length_c   9.87209938
_cell_angle_alpha   90.00000000
_cell_angle_beta   90.00000000
_cell_angle_gamma   120.00000263
_symmetry_Int_Tables_number   1
_chemical_formula_structural   Mg14CdNi
_chemical_formula_sum   'Mg14 Cd1 Ni1'
_cell_volume   338.30475671
_cell_formula_units_Z   1
loop_
 _symmetry_equiv_pos_site_id
 _symmetry_equiv_pos_as_xyz
  1  'x, y, z'
loop_
 _atom_site_type_symbol
 _atom_site_label
 _atom_site_symmetry_multiplicity
 _atom_site_fract_x
 _atom_site_fract_y
 _atom_site_fract_z
 _atom_site_occupancy
  Mg  Mg0  1  0.16306479  0.83153189  0.12500000  1
  Mg  Mg1  1  0.16694063  0.83346981  0.62500000  1
  Mg  Mg2  1  0.66846811  0.33693521  0.12500000  1
  Mg  Mg3  1  0.66653019  0.33305937  0.62500000  1
  Mg  Mg4  1  0.66846811  0.83153189  0.12500000  1
  Mg  Mg5  1  0.66653019  0.83346981  0.62500000  1
  Mg  Mg6  1  0.32731627  0.17268373  0.36647851  1
  Mg  Mg7  1  0.32731627  0.17268373  0.88352149  1
  Mg  Mg8  1  0.32731627  0.65463354  0.36647851  1
  Mg  Mg9  1  0.32731627  0.65463354  0.88352149  1
  Mg  Mg10  1  0.84536646  0.17268373  0.36647851  1
  Mg  Mg11  1  0.84536646  0.17268373  0.88352149  1
  Mg  Mg12  1  0.83333300  0.66666700  0.37667564  1
  Mg  Mg13  1  0.83333300  0.66666700  0.87332436  1
  Cd  Cd0  1  0.16666700  0.33333300  0.62500000  1
  Ni  Ni0  1  0.16666700  0.33333300  0.12500000  1
loop_
_geom_bond_atom_site_label_1
_geom_bond_atom_site_label_2
_geom_bond_distance
_geom_bond_site_symmetry_2
Mg0 Mg8 3.023002 1_555
Mg0 Mg9 3.023002 1_554
Mg0 Mg6 3.023008 1_565
Mg0 Mg7 3.023008 1_564
Mg0 Mg12 3.065896 1_455
Mg0 Mg13 3.065896 1_454
Mg0 Mg2 3.111252 1_455
Mg0 Mg4 3.111252 1_455
Mg0 Ni0 3.145302 1_555
Mg0 Ni0 3.145303 1_565
Mg0 Mg2 3.179231 1_565
Mg0 Mg4 3.179231 1_555
Mg1 Mg12 3.051674 1_455
Mg1 Mg13 3.051674 1_455
Mg1 Mg3 3.142659 1_565
Mg1 Mg5 3.142660 1_555
Mg1 Mg3 3.147823 1_455
Mg1 Mg5 3.147823 1_455
Mg1 Mg9 3.151458 1_555
Mg1 Mg8 3.151458 1_555
Mg1 Mg7 3.151465 1_565
Mg1 Mg6 3.151465 1_565
Mg2 Mg7 3.023008 1_554
Mg2 Mg6 3.023008 1_555
Mg2 Mg4 3.111252 1_555
Mg2 Ni0 3.145303 1_655
Mg2 Ni0 3.145303 1_555
Mg2 Mg4 3.179231 1_545
Mg3 Mg5 3.142659 1_545
Mg3 Mg5 3.147823 1_555
Mg3 Mg7 3.151465 1_555
Mg3 Mg6 3.151465 1_555
Mg4 Mg8 3.023008 1_555
Mg4 Mg9 3.023008 1_554
Mg4 Ni0 3.145303 1_665
Mg4 Ni0 3.145303 1_555
Mg5 Mg9 3.151464 1_555
Mg5 Mg8 3.151464 1_555
Mg6 Ni0 2.957479 1_555
Mg6 Mg8 3.031697 1_555
Mg6 Mg8 3.258786 1_545
Mg7 Ni0 2.957479 1_556
Mg7 Mg9 3.031697 1_555
Mg7 Mg9 3.258786 1_545
Mg8 Ni0 2.957485 1_555
Mg9 Ni0 2.957485 1_556
Mg10 Ni0 2.957485 1_655
Mg10 Mg2 3.023002 1_555
Mg10 Mg4 3.023008 1_545
Mg10 Mg8 3.031697 1_655
Mg10 Mg6 3.031697 1_655
Mg10 Mg12 3.147535 1_545
Mg10 Mg12 3.147535 1_555
Mg10 Mg3 3.151458 1_555
Mg10 Mg5 3.151464 1_545
Mg10 Mg8 3.258786 1_545
Mg10 Mg6 3.258786 1_555
Mg11 Ni0 2.957485 1_656
Mg11 Mg2 3.023002 1_556
Mg11 Mg4 3.023008 1_546
Mg11 Mg9 3.031697 1_655
Mg11 Mg7 3.031697 1_655
Mg11 Mg13 3.147535 1_545
Mg11 Mg13 3.147535 1_555
Mg11 Mg3 3.151458 1_555
Mg11 Mg5 3.151464 1_545
Mg11 Mg9 3.258786 1_545
Mg11 Mg7 3.258786 1_555
Mg12 Mg5 3.051667 1_555
Mg12 Mg3 3.051673 1_555
Mg12 Mg4 3.065889 1_555
Mg12 Mg2 3.065895 1_555
Mg12 Mg6 3.147535 1_665
Mg12 Mg6 3.147535 1_555
Mg12 Mg8 3.147535 1_555
Mg12 Mg8 3.147535 1_655
Mg13 Mg5 3.051667 1_555
Mg13 Mg3 3.051673 1_555
Mg13 Mg4 3.065889 1_556
Mg13 Mg2 3.065895 1_556
Mg13 Mg7 3.147535 1_665
Mg13 Mg7 3.147535 1_555
Mg13 Mg9 3.147535 1_555
Mg13 Mg9 3.147535 1_655
Cd0 Mg6 3.094701 1_555
Cd0 Mg7 3.094701 1_555
Cd0 Mg8 3.094707 1_555
Cd0 Mg9 3.094707 1_555
Cd0 Mg10 3.094707 1_455
Cd0 Mg11 3.094707 1_455
Cd0 Mg1 3.145242 1_555
Cd0 Mg5 3.145242 1_555
Cd0 Mg5 3.145242 1_445
Cd0 Mg1 3.145242 1_545
Cd0 Mg3 3.145242 1_455
Cd0 Mg3 3.145242 1_555
