# generated using pymatgen
data_Mg2Mn9O13
_symmetry_space_group_name_H-M   'P 1'
_cell_length_a   3.03871200
_cell_length_b   5.33097892
_cell_length_c   17.14738755
_cell_angle_alpha   97.89282879
_cell_angle_beta   90.28278470
_cell_angle_gamma   105.26277951
_symmetry_Int_Tables_number   1
_chemical_formula_structural   Mg2Mn9O13
_chemical_formula_sum   'Mg2 Mn9 O13'
_cell_volume   265.19421166
_cell_formula_units_Z   1
loop_
 _symmetry_equiv_pos_site_id
 _symmetry_equiv_pos_as_xyz
  1  'x, y, z'
loop_
 _atom_site_type_symbol
 _atom_site_label
 _atom_site_symmetry_multiplicity
 _atom_site_fract_x
 _atom_site_fract_y
 _atom_site_fract_z
 _atom_site_occupancy
  Mg  Mg0  1  0.22519800  0.43422500  0.22763500  1
  Mg  Mg1  1  0.77480200  0.56577500  0.77236500  1
  Mn  Mn0  1  0.50000000  0.00000000  0.50000000  1
  Mn  Mn1  1  0.64709400  0.29332500  0.04102400  1
  Mn  Mn2  1  0.35290600  0.70667500  0.95897600  1
  Mn  Mn3  1  0.75139600  0.49801600  0.41554800  1
  Mn  Mn4  1  0.24860400  0.50198400  0.58445200  1
  Mn  Mn5  1  0.94037400  0.87381500  0.12827800  1
  Mn  Mn6  1  0.05962600  0.12618500  0.87172200  1
  Mn  Mn7  1  0.99549400  0.98354300  0.32673300  1
  Mn  Mn8  1  0.00450600  0.01645700  0.67326700  1
  O  O0  1  0.00000000  0.00000000  0.00000000  1
  O  O1  1  0.85283300  0.70584100  0.22827800  1
  O  O2  1  0.14716700  0.29415900  0.77172200  1
  O  O3  1  0.29957800  0.59307100  0.06650200  1
  O  O4  1  0.70042200  0.40692900  0.93349800  1
  O  O5  1  0.59071500  0.18179100  0.14458300  1
  O  O6  1  0.40928500  0.81820900  0.85541700  1
  O  O7  1  0.63106300  0.26067200  0.30752600  1
  O  O8  1  0.36893700  0.73932800  0.69247400  1
  O  O9  1  0.39255500  0.78634600  0.39326200  1
  O  O10  1  0.60744500  0.21365400  0.60673800  1
  O  O11  1  0.13500000  0.25562000  0.46479200  1
  O  O12  1  0.86500000  0.74438000  0.53520800  1
loop_
_geom_bond_atom_site_label_1
_geom_bond_atom_site_label_2
_geom_bond_distance
_geom_bond_site_symmetry_2
Mg0 O1 2.058015 1_455
Mg0 O1 2.067761 1_555
Mg0 O7 2.277262 1_555
Mg0 O5 2.312783 1_555
Mg0 O7 2.342062 1_455
Mg0 O5 2.374207 1_455
Mg1 O2 2.058015 1_655
Mg1 O2 2.067761 1_555
Mg1 O8 2.277262 1_555
Mg1 O6 2.312783 1_555
Mg1 O8 2.342062 1_655
Mg1 O6 2.374207 1_655
Mn0 O9 1.994889 1_545
Mn0 O10 1.994889 1_555
Mn0 O12 2.113458 1_545
Mn0 O11 2.113458 1_555
Mn0 O11 2.190387 1_655
Mn0 O12 2.190387 1_445
Mn1 O5 1.943085 1_555
Mn1 O4 2.012598 1_554
Mn1 O3 2.135569 1_555
Mn1 O0 2.162925 1_655
Mn1 O3 2.192505 1_655
Mn1 O0 2.207237 1_555
Mn2 O6 1.943085 1_555
Mn2 O3 2.012598 1_556
Mn2 O4 2.135569 1_555
Mn2 O0 2.162925 1_566
Mn2 O4 2.192505 1_455
Mn2 O0 2.207237 1_666
Mn3 O7 2.066806 1_555
Mn3 O9 2.176533 1_555
Mn3 O11 2.196496 1_655
Mn3 O9 2.212805 1_655
Mn3 O11 2.220837 1_555
Mn3 O12 2.251310 1_555
Mn4 O8 2.066806 1_555
Mn4 O10 2.176533 1_555
Mn4 O12 2.196496 1_455
Mn4 O10 2.212805 1_455
Mn4 O12 2.220837 1_555
Mn4 O11 2.251310 1_555
Mn5 O1 2.028238 1_555
Mn5 O5 2.167477 1_565
Mn5 O5 2.199847 1_665
Mn5 O3 2.233727 1_655
Mn5 O3 2.272335 1_555
Mn5 O0 2.381148 1_665
Mn6 O2 2.028238 1_555
Mn6 O6 2.167477 1_545
Mn6 O6 2.199847 1_445
Mn6 O4 2.233727 1_455
Mn6 O4 2.272335 1_555
Mn6 O0 2.381148 1_556
Mn7 O1 2.048958 1_555
Mn7 O7 2.123399 1_565
Mn7 O7 2.158412 1_665
Mn7 O9 2.201342 1_655
Mn7 O9 2.258163 1_555
Mn7 O11 2.571218 1_665
Mn8 O2 2.048958 1_555
Mn8 O8 2.123399 1_545
Mn8 O8 2.158412 1_445
Mn8 O10 2.201342 1_455
Mn8 O10 2.258163 1_555
Mn8 O12 2.571218 1_445
