# generated using pymatgen
data_Cs2LiLaBr6
_symmetry_space_group_name_H-M   'P 1'
_cell_length_a   8.09784400
_cell_length_b   8.09784570
_cell_length_c   8.09784560
_cell_angle_alpha   59.99999640
_cell_angle_beta   59.99999835
_cell_angle_gamma   59.99999875
_symmetry_Int_Tables_number   1
_chemical_formula_structural   Cs2LiLaBr6
_chemical_formula_sum   'Cs2 Li1 La1 Br6'
_cell_volume   375.48567721
_cell_formula_units_Z   1
loop_
 _symmetry_equiv_pos_site_id
 _symmetry_equiv_pos_as_xyz
  1  'x, y, z'
loop_
 _atom_site_type_symbol
 _atom_site_label
 _atom_site_symmetry_multiplicity
 _atom_site_fract_x
 _atom_site_fract_y
 _atom_site_fract_z
 _atom_site_occupancy
  Cs  Cs0  1  0.25000000  0.25000000  0.25000000  1
  Cs  Cs1  1  0.75000000  0.75000000  0.75000000  1
  Li  Li0  1  0.50000000  0.50000000  0.50000000  1
  La  La0  1  0.00000000  0.00000000  0.00000000  1
  Br  Br0  1  0.25571100  0.74428900  0.25571100  1
  Br  Br1  1  0.74428900  0.74428900  0.25571100  1
  Br  Br2  1  0.74428900  0.25571100  0.74428900  1
  Br  Br3  1  0.74428900  0.25571100  0.25571100  1
  Br  Br4  1  0.25571100  0.74428900  0.74428900  1
  Br  Br5  1  0.25571100  0.25571100  0.74428900  1
loop_
_geom_bond_atom_site_label_1
_geom_bond_atom_site_label_2
_geom_bond_distance
_geom_bond_site_symmetry_2
Br0 Li0 2.797618 1_555
Br0 La0 2.928423 1_565
Br0 Cs1 4.049450 1_455
Br0 Cs1 4.049451 1_554
Br0 Cs0 4.049451 1_555
Br0 Cs0 4.049451 1_565
Br1 Li0 2.797618 1_555
Br1 La0 2.928423 1_665
Br1 Cs0 4.049451 1_655
Br1 Cs0 4.049451 1_565
Br1 Cs1 4.049451 1_555
Br1 Cs1 4.049451 1_554
Br2 Li0 2.797618 1_555
Br2 La0 2.928423 1_656
Br2 Cs0 4.049450 1_655
Br2 Cs0 4.049451 1_556
Br2 Cs1 4.049451 1_555
Br2 Cs1 4.049451 1_545
Br3 Li0 2.797618 1_555
Br3 La0 2.928424 1_655
Br3 Cs0 4.049450 1_655
Br3 Cs0 4.049450 1_555
Br3 Cs1 4.049451 1_554
Br3 Cs1 4.049451 1_545
Br4 Li0 2.797618 1_555
Br4 La0 2.928424 1_566
Br4 Cs1 4.049450 1_455
Br4 Cs1 4.049450 1_555
Br4 Cs0 4.049451 1_556
Br4 Cs0 4.049451 1_565
Br5 Li0 2.797618 1_555
Br5 La0 2.928423 1_556
Br5 Cs1 4.049451 1_455
Br5 Cs1 4.049451 1_545
Br5 Cs0 4.049451 1_555
Br5 Cs0 4.049451 1_556
