# generated using pymatgen
data_CeBr3O7
_symmetry_space_group_name_H-M   'P 1'
_cell_length_a   8.25715763
_cell_length_b   10.88206998
_cell_length_c   6.69523336
_cell_angle_alpha   90.20150822
_cell_angle_beta   100.82260777
_cell_angle_gamma   59.00917342
_symmetry_Int_Tables_number   1
_chemical_formula_structural   CeBr3O7
_chemical_formula_sum   'Ce2 Br6 O14'
_cell_volume   503.43806274
_cell_formula_units_Z   2
loop_
 _symmetry_equiv_pos_site_id
 _symmetry_equiv_pos_as_xyz
  1  'x, y, z'
loop_
 _atom_site_type_symbol
 _atom_site_label
 _atom_site_symmetry_multiplicity
 _atom_site_fract_x
 _atom_site_fract_y
 _atom_site_fract_z
 _atom_site_occupancy
  Ce  Ce0  1  0.30597500  0.80446300  0.83182800  1
  Ce  Ce1  1  0.69399600  0.19553800  0.16826200  1
  Br  Br0  1  0.33926600  0.52185000  0.23165200  1
  Br  Br1  1  0.66070800  0.47817900  0.76832300  1
  Br  Br2  1  0.23181700  0.97759100  0.26942600  1
  Br  Br3  1  0.76819300  0.02242000  0.73055900  1
  Br  Br4  1  0.22822300  0.21906700  0.86071200  1
  Br  Br5  1  0.77177000  0.78094800  0.13924800  1
  O  O0  1  0.97924700  0.90462400  0.65064500  1
  O  O1  1  0.02076100  0.09536800  0.34930800  1
  O  O2  1  0.38014000  0.83850500  0.59388400  1
  O  O3  1  0.61977500  0.16147900  0.40631500  1
  O  O4  1  0.08237100  0.58819300  0.67944500  1
  O  O5  1  0.91768400  0.41176800  0.32052600  1
  O  O6  1  0.21115300  0.46261100  0.67257000  1
  O  O7  1  0.78890100  0.53735200  0.32738500  1
  O  O8  1  0.15611800  0.02865900  0.99773500  1
  O  O9  1  0.84389600  0.97136300  0.00224600  1
  O  O10  1  0.30160900  0.65811900  0.04255600  1
  O  O11  1  0.69840200  0.34190900  0.95736400  1
  O  O12  1  0.53388300  0.81405800  0.09515300  1
  O  O13  1  0.46611200  0.18593800  0.90486000  1
loop_
_geom_bond_atom_site_label_1
_geom_bond_atom_site_label_2
_geom_bond_distance
_geom_bond_site_symmetry_2
Ce0 O2 1.911632 1_555
Ce0 O10 2.149890 1_556
Ce0 O12 2.369746 1_556
Ce0 O0 2.385376 1_455
Ce0 O8 2.470922 1_565
Ce1 O3 1.912618 1_555
Ce1 O11 2.151037 1_554
Ce1 O13 2.369943 1_554
Ce1 O1 2.385335 1_655
Ce1 O9 2.471177 1_545
Br0 O10 1.813572 1_555
Br1 O11 1.813218 1_555
Br2 O1 1.735175 1_565
Br2 O8 1.797450 1_564
Br2 O2 2.371675 1_555
Br3 O0 1.735316 1_545
Br3 O9 1.797408 1_546
Br3 O3 2.370401 1_555
Br4 O13 1.768959 1_555
Br5 O12 1.769034 1_555
O4 O6 1.233649 1_555
O5 O7 1.233645 1_555
