# generated using pymatgen
data_LiPr6B3O14
_symmetry_space_group_name_H-M   'P 1'
_cell_length_a   16.10779224
_cell_length_b   8.75825570
_cell_length_c   12.44986106
_cell_angle_alpha   48.02686056
_cell_angle_beta   90.00000000
_cell_angle_gamma   90.00000000
_symmetry_Int_Tables_number   1
_chemical_formula_structural   LiPr6B3O14
_chemical_formula_sum   'Li4 Pr24 B12 O56'
_cell_volume   1305.79450951
_cell_formula_units_Z   4
loop_
 _symmetry_equiv_pos_site_id
 _symmetry_equiv_pos_as_xyz
  1  'x, y, z'
loop_
 _atom_site_type_symbol
 _atom_site_label
 _atom_site_symmetry_multiplicity
 _atom_site_fract_x
 _atom_site_fract_y
 _atom_site_fract_z
 _atom_site_occupancy
  Li  Li0  1  0.60850640  0.89133498  0.44071101  1
  Li  Li1  1  0.39149360  0.10866502  0.55928899  1
  Li  Li2  1  0.10850640  0.10866502  0.05928899  1
  Li  Li3  1  0.89149360  0.89133498  0.94071101  1
  Pr  Pr0  1  0.82329365  0.56027604  0.30302167  1
  Pr  Pr1  1  0.17670635  0.43972396  0.69697833  1
  Pr  Pr2  1  0.32329365  0.43972396  0.19697833  1
  Pr  Pr3  1  0.67670635  0.56027604  0.80302167  1
  Pr  Pr4  1  0.32441474  0.98335227  0.05294945  1
  Pr  Pr5  1  0.67558526  0.01664773  0.94705055  1
  Pr  Pr6  1  0.82441474  0.01664773  0.44705055  1
  Pr  Pr7  1  0.17558526  0.98335227  0.55294945  1
  Pr  Pr8  1  0.35777904  0.83891294  0.42565273  1
  Pr  Pr9  1  0.64222096  0.16108706  0.57434727  1
  Pr  Pr10  1  0.85777904  0.16108706  0.07434727  1
  Pr  Pr11  1  0.14222096  0.83891294  0.92565273  1
  Pr  Pr12  1  0.51519770  0.66456123  0.28348344  1
  Pr  Pr13  1  0.48480230  0.33543877  0.71651656  1
  Pr  Pr14  1  0.01519770  0.33543877  0.21651656  1
  Pr  Pr15  1  0.98480230  0.66456123  0.78348344  1
  Pr  Pr16  1  0.50534222  0.23291875  0.06514986  1
  Pr  Pr17  1  0.49465778  0.76708125  0.93485014  1
  Pr  Pr18  1  0.00534222  0.76708125  0.43485014  1
  Pr  Pr19  1  0.99465778  0.23291875  0.56514986  1
  Pr  Pr20  1  0.66489518  0.41213759  0.16817860  1
  Pr  Pr21  1  0.33510482  0.58786241  0.83182140  1
  Pr  Pr22  1  0.16489518  0.58786241  0.33182140  1
  Pr  Pr23  1  0.83510482  0.41213759  0.66817860  1
  B  B0  1  0.82812546  0.54679727  0.02522394  1
  B  B1  1  0.17187454  0.45320273  0.97477606  1
  B  B2  1  0.32812546  0.45320273  0.47477606  1
  B  B3  1  0.67187454  0.54679727  0.52522394  1
  B  B4  1  0.00045773  0.79847575  0.14227663  1
  B  B5  1  0.99954227  0.20152425  0.85772337  1
  B  B6  1  0.50045773  0.20152425  0.35772337  1
  B  B7  1  0.49954227  0.79847575  0.64227663  1
  B  B8  1  0.69502683  0.96035093  0.22321599  1
  B  B9  1  0.30497317  0.03964907  0.77678401  1
  B  B10  1  0.19502683  0.03964907  0.27678401  1
  B  B11  1  0.80497317  0.96035093  0.72321599  1
  O  O0  1  0.75219781  0.89215088  0.17842456  1
  O  O1  1  0.24780219  0.10784912  0.82157544  1
  O  O2  1  0.25219781  0.10784912  0.32157544  1
  O  O3  1  0.74780219  0.89215088  0.67842456  1
  O  O4  1  0.46655604  0.69478939  0.60291145  1
  O  O5  1  0.53344396  0.30521061  0.39708855  1
  O  O6  1  0.96655604  0.30521061  0.89708855  1
  O  O7  1  0.03344396  0.69478939  0.10291145  1
  O  O8  1  0.42177473  0.93146753  0.21924257  1
  O  O9  1  0.57822527  0.06853247  0.78075743  1
  O  O10  1  0.92177473  0.06853247  0.28075743  1
  O  O11  1  0.07822527  0.93146753  0.71924257  1
  O  O12  1  0.91854771  0.85993490  0.11350492  1
  O  O13  1  0.08145229  0.14006510  0.88649508  1
  O  O14  1  0.41854771  0.14006510  0.38649508  1
  O  O15  1  0.58145229  0.85993490  0.61350492  1
  O  O16  1  0.90971407  0.51246106  0.01251848  1
  O  O17  1  0.09028593  0.48753894  0.98748152  1
  O  O18  1  0.40971407  0.48753894  0.48748152  1
  O  O19  1  0.59028593  0.51246106  0.51251848  1
  O  O20  1  0.80269955  0.64828839  0.06867826  1
  O  O21  1  0.19730045  0.35171161  0.93132174  1
  O  O22  1  0.30269955  0.35171161  0.43132174  1
  O  O23  1  0.69730045  0.64828839  0.56867826  1
  O  O24  1  0.44876999  0.83558289  0.71190556  1
  O  O25  1  0.55123001  0.16441711  0.28809444  1
  O  O26  1  0.94876999  0.16441711  0.78809444  1
  O  O27  1  0.05123001  0.83558289  0.21190556  1
  O  O28  1  0.59886837  0.70487410  0.10429551  1
  O  O29  1  0.40113163  0.29512590  0.89570449  1
  O  O30  1  0.09886837  0.29512590  0.39570449  1
  O  O31  1  0.90113163  0.70487410  0.60429551  1
  O  O32  1  0.91192339  0.52932593  0.46341583  1
  O  O33  1  0.08807661  0.47067407  0.53658417  1
  O  O34  1  0.41192339  0.47067407  0.03658417  1
  O  O35  1  0.58807661  0.52932593  0.96341583  1
  O  O36  1  0.41442673  0.71540427  0.12125622  1
  O  O37  1  0.58557327  0.28459573  0.87874378  1
  O  O38  1  0.91442673  0.28459573  0.37874378  1
  O  O39  1  0.08557327  0.71540427  0.62125622  1
  O  O40  1  0.23317268  0.71661058  0.12180327  1
  O  O41  1  0.76682732  0.28338942  0.87819673  1
  O  O42  1  0.73317268  0.28338942  0.37819673  1
  O  O43  1  0.26682732  0.71661058  0.62180327  1
  O  O44  1  0.22488890  0.94549228  0.22922569  1
  O  O45  1  0.77511110  0.05450772  0.77077431  1
  O  O46  1  0.72488890  0.05450772  0.27077431  1
  O  O47  1  0.27511110  0.94549228  0.72922569  1
  O  O48  1  0.61194382  0.94409456  0.20618327  1
  O  O49  1  0.38805618  0.05590544  0.79381673  1
  O  O50  1  0.11194382  0.05590544  0.29381673  1
  O  O51  1  0.88805618  0.94409456  0.70618327  1
  O  O52  1  0.76772353  0.45800743  0.00255138  1
  O  O53  1  0.23227647  0.54199257  0.99744862  1
  O  O54  1  0.26772353  0.54199257  0.49744862  1
  O  O55  1  0.73227647  0.45800743  0.50255138  1
loop_
_geom_bond_atom_site_label_1
_geom_bond_atom_site_label_2
_geom_bond_distance
_geom_bond_site_symmetry_2
Li0 O15 2.025372 1_555
Li0 O25 2.025660 1_565
Li0 O23 2.139855 1_555
Li0 O46 2.447175 1_565
Li1 O14 2.025372 1_555
Li1 O24 2.025660 1_545
Li1 O22 2.139855 1_555
Li1 O47 2.447175 1_545
Li2 O13 2.025372 1_554
Li2 O27 2.025660 1_545
Li2 O21 2.139855 1_554
Li2 O44 2.447175 1_545
Li3 O12 2.025372 1_556
Li3 O26 2.025660 1_565
Li3 O20 2.139855 1_556
Li3 O45 2.447175 1_565
B0 O20 1.376136 1_555
B0 O16 1.380666 1_555
B0 O52 1.387309 1_555
B1 O21 1.376136 1_555
B1 O17 1.380666 1_555
B1 O53 1.387309 1_555
B2 O22 1.376136 1_555
B2 O18 1.380666 1_555
B2 O54 1.387309 1_555
B3 O23 1.376136 1_555
B3 O19 1.380666 1_555
B3 O55 1.387309 1_555
B4 O12 1.378746 1_455
B4 O27 1.379405 1_555
B4 O7 1.393724 1_555
B5 O13 1.378746 1_655
B5 O26 1.379405 1_555
B5 O6 1.393724 1_555
B6 O14 1.378746 1_555
B6 O25 1.379405 1_555
B6 O5 1.393724 1_555
B7 O15 1.378746 1_555
B7 O24 1.379405 1_555
B7 O4 1.393724 1_555
B8 O48 1.377180 1_555
B8 O46 1.383867 1_565
B8 O0 1.400477 1_555
B9 O49 1.377180 1_555
B9 O47 1.383867 1_545
B9 O1 1.400477 1_555
B10 O50 1.377180 1_555
B10 O44 1.383867 1_545
B10 O2 1.400477 1_555
B11 O51 1.377180 1_555
B11 O45 1.383867 1_565
B11 O3 1.400477 1_555
O0 Pr10 2.457024 1_565
O0 Pr0 2.476989 1_555
O0 Pr5 2.609284 1_564
O1 Pr11 2.457024 1_545
O1 Pr1 2.476989 1_555
O1 Pr4 2.609284 1_546
O2 Pr8 2.457024 1_545
O2 Pr2 2.476989 1_555
O2 Pr7 2.609284 1_545
O3 Pr9 2.457024 1_565
O3 Pr3 2.476989 1_555
O3 Pr6 2.609284 1_565
O4 Pr8 2.409893 1_555
O4 Pr13 2.457267 1_555
O5 Pr9 2.409893 1_555
O5 Pr12 2.457267 1_555
O6 Pr10 2.409893 1_556
O6 Pr15 2.457267 1_555
O7 Pr11 2.409893 1_554
O7 Pr14 2.457267 1_555
O8 Pr8 2.353121 1_555
O8 Pr16 2.384981 1_565
O8 Pr4 2.386167 1_555
O8 Pr12 2.422396 1_555
O9 Pr9 2.353121 1_555
O9 Pr17 2.384981 1_545
O9 Pr5 2.386167 1_555
O9 Pr13 2.422396 1_555
O10 Pr10 2.353121 1_555
O10 Pr18 2.384981 1_645
O10 Pr6 2.386167 1_555
O10 Pr14 2.422396 1_655
O11 Pr11 2.353121 1_555
O11 Pr19 2.384981 1_465
O11 Pr7 2.386167 1_555
O11 Pr15 2.422396 1_455
O12 Pr10 2.536274 1_565
O12 Pr0 2.554695 1_555
O13 Pr11 2.536274 1_545
O13 Pr1 2.554695 1_555
O14 Pr8 2.536274 1_545
O14 Pr2 2.554695 1_555
O15 Pr9 2.536274 1_565
O15 Pr3 2.554695 1_555
O16 Pr15 2.507492 1_554
O16 Pr14 2.544445 1_655
O16 Pr10 2.755788 1_555
O17 Pr14 2.507492 1_556
O17 Pr15 2.544445 1_455
O17 Pr11 2.755788 1_555
O18 Pr13 2.507492 1_555
O18 Pr12 2.544445 1_555
O18 Pr8 2.755788 1_555
O19 Pr12 2.507492 1_555
O19 Pr13 2.544445 1_555
O19 Pr9 2.755788 1_555
O20 Pr0 2.491622 1_555
O20 Pr20 2.704159 1_555
O21 Pr1 2.491622 1_555
O21 Pr21 2.704159 1_555
O22 Pr2 2.491622 1_555
O22 Pr22 2.704159 1_555
O23 Pr3 2.491622 1_555
O23 Pr23 2.704159 1_555
O24 Pr21 2.440436 1_555
O24 Pr17 2.526465 1_555
O25 Pr20 2.440436 1_555
O25 Pr16 2.526465 1_555
O26 Pr23 2.440436 1_555
O26 Pr19 2.526465 1_555
O27 Pr22 2.440436 1_555
O27 Pr18 2.526465 1_555
O28 Pr20 2.368461 1_555
O28 Pr5 2.380248 1_564
O28 Pr12 2.421634 1_555
O28 Pr17 2.455098 1_554
O29 Pr21 2.368461 1_555
O29 Pr4 2.380248 1_546
O29 Pr13 2.421634 1_555
O29 Pr16 2.455098 1_556
O30 Pr22 2.368461 1_555
O30 Pr7 2.380248 1_545
O30 Pr14 2.421634 1_555
O30 Pr19 2.455098 1_455
O31 Pr23 2.368461 1_555
O31 Pr6 2.380248 1_565
O31 Pr15 2.421634 1_555
O31 Pr18 2.455098 1_655
O32 Pr0 2.318435 1_555
O32 Pr23 2.362961 1_555
O32 Pr19 2.391970 1_555
O32 Pr18 2.395066 1_655
O33 Pr1 2.318435 1_555
O33 Pr22 2.362961 1_555
O33 Pr18 2.391970 1_555
O33 Pr19 2.395066 1_455
O34 Pr2 2.318435 1_555
O34 Pr21 2.362961 1_554
O34 Pr17 2.391970 1_554
O34 Pr16 2.395066 1_555
O35 Pr3 2.318435 1_555
O35 Pr20 2.362961 1_556
O35 Pr16 2.391970 1_556
O35 Pr17 2.395066 1_555
O36 Pr4 2.379764 1_555
O36 Pr12 2.389417 1_555
O36 Pr2 2.414284 1_555
O36 Pr17 2.419889 1_554
O37 Pr5 2.379764 1_555
O37 Pr13 2.389417 1_555
O37 Pr3 2.414284 1_555
O37 Pr16 2.419889 1_556
O38 Pr6 2.379764 1_555
O38 Pr14 2.389417 1_655
O38 Pr0 2.414284 1_555
O38 Pr19 2.419889 1_555
O39 Pr7 2.379764 1_555
O39 Pr15 2.389417 1_455
O39 Pr1 2.414284 1_555
O39 Pr18 2.419889 1_555
O40 Pr22 2.318207 1_555
O40 Pr4 2.382019 1_555
O40 Pr11 2.399681 1_554
O40 Pr2 2.414182 1_555
O41 Pr23 2.318207 1_555
O41 Pr5 2.382019 1_555
O41 Pr10 2.399681 1_556
O41 Pr3 2.414182 1_555
O42 Pr20 2.318207 1_555
O42 Pr6 2.382019 1_555
O42 Pr9 2.399681 1_555
O42 Pr0 2.414182 1_555
O43 Pr21 2.318207 1_555
O43 Pr7 2.382019 1_555
O43 Pr8 2.399681 1_555
O43 Pr1 2.414182 1_555
O44 Pr4 2.554015 1_555
O44 Pr22 2.650438 1_555
O44 Pr8 2.894902 1_555
O45 Pr5 2.554015 1_555
O45 Pr23 2.650438 1_555
O45 Pr9 2.894902 1_555
O46 Pr6 2.554015 1_555
O46 Pr20 2.650438 1_555
O46 Pr10 2.894902 1_555
O47 Pr7 2.554015 1_555
O47 Pr21 2.650438 1_555
O47 Pr11 2.894902 1_555
O48 Pr12 2.489382 1_555
O48 Pr16 2.547438 1_565
O49 Pr13 2.489382 1_555
O49 Pr17 2.547438 1_545
O50 Pr14 2.489382 1_555
O50 Pr18 2.547438 1_545
O51 Pr15 2.489382 1_555
O51 Pr19 2.547438 1_565
O52 Pr20 2.459431 1_555
O52 Pr3 2.479197 1_554
O52 Pr10 2.560606 1_555
O53 Pr21 2.459431 1_555
O53 Pr2 2.479197 1_556
O53 Pr11 2.560606 1_555
O54 Pr22 2.459431 1_555
O54 Pr1 2.479197 1_555
O54 Pr8 2.560606 1_555
O55 Pr23 2.459431 1_555
O55 Pr0 2.479197 1_555
O55 Pr9 2.560606 1_555
