# generated using pymatgen
data_Mg17Al11Pt
_symmetry_space_group_name_H-M   'P 1'
_cell_length_a   9.07866802
_cell_length_b   8.98578722
_cell_length_c   9.08117381
_cell_angle_alpha   109.45860627
_cell_angle_beta   109.87037420
_cell_angle_gamma   108.86466515
_symmetry_Int_Tables_number   1
_chemical_formula_structural   Mg17Al11Pt
_chemical_formula_sum   'Mg17 Al11 Pt1'
_cell_volume   571.80329465
_cell_formula_units_Z   1
loop_
 _symmetry_equiv_pos_site_id
 _symmetry_equiv_pos_as_xyz
  1  'x, y, z'
loop_
 _atom_site_type_symbol
 _atom_site_label
 _atom_site_symmetry_multiplicity
 _atom_site_fract_x
 _atom_site_fract_y
 _atom_site_fract_z
 _atom_site_occupancy
  Mg  Mg0  1  0.61046000  0.32581000  0.00000000  1
  Mg  Mg1  1  0.31441000  0.60714600  0.00000000  1
  Mg  Mg2  1  0.99938100  0.34733200  0.00000000  1
  Mg  Mg3  1  0.34651800  0.00326600  0.00000000  1
  Mg  Mg4  1  0.99847300  0.99426700  0.00000000  1
  Mg  Mg5  1  0.68350200  0.68199200  0.27776100  1
  Mg  Mg6  1  0.99426900  0.60418500  0.30901900  1
  Mg  Mg7  1  0.60136900  0.00002800  0.31675500  1
  Mg  Mg8  1  0.99736200  0.99264000  0.33791600  1
  Mg  Mg9  1  0.71384400  0.39794100  0.39711700  1
  Mg  Mg10  1  0.39885400  0.71364400  0.39796600  1
  Mg  Mg11  1  0.00088800  0.31567800  0.60203500  1
  Mg  Mg12  1  0.31672700  0.00082400  0.60288400  1
  Mg  Mg13  1  0.65944600  0.65472500  0.66208300  1
  Mg  Mg14  1  0.28461400  0.68327100  0.68324400  1
  Mg  Mg15  1  0.68525200  0.29516600  0.69098100  1
  Mg  Mg16  1  0.40574300  0.40423300  0.72224000  1
  Al  Al0  1  0.63737800  0.80640400  0.00000100  1
  Al  Al1  1  0.36620600  0.36695100  0.18041000  1
  Al  Al2  1  0.17479700  0.81340100  0.18196800  1
  Al  Al3  1  0.81780600  0.18212800  0.18456800  1
  Al  Al4  1  0.18105700  0.36525500  0.36554800  1
  Al  Al5  1  0.36674100  0.17867900  0.36571200  1
  Al  Al6  1  0.00103000  0.81296800  0.63428900  1
  Al  Al7  1  0.81550900  0.99970700  0.63445400  1
  Al  Al8  1  0.63323900  0.99756000  0.81543200  1
  Al  Al9  1  0.99282800  0.63143300  0.81803100  1
  Al  Al10  1  0.18579600  0.18654000  0.81959000  1
  Pt  Pt0  1  0.81649900  0.63682500  0.00000000  1
loop_
_geom_bond_atom_site_label_1
_geom_bond_atom_site_label_2
_geom_bond_distance
_geom_bond_site_symmetry_2
Mg0 Pt0 2.815821 1_555
Mg0 Mg16 3.026159 1_554
Mg0 Mg5 3.026160 1_555
Mg0 Mg3 3.106613 1_555
Mg0 Mg12 3.170909 1_554
Mg0 Mg9 3.170914 1_555
Mg1 Mg2 3.051633 1_455
Mg1 Mg5 3.116055 1_555
Mg1 Mg16 3.116055 1_554
Mg1 Mg14 3.117226 1_554
Mg1 Mg7 3.117227 1_565
Mg1 Mg11 3.146806 1_554
Mg1 Mg10 3.146812 1_555
Mg2 Mg6 3.007783 1_555
Mg2 Mg4 3.169911 1_545
Mg3 Mg7 3.033715 1_555
Mg3 Mg4 3.134573 1_445
Mg4 Mg8 3.076997 1_555
Mg4 Pt0 3.100683 1_555
Mg5 Mg8 2.998669 1_555
Mg5 Mg6 3.064770 1_555
Mg5 Pt0 3.112927 1_555
Mg5 Mg7 3.119570 1_565
Mg5 Mg9 3.140141 1_555
Mg6 Pt0 2.888164 1_555
Mg6 Mg9 3.142847 1_555
Mg7 Mg9 3.123107 1_555
Mg8 Pt0 2.996399 1_555
Mg10 Mg13 3.070640 1_555
Mg10 Mg12 3.109027 1_565
Mg10 Mg7 3.110163 1_565
Mg10 Mg14 3.158516 1_555
Mg10 Mg5 3.183834 1_555
Mg10 Mg6 3.198286 1_455
Mg11 Mg8 3.070656 1_445
Mg11 Mg9 3.109026 1_455
Mg11 Mg14 3.110157 1_555
Mg11 Mg7 3.158521 1_455
Mg11 Mg16 3.183847 1_555
Mg11 Mg15 3.198263 1_455
Mg12 Mg8 3.033725 1_445
Mg12 Mg14 3.123114 1_545
Mg12 Mg16 3.140154 1_555
Mg12 Mg15 3.142863 1_555
Mg12 Mg6 3.162238 1_445
Mg13 Pt0 2.996412 1_556
Mg13 Mg16 2.998666 1_555
Mg13 Mg9 3.033721 1_555
Mg13 Mg4 3.076997 1_556
Mg14 Mg3 3.033731 1_566
Mg14 Mg16 3.119551 1_555
Mg14 Mg6 3.176859 1_455
Mg15 Pt0 2.888169 1_556
Mg15 Mg2 3.007772 1_556
Mg15 Mg16 3.064783 1_555
Mg15 Mg9 3.162232 1_555
Mg15 Mg7 3.176851 1_555
Mg16 Pt0 3.112912 1_556
Al0 Pt0 2.562978 1_555
Al0 Al3 2.770960 1_565
Al0 Al8 2.770967 1_554
Al0 Mg1 2.899688 1_555
Al0 Mg7 3.013454 1_565
Al0 Mg14 3.013464 1_554
Al0 Mg8 3.020343 1_555
Al0 Mg13 3.020362 1_554
Al0 Mg16 3.041546 1_554
Al0 Mg5 3.041550 1_555
Al0 Mg4 3.165127 1_555
Al1 Al10 2.672619 1_554
Al1 Al4 2.752085 1_555
Al1 Al5 2.755044 1_555
Al1 Mg5 2.901984 1_555
Al1 Mg10 2.932646 1_555
Al1 Mg9 2.958995 1_555
Al1 Mg3 3.041698 1_555
Al1 Mg2 3.086246 1_455
Al1 Mg1 3.170526 1_555
Al1 Mg0 3.214714 1_555
Al1 Mg4 3.231291 1_445
Al2 Pt0 2.662862 1_455
Al2 Al9 2.695707 1_454
Al2 Al5 2.696308 1_565
Al2 Mg6 2.879192 1_455
Al2 Mg10 2.902936 1_555
Al2 Mg1 2.945277 1_555
Al2 Mg8 2.983865 1_455
Al2 Mg4 3.099688 1_455
Al2 Mg3 3.159357 1_565
Al2 Mg12 3.172857 1_565
Al2 Mg7 3.243242 1_565
Al3 Al4 2.699824 1_655
Al3 Al8 2.734216 1_544
Al3 Mg9 2.881900 1_555
Al3 Mg7 2.968584 1_555
Al3 Mg0 2.981335 1_555
Al3 Mg8 3.054062 1_545
Al3 Mg2 3.111897 1_555
Al3 Mg11 3.157634 1_655
Al3 Mg4 3.181741 1_545
Al3 Mg6 3.195546 1_555
Al4 Al5 2.734987 1_555
Al4 Mg14 2.880866 1_555
Al4 Mg10 2.963799 1_555
Al4 Mg16 3.011050 1_555
Al4 Mg2 3.084827 1_455
Al4 Mg8 3.098347 1_445
Al4 Mg11 3.168627 1_555
Al4 Mg4 3.192731 1_445
Al4 Mg6 3.200882 1_455
Al5 Mg15 2.891153 1_555
Al5 Mg9 2.982146 1_555
Al5 Mg16 3.016697 1_555
Al5 Mg3 3.075473 1_555
Al5 Mg8 3.101980 1_445
Al5 Mg7 3.113138 1_555
Al5 Mg12 3.144523 1_555
Al5 Mg4 3.186902 1_445
Al6 Al9 2.696301 1_455
Al6 Al7 2.734987 1_455
Al6 Mg6 2.891148 1_455
Al6 Mg12 2.982136 1_565
Al6 Mg5 3.016700 1_455
Al6 Mg3 3.075465 1_566
Al6 Mg13 3.101977 1_455
Al6 Mg14 3.113148 1_555
Al6 Mg9 3.144523 1_455
Al6 Mg4 3.186898 1_456
Al7 Al8 2.699802 1_555
Al7 Mg7 2.880895 1_565
Al7 Mg11 2.963805 1_665
Al7 Mg5 3.011057 1_555
Al7 Mg2 3.084817 1_566
Al7 Mg13 3.098324 1_555
Al7 Mg10 3.168619 1_555
Al7 Mg4 3.192715 1_556
Al7 Mg15 3.200869 1_565
Al8 Mg12 2.881904 1_565
Al8 Mg14 2.968596 1_555
Al8 Mg0 2.981341 1_566
Al8 Mg13 3.054050 1_555
Al8 Mg2 3.111891 1_566
Al8 Mg10 3.157626 1_555
Al8 Mg4 3.181732 1_556
Al8 Mg15 3.195546 1_565
Al9 Pt0 2.662863 1_556
Al9 Mg15 2.879181 1_555
Al9 Mg11 2.902935 1_655
Al9 Mg1 2.945287 1_656
Al9 Mg13 2.983862 1_555
Al9 Mg4 3.099685 1_556
Al9 Mg3 3.159360 1_666
Al9 Mg9 3.172841 1_555
Al9 Mg14 3.243251 1_655
Al10 Al7 2.752084 1_445
Al10 Al6 2.755030 1_545
Al10 Mg16 2.902003 1_555
Al10 Mg11 2.932648 1_555
Al10 Mg12 2.958986 1_555
Al10 Mg3 3.041690 1_556
Al10 Mg2 3.086250 1_456
Al10 Mg1 3.170534 1_556
Al10 Mg0 3.214712 1_556
Al10 Mg4 3.231287 1_446
