# generated using pymatgen
data_CaVF4
_symmetry_space_group_name_H-M   'P 1'
_cell_length_a   6.51901544
_cell_length_b   6.51901544
_cell_length_c   5.47213596
_cell_angle_alpha   69.23955665
_cell_angle_beta   69.23955665
_cell_angle_gamma   49.03422013
_symmetry_Int_Tables_number   1
_chemical_formula_structural   CaVF4
_chemical_formula_sum   'Ca2 V2 F8'
_cell_volume   161.72632479
_cell_formula_units_Z   2
loop_
 _symmetry_equiv_pos_site_id
 _symmetry_equiv_pos_as_xyz
  1  'x, y, z'
loop_
 _atom_site_type_symbol
 _atom_site_label
 _atom_site_symmetry_multiplicity
 _atom_site_fract_x
 _atom_site_fract_y
 _atom_site_fract_z
 _atom_site_occupancy
  Ca  Ca0  1  0.25059600  0.74940400  0.75000000  1
  Ca  Ca1  1  0.74940400  0.25059600  0.25000000  1
  V  V0  1  0.50000000  0.00000000  0.00000000  1
  V  V1  1  0.00000000  0.50000000  0.50000000  1
  F  F0  1  0.44853500  0.33686500  0.02278100  1
  F  F1  1  0.17679900  0.11180200  0.35794300  1
  F  F2  1  0.55146500  0.66313500  0.97721900  1
  F  F3  1  0.11180200  0.17679900  0.85794300  1
  F  F4  1  0.82320100  0.88819800  0.64205700  1
  F  F5  1  0.33686500  0.44853500  0.52278100  1
  F  F6  1  0.88819800  0.82320100  0.14205700  1
  F  F7  1  0.66313500  0.55146500  0.47721900  1
loop_
_geom_bond_atom_site_label_1
_geom_bond_atom_site_label_2
_geom_bond_distance
_geom_bond_site_symmetry_2
Ca0 F0 2.257238 1_556
Ca0 F7 2.257238 1_555
Ca0 F5 2.344361 1_555
Ca0 F2 2.344361 1_555
Ca0 F6 2.462465 1_456
Ca0 F1 2.462465 1_565
Ca0 F3 2.532343 1_565
Ca0 F4 2.532343 1_455
Ca1 F5 2.257238 1_555
Ca1 F2 2.257238 1_554
Ca1 F0 2.344361 1_555
Ca1 F7 2.344361 1_555
Ca1 F3 2.462465 1_654
Ca1 F4 2.462465 1_545
Ca1 F6 2.532343 1_545
Ca1 F1 2.532343 1_655
F0 V0 2.036909 1_555
F1 V0 2.209039 1_555
F1 V1 2.296070 1_555
F2 V0 2.036909 1_566
F3 V1 2.209039 1_555
F3 V0 2.296070 1_556
F4 V0 2.209039 1_566
F4 V1 2.296070 1_655
F5 V1 2.036909 1_555
F6 V1 2.209039 1_655
F6 V0 2.296070 1_565
F7 V1 2.036909 1_655
