# generated using pymatgen
data_Mn2Se3(NO6)2
_symmetry_space_group_name_H-M   'P 1'
_cell_length_a   10.38444300
_cell_length_b   10.38444300
_cell_length_c   10.38444300
_cell_angle_alpha   90.00000000
_cell_angle_beta   90.00000000
_cell_angle_gamma   90.00000000
_symmetry_Int_Tables_number   1
_chemical_formula_structural   Mn2Se3(NO6)2
_chemical_formula_sum   'Mn8 Se12 N8 O48'
_cell_volume   1119.82361191
_cell_formula_units_Z   4
loop_
 _symmetry_equiv_pos_site_id
 _symmetry_equiv_pos_as_xyz
  1  'x, y, z'
loop_
 _atom_site_type_symbol
 _atom_site_label
 _atom_site_symmetry_multiplicity
 _atom_site_fract_x
 _atom_site_fract_y
 _atom_site_fract_z
 _atom_site_occupancy
  Mn  Mn0  1  0.33824100  0.33824100  0.33824100  1
  Mn  Mn1  1  0.16175900  0.66175900  0.83824100  1
  Mn  Mn2  1  0.66175900  0.83824100  0.16175900  1
  Mn  Mn3  1  0.83824100  0.16175900  0.66175900  1
  Mn  Mn4  1  0.60220800  0.60220800  0.60220800  1
  Mn  Mn5  1  0.89779200  0.39779200  0.10220800  1
  Mn  Mn6  1  0.39779200  0.10220800  0.89779200  1
  Mn  Mn7  1  0.10220800  0.89779200  0.39779200  1
  Se  Se0  1  0.02057900  0.21283000  0.37581700  1
  Se  Se1  1  0.47942100  0.78717000  0.87581700  1
  Se  Se2  1  0.97942100  0.71283000  0.12418300  1
  Se  Se3  1  0.37581700  0.02057900  0.21283000  1
  Se  Se4  1  0.52057900  0.28717000  0.62418300  1
  Se  Se5  1  0.87581700  0.47942100  0.78717000  1
  Se  Se6  1  0.12418300  0.97942100  0.71283000  1
  Se  Se7  1  0.62418300  0.52057900  0.28717000  1
  Se  Se8  1  0.21283000  0.37581700  0.02057900  1
  Se  Se9  1  0.71283000  0.12418300  0.97942100  1
  Se  Se10  1  0.28717000  0.62418300  0.52057900  1
  Se  Se11  1  0.78717000  0.87581700  0.47942100  1
  N  N0  1  0.04655900  0.04655900  0.04655900  1
  N  N1  1  0.45344100  0.95344100  0.54655900  1
  N  N2  1  0.95344100  0.54655900  0.45344100  1
  N  N3  1  0.54655900  0.45344100  0.95344100  1
  N  N4  1  0.81688200  0.81688200  0.81688200  1
  N  N5  1  0.68311800  0.18311800  0.31688200  1
  N  N6  1  0.18311800  0.31688200  0.68311800  1
  N  N7  1  0.31688200  0.68311800  0.18311800  1
  O  O0  1  0.00802600  0.05745300  0.32770200  1
  O  O1  1  0.49197400  0.94254600  0.82770200  1
  O  O2  1  0.99197400  0.55745400  0.17229800  1
  O  O3  1  0.32770200  0.00802600  0.05745300  1
  O  O4  1  0.50802600  0.44254700  0.67229800  1
  O  O5  1  0.82770200  0.49197400  0.94254600  1
  O  O6  1  0.17229800  0.99197400  0.55745400  1
  O  O7  1  0.67229800  0.50802600  0.44254700  1
  O  O8  1  0.05745300  0.32770200  0.00802600  1
  O  O9  1  0.55745400  0.17229800  0.99197400  1
  O  O10  1  0.44254700  0.67229800  0.50802600  1
  O  O11  1  0.94254600  0.82770200  0.49197400  1
  O  O12  1  0.26273700  0.48976500  0.43579900  1
  O  O13  1  0.23726300  0.51023500  0.93579900  1
  O  O14  1  0.73726300  0.98976500  0.06420100  1
  O  O15  1  0.43579900  0.26273700  0.48976500  1
  O  O16  1  0.76273700  0.01023500  0.56420100  1
  O  O17  1  0.93579900  0.23726300  0.51023500  1
  O  O18  1  0.06420100  0.73726300  0.98976500  1
  O  O19  1  0.56420100  0.76273700  0.01023500  1
  O  O20  1  0.48976500  0.43579900  0.26273700  1
  O  O21  1  0.98976500  0.06420100  0.73726300  1
  O  O22  1  0.01023500  0.56420100  0.76273700  1
  O  O23  1  0.51023500  0.93579900  0.23726300  1
  O  O24  1  0.04976300  0.80853600  0.23135700  1
  O  O25  1  0.45023700  0.19146400  0.73135700  1
  O  O26  1  0.95023700  0.30853600  0.26864300  1
  O  O27  1  0.23135700  0.04976300  0.80853600  1
  O  O28  1  0.54976300  0.69146400  0.76864300  1
  O  O29  1  0.73135700  0.45023700  0.19146400  1
  O  O30  1  0.26864300  0.95023700  0.30853600  1
  O  O31  1  0.76864300  0.54976300  0.69146400  1
  O  O32  1  0.80853600  0.23135700  0.04976300  1
  O  O33  1  0.30853600  0.26864300  0.95023700  1
  O  O34  1  0.69146400  0.76864300  0.54976300  1
  O  O35  1  0.19146400  0.73135700  0.45023700  1
  O  O36  1  0.17388300  0.24943700  0.40592500  1
  O  O37  1  0.32611700  0.75056300  0.90592500  1
  O  O38  1  0.82611700  0.74943700  0.09407500  1
  O  O39  1  0.40592500  0.17388300  0.24943700  1
  O  O40  1  0.67388300  0.25056300  0.59407500  1
  O  O41  1  0.90592500  0.32611700  0.75056300  1
  O  O42  1  0.09407500  0.82611700  0.74943700  1
  O  O43  1  0.59407500  0.67388300  0.25056300  1
  O  O44  1  0.24943700  0.40592500  0.17388300  1
  O  O45  1  0.74943700  0.09407500  0.82611700  1
  O  O46  1  0.25056300  0.59407500  0.67388300  1
  O  O47  1  0.75056300  0.90592500  0.32611700  1
loop_
_geom_bond_atom_site_label_1
_geom_bond_atom_site_label_2
_geom_bond_distance
_geom_bond_site_symmetry_2
Mn0 O20 2.029035 1_555
Mn0 O15 2.029035 1_555
Mn0 O12 2.029035 1_555
Mn0 O44 2.063366 1_555
Mn0 O39 2.063366 1_555
Mn0 O36 2.063366 1_555
Mn1 O13 2.029035 1_555
Mn1 O18 2.029035 1_555
Mn1 O22 2.029035 1_555
Mn1 O46 2.063366 1_555
Mn1 O37 2.063366 1_555
Mn1 O42 2.063366 1_555
Mn2 O23 2.029035 1_555
Mn2 O14 2.029035 1_555
Mn2 O19 2.029035 1_555
Mn2 O47 2.063366 1_555
Mn2 O43 2.063366 1_555
Mn2 O38 2.063366 1_555
Mn3 O17 2.029035 1_555
Mn3 O16 2.029035 1_555
Mn3 O21 2.029035 1_555
Mn3 O41 2.063366 1_555
Mn3 O40 2.063366 1_555
Mn3 O45 2.063366 1_555
Mn4 O28 2.035396 1_555
Mn4 O34 2.035396 1_555
Mn4 O31 2.035396 1_555
Mn4 O4 2.057967 1_555
Mn4 O10 2.057967 1_555
Mn4 O7 2.057967 1_555
Mn5 O26 2.035396 1_555
Mn5 O29 2.035396 1_555
Mn5 O32 2.035396 1_555
Mn5 O8 2.057967 1_655
Mn5 O5 2.057976 1_554
Mn5 O2 2.057976 1_555
Mn6 O33 2.035396 1_555
Mn6 O25 2.035396 1_555
Mn6 O27 2.035396 1_555
Mn6 O3 2.057967 1_556
Mn6 O1 2.057976 1_545
Mn6 O9 2.057976 1_555
Mn7 O30 2.035396 1_555
Mn7 O35 2.035396 1_555
Mn7 O24 2.035396 1_555
Mn7 O0 2.057967 1_565
Mn7 O11 2.057976 1_455
Mn7 O6 2.057976 1_555
O0 Se0 1.694118 1_555
O1 Se1 1.694108 1_555
O2 Se2 1.694108 1_555
O3 Se3 1.694118 1_555
O4 Se4 1.694118 1_555
O5 Se5 1.694108 1_555
O6 Se6 1.694108 1_555
O7 Se7 1.694118 1_555
O8 Se8 1.694118 1_555
O9 Se9 1.694108 1_555
O10 Se10 1.694118 1_555
O11 Se11 1.694108 1_555
O12 Se10 1.669695 1_555
O13 Se8 1.669695 1_556
O14 Se9 1.669695 1_564
O15 Se4 1.669695 1_555
O16 Se11 1.669695 1_545
O17 Se0 1.669695 1_655
O18 Se2 1.669695 1_456
O19 Se1 1.669695 1_554
O20 Se7 1.669695 1_555
O21 Se6 1.669695 1_645
O22 Se5 1.669695 1_455
O23 Se3 1.669695 1_565
O24 Se2 1.661313 1_455
O25 Se4 1.661313 1_555
O26 Se0 1.661313 1_655
O27 Se6 1.661313 1_545
O28 Se1 1.661313 1_555
O29 Se7 1.661313 1_555
O30 Se3 1.661313 1_565
O31 Se5 1.661313 1_555
O32 Se9 1.661313 1_554
O33 Se8 1.661313 1_556
O34 Se11 1.661313 1_555
O35 Se10 1.661313 1_555
O36 Se0 1.666329 1_555
O37 Se1 1.666329 1_555
O38 Se2 1.666329 1_555
O39 Se3 1.666329 1_555
O40 Se4 1.666329 1_555
O41 Se5 1.666329 1_555
O42 Se6 1.666329 1_555
O43 Se7 1.666329 1_555
O44 Se8 1.666329 1_555
O45 Se9 1.666329 1_555
O46 Se10 1.666329 1_555
O47 Se11 1.666329 1_555
