# generated using pymatgen
data_CaPO4
_symmetry_space_group_name_H-M   'P 1'
_cell_length_a   6.96038100
_cell_length_b   6.56909900
_cell_length_c   8.20513999
_cell_angle_alpha   53.61726278
_cell_angle_beta   90.00000000
_cell_angle_gamma   90.00000000
_symmetry_Int_Tables_number   1
_chemical_formula_structural   CaPO4
_chemical_formula_sum   'Ca4 P4 O16'
_cell_volume   302.03678276
_cell_formula_units_Z   4
loop_
 _symmetry_equiv_pos_site_id
 _symmetry_equiv_pos_as_xyz
  1  'x, y, z'
loop_
 _atom_site_type_symbol
 _atom_site_label
 _atom_site_symmetry_multiplicity
 _atom_site_fract_x
 _atom_site_fract_y
 _atom_site_fract_z
 _atom_site_occupancy
  Ca  Ca0  1  0.34307600  0.82160700  0.27931300  1
  Ca  Ca1  1  0.65692400  0.17839300  0.72068700  1
  Ca  Ca2  1  0.84307600  0.17839300  0.22068700  1
  Ca  Ca3  1  0.15692400  0.82160700  0.77931300  1
  P  P0  1  0.83802200  0.69308100  0.19578500  1
  P  P1  1  0.16197800  0.30691900  0.80421500  1
  P  P2  1  0.33802200  0.30691900  0.30421500  1
  P  P3  1  0.66197800  0.69308100  0.69578500  1
  O  O0  1  0.78833700  0.41772300  0.37473500  1
  O  O1  1  0.21166300  0.58227700  0.62526500  1
  O  O2  1  0.28833700  0.58227700  0.12526500  1
  O  O3  1  0.71166300  0.41772300  0.87473500  1
  O  O4  1  0.99482600  0.80434500  0.25535300  1
  O  O5  1  0.00517400  0.19565500  0.74464700  1
  O  O6  1  0.49482600  0.19565500  0.24464700  1
  O  O7  1  0.50517400  0.80434500  0.75535300  1
  O  O8  1  0.66368900  0.87372900  0.11688200  1
  O  O9  1  0.33631100  0.12627100  0.88311800  1
  O  O10  1  0.16368900  0.12627100  0.38311800  1
  O  O11  1  0.83631100  0.87372900  0.61688200  1
  O  O12  1  0.90252600  0.67338400  0.02426600  1
  O  O13  1  0.09747400  0.32661600  0.97573400  1
  O  O14  1  0.40252600  0.32661600  0.47573400  1
  O  O15  1  0.59747400  0.67338400  0.52426600  1
loop_
_geom_bond_atom_site_label_1
_geom_bond_atom_site_label_2
_geom_bond_distance
_geom_bond_site_symmetry_2
Ca0 O15 2.408606 1_555
Ca0 O4 2.439980 1_455
Ca0 O1 2.464051 1_555
Ca0 O8 2.516371 1_555
Ca0 O6 2.530813 1_565
Ca0 O2 2.563615 1_555
Ca0 O9 2.618601 1_564
Ca0 O14 2.669219 1_555
Ca0 O10 2.883094 1_565
Ca1 O14 2.408606 1_555
Ca1 O5 2.439980 1_655
Ca1 O0 2.464051 1_555
Ca1 O9 2.516371 1_555
Ca1 O7 2.530813 1_545
Ca1 O3 2.563615 1_555
Ca1 O8 2.618601 1_546
Ca1 O15 2.669219 1_555
Ca1 O11 2.883094 1_545
Ca2 O13 2.408606 1_654
Ca2 O6 2.439980 1_555
Ca2 O3 2.464051 1_554
Ca2 O10 2.516371 1_655
Ca2 O4 2.530813 1_545
Ca2 O0 2.563615 1_555
Ca2 O11 2.618601 1_545
Ca2 O12 2.669219 1_555
Ca2 O8 2.883094 1_545
Ca3 O12 2.408606 1_456
Ca3 O7 2.439980 1_555
Ca3 O2 2.464051 1_556
Ca3 O11 2.516371 1_455
Ca3 O5 2.530813 1_565
Ca3 O1 2.563615 1_555
Ca3 O10 2.618601 1_565
Ca3 O13 2.669219 1_555
Ca3 O9 2.883094 1_565
O0 P0 1.548089 1_555
O1 P1 1.548089 1_555
O2 P2 1.548089 1_555
O3 P3 1.548089 1_555
O4 P0 1.545351 1_555
O5 P1 1.545351 1_555
O6 P2 1.545351 1_555
O7 P3 1.545351 1_555
O8 P0 1.545423 1_555
O9 P1 1.545423 1_555
O10 P2 1.545423 1_555
O11 P3 1.545423 1_555
O12 P0 1.554011 1_555
O13 P1 1.554011 1_555
O14 P2 1.554011 1_555
O15 P3 1.554011 1_555
