# generated using pymatgen
data_Dy5Ir3
_symmetry_space_group_name_H-M   'P 1'
_cell_length_a   6.23142300
_cell_length_b   8.32625941
_cell_length_c   8.33009222
_cell_angle_alpha   119.98478007
_cell_angle_beta   90.00000000
_cell_angle_gamma   90.00000000
_symmetry_Int_Tables_number   1
_chemical_formula_structural   Dy5Ir3
_chemical_formula_sum   'Dy10 Ir6'
_cell_volume   374.35548202
_cell_formula_units_Z   2
loop_
 _symmetry_equiv_pos_site_id
 _symmetry_equiv_pos_as_xyz
  1  'x, y, z'
loop_
 _atom_site_type_symbol
 _atom_site_label
 _atom_site_symmetry_multiplicity
 _atom_site_fract_x
 _atom_site_fract_y
 _atom_site_fract_z
 _atom_site_occupancy
  Dy  Dy0  1  0.50000000  0.33332700  0.66668800  1
  Dy  Dy1  1  0.50000000  0.66664000  0.33331200  1
  Dy  Dy2  1  0.00000000  0.66667300  0.33331200  1
  Dy  Dy3  1  0.00000000  0.33336100  0.66668800  1
  Dy  Dy4  1  0.75001400  0.25910300  0.00000000  1
  Dy  Dy5  1  0.74999400  0.74080800  0.74079500  1
  Dy  Dy6  1  0.74999400  0.00001300  0.25920500  1
  Dy  Dy7  1  0.25001400  0.74089700  0.00000000  1
  Dy  Dy8  1  0.24999400  0.25919200  0.25920500  1
  Dy  Dy9  1  0.24999400  0.99998700  0.74079500  1
  Ir  Ir0  1  0.74999600  0.60948000  0.00000000  1
  Ir  Ir1  1  0.75000100  0.39050300  0.39048700  1
  Ir  Ir2  1  0.75000100  0.00001600  0.60951300  1
  Ir  Ir3  1  0.24999600  0.39052000  0.00000000  1
  Ir  Ir4  1  0.25000100  0.60949700  0.60951300  1
  Ir  Ir5  1  0.25000100  0.99998400  0.39048700  1
loop_
_geom_bond_atom_site_label_1
_geom_bond_atom_site_label_2
_geom_bond_distance
_geom_bond_site_symmetry_2
Dy0 Ir2 3.005750 1_555
Dy0 Ir4 3.005982 1_555
Dy0 Ir5 3.006827 1_545
Dy0 Ir3 3.006866 1_556
Dy0 Ir0 3.006926 1_556
Dy0 Ir1 3.006986 1_555
Dy0 Dy3 3.115712 1_655
Dy0 Dy3 3.115712 1_555
Dy0 Dy9 3.496275 1_545
Dy0 Dy5 3.496491 1_555
Dy0 Dy4 3.497614 1_556
Dy0 Dy7 3.497699 1_556
Dy0 Dy6 3.497812 1_555
Dy0 Dy8 3.497933 1_555
Dy1 Ir1 3.005757 1_555
Dy1 Ir5 3.005975 1_555
Dy1 Ir4 3.006831 1_555
Dy1 Ir3 3.006869 1_555
Dy1 Ir0 3.006923 1_555
Dy1 Ir2 3.006982 1_565
Dy1 Dy2 3.115712 1_555
Dy1 Dy2 3.115712 1_655
Dy1 Dy8 3.496282 1_555
Dy1 Dy6 3.496484 1_565
Dy1 Dy4 3.497619 1_555
Dy1 Dy7 3.497694 1_555
Dy1 Dy5 3.497815 1_555
Dy1 Dy9 3.497930 1_555
Dy2 Ir5 3.005750 1_555
Dy2 Ir1 3.005982 1_455
Dy2 Ir2 3.006827 1_465
Dy2 Ir0 3.006866 1_455
Dy2 Ir3 3.006926 1_555
Dy2 Ir4 3.006986 1_555
Dy2 Dy6 3.496275 1_465
Dy2 Dy8 3.496491 1_555
Dy2 Dy7 3.497614 1_555
Dy2 Dy4 3.497699 1_455
Dy2 Dy9 3.497812 1_555
Dy2 Dy5 3.497933 1_455
Dy3 Ir4 3.005750 1_555
Dy3 Ir2 3.005982 1_455
Dy3 Ir1 3.006827 1_455
Dy3 Ir0 3.006866 1_456
Dy3 Ir3 3.006926 1_556
Dy3 Ir5 3.006986 1_545
Dy3 Dy5 3.496275 1_455
Dy3 Dy9 3.496491 1_545
Dy3 Dy7 3.497614 1_556
Dy3 Dy4 3.497699 1_456
Dy3 Dy8 3.497812 1_555
Dy3 Dy6 3.497933 1_455
Dy4 Ir1 2.867142 1_555
Dy4 Ir2 2.867142 1_554
Dy4 Ir0 2.917330 1_555
Dy4 Ir3 3.302160 1_655
Dy4 Ir3 3.302371 1_555
Dy4 Dy6 3.737871 1_555
Dy4 Dy5 3.737871 1_544
Dy4 Dy8 3.790440 1_655
Dy4 Dy9 3.790440 1_644
Dy4 Dy8 3.790645 1_555
Dy4 Dy9 3.790645 1_544
Dy5 Ir2 2.865842 1_565
Dy5 Ir0 2.866665 1_556
Dy5 Ir1 2.918085 1_555
Dy5 Ir4 3.302059 1_555
Dy5 Ir4 3.302141 1_655
Dy5 Dy6 3.740420 1_566
Dy5 Dy9 3.790064 1_555
Dy5 Dy9 3.790064 1_655
Dy5 Dy7 3.790440 1_556
Dy5 Dy7 3.790645 1_656
Dy6 Ir1 2.865842 1_555
Dy6 Ir0 2.866665 1_545
Dy6 Ir2 2.918085 1_555
Dy6 Ir5 3.302059 1_545
Dy6 Ir5 3.302141 1_645
Dy6 Dy8 3.790064 1_555
Dy6 Dy8 3.790064 1_655
Dy6 Dy7 3.790440 1_545
Dy6 Dy7 3.790645 1_645
Dy7 Ir4 2.867142 1_554
Dy7 Ir5 2.867142 1_555
Dy7 Ir3 2.917330 1_555
Dy7 Ir0 3.302160 1_555
Dy7 Ir0 3.302371 1_455
Dy7 Dy9 3.737871 1_554
Dy7 Dy8 3.737871 1_565
Dy8 Ir5 2.865842 1_545
Dy8 Ir3 2.866665 1_555
Dy8 Ir4 2.918085 1_555
Dy8 Ir1 3.302059 1_455
Dy8 Ir1 3.302141 1_555
Dy8 Dy9 3.740420 1_544
Dy9 Ir4 2.865842 1_555
Dy9 Ir3 2.866665 1_566
Dy9 Ir5 2.918085 1_555
Dy9 Ir2 3.302059 1_465
Dy9 Ir2 3.302141 1_565
