# generated using pymatgen
data_Nd2Nb2S7O30
_symmetry_space_group_name_H-M   'P 1'
_cell_length_a   13.01871300
_cell_length_b   13.01871300
_cell_length_c   7.27783500
_cell_angle_alpha   90.00000000
_cell_angle_beta   90.00000000
_cell_angle_gamma   90.00000000
_symmetry_Int_Tables_number   1
_chemical_formula_structural   Nd2Nb2S7O30
_chemical_formula_sum   'Nd4 Nb4 S14 O60'
_cell_volume   1233.49760681
_cell_formula_units_Z   2
loop_
 _symmetry_equiv_pos_site_id
 _symmetry_equiv_pos_as_xyz
  1  'x, y, z'
loop_
 _atom_site_type_symbol
 _atom_site_label
 _atom_site_symmetry_multiplicity
 _atom_site_fract_x
 _atom_site_fract_y
 _atom_site_fract_z
 _atom_site_occupancy
  Nd  Nd0  1  0.19929900  0.30070100  0.40759400  1
  Nd  Nd1  1  0.30070100  0.80070100  0.59240600  1
  Nd  Nd2  1  0.80070100  0.69929900  0.40759400  1
  Nd  Nd3  1  0.69929900  0.19929900  0.59240600  1
  Nb  Nb0  1  0.36284800  0.13715200  0.01620200  1
  Nb  Nb1  1  0.13715200  0.63715200  0.98379800  1
  Nb  Nb2  1  0.63715200  0.86284800  0.01620200  1
  Nb  Nb3  1  0.86284800  0.36284800  0.98379800  1
  S  S0  1  0.50000000  0.00000000  0.65552800  1
  S  S1  1  0.00000000  0.50000000  0.34447200  1
  S  S2  1  0.62289400  0.12289400  0.10215800  1
  S  S3  1  0.87710600  0.62289400  0.89784200  1
  S  S4  1  0.37710600  0.87710600  0.10215800  1
  S  S5  1  0.12289400  0.37710600  0.89784200  1
  S  S6  1  0.43534100  0.32450300  0.70965300  1
  S  S7  1  0.06465900  0.82450300  0.29034700  1
  S  S8  1  0.56465900  0.67549700  0.70965300  1
  S  S9  1  0.93534100  0.17549700  0.29034700  1
  S  S10  1  0.32450300  0.56465900  0.29034700  1
  S  S11  1  0.17549700  0.06465900  0.70965300  1
  S  S12  1  0.67549700  0.43534100  0.29034700  1
  S  S13  1  0.82450300  0.93534100  0.70965300  1
  O  O0  1  0.30238700  0.19761300  0.20655300  1
  O  O1  1  0.19761300  0.69761300  0.79344700  1
  O  O2  1  0.69761300  0.80238700  0.20655300  1
  O  O3  1  0.80238700  0.30238700  0.79344700  1
  O  O4  1  0.43354800  0.93354800  0.54270800  1
  O  O5  1  0.06645200  0.43354800  0.45729200  1
  O  O6  1  0.56645200  0.06645200  0.54270800  1
  O  O7  1  0.93354800  0.56645200  0.45729200  1
  O  O8  1  0.43432900  0.06567100  0.77526900  1
  O  O9  1  0.06567100  0.56567100  0.22473100  1
  O  O10  1  0.56567100  0.93432900  0.77526900  1
  O  O11  1  0.93432900  0.43432900  0.22473100  1
  O  O12  1  0.65663600  0.15663600  0.92159900  1
  O  O13  1  0.84336400  0.65663600  0.07840100  1
  O  O14  1  0.34336400  0.84336400  0.92159900  1
  O  O15  1  0.15663600  0.34336400  0.07840100  1
  O  O16  1  0.67416000  0.17416000  0.25450300  1
  O  O17  1  0.82584000  0.67416000  0.74549700  1
  O  O18  1  0.32584000  0.82584000  0.25450300  1
  O  O19  1  0.17416000  0.32584000  0.74549700  1
  O  O20  1  0.50898300  0.14072100  0.12347400  1
  O  O21  1  0.99101700  0.64072100  0.87652600  1
  O  O22  1  0.49101700  0.85927900  0.12347400  1
  O  O23  1  0.00898300  0.35927900  0.87652600  1
  O  O24  1  0.14072100  0.49101700  0.87652600  1
  O  O25  1  0.35927900  0.99101700  0.12347400  1
  O  O26  1  0.85927900  0.50898300  0.87652600  1
  O  O27  1  0.64072100  0.00898300  0.12347400  1
  O  O28  1  0.37057700  0.29237700  0.55383800  1
  O  O29  1  0.12942300  0.79237700  0.44616200  1
  O  O30  1  0.62942300  0.70762300  0.55383800  1
  O  O31  1  0.87057700  0.20762300  0.44616200  1
  O  O32  1  0.29237700  0.62942300  0.44616200  1
  O  O33  1  0.20762300  0.12942300  0.55383800  1
  O  O34  1  0.70762300  0.37057700  0.44616200  1
  O  O35  1  0.79237700  0.87057700  0.55383800  1
  O  O36  1  0.54266400  0.29353000  0.68340700  1
  O  O37  1  0.95733600  0.79353000  0.31659300  1
  O  O38  1  0.45733600  0.70647000  0.68340700  1
  O  O39  1  0.04266400  0.20647000  0.31659300  1
  O  O40  1  0.29353000  0.45733600  0.31659300  1
  O  O41  1  0.20647000  0.95733600  0.68340700  1
  O  O42  1  0.70647000  0.54266400  0.31659300  1
  O  O43  1  0.79353000  0.04266400  0.68340700  1
  O  O44  1  0.42429400  0.43468500  0.74416100  1
  O  O45  1  0.07570600  0.93468500  0.25583900  1
  O  O46  1  0.57570600  0.56531500  0.74416100  1
  O  O47  1  0.92429400  0.06531500  0.25583900  1
  O  O48  1  0.43468500  0.57570600  0.25583900  1
  O  O49  1  0.06531500  0.07570600  0.74416100  1
  O  O50  1  0.56531500  0.42429400  0.25583900  1
  O  O51  1  0.93468500  0.92429400  0.74416100  1
  O  O52  1  0.39423000  0.26793600  0.88093500  1
  O  O53  1  0.10577000  0.76793600  0.11906500  1
  O  O54  1  0.60577000  0.73206400  0.88093500  1
  O  O55  1  0.89423000  0.23206400  0.11906500  1
  O  O56  1  0.26793600  0.60577000  0.11906500  1
  O  O57  1  0.23206400  0.10577000  0.88093500  1
  O  O58  1  0.73206400  0.39423000  0.11906500  1
  O  O59  1  0.76793600  0.89423000  0.88093500  1
loop_
_geom_bond_atom_site_label_1
_geom_bond_atom_site_label_2
_geom_bond_distance
_geom_bond_site_symmetry_2
Nd0 O0 2.396478 1_555
Nd0 O39 2.470195 1_555
Nd0 O40 2.470195 1_555
Nd0 O5 2.472477 1_555
Nd0 O33 2.473187 1_555
Nd0 O28 2.473187 1_555
Nd0 O19 2.502378 1_555
Nd0 O15 2.521288 1_555
Nd1 O1 2.396478 1_555
Nd1 O41 2.470195 1_555
Nd1 O38 2.470195 1_555
Nd1 O4 2.472477 1_555
Nd1 O29 2.473187 1_555
Nd1 O32 2.473187 1_555
Nd1 O18 2.502378 1_555
Nd1 O14 2.521288 1_555
Nd2 O2 2.396478 1_555
Nd2 O42 2.470195 1_555
Nd2 O37 2.470195 1_555
Nd2 O7 2.472477 1_555
Nd2 O30 2.473187 1_555
Nd2 O35 2.473187 1_555
Nd2 O17 2.502378 1_555
Nd2 O13 2.521288 1_555
Nd3 O3 2.396478 1_555
Nd3 O43 2.470195 1_555
Nd3 O36 2.470195 1_555
Nd3 O6 2.472477 1_555
Nd3 O34 2.473187 1_555
Nd3 O31 2.473187 1_555
Nd3 O16 2.502378 1_555
Nd3 O12 2.521288 1_555
Nb0 O0 1.777162 1_555
Nb0 O52 2.008741 1_554
Nb0 O57 2.008741 1_554
Nb0 O25 2.056971 1_545
Nb0 O20 2.056971 1_555
Nb0 O8 2.192409 1_554
Nb1 O1 1.777162 1_555
Nb1 O53 2.008741 1_556
Nb1 O56 2.008741 1_556
Nb1 O21 2.056971 1_455
Nb1 O24 2.056971 1_555
Nb1 O9 2.192409 1_556
Nb2 O2 1.777162 1_555
Nb2 O59 2.008741 1_554
Nb2 O54 2.008741 1_554
Nb2 O27 2.056971 1_565
Nb2 O22 2.056971 1_555
Nb2 O10 2.192409 1_554
Nb3 O3 1.777162 1_555
Nb3 O58 2.008741 1_556
Nb3 O55 2.008741 1_556
Nb3 O26 2.056971 1_555
Nb3 O23 2.056971 1_655
Nb3 O11 2.192409 1_556
O4 S0 1.473447 1_565
O5 S1 1.473447 1_555
O6 S0 1.473447 1_555
O7 S1 1.473447 1_655
O8 S0 1.490409 1_555
O9 S1 1.490409 1_555
O10 S0 1.490409 1_565
O11 S1 1.490409 1_655
O12 S2 1.453524 1_556
O13 S3 1.453524 1_554
O14 S4 1.453524 1_556
O15 S5 1.453524 1_554
O16 S2 1.456091 1_555
O17 S3 1.456091 1_555
O18 S4 1.456091 1_555
O19 S5 1.456091 1_555
O20 S2 1.509021 1_555
O21 S3 1.509021 1_555
O22 S4 1.509021 1_555
O23 S5 1.509021 1_555
O24 S5 1.509021 1_555
O25 S4 1.509021 1_555
O26 S3 1.509021 1_555
O27 S2 1.509021 1_555
O28 S6 1.473690 1_555
O29 S7 1.473690 1_555
O30 S8 1.473690 1_555
O31 S9 1.473690 1_555
O32 S10 1.473690 1_555
O33 S11 1.473690 1_555
O34 S12 1.473690 1_555
O35 S13 1.473690 1_555
O36 S6 1.466720 1_555
O37 S7 1.466720 1_655
O38 S8 1.466720 1_555
O39 S9 1.466720 1_455
O40 S10 1.466720 1_555
O41 S11 1.466720 1_565
O42 S12 1.466720 1_555
O43 S13 1.466720 1_545
O44 S6 1.463332 1_555
O45 S7 1.463332 1_555
O46 S8 1.463332 1_555
O47 S9 1.463332 1_555
O48 S10 1.463332 1_555
O49 S11 1.463332 1_555
O50 S12 1.463332 1_555
O51 S13 1.463332 1_555
O52 S6 1.543599 1_555
O53 S7 1.543599 1_555
O54 S8 1.543599 1_555
O55 S9 1.543599 1_555
O56 S10 1.543599 1_555
O57 S11 1.543599 1_555
O58 S12 1.543599 1_555
O59 S13 1.543599 1_555
