# generated using pymatgen
data_Sm6Mg23C
_symmetry_space_group_name_H-M   'P 1'
_cell_length_a   10.10010962
_cell_length_b   10.10010962
_cell_length_c   10.10010962
_cell_angle_alpha   60.00000000
_cell_angle_beta   60.00000000
_cell_angle_gamma   60.00000000
_symmetry_Int_Tables_number   1
_chemical_formula_structural   Sm6Mg23C
_chemical_formula_sum   'Sm6 Mg23 C1'
_cell_volume   728.55654441
_cell_formula_units_Z   1
loop_
 _symmetry_equiv_pos_site_id
 _symmetry_equiv_pos_as_xyz
  1  'x, y, z'
loop_
 _atom_site_type_symbol
 _atom_site_label
 _atom_site_symmetry_multiplicity
 _atom_site_fract_x
 _atom_site_fract_y
 _atom_site_fract_z
 _atom_site_occupancy
  Sm  Sm0  1  0.81698600  0.81698600  0.18301400  1
  Sm  Sm1  1  0.18301400  0.81698600  0.18301400  1
  Sm  Sm2  1  0.81698600  0.18301400  0.18301400  1
  Sm  Sm3  1  0.18301400  0.18301400  0.81698600  1
  Sm  Sm4  1  0.81698600  0.18301400  0.81698600  1
  Sm  Sm5  1  0.18301400  0.81698600  0.81698600  1
  Mg  Mg0  1  0.82989800  0.82989800  0.51030600  1
  Mg  Mg1  1  0.82989800  0.51030600  0.82989800  1
  Mg  Mg2  1  0.51030600  0.82989800  0.82989800  1
  Mg  Mg3  1  0.82989800  0.82989800  0.82989800  1
  Mg  Mg4  1  0.17010200  0.17010200  0.48969400  1
  Mg  Mg5  1  0.17010200  0.48969400  0.17010200  1
  Mg  Mg6  1  0.48969400  0.17010200  0.17010200  1
  Mg  Mg7  1  0.17010200  0.17010200  0.17010200  1
  Mg  Mg8  1  0.62025700  0.62025700  0.13922900  1
  Mg  Mg9  1  0.62025700  0.13922900  0.62025700  1
  Mg  Mg10  1  0.13922900  0.62025700  0.62025700  1
  Mg  Mg11  1  0.62025700  0.62025700  0.62025700  1
  Mg  Mg12  1  0.37974300  0.37974300  0.86077100  1
  Mg  Mg13  1  0.37974300  0.86077100  0.37974300  1
  Mg  Mg14  1  0.86077100  0.37974300  0.37974300  1
  Mg  Mg15  1  0.37974300  0.37974300  0.37974300  1
  Mg  Mg16  1  0.00000000  0.00000000  0.50000000  1
  Mg  Mg17  1  0.50000000  0.00000000  0.50000000  1
  Mg  Mg18  1  0.00000000  0.50000000  0.50000000  1
  Mg  Mg19  1  0.50000000  0.50000000  0.00000000  1
  Mg  Mg20  1  0.00000000  0.50000000  0.00000000  1
  Mg  Mg21  1  0.50000000  0.00000000  0.00000000  1
  Mg  Mg22  1  0.50000000  0.50000000  0.50000000  1
  C  C0  1  0.00000000  0.00000000  0.00000000  1
loop_
_geom_bond_atom_site_label_1
_geom_bond_atom_site_label_2
_geom_bond_distance
_geom_bond_site_symmetry_2
Mg0 Mg16 2.916889 1_665
Mg0 Mg18 2.916889 1_655
Mg0 Mg17 2.916889 1_565
Mg0 Mg10 3.159201 1_655
Mg0 Mg9 3.159201 1_565
Mg0 Mg11 3.159201 1_555
Mg0 Mg2 3.227914 1_555
Mg0 Mg3 3.227914 1_555
Mg0 Mg1 3.227914 1_555
Mg0 Sm2 3.441044 1_565
Mg0 Sm1 3.441044 1_655
Mg0 Sm0 3.441044 1_555
Mg1 Mg20 2.916889 1_656
Mg1 Mg19 2.916889 1_556
Mg1 Mg18 2.916889 1_655
Mg1 Mg8 3.159201 1_556
Mg1 Mg10 3.159201 1_655
Mg1 Mg11 3.159201 1_555
Mg1 Mg2 3.227914 1_555
Mg1 Mg3 3.227914 1_555
Mg1 Sm2 3.441044 1_556
Mg1 Sm3 3.441044 1_655
Mg1 Sm4 3.441044 1_555
Mg2 Mg21 2.916889 1_566
Mg2 Mg8 3.159201 1_556
Mg2 Mg9 3.159201 1_565
Mg2 Mg3 3.227914 1_555
Mg2 Sm1 3.441044 1_556
Mg2 Sm3 3.441044 1_565
Mg2 Sm5 3.441044 1_555
Mg3 Mg9 3.159201 1_565
Mg3 Mg8 3.159201 1_556
Mg3 Sm4 3.441044 1_565
Mg3 Sm5 3.441044 1_655
Mg3 Sm0 3.441044 1_556
Mg4 Mg5 3.227914 1_555
Mg4 Mg6 3.227914 1_555
Mg4 Mg7 3.227914 1_555
Mg4 Sm5 3.441044 1_545
Mg4 Sm4 3.441044 1_455
Mg4 Sm3 3.441044 1_555
Mg5 Mg6 3.227914 1_555
Mg5 Mg7 3.227914 1_555
Mg5 Sm5 3.441044 1_554
Mg5 Sm1 3.441044 1_555
Mg5 Sm0 3.441044 1_455
Mg6 Mg7 3.227914 1_555
Mg6 Sm0 3.441044 1_545
Mg6 Sm4 3.441044 1_554
Mg6 Sm2 3.441044 1_555
Mg7 Sm2 3.441044 1_455
Mg7 Sm1 3.441044 1_545
Mg7 Sm3 3.441044 1_554
Mg8 Sm2 3.714474 1_555
Mg8 Sm1 3.714474 1_555
Mg8 Sm0 3.714474 1_555
Mg9 Sm2 3.714474 1_555
Mg9 Sm3 3.714474 1_555
Mg9 Sm4 3.714474 1_555
Mg10 Mg22 2.975172 1_555
Mg10 Mg18 3.133582 1_555
Mg10 Mg16 3.133582 1_565
Mg10 Mg20 3.133582 1_556
Mg10 Mg3 3.159201 1_455
Mg10 Mg15 3.435433 1_555
Mg10 Mg13 3.435433 1_555
Mg10 Mg12 3.435433 1_555
Mg10 Sm1 3.714474 1_555
Mg10 Sm3 3.714474 1_555
Mg10 Sm5 3.714474 1_555
Mg11 Mg22 2.975172 1_555
Mg11 Mg17 3.133582 1_565
Mg11 Mg19 3.133582 1_556
Mg11 Mg18 3.133582 1_655
Mg11 Mg2 3.159201 1_555
Mg11 Mg14 3.435433 1_555
Mg11 Mg12 3.435433 1_555
Mg11 Mg13 3.435433 1_555
Mg11 Sm0 3.714474 1_555
Mg11 Sm4 3.714474 1_555
Mg11 Sm5 3.714474 1_555
Mg12 Mg22 2.975172 1_555
Mg12 Mg21 3.133582 1_556
Mg12 Mg20 3.133582 1_556
Mg12 Mg19 3.133582 1_556
Mg12 Mg7 3.159201 1_556
Mg12 Mg6 3.159201 1_556
Mg12 Mg5 3.159201 1_556
Mg12 Mg9 3.435433 1_555
Mg12 Sm3 3.714474 1_555
Mg12 Sm4 3.714474 1_555
Mg12 Sm5 3.714474 1_555
Mg13 Mg22 2.975172 1_555
Mg13 Mg21 3.133582 1_565
Mg13 Mg16 3.133582 1_565
Mg13 Mg17 3.133582 1_565
Mg13 Mg6 3.159201 1_565
Mg13 Mg7 3.159201 1_565
Mg13 Mg4 3.159201 1_565
Mg13 Mg8 3.435433 1_555
Mg13 Sm1 3.714474 1_555
Mg13 Sm0 3.714474 1_555
Mg13 Sm5 3.714474 1_555
Mg14 Mg22 2.975172 1_555
Mg14 Mg20 3.133582 1_655
Mg14 Mg16 3.133582 1_655
Mg14 Mg18 3.133582 1_655
Mg14 Mg7 3.159201 1_655
Mg14 Mg4 3.159201 1_655
Mg14 Mg5 3.159201 1_655
Mg14 Mg8 3.435433 1_555
Mg14 Mg9 3.435433 1_555
Mg14 Sm2 3.714474 1_555
Mg14 Sm0 3.714474 1_555
Mg14 Sm4 3.714474 1_555
Mg15 Mg22 2.975172 1_555
Mg15 Mg19 3.133582 1_555
Mg15 Mg17 3.133582 1_555
Mg15 Mg18 3.133582 1_555
Mg15 Mg6 3.159201 1_555
Mg15 Mg5 3.159201 1_555
Mg15 Mg4 3.159201 1_555
Mg15 Mg8 3.435433 1_555
Mg15 Mg9 3.435433 1_555
Mg15 Sm2 3.714474 1_555
Mg15 Sm1 3.714474 1_555
Mg15 Sm3 3.714474 1_555
Mg16 Mg3 2.916889 1_445
Mg16 Mg7 2.916889 1_555
Mg16 Mg4 2.916889 1_555
Mg16 Mg9 3.133582 1_455
Mg16 Sm5 3.696892 1_545
Mg16 Sm4 3.696892 1_455
Mg16 Sm2 3.696892 1_455
Mg16 Sm1 3.696892 1_545
Mg17 Mg6 2.916889 1_555
Mg17 Mg4 2.916889 1_555
Mg17 Mg2 2.916889 1_545
Mg17 Mg9 3.133582 1_555
Mg17 Sm3 3.696892 1_555
Mg17 Sm5 3.696892 1_545
Mg17 Sm0 3.696892 1_545
Mg17 Sm2 3.696892 1_555
Mg18 Mg4 2.916889 1_555
Mg18 Mg5 2.916889 1_555
Mg18 Sm3 3.696892 1_555
Mg18 Sm4 3.696892 1_455
Mg18 Sm0 3.696892 1_455
Mg18 Sm1 3.696892 1_555
Mg19 Mg6 2.916889 1_555
Mg19 Mg5 2.916889 1_555
Mg19 Mg2 2.916889 1_554
Mg19 Mg8 3.133582 1_555
Mg19 Sm5 3.696892 1_554
Mg19 Sm4 3.696892 1_554
Mg19 Sm2 3.696892 1_555
Mg19 Sm1 3.696892 1_555
Mg20 Mg3 2.916889 1_454
Mg20 Mg7 2.916889 1_555
Mg20 Mg5 2.916889 1_555
Mg20 Mg8 3.133582 1_455
Mg20 Sm3 3.696892 1_554
Mg20 Sm5 3.696892 1_554
Mg20 Sm2 3.696892 1_455
Mg20 Sm0 3.696892 1_455
Mg21 Mg6 2.916889 1_555
Mg21 Mg3 2.916889 1_544
Mg21 Mg7 2.916889 1_555
Mg21 Mg9 3.133582 1_554
Mg21 Mg8 3.133582 1_545
Mg21 Sm3 3.696892 1_554
Mg21 Sm0 3.696892 1_545
Mg21 Sm4 3.696892 1_554
Mg21 Sm1 3.696892 1_545
Mg22 Mg8 2.975172 1_555
Mg22 Mg9 2.975172 1_555
C0 Sm4 2.614119 1_454
C0 Sm1 2.614119 1_545
C0 Sm3 2.614119 1_554
C0 Sm5 2.614119 1_544
C0 Sm0 2.614119 1_445
C0 Sm2 2.614119 1_455
