# generated using pymatgen
data_CdCu2(SO4)2
_symmetry_space_group_name_H-M   'P 1'
_cell_length_a   8.43965800
_cell_length_b   5.89191700
_cell_length_c   9.76523435
_cell_angle_alpha   53.95845986
_cell_angle_beta   90.00000000
_cell_angle_gamma   90.00000000
_symmetry_Int_Tables_number   1
_chemical_formula_structural   CdCu2(SO4)2
_chemical_formula_sum   'Cd2 Cu4 S4 O16'
_cell_volume   392.63846494
_cell_formula_units_Z   2
loop_
 _symmetry_equiv_pos_site_id
 _symmetry_equiv_pos_as_xyz
  1  'x, y, z'
loop_
 _atom_site_type_symbol
 _atom_site_label
 _atom_site_symmetry_multiplicity
 _atom_site_fract_x
 _atom_site_fract_y
 _atom_site_fract_z
 _atom_site_occupancy
  Cd  Cd0  1  0.00000000  0.00000000  0.00000000  1
  Cd  Cd1  1  0.50000000  0.00000000  0.50000000  1
  Cu  Cu0  1  0.13275700  0.70903200  0.54186400  1
  Cu  Cu1  1  0.86724300  0.29096800  0.45813600  1
  Cu  Cu2  1  0.63275700  0.29096800  0.95813600  1
  Cu  Cu3  1  0.36724300  0.70903200  0.04186400  1
  S  S0  1  0.87900200  0.63474100  0.61636500  1
  S  S1  1  0.12099800  0.36525900  0.38363500  1
  S  S2  1  0.37900200  0.36525900  0.88363500  1
  S  S3  1  0.62099800  0.63474100  0.11636500  1
  O  O0  1  0.51219500  0.05617800  0.69373500  1
  O  O1  1  0.48780500  0.94382200  0.30626500  1
  O  O2  1  0.01219500  0.94382200  0.80626500  1
  O  O3  1  0.98780500  0.05617800  0.19373500  1
  O  O4  1  0.30080900  0.48738400  0.96556500  1
  O  O5  1  0.69919100  0.51261600  0.03443500  1
  O  O6  1  0.80080900  0.51261600  0.53443500  1
  O  O7  1  0.19919100  0.48738400  0.46556500  1
  O  O8  1  0.34681900  0.55773000  0.69560000  1
  O  O9  1  0.65318100  0.44227000  0.30440000  1
  O  O10  1  0.84681900  0.44227000  0.80440000  1
  O  O11  1  0.15318100  0.55773000  0.19560000  1
  O  O12  1  0.29384100  0.08934500  0.95288200  1
  O  O13  1  0.70615900  0.91065500  0.04711800  1
  O  O14  1  0.79384100  0.91065500  0.54711800  1
  O  O15  1  0.20615900  0.08934500  0.45288200  1
loop_
_geom_bond_atom_site_label_1
_geom_bond_atom_site_label_2
_geom_bond_distance
_geom_bond_site_symmetry_2
Cd0 O3 2.106227 1_455
Cd0 O2 2.106227 1_544
Cd0 O11 2.500597 1_545
Cd0 O10 2.500597 1_454
Cd0 O12 2.520672 1_554
Cd0 O13 2.520672 1_445
Cd1 O0 2.106227 1_555
Cd1 O1 2.106227 1_545
Cd1 O8 2.500597 1_545
Cd1 O9 2.500597 1_555
Cd1 O14 2.520672 1_545
Cd1 O15 2.520672 1_555
Cu0 O7 1.928719 1_555
Cu0 O15 1.966891 1_565
Cu0 O8 2.176577 1_555
Cu0 S0 2.220951 1_455
Cu1 O6 1.928719 1_555
Cu1 O14 1.966891 1_545
Cu1 O9 2.176577 1_555
Cu1 S1 2.220951 1_655
Cu2 O5 1.928719 1_556
Cu2 O13 1.966891 1_546
Cu2 O10 2.176577 1_555
Cu2 S2 2.220951 1_555
Cu3 O4 1.928719 1_554
Cu3 O12 1.966891 1_564
Cu3 O11 2.176577 1_555
Cu3 S3 2.220951 1_555
O4 S2 1.506915 1_555
O5 S3 1.506915 1_555
O6 S0 1.506915 1_555
O7 S1 1.506915 1_555
O8 S2 1.510332 1_555
O9 S3 1.510332 1_555
O10 S0 1.510332 1_555
O11 S1 1.510332 1_555
O12 S2 1.524148 1_555
O13 S3 1.524148 1_555
O14 S0 1.524148 1_555
O15 S1 1.524148 1_555
