# generated using pymatgen
data_Te2Mo(WS2)2
_symmetry_space_group_name_H-M   'P 1'
_cell_length_a   3.30290916
_cell_length_b   3.30290916
_cell_length_c   30.58254800
_cell_angle_alpha   90.00000000
_cell_angle_beta   90.00000000
_cell_angle_gamma   119.99998324
_symmetry_Int_Tables_number   1
_chemical_formula_structural   Te2Mo(WS2)2
_chemical_formula_sum   'Te2 Mo1 W2 S4'
_cell_volume   288.93332193
_cell_formula_units_Z   1
loop_
 _symmetry_equiv_pos_site_id
 _symmetry_equiv_pos_as_xyz
  1  'x, y, z'
loop_
 _atom_site_type_symbol
 _atom_site_label
 _atom_site_symmetry_multiplicity
 _atom_site_fract_x
 _atom_site_fract_y
 _atom_site_fract_z
 _atom_site_occupancy
  Te  Te0  1  0.00000000  0.00000000  0.41000300  1
  Te  Te1  1  0.00000000  0.00000000  0.28392200  1
  Mo  Mo0  1  0.00000000  0.00000000  0.11561500  1
  W  W0  1  0.00000000  0.00000000  0.57836700  1
  W  W1  1  0.33333300  0.66666700  0.34696300  1
  S  S0  1  0.33333300  0.66666700  0.06559600  1
  S  S1  1  0.33333300  0.66666700  0.52810100  1
  S  S2  1  0.33333300  0.66666700  0.16567100  1
  S  S3  1  0.33333300  0.66666700  0.62860300  1
loop_
_geom_bond_atom_site_label_1
_geom_bond_atom_site_label_2
_geom_bond_distance
_geom_bond_site_symmetry_2
Te0 W1 2.711694 1_545
Te0 W1 2.711697 1_445
Te0 W1 2.711697 1_555
Te1 W1 2.711716 1_545
Te1 W1 2.711718 1_555
Te1 W1 2.711718 1_445
Mo0 S0 2.444668 1_545
Mo0 S0 2.444671 1_555
Mo0 S0 2.444671 1_445
Mo0 S2 2.445377 1_545
Mo0 S2 2.445379 1_445
Mo0 S2 2.445379 1_555
S1 W0 2.449402 1_565
S1 W0 2.449405 1_665
S1 W0 2.449405 1_555
S3 W0 2.448826 1_565
S3 W0 2.448829 1_555
S3 W0 2.448829 1_665
