# generated using pymatgen
data_SmSi3Os
_symmetry_space_group_name_H-M   'P 1'
_cell_length_a   5.78510578
_cell_length_b   5.78510578
_cell_length_c   5.78510578
_cell_angle_alpha   137.29237881
_cell_angle_beta   137.29237881
_cell_angle_gamma   61.98850036
_symmetry_Int_Tables_number   1
_chemical_formula_structural   SmSi3Os
_chemical_formula_sum   'Sm1 Si3 Os1'
_cell_volume   88.02160356
_cell_formula_units_Z   1
loop_
 _symmetry_equiv_pos_site_id
 _symmetry_equiv_pos_as_xyz
  1  'x, y, z'
loop_
 _atom_site_type_symbol
 _atom_site_label
 _atom_site_symmetry_multiplicity
 _atom_site_fract_x
 _atom_site_fract_y
 _atom_site_fract_z
 _atom_site_occupancy
  Sm  Sm0  1  0.99746708  0.99746708  0.00000000  1
  Si  Si0  1  0.41962322  0.41962322  -0.00000000  1
  Si  Si1  1  0.26128238  0.76128238  0.50000000  1
  Si  Si2  1  0.76128238  0.26128238  0.50000000  1
  Os  Os0  1  0.65434594  0.65434594  -0.00000000  1
loop_
_geom_bond_atom_site_label_1
_geom_bond_atom_site_label_2
_geom_bond_distance
_geom_bond_site_symmetry_2
Si0 Si2 2.627491 1_454
Si0 Si1 2.627491 1_544
Si0 Si1 2.627491 1_555
Si0 Si2 2.627491 1_555
Si0 Sm0 3.077474 1_455
Si0 Sm0 3.077474 1_556
Si0 Sm0 3.077474 1_444
Si0 Sm0 3.077474 1_545
Si1 Sm0 3.150367 1_455
Si1 Sm0 3.150367 1_556
Si1 Sm0 3.359142 1_445
Si1 Sm0 3.359142 1_456
Si2 Sm0 3.150367 1_545
Si2 Sm0 3.150367 1_556
Si2 Sm0 3.359142 1_445
Si2 Sm0 3.359142 1_546
Os0 Si0 2.328028 1_555
Os0 Si2 2.358450 1_565
Os0 Si1 2.358450 1_554
Os0 Si2 2.358450 1_554
Os0 Si1 2.358450 1_655
Os0 Sm0 3.360915 1_545
Os0 Sm0 3.360915 1_455
Os0 Sm0 3.360915 1_556
Os0 Sm0 3.360915 1_444
Os0 Sm0 3.403146 1_555
