# generated using pymatgen
data_Tb20In40Ni19
_symmetry_space_group_name_H-M   'P 1'
_cell_length_a   13.56427000
_cell_length_b   13.56427000
_cell_length_c   9.04889200
_cell_angle_alpha   90.00000000
_cell_angle_beta   90.00000000
_cell_angle_gamma   90.00000000
_symmetry_Int_Tables_number   1
_chemical_formula_structural   Tb20In40Ni19
_chemical_formula_sum   'Tb20 In40 Ni19'
_cell_volume   1664.90039645
_cell_formula_units_Z   1
loop_
 _symmetry_equiv_pos_site_id
 _symmetry_equiv_pos_as_xyz
  1  'x, y, z'
loop_
 _atom_site_type_symbol
 _atom_site_label
 _atom_site_symmetry_multiplicity
 _atom_site_fract_x
 _atom_site_fract_y
 _atom_site_fract_z
 _atom_site_occupancy
  Tb  Tb0  1  0.70266100  0.79839900  0.26370600  1
  Tb  Tb1  1  0.29733900  0.79839900  0.26370600  1
  Tb  Tb2  1  0.70266100  0.20160100  0.26370600  1
  Tb  Tb3  1  0.29733900  0.20160100  0.26370600  1
  Tb  Tb4  1  0.79839900  0.70266100  0.73629400  1
  Tb  Tb5  1  0.20160100  0.70266100  0.73629400  1
  Tb  Tb6  1  0.79839900  0.29733900  0.73629400  1
  Tb  Tb7  1  0.20160100  0.29733900  0.73629400  1
  Tb  Tb8  1  0.50000000  0.00000000  0.36176900  1
  Tb  Tb9  1  0.00000000  0.50000000  0.63823100  1
  Tb  Tb10  1  0.77646400  0.00000000  0.76718700  1
  Tb  Tb11  1  0.22353600  0.00000000  0.76718700  1
  Tb  Tb12  1  0.50000000  0.72163200  0.76456200  1
  Tb  Tb13  1  0.50000000  0.27836800  0.76456200  1
  Tb  Tb14  1  0.72163200  0.50000000  0.23543800  1
  Tb  Tb15  1  0.27836800  0.50000000  0.23543800  1
  Tb  Tb16  1  0.00000000  0.77646400  0.23281300  1
  Tb  Tb17  1  0.00000000  0.22353600  0.23281300  1
  Tb  Tb18  1  0.50000000  0.00000000  0.83955600  1
  Tb  Tb19  1  0.00000000  0.50000000  0.16044400  1
  In  In0  1  0.15355800  0.15355800  0.00000000  1
  In  In1  1  0.84644200  0.15355800  0.00000000  1
  In  In2  1  0.15355800  0.84644200  0.00000000  1
  In  In3  1  0.84644200  0.84644200  0.00000000  1
  In  In4  1  0.34754000  0.34754000  0.00000000  1
  In  In5  1  0.65246000  0.34754000  0.00000000  1
  In  In6  1  0.34754000  0.65246000  0.00000000  1
  In  In7  1  0.65246000  0.65246000  0.00000000  1
  In  In8  1  0.11646400  0.00000000  0.23434100  1
  In  In9  1  0.88353600  0.00000000  0.23434100  1
  In  In10  1  0.50000000  0.38386400  0.23802800  1
  In  In11  1  0.50000000  0.61613600  0.23802800  1
  In  In12  1  0.38386400  0.50000000  0.76197200  1
  In  In13  1  0.61613600  0.50000000  0.76197200  1
  In  In14  1  0.00000000  0.11646400  0.76565900  1
  In  In15  1  0.00000000  0.88353600  0.76565900  1
  In  In16  1  0.33296700  0.00000000  0.09336800  1
  In  In17  1  0.66703300  0.00000000  0.09336800  1
  In  In18  1  0.50000000  0.16714500  0.09365200  1
  In  In19  1  0.50000000  0.83285500  0.09365200  1
  In  In20  1  0.16714500  0.50000000  0.90634800  1
  In  In21  1  0.83285500  0.50000000  0.90634800  1
  In  In22  1  0.00000000  0.33296700  0.90663200  1
  In  In23  1  0.00000000  0.66703300  0.90663200  1
  In  In24  1  0.63150400  0.86737800  0.59102100  1
  In  In25  1  0.36849600  0.86737800  0.59102100  1
  In  In26  1  0.63150400  0.13262200  0.59102100  1
  In  In27  1  0.36849600  0.13262200  0.59102100  1
  In  In28  1  0.86737800  0.63150400  0.40897900  1
  In  In29  1  0.13262200  0.63150400  0.40897900  1
  In  In30  1  0.86737800  0.36849600  0.40897900  1
  In  In31  1  0.13262200  0.36849600  0.40897900  1
  In  In32  1  0.63714400  0.63714400  0.50000000  1
  In  In33  1  0.36285600  0.63714400  0.50000000  1
  In  In34  1  0.63714400  0.36285600  0.50000000  1
  In  In35  1  0.36285600  0.36285600  0.50000000  1
  In  In36  1  0.86854200  0.86854200  0.50000000  1
  In  In37  1  0.13145800  0.86854200  0.50000000  1
  In  In38  1  0.86854200  0.13145800  0.50000000  1
  In  In39  1  0.13145800  0.13145800  0.50000000  1
  Ni  Ni0  1  0.27586100  0.00000000  0.41277800  1
  Ni  Ni1  1  0.72413900  0.00000000  0.41277800  1
  Ni  Ni2  1  0.50000000  0.22129400  0.40898800  1
  Ni  Ni3  1  0.50000000  0.77870600  0.40898800  1
  Ni  Ni4  1  0.22129400  0.50000000  0.59101200  1
  Ni  Ni5  1  0.77870600  0.50000000  0.59101200  1
  Ni  Ni6  1  0.00000000  0.27586100  0.58722200  1
  Ni  Ni7  1  0.00000000  0.72413900  0.58722200  1
  Ni  Ni8  1  0.84390200  0.65606300  0.09877500  1
  Ni  Ni9  1  0.15609800  0.65606300  0.09877500  1
  Ni  Ni10  1  0.84390200  0.34393700  0.09877500  1
  Ni  Ni11  1  0.15609800  0.34393700  0.09877500  1
  Ni  Ni12  1  0.65606300  0.84390200  0.90122500  1
  Ni  Ni13  1  0.34393700  0.84390200  0.90122500  1
  Ni  Ni14  1  0.65606300  0.15609800  0.90122500  1
  Ni  Ni15  1  0.34393700  0.15609800  0.90122500  1
  Ni  Ni16  1  0.00000000  0.00000000  0.00000000  1
  Ni  Ni17  1  0.50000000  0.50000000  0.00000000  1
  Ni  Ni18  1  0.50000000  0.50000000  0.50000000  1
loop_
_geom_bond_atom_site_label_1
_geom_bond_atom_site_label_2
_geom_bond_distance
_geom_bond_site_symmetry_2
In0 Ni15 2.732877 1_554
In0 Ni11 2.732877 1_555
In0 Ni16 2.945669 1_555
In0 Tb17 3.110892 1_555
In0 Tb11 3.110892 1_554
In0 Tb7 3.149993 1_554
In0 Tb3 3.149993 1_555
In0 In22 3.312774 1_554
In0 In16 3.312774 1_555
In1 Ni10 2.732877 1_555
In1 Ni14 2.732877 1_554
In1 Ni16 2.945669 1_655
In1 Tb10 3.110892 1_554
In1 Tb17 3.110892 1_655
In1 Tb2 3.149993 1_555
In1 Tb6 3.149993 1_554
In1 In17 3.312774 1_555
In1 In22 3.312774 1_654
In2 Ni13 2.732877 1_554
In2 Ni9 2.732877 1_555
In2 Ni16 2.945669 1_565
In2 Tb16 3.110892 1_555
In2 Tb11 3.110892 1_564
In2 Tb5 3.149993 1_554
In2 Tb1 3.149993 1_555
In2 In23 3.312774 1_554
In3 Ni12 2.732877 1_554
In3 Ni8 2.732877 1_555
In3 Ni16 2.945669 1_665
In3 Tb16 3.110892 1_655
In3 Tb10 3.110892 1_564
In3 Tb0 3.149993 1_555
In3 Tb4 3.149993 1_554
In4 Ni15 2.746724 1_554
In4 Ni11 2.746724 1_555
In4 Ni17 2.924606 1_555
In4 Tb15 3.113814 1_555
In4 Tb13 3.113814 1_554
In4 Tb7 3.174350 1_554
In4 Tb3 3.174350 1_555
In5 Ni14 2.746724 1_554
In5 Ni10 2.746724 1_555
In5 Ni17 2.924606 1_555
In5 Tb14 3.113814 1_555
In5 Tb13 3.113814 1_554
In5 Tb6 3.174350 1_554
In5 Tb2 3.174350 1_555
In6 Ni9 2.746724 1_555
In6 Ni13 2.746724 1_554
In6 Ni17 2.924606 1_555
In6 Tb12 3.113814 1_554
In6 Tb15 3.113814 1_555
In6 Tb1 3.174350 1_555
In6 Tb5 3.174350 1_554
In7 Ni12 2.746724 1_554
In7 Ni8 2.746724 1_555
In7 Ni17 2.924606 1_555
In7 Tb14 3.113814 1_555
In7 Tb12 3.113814 1_554
In7 Tb4 3.174350 1_554
In7 Tb0 3.174350 1_555
In8 Ni16 2.644284 1_555
In8 Ni0 2.698483 1_555
In8 Tb16 3.418983 1_545
In8 Tb17 3.418983 1_555
In8 Tb3 3.683455 1_555
In8 Tb1 3.683455 1_545
In9 Ni16 2.644284 1_655
In9 Ni1 2.698483 1_555
In9 Tb16 3.418983 1_645
In9 Tb17 3.418983 1_655
In9 Tb0 3.683455 1_545
In9 Tb2 3.683455 1_555
In10 Ni17 2.668485 1_555
In10 Ni2 2.693671 1_555
In10 Ni18 2.846244 1_555
In10 In4 3.026328 1_555
In10 In5 3.026328 1_555
In10 In35 3.026764 1_555
In10 In34 3.026764 1_555
In10 In11 3.150600 1_555
In10 In18 3.216869 1_555
In10 Tb15 3.394086 1_555
In10 Tb14 3.394086 1_555
In10 Tb2 3.704430 1_555
In10 Tb3 3.704430 1_555
In11 Ni17 2.668485 1_555
In11 Ni3 2.693671 1_555
In11 Ni18 2.846244 1_555
In11 In6 3.026328 1_555
In11 In7 3.026328 1_555
In11 In33 3.026764 1_555
In11 In32 3.026764 1_555
In11 In19 3.216869 1_555
In11 Tb15 3.394086 1_555
In11 Tb14 3.394086 1_555
In11 Tb1 3.704430 1_555
In11 Tb0 3.704430 1_555
In12 Ni17 2.668485 1_556
In12 Ni4 2.693671 1_555
In12 Ni18 2.846244 1_555
In12 In4 3.026328 1_556
In12 In6 3.026328 1_556
In12 In35 3.026764 1_555
In12 In33 3.026764 1_555
In12 In13 3.150600 1_555
In12 In20 3.216869 1_555
In12 Tb13 3.394086 1_555
In12 Tb12 3.394086 1_555
In12 Tb7 3.704430 1_555
In12 Tb5 3.704430 1_555
In13 Ni17 2.668485 1_556
In13 Ni5 2.693671 1_555
In13 Ni18 2.846244 1_555
In13 In5 3.026328 1_556
In13 In7 3.026328 1_556
In13 In34 3.026764 1_555
In13 In32 3.026764 1_555
In13 In21 3.216869 1_555
In13 Tb13 3.394086 1_555
In13 Tb12 3.394086 1_555
In13 Tb6 3.704430 1_555
In13 Tb4 3.704430 1_555
In14 Ni16 2.644284 1_556
In14 Ni6 2.698483 1_555
In14 In22 3.201799 1_555
In14 Tb10 3.418983 1_455
In14 Tb11 3.418983 1_555
In14 Tb7 3.683455 1_555
In14 Tb6 3.683455 1_455
In15 Ni16 2.644284 1_566
In15 Ni7 2.698483 1_555
In15 In23 3.201799 1_555
In15 Tb10 3.418983 1_465
In15 Tb11 3.418983 1_565
In15 Tb5 3.683455 1_555
In15 Tb4 3.683455 1_455
In16 Ni13 2.743784 1_544
In16 Ni15 2.743784 1_554
In16 Ni0 2.992303 1_555
In16 Tb3 3.176042 1_555
In16 Tb1 3.176042 1_545
In16 In8 3.201799 1_555
In16 In18 3.205232 1_555
In16 In19 3.205232 1_545
In16 Tb18 3.226177 1_554
In16 Tb11 3.303802 1_554
In16 In2 3.312774 1_545
In16 Tb8 3.321452 1_555
In17 Ni12 2.743784 1_544
In17 Ni14 2.743784 1_554
In17 Ni1 2.992303 1_555
In17 Tb2 3.176042 1_555
In17 Tb0 3.176042 1_545
In17 In9 3.201799 1_555
In17 In18 3.205232 1_555
In17 In19 3.205232 1_545
In17 Tb18 3.226177 1_554
In17 Tb10 3.303802 1_554
In17 In3 3.312774 1_545
In17 Tb8 3.321452 1_555
In18 Ni14 2.745103 1_554
In18 Ni15 2.745103 1_554
In18 Ni2 2.946456 1_555
In18 Tb2 3.184817 1_555
In18 Tb3 3.184817 1_555
In18 Tb18 3.229074 1_554
In18 In4 3.313952 1_555
In18 In5 3.313952 1_555
In18 Tb8 3.320611 1_555
In18 Tb13 3.338254 1_554
In19 Ni12 2.745103 1_554
In19 Ni13 2.745103 1_554
In19 Ni3 2.946456 1_555
In19 Tb1 3.184817 1_555
In19 Tb0 3.184817 1_555
In19 Tb18 3.229074 1_564
In19 In6 3.313952 1_555
In19 In7 3.313952 1_555
In19 Tb8 3.320611 1_565
In19 Tb12 3.338254 1_554
In20 Ni9 2.745103 1_556
In20 Ni11 2.745103 1_556
In20 Ni4 2.946456 1_555
In20 Tb7 3.184817 1_555
In20 Tb5 3.184817 1_555
In20 In22 3.205232 1_555
In20 In23 3.205232 1_555
In20 Tb19 3.229074 1_556
In20 In4 3.313952 1_556
In20 In6 3.313952 1_556
In20 Tb9 3.320611 1_555
In20 Tb15 3.338254 1_556
In21 Ni8 2.745103 1_556
In21 Ni10 2.745103 1_556
In21 Ni5 2.946456 1_555
In21 Tb6 3.184817 1_555
In21 Tb4 3.184817 1_555
In21 In23 3.205232 1_655
In21 In22 3.205232 1_655
In21 Tb19 3.229074 1_656
In21 In5 3.313952 1_556
In21 In7 3.313952 1_556
In21 Tb9 3.320611 1_655
In21 Tb14 3.338254 1_556
In22 Ni10 2.743784 1_456
In22 Ni11 2.743784 1_556
In22 Ni6 2.992303 1_555
In22 Tb7 3.176042 1_555
In22 Tb6 3.176042 1_455
In22 Tb19 3.226177 1_556
In22 Tb17 3.303802 1_556
In22 Tb9 3.321452 1_555
In23 Ni8 2.743784 1_456
In23 Ni9 2.743784 1_556
In23 Ni7 2.992303 1_555
In23 Tb5 3.176042 1_555
In23 Tb4 3.176042 1_455
In23 Tb19 3.226177 1_556
In23 Tb16 3.303802 1_556
In23 In3 3.312774 1_456
In23 Tb9 3.321452 1_555
In24 Ni3 2.709557 1_555
In24 Ni1 2.723311 1_565
In24 Ni12 2.844580 1_555
In24 Tb12 3.091291 1_555
In24 Tb10 3.105404 1_565
In24 Tb0 3.252618 1_555
In24 Tb8 3.274348 1_565
In24 Tb18 3.387588 1_565
In24 Tb4 3.441634 1_555
In25 Ni3 2.709557 1_555
In25 Ni0 2.723311 1_565
In25 Ni13 2.844580 1_555
In25 Tb12 3.091291 1_555
In25 Tb11 3.105404 1_565
In25 Tb1 3.252618 1_555
In25 Tb8 3.274348 1_565
In25 Tb18 3.387588 1_565
In25 Tb5 3.441634 1_555
In26 Ni2 2.709557 1_555
In26 Ni1 2.723311 1_555
In26 Ni14 2.844580 1_555
In26 Tb13 3.091291 1_555
In26 Tb10 3.105404 1_555
In26 Tb2 3.252618 1_555
In26 Tb8 3.274348 1_555
In26 Tb18 3.387588 1_555
In26 Tb6 3.441634 1_555
In27 Ni2 2.709557 1_555
In27 Ni0 2.723311 1_555
In27 Ni15 2.844580 1_555
In27 Tb13 3.091291 1_555
In27 Tb11 3.105404 1_555
In27 Tb3 3.252618 1_555
In27 Tb8 3.274348 1_555
In27 Tb18 3.387588 1_555
In27 Tb7 3.441634 1_555
In28 Ni5 2.709557 1_555
In28 Ni7 2.723311 1_655
In28 Ni8 2.844580 1_555
In28 Tb14 3.091291 1_555
In28 Tb16 3.105404 1_655
In28 Tb4 3.252618 1_555
In28 Tb9 3.274348 1_655
In28 Tb19 3.387588 1_655
In28 Tb0 3.441634 1_555
In29 Ni4 2.709557 1_555
In29 Ni7 2.723311 1_555
In29 Ni9 2.844580 1_555
In29 Tb15 3.091291 1_555
In29 Tb16 3.105404 1_555
In29 Tb5 3.252618 1_555
In29 Tb9 3.274348 1_555
In29 Tb19 3.387588 1_555
In29 Tb1 3.441634 1_555
In30 Ni5 2.709557 1_555
In30 Ni6 2.723311 1_655
In30 Ni10 2.844580 1_555
In30 Tb14 3.091291 1_555
In30 Tb17 3.105404 1_655
In30 Tb6 3.252618 1_555
In30 Tb9 3.274348 1_655
In30 Tb19 3.387588 1_655
In30 Tb2 3.441634 1_555
In31 Ni4 2.709557 1_555
In31 Ni6 2.723311 1_555
In31 Ni11 2.844580 1_555
In31 Tb15 3.091291 1_555
In31 Tb17 3.105404 1_555
In31 Tb7 3.252618 1_555
In31 Tb9 3.274348 1_555
In31 Tb19 3.387588 1_555
In31 Tb3 3.441634 1_555
In32 Ni18 2.630802 1_555
In32 Ni5 2.797484 1_555
In32 Ni3 2.797484 1_555
In32 Tb4 3.185275 1_555
In32 Tb0 3.185275 1_555
In32 Tb12 3.241160 1_555
In32 Tb14 3.241160 1_555
In33 Ni18 2.630802 1_555
In33 Ni3 2.797484 1_555
In33 Ni4 2.797484 1_555
In33 Tb1 3.185275 1_555
In33 Tb5 3.185275 1_555
In33 Tb12 3.241160 1_555
In33 Tb15 3.241160 1_555
In34 Ni18 2.630802 1_555
In34 Ni5 2.797484 1_555
In34 Ni2 2.797484 1_555
In34 Tb6 3.185275 1_555
In34 Tb2 3.185275 1_555
In34 Tb14 3.241160 1_555
In34 Tb13 3.241160 1_555
In35 Ni18 2.630802 1_555
In35 Ni2 2.797484 1_555
In35 Ni4 2.797484 1_555
In35 Tb3 3.185275 1_555
In35 Tb7 3.185275 1_555
In35 Tb13 3.241160 1_555
In35 Tb15 3.241160 1_555
In36 Ni1 2.763889 1_565
In36 Ni7 2.763889 1_655
In36 Tb0 3.246518 1_555
In36 Tb4 3.246518 1_555
In36 Tb10 3.253457 1_565
In36 Tb16 3.253457 1_655
In37 Ni0 2.763889 1_565
In37 Ni7 2.763889 1_555
In37 Tb1 3.246518 1_555
In37 Tb5 3.246518 1_555
In37 Tb16 3.253457 1_555
In37 Tb11 3.253457 1_565
In38 Ni6 2.763889 1_655
In38 Ni1 2.763889 1_555
In38 Tb2 3.246518 1_555
In38 Tb6 3.246518 1_555
In38 Tb17 3.253457 1_655
In38 Tb10 3.253457 1_555
In39 Ni6 2.763889 1_555
In39 Ni0 2.763889 1_555
In39 Tb3 3.246518 1_555
In39 Tb7 3.246518 1_555
In39 Tb11 3.253457 1_555
In39 Tb17 3.253457 1_555
Ni0 Tb3 3.063067 1_555
Ni0 Tb1 3.063067 1_545
Ni0 Tb8 3.075120 1_555
Ni0 Tb11 3.284608 1_555
Ni1 Tb2 3.063067 1_555
Ni1 Tb0 3.063067 1_545
Ni1 Tb8 3.075120 1_555
Ni1 Tb10 3.284608 1_555
Ni2 Tb8 3.031950 1_555
Ni2 Tb3 3.058816 1_555
Ni2 Tb2 3.058816 1_555
Ni2 Tb13 3.309376 1_555
Ni3 Tb8 3.031950 1_565
Ni3 Tb1 3.058816 1_555
Ni3 Tb0 3.058816 1_555
Ni3 Tb12 3.309376 1_555
Ni4 Tb9 3.031950 1_555
Ni4 Tb7 3.058816 1_555
Ni4 Tb5 3.058816 1_555
Ni4 Tb15 3.309376 1_555
Ni5 Tb9 3.031950 1_655
Ni5 Tb4 3.058816 1_555
Ni5 Tb6 3.058816 1_555
Ni5 Tb14 3.309376 1_555
Ni6 Tb7 3.063067 1_555
Ni6 Tb6 3.063067 1_455
Ni6 Tb9 3.075120 1_555
Ni6 Tb17 3.284608 1_555
Ni7 Tb5 3.063067 1_555
Ni7 Tb4 3.063067 1_455
Ni7 Tb9 3.075120 1_555
Ni7 Tb16 3.284608 1_555
Ni8 Tb16 2.936238 1_655
Ni8 Tb14 2.959918 1_555
Ni8 Tb19 3.045617 1_655
Ni8 Tb0 3.102472 1_555
Ni8 Tb4 3.396940 1_554
Ni9 Tb16 2.936238 1_555
Ni9 Tb15 2.959918 1_555
Ni9 Tb19 3.045617 1_555
Ni9 Tb1 3.102472 1_555
Ni9 Tb5 3.396940 1_554
Ni10 Tb17 2.936238 1_655
Ni10 Tb14 2.959918 1_555
Ni10 Tb19 3.045617 1_655
Ni10 Tb2 3.102472 1_555
Ni10 Tb6 3.396940 1_554
Ni11 Tb17 2.936238 1_555
Ni11 Tb15 2.959918 1_555
Ni11 Tb19 3.045617 1_555
Ni11 Tb3 3.102472 1_555
Ni11 Tb7 3.396940 1_554
Ni12 Tb10 2.936238 1_565
Ni12 Tb12 2.959918 1_555
Ni12 Tb18 3.045617 1_565
Ni12 Tb4 3.102472 1_555
Ni12 Tb0 3.396940 1_556
Ni13 Tb11 2.936238 1_565
Ni13 Tb12 2.959918 1_555
Ni13 Tb18 3.045617 1_565
Ni13 Tb5 3.102472 1_555
Ni13 Tb1 3.396940 1_556
Ni14 Tb10 2.936238 1_555
Ni14 Tb13 2.959918 1_555
Ni14 Tb18 3.045617 1_555
Ni14 Tb6 3.102472 1_555
Ni14 Tb2 3.396940 1_556
Ni15 Tb11 2.936238 1_555
Ni15 Tb13 2.959918 1_555
Ni15 Tb18 3.045617 1_555
Ni15 Tb7 3.102472 1_555
Ni15 Tb3 3.396940 1_556
