# generated using pymatgen
data_KMnP3HO10
_symmetry_space_group_name_H-M   'P 1'
_cell_length_a   7.30206638
_cell_length_b   12.82010283
_cell_length_c   9.88173591
_cell_angle_alpha   76.08693538
_cell_angle_beta   89.06607768
_cell_angle_gamma   99.72201725
_symmetry_Int_Tables_number   1
_chemical_formula_structural   KMnP3HO10
_chemical_formula_sum   'K4 Mn4 P12 H4 O40'
_cell_volume   883.45940610
_cell_formula_units_Z   4
loop_
 _symmetry_equiv_pos_site_id
 _symmetry_equiv_pos_as_xyz
  1  'x, y, z'
loop_
 _atom_site_type_symbol
 _atom_site_label
 _atom_site_symmetry_multiplicity
 _atom_site_fract_x
 _atom_site_fract_y
 _atom_site_fract_z
 _atom_site_occupancy
  K  K0  1  0.82706564  0.40326340  0.85487839  1
  K  K1  1  0.32659729  0.90251596  0.35529244  1
  K  K2  1  0.17299925  0.59765448  0.14321208  1
  K  K3  1  0.67255656  0.09724899  0.64379238  1
  Mn  Mn0  1  0.75049654  0.74962351  0.25102119  1
  Mn  Mn1  1  0.74903038  0.25036255  0.24939575  1
  Mn  Mn2  1  0.25059555  0.24958884  0.75107110  1
  Mn  Mn3  1  0.24917882  0.75061132  0.74933271  1
  P  P0  1  0.42230024  0.16486788  0.04874934  1
  P  P1  1  0.92243310  0.66480205  0.54879509  1
  P  P2  1  0.57748823  0.83361360  0.95285065  1
  P  P3  1  0.07793514  0.33352655  0.45266195  1
  P  P4  1  0.66844994  0.50511047  0.19852332  1
  P  P5  1  0.16820113  0.00511599  0.69864679  1
  P  P6  1  0.33064428  0.49538436  0.80137871  1
  P  P7  1  0.83050912  0.99532931  0.30141212  1
  P  P8  1  0.98538214  0.83906446  0.94365495  1
  P  P9  1  0.48570789  0.33909546  0.44358290  1
  P  P10  1  0.01474097  0.16153307  0.05656269  1
  P  P11  1  0.51492407  0.66159156  0.55663064  1
  H  H0  1  0.49961370  0.49990853  0.99719303  1
  H  H1  1  0.99950111  0.99991367  0.49713955  1
  H  H2  1  0.50291440  0.99666386  0.99692257  1
  H  H3  1  0.00401523  0.49607956  0.49586258  1
  O  O0  1  0.21810411  0.16920994  0.11458013  1
  O  O1  1  0.71824363  0.66928698  0.61468180  1
  O  O2  1  0.78089085  0.83193618  0.88558673  1
  O  O3  1  0.28122125  0.33181572  0.38541241  1
  O  O4  1  0.49208595  0.51342539  0.11744950  1
  O  O5  1  0.99198256  0.01342466  0.61741776  1
  O  O6  1  0.50750667  0.48722080  0.88344656  1
  O  O7  1  0.00746013  0.98722552  0.38342903  1
  O  O8  1  0.43610465  0.22076879  0.89201644  1
  O  O9  1  0.93599251  0.72089944  0.39204808  1
  O  O10  1  0.56438769  0.77923823  0.10934589  1
  O  O11  1  0.06444733  0.27935604  0.60917091  1
  O  O12  1  0.59334431  0.45643435  0.36315099  1
  O  O13  1  0.09307569  0.95641249  0.86316138  1
  O  O14  1  0.40778831  0.54389048  0.63789730  1
  O  O15  1  0.90759738  0.04388304  0.13786529  1
  O  O16  1  0.55309611  0.23568465  0.12277479  1
  O  O17  1  0.05323696  0.73583589  0.62263507  1
  O  O18  1  0.44549012  0.76503871  0.87775830  1
  O  O19  1  0.94567253  0.26518333  0.37763494  1
  O  O20  1  0.78724836  0.61644701  0.19758029  1
  O  O21  1  0.28715126  0.11643064  0.69766405  1
  O  O22  1  0.21412133  0.38350542  0.80321970  1
  O  O23  1  0.71375145  0.88354049  0.30325921  1
  O  O24  1  0.78899975  0.42979408  0.16002571  1
  O  O25  1  0.28885360  0.92981861  0.66024321  1
  O  O26  1  0.21080134  0.57055843  0.84053024  1
  O  O27  1  0.71088228  0.07061614  0.34056197  1
  O  O28  1  0.98157293  0.83145348  0.09720218  1
  O  O29  1  0.48171883  0.33141058  0.59716427  1
  O  O30  1  0.01793150  0.16851220  0.90307597  1
  O  O31  1  0.51797244  0.66852817  0.40318482  1
  O  O32  1  0.93972188  0.54452284  0.58242917  1
  O  O33  1  0.43950820  0.04446466  0.08254877  1
  O  O34  1  0.06083651  0.45539135  0.41801135  1
  O  O35  1  0.56013571  0.95531729  0.91853046  1
  O  O36  1  0.92827340  0.24971945  0.10038585  1
  O  O37  1  0.42831415  0.74975921  0.60044812  1
  O  O38  1  0.07054103  0.75080779  0.89897543  1
  O  O39  1  0.57065462  0.25076211  0.39893304  1
loop_
_geom_bond_atom_site_label_1
_geom_bond_atom_site_label_2
_geom_bond_distance
_geom_bond_site_symmetry_2
K0 O6 2.766958 1_555
K0 O32 2.878299 1_555
K0 O36 2.925719 1_556
K0 O22 2.927403 1_655
K0 O24 3.127830 1_556
K0 O26 3.206663 1_655
K0 O8 3.324993 1_555
K1 O7 2.768764 1_555
K1 O33 2.884025 1_565
K1 O37 2.919599 1_555
K1 O23 2.925862 1_555
K1 O25 3.129227 1_555
K1 O27 3.214496 1_565
K1 O9 3.317367 1_455
K2 O4 2.760851 1_555
K2 O34 2.900406 1_555
K2 O38 2.918196 1_554
K2 O20 2.919424 1_455
K2 O26 3.106155 1_554
K2 O24 3.208727 1_455
K2 O10 3.323591 1_555
K2 O18 3.335511 1_554
K2 O28 3.453249 1_455
K3 O5 2.761270 1_555
K3 O35 2.898729 1_545
K3 O21 2.917489 1_555
K3 O39 2.923149 1_555
K3 O27 3.109744 1_555
K3 O25 3.204713 1_545
K3 O11 3.329265 1_655
K3 O19 3.344498 1_555
K3 O29 3.454653 1_555
Mn0 O20 1.962043 1_555
Mn0 O23 1.965506 1_555
Mn0 O9 1.973723 1_555
Mn0 O10 1.982834 1_555
Mn0 O31 2.189410 1_555
Mn0 O28 2.193117 1_555
Mn1 O16 1.930966 1_555
Mn1 O19 1.945949 1_555
Mn1 O39 1.955320 1_555
Mn1 O36 1.956524 1_555
Mn1 O24 2.223630 1_555
Mn1 O27 2.230693 1_555
Mn2 O21 1.961259 1_555
Mn2 O22 1.964533 1_555
Mn2 O8 1.973415 1_555
Mn2 O11 1.984804 1_555
Mn2 O30 2.189189 1_555
Mn2 O29 2.193821 1_555
Mn3 O17 1.931685 1_555
Mn3 O18 1.944798 1_555
Mn3 O37 1.955888 1_555
Mn3 O38 1.956577 1_555
Mn3 O25 2.220698 1_555
Mn3 O26 2.234241 1_555
H0 O6 1.175653 1_555
H0 O4 1.243111 1_556
H1 O7 1.175332 1_655
H1 O5 1.243292 1_565
H2 O35 1.147761 1_555
H2 O33 1.279945 1_566
H3 O34 1.136551 1_555
H3 O32 1.295657 1_455
O0 P10 1.596572 1_555
O0 P0 1.631976 1_555
O1 P11 1.596405 1_555
O1 P1 1.632670 1_555
O2 P8 1.604478 1_555
O2 P2 1.622881 1_555
O3 P9 1.604811 1_555
O3 P3 1.622164 1_555
O4 P4 1.533172 1_555
O5 P5 1.533050 1_655
O6 P6 1.541258 1_555
O7 P7 1.541486 1_455
O8 P0 1.535987 1_556
O9 P1 1.536704 1_555
O10 P2 1.529975 1_554
O11 P3 1.529485 1_555
O12 P9 1.586732 1_555
O12 P4 1.644330 1_555
O13 P8 1.587117 1_455
O13 P5 1.643399 1_565
O14 P11 1.591198 1_555
O14 P6 1.637900 1_555
O15 P10 1.590825 1_655
O15 P7 1.638419 1_545
O16 P0 1.523420 1_555
O17 P1 1.523978 1_455
O18 P2 1.517689 1_555
O19 P3 1.516584 1_655
O20 P4 1.537880 1_555
O21 P5 1.538009 1_555
O22 P6 1.535019 1_555
O23 P7 1.534719 1_555
O24 P4 1.518119 1_555
O25 P5 1.518072 1_565
O26 P6 1.515712 1_555
O27 P7 1.515781 1_545
O28 P8 1.496344 1_554
O29 P9 1.496497 1_555
O30 P10 1.497283 1_556
O31 P11 1.496993 1_555
O32 P1 1.524728 1_555
O33 P0 1.526084 1_555
O34 P3 1.543920 1_555
O35 P2 1.542455 1_555
O36 P10 1.527077 1_655
O37 P11 1.527395 1_555
O38 P8 1.526670 1_455
O39 P9 1.526583 1_555
