# generated using pymatgen
data_Ca5TiSn4(BO3)10
_symmetry_space_group_name_H-M   'P 1'
_cell_length_a   4.89728400
_cell_length_b   6.13013823
_cell_length_c   19.14534833
_cell_angle_alpha   97.42730276
_cell_angle_beta   97.33877121
_cell_angle_gamma   90.01573028
_symmetry_Int_Tables_number   1
_chemical_formula_structural   Ca5TiSn4(BO3)10
_chemical_formula_sum   'Ca5 Ti1 Sn4 B10 O30'
_cell_volume   565.18941901
_cell_formula_units_Z   1
loop_
 _symmetry_equiv_pos_site_id
 _symmetry_equiv_pos_as_xyz
  1  'x, y, z'
loop_
 _atom_site_type_symbol
 _atom_site_label
 _atom_site_symmetry_multiplicity
 _atom_site_fract_x
 _atom_site_fract_y
 _atom_site_fract_z
 _atom_site_occupancy
  Ca  Ca0  1  0.40166000  0.60042900  0.80192100  1
  Ca  Ca1  1  0.19998800  0.79996300  0.39997900  1
  Ca  Ca2  1  0.80001200  0.20003700  0.60002100  1
  Ca  Ca3  1  0.00000000  0.00000000  0.00000000  1
  Ca  Ca4  1  0.59834000  0.39957100  0.19807900  1
  Ti  Ti0  1  0.50000000  0.50000000  0.00000000  1
  Sn  Sn0  1  0.10036700  0.89969000  0.19981600  1
  Sn  Sn1  1  0.69997500  0.30010000  0.39989900  1
  Sn  Sn2  1  0.30002500  0.69990000  0.60010100  1
  Sn  Sn3  1  0.89963300  0.10031000  0.80018400  1
  B  B0  1  0.95496200  0.52335600  0.90688700  1
  B  B1  1  0.75213200  0.72638500  0.50429400  1
  B  B2  1  0.35188400  0.12655400  0.70432700  1
  B  B3  1  0.55038100  0.92095700  0.10318700  1
  B  B4  1  0.15200600  0.32639500  0.30414700  1
  B  B5  1  0.04503800  0.47664400  0.09311300  1
  B  B6  1  0.84799400  0.67360500  0.69585300  1
  B  B7  1  0.44961900  0.07904300  0.89681300  1
  B  B8  1  0.64811600  0.87344600  0.29567300  1
  B  B9  1  0.24786800  0.27361500  0.49570600  1
  O  O0  1  0.24448600  0.21407800  0.24421800  1
  O  O1  1  0.84419700  0.61432500  0.44430900  1
  O  O2  1  0.44414200  0.01446700  0.64437900  1
  O  O3  1  0.03571800  0.41613100  0.84449100  1
  O  O4  1  0.63344000  0.80083900  0.04350000  1
  O  O5  1  0.27126800  0.94478700  0.10807300  1
  O  O6  1  0.87155600  0.34236100  0.30796400  1
  O  O7  1  0.47207400  0.74225300  0.50832000  1
  O  O8  1  0.07185800  0.14206800  0.70847000  1
  O  O9  1  0.67820800  0.54185800  0.91479500  1
  O  O10  1  0.73956500  0.03601100  0.15512700  1
  O  O11  1  0.33817500  0.43973800  0.35711300  1
  O  O12  1  0.93861800  0.83986300  0.55713200  1
  O  O13  1  0.53786700  0.24021800  0.75725400  1
  O  O14  1  0.15513200  0.62997600  0.95760100  1
  O  O15  1  0.96428200  0.58386900  0.15550900  1
  O  O16  1  0.55585800  0.98553300  0.35562100  1
  O  O17  1  0.15580300  0.38567500  0.55569100  1
  O  O18  1  0.75551400  0.78592200  0.75578200  1
  O  O19  1  0.36656000  0.19916100  0.95650000  1
  O  O20  1  0.92814200  0.85793200  0.29153000  1
  O  O21  1  0.52792600  0.25774700  0.49168000  1
  O  O22  1  0.12844400  0.65763900  0.69203600  1
  O  O23  1  0.72873200  0.05521300  0.89192700  1
  O  O24  1  0.32179200  0.45814200  0.08520500  1
  O  O25  1  0.46213300  0.75978200  0.24274600  1
  O  O26  1  0.06138200  0.16013700  0.44286800  1
  O  O27  1  0.66182500  0.56026200  0.64288700  1
  O  O28  1  0.26043500  0.96398900  0.84487300  1
  O  O29  1  0.84486800  0.37002400  0.04239900  1
loop_
_geom_bond_atom_site_label_1
_geom_bond_atom_site_label_2
_geom_bond_distance
_geom_bond_site_symmetry_2
Ca0 O13 2.389663 1_555
Ca0 O18 2.392904 1_555
Ca0 O3 2.400506 1_555
Ca0 O28 2.407046 1_555
Ca0 O22 2.410618 1_555
Ca0 O9 2.467039 1_555
Ca1 O1 2.382797 1_455
Ca1 O16 2.383154 1_555
Ca1 O11 2.383684 1_555
Ca1 O26 2.384197 1_565
Ca1 O7 2.384735 1_555
Ca1 O20 2.386315 1_455
Ca2 O17 2.382797 1_655
Ca2 O2 2.383154 1_555
Ca2 O27 2.383684 1_555
Ca2 O12 2.384197 1_545
Ca2 O21 2.384735 1_555
Ca2 O8 2.386315 1_655
Ca3 O5 2.374792 1_545
Ca3 O23 2.374792 1_454
Ca3 O19 2.459740 1_554
Ca3 O4 2.459740 1_445
Ca3 O29 2.462468 1_455
Ca3 O14 2.462468 1_544
Ca4 O25 2.389663 1_555
Ca4 O0 2.392904 1_555
Ca4 O15 2.400506 1_555
Ca4 O10 2.407046 1_555
Ca4 O6 2.410618 1_555
Ca4 O24 2.467039 1_555
B0 O9 1.385932 1_555
B0 O14 1.386830 1_655
B0 O3 1.390447 1_655
B1 O7 1.386226 1_555
B1 O1 1.386565 1_555
B1 O12 1.386728 1_555
B2 O8 1.386324 1_555
B2 O2 1.386467 1_555
B2 O13 1.386793 1_555
B3 O4 1.383782 1_555
B3 O10 1.388388 1_565
B3 O5 1.388430 1_555
B4 O11 1.386940 1_555
B4 O0 1.387192 1_555
B4 O6 1.387491 1_455
B5 O24 1.385932 1_555
B5 O29 1.386830 1_455
B5 O15 1.390447 1_455
B6 O27 1.386940 1_555
B6 O18 1.387192 1_555
B6 O22 1.387491 1_655
B7 O19 1.383782 1_555
B7 O28 1.388388 1_545
B7 O23 1.388430 1_555
B8 O20 1.386324 1_555
B8 O16 1.386467 1_555
B8 O25 1.386793 1_555
B9 O21 1.386226 1_555
B9 O17 1.386565 1_555
B9 O26 1.386728 1_555
O0 Sn0 2.087454 1_545
O1 Sn1 2.086766 1_555
O2 Sn2 2.087827 1_545
O3 Sn3 2.083793 1_455
O4 Ti0 1.996217 1_555
O5 Sn0 2.088781 1_555
O6 Sn1 2.089701 1_555
O7 Sn2 2.088320 1_555
O8 Sn3 2.086748 1_455
O9 Ti0 1.990071 1_556
O10 Sn0 2.086126 1_645
O11 Sn1 2.086739 1_555
O12 Sn2 2.087307 1_655
O13 Sn3 2.088301 1_555
O14 Ti0 1.990960 1_556
O15 Sn0 2.083793 1_655
O16 Sn1 2.087827 1_565
O17 Sn2 2.086766 1_555
O18 Sn3 2.087454 1_565
O19 Ti0 1.996217 1_556
O20 Sn0 2.086748 1_655
O21 Sn1 2.088320 1_555
O22 Sn2 2.089701 1_555
O23 Sn3 2.088781 1_555
O24 Ti0 1.990071 1_555
O25 Sn0 2.088301 1_555
O26 Sn1 2.087307 1_455
O27 Sn2 2.086739 1_555
O28 Sn3 2.086126 1_465
O29 Ti0 1.990960 1_555
