# generated using pymatgen
data_AlCoP2NO8
_symmetry_space_group_name_H-M   'P 1'
_cell_length_a   8.93672000
_cell_length_b   9.48789260
_cell_length_c   9.51643168
_cell_angle_alpha   90.20442304
_cell_angle_beta   97.52301853
_cell_angle_gamma   96.95278158
_symmetry_Int_Tables_number   1
_chemical_formula_structural   AlCoP2NO8
_chemical_formula_sum   'Al4 Co4 P8 N4 O32'
_cell_volume   793.92150218
_cell_formula_units_Z   4
loop_
 _symmetry_equiv_pos_site_id
 _symmetry_equiv_pos_as_xyz
  1  'x, y, z'
loop_
 _atom_site_type_symbol
 _atom_site_label
 _atom_site_symmetry_multiplicity
 _atom_site_fract_x
 _atom_site_fract_y
 _atom_site_fract_z
 _atom_site_occupancy
  Al  Al0  1  0.10874700  0.30699300  0.42738400  1
  Al  Al1  1  0.60789200  0.42052800  0.30495100  1
  Al  Al2  1  0.89343300  0.69389100  0.57500100  1
  Al  Al3  1  0.44149500  0.05153200  0.78735100  1
  Co  Co0  1  0.39131900  0.57473000  0.69330400  1
  Co  Co1  1  0.05335700  0.21217800  0.94878500  1
  Co  Co2  1  0.55681800  0.95246100  0.21356000  1
  Co  Co3  1  0.94793300  0.78762400  0.05090100  1
  P  P0  1  0.54886400  0.70346400  0.44141100  1
  P  P1  1  0.95351300  0.55445400  0.29671400  1
  P  P2  1  0.45637200  0.28927500  0.55583000  1
  P  P3  1  0.03875800  0.44414200  0.70441600  1
  P  P4  1  0.58794400  0.79931100  0.91819000  1
  P  P5  1  0.91411900  0.08250800  0.20799000  1
  P  P6  1  0.41111600  0.20647800  0.07797500  1
  P  P7  1  0.09135100  0.91930800  0.79418200  1
  N  N0  1  0.72482100  0.42685900  0.92964600  1
  N  N1  1  0.77503800  0.07047200  0.57377300  1
  N  N2  1  0.27458700  0.57373500  0.07120900  1
  N  N3  1  0.22575900  0.92910300  0.42668600  1
  O  O0  1  0.41324000  0.67066200  0.52702300  1
  O  O1  1  0.08431600  0.46256400  0.32992700  1
  O  O2  1  0.58118400  0.31865400  0.45825900  1
  O  O3  1  0.90644800  0.53408200  0.66862400  1
  O  O4  1  0.47240600  0.14871100  0.63415800  1
  O  O5  1  0.01883900  0.37092700  0.84620500  1
  O  O6  1  0.53126700  0.84765300  0.37166500  1
  O  O7  1  0.97019000  0.62580400  0.15313600  1
  O  O8  1  0.18768900  0.54704300  0.71697900  1
  O  O9  1  0.30107200  0.28341700  0.46281800  1
  O  O10  1  0.80163100  0.45642600  0.28801500  1
  O  O11  1  0.69961000  0.71411000  0.54227900  1
  O  O12  1  0.47422500  0.40811600  0.67107700  1
  O  O13  1  0.03741800  0.32919600  0.58908800  1
  O  O14  1  0.54231200  0.58640500  0.32729600  1
  O  O15  1  0.96182600  0.67088100  0.41194800  1
  O  O16  1  0.49455500  0.66113700  0.85618800  1
  O  O17  1  0.01329500  0.15515400  0.33798600  1
  O  O18  1  0.51557200  0.33487800  0.14829200  1
  O  O19  1  0.99877200  0.84358600  0.66225200  1
  O  O20  1  0.57041400  0.92438600  0.81504200  1
  O  O21  1  0.91655100  0.18228400  0.07853400  1
  O  O22  1  0.41538600  0.07907800  0.18061500  1
  O  O23  1  0.08810700  0.81893300  0.92315500  1
  O  O24  1  0.25707400  0.95769200  0.76639900  1
  O  O25  1  0.24726000  0.24454400  0.05242900  1
  O  O26  1  0.74965700  0.05531500  0.24250700  1
  O  O27  1  0.75585300  0.77294700  0.94346200  1
  O  O28  1  0.46629100  0.16600900  0.93763600  1
  O  O29  1  0.01984900  0.05471700  0.82559900  1
  O  O30  1  0.52497500  0.83142600  0.05731800  1
  O  O31  1  0.97948000  0.94421600  0.17483000  1
loop_
_geom_bond_atom_site_label_1
_geom_bond_atom_site_label_2
_geom_bond_distance
_geom_bond_site_symmetry_2
Al0 O17 1.740850 1_555
Al0 O9 1.749205 1_555
Al0 O13 1.762332 1_555
Al0 O1 1.766716 1_555
Al1 O10 1.752252 1_555
Al1 O18 1.752318 1_555
Al1 O14 1.766117 1_555
Al1 O2 1.779083 1_555
Al2 O19 1.748161 1_555
Al2 O11 1.753203 1_555
Al2 O15 1.762721 1_555
Al2 O3 1.769619 1_555
Al3 O4 1.762143 1_555
Al3 O24 1.762439 1_545
Al3 O20 1.763898 1_545
Al3 O28 1.766885 1_555
Co0 O16 1.832856 1_555
Co0 O12 1.847938 1_555
Co0 O0 1.849082 1_555
Co0 O8 1.850251 1_555
Co1 O5 1.833266 1_555
Co1 O21 1.847600 1_456
Co1 O29 1.866324 1_555
Co1 O25 1.868526 1_556
Co2 O6 1.830426 1_555
Co2 O22 1.845416 1_565
Co2 O30 1.846186 1_555
Co2 O26 1.861383 1_565
Co3 O7 1.837739 1_555
Co3 O23 1.856511 1_654
Co3 O31 1.864615 1_555
Co3 O27 1.868933 1_554
O0 P0 1.548776 1_555
O1 P1 1.542210 1_455
O2 P2 1.543298 1_555
O3 P3 1.543767 1_655
O4 P2 1.542786 1_555
O5 P3 1.540960 1_555
O6 P0 1.538852 1_555
O7 P1 1.543664 1_555
O8 P3 1.543317 1_555
O9 P2 1.540149 1_555
O10 P1 1.542281 1_555
O11 P0 1.540860 1_555
O12 P2 1.549667 1_555
O13 P3 1.542377 1_555
O14 P0 1.541195 1_555
O15 P1 1.542234 1_555
O16 P4 1.537530 1_555
O17 P5 1.532952 1_455
O18 P6 1.535776 1_555
O19 P7 1.534478 1_655
O20 P4 1.552221 1_555
O21 P5 1.557151 1_555
O22 P6 1.557709 1_555
O23 P7 1.557305 1_555
O24 P7 1.539024 1_555
O25 P6 1.539244 1_555
O26 P5 1.539431 1_555
O27 P4 1.539117 1_555
O28 P6 1.545576 1_556
O29 P7 1.547356 1_545
O30 P4 1.547975 1_554
O31 P5 1.547009 1_565
