# generated using pymatgen
data_Li9Mn2Co5O16
_symmetry_space_group_name_H-M   'P 1'
_cell_length_a   5.85213800
_cell_length_b   5.88202191
_cell_length_c   9.73565888
_cell_angle_alpha   91.55044991
_cell_angle_beta   98.86536515
_cell_angle_gamma   119.38959533
_symmetry_Int_Tables_number   1
_chemical_formula_structural   Li9Mn2Co5O16
_chemical_formula_sum   'Li9 Mn2 Co5 O16'
_cell_volume   286.44704951
_cell_formula_units_Z   1
loop_
 _symmetry_equiv_pos_site_id
 _symmetry_equiv_pos_as_xyz
  1  'x, y, z'
loop_
 _atom_site_type_symbol
 _atom_site_label
 _atom_site_symmetry_multiplicity
 _atom_site_fract_x
 _atom_site_fract_y
 _atom_site_fract_z
 _atom_site_occupancy
  Li  Li0  1  0.25172700  0.11590700  0.75212400  1
  Li  Li1  1  0.99739700  0.24993500  0.50313300  1
  Li  Li2  1  0.74897100  0.37525900  0.24984100  1
  Li  Li3  1  0.50382800  0.50429200  0.99319200  1
  Li  Li4  1  0.25062900  0.62954200  0.75032300  1
  Li  Li5  1  0.99393100  0.74241600  0.50767500  1
  Li  Li6  1  0.74819800  0.87518800  0.24925200  1
  Li  Li7  1  0.50242400  0.00091000  0.99780400  1
  Li  Li8  1  0.74937600  0.62494700  0.74826600  1
  Mn  Mn0  1  0.99871600  0.99618100  0.99630000  1
  Mn  Mn1  1  0.49809700  0.74682000  0.50294200  1
  Co  Co0  1  0.50353700  0.25217800  0.50395900  1
  Co  Co1  1  0.24875300  0.87537600  0.25006700  1
  Co  Co2  1  0.98961800  0.50076500  0.99129900  1
  Co  Co3  1  0.75240700  0.12115300  0.74806000  1
  Co  Co4  1  0.25322600  0.37902500  0.24920400  1
  O  O0  1  0.11864200  0.81827400  0.88692500  1
  O  O1  1  0.84569400  0.93258200  0.62096900  1
  O  O2  1  0.60471200  0.04789800  0.38862600  1
  O  O3  1  0.35487700  0.17815100  0.12566900  1
  O  O4  1  0.11713000  0.29309200  0.88187800  1
  O  O5  1  0.83941300  0.41109600  0.62136900  1
  O  O6  1  0.60843600  0.57681600  0.37395900  1
  O  O7  1  0.34897500  0.68430200  0.12911900  1
  O  O8  1  0.38739700  0.44810700  0.60674200  1
  O  O9  1  0.14649500  0.57545600  0.37532200  1
  O  O10  1  0.88725900  0.71144500  0.11661000  1
  O  O11  1  0.65686000  0.83493900  0.88246000  1
  O  O12  1  0.38007400  0.91727800  0.62345000  1
  O  O13  1  0.16053400  0.07675800  0.37335800  1
  O  O14  1  0.90175700  0.19410100  0.12362500  1
  O  O15  1  0.65090800  0.30981400  0.87647500  1
loop_
_geom_bond_atom_site_label_1
_geom_bond_atom_site_label_2
_geom_bond_distance
_geom_bond_site_symmetry_2
Li0 O4 2.084128 1_555
Li0 O0 2.120125 1_545
Li0 O12 2.137901 1_545
Li0 O15 2.159209 1_555
Li0 O1 2.216937 1_445
Li0 O8 2.329204 1_555
Li1 O8 2.049605 1_655
Li1 O5 2.051249 1_555
Li1 O1 2.095713 1_545
Li1 O2 2.096263 1_555
Li1 O9 2.190812 1_655
Li1 O13 2.191343 1_655
Li2 O3 2.136585 1_555
Li2 O14 2.155867 1_555
Li2 O9 2.156033 1_655
Li2 O6 2.174373 1_555
Li2 O10 2.267015 1_555
Li2 O2 2.267808 1_555
Li3 O4 2.061769 1_555
Li3 O10 2.090381 1_556
Li3 O11 2.109094 1_555
Li3 O15 2.130294 1_555
Li3 O7 2.220169 1_556
Li3 O3 2.223192 1_556
Li4 O12 2.026616 1_555
Li4 O0 2.162401 1_555
Li4 O8 2.199098 1_555
Li4 O11 2.218211 1_555
Li4 O5 2.228216 1_455
Li4 O4 2.257276 1_555
Li5 O12 2.075049 1_655
Li5 O1 2.097829 1_555
Li5 O5 2.129891 1_555
Li5 O9 2.137435 1_655
Li5 O6 2.145297 1_555
Li5 O13 2.275596 1_665
Li6 O6 2.058071 1_555
Li6 O10 2.069646 1_555
Li6 O7 2.144523 1_555
Li6 O14 2.151899 1_565
Li6 O2 2.166133 1_565
Li6 O13 2.214540 1_665
Li7 O11 2.037245 1_545
Li7 O0 2.045843 1_545
Li7 O15 2.081979 1_555
Li7 O3 2.127608 1_556
Li7 O14 2.165416 1_556
Li7 O7 2.179508 1_546
Li8 O5 2.037947 1_555
Li8 O11 2.076708 1_555
Li8 O8 2.080368 1_555
Li8 O0 2.095524 1_655
Li8 O1 2.112716 1_555
Li8 O15 2.150464 1_555
Mn0 O11 1.878195 1_555
Mn0 O0 1.900626 1_655
Mn0 O10 1.967702 1_556
Mn0 O4 1.981558 1_665
Mn0 O14 2.000223 1_566
Mn0 O3 2.001138 1_666
Mn1 O1 1.918918 1_555
Mn1 O8 1.925818 1_555
Mn1 O12 1.929919 1_555
Mn1 O6 1.951788 1_555
Mn1 O9 1.975384 1_555
Mn1 O2 2.000094 1_565
Co0 O5 1.868217 1_555
Co0 O8 1.925472 1_555
Co0 O13 1.954503 1_555
Co0 O2 1.971122 1_555
Co0 O12 2.177604 1_545
Co0 O6 2.201070 1_555
Co1 O7 1.944714 1_555
Co1 O13 1.955685 1_565
Co1 O2 2.043008 1_565
Co1 O10 2.043575 1_455
Co1 O9 2.064582 1_555
Co1 O3 2.070542 1_565
Co2 O15 1.871943 1_555
Co2 O0 2.011399 1_655
Co2 O7 2.052317 1_656
Co2 O4 2.062302 1_655
Co2 O10 2.062737 1_556
Co2 O14 2.144148 1_556
Co3 O1 1.946156 1_545
Co3 O15 1.986970 1_555
Co3 O5 2.035744 1_555
Co3 O12 2.049272 1_545
Co3 O4 2.056396 1_655
Co3 O11 2.068762 1_545
Co4 O14 1.966104 1_455
Co4 O6 1.980285 1_555
Co4 O3 2.007458 1_555
Co4 O9 2.025002 1_555
Co4 O7 2.057452 1_555
Co4 O13 2.070780 1_555
