# generated using pymatgen
data_KHg3
_symmetry_space_group_name_H-M   'P 1'
_cell_length_a   5.51560906
_cell_length_b   5.51560906
_cell_length_c   5.51560906
_cell_angle_alpha   60.00000000
_cell_angle_beta   60.00000000
_cell_angle_gamma   60.00000000
_symmetry_Int_Tables_number   1
_chemical_formula_structural   KHg3
_chemical_formula_sum   'K1 Hg3'
_cell_volume   118.64936862
_cell_formula_units_Z   1
loop_
 _symmetry_equiv_pos_site_id
 _symmetry_equiv_pos_as_xyz
  1  'x, y, z'
loop_
 _atom_site_type_symbol
 _atom_site_label
 _atom_site_symmetry_multiplicity
 _atom_site_fract_x
 _atom_site_fract_y
 _atom_site_fract_z
 _atom_site_occupancy
  K  K0  1  -0.00000000  0.00000000  -0.00000000  1
  Hg  Hg0  1  0.25000000  0.25000000  0.25000000  1
  Hg  Hg1  1  0.75000000  0.75000000  0.75000000  1
  Hg  Hg2  1  0.50000000  0.50000000  0.50000000  1
loop_
_geom_bond_atom_site_label_1
_geom_bond_atom_site_label_2
_geom_bond_distance
_geom_bond_site_symmetry_2
Hg0 K0 3.377607 1_555
Hg0 K0 3.377607 1_556
Hg0 Hg2 3.377607 1_554
Hg0 Hg2 3.377607 1_555
Hg0 K0 3.377607 1_655
Hg0 Hg2 3.377607 1_455
Hg0 K0 3.377607 1_565
Hg0 Hg2 3.377607 1_545
Hg1 K0 3.377607 1_666
Hg1 Hg2 3.377607 1_556
Hg1 Hg2 3.377607 1_555
Hg1 K0 3.377607 1_665
Hg1 K0 3.377607 1_656
Hg1 Hg2 3.377607 1_565
Hg1 K0 3.377607 1_566
Hg1 Hg2 3.377607 1_655
Hg2 K0 3.900125 1_665
Hg2 K0 3.900125 1_566
Hg2 K0 3.900125 1_655
Hg2 K0 3.900125 1_556
Hg2 K0 3.900125 1_656
Hg2 K0 3.900125 1_565
