# generated using pymatgen
data_Ag12Sn7H16(Se11N2)2
_symmetry_space_group_name_H-M   'P 1'
_cell_length_a   28.04659122
_cell_length_b   28.04659122
_cell_length_c   14.15462573
_cell_angle_alpha   79.59947920
_cell_angle_beta   79.59947920
_cell_angle_gamma   14.13835703
_symmetry_Int_Tables_number   1
_chemical_formula_structural   Ag12Sn7H16(Se11N2)2
_chemical_formula_sum   'Ag24 Sn14 H32 Se44 N8'
_cell_volume   2674.30618812
_cell_formula_units_Z   2
loop_
 _symmetry_equiv_pos_site_id
 _symmetry_equiv_pos_as_xyz
  1  'x, y, z'
loop_
 _atom_site_type_symbol
 _atom_site_label
 _atom_site_symmetry_multiplicity
 _atom_site_fract_x
 _atom_site_fract_y
 _atom_site_fract_z
 _atom_site_occupancy
  Ag  Ag0  1  0.47905800  0.43600200  0.01005100  1
  Ag  Ag1  1  0.56399800  0.52094200  0.48994900  1
  Ag  Ag2  1  0.52094200  0.56399800  0.98994900  1
  Ag  Ag3  1  0.43600200  0.47905800  0.51005100  1
  Ag  Ag4  1  0.05642400  0.91252600  0.91853100  1
  Ag  Ag5  1  0.08747400  0.94357600  0.58146900  1
  Ag  Ag6  1  0.94357600  0.08747400  0.08146900  1
  Ag  Ag7  1  0.91252600  0.05642400  0.41853100  1
  Ag  Ag8  1  0.99253800  0.90756300  0.75405000  1
  Ag  Ag9  1  0.09243700  0.00746200  0.74595000  1
  Ag  Ag10  1  0.00746200  0.09243700  0.24595000  1
  Ag  Ag11  1  0.90756300  0.99253800  0.25405000  1
  Ag  Ag12  1  0.34930100  0.25480700  0.95588800  1
  Ag  Ag13  1  0.74519300  0.65069900  0.54411200  1
  Ag  Ag14  1  0.65069900  0.74519300  0.04411200  1
  Ag  Ag15  1  0.25480700  0.34930100  0.45588800  1
  Ag  Ag16  1  0.92044600  0.61540000  0.12631900  1
  Ag  Ag17  1  0.38460000  0.07955400  0.37368100  1
  Ag  Ag18  1  0.07955400  0.38460000  0.87368100  1
  Ag  Ag19  1  0.61540000  0.92044600  0.62631900  1
  Ag  Ag20  1  0.90651800  0.63513300  0.35044700  1
  Ag  Ag21  1  0.36486700  0.09348200  0.14955300  1
  Ag  Ag22  1  0.09348200  0.36486700  0.64955300  1
  Ag  Ag23  1  0.63513300  0.90651800  0.85044700  1
  Sn  Sn0  1  0.52574300  0.47425700  0.75000000  1
  Sn  Sn1  1  0.47425700  0.52574300  0.25000000  1
  Sn  Sn2  1  0.98570000  0.83295300  0.01294500  1
  Sn  Sn3  1  0.16704700  0.01430000  0.48705500  1
  Sn  Sn4  1  0.01430000  0.16704700  0.98705500  1
  Sn  Sn5  1  0.83295300  0.98570000  0.51294500  1
  Sn  Sn6  1  0.42992900  0.30073800  0.06653800  1
  Sn  Sn7  1  0.69926200  0.57007100  0.43346200  1
  Sn  Sn8  1  0.57007100  0.69926200  0.93346200  1
  Sn  Sn9  1  0.30073800  0.42992900  0.56653800  1
  Sn  Sn10  1  0.43363300  0.15821500  0.21510300  1
  Sn  Sn11  1  0.84178500  0.56636700  0.28489700  1
  Sn  Sn12  1  0.56636700  0.84178500  0.78489700  1
  Sn  Sn13  1  0.15821500  0.43363300  0.71510300  1
  H  H0  1  0.49634300  0.29500100  0.80519900  1
  H  H1  1  0.70499900  0.50365700  0.69480100  1
  H  H2  1  0.50365700  0.70499900  0.19480100  1
  H  H3  1  0.29500100  0.49634300  0.30519900  1
  H  H4  1  0.35819700  0.47787700  0.76755800  1
  H  H5  1  0.52212300  0.64180300  0.73244200  1
  H  H6  1  0.64180300  0.52212300  0.23244200  1
  H  H7  1  0.47787700  0.35819700  0.26755800  1
  H  H8  1  0.53884100  0.30631000  0.84452500  1
  H  H9  1  0.69369000  0.46115900  0.65547500  1
  H  H10  1  0.46115900  0.69369000  0.15547500  1
  H  H11  1  0.30631000  0.53884100  0.34452500  1
  H  H12  1  0.59825100  0.24448900  0.73080400  1
  H  H13  1  0.75551100  0.40174900  0.76919600  1
  H  H14  1  0.40174900  0.75551100  0.26919600  1
  H  H15  1  0.24448900  0.59825100  0.23080400  1
  H  H16  1  0.74989600  0.93359000  0.92607900  1
  H  H17  1  0.06641000  0.25010400  0.57392100  1
  H  H18  1  0.25010400  0.06641000  0.07392100  1
  H  H19  1  0.93359000  0.74989600  0.42607900  1
  H  H20  1  0.99649600  0.70533300  0.91103400  1
  H  H21  1  0.29466700  0.00350400  0.58896600  1
  H  H22  1  0.00350400  0.29466700  0.08896600  1
  H  H23  1  0.70533300  0.99649600  0.41103400  1
  H  H24  1  0.91253000  0.72959100  0.92551000  1
  H  H25  1  0.27040900  0.08747000  0.57449000  1
  H  H26  1  0.08747000  0.27040900  0.07449000  1
  H  H27  1  0.72959100  0.91253000  0.42551000  1
  H  H28  1  0.90373600  0.76827800  0.01849600  1
  H  H29  1  0.23172200  0.09626400  0.48150400  1
  H  H30  1  0.09626400  0.23172200  0.98150400  1
  H  H31  1  0.76827800  0.90373600  0.51849600  1
  Se  Se0  1  0.71174800  0.22502000  0.85716100  1
  Se  Se1  1  0.77498000  0.28825200  0.64283900  1
  Se  Se2  1  0.28825200  0.77498000  0.14283900  1
  Se  Se3  1  0.22502000  0.71174800  0.35716100  1
  Se  Se4  1  0.27334800  0.68379800  0.64643600  1
  Se  Se5  1  0.31620200  0.72665200  0.85356400  1
  Se  Se6  1  0.72665200  0.31620200  0.35356400  1
  Se  Se7  1  0.68379800  0.27334800  0.14643600  1
  Se  Se8  1  0.11726300  0.78072900  0.07011300  1
  Se  Se9  1  0.21927100  0.88273700  0.42988700  1
  Se  Se10  1  0.88273700  0.21927100  0.92988700  1
  Se  Se11  1  0.78072900  0.11726300  0.57011300  1
  Se  Se12  1  0.00836900  0.80088500  0.84062800  1
  Se  Se13  1  0.19911500  0.99163100  0.65937200  1
  Se  Se14  1  0.99163100  0.19911500  0.15937200  1
  Se  Se15  1  0.80088500  0.00836900  0.34062800  1
  Se  Se16  1  0.09736000  0.64755700  0.13455600  1
  Se  Se17  1  0.35244300  0.90264000  0.36544400  1
  Se  Se18  1  0.90264000  0.35244300  0.86544400  1
  Se  Se19  1  0.64755700  0.09736000  0.63455600  1
  Se  Se20  1  0.61825800  0.19848900  0.06444700  1
  Se  Se21  1  0.80151100  0.38174200  0.43555300  1
  Se  Se22  1  0.38174200  0.80151100  0.93555300  1
  Se  Se23  1  0.19848900  0.61825800  0.56444700  1
  Se  Se24  1  0.40989700  0.28971500  0.90915000  1
  Se  Se25  1  0.71028500  0.59010300  0.59085000  1
  Se  Se26  1  0.59010300  0.71028500  0.09085000  1
  Se  Se27  1  0.28971500  0.40989700  0.40915000  1
  Se  Se28  1  0.63021500  0.04774500  0.19018100  1
  Se  Se29  1  0.95225500  0.36978500  0.30981900  1
  Se  Se30  1  0.36978500  0.95225500  0.80981900  1
  Se  Se31  1  0.04774500  0.63021500  0.69018100  1
  Se  Se32  1  0.07382300  0.53219600  0.20883400  1
  Se  Se33  1  0.46780400  0.92617700  0.29116600  1
  Se  Se34  1  0.92617700  0.46780400  0.79116600  1
  Se  Se35  1  0.53219600  0.07382300  0.70883400  1
  Se  Se36  1  0.53944400  0.00722900  0.08239000  1
  Se  Se37  1  0.99277100  0.46055600  0.41761000  1
  Se  Se38  1  0.46055600  0.99277000  0.91761000  1
  Se  Se39  1  0.00722900  0.53944400  0.58239000  1
  Se  Se40  1  0.52889800  0.02493500  0.38762100  1
  Se  Se41  1  0.97506500  0.47110200  0.11237900  1
  Se  Se42  1  0.47110200  0.97506500  0.61237900  1
  Se  Se43  1  0.02493500  0.52889800  0.88762100  1
  N  N0  1  0.49824300  0.33057500  0.78654800  1
  N  N1  1  0.66942500  0.50175700  0.71345200  1
  N  N2  1  0.50175700  0.66942500  0.21345200  1
  N  N3  1  0.33057500  0.49824300  0.28654800  1
  N  N4  1  0.89043800  0.78434900  0.94481100  1
  N  N5  1  0.21565100  0.10956200  0.55518900  1
  N  N6  1  0.10956200  0.21565100  0.05518900  1
  N  N7  1  0.78434900  0.89043800  0.44481100  1
loop_
_geom_bond_atom_site_label_1
_geom_bond_atom_site_label_2
_geom_bond_distance
_geom_bond_site_symmetry_2
Ag0 Se8 2.597793 1_555
Ag0 Se0 2.630178 1_554
Ag0 Se7 2.744038 1_555
Ag0 Se20 3.000801 1_555
Ag1 Se9 2.597793 1_555
Ag1 Se1 2.630178 1_555
Ag1 Se6 2.744038 1_555
Ag1 Se21 3.000801 1_555
Ag2 Se10 2.597793 1_555
Ag2 Se2 2.630178 1_556
Ag2 Se5 2.744038 1_555
Ag2 Se22 3.000801 1_555
Ag3 Se11 2.597793 1_555
Ag3 Se3 2.630178 1_555
Ag3 Se4 2.744038 1_555
Ag3 Se23 3.000801 1_555
Ag4 Se5 2.599003 1_555
Ag4 Se0 2.642958 1_465
Ag4 Se8 2.721133 1_556
Ag5 Se4 2.599003 1_555
Ag5 Se1 2.642958 1_465
Ag5 Se9 2.721133 1_555
Ag6 Se7 2.599003 1_555
Ag6 Se2 2.642958 1_645
Ag6 Se10 2.721133 1_554
Ag7 Se6 2.599003 1_555
Ag7 Se3 2.642958 1_645
Ag7 Se11 2.721133 1_555
Ag8 Se12 2.635705 1_655
Ag8 Se4 2.644710 1_655
Ag8 Se0 2.824452 1_565
Ag8 Se11 2.992371 1_565
Ag9 Se13 2.635705 1_545
Ag9 Se5 2.644710 1_545
Ag9 Se1 2.824452 1_455
Ag9 Se10 2.992371 1_455
Ag10 Se14 2.635705 1_455
Ag10 Se6 2.644710 1_455
Ag10 Se2 2.824452 1_545
Ag10 Se9 2.992371 1_545
Ag11 Se15 2.635705 1_565
Ag11 Se7 2.644710 1_565
Ag11 Se3 2.824452 1_655
Ag11 Se8 2.992371 1_655
Ag12 Se24 2.621402 1_555
Ag12 Se36 2.646320 1_556
Ag12 Se43 2.765988 1_555
Ag13 Se25 2.621402 1_555
Ag13 Se37 2.646320 1_555
Ag13 Se42 2.765988 1_555
Ag14 Se26 2.621402 1_555
Ag14 Se38 2.646304 1_554
Ag14 Se41 2.765988 1_555
Ag15 Se27 2.621402 1_555
Ag15 Se39 2.646320 1_555
Ag15 Se40 2.765988 1_555
Ag16 Se32 2.583744 1_655
Ag16 Se41 2.630569 1_555
Ag16 Se36 2.743167 1_565
Ag17 Se33 2.583744 1_545
Ag17 Se40 2.630569 1_555
Ag17 Se37 2.743167 1_455
Ag18 Se34 2.583744 1_455
Ag18 Se43 2.630569 1_555
Ag18 Se38 2.743172 1_545
Ag19 Se35 2.583744 1_565
Ag19 Se42 2.630569 1_555
Ag19 Se39 2.743167 1_655
Ag20 Se32 2.605995 1_655
Ag20 Se37 2.628216 1_555
Ag20 Se40 2.733712 1_565
Ag21 Se33 2.605995 1_545
Ag21 Se36 2.628216 1_555
Ag21 Se41 2.733712 1_455
Ag22 Se34 2.605995 1_455
Ag22 Se39 2.628216 1_555
Ag22 Se42 2.733712 1_545
Ag23 Se35 2.605995 1_565
Ag23 Se38 2.628240 1_555
Ag23 Se43 2.733712 1_655
H0 N0 1.034858 1_555
H1 N1 1.034858 1_555
H2 N2 1.034858 1_555
H3 N3 1.034858 1_555
H4 N0 1.037782 1_555
H5 N1 1.037782 1_555
H6 N2 1.037782 1_555
H7 N3 1.037782 1_555
H8 N0 1.032459 1_555
H9 N1 1.032459 1_555
H10 N2 1.032459 1_555
H11 N3 1.032459 1_555
H12 N0 1.036377 1_555
H13 N1 1.036377 1_555
H14 N2 1.036377 1_555
H15 N3 1.036377 1_555
H16 N4 1.051672 1_555
H17 N5 1.051672 1_555
H18 N6 1.051672 1_555
H19 N7 1.051672 1_555
H20 N4 1.035493 1_555
H21 N5 1.035493 1_555
H22 N6 1.035493 1_555
H23 N7 1.035493 1_555
H24 N4 1.030546 1_555
H25 N5 1.030546 1_555
H26 N6 1.030546 1_555
H27 N7 1.030546 1_555
H28 N4 1.036707 1_554
H29 N5 1.036707 1_555
H30 N6 1.036707 1_556
H31 N7 1.036707 1_555
Se0 Sn0 2.585317 1_555
Se1 Sn0 2.585317 1_555
Se2 Sn1 2.585317 1_555
Se3 Sn1 2.585317 1_555
Se4 Sn0 2.598066 1_555
Se5 Sn0 2.598066 1_555
Se6 Sn1 2.598066 1_555
Se7 Sn1 2.598066 1_555
Se8 Sn2 2.565891 1_455
Se9 Sn3 2.565891 1_565
Se10 Sn4 2.565891 1_655
Se11 Sn5 2.565891 1_545
Se12 Sn2 2.507071 1_456
Se13 Sn3 2.507071 1_565
Se14 Sn4 2.507071 1_654
Se15 Sn5 2.507071 1_545
Se16 Sn6 2.592714 1_555
Se16 Sn2 2.634596 1_455
Se17 Sn7 2.592714 1_555
Se17 Sn3 2.634596 1_565
Se18 Sn8 2.592714 1_555
Se18 Sn4 2.634596 1_655
Se19 Sn9 2.592714 1_555
Se19 Sn5 2.634596 1_545
Se20 Sn6 2.592556 1_555
Se20 Sn2 2.630762 1_545
Se21 Sn7 2.592556 1_555
Se21 Sn3 2.630762 1_655
Se22 Sn8 2.592556 1_555
Se22 Sn4 2.630762 1_565
Se23 Sn9 2.592556 1_555
Se23 Sn5 2.630762 1_455
Se24 Sn6 2.532119 1_556
Se25 Sn7 2.532119 1_555
Se26 Sn8 2.532119 1_554
Se27 Sn9 2.532119 1_555
Se28 Sn10 2.585472 1_555
Se28 Sn6 2.593988 1_555
Se29 Sn11 2.585472 1_555
Se29 Sn7 2.593988 1_555
Se30 Sn12 2.585472 1_555
Se30 Sn8 2.593988 1_555
Se31 Sn13 2.585472 1_555
Se31 Sn9 2.593988 1_555
Se32 Sn10 2.562353 1_555
Se33 Sn11 2.562353 1_555
Se34 Sn12 2.562353 1_555
Se35 Sn13 2.562353 1_555
Se36 Sn10 2.598990 1_555
Se37 Sn11 2.598990 1_555
Se38 Sn12 2.598972 1_555
Se39 Sn13 2.598990 1_555
Se40 Sn10 2.600926 1_555
Se41 Sn11 2.600926 1_555
Se42 Sn12 2.600926 1_555
Se43 Sn13 2.600926 1_555
