# generated using pymatgen
data_NaMg6Sn
_symmetry_space_group_name_H-M   'P 1'
_cell_length_a   5.19391000
_cell_length_b   6.52253400
_cell_length_c   11.23767400
_cell_angle_alpha   90.00000000
_cell_angle_beta   90.00000000
_cell_angle_gamma   90.00000000
_symmetry_Int_Tables_number   1
_chemical_formula_structural   NaMg6Sn
_chemical_formula_sum   'Na2 Mg12 Sn2'
_cell_volume   380.70379038
_cell_formula_units_Z   2
loop_
 _symmetry_equiv_pos_site_id
 _symmetry_equiv_pos_as_xyz
  1  'x, y, z'
loop_
 _atom_site_type_symbol
 _atom_site_label
 _atom_site_symmetry_multiplicity
 _atom_site_fract_x
 _atom_site_fract_y
 _atom_site_fract_z
 _atom_site_occupancy
  Na  Na0  1  0.50000000  0.50000000  0.16659400  1
  Na  Na1  1  0.50000000  0.00000000  0.66659400  1
  Mg  Mg0  1  0.00000000  0.24624500  0.08295600  1
  Mg  Mg1  1  0.00000000  0.75375500  0.08295600  1
  Mg  Mg2  1  0.00000000  0.50000000  0.83268600  1
  Mg  Mg3  1  0.50000000  0.25010500  0.91751500  1
  Mg  Mg4  1  0.50000000  0.74989500  0.91751500  1
  Mg  Mg5  1  0.50000000  0.50000000  0.66544100  1
  Mg  Mg6  1  0.00000000  0.74624500  0.58295600  1
  Mg  Mg7  1  0.00000000  0.25375500  0.58295600  1
  Mg  Mg8  1  0.00000000  0.00000000  0.33268600  1
  Mg  Mg9  1  0.50000000  0.75010500  0.41751500  1
  Mg  Mg10  1  0.50000000  0.24989500  0.41751500  1
  Mg  Mg11  1  0.50000000  0.00000000  0.16544100  1
  Sn  Sn0  1  0.00000000  0.50000000  0.33433800  1
  Sn  Sn1  1  0.00000000  0.00000000  0.83433800  1
loop_
_geom_bond_atom_site_label_1
_geom_bond_atom_site_label_2
_geom_bond_distance
_geom_bond_site_symmetry_2
Na0 Sn0 3.208987 1_555
Na0 Sn0 3.208987 1_655
Na1 Sn1 3.208987 1_555
Na1 Sn1 3.208987 1_655
Mg0 Mg11 3.191094 1_455
Mg0 Mg11 3.191094 1_555
Mg0 Mg3 3.193952 1_454
Mg0 Mg3 3.193952 1_554
Mg0 Mg1 3.212283 1_545
Mg0 Na0 3.219786 1_455
Mg0 Na0 3.219786 1_555
Mg0 Sn1 3.222654 1_554
Mg0 Mg8 3.233494 1_555
Mg0 Mg2 3.263331 1_554
Mg0 Sn0 3.274107 1_555
Mg0 Mg1 3.310251 1_555
Mg1 Mg11 3.191094 1_565
Mg1 Mg11 3.191094 1_465
Mg1 Mg4 3.193952 1_554
Mg1 Mg4 3.193952 1_454
Mg1 Na0 3.219786 1_455
Mg1 Na0 3.219786 1_555
Mg1 Sn1 3.222654 1_564
Mg1 Mg8 3.233494 1_565
Mg1 Mg2 3.263331 1_554
Mg1 Sn0 3.274107 1_555
Mg2 Mg5 3.205696 1_455
Mg2 Mg5 3.205696 1_555
Mg2 Mg4 3.210865 1_455
Mg2 Mg4 3.210865 1_555
Mg2 Mg3 3.210865 1_455
Mg2 Mg3 3.210865 1_555
Mg2 Mg6 3.233494 1_555
Mg2 Mg7 3.233494 1_555
Mg2 Sn1 3.261320 1_555
Mg2 Sn1 3.261320 1_565
Mg3 Sn1 3.206099 1_555
Mg3 Sn1 3.206099 1_655
Mg3 Na0 3.239061 1_556
Mg3 Na1 3.257652 1_555
Mg3 Mg4 3.259897 1_555
Mg3 Mg4 3.262637 1_545
Mg3 Mg5 3.268190 1_555
Mg4 Sn1 3.206099 1_565
Mg4 Sn1 3.206099 1_665
Mg4 Na0 3.239061 1_556
Mg4 Na1 3.257652 1_565
Mg4 Mg5 3.268190 1_555
Mg5 Mg6 3.191094 1_655
Mg5 Mg6 3.191094 1_555
Mg5 Mg7 3.191094 1_555
Mg5 Mg7 3.191094 1_655
Mg5 Mg9 3.228563 1_555
Mg5 Na1 3.261293 1_555
Mg5 Na1 3.261293 1_565
Mg6 Mg9 3.193952 1_455
Mg6 Mg9 3.193952 1_555
Mg6 Mg7 3.212283 1_555
Mg6 Na1 3.219786 1_465
Mg6 Na1 3.219786 1_565
Mg6 Sn0 3.222654 1_555
Mg6 Mg8 3.263331 1_565
Mg6 Sn1 3.274107 1_565
Mg6 Mg7 3.310251 1_565
Mg7 Na1 3.219786 1_455
Mg7 Na1 3.219786 1_555
Mg7 Sn0 3.222654 1_555
Mg7 Mg8 3.263331 1_555
Mg7 Sn1 3.274107 1_555
Mg8 Mg9 3.210865 1_545
Mg8 Mg9 3.210865 1_445
Mg8 Sn0 3.261320 1_555
Mg8 Sn0 3.261320 1_545
Mg9 Sn0 3.206099 1_655
Mg9 Sn0 3.206099 1_555
Mg9 Na1 3.239061 1_565
Mg9 Na0 3.257652 1_555
Mg10 Mg7 3.193952 1_555
Mg10 Mg7 3.193952 1_655
Mg10 Sn0 3.206099 1_555
Mg10 Sn0 3.206099 1_655
Mg10 Mg8 3.210865 1_555
Mg10 Mg8 3.210865 1_655
Mg10 Mg5 3.228563 1_555
Mg10 Na1 3.239061 1_555
Mg10 Na0 3.257652 1_555
Mg10 Mg9 3.259897 1_545
Mg10 Mg9 3.262637 1_555
Mg10 Mg11 3.268190 1_555
Mg11 Mg8 3.205696 1_555
Mg11 Mg8 3.205696 1_655
Mg11 Mg3 3.228563 1_554
Mg11 Mg4 3.228563 1_544
Mg11 Na0 3.261293 1_555
Mg11 Na0 3.261293 1_545
Mg11 Mg9 3.268190 1_545
