# generated using pymatgen
data_Ba(FeSb3)4
_symmetry_space_group_name_H-M   'P 1'
_cell_length_a   8.00813864
_cell_length_b   8.00813864
_cell_length_c   8.00813864
_cell_angle_alpha   109.47122063
_cell_angle_beta   109.47122063
_cell_angle_gamma   109.47122063
_symmetry_Int_Tables_number   1
_chemical_formula_structural   Ba(FeSb3)4
_chemical_formula_sum   'Ba1 Fe4 Sb12'
_cell_volume   395.34191263
_cell_formula_units_Z   1
loop_
 _symmetry_equiv_pos_site_id
 _symmetry_equiv_pos_as_xyz
  1  'x, y, z'
loop_
 _atom_site_type_symbol
 _atom_site_label
 _atom_site_symmetry_multiplicity
 _atom_site_fract_x
 _atom_site_fract_y
 _atom_site_fract_z
 _atom_site_occupancy
  Ba  Ba0  1  0.00000000  0.00000000  0.00000000  1
  Fe  Fe0  1  0.00000000  0.00000000  0.50000000  1
  Fe  Fe1  1  0.50000000  0.00000000  0.00000000  1
  Fe  Fe2  1  0.00000000  0.50000000  0.00000000  1
  Fe  Fe3  1  0.50000000  0.50000000  0.50000000  1
  Sb  Sb0  1  0.33791700  0.17444700  0.83652900  1
  Sb  Sb1  1  0.66208300  0.82555300  0.16347100  1
  Sb  Sb2  1  0.66208300  0.49861200  0.83652900  1
  Sb  Sb3  1  0.33791700  0.50138800  0.16347100  1
  Sb  Sb4  1  0.17444700  0.83652900  0.33791700  1
  Sb  Sb5  1  0.82555300  0.16347100  0.66208300  1
  Sb  Sb6  1  0.49861200  0.83652900  0.66208300  1
  Sb  Sb7  1  0.50138800  0.16347100  0.33791700  1
  Sb  Sb8  1  0.83652900  0.33791700  0.17444700  1
  Sb  Sb9  1  0.16347100  0.66208300  0.82555300  1
  Sb  Sb10  1  0.83652900  0.66208300  0.49861200  1
  Sb  Sb11  1  0.16347100  0.33791700  0.50138800  1
loop_
_geom_bond_atom_site_label_1
_geom_bond_atom_site_label_2
_geom_bond_distance
_geom_bond_site_symmetry_2
Ba0 Sb2 3.471146 1_444
Ba0 Sb7 3.471146 1_555
Ba0 Sb6 3.471146 1_444
Ba0 Sb11 3.471146 1_555
Ba0 Sb10 3.471146 1_444
Ba0 Sb3 3.471146 1_555
Ba0 Sb9 3.471148 1_544
Ba0 Sb5 3.471148 1_454
Ba0 Sb8 3.471148 1_455
Ba0 Sb1 3.471148 1_445
Ba0 Sb4 3.471148 1_545
Ba0 Sb0 3.471148 1_554
Fe0 Sb1 2.577851 1_445
Fe0 Sb0 2.577851 1_555
Fe0 Sb10 2.577852 1_445
Fe0 Sb11 2.577852 1_555
Fe0 Sb5 2.577859 1_455
Fe0 Sb4 2.577859 1_545
Fe1 Sb8 2.577851 1_555
Fe1 Sb9 2.577851 1_544
Fe1 Sb7 2.577852 1_555
Fe1 Sb6 2.577852 1_544
Fe1 Sb0 2.577859 1_554
Fe1 Sb1 2.577859 1_545
Fe2 Sb5 2.577851 1_454
Fe2 Sb4 2.577851 1_555
Fe2 Sb2 2.577852 1_454
Fe2 Sb3 2.577852 1_555
Fe2 Sb8 2.577859 1_455
Fe2 Sb9 2.577859 1_554
Fe3 Sb11 2.577852 1_555
Fe3 Sb3 2.577852 1_555
Fe3 Sb7 2.577852 1_555
Fe3 Sb6 2.577852 1_555
Fe3 Sb10 2.577852 1_555
Fe3 Sb2 2.577852 1_555
Sb0 Sb2 2.997559 1_555
Sb0 Sb3 3.023229 1_556
Sb1 Sb3 2.997559 1_555
Sb1 Sb2 3.023229 1_554
Sb4 Sb6 2.997559 1_555
Sb4 Sb7 3.023229 1_565
Sb5 Sb7 2.997559 1_555
Sb5 Sb6 3.023229 1_545
Sb10 Sb8 2.997559 1_555
Sb10 Sb9 3.023229 1_655
Sb11 Sb9 2.997559 1_555
Sb11 Sb8 3.023229 1_455
