# generated using pymatgen
data_Eu3Ga5
_symmetry_space_group_name_H-M   'P 1'
_cell_length_a   5.89413683
_cell_length_b   5.89413751
_cell_length_c   15.16135385
_cell_angle_alpha   90.00227924
_cell_angle_beta   89.99771986
_cell_angle_gamma   134.66428768
_symmetry_Int_Tables_number   1
_chemical_formula_structural   Eu3Ga5
_chemical_formula_sum   'Eu6 Ga10'
_cell_volume   374.62198997
_cell_formula_units_Z   2
loop_
 _symmetry_equiv_pos_site_id
 _symmetry_equiv_pos_as_xyz
  1  'x, y, z'
loop_
 _atom_site_type_symbol
 _atom_site_label
 _atom_site_symmetry_multiplicity
 _atom_site_fract_x
 _atom_site_fract_y
 _atom_site_fract_z
 _atom_site_occupancy
  Eu  Eu0  1  0.87535477  0.12464501  0.75004939  1
  Eu  Eu1  1  0.12464286  0.87535730  0.24997256  1
  Eu  Eu2  1  0.59124998  0.40874998  0.89126076  1
  Eu  Eu3  1  0.59124376  0.40875612  0.60877831  1
  Eu  Eu4  1  0.40875127  0.59124872  0.39123378  1
  Eu  Eu5  1  0.40875223  0.59124785  0.10872616  1
  Ga  Ga0  1  0.17060603  0.82939407  0.74998599  1
  Ga  Ga1  1  0.82939307  0.17060689  0.25003322  1
  Ga  Ga2  1  0.11698564  0.88301433  0.03284890  1
  Ga  Ga3  1  0.11698843  0.88301155  0.46711990  1
  Ga  Ga4  1  0.70604139  0.29395861  0.09792736  1
  Ga  Ga5  1  0.70603646  0.29396361  0.40211381  1
  Ga  Ga6  1  0.29395699  0.70604299  0.90207074  1
  Ga  Ga7  1  0.29397352  0.70602643  0.59787924  1
  Ga  Ga8  1  0.88300962  0.11699046  0.96713786  1
  Ga  Ga9  1  0.88301398  0.11698607  0.53286302  1
loop_
_geom_bond_atom_site_label_1
_geom_bond_atom_site_label_2
_geom_bond_distance
_geom_bond_site_symmetry_2
Eu0 Ga0 3.181233 1_545
Eu0 Ga0 3.181235 1_655
Eu0 Ga0 3.211648 1_645
Eu0 Ga8 3.292412 1_555
Eu0 Ga9 3.293890 1_555
Eu0 Ga6 3.354993 1_545
Eu0 Ga6 3.354994 1_655
Eu0 Ga7 3.356549 1_545
Eu0 Ga7 3.356549 1_655
Eu1 Ga1 3.181244 1_565
Eu1 Ga1 3.181245 1_455
Eu1 Ga1 3.211632 1_465
Eu1 Ga2 3.292946 1_555
Eu1 Ga3 3.293297 1_555
Eu1 Ga4 3.355244 1_565
Eu1 Ga4 3.355245 1_455
Eu1 Ga5 3.356283 1_565
Eu1 Ga5 3.356283 1_455
Eu2 Ga2 3.137907 1_546
Eu2 Ga2 3.137907 1_656
Eu2 Ga6 3.169968 1_655
Eu2 Ga6 3.169968 1_545
Eu2 Ga6 3.238002 1_555
Eu2 Ga0 3.239234 1_545
Eu2 Ga0 3.239234 1_655
Eu2 Ga4 3.373033 1_556
Eu2 Ga8 3.375782 1_555
Eu2 Ga8 3.407941 1_455
Eu2 Ga8 3.407942 1_565
Eu3 Ga3 3.138628 1_545
Eu3 Ga3 3.138629 1_655
Eu3 Ga7 3.170200 1_655
Eu3 Ga7 3.170201 1_545
Eu3 Ga7 3.237838 1_555
Eu3 Ga0 3.238628 1_545
Eu3 Ga0 3.238629 1_655
Eu3 Ga5 3.372909 1_555
Eu3 Ga9 3.375994 1_555
Eu3 Ga9 3.408126 1_455
Eu3 Ga9 3.408127 1_565
Eu4 Ga9 3.138319 1_455
Eu4 Ga9 3.138319 1_565
Eu4 Ga5 3.170072 1_455
Eu4 Ga5 3.170073 1_565
Eu4 Ga5 3.237985 1_555
Eu4 Ga1 3.238546 1_455
Eu4 Ga1 3.238546 1_565
Eu4 Ga7 3.372581 1_555
Eu4 Ga3 3.375768 1_555
Eu4 Ga3 3.408029 1_655
Eu4 Ga3 3.408030 1_545
Eu5 Ga8 3.137916 1_454
Eu5 Ga8 3.137916 1_564
Eu5 Ga4 3.169988 1_455
Eu5 Ga4 3.169988 1_565
Eu5 Ga4 3.237952 1_555
Eu5 Ga1 3.239567 1_565
Eu5 Ga1 3.239567 1_455
Eu5 Ga6 3.372891 1_554
Eu5 Ga2 3.375854 1_555
Eu5 Ga2 3.407891 1_655
Eu5 Ga2 3.407892 1_545
Ga0 Ga6 2.667843 1_555
Ga0 Ga7 2.668122 1_555
Ga1 Ga5 2.667719 1_555
Ga1 Ga4 2.668123 1_555
Ga2 Ga4 2.659303 1_565
Ga2 Ga4 2.659303 1_455
Ga2 Ga8 2.733202 1_464
Ga2 Ga6 2.763482 1_554
Ga3 Ga5 2.658834 1_455
Ga3 Ga5 2.658834 1_565
Ga3 Ga9 2.733283 1_465
Ga3 Ga7 2.763501 1_555
Ga4 Ga8 2.763582 1_554
Ga5 Ga9 2.763334 1_555
Ga6 Ga8 2.659227 1_455
Ga6 Ga8 2.659227 1_565
Ga7 Ga9 2.658861 1_455
Ga7 Ga9 2.658861 1_565
