# generated using pymatgen
data_UBrO5
_symmetry_space_group_name_H-M   'P 1'
_cell_length_a   6.38159600
_cell_length_b   10.71677600
_cell_length_c   18.87682149
_cell_angle_alpha   69.84871664
_cell_angle_beta   90.00000000
_cell_angle_gamma   90.00000000
_symmetry_Int_Tables_number   1
_chemical_formula_structural   UBrO5
_chemical_formula_sum   'U8 Br8 O40'
_cell_volume   1211.96216519
_cell_formula_units_Z   8
loop_
 _symmetry_equiv_pos_site_id
 _symmetry_equiv_pos_as_xyz
  1  'x, y, z'
loop_
 _atom_site_type_symbol
 _atom_site_label
 _atom_site_symmetry_multiplicity
 _atom_site_fract_x
 _atom_site_fract_y
 _atom_site_fract_z
 _atom_site_occupancy
  U  U0  1  0.82063100  0.33845400  0.17177200  1
  U  U1  1  0.17936900  0.66154600  0.82822800  1
  U  U2  1  0.32063100  0.66154600  0.32822800  1
  U  U3  1  0.67936900  0.33845400  0.67177200  1
  U  U4  1  0.60280400  0.83794700  0.17087700  1
  U  U5  1  0.39719600  0.16205300  0.82912300  1
  U  U6  1  0.10280400  0.16205300  0.32912300  1
  U  U7  1  0.89719600  0.83794700  0.67087700  1
  Br  Br0  1  0.54397300  0.31482600  0.41936100  1
  Br  Br1  1  0.45602700  0.68517400  0.58063900  1
  Br  Br2  1  0.04397300  0.68517400  0.08063900  1
  Br  Br3  1  0.95602700  0.31482600  0.91936100  1
  Br  Br4  1  0.88398000  0.81546800  0.41912000  1
  Br  Br5  1  0.11602000  0.18453200  0.58088000  1
  Br  Br6  1  0.38398000  0.18453200  0.08088000  1
  Br  Br7  1  0.61602000  0.81546800  0.91912000  1
  O  O0  1  0.96158600  0.27299800  0.10674800  1
  O  O1  1  0.03841400  0.72700200  0.89325200  1
  O  O2  1  0.46158600  0.72700200  0.39325200  1
  O  O3  1  0.53841400  0.27299800  0.60674800  1
  O  O4  1  0.92761900  0.79262600  0.11854500  1
  O  O5  1  0.07238100  0.20737400  0.88145500  1
  O  O6  1  0.42761900  0.20737400  0.38145500  1
  O  O7  1  0.57238100  0.79262600  0.61854500  1
  O  O8  1  0.59628200  0.65941300  0.26539300  1
  O  O9  1  0.40371800  0.34058700  0.73460700  1
  O  O10  1  0.09628200  0.34058700  0.23460700  1
  O  O11  1  0.90371800  0.65941300  0.76539300  1
  O  O12  1  0.76048900  0.92383800  0.21986700  1
  O  O13  1  0.23951100  0.07616200  0.78013300  1
  O  O14  1  0.26048900  0.07616200  0.28013300  1
  O  O15  1  0.73951100  0.92383800  0.71986700  1
  O  O16  1  0.66089300  0.42237500  0.22135400  1
  O  O17  1  0.33910700  0.57762500  0.77864600  1
  O  O18  1  0.16089300  0.57762500  0.27864600  1
  O  O19  1  0.83910700  0.42237500  0.72135400  1
  O  O20  1  0.99627500  0.71017600  0.37913100  1
  O  O21  1  0.00372500  0.28982400  0.62086900  1
  O  O22  1  0.49627500  0.28982400  0.12086900  1
  O  O23  1  0.50372500  0.71017600  0.87913100  1
  O  O24  1  0.32721400  0.84037700  0.23399300  1
  O  O25  1  0.67278600  0.15962300  0.76600700  1
  O  O26  1  0.82721400  0.15962300  0.26600700  1
  O  O27  1  0.17278600  0.84037700  0.73399300  1
  O  O28  1  0.05352500  0.93604200  0.42463600  1
  O  O29  1  0.94647500  0.06395800  0.57536400  1
  O  O30  1  0.55352500  0.06395800  0.07536400  1
  O  O31  1  0.44647500  0.93604200  0.92463600  1
  O  O32  1  0.87193500  0.56501700  0.07551200  1
  O  O33  1  0.12806500  0.43498300  0.92448800  1
  O  O34  1  0.37193500  0.43498300  0.42448800  1
  O  O35  1  0.62806500  0.56501700  0.57551200  1
  O  O36  1  0.46008600  0.77054900  0.10716800  1
  O  O37  1  0.53991400  0.22945100  0.89283200  1
  O  O38  1  0.96008600  0.22945100  0.39283200  1
  O  O39  1  0.03991400  0.77054900  0.60716800  1
loop_
_geom_bond_atom_site_label_1
_geom_bond_atom_site_label_2
_geom_bond_distance
_geom_bond_site_symmetry_2
Br0 O6 1.719625 1_555
Br0 O34 1.720095 1_555
Br1 O7 1.719625 1_555
Br1 O35 1.720095 1_555
Br2 O4 1.719625 1_455
Br2 O32 1.720095 1_455
Br3 O5 1.719625 1_655
Br3 O33 1.720095 1_655
Br4 O20 1.715667 1_555
Br4 O28 1.715776 1_655
Br5 O21 1.715667 1_555
Br5 O29 1.715776 1_455
Br6 O22 1.715667 1_555
Br6 O30 1.715776 1_555
Br7 O23 1.715667 1_555
Br7 O31 1.715776 1_555
O0 U0 1.844200 1_555
O1 U1 1.844200 1_555
O2 U2 1.844200 1_555
O3 U3 1.844200 1_555
O4 U4 2.416404 1_555
O5 U5 2.416404 1_555
O6 U6 2.416404 1_555
O7 U7 2.416404 1_555
O8 U4 2.119837 1_555
O8 U2 2.126148 1_555
O9 U5 2.119837 1_555
O9 U3 2.126148 1_555
O10 U6 2.119837 1_555
O10 U0 2.126148 1_455
O11 U7 2.119837 1_555
O11 U1 2.126148 1_655
O12 U4 1.817027 1_555
O13 U5 1.817027 1_555
O14 U6 1.817027 1_555
O15 U7 1.817027 1_555
O16 U0 1.817683 1_555
O17 U1 1.817683 1_555
O18 U2 1.817683 1_555
O19 U3 1.817683 1_555
O20 U2 2.413393 1_655
O21 U3 2.413393 1_455
O22 U0 2.413393 1_555
O23 U1 2.413393 1_555
O24 U2 2.118991 1_555
O24 U4 2.129460 1_555
O25 U3 2.118991 1_555
O25 U5 2.129460 1_555
O26 U0 2.118991 1_555
O26 U6 2.129460 1_655
O27 U1 2.118991 1_555
O27 U7 2.129460 1_455
O28 U6 2.491461 1_565
O29 U7 2.491461 1_545
O30 U4 2.491461 1_545
O31 U5 2.491461 1_565
O32 U0 2.502893 1_555
O33 U1 2.502893 1_555
O34 U2 2.502893 1_555
O35 U3 2.502893 1_555
O36 U4 1.842824 1_555
O37 U5 1.842824 1_555
O38 U6 1.842824 1_655
O39 U7 1.842824 1_455
