# generated using pymatgen
data_K3Np3Si2O13
_symmetry_space_group_name_H-M   'P 1'
_cell_length_a   3.95766314
_cell_length_b   9.83794325
_cell_length_c   9.80097033
_cell_angle_alpha   120.04629343
_cell_angle_beta   89.98587916
_cell_angle_gamma   90.03048940
_symmetry_Int_Tables_number   1
_chemical_formula_structural   K3Np3Si2O13
_chemical_formula_sum   'K3 Np3 Si2 O13'
_cell_volume   330.32390432
_cell_formula_units_Z   1
loop_
 _symmetry_equiv_pos_site_id
 _symmetry_equiv_pos_as_xyz
  1  'x, y, z'
loop_
 _atom_site_type_symbol
 _atom_site_label
 _atom_site_symmetry_multiplicity
 _atom_site_fract_x
 _atom_site_fract_y
 _atom_site_fract_z
 _atom_site_occupancy
  K  K0  1  0.49883200  0.21938700  0.99610600  1
  K  K1  1  0.49887900  0.77703500  0.78047200  1
  K  K2  1  0.49881400  0.00318200  0.22302200  1
  Np  Np0  1  0.00026300  0.42351300  0.40246200  1
  Np  Np1  1  0.00016900  0.97934100  0.57691100  1
  Np  Np2  1  0.00010600  0.59721700  0.02047400  1
  Si  Si0  1  0.49485400  0.33309300  0.66681900  1
  Si  Si1  1  0.55852200  0.66669500  0.33349000  1
  O  O0  1  0.00075300  0.23079600  0.21113900  1
  O  O1  1  0.00076100  0.98038700  0.76947200  1
  O  O2  1  0.00072100  0.78814200  0.01946100  1
  O  O3  1  0.99837400  0.59763000  0.60320000  1
  O  O4  1  0.99844400  0.00523900  0.40252900  1
  O  O5  1  0.99839500  0.39743200  0.99466600  1
  O  O6  1  0.49604300  0.32628300  0.49980900  1
  O  O7  1  0.49602300  0.17394700  0.67389800  1
  O  O8  1  0.49603700  0.50004200  0.82651500  1
  O  O9  1  0.49372700  0.83273300  0.50300900  1
  O  O10  1  0.49379100  0.49753000  0.32965200  1
  O  O11  1  0.49361200  0.67015100  0.16695700  1
  O  O12  1  0.98288000  0.66672400  0.33323600  1
loop_
_geom_bond_atom_site_label_1
_geom_bond_atom_site_label_2
_geom_bond_distance
_geom_bond_site_symmetry_2
K0 O5 2.645426 1_555
K0 O5 2.649410 1_455
K0 O0 2.846285 1_556
K0 O0 2.857473 1_656
K0 O7 2.959550 1_555
K0 O1 3.019133 1_545
K0 O1 3.030043 1_645
K0 O10 3.035959 1_556
K1 O3 2.640624 1_555
K1 O3 2.642852 1_455
K1 O1 2.849653 1_555
K1 O1 2.858469 1_655
K1 O8 2.976747 1_555
K1 O2 3.021100 1_556
K1 O9 3.031184 1_555
K1 O2 3.031313 1_656
K2 O4 2.640397 1_555
K2 O4 2.641958 1_455
K2 O2 2.848296 1_545
K2 O2 2.859642 1_645
K2 O6 2.971210 1_555
K2 O0 3.029728 1_555
K2 O0 3.038147 1_655
K2 O11 3.038727 1_545
Np0 O3 1.852084 1_455
Np0 O0 1.884313 1_555
Np0 O10 2.317907 1_555
Np0 O10 2.362180 1_455
Np0 O6 2.567500 1_555
Np0 O6 2.591981 1_455
Np0 O12 2.795699 1_455
Np1 O4 1.849891 1_465
Np1 O1 1.882155 1_555
Np1 O9 2.318747 1_555
Np1 O9 2.360875 1_455
Np1 O7 2.567990 1_565
Np1 O7 2.594352 1_465
Np1 O12 2.794937 1_455
Np2 O5 1.851823 1_454
Np2 O2 1.883300 1_555
Np2 O11 2.314960 1_555
Np2 O11 2.358537 1_455
Np2 O8 2.561300 1_554
Np2 O8 2.586002 1_454
Np2 O12 2.787406 1_455
O6 Si0 1.604369 1_555
O7 Si0 1.601544 1_555
O8 Si0 1.604085 1_555
O9 Si1 1.666408 1_555
O10 Si1 1.665409 1_555
O11 Si1 1.669421 1_555
O12 Si1 1.679467 1_555
O12 Si1 2.278199 1_655
