# generated using pymatgen
data_Ce2NiRu3
_symmetry_space_group_name_H-M   'P 1'
_cell_length_a   5.17826940
_cell_length_b   5.17821426
_cell_length_c   5.17824170
_cell_angle_alpha   61.72465433
_cell_angle_beta   61.72484427
_cell_angle_gamma   61.72472553
_symmetry_Int_Tables_number   1
_chemical_formula_structural   Ce2NiRu3
_chemical_formula_sum   'Ce2 Ni1 Ru3'
_cell_volume   101.97721220
_cell_formula_units_Z   1
loop_
 _symmetry_equiv_pos_site_id
 _symmetry_equiv_pos_as_xyz
  1  'x, y, z'
loop_
 _atom_site_type_symbol
 _atom_site_label
 _atom_site_symmetry_multiplicity
 _atom_site_fract_x
 _atom_site_fract_y
 _atom_site_fract_z
 _atom_site_occupancy
  Ce  Ce0  1  0.62466168  0.62466938  0.62466563  1
  Ce  Ce1  1  0.37533836  0.37533060  0.37533434  1
  Ni  Ni0  1  -0.00000003  0.00000003  0.00000007  1
  Ru  Ru0  1  0.00000002  0.49999997  -0.00000000  1
  Ru  Ru1  1  0.49999996  0.00000002  0.00000000  1
  Ru  Ru2  1  0.00000001  -0.00000000  0.49999996  1
loop_
_geom_bond_atom_site_label_1
_geom_bond_atom_site_label_2
_geom_bond_distance
_geom_bond_site_symmetry_2
Ce0 Ru1 3.028701 1_566
Ce0 Ru2 3.028718 1_665
Ce0 Ru0 3.028734 1_656
Ce0 Ru1 3.080687 1_565
Ce0 Ru1 3.080692 1_556
Ce0 Ru2 3.080693 1_565
Ce0 Ru2 3.080703 1_655
Ce0 Ru0 3.080706 1_556
Ce0 Ru0 3.080711 1_655
Ce0 Ni0 3.111970 1_566
Ce0 Ni0 3.111980 1_665
Ce0 Ni0 3.111988 1_656
Ce0 Ce1 3.120677 1_555
Ce0 Ce1 3.242396 1_565
Ce0 Ce1 3.242449 1_556
Ce0 Ce1 3.242503 1_655
Ce1 Ru1 3.028701 1_555
Ce1 Ru2 3.028718 1_555
Ce1 Ru0 3.028734 1_555
Ce1 Ru1 3.080687 1_556
Ce1 Ru1 3.080692 1_565
Ce1 Ru2 3.080693 1_655
Ce1 Ru2 3.080703 1_565
Ce1 Ru0 3.080705 1_655
Ce1 Ru0 3.080711 1_556
Ce1 Ni0 3.111969 1_655
Ce1 Ni0 3.111981 1_556
Ce1 Ni0 3.111989 1_565
Ni0 Ru0 2.589107 1_555
Ni0 Ru0 2.589107 1_545
Ni0 Ru2 2.589120 1_555
Ni0 Ru2 2.589121 1_554
Ni0 Ru1 2.589134 1_555
Ni0 Ru1 2.589135 1_455
Ru0 Ru2 2.656311 1_555
Ru0 Ru2 2.656312 1_564
Ru0 Ru1 2.656321 1_555
Ru0 Ru1 2.656322 1_465
Ru1 Ru2 2.656333 1_555
Ru1 Ru2 2.656333 1_654
