# generated using pymatgen
data_Rb3B(SeO4)3
_symmetry_space_group_name_H-M   'P 1'
_cell_length_a   14.82701366
_cell_length_b   14.82701366
_cell_length_c   14.82701366
_cell_angle_alpha   149.86769180
_cell_angle_beta   116.07078048
_cell_angle_gamma   72.28095972
_symmetry_Int_Tables_number   1
_chemical_formula_structural   Rb3B(SeO4)3
_chemical_formula_sum   'Rb12 B4 Se12 O48'
_cell_volume   1448.92699039
_cell_formula_units_Z   4
loop_
 _symmetry_equiv_pos_site_id
 _symmetry_equiv_pos_as_xyz
  1  'x, y, z'
loop_
 _atom_site_type_symbol
 _atom_site_label
 _atom_site_symmetry_multiplicity
 _atom_site_fract_x
 _atom_site_fract_y
 _atom_site_fract_z
 _atom_site_occupancy
  Rb  Rb0  1  0.79470500  0.30880500  0.74939800  1
  Rb  Rb1  1  0.70529500  0.45469300  0.51410000  1
  Rb  Rb2  1  0.44059400  0.19119500  0.98590000  1
  Rb  Rb3  1  0.05940600  0.04530700  0.75060200  1
  Rb  Rb4  1  0.20529500  0.69119500  0.25060200  1
  Rb  Rb5  1  0.29470500  0.54530700  0.48590000  1
  Rb  Rb6  1  0.55940600  0.80880500  0.01410000  1
  Rb  Rb7  1  0.94059400  0.95469300  0.24939800  1
  Rb  Rb8  1  0.05884900  0.75000000  0.80884900  1
  Rb  Rb9  1  0.44115100  0.25000000  0.69115100  1
  Rb  Rb10  1  0.94115100  0.25000000  0.19115100  1
  Rb  Rb11  1  0.55884900  0.75000000  0.30884900  1
  B  B0  1  0.17002200  0.42002200  0.75000000  1
  B  B1  1  0.32997800  0.07997800  0.25000000  1
  B  B2  1  0.82997800  0.57997800  0.25000000  1
  B  B3  1  0.67002200  0.92002200  0.75000000  1
  Se  Se0  1  0.96844500  0.48033600  0.76187900  1
  Se  Se1  1  0.53155500  0.29343300  0.51189100  1
  Se  Se2  1  0.28154200  0.01966400  0.98810900  1
  Se  Se3  1  0.21845800  0.20656700  0.73812100  1
  Se  Se4  1  0.03155500  0.51966400  0.23812100  1
  Se  Se5  1  0.46844500  0.70656700  0.48810900  1
  Se  Se6  1  0.71845800  0.98033600  0.01189100  1
  Se  Se7  1  0.78154200  0.79343300  0.26187900  1
  Se  Se8  1  0.31339800  0.75000000  0.06339800  1
  Se  Se9  1  0.18660200  0.25000000  0.43660200  1
  Se  Se10  1  0.68660200  0.25000000  0.93660200  1
  Se  Se11  1  0.81339800  0.75000000  0.56339800  1
  O  O0  1  0.21837800  0.41283100  0.85264600  1
  O  O1  1  0.28162200  0.13426800  0.19445300  1
  O  O2  1  0.43981500  0.08716900  0.30554700  1
  O  O3  1  0.06018500  0.36573200  0.64735400  1
  O  O4  1  0.78162200  0.58716900  0.14735400  1
  O  O5  1  0.71837800  0.86573200  0.80554700  1
  O  O6  1  0.56018500  0.91283100  0.69445300  1
  O  O7  1  0.93981500  0.63426800  0.35264600  1
  O  O8  1  0.87669700  0.30774400  0.59509500  1
  O  O9  1  0.62330300  0.21839800  0.43104700  1
  O  O10  1  0.28735200  0.19225600  0.06895300  1
  O  O11  1  0.21264800  0.28160200  0.90490500  1
  O  O12  1  0.12330300  0.69225600  0.40490500  1
  O  O13  1  0.37669700  0.78160200  0.56895300  1
  O  O14  1  0.71264800  0.80774400  0.93104700  1
  O  O15  1  0.78735200  0.71839800  0.09509500  1
  O  O16  1  0.66123100  0.12931800  0.72869200  1
  O  O17  1  0.83876900  0.56746100  0.46808700  1
  O  O18  1  0.59937400  0.37068200  0.03191300  1
  O  O19  1  0.90062600  0.93253900  0.77130800  1
  O  O20  1  0.33876900  0.87068200  0.27130800  1
  O  O21  1  0.16123100  0.43253900  0.53191300  1
  O  O22  1  0.40062600  0.62931800  0.96808700  1
  O  O23  1  0.09937400  0.06746100  0.22869200  1
  O  O24  1  0.19249300  0.61696600  0.89901100  1
  O  O25  1  0.30750700  0.20651800  0.42447400  1
  O  O26  1  0.28204500  0.88303400  0.07552600  1
  O  O27  1  0.21795500  0.29348200  0.60098900  1
  O  O28  1  0.80750700  0.38303400  0.10098900  1
  O  O29  1  0.69249300  0.79348200  0.57552600  1
  O  O30  1  0.71795500  0.11696600  0.92447400  1
  O  O31  1  0.78204500  0.70651800  0.39901100  1
  O  O32  1  0.93329000  0.61786100  0.78793600  1
  O  O33  1  0.56671000  0.35464600  0.68457100  1
  O  O34  1  0.17007500  0.88213900  0.81542900  1
  O  O35  1  0.32992500  0.14535400  0.71206400  1
  O  O36  1  0.06671000  0.38213900  0.21206400  1
  O  O37  1  0.43329000  0.64535400  0.31542900  1
  O  O38  1  0.82992500  0.11786100  0.18457100  1
  O  O39  1  0.67007500  0.85464600  0.28793600  1
  O  O40  1  0.02173000  0.58886900  0.96865300  1
  O  O41  1  0.47827000  0.44692200  0.56713900  1
  O  O42  1  0.37978300  0.91113100  0.93286100  1
  O  O43  1  0.12021700  0.05307800  0.53134700  1
  O  O44  1  0.97827000  0.41113100  0.03134700  1
  O  O45  1  0.52173000  0.55307800  0.43286100  1
  O  O46  1  0.62021700  0.08886900  0.06713900  1
  O  O47  1  0.87978300  0.94692200  0.46865300  1
loop_
_geom_bond_atom_site_label_1
_geom_bond_atom_site_label_2
_geom_bond_distance
_geom_bond_site_symmetry_2
B0 O3 1.454903 1_555
B0 O0 1.454903 1_555
B0 O27 1.518199 1_555
B0 O24 1.518199 1_555
B1 O2 1.454903 1_555
B1 O1 1.454903 1_555
B1 O26 1.518197 1_545
B1 O25 1.518210 1_555
B2 O7 1.454903 1_555
B2 O4 1.454903 1_555
B2 O31 1.518199 1_555
B2 O28 1.518199 1_555
B3 O5 1.454903 1_555
B3 O6 1.454903 1_555
B3 O30 1.518197 1_565
B3 O29 1.518210 1_555
O0 Se3 1.803681 1_555
O0 Rb4 3.206605 1_556
O1 Se2 1.803689 1_554
O1 Rb5 3.206605 1_555
O2 Se1 1.803689 1_555
O2 Rb6 3.206594 1_545
O3 Se0 1.803696 1_455
O3 Rb7 3.206600 1_445
O4 Se7 1.803681 1_555
O4 Rb0 3.206605 1_554
O5 Se6 1.803689 1_556
O5 Rb1 3.206605 1_555
O6 Se5 1.803689 1_555
O6 Rb2 3.206594 1_565
O7 Se4 1.803696 1_655
O7 Rb3 3.206600 1_665
O8 Se0 1.652389 1_555
O8 Rb0 3.013839 1_555
O8 Rb7 3.067650 1_545
O8 Rb1 3.334810 1_555
O9 Se1 1.652392 1_555
O9 Rb1 3.013839 1_555
O9 Rb6 3.067643 1_545
O9 Rb0 3.334810 1_555
O10 Se2 1.652395 1_554
O10 Rb2 3.013839 1_554
O10 Rb5 3.067647 1_555
O10 Rb3 3.334827 1_554
O11 Se3 1.652413 1_555
O11 Rb3 3.013839 1_555
O11 Rb4 3.067640 1_556
O11 Rb2 3.334831 1_555
O12 Se4 1.652389 1_555
O12 Rb4 3.013839 1_555
O12 Rb3 3.067650 1_565
O12 Rb5 3.334810 1_555
O13 Se5 1.652392 1_555
O13 Rb5 3.013839 1_555
O13 Rb2 3.067643 1_565
O13 Rb4 3.334810 1_555
O14 Se6 1.652395 1_556
O14 Rb6 3.013839 1_556
O14 Rb1 3.067647 1_555
O14 Rb7 3.334827 1_556
O15 Se7 1.652413 1_555
O15 Rb7 3.013839 1_555
O15 Rb0 3.067640 1_554
O15 Rb6 3.334831 1_555
O16 Se10 1.641779 1_555
O16 Rb11 3.003055 1_545
O16 Rb9 3.275945 1_555
O16 Rb0 3.514486 1_555
O17 Se11 1.641779 1_555
O17 Rb10 3.003055 1_555
O17 Rb8 3.275945 1_655
O17 Rb1 3.514486 1_555
O18 Se10 1.641779 1_554
O18 Rb11 3.003055 1_555
O18 Rb9 3.275945 1_554
O18 Rb2 3.514473 1_554
O19 Se11 1.641779 1_555
O19 Rb10 3.003055 1_566
O19 Rb8 3.275945 1_655
O19 Rb3 3.514473 1_665
O20 Se8 1.641779 1_555
O20 Rb9 3.003055 1_565
O20 Rb11 3.275945 1_555
O20 Rb4 3.514486 1_555
O21 Se9 1.641779 1_555
O21 Rb8 3.003055 1_555
O21 Rb10 3.275945 1_455
O21 Rb5 3.514486 1_555
O22 Se8 1.641779 1_556
O22 Rb9 3.003055 1_555
O22 Rb11 3.275945 1_556
O22 Rb6 3.514473 1_556
O23 Se9 1.641779 1_555
O23 Rb8 3.003055 1_544
O23 Rb10 3.275945 1_455
O23 Rb7 3.514473 1_445
O24 Se8 1.743828 1_556
O24 Rb8 3.075386 1_555
O25 Se9 1.743825 1_555
O25 Rb9 3.075374 1_555
O26 Se8 1.743839 1_555
O26 Rb8 3.075382 1_554
O27 Se9 1.743828 1_555
O27 Rb9 3.075386 1_555
O28 Se10 1.743828 1_554
O28 Rb10 3.075386 1_555
O29 Se11 1.743825 1_555
O29 Rb11 3.075374 1_555
O30 Se10 1.743839 1_555
O30 Rb10 3.075382 1_556
O31 Se11 1.743828 1_555
O31 Rb11 3.075386 1_555
O32 Se0 1.657164 1_555
O32 Rb8 2.839449 1_655
O32 Rb1 3.112715 1_555
O32 Rb7 3.512761 1_556
O33 Se1 1.657154 1_555
O33 Rb9 2.839449 1_555
O33 Rb0 3.112715 1_555
O33 Rb6 3.512768 1_556
O34 Se2 1.657154 1_565
O34 Rb8 2.839449 1_555
O34 Rb3 3.112718 1_565
O34 Rb5 3.512767 1_555
O35 Se3 1.657151 1_555
O35 Rb9 2.839449 1_555
O35 Rb2 3.112716 1_555
O35 Rb4 3.512767 1_545
O36 Se4 1.657164 1_555
O36 Rb10 2.839449 1_455
O36 Rb5 3.112715 1_555
O36 Rb3 3.512761 1_554
O37 Se5 1.657154 1_555
O37 Rb11 2.839449 1_555
O37 Rb4 3.112715 1_555
O37 Rb2 3.512768 1_554
O38 Se6 1.657154 1_545
O38 Rb10 2.839449 1_555
O38 Rb7 3.112718 1_545
O38 Rb1 3.512767 1_555
O39 Se7 1.657151 1_555
O39 Rb11 2.839449 1_555
O39 Rb6 3.112716 1_555
O39 Rb0 3.512767 1_565
O40 Se0 1.650509 1_455
O40 Rb4 2.954252 1_556
O40 Rb7 3.093582 1_456
O41 Se1 1.650509 1_555
O41 Rb5 2.954261 1_555
O41 Rb6 3.093589 1_556
O42 Se2 1.650509 1_565
O42 Rb6 2.954252 1_556
O42 Rb5 3.093589 1_555
O43 Se3 1.650509 1_555
O43 Rb7 2.954246 1_445
O43 Rb4 3.093589 1_545
O44 Se4 1.650509 1_655
O44 Rb0 2.954252 1_554
O44 Rb3 3.093582 1_654
O45 Se5 1.650509 1_555
O45 Rb1 2.954261 1_555
O45 Rb2 3.093589 1_554
O46 Se6 1.650509 1_545
O46 Rb2 2.954252 1_554
O46 Rb1 3.093589 1_555
O47 Se7 1.650509 1_555
O47 Rb3 2.954246 1_665
O47 Rb0 3.093589 1_565
