# generated using pymatgen
data_Sb2P2C2O7
_symmetry_space_group_name_H-M   'P 1'
_cell_length_a   5.01003246
_cell_length_b   17.64930400
_cell_length_c   10.81854015
_cell_angle_alpha   90.00000000
_cell_angle_beta   94.72321432
_cell_angle_gamma   90.00000000
_symmetry_Int_Tables_number   1
_chemical_formula_structural   Sb2P2C2O7
_chemical_formula_sum   'Sb8 P8 C8 O28'
_cell_volume   953.36555523
_cell_formula_units_Z   4
loop_
 _symmetry_equiv_pos_site_id
 _symmetry_equiv_pos_as_xyz
  1  'x, y, z'
loop_
 _atom_site_type_symbol
 _atom_site_label
 _atom_site_symmetry_multiplicity
 _atom_site_fract_x
 _atom_site_fract_y
 _atom_site_fract_z
 _atom_site_occupancy
  Sb  Sb0  1  0.83642400  0.40108900  0.93757500  1
  Sb  Sb1  1  0.16357600  0.90108900  0.56242500  1
  Sb  Sb2  1  0.16357600  0.59891100  0.06242500  1
  Sb  Sb3  1  0.83642400  0.09891100  0.43757500  1
  Sb  Sb4  1  0.89692100  0.18516800  0.15207100  1
  Sb  Sb5  1  0.10307900  0.68516800  0.34792900  1
  Sb  Sb6  1  0.10307900  0.81483200  0.84792900  1
  Sb  Sb7  1  0.89692100  0.31483200  0.65207100  1
  P  P0  1  0.37744000  0.32459800  0.14122300  1
  P  P1  1  0.62256000  0.82459800  0.35877700  1
  P  P2  1  0.62256000  0.67540200  0.85877700  1
  P  P3  1  0.37744000  0.17540200  0.64122300  1
  P  P4  1  0.28052000  0.04020800  0.23526200  1
  P  P5  1  0.71948000  0.54020800  0.26473800  1
  P  P6  1  0.71948000  0.95979200  0.76473800  1
  P  P7  1  0.28052000  0.45979200  0.73526200  1
  C  C0  1  0.49347600  0.38881400  0.25981900  1
  C  C1  1  0.50652400  0.88881400  0.24018100  1
  C  C2  1  0.50652400  0.61118600  0.74018100  1
  C  C3  1  0.49347600  0.11118600  0.75981900  1
  C  C4  1  0.38680200  0.94690900  0.20676800  1
  C  C5  1  0.61319800  0.44690800  0.29323200  1
  C  C6  1  0.61319800  0.05309100  0.79323200  1
  C  C7  1  0.38680200  0.55309100  0.70676800  1
  O  O0  1  0.23189300  0.25495200  0.19060300  1
  O  O1  1  0.76810700  0.75495200  0.30939700  1
  O  O2  1  0.76810700  0.74504800  0.80939700  1
  O  O3  1  0.23189300  0.24504800  0.69060300  1
  O  O4  1  0.19883100  0.37381600  0.05292100  1
  O  O5  1  0.80116900  0.87381600  0.44707900  1
  O  O6  1  0.80116900  0.62618400  0.94707900  1
  O  O7  1  0.19883100  0.12618400  0.55292100  1
  O  O8  1  0.63800300  0.30006000  0.08705600  1
  O  O9  1  0.36199700  0.80006000  0.41294300  1
  O  O10  1  0.36199700  0.69994000  0.91294300  1
  O  O11  1  0.63800300  0.19994000  0.58705700  1
  O  O12  1  0.11305700  0.02930900  0.34872900  1
  O  O13  1  0.88694300  0.52930900  0.15127100  1
  O  O14  1  0.88694300  0.97069100  0.65127100  1
  O  O15  1  0.11305700  0.47069100  0.84872900  1
  O  O16  1  0.11123000  0.07837500  0.12729100  1
  O  O17  1  0.88877000  0.57837500  0.37270900  1
  O  O18  1  0.88877000  0.92162500  0.87270900  1
  O  O19  1  0.11123000  0.42162500  0.62729100  1
  O  O20  1  0.54247500  0.08408300  0.26436900  1
  O  O21  1  0.45752500  0.58408300  0.23563100  1
  O  O22  1  0.45752500  0.91591700  0.73563100  1
  O  O23  1  0.54247500  0.41591700  0.76436900  1
  O  O24  1  0.91190000  0.31270200  0.83457000  1
  O  O25  1  0.08810000  0.81270200  0.66543000  1
  O  O26  1  0.08810000  0.68729800  0.16543000  1
  O  O27  1  0.91190000  0.18729800  0.33457000  1
loop_
_geom_bond_atom_site_label_1
_geom_bond_atom_site_label_2
_geom_bond_distance
_geom_bond_site_symmetry_2
C0 C5 1.227197 1_555
C0 P0 1.773648 1_555
C1 C4 1.227212 1_555
C1 P1 1.773648 1_555
C2 C7 1.227212 1_555
C2 P2 1.773648 1_555
C3 C6 1.227212 1_555
C3 P3 1.773648 1_555
C4 P4 1.765527 1_565
C5 P5 1.765544 1_555
C6 P6 1.765527 1_545
C7 P7 1.765527 1_555
O0 P0 1.546677 1_555
O0 Sb4 2.095691 1_455
O1 P1 1.546677 1_555
O1 Sb5 2.095691 1_655
O2 P2 1.546677 1_555
O2 Sb6 2.095691 1_655
O3 P3 1.546677 1_555
O3 Sb7 2.095691 1_455
O4 P0 1.525492 1_555
O4 Sb0 2.170811 1_454
O5 P1 1.525492 1_555
O5 Sb1 2.170811 1_655
O6 P2 1.525492 1_555
O6 Sb2 2.170811 1_656
O7 P3 1.525492 1_555
O7 Sb3 2.170811 1_455
O8 P0 1.536584 1_555
O8 Sb4 2.477698 1_555
O8 Sb0 2.654735 1_554
O9 P1 1.536579 1_555
O9 Sb5 2.477696 1_555
O9 Sb1 2.654742 1_555
O10 P2 1.536579 1_555
O10 Sb6 2.477696 1_555
O10 Sb2 2.654742 1_556
O11 P3 1.536579 1_555
O11 Sb7 2.477696 1_555
O11 Sb3 2.654742 1_555
O12 P4 1.554798 1_555
O12 Sb3 2.138486 1_455
O13 P5 1.554798 1_555
O13 Sb2 2.138486 1_655
O14 P6 1.554798 1_555
O14 Sb1 2.138486 1_655
O15 P7 1.554798 1_555
O15 Sb0 2.138486 1_455
O16 P4 1.540908 1_555
O16 Sb4 2.196508 1_455
O17 P5 1.540908 1_555
O17 Sb5 2.196508 1_655
O18 P6 1.540908 1_555
O18 Sb6 2.196508 1_655
O19 P7 1.540908 1_555
O19 Sb7 2.196508 1_455
O20 P4 1.533995 1_555
O20 Sb3 2.300895 1_555
O21 P5 1.533995 1_555
O21 Sb2 2.300895 1_555
O22 P6 1.533995 1_555
O22 Sb1 2.300895 1_555
O23 P7 1.533995 1_555
O23 Sb0 2.300895 1_555
O24 Sb7 1.969973 1_555
O24 Sb0 1.971723 1_555
O25 Sb6 1.969973 1_555
O25 Sb1 1.971723 1_555
O26 Sb5 1.969973 1_555
O26 Sb2 1.971723 1_555
O27 Sb4 1.969973 1_555
O27 Sb3 1.971723 1_555
