# generated using pymatgen
data_Nb(Cu3O4)2
_symmetry_space_group_name_H-M   'P 1'
_cell_length_a   6.57164112
_cell_length_b   6.57164112
_cell_length_c   6.57164112
_cell_angle_alpha   60.00000000
_cell_angle_beta   60.00000000
_cell_angle_gamma   60.00000000
_symmetry_Int_Tables_number   1
_chemical_formula_structural   Nb(Cu3O4)2
_chemical_formula_sum   'Nb1 Cu6 O8'
_cell_volume   200.68112064
_cell_formula_units_Z   1
loop_
 _symmetry_equiv_pos_site_id
 _symmetry_equiv_pos_as_xyz
  1  'x, y, z'
loop_
 _atom_site_type_symbol
 _atom_site_label
 _atom_site_symmetry_multiplicity
 _atom_site_fract_x
 _atom_site_fract_y
 _atom_site_fract_z
 _atom_site_occupancy
  Nb  Nb0  1  0.00000000  0.00000000  0.00000000  1
  Cu  Cu0  1  0.00000000  0.50000000  0.00000000  1
  Cu  Cu1  1  0.00000000  0.50000000  0.50000000  1
  Cu  Cu2  1  0.50000000  0.50000000  0.00000000  1
  Cu  Cu3  1  0.50000000  0.00000000  0.50000000  1
  Cu  Cu4  1  0.50000000  0.00000000  0.00000000  1
  Cu  Cu5  1  0.00000000  0.00000000  0.50000000  1
  O  O0  1  0.86457300  0.86457300  0.86457300  1
  O  O1  1  0.40628200  0.86457300  0.86457300  1
  O  O2  1  0.86457300  0.86457300  0.40628200  1
  O  O3  1  0.59371800  0.13542700  0.13542700  1
  O  O4  1  0.86457300  0.40628200  0.86457300  1
  O  O5  1  0.13542700  0.59371800  0.13542700  1
  O  O6  1  0.13542700  0.13542700  0.13542700  1
  O  O7  1  0.13542700  0.13542700  0.59371800  1
loop_
_geom_bond_atom_site_label_1
_geom_bond_atom_site_label_2
_geom_bond_distance
_geom_bond_site_symmetry_2
Nb0 O6 2.179991 1_555
Nb0 O0 2.179991 1_444
Nb0 O3 2.179996 1_455
Nb0 O1 2.179996 1_544
Nb0 O2 2.179996 1_445
Nb0 O4 2.179996 1_454
Nb0 O7 2.179996 1_554
Nb0 O5 2.179996 1_545
Cu0 O5 1.962583 1_555
Cu0 O4 1.962583 1_454
Cu0 O0 1.962588 1_454
Cu0 O6 1.962588 1_555
Cu1 O4 1.962588 1_455
Cu1 O2 1.962588 1_455
Cu1 O7 1.962588 1_555
Cu1 O5 1.962588 1_555
Cu2 O1 1.962588 1_554
Cu2 O4 1.962588 1_554
Cu2 O5 1.962588 1_555
Cu2 O3 1.962588 1_555
Cu3 O1 1.962588 1_545
Cu3 O2 1.962588 1_545
Cu3 O7 1.962588 1_555
Cu3 O3 1.962588 1_555
Cu4 O3 1.962583 1_555
Cu4 O1 1.962583 1_544
Cu4 O0 1.962588 1_544
Cu4 O6 1.962588 1_555
Cu5 O7 1.962583 1_555
Cu5 O2 1.962583 1_445
Cu5 O0 1.962588 1_445
Cu5 O6 1.962588 1_555
