# generated using pymatgen
data_MoW3(Se3S)2
_symmetry_space_group_name_H-M   'P 1'
_cell_length_a   3.28924635
_cell_length_b   3.28924635
_cell_length_c   37.43666600
_cell_angle_alpha   90.00000000
_cell_angle_beta   90.00000000
_cell_angle_gamma   120.00000705
_symmetry_Int_Tables_number   1
_chemical_formula_structural   MoW3(Se3S)2
_chemical_formula_sum   'Mo1 W3 Se6 S2'
_cell_volume   350.76848632
_cell_formula_units_Z   1
loop_
 _symmetry_equiv_pos_site_id
 _symmetry_equiv_pos_as_xyz
  1  'x, y, z'
loop_
 _atom_site_type_symbol
 _atom_site_label
 _atom_site_symmetry_multiplicity
 _atom_site_fract_x
 _atom_site_fract_y
 _atom_site_fract_z
 _atom_site_occupancy
  Mo  Mo0  1  0.00000000  0.00000000  0.09392700  1
  W  W0  1  0.00000000  0.00000000  0.46964500  1
  W  W1  1  0.33333300  0.66666700  0.28178400  1
  W  W2  1  0.33333300  0.66666700  0.65755300  1
  Se  Se0  1  0.00000000  0.00000000  0.32710800  1
  Se  Se1  1  0.00000000  0.00000000  0.70287900  1
  Se  Se2  1  0.33333300  0.66666700  0.42433900  1
  Se  Se3  1  0.33333300  0.66666700  0.51498000  1
  Se  Se4  1  0.00000000  0.00000000  0.23646900  1
  Se  Se5  1  0.00000000  0.00000000  0.61221000  1
  S  S0  1  0.33333300  0.66666700  0.05300300  1
  S  S1  1  0.33333300  0.66666700  0.13485000  1
loop_
_geom_bond_atom_site_label_1
_geom_bond_atom_site_label_2
_geom_bond_distance
_geom_bond_site_symmetry_2
Mo0 S1 2.439972 1_545
Mo0 S1 2.439974 1_555
Mo0 S1 2.439974 1_445
Mo0 S0 2.439995 1_545
Mo0 S0 2.439997 1_555
Mo0 S0 2.439997 1_445
Se0 W1 2.546652 1_545
Se0 W1 2.546654 1_445
Se0 W1 2.546654 1_555
Se1 W2 2.546701 1_545
Se1 W2 2.546703 1_555
Se1 W2 2.546703 1_445
Se2 W0 2.546203 1_565
Se2 W0 2.546205 1_555
Se2 W0 2.546205 1_665
Se3 W0 2.546926 1_565
Se3 W0 2.546928 1_555
Se3 W0 2.546928 1_665
Se4 W1 2.546427 1_545
Se4 W1 2.546429 1_445
Se4 W1 2.546429 1_555
Se5 W2 2.547126 1_545
Se5 W2 2.547127 1_445
Se5 W2 2.547127 1_555
