# generated using pymatgen
data_Li7Mn2(CoO4)3
_symmetry_space_group_name_H-M   'P 1'
_cell_length_a   2.89851500
_cell_length_b   5.92577226
_cell_length_c   12.89534932
_cell_angle_alpha   76.86225111
_cell_angle_beta   89.01541056
_cell_angle_gamma   88.14893193
_symmetry_Int_Tables_number   1
_chemical_formula_structural   Li7Mn2(CoO4)3
_chemical_formula_sum   'Li7 Mn2 Co3 O12'
_cell_volume   215.56898966
_cell_formula_units_Z   1
loop_
 _symmetry_equiv_pos_site_id
 _symmetry_equiv_pos_as_xyz
  1  'x, y, z'
loop_
 _atom_site_type_symbol
 _atom_site_label
 _atom_site_symmetry_multiplicity
 _atom_site_fract_x
 _atom_site_fract_y
 _atom_site_fract_z
 _atom_site_occupancy
  Li  Li0  1  0.99841700  0.17880100  0.65448000  1
  Li  Li1  1  0.50000000  0.00000000  0.50000000  1
  Li  Li2  1  0.50242200  0.33375100  0.83359800  1
  Li  Li3  1  0.00000000  0.50000000  0.00000000  1
  Li  Li4  1  0.49757800  0.66624900  0.16640200  1
  Li  Li5  1  0.00158300  0.82119900  0.34552000  1
  Li  Li6  1  0.50000000  0.50000000  0.50000000  1
  Mn  Mn0  1  0.99523300  0.66657800  0.65815900  1
  Mn  Mn1  1  0.00476700  0.33342200  0.34184100  1
  Co  Co0  1  0.50968600  0.16787900  0.16711800  1
  Co  Co1  1  0.00000000  0.00000000  0.00000000  1
  Co  Co2  1  0.49031400  0.83212100  0.83288200  1
  O  O0  1  0.48165100  0.88817600  0.66868900  1
  O  O1  1  0.00290000  0.74440900  0.51403200  1
  O  O2  1  0.01642800  0.06632700  0.83455000  1
  O  O3  1  0.51647800  0.23427900  0.00186200  1
  O  O4  1  0.02403800  0.39663600  0.17363400  1
  O  O5  1  0.49214400  0.55482200  0.33209900  1
  O  O6  1  0.50785600  0.44517800  0.66790100  1
  O  O7  1  0.99710000  0.25559100  0.48596800  1
  O  O8  1  0.97596200  0.60336400  0.82636600  1
  O  O9  1  0.48352200  0.76572100  0.99813800  1
  O  O10  1  0.98357200  0.93367300  0.16545000  1
  O  O11  1  0.51834900  0.11182400  0.33131100  1
loop_
_geom_bond_atom_site_label_1
_geom_bond_atom_site_label_2
_geom_bond_distance
_geom_bond_site_symmetry_2
Li0 O7 2.116547 1_555
Li0 O6 2.124643 1_555
Li0 O0 2.161217 1_645
Li0 O6 2.232829 1_655
Li0 O2 2.266563 1_655
Li0 O0 2.292772 1_545
Li1 O1 2.047758 1_645
Li1 O7 2.047758 1_455
Li1 O7 2.100040 1_555
Li1 O1 2.100040 1_545
Li1 O0 2.125302 1_545
Li1 O11 2.125302 1_555
Li2 O6 2.088053 1_555
Li2 O3 2.115966 1_556
Li2 O8 2.124782 1_555
Li2 O2 2.137833 1_655
Li2 O2 2.151861 1_555
Li2 O8 2.160884 1_455
Li3 O9 2.133724 1_454
Li3 O3 2.133724 1_555
Li3 O9 2.137373 1_554
Li3 O3 2.137373 1_455
Li3 O8 2.184634 1_454
Li3 O4 2.184634 1_555
Li4 O5 2.088053 1_555
Li4 O9 2.115966 1_554
Li4 O4 2.124782 1_555
Li4 O10 2.137833 1_455
Li4 O10 2.151861 1_555
Li4 O4 2.160884 1_655
Li5 O1 2.116547 1_555
Li5 O5 2.124643 1_555
Li5 O11 2.161217 1_465
Li5 O5 2.232829 1_455
Li5 O10 2.266563 1_455
Li5 O11 2.292772 1_565
Li6 O7 2.044936 1_555
Li6 O1 2.044936 1_555
Li6 O6 2.115506 1_555
Li6 O5 2.115506 1_555
Li6 O7 2.125962 1_455
Li6 O1 2.125962 1_655
Mn0 O1 1.810265 1_655
Mn0 O6 1.936576 1_655
Mn0 O6 1.942005 1_555
Mn0 O0 1.976513 1_555
Mn0 O0 1.984390 1_655
Mn0 O8 2.115705 1_555
Mn1 O7 1.810265 1_455
Mn1 O5 1.936576 1_455
Mn1 O5 1.942005 1_555
Mn1 O11 1.976513 1_555
Mn1 O11 1.984390 1_455
Mn1 O4 2.115705 1_555
Co0 O10 1.924234 1_545
Co0 O4 1.936633 1_555
Co0 O4 2.062500 1_655
Co0 O11 2.067755 1_555
Co0 O3 2.077114 1_555
Co0 O10 2.098449 1_445
Co1 O3 1.944325 1_455
Co1 O9 1.944325 1_544
Co1 O3 2.078372 1_555
Co1 O9 2.078372 1_444
Co1 O2 2.079721 1_554
Co1 O10 2.079721 1_445
Co2 O2 1.924234 1_565
Co2 O8 1.936633 1_555
Co2 O8 2.062500 1_455
Co2 O0 2.067755 1_555
Co2 O9 2.077114 1_555
Co2 O2 2.098449 1_665
