# generated using pymatgen
data_LiCe(MoO4)2
_symmetry_space_group_name_H-M   'P 1'
_cell_length_a   6.85577697
_cell_length_b   6.85577697
_cell_length_c   6.85577697
_cell_angle_alpha   134.42346877
_cell_angle_beta   134.42346877
_cell_angle_gamma   66.42733083
_symmetry_Int_Tables_number   1
_chemical_formula_structural   LiCe(MoO4)2
_chemical_formula_sum   'Li1 Ce1 Mo2 O8'
_cell_volume   161.77836010
_cell_formula_units_Z   1
loop_
 _symmetry_equiv_pos_site_id
 _symmetry_equiv_pos_as_xyz
  1  'x, y, z'
loop_
 _atom_site_type_symbol
 _atom_site_label
 _atom_site_symmetry_multiplicity
 _atom_site_fract_x
 _atom_site_fract_y
 _atom_site_fract_z
 _atom_site_occupancy
  Li  Li0  1  0.75000000  0.25000000  0.50000000  1
  Ce  Ce0  1  0.50000000  0.50000000  0.00000000  1
  Mo  Mo0  1  0.25000000  0.75000000  0.50000000  1
  Mo  Mo1  1  0.00000000  0.00000000  0.00000000  1
  O  O0  1  0.40543300  0.51651600  0.59631100  1
  O  O1  1  0.92020600  0.80912200  0.40368900  1
  O  O2  1  0.06911400  0.16519100  0.40152900  1
  O  O3  1  0.76366200  0.66758500  0.59847100  1
  O  O4  1  0.83480900  0.23633800  0.90392300  1
  O  O5  1  0.33241500  0.93088600  0.09607700  1
  O  O6  1  0.19087800  0.59456700  0.11108400  1
  O  O7  1  0.48348400  0.07979400  0.88891600  1
loop_
_geom_bond_atom_site_label_1
_geom_bond_atom_site_label_2
_geom_bond_distance
_geom_bond_site_symmetry_2
Li0 O4 2.465943 1_555
Li0 O3 2.465943 1_555
Li0 O2 2.465943 1_655
Li0 O5 2.465943 1_545
Li0 O0 2.529275 1_555
Li0 O1 2.529276 1_545
Li0 O6 2.529276 1_656
Li0 O7 2.529278 1_554
Ce0 O0 2.441488 1_554
Ce0 O7 2.441491 1_554
Ce0 O6 2.441493 1_555
Ce0 O1 2.441493 1_555
Ce0 O4 2.470071 1_554
Ce0 O3 2.470071 1_555
Ce0 O5 2.470071 1_555
Ce0 O2 2.470071 1_554
Mo0 O1 1.806681 1_455
Mo0 O6 1.806681 1_555
Mo0 O7 1.806684 1_565
Mo0 O0 1.806688 1_555
Mo1 O5 1.823145 1_545
Mo1 O2 1.823145 1_555
Mo1 O3 1.823145 1_444
Mo1 O4 1.823145 1_454
