# generated using pymatgen
data_PuAsO4
_symmetry_space_group_name_H-M   'P 1'
_cell_length_a   7.21208100
_cell_length_b   6.72347200
_cell_length_c   8.30998200
_cell_angle_alpha   54.48179880
_cell_angle_beta   90.00000000
_cell_angle_gamma   90.00000000
_symmetry_Int_Tables_number   1
_chemical_formula_structural   PuAsO4
_chemical_formula_sum   'Pu4 As4 O16'
_cell_volume   327.97585406
_cell_formula_units_Z   4
loop_
 _symmetry_equiv_pos_site_id
 _symmetry_equiv_pos_as_xyz
  1  'x, y, z'
loop_
 _atom_site_type_symbol
 _atom_site_label
 _atom_site_symmetry_multiplicity
 _atom_site_fract_x
 _atom_site_fract_y
 _atom_site_fract_z
 _atom_site_occupancy
  Pu  Pu0  1  0.34374700  0.81162000  0.28542300  1
  Pu  Pu1  1  0.65625300  0.18838000  0.71457700  1
  Pu  Pu2  1  0.84374700  0.18838000  0.21457700  1
  Pu  Pu3  1  0.15625300  0.81162000  0.78542300  1
  As  As0  1  0.83572800  0.69323300  0.19626700  1
  As  As1  1  0.16427200  0.30676700  0.80373300  1
  As  As2  1  0.33572800  0.30676700  0.30373300  1
  As  As3  1  0.66427200  0.69323300  0.69626700  1
  O  O0  1  0.00402300  0.83018300  0.25083100  1
  O  O1  1  0.99597700  0.16981700  0.74916900  1
  O  O2  1  0.50402300  0.16981700  0.24916900  1
  O  O3  1  0.49597700  0.83018300  0.75083100  1
  O  O4  1  0.89317200  0.64966600  0.01661900  1
  O  O5  1  0.10682800  0.35033400  0.98338100  1
  O  O6  1  0.39317200  0.35033400  0.48338100  1
  O  O7  1  0.60682800  0.64966600  0.51661900  1
  O  O8  1  0.65594200  0.90220100  0.10574100  1
  O  O9  1  0.34405800  0.09779900  0.89425900  1
  O  O10  1  0.15594200  0.09779900  0.39425900  1
  O  O11  1  0.84405800  0.90220100  0.60574100  1
  O  O12  1  0.78259800  0.39217000  0.38082900  1
  O  O13  1  0.21740200  0.60783000  0.61917100  1
  O  O14  1  0.28259800  0.60783000  0.11917100  1
  O  O15  1  0.71740200  0.39217000  0.88082900  1
loop_
_geom_bond_atom_site_label_1
_geom_bond_atom_site_label_2
_geom_bond_distance
_geom_bond_site_symmetry_2
As0 O12 1.728935 1_555
As0 O8 1.730054 1_555
As0 O4 1.730378 1_555
As0 O0 1.735438 1_655
As1 O13 1.728935 1_555
As1 O9 1.730054 1_555
As1 O5 1.730378 1_555
As1 O1 1.735438 1_455
As2 O14 1.728935 1_555
As2 O10 1.730054 1_555
As2 O6 1.730378 1_555
As2 O2 1.735438 1_555
As3 O15 1.728935 1_555
As3 O11 1.730054 1_555
As3 O7 1.730378 1_555
As3 O3 1.735438 1_555
O0 Pu0 2.461625 1_555
O0 Pu2 2.526643 1_465
O1 Pu1 2.461625 1_555
O1 Pu3 2.526643 1_645
O2 Pu2 2.461625 1_555
O2 Pu0 2.526643 1_545
O3 Pu3 2.461625 1_555
O3 Pu1 2.526643 1_565
O4 Pu3 2.458871 1_654
O4 Pu2 2.554221 1_555
O5 Pu2 2.458871 1_456
O5 Pu3 2.554221 1_555
O6 Pu1 2.458871 1_555
O6 Pu0 2.554221 1_555
O7 Pu0 2.458871 1_555
O7 Pu1 2.554221 1_555
O8 Pu0 2.571653 1_555
O8 Pu1 2.645978 1_564
O8 Pu2 2.894268 1_565
O9 Pu1 2.571653 1_555
O9 Pu0 2.645978 1_546
O9 Pu3 2.894268 1_545
O10 Pu2 2.571653 1_455
O10 Pu3 2.645978 1_545
O10 Pu0 2.894268 1_545
O11 Pu3 2.571653 1_655
O11 Pu2 2.645978 1_565
O11 Pu1 2.894268 1_565
O12 Pu1 2.446269 1_555
O12 Pu2 2.485969 1_555
O13 Pu0 2.446269 1_555
O13 Pu3 2.485969 1_555
O14 Pu3 2.446269 1_554
O14 Pu0 2.485969 1_555
O15 Pu2 2.446269 1_556
O15 Pu1 2.485969 1_555
