# generated using pymatgen
data_NaN
_symmetry_space_group_name_H-M   'P 1'
_cell_length_a   5.89087355
_cell_length_b   6.62951497
_cell_length_c   4.81295878
_cell_angle_alpha   59.47498229
_cell_angle_beta   75.79340875
_cell_angle_gamma   44.73160896
_symmetry_Int_Tables_number   1
_chemical_formula_structural   NaN
_chemical_formula_sum   'Na4 N4'
_cell_volume   111.86851188
_cell_formula_units_Z   4
loop_
 _symmetry_equiv_pos_site_id
 _symmetry_equiv_pos_as_xyz
  1  'x, y, z'
loop_
 _atom_site_type_symbol
 _atom_site_label
 _atom_site_symmetry_multiplicity
 _atom_site_fract_x
 _atom_site_fract_y
 _atom_site_fract_z
 _atom_site_occupancy
  Na  Na0  1  0.55286100  0.94713900  0.94713900  1
  Na  Na1  1  0.94713900  0.55286100  0.55286100  1
  Na  Na2  1  0.69713900  0.30286100  0.30286100  1
  Na  Na3  1  0.30286100  0.69713900  0.69713900  1
  N  N0  1  0.37200600  0.12799400  0.37200600  1
  N  N1  1  0.12799400  0.37200600  0.12799400  1
  N  N2  1  0.87799400  0.12200600  0.87799400  1
  N  N3  1  0.12200600  0.87799400  0.12200600  1
loop_
_geom_bond_atom_site_label_1
_geom_bond_atom_site_label_2
_geom_bond_distance
_geom_bond_site_symmetry_2
N0 N1 1.287334 1_555
N0 Na1 2.521982 1_455
N0 Na0 2.521982 1_544
N0 Na0 2.548749 1_545
N0 Na1 2.548749 1_545
N0 Na3 2.751936 1_545
N0 Na2 2.751936 1_555
N1 Na1 2.521982 1_455
N1 Na0 2.521982 1_544
N1 Na0 2.548749 1_454
N1 Na1 2.548749 1_454
N1 Na3 2.751936 1_554
N1 Na2 2.751936 1_455
N2 N3 1.287334 1_646
N2 Na3 2.521982 1_645
N2 Na2 2.521982 1_556
N2 Na2 2.548749 1_555
N2 Na3 2.548749 1_555
N2 Na0 2.751936 1_545
N2 Na1 2.751936 1_555
N3 Na3 2.521982 1_554
N3 Na2 2.521982 1_465
N3 Na2 2.548749 1_555
N3 Na3 2.548749 1_555
N3 Na1 2.751936 1_455
N3 Na0 2.751936 1_554
