# generated using pymatgen
data_TiCu2Sb
_symmetry_space_group_name_H-M   'P 1'
_cell_length_a   4.49550773
_cell_length_b   4.49550773
_cell_length_c   4.49550773
_cell_angle_alpha   60.00000000
_cell_angle_beta   60.00000000
_cell_angle_gamma   60.00000000
_symmetry_Int_Tables_number   1
_chemical_formula_structural   TiCu2Sb
_chemical_formula_sum   'Ti1 Cu2 Sb1'
_cell_volume   64.24232471
_cell_formula_units_Z   1
loop_
 _symmetry_equiv_pos_site_id
 _symmetry_equiv_pos_as_xyz
  1  'x, y, z'
loop_
 _atom_site_type_symbol
 _atom_site_label
 _atom_site_symmetry_multiplicity
 _atom_site_fract_x
 _atom_site_fract_y
 _atom_site_fract_z
 _atom_site_occupancy
  Ti  Ti0  1  0.50000000  0.50000000  0.50000000  1
  Cu  Cu0  1  0.25000000  0.25000000  0.25000000  1
  Cu  Cu1  1  0.75000000  0.75000000  0.75000000  1
  Sb  Sb0  1  0.00000000  0.00000000  0.00000000  1
loop_
_geom_bond_atom_site_label_1
_geom_bond_atom_site_label_2
_geom_bond_distance
_geom_bond_site_symmetry_2
Cu0 Sb0 2.752925 1_555
Cu0 Sb0 2.752925 1_556
Cu0 Ti0 2.752925 1_555
Cu0 Ti0 2.752925 1_554
Cu0 Ti0 2.752925 1_545
Cu0 Sb0 2.752925 1_655
Cu0 Ti0 2.752925 1_455
Cu0 Sb0 2.752925 1_565
Cu1 Sb0 2.752925 1_666
Cu1 Ti0 2.752925 1_556
Cu1 Ti0 2.752925 1_555
Cu1 Sb0 2.752925 1_665
Cu1 Ti0 2.752925 1_565
Cu1 Sb0 2.752925 1_656
Cu1 Ti0 2.752925 1_655
Cu1 Sb0 2.752925 1_566
Sb0 Ti0 3.178804 1_445
Sb0 Ti0 3.178804 1_455
Sb0 Ti0 3.178804 1_544
Sb0 Ti0 3.178804 1_454
Sb0 Ti0 3.178804 1_545
Sb0 Ti0 3.178804 1_554
