# generated using pymatgen
data_LuAg(WO4)2
_symmetry_space_group_name_H-M   'P 1'
_cell_length_a   7.30273406
_cell_length_b   7.30273406
_cell_length_c   7.27179264
_cell_angle_alpha   66.04655540
_cell_angle_beta   66.04655540
_cell_angle_gamma   94.31513562
_symmetry_Int_Tables_number   1
_chemical_formula_structural   LuAg(WO4)2
_chemical_formula_sum   'Lu2 Ag2 W4 O16'
_cell_volume   310.21217540
_cell_formula_units_Z   2
loop_
 _symmetry_equiv_pos_site_id
 _symmetry_equiv_pos_as_xyz
  1  'x, y, z'
loop_
 _atom_site_type_symbol
 _atom_site_label
 _atom_site_symmetry_multiplicity
 _atom_site_fract_x
 _atom_site_fract_y
 _atom_site_fract_z
 _atom_site_occupancy
  Lu  Lu0  1  0.69860400  0.30139600  0.00000000  1
  Lu  Lu1  1  0.30139600  0.69860400  0.00000000  1
  Ag  Ag0  1  0.68251000  0.68251000  0.48006400  1
  Ag  Ag1  1  0.31749000  0.31749000  0.51993600  1
  W  W0  1  0.21149300  0.21149300  0.03286500  1
  W  W1  1  0.78850700  0.78850700  0.96713500  1
  W  W2  1  0.83398100  0.16601900  0.50000000  1
  W  W3  1  0.16601900  0.83398100  0.50000000  1
  O  O0  1  0.35794800  0.10353700  0.24389800  1
  O  O1  1  0.64205200  0.89646300  0.75610200  1
  O  O2  1  0.89646300  0.64205200  0.75610200  1
  O  O3  1  0.10353700  0.35794800  0.24389800  1
  O  O4  1  0.68636400  0.22238500  0.34444500  1
  O  O5  1  0.31363600  0.77761500  0.65555500  1
  O  O6  1  0.77761500  0.31363600  0.65555500  1
  O  O7  1  0.22238500  0.68636400  0.34444500  1
  O  O8  1  0.69974300  0.96438400  0.08184100  1
  O  O9  1  0.30025700  0.03561600  0.91815900  1
  O  O10  1  0.03561600  0.30025700  0.91815900  1
  O  O11  1  0.96438400  0.69974300  0.08184100  1
  O  O12  1  0.97752900  0.97752900  0.34235400  1
  O  O13  1  0.02247100  0.02247100  0.65764600  1
  O  O14  1  0.55340700  0.55340700  0.13469600  1
  O  O15  1  0.44659300  0.44659300  0.86530400  1
loop_
_geom_bond_atom_site_label_1
_geom_bond_atom_site_label_2
_geom_bond_distance
_geom_bond_site_symmetry_2
Lu0 O2 2.284228 1_554
Lu0 O0 2.284228 1_555
Lu0 O10 2.286723 1_654
Lu0 O8 2.286723 1_545
Lu0 O4 2.291624 1_555
Lu0 O6 2.291624 1_554
Lu0 O14 2.526795 1_555
Lu0 O15 2.526795 1_554
Lu1 O1 2.284228 1_554
Lu1 O3 2.284228 1_555
Lu1 O9 2.286723 1_564
Lu1 O11 2.286723 1_455
Lu1 O7 2.291624 1_555
Lu1 O5 2.291624 1_554
Lu1 O14 2.526795 1_555
Lu1 O15 2.526795 1_554
Ag0 O15 2.345120 1_555
Ag0 O12 2.466559 1_555
Ag0 O8 2.731968 1_555
Ag0 O11 2.731968 1_555
Ag0 O5 2.752686 1_555
Ag0 O6 2.752686 1_555
Ag1 O14 2.345120 1_555
Ag1 O13 2.466559 1_555
Ag1 O10 2.731968 1_555
Ag1 O9 2.731968 1_555
Ag1 O7 2.752686 1_555
Ag1 O4 2.752686 1_555
O0 W3 1.948412 1_545
O0 W0 2.144198 1_555
O1 W2 1.948412 1_565
O1 W1 2.144198 1_555
O2 W3 1.948412 1_655
O2 W1 2.144198 1_555
O3 W2 1.948412 1_455
O3 W0 2.144198 1_555
O4 W2 1.813811 1_555
O5 W3 1.813811 1_555
O6 W2 1.813811 1_555
O7 W3 1.813811 1_555
O8 W1 1.822564 1_554
O9 W0 1.822564 1_556
O10 W0 1.822564 1_556
O11 W1 1.822564 1_554
O12 W0 2.054155 1_665
O12 W2 2.197830 1_565
O12 W3 2.197830 1_655
O13 W1 2.054155 1_445
O13 W3 2.197830 1_545
O13 W2 2.197830 1_455
O14 W1 1.881251 1_554
O15 W0 1.881251 1_556
