# generated using pymatgen
data_Yb7Mg3Si8
_symmetry_space_group_name_H-M   'P 1'
_cell_length_a   7.10389800
_cell_length_b   7.74619100
_cell_length_c   15.07811639
_cell_angle_alpha   89.47275994
_cell_angle_beta   90.00000000
_cell_angle_gamma   90.00000000
_symmetry_Int_Tables_number   1
_chemical_formula_structural   Yb7Mg3Si8
_chemical_formula_sum   'Yb14 Mg6 Si16'
_cell_volume   829.68573235
_cell_formula_units_Z   2
loop_
 _symmetry_equiv_pos_site_id
 _symmetry_equiv_pos_as_xyz
  1  'x, y, z'
loop_
 _atom_site_type_symbol
 _atom_site_label
 _atom_site_symmetry_multiplicity
 _atom_site_fract_x
 _atom_site_fract_y
 _atom_site_fract_z
 _atom_site_occupancy
  Yb  Yb0  1  0.51373800  0.56891300  0.34216200  1
  Yb  Yb1  1  0.01373800  0.43108700  0.65783800  1
  Yb  Yb2  1  0.48519900  0.92979900  0.84847400  1
  Yb  Yb3  1  0.98519900  0.07020100  0.15152600  1
  Yb  Yb4  1  0.48622800  0.92099900  0.15106100  1
  Yb  Yb5  1  0.98622800  0.07900100  0.84893900  1
  Yb  Yb6  1  0.51708900  0.56745600  0.65274000  1
  Yb  Yb7  1  0.01708900  0.43254400  0.34726000  1
  Yb  Yb8  1  0.17554700  0.93517200  0.37622200  1
  Yb  Yb9  1  0.67554700  0.06482800  0.62377800  1
  Yb  Yb10  1  0.17474800  0.93034800  0.62620700  1
  Yb  Yb11  1  0.67474800  0.06965200  0.37379300  1
  Yb  Yb12  1  0.82990000  0.56227700  0.12266200  1
  Yb  Yb13  1  0.32990000  0.43772300  0.87733800  1
  Mg  Mg0  1  0.65173400  0.23043600  0.00032000  1
  Mg  Mg1  1  0.15173400  0.76956400  0.99968000  1
  Mg  Mg2  1  0.34757400  0.27927700  0.50345800  1
  Mg  Mg3  1  0.84757400  0.72072300  0.49654200  1
  Mg  Mg4  1  0.82149600  0.56191100  0.87799600  1
  Mg  Mg5  1  0.32149600  0.43808900  0.12200400  1
  Si  Si0  1  0.53373200  0.65883900  0.99635700  1
  Si  Si1  1  0.03373200  0.34116100  0.00364300  1
  Si  Si2  1  0.47670700  0.83160800  0.49864100  1
  Si  Si3  1  0.97670700  0.16839200  0.50135900  1
  Si  Si4  1  0.65902100  0.28081900  0.78589300  1
  Si  Si5  1  0.15902100  0.71918100  0.21410700  1
  Si  Si6  1  0.33927300  0.22672500  0.27232500  1
  Si  Si7  1  0.83927300  0.77327500  0.72767500  1
  Si  Si8  1  0.35710200  0.22189000  0.72057600  1
  Si  Si9  1  0.85710200  0.77811000  0.27942400  1
  Si  Si10  1  0.63164400  0.27326500  0.20580000  1
  Si  Si11  1  0.13164400  0.72673500  0.79420000  1
  Si  Si12  1  0.76992700  0.87343200  0.00134500  1
  Si  Si13  1  0.26992700  0.12656800  0.99865500  1
  Si  Si14  1  0.22934400  0.62250700  0.50102400  1
  Si  Si15  1  0.72934400  0.37749300  0.49897600  1
loop_
_geom_bond_atom_site_label_1
_geom_bond_atom_site_label_2
_geom_bond_distance
_geom_bond_site_symmetry_2
Mg0 Si13 2.829315 1_554
Mg0 Si1 2.846573 1_655
Mg0 Si12 2.889980 1_545
Mg0 Si10 3.122261 1_555
Mg0 Si4 3.253470 1_554
Mg1 Si12 2.829315 1_456
Mg1 Si0 2.846573 1_555
Mg1 Si13 2.889980 1_565
Mg1 Si11 3.122261 1_555
Mg1 Si5 3.253470 1_556
Mg2 Si3 2.771353 1_455
Mg2 Si14 2.788152 1_555
Mg2 Si15 2.817389 1_555
Mg3 Si2 2.771353 1_555
Mg3 Si15 2.788152 1_555
Mg3 Si14 2.817389 1_655
Mg4 Si7 2.786678 1_555
Mg4 Si0 2.819992 1_555
Mg4 Si11 2.837459 1_655
Mg4 Si4 2.838569 1_555
Mg4 Si1 2.954108 1_656
Mg4 Si12 3.082041 1_556
Mg5 Si6 2.786678 1_555
Mg5 Si1 2.819992 1_555
Mg5 Si10 2.837459 1_555
Mg5 Si5 2.838569 1_555
Mg5 Si0 2.954108 1_554
Mg5 Si13 3.082041 1_554
Si0 Si12 2.363576 1_556
Si0 Yb13 2.882275 1_555
Si0 Yb12 2.930318 1_556
Si0 Yb2 3.067596 1_555
Si0 Yb4 3.125093 1_556
Si1 Si13 2.363576 1_554
Si1 Yb12 2.882275 1_455
Si1 Yb13 2.930318 1_554
Si1 Yb3 3.067596 1_455
Si1 Yb5 3.125093 1_454
Si2 Yb8 2.932668 1_555
Si2 Yb11 2.976437 1_565
Si2 Yb9 2.980237 1_565
Si2 Yb10 2.985491 1_555
Si2 Yb6 3.095218 1_555
Si2 Yb0 3.140881 1_555
Si3 Yb9 2.932668 1_555
Si3 Yb10 2.976437 1_645
Si3 Yb8 2.980237 1_645
Si3 Yb11 2.985491 1_555
Si3 Yb7 3.095218 1_655
Si3 Yb1 3.140881 1_655
Si4 Si8 2.405569 1_555
Si4 Yb5 2.953529 1_555
Si4 Yb9 2.977142 1_555
Si4 Yb13 2.979201 1_555
Si4 Yb2 3.124302 1_545
Si4 Yb6 3.145687 1_555
Si4 Yb1 3.375115 1_655
Si5 Si9 2.405569 1_455
Si5 Yb4 2.953529 1_555
Si5 Yb8 2.977142 1_555
Si5 Yb12 2.979201 1_455
Si5 Yb3 3.124302 1_465
Si5 Yb7 3.145687 1_555
Si5 Yb0 3.375115 1_555
Si6 Yb8 2.973601 1_545
Si6 Yb7 3.014970 1_555
Si6 Yb11 3.076756 1_555
Si6 Yb0 3.118049 1_555
Si6 Yb4 3.181371 1_545
Si6 Yb3 3.339918 1_455
Si7 Yb9 2.973601 1_565
Si7 Yb6 3.014970 1_555
Si7 Yb10 3.076756 1_655
Si7 Yb1 3.118049 1_655
Si7 Yb5 3.181371 1_565
Si7 Yb2 3.339918 1_555
Si8 Yb13 2.914143 1_555
Si8 Yb9 2.959841 1_555
Si8 Yb10 2.976916 1_545
Si8 Yb1 3.072851 1_555
Si8 Yb6 3.074554 1_555
Si8 Yb2 3.096137 1_545
Si8 Yb5 3.445739 1_455
Si9 Yb12 2.914143 1_555
Si9 Yb8 2.959841 1_655
Si9 Yb11 2.976916 1_565
Si9 Yb0 3.072851 1_555
Si9 Yb7 3.074554 1_655
Si9 Yb3 3.096137 1_565
Si9 Yb4 3.445739 1_555
Si10 Si6 2.333085 1_555
Si10 Yb12 2.918100 1_555
Si10 Yb11 2.987316 1_555
Si10 Yb4 3.039031 1_545
Si10 Yb3 3.078288 1_555
Si10 Yb0 3.203195 1_555
Si11 Si7 2.333085 1_455
Si11 Yb13 2.918100 1_555
Si11 Yb10 2.987316 1_555
Si11 Yb5 3.039031 1_465
Si11 Yb2 3.078288 1_555
Si11 Yb1 3.203195 1_555
Si12 Yb12 3.042342 1_555
Si12 Yb4 3.051032 1_555
Si12 Yb2 3.094577 1_554
Si12 Yb3 3.138969 1_565
Si12 Yb5 3.179651 1_564
Si13 Yb13 3.042342 1_555
Si13 Yb5 3.051032 1_455
Si13 Yb3 3.094577 1_456
Si13 Yb2 3.138969 1_545
Si13 Yb4 3.179651 1_546
Si14 Si2 2.389909 1_555
Si14 Yb8 3.077202 1_555
Si14 Yb10 3.079334 1_555
Si14 Yb6 3.094408 1_555
Si14 Yb7 3.142762 1_555
Si14 Yb0 3.163849 1_555
Si14 Yb1 3.173437 1_555
Si15 Si3 2.389909 1_555
Si15 Yb9 3.077202 1_555
Si15 Yb11 3.079334 1_555
Si15 Yb7 3.094408 1_655
Si15 Yb6 3.142762 1_555
Si15 Yb1 3.163849 1_655
Si15 Yb0 3.173437 1_555
