# generated using pymatgen
data_K3ZrC3O13
_symmetry_space_group_name_H-M   'P 1'
_cell_length_a   11.51929700
_cell_length_b   6.89332500
_cell_length_c   17.51653751
_cell_angle_alpha   71.51728620
_cell_angle_beta   90.00000000
_cell_angle_gamma   90.00000000
_symmetry_Int_Tables_number   1
_chemical_formula_structural   K3ZrC3O13
_chemical_formula_sum   'K12 Zr4 C12 O52'
_cell_volume   1319.17799037
_cell_formula_units_Z   4
loop_
 _symmetry_equiv_pos_site_id
 _symmetry_equiv_pos_as_xyz
  1  'x, y, z'
loop_
 _atom_site_type_symbol
 _atom_site_label
 _atom_site_symmetry_multiplicity
 _atom_site_fract_x
 _atom_site_fract_y
 _atom_site_fract_z
 _atom_site_occupancy
  K  K0  1  0.36964200  0.36815000  0.89467800  1
  K  K1  1  0.86964200  0.63185000  0.60532200  1
  K  K2  1  0.63035800  0.63185000  0.10532200  1
  K  K3  1  0.13035800  0.36815000  0.39467800  1
  K  K4  1  0.15955000  0.94752000  0.62645000  1
  K  K5  1  0.65955000  0.05248000  0.87355000  1
  K  K6  1  0.84045000  0.05248000  0.37355000  1
  K  K7  1  0.34045000  0.94752000  0.12645000  1
  K  K8  1  0.01808100  0.11982200  0.81901600  1
  K  K9  1  0.51808100  0.88017800  0.68098400  1
  K  K10  1  0.98191900  0.88017800  0.18098400  1
  K  K11  1  0.48191900  0.11982200  0.31901600  1
  Zr  Zr0  1  0.36145900  0.53849100  0.56518700  1
  Zr  Zr1  1  0.86145900  0.46150900  0.93481300  1
  Zr  Zr2  1  0.63854100  0.46150900  0.43481300  1
  Zr  Zr3  1  0.13854100  0.53849100  0.06518700  1
  C  C0  1  0.42838800  0.31227700  0.71187700  1
  C  C1  1  0.92838800  0.68772300  0.78812300  1
  C  C2  1  0.57161200  0.68772300  0.28812300  1
  C  C3  1  0.07161200  0.31227700  0.21187700  1
  C  C4  1  0.14060000  0.42036400  0.59917900  1
  C  C5  1  0.64060000  0.57963600  0.90082100  1
  C  C6  1  0.85940000  0.57963600  0.40082100  1
  C  C7  1  0.35940000  0.42036400  0.09917900  1
  C  C8  1  0.16972200  0.92690900  0.98115700  1
  C  C9  1  0.66972200  0.07309100  0.51884300  1
  C  C10  1  0.83027800  0.07309100  0.01884300  1
  C  C11  1  0.33027800  0.92690900  0.48115700  1
  O  O0  1  0.03516700  0.42796600  0.98340700  1
  O  O1  1  0.53516700  0.57203400  0.51659300  1
  O  O2  1  0.96483300  0.57203400  0.01659300  1
  O  O3  1  0.46483300  0.42796600  0.48340700  1
  O  O4  1  0.46367200  0.20537100  0.77993200  1
  O  O5  1  0.96367200  0.79462900  0.72006800  1
  O  O6  1  0.53632800  0.79462900  0.22006800  1
  O  O7  1  0.03632800  0.20537100  0.27993200  1
  O  O8  1  0.42822400  0.51590400  0.68629400  1
  O  O9  1  0.92822400  0.48409600  0.81370600  1
  O  O10  1  0.57177600  0.48409600  0.31370600  1
  O  O11  1  0.07177600  0.51590400  0.18629400  1
  O  O12  1  0.38790900  0.23349300  0.65714800  1
  O  O13  1  0.88790900  0.76650700  0.84285200  1
  O  O14  1  0.61209100  0.76650700  0.34285200  1
  O  O15  1  0.11209100  0.23349300  0.15714800  1
  O  O16  1  0.18952600  0.55642600  0.62624600  1
  O  O17  1  0.68952600  0.44357400  0.87375400  1
  O  O18  1  0.81047400  0.44357400  0.37375400  1
  O  O19  1  0.31047400  0.55642600  0.12624600  1
  O  O20  1  0.20051300  0.36970400  0.54442400  1
  O  O21  1  0.70051300  0.63029600  0.95557600  1
  O  O22  1  0.79948700  0.63029600  0.45557600  1
  O  O23  1  0.29948700  0.36970400  0.04442400  1
  O  O24  1  0.04466100  0.33465100  0.62761700  1
  O  O25  1  0.54466100  0.66534900  0.87238300  1
  O  O26  1  0.95533900  0.66534900  0.37238300  1
  O  O27  1  0.45533900  0.33465100  0.12761700  1
  O  O28  1  0.17985300  0.11006400  0.93919200  1
  O  O29  1  0.67985300  0.88993600  0.56080800  1
  O  O30  1  0.82014700  0.88993600  0.06080800  1
  O  O31  1  0.32014700  0.11006400  0.43919200  1
  O  O32  1  0.36578100  0.86391700  0.55803200  1
  O  O33  1  0.86578100  0.13608300  0.94196800  1
  O  O34  1  0.63421900  0.13608300  0.44196800  1
  O  O35  1  0.13421900  0.86391700  0.05803200  1
  O  O36  1  0.19330000  0.77100800  0.95479300  1
  O  O37  1  0.69330000  0.22899200  0.54520700  1
  O  O38  1  0.80670000  0.22899200  0.04520700  1
  O  O39  1  0.30670000  0.77100800  0.45479300  1
  O  O40  1  0.22880800  0.77162300  0.79428200  1
  O  O41  1  0.72880800  0.22837700  0.70571800  1
  O  O42  1  0.77119200  0.22837700  0.20571800  1
  O  O43  1  0.27119200  0.77162300  0.29428200  1
  O  O44  1  0.18412300  0.60469200  0.79759900  1
  O  O45  1  0.68412300  0.39530800  0.70240100  1
  O  O46  1  0.81587700  0.39530800  0.20240100  1
  O  O47  1  0.31587700  0.60469200  0.29759900  1
  O  O48  1  0.50398500  0.80878500  0.97099000  1
  O  O49  1  0.00398500  0.19121500  0.52901000  1
  O  O50  1  0.49601500  0.19121500  0.02901000  1
  O  O51  1  0.99601500  0.80878500  0.47099000  1
loop_
_geom_bond_atom_site_label_1
_geom_bond_atom_site_label_2
_geom_bond_distance
_geom_bond_site_symmetry_2
K0 O50 2.706263 1_556
K0 O23 2.747964 1_556
K0 O28 2.770048 1_555
K0 O4 2.811085 1_555
K0 O25 2.811940 1_555
K0 O44 2.891252 1_555
K1 O51 2.706263 1_555
K1 O22 2.747964 1_555
K1 O29 2.770048 1_555
K1 O5 2.811085 1_555
K1 O24 2.811940 1_655
K1 O45 2.891252 1_555
K2 O48 2.706263 1_554
K2 O21 2.747964 1_554
K2 O30 2.770048 1_555
K2 O6 2.811085 1_555
K2 O27 2.811940 1_555
K2 O46 2.891252 1_555
K3 O49 2.706263 1_555
K3 O20 2.747964 1_555
K3 O31 2.770048 1_555
K3 O7 2.811085 1_555
K3 O26 2.811940 1_455
K3 O47 2.891252 1_555
K4 O49 2.669926 1_565
K4 O16 2.719087 1_555
K4 O5 2.792015 1_455
K4 O32 2.801777 1_555
K4 O20 2.847004 1_565
K4 O40 2.913628 1_555
K4 O24 2.984633 1_565
K5 O48 2.669926 1_545
K5 O17 2.719087 1_555
K5 O4 2.792015 1_555
K5 O33 2.801777 1_555
K5 O21 2.847004 1_545
K5 O41 2.913628 1_555
K5 O25 2.984633 1_545
K6 O51 2.669926 1_545
K6 O18 2.719087 1_555
K6 O7 2.792015 1_655
K6 O34 2.801777 1_555
K6 O22 2.847004 1_545
K6 O42 2.913628 1_555
K6 O26 2.984633 1_545
K7 O50 2.669926 1_565
K7 O19 2.719087 1_555
K7 O6 2.792015 1_555
K7 O35 2.801777 1_555
K7 O23 2.847004 1_565
K7 O43 2.913628 1_555
K7 O27 2.984633 1_565
K8 O9 2.690240 1_455
K8 O13 2.776650 1_445
K8 O28 2.796191 1_555
K8 O33 2.807473 1_455
K8 O24 3.221660 1_555
K9 O8 2.690240 1_555
K9 O12 2.776650 1_565
K9 O29 2.796191 1_555
K9 O32 2.807473 1_555
K9 O25 3.221660 1_555
K10 O11 2.690240 1_655
K10 O15 2.776650 1_665
K10 O30 2.796191 1_555
K10 O35 2.807473 1_655
K10 O26 3.221660 1_555
K11 O10 2.690240 1_555
K11 O14 2.776650 1_545
K11 O31 2.796191 1_555
K11 O34 2.807473 1_555
K11 O27 3.221660 1_555
C0 O4 1.253935 1_555
C0 O12 1.327216 1_555
C0 O8 1.331270 1_555
C1 O5 1.253935 1_555
C1 O13 1.327216 1_555
C1 O9 1.331270 1_555
C2 O6 1.253935 1_555
C2 O14 1.327216 1_555
C2 O10 1.331270 1_555
C3 O7 1.253935 1_555
C3 O15 1.327216 1_555
C3 O11 1.331270 1_555
C4 O24 1.277492 1_555
C4 O16 1.305400 1_555
C4 O20 1.315499 1_555
C5 O25 1.277492 1_555
C5 O17 1.305400 1_555
C5 O21 1.315499 1_555
C6 O26 1.277492 1_555
C6 O18 1.305400 1_555
C6 O22 1.315499 1_555
C7 O27 1.277492 1_555
C7 O19 1.305400 1_555
C7 O23 1.315499 1_555
C8 O28 1.248821 1_565
C8 O36 1.325379 1_555
C8 O35 1.341030 1_556
C9 O29 1.248821 1_545
C9 O37 1.325379 1_555
C9 O34 1.341030 1_555
C10 O30 1.248821 1_545
C10 O38 1.325379 1_555
C10 O33 1.341030 1_554
C11 O31 1.248821 1_565
C11 O39 1.325379 1_555
C11 O32 1.341030 1_555
O0 O2 1.531870 1_456
O0 Zr1 2.158053 1_455
O0 Zr3 2.177732 1_556
O1 O3 1.531870 1_555
O1 Zr0 2.158053 1_555
O1 Zr2 2.177732 1_555
O2 Zr3 2.158053 1_655
O2 Zr1 2.177732 1_554
O3 Zr2 2.158053 1_555
O3 Zr0 2.177732 1_555
O8 Zr0 2.215073 1_555
O9 Zr1 2.215073 1_555
O10 Zr2 2.215073 1_555
O11 Zr3 2.215073 1_555
O12 Zr0 2.227248 1_555
O13 Zr1 2.227248 1_555
O14 Zr2 2.227248 1_555
O15 Zr3 2.227248 1_555
O16 Zr0 2.272798 1_555
O17 Zr1 2.272798 1_555
O18 Zr2 2.272798 1_555
O19 Zr3 2.272798 1_555
O20 Zr0 2.278503 1_555
O21 Zr1 2.278503 1_555
O22 Zr2 2.278503 1_555
O23 Zr3 2.278503 1_555
O32 Zr0 2.207300 1_555
O33 Zr1 2.207300 1_555
O34 Zr2 2.207300 1_555
O35 Zr3 2.207300 1_555
O36 Zr3 2.177395 1_556
O37 Zr2 2.177395 1_555
O38 Zr1 2.177395 1_554
O39 Zr0 2.177395 1_555
O40 O44 1.245020 1_555
O41 O45 1.245020 1_555
O42 O46 1.245020 1_555
O43 O47 1.245020 1_555
