# generated using pymatgen
data_Ba3Mn3N5
_symmetry_space_group_name_H-M   'P 1'
_cell_length_a   5.93427313
_cell_length_b   7.47458291
_cell_length_c   8.99719976
_cell_angle_alpha   108.21625380
_cell_angle_beta   104.01471162
_cell_angle_gamma   95.48133402
_symmetry_Int_Tables_number   1
_chemical_formula_structural   Ba3Mn3N5
_chemical_formula_sum   'Ba6 Mn6 N10'
_cell_volume   361.39373037
_cell_formula_units_Z   2
loop_
 _symmetry_equiv_pos_site_id
 _symmetry_equiv_pos_as_xyz
  1  'x, y, z'
loop_
 _atom_site_type_symbol
 _atom_site_label
 _atom_site_symmetry_multiplicity
 _atom_site_fract_x
 _atom_site_fract_y
 _atom_site_fract_z
 _atom_site_occupancy
  Ba  Ba0  1  0.80846700  0.42124900  0.61028500  1
  Ba  Ba1  1  0.19153300  0.57875100  0.38971500  1
  Ba  Ba2  1  0.65295400  0.86366700  0.87826700  1
  Ba  Ba3  1  0.34704600  0.13633300  0.12173300  1
  Ba  Ba4  1  0.65514500  0.68068000  0.21535000  1
  Ba  Ba5  1  0.34485500  0.31932000  0.78465000  1
  Mn  Mn0  1  0.91493600  0.32376100  0.97327400  1
  Mn  Mn1  1  0.08506400  0.67623900  0.02672600  1
  Mn  Mn2  1  0.67944000  0.97138600  0.57858400  1
  Mn  Mn3  1  0.32056000  0.02861400  0.42141600  1
  Mn  Mn4  1  0.07350400  0.89046900  0.71052600  1
  Mn  Mn5  1  0.92649600  0.10953100  0.28947400  1
  N  N0  1  0.91073100  0.12442300  0.78028000  1
  N  N1  1  0.08926900  0.87557700  0.21972000  1
  N  N2  1  0.78619600  0.74595100  0.54091100  1
  N  N3  1  0.21380400  0.25404900  0.45908900  1
  N  N4  1  0.78082400  0.52715600  0.93063600  1
  N  N5  1  0.21917600  0.47284400  0.06936400  1
  N  N6  1  0.36703100  0.95255100  0.60506000  1
  N  N7  1  0.63296900  0.04744900  0.39494000  1
  N  N8  1  0.14673300  0.77572800  0.87672500  1
  N  N9  1  0.85326700  0.22427200  0.12327500  1
loop_
_geom_bond_atom_site_label_1
_geom_bond_atom_site_label_2
_geom_bond_distance
_geom_bond_site_symmetry_2
Ba0 N2 2.695530 1_555
Ba0 N7 2.779796 1_555
Ba0 N4 2.790754 1_555
Ba0 N8 3.078726 1_655
Ba0 N0 3.091801 1_555
Ba0 N3 3.208501 1_655
Ba0 N3 3.411004 1_555
Ba1 N3 2.695530 1_555
Ba1 N6 2.779796 1_555
Ba1 N5 2.790754 1_555
Ba1 N9 3.078726 1_455
Ba1 N1 3.091801 1_555
Ba1 N2 3.208501 1_455
Ba1 N2 3.411004 1_555
Ba2 N9 2.818040 1_566
Ba2 N4 2.838460 1_555
Ba2 N0 2.841466 1_565
Ba2 N6 2.928972 1_555
Ba2 N8 3.008898 1_555
Ba2 N8 3.066004 1_655
Ba2 N2 3.199653 1_555
Ba3 N8 2.818040 1_544
Ba3 N5 2.838460 1_555
Ba3 N1 2.841466 1_545
Ba3 N7 2.928972 1_555
Ba3 N9 3.008898 1_555
Ba3 N9 3.066004 1_455
Ba3 N3 3.199653 1_555
Ba4 N5 2.672547 1_555
Ba4 N2 2.711719 1_555
Ba4 N7 2.747022 1_565
Ba4 N4 2.772365 1_554
Ba4 N1 2.821126 1_655
Ba5 N4 2.672547 1_555
Ba5 N3 2.711719 1_555
Ba5 N6 2.747022 1_545
Ba5 N5 2.772365 1_556
Ba5 N0 2.821126 1_455
Mn0 N9 1.822911 1_556
Mn0 N5 1.872465 1_656
Mn0 N4 1.881424 1_555
Mn0 N0 1.894759 1_555
Mn1 N8 1.822911 1_554
Mn1 N4 1.872465 1_454
Mn1 N5 1.881424 1_555
Mn1 N1 1.894759 1_555
Mn2 N2 1.818358 1_555
Mn2 N7 1.877737 1_565
Mn2 N0 1.918685 1_565
Mn2 N6 1.923171 1_555
Mn3 N3 1.818358 1_555
Mn3 N6 1.877737 1_545
Mn3 N1 1.918685 1_545
Mn3 N7 1.923171 1_555
Mn4 N8 1.928383 1_555
Mn4 N2 1.939055 1_455
Mn4 N0 2.077271 1_465
Mn4 N6 2.251949 1_555
Mn5 N9 1.928383 1_555
Mn5 N3 1.939055 1_655
Mn5 N1 2.077271 1_645
Mn5 N7 2.251949 1_555
