# generated using pymatgen
data_La7SmV8O20
_symmetry_space_group_name_H-M   'P 1'
_cell_length_a   11.12427269
_cell_length_b   11.63559620
_cell_length_c   18.00562666
_cell_angle_alpha   108.90468072
_cell_angle_beta   107.99853785
_cell_angle_gamma   90.24314524
_symmetry_Int_Tables_number   1
_chemical_formula_structural   La7SmV8O20
_chemical_formula_sum   'La28 Sm4 V32 O80'
_cell_volume   2082.83943574
_cell_formula_units_Z   4
loop_
 _symmetry_equiv_pos_site_id
 _symmetry_equiv_pos_as_xyz
  1  'x, y, z'
loop_
 _atom_site_type_symbol
 _atom_site_label
 _atom_site_symmetry_multiplicity
 _atom_site_fract_x
 _atom_site_fract_y
 _atom_site_fract_z
 _atom_site_occupancy
  La  La0  1  0.30229200  0.06188900  0.11152400  1
  La  La1  1  0.31000000  0.06355700  0.61552100  1
  La  La2  1  0.31510400  0.56106900  0.61936500  1
  La  La3  1  0.81504100  0.06157600  0.61012700  1
  La  La4  1  0.80781000  0.56408300  0.11497100  1
  La  La5  1  0.81992700  0.56164800  0.61846000  1
  La  La6  1  0.19997400  0.43829800  0.39415100  1
  La  La7  1  0.19433200  0.44027800  0.88558900  1
  La  La8  1  0.19815800  0.94098100  0.38874900  1
  La  La9  1  0.19528700  0.94250500  0.88907600  1
  La  La10  1  0.70076000  0.43811200  0.39393000  1
  La  La11  1  0.69524400  0.94022200  0.38749500  1
  La  La12  1  0.70127800  0.93715900  0.88915200  1
  La  La13  1  0.05867900  0.29883000  0.11098800  1
  La  La14  1  0.05925900  0.30150500  0.60843600  1
  La  La15  1  0.06042700  0.79897800  0.61191100  1
  La  La16  1  0.55621000  0.30381500  0.11005200  1
  La  La17  1  0.55767200  0.30436000  0.61372000  1
  La  La18  1  0.55373500  0.79829500  0.10695000  1
  La  La19  1  0.55692900  0.79853700  0.61104100  1
  La  La20  1  0.45235700  0.20264300  0.39303200  1
  La  La21  1  0.44521900  0.19629100  0.88334700  1
  La  La22  1  0.45214200  0.70064400  0.38503600  1
  La  La23  1  0.45306000  0.69122800  0.88118500  1
  La  La24  1  0.94684000  0.19788700  0.38891400  1
  La  La25  1  0.95043400  0.19540900  0.88784400  1
  La  La26  1  0.94463100  0.69901400  0.38198500  1
  La  La27  1  0.94825200  0.69905000  0.88392000  1
  Sm  Sm0  1  0.31360300  0.56464500  0.10755800  1
  Sm  Sm1  1  0.81105400  0.06357000  0.10884300  1
  Sm  Sm2  1  0.69628500  0.43939900  0.89359000  1
  Sm  Sm3  1  0.05064500  0.79750100  0.10804900  1
  V  V0  1  0.00858200  0.00007100  0.00256400  1
  V  V1  1  0.00503100  0.99572500  0.49728800  1
  V  V2  1  0.00779700  0.50130400  0.00149300  1
  V  V3  1  0.00525600  0.50301800  0.49782200  1
  V  V4  1  0.50914900  0.00214800  0.00128500  1
  V  V5  1  0.50661700  0.99789100  0.49997500  1
  V  V6  1  0.50498400  0.50008400  0.99846200  1
  V  V7  1  0.50542700  0.50387800  0.49974400  1
  V  V8  1  0.25820800  0.25390700  0.00328500  1
  V  V9  1  0.25608500  0.24911200  0.49822000  1
  V  V10  1  0.25650200  0.75248300  0.00150400  1
  V  V11  1  0.25572200  0.74999900  0.49813200  1
  V  V12  1  0.75732400  0.25178700  0.00074800  1
  V  V13  1  0.75623600  0.25007600  0.50071200  1
  V  V14  1  0.75880000  0.75164400  0.00152400  1
  V  V15  1  0.75622200  0.74953100  0.49976900  1
  V  V16  1  0.10335400  0.09493700  0.25065700  1
  V  V17  1  0.11778900  0.11173400  0.74945400  1
  V  V18  1  0.12068500  0.59499100  0.24665200  1
  V  V19  1  0.12831800  0.61302400  0.75336500  1
  V  V20  1  0.60623500  0.09934800  0.24678100  1
  V  V21  1  0.61441000  0.10073500  0.75081400  1
  V  V22  1  0.61673900  0.60577500  0.24759400  1
  V  V23  1  0.62701700  0.60156100  0.74873600  1
  V  V24  1  0.36071500  0.40511400  0.25192400  1
  V  V25  1  0.35745700  0.38415900  0.75188800  1
  V  V26  1  0.35428700  0.90038900  0.24688800  1
  V  V27  1  0.35179900  0.88449500  0.75099300  1
  V  V28  1  0.85564000  0.39896200  0.24896800  1
  V  V29  1  0.85891500  0.39605200  0.75139200  1
  V  V30  1  0.85093500  0.89482700  0.24739400  1
  V  V31  1  0.85317400  0.88804000  0.74903500  1
  O  O0  1  0.11500600  0.11500600  0.47500400  1
  O  O1  1  0.11798500  0.11728200  0.97738700  1
  O  O2  1  0.11714400  0.62077000  0.47307200  1
  O  O3  1  0.11974900  0.61282600  0.98130000  1
  O  O4  1  0.61672400  0.11243900  0.47425600  1
  O  O5  1  0.61851800  0.11282300  0.97811400  1
  O  O6  1  0.62060400  0.62181100  0.47935200  1
  O  O7  1  0.61830000  0.61442500  0.97420400  1
  O  O8  1  0.14359300  0.39479400  0.02789300  1
  O  O9  1  0.14142100  0.38734800  0.52281200  1
  O  O10  1  0.14204700  0.88488500  0.03499300  1
  O  O11  1  0.14521700  0.88271000  0.52387400  1
  O  O12  1  0.64504400  0.38974800  0.02943100  1
  O  O13  1  0.64109100  0.38768800  0.52646400  1
  O  O14  1  0.64518200  0.89496400  0.02615000  1
  O  O15  1  0.64520800  0.88203700  0.52483400  1
  O  O16  1  0.36715000  0.10858600  0.47366600  1
  O  O17  1  0.37316200  0.11211200  0.97965700  1
  O  O18  1  0.36672700  0.61841700  0.47296600  1
  O  O19  1  0.36295900  0.60916200  0.96755000  1
  O  O20  1  0.86512600  0.10758200  0.47388700  1
  O  O21  1  0.86771800  0.11077400  0.97675500  1
  O  O22  1  0.86550700  0.61703100  0.47215500  1
  O  O23  1  0.86936800  0.60646000  0.97558300  1
  O  O24  1  0.39119400  0.39660000  0.02954700  1
  O  O25  1  0.38868100  0.39093300  0.52118900  1
  O  O26  1  0.39160200  0.89685100  0.02357400  1
  O  O27  1  0.38959500  0.88483700  0.52355600  1
  O  O28  1  0.89200500  0.39519700  0.02339700  1
  O  O29  1  0.88953000  0.39135000  0.52240800  1
  O  O30  1  0.89366900  0.89642100  0.03235200  1
  O  O31  1  0.88965700  0.87998700  0.51964600  1
  O  O32  1  0.08075500  0.11115200  0.13609000  1
  O  O33  1  0.06417100  0.10543500  0.62819600  1
  O  O34  1  0.08536600  0.61124400  0.13219000  1
  O  O35  1  0.06803100  0.60751100  0.62909300  1
  O  O36  1  0.59054300  0.10986200  0.13282300  1
  O  O37  1  0.58105300  0.10976800  0.63327400  1
  O  O38  1  0.56339300  0.60957900  0.12976900  1
  O  O39  1  0.56189800  0.60800200  0.63173100  1
  O  O40  1  0.45213800  0.39527500  0.36665100  1
  O  O41  1  0.46569800  0.39026600  0.86839900  1
  O  O42  1  0.44394100  0.89223000  0.36434800  1
  O  O43  1  0.45354800  0.89370000  0.87154300  1
  O  O44  1  0.94579100  0.39107900  0.36530200  1
  O  O45  1  0.95296100  0.39194400  0.87079200  1
  O  O46  1  0.94982300  0.89270000  0.36468400  1
  O  O47  1  0.94965800  0.89583600  0.87000600  1
  O  O48  1  0.33208400  0.27610900  0.13590200  1
  O  O49  1  0.33384600  0.27301500  0.62987300  1
  O  O50  1  0.34201400  0.77551500  0.13361000  1
  O  O51  1  0.32764200  0.77197700  0.62861700  1
  O  O52  1  0.83867300  0.27462300  0.13393100  1
  O  O53  1  0.83020400  0.27729000  0.63411500  1
  O  O54  1  0.84275100  0.77468700  0.13300400  1
  O  O55  1  0.83492400  0.77258700  0.62950100  1
  O  O56  1  0.19352700  0.21991400  0.36416200  1
  O  O57  1  0.19580900  0.23016000  0.87240200  1
  O  O58  1  0.19545700  0.72650600  0.36622700  1
  O  O59  1  0.17408400  0.73291000  0.87157500  1
  O  O60  1  0.69538500  0.22172000  0.36574200  1
  O  O61  1  0.69544200  0.22846000  0.86794000  1
  O  O62  1  0.68280400  0.72760300  0.37074400  1
  O  O63  1  0.69360700  0.72659100  0.87055500  1
  O  O64  1  0.41726200  0.07627800  0.25163500  1
  O  O65  1  0.42860100  0.05657900  0.74986200  1
  O  O66  1  0.40761800  0.57601600  0.24263400  1
  O  O67  1  0.43845700  0.55079900  0.74902300  1
  O  O68  1  0.90844000  0.07221400  0.24436800  1
  O  O69  1  0.91705300  0.06849500  0.74891800  1
  O  O70  1  0.93526700  0.56286800  0.24836100  1
  O  O71  1  0.94057000  0.55832900  0.75264300  1
  O  O72  1  0.17124300  0.42174100  0.25291800  1
  O  O73  1  0.17003000  0.43059900  0.74460700  1
  O  O74  1  0.16081900  0.91854700  0.24341800  1
  O  O75  1  0.16566600  0.93431400  0.75174800  1
  O  O76  1  0.66649500  0.42633500  0.25382900  1
  O  O77  1  0.67584800  0.42448100  0.75996000  1
  O  O78  1  0.66092500  0.92693700  0.24747200  1
  O  O79  1  0.66615000  0.92658500  0.74921700  1
loop_
_geom_bond_atom_site_label_1
_geom_bond_atom_site_label_2
_geom_bond_distance
_geom_bond_site_symmetry_2
La0 O48 2.389472 1_555
La0 O64 2.399739 1_555
La0 O10 2.435175 1_545
La0 O26 2.490057 1_545
La0 O32 2.668150 1_555
La0 O1 2.900363 1_554
La0 O17 2.941519 1_554
La0 O36 3.134799 1_555
La1 O49 2.370861 1_555
La1 O65 2.398808 1_555
La1 O11 2.521713 1_545
La1 O27 2.557486 1_545
La1 O33 2.844798 1_555
La1 O37 2.960128 1_555
La1 O0 3.010962 1_555
La1 O16 3.011712 1_555
La2 O67 2.355825 1_555
La2 O51 2.405691 1_555
La2 O25 2.520715 1_555
La2 O9 2.540706 1_555
La2 O39 2.723189 1_555
La2 O35 2.850574 1_555
La3 O69 2.378166 1_555
La3 O53 2.400793 1_555
La3 O15 2.527154 1_545
La3 O31 2.535257 1_545
La3 O33 2.714790 1_655
La3 O37 2.791923 1_555
La3 O20 2.882296 1_555
La3 O4 2.969218 1_555
La4 O54 2.379036 1_555
La4 O70 2.386784 1_555
La4 O12 2.446705 1_555
La4 O28 2.515537 1_555
La4 O38 2.848246 1_555
La4 O23 2.978614 1_554
La4 O7 2.980279 1_554
La4 O34 3.035517 1_655
La5 O71 2.386841 1_555
La5 O55 2.398185 1_555
La5 O29 2.477284 1_555
La5 O13 2.560355 1_555
La5 O35 2.744749 1_655
La5 O39 2.990085 1_555
La5 O6 3.065520 1_555
La5 O22 3.087826 1_555
La6 O72 2.405369 1_555
La6 O56 2.416395 1_555
La6 O2 2.499384 1_555
La6 O18 2.502044 1_555
La6 O44 2.731522 1_455
La6 O25 2.793198 1_555
La6 O9 2.821635 1_555
La6 O40 3.012351 1_555
La7 O57 2.379185 1_555
La7 O73 2.433103 1_555
La7 O19 2.436589 1_555
La7 O3 2.518900 1_555
La7 O45 2.654224 1_455
La8 O58 2.393567 1_555
La8 O16 2.436284 1_565
La8 O74 2.443960 1_555
La8 O0 2.496745 1_565
La8 O46 2.687817 1_455
La8 O42 2.929924 1_555
La8 O11 2.945697 1_555
La8 O27 2.949323 1_555
La9 O59 2.356630 1_555
La9 O75 2.361207 1_555
La9 O1 2.483550 1_565
La9 O17 2.521278 1_565
La9 O47 2.676900 1_455
La9 O43 3.022293 1_555
La10 O76 2.389341 1_555
La10 O60 2.398465 1_555
La10 O22 2.479708 1_555
La10 O6 2.542218 1_555
La10 O40 2.670047 1_555
La10 O29 2.807220 1_555
La10 O13 2.891777 1_555
La10 O44 2.948441 1_555
La11 O78 2.382905 1_555
La11 O62 2.391303 1_555
La11 O20 2.443857 1_565
La11 O4 2.459361 1_565
La11 O42 2.723346 1_555
La11 O31 2.956968 1_555
La11 O15 2.969099 1_555
La11 O46 3.013247 1_555
La12 O63 2.360353 1_555
La12 O79 2.388841 1_555
La12 O21 2.468945 1_565
La12 O5 2.529215 1_565
La12 O43 2.700937 1_555
La12 O14 2.906660 1_556
La12 O47 2.911523 1_555
La12 O30 2.973835 1_556
La13 O32 2.368304 1_555
La13 O72 2.404795 1_555
La13 O8 2.514879 1_555
La13 O28 2.557120 1_455
La13 O52 2.633275 1_455
La13 O1 2.895535 1_554
La13 O21 2.915974 1_454
La13 O48 2.960059 1_555
La14 O73 2.348819 1_555
La14 O33 2.418540 1_555
La14 O9 2.463909 1_555
La14 O29 2.513134 1_455
La14 O53 2.755400 1_455
La14 O0 2.901650 1_555
La14 O20 2.967756 1_455
La14 O49 2.992027 1_555
La15 O35 2.344813 1_555
La15 O75 2.404868 1_555
La15 O11 2.503708 1_555
La15 O31 2.517291 1_455
La15 O55 2.652346 1_455
La15 O51 2.922664 1_555
La15 O2 2.928141 1_555
La15 O22 2.941579 1_455
La16 O76 2.422865 1_555
La16 O12 2.429449 1_555
La16 O36 2.432499 1_555
La16 O24 2.454170 1_555
La16 O48 2.710049 1_555
La16 O17 2.871875 1_554
La16 O5 2.944887 1_554
La16 O52 3.072852 1_555
La17 O37 2.404820 1_555
La17 O77 2.464870 1_555
La17 O13 2.479917 1_555
La17 O25 2.548053 1_555
La17 O49 2.631687 1_555
La17 O53 2.969921 1_555
La17 O16 2.995666 1_555
La17 O4 3.020317 1_555
La18 O38 2.358248 1_555
La18 O78 2.393837 1_555
La18 O26 2.506312 1_555
La18 O14 2.526248 1_555
La18 O50 2.573652 1_555
La18 O7 2.926835 1_554
La18 O19 2.955692 1_554
La18 O54 3.129100 1_555
La19 O39 2.362281 1_555
La19 O79 2.366542 1_555
La19 O27 2.486658 1_555
La19 O15 2.495767 1_555
La19 O51 2.693882 1_555
La19 O6 2.871118 1_555
La19 O18 2.895747 1_555
La19 O55 3.033627 1_555
La20 O64 2.398191 1_555
La20 O40 2.436942 1_555
La20 O4 2.437653 1_555
La20 O16 2.464824 1_555
La20 O56 2.783629 1_555
La20 O13 2.882439 1_555
La20 O25 2.893752 1_555
La20 O60 2.913112 1_555
La21 O65 2.375844 1_555
La21 O41 2.376051 1_555
La21 O17 2.561653 1_555
La21 O5 2.574528 1_555
La21 O57 2.759298 1_555
La21 O61 2.915622 1_555
La21 O12 3.071555 1_556
La21 O24 3.120409 1_556
La22 O42 2.373878 1_555
La22 O66 2.392115 1_555
La22 O18 2.495672 1_555
La22 O6 2.508887 1_555
La22 O62 2.683699 1_555
La22 O58 2.799011 1_555
La22 O15 2.929413 1_555
La22 O27 2.986548 1_555
La23 O67 2.366076 1_555
La23 O43 2.417821 1_555
La23 O7 2.462498 1_555
La23 O19 2.500385 1_555
La23 O63 2.779323 1_555
La23 O14 3.082281 1_556
La23 O59 3.103479 1_555
La23 O26 3.144375 1_556
La24 O44 2.418759 1_555
La24 O68 2.436392 1_555
La24 O0 2.454460 1_655
La24 O20 2.482813 1_555
La24 O60 2.726889 1_555
La24 O56 2.935793 1_655
La24 O9 2.940781 1_655
La24 O29 2.950303 1_555
La25 O69 2.367175 1_555
La25 O45 2.405052 1_555
La25 O1 2.450893 1_655
La25 O21 2.510692 1_555
La25 O61 2.791588 1_555
La25 O57 2.867774 1_655
La25 O28 3.016656 1_556
La25 O8 3.029274 1_656
La26 O46 2.375765 1_555
La26 O70 2.383919 1_555
La26 O22 2.490034 1_555
La26 O2 2.497777 1_655
La26 O62 2.884892 1_555
La26 O58 2.916994 1_655
La26 O31 2.918469 1_555
La26 O11 2.995442 1_655
La27 O71 2.375196 1_555
La27 O47 2.383206 1_555
La27 O23 2.587257 1_555
La27 O3 2.609495 1_655
La27 O59 2.628555 1_655
La27 O63 2.796681 1_555
La27 O10 3.040974 1_656
La27 O30 3.134183 1_556
O0 V9 2.055174 1_555
O0 V1 2.057609 1_545
O1 V8 2.055952 1_556
O1 V0 2.067403 1_556
O2 V11 1.987929 1_555
O2 V3 2.085419 1_555
O3 V2 1.984652 1_556
O3 V10 2.083550 1_556
O3 Sm0 2.817680 1_556
O3 Sm3 2.887421 1_556
O4 V5 2.056163 1_545
O4 V13 2.056207 1_555
O5 V4 1.990273 1_556
O5 V12 2.080327 1_556
O5 Sm1 2.867998 1_556
O6 V15 1.975824 1_555
O6 V7 2.064393 1_555
O7 V14 2.056402 1_556
O7 V6 2.062132 1_555
O7 Sm2 2.425825 1_555
O8 V2 1.999427 1_555
O8 V8 2.098924 1_555
O8 Sm0 2.448468 1_555
O9 V3 2.072880 1_555
O9 V9 2.077303 1_555
O10 V10 2.060882 1_555
O10 V0 2.080822 1_565
O10 Sm3 2.341458 1_555
O11 V11 2.003719 1_555
O11 V1 2.086691 1_555
O12 V12 2.069327 1_555
O12 V6 2.081025 1_554
O12 Sm2 2.900959 1_554
O13 V13 2.079159 1_555
O13 V7 2.080113 1_555
O14 V4 2.001237 1_565
O14 V14 2.111898 1_555
O14 Sm1 2.418496 1_565
O15 V15 2.003894 1_555
O15 V5 2.092035 1_555
O16 V5 2.061200 1_545
O16 V9 2.069254 1_555
O17 V4 2.013067 1_556
O17 V8 2.106567 1_556
O18 V11 1.996632 1_555
O18 V7 2.088874 1_555
O19 V6 2.085215 1_555
O19 V10 2.088241 1_556
O19 Sm0 2.936656 1_556
O20 V1 2.064217 1_645
O20 V13 2.075874 1_555
O21 V12 2.067008 1_556
O21 V0 2.070182 1_656
O21 Sm1 2.850515 1_556
O22 V15 1.998702 1_555
O22 V3 2.088315 1_655
O23 V2 2.006986 1_656
O23 V14 2.108592 1_556
O23 Sm2 2.453032 1_555
O23 Sm3 2.872392 1_656
O24 V8 2.051075 1_555
O24 V6 2.055981 1_554
O24 Sm0 2.350555 1_555
O25 V7 2.046233 1_555
O25 V9 2.056686 1_555
O26 V4 2.000344 1_565
O26 V10 2.101259 1_555
O27 V11 1.995589 1_555
O27 V5 2.072268 1_555
O28 V2 1.988721 1_655
O28 V12 2.087024 1_555
O28 Sm2 2.848040 1_554
O29 V3 2.062096 1_655
O29 V13 2.063646 1_555
O30 V0 2.050871 1_665
O30 V14 2.062721 1_555
O30 Sm1 2.363411 1_565
O30 Sm3 2.407197 1_655
O31 V15 1.983961 1_555
O31 V1 2.068523 1_655
O32 V16 2.070330 1_555
O32 V0 2.209103 1_555
O32 Sm1 2.906691 1_455
O33 V17 2.054070 1_555
O33 V1 2.168646 1_545
O34 V18 2.047062 1_555
O34 V2 2.168863 1_555
O34 Sm3 2.355569 1_555
O34 Sm0 2.736571 1_555
O35 V19 2.107123 1_555
O35 V3 2.159442 1_555
O36 V20 2.048697 1_555
O36 V4 2.177544 1_555
O36 Sm1 2.647440 1_555
O37 V21 2.070497 1_555
O37 V5 2.208834 1_545
O38 V22 2.034203 1_555
O38 V6 2.174140 1_554
O38 Sm0 2.705563 1_555
O39 V23 2.031848 1_555
O39 V7 2.171517 1_555
O40 V24 2.042202 1_555
O40 V7 2.201032 1_555
O41 V25 2.048787 1_555
O41 V6 2.175272 1_555
O41 Sm2 2.492565 1_555
O42 V26 2.074621 1_555
O42 V5 2.226265 1_555
O43 V27 2.081844 1_555
O43 V4 2.149986 1_566
O44 V28 2.056423 1_555
O44 V3 2.197937 1_655
O45 V29 2.096618 1_555
O45 V2 2.166879 1_656
O45 Sm2 3.035979 1_555
O46 V30 2.066199 1_555
O46 V1 2.178951 1_655
O47 V31 2.081104 1_555
O47 V0 2.178995 1_666
O48 V24 2.066769 1_555
O48 V8 2.197661 1_555
O49 V25 2.089859 1_555
O49 V9 2.179085 1_555
O50 V26 2.048367 1_555
O50 V10 2.195710 1_555
O50 Sm0 2.344371 1_555
O51 V27 2.098391 1_555
O51 V11 2.161661 1_555
O52 V28 2.057506 1_555
O52 V12 2.210005 1_555
O52 Sm1 2.349054 1_555
O53 V29 2.039420 1_555
O53 V13 2.197831 1_555
O54 V30 2.054744 1_555
O54 V14 2.183761 1_555
O54 Sm3 2.516956 1_655
O55 V31 2.081417 1_555
O55 V15 2.150124 1_555
O56 V16 2.023018 1_555
O56 V9 2.203329 1_555
O57 V17 2.092504 1_555
O57 V8 2.162728 1_556
O58 V18 2.101575 1_555
O58 V11 2.181449 1_555
O59 V19 2.033651 1_555
O59 V10 2.166325 1_556
O60 V20 2.073144 1_555
O60 V13 2.221475 1_555
O61 V21 2.061963 1_555
O61 V12 2.196900 1_556
O61 Sm2 2.345223 1_555
O62 V22 2.100871 1_555
O62 V15 2.137957 1_555
O63 V23 2.096499 1_555
O63 V14 2.160512 1_556
O64 V26 2.126974 1_545
O64 V20 2.150079 1_555
O65 V21 2.121343 1_555
O65 V27 2.182250 1_545
O66 V24 2.124901 1_555
O66 Sm0 2.290181 1_555
O66 V22 2.320424 1_555
O67 V25 2.157045 1_555
O67 V23 2.178749 1_555
O68 V16 2.146660 1_655
O68 V30 2.180711 1_545
O68 Sm1 2.311867 1_555
O69 V31 2.214688 1_545
O69 V17 2.283351 1_655
O70 V28 2.104067 1_555
O70 V18 2.106008 1_655
O71 V29 2.082333 1_555
O71 V19 2.175740 1_655
O72 V24 2.122461 1_555
O72 V18 2.123806 1_555
O73 V25 2.131407 1_555
O73 V19 2.140652 1_555
O74 V16 2.127739 1_565
O74 V26 2.147040 1_555
O74 Sm3 2.311166 1_555
O75 V17 2.144307 1_565
O75 V27 2.155468 1_555
O76 V28 2.153550 1_555
O76 V22 2.191244 1_555
O77 V29 2.108864 1_555
O77 V23 2.189241 1_555
O77 Sm2 2.293922 1_555
O78 V20 2.101571 1_565
O78 V30 2.148398 1_555
O79 V21 2.102505 1_565
O79 V31 2.130925 1_555
