# generated using pymatgen
data_SrCaLaSbO6
_symmetry_space_group_name_H-M   'P 1'
_cell_length_a   5.95516734
_cell_length_b   5.95516734
_cell_length_c   8.62647769
_cell_angle_alpha   90.00000000
_cell_angle_beta   90.00000000
_cell_angle_gamma   89.48502899
_symmetry_Int_Tables_number   1
_chemical_formula_structural   SrCaLaSbO6
_chemical_formula_sum   'Sr2 Ca2 La2 Sb2 O12'
_cell_volume   305.91720394
_cell_formula_units_Z   2
loop_
 _symmetry_equiv_pos_site_id
 _symmetry_equiv_pos_as_xyz
  1  'x, y, z'
loop_
 _atom_site_type_symbol
 _atom_site_label
 _atom_site_symmetry_multiplicity
 _atom_site_fract_x
 _atom_site_fract_y
 _atom_site_fract_z
 _atom_site_occupancy
  Sr  Sr0  1  0.00000000  -0.00000000  0.25000000  1
  Sr  Sr1  1  0.00000000  -0.00000000  0.75000000  1
  Ca  Ca0  1  0.50000000  0.50000000  0.25000000  1
  Ca  Ca1  1  0.50000000  0.50000000  0.75000000  1
  La  La0  1  0.00000000  0.50000000  -0.00000000  1
  La  La1  1  0.50000000  -0.00000000  0.50000000  1
  Sb  Sb0  1  0.00000000  0.50000000  0.50000000  1
  Sb  Sb1  1  0.50000000  -0.00000000  -0.00000000  1
  O  O0  1  0.00000000  0.50000000  0.26733581  1
  O  O1  1  0.50000000  -0.00000000  0.23266419  1
  O  O2  1  0.00000000  0.50000000  0.73266419  1
  O  O3  1  0.50000000  -0.00000000  0.76733581  1
  O  O4  1  0.35199707  0.69434121  -0.00000000  1
  O  O5  1  0.64800293  0.30565879  -0.00000000  1
  O  O6  1  0.80234611  0.84697792  -0.00000000  1
  O  O7  1  0.19765389  0.15302208  -0.00000000  1
  O  O8  1  0.84697792  0.80234611  0.50000000  1
  O  O9  1  0.15302208  0.19765389  0.50000000  1
  O  O10  1  0.30565879  0.64800293  0.50000000  1
  O  O11  1  0.69434121  0.35199707  0.50000000  1
loop_
_geom_bond_atom_site_label_1
_geom_bond_atom_site_label_2
_geom_bond_distance
_geom_bond_site_symmetry_2
Ca0 O4 2.597870 1_555
Ca0 O10 2.597870 1_555
Ca0 O11 2.597870 1_555
Ca0 O5 2.597870 1_555
Ca0 O1 2.981337 1_565
Ca0 O0 2.981337 1_555
Ca0 O0 2.981337 1_655
Ca0 O1 2.981337 1_555
Ca1 O4 2.597870 1_556
Ca1 O5 2.597870 1_556
Ca1 O10 2.597870 1_555
Ca1 O11 2.597870 1_555
Ca1 O2 2.981337 1_555
Ca1 O3 2.981337 1_555
Ca1 O3 2.981337 1_565
Ca1 O2 2.981337 1_655
La0 O2 2.306166 1_554
La0 O0 2.306166 1_555
La0 O6 2.368839 1_455
La0 O7 2.368839 1_555
La0 O5 2.403558 1_455
La0 O4 2.403558 1_555
La1 O1 2.306166 1_555
La1 O3 2.306166 1_555
La1 O9 2.368839 1_555
La1 O8 2.368839 1_545
La1 O10 2.403558 1_545
La1 O11 2.403558 1_555
O0 Sb0 2.007072 1_555
O0 Sr0 2.981337 1_555
O0 Sr0 2.981337 1_565
O1 Sb1 2.007072 1_555
O1 Sr0 2.981337 1_555
O1 Sr0 2.981337 1_655
O2 Sb0 2.007072 1_555
O2 Sr1 2.981337 1_555
O2 Sr1 2.981337 1_565
O3 Sb1 2.007072 1_556
O3 Sr1 2.981337 1_555
O3 Sr1 2.981337 1_655
O4 Sb1 2.029527 1_565
O5 Sb1 2.029527 1_555
O6 Sb1 2.010672 1_565
O6 Sr0 2.624153 1_665
O6 Sr1 2.624153 1_664
O7 Sb1 2.010672 1_555
O7 Sr0 2.624153 1_555
O7 Sr1 2.624153 1_554
O8 Sb0 2.010672 1_655
O8 Sr1 2.624153 1_665
O8 Sr0 2.624153 1_665
O9 Sb0 2.010672 1_555
O9 Sr0 2.624153 1_555
O9 Sr1 2.624153 1_555
O10 Sb0 2.029527 1_555
O11 Sb0 2.029527 1_655
