# generated using pymatgen
data_CeSi2Rh
_symmetry_space_group_name_H-M   'P 1'
_cell_length_a   8.68361625
_cell_length_b   8.68361625
_cell_length_c   4.15908800
_cell_angle_alpha   90.00000000
_cell_angle_beta   90.00000000
_cell_angle_gamma   151.99930509
_symmetry_Int_Tables_number   1
_chemical_formula_structural   CeSi2Rh
_chemical_formula_sum   'Ce2 Si4 Rh2'
_cell_volume   147.23753988
_cell_formula_units_Z   2
loop_
 _symmetry_equiv_pos_site_id
 _symmetry_equiv_pos_as_xyz
  1  'x, y, z'
loop_
 _atom_site_type_symbol
 _atom_site_label
 _atom_site_symmetry_multiplicity
 _atom_site_fract_x
 _atom_site_fract_y
 _atom_site_fract_z
 _atom_site_occupancy
  Ce  Ce0  1  0.60578100  0.39421900  0.25000000  1
  Ce  Ce1  1  0.39421900  0.60578100  0.75000000  1
  Si  Si0  1  0.96297300  0.03702700  0.25000000  1
  Si  Si1  1  0.03702700  0.96297300  0.75000000  1
  Si  Si2  1  0.25064700  0.74935300  0.25000000  1
  Si  Si3  1  0.74935300  0.25064700  0.75000000  1
  Rh  Rh0  1  0.82223500  0.17776500  0.25000000  1
  Rh  Rh1  1  0.17776500  0.82223500  0.75000000  1
loop_
_geom_bond_atom_site_label_1
_geom_bond_atom_site_label_2
_geom_bond_distance
_geom_bond_site_symmetry_2
Ce0 Si1 3.174940 1_544
Ce0 Si1 3.174940 1_545
Ce0 Si1 3.174940 1_654
Ce0 Si1 3.174940 1_655
Ce0 Si3 3.190281 1_554
Ce0 Si3 3.190281 1_555
Ce0 Si0 3.194473 1_455
Ce0 Si0 3.194473 1_565
Ce0 Rh1 3.195204 1_655
Ce0 Rh1 3.195204 1_654
Ce0 Rh1 3.195204 1_545
Ce0 Rh1 3.195204 1_544
Ce0 Si2 3.220679 1_655
Ce0 Si2 3.220679 1_545
Ce1 Si0 3.174940 1_566
Ce1 Si0 3.174940 1_456
Ce1 Si0 3.174940 1_455
Ce1 Si0 3.174940 1_565
Ce1 Si2 3.190281 1_555
Ce1 Si2 3.190281 1_556
Ce1 Si1 3.194473 1_655
Ce1 Si1 3.194473 1_545
Ce1 Rh0 3.195204 1_566
Ce1 Rh0 3.195204 1_565
Ce1 Rh0 3.195204 1_456
Ce1 Rh0 3.195204 1_455
Ce1 Si3 3.220679 1_565
Ce1 Si3 3.220679 1_455
Si0 Si1 2.425238 1_644
Si0 Si1 2.425238 1_645
Rh0 Si0 2.371622 1_555
Rh0 Si3 2.415135 1_555
Rh0 Si3 2.415135 1_554
Rh0 Si2 2.422536 1_545
Rh0 Si2 2.422536 1_655
Rh1 Si1 2.371622 1_555
Rh1 Si2 2.415135 1_556
Rh1 Si2 2.415135 1_555
Rh1 Si3 2.422536 1_455
Rh1 Si3 2.422536 1_565
