# generated using pymatgen
data_Ba2Cu4Te4Cl4O11
_symmetry_space_group_name_H-M   'P 1'
_cell_length_a   9.38941900
_cell_length_b   9.40654131
_cell_length_c   12.38219629
_cell_angle_alpha   110.91211116
_cell_angle_beta   98.36328968
_cell_angle_gamma   108.20505700
_symmetry_Int_Tables_number   1
_chemical_formula_structural   Ba2Cu4Te4Cl4O11
_chemical_formula_sum   'Ba4 Cu8 Te8 Cl8 O22'
_cell_volume   928.86706706
_cell_formula_units_Z   2
loop_
 _symmetry_equiv_pos_site_id
 _symmetry_equiv_pos_as_xyz
  1  'x, y, z'
loop_
 _atom_site_type_symbol
 _atom_site_label
 _atom_site_symmetry_multiplicity
 _atom_site_fract_x
 _atom_site_fract_y
 _atom_site_fract_z
 _atom_site_occupancy
  Ba  Ba0  1  0.96317700  0.22578900  0.55823100  1
  Ba  Ba1  1  0.53241600  0.27094900  0.44880300  1
  Ba  Ba2  1  0.03682300  0.77421100  0.44176900  1
  Ba  Ba3  1  0.46758400  0.72905100  0.55119700  1
  Cu  Cu0  1  0.67320700  0.53693000  0.01736900  1
  Cu  Cu1  1  0.32679300  0.46307000  0.98263100  1
  Cu  Cu2  1  0.64336200  0.42989000  0.67070200  1
  Cu  Cu3  1  0.78225800  0.92056100  0.98497100  1
  Cu  Cu4  1  0.21774200  0.07943900  0.01502900  1
  Cu  Cu5  1  0.85819800  0.07124400  0.32939800  1
  Cu  Cu6  1  0.14180200  0.92875600  0.67060200  1
  Cu  Cu7  1  0.35663800  0.57011000  0.32929800  1
  Te  Te0  1  0.54054800  0.98020800  0.24121300  1
  Te  Te1  1  0.98973900  0.51595800  0.73884800  1
  Te  Te2  1  0.01026100  0.48404200  0.26115200  1
  Te  Te3  1  0.45945200  0.01979200  0.75878700  1
  Te  Te4  1  0.21645300  0.26683700  0.75791300  1
  Te  Te5  1  0.78354700  0.73316300  0.24208700  1
  Te  Te6  1  0.71211600  0.78714600  0.73638500  1
  Te  Te7  1  0.28788400  0.21285400  0.26361500  1
  Cl  Cl0  1  0.91913100  0.76706100  0.91849200  1
  Cl  Cl1  1  0.08086900  0.23293900  0.08150800  1
  Cl  Cl2  1  0.23014800  0.89774300  0.14155500  1
  Cl  Cl3  1  0.28187100  0.61533500  0.84752800  1
  Cl  Cl4  1  0.76985200  0.10225700  0.85844500  1
  Cl  Cl5  1  0.71812900  0.38466500  0.15247200  1
  Cl  Cl6  1  0.44809800  0.61673100  0.08262700  1
  Cl  Cl7  1  0.55190200  0.38326900  0.91737300  1
  O  O0  1  0.71088300  0.88779200  0.16187000  1
  O  O1  1  0.44106800  0.40827800  0.64643700  1
  O  O2  1  0.86617900  0.27310200  0.36247400  1
  O  O3  1  0.15114400  0.43753300  0.65503700  1
  O  O4  1  0.84885600  0.56246700  0.34496300  1
  O  O5  1  0.69476000  0.66061500  0.63446700  1
  O  O6  1  0.55893200  0.59172200  0.35356300  1
  O  O7  1  0.13382100  0.72689800  0.63752600  1
  O  O8  1  0.62597100  0.02857400  0.35290800  1
  O  O9  1  0.81586800  0.84586700  0.34987100  1
  O  O10  1  0.65370100  0.93528300  0.65459200  1
  O  O11  1  0.05455300  0.08983700  0.36225100  1
  O  O12  1  0.28911700  0.11220800  0.83813000  1
  O  O13  1  0.94544700  0.91016300  0.63774900  1
  O  O14  1  0.37402900  0.97142600  0.64709200  1
  O  O15  1  0.18413200  0.15413300  0.65012900  1
  O  O16  1  0.34629900  0.06471700  0.34540800  1
  O  O17  1  0.37292700  0.77874800  0.34992800  1
  O  O18  1  0.12038400  0.52520100  0.35973600  1
  O  O19  1  0.30524000  0.33938500  0.36553300  1
  O  O20  1  0.87961600  0.47479900  0.64026400  1
  O  O21  1  0.62707300  0.22125200  0.65007200  1
loop_
_geom_bond_atom_site_label_1
_geom_bond_atom_site_label_2
_geom_bond_distance
_geom_bond_site_symmetry_2
Ba0 O3 2.000655 1_655
Ba0 Cu5 2.542655 1_555
Ba1 O16 1.978433 1_555
Ba1 Cu2 2.476180 1_555
Ba2 O4 2.000655 1_455
Ba2 Cu6 2.542655 1_555
Ba3 O10 1.978433 1_555
Ba3 Cu7 2.476180 1_555
Cu2 O1 1.813427 1_555
Cu2 O21 1.839427 1_555
Cu2 O20 2.238891 1_555
Cu2 O5 2.290892 1_555
Cu3 O0 2.474251 1_556
Cu3 Te6 2.760310 1_555
Cu4 O12 2.474251 1_554
Cu4 Te7 2.760310 1_555
Cu5 O11 1.767685 1_655
Cu5 O2 1.767981 1_555
Cu5 O0 2.076682 1_545
Cu5 O9 2.145502 1_545
Cu5 O8 2.172908 1_555
Cu6 O13 1.767685 1_455
Cu6 O7 1.767981 1_555
Cu6 O12 2.076682 1_565
Cu6 O15 2.145502 1_565
Cu6 O14 2.172908 1_555
Cu7 O6 1.813427 1_555
Cu7 O17 1.839427 1_555
Cu7 O18 2.238891 1_555
Cu7 O19 2.290892 1_555
Cl0 Cu3 2.243393 1_555
Cl0 Te6 2.856039 1_555
Cl0 Te1 2.936540 1_555
Cl0 Cu4 3.048620 1_666
Cl1 Cu4 2.243393 1_555
Cl1 Te7 2.856039 1_555
Cl1 Te2 2.936540 1_555
Cl1 Cu3 3.048620 1_444
Cl2 O16 2.307894 1_565
Cl2 Te7 2.631279 1_565
Cl2 Cu4 2.715134 1_565
Cl2 Te0 2.734313 1_555
Cl3 O3 2.237245 1_555
Cl3 Te1 2.575772 1_455
Cl3 Cu1 2.628790 1_555
Cl3 Te4 2.881275 1_555
Cl4 O10 2.307894 1_545
Cl4 Te6 2.631279 1_545
Cl4 Cu3 2.715134 1_545
Cl4 Te3 2.734313 1_555
Cl5 O4 2.237245 1_555
Cl5 Te2 2.575772 1_655
Cl5 Cu0 2.628790 1_555
Cl5 Te5 2.881275 1_555
Cl6 Cu1 1.484275 1_554
Cl7 Cu0 1.484275 1_556
O0 Te0 2.234936 1_555
O0 Te5 2.240981 1_555
O3 Te1 2.127783 1_455
O3 Te4 2.534742 1_555
O4 Te2 2.127783 1_655
O4 Te5 2.534742 1_555
O5 Te6 1.335094 1_555
O8 Te0 1.327854 1_545
O9 Te5 1.291625 1_555
O10 Te6 2.142824 1_555
O10 Te3 2.545842 1_565
O12 Te3 2.234936 1_555
O12 Te4 2.240981 1_555
O14 Te3 1.327854 1_565
O15 Te4 1.291625 1_555
O16 Te7 2.142824 1_555
O16 Te0 2.545842 1_545
O18 Te2 1.324547 1_555
O19 Te7 1.335094 1_555
O20 Te1 1.324547 1_555
