# generated using pymatgen
data_Zn2CoWO6
_symmetry_space_group_name_H-M   'P 1'
_cell_length_a   5.26628335
_cell_length_b   5.26390802
_cell_length_c   7.86451833
_cell_angle_alpha   89.99296205
_cell_angle_beta   88.88183166
_cell_angle_gamma   90.00528014
_symmetry_Int_Tables_number   1
_chemical_formula_structural   Zn2CoWO6
_chemical_formula_sum   'Zn4 Co2 W2 O12'
_cell_volume   217.97261239
_cell_formula_units_Z   2
loop_
 _symmetry_equiv_pos_site_id
 _symmetry_equiv_pos_as_xyz
  1  'x, y, z'
loop_
 _atom_site_type_symbol
 _atom_site_label
 _atom_site_symmetry_multiplicity
 _atom_site_fract_x
 _atom_site_fract_y
 _atom_site_fract_z
 _atom_site_occupancy
  Zn  Zn0  1  0.01155200  0.02718200  0.26110600  1
  Zn  Zn1  1  0.48859200  0.52723800  0.23884100  1
  Zn  Zn2  1  0.98844900  0.97281700  0.73889300  1
  Zn  Zn3  1  0.51140900  0.47276100  0.76115900  1
  Co  Co0  1  0.50000000  0.00000000  0.00000000  1
  Co  Co1  1  0.00000000  0.50000100  0.50000000  1
  W  W0  1  0.49999800  0.00000200  0.50000000  1
  W  W1  1  0.00000200  0.49999800  0.00000100  1
  O  O0  1  0.65438200  0.31127400  0.41631700  1
  O  O1  1  0.84566700  0.81120500  0.08371800  1
  O  O2  1  0.34562000  0.68872600  0.58368300  1
  O  O3  1  0.15433100  0.18879500  0.91628100  1
  O  O4  1  0.18033400  0.17028200  0.55049300  1
  O  O5  1  0.31967700  0.67035100  0.94952400  1
  O  O6  1  0.81966600  0.82971900  0.44950700  1
  O  O7  1  0.68032300  0.32964700  0.05047600  1
  O  O8  1  0.11573300  0.40590400  0.23321900  1
  O  O9  1  0.38435200  0.90595600  0.26675400  1
  O  O10  1  0.61564900  0.09404400  0.73324700  1
  O  O11  1  0.88426700  0.59409700  0.76678000  1
loop_
_geom_bond_atom_site_label_1
_geom_bond_atom_site_label_2
_geom_bond_distance
_geom_bond_site_symmetry_2
Co0 O7 2.021136 1_555
Co0 O5 2.021145 1_544
Co0 O1 2.186748 1_545
Co0 O3 2.186759 1_554
Co0 O10 2.228662 1_554
Co0 O9 2.228668 1_545
Co1 O6 2.021579 1_455
Co1 O4 2.021583 1_555
Co1 O0 2.186202 1_455
Co1 O2 2.186206 1_555
Co1 O11 2.229173 1_455
Co1 O8 2.229182 1_555
O0 W0 1.938417 1_555
O0 Zn1 2.012500 1_555
O1 W1 1.938373 1_655
O1 Zn0 2.012380 1_665
O2 W0 1.938422 1_565
O2 Zn3 2.012501 1_555
O3 W1 1.938350 1_556
O3 Zn2 2.012375 1_445
O4 W0 1.941485 1_555
O4 Zn2 2.058625 1_445
O5 W1 1.941500 1_556
O5 Zn3 2.058655 1_555
O6 W0 1.941510 1_565
O6 Zn0 2.058627 1_665
O7 W1 1.941510 1_655
O7 Zn1 2.058656 1_555
O8 W1 2.006075 1_555
O8 Zn1 2.066082 1_555
O8 Zn0 2.078071 1_555
O9 W0 2.006155 1_565
O9 Zn0 2.065728 1_565
O9 Zn1 2.078302 1_555
O10 W0 2.006166 1_555
O10 Zn2 2.065729 1_545
O10 Zn3 2.078296 1_555
O11 W1 2.006110 1_656
O11 Zn3 2.066080 1_555
O11 Zn2 2.078063 1_555
