# generated using pymatgen
data_Cd3As2
_symmetry_space_group_name_H-M   'P 1'
_cell_length_a   15.90722592
_cell_length_b   15.90722592
_cell_length_c   15.90722592
_cell_angle_alpha   132.38448283
_cell_angle_beta   132.38448283
_cell_angle_gamma   69.62245174
_symmetry_Int_Tables_number   1
_chemical_formula_structural   Cd3As2
_chemical_formula_sum   'Cd48 As32'
_cell_volume   2154.05839105
_cell_formula_units_Z   16
loop_
 _symmetry_equiv_pos_site_id
 _symmetry_equiv_pos_as_xyz
  1  'x, y, z'
loop_
 _atom_site_type_symbol
 _atom_site_label
 _atom_site_symmetry_multiplicity
 _atom_site_fract_x
 _atom_site_fract_y
 _atom_site_fract_z
 _atom_site_occupancy
  Cd  Cd0  1  0.43257800  0.46148600  0.27783900  1
  Cd  Cd1  1  0.93257800  0.65473900  0.97109200  1
  Cd  Cd2  1  0.71148600  0.18257800  0.77783900  1
  Cd  Cd3  1  0.21148600  0.43364700  0.52890800  1
  Cd  Cd4  1  0.31742200  0.78851400  0.22216100  1
  Cd  Cd5  1  0.81742200  0.59526100  0.52890800  1
  Cd  Cd6  1  0.03851400  0.06742200  0.72216100  1
  Cd  Cd7  1  0.53851400  0.81635300  0.97109200  1
  Cd  Cd8  1  0.68364700  0.96148600  0.02890800  1
  Cd  Cd9  1  0.18364700  0.15473900  0.72216100  1
  Cd  Cd10  1  0.90473900  0.68257800  0.47109200  1
  Cd  Cd11  1  0.40473900  0.93364700  0.22216100  1
  Cd  Cd12  1  0.06635300  0.28851400  0.47109200  1
  Cd  Cd13  1  0.56635300  0.09526100  0.77783900  1
  Cd  Cd14  1  0.84526100  0.56742200  0.02890800  1
  Cd  Cd15  1  0.34526100  0.31635300  0.27783900  1
  Cd  Cd16  1  0.69598600  0.42556600  0.50774600  1
  Cd  Cd17  1  0.19598600  0.68824000  0.27041900  1
  Cd  Cd18  1  0.67556600  0.44598600  0.00774600  1
  Cd  Cd19  1  0.17556600  0.16782000  0.22958100  1
  Cd  Cd20  1  0.05401400  0.82443400  0.99225400  1
  Cd  Cd21  1  0.55401400  0.56176000  0.22958100  1
  Cd  Cd22  1  0.07443400  0.80401400  0.49225400  1
  Cd  Cd23  1  0.57443400  0.08217900  0.27041900  1
  Cd  Cd24  1  0.41782100  0.92556600  0.72958100  1
  Cd  Cd25  1  0.91782100  0.18824000  0.49225400  1
  Cd  Cd26  1  0.93824000  0.94598600  0.77041900  1
  Cd  Cd27  1  0.43824000  0.66782000  0.99225400  1
  Cd  Cd28  1  0.33218000  0.32443400  0.77041900  1
  Cd  Cd29  1  0.83218000  0.06176000  0.00774600  1
  Cd  Cd30  1  0.81176000  0.30401400  0.72958100  1
  Cd  Cd31  1  0.31176000  0.58218000  0.50774600  1
  Cd  Cd32  1  0.46458700  0.20726600  0.02337300  1
  Cd  Cd33  1  0.96458700  0.94121300  0.25732100  1
  Cd  Cd34  1  0.45726600  0.21458700  0.52337300  1
  Cd  Cd35  1  0.95726600  0.43389300  0.24267900  1
  Cd  Cd36  1  0.28541300  0.04273400  0.47662700  1
  Cd  Cd37  1  0.78541300  0.30878700  0.24267900  1
  Cd  Cd38  1  0.29273400  0.03541300  0.97662700  1
  Cd  Cd39  1  0.79273400  0.81610700  0.25732100  1
  Cd  Cd40  1  0.68389300  0.70726600  0.74267900  1
  Cd  Cd41  1  0.18389300  0.44121300  0.97662700  1
  Cd  Cd42  1  0.19121300  0.71458700  0.75732100  1
  Cd  Cd43  1  0.69121300  0.93389300  0.47662700  1
  Cd  Cd44  1  0.06610700  0.54273400  0.75732100  1
  Cd  Cd45  1  0.56610700  0.80878700  0.52337300  1
  Cd  Cd46  1  0.55878700  0.53541300  0.74267900  1
  Cd  Cd47  1  0.05878700  0.31610700  0.02337300  1
  As  As0  1  0.00000000  0.00000000  0.00000000  1
  As  As1  1  0.50000000  0.50000000  0.00000000  1
  As  As2  1  0.25000000  0.75000000  0.50000000  1
  As  As3  1  0.75000000  0.25000000  0.50000000  1
  As  As4  1  0.25000000  0.25000000  0.00000000  1
  As  As5  1  0.75000000  0.75000000  0.00000000  1
  As  As6  1  0.50000000  0.00000000  0.50000000  1
  As  As7  1  0.00000000  0.50000000  0.50000000  1
  As  As8  1  0.37500000  0.12500000  0.75000000  1
  As  As9  1  0.87500000  0.12500000  0.25000000  1
  As  As10  1  0.37500000  0.12500000  0.25000000  1
  As  As11  1  0.87500000  0.62500000  0.25000000  1
  As  As12  1  0.87500000  0.62500000  0.75000000  1
  As  As13  1  0.37500000  0.62500000  0.25000000  1
  As  As14  1  0.37500000  0.62500000  0.75000000  1
  As  As15  1  0.87500000  0.12500000  0.75000000  1
  As  As16  1  0.09568600  0.87500000  0.72068600  1
  As  As17  1  0.59568600  0.87500000  0.22068600  1
  As  As18  1  0.12500000  0.84568600  0.22068600  1
  As  As19  1  0.62500000  0.40431400  0.27931400  1
  As  As20  1  0.65431400  0.37500000  0.77931400  1
  As  As21  1  0.15431400  0.37500000  0.27931400  1
  As  As22  1  0.12500000  0.34568600  0.72068600  1
  As  As23  1  0.62500000  0.90431400  0.77931400  1
  As  As24  1  0.51351500  0.51351500  0.52702900  1
  As  As25  1  0.01351500  0.48648500  0.00000000  1
  As  As26  1  0.76351500  0.26351500  0.02702900  1
  As  As27  1  0.26351500  0.23648500  0.50000000  1
  As  As28  1  0.23648500  0.73648500  0.97297100  1
  As  As29  1  0.73648500  0.76351500  0.50000000  1
  As  As30  1  0.98648500  0.98648500  0.47297100  1
  As  As31  1  0.48648500  0.01351500  0.00000000  1
loop_
_geom_bond_atom_site_label_1
_geom_bond_atom_site_label_2
_geom_bond_distance
_geom_bond_site_symmetry_2
As0 Cd19 2.561383 1_555
As0 Cd29 2.561383 1_455
As0 Cd20 2.561383 1_544
As0 Cd26 2.561398 1_444
As1 Cd28 2.561383 1_554
As1 Cd27 2.561383 1_554
As1 Cd18 2.561383 1_555
As1 Cd21 2.561398 1_555
As2 Cd22 2.561383 1_555
As2 Cd31 2.561383 1_555
As2 Cd24 2.561390 1_555
As2 Cd17 2.561398 1_555
As3 Cd16 2.561383 1_555
As3 Cd23 2.561390 1_555
As3 Cd30 2.561398 1_555
As3 Cd25 2.561398 1_555
As4 Cd0 2.956168 1_555
As4 Cd15 2.956168 1_555
As4 Cd6 2.956168 1_554
As4 Cd9 2.956168 1_554
As4 Cd47 3.043986 1_555
As4 Cd41 3.043986 1_554
As4 Cd32 3.044002 1_555
As4 Cd38 3.044002 1_554
As5 Cd1 2.956168 1_554
As5 Cd14 2.956168 1_555
As5 Cd8 2.956168 1_555
As5 Cd7 2.956168 1_554
As5 Cd33 3.043994 1_555
As5 Cd46 3.043994 1_554
As5 Cd40 3.044002 1_554
As5 Cd39 3.044002 1_555
As6 Cd11 2.956168 1_545
As6 Cd13 2.956168 1_555
As6 Cd2 2.956168 1_555
As6 Cd4 2.956168 1_545
As6 Cd43 3.043986 1_545
As6 Cd45 3.043986 1_545
As6 Cd36 3.044002 1_555
As6 Cd34 3.044002 1_555
As7 Cd3 2.956168 1_555
As7 Cd5 2.956168 1_455
As7 Cd12 2.956168 1_555
As7 Cd10 2.956168 1_455
As7 Cd42 3.043994 1_555
As7 Cd37 3.043994 1_455
As7 Cd44 3.044002 1_555
As7 Cd35 3.044002 1_455
As8 Cd9 2.673482 1_555
As8 Cd13 2.673482 1_555
As8 Cd32 2.815184 1_556
As8 Cd36 2.815184 1_555
As8 Cd24 2.835138 1_545
As8 Cd28 2.835139 1_555
As9 Cd8 2.673482 1_545
As9 Cd12 2.673482 1_655
As9 Cd33 2.815198 1_545
As9 Cd37 2.815198 1_555
As9 Cd25 2.835123 1_555
As9 Cd29 2.835132 1_555
As10 Cd15 2.673482 1_555
As10 Cd11 2.673482 1_545
As10 Cd34 2.815184 1_555
As10 Cd38 2.815184 1_554
As10 Cd23 2.835138 1_555
As10 Cd19 2.835139 1_555
As11 Cd10 2.673482 1_555
As11 Cd14 2.673482 1_555
As11 Cd39 2.815184 1_555
As11 Cd35 2.815184 1_555
As11 Cd18 2.835132 1_555
As11 Cd22 2.835132 1_655
As12 Cd5 2.673482 1_555
As12 Cd1 2.673482 1_555
As12 Cd40 2.815184 1_555
As12 Cd44 2.815184 1_655
As12 Cd16 2.835132 1_555
As12 Cd20 2.835132 1_655
As13 Cd4 2.673482 1_555
As13 Cd0 2.673482 1_555
As13 Cd45 2.815190 1_555
As13 Cd41 2.815190 1_554
As13 Cd17 2.835123 1_555
As13 Cd21 2.835123 1_555
As14 Cd7 2.673482 1_555
As14 Cd3 2.673482 1_555
As14 Cd46 2.815198 1_555
As14 Cd42 2.815198 1_555
As14 Cd27 2.835132 1_555
As14 Cd31 2.835132 1_555
As15 Cd2 2.673482 1_555
As15 Cd6 2.673482 1_655
As15 Cd47 2.815190 1_656
As15 Cd43 2.815190 1_545
As15 Cd26 2.835123 1_545
As15 Cd30 2.835123 1_555
As16 Cd42 2.696406 1_555
As16 Cd38 2.696408 1_565
As16 Cd26 2.769658 1_455
As16 Cd22 2.769668 1_555
As16 Cd10 2.861832 1_455
As16 Cd6 2.861832 1_565
As17 Cd39 2.696408 1_555
As17 Cd43 2.696413 1_555
As17 Cd23 2.769659 1_565
As17 Cd27 2.769668 1_554
As17 Cd7 2.861832 1_554
As17 Cd11 2.861832 1_555
As18 Cd33 2.696406 1_455
As18 Cd36 2.696408 1_565
As18 Cd17 2.769658 1_555
As18 Cd20 2.769668 1_554
As18 Cd4 2.861832 1_555
As18 Cd1 2.861832 1_454
As19 Cd37 2.696406 1_555
As19 Cd32 2.696408 1_555
As19 Cd21 2.769658 1_555
As19 Cd16 2.769668 1_555
As19 Cd5 2.861832 1_555
As19 Cd0 2.861832 1_555
As20 Cd46 2.696406 1_555
As20 Cd34 2.696408 1_555
As20 Cd30 2.769658 1_555
As20 Cd18 2.769668 1_556
As20 Cd14 2.861832 1_556
As20 Cd2 2.861832 1_555
As21 Cd35 2.696408 1_455
As21 Cd47 2.696413 1_555
As21 Cd31 2.769668 1_555
As21 Cd19 2.769674 1_555
As21 Cd3 2.861832 1_555
As21 Cd15 2.861832 1_555
As22 Cd44 2.696408 1_555
As22 Cd41 2.696413 1_555
As22 Cd25 2.769658 1_455
As22 Cd28 2.769674 1_555
As22 Cd9 2.861832 1_555
As22 Cd12 2.861832 1_555
As23 Cd40 2.696408 1_555
As23 Cd45 2.696413 1_555
As23 Cd24 2.769659 1_555
As23 Cd29 2.769668 1_566
As23 Cd8 2.861832 1_556
As23 Cd13 2.861832 1_565
As24 Cd0 2.737474 1_555
As24 Cd15 2.737489 1_555
As24 Cd40 2.764159 1_555
As24 Cd46 2.764169 1_555
As24 Cd16 2.875813 1_555
As24 Cd31 2.875826 1_555
As25 Cd1 2.737489 1_454
As25 Cd14 2.737489 1_455
As25 Cd47 2.764159 1_555
As25 Cd41 2.764159 1_554
As25 Cd17 2.875819 1_555
As25 Cd30 2.875819 1_454
As26 Cd2 2.737474 1_554
As26 Cd13 2.737489 1_554
As26 Cd35 2.764159 1_555
As26 Cd37 2.764169 1_555
As26 Cd18 2.875813 1_555
As26 Cd29 2.875826 1_555
As27 Cd12 2.737489 1_555
As27 Cd3 2.737489 1_555
As27 Cd36 2.764162 1_555
As27 Cd34 2.764162 1_555
As27 Cd28 2.875805 1_555
As27 Cd19 2.875805 1_555
As28 Cd4 2.737474 1_556
As28 Cd11 2.737489 1_556
As28 Cd44 2.764159 1_555
As28 Cd42 2.764169 1_555
As28 Cd20 2.875813 1_555
As28 Cd27 2.875826 1_555
As29 Cd5 2.737489 1_555
As29 Cd10 2.737489 1_555
As29 Cd45 2.764159 1_555
As29 Cd43 2.764159 1_555
As29 Cd21 2.875819 1_555
As29 Cd26 2.875819 1_555
As30 Cd6 2.737474 1_665
As30 Cd9 2.737489 1_665
As30 Cd39 2.764159 1_555
As30 Cd33 2.764169 1_555
As30 Cd22 2.875813 1_655
As30 Cd25 2.875825 1_565
As31 Cd7 2.737489 1_544
As31 Cd8 2.737489 1_545
As31 Cd32 2.764162 1_555
As31 Cd38 2.764162 1_554
As31 Cd23 2.875813 1_555
As31 Cd24 2.875813 1_544
