# generated using pymatgen
data_KBaPrBiO6
_symmetry_space_group_name_H-M   'P 1'
_cell_length_a   6.31668213
_cell_length_b   6.31668213
_cell_length_c   6.31668213
_cell_angle_alpha   60.00000000
_cell_angle_beta   60.00000000
_cell_angle_gamma   60.00000000
_symmetry_Int_Tables_number   1
_chemical_formula_structural   KBaPrBiO6
_chemical_formula_sum   'K1 Ba1 Pr1 Bi1 O6'
_cell_volume   178.21820730
_cell_formula_units_Z   1
loop_
 _symmetry_equiv_pos_site_id
 _symmetry_equiv_pos_as_xyz
  1  'x, y, z'
loop_
 _atom_site_type_symbol
 _atom_site_label
 _atom_site_symmetry_multiplicity
 _atom_site_fract_x
 _atom_site_fract_y
 _atom_site_fract_z
 _atom_site_occupancy
  K  K0  1  0.25000000  0.25000000  0.25000000  1
  Ba  Ba0  1  0.75000000  0.75000000  0.75000000  1
  Pr  Pr0  1  0.50000000  0.50000000  0.50000000  1
  Bi  Bi0  1  0.00000000  0.00000000  0.00000000  1
  O  O0  1  0.76184675  0.23815325  0.23815325  1
  O  O1  1  0.23815325  0.76184675  0.76184675  1
  O  O2  1  0.76184675  0.23815325  0.76184675  1
  O  O3  1  0.23815325  0.76184675  0.23815325  1
  O  O4  1  0.76184675  0.76184675  0.23815325  1
  O  O5  1  0.23815325  0.23815325  0.76184675  1
loop_
_geom_bond_atom_site_label_1
_geom_bond_atom_site_label_2
_geom_bond_distance
_geom_bond_site_symmetry_2
K0 O1 3.160114 1_554
K0 O3 3.160114 1_545
K0 O2 3.160114 1_455
K0 O2 3.160114 1_554
K0 O4 3.160114 1_545
K0 O5 3.160114 1_555
K0 O1 3.160114 1_545
K0 O0 3.160114 1_455
K0 O5 3.160114 1_554
K0 O3 3.160114 1_555
K0 O0 3.160114 1_555
K0 O4 3.160114 1_455
Ba0 O1 3.160114 1_555
Ba0 O2 3.160114 1_555
Ba0 O4 3.160114 1_555
Ba0 O0 3.160114 1_556
Ba0 O3 3.160114 1_556
Ba0 O2 3.160114 1_565
Ba0 O0 3.160114 1_565
Ba0 O3 3.160114 1_655
Ba0 O5 3.160114 1_565
Ba0 O1 3.160114 1_655
Ba0 O5 3.160114 1_655
Ba0 O4 3.160114 1_556
Bi0 O4 2.127456 1_445
Bi0 O2 2.127456 1_454
Bi0 O1 2.127456 1_544
Bi0 O5 2.127456 1_554
Bi0 O0 2.127456 1_455
Bi0 O3 2.127456 1_545
O0 Pr0 2.339113 1_555
O1 Pr0 2.339113 1_555
O2 Pr0 2.339113 1_555
O3 Pr0 2.339113 1_555
O4 Pr0 2.339113 1_555
O5 Pr0 2.339113 1_555
