# generated using pymatgen
data_LiRuN2
_symmetry_space_group_name_H-M   'P 1'
_cell_length_a   5.57458390
_cell_length_b   4.68867230
_cell_length_c   8.96307037
_cell_angle_alpha   89.99999984
_cell_angle_beta   143.50635613
_cell_angle_gamma   114.86869296
_symmetry_Int_Tables_number   1
_chemical_formula_structural   LiRuN2
_chemical_formula_sum   'Li2 Ru2 N4'
_cell_volume   98.52051264
_cell_formula_units_Z   2
loop_
 _symmetry_equiv_pos_site_id
 _symmetry_equiv_pos_as_xyz
  1  'x, y, z'
loop_
 _atom_site_type_symbol
 _atom_site_label
 _atom_site_symmetry_multiplicity
 _atom_site_fract_x
 _atom_site_fract_y
 _atom_site_fract_z
 _atom_site_occupancy
  Li  Li0  1  0.00000000  0.50000000  0.25000000  1
  Li  Li1  1  0.00000000  0.00000000  0.00000000  1
  Ru  Ru0  1  0.00000000  0.50000000  0.75000000  1
  Ru  Ru1  1  0.00000000  0.00000000  0.50000000  1
  N  N0  1  0.50000000  0.95540900  0.12500000  1
  N  N1  1  0.50000000  0.04459100  0.62500000  1
  N  N2  1  0.58918100  0.54459100  0.41959100  1
  N  N3  1  0.41081900  0.45540900  0.83040900  1
loop_
_geom_bond_atom_site_label_1
_geom_bond_atom_site_label_2
_geom_bond_distance
_geom_bond_site_symmetry_2
Li0 N2 2.130034 1_555
Li0 N3 2.130038 1_454
Li0 N1 2.130038 1_565
Li0 N0 2.130039 1_445
Li1 N3 2.130036 1_444
Li1 N1 2.130039 1_454
Li1 N0 2.130039 1_545
Li1 N2 2.130041 1_555
N0 Ru0 1.885946 1_554
N0 Ru1 1.885946 1_665
N1 Ru0 1.885946 1_655
N1 Ru1 1.885946 1_555
N2 Ru0 1.885946 1_655
N2 Ru1 1.885948 1_665
N3 Ru1 1.885943 1_555
N3 Ru0 1.885951 1_555
