# generated using pymatgen
data_Li7Co5O12
_symmetry_space_group_name_H-M   'P 1'
_cell_length_a   2.92427000
_cell_length_b   6.40676880
_cell_length_c   11.83521275
_cell_angle_alpha   103.81969525
_cell_angle_beta   92.03175824
_cell_angle_gamma   102.78135620
_symmetry_Int_Tables_number   1
_chemical_formula_structural   Li7Co5O12
_chemical_formula_sum   'Li7 Co5 O12'
_cell_volume   209.06546275
_cell_formula_units_Z   1
loop_
 _symmetry_equiv_pos_site_id
 _symmetry_equiv_pos_as_xyz
  1  'x, y, z'
loop_
 _atom_site_type_symbol
 _atom_site_label
 _atom_site_symmetry_multiplicity
 _atom_site_fract_x
 _atom_site_fract_y
 _atom_site_fract_z
 _atom_site_occupancy
  Li  Li0  1  0.66745100  0.83469100  0.91492600  1
  Li  Li1  1  0.99235000  0.49996300  0.25323200  1
  Li  Li2  1  0.33254900  0.16530900  0.08507400  1
  Li  Li3  1  0.65938600  0.82648800  0.42031900  1
  Li  Li4  1  0.34061400  0.17351200  0.57968100  1
  Li  Li5  1  0.00765000  0.50003700  0.74676800  1
  Li  Li6  1  0.00000000  0.50000000  0.50000000  1
  Co  Co0  1  0.65899700  0.81552700  0.65954700  1
  Co  Co1  1  0.34100300  0.18447300  0.34045300  1
  Co  Co2  1  0.00000000  0.50000000  0.00000000  1
  Co  Co3  1  0.67161900  0.83278800  0.16487100  1
  Co  Co4  1  0.32838100  0.16721200  0.83512900  1
  O  O0  1  0.15800400  0.85493900  0.78944400  1
  O  O1  1  0.52099000  0.51450800  0.11130600  1
  O  O2  1  0.82035500  0.18242400  0.95369300  1
  O  O3  1  0.16449500  0.84383500  0.27923300  1
  O  O4  1  0.81556400  0.16132500  0.44778400  1
  O  O5  1  0.51030300  0.52517900  0.63348400  1
  O  O6  1  0.17964500  0.81757600  0.04630700  1
  O  O7  1  0.48969700  0.47482100  0.36651600  1
  O  O8  1  0.84199600  0.14506100  0.21055600  1
  O  O9  1  0.18443600  0.83867500  0.55221600  1
  O  O10  1  0.83550500  0.15616500  0.72076700  1
  O  O11  1  0.47901000  0.48549200  0.88869400  1
loop_
_geom_bond_atom_site_label_1
_geom_bond_atom_site_label_2
_geom_bond_distance
_geom_bond_site_symmetry_2
Li0 O2 2.104781 1_565
Li0 O0 2.107355 1_655
Li0 O0 2.112445 1_555
Li0 O11 2.125050 1_555
Li0 O6 2.152711 1_556
Li0 O6 2.159207 1_656
Li1 O7 2.001826 1_655
Li1 O7 2.030337 1_555
Li1 O3 2.091941 1_655
Li1 O8 2.147496 1_555
Li1 O1 2.167381 1_555
Li1 O1 2.327033 1_655
Li2 O6 2.104781 1_545
Li2 O8 2.107355 1_455
Li2 O8 2.112445 1_555
Li2 O1 2.125050 1_555
Li2 O2 2.152711 1_554
Li2 O2 2.159207 1_454
Li3 O4 2.034470 1_565
Li3 O9 2.124944 1_555
Li3 O9 2.125818 1_655
Li3 O7 2.127314 1_555
Li3 O3 2.209836 1_555
Li3 O3 2.274463 1_655
Li4 O9 2.034470 1_545
Li4 O4 2.124944 1_555
Li4 O4 2.125818 1_455
Li4 O5 2.127314 1_555
Li4 O10 2.209836 1_555
Li4 O10 2.274463 1_455
Li5 O5 2.001826 1_455
Li5 O5 2.030337 1_555
Li5 O10 2.091941 1_455
Li5 O0 2.147496 1_555
Li5 O11 2.167381 1_555
Li5 O11 2.327033 1_455
Li6 O9 2.049109 1_555
Li6 O4 2.049109 1_455
Li6 O5 2.086445 1_555
Li6 O7 2.086445 1_455
Li6 O5 2.171023 1_455
Li6 O7 2.171023 1_555
Co0 O5 1.761538 1_555
Co0 O9 1.901977 1_555
Co0 O0 2.012221 1_655
Co0 O9 2.030788 1_655
Co0 O10 2.067332 1_565
Co0 O0 2.170599 1_555
Co1 O7 1.761538 1_555
Co1 O4 1.901977 1_555
Co1 O8 2.012221 1_455
Co1 O4 2.030788 1_455
Co1 O3 2.067332 1_545
Co1 O8 2.170599 1_555
Co2 O6 1.920942 1_555
Co2 O2 1.920942 1_454
Co2 O1 1.949779 1_555
Co2 O11 1.949779 1_454
Co2 O1 1.958588 1_455
Co2 O11 1.958588 1_554
Co3 O8 1.888464 1_565
Co3 O3 1.919660 1_655
Co3 O1 1.928532 1_555
Co3 O6 1.943654 1_555
Co3 O3 2.044299 1_555
Co3 O6 2.081375 1_655
Co4 O0 1.888464 1_545
Co4 O10 1.919660 1_455
Co4 O11 1.928532 1_555
Co4 O2 1.943654 1_555
Co4 O10 2.044299 1_555
Co4 O2 2.081375 1_455
