# generated using pymatgen
data_MnFe2(PO9)2
_symmetry_space_group_name_H-M   'P 1'
_cell_length_a   7.15713900
_cell_length_b   9.65405000
_cell_length_c   9.92287955
_cell_angle_alpha   78.80705202
_cell_angle_beta   90.00000000
_cell_angle_gamma   90.00000000
_symmetry_Int_Tables_number   1
_chemical_formula_structural   MnFe2(PO9)2
_chemical_formula_sum   'Mn2 Fe4 P4 O36'
_cell_volume   672.58387321
_cell_formula_units_Z   2
loop_
 _symmetry_equiv_pos_site_id
 _symmetry_equiv_pos_as_xyz
  1  'x, y, z'
loop_
 _atom_site_type_symbol
 _atom_site_label
 _atom_site_symmetry_multiplicity
 _atom_site_fract_x
 _atom_site_fract_y
 _atom_site_fract_z
 _atom_site_occupancy
  Mn  Mn0  1  0.50000000  0.00000000  0.50000000  1
  Mn  Mn1  1  0.00000000  0.00000000  0.00000000  1
  Fe  Fe0  1  0.37349400  0.48561200  0.74440100  1
  Fe  Fe1  1  0.87349400  0.51438800  0.75559900  1
  Fe  Fe2  1  0.62650600  0.51438800  0.25559900  1
  Fe  Fe3  1  0.12650600  0.48561200  0.24440100  1
  P  P0  1  0.13936100  0.30851500  0.00366200  1
  P  P1  1  0.63936100  0.69148500  0.49633800  1
  P  P2  1  0.86063900  0.69148500  0.99633800  1
  P  P3  1  0.36063900  0.30851500  0.50366200  1
  O  O0  1  0.38013800  0.32439900  0.65574700  1
  O  O1  1  0.88013800  0.67560100  0.84425300  1
  O  O2  1  0.61986200  0.67560100  0.34425300  1
  O  O3  1  0.11986200  0.32439900  0.15574700  1
  O  O4  1  0.30805500  0.39046600  0.93364900  1
  O  O5  1  0.80805500  0.60953400  0.56635100  1
  O  O6  1  0.69194500  0.60953400  0.06635100  1
  O  O7  1  0.19194500  0.39046600  0.43364900  1
  O  O8  1  0.32746900  0.14961600  0.50413100  1
  O  O9  1  0.82746900  0.85038400  0.99586900  1
  O  O10  1  0.67253100  0.85038400  0.49586900  1
  O  O11  1  0.17253100  0.14961600  0.00413100  1
  O  O12  1  0.45059000  0.63991900  0.56985100  1
  O  O13  1  0.95059000  0.36008100  0.93014900  1
  O  O14  1  0.54941000  0.36008100  0.43014900  1
  O  O15  1  0.04941000  0.63991900  0.06985100  1
  O  O16  1  0.36854400  0.53744000  0.19674300  1
  O  O17  1  0.86854400  0.46256000  0.30325700  1
  O  O18  1  0.63145600  0.46256000  0.80325700  1
  O  O19  1  0.13145600  0.53744000  0.69674300  1
  O  O20  1  0.34076800  0.66439900  0.79538100  1
  O  O21  1  0.84076800  0.33560100  0.70461900  1
  O  O22  1  0.65923200  0.33560100  0.20461900  1
  O  O23  1  0.15923200  0.66439900  0.29538100  1
  O  O24  1  0.53676000  0.96077600  0.75826400  1
  O  O25  1  0.03676000  0.03922400  0.74173600  1
  O  O26  1  0.46324000  0.03922400  0.24173600  1
  O  O27  1  0.96324000  0.96077600  0.25826400  1
  O  O28  1  0.30957300  0.88115900  0.51959500  1
  O  O29  1  0.80957300  0.11884100  0.98040500  1
  O  O30  1  0.69042700  0.11884100  0.48040500  1
  O  O31  1  0.19042700  0.88115900  0.01959500  1
  O  O32  1  0.50708600  0.05401000  0.82427500  1
  O  O33  1  0.00708600  0.94599000  0.67572500  1
  O  O34  1  0.49291400  0.94599000  0.17572500  1
  O  O35  1  0.99291400  0.05401000  0.32427500  1
loop_
_geom_bond_atom_site_label_1
_geom_bond_atom_site_label_2
_geom_bond_distance
_geom_bond_site_symmetry_2
Mn0 O28 1.767773 1_545
Mn0 O30 1.767773 1_555
Mn0 O10 1.906767 1_545
Mn0 O8 1.906767 1_555
Mn0 O26 2.530496 1_555
Mn0 O24 2.530496 1_545
Mn1 O31 1.767773 1_545
Mn1 O29 1.767773 1_454
Mn1 O9 1.906767 1_444
Mn1 O11 1.906767 1_555
Mn1 O27 2.530496 1_445
Mn1 O25 2.530496 1_554
Fe0 O19 1.839290 1_555
Fe0 O20 1.904962 1_555
Fe0 O0 1.931301 1_555
Fe0 O18 1.936198 1_555
Fe0 O4 1.979867 1_555
Fe0 O12 2.126474 1_555
Fe1 O18 1.839290 1_555
Fe1 O21 1.904962 1_555
Fe1 O1 1.931301 1_555
Fe1 O19 1.936198 1_655
Fe1 O5 1.979867 1_555
Fe1 O13 2.126474 1_555
Fe2 O17 1.839290 1_555
Fe2 O22 1.904962 1_555
Fe2 O2 1.931301 1_555
Fe2 O16 1.936198 1_555
Fe2 O6 1.979867 1_555
Fe2 O14 2.126474 1_555
Fe3 O16 1.839290 1_555
Fe3 O23 1.904962 1_555
Fe3 O3 1.931301 1_555
Fe3 O17 1.936198 1_455
Fe3 O7 1.979867 1_555
Fe3 O15 2.126474 1_555
O0 P3 1.552507 1_555
O1 P2 1.552507 1_555
O2 P1 1.552507 1_555
O3 P0 1.552507 1_555
O4 P0 1.533927 1_556
O5 P1 1.533927 1_555
O6 P2 1.533927 1_554
O7 P3 1.533927 1_555
O8 P3 1.551394 1_555
O9 P2 1.551394 1_555
O10 P1 1.551394 1_555
O11 P0 1.551394 1_555
O12 P1 1.569816 1_555
O13 P0 1.569816 1_656
O14 P3 1.569816 1_555
O15 P2 1.569816 1_454
O24 O32 1.230121 1_565
O25 O33 1.230121 1_545
O26 O34 1.230121 1_545
O27 O35 1.230121 1_565
