# generated using pymatgen
data_Y3Al3Cr2O12
_symmetry_space_group_name_H-M   'P 1'
_cell_length_a   10.63772952
_cell_length_b   10.63772952
_cell_length_c   10.63772952
_cell_angle_alpha   109.47122063
_cell_angle_beta   109.47122063
_cell_angle_gamma   109.47122063
_symmetry_Int_Tables_number   1
_chemical_formula_structural   Y3Al3Cr2O12
_chemical_formula_sum   'Y12 Al12 Cr8 O48'
_cell_volume   926.66965021
_cell_formula_units_Z   4
loop_
 _symmetry_equiv_pos_site_id
 _symmetry_equiv_pos_as_xyz
  1  'x, y, z'
loop_
 _atom_site_type_symbol
 _atom_site_label
 _atom_site_symmetry_multiplicity
 _atom_site_fract_x
 _atom_site_fract_y
 _atom_site_fract_z
 _atom_site_occupancy
  Y  Y0  1  0.25000000  0.37500000  0.12500000  1
  Y  Y1  1  0.75000000  0.62500000  0.87500000  1
  Y  Y2  1  0.75000000  0.12500000  0.37500000  1
  Y  Y3  1  0.12500000  0.25000000  0.37500000  1
  Y  Y4  1  0.37500000  0.75000000  0.12500000  1
  Y  Y5  1  0.25000000  0.87500000  0.62500000  1
  Y  Y6  1  0.87500000  0.75000000  0.62500000  1
  Y  Y7  1  0.62500000  0.25000000  0.87500000  1
  Y  Y8  1  0.37500000  0.12500000  0.25000000  1
  Y  Y9  1  0.62500000  0.87500000  0.75000000  1
  Y  Y10  1  0.12500000  0.37500000  0.75000000  1
  Y  Y11  1  0.87500000  0.62500000  0.25000000  1
  Al  Al0  1  0.25000000  0.62500000  0.37500000  1
  Al  Al1  1  0.75000000  0.37500000  0.62500000  1
  Al  Al2  1  0.75000000  0.87500000  0.12500000  1
  Al  Al3  1  0.37500000  0.25000000  0.62500000  1
  Al  Al4  1  0.62500000  0.75000000  0.37500000  1
  Al  Al5  1  0.25000000  0.12500000  0.87500000  1
  Al  Al6  1  0.12500000  0.75000000  0.87500000  1
  Al  Al7  1  0.87500000  0.25000000  0.12500000  1
  Al  Al8  1  0.62500000  0.37500000  0.25000000  1
  Al  Al9  1  0.37500000  0.62500000  0.75000000  1
  Al  Al10  1  0.87500000  0.12500000  0.75000000  1
  Al  Al11  1  0.12500000  0.87500000  0.25000000  1
  Cr  Cr0  1  0.00000000  0.00000000  0.00000000  1
  Cr  Cr1  1  0.50000000  0.00000000  0.50000000  1
  Cr  Cr2  1  0.00000000  0.50000000  0.50000000  1
  Cr  Cr3  1  0.50000000  0.00000000  0.00000000  1
  Cr  Cr4  1  0.50000000  0.50000000  0.00000000  1
  Cr  Cr5  1  0.50000000  0.50000000  0.50000000  1
  Cr  Cr6  1  0.00000000  0.00000000  0.50000000  1
  Cr  Cr7  1  0.00000000  0.50000000  0.00000000  1
  O  O0  1  0.47645200  0.37759200  0.29221400  1
  O  O1  1  0.52354800  0.62240800  0.70778600  1
  O  O2  1  0.58537800  0.18423800  0.20778600  1
  O  O3  1  0.91462200  0.12240800  0.59886000  1
  O  O4  1  0.29221400  0.47645200  0.37759200  1
  O  O5  1  0.31576200  0.91462200  0.29221400  1
  O  O6  1  0.41462200  0.81576200  0.79221400  1
  O  O7  1  0.08537800  0.87759200  0.40114000  1
  O  O8  1  0.70778600  0.52354800  0.62240800  1
  O  O9  1  0.68423800  0.08537800  0.70778600  1
  O  O10  1  0.02354800  0.31576200  0.90114000  1
  O  O11  1  0.20778600  0.58537800  0.18423800  1
  O  O12  1  0.12240800  0.02354800  0.20778600  1
  O  O13  1  0.97645200  0.68423800  0.09886000  1
  O  O14  1  0.79221400  0.41462200  0.81576200  1
  O  O15  1  0.87759200  0.97645200  0.79221400  1
  O  O16  1  0.59886000  0.91462200  0.12240800  1
  O  O17  1  0.18423800  0.47645200  0.59886000  1
  O  O18  1  0.40114000  0.08537800  0.87759200  1
  O  O19  1  0.81576200  0.52354800  0.40114000  1
  O  O20  1  0.90114000  0.02354800  0.31576200  1
  O  O21  1  0.37759200  0.58537800  0.90114000  1
  O  O22  1  0.09886000  0.97645200  0.68423800  1
  O  O23  1  0.62240800  0.41462200  0.09886000  1
  O  O24  1  0.37759200  0.29221400  0.47645200  1
  O  O25  1  0.58537800  0.90114000  0.37759200  1
  O  O26  1  0.62240800  0.70778600  0.52354800  1
  O  O27  1  0.41462200  0.09886000  0.62240800  1
  O  O28  1  0.12240800  0.59886000  0.91462200  1
  O  O29  1  0.02354800  0.20778600  0.12240800  1
  O  O30  1  0.87759200  0.40114000  0.08537800  1
  O  O31  1  0.97645200  0.79221400  0.87759200  1
  O  O32  1  0.31576200  0.90114000  0.02354800  1
  O  O33  1  0.91462200  0.29221400  0.31576200  1
  O  O34  1  0.68423800  0.09886000  0.97645200  1
  O  O35  1  0.08537800  0.70778600  0.68423800  1
  O  O36  1  0.18423800  0.20778600  0.58537800  1
  O  O37  1  0.47645200  0.59886000  0.18423800  1
  O  O38  1  0.81576200  0.79221400  0.41462200  1
  O  O39  1  0.52354800  0.40114000  0.81576200  1
  O  O40  1  0.29221400  0.31576200  0.91462200  1
  O  O41  1  0.70778600  0.68423800  0.08537800  1
  O  O42  1  0.20778600  0.12240800  0.02354800  1
  O  O43  1  0.79221400  0.87759200  0.97645200  1
  O  O44  1  0.90114000  0.37759200  0.58537800  1
  O  O45  1  0.09886000  0.62240800  0.41462200  1
  O  O46  1  0.59886000  0.18423800  0.47645200  1
  O  O47  1  0.40114000  0.81576200  0.52354800  1
loop_
_geom_bond_atom_site_label_1
_geom_bond_atom_site_label_2
_geom_bond_distance
_geom_bond_site_symmetry_2
Al0 O4 1.786997 1_555
Al0 O47 1.786997 1_555
Al0 O45 1.786997 1_555
Al0 O11 1.786997 1_555
Al1 O14 1.786997 1_555
Al1 O44 1.786997 1_555
Al1 O46 1.786997 1_555
Al1 O8 1.786997 1_555
Al2 O16 1.786997 1_555
Al2 O41 1.786997 1_555
Al2 O43 1.786997 1_554
Al2 O20 1.786997 1_565
Al3 O27 1.786997 1_555
Al3 O24 1.786997 1_555
Al3 O39 1.786997 1_555
Al3 O36 1.786997 1_555
Al4 O38 1.786997 1_555
Al4 O25 1.786997 1_555
Al4 O37 1.786997 1_555
Al4 O26 1.786997 1_555
Al5 O22 1.786997 1_545
Al5 O42 1.786997 1_556
Al5 O40 1.786997 1_555
Al5 O18 1.786997 1_555
Al6 O28 1.786997 1_555
Al6 O31 1.786997 1_455
Al6 O35 1.786997 1_555
Al6 O32 1.786997 1_556
Al7 O34 1.786997 1_554
Al7 O29 1.786997 1_655
Al7 O33 1.786997 1_555
Al7 O30 1.786997 1_555
Al8 O23 1.786997 1_555
Al8 O0 1.786997 1_555
Al8 O19 1.786997 1_555
Al8 O2 1.786997 1_555
Al9 O6 1.786997 1_555
Al9 O21 1.786997 1_555
Al9 O17 1.786997 1_555
Al9 O1 1.786997 1_555
Al10 O3 1.786997 1_555
Al10 O9 1.786997 1_555
Al10 O15 1.786997 1_545
Al10 O10 1.786997 1_655
Al11 O13 1.786997 1_455
Al11 O12 1.786997 1_565
Al11 O5 1.786997 1_555
Al11 O7 1.786997 1_555
Cr0 O29 2.034372 1_555
Cr0 O12 2.034372 1_555
Cr0 O42 2.034372 1_555
Cr0 O15 2.034372 1_444
Cr0 O31 2.034372 1_444
Cr0 O43 2.034372 1_444
Cr1 O46 2.034372 1_555
Cr1 O9 2.034372 1_555
Cr1 O5 2.034372 1_545
Cr1 O25 2.034372 1_545
Cr1 O27 2.034372 1_555
Cr1 O47 2.034372 1_545
Cr2 O17 2.034372 1_555
Cr2 O35 2.034372 1_555
Cr2 O33 2.034372 1_455
Cr2 O44 2.034372 1_455
Cr2 O45 2.034372 1_555
Cr2 O19 2.034372 1_455
Cr3 O2 2.034372 1_555
Cr3 O32 2.034372 1_545
Cr3 O6 2.034372 1_544
Cr3 O34 2.034372 1_554
Cr3 O16 2.034372 1_545
Cr3 O18 2.034372 1_554
Cr4 O37 2.034372 1_555
Cr4 O41 2.034372 1_555
Cr4 O40 2.034372 1_554
Cr4 O21 2.034372 1_554
Cr4 O23 2.034372 1_555
Cr4 O39 2.034372 1_554
Cr5 O26 2.034372 1_555
Cr5 O1 2.034372 1_555
Cr5 O8 2.034372 1_555
Cr5 O24 2.034372 1_555
Cr5 O0 2.034372 1_555
Cr5 O4 2.034372 1_555
Cr6 O36 2.034372 1_555
Cr6 O20 2.034372 1_455
Cr6 O38 2.034372 1_445
Cr6 O22 2.034372 1_545
Cr6 O3 2.034372 1_455
Cr6 O7 2.034372 1_545
Cr7 O11 2.034372 1_555
Cr7 O10 2.034372 1_554
Cr7 O13 2.034372 1_455
Cr7 O14 2.034372 1_454
Cr7 O28 2.034372 1_554
Cr7 O30 2.034372 1_455
O0 Y8 2.350662 1_555
O0 Y0 2.456453 1_555
O1 Y9 2.350662 1_555
O1 Y1 2.456453 1_555
O2 Y8 2.350662 1_555
O2 Y2 2.456453 1_555
O3 Y10 2.350662 1_655
O3 Y2 2.456453 1_555
O4 Y0 2.350662 1_555
O4 Y3 2.456453 1_555
O5 Y8 2.350662 1_565
O5 Y4 2.456453 1_555
O6 Y9 2.350662 1_555
O6 Y5 2.456453 1_555
O7 Y11 2.350662 1_455
O7 Y5 2.456453 1_555
O8 Y1 2.350662 1_555
O8 Y6 2.456453 1_555
O9 Y9 2.350662 1_545
O9 Y7 2.456453 1_555
O10 Y10 2.350662 1_555
O10 Y0 2.456453 1_556
O11 Y0 2.350662 1_555
O11 Y4 2.456453 1_555
O12 Y8 2.350662 1_555
O12 Y3 2.456453 1_555
O13 Y11 2.350662 1_555
O13 Y1 2.456453 1_554
O14 Y1 2.350662 1_555
O14 Y7 2.456453 1_555
O15 Y9 2.350662 1_555
O15 Y6 2.456453 1_555
O16 Y2 2.350662 1_565
O16 Y4 2.456453 1_555
O17 Y10 2.350662 1_555
O17 Y3 2.456453 1_555
O18 Y5 2.350662 1_545
O18 Y7 2.456453 1_555
O19 Y11 2.350662 1_555
O19 Y6 2.456453 1_555
O20 Y2 2.350662 1_555
O20 Y3 2.456453 1_655
O21 Y10 2.350662 1_555
O21 Y4 2.456453 1_556
O22 Y5 2.350662 1_555
O22 Y6 2.456453 1_455
O23 Y11 2.350662 1_555
O23 Y7 2.456453 1_554
O24 Y3 2.350662 1_555
O24 Y8 2.456453 1_555
O25 Y4 2.350662 1_555
O25 Y2 2.456453 1_565
O26 Y6 2.350662 1_555
O26 Y9 2.456453 1_555
O27 Y7 2.350662 1_555
O27 Y5 2.456453 1_545
O28 Y4 2.350662 1_556
O28 Y10 2.456453 1_555
O29 Y3 2.350662 1_555
O29 Y0 2.456453 1_555
O30 Y7 2.350662 1_554
O30 Y11 2.456453 1_555
O31 Y6 2.350662 1_555
O31 Y1 2.456453 1_555
O32 Y4 2.350662 1_555
O32 Y8 2.456453 1_565
O33 Y3 2.350662 1_655
O33 Y2 2.456453 1_555
O34 Y7 2.350662 1_555
O34 Y9 2.456453 1_545
O35 Y6 2.350662 1_455
O35 Y5 2.456453 1_555
O36 Y3 2.350662 1_555
O36 Y10 2.456453 1_555
O37 Y4 2.350662 1_555
O37 Y0 2.456453 1_555
O38 Y6 2.350662 1_555
O38 Y11 2.456453 1_555
O39 Y7 2.350662 1_555
O39 Y1 2.456453 1_555
O40 Y0 2.350662 1_556
O40 Y10 2.456453 1_555
O41 Y1 2.350662 1_554
O41 Y11 2.456453 1_555
O42 Y0 2.350662 1_555
O42 Y8 2.456453 1_555
O43 Y1 2.350662 1_555
O43 Y9 2.456453 1_555
O44 Y2 2.350662 1_555
O44 Y10 2.456453 1_655
O45 Y5 2.350662 1_555
O45 Y11 2.456453 1_455
O46 Y2 2.350662 1_555
O46 Y8 2.456453 1_555
O47 Y5 2.350662 1_555
O47 Y9 2.456453 1_555
