# generated using pymatgen
data_Rb4Sn(Te2O)2
_symmetry_space_group_name_H-M   'P 1'
_cell_length_a   10.11625266
_cell_length_b   10.11625266
_cell_length_c   15.26475090
_cell_angle_alpha   56.39710875
_cell_angle_beta   56.39710875
_cell_angle_gamma   44.33426169
_symmetry_Int_Tables_number   1
_chemical_formula_structural   Rb4Sn(Te2O)2
_chemical_formula_sum   'Rb8 Sn2 Te8 O4'
_cell_volume   875.32650611
_cell_formula_units_Z   2
loop_
 _symmetry_equiv_pos_site_id
 _symmetry_equiv_pos_as_xyz
  1  'x, y, z'
loop_
 _atom_site_type_symbol
 _atom_site_label
 _atom_site_symmetry_multiplicity
 _atom_site_fract_x
 _atom_site_fract_y
 _atom_site_fract_z
 _atom_site_occupancy
  Rb  Rb0  1  0.59633400  0.81612300  0.67735400  1
  Rb  Rb1  1  0.18387700  0.40366600  0.82264600  1
  Rb  Rb2  1  0.40366600  0.18387700  0.32264600  1
  Rb  Rb3  1  0.81612300  0.59633400  0.17735400  1
  Rb  Rb4  1  0.70692200  0.11887100  0.00450700  1
  Rb  Rb5  1  0.88112900  0.29307800  0.49549300  1
  Rb  Rb6  1  0.29307800  0.88112900  0.99549300  1
  Rb  Rb7  1  0.11887100  0.70692200  0.50450700  1
  Sn  Sn0  1  0.12553500  0.87446500  0.75000000  1
  Sn  Sn1  1  0.87446500  0.12553500  0.25000000  1
  Te  Te0  1  0.04532000  0.22770600  0.72641400  1
  Te  Te1  1  0.77229400  0.95468000  0.77358600  1
  Te  Te2  1  0.95468000  0.77229400  0.27358600  1
  Te  Te3  1  0.22770600  0.04532000  0.22641400  1
  Te  Te4  1  0.24329000  0.61554700  0.93925300  1
  Te  Te5  1  0.38445300  0.75671000  0.56074700  1
  Te  Te6  1  0.75671000  0.38445300  0.06074700  1
  Te  Te7  1  0.61554700  0.24329000  0.43925300  1
  O  O0  1  0.88392300  0.74771700  0.72096400  1
  O  O1  1  0.25228300  0.11607700  0.77903600  1
  O  O2  1  0.11607700  0.25228300  0.27903600  1
  O  O3  1  0.74771700  0.88392300  0.22096400  1
loop_
_geom_bond_atom_site_label_1
_geom_bond_atom_site_label_2
_geom_bond_distance
_geom_bond_site_symmetry_2
Rb0 Te7 3.867387 1_565
Rb0 Sn0 3.888297 1_555
Rb0 Te5 3.920973 1_555
Rb1 Te6 3.867387 1_456
Rb1 Sn0 3.888297 1_555
Rb1 Te4 3.920973 1_555
Rb2 Te5 3.867387 1_545
Rb2 Sn1 3.888297 1_555
Rb2 Te7 3.920973 1_555
Rb3 Te4 3.867387 1_654
Rb3 Sn1 3.888297 1_555
Rb3 Te6 3.920973 1_555
Rb4 Te6 3.629935 1_555
Rb4 Te4 3.762318 1_554
Rb4 Te4 4.058097 1_644
Rb4 Sn0 4.072223 1_644
Rb5 Te7 3.629935 1_555
Rb5 Te5 3.762318 1_555
Rb5 Te5 4.058097 1_645
Rb5 Sn0 4.072223 1_645
Rb6 Te4 3.629935 1_555
Rb6 Te6 3.762318 1_556
Rb6 Te6 4.058097 1_466
Rb6 Sn1 4.072223 1_466
Rb7 Te5 3.629935 1_555
Rb7 Te7 3.762318 1_555
Rb7 Te7 4.058097 1_465
Rb7 Sn1 4.072223 1_465
Sn0 Te5 2.755992 1_555
Sn0 Te4 2.755992 1_555
Sn0 Te1 2.882511 1_455
Sn0 Te0 2.882511 1_565
Sn1 Te7 2.755992 1_555
Sn1 Te6 2.755992 1_555
Sn1 Te3 2.882511 1_655
Sn1 Te2 2.882511 1_545
O0 Te1 1.944012 1_555
O0 Rb1 2.802837 1_655
O0 Rb0 2.853047 1_555
O0 Rb7 2.854908 1_655
O1 Te0 1.944012 1_555
O1 Rb0 2.802837 1_545
O1 Rb1 2.853047 1_555
O1 Rb6 2.854908 1_545
O2 Te3 1.944012 1_555
O2 Rb3 2.802837 1_455
O2 Rb2 2.853047 1_555
O2 Rb5 2.854908 1_455
O3 Te2 1.944012 1_555
O3 Rb2 2.802837 1_565
O3 Rb3 2.853047 1_555
O3 Rb4 2.854908 1_565
