# generated using pymatgen
data_MnSN2O4F3
_symmetry_space_group_name_H-M   'P 1'
_cell_length_a   11.65491600
_cell_length_b   7.25456500
_cell_length_c   9.30274965
_cell_angle_alpha   88.38296370
_cell_angle_beta   90.00000000
_cell_angle_gamma   90.00000000
_symmetry_Int_Tables_number   1
_chemical_formula_structural   MnSN2O4F3
_chemical_formula_sum   'Mn4 S4 N8 O16 F12'
_cell_volume   786.24676840
_cell_formula_units_Z   4
loop_
 _symmetry_equiv_pos_site_id
 _symmetry_equiv_pos_as_xyz
  1  'x, y, z'
loop_
 _atom_site_type_symbol
 _atom_site_label
 _atom_site_symmetry_multiplicity
 _atom_site_fract_x
 _atom_site_fract_y
 _atom_site_fract_z
 _atom_site_occupancy
  Mn  Mn0  1  0.00000000  0.00000000  0.00000000  1
  Mn  Mn1  1  0.50000000  0.00000000  0.50000000  1
  Mn  Mn2  1  0.00000000  0.50000000  0.00000000  1
  Mn  Mn3  1  0.50000000  0.50000000  0.50000000  1
  S  S0  1  0.97479300  0.25872300  0.29280100  1
  S  S1  1  0.02520700  0.74127700  0.70719900  1
  S  S2  1  0.47479300  0.74127700  0.20719900  1
  S  S3  1  0.52520700  0.25872300  0.79280100  1
  N  N0  1  0.65880800  0.07560500  0.14648800  1
  N  N1  1  0.34119200  0.92439500  0.85351200  1
  N  N2  1  0.15880800  0.92439500  0.35351200  1
  N  N3  1  0.84119200  0.07560500  0.64648800  1
  N  N4  1  0.31805000  0.30127200  0.16235800  1
  N  N5  1  0.68195000  0.69872800  0.83764200  1
  N  N6  1  0.81805000  0.69872800  0.33764200  1
  N  N7  1  0.18195000  0.30127200  0.66235800  1
  O  O0  1  0.05831900  0.37884700  0.22116100  1
  O  O1  1  0.94168100  0.62115300  0.77883900  1
  O  O2  1  0.55831900  0.62115300  0.27883900  1
  O  O3  1  0.44168100  0.37884700  0.72116100  1
  O  O4  1  0.56863100  0.09998800  0.71645200  1
  O  O5  1  0.43136900  0.90001200  0.28354800  1
  O  O6  1  0.06863100  0.90001200  0.78354800  1
  O  O7  1  0.93136900  0.09998800  0.21645200  1
  O  O8  1  0.14509700  0.07133800  0.39325100  1
  O  O9  1  0.85490300  0.92866200  0.60674900  1
  O  O10  1  0.64509700  0.92866200  0.10674900  1
  O  O11  1  0.35490300  0.07133800  0.89325100  1
  O  O12  1  0.41295200  0.68067100  0.08365700  1
  O  O13  1  0.58704800  0.31932900  0.91634300  1
  O  O14  1  0.91295200  0.31932900  0.41634300  1
  O  O15  1  0.08704800  0.68067100  0.58365700  1
  F  F0  1  0.14470600  0.01977000  0.07099700  1
  F  F1  1  0.85529400  0.98023000  0.92900300  1
  F  F2  1  0.64470600  0.98023000  0.42900300  1
  F  F3  1  0.35529400  0.01977000  0.57099700  1
  F  F4  1  0.49432500  0.25429000  0.42453000  1
  F  F5  1  0.50567500  0.74571000  0.57547000  1
  F  F6  1  0.99432500  0.74571000  0.07547000  1
  F  F7  1  0.00567500  0.25429000  0.92453000  1
  F  F8  1  0.36143500  0.55194000  0.41667300  1
  F  F9  1  0.63856500  0.44806000  0.58332700  1
  F  F10  1  0.86143500  0.44806000  0.08332700  1
  F  F11  1  0.13856500  0.55194000  0.91667300  1
loop_
_geom_bond_atom_site_label_1
_geom_bond_atom_site_label_2
_geom_bond_distance
_geom_bond_site_symmetry_2
Mn0 O6 2.302823 1_544
Mn0 O7 2.302823 1_455
Mn1 O5 2.302823 1_545
Mn1 O4 2.302823 1_555
Mn2 O0 2.316321 1_555
Mn2 O1 2.316321 1_454
Mn3 O2 2.316321 1_555
Mn3 O3 2.316321 1_555
N0 O10 1.149267 1_545
N1 O11 1.149267 1_565
N2 O8 1.149267 1_565
N3 O9 1.149267 1_545
O0 S0 1.455499 1_455
O1 S1 1.455499 1_655
O2 S2 1.455499 1_555
O3 S3 1.455499 1_555
O4 S3 1.460424 1_555
O5 S2 1.460424 1_555
O6 S1 1.460424 1_555
O7 S0 1.460424 1_555
O12 S2 1.436021 1_555
O13 S3 1.436021 1_555
O14 S0 1.436021 1_555
O15 S1 1.436021 1_555
F0 Mn0 1.818389 1_555
F1 Mn0 1.818389 1_666
F2 Mn1 1.818389 1_565
F3 Mn1 1.818389 1_555
F4 Mn3 1.935276 1_555
F4 Mn1 1.956360 1_555
F5 Mn3 1.935276 1_555
F5 Mn1 1.956360 1_565
F6 Mn2 1.935276 1_655
F6 Mn0 1.956360 1_665
F7 Mn2 1.935276 1_556
F7 Mn0 1.956360 1_556
F8 Mn3 1.826059 1_555
F9 Mn3 1.826059 1_555
F10 Mn2 1.826059 1_655
F11 Mn2 1.826059 1_556
