# generated using pymatgen
data_V3Co10AsO20
_symmetry_space_group_name_H-M   'P 1'
_cell_length_a   10.18852588
_cell_length_b   10.18852588
_cell_length_c   14.75524914
_cell_angle_alpha   62.14801793
_cell_angle_beta   62.14801793
_cell_angle_gamma   35.15287070
_symmetry_Int_Tables_number   1
_chemical_formula_structural   V3Co10AsO20
_chemical_formula_sum   'V6 Co20 As2 O40'
_cell_volume   768.72311941
_cell_formula_units_Z   2
loop_
 _symmetry_equiv_pos_site_id
 _symmetry_equiv_pos_as_xyz
  1  'x, y, z'
loop_
 _atom_site_type_symbol
 _atom_site_label
 _atom_site_symmetry_multiplicity
 _atom_site_fract_x
 _atom_site_fract_y
 _atom_site_fract_z
 _atom_site_occupancy
  V  V0  1  0.99212500  0.99212500  0.37348400  1
  V  V1  1  0.00787500  0.00787500  0.62651600  1
  V  V2  1  0.60412200  0.60412200  0.22435300  1
  V  V3  1  0.39587800  0.39587800  0.77564700  1
  V  V4  1  0.89970600  0.89970600  0.02690400  1
  V  V5  1  0.10029400  0.10029400  0.97309600  1
  Co  Co0  1  0.80617100  0.80617100  0.79938200  1
  Co  Co1  1  0.19382900  0.19382900  0.20061800  1
  Co  Co2  1  0.38839300  0.89213300  0.40296900  1
  Co  Co3  1  0.61160700  0.10786700  0.59703100  1
  Co  Co4  1  0.10786700  0.61160700  0.59703100  1
  Co  Co5  1  0.89213300  0.38839300  0.40296900  1
  Co  Co6  1  0.40557600  0.40557600  0.39514400  1
  Co  Co7  1  0.59442400  0.59442400  0.60485600  1
  Co  Co8  1  0.79525600  0.79525600  0.29339700  1
  Co  Co9  1  0.20474400  0.20474400  0.70660300  1
  Co  Co10  1  0.38796300  0.38796300  0.03604300  1
  Co  Co11  1  0.61203700  0.61203700  0.96395700  1
  Co  Co12  1  0.70644400  0.20661900  0.19224000  1
  Co  Co13  1  0.29355600  0.79338100  0.80776000  1
  Co  Co14  1  0.79338100  0.29355600  0.80776000  1
  Co  Co15  1  0.20661900  0.70644400  0.19224000  1
  Co  Co16  1  0.50000000  0.00000000  0.50000000  1
  Co  Co17  1  0.00000000  0.50000000  0.50000000  1
  Co  Co18  1  0.50000000  0.00000000  0.00000000  1
  Co  Co19  1  0.00000000  0.50000000  0.00000000  1
  As  As0  1  0.70208300  0.70208300  0.70193100  1
  As  As1  1  0.29791700  0.29791700  0.29806900  1
  O  O0  1  0.69722800  0.69722800  0.45216600  1
  O  O1  1  0.30277200  0.30277200  0.54783400  1
  O  O2  1  0.98931400  0.98931400  0.25730900  1
  O  O3  1  0.01068600  0.01068600  0.74269100  1
  O  O4  1  0.42136400  0.88076200  0.15505200  1
  O  O5  1  0.57863600  0.11923800  0.84494800  1
  O  O6  1  0.11923800  0.57863600  0.84494800  1
  O  O7  1  0.88076200  0.42136400  0.15505200  1
  O  O8  1  0.89893300  0.89893300  0.15102200  1
  O  O9  1  0.10106700  0.10106700  0.84897800  1
  O  O10  1  0.50240900  0.50240900  0.24571800  1
  O  O11  1  0.49759100  0.49759100  0.75428200  1
  O  O12  1  0.56259300  0.12723400  0.34035000  1
  O  O13  1  0.43740700  0.87276600  0.65965000  1
  O  O14  1  0.87276600  0.43740700  0.65965000  1
  O  O15  1  0.12723400  0.56259300  0.34035000  1
  O  O16  1  0.39242800  0.39242800  0.16768700  1
  O  O17  1  0.60757200  0.60757200  0.83231300  1
  O  O18  1  0.71232100  0.17721700  0.44407700  1
  O  O19  1  0.28767900  0.82278300  0.55592300  1
  O  O20  1  0.82278300  0.28767900  0.55592300  1
  O  O21  1  0.17721700  0.71232100  0.44407700  1
  O  O22  1  0.90760200  0.90760200  0.64858800  1
  O  O23  1  0.09239800  0.09239800  0.35141200  1
  O  O24  1  0.78948900  0.78948900  0.56384700  1
  O  O25  1  0.21051100  0.21051100  0.43615300  1
  O  O26  1  0.60508000  0.60508000  0.34308900  1
  O  O27  1  0.39492000  0.39492000  0.65691100  1
  O  O28  1  0.46285600  0.03307800  0.26422100  1
  O  O29  1  0.53714400  0.96692200  0.73577900  1
  O  O30  1  0.96692200  0.53714400  0.73577900  1
  O  O31  1  0.03307800  0.46285600  0.26422100  1
  O  O32  1  0.28420700  0.28420700  0.05331000  1
  O  O33  1  0.71579300  0.71579300  0.94669000  1
  O  O34  1  0.28862500  0.81681000  0.04338200  1
  O  O35  1  0.71137500  0.18319000  0.95661900  1
  O  O36  1  0.18319000  0.71137500  0.95661900  1
  O  O37  1  0.81681000  0.28862500  0.04338200  1
  O  O38  1  0.80623200  0.80623200  0.04574700  1
  O  O39  1  0.19376800  0.19376800  0.95425300  1
loop_
_geom_bond_atom_site_label_1
_geom_bond_atom_site_label_2
_geom_bond_distance
_geom_bond_site_symmetry_2
Co0 O33 2.016555 1_555
Co0 O6 2.110958 1_655
Co0 O5 2.110958 1_565
Co0 O22 2.129791 1_555
Co0 O29 2.168548 1_555
Co0 O30 2.168548 1_555
Co1 O32 2.016555 1_555
Co1 O7 2.110958 1_455
Co1 O4 2.110958 1_545
Co1 O23 2.129791 1_555
Co1 O31 2.168548 1_555
Co1 O28 2.168548 1_555
Co2 O19 2.043868 1_555
Co2 O26 2.059539 1_555
Co2 O28 2.100545 1_565
Co2 O23 2.113724 1_565
Co2 O0 2.222811 1_555
Co2 O25 2.255680 1_565
Co3 O18 2.043868 1_555
Co3 O27 2.059539 1_555
Co3 O29 2.100545 1_545
Co3 O22 2.113724 1_545
Co3 O1 2.222811 1_555
Co3 O24 2.255680 1_545
Co4 O21 2.043868 1_555
Co4 O27 2.059539 1_555
Co4 O30 2.100545 1_455
Co4 O22 2.113724 1_455
Co4 O1 2.222811 1_555
Co4 O24 2.255680 1_455
Co5 O20 2.043868 1_555
Co5 O26 2.059539 1_555
Co5 O31 2.100545 1_655
Co5 O23 2.113724 1_655
Co5 O0 2.222811 1_555
Co5 O25 2.255680 1_655
Co6 O10 2.081967 1_555
Co6 O18 2.085728 1_555
Co6 O21 2.085728 1_555
Co6 O1 2.157354 1_555
Co6 O15 2.184111 1_555
Co6 O12 2.184111 1_555
Co7 O11 2.081967 1_555
Co7 O19 2.085728 1_555
Co7 O20 2.085728 1_555
Co7 O0 2.157354 1_555
Co7 O14 2.184111 1_555
Co7 O13 2.184111 1_555
Co8 O8 2.079074 1_555
Co8 O28 2.120084 1_565
Co8 O31 2.120084 1_655
Co8 O0 2.177590 1_555
Co8 O15 2.254664 1_655
Co8 O12 2.254664 1_565
Co9 O9 2.079074 1_555
Co9 O30 2.120084 1_455
Co9 O29 2.120084 1_545
Co9 O1 2.177590 1_555
Co9 O13 2.254664 1_545
Co9 O14 2.254664 1_455
Co10 O32 1.903678 1_555
Co10 O16 1.986386 1_555
Co10 O35 2.004620 1_554
Co10 O36 2.004620 1_554
Co11 O33 1.903678 1_555
Co11 O17 1.986386 1_555
Co11 O34 2.004625 1_556
Co11 O37 2.004625 1_556
Co12 O2 2.072395 1_545
Co12 O37 2.073813 1_555
Co12 O10 2.114483 1_555
Co12 O16 2.118720 1_555
Co12 O8 2.158002 1_545
Co12 O12 2.207325 1_555
Co13 O3 2.072395 1_565
Co13 O36 2.073822 1_555
Co13 O11 2.114483 1_555
Co13 O17 2.118720 1_555
Co13 O9 2.158002 1_565
Co13 O13 2.207325 1_555
Co14 O3 2.072395 1_655
Co14 O35 2.073822 1_555
Co14 O11 2.114483 1_555
Co14 O17 2.118720 1_555
Co14 O9 2.158002 1_655
Co14 O14 2.207325 1_555
Co15 O2 2.072395 1_455
Co15 O34 2.073813 1_555
Co15 O10 2.114483 1_555
Co15 O16 2.118720 1_555
Co15 O8 2.158002 1_455
Co15 O15 2.207325 1_555
Co16 O24 2.133263 1_545
Co16 O25 2.133263 1_555
Co16 O1 2.150527 1_555
Co16 O0 2.150527 1_545
Co16 O13 2.175131 1_545
Co16 O12 2.175131 1_555
Co17 O24 2.133263 1_455
Co17 O25 2.133263 1_555
Co17 O1 2.150527 1_555
Co17 O0 2.150527 1_455
Co17 O14 2.175131 1_455
Co17 O15 2.175131 1_555
Co18 O33 1.984728 1_544
Co18 O32 1.984728 1_555
Co18 O4 2.152644 1_545
Co18 O5 2.152644 1_554
Co18 O38 2.176716 1_545
Co18 O39 2.176716 1_554
Co19 O33 1.984728 1_454
Co19 O32 1.984728 1_555
Co19 O6 2.152644 1_554
Co19 O7 2.152644 1_455
Co19 O38 2.176716 1_455
Co19 O39 2.176716 1_554
As0 O30 1.847814 1_555
As0 O29 1.847814 1_555
As0 O14 1.890794 1_555
As0 O13 1.890794 1_555
As0 O17 1.899977 1_555
As0 O24 1.908788 1_555
As1 O28 1.847814 1_555
As1 O31 1.847814 1_555
As1 O12 1.890794 1_555
As1 O15 1.890794 1_555
As1 O16 1.899977 1_555
As1 O25 1.908788 1_555
O2 V0 1.741602 1_555
O3 V1 1.741602 1_555
O4 V2 1.720756 1_555
O5 V3 1.720756 1_555
O6 V3 1.720756 1_555
O7 V2 1.720756 1_555
O8 V4 1.824080 1_555
O9 V5 1.824080 1_555
O10 V2 1.841972 1_555
O11 V3 1.841972 1_555
O18 V0 1.742973 1_545
O19 V1 1.742973 1_565
O20 V1 1.742973 1_655
O21 V0 1.742973 1_455
O22 V1 1.810667 1_665
O23 V0 1.810667 1_445
O26 V2 1.761174 1_555
O27 V3 1.761174 1_555
O34 V5 1.759977 1_564
O35 V4 1.759972 1_546
O36 V4 1.759972 1_456
O37 V5 1.759977 1_654
O38 V4 1.696943 1_555
O39 V5 1.696943 1_555
