# generated using pymatgen
data_Hf3I
_symmetry_space_group_name_H-M   'P 1'
_cell_length_a   6.25065746
_cell_length_b   6.25065746
_cell_length_c   5.33279600
_cell_angle_alpha   90.00000000
_cell_angle_beta   90.00000000
_cell_angle_gamma   119.99999433
_symmetry_Int_Tables_number   1
_chemical_formula_structural   Hf3I
_chemical_formula_sum   'Hf6 I2'
_cell_volume   180.44174882
_cell_formula_units_Z   2
loop_
 _symmetry_equiv_pos_site_id
 _symmetry_equiv_pos_as_xyz
  1  'x, y, z'
loop_
 _atom_site_type_symbol
 _atom_site_label
 _atom_site_symmetry_multiplicity
 _atom_site_fract_x
 _atom_site_fract_y
 _atom_site_fract_z
 _atom_site_occupancy
  Hf  Hf0  1  0.83849200  0.16150800  0.75000000  1
  Hf  Hf1  1  0.32301600  0.16150800  0.75000000  1
  Hf  Hf2  1  0.83849200  0.67698400  0.75000000  1
  Hf  Hf3  1  0.16150800  0.83849200  0.25000000  1
  Hf  Hf4  1  0.67698400  0.83849200  0.25000000  1
  Hf  Hf5  1  0.16150800  0.32301600  0.25000000  1
  I  I0  1  0.66666700  0.33333300  0.25000000  1
  I  I1  1  0.33333300  0.66666700  0.75000000  1
loop_
_geom_bond_atom_site_label_1
_geom_bond_atom_site_label_2
_geom_bond_distance
_geom_bond_site_symmetry_2
Hf0 I1 3.125828 1_545
Hf0 I1 3.125828 1_655
Hf0 I0 3.251189 1_555
Hf0 I0 3.251189 1_556
Hf1 I1 3.125825 1_545
Hf1 I1 3.125831 1_555
Hf1 I0 3.251192 1_555
Hf1 I0 3.251192 1_556
Hf2 I1 3.125825 1_655
Hf2 I1 3.125831 1_555
Hf2 I0 3.251192 1_555
Hf2 I0 3.251192 1_556
Hf3 I0 3.125828 1_455
Hf3 I0 3.125828 1_565
Hf3 I1 3.251189 1_554
Hf3 I1 3.251189 1_555
Hf4 I0 3.125825 1_565
Hf4 I0 3.125831 1_555
Hf4 I1 3.251192 1_554
Hf4 I1 3.251192 1_555
Hf5 I0 3.125825 1_455
Hf5 I0 3.125831 1_555
Hf5 I1 3.251192 1_555
Hf5 I1 3.251192 1_554
