# generated using pymatgen
data_SbH6C(NCl2)3
_symmetry_space_group_name_H-M   'P 1'
_cell_length_a   7.89179568
_cell_length_b   7.70970980
_cell_length_c   14.37023096
_cell_angle_alpha   72.91173048
_cell_angle_beta   72.77056237
_cell_angle_gamma   66.05424537
_symmetry_Int_Tables_number   1
_chemical_formula_structural   SbH6C(NCl2)3
_chemical_formula_sum   'Sb2 H12 C2 N6 Cl12'
_cell_volume   747.97315273
_cell_formula_units_Z   2
loop_
 _symmetry_equiv_pos_site_id
 _symmetry_equiv_pos_as_xyz
  1  'x, y, z'
loop_
 _atom_site_type_symbol
 _atom_site_label
 _atom_site_symmetry_multiplicity
 _atom_site_fract_x
 _atom_site_fract_y
 _atom_site_fract_z
 _atom_site_occupancy
  Sb  Sb0  1  0.00000000  0.00000000  0.00000000  1
  Sb  Sb1  1  0.50000000  0.50000000  0.50000000  1
  H  H0  1  0.42150800  0.14221600  0.14472000  1
  H  H1  1  0.14227700  0.42076000  0.14398400  1
  H  H2  1  0.57849200  0.85778400  0.85528000  1
  H  H3  1  0.85772300  0.57924000  0.85601600  1
  H  H4  1  0.26183300  0.05821100  0.40655800  1
  H  H5  1  0.05777600  0.26230900  0.40621500  1
  H  H6  1  0.73816700  0.94178900  0.59344200  1
  H  H7  1  0.94222400  0.73769100  0.59378500  1
  H  H8  1  0.46949700  0.98938900  0.25679900  1
  H  H9  1  0.99115000  0.47174800  0.25574300  1
  H  H10  1  0.53050300  0.01061100  0.74320100  1
  H  H11  1  0.00885000  0.52825200  0.74425700  1
  C  C0  1  0.22403900  0.22455500  0.26862900  1
  C  C1  1  0.77596100  0.77544500  0.73137100  1
  N  N0  1  0.18059600  0.18094300  0.36793300  1
  N  N1  1  0.81940400  0.81905700  0.63206700  1
  N  N2  1  0.11029700  0.38236300  0.21909400  1
  N  N3  1  0.38217300  0.10951700  0.21967700  1
  N  N4  1  0.88970300  0.61763700  0.78090600  1
  N  N5  1  0.61782700  0.89048300  0.78032300  1
  Cl  Cl0  1  0.79782500  0.81153900  0.03577800  1
  Cl  Cl1  1  0.20217500  0.18846100  0.96422200  1
  Cl  Cl2  1  0.65433300  0.24809800  0.40474800  1
  Cl  Cl3  1  0.25453200  0.65401000  0.40470700  1
  Cl  Cl4  1  0.34566700  0.75190200  0.59525200  1
  Cl  Cl5  1  0.74546800  0.34599000  0.59529300  1
  Cl  Cl6  1  0.68367300  0.68889200  0.38143300  1
  Cl  Cl7  1  0.31632700  0.31110800  0.61856700  1
  Cl  Cl8  1  0.72358800  0.28827900  0.01846000  1
  Cl  Cl9  1  0.27641200  0.71172100  0.98154000  1
  Cl  Cl10  1  0.99734900  0.93462900  0.17436000  1
  Cl  Cl11  1  0.00265100  0.06537100  0.82564000  1
loop_
_geom_bond_atom_site_label_1
_geom_bond_atom_site_label_2
_geom_bond_distance
_geom_bond_site_symmetry_2
H0 N3 1.012929 1_555
H1 N2 1.013814 1_555
H2 N5 1.012929 1_555
H3 N4 1.013814 1_555
H4 N0 1.012008 1_555
H5 N0 1.014397 1_555
H6 N1 1.012008 1_555
H7 N1 1.014397 1_555
H8 N3 1.013202 1_565
H9 N2 1.015058 1_655
H10 N5 1.013202 1_545
H11 N4 1.015058 1_455
C0 N2 1.332564 1_555
C0 N3 1.336788 1_555
C0 N0 1.337442 1_555
C1 N4 1.332564 1_555
C1 N5 1.336788 1_555
C1 N1 1.337442 1_555
Cl0 Sb0 2.424467 1_665
Cl1 Sb0 2.424467 1_556
Cl2 Sb1 2.404852 1_555
Cl3 Sb1 2.405519 1_555
Cl4 Sb1 2.404852 1_555
Cl5 Sb1 2.405519 1_555
Cl6 Sb1 2.432527 1_555
Cl7 Sb1 2.432527 1_555
Cl8 Sb0 2.415928 1_655
Cl9 Sb0 2.415928 1_566
Cl10 Sb0 2.401628 1_665
Cl11 Sb0 2.401628 1_556
