# generated using pymatgen
data_CsLa(SO6)2
_symmetry_space_group_name_H-M   'P 1'
_cell_length_a   20.29575700
_cell_length_b   6.52541500
_cell_length_c   8.89366854
_cell_angle_alpha   87.79645057
_cell_angle_beta   90.00000000
_cell_angle_gamma   90.00000000
_symmetry_Int_Tables_number   1
_chemical_formula_structural   CsLa(SO6)2
_chemical_formula_sum   'Cs4 La4 S8 O48'
_cell_volume   1176.99079800
_cell_formula_units_Z   4
loop_
 _symmetry_equiv_pos_site_id
 _symmetry_equiv_pos_as_xyz
  1  'x, y, z'
loop_
 _atom_site_type_symbol
 _atom_site_label
 _atom_site_symmetry_multiplicity
 _atom_site_fract_x
 _atom_site_fract_y
 _atom_site_fract_z
 _atom_site_occupancy
  Cs  Cs0  1  0.70913500  0.86450900  0.63218700  1
  Cs  Cs1  1  0.20913500  0.13549100  0.86781300  1
  Cs  Cs2  1  0.29086500  0.13549100  0.36781300  1
  Cs  Cs3  1  0.79086500  0.86450900  0.13218700  1
  La  La0  1  0.36460600  0.61671700  0.71194000  1
  La  La1  1  0.86460600  0.38328300  0.78806000  1
  La  La2  1  0.63539400  0.38328300  0.28806000  1
  La  La3  1  0.13539400  0.61671700  0.21194000  1
  S  S0  1  0.93042000  0.81800000  0.79067500  1
  S  S1  1  0.43042000  0.18200000  0.70932500  1
  S  S2  1  0.06958000  0.18200000  0.20932500  1
  S  S3  1  0.56958000  0.81800000  0.29067500  1
  S  S4  1  0.21556900  0.61937400  0.60597700  1
  S  S5  1  0.71556900  0.38062600  0.89402300  1
  S  S6  1  0.78443100  0.38062600  0.39402300  1
  S  S7  1  0.28443100  0.61937400  0.10597700  1
  O  O0  1  0.39476500  0.98035900  0.68451400  1
  O  O1  1  0.89476500  0.01964100  0.81548600  1
  O  O2  1  0.60523500  0.01964100  0.31548600  1
  O  O3  1  0.10523500  0.98035900  0.18451400  1
  O  O4  1  0.00031800  0.85142400  0.76781200  1
  O  O5  1  0.50031800  0.14857600  0.73218800  1
  O  O6  1  0.99968200  0.14857600  0.23218800  1
  O  O7  1  0.49968200  0.85142400  0.26781200  1
  O  O8  1  0.89644500  0.72413800  0.65936100  1
  O  O9  1  0.39644500  0.27586200  0.84063900  1
  O  O10  1  0.10355500  0.27586200  0.34063900  1
  O  O11  1  0.60355500  0.72413800  0.15936100  1
  O  O12  1  0.91640000  0.67341100  0.92312300  1
  O  O13  1  0.41640000  0.32658900  0.57687700  1
  O  O14  1  0.08360000  0.32658900  0.07687700  1
  O  O15  1  0.58360000  0.67341100  0.42312300  1
  O  O16  1  0.25749300  0.80566900  0.63246600  1
  O  O17  1  0.75749300  0.19433100  0.86753400  1
  O  O18  1  0.74250700  0.19433100  0.36753400  1
  O  O19  1  0.24250700  0.80566900  0.13246600  1
  O  O20  1  0.31045500  0.63641200  0.94864000  1
  O  O21  1  0.81045500  0.36358800  0.55136000  1
  O  O22  1  0.68954500  0.36358800  0.05136000  1
  O  O23  1  0.18954500  0.63641200  0.44864000  1
  O  O24  1  0.16293900  0.59138600  0.71564500  1
  O  O25  1  0.66293900  0.40861400  0.78435500  1
  O  O26  1  0.83706100  0.40861400  0.28435500  1
  O  O27  1  0.33706100  0.59138600  0.21564500  1
  O  O28  1  0.76430600  0.55787300  0.88319600  1
  O  O29  1  0.26430600  0.44212700  0.61680400  1
  O  O30  1  0.23569400  0.44212700  0.11680400  1
  O  O31  1  0.73569400  0.55787300  0.38319600  1
  O  O32  1  0.57531400  0.82376100  0.83721600  1
  O  O33  1  0.07531400  0.17623900  0.66278400  1
  O  O34  1  0.42468600  0.17623900  0.16278400  1
  O  O35  1  0.92468600  0.82376100  0.33721600  1
  O  O36  1  0.10830200  0.80599400  0.96413300  1
  O  O37  1  0.60830200  0.19400600  0.53586700  1
  O  O38  1  0.89169800  0.19400600  0.03586700  1
  O  O39  1  0.39169800  0.80599400  0.46413300  1
  O  O40  1  0.47640300  0.70080900  0.87672800  1
  O  O41  1  0.97640300  0.29919100  0.62327200  1
  O  O42  1  0.52359700  0.29919100  0.12327200  1
  O  O43  1  0.02359700  0.70080900  0.37672800  1
  O  O44  1  0.53115500  0.70120500  0.79811900  1
  O  O45  1  0.03115500  0.29879500  0.70188100  1
  O  O46  1  0.46884500  0.29879500  0.20188100  1
  O  O47  1  0.96884500  0.70120500  0.29811900  1
loop_
_geom_bond_atom_site_label_1
_geom_bond_atom_site_label_2
_geom_bond_distance
_geom_bond_site_symmetry_2
Cs0 O37 3.066469 1_565
Cs0 O31 3.088489 1_555
Cs0 O28 3.146044 1_555
Cs0 O18 3.200210 1_565
Cs0 O17 3.212915 1_565
Cs0 O32 3.276442 1_555
Cs0 O25 3.354254 1_555
Cs0 O15 3.417877 1_555
Cs1 O36 3.066469 1_545
Cs1 O30 3.088489 1_556
Cs1 O29 3.146044 1_555
Cs1 O19 3.200210 1_546
Cs1 O16 3.212915 1_545
Cs1 O33 3.276442 1_555
Cs1 O24 3.354254 1_555
Cs1 O14 3.417877 1_556
Cs2 O39 3.066469 1_545
Cs2 O29 3.088489 1_555
Cs2 O30 3.146044 1_555
Cs2 O16 3.200210 1_545
Cs2 O19 3.212915 1_545
Cs2 O34 3.276442 1_555
Cs2 O27 3.354254 1_555
Cs2 O13 3.417877 1_555
Cs3 O38 3.066469 1_565
Cs3 O28 3.088489 1_554
Cs3 O31 3.146044 1_555
Cs3 O17 3.200210 1_564
Cs3 O18 3.212915 1_565
Cs3 O35 3.276442 1_555
Cs3 O26 3.354254 1_555
Cs3 O12 3.417877 1_554
La0 O20 2.382599 1_555
La0 O0 2.453646 1_555
La0 O29 2.496377 1_555
La0 O13 2.511378 1_555
La0 O39 2.544748 1_555
La0 O9 2.545403 1_555
La0 O16 2.584347 1_555
La0 O40 2.767532 1_555
La1 O21 2.382599 1_555
La1 O1 2.453646 1_555
La1 O28 2.496377 1_555
La1 O12 2.511378 1_555
La1 O38 2.544748 1_556
La1 O8 2.545403 1_555
La1 O17 2.584347 1_555
La1 O41 2.767532 1_555
La2 O22 2.382599 1_555
La2 O2 2.453646 1_555
La2 O31 2.496377 1_555
La2 O15 2.511378 1_555
La2 O37 2.544748 1_555
La2 O11 2.545403 1_555
La2 O18 2.584347 1_555
La2 O42 2.767532 1_555
La3 O23 2.382599 1_555
La3 O3 2.453646 1_555
La3 O30 2.496377 1_555
La3 O14 2.511378 1_555
La3 O36 2.544748 1_554
La3 O10 2.545403 1_555
La3 O19 2.584347 1_555
La3 O43 2.767532 1_555
O0 S1 1.525119 1_565
O1 S0 1.525119 1_545
O2 S3 1.525119 1_545
O3 S2 1.525119 1_565
O4 S0 1.448456 1_455
O5 S1 1.448456 1_555
O6 S2 1.448456 1_655
O7 S3 1.448456 1_555
O8 S0 1.506496 1_555
O9 S1 1.506496 1_555
O10 S2 1.506496 1_555
O11 S3 1.506496 1_555
O12 S0 1.507734 1_555
O13 S1 1.507734 1_555
O14 S2 1.507734 1_555
O15 S3 1.507734 1_555
O16 S4 1.509745 1_555
O17 S5 1.509745 1_555
O18 S6 1.509745 1_555
O19 S7 1.509745 1_555
O20 S7 1.495800 1_556
O21 S6 1.495800 1_555
O22 S5 1.495800 1_554
O23 S4 1.495800 1_555
O24 S4 1.453253 1_555
O25 S5 1.453253 1_555
O26 S6 1.453253 1_555
O27 S7 1.453253 1_555
O28 S5 1.522130 1_555
O29 S4 1.522130 1_555
O30 S7 1.522130 1_555
O31 S6 1.522130 1_555
O32 O44 1.259009 1_555
O33 O45 1.259009 1_555
O34 O46 1.259009 1_555
O35 O47 1.259009 1_555
O40 O44 1.312814 1_555
O41 O45 1.312814 1_655
O42 O46 1.312814 1_555
O43 O47 1.312814 1_455
