# generated using pymatgen
data_DyTiFe11
_symmetry_space_group_name_H-M   'P 1'
_cell_length_a   4.71998100
_cell_length_b   6.43946032
_cell_length_c   6.43946032
_cell_angle_alpha   97.39503869
_cell_angle_beta   111.49923394
_cell_angle_gamma   68.50076606
_symmetry_Int_Tables_number   1
_chemical_formula_structural   DyTiFe11
_chemical_formula_sum   'Dy1 Ti1 Fe11'
_cell_volume   169.43006239
_cell_formula_units_Z   1
loop_
 _symmetry_equiv_pos_site_id
 _symmetry_equiv_pos_as_xyz
  1  'x, y, z'
loop_
 _atom_site_type_symbol
 _atom_site_label
 _atom_site_symmetry_multiplicity
 _atom_site_fract_x
 _atom_site_fract_y
 _atom_site_fract_z
 _atom_site_occupancy
  Dy  Dy0  1  0.00615700  0.99384300  0.00615700  1
  Ti  Ti0  1  0.63188700  0.36811300  0.63188700  1
  Fe  Fe0  1  0.72864700  0.77135300  0.22864700  1
  Fe  Fe1  1  0.27575700  0.22424300  0.77575700  1
  Fe  Fe2  1  0.49919500  0.77891100  0.77730000  1
  Fe  Fe3  1  0.49919500  0.22270000  0.22108900  1
  Fe  Fe4  1  0.50021900  0.99791500  0.50013100  1
  Fe  Fe5  1  0.00199600  0.99791500  0.50013100  1
  Fe  Fe6  1  0.50021900  0.49986900  0.00208500  1
  Fe  Fe7  1  0.00199600  0.49986900  0.00208500  1
  Fe  Fe8  1  0.35431500  0.64568500  0.35431500  1
  Fe  Fe9  1  0.00020800  0.35652600  0.35694100  1
  Fe  Fe10  1  0.00020800  0.64305900  0.64347400  1
loop_
_geom_bond_atom_site_label_1
_geom_bond_atom_site_label_2
_geom_bond_distance
_geom_bond_site_symmetry_2
Dy0 Fe8 2.940429 1_555
Dy0 Fe0 3.016702 1_455
Dy0 Fe0 3.016702 1_555
Dy0 Fe2 3.021726 1_454
Dy0 Fe3 3.021726 1_465
Dy0 Fe2 3.021730 1_554
Dy0 Fe3 3.021730 1_565
Dy0 Fe10 3.032839 1_554
Dy0 Fe9 3.032839 1_565
Dy0 Fe1 3.058761 1_564
Dy0 Fe1 3.058761 1_464
Dy0 Ti0 3.160962 1_464
Dy0 Fe6 3.184854 1_555
Dy0 Fe4 3.184854 1_555
Dy0 Fe7 3.184856 1_555
Dy0 Fe5 3.184856 1_555
Dy0 Fe7 3.254816 1_565
Dy0 Fe5 3.254816 1_554
Dy0 Fe6 3.254818 1_465
Dy0 Fe4 3.254818 1_454
Fe0 Fe7 2.432949 1_655
Fe0 Fe5 2.432949 1_655
Fe0 Fe6 2.432951 1_555
Fe0 Fe4 2.432951 1_555
Fe0 Fe8 2.587667 1_555
Fe0 Fe8 2.587667 1_655
Fe0 Fe9 2.596792 1_655
Fe0 Fe10 2.596792 1_655
Fe0 Fe2 2.704295 1_554
Fe0 Fe3 2.704295 1_565
Fe1 Fe6 2.444871 1_556
Fe1 Fe4 2.444871 1_545
Fe1 Fe7 2.444873 1_556
Fe1 Fe5 2.444873 1_545
Fe1 Fe9 2.626595 1_555
Fe1 Fe10 2.626595 1_555
Fe1 Ti0 2.654425 1_555
Fe1 Ti0 2.654425 1_455
Fe1 Fe2 2.668127 1_545
Fe1 Fe3 2.668127 1_556
Fe2 Fe4 2.415309 1_555
Fe2 Fe5 2.415314 1_555
Fe2 Fe7 2.445826 1_656
Fe2 Fe6 2.445831 1_556
Fe2 Ti0 2.616223 1_555
Fe2 Fe8 2.661938 1_555
Fe3 Fe6 2.415309 1_555
Fe3 Fe7 2.415314 1_555
Fe3 Fe5 2.445826 1_645
Fe3 Fe4 2.445831 1_545
Fe3 Ti0 2.616223 1_555
Fe3 Fe9 2.623625 1_555
Fe3 Fe9 2.623625 1_655
Fe3 Fe8 2.661938 1_555
Fe4 Fe5 2.351603 1_555
Fe4 Fe5 2.368378 1_655
Fe4 Fe8 2.573565 1_555
Fe4 Fe9 2.590575 1_565
Fe4 Ti0 2.639643 1_565
Fe5 Fe8 2.573568 1_555
Fe5 Fe9 2.590579 1_565
Fe5 Ti0 2.639641 1_465
Fe6 Fe7 2.351603 1_555
Fe6 Fe7 2.368378 1_655
Fe6 Fe8 2.573565 1_555
Fe6 Fe9 2.576145 1_655
Fe6 Ti0 2.639643 1_554
Fe7 Fe8 2.573568 1_555
Fe7 Fe9 2.576140 1_555
Fe7 Ti0 2.639641 1_454
Fe8 Ti0 2.344283 1_555
Fe8 Fe9 2.927610 1_555
Fe8 Fe9 2.927614 1_655
Fe9 Ti0 2.879149 1_555
Fe9 Ti0 2.879152 1_455
Fe10 Fe9 2.435682 1_555
Fe10 Fe5 2.576140 1_555
Fe10 Fe4 2.576145 1_455
Fe10 Fe6 2.590575 1_556
Fe10 Fe7 2.590579 1_556
Fe10 Fe2 2.623625 1_555
Fe10 Fe2 2.623625 1_455
Fe10 Ti0 2.879149 1_555
Fe10 Ti0 2.879152 1_455
Fe10 Fe8 2.927610 1_555
Fe10 Fe8 2.927614 1_455
