# generated using pymatgen
data_Li9Mn2Co5O16
_symmetry_space_group_name_H-M   'P 1'
_cell_length_a   10.49008358
_cell_length_b   10.49008358
_cell_length_c   9.89375172
_cell_angle_alpha   73.00853777
_cell_angle_beta   73.00853777
_cell_angle_gamma   15.98797105
_symmetry_Int_Tables_number   1
_chemical_formula_structural   Li9Mn2Co5O16
_chemical_formula_sum   'Li9 Mn2 Co5 O16'
_cell_volume   286.51986740
_cell_formula_units_Z   1
loop_
 _symmetry_equiv_pos_site_id
 _symmetry_equiv_pos_as_xyz
  1  'x, y, z'
loop_
 _atom_site_type_symbol
 _atom_site_label
 _atom_site_symmetry_multiplicity
 _atom_site_fract_x
 _atom_site_fract_y
 _atom_site_fract_z
 _atom_site_occupancy
  Li  Li0  1  0.43146200  0.43146200  0.79572800  1
  Li  Li1  1  0.31829900  0.31829900  0.43972700  1
  Li  Li2  1  0.18638800  0.18638800  0.07260300  1
  Li  Li3  1  0.81336000  0.81336000  0.92989900  1
  Li  Li4  1  0.68724600  0.68724600  0.55823800  1
  Li  Li5  1  0.56302300  0.56302300  0.20060400  1
  Li  Li6  1  0.06300200  0.06300200  0.67069100  1
  Li  Li7  1  0.93601700  0.93601700  0.32719300  1
  Li  Li8  1  0.87436500  0.87436500  0.62793800  1
  Mn  Mn0  1  0.00309400  0.00309400  0.99429100  1
  Mn  Mn1  1  0.25201500  0.25201500  0.75104900  1
  Co  Co0  1  0.74810600  0.74810600  0.25549600  1
  Co  Co1  1  0.62623500  0.62623500  0.87364000  1
  Co  Co2  1  0.49000800  0.49000800  0.50795500  1
  Co  Co3  1  0.37295600  0.37295600  0.12493600  1
  Co  Co4  1  0.12063600  0.12063600  0.37883300  1
  O  O0  1  0.53423300  0.53423300  0.85901500  1
  O  O1  1  0.41057800  0.41057800  0.46682300  1
  O  O2  1  0.28379100  0.28379100  0.10243900  1
  O  O3  1  0.91356400  0.91356400  0.97566000  1
  O  O4  1  0.77451600  0.77451600  0.61673200  1
  O  O5  1  0.65733500  0.65733500  0.22459500  1
  O  O6  1  0.15571500  0.15571500  0.74078800  1
  O  O7  1  0.03373900  0.03373900  0.35037900  1
  O  O8  1  0.33349900  0.33349900  0.78503600  1
  O  O9  1  0.21855400  0.21855400  0.39995500  1
  O  O10  1  0.09457600  0.09457600  0.00981700  1
  O  O11  1  0.71565400  0.71565400  0.89101900  1
  O  O12  1  0.59455700  0.59455700  0.52377100  1
  O  O13  1  0.47538600  0.47538600  0.13017100  1
  O  O14  1  0.97064800  0.97064800  0.64907400  1
  O  O15  1  0.84744300  0.84744300  0.26590600  1
loop_
_geom_bond_atom_site_label_1
_geom_bond_atom_site_label_2
_geom_bond_distance
_geom_bond_site_symmetry_2
Li0 O14 2.049183 1_545
Li0 O14 2.049183 1_455
Li0 O8 2.068995 1_555
Li0 O3 2.246094 1_455
Li0 O3 2.246094 1_545
Li0 O0 2.395871 1_555
Li1 O1 2.012691 1_555
Li1 O15 2.199502 1_545
Li1 O15 2.199502 1_455
Li1 O9 2.220511 1_555
Li1 O4 2.254409 1_455
Li1 O4 2.254409 1_545
Li2 O5 2.053824 1_455
Li2 O5 2.053824 1_545
Li2 O2 2.129543 1_555
Li2 O10 2.173435 1_555
Li2 O11 2.254067 1_454
Li2 O11 2.254067 1_544
Li3 O8 2.000886 1_565
Li3 O8 2.000886 1_655
Li3 O11 2.174766 1_555
Li3 O2 2.191068 1_566
Li3 O2 2.191068 1_656
Li3 O3 2.257310 1_555
Li4 O12 2.052392 1_555
Li4 O4 2.059545 1_555
Li4 O9 2.098224 1_655
Li4 O9 2.098224 1_565
Li4 O6 2.262984 1_565
Li4 O6 2.262984 1_655
Li5 O7 2.040133 1_655
Li5 O7 2.040133 1_565
Li5 O5 2.042131 1_555
Li5 O13 2.132989 1_555
Li5 O10 2.321788 1_655
Li5 O10 2.321788 1_565
Li6 O14 1.992395 1_445
Li6 O12 2.026951 1_545
Li6 O12 2.026951 1_455
Li6 O6 2.231541 1_555
Li6 O0 2.302138 1_545
Li6 O0 2.302138 1_455
Li7 O1 1.971065 1_655
Li7 O1 1.971065 1_565
Li7 O15 2.100647 1_555
Li7 O7 2.109413 1_665
Li7 O13 2.378230 1_655
Li7 O13 2.378230 1_565
Li8 O14 2.071770 1_555
Li8 O4 2.109871 1_555
Li8 O8 2.118034 1_655
Li8 O8 2.118034 1_565
Li8 O1 2.127772 1_565
Li8 O1 2.127772 1_655
Mn0 O3 1.922581 1_445
Mn0 O10 1.951514 1_556
Mn0 O13 1.951970 1_546
Mn0 O13 1.951970 1_456
Mn0 O0 1.956280 1_545
Mn0 O0 1.956280 1_455
Mn1 O8 1.820735 1_555
Mn1 O4 1.935484 1_545
Mn1 O4 1.935484 1_455
Mn1 O11 1.999811 1_545
Mn1 O11 1.999811 1_455
Mn1 O6 2.033031 1_555
Co0 O5 1.997578 1_555
Co0 O9 2.007493 1_565
Co0 O9 2.007493 1_655
Co0 O2 2.075674 1_655
Co0 O2 2.075674 1_565
Co0 O15 2.096559 1_555
Co1 O11 1.915593 1_555
Co1 O6 1.938013 1_565
Co1 O6 1.938013 1_655
Co1 O0 1.959045 1_555
Co1 O10 1.962924 1_566
Co1 O10 1.962924 1_656
Co2 O1 1.812547 1_555
Co2 O14 1.976851 1_545
Co2 O14 1.976851 1_455
Co2 O7 2.132668 1_655
Co2 O7 2.132668 1_565
Co2 O12 2.223350 1_555
Co3 O2 1.929954 1_555
Co3 O15 1.979426 1_455
Co3 O15 1.979426 1_545
Co3 O3 2.070234 1_544
Co3 O3 2.070234 1_454
Co3 O13 2.143971 1_555
Co4 O7 1.907532 1_555
Co4 O12 2.004881 1_545
Co4 O12 2.004881 1_455
Co4 O5 2.086035 1_455
Co4 O5 2.086035 1_545
Co4 O9 2.105530 1_555
