# generated using pymatgen
data_AsSe(BrF2)3
_symmetry_space_group_name_H-M   'P 1'
_cell_length_a   10.04823800
_cell_length_b   8.05951500
_cell_length_c   12.45337314
_cell_angle_alpha   80.61473687
_cell_angle_beta   90.00000000
_cell_angle_gamma   90.00000000
_symmetry_Int_Tables_number   1
_chemical_formula_structural   AsSe(BrF2)3
_chemical_formula_sum   'As4 Se4 Br12 F24'
_cell_volume   995.02308430
_cell_formula_units_Z   4
loop_
 _symmetry_equiv_pos_site_id
 _symmetry_equiv_pos_as_xyz
  1  'x, y, z'
loop_
 _atom_site_type_symbol
 _atom_site_label
 _atom_site_symmetry_multiplicity
 _atom_site_fract_x
 _atom_site_fract_y
 _atom_site_fract_z
 _atom_site_occupancy
  As  As0  1  0.73269000  0.83692700  0.07770600  1
  As  As1  1  0.26731000  0.16307300  0.92229400  1
  As  As2  1  0.23269000  0.16307300  0.42229400  1
  As  As3  1  0.76731000  0.83692700  0.57770600  1
  Se  Se0  1  0.32860700  0.79326900  0.19734700  1
  Se  Se1  1  0.67139300  0.20673100  0.80265300  1
  Se  Se2  1  0.82860700  0.20673100  0.30265300  1
  Se  Se3  1  0.17139300  0.79326900  0.69734700  1
  Br  Br0  1  0.60845000  0.23445500  0.24876100  1
  Br  Br1  1  0.39155000  0.76554500  0.75123900  1
  Br  Br2  1  0.10845000  0.76554500  0.25123900  1
  Br  Br3  1  0.89155000  0.23445500  0.74876100  1
  Br  Br4  1  0.94694000  0.30300600  0.14542600  1
  Br  Br5  1  0.05306000  0.69699400  0.85457400  1
  Br  Br6  1  0.44694000  0.69699400  0.35457400  1
  Br  Br7  1  0.55306000  0.30300600  0.64542600  1
  Br  Br8  1  0.84785500  0.42760600  0.40100400  1
  Br  Br9  1  0.15214500  0.57239400  0.59899600  1
  Br  Br10  1  0.34785500  0.57239400  0.09899600  1
  Br  Br11  1  0.65214500  0.42760600  0.90100400  1
  F  F0  1  0.27085600  0.95749200  0.49232400  1
  F  F1  1  0.72914400  0.04250800  0.50767600  1
  F  F2  1  0.77085600  0.04250800  0.00767600  1
  F  F3  1  0.22914400  0.95749200  0.99232400  1
  F  F4  1  0.69200000  0.63399200  0.14736500  1
  F  F5  1  0.30800000  0.36600800  0.85263500  1
  F  F6  1  0.19200000  0.36600800  0.35263500  1
  F  F7  1  0.80800000  0.63399200  0.64736500  1
  F  F8  1  0.79633400  0.89481400  0.19983400  1
  F  F9  1  0.20366600  0.10518600  0.80016600  1
  F  F10  1  0.29633400  0.10518600  0.30016600  1
  F  F11  1  0.70366600  0.89481400  0.69983400  1
  F  F12  1  0.57100200  0.90912400  0.10931200  1
  F  F13  1  0.42899800  0.09087600  0.89068800  1
  F  F14  1  0.07100200  0.09087600  0.39068800  1
  F  F15  1  0.92899800  0.90912400  0.60931200  1
  F  F16  1  0.89330700  0.76543500  0.04742400  1
  F  F17  1  0.10669300  0.23456500  0.95257600  1
  F  F18  1  0.39330700  0.23456500  0.45257600  1
  F  F19  1  0.60669300  0.76543500  0.54742400  1
  F  F20  1  0.83079400  0.78418400  0.45467800  1
  F  F21  1  0.16920600  0.21581600  0.54532200  1
  F  F22  1  0.33079400  0.21581600  0.04532200  1
  F  F23  1  0.66920600  0.78418400  0.95467800  1
loop_
_geom_bond_atom_site_label_1
_geom_bond_atom_site_label_2
_geom_bond_distance
_geom_bond_site_symmetry_2
As0 F4 1.769749 1_555
As0 F23 1.774090 1_554
As0 F16 1.774770 1_555
As0 F8 1.780789 1_555
As0 F2 1.783714 1_565
As0 F12 1.791027 1_555
As1 F5 1.769749 1_555
As1 F22 1.774090 1_556
As1 F17 1.774770 1_555
As1 F9 1.780789 1_555
As1 F3 1.783714 1_545
As1 F13 1.791027 1_555
As2 F6 1.769749 1_555
As2 F21 1.774090 1_555
As2 F18 1.774770 1_555
As2 F10 1.780789 1_555
As2 F0 1.783714 1_545
As2 F14 1.791027 1_555
As3 F7 1.769749 1_555
As3 F20 1.774090 1_555
As3 F19 1.774770 1_555
As3 F11 1.780789 1_555
As3 F1 1.783714 1_565
As3 F15 1.791027 1_555
Br0 Se2 2.311975 1_555
Br1 Se3 2.311975 1_555
Br2 Se0 2.311975 1_555
Br3 Se1 2.311975 1_555
Br4 Se2 2.313907 1_555
Br5 Se3 2.313907 1_555
Br6 Se0 2.313907 1_555
Br7 Se1 2.313907 1_555
Br8 Se2 2.327566 1_555
Br9 Se3 2.327566 1_555
Br10 Se0 2.327566 1_555
Br11 Se1 2.327566 1_555
