# generated using pymatgen
data_Ho5Co19P12
_symmetry_space_group_name_H-M   'P 1'
_cell_length_a   11.86223642
_cell_length_b   11.86224960
_cell_length_c   3.66036865
_cell_angle_alpha   89.99999857
_cell_angle_beta   90.00000113
_cell_angle_gamma   119.99969876
_symmetry_Int_Tables_number   1
_chemical_formula_structural   Ho5Co19P12
_chemical_formula_sum   'Ho5 Co19 P12'
_cell_volume   446.05705270
_cell_formula_units_Z   1
loop_
 _symmetry_equiv_pos_site_id
 _symmetry_equiv_pos_as_xyz
  1  'x, y, z'
loop_
 _atom_site_type_symbol
 _atom_site_label
 _atom_site_symmetry_multiplicity
 _atom_site_fract_x
 _atom_site_fract_y
 _atom_site_fract_z
 _atom_site_occupancy
  Ho  Ho0  1  0.66663733  0.33330735  -0.00000005  1
  Ho  Ho1  1  0.33335970  0.66666050  -0.00000003  1
  Ho  Ho2  1  0.81221156  0.81223672  0.49999988  1
  Ho  Ho3  1  0.18778806  0.00003284  0.49999961  1
  Ho  Ho4  1  0.00000173  0.18776301  0.50000023  1
  Co  Co0  1  0.87495467  0.35856833  0.50000004  1
  Co  Co1  1  0.64139438  0.51636447  0.50000002  1
  Co  Co2  1  0.48362804  0.12504654  0.49999992  1
  Co  Co3  1  0.35860518  0.87497183  0.49999997  1
  Co  Co4  1  0.51637280  0.64141108  0.49999999  1
  Co  Co5  1  0.12504135  0.48360795  0.50000006  1
  Co  Co6  1  0.44617162  0.44617657  -0.00000005  1
  Co  Co7  1  0.55383243  0.00001571  -0.00000010  1
  Co  Co8  1  0.99999284  0.55380214  0.00000010  1
  Co  Co9  1  0.79976846  0.17734437  0.00000000  1
  Co  Co10  1  0.82262942  0.62241009  0.00000005  1
  Co  Co11  1  0.37758763  0.20024546  -0.00000006  1
  Co  Co12  1  0.17736155  0.79977712  0.00000003  1
  Co  Co13  1  0.62241588  0.82265374  -0.00000004  1
  Co  Co14  1  0.20023723  0.37757660  0.00000008  1
  Co  Co15  1  0.28475157  0.28475345  0.50000006  1
  Co  Co16  1  0.71525122  0.00000248  0.50000002  1
  Co  Co17  1  0.99999617  0.71524564  0.50000009  1
  Co  Co18  1  0.00000345  0.00001297  0.00000029  1
  P  P0  1  0.68691423  0.16671073  0.50000000  1
  P  P1  1  0.83327331  0.52019799  0.50000002  1
  P  P2  1  0.47979612  0.31308522  0.49999998  1
  P  P3  1  0.16671935  0.68692353  0.50000000  1
  P  P4  1  0.52020985  0.83329157  0.50000001  1
  P  P5  1  0.31308810  0.47979202  0.49999998  1
  P  P6  1  0.17968452  0.17969121  0.00000002  1
  P  P7  1  0.82031984  0.00001019  0.00000001  1
  P  P8  1  -0.00000388  0.82031665  -0.00000004  1
  P  P9  1  0.63178437  0.63178587  -0.00000008  1
  P  P10  1  0.36821986  0.00001405  -0.00000013  1
  P  P11  1  -0.00000294  0.36819502  0.00000011  1
loop_
_geom_bond_atom_site_label_1
_geom_bond_atom_site_label_2
_geom_bond_distance
_geom_bond_site_symmetry_2
Ho0 P2 2.790643 1_554
Ho0 P2 2.790643 1_555
Ho0 P0 2.790729 1_554
Ho0 P0 2.790729 1_555
Ho0 P1 2.790971 1_554
Ho0 P1 2.790971 1_555
Ho1 P5 2.790706 1_555
Ho1 P5 2.790706 1_554
Ho1 P4 2.790741 1_554
Ho1 P4 2.790741 1_555
Ho1 P3 2.791045 1_554
Ho1 P3 2.791045 1_555
Ho2 P9 2.816199 1_555
Ho2 P9 2.816199 1_556
Ho2 P7 2.847098 1_565
Ho2 P7 2.847099 1_566
Ho2 P8 2.847317 1_655
Ho2 P8 2.847318 1_656
Ho3 P10 2.816210 1_555
Ho3 P10 2.816211 1_556
Ho3 P6 2.847012 1_555
Ho3 P6 2.847014 1_556
Ho3 P8 2.847410 1_545
Ho3 P8 2.847411 1_546
Ho4 P11 2.816150 1_556
Ho4 P11 2.816151 1_555
Ho4 P7 2.847075 1_456
Ho4 P7 2.847076 1_455
Ho4 P6 2.847079 1_556
Ho4 P6 2.847080 1_555
Co0 P1 2.206453 1_555
Co0 P0 2.253573 1_555
Co0 P11 2.322361 1_655
Co0 P11 2.322361 1_656
Co0 Ho0 2.967369 1_556
Co0 Ho0 2.967370 1_555
Co0 Ho4 3.051382 1_655
Co1 P2 2.206096 1_555
Co1 P1 2.253720 1_555
Co1 P9 2.322335 1_556
Co1 P9 2.322335 1_555
Co1 Ho0 2.967276 1_556
Co1 Ho0 2.967277 1_555
Co1 Ho2 3.051603 1_555
Co2 P0 2.206232 1_555
Co2 P2 2.253633 1_555
Co2 P10 2.322301 1_556
Co2 P10 2.322301 1_555
Co2 Ho0 2.966889 1_555
Co2 Ho0 2.966889 1_556
Co2 Ho3 3.051294 1_555
Co3 P4 2.206152 1_555
Co3 P3 2.253791 1_555
Co3 P10 2.322399 1_566
Co3 P10 2.322400 1_565
Co3 Ho1 2.967374 1_556
Co3 Ho1 2.967374 1_555
Co3 Ho3 3.051643 1_565
Co4 P5 2.206217 1_555
Co4 P4 2.253721 1_555
Co4 P9 2.322324 1_556
Co4 P9 2.322325 1_555
Co4 Ho1 2.966902 1_556
Co4 Ho1 2.966902 1_555
Co4 Ho2 3.051284 1_555
Co5 P3 2.206524 1_555
Co5 P5 2.253629 1_555
Co5 P11 2.322364 1_555
Co5 P11 2.322364 1_556
Co5 Ho1 2.967369 1_556
Co5 Ho1 2.967369 1_555
Co5 Ho4 3.051323 1_555
Co6 P9 2.201773 1_555
Co6 P5 2.574931 1_554
Co6 P5 2.574931 1_555
Co6 P2 2.575046 1_554
Co6 P2 2.575046 1_555
Co7 P10 2.201770 1_555
Co7 P0 2.574912 1_554
Co7 P0 2.574912 1_555
Co7 P4 2.575121 1_544
Co7 P4 2.575122 1_545
Co8 P11 2.201743 1_655
Co8 P1 2.575132 1_555
Co8 P1 2.575132 1_554
Co8 P3 2.575191 1_655
Co8 P3 2.575192 1_654
Co9 P0 2.233551 1_554
Co9 P0 2.233551 1_555
Co9 P7 2.235466 1_555
Co9 P11 2.321549 1_655
Co9 Ho4 2.951769 1_654
Co9 Ho4 2.951770 1_655
Co9 Ho0 2.972946 1_555
Co10 P1 2.233534 1_555
Co10 P1 2.233534 1_554
Co10 P8 2.235781 1_655
Co10 P9 2.321457 1_555
Co10 Ho2 2.951878 1_555
Co10 Ho2 2.951879 1_554
Co10 Ho0 2.973064 1_555
Co11 P2 2.233464 1_554
Co11 P2 2.233464 1_555
Co11 P6 2.235659 1_555
Co11 P10 2.321630 1_555
Co11 Ho3 2.951610 1_555
Co11 Ho3 2.951612 1_554
Co11 Ho0 2.972527 1_555
Co12 P3 2.233523 1_555
Co12 P3 2.233523 1_554
Co12 P8 2.235751 1_555
Co12 P10 2.321644 1_565
Co12 Ho3 2.951946 1_565
Co12 Ho3 2.951948 1_564
Co12 Ho1 2.973171 1_555
Co13 P4 2.233468 1_554
Co13 P4 2.233469 1_555
Co13 P7 2.235712 1_565
Co13 P9 2.321683 1_555
Co13 Ho2 2.951585 1_555
Co13 Ho2 2.951585 1_554
Co13 Ho1 2.972596 1_555
Co14 P5 2.233526 1_555
Co14 P5 2.233527 1_554
Co14 P6 2.235460 1_555
Co14 P11 2.321655 1_555
Co14 Ho4 2.951785 1_554
Co14 Ho4 2.951786 1_555
Co14 Ho1 2.972858 1_555
Co15 P5 2.165188 1_555
Co15 P2 2.165277 1_555
Co15 P6 2.214240 1_556
Co15 P6 2.214240 1_555
Co15 Ho3 2.974103 1_555
Co15 Ho4 2.974368 1_555
Co16 P4 2.165255 1_545
Co16 P0 2.165261 1_555
Co16 P7 2.214237 1_556
Co16 P7 2.214237 1_555
Co16 Ho2 2.974160 1_545
Co16 Ho4 2.974383 1_655
Co17 P3 2.165327 1_655
Co17 P1 2.165355 1_555
Co17 P8 2.214279 1_656
Co17 P8 2.214280 1_655
Co17 Ho2 2.974647 1_555
Co17 Ho3 2.974784 1_665
Co18 P6 2.131413 1_555
Co18 P7 2.131433 1_455
Co18 P8 2.131559 1_545
Co18 Ho4 2.882666 1_555
Co18 Ho4 2.882666 1_554
Co18 Ho3 2.882880 1_555
Co18 Ho3 2.882884 1_554
Co18 Ho2 2.882976 1_445
Co18 Ho2 2.882978 1_444
