# generated using pymatgen
data_Hf6Al2Ni
_symmetry_space_group_name_H-M   'P 1'
_cell_length_a   3.30783084
_cell_length_b   7.79801283
_cell_length_c   7.79798314
_cell_angle_alpha   119.99970335
_cell_angle_beta   89.99999710
_cell_angle_gamma   89.99999852
_symmetry_Int_Tables_number   1
_chemical_formula_structural   Hf6Al2Ni
_chemical_formula_sum   'Hf6 Al2 Ni1'
_cell_volume   174.19731596
_cell_formula_units_Z   1
loop_
 _symmetry_equiv_pos_site_id
 _symmetry_equiv_pos_as_xyz
  1  'x, y, z'
loop_
 _atom_site_type_symbol
 _atom_site_label
 _atom_site_symmetry_multiplicity
 _atom_site_fract_x
 _atom_site_fract_y
 _atom_site_fract_z
 _atom_site_occupancy
  Hf  Hf0  1  0.50000103  0.74682925  0.74682051  1
  Hf  Hf1  1  0.50000127  0.00000258  0.25316037  1
  Hf  Hf2  1  0.50000129  0.25318002  -0.00000591  1
  Hf  Hf3  1  0.00000121  0.39966034  0.39964869  1
  Hf  Hf4  1  0.00000107  0.00000378  0.60032746  1
  Hf  Hf5  1  0.00000084  0.60034928  -0.00000767  1
  Al  Al0  1  0.50000092  0.66667162  0.33332415  1
  Al  Al1  1  0.50000095  0.33333655  0.66665714  1
  Ni  Ni0  1  -0.00000858  -0.00003241  0.00007527  1
loop_
_geom_bond_atom_site_label_1
_geom_bond_atom_site_label_2
_geom_bond_distance
_geom_bond_site_symmetry_2
Hf0 Ni0 2.575602 1_666
Hf0 Ni0 2.575643 1_566
Hf1 Ni0 2.574821 1_655
Hf1 Ni0 2.574863 1_555
Hf2 Ni0 2.575935 1_655
Hf2 Ni0 2.575977 1_555
Hf3 Ni0 3.116352 1_555
Hf4 Ni0 3.117368 1_556
Hf5 Ni0 3.115905 1_565
Al0 Hf5 2.900870 1_655
Al0 Hf4 2.900871 1_565
Al0 Hf5 2.900871 1_555
Al0 Hf4 2.900871 1_665
Al0 Hf3 2.900894 1_555
Al0 Hf3 2.900895 1_655
Al0 Hf2 2.961767 1_555
Al0 Hf1 2.961772 1_565
Al0 Hf0 2.961795 1_555
Al1 Hf3 2.900867 1_555
Al1 Hf3 2.900868 1_655
Al1 Hf4 2.900869 1_555
Al1 Hf4 2.900870 1_655
Al1 Hf5 2.900900 1_656
Al1 Hf5 2.900900 1_556
Al1 Hf0 2.961765 1_555
Al1 Hf2 2.961773 1_556
Al1 Hf1 2.961798 1_555
