# generated using pymatgen
data_Mg14SnB
_symmetry_space_group_name_H-M   'P 1'
_cell_length_a   6.23787982
_cell_length_b   6.23787934
_cell_length_c   10.18617081
_cell_angle_alpha   90.00000000
_cell_angle_beta   90.00000000
_cell_angle_gamma   120.00000257
_symmetry_Int_Tables_number   1
_chemical_formula_structural   Mg14SnB
_chemical_formula_sum   'Mg14 Sn1 B1'
_cell_volume   343.25395334
_cell_formula_units_Z   1
loop_
 _symmetry_equiv_pos_site_id
 _symmetry_equiv_pos_as_xyz
  1  'x, y, z'
loop_
 _atom_site_type_symbol
 _atom_site_label
 _atom_site_symmetry_multiplicity
 _atom_site_fract_x
 _atom_site_fract_y
 _atom_site_fract_z
 _atom_site_occupancy
  Mg  Mg0  1  0.16906110  0.83453005  0.12500000  1
  Mg  Mg1  1  0.16227381  0.83113640  0.62500000  1
  Mg  Mg2  1  0.66546995  0.33093890  0.12500000  1
  Mg  Mg3  1  0.66886360  0.33772619  0.62500000  1
  Mg  Mg4  1  0.66546995  0.83453005  0.12500000  1
  Mg  Mg5  1  0.66886360  0.83113640  0.62500000  1
  Mg  Mg6  1  0.33048522  0.16951478  0.38835123  1
  Mg  Mg7  1  0.33048522  0.16951478  0.86164877  1
  Mg  Mg8  1  0.33048522  0.66097144  0.38835123  1
  Mg  Mg9  1  0.33048522  0.66097144  0.86164877  1
  Mg  Mg10  1  0.83902856  0.16951478  0.38835123  1
  Mg  Mg11  1  0.83902856  0.16951478  0.86164877  1
  Mg  Mg12  1  0.83333300  0.66666700  0.37448068  1
  Mg  Mg13  1  0.83333300  0.66666700  0.87551932  1
  Sn  Sn0  1  0.16666700  0.33333300  0.12500000  1
  B  B0  1  0.16666700  0.33333300  0.62500000  1
loop_
_geom_bond_atom_site_label_1
_geom_bond_atom_site_label_2
_geom_bond_distance
_geom_bond_site_symmetry_2
Mg0 Sn0 3.118966 1_555
Mg0 Sn0 3.118966 1_565
Mg0 Mg13 3.122070 1_454
Mg0 Mg12 3.122070 1_455
Mg0 Mg8 3.236081 1_555
Mg0 Mg9 3.236081 1_554
Mg0 Mg6 3.236087 1_565
Mg0 Mg7 3.236087 1_564
Mg1 Mg9 3.025263 1_555
Mg1 Mg8 3.025263 1_555
Mg1 Mg7 3.025269 1_565
Mg1 Mg6 3.025269 1_565
Mg1 Mg12 3.109590 1_455
Mg1 Mg13 3.109590 1_455
Mg2 Sn0 3.118967 1_655
Mg2 Sn0 3.118967 1_555
Mg2 Mg6 3.236087 1_555
Mg2 Mg7 3.236087 1_554
Mg3 Mg7 3.025270 1_555
Mg3 Mg6 3.025270 1_555
Mg4 Sn0 3.118966 1_555
Mg4 Sn0 3.118966 1_665
Mg4 Mg8 3.236087 1_555
Mg4 Mg9 3.236087 1_554
Mg5 Mg9 3.025269 1_555
Mg5 Mg8 3.025269 1_555
Mg6 Mg8 3.065647 1_555
Mg6 Mg8 3.172232 1_545
Mg6 Sn0 3.213834 1_555
Mg7 Mg9 3.065647 1_555
Mg7 Mg9 3.172232 1_545
Mg7 Sn0 3.213834 1_556
Mg8 Sn0 3.213840 1_555
Mg9 Sn0 3.213840 1_556
Mg10 Mg3 3.025263 1_555
Mg10 Mg5 3.025269 1_545
Mg10 Mg8 3.065647 1_655
Mg10 Mg6 3.065648 1_655
Mg10 Mg12 3.122290 1_545
Mg10 Mg12 3.122290 1_555
Mg10 Mg8 3.172232 1_545
Mg10 Mg6 3.172232 1_555
Mg10 Sn0 3.213840 1_655
Mg10 Mg2 3.236081 1_555
Mg10 Mg4 3.236087 1_545
Mg11 Mg3 3.025263 1_555
Mg11 Mg5 3.025269 1_545
Mg11 Mg9 3.065647 1_655
Mg11 Mg7 3.065648 1_655
Mg11 Mg13 3.122290 1_545
Mg11 Mg13 3.122290 1_555
Mg11 Mg9 3.172232 1_545
Mg11 Mg7 3.172232 1_555
Mg11 Sn0 3.213840 1_656
Mg11 Mg2 3.236081 1_556
Mg11 Mg4 3.236087 1_546
Mg12 Mg5 3.109584 1_555
Mg12 Mg3 3.109590 1_555
Mg12 Mg4 3.122064 1_555
Mg12 Mg2 3.122070 1_555
Mg12 Mg6 3.122290 1_665
Mg12 Mg6 3.122290 1_555
Mg12 Mg8 3.122290 1_555
Mg12 Mg8 3.122290 1_655
Mg13 Mg5 3.109584 1_555
Mg13 Mg3 3.109590 1_555
Mg13 Mg4 3.122064 1_556
Mg13 Mg2 3.122070 1_556
Mg13 Mg7 3.122290 1_665
Mg13 Mg7 3.122290 1_555
Mg13 Mg9 3.122290 1_555
Mg13 Mg9 3.122290 1_655
B0 Mg7 2.990557 1_555
B0 Mg6 2.990557 1_555
B0 Mg9 2.990563 1_555
B0 Mg8 2.990563 1_555
B0 Mg11 2.990564 1_455
B0 Mg10 2.990564 1_455
