# generated using pymatgen
data_Ni43(GeB4)3
_symmetry_space_group_name_H-M   'P 1'
_cell_length_a   12.81606664
_cell_length_b   12.81606664
_cell_length_c   12.81606681
_cell_angle_alpha   33.55509856
_cell_angle_beta   33.55509856
_cell_angle_gamma   33.55509869
_symmetry_Int_Tables_number   1
_chemical_formula_structural   Ni43(GeB4)3
_chemical_formula_sum   'Ni43 Ge3 B12'
_cell_volume   572.85575021
_cell_formula_units_Z   1
loop_
 _symmetry_equiv_pos_site_id
 _symmetry_equiv_pos_as_xyz
  1  'x, y, z'
loop_
 _atom_site_type_symbol
 _atom_site_label
 _atom_site_symmetry_multiplicity
 _atom_site_fract_x
 _atom_site_fract_y
 _atom_site_fract_z
 _atom_site_occupancy
  Ni  Ni0  1  0.00225900  0.66172900  0.33671200  1
  Ni  Ni1  1  0.49987100  0.16342500  0.83665300  1
  Ni  Ni2  1  0.16943300  0.82908800  0.16943300  1
  Ni  Ni3  1  0.66817600  0.33204000  0.66817600  1
  Ni  Ni4  1  0.33671200  0.66172900  0.00225900  1
  Ni  Ni5  1  0.83665300  0.16342500  0.49987100  1
  Ni  Ni6  1  0.82908800  0.16943300  0.16943300  1
  Ni  Ni7  1  0.33204000  0.66817600  0.66817600  1
  Ni  Ni8  1  0.66172900  0.00225900  0.33671200  1
  Ni  Ni9  1  0.16342500  0.49987100  0.83665300  1
  Ni  Ni10  1  0.16342500  0.83665300  0.49987100  1
  Ni  Ni11  1  0.66172900  0.33671200  0.00225900  1
  Ni  Ni12  1  0.66647300  0.33206600  0.33206600  1
  Ni  Ni13  1  0.16835400  0.83166700  0.83166700  1
  Ni  Ni14  1  0.33206600  0.66647300  0.33206600  1
  Ni  Ni15  1  0.83166700  0.16835400  0.83166700  1
  Ni  Ni16  1  0.33206600  0.33206600  0.66647300  1
  Ni  Ni17  1  0.83166700  0.83166700  0.16835400  1
  Ni  Ni18  1  0.49987100  0.83665300  0.16342500  1
  Ni  Ni19  1  0.00225900  0.33671200  0.66172900  1
  Ni  Ni20  1  0.33671200  0.00225900  0.66172900  1
  Ni  Ni21  1  0.83665300  0.49987100  0.16342500  1
  Ni  Ni22  1  0.16943300  0.16943300  0.82908800  1
  Ni  Ni23  1  0.66817600  0.66817600  0.33204000  1
  Ni  Ni24  1  0.00014300  0.00014300  0.00014300  1
  Ni  Ni25  1  0.49983700  0.49983700  0.49983700  1
  Ni  Ni26  1  0.57290300  0.04536200  0.57290300  1
  Ni  Ni27  1  0.07166100  0.54713300  0.07166100  1
  Ni  Ni28  1  0.04536200  0.57290300  0.57290300  1
  Ni  Ni29  1  0.54713300  0.07166100  0.07166100  1
  Ni  Ni30  1  0.80949600  0.80949600  0.80949600  1
  Ni  Ni31  1  0.30893300  0.30893300  0.30893300  1
  Ni  Ni32  1  0.57290300  0.57290300  0.04536200  1
  Ni  Ni33  1  0.07166100  0.07166100  0.54713300  1
  Ni  Ni34  1  0.92876800  0.45200500  0.92876800  1
  Ni  Ni35  1  0.42850300  0.95248000  0.42850300  1
  Ni  Ni36  1  0.45200500  0.92876800  0.92876800  1
  Ni  Ni37  1  0.95248000  0.42850300  0.42850300  1
  Ni  Ni38  1  0.69047700  0.69047700  0.69047700  1
  Ni  Ni39  1  0.19052700  0.19052700  0.19052700  1
  Ni  Ni40  1  0.92876800  0.92876800  0.45200500  1
  Ni  Ni41  1  0.42850300  0.42850300  0.95248000  1
  Ni  Ni42  1  0.37495900  0.37495900  0.37495900  1
  Ge  Ge0  1  0.87500500  0.87500500  0.87500500  1
  Ge  Ge1  1  0.12504400  0.12504400  0.12504400  1
  Ge  Ge2  1  0.62504000  0.62504000  0.62504000  1
  B  B0  1  0.41055400  0.86313200  0.86313200  1
  B  B1  1  0.91009200  0.36321200  0.36321200  1
  B  B2  1  0.63644300  0.08990700  0.63644300  1
  B  B3  1  0.13720600  0.58941300  0.13720600  1
  B  B4  1  0.86313200  0.86313200  0.41055400  1
  B  B5  1  0.36321200  0.36321200  0.91009200  1
  B  B6  1  0.08990700  0.63644300  0.63644300  1
  B  B7  1  0.58941300  0.13720600  0.13720600  1
  B  B8  1  0.86313200  0.41055400  0.86313200  1
  B  B9  1  0.36321200  0.91009200  0.36321200  1
  B  B10  1  0.63644300  0.63644300  0.08990700  1
  B  B11  1  0.13720600  0.13720600  0.58941300  1
loop_
_geom_bond_atom_site_label_1
_geom_bond_atom_site_label_2
_geom_bond_distance
_geom_bond_site_symmetry_2
Ni0 Ni24 2.497097 1_565
Ni1 Ni25 2.490574 1_555
Ni2 Ni24 2.492243 1_565
Ni10 Ni25 2.490574 1_555
Ni11 Ni24 2.497097 1_655
Ni12 Ni25 2.491183 1_555
Ni13 Ni24 2.495152 1_566
Ni14 Ni25 2.491183 1_555
Ni15 Ni24 2.495152 1_656
Ni16 Ni25 2.491183 1_555
Ni17 Ni24 2.495152 1_665
Ni18 Ni25 2.490574 1_555
Ni19 Ni24 2.497097 1_556
Ni20 Ni24 2.497097 1_556
Ni21 Ni25 2.490574 1_555
Ni22 Ni24 2.492243 1_556
Ni23 Ni25 2.495179 1_555
Ni24 Ni6 2.492243 1_455
Ni24 Ni4 2.497097 1_545
Ni24 Ni8 2.497097 1_455
Ni25 Ni5 2.490574 1_555
Ni25 Ni9 2.490574 1_555
Ni25 Ni3 2.495179 1_555
Ni25 Ni7 2.495179 1_555
Ni26 Ni42 2.391647 1_555
Ni28 Ni42 2.391647 1_555
Ni31 Ni42 2.393416 1_555
Ni32 Ni42 2.391647 1_555
Ge0 Ni30 2.374675 1_555
Ge0 Ni33 2.376082 1_665
Ge0 Ni29 2.376082 1_566
Ge0 Ni27 2.376082 1_656
Ge1 Ni40 2.371491 1_445
Ge1 Ni34 2.371491 1_454
Ge1 Ni36 2.371491 1_544
Ge1 Ni39 2.373733 1_555
Ge2 Ni38 2.372065 1_555
Ge2 Ni41 2.374645 1_555
Ge2 Ni37 2.374645 1_555
Ge2 Ni35 2.374645 1_555
B0 Ni22 2.079381 1_565
B0 Ni2 2.079381 1_556
B0 Ni4 2.079777 1_556
B0 Ni20 2.079777 1_565
B0 Ni26 2.083346 1_565
B0 Ni32 2.083346 1_556
B0 Ni38 2.088511 1_555
B0 Ni36 2.089602 1_555
B1 Ni5 2.074664 1_555
B1 Ni21 2.074664 1_555
B1 Ni23 2.076830 1_555
B1 Ni3 2.076830 1_555
B1 Ni39 2.088597 1_655
B1 Ni27 2.089336 1_655
B1 Ni33 2.089336 1_655
B1 Ni37 2.092320 1_555
B2 Ni26 2.075366 1_555
B2 Ni16 2.075445 1_555
B2 Ni12 2.075445 1_555
B2 Ni5 2.081009 1_555
B2 Ni1 2.081009 1_555
B2 Ni36 2.090222 1_545
B2 Ni40 2.090222 1_545
B2 Ni30 2.093424 1_545
B3 Ni4 2.072554 1_555
B3 Ni0 2.072554 1_555
B3 Ni31 2.076182 1_555
B3 Ni17 2.080758 1_455
B3 Ni13 2.080758 1_554
B3 Ni37 2.090336 1_455
B3 Ni41 2.090336 1_554
B3 Ni27 2.097220 1_555
B4 Ni6 2.079381 1_565
B4 Ni2 2.079381 1_655
B4 Ni8 2.079777 1_565
B4 Ni0 2.079777 1_655
B4 Ni28 2.083346 1_655
B4 Ni26 2.083346 1_565
B4 Ni38 2.088511 1_555
B4 Ni40 2.089602 1_555
B5 Ni1 2.074664 1_555
B5 Ni9 2.074664 1_555
B5 Ni3 2.076830 1_555
B5 Ni7 2.076830 1_555
B5 Ni39 2.088597 1_556
B5 Ni29 2.089336 1_556
B5 Ni27 2.089336 1_556
B5 Ni41 2.092320 1_555
B6 Ni28 2.075366 1_555
B6 Ni16 2.075445 1_555
B6 Ni14 2.075445 1_555
B6 Ni10 2.081009 1_555
B6 Ni9 2.081009 1_555
B6 Ni34 2.090222 1_455
B6 Ni40 2.090222 1_455
B6 Ni30 2.093424 1_455
B7 Ni11 2.072554 1_555
B7 Ni8 2.072554 1_555
B7 Ni31 2.076182 1_555
B7 Ni17 2.080758 1_545
B7 Ni15 2.080758 1_554
B7 Ni35 2.090336 1_545
B7 Ni41 2.090336 1_554
B7 Ni29 2.097220 1_555
B8 Ni22 2.079381 1_655
B8 Ni6 2.079381 1_556
B8 Ni11 2.079777 1_556
B8 Ni19 2.079777 1_655
B8 Ni28 2.083346 1_655
B8 Ni32 2.083346 1_556
B8 Ni38 2.088511 1_555
B8 Ni34 2.089602 1_555
B9 Ni10 2.074664 1_555
B9 Ni18 2.074664 1_555
B9 Ni23 2.076830 1_555
B9 Ni7 2.076830 1_555
B9 Ni39 2.088597 1_565
B9 Ni29 2.089336 1_565
B9 Ni33 2.089336 1_565
B9 Ni35 2.092320 1_555
B10 Ni32 2.075366 1_555
B10 Ni14 2.075445 1_555
B10 Ni12 2.075445 1_555
B10 Ni21 2.081009 1_555
B10 Ni18 2.081009 1_555
B10 Ni36 2.090222 1_554
B10 Ni34 2.090222 1_554
B10 Ni30 2.093424 1_554
B11 Ni19 2.072554 1_555
B11 Ni20 2.072554 1_555
B11 Ni31 2.076182 1_555
B11 Ni15 2.080758 1_455
B11 Ni13 2.080758 1_545
B11 Ni37 2.090336 1_455
B11 Ni35 2.090336 1_545
B11 Ni33 2.097220 1_555
