# generated using pymatgen
data_ScReGe2
_symmetry_space_group_name_H-M   'P 1'
_cell_length_a   8.32870199
_cell_length_b   9.42781923
_cell_length_c   10.17732573
_cell_angle_alpha   90.00000000
_cell_angle_beta   90.00000000
_cell_angle_gamma   90.00000000
_symmetry_Int_Tables_number   1
_chemical_formula_structural   ScReGe2
_chemical_formula_sum   'Sc12 Re12 Ge24'
_cell_volume   799.13884956
_cell_formula_units_Z   12
loop_
 _symmetry_equiv_pos_site_id
 _symmetry_equiv_pos_as_xyz
  1  'x, y, z'
loop_
 _atom_site_type_symbol
 _atom_site_label
 _atom_site_symmetry_multiplicity
 _atom_site_fract_x
 _atom_site_fract_y
 _atom_site_fract_z
 _atom_site_occupancy
  Sc  Sc0  1  0.24455826  0.82935187  0.45207729  1
  Sc  Sc1  1  0.24455826  0.17064813  0.54792271  1
  Sc  Sc2  1  0.75544174  0.32935187  0.04792271  1
  Sc  Sc3  1  0.75544174  0.67064813  0.95207729  1
  Sc  Sc4  1  0.75544174  0.17064813  0.54792271  1
  Sc  Sc5  1  0.75544174  0.82935187  0.45207729  1
  Sc  Sc6  1  0.24455826  0.67064813  0.95207729  1
  Sc  Sc7  1  0.24455826  0.32935187  0.04792271  1
  Sc  Sc8  1  0.00000000  0.83461986  0.17795904  1
  Sc  Sc9  1  0.00000000  0.16538014  0.82204096  1
  Sc  Sc10  1  0.00000000  0.33461986  0.32204096  1
  Sc  Sc11  1  0.00000000  0.66538014  0.67795904  1
  Re  Re0  1  0.24954394  0.57832544  0.24839100  1
  Re  Re1  1  0.24954394  0.42167456  0.75160900  1
  Re  Re2  1  0.75045606  0.07832544  0.25160900  1
  Re  Re3  1  0.75045606  0.92167456  0.74839100  1
  Re  Re4  1  0.75045606  0.42167456  0.75160900  1
  Re  Re5  1  0.75045606  0.57832544  0.24839100  1
  Re  Re6  1  0.24954394  0.92167456  0.74839100  1
  Re  Re7  1  0.24954394  0.07832544  0.25160900  1
  Re  Re8  1  0.24366495  0.50000000  0.50000000  1
  Re  Re9  1  0.75633505  -0.00000000  -0.00000000  1
  Re  Re10  1  0.75633505  0.50000000  0.50000000  1
  Re  Re11  1  0.24366495  0.00000000  -0.00000000  1
  Ge  Ge0  1  0.34755720  0.82653106  0.18057388  1
  Ge  Ge1  1  0.34755720  0.17346894  0.81942612  1
  Ge  Ge2  1  0.65244280  0.32653106  0.31942612  1
  Ge  Ge3  1  0.65244280  0.67346894  0.68057388  1
  Ge  Ge4  1  0.65244280  0.17346894  0.81942612  1
  Ge  Ge5  1  0.65244280  0.82653106  0.18057388  1
  Ge  Ge6  1  0.34755720  0.67346894  0.68057388  1
  Ge  Ge7  1  0.34755720  0.32653106  0.31942612  1
  Ge  Ge8  1  0.50000000  0.53583888  0.11941572  1
  Ge  Ge9  1  0.50000000  0.46416112  0.88058428  1
  Ge  Ge10  1  0.50000000  0.03583888  0.38058428  1
  Ge  Ge11  1  0.50000000  0.96416112  0.61941572  1
  Ge  Ge12  1  0.00000000  0.54169753  0.11784581  1
  Ge  Ge13  1  0.00000000  0.45830247  0.88215419  1
  Ge  Ge14  1  0.00000000  0.04169753  0.38215419  1
  Ge  Ge15  1  0.00000000  0.95830247  0.61784581  1
  Ge  Ge16  1  0.50000000  0.63464464  0.41325531  1
  Ge  Ge17  1  0.50000000  0.36535536  0.58674469  1
  Ge  Ge18  1  0.50000000  0.13464464  0.08674469  1
  Ge  Ge19  1  0.50000000  0.86535536  0.91325531  1
  Ge  Ge20  1  0.00000000  0.64111895  0.40187445  1
  Ge  Ge21  1  0.00000000  0.35888105  0.59812555  1
  Ge  Ge22  1  0.00000000  0.14111895  0.09812555  1
  Ge  Ge23  1  0.00000000  0.85888105  0.90187445  1
loop_
_geom_bond_atom_site_label_1
_geom_bond_atom_site_label_2
_geom_bond_distance
_geom_bond_site_symmetry_2
Re0 Re8 2.665503 1_555
Re0 Sc7 3.110302 1_555
Re0 Sc6 3.139053 1_554
Re0 Sc0 3.146414 1_555
Re0 Sc10 3.187556 1_555
Re0 Sc8 3.266797 1_555
Re1 Re8 2.665503 1_555
Re1 Sc6 3.110302 1_555
Re1 Sc7 3.139053 1_556
Re1 Sc1 3.146414 1_555
Re1 Sc11 3.187556 1_555
Re1 Sc9 3.266797 1_555
Re2 Re9 2.665503 1_555
Re2 Sc5 3.110302 1_545
Re2 Sc4 3.139053 1_555
Re2 Sc2 3.146414 1_555
Re2 Sc8 3.187556 1_645
Re2 Sc10 3.266797 1_655
Re3 Re9 2.665503 1_566
Re3 Sc4 3.110302 1_565
Re3 Sc5 3.139053 1_555
Re3 Sc3 3.146414 1_555
Re3 Sc9 3.187556 1_665
Re3 Sc11 3.266797 1_655
Re4 Sc3 3.110302 1_555
Re4 Sc2 3.139053 1_556
Re4 Sc4 3.146414 1_555
Re4 Sc11 3.187556 1_655
Re4 Sc9 3.266797 1_655
Re5 Sc2 3.110302 1_555
Re5 Sc3 3.139053 1_554
Re5 Sc5 3.146414 1_555
Re5 Sc10 3.187556 1_655
Re5 Sc8 3.266797 1_655
Re6 Sc1 3.110302 1_565
Re6 Sc0 3.139053 1_555
Re6 Sc6 3.146414 1_555
Re6 Sc9 3.187556 1_565
Re6 Sc11 3.266797 1_555
Re7 Sc0 3.110302 1_545
Re7 Sc1 3.139053 1_555
Re7 Sc7 3.146414 1_555
Re7 Sc8 3.187556 1_545
Re7 Sc10 3.266797 1_555
Re8 Sc10 3.135250 1_555
Re8 Sc11 3.135250 1_555
Re8 Sc0 3.143150 1_555
Re8 Sc1 3.143150 1_555
Re9 Sc9 3.135250 1_654
Re9 Sc8 3.135250 1_645
Re9 Sc2 3.143150 1_555
Re9 Sc3 3.143150 1_544
Re10 Re4 2.665503 1_555
Re10 Re5 2.665503 1_555
Re10 Sc11 3.135250 1_655
Re10 Sc10 3.135250 1_655
Re10 Sc4 3.143150 1_555
Re10 Sc5 3.143150 1_555
Re11 Re7 2.665503 1_555
Re11 Re6 2.665503 1_544
Re11 Sc9 3.135250 1_554
Re11 Sc8 3.135250 1_545
Re11 Sc6 3.143150 1_544
Re11 Sc7 3.143150 1_555
Ge0 Ge5 2.539301 1_555
Ge0 Re0 2.572651 1_555
Ge0 Re11 2.607820 1_565
Ge0 Re7 2.612337 1_565
Ge0 Sc6 2.881598 1_554
Ge0 Sc0 2.893400 1_555
Ge0 Sc8 2.895827 1_555
Ge1 Ge4 2.539301 1_555
Ge1 Re1 2.572651 1_555
Ge1 Re11 2.607820 1_556
Ge1 Re6 2.612337 1_545
Ge1 Sc7 2.881598 1_556
Ge1 Sc1 2.893400 1_555
Ge1 Sc9 2.895827 1_555
Ge2 Ge7 2.539301 1_555
Ge2 Re2 2.572651 1_555
Ge2 Re10 2.607820 1_555
Ge2 Re5 2.612337 1_555
Ge2 Sc4 2.881598 1_555
Ge2 Sc2 2.893400 1_555
Ge2 Sc10 2.895827 1_655
Ge3 Ge6 2.539301 1_555
Ge3 Re3 2.572651 1_555
Ge3 Re10 2.607820 1_555
Ge3 Re4 2.612337 1_555
Ge3 Sc5 2.881598 1_555
Ge3 Sc3 2.893400 1_555
Ge3 Sc11 2.895827 1_655
Ge4 Re4 2.572651 1_555
Ge4 Re9 2.607820 1_556
Ge4 Re3 2.612337 1_545
Ge4 Sc2 2.881598 1_556
Ge4 Sc4 2.893400 1_555
Ge4 Sc9 2.895827 1_655
Ge5 Re5 2.572651 1_555
Ge5 Re9 2.607820 1_565
Ge5 Re2 2.612337 1_565
Ge5 Sc3 2.881598 1_554
Ge5 Sc5 2.893400 1_555
Ge5 Sc8 2.895827 1_655
Ge6 Re6 2.572651 1_555
Ge6 Re8 2.607820 1_555
Ge6 Re1 2.612337 1_555
Ge6 Sc0 2.881598 1_555
Ge6 Sc6 2.893400 1_555
Ge6 Sc11 2.895827 1_555
Ge7 Re7 2.572651 1_555
Ge7 Re8 2.607820 1_555
Ge7 Re0 2.612337 1_555
Ge7 Sc1 2.881598 1_555
Ge7 Sc7 2.893400 1_555
Ge7 Sc10 2.895827 1_555
Ge8 Re0 2.496941 1_555
Ge8 Re5 2.496941 1_555
Ge8 Ge9 2.522854 1_554
Ge8 Sc7 2.974120 1_555
Ge8 Sc2 2.974120 1_555
Ge8 Sc3 3.006990 1_554
Ge8 Sc6 3.006990 1_554
Ge9 Re4 2.496941 1_555
Ge9 Re1 2.496941 1_555
Ge9 Sc3 2.974120 1_555
Ge9 Sc6 2.974120 1_555
Ge9 Sc7 3.006990 1_556
Ge9 Sc2 3.006990 1_556
Ge10 Re2 2.496941 1_555
Ge10 Re7 2.496941 1_555
Ge10 Ge11 2.522854 1_545
Ge10 Sc0 2.974120 1_545
Ge10 Sc5 2.974120 1_545
Ge10 Sc1 3.006990 1_555
Ge10 Sc4 3.006990 1_555
Ge11 Re3 2.496941 1_555
Ge11 Re6 2.496941 1_555
Ge11 Sc4 2.974120 1_565
Ge11 Sc1 2.974120 1_565
Ge11 Sc5 3.006990 1_555
Ge11 Sc0 3.006990 1_555
Ge12 Re5 2.490799 1_455
Ge12 Re0 2.490799 1_555
Ge12 Ge13 2.524277 1_554
Ge12 Sc8 2.828573 1_555
Ge12 Sc10 2.851349 1_555
Ge12 Sc6 2.910840 1_554
Ge12 Sc3 2.910840 1_454
Ge12 Sc7 2.943300 1_555
Ge12 Sc2 2.943300 1_455
Ge13 Re4 2.490799 1_455
Ge13 Re1 2.490799 1_555
Ge13 Sc9 2.828573 1_555
Ge13 Sc11 2.851349 1_555
Ge13 Sc2 2.910840 1_456
Ge13 Sc7 2.910840 1_556
Ge13 Sc6 2.943300 1_555
Ge13 Sc3 2.943300 1_455
Ge14 Re2 2.490799 1_455
Ge14 Re7 2.490799 1_555
Ge14 Ge15 2.524277 1_545
Ge14 Sc10 2.828573 1_555
Ge14 Sc8 2.851349 1_545
Ge14 Sc1 2.910840 1_555
Ge14 Sc4 2.910840 1_455
Ge14 Sc0 2.943300 1_545
Ge14 Sc5 2.943300 1_445
Ge15 Re3 2.490799 1_455
Ge15 Re6 2.490799 1_555
Ge15 Sc11 2.828573 1_555
Ge15 Sc9 2.851349 1_565
Ge15 Sc0 2.910840 1_555
Ge15 Sc5 2.910840 1_455
Ge15 Sc1 2.943300 1_565
Ge15 Sc4 2.943300 1_465
Ge16 Re10 2.636046 1_555
Ge16 Re8 2.636046 1_555
Ge16 Re5 2.729192 1_555
Ge16 Re0 2.729192 1_555
Ge16 Sc5 2.837608 1_555
Ge16 Sc0 2.837608 1_555
Ge17 Re10 2.636046 1_555
Ge17 Re8 2.636046 1_555
Ge17 Re1 2.729192 1_555
Ge17 Re4 2.729192 1_555
Ge17 Sc4 2.837608 1_555
Ge17 Sc1 2.837608 1_555
Ge18 Re9 2.636046 1_555
Ge18 Re11 2.636046 1_555
Ge18 Re7 2.729192 1_555
Ge18 Re2 2.729192 1_555
Ge18 Sc7 2.837608 1_555
Ge18 Sc2 2.837608 1_555
Ge19 Re9 2.636046 1_566
Ge19 Re11 2.636046 1_566
Ge19 Re6 2.729192 1_555
Ge19 Re3 2.729192 1_555
Ge19 Sc6 2.837608 1_555
Ge19 Sc3 2.837608 1_555
Ge20 Re10 2.624102 1_455
Ge20 Re8 2.624102 1_555
Ge20 Re5 2.666482 1_455
Ge20 Re0 2.666482 1_555
Ge20 Sc0 2.749385 1_555
Ge20 Sc5 2.749385 1_455
Ge20 Sc11 2.819097 1_555
Ge20 Sc8 2.919117 1_555
Ge20 Sc10 3.001672 1_555
Ge21 Re10 2.624102 1_455
Ge21 Re8 2.624102 1_555
Ge21 Re4 2.666482 1_455
Ge21 Re1 2.666482 1_555
Ge21 Sc1 2.749385 1_555
Ge21 Sc4 2.749385 1_455
Ge21 Sc10 2.819097 1_555
Ge21 Sc9 2.919117 1_555
Ge21 Sc11 3.001672 1_555
Ge22 Re11 2.624102 1_555
Ge22 Re9 2.624102 1_455
Ge22 Re7 2.666482 1_555
Ge22 Re2 2.666482 1_455
Ge22 Sc7 2.749385 1_555
Ge22 Sc2 2.749385 1_455
Ge22 Sc9 2.819097 1_554
Ge22 Sc10 2.919117 1_555
Ge22 Sc8 3.001672 1_545
Ge23 Re9 2.624102 1_466
Ge23 Re11 2.624102 1_566
Ge23 Re3 2.666482 1_455
Ge23 Re6 2.666482 1_555
Ge23 Sc6 2.749385 1_555
Ge23 Sc3 2.749385 1_455
Ge23 Sc8 2.819097 1_556
Ge23 Sc11 2.919117 1_555
Ge23 Sc9 3.001672 1_565
